# Generated by pormake.
# Topology wna, (6)-cn, num edge types: 1
# Building blocks:
#     Node 0, Type 0, BuildingBlock: MIDCAF_clean_sbu_0, # of connection points: 6
#     Node 1, Type 0, BuildingBlock: MIDCAF_clean_sbu_0, # of connection points: 6
#     Node 2, Type 0, BuildingBlock: MIDCAF_clean_sbu_0, # of connection points: 6
#     Node 3, Type 0, BuildingBlock: MIDCAF_clean_sbu_0, # of connection points: 6
#     Node 4, Type 0, BuildingBlock: MIDCAF_clean_sbu_0, # of connection points: 6
#     Node 5, Type 0, BuildingBlock: MIDCAF_clean_sbu_0, # of connection points: 6
#     Node 6, Type 0, BuildingBlock: MIDCAF_clean_sbu_0, # of connection points: 6
#     Node 7, Type 0, BuildingBlock: MIDCAF_clean_sbu_0, # of connection points: 6
#     Node 8, Type 0, BuildingBlock: MIDCAF_clean_sbu_0, # of connection points: 6
#     Node 9, Type 0, BuildingBlock: MIDCAF_clean_sbu_0, # of connection points: 6
#     Node 10, Type 0, BuildingBlock: MIDCAF_clean_sbu_0, # of connection points: 6
#     Node 11, Type 0, BuildingBlock: MIDCAF_clean_sbu_0, # of connection points: 6
#     Node 12, Type 0, BuildingBlock: MIDCAF_clean_sbu_0, # of connection points: 6
#     Node 13, Type 0, BuildingBlock: MIDCAF_clean_sbu_0, # of connection points: 6
#     Node 14, Type 0, BuildingBlock: MIDCAF_clean_sbu_0, # of connection points: 6
#     Node 15, Type 0, BuildingBlock: MIDCAF_clean_sbu_0, # of connection points: 6
#     Node 16, Type 0, BuildingBlock: MIDCAF_clean_sbu_0, # of connection points: 6
#     Node 17, Type 0, BuildingBlock: MIDCAF_clean_sbu_0, # of connection points: 6
#     Node 18, Type 0, BuildingBlock: MIDCAF_clean_sbu_0, # of connection points: 6
#     Node 19, Type 0, BuildingBlock: MIDCAF_clean_sbu_0, # of connection points: 6
#     Node 20, Type 0, BuildingBlock: MIDCAF_clean_sbu_0, # of connection points: 6
#     Node 21, Type 0, BuildingBlock: MIDCAF_clean_sbu_0, # of connection points: 6
#     Node 22, Type 0, BuildingBlock: MIDCAF_clean_sbu_0, # of connection points: 6
#     Node 23, Type 0, BuildingBlock: MIDCAF_clean_sbu_0, # of connection points: 6
#     Node 24, Type 0, BuildingBlock: MIDCAF_clean_sbu_0, # of connection points: 6
#     Node 25, Type 0, BuildingBlock: MIDCAF_clean_sbu_0, # of connection points: 6
#     Node 26, Type 0, BuildingBlock: MIDCAF_clean_sbu_0, # of connection points: 6
#     Node 27, Type 0, BuildingBlock: MIDCAF_clean_sbu_0, # of connection points: 6
#     Node 28, Type 0, BuildingBlock: MIDCAF_clean_sbu_0, # of connection points: 6
#     Node 29, Type 0, BuildingBlock: MIDCAF_clean_sbu_0, # of connection points: 6
#     Node 30, Type 0, BuildingBlock: MIDCAF_clean_sbu_0, # of connection points: 6
#     Node 31, Type 0, BuildingBlock: MIDCAF_clean_sbu_0, # of connection points: 6
#     Node 32, Type 0, BuildingBlock: MIDCAF_clean_sbu_0, # of connection points: 6
#     Node 33, Type 0, BuildingBlock: MIDCAF_clean_sbu_0, # of connection points: 6
#     Node 34, Type 0, BuildingBlock: MIDCAF_clean_sbu_0, # of connection points: 6
#     Node 35, Type 0, BuildingBlock: MIDCAF_clean_sbu_0, # of connection points: 6
#     Edge 36, Type (0, 0), None
#     Edge 37, Type (0, 0), None
#     Edge 38, Type (0, 0), None
#     Edge 39, Type (0, 0), None
#     Edge 40, Type (0, 0), None
#     Edge 41, Type (0, 0), None
#     Edge 42, Type (0, 0), None
#     Edge 43, Type (0, 0), None
#     Edge 44, Type (0, 0), None
#     Edge 45, Type (0, 0), None
#     Edge 46, Type (0, 0), None
#     Edge 47, Type (0, 0), None
#     Edge 48, Type (0, 0), None
#     Edge 49, Type (0, 0), None
#     Edge 50, Type (0, 0), None
#     Edge 51, Type (0, 0), None
#     Edge 52, Type (0, 0), None
#     Edge 53, Type (0, 0), None
#     Edge 54, Type (0, 0), None
#     Edge 55, Type (0, 0), None
#     Edge 56, Type (0, 0), None
#     Edge 57, Type (0, 0), None
#     Edge 58, Type (0, 0), None
#     Edge 59, Type (0, 0), None
#     Edge 60, Type (0, 0), None
#     Edge 61, Type (0, 0), None
#     Edge 62, Type (0, 0), None
#     Edge 63, Type (0, 0), None
#     Edge 64, Type (0, 0), None
#     Edge 65, Type (0, 0), None
#     Edge 66, Type (0, 0), None
#     Edge 67, Type (0, 0), None
#     Edge 68, Type (0, 0), None
#     Edge 69, Type (0, 0), None
#     Edge 70, Type (0, 0), None
#     Edge 71, Type (0, 0), None
#     Edge 72, Type (0, 0), None
#     Edge 73, Type (0, 0), None
#     Edge 74, Type (0, 0), None
#     Edge 75, Type (0, 0), None
#     Edge 76, Type (0, 0), None
#     Edge 77, Type (0, 0), None
#     Edge 78, Type (0, 0), None
#     Edge 79, Type (0, 0), None
#     Edge 80, Type (0, 0), None
#     Edge 81, Type (0, 0), None
#     Edge 82, Type (0, 0), None
#     Edge 83, Type (0, 0), None
#     Edge 84, Type (0, 0), None
#     Edge 85, Type (0, 0), None
#     Edge 86, Type (0, 0), None
#     Edge 87, Type (0, 0), None
#     Edge 88, Type (0, 0), None
#     Edge 89, Type (0, 0), None
#     Edge 90, Type (0, 0), None
#     Edge 91, Type (0, 0), None
#     Edge 92, Type (0, 0), None
#     Edge 93, Type (0, 0), None
#     Edge 94, Type (0, 0), None
#     Edge 95, Type (0, 0), None
#     Edge 96, Type (0, 0), None
#     Edge 97, Type (0, 0), None
#     Edge 98, Type (0, 0), None
#     Edge 99, Type (0, 0), None
#     Edge 100, Type (0, 0), None
#     Edge 101, Type (0, 0), None
#     Edge 102, Type (0, 0), None
#     Edge 103, Type (0, 0), None
#     Edge 104, Type (0, 0), None
#     Edge 105, Type (0, 0), None
#     Edge 106, Type (0, 0), None
#     Edge 107, Type (0, 0), None
#     Edge 108, Type (0, 0), None
#     Edge 109, Type (0, 0), None
#     Edge 110, Type (0, 0), None
#     Edge 111, Type (0, 0), None
#     Edge 112, Type (0, 0), None
#     Edge 113, Type (0, 0), None
#     Edge 114, Type (0, 0), None
#     Edge 115, Type (0, 0), None
#     Edge 116, Type (0, 0), None
#     Edge 117, Type (0, 0), None
#     Edge 118, Type (0, 0), None
#     Edge 119, Type (0, 0), None
#     Edge 120, Type (0, 0), None
#     Edge 121, Type (0, 0), None
#     Edge 122, Type (0, 0), None
#     Edge 123, Type (0, 0), None
#     Edge 124, Type (0, 0), None
#     Edge 125, Type (0, 0), None
#     Edge 126, Type (0, 0), None
#     Edge 127, Type (0, 0), None
#     Edge 128, Type (0, 0), None
#     Edge 129, Type (0, 0), None
#     Edge 130, Type (0, 0), None
#     Edge 131, Type (0, 0), None
#     Edge 132, Type (0, 0), None
#     Edge 133, Type (0, 0), None
#     Edge 134, Type (0, 0), None
#     Edge 135, Type (0, 0), None
#     Edge 136, Type (0, 0), None
#     Edge 137, Type (0, 0), None
#     Edge 138, Type (0, 0), None
#     Edge 139, Type (0, 0), None
#     Edge 140, Type (0, 0), None
#     Edge 141, Type (0, 0), None
#     Edge 142, Type (0, 0), None
#     Edge 143, Type (0, 0), None
# Relax obj value: 0.261
# Max RMSD: 0.218
# Mean RMSD: 0.217
data_MOF--net-wna--node1-MIDCAF_clean_sbu_0--edge1-none
_symmetry_space_group_name_H-M    P1
_symmetry_Int_Tables_number       1
_symmetry_cell_setting            triclinic
loop_
_symmetry_equiv_pos_as_xyz
'x, y, z'
_cell_length_a     18.115454
_cell_length_b     18.115593
_cell_length_c     39.079468
_cell_angle_alpha  90.000027
_cell_angle_beta   90.000231
_cell_angle_gamma 120.00043
loop_
_atom_site_label
_atom_site_type_symbol
_atom_site_fract_x
_atom_site_fract_y
_atom_site_fract_z
_atom_type_partial_charge
Zn0 Zn 0.24943 0.25904 0.23658 0.0
Zn1 Zn 0.05856 0.24538 0.11126 0.0
Zn2 Zn 0.14507 0.28737 0.16539 0.0
C3 C 0.10434 0.41839 0.14435 0.0
C4 C 0.20854 0.28989 0.08976 0.0
O5 O 0.20444 0.21043 0.1508 0.0
O6 O 0.23155 0.1698 0.20128 0.0
C7 C 0.06711 0.21635 0.23984 0.0
O8 O 0.16137 0.4144 0.16223 0.0
O9 O 0.05855 0.35718 0.12418 0.0
O10 O 0.13824 0.2435 0.07505 0.0
O11 O 0.21112 0.27165 0.12158 0.0
O12 O 0.13843 0.24215 0.25432 0.0
O13 O 0.05856 0.21743 0.20704 0.0
O14 O 0.23854 0.41881 0.17908 0.0
O15 O 0.22149 0.35053 0.22525 0.0
C16 C 0.27257 0.40904 0.20584 0.0
O17 O 1.00419 0.18973 0.17451 0.0
O18 O 0.95453 0.13706 0.12296 0.0
C19 C 0.21817 0.15905 0.16939 0.0
C20 C 0.94338 0.1348 0.15485 0.0
Zn21 Zn 0.76397 0.99499 0.23659 0.0
Zn22 Zn 0.77763 0.81778 0.11126 0.0
Zn23 Zn 0.73564 0.8623 0.16539 0.0
C24 C 0.60462 0.69055 0.14435 0.0
C25 C 0.73313 0.92325 0.08976 0.0
O26 O 0.81258 0.99861 0.1508 0.0
O27 O 0.8532 0.06636 0.20128 0.0
C28 C 0.80667 0.85537 0.23984 0.0
O29 O 0.60861 0.75157 0.16223 0.0
O30 O 0.66583 0.70597 0.12417 0.0
O31 O 0.77951 0.89934 0.07505 0.0
O32 O 0.75137 0.94407 0.12158 0.0
O33 O 0.78087 0.90088 0.25432 0.0
O34 O 0.80558 0.84572 0.20704 0.0
O35 O 0.6042 0.82433 0.17908 0.0
O36 O 0.67249 0.87556 0.22525 0.0
C37 C 0.61397 0.86813 0.20584 0.0
O38 O 0.83328 0.81906 0.17451 0.0
O39 O 0.88595 0.82207 0.12296 0.0
C40 C 0.86395 0.06373 0.16939 0.0
C41 C 0.88821 0.81317 0.15485 0.0
Zn42 Zn 0.20523 0.96445 0.11125 0.0
Zn43 Zn 0.02802 0.77358 0.23659 0.0
Zn44 Zn 0.16071 0.87794 0.16539 0.0
C45 C 0.15489 0.75044 0.20584 0.0
C46 C 0.16764 0.9559 0.23984 0.0
O47 O 0.20394 0.01882 0.17451 0.0
O48 O 0.20094 0.06848 0.12296 0.0
C49 C 0.09976 0.81447 0.08976 0.0
O50 O 0.19868 0.78448 0.17908 0.0
O51 O 0.14745 0.80153 0.22525 0.0
O52 O 0.12213 0.88459 0.25432 0.0
O53 O 0.17728 0.96445 0.20704 0.0
O54 O 0.12367 0.88477 0.07505 0.0
O55 O 0.07894 0.8119 0.12158 0.0
O56 O 0.27144 0.86164 0.16223 0.0
O57 O 0.31704 0.96446 0.12417 0.0
C58 C 0.33246 0.91867 0.14435 0.0
O59 O 0.0244 0.81857 0.1508 0.0
O60 O 0.95666 0.79145 0.20128 0.0
C61 C 0.20983 0.07963 0.15485 0.0
C62 C 0.95928 0.80482 0.16939 0.0
Zn63 Zn 0.24052 0.03668 0.39456 0.0
Zn64 Zn 0.28945 0.17584 0.28334 0.0
Zn65 Zn 0.28009 0.10058 0.33894 0.0
C66 C 0.39504 0.27992 0.32408 0.0
C67 C 0.21727 0.02814 0.26192 0.0
O68 O 0.16026 0.98432 0.3275 0.0
O69 O 0.12337 0.93514 0.38008 0.0
C70 C 0.30961 0.20388 0.41146 0.0
O71 O 0.3293 0.23426 0.34246 0.0
O72 O 0.41045 0.24455 0.29984 0.0
O73 O 0.27568 0.09518 0.24874 0.0
O74 O 0.20386 0.02254 0.29456 0.0
O75 O 0.26505 0.13501 0.42754 0.0
O76 O 0.2971 0.20127 0.37859 0.0
O77 O 0.39523 0.10071 0.3409 0.0
O78 O 0.35124 0.0331 0.38963 0.0
C79 C 0.4083 0.0669 0.36677 0.0
O80 O 0.226 0.17921 0.35513 0.0
O81 O 0.17622 0.1683 0.30332 0.0
C82 C 0.10734 0.92726 0.34823 0.0
C83 C 0.16824 0.17644 0.3351 0.0
Zn84 Zn 0.98633 0.20845 0.39456 0.0
Zn85 Zn 0.84718 0.11822 0.28334 0.0
Zn86 Zn 0.92243 0.18411 0.33894 0.0
C87 C 0.74309 0.11972 0.32408 0.0
C88 C 0.99487 0.19374 0.26192 0.0
O89 O 0.03869 0.18054 0.3275 0.0
O90 O 0.08787 0.19283 0.38008 0.0
C91 C 0.81913 0.11032 0.41146 0.0
O92 O 0.78875 0.09963 0.34246 0.0
O93 O 0.77846 0.1705 0.29984 0.0
O94 O 0.92784 0.18511 0.24875 0.0
O95 O 1.00047 0.18592 0.29456 0.0
O96 O 0.88801 0.13464 0.42753 0.0
O97 O 0.82175 0.10043 0.37859 0.0
O98 O 0.92231 0.29913 0.3409 0.0
O99 O 0.98991 0.32274 0.38963 0.0
C100 C 0.95611 0.34601 0.36677 0.0
O101 O 0.8438 0.05139 0.35513 0.0
O102 O 0.85471 0.01252 0.30332 0.0
C103 C 0.09575 0.18467 0.34823 0.0
C104 C 0.84657 0.9964 0.3351 0.0
Zn105 Zn 0.81457 0.78249 0.39456 0.0
Zn106 Zn 0.90479 0.73356 0.28334 0.0
Zn107 Zn 0.83891 0.74293 0.33894 0.0
C108 C 0.90329 0.62797 0.32408 0.0
C109 C 0.82928 0.80574 0.26192 0.0
O110 O 0.84248 0.86276 0.3275 0.0
O111 O 0.83018 0.89964 0.38008 0.0
C112 C 0.91269 0.71341 0.41146 0.0
O113 O 0.92338 0.69371 0.34246 0.0
O114 O 0.85251 0.61256 0.29984 0.0
O115 O 0.8379 0.74733 0.24875 0.0
O116 O 0.83709 0.81915 0.29456 0.0
O117 O 0.88837 0.75797 0.42754 0.0
O118 O 0.92258 0.72592 0.37859 0.0
O119 O 0.72388 0.62778 0.3409 0.0
O120 O 0.70028 0.67177 0.38963 0.0
C121 C 0.677 0.61471 0.36677 0.0
O122 O 0.97162 0.79701 0.35513 0.0
O123 O 1.01049 0.84679 0.30332 0.0
C124 C 0.83834 0.91568 0.34823 0.0
C125 C 0.02661 0.85476 0.3351 0.0
Zn126 Zn 0.79324 0.75097 0.78214 0.0
Zn127 Zn 0.96983 0.77464 0.90895 0.0
Zn128 Zn 0.89166 0.73701 0.84687 0.0
C129 C 0.93128 0.60728 0.87216 0.0
C130 C 0.81828 0.72631 0.92301 0.0
O131 O 0.83935 0.81547 0.86555 0.0
O132 O 0.78549 0.8323 0.81724 0.0
C133 C 0.97235 0.82675 0.77082 0.0
O134 O 0.87949 0.61263 0.85149 0.0
O135 O 0.97015 0.66539 0.89433 0.0
O136 O 0.87874 0.76562 0.94374 0.0
O137 O 0.83422 0.75936 0.89258 0.0
O138 O 0.90174 0.80785 0.75796 0.0
O139 O 0.9791 0.81044 0.8027 0.0
O140 O 0.79206 0.60244 0.83801 0.0
O141 O 0.80077 0.64533 0.78742 0.0
C142 C 0.753 0.59649 0.81022 0.0
O143 O 0.03214 0.82995 0.83913 0.0
O144 O 0.06931 0.88385 0.89167 0.0
C145 C 0.80955 0.85461 0.84766 0.0
C146 C 0.0877 0.88554 0.86027 0.0
Zn147 Zn 0.27204 0.04688 0.78214 0.0
Zn148 Zn 0.24837 0.19978 0.90895 0.0
Zn149 Zn 0.286 0.15926 0.84687 0.0
C150 C 0.41574 0.3286 0.87216 0.0
C151 C 0.2967 0.09657 0.92301 0.0
O152 O 0.20754 0.02848 0.86555 0.0
O153 O 0.19071 0.95778 0.81724 0.0
C154 C 0.19625 0.15019 0.77082 0.0
O155 O 0.41039 0.27147 0.85149 0.0
O156 O 0.35763 0.30936 0.89434 0.0
O157 O 0.25739 0.11772 0.94374 0.0
O158 O 0.26365 0.07946 0.89258 0.0
O159 O 0.21515 0.09848 0.75797 0.0
O160 O 0.21257 0.17325 0.8027 0.0
O161 O 0.42058 0.19423 0.83801 0.0
O162 O 0.37768 0.16004 0.78742 0.0
C163 C 0.42652 0.16111 0.81022 0.0
O164 O 0.19307 0.2068 0.83913 0.0
O165 O 0.13916 0.19007 0.89167 0.0
C166 C 0.16841 0.95954 0.84766 0.0
C167 C 0.13747 0.20676 0.86027 0.0
Zn168 Zn 0.82323 0.05318 0.90896 0.0
Zn169 Zn 0.97613 0.22977 0.78214 0.0
Zn170 Zn 0.86376 0.13135 0.84687 0.0
C171 C 0.86191 0.27002 0.81022 0.0
C172 C 0.87282 0.05066 0.77082 0.0
O173 O 0.81622 0.99087 0.83913 0.0
O174 O 0.83295 0.9537 0.89167 0.0
C175 C 0.92644 0.20473 0.92301 0.0
O176 O 0.82879 0.23095 0.83801 0.0
O177 O 0.86297 0.22224 0.78742 0.0
O178 O 0.92453 0.12127 0.75797 0.0
O179 O 0.84976 0.04391 0.80271 0.0
O180 O 0.9053 0.14427 0.94374 0.0
O181 O 0.94355 0.18878 0.89258 0.0
O182 O 0.75155 0.14352 0.85149 0.0
O183 O 0.71365 0.05287 0.89434 0.0
C184 C 0.69442 0.09174 0.87216 0.0
O185 O 0.99453 0.18366 0.86555 0.0
O186 O 0.06524 0.23754 0.81724 0.0
C187 C 0.81626 0.93532 0.86027 0.0
C188 C 0.06348 0.21348 0.84766 0.0
Zn189 Zn 0.78783 0.96479 0.61243 0.0
Zn190 Zn 0.76427 0.80081 0.73713 0.0
Zn191 Zn 0.75142 0.89044 0.67119 0.0
C192 C 0.86213 0.81357 0.66927 0.0
C193 C 0.61494 0.75511 0.70663 0.0
O194 O 0.63393 0.87909 0.66736 0.0
O195 O 0.69247 0.98436 0.62991 0.0
C196 C 0.8987 0.08074 0.65671 0.0
O197 O 0.81835 0.83463 0.65015 0.0
O198 O 0.84526 0.79888 0.70059 0.0
O199 O 0.6525 0.79635 0.73279 0.0
O200 O 0.61909 0.80133 0.68151 0.0
O201 O 0.90004 0.06015 0.62583 0.0
O202 O 0.84262 0.02708 0.67789 0.0
O203 O 0.75704 0.81991 0.62516 0.0
O204 O 0.76442 0.8739 0.5757 0.0
C205 C 0.72468 0.81031 0.59476 0.0
O206 O 0.82493 0.9808 0.71549 0.0
O207 O 0.81954 0.90667 0.76186 0.0
C208 C 0.63476 0.94039 0.65146 0.0
C209 C 0.83853 0.97616 0.74795 0.0
Zn210 Zn 0.05822 0.82765 0.61242 0.0
Zn211 Zn 0.2222 0.96805 0.73713 0.0
Zn212 Zn 0.13258 0.86558 0.67119 0.0
C213 C 0.20945 0.05317 0.66927 0.0
C214 C 0.26791 0.86443 0.70663 0.0
O215 O 0.14392 0.75944 0.66736 0.0
O216 O 0.03866 0.71272 0.62991 0.0
C217 C 0.94228 0.82257 0.65671 0.0
O218 O 0.18839 0.98833 0.65015 0.0
O219 O 0.22414 0.05099 0.70059 0.0
O220 O 0.22667 0.86076 0.73279 0.0
O221 O 0.22168 0.82236 0.68151 0.0
O222 O 0.96287 0.8445 0.62582 0.0
O223 O 0.99594 0.82015 0.67789 0.0
O224 O 0.2031 0.94173 0.62516 0.0
O225 O 0.14912 0.89513 0.5757 0.0
C226 C 0.2127 0.91897 0.59476 0.0
O227 O 0.04221 0.84873 0.71548 0.0
O228 O 0.11634 0.91747 0.76186 0.0
C229 C 0.08263 0.69898 0.65146 0.0
C230 C 0.04685 0.86697 0.74795 0.0
Zn231 Zn 0.19537 0.23518 0.61242 0.0
Zn232 Zn 0.05496 0.25875 0.73713 0.0
Zn233 Zn 0.15743 0.27159 0.67119 0.0
C234 C 0.96983 0.1609 0.66927 0.0
C235 C 0.15859 0.40808 0.70663 0.0
O236 O 0.26357 0.38908 0.66736 0.0
O237 O 0.3103 0.33055 0.62991 0.0
C238 C 0.20045 0.12431 0.65671 0.0
O239 O 0.03468 0.20466 0.65015 0.0
O240 O 0.97201 0.17777 0.7006 0.0
O241 O 0.16226 0.37051 0.73279 0.0
O242 O 0.20066 0.40392 0.68151 0.0
O243 O 0.17852 0.12297 0.62582 0.0
O244 O 0.20286 0.18039 0.67789 0.0
O245 O 0.08128 0.26597 0.62516 0.0
O246 O 0.12788 0.25858 0.5757 0.0
C247 C 0.10404 0.29833 0.59476 0.0
O248 O 0.17428 0.19808 0.71548 0.0
O249 O 0.10554 0.20347 0.76186 0.0
C250 C 0.32403 0.38825 0.65146 0.0
C251 C 0.15604 0.18448 0.74795 0.0
Zn252 Zn 0.72519 0.57872 0.44461 0.0
Zn253 Zn 0.91606 0.59239 0.56992 0.0
Zn254 Zn 0.81171 0.6207 0.49872 0.0
C255 C 0.93921 0.74238 0.53915 0.0
C256 C 0.73377 0.54968 0.57318 0.0
O257 O 0.67084 0.52304 0.50785 0.0
O258 O 0.62116 0.4704 0.4563 0.0
C259 C 0.87513 0.62314 0.42309 0.0
O260 O 0.90516 0.75215 0.51239 0.0
O261 O 0.88813 0.68388 0.55857 0.0
O262 O 0.80508 0.57549 0.58766 0.0
O263 O 0.72521 0.55076 0.54038 0.0
O264 O 0.8048 0.57686 0.40839 0.0
O265 O 0.87787 0.60507 0.45492 0.0
O266 O 0.82802 0.74774 0.49555 0.0
O267 O 0.72517 0.69052 0.4575 0.0
C268 C 0.771 0.75175 0.47767 0.0
O269 O 0.87111 0.54378 0.48414 0.0
O270 O 0.89819 0.50315 0.53462 0.0
C271 C 0.61002 0.46812 0.48819 0.0
C272 C 0.88483 0.4924 0.50273 0.0
Zn273 Zn 0.4443 0.15107 0.44461 0.0
Zn274 Zn 0.43062 0.32827 0.56992 0.0
Zn275 Zn 0.40232 0.19561 0.49872 0.0
C276 C 0.28064 0.20144 0.53915 0.0
C277 C 0.47334 0.18869 0.57317 0.0
O278 O 0.49997 0.1524 0.50785 0.0
O279 O 0.55262 0.15536 0.4563 0.0
C280 C 0.39987 0.25659 0.42309 0.0
O281 O 0.27087 0.15762 0.51239 0.0
O282 O 0.33913 0.20885 0.55857 0.0
O283 O 0.44754 0.23419 0.58766 0.0
O284 O 0.47225 0.17905 0.54038 0.0
O285 O 0.44615 0.23253 0.40839 0.0
O286 O 0.41795 0.2774 0.45492 0.0
O287 O 0.27527 0.08488 0.49555 0.0
O288 O 0.33249 0.03925 0.4575 0.0
C289 C 0.27127 0.02385 0.47767 0.0
O290 O 0.47923 0.33193 0.48414 0.0
O291 O 0.51986 0.39965 0.53462 0.0
C292 C 0.55489 0.1465 0.48819 0.0
C293 C 0.5306 0.39704 0.50273 0.0
Zn294 Zn 0.69474 0.10695 0.56992 0.0
Zn295 Zn 0.87194 0.29783 0.44461 0.0
Zn296 Zn 0.8274 0.21131 0.49872 0.0
C297 C 0.99916 0.25201 0.47767 0.0
C298 C 0.76642 0.14788 0.42309 0.0
O299 O 0.69109 0.1519 0.48414 0.0
O300 O 0.62336 0.12481 0.53462 0.0
C301 C 0.83432 0.28925 0.57318 0.0
O302 O 0.93814 0.195 0.49555 0.0
O303 O 0.98376 0.29784 0.4575 0.0
O304 O 0.79048 0.21822 0.40839 0.0
O305 O 0.74561 0.14514 0.45492 0.0
O306 O 0.78882 0.21794 0.58766 0.0
O307 O 0.84396 0.2978 0.54038 0.0
O308 O 0.86539 0.11785 0.51239 0.0
O309 O 0.81416 0.13488 0.55857 0.0
C310 C 0.82158 0.0838 0.53915 0.0
O311 O 0.87061 0.35217 0.50785 0.0
O312 O 0.86765 0.40186 0.4563 0.0
C313 C 0.62598 0.13817 0.50273 0.0
C314 C 0.87651 0.41299 0.48819 0.0
Zn315 Zn 0.95615 0.50923 0.61665 0.0
Zn316 Zn 0.90722 0.36994 0.72791 0.0
Zn317 Zn 0.94675 0.4339 0.67229 0.0
C318 C 0.07499 0.40019 0.70011 0.0
C319 C 0.97626 0.53718 0.7448 0.0
O320 O 0.89268 0.51256 0.68846 0.0
O321 O 0.84293 0.50169 0.63665 0.0
C322 C 0.88395 0.3615 0.59525 0.0
O323 O 0.06189 0.43403 0.67425 0.0
O324 O 0.01793 0.36634 0.72298 0.0
O325 O 0.93174 0.46829 0.76087 0.0
O326 O 0.96375 0.53458 0.71193 0.0
O327 O 0.94234 0.42854 0.58208 0.0
O328 O 0.87054 0.35589 0.6279 0.0
O329 O 0.99599 0.56759 0.6758 0.0
O330 O 0.07716 0.57788 0.63316 0.0
C331 C 0.06175 0.61319 0.65742 0.0
O332 O 0.82692 0.31764 0.66084 0.0
O333 O 0.79006 0.26842 0.71341 0.0
C334 C 0.83494 0.50982 0.66843 0.0
C335 C 0.77402 0.26057 0.68156 0.0
Zn336 Zn 0.65308 0.54189 0.72791 0.0
Zn337 Zn 0.51378 0.45152 0.61665 0.0
Zn338 Zn 0.58911 0.51745 0.67229 0.0
C339 C 0.40983 0.45316 0.65742 0.0
C340 C 0.66152 0.52706 0.59525 0.0
O341 O 0.70537 0.51388 0.66084 0.0
O342 O 0.7546 0.52625 0.71341 0.0
C343 C 0.48583 0.44368 0.7448 0.0
O344 O 0.45543 0.43301 0.6758 0.0
O345 O 0.44513 0.50388 0.63316 0.0
O346 O 0.59448 0.51842 0.58208 0.0
O347 O 0.66712 0.51925 0.6279 0.0
O348 O 0.55473 0.46806 0.76087 0.0
O349 O 0.48843 0.43377 0.71193 0.0
O350 O 0.58899 0.63247 0.67425 0.0
O351 O 0.65668 0.6562 0.72298 0.0
C352 C 0.62282 0.67939 0.70011 0.0
O353 O 0.51045 0.38473 0.68846 0.0
O354 O 0.52132 0.34584 0.63665 0.0
C355 C 0.76245 0.51805 0.68156 0.0
C356 C 0.5132 0.32973 0.66843 0.0
Zn357 Zn 0.57149 0.06686 0.61665 0.0
Zn358 Zn 0.48112 0.11579 0.72791 0.0
Zn359 Zn 0.50557 0.07627 0.67229 0.0
C360 C 0.34362 0.94803 0.70011 0.0
C361 C 0.57934 0.04676 0.7448 0.0
O362 O 0.63829 0.13033 0.68846 0.0
O363 O 0.67718 0.18008 0.63665 0.0
C364 C 0.49596 0.13907 0.59525 0.0
O365 O 0.39055 0.96113 0.67425 0.0
O366 O 0.36682 1.00508 0.72298 0.0
O367 O 0.55496 0.09128 0.76087 0.0
O368 O 0.58924 0.05926 0.71193 0.0
O369 O 0.5046 0.08067 0.58208 0.0
O370 O 0.50376 0.15247 0.6279 0.0
O371 O 0.59001 0.02702 0.6758 0.0
O372 O 0.51913 0.94586 0.63316 0.0
C373 C 0.56985 0.96127 0.65742 0.0
O374 O 0.50914 0.1961 0.66084 0.0
O375 O 0.49677 0.23295 0.71341 0.0
C376 C 0.69329 0.18807 0.66843 0.0
C377 C 0.50497 0.249 0.68156 0.0
Zn378 Zn 0.46025 0.0843 0.11551 0.0
Zn379 Zn 0.63659 0.10798 0.24232 0.0
Zn380 Zn 0.55843 0.07042 0.18019 0.0
C381 C 0.59792 0.94062 0.20546 0.0
C382 C 0.48508 0.05966 0.25634 0.0
O383 O 0.50616 0.14886 0.1989 0.0
O384 O 0.45204 0.16543 0.1506 0.0
C385 C 0.63927 0.16028 0.10417 0.0
O386 O 0.54617 0.94602 0.18478 0.0
O387 O 0.6368 0.99869 0.22765 0.0
O388 O 0.54548 0.09894 0.2771 0.0
O389 O 0.5011 0.09278 0.22593 0.0
O390 O 0.56868 0.14147 0.09132 0.0
O391 O 0.64597 0.14386 0.13605 0.0
O392 O 0.45874 0.93593 0.17131 0.0
O393 O 0.46715 0.97821 0.12058 0.0
C394 C 0.4196 0.9297 0.1435 0.0
O395 O 0.69893 0.16332 0.17246 0.0
O396 O 0.73607 0.21718 0.22501 0.0
C397 C 0.47618 0.18784 0.18101 0.0
C398 C 0.75448 0.21889 0.19361 0.0
Zn399 Zn 0.91503 0.53321 0.24232 0.0
Zn400 Zn 0.93871 0.38055 0.11551 0.0
Zn401 Zn 0.95259 0.49261 0.18019 0.0
C402 C 0.09331 0.4945 0.1435 0.0
C403 C 0.86273 0.48358 0.10417 0.0
O404 O 0.85969 0.54022 0.17246 0.0
O405 O 0.80584 0.5235 0.22501 0.0
C406 C 0.96334 0.43001 0.25634 0.0
O407 O 0.08708 0.52741 0.17131 0.0
O408 O 0.04479 0.49353 0.12058 0.0
O409 O 0.88153 0.4318 0.09132 0.0
O410 O 0.87915 0.50671 0.13605 0.0
O411 O 0.92407 0.45113 0.2771 0.0
O412 O 0.93022 0.41292 0.22593 0.0
O413 O 0.07699 0.60476 0.18478 0.0
O414 O 0.02432 0.6427 0.22765 0.0
C415 C 0.0824 0.6619 0.20546 0.0
O416 O 0.87415 0.3619 0.19889 0.0
O417 O 0.85759 0.29121 0.1506 0.0
C418 C 0.80412 0.54019 0.19361 0.0
C419 C 0.83518 0.29293 0.18101 0.0
Zn420 Zn 0.64246 0.56275 0.11551 0.0
Zn421 Zn 0.48979 0.38641 0.24232 0.0
Zn422 Zn 0.5304 0.46458 0.18019 0.0
C423 C 0.36111 0.4251 0.20546 0.0
C424 C 0.593 0.53793 0.25634 0.0
O425 O 0.66111 0.51685 0.19889 0.0
O426 O 0.7318 0.57098 0.1506 0.0
C427 C 0.53943 0.38374 0.10417 0.0
O428 O 0.41826 0.47684 0.18478 0.0
O429 O 0.38031 0.38622 0.22765 0.0
O430 O 0.57188 0.47753 0.2771 0.0
O431 O 0.61009 0.5219 0.22593 0.0
O432 O 0.59121 0.45432 0.09132 0.0
O433 O 0.5163 0.37704 0.13605 0.0
O434 O 0.4956 0.56427 0.17131 0.0
O435 O 0.52948 0.55587 0.12058 0.0
C436 C 0.52851 0.60341 0.1435 0.0
O437 O 0.4828 0.32408 0.17246 0.0
O438 O 0.49952 0.28694 0.22501 0.0
C439 C 0.73008 0.54685 0.18101 0.0
C440 C 0.48282 0.26854 0.19361 0.0
Zn441 Zn 0.45453 0.29797 0.94593 0.0
Zn442 Zn 0.43088 0.13386 0.0705 0.0
Zn443 Zn 0.41804 0.22367 1.00452 0.0
C444 C 0.52884 0.14688 1.00264 0.0
C445 C 0.28163 0.08845 0.03994 0.0
O446 O 0.30053 0.21232 1.00065 0.0
O447 O 0.35932 0.31783 0.96333 0.0
C448 C 0.56539 0.41399 0.99007 0.0
O449 O 0.48496 0.16782 0.98351 0.0
O450 O 0.51198 0.13218 0.03396 0.0
O451 O 0.3193 0.12975 0.06608 0.0
O452 O 0.28569 0.13461 0.01482 0.0
O453 O 0.56678 0.3934 0.95919 0.0
O454 O 0.50929 0.36031 0.01124 0.0
O455 O 0.42339 0.15273 0.95856 0.0
O456 O 0.43093 0.20725 0.90916 0.0
C457 C 0.39129 0.14348 0.92812 0.0
O458 O 0.49154 0.3139 0.04884 0.0
O459 O 0.48604 0.23973 0.09523 0.0
C460 C 0.30148 0.27374 0.9848 0.0
C461 C 0.50511 0.30924 0.08131 0.0
Zn462 Zn 0.72504 0.16117 0.94593 0.0
Zn463 Zn 0.88915 0.30161 0.0705 0.0
Zn464 Zn 0.79935 0.19898 1.00452 0.0
C465 C 0.87613 0.38656 1.00264 0.0
C466 C 0.93457 0.19779 0.03994 0.0
O467 O 0.81069 0.09281 1.00065 0.0
O468 O 0.70519 0.0461 0.96333 0.0
C469 C 0.60903 0.15601 0.99007 0.0
O470 O 0.8552 0.32175 0.98351 0.0
O471 O 0.89083 0.3844 0.03396 0.0
O472 O 0.89326 0.19415 0.06608 0.0
O473 O 0.8884 0.15567 0.01482 0.0
O474 O 0.62961 0.17799 0.95919 0.0
O475 O 0.66271 0.15359 0.01124 0.0
O476 O 0.87028 0.27526 0.95856 0.0
O477 O 0.81577 0.22829 0.90915 0.0
C478 C 0.87953 0.25241 0.92812 0.0
O479 O 0.70911 0.18224 0.04884 0.0
O480 O 0.78327 0.2509 0.09523 0.0
C481 C 0.74928 0.03235 0.9848 0.0
C482 C 0.71377 0.20046 0.08131 0.0
Zn483 Zn 0.86185 0.56848 0.94593 0.0
Zn484 Zn 0.7214 0.59214 0.07051 0.0
Zn485 Zn 0.82404 0.60497 1.00452 0.0
C486 C 0.63644 0.4942 1.00264 0.0
C487 C 0.82522 0.74138 0.03994 0.0
O488 O 0.9302 0.72248 1.00065 0.0
O489 O 0.97692 0.66369 0.96333 0.0
C490 C 0.86701 0.45762 0.99007 0.0
O491 O 0.70126 0.53805 0.98351 0.0
O492 O 0.63859 0.51104 0.03396 0.0
O493 O 0.82886 0.70371 0.06608 0.0
O494 O 0.86734 0.73732 0.01482 0.0
O495 O 0.84503 0.45623 0.95919 0.0
O496 O 0.86942 0.51371 0.01124 0.0
O497 O 0.74775 0.59961 0.95856 0.0
O498 O 0.79472 0.59207 0.90915 0.0
C499 C 0.7706 0.63172 0.92812 0.0
O500 O 0.84077 0.53147 0.04884 0.0
O501 O 0.77211 0.53697 0.09523 0.0
C502 C 0.99067 0.72153 0.9848 0.0
C503 C 0.82254 0.5179 0.08131 0.0
Zn504 Zn 0.58281 0.92568 0.90328 0.0
Zn505 Zn 0.39191 0.91205 0.77795 0.0
Zn506 Zn 0.47841 0.95404 0.83207 0.0
C507 C 0.43768 0.08507 0.81103 0.0
C508 C 0.54185 0.95651 0.75644 0.0
O509 O 0.53781 0.87713 0.81748 0.0
O510 O 0.56488 0.83646 0.86796 0.0
C511 C 0.40048 0.88302 0.90651 0.0
O512 O 0.49469 0.08108 0.82893 0.0
O513 O 0.39192 0.02387 0.79085 0.0
O514 O 0.47153 0.91018 0.74173 0.0
O515 O 0.54459 0.93845 0.78827 0.0
O516 O 0.4718 0.9089 0.92099 0.0
O517 O 0.39191 0.88406 0.87371 0.0
O518 O 0.57186 0.08546 0.84579 0.0
O519 O 0.55483 0.01717 0.89199 0.0
C520 C 0.60585 0.07564 0.87255 0.0
O521 O 0.33754 0.85638 0.84119 0.0
O522 O 0.28786 0.80374 0.78964 0.0
C523 C 0.5515 0.82572 0.83607 0.0
C524 C 0.27671 0.80146 0.82152 0.0
Zn525 Zn 0.09734 0.66173 0.90328 0.0
Zn526 Zn 0.11096 0.48446 0.77795 0.0
Zn527 Zn 0.06897 0.52897 0.83207 0.0
C528 C 0.93794 0.35721 0.81103 0.0
C529 C 0.06651 0.58995 0.75643 0.0
O530 O 0.14589 0.66528 0.81748 0.0
O531 O 0.18655 0.73303 0.86796 0.0
C532 C 0.14 0.52206 0.90651 0.0
O533 O 0.94193 0.41821 0.82893 0.0
O534 O 0.99915 0.37266 0.79085 0.0
O535 O 0.11284 0.56595 0.74173 0.0
O536 O 0.08457 0.61074 0.78826 0.0
O537 O 0.11413 0.56752 0.92099 0.0
O538 O 0.13896 0.51245 0.87371 0.0
O539 O 0.93756 0.491 0.84579 0.0
O540 O 1.00585 0.54226 0.89199 0.0
C541 C 0.94737 0.53481 0.87255 0.0
O542 O 0.16664 0.48576 0.84119 0.0
O543 O 0.21928 0.48872 0.78964 0.0
C544 C 0.19728 0.73039 0.83607 0.0
C545 C 0.22155 0.47985 0.82152 0.0
Zn546 Zn 0.36128 0.44021 0.90328 0.0
Zn547 Zn 0.53855 0.63111 0.77794 0.0
Zn548 Zn 0.49404 0.5446 0.83207 0.0
C549 C 0.6658 0.58533 0.81103 0.0
C550 C 0.43307 0.48117 0.75643 0.0
O551 O 0.35773 0.4852 0.81748 0.0
O552 O 0.28998 0.45812 0.86796 0.0
C553 C 0.50095 0.62254 0.90651 0.0
O554 O 0.6048 0.52833 0.82893 0.0
O555 O 0.65036 0.63109 0.79085 0.0
O556 O 0.45706 0.55149 0.74173 0.0
O557 O 0.41227 0.47843 0.78826 0.0
O558 O 0.4555 0.55121 0.92099 0.0
O559 O 0.51056 0.63111 0.87371 0.0
O560 O 0.53202 0.45116 0.84579 0.0
O561 O 0.48076 0.46819 0.89199 0.0
C562 C 0.4882 0.41716 0.87255 0.0
O563 O 0.53724 0.68547 0.84119 0.0
O564 O 0.53429 0.73516 0.78964 0.0
C565 C 0.29262 0.47149 0.83607 0.0
C566 C 0.54316 0.7463 0.82152 0.0
Zn567 Zn 0.62279 0.84249 0.94999 0.0
Zn568 Zn 0.57387 0.70329 0.06125 0.0
Zn569 Zn 0.61341 0.76724 1.00561 0.0
C570 C 0.74165 0.73357 0.03343 0.0
C571 C 0.64286 0.87048 0.07813 0.0
O572 O 0.55936 0.8459 0.02179 0.0
O573 O 0.50957 0.83498 0.96998 0.0
C574 C 0.55059 0.69478 0.92859 0.0
O575 O 0.72856 0.76736 0.00756 0.0
O576 O 0.68461 0.69976 0.0563 0.0
O577 O 0.59842 0.80161 0.09423 0.0
O578 O 0.63045 0.86793 0.04526 0.0
O579 O 0.609 0.76181 0.91541 0.0
O580 O 0.53718 0.68919 0.96123 0.0
O581 O 0.66265 0.90092 0.00912 0.0
O582 O 0.74381 0.91127 0.96647 0.0
C583 C 0.72839 0.94655 0.99075 0.0
O584 O 0.49358 0.65098 0.99417 0.0
O585 O 0.45672 0.60176 0.04675 0.0
C586 C 0.5016 0.84313 1.00176 0.0
C587 C 0.44067 0.59391 0.01489 0.0
Zn588 Zn 0.31973 0.87519 0.06125 0.0
Zn589 Zn 0.18052 0.7849 0.95 0.0
Zn590 Zn 0.25578 0.85078 1.00561 0.0
C591 C 0.07647 0.78645 0.99074 0.0
C592 C 0.32823 0.86042 0.92859 0.0
O593 O 0.37203 0.8472 0.99417 0.0
O594 O 0.42125 0.85956 0.04675 0.0
C595 C 0.15253 0.77699 0.07813 0.0
O596 O 0.12209 0.76633 0.00912 0.0
O597 O 0.11174 0.83714 0.96647 0.0
O598 O 0.2612 0.8518 0.91541 0.0
O599 O 0.33382 0.85259 0.96123 0.0
O600 O 0.2214 0.80141 0.09423 0.0
O601 O 0.15509 0.76712 0.04526 0.0
O602 O 0.25565 0.96579 0.00756 0.0
O603 O 0.32326 0.98946 0.0563 0.0
C604 C 0.28945 0.01269 0.03343 0.0
O605 O 0.17711 0.71806 0.02179 0.0
O606 O 0.18803 0.67919 0.96998 0.0
C607 C 0.42911 0.85137 0.01489 0.0
C608 C 0.17988 0.66307 1.00176 0.0
Zn609 Zn 0.14782 0.44914 0.06125 0.0
Zn610 Zn 0.23811 0.40022 0.95 0.0
Zn611 Zn 0.17224 0.4096 1.00561 0.0
C612 C 0.23656 0.29462 0.99075 0.0
C613 C 0.1626 0.47242 0.92859 0.0
O614 O 0.17581 0.52944 0.99417 0.0
O615 O 0.16346 0.5663 0.04675 0.0
C616 C 0.24603 0.38015 0.07813 0.0
O617 O 0.25668 0.36036 0.00913 0.0
O618 O 0.18587 0.2792 0.96647 0.0
O619 O 0.17122 0.41401 0.91541 0.0
O620 O 0.17043 0.48584 0.96123 0.0
O621 O 0.22161 0.4246 0.09423 0.0
O622 O 0.25589 0.39257 0.04526 0.0
O623 O 0.05722 0.29446 0.00756 0.0
O624 O 0.03356 0.33841 0.0563 0.0
C625 C 1.01032 0.28136 0.03343 0.0
O626 O 0.30496 0.46366 0.02179 0.0
O627 O 0.34383 0.51344 0.96998 0.0
C628 C 0.17165 0.58234 0.01489 0.0
C629 C 0.35995 0.52141 1.00176 0.0
Zn630 Zn 0.12699 0.41761 0.44883 0.0
Zn631 Zn 0.3033 0.4413 0.57559 0.0
Zn632 Zn 0.22515 0.40377 0.51352 0.0
C633 C 0.26462 0.27395 0.53875 0.0
C634 C 0.1519 0.39294 0.58969 0.0
O635 O 0.17281 0.48213 0.53224 0.0
O636 O 0.11877 0.49872 0.48393 0.0
C637 C 0.30597 0.49366 0.4375 0.0
O638 O 0.21287 0.27935 0.51808 0.0
O639 O 0.30354 0.33205 0.56093 0.0
O640 O 0.21231 0.43214 0.61044 0.0
O641 O 0.16773 0.42602 0.55926 0.0
O642 O 0.23539 0.47481 0.42464 0.0
O643 O 0.31267 0.47725 0.46938 0.0
O644 O 0.12546 0.26929 0.50461 0.0
O645 O 0.1338 0.31146 0.45386 0.0
C646 C 0.08628 0.263 0.47681 0.0
O647 O 0.36565 0.49672 0.50578 0.0
O648 O 0.40281 0.55053 0.55834 0.0
C649 C 0.14286 0.52112 0.51434 0.0
C650 C 0.4212 0.55228 0.52694 0.0
Zn651 Zn 0.58172 0.86661 0.57559 0.0
Zn652 Zn 0.6054 0.71398 0.44883 0.0
Zn653 Zn 0.61924 0.82598 0.51352 0.0
C654 C 0.76001 0.82788 0.47681 0.0
C655 C 0.52935 0.81691 0.4375 0.0
O656 O 0.52629 0.87354 0.50578 0.0
O657 O 0.47249 0.85688 0.55834 0.0
C658 C 0.63006 0.76356 0.58969 0.0
O659 O 0.75372 0.86077 0.50461 0.0
O660 O 0.71155 0.82693 0.45386 0.0
O661 O 0.54819 0.76517 0.42464 0.0
O662 O 0.54576 0.84002 0.46938 0.0
O663 O 0.59087 0.78477 0.61044 0.0
O664 O 0.59699 0.74631 0.55926 0.0
O665 O 0.74366 0.93812 0.51808 0.0
O666 O 0.69097 0.97609 0.56093 0.0
C667 C 0.74906 0.99528 0.53875 0.0
O668 O 0.54088 0.69528 0.53224 0.0
O669 O 0.52429 0.62464 0.48393 0.0
C670 C 0.47074 0.87353 0.52694 0.0
C671 C 0.5019 0.62633 0.51434 0.0
Zn672 Zn 0.1564 0.7197 0.57559 0.0
Zn673 Zn 0.30903 0.89602 0.44883 0.0
Zn674 Zn 0.19704 0.79787 0.51352 0.0
C675 C 0.19513 0.93673 0.47681 0.0
C676 C 0.20609 0.71703 0.4375 0.0
O677 O 0.14948 0.65736 0.50578 0.0
O678 O 0.16613 0.62021 0.55834 0.0
C679 C 0.25946 0.87111 0.58969 0.0
O680 O 0.16224 0.89755 0.50461 0.0
O681 O 0.19608 0.88922 0.45386 0.0
O682 O 0.25784 0.78762 0.42464 0.0
O683 O 0.18299 0.71034 0.46938 0.0
O684 O 0.23825 0.8107 0.61045 0.0
O685 O 0.2767 0.85527 0.55926 0.0
O686 O 0.0849 0.81015 0.51808 0.0
O687 O 0.04692 0.71948 0.56093 0.0
C688 C 0.02774 0.75839 0.53875 0.0
O689 O 0.32773 0.8502 0.53224 0.0
O690 O 0.39837 0.90426 0.48393 0.0
C691 C 0.14948 0.60181 0.52694 0.0
C692 C 0.39668 0.88017 0.51434 0.0
Zn693 Zn 0.12121 0.63128 0.27921 0.0
Zn694 Zn 0.09755 0.46715 0.40384 0.0
Zn695 Zn 0.08472 0.55697 0.33785 0.0
C696 C 0.19551 0.4802 0.33595 0.0
C697 C 0.94831 0.42176 0.3733 0.0
O698 O 0.96722 0.54565 0.334 0.0
O699 O 0.02597 0.65107 0.29664 0.0
C700 C 0.23205 0.74731 0.32339 0.0
O701 O 0.15163 0.50113 0.31683 0.0
O702 O 0.17865 0.4655 0.36728 0.0
O703 O 0.98591 0.46295 0.39947 0.0
O704 O 0.95238 0.46791 0.34816 0.0
O705 O 0.23344 0.72671 0.29251 0.0
O706 O 0.17596 0.69362 0.34456 0.0
O707 O 0.09011 0.48615 0.29187 0.0
O708 O 0.09764 0.54054 0.24244 0.0
C709 C 0.05794 0.47685 0.26144 0.0
O710 O 0.15823 0.6472 0.38217 0.0
O711 O 0.1527 0.57303 0.42855 0.0
C712 C 0.96816 0.60703 0.31813 0.0
C713 C 0.17178 0.64253 0.41463 0.0
Zn714 Zn 0.39173 0.49453 0.27921 0.0
Zn715 Zn 0.55586 0.635 0.40384 0.0
Zn716 Zn 0.46604 0.53235 0.33785 0.0
C717 C 0.54281 0.71991 0.33595 0.0
C718 C 0.60125 0.53114 0.3733 0.0
O719 O 0.47736 0.42618 0.334 0.0
O720 O 0.37194 0.3795 0.29664 0.0
C721 C 0.27571 0.48935 0.32339 0.0
O722 O 0.52188 0.6551 0.31683 0.0
O723 O 0.55751 0.71775 0.36728 0.0
O724 O 0.56007 0.52756 0.39947 0.0
O725 O 0.5551 0.48907 0.34816 0.0
O726 O 0.2963 0.51133 0.29251 0.0
O727 O 0.32939 0.48695 0.34456 0.0
O728 O 0.53686 0.60856 0.29186 0.0
O729 O 0.48248 0.5617 0.24243 0.0
C730 C 0.54617 0.5857 0.26144 0.0
O731 O 0.3758 0.51562 0.38217 0.0
O732 O 0.44998 0.58427 0.42855 0.0
C733 C 0.41598 0.36573 0.31813 0.0
C734 C 0.38047 0.53385 0.41463 0.0
Zn735 Zn 0.52848 0.9018 0.27921 0.0
Zn736 Zn 0.38801 0.92546 0.40384 0.0
Zn737 Zn 0.49066 0.93829 0.33785 0.0
C738 C 0.30309 0.82752 0.33595 0.0
C739 C 0.49187 0.0747 0.3733 0.0
O740 O 0.59683 0.05578 0.334 0.0
O741 O 0.64351 0.99704 0.29664 0.0
C742 C 0.53367 0.79096 0.32339 0.0
O743 O 0.36791 0.87138 0.31683 0.0
O744 O 0.30524 0.84437 0.36728 0.0
O745 O 0.49545 0.0371 0.39947 0.0
O746 O 0.53394 0.07063 0.34816 0.0
O747 O 0.51168 0.78957 0.29251 0.0
O748 O 0.53607 0.84705 0.34456 0.0
O749 O 0.41445 0.93289 0.29186 0.0
O750 O 0.46131 0.92537 0.24243 0.0
C751 C 0.43731 0.96506 0.26144 0.0
O752 O 0.50738 0.86478 0.38217 0.0
O753 O 0.43874 0.8703 0.42855 0.0
C754 C 0.65728 0.05485 0.31813 0.0
C755 C 0.48916 0.85122 0.41463 0.0
loop_
_geom_bond_atom_site_label_1
_geom_bond_atom_site_label_2
_geom_bond_distance
_geom_bond_site_symmetry_2
_ccdc_geom_bond_type
Zn0 O6 1.920 . S
Zn0 O12 1.898 . S
Zn0 O15 1.905 . S
Zn1 O9 1.905 . S
Zn1 O10 1.898 1_655 S
Zn1 O18 1.920 . S
Zn2 O5 2.080 . S
Zn2 O8 2.114 . S
Zn2 O11 2.120 . S
Zn2 O13 2.120 . S
Zn2 O14 2.114 . S
Zn2 O17 2.080 1_455 S
C3 O8 1.166 1_655 S
C3 O9 1.182 . S
C4 O10 1.167 . S
C4 O11 1.299 . S
O5 Zn2 2.080 . S
O5 C19 1.305 . S
O6 Zn0 1.920 . S
O6 C19 1.234 . S
C7 O12 1.167 . S
C7 O13 1.299 . S
O8 Zn2 2.114 . S
O8 C3 1.166 1_455 S
O9 Zn1 1.905 . S
O9 C3 1.182 . S
O10 Zn1 1.898 1_455 S
O10 C4 1.167 . S
O11 Zn2 2.120 . S
O11 C4 1.299 . S
O12 Zn0 1.898 . S
O12 C7 1.167 . S
O13 Zn2 2.120 . S
O13 C7 1.299 . S
O14 Zn2 2.114 . S
O14 C16 1.166 . S
O15 Zn0 1.905 . S
O15 C16 1.182 . S
C16 O14 1.166 . S
C16 O15 1.182 . S
O17 Zn2 2.080 1_655 S
O17 C20 1.305 . S
O18 Zn1 1.920 . S
O18 C20 1.234 . S
C19 O5 1.305 . S
C19 O6 1.234 . S
C20 O17 1.305 . S
C20 O18 1.234 . S
Zn21 O27 1.919 1_565 S
Zn21 O33 1.906 . S
Zn21 O36 1.902 . S
Zn22 O30 1.905 . S
Zn22 O31 1.898 . S
Zn22 O39 1.920 . S
Zn23 O26 2.080 . S
Zn23 O29 2.114 . S
Zn23 O32 2.120 . S
Zn23 O34 2.120 . S
Zn23 O35 2.114 . S
Zn23 O38 2.080 . S
C24 O29 1.166 . S
C24 O30 1.182 . S
C25 O31 1.167 . S
C25 O32 1.299 . S
O26 Zn23 2.080 . S
O26 C40 1.305 1_565 S
O27 Zn21 1.919 1_545 S
O27 C40 1.234 . S
C28 O33 1.167 . S
C28 O34 1.299 . S
O29 Zn23 2.114 . S
O29 C24 1.166 . S
O30 Zn22 1.905 . S
O30 C24 1.182 . S
O31 Zn22 1.898 . S
O31 C25 1.167 . S
O32 Zn23 2.120 . S
O32 C25 1.299 . S
O33 Zn21 1.906 . S
O33 C28 1.167 . S
O34 Zn23 2.120 . S
O34 C28 1.299 . S
O35 Zn23 2.114 . S
O35 C37 1.166 . S
O36 Zn21 1.902 . S
O36 C37 1.182 . S
C37 O35 1.166 . S
C37 O36 1.182 . S
O38 Zn23 2.080 . S
O38 C41 1.305 . S
O39 Zn22 1.920 . S
O39 C41 1.234 . S
C40 O26 1.305 1_545 S
C40 O27 1.234 . S
C41 O38 1.305 . S
C41 O39 1.234 . S
Zn42 O48 1.920 . S
Zn42 O54 1.898 1_545 S
Zn42 O57 1.905 . S
Zn43 O51 1.910 . S
Zn43 O52 1.904 . S
Zn43 O60 1.911 1_455 S
Zn44 O47 2.080 1_565 S
Zn44 O50 2.114 . S
Zn44 O53 2.120 . S
Zn44 O55 2.120 . S
Zn44 O56 2.114 . S
Zn44 O59 2.080 . S
C45 O50 1.166 . S
C45 O51 1.182 . S
C46 O52 1.167 . S
C46 O53 1.299 . S
O47 Zn44 2.080 1_545 S
O47 C61 1.305 . S
O48 Zn42 1.920 . S
O48 C61 1.234 . S
C49 O54 1.167 . S
C49 O55 1.299 . S
O50 Zn44 2.114 . S
O50 C45 1.166 . S
O51 Zn43 1.910 . S
O51 C45 1.182 . S
O52 Zn43 1.904 . S
O52 C46 1.167 . S
O53 Zn44 2.120 . S
O53 C46 1.299 . S
O54 Zn42 1.898 1_565 S
O54 C49 1.167 . S
O55 Zn44 2.120 . S
O55 C49 1.299 . S
O56 Zn44 2.114 . S
O56 C58 1.166 1_565 S
O57 Zn42 1.905 . S
O57 C58 1.182 . S
C58 O56 1.166 1_545 S
C58 O57 1.182 . S
O59 Zn44 2.080 . S
O59 C62 1.305 1_455 S
O60 Zn43 1.911 1_655 S
O60 C62 1.234 . S
C61 O47 1.305 . S
C61 O48 1.234 . S
C62 O59 1.305 1_655 S
C62 O60 1.234 . S
Zn63 O69 1.920 . S
Zn63 O75 1.898 1_565 S
Zn63 O78 1.905 . S
Zn64 O72 1.905 . S
Zn64 O73 1.898 . S
Zn64 O81 1.920 . S
Zn65 O68 2.080 1_545 S
Zn65 O71 2.114 . S
Zn65 O74 2.120 . S
Zn65 O76 2.120 . S
Zn65 O77 2.114 . S
Zn65 O80 2.080 . S
C66 O71 1.166 . S
C66 O72 1.182 . S
C67 O73 1.167 . S
C67 O74 1.299 . S
O68 Zn65 2.080 1_565 S
O68 C82 1.305 . S
O69 Zn63 1.920 . S
O69 C82 1.234 . S
C70 O75 1.167 . S
C70 O76 1.299 . S
O71 Zn65 2.114 . S
O71 C66 1.166 . S
O72 Zn64 1.905 . S
O72 C66 1.182 . S
O73 Zn64 1.898 . S
O73 C67 1.167 . S
O74 Zn65 2.120 . S
O74 C67 1.299 . S
O75 Zn63 1.898 1_545 S
O75 C70 1.167 . S
O76 Zn65 2.120 . S
O76 C70 1.299 . S
O77 Zn65 2.114 . S
O77 C79 1.166 1_545 S
O78 Zn63 1.905 . S
O78 C79 1.182 . S
C79 O77 1.166 1_565 S
C79 O78 1.182 . S
O80 Zn65 2.080 . S
O80 C83 1.305 . S
O81 Zn64 1.920 . S
O81 C83 1.234 . S
C82 O68 1.305 . S
C82 O69 1.234 . S
C83 O80 1.305 . S
C83 O81 1.234 . S
Zn84 O90 1.920 . S
Zn84 O96 1.898 1_455 S
Zn84 O99 1.905 . S
Zn85 O93 1.905 . S
Zn85 O94 1.898 . S
Zn85 O102 1.920 1_545 S
Zn86 O89 2.080 1_655 S
Zn86 O92 2.114 . S
Zn86 O95 2.120 . S
Zn86 O97 2.120 . S
Zn86 O98 2.114 . S
Zn86 O101 2.080 . S
C87 O92 1.166 . S
C87 O93 1.182 . S
C88 O94 1.167 . S
C88 O95 1.299 . S
O89 Zn86 2.080 1_455 S
O89 C103 1.305 . S
O90 Zn84 1.920 . S
O90 C103 1.234 . S
C91 O96 1.167 . S
C91 O97 1.299 . S
O92 Zn86 2.114 . S
O92 C87 1.166 . S
O93 Zn85 1.905 . S
O93 C87 1.182 . S
O94 Zn85 1.898 . S
O94 C88 1.167 . S
O95 Zn86 2.120 . S
O95 C88 1.299 . S
O96 Zn84 1.898 1_655 S
O96 C91 1.167 . S
O97 Zn86 2.120 . S
O97 C91 1.299 . S
O98 Zn86 2.114 . S
O98 C100 1.166 1_655 S
O99 Zn84 1.905 . S
O99 C100 1.182 . S
C100 O98 1.166 1_455 S
C100 O99 1.182 . S
O101 Zn86 2.080 . S
O101 C104 1.305 1_545 S
O102 Zn85 1.920 1_565 S
O102 C104 1.234 . S
C103 O89 1.305 . S
C103 O90 1.234 . S
C104 O101 1.305 1_565 S
C104 O102 1.234 . S
Zn105 O111 1.920 . S
Zn105 O117 1.898 . S
Zn105 O120 1.905 . S
Zn106 O114 1.905 . S
Zn106 O115 1.898 . S
Zn106 O123 1.920 1_655 S
Zn107 O110 2.080 . S
Zn107 O113 2.114 . S
Zn107 O116 2.120 . S
Zn107 O118 2.120 . S
Zn107 O119 2.114 . S
Zn107 O122 2.080 . S
C108 O113 1.166 . S
C108 O114 1.182 . S
C109 O115 1.167 . S
C109 O116 1.299 . S
O110 Zn107 2.080 . S
O110 C124 1.305 . S
O111 Zn105 1.920 . S
O111 C124 1.234 . S
C112 O117 1.167 . S
C112 O118 1.299 . S
O113 Zn107 2.114 . S
O113 C108 1.166 . S
O114 Zn106 1.905 . S
O114 C108 1.182 . S
O115 Zn106 1.898 . S
O115 C109 1.167 . S
O116 Zn107 2.120 . S
O116 C109 1.299 . S
O117 Zn105 1.898 . S
O117 C112 1.167 . S
O118 Zn107 2.120 . S
O118 C112 1.299 . S
O119 Zn107 2.114 . S
O119 C121 1.166 . S
O120 Zn105 1.905 . S
O120 C121 1.182 . S
C121 O119 1.166 . S
C121 O120 1.182 . S
O122 Zn107 2.080 . S
O122 C125 1.305 1_655 S
O123 Zn106 1.920 1_455 S
O123 C125 1.234 . S
C124 O110 1.305 . S
C124 O111 1.234 . S
C125 O122 1.305 1_455 S
C125 O123 1.234 . S
Zn126 O132 1.920 . S
Zn126 O138 1.898 . S
Zn126 O141 1.905 . S
Zn127 O135 1.905 . S
Zn127 O136 1.898 1_455 S
Zn127 O144 1.920 . S
Zn128 O131 2.080 . S
Zn128 O134 2.114 . S
Zn128 O137 2.120 . S
Zn128 O139 2.120 . S
Zn128 O140 2.114 . S
Zn128 O143 2.080 1_655 S
C129 O134 1.166 1_455 S
C129 O135 1.182 . S
C130 O136 1.167 . S
C130 O137 1.299 . S
O131 Zn128 2.080 . S
O131 C145 1.305 . S
O132 Zn126 1.920 . S
O132 C145 1.234 . S
C133 O138 1.167 . S
C133 O139 1.299 . S
O134 Zn128 2.114 . S
O134 C129 1.166 1_655 S
O135 Zn127 1.905 . S
O135 C129 1.182 . S
O136 Zn127 1.898 1_655 S
O136 C130 1.167 . S
O137 Zn128 2.120 . S
O137 C130 1.299 . S
O138 Zn126 1.898 . S
O138 C133 1.167 . S
O139 Zn128 2.120 . S
O139 C133 1.299 . S
O140 Zn128 2.114 . S
O140 C142 1.166 . S
O141 Zn126 1.905 . S
O141 C142 1.182 . S
C142 O140 1.166 . S
C142 O141 1.182 . S
O143 Zn128 2.080 1_455 S
O143 C146 1.305 . S
O144 Zn127 1.920 . S
O144 C146 1.234 . S
C145 O131 1.305 . S
C145 O132 1.234 . S
C146 O143 1.305 . S
C146 O144 1.234 . S
Zn147 O153 1.920 1_545 S
Zn147 O159 1.900 . S
Zn147 O162 1.904 . S
Zn148 O156 1.905 . S
Zn148 O157 1.898 . S
Zn148 O165 1.920 . S
Zn149 O152 2.080 . S
Zn149 O155 2.114 . S
Zn149 O158 2.120 . S
Zn149 O160 2.120 . S
Zn149 O161 2.114 . S
Zn149 O164 2.080 . S
C150 O155 1.166 . S
C150 O156 1.182 . S
C151 O157 1.167 . S
C151 O158 1.299 . S
O152 Zn149 2.080 . S
O152 C166 1.305 1_545 S
O153 Zn147 1.920 1_565 S
O153 C166 1.234 . S
C154 O159 1.167 . S
C154 O160 1.299 . S
O155 Zn149 2.114 . S
O155 C150 1.166 . S
O156 Zn148 1.905 . S
O156 C150 1.182 . S
O157 Zn148 1.898 . S
O157 C151 1.167 . S
O158 Zn149 2.120 . S
O158 C151 1.299 . S
O159 Zn147 1.900 . S
O159 C154 1.167 . S
O160 Zn149 2.120 . S
O160 C154 1.299 . S
O161 Zn149 2.114 . S
O161 C163 1.166 . S
O162 Zn147 1.904 . S
O162 C163 1.182 . S
C163 O161 1.166 . S
C163 O162 1.182 . S
O164 Zn149 2.080 . S
O164 C167 1.305 . S
O165 Zn148 1.920 . S
O165 C167 1.234 . S
C166 O152 1.305 1_565 S
C166 O153 1.234 . S
C167 O164 1.305 . S
C167 O165 1.234 . S
Zn168 O174 1.920 . S
Zn168 O180 1.898 1_565 S
Zn168 O183 1.905 . S
Zn169 O177 1.906 . S
Zn169 O178 1.900 . S
Zn169 O186 1.918 1_655 S
Zn170 O173 2.080 1_545 S
Zn170 O176 2.114 . S
Zn170 O179 2.120 . S
Zn170 O181 2.120 . S
Zn170 O182 2.114 . S
Zn170 O185 2.080 . S
C171 O176 1.166 . S
C171 O177 1.182 . S
C172 O178 1.167 . S
C172 O179 1.299 . S
O173 Zn170 2.080 1_565 S
O173 C187 1.305 . S
O174 Zn168 1.920 . S
O174 C187 1.234 . S
C175 O180 1.167 . S
C175 O181 1.299 . S
O176 Zn170 2.114 . S
O176 C171 1.166 . S
O177 Zn169 1.906 . S
O177 C171 1.182 . S
O178 Zn169 1.900 . S
O178 C172 1.167 . S
O179 Zn170 2.120 . S
O179 C172 1.299 . S
O180 Zn168 1.898 1_545 S
O180 C175 1.167 . S
O181 Zn170 2.120 . S
O181 C175 1.299 . S
O182 Zn170 2.114 . S
O182 C184 1.166 1_545 S
O183 Zn168 1.905 . S
O183 C184 1.182 . S
C184 O182 1.166 1_565 S
C184 O183 1.182 . S
O185 Zn170 2.080 . S
O185 C188 1.305 1_655 S
O186 Zn169 1.918 1_455 S
O186 C188 1.234 . S
C187 O173 1.305 . S
C187 O174 1.234 . S
C188 O185 1.305 1_455 S
C188 O186 1.234 . S
Zn189 O195 1.920 . S
Zn189 O201 1.898 . S
Zn189 O204 1.905 1_545 S
Zn190 O198 1.905 . S
Zn190 O199 1.898 . S
Zn190 O207 1.920 . S
Zn191 O194 2.080 . S
Zn191 O197 2.114 . S
Zn191 O200 2.120 . S
Zn191 O202 2.120 1_565 S
Zn191 O203 2.114 . S
Zn191 O206 2.080 . S
C192 O197 1.166 . S
C192 O198 1.182 . S
C193 O199 1.167 . S
C193 O200 1.299 . S
O194 Zn191 2.080 . S
O194 C208 1.305 1_565 S
O195 Zn189 1.920 . S
O195 C208 1.234 . S
C196 O201 1.167 . S
C196 O202 1.299 . S
O197 Zn191 2.114 . S
O197 C192 1.166 . S
O198 Zn190 1.905 . S
O198 C192 1.182 . S
O199 Zn190 1.898 . S
O199 C193 1.167 . S
O200 Zn191 2.120 . S
O200 C193 1.299 . S
O201 Zn189 1.898 . S
O201 C196 1.167 . S
O202 Zn191 2.120 1_545 S
O202 C196 1.299 . S
O203 Zn191 2.114 . S
O203 C205 1.166 . S
O204 Zn189 1.905 1_565 S
O204 C205 1.182 . S
C205 O203 1.166 . S
C205 O204 1.182 . S
O206 Zn191 2.080 . S
O206 C209 1.305 . S
O207 Zn190 1.920 . S
O207 C209 1.234 . S
C208 O194 1.305 1_545 S
C208 O195 1.234 . S
C209 O206 1.305 . S
C209 O207 1.234 . S
Zn210 O216 1.920 . S
Zn210 O222 1.898 . S
Zn210 O225 1.905 1_655 S
Zn211 O219 1.902 1_565 S
Zn211 O220 1.900 . S
Zn211 O228 1.922 . S
Zn212 O215 2.080 . S
Zn212 O218 2.114 . S
Zn212 O221 2.120 . S
Zn212 O223 2.120 1_455 S
Zn212 O224 2.114 . S
Zn212 O227 2.080 . S
C213 O218 1.166 1_545 S
C213 O219 1.182 . S
C214 O220 1.167 . S
C214 O221 1.299 . S
O215 Zn212 2.080 . S
O215 C229 1.305 1_455 S
O216 Zn210 1.920 . S
O216 C229 1.234 . S
C217 O222 1.167 . S
C217 O223 1.299 . S
O218 Zn212 2.114 . S
O218 C213 1.166 1_565 S
O219 Zn211 1.902 1_545 S
O219 C213 1.182 . S
O220 Zn211 1.900 . S
O220 C214 1.167 . S
O221 Zn212 2.120 . S
O221 C214 1.299 . S
O222 Zn210 1.898 . S
O222 C217 1.167 . S
O223 Zn212 2.120 1_655 S
O223 C217 1.299 . S
O224 Zn212 2.114 . S
O224 C226 1.166 . S
O225 Zn210 1.905 1_455 S
O225 C226 1.182 . S
C226 O224 1.166 . S
C226 O225 1.182 . S
O227 Zn212 2.080 . S
O227 C230 1.305 . S
O228 Zn211 1.922 . S
O228 C230 1.234 . S
C229 O215 1.305 1_655 S
C229 O216 1.234 . S
C230 O227 1.305 . S
C230 O228 1.234 . S
Zn231 O237 1.920 . S
Zn231 O243 1.898 . S
Zn231 O246 1.905 . S
Zn232 O240 1.905 1_455 S
Zn232 O241 1.897 . S
Zn232 O249 1.923 . S
Zn233 O236 2.080 . S
Zn233 O239 2.114 . S
Zn233 O242 2.120 . S
Zn233 O244 2.120 . S
Zn233 O245 2.114 . S
Zn233 O248 2.080 . S
C234 O239 1.166 1_655 S
C234 O240 1.182 . S
C235 O241 1.167 . S
C235 O242 1.299 . S
O236 Zn233 2.080 . S
O236 C250 1.305 . S
O237 Zn231 1.920 . S
O237 C250 1.234 . S
C238 O243 1.167 . S
C238 O244 1.299 . S
O239 Zn233 2.114 . S
O239 C234 1.166 1_455 S
O240 Zn232 1.905 1_655 S
O240 C234 1.182 . S
O241 Zn232 1.897 . S
O241 C235 1.167 . S
O242 Zn233 2.120 . S
O242 C235 1.299 . S
O243 Zn231 1.898 . S
O243 C238 1.167 . S
O244 Zn233 2.120 . S
O244 C238 1.299 . S
O245 Zn233 2.114 . S
O245 C247 1.166 . S
O246 Zn231 1.905 . S
O246 C247 1.182 . S
C247 O245 1.166 . S
C247 O246 1.182 . S
O248 Zn233 2.080 . S
O248 C251 1.305 . S
O249 Zn232 1.923 . S
O249 C251 1.234 . S
C250 O236 1.305 . S
C250 O237 1.234 . S
C251 O248 1.305 . S
C251 O249 1.234 . S
Zn252 O258 1.920 . S
Zn252 O264 1.898 . S
Zn252 O267 1.905 . S
Zn253 O261 1.905 . S
Zn253 O262 1.898 . S
Zn253 O270 1.920 . S
Zn254 O257 2.080 . S
Zn254 O260 2.114 . S
Zn254 O263 2.120 . S
Zn254 O265 2.120 . S
Zn254 O266 2.114 . S
Zn254 O269 2.080 . S
C255 O260 1.166 . S
C255 O261 1.182 . S
C256 O262 1.167 . S
C256 O263 1.299 . S
O257 Zn254 2.080 . S
O257 C271 1.305 . S
O258 Zn252 1.920 . S
O258 C271 1.234 . S
C259 O264 1.167 . S
C259 O265 1.299 . S
O260 Zn254 2.114 . S
O260 C255 1.166 . S
O261 Zn253 1.905 . S
O261 C255 1.182 . S
O262 Zn253 1.898 . S
O262 C256 1.167 . S
O263 Zn254 2.120 . S
O263 C256 1.299 . S
O264 Zn252 1.898 . S
O264 C259 1.167 . S
O265 Zn254 2.120 . S
O265 C259 1.299 . S
O266 Zn254 2.114 . S
O266 C268 1.166 . S
O267 Zn252 1.905 . S
O267 C268 1.182 . S
C268 O266 1.166 . S
C268 O267 1.182 . S
O269 Zn254 2.080 . S
O269 C272 1.305 . S
O270 Zn253 1.920 . S
O270 C272 1.234 . S
C271 O257 1.305 . S
C271 O258 1.234 . S
C272 O269 1.305 . S
C272 O270 1.234 . S
Zn273 O279 1.920 . S
Zn273 O285 1.898 . S
Zn273 O288 1.905 1_545 S
Zn274 O282 1.905 . S
Zn274 O283 1.898 . S
Zn274 O291 1.920 . S
Zn275 O278 2.080 . S
Zn275 O281 2.114 . S
Zn275 O284 2.120 . S
Zn275 O286 2.120 . S
Zn275 O287 2.114 . S
Zn275 O290 2.080 . S
C276 O281 1.166 . S
C276 O282 1.182 . S
C277 O283 1.167 . S
C277 O284 1.299 . S
O278 Zn275 2.080 . S
O278 C292 1.305 . S
O279 Zn273 1.920 . S
O279 C292 1.234 . S
C280 O285 1.167 . S
C280 O286 1.299 . S
O281 Zn275 2.114 . S
O281 C276 1.166 . S
O282 Zn274 1.905 . S
O282 C276 1.182 . S
O283 Zn274 1.898 . S
O283 C277 1.167 . S
O284 Zn275 2.120 . S
O284 C277 1.299 . S
O285 Zn273 1.898 . S
O285 C280 1.167 . S
O286 Zn275 2.120 . S
O286 C280 1.299 . S
O287 Zn275 2.114 . S
O287 C289 1.166 1_545 S
O288 Zn273 1.905 1_565 S
O288 C289 1.182 . S
C289 O287 1.166 1_565 S
C289 O288 1.182 . S
O290 Zn275 2.080 . S
O290 C293 1.305 . S
O291 Zn274 1.920 . S
O291 C293 1.234 . S
C292 O278 1.305 . S
C292 O279 1.234 . S
C293 O290 1.305 . S
C293 O291 1.234 . S
Zn294 O300 1.920 . S
Zn294 O306 1.898 . S
Zn294 O309 1.905 . S
Zn295 O303 1.905 1_655 S
Zn295 O304 1.898 . S
Zn295 O312 1.920 . S
Zn296 O299 2.080 . S
Zn296 O302 2.114 . S
Zn296 O305 2.120 . S
Zn296 O307 2.120 . S
Zn296 O308 2.114 . S
Zn296 O311 2.080 . S
C297 O302 1.166 1_455 S
C297 O303 1.182 . S
C298 O304 1.167 . S
C298 O305 1.299 . S
O299 Zn296 2.080 . S
O299 C313 1.305 . S
O300 Zn294 1.920 . S
O300 C313 1.234 . S
C301 O306 1.167 . S
C301 O307 1.299 . S
O302 Zn296 2.114 . S
O302 C297 1.166 1_655 S
O303 Zn295 1.905 1_455 S
O303 C297 1.182 . S
O304 Zn295 1.898 . S
O304 C298 1.167 . S
O305 Zn296 2.120 . S
O305 C298 1.299 . S
O306 Zn294 1.898 . S
O306 C301 1.167 . S
O307 Zn296 2.120 . S
O307 C301 1.299 . S
O308 Zn296 2.114 . S
O308 C310 1.166 . S
O309 Zn294 1.905 . S
O309 C310 1.182 . S
C310 O308 1.166 . S
C310 O309 1.182 . S
O311 Zn296 2.080 . S
O311 C314 1.305 . S
O312 Zn295 1.920 . S
O312 C314 1.234 . S
C313 O299 1.305 . S
C313 O300 1.234 . S
C314 O311 1.305 . S
C314 O312 1.234 . S
Zn315 O321 1.920 . S
Zn315 O327 1.898 . S
Zn315 O330 1.905 . S
Zn316 O324 1.905 . S
Zn316 O325 1.898 . S
Zn316 O333 1.920 . S
Zn317 O320 2.080 . S
Zn317 O323 2.114 . S
Zn317 O326 2.120 . S
Zn317 O328 2.120 . S
Zn317 O329 2.114 1_655 S
Zn317 O332 2.080 . S
C318 O323 1.166 1_455 S
C318 O324 1.182 1_455 S
C319 O325 1.167 . S
C319 O326 1.299 . S
O320 Zn317 2.080 . S
O320 C334 1.305 . S
O321 Zn315 1.920 . S
O321 C334 1.234 . S
C322 O327 1.167 . S
C322 O328 1.299 . S
O323 Zn317 2.114 . S
O323 C318 1.166 1_655 S
O324 Zn316 1.905 . S
O324 C318 1.182 1_655 S
O325 Zn316 1.898 . S
O325 C319 1.167 . S
O326 Zn317 2.120 . S
O326 C319 1.299 . S
O327 Zn315 1.898 . S
O327 C322 1.167 . S
O328 Zn317 2.120 . S
O328 C322 1.299 . S
O329 Zn317 2.114 1_455 S
O329 C331 1.166 . S
O330 Zn315 1.905 . S
O330 C331 1.182 1_655 S
C331 O329 1.166 . S
C331 O330 1.182 1_455 S
O332 Zn317 2.080 . S
O332 C335 1.305 . S
O333 Zn316 1.920 . S
O333 C335 1.234 . S
C334 O320 1.305 . S
C334 O321 1.234 . S
C335 O332 1.305 . S
C335 O333 1.234 . S
Zn336 O342 1.920 . S
Zn336 O348 1.898 . S
Zn336 O351 1.905 . S
Zn337 O345 1.905 . S
Zn337 O346 1.898 . S
Zn337 O354 1.920 . S
Zn338 O341 2.080 . S
Zn338 O344 2.114 . S
Zn338 O347 2.120 . S
Zn338 O349 2.120 . S
Zn338 O350 2.114 . S
Zn338 O353 2.080 . S
C339 O344 1.166 . S
C339 O345 1.182 . S
C340 O346 1.167 . S
C340 O347 1.299 . S
O341 Zn338 2.080 . S
O341 C355 1.305 . S
O342 Zn336 1.920 . S
O342 C355 1.234 . S
C343 O348 1.167 . S
C343 O349 1.299 . S
O344 Zn338 2.114 . S
O344 C339 1.166 . S
O345 Zn337 1.905 . S
O345 C339 1.182 . S
O346 Zn337 1.898 . S
O346 C340 1.167 . S
O347 Zn338 2.120 . S
O347 C340 1.299 . S
O348 Zn336 1.898 . S
O348 C343 1.167 . S
O349 Zn338 2.120 . S
O349 C343 1.299 . S
O350 Zn338 2.114 . S
O350 C352 1.166 . S
O351 Zn336 1.905 . S
O351 C352 1.182 . S
C352 O350 1.166 . S
C352 O351 1.182 . S
O353 Zn338 2.080 . S
O353 C356 1.305 . S
O354 Zn337 1.920 . S
O354 C356 1.234 . S
C355 O341 1.305 . S
C355 O342 1.234 . S
C356 O353 1.305 . S
C356 O354 1.234 . S
Zn357 O363 1.920 . S
Zn357 O369 1.898 . S
Zn357 O372 1.905 . S
Zn358 O366 1.905 . S
Zn358 O367 1.898 . S
Zn358 O375 1.920 . S
Zn359 O362 2.080 . S
Zn359 O365 2.114 . S
Zn359 O368 2.120 . S
Zn359 O370 2.120 . S
Zn359 O371 2.114 1_545 S
Zn359 O374 2.080 . S
C360 O365 1.166 1_565 S
C360 O366 1.182 1_565 S
C361 O367 1.167 . S
C361 O368 1.299 . S
O362 Zn359 2.080 . S
O362 C376 1.305 . S
O363 Zn357 1.920 . S
O363 C376 1.234 . S
C364 O369 1.167 . S
C364 O370 1.299 . S
O365 Zn359 2.114 . S
O365 C360 1.166 1_545 S
O366 Zn358 1.905 . S
O366 C360 1.182 1_545 S
O367 Zn358 1.898 . S
O367 C361 1.167 . S
O368 Zn359 2.120 . S
O368 C361 1.299 . S
O369 Zn357 1.898 . S
O369 C364 1.167 . S
O370 Zn359 2.120 . S
O370 C364 1.299 . S
O371 Zn359 2.114 1_565 S
O371 C373 1.166 . S
O372 Zn357 1.905 . S
O372 C373 1.182 1_545 S
C373 O371 1.166 . S
C373 O372 1.182 1_565 S
O374 Zn359 2.080 . S
O374 C377 1.305 . S
O375 Zn358 1.920 . S
O375 C377 1.234 . S
C376 O362 1.305 . S
C376 O363 1.234 . S
C377 O374 1.305 . S
C377 O375 1.234 . S
Zn378 O384 1.920 . S
Zn378 O390 1.898 . S
Zn378 O393 1.905 . S
Zn379 O387 1.905 . S
Zn379 O388 1.898 . S
Zn379 O396 1.920 . S
Zn380 O383 2.080 . S
Zn380 O386 2.114 1_545 S
Zn380 O389 2.120 . S
Zn380 O391 2.120 . S
Zn380 O392 2.114 1_545 S
Zn380 O395 2.080 . S
C381 O386 1.166 . S
C381 O387 1.182 1_565 S
C382 O388 1.167 . S
C382 O389 1.299 . S
O383 Zn380 2.080 . S
O383 C397 1.305 . S
O384 Zn378 1.920 . S
O384 C397 1.234 . S
C385 O390 1.167 . S
C385 O391 1.299 . S
O386 Zn380 2.114 1_565 S
O386 C381 1.166 . S
O387 Zn379 1.905 . S
O387 C381 1.182 1_545 S
O388 Zn379 1.898 . S
O388 C382 1.167 . S
O389 Zn380 2.120 . S
O389 C382 1.299 . S
O390 Zn378 1.898 . S
O390 C385 1.167 . S
O391 Zn380 2.120 . S
O391 C385 1.299 . S
O392 Zn380 2.114 1_565 S
O392 C394 1.166 . S
O393 Zn378 1.905 . S
O393 C394 1.182 1_545 S
C394 O392 1.166 . S
C394 O393 1.182 1_565 S
O395 Zn380 2.080 . S
O395 C398 1.305 . S
O396 Zn379 1.920 . S
O396 C398 1.234 . S
C397 O383 1.305 . S
C397 O384 1.234 . S
C398 O395 1.305 . S
C398 O396 1.234 . S
Zn399 O405 1.920 . S
Zn399 O411 1.898 . S
Zn399 O414 1.905 . S
Zn400 O408 1.905 . S
Zn400 O409 1.898 . S
Zn400 O417 1.920 . S
Zn401 O404 2.080 . S
Zn401 O407 2.114 1_655 S
Zn401 O410 2.120 . S
Zn401 O412 2.120 . S
Zn401 O413 2.114 1_655 S
Zn401 O416 2.080 . S
C402 O407 1.166 . S
C402 O408 1.182 1_455 S
C403 O409 1.167 . S
C403 O410 1.299 . S
O404 Zn401 2.080 . S
O404 C418 1.305 . S
O405 Zn399 1.920 . S
O405 C418 1.234 . S
C406 O411 1.167 . S
C406 O412 1.299 . S
O407 Zn401 2.114 1_455 S
O407 C402 1.166 . S
O408 Zn400 1.905 . S
O408 C402 1.182 1_655 S
O409 Zn400 1.898 . S
O409 C403 1.167 . S
O410 Zn401 2.120 . S
O410 C403 1.299 . S
O411 Zn399 1.898 . S
O411 C406 1.167 . S
O412 Zn401 2.120 . S
O412 C406 1.299 . S
O413 Zn401 2.114 1_455 S
O413 C415 1.166 . S
O414 Zn399 1.905 . S
O414 C415 1.182 1_655 S
C415 O413 1.166 . S
C415 O414 1.182 1_455 S
O416 Zn401 2.080 . S
O416 C419 1.305 . S
O417 Zn400 1.920 . S
O417 C419 1.234 . S
C418 O404 1.305 . S
C418 O405 1.234 . S
C419 O416 1.305 . S
C419 O417 1.234 . S
Zn420 O426 1.920 . S
Zn420 O432 1.898 . S
Zn420 O435 1.905 . S
Zn421 O429 1.905 . S
Zn421 O430 1.898 . S
Zn421 O438 1.920 . S
Zn422 O425 2.080 . S
Zn422 O428 2.114 . S
Zn422 O431 2.120 . S
Zn422 O433 2.120 . S
Zn422 O434 2.114 . S
Zn422 O437 2.080 . S
C423 O428 1.166 . S
C423 O429 1.182 . S
C424 O430 1.167 . S
C424 O431 1.299 . S
O425 Zn422 2.080 . S
O425 C439 1.305 . S
O426 Zn420 1.920 . S
O426 C439 1.234 . S
C427 O432 1.167 . S
C427 O433 1.299 . S
O428 Zn422 2.114 . S
O428 C423 1.166 . S
O429 Zn421 1.905 . S
O429 C423 1.182 . S
O430 Zn421 1.898 . S
O430 C424 1.167 . S
O431 Zn422 2.120 . S
O431 C424 1.299 . S
O432 Zn420 1.898 . S
O432 C427 1.167 . S
O433 Zn422 2.120 . S
O433 C427 1.299 . S
O434 Zn422 2.114 . S
O434 C436 1.166 . S
O435 Zn420 1.905 . S
O435 C436 1.182 . S
C436 O434 1.166 . S
C436 O435 1.182 . S
O437 Zn422 2.080 . S
O437 C440 1.305 . S
O438 Zn421 1.920 . S
O438 C440 1.234 . S
C439 O425 1.305 . S
C439 O426 1.234 . S
C440 O437 1.305 . S
C440 O438 1.234 . S
Zn441 O447 1.920 . S
Zn441 O453 1.898 . S
Zn441 O456 1.905 . S
Zn442 O450 1.905 . S
Zn442 O451 1.898 . S
Zn442 O459 1.920 . S
Zn443 O446 2.080 . S
Zn443 O449 2.114 . S
Zn443 O452 2.120 1_556 S
Zn443 O454 2.120 . S
Zn443 O455 2.114 . S
Zn443 O458 2.080 1_556 S
C444 O449 1.166 1_554 S
C444 O450 1.182 . S
C445 O451 1.167 . S
C445 O452 1.299 . S
O446 Zn443 2.080 . S
O446 C460 1.305 . S
O447 Zn441 1.920 . S
O447 C460 1.234 . S
C448 O453 1.167 . S
C448 O454 1.299 . S
O449 Zn443 2.114 . S
O449 C444 1.166 1_556 S
O450 Zn442 1.905 . S
O450 C444 1.182 . S
O451 Zn442 1.898 . S
O451 C445 1.167 . S
O452 Zn443 2.120 1_554 S
O452 C445 1.299 . S
O453 Zn441 1.898 . S
O453 C448 1.167 . S
O454 Zn443 2.120 . S
O454 C448 1.299 . S
O455 Zn443 2.114 . S
O455 C457 1.166 . S
O456 Zn441 1.905 . S
O456 C457 1.182 . S
C457 O455 1.166 . S
C457 O456 1.182 . S
O458 Zn443 2.080 1_554 S
O458 C461 1.305 . S
O459 Zn442 1.920 . S
O459 C461 1.234 . S
C460 O446 1.305 . S
C460 O447 1.234 . S
C461 O458 1.305 . S
C461 O459 1.234 . S
Zn462 O468 1.920 1_545 S
Zn462 O474 1.898 . S
Zn462 O477 1.905 . S
Zn463 O471 1.905 . S
Zn463 O472 1.898 . S
Zn463 O480 1.920 . S
Zn464 O467 2.080 . S
Zn464 O470 2.114 . S
Zn464 O473 2.120 1_556 S
Zn464 O475 2.120 . S
Zn464 O476 2.114 . S
Zn464 O479 2.080 1_556 S
C465 O470 1.166 1_554 S
C465 O471 1.182 . S
C466 O472 1.167 . S
C466 O473 1.299 . S
O467 Zn464 2.080 . S
O467 C481 1.305 1_545 S
O468 Zn462 1.920 1_565 S
O468 C481 1.234 . S
C469 O474 1.167 . S
C469 O475 1.299 . S
O470 Zn464 2.114 . S
O470 C465 1.166 1_556 S
O471 Zn463 1.905 . S
O471 C465 1.182 . S
O472 Zn463 1.898 . S
O472 C466 1.167 . S
O473 Zn464 2.120 1_554 S
O473 C466 1.299 . S
O474 Zn462 1.898 . S
O474 C469 1.167 . S
O475 Zn464 2.120 . S
O475 C469 1.299 . S
O476 Zn464 2.114 . S
O476 C478 1.166 . S
O477 Zn462 1.905 . S
O477 C478 1.182 . S
C478 O476 1.166 . S
C478 O477 1.182 . S
O479 Zn464 2.080 1_554 S
O479 C482 1.305 . S
O480 Zn463 1.920 . S
O480 C482 1.234 . S
C481 O467 1.305 1_565 S
C481 O468 1.234 . S
C482 O479 1.305 . S
C482 O480 1.234 . S
Zn483 O489 1.920 1_655 S
Zn483 O495 1.898 . S
Zn483 O498 1.905 . S
Zn484 O492 1.905 . S
Zn484 O493 1.898 . S
Zn484 O501 1.920 . S
Zn485 O488 2.080 . S
Zn485 O491 2.114 . S
Zn485 O494 2.120 1_556 S
Zn485 O496 2.120 . S
Zn485 O497 2.114 . S
Zn485 O500 2.080 1_556 S
C486 O491 1.166 1_554 S
C486 O492 1.182 . S
C487 O493 1.167 . S
C487 O494 1.299 . S
O488 Zn485 2.080 . S
O488 C502 1.305 1_655 S
O489 Zn483 1.920 1_455 S
O489 C502 1.234 . S
C490 O495 1.167 . S
C490 O496 1.299 . S
O491 Zn485 2.114 . S
O491 C486 1.166 1_556 S
O492 Zn484 1.905 . S
O492 C486 1.182 . S
O493 Zn484 1.898 . S
O493 C487 1.167 . S
O494 Zn485 2.120 1_554 S
O494 C487 1.299 . S
O495 Zn483 1.898 . S
O495 C490 1.167 . S
O496 Zn485 2.120 . S
O496 C490 1.299 . S
O497 Zn485 2.114 . S
O497 C499 1.166 . S
O498 Zn483 1.905 . S
O498 C499 1.182 . S
C499 O497 1.166 . S
C499 O498 1.182 . S
O500 Zn485 2.080 1_554 S
O500 C503 1.305 . S
O501 Zn484 1.920 . S
O501 C503 1.234 . S
C502 O488 1.305 1_455 S
C502 O489 1.234 . S
C503 O500 1.305 . S
C503 O501 1.234 . S
Zn504 O510 1.920 . S
Zn504 O516 1.898 . S
Zn504 O519 1.905 . S
Zn505 O513 1.905 . S
Zn505 O514 1.898 . S
Zn505 O522 1.920 . S
Zn506 O509 2.080 . S
Zn506 O512 2.108 1_565 S
Zn506 O515 2.120 . S
Zn506 O517 2.120 . S
Zn506 O518 2.114 1_565 S
Zn506 O521 2.080 . S
C507 O512 1.170 . S
C507 O513 1.182 1_545 S
C508 O514 1.167 . S
C508 O515 1.299 . S
O509 Zn506 2.080 . S
O509 C523 1.305 . S
O510 Zn504 1.920 . S
O510 C523 1.234 . S
C511 O516 1.167 . S
C511 O517 1.299 . S
O512 Zn506 2.108 1_545 S
O512 C507 1.170 . S
O513 Zn505 1.905 . S
O513 C507 1.182 1_565 S
O514 Zn505 1.898 . S
O514 C508 1.167 . S
O515 Zn506 2.120 . S
O515 C508 1.299 . S
O516 Zn504 1.898 . S
O516 C511 1.167 . S
O517 Zn506 2.120 . S
O517 C511 1.299 . S
O518 Zn506 2.114 1_545 S
O518 C520 1.166 . S
O519 Zn504 1.905 . S
O519 C520 1.182 1_565 S
C520 O518 1.166 . S
C520 O519 1.182 1_545 S
O521 Zn506 2.080 . S
O521 C524 1.305 . S
O522 Zn505 1.920 . S
O522 C524 1.234 . S
C523 O509 1.305 . S
C523 O510 1.234 . S
C524 O521 1.305 . S
C524 O522 1.234 . S
Zn525 O531 1.920 . S
Zn525 O537 1.898 . S
Zn525 O540 1.905 . S
Zn526 O534 1.905 . S
Zn526 O535 1.898 . S
Zn526 O543 1.920 . S
Zn527 O530 2.080 . S
Zn527 O533 2.112 1_455 S
Zn527 O536 2.120 . S
Zn527 O538 2.120 . S
Zn527 O539 2.114 1_455 S
Zn527 O542 2.080 . S
C528 O533 1.164 . S
C528 O534 1.182 1_655 S
C529 O535 1.167 . S
C529 O536 1.299 . S
O530 Zn527 2.080 . S
O530 C544 1.305 . S
O531 Zn525 1.920 . S
O531 C544 1.234 . S
C532 O537 1.167 . S
C532 O538 1.299 . S
O533 Zn527 2.112 1_655 S
O533 C528 1.164 . S
O534 Zn526 1.905 . S
O534 C528 1.182 1_455 S
O535 Zn526 1.898 . S
O535 C529 1.167 . S
O536 Zn527 2.120 . S
O536 C529 1.299 . S
O537 Zn525 1.898 . S
O537 C532 1.167 . S
O538 Zn527 2.120 . S
O538 C532 1.299 . S
O539 Zn527 2.114 1_655 S
O539 C541 1.166 . S
O540 Zn525 1.905 . S
O540 C541 1.182 1_455 S
C541 O539 1.166 . S
C541 O540 1.182 1_655 S
O542 Zn527 2.080 . S
O542 C545 1.305 . S
O543 Zn526 1.920 . S
O543 C545 1.234 . S
C544 O530 1.305 . S
C544 O531 1.234 . S
C545 O542 1.305 . S
C545 O543 1.234 . S
Zn546 O552 1.920 . S
Zn546 O558 1.898 . S
Zn546 O561 1.905 . S
Zn547 O555 1.905 . S
Zn547 O556 1.898 . S
Zn547 O564 1.920 . S
Zn548 O551 2.080 . S
Zn548 O554 2.114 . S
Zn548 O557 2.120 . S
Zn548 O559 2.120 . S
Zn548 O560 2.114 . S
Zn548 O563 2.080 . S
C549 O554 1.166 . S
C549 O555 1.182 . S
C550 O556 1.167 . S
C550 O557 1.299 . S
O551 Zn548 2.080 . S
O551 C565 1.305 . S
O552 Zn546 1.920 . S
O552 C565 1.234 . S
C553 O558 1.167 . S
C553 O559 1.299 . S
O554 Zn548 2.114 . S
O554 C549 1.166 . S
O555 Zn547 1.905 . S
O555 C549 1.182 . S
O556 Zn547 1.898 . S
O556 C550 1.167 . S
O557 Zn548 2.120 . S
O557 C550 1.299 . S
O558 Zn546 1.898 . S
O558 C553 1.167 . S
O559 Zn548 2.120 . S
O559 C553 1.299 . S
O560 Zn548 2.114 . S
O560 C562 1.166 . S
O561 Zn546 1.905 . S
O561 C562 1.182 . S
C562 O560 1.166 . S
C562 O561 1.182 . S
O563 Zn548 2.080 . S
O563 C566 1.305 . S
O564 Zn547 1.920 . S
O564 C566 1.234 . S
C565 O551 1.305 . S
C565 O552 1.234 . S
C566 O563 1.305 . S
C566 O564 1.234 . S
Zn567 O573 1.920 . S
Zn567 O579 1.898 . S
Zn567 O582 1.905 . S
Zn568 O576 1.905 . S
Zn568 O577 1.898 . S
Zn568 O585 1.920 . S
Zn569 O572 2.080 . S
Zn569 O575 2.114 . S
Zn569 O578 2.120 . S
Zn569 O580 2.120 1_554 S
Zn569 O581 2.114 1_554 S
Zn569 O584 2.080 . S
C570 O575 1.166 . S
C570 O576 1.182 . S
C571 O577 1.167 . S
C571 O578 1.299 . S
O572 Zn569 2.080 . S
O572 C586 1.305 1_554 S
O573 Zn567 1.920 . S
O573 C586 1.234 . S
C574 O579 1.167 . S
C574 O580 1.299 . S
O575 Zn569 2.114 . S
O575 C570 1.166 . S
O576 Zn568 1.905 . S
O576 C570 1.182 . S
O577 Zn568 1.898 . S
O577 C571 1.167 . S
O578 Zn569 2.120 . S
O578 C571 1.299 . S
O579 Zn567 1.898 . S
O579 C574 1.167 . S
O580 Zn569 2.120 1_556 S
O580 C574 1.299 . S
O581 Zn569 2.114 1_556 S
O581 C583 1.166 . S
O582 Zn567 1.905 . S
O582 C583 1.182 . S
C583 O581 1.166 . S
C583 O582 1.182 . S
O584 Zn569 2.080 . S
O584 C587 1.305 . S
O585 Zn568 1.920 . S
O585 C587 1.234 . S
C586 O572 1.305 1_556 S
C586 O573 1.234 . S
C587 O584 1.305 . S
C587 O585 1.234 . S
Zn588 O594 1.920 . S
Zn588 O600 1.898 . S
Zn588 O603 1.905 1_565 S
Zn589 O597 1.905 . S
Zn589 O598 1.898 . S
Zn589 O606 1.920 . S
Zn590 O593 2.080 . S
Zn590 O596 2.114 1_554 S
Zn590 O599 2.120 1_554 S
Zn590 O601 2.120 . S
Zn590 O602 2.114 . S
Zn590 O605 2.080 . S
C591 O596 1.166 . S
C591 O597 1.182 . S
C592 O598 1.167 . S
C592 O599 1.299 . S
O593 Zn590 2.080 . S
O593 C607 1.305 . S
O594 Zn588 1.920 . S
O594 C607 1.234 . S
C595 O600 1.167 . S
C595 O601 1.299 . S
O596 Zn590 2.114 1_556 S
O596 C591 1.166 . S
O597 Zn589 1.905 . S
O597 C591 1.182 . S
O598 Zn589 1.898 . S
O598 C592 1.167 . S
O599 Zn590 2.120 1_556 S
O599 C592 1.299 . S
O600 Zn588 1.898 . S
O600 C595 1.167 . S
O601 Zn590 2.120 . S
O601 C595 1.299 . S
O602 Zn590 2.114 . S
O602 C604 1.166 1_565 S
O603 Zn588 1.905 1_545 S
O603 C604 1.182 . S
C604 O602 1.166 1_545 S
C604 O603 1.182 . S
O605 Zn590 2.080 . S
O605 C608 1.305 1_554 S
O606 Zn589 1.920 . S
O606 C608 1.234 . S
C607 O593 1.305 . S
C607 O594 1.234 . S
C608 O605 1.305 1_556 S
C608 O606 1.234 . S
Zn609 O615 1.920 . S
Zn609 O621 1.898 . S
Zn609 O624 1.905 1_455 S
Zn610 O618 1.905 . S
Zn610 O619 1.898 . S
Zn610 O627 1.920 . S
Zn611 O614 2.080 . S
Zn611 O617 2.114 1_554 S
Zn611 O620 2.120 1_554 S
Zn611 O622 2.120 . S
Zn611 O623 2.114 . S
Zn611 O626 2.080 . S
C612 O617 1.166 . S
C612 O618 1.182 . S
C613 O619 1.167 . S
C613 O620 1.299 . S
O614 Zn611 2.080 . S
O614 C628 1.305 . S
O615 Zn609 1.920 . S
O615 C628 1.234 . S
C616 O621 1.167 . S
C616 O622 1.299 . S
O617 Zn611 2.114 1_556 S
O617 C612 1.166 . S
O618 Zn610 1.905 . S
O618 C612 1.182 . S
O619 Zn610 1.898 . S
O619 C613 1.167 . S
O620 Zn611 2.120 1_556 S
O620 C613 1.299 . S
O621 Zn609 1.898 . S
O621 C616 1.167 . S
O622 Zn611 2.120 . S
O622 C616 1.299 . S
O623 Zn611 2.114 . S
O623 C625 1.166 1_455 S
O624 Zn609 1.905 1_655 S
O624 C625 1.182 . S
C625 O623 1.166 1_655 S
C625 O624 1.182 . S
O626 Zn611 2.080 . S
O626 C629 1.305 1_554 S
O627 Zn610 1.920 . S
O627 C629 1.234 . S
C628 O614 1.305 . S
C628 O615 1.234 . S
C629 O626 1.305 1_556 S
C629 O627 1.234 . S
Zn630 O636 1.920 . S
Zn630 O642 1.898 . S
Zn630 O645 1.905 . S
Zn631 O639 1.905 . S
Zn631 O640 1.898 . S
Zn631 O648 1.920 . S
Zn632 O635 2.080 . S
Zn632 O638 2.114 . S
Zn632 O641 2.120 . S
Zn632 O643 2.120 . S
Zn632 O644 2.114 . S
Zn632 O647 2.080 . S
C633 O638 1.166 . S
C633 O639 1.182 . S
C634 O640 1.167 . S
C634 O641 1.299 . S
O635 Zn632 2.080 . S
O635 C649 1.305 . S
O636 Zn630 1.920 . S
O636 C649 1.234 . S
C637 O642 1.167 . S
C637 O643 1.299 . S
O638 Zn632 2.114 . S
O638 C633 1.166 . S
O639 Zn631 1.905 . S
O639 C633 1.182 . S
O640 Zn631 1.898 . S
O640 C634 1.167 . S
O641 Zn632 2.120 . S
O641 C634 1.299 . S
O642 Zn630 1.898 . S
O642 C637 1.167 . S
O643 Zn632 2.120 . S
O643 C637 1.299 . S
O644 Zn632 2.114 . S
O644 C646 1.166 . S
O645 Zn630 1.905 . S
O645 C646 1.182 . S
C646 O644 1.166 . S
C646 O645 1.182 . S
O647 Zn632 2.080 . S
O647 C650 1.305 . S
O648 Zn631 1.920 . S
O648 C650 1.234 . S
C649 O635 1.305 . S
C649 O636 1.234 . S
C650 O647 1.305 . S
C650 O648 1.234 . S
Zn651 O657 1.920 . S
Zn651 O663 1.898 . S
Zn651 O666 1.905 1_565 S
Zn652 O660 1.905 . S
Zn652 O661 1.898 . S
Zn652 O669 1.920 . S
Zn653 O656 2.080 . S
Zn653 O659 2.114 . S
Zn653 O662 2.120 . S
Zn653 O664 2.120 . S
Zn653 O665 2.114 . S
Zn653 O668 2.080 . S
C654 O659 1.166 . S
C654 O660 1.182 . S
C655 O661 1.167 . S
C655 O662 1.299 . S
O656 Zn653 2.080 . S
O656 C670 1.305 . S
O657 Zn651 1.920 . S
O657 C670 1.234 . S
C658 O663 1.167 . S
C658 O664 1.299 . S
O659 Zn653 2.114 . S
O659 C654 1.166 . S
O660 Zn652 1.905 . S
O660 C654 1.182 . S
O661 Zn652 1.898 . S
O661 C655 1.167 . S
O662 Zn653 2.120 . S
O662 C655 1.299 . S
O663 Zn651 1.898 . S
O663 C658 1.167 . S
O664 Zn653 2.120 . S
O664 C658 1.299 . S
O665 Zn653 2.114 . S
O665 C667 1.166 1_565 S
O666 Zn651 1.905 1_545 S
O666 C667 1.182 . S
C667 O665 1.166 1_545 S
C667 O666 1.182 . S
O668 Zn653 2.080 . S
O668 C671 1.305 . S
O669 Zn652 1.920 . S
O669 C671 1.234 . S
C670 O656 1.305 . S
C670 O657 1.234 . S
C671 O668 1.305 . S
C671 O669 1.234 . S
Zn672 O678 1.920 . S
Zn672 O684 1.898 . S
Zn672 O687 1.905 1_455 S
Zn673 O681 1.905 . S
Zn673 O682 1.898 . S
Zn673 O690 1.920 . S
Zn674 O677 2.080 . S
Zn674 O680 2.114 . S
Zn674 O683 2.120 . S
Zn674 O685 2.120 . S
Zn674 O686 2.114 . S
Zn674 O689 2.080 . S
C675 O680 1.166 . S
C675 O681 1.182 . S
C676 O682 1.167 . S
C676 O683 1.299 . S
O677 Zn674 2.080 . S
O677 C691 1.305 . S
O678 Zn672 1.920 . S
O678 C691 1.234 . S
C679 O684 1.167 . S
C679 O685 1.299 . S
O680 Zn674 2.114 . S
O680 C675 1.166 . S
O681 Zn673 1.905 . S
O681 C675 1.182 . S
O682 Zn673 1.898 . S
O682 C676 1.167 . S
O683 Zn674 2.120 . S
O683 C676 1.299 . S
O684 Zn672 1.898 . S
O684 C679 1.167 . S
O685 Zn674 2.120 . S
O685 C679 1.299 . S
O686 Zn674 2.114 . S
O686 C688 1.166 1_455 S
O687 Zn672 1.905 1_655 S
O687 C688 1.182 . S
C688 O686 1.166 1_655 S
C688 O687 1.182 . S
O689 Zn674 2.080 . S
O689 C692 1.305 . S
O690 Zn673 1.920 . S
O690 C692 1.234 . S
C691 O677 1.305 . S
C691 O678 1.234 . S
C692 O689 1.305 . S
C692 O690 1.234 . S
Zn693 O699 1.920 . S
Zn693 O705 1.898 . S
Zn693 O708 1.905 . S
Zn694 O702 1.905 . S
Zn694 O703 1.898 . S
Zn694 O711 1.920 . S
Zn695 O698 2.080 . S
Zn695 O701 2.114 . S
Zn695 O704 2.120 1_455 S
Zn695 O706 2.120 . S
Zn695 O707 2.114 . S
Zn695 O710 2.080 . S
C696 O701 1.166 . S
C696 O702 1.182 . S
C697 O703 1.167 1_655 S
C697 O704 1.299 . S
O698 Zn695 2.080 . S
O698 C712 1.305 1_455 S
O699 Zn693 1.920 . S
O699 C712 1.234 1_455 S
C700 O705 1.167 . S
C700 O706 1.299 . S
O701 Zn695 2.114 . S
O701 C696 1.166 . S
O702 Zn694 1.905 . S
O702 C696 1.182 . S
O703 Zn694 1.898 . S
O703 C697 1.167 1_455 S
O704 Zn695 2.120 1_655 S
O704 C697 1.299 . S
O705 Zn693 1.898 . S
O705 C700 1.167 . S
O706 Zn695 2.120 . S
O706 C700 1.299 . S
O707 Zn695 2.114 . S
O707 C709 1.166 . S
O708 Zn693 1.905 . S
O708 C709 1.182 . S
C709 O707 1.166 . S
C709 O708 1.182 . S
O710 Zn695 2.080 . S
O710 C713 1.305 . S
O711 Zn694 1.920 . S
O711 C713 1.234 . S
C712 O698 1.305 1_655 S
C712 O699 1.234 1_655 S
C713 O710 1.305 . S
C713 O711 1.234 . S
Zn714 O720 1.920 . S
Zn714 O726 1.898 . S
Zn714 O729 1.905 . S
Zn715 O723 1.905 . S
Zn715 O724 1.898 . S
Zn715 O732 1.920 . S
Zn716 O719 2.080 . S
Zn716 O722 2.114 . S
Zn716 O725 2.120 . S
Zn716 O727 2.120 . S
Zn716 O728 2.114 . S
Zn716 O731 2.080 . S
C717 O722 1.166 . S
C717 O723 1.182 . S
C718 O724 1.167 . S
C718 O725 1.299 . S
O719 Zn716 2.080 . S
O719 C733 1.305 . S
O720 Zn714 1.920 . S
O720 C733 1.234 . S
C721 O726 1.167 . S
C721 O727 1.299 . S
O722 Zn716 2.114 . S
O722 C717 1.166 . S
O723 Zn715 1.905 . S
O723 C717 1.182 . S
O724 Zn715 1.898 . S
O724 C718 1.167 . S
O725 Zn716 2.120 . S
O725 C718 1.299 . S
O726 Zn714 1.898 . S
O726 C721 1.167 . S
O727 Zn716 2.120 . S
O727 C721 1.299 . S
O728 Zn716 2.114 . S
O728 C730 1.166 . S
O729 Zn714 1.905 . S
O729 C730 1.182 . S
C730 O728 1.166 . S
C730 O729 1.182 . S
O731 Zn716 2.080 . S
O731 C734 1.305 . S
O732 Zn715 1.920 . S
O732 C734 1.234 . S
C733 O719 1.305 . S
C733 O720 1.234 . S
C734 O731 1.305 . S
C734 O732 1.234 . S
Zn735 O741 1.920 . S
Zn735 O747 1.898 . S
Zn735 O750 1.905 . S
Zn736 O744 1.905 . S
Zn736 O745 1.898 . S
Zn736 O753 1.920 . S
Zn737 O740 2.080 . S
Zn737 O743 2.114 . S
Zn737 O746 2.120 1_565 S
Zn737 O748 2.120 . S
Zn737 O749 2.114 . S
Zn737 O752 2.080 . S
C738 O743 1.166 . S
C738 O744 1.182 . S
C739 O745 1.167 1_545 S
C739 O746 1.299 . S
O740 Zn737 2.080 . S
O740 C754 1.305 1_565 S
O741 Zn735 1.920 . S
O741 C754 1.234 1_565 S
C742 O747 1.167 . S
C742 O748 1.299 . S
O743 Zn737 2.114 . S
O743 C738 1.166 . S
O744 Zn736 1.905 . S
O744 C738 1.182 . S
O745 Zn736 1.898 . S
O745 C739 1.167 1_565 S
O746 Zn737 2.120 1_545 S
O746 C739 1.299 . S
O747 Zn735 1.898 . S
O747 C742 1.167 . S
O748 Zn737 2.120 . S
O748 C742 1.299 . S
O749 Zn737 2.114 . S
O749 C751 1.166 . S
O750 Zn735 1.905 . S
O750 C751 1.182 . S
C751 O749 1.166 . S
C751 O750 1.182 . S
O752 Zn737 2.080 . S
O752 C755 1.305 . S
O753 Zn736 1.920 . S
O753 C755 1.234 . S
C754 O740 1.305 1_545 S
C754 O741 1.234 1_545 S
C755 O752 1.305 . S
C755 O753 1.234 . S
C19 C61 2.202 . S
C20 C40 2.202 . S
C62 C41 2.202 . S
C83 C103 2.205 . S
C124 C104 2.205 . S
C125 C82 2.205 . S
C145 C187 2.204 . S
C166 C146 2.204 . S
C188 C167 2.204 . S
C192 C217 2.275 . S
C238 C213 2.275 . S
C196 C234 2.276 . S
C314 C272 2.202 . S
C293 C271 2.202 . S
C292 C313 2.202 . S
C334 C355 2.205 . S
C377 C356 2.205 . S
C335 C376 2.205 . S
C397 C440 2.204 . S
C419 C398 2.204 . S
C418 C439 2.204 . S
C469 C444 2.276 1_556 S
C465 C490 2.275 1_554 S
C448 C486 2.275 1_556 S
C523 C566 2.202 . S
C544 C524 2.202 . S
C565 C545 2.202 . S
C586 C607 2.205 1_556 S
C608 C628 2.205 1_556 S
C629 C587 2.205 1_556 S
C649 C691 2.204 . S
C671 C650 2.204 . S
C670 C692 2.204 . S
C696 C721 2.275 . S
C717 C742 2.275 . S
C700 C738 2.276 . S
C16 C423 1.086 . S
C381 C37 1.085 . S
C45 C415 1.085 . S
C66 C733 1.108 . S
C754 C87 1.108 . S
C108 C712 1.108 . S
C549 C142 1.092 . S
C163 C507 1.092 . S
C171 C528 1.092 . S
C352 C193 1.048 . S
C360 C214 1.048 . S
C318 C235 1.048 . S
C255 C688 1.086 . S
C276 C633 1.085 . S
C667 C310 1.085 . S
C229 C331 1.108 1_655 S
C250 C339 1.108 . S
C208 C373 1.108 1_545 S
C58 C394 1.092 1_545 S
C402 C3 1.092 1_455 S
C436 C24 1.092 . S
C604 C445 1.048 . S
C625 C466 1.048 . S
C487 C570 1.048 . S
C184 C520 1.086 1_565 S
C129 C541 1.085 1_455 S
C150 C562 1.085 . S
C583 C481 1.108 . S
C502 C591 1.108 . S
C612 C460 1.108 . S
C646 C297 1.092 . S
C654 C268 1.092 . S
C675 C289 1.092 . S
C697 C100 1.048 1_655 S
C121 C718 1.048 . S
C79 C739 1.048 1_565 S
C616 C4 0.866 . S
C571 C25 0.866 . S
C49 C595 0.866 . S
C280 C70 0.866 . S
C91 C298 0.866 . S
C112 C259 0.866 . S
C130 C499 0.962 . S
C151 C457 0.962 . S
C175 C478 0.962 . S
C658 C205 0.962 . S
C679 C226 0.962 . S
C634 C247 0.962 . S
C319 C529 0.866 1_655 S
C343 C550 0.866 . S
C361 C508 0.866 1_545 S
C382 C751 0.962 1_545 S
C709 C406 0.962 1_455 S
C424 C730 0.962 . S
C88 C7 3.159 1_655 S
C109 C28 3.160 . S
C67 C46 3.159 1_545 S
C133 C230 3.129 1_655 S
C251 C154 3.129 . S
C172 C209 3.129 1_545 S
C340 C256 3.159 . S
C364 C277 3.160 . S
C322 C301 3.159 . S
C482 C385 3.129 . S
C403 C503 3.129 . S
C427 C461 3.129 . S
C511 C592 3.160 . S
C613 C532 3.160 . S
C553 C574 3.159 . S
C637 C734 3.129 . S
C755 C655 3.129 . S
C676 C713 3.129 . S
