# Generated by pormake.
# Topology uod, (4)-cn, num edge types: 1
# Building blocks:
#     Node 0, Type 0, BuildingBlock: CEKHIL_clean_sbu_0, # of connection points: 4
#     Node 1, Type 0, BuildingBlock: CEKHIL_clean_sbu_0, # of connection points: 4
#     Node 2, Type 0, BuildingBlock: CEKHIL_clean_sbu_0, # of connection points: 4
#     Node 3, Type 0, BuildingBlock: CEKHIL_clean_sbu_0, # of connection points: 4
#     Node 4, Type 0, BuildingBlock: CEKHIL_clean_sbu_0, # of connection points: 4
#     Node 5, Type 0, BuildingBlock: CEKHIL_clean_sbu_0, # of connection points: 4
#     Node 6, Type 0, BuildingBlock: CEKHIL_clean_sbu_0, # of connection points: 4
#     Node 7, Type 0, BuildingBlock: CEKHIL_clean_sbu_0, # of connection points: 4
#     Node 8, Type 0, BuildingBlock: CEKHIL_clean_sbu_0, # of connection points: 4
#     Node 9, Type 0, BuildingBlock: CEKHIL_clean_sbu_0, # of connection points: 4
#     Node 10, Type 0, BuildingBlock: CEKHIL_clean_sbu_0, # of connection points: 4
#     Node 11, Type 0, BuildingBlock: CEKHIL_clean_sbu_0, # of connection points: 4
#     Node 12, Type 0, BuildingBlock: CEKHIL_clean_sbu_0, # of connection points: 4
#     Node 13, Type 0, BuildingBlock: CEKHIL_clean_sbu_0, # of connection points: 4
#     Node 14, Type 0, BuildingBlock: CEKHIL_clean_sbu_0, # of connection points: 4
#     Node 15, Type 0, BuildingBlock: CEKHIL_clean_sbu_0, # of connection points: 4
#     Node 16, Type 0, BuildingBlock: CEKHIL_clean_sbu_0, # of connection points: 4
#     Node 17, Type 0, BuildingBlock: CEKHIL_clean_sbu_0, # of connection points: 4
#     Node 18, Type 0, BuildingBlock: CEKHIL_clean_sbu_0, # of connection points: 4
#     Node 19, Type 0, BuildingBlock: CEKHIL_clean_sbu_0, # of connection points: 4
#     Node 20, Type 0, BuildingBlock: CEKHIL_clean_sbu_0, # of connection points: 4
#     Node 21, Type 0, BuildingBlock: CEKHIL_clean_sbu_0, # of connection points: 4
#     Node 22, Type 0, BuildingBlock: CEKHIL_clean_sbu_0, # of connection points: 4
#     Node 23, Type 0, BuildingBlock: CEKHIL_clean_sbu_0, # of connection points: 4
#     Node 24, Type 0, BuildingBlock: CEKHIL_clean_sbu_0, # of connection points: 4
#     Node 25, Type 0, BuildingBlock: CEKHIL_clean_sbu_0, # of connection points: 4
#     Node 26, Type 0, BuildingBlock: CEKHIL_clean_sbu_0, # of connection points: 4
#     Node 27, Type 0, BuildingBlock: CEKHIL_clean_sbu_0, # of connection points: 4
#     Node 28, Type 0, BuildingBlock: CEKHIL_clean_sbu_0, # of connection points: 4
#     Node 29, Type 0, BuildingBlock: CEKHIL_clean_sbu_0, # of connection points: 4
#     Node 30, Type 0, BuildingBlock: CEKHIL_clean_sbu_0, # of connection points: 4
#     Node 31, Type 0, BuildingBlock: CEKHIL_clean_sbu_0, # of connection points: 4
#     Edge 32, Type (0, 0), BuildingBlock: MIFKUJ_clean_linker_0, # of connection points: 2
#     Edge 33, Type (0, 0), BuildingBlock: MIFKUJ_clean_linker_0, # of connection points: 2
#     Edge 34, Type (0, 0), BuildingBlock: MIFKUJ_clean_linker_0, # of connection points: 2
#     Edge 35, Type (0, 0), BuildingBlock: MIFKUJ_clean_linker_0, # of connection points: 2
#     Edge 36, Type (0, 0), BuildingBlock: MIFKUJ_clean_linker_0, # of connection points: 2
#     Edge 37, Type (0, 0), BuildingBlock: MIFKUJ_clean_linker_0, # of connection points: 2
#     Edge 38, Type (0, 0), BuildingBlock: MIFKUJ_clean_linker_0, # of connection points: 2
#     Edge 39, Type (0, 0), BuildingBlock: MIFKUJ_clean_linker_0, # of connection points: 2
#     Edge 40, Type (0, 0), BuildingBlock: MIFKUJ_clean_linker_0, # of connection points: 2
#     Edge 41, Type (0, 0), BuildingBlock: MIFKUJ_clean_linker_0, # of connection points: 2
#     Edge 42, Type (0, 0), BuildingBlock: MIFKUJ_clean_linker_0, # of connection points: 2
#     Edge 43, Type (0, 0), BuildingBlock: MIFKUJ_clean_linker_0, # of connection points: 2
#     Edge 44, Type (0, 0), BuildingBlock: MIFKUJ_clean_linker_0, # of connection points: 2
#     Edge 45, Type (0, 0), BuildingBlock: MIFKUJ_clean_linker_0, # of connection points: 2
#     Edge 46, Type (0, 0), BuildingBlock: MIFKUJ_clean_linker_0, # of connection points: 2
#     Edge 47, Type (0, 0), BuildingBlock: MIFKUJ_clean_linker_0, # of connection points: 2
#     Edge 48, Type (0, 0), BuildingBlock: MIFKUJ_clean_linker_0, # of connection points: 2
#     Edge 49, Type (0, 0), BuildingBlock: MIFKUJ_clean_linker_0, # of connection points: 2
#     Edge 50, Type (0, 0), BuildingBlock: MIFKUJ_clean_linker_0, # of connection points: 2
#     Edge 51, Type (0, 0), BuildingBlock: MIFKUJ_clean_linker_0, # of connection points: 2
#     Edge 52, Type (0, 0), BuildingBlock: MIFKUJ_clean_linker_0, # of connection points: 2
#     Edge 53, Type (0, 0), BuildingBlock: MIFKUJ_clean_linker_0, # of connection points: 2
#     Edge 54, Type (0, 0), BuildingBlock: MIFKUJ_clean_linker_0, # of connection points: 2
#     Edge 55, Type (0, 0), BuildingBlock: MIFKUJ_clean_linker_0, # of connection points: 2
#     Edge 56, Type (0, 0), BuildingBlock: MIFKUJ_clean_linker_0, # of connection points: 2
#     Edge 57, Type (0, 0), BuildingBlock: MIFKUJ_clean_linker_0, # of connection points: 2
#     Edge 58, Type (0, 0), BuildingBlock: MIFKUJ_clean_linker_0, # of connection points: 2
#     Edge 59, Type (0, 0), BuildingBlock: MIFKUJ_clean_linker_0, # of connection points: 2
#     Edge 60, Type (0, 0), BuildingBlock: MIFKUJ_clean_linker_0, # of connection points: 2
#     Edge 61, Type (0, 0), BuildingBlock: MIFKUJ_clean_linker_0, # of connection points: 2
#     Edge 62, Type (0, 0), BuildingBlock: MIFKUJ_clean_linker_0, # of connection points: 2
#     Edge 63, Type (0, 0), BuildingBlock: MIFKUJ_clean_linker_0, # of connection points: 2
#     Edge 64, Type (0, 0), BuildingBlock: MIFKUJ_clean_linker_0, # of connection points: 2
#     Edge 65, Type (0, 0), BuildingBlock: MIFKUJ_clean_linker_0, # of connection points: 2
#     Edge 66, Type (0, 0), BuildingBlock: MIFKUJ_clean_linker_0, # of connection points: 2
#     Edge 67, Type (0, 0), BuildingBlock: MIFKUJ_clean_linker_0, # of connection points: 2
#     Edge 68, Type (0, 0), BuildingBlock: MIFKUJ_clean_linker_0, # of connection points: 2
#     Edge 69, Type (0, 0), BuildingBlock: MIFKUJ_clean_linker_0, # of connection points: 2
#     Edge 70, Type (0, 0), BuildingBlock: MIFKUJ_clean_linker_0, # of connection points: 2
#     Edge 71, Type (0, 0), BuildingBlock: MIFKUJ_clean_linker_0, # of connection points: 2
#     Edge 72, Type (0, 0), BuildingBlock: MIFKUJ_clean_linker_0, # of connection points: 2
#     Edge 73, Type (0, 0), BuildingBlock: MIFKUJ_clean_linker_0, # of connection points: 2
#     Edge 74, Type (0, 0), BuildingBlock: MIFKUJ_clean_linker_0, # of connection points: 2
#     Edge 75, Type (0, 0), BuildingBlock: MIFKUJ_clean_linker_0, # of connection points: 2
#     Edge 76, Type (0, 0), BuildingBlock: MIFKUJ_clean_linker_0, # of connection points: 2
#     Edge 77, Type (0, 0), BuildingBlock: MIFKUJ_clean_linker_0, # of connection points: 2
#     Edge 78, Type (0, 0), BuildingBlock: MIFKUJ_clean_linker_0, # of connection points: 2
#     Edge 79, Type (0, 0), BuildingBlock: MIFKUJ_clean_linker_0, # of connection points: 2
#     Edge 80, Type (0, 0), BuildingBlock: MIFKUJ_clean_linker_0, # of connection points: 2
#     Edge 81, Type (0, 0), BuildingBlock: MIFKUJ_clean_linker_0, # of connection points: 2
#     Edge 82, Type (0, 0), BuildingBlock: MIFKUJ_clean_linker_0, # of connection points: 2
#     Edge 83, Type (0, 0), BuildingBlock: MIFKUJ_clean_linker_0, # of connection points: 2
#     Edge 84, Type (0, 0), BuildingBlock: MIFKUJ_clean_linker_0, # of connection points: 2
#     Edge 85, Type (0, 0), BuildingBlock: MIFKUJ_clean_linker_0, # of connection points: 2
#     Edge 86, Type (0, 0), BuildingBlock: MIFKUJ_clean_linker_0, # of connection points: 2
#     Edge 87, Type (0, 0), BuildingBlock: MIFKUJ_clean_linker_0, # of connection points: 2
#     Edge 88, Type (0, 0), BuildingBlock: MIFKUJ_clean_linker_0, # of connection points: 2
#     Edge 89, Type (0, 0), BuildingBlock: MIFKUJ_clean_linker_0, # of connection points: 2
#     Edge 90, Type (0, 0), BuildingBlock: MIFKUJ_clean_linker_0, # of connection points: 2
#     Edge 91, Type (0, 0), BuildingBlock: MIFKUJ_clean_linker_0, # of connection points: 2
#     Edge 92, Type (0, 0), BuildingBlock: MIFKUJ_clean_linker_0, # of connection points: 2
#     Edge 93, Type (0, 0), BuildingBlock: MIFKUJ_clean_linker_0, # of connection points: 2
#     Edge 94, Type (0, 0), BuildingBlock: MIFKUJ_clean_linker_0, # of connection points: 2
#     Edge 95, Type (0, 0), BuildingBlock: MIFKUJ_clean_linker_0, # of connection points: 2
# Relax obj value: 0.170
# Max RMSD: 0.164
# Mean RMSD: 0.164
data_MOF--net-uod--node1-CEKHIL_clean_sbu_0--edge1-MIFKUJ_clean_linker_0
_symmetry_space_group_name_H-M    P1
_symmetry_Int_Tables_number       1
_symmetry_cell_setting            triclinic
loop_
_symmetry_equiv_pos_as_xyz
'x, y, z'
_cell_length_a     119.78153
_cell_length_b     34.069774
_cell_length_c     77.866259
_cell_angle_alpha  90.000863
_cell_angle_beta   90.000931
_cell_angle_gamma 90.013968
loop_
_atom_site_label
_atom_site_type_symbol
_atom_site_fract_x
_atom_site_fract_y
_atom_site_fract_z
_atom_type_partial_charge
Co0 Co 0.04605 0.38185 0.08739 0.0
O1 O 0.03312 0.3772 0.07287 0.0
O2 O 0.0482 0.41161 0.06635 0.0
C3 C 0.04749 0.31849 0.09504 0.0
O4 O 0.06112 0.39173 0.09923 0.0
Co5 Co 0.04337 0.36402 0.12642 0.0
O6 O 0.0598 0.37167 0.12678 0.0
C7 C 0.03318 0.43438 0.11187 0.0
C8 C 0.0381 0.4008 0.06227 0.0
C9 C 0.06544 0.38503 0.11417 0.0
O10 O 0.03918 0.42953 0.09834 0.0
O11 O 0.03275 0.40915 0.12402 0.0
O12 O 0.05149 0.32999 0.08032 0.0
O13 O 0.0417 0.34424 0.10325 0.0
Co14 Co 0.21167 0.86825 0.08341 0.0
O15 O 0.22486 0.87197 0.06945 0.0
O16 O 0.21003 0.83655 0.06271 0.0
C17 C 0.21 0.9321 0.08983 0.0
O18 O 0.19641 0.85932 0.09503 0.0
Co19 Co 0.21406 0.88951 0.12218 0.0
O20 O 0.19751 0.88774 0.12114 0.0
C21 C 0.22367 0.81647 0.10949 0.0
C22 C 0.2202 0.84737 0.05898 0.0
C23 C 0.19189 0.87148 0.10917 0.0
O24 O 0.21836 0.82174 0.09534 0.0
O25 O 0.22379 0.84166 0.12166 0.0
O26 O 0.2063 0.91914 0.07516 0.0
O27 O 0.21574 0.90737 0.09872 0.0
Co28 Co 0.05316 0.87003 0.1703 0.0
O29 O 0.03948 0.87359 0.18327 0.0
O30 O 0.05399 0.83746 0.19081 0.0
C31 C 0.05512 0.9343 0.16458 0.0
O32 O 0.06885 0.86075 0.16013 0.0
Co33 Co 0.05283 0.89337 0.13153 0.0
O34 O 0.06925 0.8918 0.13455 0.0
C35 C 0.04196 0.82089 0.14259 0.0
C36 C 0.04376 0.84848 0.19391 0.0
C37 C 0.07415 0.87421 0.14689 0.0
O38 O 0.04665 0.82449 0.15735 0.0
O39 O 0.04274 0.8465 0.13065 0.0
O40 O 0.05829 0.92063 0.17942 0.0
O41 O 0.04984 0.90993 0.15488 0.0
Co42 Co 0.2044 0.37486 0.16948 0.0
O43 O 0.21784 0.36903 0.18288 0.0
O44 O 0.20349 0.40621 0.19029 0.0
C45 C 0.20195 0.3112 0.16287 0.0
O46 O 0.18896 0.38627 0.15897 0.0
Co47 Co 0.20529 0.3538 0.1305 0.0
O48 O 0.18895 0.36264 0.13193 0.0
C49 C 0.2166 0.42428 0.14285 0.0
C50 C 0.21354 0.39379 0.19367 0.0
C51 C 0.18393 0.37807 0.1447 0.0
O52 O 0.21137 0.42088 0.15721 0.0
O53 O 0.21619 0.39827 0.13103 0.0
O54 O 0.19872 0.32408 0.1778 0.0
O55 O 0.20761 0.33563 0.15374 0.0
Co56 Co 0.95841 0.62329 0.91826 0.0
O57 O 0.97148 0.62809 0.93244 0.0
O58 O 0.95662 0.59287 0.93926 0.0
C59 C 0.95679 0.68694 0.91109 0.0
O60 O 0.94328 0.61306 0.90662 0.0
Co61 Co 0.9608 0.64223 0.87935 0.0
O62 O 0.9443 0.63684 0.87965 0.0
C63 C 0.97023 0.56929 0.89274 0.0
C64 C 0.96675 0.60392 0.94305 0.0
C65 C 0.93878 0.62173 0.892 0.0
O66 O 0.96523 0.57598 0.90703 0.0
O67 O 0.97024 0.59358 0.8802 0.0
O68 O 0.95283 0.67462 0.9257 0.0
O69 O 0.96259 0.66171 0.90256 0.0
Co70 Co 0.79668 0.12876 0.91541 0.0
O71 O 0.78382 0.12707 0.93036 0.0
O72 O 0.79878 0.1638 0.93485 0.0
C73 C 0.79813 0.06393 0.91064 0.0
O74 O 0.81177 0.13632 0.90308 0.0
Co75 Co 0.79436 0.10119 0.87737 0.0
O76 O 0.81083 0.1068 0.87719 0.0
C77 C 0.78445 0.17574 0.88795 0.0
C78 C 0.78879 0.15344 0.93962 0.0
C79 C 0.81631 0.12447 0.88892 0.0
O80 O 0.78954 0.17312 0.90242 0.0
O81 O 0.78468 0.14903 0.87643 0.0
O82 O 0.80231 0.07886 0.92464 0.0
O83 O 0.79234 0.08764 0.90135 0.0
Co84 Co 0.95498 0.12814 0.82908 0.0
O85 O 0.96853 0.12603 0.81592 0.0
O86 O 0.95397 0.1625 0.80904 0.0
C87 C 0.95325 0.06345 0.83358 0.0
O88 O 0.93943 0.13583 0.83994 0.0
Co89 Co 0.95635 0.10091 0.86725 0.0
O90 O 0.93991 0.10737 0.8661 0.0
C91 C 0.96657 0.17528 0.85713 0.0
C92 C 0.96422 0.15199 0.80574 0.0
C93 C 0.93463 0.12451 0.85399 0.0
O94 O 0.96143 0.1729 0.84268 0.0
O95 O 0.96648 0.14771 0.86828 0.0
O96 O 0.94971 0.07843 0.81921 0.0
O97 O 0.95872 0.08678 0.84348 0.0
Co98 Co 0.80053 0.61569 0.83329 0.0
O99 O 0.78701 0.62226 0.82024 0.0
O100 O 0.80138 0.58651 0.8118 0.0
C101 C 0.80288 0.67854 0.84136 0.0
O102 O 0.81597 0.60385 0.84365 0.0
Co103 Co 0.79916 0.63195 0.8727 0.0
O104 O 0.81552 0.62331 0.87138 0.0
C105 C 0.78809 0.56329 0.85836 0.0
C106 C 0.79119 0.59841 0.80898 0.0
C107 C 0.82073 0.60988 0.85834 0.0
O108 O 0.79378 0.56816 0.84453 0.0
O109 O 0.78809 0.5881 0.87068 0.0
O110 O 0.80609 0.66751 0.82612 0.0
O111 O 0.7972 0.65295 0.84983 0.0
Co112 Co 0.04779 0.88011 0.58602 0.0
O113 O 0.03454 0.87367 0.57231 0.0
O114 O 0.04895 0.91043 0.56489 0.0
C115 C 0.05027 0.81692 0.59319 0.0
O116 O 0.06304 0.89214 0.59708 0.0
Co117 Co 0.04615 0.86116 0.62514 0.0
O118 O 0.06245 0.87084 0.62454 0.0
C119 C 0.03532 0.93143 0.61172 0.0
C120 C 0.0389 0.89807 0.56143 0.0
C121 C 0.06769 0.88552 0.6118 0.0
O122 O 0.04058 0.92643 0.59751 0.0
O123 O 0.03567 0.90697 0.62416 0.0
O124 O 0.05368 0.82951 0.5783 0.0
O125 O 0.04436 0.84137 0.60197 0.0
Co126 Co 0.21117 0.35912 0.58892 0.0
O127 O 0.22474 0.35808 0.57574 0.0
O128 O 0.20924 0.32746 0.56824 0.0
C129 C 0.21108 0.42355 0.59485 0.0
O130 O 0.19544 0.35525 0.59964 0.0
Co131 Co 0.21285 0.38184 0.62768 0.0
O132 O 0.19635 0.38335 0.62583 0.0
C133 C 0.22148 0.30625 0.61603 0.0
C134 C 0.21973 0.33475 0.56509 0.0
C135 C 0.19076 0.36823 0.61354 0.0
O136 O 0.21651 0.31142 0.60158 0.0
O137 O 0.22175 0.33207 0.62794 0.0
O138 O 0.20731 0.41126 0.58011 0.0
O139 O 0.21586 0.39734 0.60423 0.0
Co140 Co 0.05112 0.36753 0.66814 0.0
O141 O 0.03719 0.37263 0.68024 0.0
O142 O 0.05134 0.33646 0.68917 0.0
C143 C 0.05357 0.43115 0.66155 0.0
O144 O 0.06689 0.35682 0.65869 0.0
Co145 Co 0.05098 0.38765 0.62902 0.0
O146 O 0.06721 0.37704 0.63105 0.0
C147 C 0.03925 0.31833 0.64141 0.0
C148 C 0.04106 0.34794 0.69142 0.0
C149 C 0.07204 0.36304 0.64432 0.0
O150 O 0.04474 0.32121 0.65553 0.0
O151 O 0.03961 0.34451 0.62965 0.0
O152 O 0.05632 0.4186 0.67677 0.0
O153 O 0.04827 0.40638 0.65209 0.0
Co154 Co 0.20534 0.86776 0.67423 0.0
O155 O 0.21889 0.86256 0.68736 0.0
O156 O 0.20463 0.89984 0.69494 0.0
C157 C 0.20289 0.80394 0.66795 0.0
O158 O 0.18991 0.87887 0.66353 0.0
Co159 Co 0.20677 0.84592 0.63531 0.0
O160 O 0.19052 0.85702 0.63619 0.0
C161 C 0.21785 0.9164 0.64781 0.0
C162 C 0.21479 0.88799 0.69801 0.0
C163 C 0.18523 0.87183 0.64885 0.0
O164 O 0.21217 0.91338 0.66175 0.0
O165 O 0.21784 0.89 0.63614 0.0
O166 O 0.19973 0.81713 0.68287 0.0
O167 O 0.20854 0.82816 0.65872 0.0
Co168 Co 0.96002 0.11708 0.41413 0.0
O169 O 0.9734 0.11886 0.42773 0.0
O170 O 0.95818 0.08607 0.43495 0.0
C171 C 0.95909 0.18129 0.40759 0.0
O172 O 0.94456 0.11022 0.40308 0.0
Co173 Co 0.96194 0.1378 0.37528 0.0
O174 O 0.9454 0.13996 0.37722 0.0
C175 C 0.97112 0.06363 0.38785 0.0
C176 C 0.96851 0.09525 0.4384 0.0
C177 C 0.93988 0.12394 0.38937 0.0
O178 O 0.96596 0.06933 0.40209 0.0
O179 O 0.97142 0.08916 0.3758 0.0
O180 O 0.95535 0.16894 0.42234 0.0
O181 O 0.96438 0.15553 0.3986 0.0
Co182 Co 0.80291 0.61858 0.42575 0.0
O183 O 0.7897 0.61682 0.43982 0.0
O184 O 0.80421 0.65516 0.44488 0.0
C185 C 0.80503 0.55357 0.42248 0.0
O186 O 0.81811 0.62691 0.414 0.0
Co187 Co 0.80124 0.5869 0.3882 0.0
O188 O 0.81745 0.59859 0.38782 0.0
C189 C 0.7912 0.6627 0.39674 0.0
C190 C 0.79418 0.64406 0.44918 0.0
C191 C 0.8227 0.6169 0.39961 0.0
O192 O 0.79596 0.66131 0.41153 0.0
O193 O 0.79145 0.63429 0.386 0.0
O194 O 0.80869 0.57038 0.43638 0.0
O195 O 0.79925 0.57535 0.41232 0.0
Co196 Co 0.95916 0.6294 0.33378 0.0
O197 O 0.97235 0.62378 0.31979 0.0
O198 O 0.95845 0.66442 0.3141 0.0
C199 C 0.95576 0.56544 0.33841 0.0
O200 O 0.94405 0.64185 0.34517 0.0
Co201 Co 0.96036 0.60251 0.37204 0.0
O202 O 0.94445 0.61833 0.37226 0.0
C203 C 0.97205 0.67355 0.36159 0.0
C204 C 0.96834 0.65136 0.3101 0.0
C205 C 0.93938 0.63507 0.35986 0.0
O206 O 0.96698 0.67187 0.34707 0.0
O207 O 0.97121 0.64718 0.37319 0.0
O208 O 0.95261 0.5815 0.32405 0.0
O209 O 0.96194 0.58689 0.3482 0.0
Co210 Co 0.80098 0.11989 0.33078 0.0
O211 O 0.78748 0.12098 0.31741 0.0
O212 O 0.80319 0.09293 0.30897 0.0
C213 C 0.80064 0.18299 0.33925 0.0
O214 O 0.81665 0.11457 0.34134 0.0
Co215 Co 0.79928 0.13474 0.3702 0.0
O216 O 0.81574 0.13946 0.36813 0.0
C217 C 0.79171 0.05961 0.35596 0.0
C218 C 0.7927 0.10053 0.30591 0.0
C219 C 0.82132 0.12633 0.35541 0.0
O220 O 0.79603 0.06906 0.34142 0.0
O221 O 0.79134 0.083 0.36881 0.0
O222 O 0.80463 0.17401 0.3242 0.0
O223 O 0.79601 0.15458 0.3475 0.0
Co224 Co 0.54534 0.3684 0.58424 0.0
O225 O 0.53213 0.36415 0.57031 0.0
O226 O 0.54705 0.39856 0.56312 0.0
C227 C 0.54671 0.3047 0.59151 0.0
O228 O 0.56065 0.37801 0.59557 0.0
Co229 Co 0.54339 0.34922 0.62328 0.0
O230 O 0.55992 0.35154 0.62207 0.0
C231 C 0.534 0.42255 0.6101 0.0
C232 C 0.53686 0.38789 0.55953 0.0
C233 C 0.56536 0.36737 0.6098 0.0
O234 O 0.53876 0.41595 0.59561 0.0
O235 O 0.53416 0.3983 0.62265 0.0
O236 O 0.55059 0.31658 0.57676 0.0
O237 O 0.54116 0.33045 0.60008 0.0
Co238 Co 0.71382 0.88046 0.58959 0.0
O239 O 0.72672 0.88273 0.57487 0.0
O240 O 0.71222 0.84379 0.57058 0.0
C241 C 0.7116 0.94537 0.5931 0.0
O242 O 0.69883 0.87161 0.6019 0.0
Co243 Co 0.71564 0.91164 0.62704 0.0
O244 O 0.69912 0.90774 0.62611 0.0
C245 C 0.72595 0.83648 0.61822 0.0
C246 C 0.72216 0.85504 0.56585 0.0
C247 C 0.69393 0.88677 0.61513 0.0
O248 O 0.72133 0.83823 0.60335 0.0
O249 O 0.72521 0.86367 0.62949 0.0
O250 O 0.7076 0.92838 0.57944 0.0
O251 O 0.71766 0.92362 0.60291 0.0
Co252 Co 0.55515 0.86213 0.67133 0.0
O253 O 0.54094 0.86742 0.68278 0.0
O254 O 0.55492 0.83121 0.69232 0.0
C255 C 0.5578 0.92586 0.665 0.0
O256 O 0.57115 0.85112 0.66307 0.0
Co257 Co 0.55658 0.88262 0.63231 0.0
O258 O 0.57261 0.86994 0.63533 0.0
C259 C 0.5445 0.81255 0.64336 0.0
C260 C 0.54467 0.84314 0.69425 0.0
C261 C 0.57681 0.85617 0.64911 0.0
O262 O 0.54908 0.81577 0.65823 0.0
O263 O 0.54546 0.8387 0.63167 0.0
O264 O 0.56013 0.91306 0.68034 0.0
O265 O 0.5528 0.90124 0.65507 0.0
Co266 Co 0.70363 0.39221 0.67029 0.0
O267 O 0.71735 0.38738 0.683 0.0
O268 O 0.70267 0.42086 0.69194 0.0
C269 C 0.70215 0.32904 0.66221 0.0
O270 O 0.68794 0.40185 0.66038 0.0
Co271 Co 0.70459 0.37648 0.63087 0.0
O272 O 0.68821 0.38432 0.63238 0.0
C273 C 0.71522 0.44633 0.6451 0.0
C274 C 0.71301 0.41029 0.69448 0.0
C275 C 0.68306 0.39627 0.64575 0.0
O276 O 0.70972 0.44078 0.65906 0.0
O277 O 0.71527 0.42163 0.63273 0.0
O278 O 0.69876 0.33961 0.67742 0.0
O279 O 0.70734 0.35565 0.65361 0.0
Co280 Co 0.45658 0.61157 0.4158 0.0
O281 O 0.46984 0.61508 0.42966 0.0
O282 O 0.45481 0.5811 0.43678 0.0
C283 C 0.45528 0.67533 0.40862 0.0
O284 O 0.44125 0.60285 0.40453 0.0
Co285 Co 0.45884 0.63046 0.3768 0.0
O286 O 0.44232 0.62609 0.37745 0.0
C287 C 0.46886 0.5591 0.39061 0.0
C288 C 0.46506 0.59117 0.44033 0.0
C289 C 0.43674 0.61184 0.38995 0.0
O290 O 0.46301 0.56393 0.40428 0.0
O291 O 0.46927 0.58454 0.37854 0.0
O292 O 0.45151 0.66354 0.42344 0.0
O293 O 0.46079 0.64951 0.40002 0.0
Co294 Co 0.29908 0.11942 0.41639 0.0
O295 O 0.28521 0.11566 0.42886 0.0
O296 O 0.29965 0.1515 0.43704 0.0
C297 C 0.30134 0.05542 0.41046 0.0
O298 O 0.31482 0.12945 0.40675 0.0
Co299 Co 0.29917 0.09679 0.37751 0.0
O300 O 0.31545 0.1057 0.37972 0.0
C301 C 0.28796 0.16841 0.38862 0.0
C302 C 0.28936 0.14068 0.43968 0.0
C303 C 0.32015 0.12138 0.39273 0.0
O304 O 0.2927 0.16505 0.40335 0.0
O305 O 0.28871 0.14255 0.37677 0.0
O306 O 0.30421 0.06878 0.42549 0.0
O307 O 0.29607 0.07974 0.40074 0.0
Co308 Co 0.45821 0.12783 0.33924 0.0
O309 O 0.47124 0.12197 0.32489 0.0
O310 O 0.45727 0.16265 0.31958 0.0
C311 C 0.45476 0.06399 0.34409 0.0
O312 O 0.44322 0.14058 0.35081 0.0
Co313 Co 0.45938 0.10128 0.37751 0.0
O314 O 0.44323 0.11383 0.3773 0.0
C315 C 0.47128 0.17183 0.36685 0.0
C316 C 0.46708 0.14943 0.31526 0.0
C317 C 0.43834 0.132 0.36513 0.0
O318 O 0.46621 0.17019 0.35233 0.0
O319 O 0.47032 0.1457 0.37854 0.0
O320 O 0.45151 0.08001 0.32975 0.0
O321 O 0.46105 0.08548 0.35369 0.0
Co322 Co 0.29877 0.61016 0.32998 0.0
O323 O 0.28574 0.61369 0.31558 0.0
O324 O 0.30091 0.57954 0.30919 0.0
C325 C 0.29982 0.67384 0.33732 0.0
O326 O 0.31394 0.60147 0.3417 0.0
Co327 Co 0.29624 0.62912 0.36895 0.0
O328 O 0.31273 0.62307 0.36902 0.0
C329 C 0.28631 0.55772 0.3549 0.0
C330 C 0.29074 0.58965 0.30521 0.0
C331 C 0.31835 0.60931 0.35647 0.0
O332 O 0.2922 0.56248 0.34127 0.0
O333 O 0.28583 0.58325 0.36692 0.0
O334 O 0.30392 0.66235 0.32265 0.0
O335 O 0.29427 0.64774 0.34567 0.0
Co336 Co 0.55421 0.8773 0.08183 0.0
O337 O 0.53904 0.87713 0.07347 0.0
O338 O 0.55301 0.90723 0.06051 0.0
C339 C 0.55525 0.81323 0.08869 0.0
O340 O 0.57105 0.88197 0.08694 0.0
Co341 Co 0.55792 0.85764 0.12074 0.0
O342 O 0.57372 0.85524 0.1132 0.0
C343 C 0.54799 0.9324 0.1109 0.0
C344 C 0.54237 0.89913 0.06091 0.0
C345 C 0.57745 0.86923 0.09913 0.0
O346 O 0.55099 0.92629 0.09528 0.0
O347 O 0.54888 0.90675 0.12281 0.0
O348 O 0.5567 0.82399 0.0728 0.0
O349 O 0.55196 0.84045 0.09896 0.0
Co350 Co 0.70193 0.36294 0.07944 0.0
O351 O 0.71609 0.3695 0.06815 0.0
O352 O 0.7019 0.33642 0.0572 0.0
C353 C 0.69974 0.42525 0.08857 0.0
O354 O 0.68601 0.35126 0.08798 0.0
Co355 Co 0.70185 0.37458 0.11919 0.0
O356 O 0.68559 0.36556 0.11632 0.0
C357 C 0.71344 0.30779 0.10411 0.0
C358 C 0.71232 0.34721 0.05597 0.0
C359 C 0.6808 0.35465 0.10248 0.0
O360 O 0.70788 0.31364 0.09024 0.0
O361 O 0.71317 0.33152 0.11684 0.0
O362 O 0.69709 0.41608 0.07285 0.0
O363 O 0.70479 0.3981 0.09705 0.0
Co364 Co 0.54405 0.36964 0.16558 0.0
O365 O 0.53145 0.37216 0.18084 0.0
O366 O 0.5463 0.33493 0.18513 0.0
C367 C 0.5459 0.43418 0.16078 0.0
O368 O 0.55886 0.36123 0.15257 0.0
Co369 Co 0.54096 0.39741 0.12767 0.0
O370 O 0.55746 0.39303 0.12727 0.0
C371 C 0.53146 0.32248 0.13844 0.0
C372 C 0.53641 0.34596 0.19019 0.0
C373 C 0.56317 0.37431 0.13842 0.0
O374 O 0.5366 0.32555 0.15286 0.0
O375 O 0.53154 0.34899 0.12683 0.0
O376 O 0.55006 0.4189 0.17471 0.0
O377 O 0.53973 0.41116 0.15171 0.0
Co378 Co 0.71542 0.87558 0.1574 0.0
O379 O 0.72886 0.8738 0.17094 0.0
O380 O 0.7143 0.91138 0.17677 0.0
C381 C 0.71333 0.81066 0.15373 0.0
O382 O 0.69996 0.88393 0.14654 0.0
Co383 Co 0.71572 0.8454 0.11963 0.0
O384 O 0.69925 0.84678 0.12258 0.0
C385 C 0.72631 0.92056 0.128 0.0
C386 C 0.72444 0.90066 0.1806 0.0
C387 C 0.69456 0.86779 0.13404 0.0
O388 O 0.72222 0.9185 0.14322 0.0
O389 O 0.72517 0.89363 0.11669 0.0
O390 O 0.70986 0.8271 0.16785 0.0
O391 O 0.71888 0.833 0.14345 0.0
Co392 Co 0.45754 0.11468 0.92094 0.0
O393 O 0.47097 0.11477 0.93444 0.0
O394 O 0.45535 0.0851 0.94214 0.0
C395 C 0.45774 0.17849 0.91364 0.0
O396 O 0.44195 0.11015 0.9099 0.0
Co397 Co 0.45989 0.1325 0.88184 0.0
O398 O 0.44335 0.13326 0.88282 0.0
C399 C 0.46771 0.05735 0.89535 0.0
C400 C 0.46583 0.09246 0.94535 0.0
C401 C 0.43755 0.1204 0.89537 0.0
O402 O 0.46272 0.06512 0.90953 0.0
O403 O 0.4684 0.08181 0.88292 0.0
O404 O 0.45375 0.16797 0.9285 0.0
O405 O 0.46254 0.15104 0.90498 0.0
Co406 Co 0.301 0.62821 0.91545 0.0
O407 O 0.28821 0.6228 0.93014 0.0
O408 O 0.30305 0.65858 0.93642 0.0
C409 C 0.30271 0.56492 0.90802 0.0
O410 O 0.31587 0.63881 0.9032 0.0
Co411 Co 0.29776 0.60999 0.87666 0.0
O412 O 0.31425 0.61625 0.87608 0.0
C413 C 0.28764 0.68022 0.8913 0.0
C414 C 0.29301 0.6472 0.94056 0.0
C415 C 0.32006 0.63061 0.88832 0.0
O416 O 0.29381 0.6753 0.90461 0.0
O417 O 0.28708 0.65513 0.87911 0.0
O418 O 0.30691 0.57708 0.92251 0.0
O419 O 0.29661 0.58991 0.89988 0.0
Co420 Co 0.45824 0.61408 0.8276 0.0
O421 O 0.47161 0.61345 0.81398 0.0
O422 O 0.45681 0.64967 0.80808 0.0
C423 C 0.45703 0.54888 0.83138 0.0
O424 O 0.44283 0.62067 0.8389 0.0
Co425 Co 0.4598 0.5843 0.86534 0.0
O426 O 0.44334 0.5908 0.86474 0.0
C427 C 0.46928 0.66082 0.85636 0.0
C428 C 0.46705 0.63987 0.80431 0.0
C429 C 0.43807 0.60888 0.85289 0.0
O430 O 0.4646 0.65837 0.84155 0.0
O431 O 0.46919 0.63283 0.86732 0.0
O432 O 0.45305 0.56453 0.81741 0.0
O433 O 0.46241 0.57217 0.84141 0.0
Co434 Co 0.29861 0.11277 0.8375 0.0
O435 O 0.28537 0.11596 0.82351 0.0
O436 O 0.29987 0.07821 0.81766 0.0
C437 C 0.30081 0.17745 0.84216 0.0
O438 O 0.31392 0.10351 0.84891 0.0
Co439 Co 0.29731 0.14019 0.87566 0.0
O440 O 0.31372 0.13336 0.87476 0.0
C441 C 0.28661 0.06663 0.86557 0.0
C442 C 0.28981 0.08953 0.81366 0.0
C443 C 0.31884 0.1151 0.86282 0.0
O444 O 0.2914 0.06893 0.85083 0.0
O445 O 0.28731 0.09321 0.87711 0.0
O446 O 0.30443 0.16195 0.82792 0.0
O447 O 0.29502 0.15448 0.85183 0.0
H448 H 0.02926 0.78064 0.16543 0.0
H449 H 0.02002 0.71745 0.16097 0.0
H450 H 0.03128 0.7166 0.10829 0.0
H451 H 0.03997 0.78091 0.11245 0.0
H452 H 0.01158 0.68062 0.11073 0.0
H453 H 0.04716 0.67531 0.14197 0.0
H454 H 0.05946 0.6936 0.16611 0.0
H455 H 0.03555 0.64757 0.20195 0.0
H456 H 0.02308 0.6293 0.17799 0.0
H457 H 0.03251 0.49635 0.08957 0.0
H458 H 0.02598 0.56242 0.09562 0.0
H459 H 0.01372 0.5244 0.14501 0.0
H460 H 0.02045 0.45811 0.13922 0.0
H461 H 0.02853 0.57977 0.14855 0.0
H462 H 0.99515 0.57015 0.1163 0.0
H463 H 0.98261 0.55356 0.09225 0.0
H464 H 1.00217 0.62513 0.05827 0.0
H465 H 0.01476 0.64253 0.08216 0.0
C466 C 0.02959 0.76717 0.15283 0.0
C467 C 0.03549 0.78503 0.13935 0.0
C468 C 0.02429 0.73121 0.15028 0.0
C469 C 0.02521 0.7119 0.13442 0.0
C470 C 0.03049 0.73095 0.12064 0.0
C471 C 0.03553 0.76748 0.12305 0.0
C472 C 0.02206 0.6701 0.13274 0.0
C473 C 0.01525 0.65844 0.11898 0.0
C474 C 0.02653 0.64131 0.14389 0.0
C475 C 0.03416 0.65132 0.15824 0.0
C476 C 0.04453 0.66917 0.15501 0.0
C477 C 0.05153 0.67954 0.16865 0.0
C478 C 0.04828 0.67185 0.18555 0.0
C479 C 0.03805 0.65356 0.18885 0.0
C480 C 0.03102 0.64315 0.17525 0.0
C481 C 0.02823 0.50173 0.1016 0.0
C482 C 0.0273 0.47219 0.11413 0.0
C483 C 0.02433 0.53952 0.10493 0.0
C484 C 0.01935 0.54838 0.12078 0.0
C485 C 0.01754 0.51815 0.1327 0.0
C486 C 0.02146 0.48033 0.1294 0.0
C487 C 0.01835 0.58989 0.12613 0.0
C488 C 0.02449 0.60168 0.14058 0.0
C489 C 0.01328 0.61857 0.11558 0.0
C490 C 0.00591 0.60759 0.10103 0.0
C491 C 0.99681 0.58224 0.10369 0.0
C492 C 0.98964 0.57291 0.09011 0.0
C493 C 0.99157 0.58837 0.07376 0.0
C494 C 1.00065 0.61331 0.07096 0.0
C495 C 0.00777 0.62311 0.08454 0.0
H496 H 0.98607 0.58083 0.06323 0.0
H497 H 0.05369 0.67999 0.1961 0.0
H498 H 0.22985 0.76421 0.08484 0.0
H499 H 0.23497 0.69569 0.08916 0.0
H500 H 0.23487 0.71317 0.14402 0.0
H501 H 0.22978 0.78208 0.13986 0.0
H502 H 0.25077 0.65516 0.13208 0.0
H503 H 0.21148 0.68973 0.12739 0.0
H504 H 0.19551 0.72167 0.11308 0.0
H505 H 0.20121 0.65239 0.06785 0.0
H506 H 0.21734 0.62049 0.08183 0.0
H507 H 0.22052 0.48557 0.16486 0.0
H508 H 0.22817 0.54996 0.15754 0.0
H509 H 0.23417 0.51102 0.10571 0.0
H510 H 0.22654 0.44657 0.11276 0.0
H511 H 0.21793 0.57749 0.11313 0.0
H512 H 0.25496 0.53262 0.12088 0.0
H513 H 0.27131 0.50276 0.1349 0.0
H514 H 0.27033 0.59085 0.17429 0.0
H515 H 0.25379 0.62073 0.16077 0.0
C516 C 0.23116 0.75376 0.09784 0.0
C517 C 0.22909 0.77813 0.11206 0.0
C518 C 0.23419 0.71472 0.10025 0.0
C519 C 0.2351 0.69945 0.11689 0.0
C520 C 0.23419 0.72461 0.13108 0.0
C521 C 0.23121 0.76385 0.12868 0.0
C522 C 0.23479 0.65666 0.1195 0.0
C523 C 0.2436 0.63798 0.12807 0.0
C524 C 0.2255 0.63454 0.11387 0.0
C525 C 0.21567 0.65307 0.10558 0.0
C526 C 0.20937 0.68151 0.11436 0.0
C527 C 0.20029 0.69959 0.10631 0.0
C528 C 0.19737 0.68915 0.08955 0.0
C529 C 0.2035 0.6605 0.08082 0.0
C530 C 0.21261 0.6424 0.0888 0.0
C531 C 0.22366 0.49036 0.15198 0.0
C532 C 0.22273 0.4611 0.13931 0.0
C533 C 0.22814 0.52702 0.1479 0.0
C534 C 0.23187 0.53479 0.13119 0.0
C535 C 0.2315 0.50514 0.11876 0.0
C536 C 0.22706 0.46845 0.12281 0.0
C537 C 0.23386 0.57565 0.12594 0.0
C538 C 0.22523 0.59424 0.11696 0.0
C539 C 0.24329 0.59741 0.13133 0.0
C540 C 0.25298 0.57859 0.13992 0.0
C541 C 0.25809 0.54527 0.1327 0.0
C542 C 0.26744 0.52844 0.14051 0.0
C543 C 0.27185 0.54487 0.15548 0.0
C544 C 0.26692 0.57819 0.16267 0.0
C545 C 0.25754 0.59504 0.15495 0.0
H546 H 0.27909 0.53178 0.16152 0.0
H547 H 0.19034 0.70319 0.08334 0.0
H548 H 0.97607 0.19661 0.88778 0.0
H549 H 0.98286 0.26167 0.89585 0.0
H550 H 0.97653 0.30352 0.84452 0.0
H551 H 0.96994 0.23856 0.83616 0.0
H552 H 0.99571 0.33785 0.85982 0.0
H553 H 0.9565 0.31119 0.87245 0.0
H554 H 0.94128 0.27319 0.88584 0.0
H555 H 0.95569 0.29236 0.93564 0.0
H556 H 0.97109 0.33003 0.92248 0.0
H557 H 0.97565 0.53249 0.86262 0.0
H558 H 0.98118 0.46405 0.85906 0.0
H559 H 0.98235 0.44997 0.91412 0.0
H560 H 0.9766 0.51811 0.91778 0.0
H561 H 0.96924 0.39843 0.90104 0.0
H562 H 0.006 0.43973 0.88859 0.0
H563 H 0.02102 0.4783 0.87506 0.0
H564 H 0.0118 0.43328 0.82555 0.0
H565 H 0.9966 0.39489 0.83871 0.0
C566 C 0.97634 0.21937 0.87808 0.0
C567 C 0.97221 0.21262 0.86143 0.0
C568 C 0.98028 0.25646 0.88271 0.0
C569 C 0.98009 0.28731 0.87079 0.0
C570 C 0.97679 0.27994 0.85385 0.0
C571 C 0.97288 0.2429 0.84918 0.0
C572 C 0.98164 0.32828 0.87648 0.0
C573 C 0.98998 0.35133 0.86885 0.0
C574 C 0.9743 0.3453 0.88857 0.0
C575 C 0.96501 0.32295 0.89648 0.0
C576 C 0.95646 0.30702 0.88624 0.0
C577 C 0.9478 0.28559 0.89379 0.0
C578 C 0.94754 0.28024 0.91157 0.0
C579 C 0.95592 0.29643 0.92186 0.0
C580 C 0.96462 0.31782 0.91437 0.0
C581 C 0.97735 0.5151 0.87397 0.0
C582 C 0.97549 0.53046 0.89047 0.0
C583 C 0.9806 0.47601 0.87192 0.0
C584 C 0.98221 0.45187 0.88634 0.0
C585 C 0.98112 0.46803 0.90282 0.0
C586 C 0.97779 0.50693 0.90488 0.0
C587 C 0.98325 0.40882 0.88422 0.0
C588 C 0.97528 0.38518 0.89242 0.0
C589 C 0.99096 0.3915 0.87269 0.0
C590 C 1.00009 0.41458 0.86466 0.0
C591 C 0.00711 0.43828 0.87479 0.0
C592 C 0.01567 0.46008 0.86719 0.0
C593 C 0.01735 0.45829 0.84945 0.0
C594 C 0.01049 0.43464 0.83929 0.0
C595 C 1.0019 0.4128 0.84682 0.0
H596 H 0.02399 0.47519 0.84359 0.0
H597 H 0.94083 0.26365 0.91739 0.0
H598 H 0.78863 0.4989 0.83755 0.0
H599 H 0.78026 0.4352 0.84287 0.0
H600 H 0.76466 0.47987 0.88886 0.0
H601 H 0.77336 0.54378 0.88393 0.0
H602 H 0.77592 0.41763 0.89586 0.0
H603 H 0.74859 0.44597 0.8538 0.0
H604 H 0.74139 0.47091 0.82621 0.0
H605 H 0.76063 0.38467 0.79905 0.0
H606 H 0.76802 0.35936 0.82641 0.0
H607 H 0.77067 0.21631 0.90918 0.0
H608 H 0.76285 0.28176 0.90424 0.0
H609 H 0.778 0.28384 0.85388 0.0
H610 H 0.78499 0.21729 0.85832 0.0
H611 H 0.76009 0.32577 0.85285 0.0
H612 H 0.7918 0.31701 0.89377 0.0
H613 H 0.80026 0.29395 0.92089 0.0
H614 H 0.77334 0.34567 0.94942 0.0
H615 H 0.76473 0.36879 0.92251 0.0
C616 C 0.78328 0.4955 0.84866 0.0
C617 C 0.78182 0.52627 0.86048 0.0
C618 C 0.77836 0.45908 0.85157 0.0
C619 C 0.7717 0.45284 0.86615 0.0
C620 C 0.76973 0.48411 0.87749 0.0
C621 C 0.77476 0.52053 0.87469 0.0
C622 C 0.7684 0.41235 0.8708 0.0
C623 C 0.77212 0.39781 0.88665 0.0
C624 C 0.76353 0.38639 0.85875 0.0
C625 C 0.75886 0.40074 0.84221 0.0
C626 C 0.7513 0.43232 0.84194 0.0
C627 C 0.74717 0.44652 0.82633 0.0
C628 C 0.75053 0.42934 0.81088 0.0
C629 C 0.75799 0.39783 0.81101 0.0
C630 C 0.76212 0.38345 0.82659 0.0
C631 C 0.77206 0.23055 0.89692 0.0
C632 C 0.77854 0.21239 0.88419 0.0
C633 C 0.76762 0.26787 0.89411 0.0
C634 C 0.77014 0.28825 0.87891 0.0
C635 C 0.77597 0.26883 0.86575 0.0
C636 C 0.78004 0.23095 0.86831 0.0
C637 C 0.7682 0.33108 0.87745 0.0
C638 C 0.76348 0.34598 0.86227 0.0
C639 C 0.77225 0.35755 0.89002 0.0
C640 C 0.77759 0.34428 0.90617 0.0
C641 C 0.78771 0.32341 0.90586 0.0
C642 C 0.79253 0.31035 0.92119 0.0
C643 C 0.78735 0.31835 0.93689 0.0
C644 C 0.77736 0.33952 0.93729 0.0
C645 C 0.77251 0.35263 0.92201 0.0
H646 H 0.79107 0.3081 0.94874 0.0
H647 H 0.74737 0.44051 0.79882 0.0
H648 H 0.0313 0.9707 0.64159 0.0
H649 H 0.02419 0.03737 0.6445 0.0
H650 H 0.01787 0.04173 0.58992 0.0
H651 H 0.02548 0.97559 0.58687 0.0
H652 H 0.03039 0.09816 0.59797 0.0
H653 H 0.99642 0.05277 0.6211 0.0
H654 H 0.98366 0.0138 0.63915 0.0
H655 H 0.99748 0.06636 0.68453 0.0
H656 H 0.01046 0.10518 0.6668 0.0
H657 H 0.02647 0.30004 0.61329 0.0
H658 H 0.01803 0.23655 0.60659 0.0
H659 H 0.02913 0.19117 0.65539 0.0
H660 H 0.0373 0.25454 0.66246 0.0
H661 H 0.0087 0.15924 0.64519 0.0
H662 H 0.04605 0.18461 0.62164 0.0
H663 H 0.0594 0.22245 0.60408 0.0
H664 H 0.03882 0.20527 0.55954 0.0
H665 H 0.02528 0.16772 0.57694 0.0
C666 C 0.02814 0.98554 0.63029 0.0
C667 C 0.02913 0.96839 0.61398 0.0
C668 C 0.02395 0.02356 0.63198 0.0
C669 C 0.02043 0.04463 0.61743 0.0
C670 C 0.02056 0.02613 0.60131 0.0
C671 C 0.02496 0.98846 0.59958 0.0
C672 C 0.01872 0.08763 0.6186 0.0
C673 C 0.0253 0.11144 0.60793 0.0
C674 C 0.01225 0.10515 0.63177 0.0
C675 C 0.00446 0.08183 0.64257 0.0
C676 C 0.9968 0.05583 0.63493 0.0
C677 C 0.98952 0.03378 0.64511 0.0
C678 C 0.98977 0.03757 0.66297 0.0
C679 C 0.9973 0.06346 0.67069 0.0
C680 C 0.00461 0.08556 0.66057 0.0
C681 C 0.02693 0.27681 0.62275 0.0
C682 C 0.03282 0.28204 0.63822 0.0
C683 C 0.02203 0.24067 0.61894 0.0
C684 C 0.02307 0.20921 0.63044 0.0
C685 C 0.02819 0.21522 0.6464 0.0
C686 C 0.03299 0.25136 0.6503 0.0
C687 C 0.02061 0.1687 0.62493 0.0
C688 C 0.01334 0.14563 0.63481 0.0
C689 C 0.02644 0.15156 0.61106 0.0
C690 C 0.0346 0.17387 0.6006 0.0
C691 C 0.04435 0.18916 0.60813 0.0
C692 C 0.05195 0.21051 0.59821 0.0
C693 C 0.04994 0.21638 0.58071 0.0
C694 C 0.04035 0.20079 0.5731 0.0
C695 C 0.03271 0.17949 0.58298 0.0
H696 H 0.05583 0.2329 0.57305 0.0
H697 H 0.98412 0.02047 0.67083 0.0
H698 H 0.21853 0.9812 0.66839 0.0
H699 H 0.22614 0.04529 0.66131 0.0
H700 H 0.23914 -0.00043 0.6137 0.0
H701 H 0.23119 0.9352 0.62035 0.0
H702 H 0.24662 0.07865 0.65262 0.0
H703 H 0.23245 0.06859 0.58312 0.0
H704 H 0.21995 0.02949 0.56457 0.0
H705 H 0.19811 0.00865 0.60735 0.0
H706 H 0.2104 0.04802 0.62606 0.0
H707 H 0.23124 0.25967 0.59215 0.0
H708 H 0.23829 0.19321 0.59622 0.0
H709 H 0.23058 0.20007 0.65025 0.0
H710 H 0.22397 0.2673 0.6464 0.0
H711 H 0.22598 0.13684 0.60362 0.0
H712 H 0.24385 0.13371 0.67382 0.0
H713 H 0.25613 0.17394 0.69211 0.0
H714 H 0.27108 0.22519 0.64729 0.0
H715 H 0.25902 0.18479 0.62871 0.0
C716 C 0.22314 0.98443 0.6565 0.0
C717 C 0.224 0.95329 0.64472 0.0
C718 C 0.22762 0.02103 0.6526 0.0
C719 C 0.23315 0.02709 0.63699 0.0
C720 C 0.23483 0.99538 0.62579 0.0
C721 C 0.23023 0.95873 0.62958 0.0
C722 C 0.23547 0.06768 0.63149 0.0
C723 C 0.24221 0.09161 0.64185 0.0
C724 C 0.22996 0.08401 0.61713 0.0
C725 C 0.22243 0.06067 0.606 0.0
C726 C 0.22497 0.05565 0.58853 0.0
C727 C 0.21793 0.03349 0.578 0.0
C728 C 0.20827 0.01644 0.58479 0.0
C729 C 0.20561 0.02172 0.60212 0.0
C730 C 0.21262 0.04392 0.61269 0.0
C731 C 0.23127 0.24723 0.60496 0.0
C732 C 0.22692 0.26822 0.61895 0.0
C733 C 0.23538 0.20939 0.60727 0.0
C734 C 0.23505 0.19161 0.6235 0.0
C735 C 0.2312 0.21336 0.63765 0.0
C736 C 0.2273 0.25163 0.63542 0.0
C737 C 0.23689 0.14878 0.62509 0.0
C738 C 0.23083 0.12421 0.61401 0.0
C739 C 0.24309 0.1321 0.63873 0.0
C740 C 0.25047 0.15627 0.64986 0.0
C741 C 0.2498 0.15332 0.66785 0.0
C742 C 0.25672 0.17623 0.67828 0.0
C743 C 0.26436 0.20216 0.67087 0.0
C744 C 0.26513 0.20518 0.65301 0.0
C745 C 0.25824 0.18231 0.64253 0.0
H746 H 0.2697 0.21989 0.67897 0.0
H747 H 0.20284 -0.00075 0.57662 0.0
H748 H 0.97017 -0.00047 0.40878 0.0
H749 H 0.97786 0.9348 0.4036 0.0
H750 H 0.99263 0.97554 0.35628 0.0
H751 H 0.98459 0.04064 0.3611 0.0
H752 H 0.98169 0.91254 0.35051 0.0
H753 H 0.00915 0.94469 0.39138 0.0
H754 H 0.01729 0.97069 0.41814 0.0
H755 H 0.99898 0.88574 0.44752 0.0
H756 H 0.99058 0.85953 0.42099 0.0
H757 H 0.98672 0.71034 0.34047 0.0
H758 H 0.99494 0.77548 0.34461 0.0
H759 H 0.97926 0.78291 0.39447 0.0
H760 H 0.97181 0.71666 0.39085 0.0
H761 H 0.99761 0.82429 0.39487 0.0
H762 H 0.96591 0.81211 0.35382 0.0
H763 H 0.95782 0.78564 0.32703 0.0
H764 H 0.98498 0.83456 0.29807 0.0
H765 H 0.99326 0.86103 0.32472 0.0
C766 C 0.97516 0.99504 0.39734 0.0
C767 C 0.97664 0.02524 0.38524 0.0
C768 C 0.9797 0.95798 0.39451 0.0
C769 C 0.98601 0.95037 0.37969 0.0
C770 C 0.98785 0.98081 0.36786 0.0
C771 C 0.9832 0.01794 0.3706 0.0
C772 C 0.98925 0.90942 0.37562 0.0
C773 C 0.98551 0.89353 0.36003 0.0
C774 C 0.9942 0.88446 0.38802 0.0
C775 C 0.99921 0.90013 0.40412 0.0
C776 C 0.00679 0.93167 0.40354 0.0
C777 C 0.01146 0.94644 0.41868 0.0
C778 C 0.00866 0.92986 0.43451 0.0
C779 C 1.00116 0.8985 0.43524 0.0
C780 C 0.99646 0.88361 0.42014 0.0
C781 C 0.98534 0.72559 0.3525 0.0
C782 C 0.97853 0.70908 0.36527 0.0
C783 C 0.99 0.76276 0.35484 0.0
C784 C 0.9874 0.78465 0.3696 0.0
C785 C 0.98134 0.76673 0.38292 0.0
C786 C 0.97703 0.72899 0.38084 0.0
C787 C 0.98943 0.82757 0.37029 0.0
C788 C 0.99418 0.84375 0.38518 0.0
C789 C 0.98542 0.85298 0.35726 0.0
C790 C 0.98023 0.83822 0.34123 0.0
C791 C 0.97013 0.81721 0.34172 0.0
C792 C 0.96553 0.80217 0.32658 0.0
C793 C 0.9709 0.80836 0.31087 0.0
C794 C 0.98085 0.82976 0.31025 0.0
C795 C 0.98549 0.84481 0.32536 0.0
H796 H 0.96733 0.79666 0.29917 0.0
H797 H 0.0123 0.94128 0.44621 0.0
H798 H 0.78508 0.68485 0.3643 0.0
H799 H 0.78025 0.75099 0.35478 0.0
H800 H 0.78124 0.79176 0.40719 0.0
H801 H 0.78605 0.72578 0.4169 0.0
H802 H 0.76456 0.82904 0.38675 0.0
H803 H 0.80408 0.79769 0.38598 0.0
H804 H 0.82046 0.75792 0.37786 0.0
H805 H 0.81314 0.77649 0.32449 0.0
H806 H 0.79662 0.81599 0.33232 0.0
H807 H 0.7851 0.02357 0.38569 0.0
H808 H 0.78021 0.95469 0.38956 0.0
H809 H 0.78373 0.93513 0.33508 0.0
H810 H 0.78881 0.00388 0.33108 0.0
H811 H 0.79587 0.88481 0.35286 0.0
H812 H 0.75811 0.92831 0.35471 0.0
H813 H 0.74222 0.96922 0.36386 0.0
H814 H 0.74637 0.92972 0.41583 0.0
H815 H 0.7624 0.88898 0.40705 0.0
C816 C 0.784 0.70761 0.37387 0.0
C817 C 0.78617 0.70028 0.39133 0.0
C818 C 0.78122 0.74534 0.36839 0.0
C819 C 0.78055 0.77615 0.38028 0.0
C820 C 0.78174 0.76826 0.39784 0.0
C821 C 0.78458 0.73061 0.40334 0.0
C822 C 0.78025 0.81721 0.37434 0.0
C823 C 0.77137 0.84143 0.37933 0.0
C824 C 0.78909 0.83289 0.36445 0.0
C825 C 0.79904 0.80931 0.35972 0.0
C826 C 0.80591 0.79299 0.37251 0.0
C827 C 0.81523 0.77057 0.36797 0.0
C828 C 0.81781 0.76454 0.35067 0.0
C829 C 0.81111 0.78109 0.33788 0.0
C830 C 0.80177 0.8035 0.34236 0.0
C831 C 0.78466 0.00482 0.37447 0.0
C832 C 0.78749 0.01914 0.3581 0.0
C833 C 0.78178 0.96548 0.3767 0.0
C834 C 0.78154 0.93987 0.36259 0.0
C835 C 0.78387 0.95445 0.34613 0.0
C836 C 0.78681 0.99373 0.34389 0.0
C837 C 0.78018 0.89719 0.36533 0.0
C838 C 0.78885 0.87253 0.35986 0.0
C839 C 0.77118 0.88135 0.37487 0.0
C840 C 0.76151 0.90575 0.38022 0.0
C841 C 0.75569 0.92855 0.36812 0.0
C842 C 0.74665 0.95168 0.37324 0.0
C843 C 0.7433 0.95212 0.39042 0.0
C844 C 0.74898 0.92936 0.40252 0.0
C845 C 0.75803 0.90619 0.39748 0.0
H846 H 0.73629 0.97005 0.39436 0.0
H847 H 0.82502 0.74713 0.34717 0.0
H848 H 0.53338 0.79461 0.61362 0.0
H849 H 0.52478 0.73204 0.60589 0.0
H850 H 0.53316 0.68535 0.65566 0.0
H851 H 0.5416 0.74784 0.66374 0.0
H852 H 0.53719 0.66491 0.60465 0.0
H853 H 0.51221 0.61257 0.6659 0.0
H854 H 0.49945 0.64022 0.6875 0.0
H855 H 0.49242 0.73769 0.65431 0.0
H856 H 0.50476 0.70991 0.63216 0.0
H857 H 0.53147 0.4624 0.6402 0.0
H858 H 0.52661 0.53159 0.64342 0.0
H859 H 0.51966 0.53905 0.58912 0.0
H860 H 0.52496 0.4702 0.5857 0.0
H861 H 0.51019 0.58359 0.63734 0.0
H862 H 0.53113 0.62136 0.57382 0.0
H863 H 0.54396 0.59187 0.5526 0.0
H864 H 0.55997 0.526 0.59265 0.0
H865 H 0.54732 0.55545 0.6141 0.0
C866 C 0.53323 0.77131 0.62307 0.0
C867 C 0.5383 0.77615 0.63925 0.0
C868 C 0.52826 0.73567 0.61864 0.0
C869 C 0.52818 0.70439 0.63033 0.0
C870 C 0.53287 0.70955 0.64667 0.0
C871 C 0.53781 0.74517 0.65116 0.0
C872 C 0.52482 0.6647 0.62474 0.0
C873 C 0.53105 0.64748 0.6115 0.0
C874 C 0.51694 0.64189 0.63394 0.0
C875 C 0.50957 0.65923 0.64734 0.0
C876 C 0.50788 0.63971 0.66307 0.0
C877 C 0.50065 0.65532 0.67541 0.0
C878 C 0.49514 0.69071 0.67229 0.0
C879 C 0.49675 0.71037 0.65675 0.0
C880 C 0.50386 0.69465 0.64428 0.0
C881 C 0.52866 0.47855 0.62902 0.0
C882 C 0.52885 0.46134 0.61265 0.0
C883 C 0.52582 0.51803 0.63089 0.0
C884 C 0.52302 0.54061 0.61643 0.0
C885 C 0.52203 0.52229 0.60037 0.0
C886 C 0.52509 0.48305 0.59843 0.0
C887 C 0.52291 0.58388 0.61788 0.0
C888 C 0.51608 0.60161 0.63028 0.0
C889 C 0.53035 0.60729 0.60816 0.0
C890 C 0.53821 0.59024 0.59548 0.0
C891 C 0.53742 0.60071 0.57807 0.0
C892 C 0.54465 0.58398 0.56602 0.0
C893 C 0.55275 0.55698 0.57127 0.0
C894 C 0.55368 0.54683 0.5886 0.0
C895 C 0.54649 0.56352 0.6007 0.0
H896 H 0.55831 0.54398 0.56191 0.0
H897 H 0.48963 0.70292 0.68193 0.0
H898 H 0.73952 0.79286 0.5979 0.0
H899 H 0.74552 0.72526 0.60312 0.0
H900 H 0.73028 0.729 0.65335 0.0
H901 H 0.72494 0.79737 0.64857 0.0
H902 H 0.74705 0.67829 0.6536 0.0
H903 H 0.71499 0.70439 0.61621 0.0
H904 H 0.70605 0.73372 0.59069 0.0
H905 H 0.7291 0.67295 0.55788 0.0
H906 H 0.73823 0.64353 0.58325 0.0
H907 H 0.71541 0.50899 0.66697 0.0
H908 H 0.7242 0.57244 0.66251 0.0
H909 H 0.73815 0.53165 0.61463 0.0
H910 H 0.72908 0.46807 0.61874 0.0
H911 H 0.72736 0.59718 0.61017 0.0
H912 H 0.75534 0.55584 0.64957 0.0
H913 H 0.76262 0.52584 0.67612 0.0
H914 H 0.74598 0.6136 0.70624 0.0
H915 H 0.73854 0.64402 0.67994 0.0
C916 C 0.73781 0.77955 0.61027 0.0
C917 C 0.73162 0.79977 0.62275 0.0
C918 C 0.74123 0.74102 0.61323 0.0
C919 C 0.73803 0.72175 0.62839 0.0
C920 C 0.73279 0.74323 0.64152 0.0
C921 C 0.72968 0.7822 0.63876 0.0
C922 C 0.73827 0.67838 0.62946 0.0
C923 C 0.74282 0.66039 0.64409 0.0
C924 C 0.73294 0.65497 0.61684 0.0
C925 C 0.72735 0.6721 0.6016 0.0
C926 C 0.71816 0.69739 0.60355 0.0
C927 C 0.71307 0.71403 0.58912 0.0
C928 C 0.71701 0.70521 0.57268 0.0
C929 C 0.72606 0.67974 0.57063 0.0
C930 C 0.73119 0.66306 0.58502 0.0
C931 C 0.72045 0.51322 0.65557 0.0
C932 C 0.72141 0.48359 0.64308 0.0
C933 C 0.7256 0.54946 0.65315 0.0
C934 C 0.73197 0.55663 0.63835 0.0
C935 C 0.73332 0.52662 0.62619 0.0
C936 C 0.72808 0.49039 0.62852 0.0
C937 C 0.73584 0.59697 0.6346 0.0
C938 C 0.732 0.61455 0.61943 0.0
C939 C 0.74167 0.61984 0.64684 0.0
C940 C 0.74636 0.6022 0.66274 0.0
C941 C 0.75321 0.56872 0.66186 0.0
C942 C 0.75738 0.55166 0.67688 0.0
C943 C 0.75479 0.56784 0.69288 0.0
C944 C 0.74804 0.6012 0.69387 0.0
C945 C 0.74387 0.61844 0.6789 0.0
H946 H 0.758 0.55452 0.70449 0.0
H947 H 0.71304 0.71799 0.56153 0.0
H948 H 0.46911 0.49674 0.41261 0.0
H949 H 0.47752 0.43285 0.408 0.0
H950 H 0.49128 0.47266 0.35982 0.0
H951 H 0.48257 0.53681 0.3641 0.0
H952 H 0.48004 0.40898 0.35525 0.0
H953 H 0.50863 0.44415 0.39379 0.0
H954 H 0.5172 0.47233 0.4198 0.0
H955 H 0.50006 0.38788 0.45108 0.0
H956 H 0.49125 0.35947 0.4253 0.0
H957 H 0.48571 0.20836 0.34529 0.0
H958 H 0.49405 0.27336 0.3492 0.0
H959 H 0.47937 0.28041 0.39976 0.0
H960 H 0.47173 0.21435 0.39631 0.0
H961 H 0.49776 0.32324 0.39894 0.0
H962 H 0.46471 0.30826 0.36138 0.0
H963 H 0.45531 0.2807 0.33586 0.0
H964 H 0.48076 0.32925 0.30333 0.0
H965 H 0.49035 0.35683 0.32871 0.0
C966 C 0.47404 0.49224 0.4011 0.0
C967 C 0.475 0.52174 0.38857 0.0
C968 C 0.479 0.45573 0.39861 0.0
C969 C 0.48517 0.44806 0.38366 0.0
C970 C 0.4866 0.47804 0.37149 0.0
C971 C 0.48157 0.51461 0.37392 0.0
C972 C 0.48849 0.4072 0.37969 0.0
C973 C 0.48427 0.39053 0.36456 0.0
C974 C 0.4939 0.383 0.39191 0.0
C975 C 0.49926 0.39967 0.40754 0.0
C976 C 0.50664 0.43167 0.40621 0.0
C977 C 0.51154 0.44768 0.42092 0.0
C978 C 0.50917 0.4319 0.43707 0.0
C979 C 0.5019 0.40002 0.43854 0.0
C980 C 0.49697 0.38388 0.42387 0.0
C981 C 0.48459 0.22344 0.35742 0.0
C982 C 0.47795 0.20699 0.37041 0.0
C983 C 0.48934 0.26047 0.35965 0.0
C984 C 0.48703 0.28223 0.37455 0.0
C985 C 0.48122 0.26426 0.38812 0.0
C986 C 0.47679 0.22666 0.38612 0.0
C987 C 0.48882 0.32524 0.37497 0.0
C988 C 0.49397 0.34217 0.38938 0.0
C989 C 0.4842 0.34991 0.36216 0.0
C990 C 0.47828 0.33426 0.34691 0.0
C991 C 0.46829 0.31301 0.34878 0.0
C992 C 0.46294 0.29737 0.33435 0.0
C993 C 0.46745 0.30319 0.31799 0.0
C994 C 0.47729 0.32476 0.31601 0.0
C995 C 0.48268 0.34042 0.3304 0.0
H996 H 0.4633 0.29109 0.30684 0.0
H997 H 0.51297 0.44438 0.44842 0.0
H998 H 0.27305 0.53523 0.38183 0.0
H999 H 0.26613 0.46923 0.38784 0.0
H1000 H 0.27964 0.42851 0.33968 0.0
H1001 H 0.28635 0.4944 0.33332 0.0
H1002 H 0.26002 0.38929 0.34882 0.0
H1003 H 0.29579 0.42688 0.37414 0.0
H1004 H 0.30792 0.46856 0.39211 0.0
H1005 H 0.28723 0.44524 0.43598 0.0
H1006 H 0.27489 0.40381 0.41818 0.0
H1007 H 0.28508 0.20431 0.35766 0.0
H1008 H 0.2776 0.26991 0.35268 0.0
H1009 H 0.26912 0.27944 0.40636 0.0
H1010 H 0.27703 0.2145 0.41158 0.0
H1011 H 0.28146 0.33641 0.39813 0.0
H1012 H 0.24865 0.28337 0.37329 0.0
H1013 H 0.2372 0.24049 0.35483 0.0
H1014 H 0.25239 0.29028 0.30988 0.0
H1015 H 0.26408 0.33295 0.32806 0.0
C1016 C 0.27435 0.51246 0.37234 0.0
C1017 C 0.28055 0.5198 0.35733 0.0
C1018 C 0.27033 0.47484 0.37576 0.0
C1019 C 0.27256 0.44403 0.36433 0.0
C1020 C 0.27788 0.45196 0.34869 0.0
C1021 C 0.28181 0.4896 0.34517 0.0
C1022 C 0.27109 0.4029 0.36974 0.0
C1023 C 0.26463 0.37752 0.35961 0.0
C1024 C 0.27691 0.38797 0.38411 0.0
C1025 C 0.28434 0.41277 0.3948 0.0
C1026 C 0.29378 0.43093 0.38759 0.0
C1027 C 0.3007 0.45445 0.39774 0.0
C1028 C 0.29833 0.45968 0.41516 0.0
C1029 C 0.28904 0.44127 0.42248 0.0
C1030 C 0.28208 0.41778 0.41237 0.0
C1031 C 0.28138 0.22009 0.36832 0.0
C1032 C 0.28181 0.20481 0.38504 0.0
C1033 C 0.27699 0.25742 0.36543 0.0
C1034 C 0.27272 0.27955 0.37917 0.0
C1035 C 0.27237 0.26289 0.39563 0.0
C1036 C 0.27696 0.22596 0.3986 0.0
C1037 C 0.27056 0.32201 0.37696 0.0
C1038 C 0.27644 0.34788 0.38766 0.0
C1039 C 0.26424 0.33711 0.36309 0.0
C1040 C 0.25726 0.31137 0.35206 0.0
C1041 C 0.24961 0.28501 0.35947 0.0
C1042 C 0.24307 0.26074 0.34905 0.0
C1043 C 0.24407 0.26265 0.33119 0.0
C1044 C 0.25161 0.28886 0.32371 0.0
C1045 C 0.25818 0.31316 0.33407 0.0
H1046 H 0.239 0.24384 0.32315 0.0
H1047 H 0.3037 0.47788 0.42301 0.0
H1048 H 0.51788 0.27861 0.15884 0.0
H1049 H 0.51307 0.20938 0.15453 0.0
H1050 H 0.53008 0.21142 0.10557 0.0
H1051 H 0.53392 0.28101 0.10922 0.0
H1052 H 0.51569 0.1583 0.10385 0.0
H1053 H 0.54355 0.1937 0.14786 0.0
H1054 H 0.54957 0.22404 0.17514 0.0
H1055 H 0.52503 0.15678 0.20255 0.0
H1056 H 0.5188 0.12638 0.17539 0.0
H1057 H 0.55206 0.00163 0.09486 0.0
H1058 H 0.54377 0.06533 0.10121 0.0
H1059 H 0.52478 0.01382 0.14258 0.0
H1060 H 0.53344 0.95002 0.13674 0.0
H1061 H 0.53367 0.08406 0.15118 0.0
H1062 H 0.51381 0.03051 0.10339 0.0
H1063 H 0.51407 -0.0018 0.07513 0.0
H1064 H 0.52742 0.10262 0.05214 0.0
H1065 H 0.52817 0.13453 0.08048 0.0
C1066 C 0.52018 0.26438 0.1469 0.0
C1067 C 0.52638 0.28455 0.13443 0.0
C1068 C 0.5175 0.22489 0.14448 0.0
C1069 C 0.52159 0.20476 0.13004 0.0
C1070 C 0.52687 0.22609 0.11689 0.0
C1071 C 0.52913 0.26586 0.11899 0.0
C1072 C 0.52215 0.16132 0.12964 0.0
C1073 C 0.51954 0.14195 0.11422 0.0
C1074 C 0.52695 0.13969 0.14335 0.0
C1075 C 0.53063 0.15818 0.15962 0.0
C1076 C 0.53941 0.18558 0.15971 0.0
C1077 C 0.54286 0.20276 0.17513 0.0
C1078 C 0.53768 0.19234 0.19056 0.0
C1079 C 0.52902 0.16484 0.19059 0.0
C1080 C 0.52552 0.14766 0.17519 0.0
C1081 C 0.54614 0.00389 0.10533 0.0
C1082 C 0.5433 0.97095 0.11522 0.0
C1083 C 0.54139 0.0402 0.10891 0.0
C1084 C 0.53344 0.04389 0.12204 0.0
C1085 C 0.53081 0.01132 0.13227 0.0
C1086 C 0.53576 0.97504 0.12893 0.0
C1087 C 0.52796 0.08204 0.125 0.0
C1088 C 0.52948 0.10002 0.14099 0.0
C1089 C 0.5226 0.10271 0.11154 0.0
C1090 C 0.52107 0.08498 0.0942 0.0
C1091 C 0.51684 0.04664 0.09235 0.0
C1092 C 0.51691 0.02824 0.07632 0.0
C1093 C 0.52068 0.04845 0.06183 0.0
C1094 C 0.52448 0.08702 0.06338 0.0
C1095 C 0.52475 0.10518 0.07947 0.0
H1096 H 0.52064 0.03425 0.04941 0.0
H1097 H 0.54041 0.20537 0.20251 0.0
H1098 H 0.74088 0.96236 0.14737 0.0
H1099 H 0.74699 0.02988 0.14222 0.0
H1100 H 0.72979 0.02947 0.0935 0.0
H1101 H 0.72428 0.96117 0.09815 0.0
H1102 H 0.74711 0.07968 0.09264 0.0
H1103 H 0.71592 0.05144 0.13242 0.0
H1104 H 0.7085 0.01963 0.15853 0.0
H1105 H 0.73306 0.07901 0.1892 0.0
H1106 H 0.74067 0.11088 0.16321 0.0
H1107 H 0.71433 0.24671 0.0814 0.0
H1108 H 0.72395 0.18445 0.08495 0.0
H1109 H 0.73765 0.22442 0.13316 0.0
H1110 H 0.72774 0.28662 0.12997 0.0
H1111 H 0.72803 0.15825 0.13754 0.0
H1112 H 0.75433 0.20434 0.09749 0.0
H1113 H 0.76183 0.2347 0.07118 0.0
H1114 H 0.74729 0.14298 0.04072 0.0
H1115 H 0.73938 0.11269 0.06673 0.0
C1116 C 0.73875 0.97638 0.13531 0.0
C1117 C 0.73196 0.95716 0.12326 0.0
C1118 C 0.74224 0.01483 0.13238 0.0
C1119 C 0.73854 0.03503 0.11774 0.0
C1120 C 0.73269 0.0145 0.10493 0.0
C1121 C 0.72949 0.97559 0.10762 0.0
C1122 C 0.73881 0.07841 0.11713 0.0
C1123 C 0.74299 0.09712 0.10242 0.0
C1124 C 0.73378 0.10113 0.13024 0.0
C1125 C 0.72891 0.08323 0.1459 0.0
C1126 C 0.71972 0.0577 0.14475 0.0
C1127 C 0.7155 0.03963 0.15951 0.0
C1128 C 0.72032 0.04723 0.17551 0.0
C1129 C 0.72934 0.07312 0.17679 0.0
C1130 C 0.7336 0.09122 0.16206 0.0
C1131 C 0.71948 0.24253 0.09269 0.0
C1132 C 0.72009 0.27141 0.10557 0.0
C1133 C 0.72511 0.20701 0.09459 0.0
C1134 C 0.73163 0.19986 0.10924 0.0
C1135 C 0.73268 0.22935 0.12173 0.0
C1136 C 0.72696 0.2648 0.11993 0.0
C1137 C 0.73589 0.15979 0.11261 0.0
C1138 C 0.73252 0.14152 0.1279 0.0
C1139 C 0.74165 0.13772 0.09998 0.0
C1140 C 0.74623 0.15622 0.08415 0.0
C1141 C 0.75262 0.19081 0.08518 0.0
C1142 C 0.75695 0.20802 0.0703 0.0
C1143 C 0.75506 0.19074 0.0543 0.0
C1144 C 0.74879 0.15627 0.05313 0.0
C1145 C 0.74435 0.13911 0.06795 0.0
H1146 H 0.75841 0.20412 0.04278 0.0
H1147 H 0.71707 0.03313 0.18691 0.0
H1148 H 0.47643 0.6835 0.88826 0.0
H1149 H 0.48144 0.74983 0.89735 0.0
H1150 H 0.47807 0.79072 0.84521 0.0
H1151 H 0.4732 0.72455 0.83588 0.0
H1152 H 0.49565 0.82837 0.86406 0.0
H1153 H 0.45623 0.79522 0.86864 0.0
H1154 H 0.44047 0.75448 0.87855 0.0
H1155 H 0.45004 0.77433 0.93099 0.0
H1156 H 0.46597 0.81474 0.92134 0.0
H1157 H 0.47404 0.02128 0.86548 0.0
H1158 H 0.47953 0.9528 0.86181 0.0
H1159 H 0.47764 0.93521 0.91662 0.0
H1160 H 0.47199 0.00344 0.9204 0.0
H1161 H 0.46538 0.88339 0.90033 0.0
H1162 H 0.5026 0.9289 0.8955 0.0
H1163 H 0.5181 0.97033 0.88526 0.0
H1164 H 0.51295 0.92889 0.83378 0.0
H1165 H 0.4973 0.88763 0.84364 0.0
C1166 C 0.47702 0.70634 0.87863 0.0
C1167 C 0.47419 0.69891 0.8614 0.0
C1168 C 0.47992 0.74417 0.88386 0.0
C1169 C 0.48003 0.77502 0.87194 0.0
C1170 C 0.47808 0.76713 0.85454 0.0
C1171 C 0.47518 0.72937 0.84929 0.0
C1172 C 0.48047 0.8161 0.87783 0.0
C1173 C 0.48907 0.84061 0.87201 0.0
C1174 C 0.47197 0.83155 0.88846 0.0
C1175 C 0.46236 0.80753 0.89427 0.0
C1176 C 0.45502 0.79061 0.88227 0.0
C1177 C 0.44605 0.76763 0.88784 0.0
C1178 C 0.44428 0.76171 0.90539 0.0
C1179 C 0.45145 0.77886 0.9174 0.0
C1180 C 0.46044 0.8018 0.91189 0.0
C1181 C 0.47499 0.00304 0.87678 0.0
C1182 C 0.4724 0.01758 0.89319 0.0
C1183 C 0.4782 0.96397 0.87468 0.0
C1184 C 0.47903 0.93898 0.88896 0.0
C1185 C 0.47702 0.954 0.90543 0.0
C1186 C 0.47374 0.99295 0.90754 0.0
C1187 C 0.48054 0.89628 0.88647 0.0
C1188 C 0.47219 0.87131 0.89281 0.0
C1189 C 0.48928 0.88063 0.87634 0.0
C1190 C 0.49872 0.90532 0.87031 0.0
C1191 C 0.50471 0.92882 0.88197 0.0
C1192 C 0.51354 0.95225 0.87623 0.0
C1193 C 0.5165 0.95229 0.85888 0.0
C1194 C 0.51065 0.92883 0.84722 0.0
C1195 C 0.50181 0.90536 0.85288 0.0
H1196 H 0.52333 0.97045 0.85446 0.0
H1197 H 0.43733 0.74392 0.90967 0.0
H1198 H 0.27158 0.7002 0.86763 0.0
H1199 H 0.26296 0.76473 0.86365 0.0
H1200 H 0.28134 0.80907 0.9072 0.0
H1201 H 0.28958 0.74486 0.91167 0.0
H1202 H 0.26139 0.84335 0.9056 0.0
H1203 H 0.2919 0.81341 0.86419 0.0
H1204 H 0.3 0.77497 0.84037 0.0
H1205 H 0.27081 0.79685 0.8098 0.0
H1206 H 0.26253 0.83516 0.83352 0.0
H1207 H 0.28735 0.02367 0.89487 0.0
H1208 H 0.27927 0.95874 0.89947 0.0
H1209 H 0.26283 0.96559 0.85022 0.0
H1210 H 0.27178 0.02916 0.84494 0.0
H1211 H 0.27415 0.90338 0.85103 0.0
H1212 H 0.24787 0.95594 0.88946 0.0
H1213 H 0.24043 -0.00345 0.91301 0.0
H1214 H 0.26088 0.93447 0.94923 0.0
H1215 H 0.2686 0.89389 0.92589 0.0
C1216 C 0.27365 0.72358 0.8765 0.0
C1217 C 0.28147 0.71762 0.88972 0.0
C1218 C 0.26869 0.76037 0.87424 0.0
C1219 C 0.27166 0.79187 0.88494 0.0
C1220 C 0.27892 0.78523 0.89876 0.0
C1221 C 0.28372 0.74848 0.9012 0.0
C1222 C 0.26858 0.8328 0.8807 0.0
C1223 C 0.26407 0.8567 0.89364 0.0
C1224 C 0.27161 0.8498 0.8648 0.0
C1225 C 0.27656 0.82665 0.85064 0.0
C1226 C 0.28721 0.80979 0.85241 0.0
C1227 C 0.29182 0.78807 0.83894 0.0
C1228 C 0.2859 0.78334 0.8236 0.0
C1229 C 0.27536 0.80036 0.82171 0.0
C1230 C 0.2707 0.82206 0.83516 0.0
C1231 C 0.28187 0.01146 0.88517 0.0
C1232 C 0.2803 0.03081 0.86947 0.0
C1233 C 0.27712 0.97457 0.88787 0.0
C1234 C 0.27041 0.95713 0.87516 0.0
C1235 C 0.26813 0.97814 0.86005 0.0
C1236 C 0.27321 0.01436 0.85707 0.0
C1237 C 0.26757 0.91482 0.87636 0.0
C1238 C 0.27096 0.89047 0.86278 0.0
C1239 C 0.26347 0.89764 0.89167 0.0
C1240 C 0.25883 0.92185 0.90586 0.0
C1241 C 0.25084 0.95107 0.90242 0.0
C1242 C 0.24656 0.97409 0.91575 0.0
C1243 C 0.25018 0.9681 0.93261 0.0
C1244 C 0.25807 0.93904 0.93617 0.0
C1245 C 0.26238 0.91595 0.92289 0.0
H1246 H 0.24686 0.98596 0.9429 0.0
H1247 H 0.2895 0.76658 0.81317 0.0
H1248 H 0.98748 0.62537 0.9539 0.0
H1249 H 0.99961 0.59104 0.97406 0.0
H1250 H 0.97344 0.50738 0.98431 0.0
H1251 H 0.96114 0.5419 0.96407 0.0
H1252 H 0.98506 0.52815 0.01384 0.0
H1253 H 0.99393 0.48368 0.95674 0.0
H1254 H 0.99913 0.49117 0.92627 0.0
H1255 H 0.02942 0.54956 0.94087 0.0
H1256 H 0.02438 0.5427 0.97146 0.0
H1257 H 0.01765 0.37911 0.0503 0.0
H1258 H 0.00597 0.41363 0.02958 0.0
H1259 H 0.0324 0.49709 0.02065 0.0
H1260 H 0.04426 0.46232 0.04142 0.0
H1261 H 0.02086 0.47735 0.9906 0.0
H1262 H 0.01248 0.51947 0.04769 0.0
H1263 H 0.00801 0.50787 0.07814 0.0
H1264 H 0.97691 0.45455 0.06379 0.0
H1265 H 0.98135 0.46467 0.03316 0.0
C1266 C 0.98421 0.59999 0.9606 0.0
C1267 C 0.97333 0.58629 0.95729 0.0
C1268 C 0.9912 0.58024 0.97208 0.0
C1269 C 0.98753 0.54617 0.98048 0.0
C1270 C 0.97648 0.5335 0.97791 0.0
C1271 C 0.96944 0.55332 0.96637 0.0
C1272 C 0.99541 0.5231 0.99134 0.0
C1273 C 0.99281 0.51664 0.00869 0.0
C1274 C 0.00569 0.50882 0.98477 0.0
C1275 C 0.00873 0.51301 0.96639 0.0
C1276 C 1.00166 0.49839 0.95345 0.0
C1277 C 0.00458 0.50247 0.93616 0.0
C1278 C 0.01456 0.52096 0.93163 0.0
C1279 C 0.02168 0.5353 0.9444 0.0
C1280 C 0.01881 0.53127 0.96172 0.0
C1281 C 0.02108 0.40442 0.04374 0.0
C1282 C 0.03188 0.41812 0.04762 0.0
C1283 C 0.01436 0.42422 0.03192 0.0
C1284 C 0.01822 0.45839 0.02379 0.0
C1285 C 0.02923 0.47088 0.02683 0.0
C1286 C 0.036 0.45096 0.03869 0.0
C1287 C 0.01047 0.48222 0.01303 0.0
C1288 C 0.01311 0.48892 0.99573 0.0
C1289 C 1.00026 0.49683 0.01966 0.0
C1290 C 0.99731 0.49241 0.03809 0.0
C1291 C 0.00473 0.50495 0.051 0.0
C1292 C 1.00223 0.49846 0.06829 0.0
C1293 C 0.99222 0.48022 0.07289 0.0
C1294 C 0.98468 0.46855 0.0602 0.0
C1295 C 0.98719 0.47458 0.04286 0.0
H1296 H 0.99029 0.47538 0.0863 0.0
H1297 H 0.0168 0.52406 0.91823 0.0
H1298 H 0.27232 0.62597 0.95159 0.0
H1299 H 0.26023 0.66067 0.97165 0.0
H1300 H 0.2865 0.74401 0.98182 0.0
H1301 H 0.29875 0.70924 0.96155 0.0
H1302 H 0.27471 0.72251 0.01147 0.0
H1303 H 0.2665 0.77055 0.95523 0.0
H1304 H 0.26194 0.76555 0.92443 0.0
H1305 H 0.23139 0.70587 0.93666 0.0
H1306 H 0.23581 0.71023 0.96757 0.0
H1307 H 0.2409 0.86904 0.04822 0.0
H1308 H 0.25312 0.83501 0.02813 0.0
H1309 H 0.22716 0.75052 0.01788 0.0
H1310 H 0.21476 0.78472 0.03813 0.0
H1311 H 0.2389 0.7732 0.98819 0.0
H1312 H 0.24744 0.72642 0.04498 0.0
H1313 H 0.25227 0.7334 0.0756 0.0
H1314 H 0.28257 0.79311 0.06204 0.0
H1315 H 0.27789 0.78682 0.03131 0.0
C1316 C 0.27563 0.65136 0.95824 0.0
C1317 C 0.28652 0.66491 0.95488 0.0
C1318 C 0.26866 0.67131 0.96966 0.0
C1319 C 0.27236 0.70538 0.97802 0.0
C1320 C 0.28343 0.71789 0.97544 0.0
C1321 C 0.29044 0.69793 0.9639 0.0
C1322 C 0.26449 0.72841 0.98889 0.0
C1323 C 0.26696 0.73406 0.00632 0.0
C1324 C 0.25426 0.74292 0.98227 0.0
C1325 C 0.25154 0.74038 0.96371 0.0
C1326 C 0.25885 0.75609 0.95135 0.0
C1327 C 0.25629 0.75343 0.93387 0.0
C1328 C 0.24641 0.73527 0.92859 0.0
C1329 C 0.23905 0.71988 0.94078 0.0
C1330 C 0.24157 0.7225 0.95828 0.0
C1331 C 0.23769 0.84351 0.04157 0.0
C1332 C 0.22684 0.82952 0.04487 0.0
C1333 C 0.24474 0.82395 0.03012 0.0
C1334 C 0.24115 0.78978 0.02171 0.0
C1335 C 0.23013 0.77674 0.02429 0.0
C1336 C 0.22304 0.79635 0.03583 0.0
C1337 C 0.2491 0.76716 0.0108 0.0
C1338 C 0.24665 0.76161 0.99334 0.0
C1339 C 0.25938 0.75297 0.01737 0.0
C1340 C 0.26227 0.75645 0.03584 0.0
C1341 C 0.2551 0.74128 0.04852 0.0
C1342 C 0.25781 0.74508 0.06591 0.0
C1343 C 0.26769 0.76381 0.07077 0.0
C1344 C 0.27491 0.77865 0.05826 0.0
C1345 C 0.27224 0.77492 0.04085 0.0
H1346 H 0.26977 0.76674 0.08424 0.0
H1347 H 0.24445 0.73322 0.91505 0.0
H1348 H 0.0234 0.87318 0.20524 0.0
H1349 H 0.01086 0.84032 0.22535 0.0
H1350 H 0.03548 0.74989 0.23353 0.0
H1351 H 0.0481 0.78271 0.21326 0.0
H1352 H 0.01516 0.71876 0.2273 0.0
H1353 H 0.02965 0.81859 0.2643 0.0
H1354 H 0.0344 0.88564 0.27369 0.0
H1355 H 0.99977 0.91793 0.27196 0.0
H1356 H 0.99482 0.85126 0.26226 0.0
H1357 H 0.98855 0.62639 0.29822 0.0
H1358 H 1.00115 0.66003 0.27849 0.0
H1359 H 0.97689 0.7523 0.27178 0.0
H1360 H 0.96424 0.71881 0.29178 0.0
H1361 H 0.99701 0.78266 0.27726 0.0
H1362 H 0.98242 0.68406 0.23991 0.0
H1363 H 0.97744 0.61733 0.23037 0.0
H1364 H 0.01192 0.58321 0.23248 0.0
H1365 H 0.01709 0.64959 0.2423 0.0
C1366 C 0.02624 0.8466 0.2115 0.0
C1367 C 0.0368 0.8307 0.20769 0.0
C1368 C 0.01905 0.82785 0.22306 0.0
C1369 C 0.02222 0.7927 0.23111 0.0
C1370 C 0.03284 0.77703 0.22754 0.0
C1371 C 0.04009 0.79596 0.21603 0.0
C1372 C 0.01422 0.77139 0.24252 0.0
C1373 C 0.01133 0.73255 0.2384 0.0
C1374 C 0.00891 0.78972 0.25669 0.0
C1375 C 0.01188 0.83001 0.26232 0.0
C1376 C 0.02306 0.8401 0.26572 0.0
C1377 C 0.02578 0.87803 0.27114 0.0
C1378 C 0.01739 0.90607 0.27336 0.0
C1379 C 0.00626 0.89622 0.27019 0.0
C1380 C 1.00349 0.85836 0.26473 0.0
C1381 C 0.9858 0.65355 0.29237 0.0
C1382 C 0.97533 0.66974 0.29651 0.0
C1383 C 0.99303 0.67277 0.28102 0.0
C1384 C 0.98997 0.70861 0.27344 0.0
C1385 C 0.97945 0.72463 0.27738 0.0
C1386 C 0.97218 0.70531 0.28873 0.0
C1387 C 0.99796 0.73002 0.26204 0.0
C1388 C 1.00084 0.76887 0.26617 0.0
C1389 C 1.00323 0.71179 0.24782 0.0
C1390 C 1.00013 0.67172 0.24204 0.0
C1391 C 0.98893 0.66223 0.23851 0.0
C1392 C 0.98607 0.62448 0.23302 0.0
C1393 C 0.99435 0.59601 0.23087 0.0
C1394 C 0.00551 0.60527 0.23418 0.0
C1395 C 0.00841 0.64296 0.23971 0.0
H1396 H 0.99212 0.56682 0.2266 0.0
H1397 H 0.01952 0.9354 0.27758 0.0
H1398 H 0.21137 0.46501 0.20956 0.0
H1399 H 0.22468 0.49593 0.22936 0.0
H1400 H 0.24459 0.39064 0.22942 0.0
H1401 H 0.23151 0.35993 0.20925 0.0
H1402 H 0.24013 0.43841 0.26465 0.0
H1403 H 0.25736 0.44147 0.20781 0.0
H1404 H 0.25552 0.44976 0.17645 0.0
H1405 H 0.2427 0.5662 0.1839 0.0
H1406 H 0.2445 0.55855 0.21536 0.0
H1407 H 0.29277 0.51441 0.29354 0.0
H1408 H 0.27965 0.47908 0.27484 0.0
H1409 H 0.26097 0.58576 0.26714 0.0
H1410 H 0.27382 0.62085 0.28627 0.0
H1411 H 0.26488 0.53537 0.23595 0.0
H1412 H 0.25081 0.53342 0.29392 0.0
H1413 H 0.25149 0.52127 0.3251 0.0
H1414 H 0.2576 0.3989 0.31594 0.0
H1415 H 0.25722 0.41047 0.28466 0.0
C1416 C 0.21843 0.44812 0.21411 0.0
C1417 C 0.22039 0.41003 0.20786 0.0
C1418 C 0.22604 0.46584 0.22539 0.0
C1419 C 0.23559 0.44549 0.23089 0.0
C1420 C 0.23723 0.4067 0.22543 0.0
C1421 C 0.22976 0.38928 0.21388 0.0
C1422 C 0.24444 0.46619 0.24075 0.0
C1423 C 0.24564 0.45926 0.25839 0.0
C1424 C 0.25153 0.49357 0.23261 0.0
C1425 C 0.25104 0.49944 0.21383 0.0
C1426 C 0.25418 0.46887 0.20272 0.0
C1427 C 0.25314 0.47342 0.18498 0.0
C1428 C 0.24897 0.50841 0.17823 0.0
C1429 C 0.24593 0.53911 0.18919 0.0
C1430 C 0.24701 0.53477 0.20697 0.0
C1431 C 0.28603 0.53052 0.2875 0.0
C1432 C 0.28435 0.57044 0.29126 0.0
C1433 C 0.2785 0.51025 0.27694 0.0
C1434 C 0.2693 0.52978 0.26968 0.0
C1435 C 0.26801 0.57017 0.27259 0.0
C1436 C 0.27536 0.59018 0.28349 0.0
C1437 C 0.26064 0.50771 0.25999 0.0
C1438 C 0.25945 0.51444 0.2423 0.0
C1439 C 0.25362 0.47986 0.26815 0.0
C1440 C 0.25413 0.47291 0.28694 0.0
C1441 C 0.25247 0.50402 0.29854 0.0
C1442 C 0.25277 0.49722 0.31624 0.0
C1443 C 0.25458 0.45935 0.32249 0.0
C1444 C 0.2562 0.42823 0.31107 0.0
C1445 C 0.25595 0.43489 0.29335 0.0
H1446 H 0.25465 0.45414 0.33619 0.0
H1447 H 0.24817 0.51169 0.1645 0.0
H1448 H 0.78382 0.23087 0.94058 0.0
H1449 H 0.77101 0.26439 0.96015 0.0
H1450 H 0.76687 0.1568 0.98883 0.0
H1451 H 0.77894 0.12275 0.96821 0.0
H1452 H 0.74842 0.1855 0.98813 0.0
H1453 H 0.78289 0.24376 0.00256 0.0
H1454 H 0.80092 0.27744 0.99847 0.0
H1455 H 0.7839 0.37925 0.97923 0.0
H1456 H 0.76578 0.34593 0.98291 0.0
H1457 H 0.73492 0.34514 0.0579 0.0
H1458 H 0.74802 0.31245 0.03889 0.0
H1459 H 0.72089 0.27962 0.00532 0.0
H1460 H 0.70756 0.31055 0.02513 0.0
H1461 H 0.75541 0.32 0.00981 0.0
H1462 H 0.72714 0.19217 0.98396 0.0
H1463 H 0.71132 0.15174 0.99388 0.0
H1464 H 0.7194 0.17864 0.04631 0.0
H1465 H 0.73525 0.21899 0.03672 0.0
C1466 C 0.78033 0.21472 0.95129 0.0
C1467 C 0.78255 0.17452 0.95317 0.0
C1468 C 0.77299 0.23388 0.96254 0.0
C1469 C 0.76803 0.21363 0.97637 0.0
C1470 C 0.77048 0.1734 0.97836 0.0
C1471 C 0.77751 0.15395 0.96671 0.0
C1472 C 0.76002 0.2339 0.98832 0.0
C1473 C 0.75 0.2149 0.99287 0.0
C1474 C 0.76208 0.27192 0.99508 0.0
C1475 C 0.77297 0.29213 0.99282 0.0
C1476 C 0.78299 0.27321 0.99732 0.0
C1477 C 0.79323 0.29225 0.99509 0.0
C1478 C 0.79356 0.33042 0.98855 0.0
C1479 C 0.78364 0.34968 0.98429 0.0
C1480 C 0.77338 0.33071 0.98644 0.0
C1481 C 0.7317 0.33125 0.0464 0.0
C1482 C 0.72015 0.33056 0.04304 0.0
C1483 C 0.73925 0.31252 0.03546 0.0
C1484 C 0.73555 0.29304 0.02062 0.0
C1485 C 0.72402 0.29361 0.01684 0.0
C1486 C 0.71638 0.31161 0.02809 0.0
C1487 C 0.74379 0.27174 0.00947 0.0
C1488 C 0.75384 0.29059 0.00506 0.0
C1489 C 0.74204 0.23271 0.00371 0.0
C1490 C 0.73238 0.20885 0.00958 0.0
C1491 C 0.72556 0.1894 0.9976 0.0
C1492 C 0.71656 0.16652 0.00317 0.0
C1493 C 0.71433 0.16268 0.0207 0.0
C1494 C 0.7211 0.18171 0.03272 0.0
C1495 C 0.73009 0.20462 0.02721 0.0
H1496 H 0.70737 0.14493 0.02498 0.0
H1497 H 0.80149 0.3451 0.98681 0.0
H1498 H 0.98615 0.13797 0.79925 0.0
H1499 H 0.99861 0.17311 0.77994 0.0
H1500 H 0.97121 0.24495 0.76272 0.0
H1501 H 0.95854 0.20994 0.78241 0.0
H1502 H 0.98601 0.21656 0.7356 0.0
H1503 H 0.98793 0.28596 0.78904 0.0
H1504 H 0.98995 0.29254 0.82039 0.0
H1505 H 0.02272 0.24186 0.81774 0.0
H1506 H 0.02086 0.23471 0.78632 0.0
H1507 H 0.01893 0.3629 0.696 0.0
H1508 H 0.00588 0.33004 0.71522 0.0
H1509 H 0.03273 0.26039 0.73591 0.0
H1510 H 0.04597 0.29314 0.71643 0.0
H1511 H 0.01789 0.28886 0.76132 0.0
H1512 H 0.016 0.21713 0.70861 0.0
H1513 H 0.01416 0.20807 0.67735 0.0
H1514 H 0.98168 0.26127 0.67862 0.0
H1515 H 0.98334 0.27068 0.70996 0.0
C1516 C 0.98268 0.16099 0.79128 0.0
C1517 C 0.9713 0.17115 0.79244 0.0
C1518 C 0.98987 0.18118 0.78027 0.0
C1519 C 0.98589 0.21196 0.77001 0.0
C1520 C 0.97446 0.22133 0.77056 0.0
C1521 C 0.96723 0.2013 0.7818 0.0
C1522 C 0.99386 0.23464 0.75916 0.0
C1523 C 0.99286 0.23297 0.74122 0.0
C1524 C 1.00301 0.25508 0.76647 0.0
C1525 C 0.00421 0.25947 0.78534 0.0
C1526 C 0.99553 0.27593 0.79515 0.0
C1527 C 0.99665 0.27982 0.81294 0.0
C1528 C 0.00643 0.26747 0.82108 0.0
C1529 C 0.01513 0.25137 0.81142 0.0
C1530 C 0.01406 0.24746 0.79361 0.0
C1531 C 0.02214 0.34088 0.70473 0.0
C1532 C 0.03353 0.33066 0.70463 0.0
C1533 C 0.01462 0.32195 0.71567 0.0
C1534 C 0.01827 0.29238 0.72687 0.0
C1535 C 0.02971 0.28305 0.72733 0.0
C1536 C 0.03727 0.30182 0.71622 0.0
C1537 C 0.01004 0.27085 0.73774 0.0
C1538 C 0.01101 0.27265 0.75569 0.0
C1539 C 1.00089 0.25039 0.73043 0.0
C1540 C 0.99984 0.24498 0.7116 0.0
C1541 C 0.0085 0.22719 0.70221 0.0
C1542 C 0.00748 0.22192 0.68448 0.0
C1543 C 0.99784 0.23429 0.67597 0.0
C1544 C 0.98916 0.25177 0.68522 0.0
C1545 C 0.99012 0.25698 0.70298 0.0
H1546 H 0.99708 0.23019 0.66223 0.0
H1547 H 0.00727 0.2705 0.83486 0.0
H1548 H 0.73373 0.38602 0.70407 0.0
H1549 H 0.74669 0.41804 0.72371 0.0
H1550 H 0.72173 0.50505 0.73572 0.0
H1551 H 0.70868 0.47314 0.71575 0.0
H1552 H 0.74149 0.53926 0.72886 0.0
H1553 H 0.72951 0.43503 0.76581 0.0
H1554 H 0.7254 0.36673 0.77419 0.0
H1555 H 0.7596 0.33493 0.76532 0.0
H1556 H 0.76391 0.40304 0.75682 0.0
H1557 H 0.77053 0.62349 0.79936 0.0
H1558 H 0.75747 0.59177 0.77981 0.0
H1559 H 0.78217 0.50387 0.76782 0.0
H1560 H 0.79532 0.53539 0.78773 0.0
H1561 H 0.76243 0.47027 0.77481 0.0
H1562 H 0.77424 0.57388 0.73692 0.0
H1563 H 0.77838 0.64226 0.72864 0.0
H1564 H 0.7445 0.67511 0.73955 0.0
H1565 H 0.74018 0.60689 0.74792 0.0
C1566 C 0.7309 0.4116 0.71108 0.0
C1567 C 0.72012 0.42687 0.70837 0.0
C1568 C 0.73834 0.42988 0.72238 0.0
C1569 C 0.73521 0.46389 0.73136 0.0
C1570 C 0.72436 0.47881 0.72898 0.0
C1571 C 0.71686 0.46036 0.71767 0.0
C1572 C 0.74349 0.4847 0.74249 0.0
C1573 C 0.74592 0.52429 0.73909 0.0
C1574 C 0.74957 0.46507 0.75554 0.0
C1575 C 0.747 0.42403 0.76052 0.0
C1576 C 0.73613 0.41339 0.76551 0.0
C1577 C 0.73378 0.37475 0.77034 0.0
C1578 C 0.74223 0.34649 0.77024 0.0
C1579 C 0.75306 0.35683 0.76535 0.0
C1580 C 0.75547 0.39548 0.76058 0.0
C1581 C 0.77329 0.59778 0.79237 0.0
C1582 C 0.78402 0.58212 0.79509 0.0
C1583 C 0.76578 0.57968 0.7811 0.0
C1584 C 0.76881 0.5455 0.77216 0.0
C1585 C 0.77962 0.53024 0.77453 0.0
C1586 C 0.78717 0.54847 0.78581 0.0
C1587 C 0.76045 0.52477 0.76113 0.0
C1588 C 0.758 0.48521 0.76456 0.0
C1589 C 0.75435 0.5444 0.74811 0.0
C1590 C 0.75692 0.58541 0.74316 0.0
C1591 C 0.7677 0.59576 0.73765 0.0
C1592 C 0.77007 0.63445 0.7329 0.0
C1593 C 0.76171 0.66303 0.73361 0.0
C1594 C 0.75097 0.65296 0.73904 0.0
C1595 C 0.74854 0.61427 0.74373 0.0
H1596 H 0.76356 0.69296 0.72992 0.0
H1597 H 0.74039 0.31659 0.774 0.0
H1598 H 0.96168 0.03874 0.4615 0.0
H1599 H 0.97334 0.00372 0.48247 0.0
H1600 H 1.00169 0.07411 0.46773 0.0
H1601 H 0.99019 0.10899 0.44693 0.0
H1602 H 0.00686 -0.00326 0.46816 0.0
H1603 H 0.98875 0.08913 0.50574 0.0
H1604 H 0.9727 0.12244 0.51918 0.0
H1605 H 0.96103 0.01232 0.53912 0.0
H1606 H 0.97694 0.97826 0.52559 0.0
H1607 H 0.04492 0.95245 0.5369 0.0
H1608 H 0.03276 0.98335 0.51541 0.0
H1609 H 0.00526 0.91145 0.53235 0.0
H1610 H 0.01729 0.88053 0.55368 0.0
H1611 H 0.99921 0.98732 0.5306 0.0
H1612 H 0.01714 0.8947 0.49388 0.0
H1613 H 0.03261 0.85967 0.47969 0.0
H1614 H 0.04411 0.96781 0.45757 0.0
H1615 H 0.0288 0.00361 0.47184 0.0
C1616 C 0.97035 0.04712 0.46293 0.0
C1617 C 0.97498 0.07672 0.45254 0.0
C1618 C 0.97702 0.02705 0.4749 0.0
C1619 C 0.98842 0.03623 0.47668 0.0
C1620 C 0.99295 0.06633 0.46656 0.0
C1621 C 0.98631 0.08642 0.45471 0.0
C1622 C 0.99579 0.01386 0.4886 0.0
C1623 C 0.00527 0.99508 0.48186 0.0
C1624 C 0.99355 0.01069 0.50639 0.0
C1625 C 0.98396 0.03109 0.51449 0.0
C1626 C 0.9827 0.07196 0.51286 0.0
C1627 C 0.97364 0.09099 0.52052 0.0
C1628 C 0.96583 0.06949 0.52996 0.0
C1629 C 0.96707 0.02892 0.53178 0.0
C1630 C 0.97611 0.00975 0.52413 0.0
C1631 C 0.03633 0.94281 0.53585 0.0
C1632 C 0.0321 0.91398 0.54703 0.0
C1633 C 0.02938 0.96048 0.52355 0.0
C1634 C 0.01806 0.94976 0.52224 0.0
C1635 C 0.01393 0.92036 0.53313 0.0
C1636 C 0.02086 0.90256 0.54529 0.0
C1637 C 0.01037 0.97045 0.51018 0.0
C1638 C 1.00082 0.98889 0.5169 0.0
C1639 C 0.01251 0.97314 0.49234 0.0
C1640 C 0.02191 0.95192 0.48414 0.0
C1641 C 0.02305 0.9111 0.48618 0.0
C1642 C 0.03177 0.89108 0.47807 0.0
C1643 C 0.03936 0.91152 0.46779 0.0
C1644 C 0.03824 0.95203 0.46558 0.0
C1645 C 0.02955 0.9722 0.47368 0.0
H1646 H 0.04609 0.89595 0.46149 0.0
H1647 H 0.95882 0.08428 0.53589 0.0
H1648 H 0.26671 0.13695 0.4424 0.0
H1649 H 0.25467 0.16995 0.4632 0.0
H1650 H 0.2836 0.21879 0.48824 0.0
H1651 H 0.29578 0.18623 0.46718 0.0
H1652 H 0.26755 0.18572 0.5112 0.0
H1653 H 0.26891 0.28 0.46547 0.0
H1654 H 0.26756 0.30413 0.43573 0.0
H1655 H 0.23347 0.26545 0.43308 0.0
H1656 H 0.23462 0.24132 0.46294 0.0
H1657 H 0.24225 0.33412 0.561 0.0
H1658 H 0.25329 0.29863 0.53981 0.0
H1659 H 0.22316 0.25403 0.51666 0.0
H1660 H 0.21193 0.28933 0.53821 0.0
H1661 H 0.23923 0.28314 0.49252 0.0
H1662 H 0.23772 0.18921 0.53814 0.0
H1663 H 0.2391 0.16348 0.56764 0.0
H1664 H 0.27332 0.20066 0.57036 0.0
H1665 H 0.27216 0.22617 0.54073 0.0
C1666 C 0.27055 0.15449 0.45239 0.0
C1667 C 0.28223 0.15879 0.45316 0.0
C1668 C 0.26363 0.17357 0.4642 0.0
C1669 C 0.26821 0.19711 0.4772 0.0
C1670 C 0.27988 0.20084 0.47828 0.0
C1671 C 0.28683 0.18219 0.46626 0.0
C1672 C 0.26076 0.21741 0.4897 0.0
C1673 C 0.26147 0.20743 0.50714 0.0
C1674 C 0.25257 0.24482 0.48437 0.0
C1675 C 0.25189 0.25849 0.46635 0.0
C1676 C 0.26116 0.27631 0.45849 0.0
C1677 C 0.26042 0.29012 0.44163 0.0
C1678 C 0.25045 0.28611 0.43246 0.0
C1679 C 0.24119 0.26846 0.44018 0.0
C1680 C 0.24187 0.25485 0.4571 0.0
C1681 C 0.23791 0.31697 0.55138 0.0
C1682 C 0.22617 0.31472 0.5513 0.0
C1683 C 0.24427 0.29644 0.53932 0.0
C1684 C 0.23908 0.27333 0.52673 0.0
C1685 C 0.22735 0.27159 0.5263 0.0
C1686 C 0.22094 0.2918 0.5386 0.0
C1687 C 0.24605 0.25157 0.51404 0.0
C1688 C 0.24527 0.2613 0.49657 0.0
C1689 C 0.25416 0.22384 0.51932 0.0
C1690 C 0.25482 0.20991 0.53731 0.0
C1691 C 0.2455 0.19223 0.5451 0.0
C1692 C 0.24627 0.17752 0.56181 0.0
C1693 C 0.25628 0.18062 0.57092 0.0
C1694 C 0.26557 0.19832 0.5633 0.0
C1695 C 0.26488 0.21274 0.54652 0.0
H1696 H 0.25686 0.16919 0.58386 0.0
H1697 H 0.24989 0.29682 0.4194 0.0
H1698 H 0.21052 0.9521 0.71856 0.0
H1699 H 0.22361 0.98551 0.7379 0.0
H1700 H 0.2487 0.89846 0.72661 0.0
H1701 H 0.23566 0.86476 0.7076 0.0
H1702 H 0.24987 0.91591 0.75917 0.0
H1703 H 0.24967 0.98995 0.7074 0.0
H1704 H 0.24176 0.02682 0.68307 0.0
H1705 H 0.22752 0.11062 0.71796 0.0
H1706 H 0.23541 0.07421 0.74255 0.0
H1707 H 0.29561 0.02782 0.79253 0.0
H1708 H 0.28352 0.99306 0.77209 0.0
H1709 H 0.25662 0.07288 0.78372 0.0
H1710 H 0.26865 0.10805 0.80372 0.0
H1711 H 0.25709 0.0578 0.75018 0.0
H1712 H 0.2597 0.97987 0.8024 0.0
H1713 H 0.27043 0.94341 0.82417 0.0
H1714 H 0.28221 0.86382 0.78555 0.0
H1715 H 0.27186 0.90056 0.76336 0.0
C1716 C 0.21876 0.93974 0.72043 0.0
C1717 C 0.22202 0.90575 0.71149 0.0
C1718 C 0.22629 0.95909 0.73137 0.0
C1719 C 0.23726 0.94496 0.73355 0.0
C1720 C 0.24034 0.91012 0.72517 0.0
C1721 C 0.23284 0.89085 0.71426 0.0
C1722 C 0.24562 0.96686 0.74415 0.0
C1723 C 0.25151 0.94686 0.75709 0.0
C1724 C 0.24786 0.00724 0.74148 0.0
C1725 C 0.243 0.02909 0.72681 0.0
C1726 C 0.24477 0.01606 0.70989 0.0
C1727 C 0.24031 0.03693 0.69605 0.0
C1728 C 0.23405 0.07088 0.69896 0.0
C1729 C 0.23233 0.08423 0.71573 0.0
C1730 C 0.23682 0.06355 0.72962 0.0
C1731 C 0.28717 0.03827 0.79053 0.0
C1732 C 0.2831 0.07067 0.79983 0.0
C1733 C 0.28022 0.01819 0.77893 0.0
C1734 C 0.26905 0.02984 0.77655 0.0
C1735 C 0.26516 0.06312 0.78533 0.0
C1736 C 0.27208 0.08323 0.79682 0.0
C1737 C 0.26121 0.00704 0.7654 0.0
C1738 C 0.25542 0.02688 0.75232 0.0
C1739 C 0.25927 0.96629 0.7677 0.0
C1740 C 0.2651 0.94329 0.78117 0.0
C1741 C 0.26462 0.95472 0.79851 0.0
C1742 C 0.27064 0.93402 0.81093 0.0
C1743 C 0.27702 0.90143 0.80626 0.0
C1744 C 0.27731 0.8892 0.78914 0.0
C1745 C 0.27138 0.90999 0.77663 0.0
H1746 H 0.28175 0.88574 0.81589 0.0
H1747 H 0.23056 0.08692 0.68824 0.0
H1748 H 0.79868 0.7133 0.46602 0.0
H1749 H 0.78645 0.74853 0.48603 0.0
H1750 H 0.76247 0.65422 0.48321 0.0
H1751 H 0.7745 0.61952 0.463 0.0
H1752 H 0.75204 0.72075 0.47985 0.0
H1753 H 0.77926 0.6712 0.51954 0.0
H1754 H 0.79814 0.66003 0.53121 0.0
H1755 H 0.803 0.78438 0.53619 0.0
H1756 H 0.7842 0.79632 0.52434 0.0
H1757 H 0.71746 0.78516 0.54973 0.0
H1758 H 0.72962 0.74829 0.53017 0.0
H1759 H 0.75375 0.84229 0.53176 0.0
H1760 H 0.74181 0.87851 0.55159 0.0
H1761 H 0.76401 0.77501 0.53598 0.0
H1762 H 0.73679 0.8243 0.49591 0.0
H1763 H 0.71786 0.83511 0.48437 0.0
H1764 H 0.71294 0.71061 0.48034 0.0
H1765 H 0.73179 0.69905 0.49206 0.0
C1766 C 0.79088 0.69983 0.46988 0.0
C1767 C 0.78759 0.66356 0.46292 0.0
C1768 C 0.78388 0.72 0.48135 0.0
C1769 C 0.77351 0.70405 0.48626 0.0
C1770 C 0.77037 0.66735 0.47962 0.0
C1771 C 0.77731 0.6474 0.4681 0.0
C1772 C 0.76569 0.72605 0.49774 0.0
C1773 C 0.75464 0.73212 0.49224 0.0
C1774 C 0.76907 0.74175 0.51376 0.0
C1775 C 0.78037 0.73465 0.52089 0.0
C1776 C 0.78439 0.69617 0.523 0.0
C1777 C 0.79507 0.6897 0.52967 0.0
C1778 C 0.80178 0.72148 0.5344 0.0
C1779 C 0.79781 0.7598 0.5325 0.0
C1780 C 0.78714 0.76643 0.52582 0.0
C1781 C 0.72528 0.79814 0.54571 0.0
C1782 C 0.72865 0.83478 0.55221 0.0
C1783 C 0.73224 0.77706 0.5345 0.0
C1784 C 0.74263 0.7925 0.52937 0.0
C1785 C 0.74583 0.82956 0.53555 0.0
C1786 C 0.73894 0.85039 0.54682 0.0
C1787 C 0.75038 0.76981 0.51806 0.0
C1788 C 0.76141 0.76359 0.5236 0.0
C1789 C 0.74698 0.75392 0.50209 0.0
C1790 C 0.73566 0.76082 0.49502 0.0
C1791 C 0.73164 0.79923 0.49268 0.0
C1792 C 0.72093 0.80549 0.48609 0.0
C1793 C 0.71419 0.77357 0.48167 0.0
C1794 C 0.71816 0.73531 0.48379 0.0
C1795 C 0.72886 0.72889 0.49039 0.0
H1796 H 0.7059 0.77848 0.47657 0.0
H1797 H 0.81004 0.71641 0.53956 0.0
H1798 H 0.74607 0.88599 0.18931 0.0
H1799 H 0.7577 0.92091 0.20991 0.0
H1800 H 0.7298 0.99486 0.22338 0.0
H1801 H 0.71813 0.96046 0.20229 0.0
H1802 H 0.74782 0.03801 0.21991 0.0
H1803 H 0.73966 0.91937 0.25036 0.0
H1804 H 0.73834 0.84785 0.25478 0.0
H1805 H 0.77376 0.83686 0.24778 0.0
H1806 H 0.77527 0.90828 0.24309 0.0
H1807 H 0.77126 0.11592 0.29647 0.0
H1808 H 0.76015 0.08332 0.27451 0.0
H1809 H 0.7887 0.01388 0.25984 0.0
H1810 H 0.79991 0.04619 0.28217 0.0
H1811 H 0.77054 0.96866 0.26368 0.0
H1812 H 0.77851 0.08884 0.23406 0.0
H1813 H 0.77948 0.1606 0.23023 0.0
H1814 H 0.74394 0.16893 0.23644 0.0
H1815 H 0.74277 0.09726 0.24055 0.0
C1816 C 0.74234 0.90941 0.19676 0.0
C1817 C 0.73112 0.92018 0.19423 0.0
C1818 C 0.74902 0.92933 0.20863 0.0
C1819 C 0.74463 0.96022 0.21848 0.0
C1820 C 0.7334 0.97103 0.21602 0.0
C1821 C 0.7267 0.95119 0.20403 0.0
C1822 C 0.75187 0.98181 0.23092 0.0
C1823 C 0.75265 0.02285 0.22965 0.0
C1824 C 0.75845 0.96211 0.24338 0.0
C1825 C 0.75756 0.91914 0.24621 0.0
C1826 C 0.74715 0.90167 0.24963 0.0
C1827 C 0.74637 0.86115 0.25221 0.0
C1828 C 0.75595 0.83782 0.25152 0.0
C1829 C 0.76634 0.85497 0.24829 0.0
C1830 C 0.76717 0.89547 0.24569 0.0
C1831 C 0.77526 0.0941 0.28844 0.0
C1832 C 0.78651 0.08376 0.29107 0.0
C1833 C 0.76887 0.07553 0.2758 0.0
C1834 C 0.77357 0.04631 0.26535 0.0
C1835 C 0.78488 0.03639 0.26771 0.0
C1836 C 0.7913 0.05505 0.2804 0.0
C1837 C 0.76649 0.02483 0.25267 0.0
C1838 C 0.76573 0.9838 0.25391 0.0
C1839 C 0.75988 0.04458 0.24027 0.0
C1840 C 0.76057 0.0877 0.23778 0.0
C1841 C 0.77091 0.106 0.23475 0.0
C1842 C 0.77149 0.14666 0.2325 0.0
C1843 C 0.76178 0.16932 0.23313 0.0
C1844 C 0.75146 0.15135 0.23597 0.0
C1845 C 0.75083 0.11071 0.23825 0.0
H1846 H 0.76225 0.20079 0.23138 0.0
H1847 H 0.75533 0.80645 0.25351 0.0
H1848 H 0.45926 0.52898 0.4611 0.0
H1849 H 0.47138 0.49372 0.48129 0.0
H1850 H 0.49796 0.57593 0.4711 0.0
H1851 H 0.48599 0.61086 0.45089 0.0
H1852 H 0.50553 0.5026 0.46908 0.0
H1853 H 0.48343 0.57635 0.50941 0.0
H1854 H 0.46601 0.59945 0.52293 0.0
H1855 H 0.45729 0.48081 0.53586 0.0
H1856 H 0.4746 0.45695 0.52222 0.0
H1857 H 0.54253 0.44904 0.53804 0.0
H1858 H 0.53038 0.48238 0.51726 0.0
H1859 H 0.50405 0.39971 0.52823 0.0
H1860 H 0.51606 0.36661 0.54895 0.0
H1861 H 0.4962 0.4723 0.52967 0.0
H1862 H 0.51794 0.39803 0.4897 0.0
H1863 H 0.53486 0.3733 0.4753 0.0
H1864 H 0.54391 0.49089 0.46115 0.0
H1865 H 0.5271 0.51639 0.47566 0.0
C1866 C 0.46761 0.53994 0.46341 0.0
C1867 C 0.47163 0.57282 0.4544 0.0
C1868 C 0.47456 0.51971 0.47494 0.0
C1869 C 0.48562 0.53212 0.47776 0.0
C1870 C 0.4895 0.56558 0.46911 0.0
C1871 C 0.4826 0.5857 0.45761 0.0
C1872 C 0.49334 0.50964 0.48917 0.0
C1873 C 0.50356 0.49647 0.48241 0.0
C1874 C 0.49066 0.50054 0.50643 0.0
C1875 C 0.48025 0.51484 0.51464 0.0
C1876 C 0.47775 0.55516 0.51501 0.0
C1877 C 0.46791 0.5684 0.52272 0.0
C1878 C 0.46053 0.54161 0.53021 0.0
C1879 C 0.463 0.50153 0.53004 0.0
C1880 C 0.47283 0.48814 0.52233 0.0
C1881 C 0.53423 0.43754 0.53577 0.0
C1882 C 0.53029 0.40512 0.54517 0.0
C1883 C 0.52727 0.45665 0.52389 0.0
C1884 C 0.51626 0.44362 0.52114 0.0
C1885 C 0.51247 0.41052 0.53015 0.0
C1886 C 0.51939 0.39148 0.54196 0.0
C1887 C 0.50845 0.46545 0.50962 0.0
C1888 C 0.4982 0.47847 0.51636 0.0
C1889 C 0.51108 0.47426 0.49232 0.0
C1890 C 0.52134 0.45916 0.48397 0.0
C1891 C 0.52361 0.41867 0.4837 0.0
C1892 C 0.53316 0.4045 0.47547 0.0
C1893 C 0.54048 0.43052 0.46737 0.0
C1894 C 0.53825 0.47078 0.46746 0.0
C1895 C 0.52871 0.4851 0.47569 0.0
H1896 H 0.54786 0.41949 0.46097 0.0
H1897 H 0.45292 0.55191 0.53617 0.0
H1898 H 0.54856 0.78207 0.7165 0.0
H1899 H 0.5351 0.75068 0.73586 0.0
H1900 H 0.51019 0.83593 0.72156 0.0
H1901 H 0.52358 0.8675 0.70228 0.0
H1902 H 0.50948 0.81697 0.75675 0.0
H1903 H 0.51105 0.75076 0.70202 0.0
H1904 H 0.52118 0.71784 0.67868 0.0
H1905 H 0.53138 0.62655 0.71332 0.0
H1906 H 0.52162 0.65984 0.7371 0.0
H1907 H 0.46229 0.70821 0.78673 0.0
H1908 H 0.47496 0.74537 0.76794 0.0
H1909 H 0.50007 0.65572 0.77411 0.0
H1910 H 0.48748 0.61847 0.79244 0.0
H1911 H 0.50017 0.67888 0.74241 0.0
H1912 H 0.50095 0.74299 0.79703 0.0
H1913 H 0.49335 0.77651 0.82251 0.0
H1914 H 0.48037 0.86851 0.79054 0.0
H1915 H 0.48785 0.83531 0.7648 0.0
C1916 C 0.54028 0.79456 0.71771 0.0
C1917 C 0.53713 0.82715 0.70774 0.0
C1918 C 0.53258 0.77652 0.72875 0.0
C1919 C 0.52157 0.79065 0.73003 0.0
C1920 C 0.51861 0.82445 0.7208 0.0
C1921 C 0.52628 0.84238 0.70972 0.0
C1922 C 0.51292 0.76849 0.73984 0.0
C1923 C 0.50734 0.78695 0.75349 0.0
C1924 C 0.51026 0.72902 0.73584 0.0
C1925 C 0.51572 0.70808 0.72139 0.0
C1926 C 0.51555 0.7239 0.70472 0.0
C1927 C 0.5213 0.70527 0.69142 0.0
C1928 C 0.52701 0.67021 0.69452 0.0
C1929 C 0.52699 0.65376 0.71095 0.0
C1930 C 0.52138 0.67259 0.72436 0.0
C1931 C 0.47044 0.69617 0.78381 0.0
C1932 C 0.47386 0.66038 0.79111 0.0
C1933 C 0.47773 0.71761 0.77321 0.0
C1934 C 0.48858 0.70372 0.76978 0.0
C1935 C 0.49178 0.66723 0.77653 0.0
C1936 C 0.48455 0.64592 0.78706 0.0
C1937 C 0.49676 0.72714 0.75952 0.0
C1938 C 0.50224 0.70897 0.74568 0.0
C1939 C 0.49947 0.76659 0.76359 0.0
C1940 C 0.49484 0.78643 0.77897 0.0
C1941 C 0.49638 0.77018 0.79541 0.0
C1942 C 0.49212 0.78916 0.80991 0.0
C1943 C 0.48633 0.82455 0.80815 0.0
C1944 C 0.48483 0.84105 0.79188 0.0
C1945 C 0.4891 0.82219 0.77733 0.0
H1946 H 0.48306 0.83925 0.81939 0.0
H1947 H 0.53138 0.6556 0.68418 0.0
H1948 H 0.46293 0.21762 0.2977 0.0
H1949 H 0.47505 0.25038 0.27684 0.0
H1950 H 0.49854 0.15473 0.28032 0.0
H1951 H 0.48663 0.12257 0.30157 0.0
H1952 H 0.50943 0.22123 0.28129 0.0
H1953 H 0.48092 0.16822 0.24465 0.0
H1954 H 0.46167 0.15645 0.23468 0.0
H1955 H 0.45692 0.2803 0.22753 0.0
H1956 H 0.4761 0.29285 0.23767 0.0
H1957 H 0.54188 0.27846 0.20763 0.0
H1958 H 0.53047 0.24383 0.22901 0.0
H1959 H 0.50606 0.33681 0.22699 0.0
H1960 H 0.5172 0.37066 0.20538 0.0
H1961 H 0.49586 0.26958 0.22498 0.0
H1962 H 0.52432 0.32259 0.26208 0.0
H1963 H 0.54359 0.33417 0.27202 0.0
H1964 H 0.54848 0.2101 0.27815 0.0
H1965 H 0.52927 0.19775 0.26804 0.0
C1966 C 0.47061 0.20335 0.29386 0.0
C1967 C 0.47377 0.16736 0.30123 0.0
C1968 C 0.47754 0.22209 0.28189 0.0
C1969 C 0.48771 0.20491 0.2768 0.0
C1970 C 0.49078 0.16869 0.284 0.0
C1971 C 0.48391 0.15018 0.29609 0.0
C1972 C 0.49527 0.22502 0.2643 0.0
C1973 C 0.50648 0.23131 0.26887 0.0
C1974 C 0.49144 0.23897 0.24821 0.0
C1975 C 0.47991 0.23148 0.24206 0.0
C1976 C 0.47574 0.19296 0.24107 0.0
C1977 C 0.46485 0.18615 0.23537 0.0
C1978 C 0.45806 0.21761 0.23051 0.0
C1979 C 0.46217 0.25595 0.23131 0.0
C1980 C 0.47306 0.26293 0.23701 0.0
C1981 C 0.53415 0.29169 0.21194 0.0
C1982 C 0.53045 0.32726 0.20478 0.0
C1983 C 0.52763 0.27192 0.22419 0.0
C1984 C 0.51738 0.28769 0.22972 0.0
C1985 C 0.51388 0.32381 0.22292 0.0
C1986 C 0.52031 0.34329 0.2106 0.0
C1987 C 0.51 0.26614 0.24202 0.0
C1988 C 0.49881 0.25949 0.23739 0.0
C1989 C 0.51386 0.25185 0.25804 0.0
C1990 C 0.5254 0.25924 0.26414 0.0
C1991 C 0.52953 0.29776 0.26542 0.0
C1992 C 0.54044 0.30447 0.27111 0.0
C1993 C 0.54727 0.27289 0.27567 0.0
C1994 C 0.54319 0.23453 0.27459 0.0
C1995 C 0.53229 0.22767 0.2689 0.0
H1996 H 0.55571 0.27814 0.28007 0.0
H1997 H 0.44963 0.21227 0.2261 0.0
H1998 H 0.48691 0.10943 0.95593 0.0
H1999 H 0.49867 0.07228 0.97558 0.0
H2000 H 0.47144 0.99273 0.98563 0.0
H2001 H 0.45949 0.03032 0.96589 0.0
H2002 H 0.48278 0.00841 0.01472 0.0
H2003 H 0.49217 0.96503 0.95903 0.0
H2004 H 0.49726 0.97013 0.92843 0.0
H2005 H 0.52797 0.02722 0.94205 0.0
H2006 H 0.523 0.02294 0.97274 0.0
H2007 H 0.52162 0.87118 0.05342 0.0
H2008 H 0.50766 0.89919 0.03421 0.0
H2009 H 0.53008 0.99403 0.02189 0.0
H2010 H 0.54442 0.9647 0.04046 0.0
H2011 H 0.51968 0.96345 0.99345 0.0
H2012 H 0.49846 0.03453 0.04633 0.0
H2013 H 0.49099 0.02857 0.0758 0.0
H2014 H 0.48131 0.90948 0.0656 0.0
H2015 H 0.48841 0.91535 0.03594 0.0
C2016 C 0.48334 0.08431 0.96244 0.0
C2017 C 0.47224 0.07281 0.95927 0.0
C2018 C 0.49013 0.06286 0.97361 0.0
C2019 C 0.48606 0.02911 0.98183 0.0
C2020 C 0.47481 0.0185 0.97935 0.0
C2021 C 0.46797 0.0401 0.96812 0.0
C2022 C 0.49367 0.00505 0.99279 0.0
C2023 C 0.49078 -0.00194 0.00996 0.0
C2024 C 0.5041 0.99128 0.98666 0.0
C2025 C 0.50717 0.99395 0.96821 0.0
C2026 C 0.49997 0.97896 0.9555 0.0
C2027 C 0.50284 0.98165 0.93814 0.0
C2028 C 0.51292 -0.00094 0.9333 0.0
C2029 C 0.52016 0.01376 0.94582 0.0
C2030 C 0.51733 0.01116 0.96321 0.0
C2031 C 0.5236 0.89806 0.04664 0.0
C2032 C 0.53415 0.91571 0.04851 0.0
C2033 C 0.51547 0.91456 0.03589 0.0
C2034 C 0.51753 0.94985 0.02713 0.0
C2035 C 0.52817 0.96713 0.0287 0.0
C2036 C 0.5364 0.95023 0.03925 0.0
C2037 C 0.50892 0.96757 0.01553 0.0
C2038 C 0.51165 0.97351 0.99816 0.0
C2039 C 0.49818 0.97927 0.02132 0.0
C2040 C 0.49452 0.97468 0.03931 0.0
C2041 C 0.49493 0.00688 0.05053 0.0
C2042 C 0.49063 0.00369 0.06717 0.0
C2043 C 0.48587 0.96843 0.07268 0.0
C2044 C 0.48519 0.93655 0.06143 0.0
C2045 C 0.48934 0.93982 0.04471 0.0
H2046 H 0.48258 0.96596 0.08558 0.0
H2047 H 0.51512 0.00109 0.91984 0.0
H2048 H 0.17147 0.36898 0.11565 0.0
H2049 H 0.15154 0.37747 0.11193 0.0
H2050 H 0.14841 0.41322 0.16483 0.0
H2051 H 0.16861 0.40399 0.16887 0.0
H2052 H 0.13243 0.36108 0.15624 0.0
H2053 H 0.1459 0.48039 0.1319 0.0
H2054 H 0.15775 0.52205 0.1135 0.0
H2055 H 0.14484 0.4649 0.06854 0.0
H2056 H 0.13302 0.4225 0.08668 0.0
H2057 H 0.0754 0.40636 0.14414 0.0
H2058 H 0.09529 0.41252 0.15021 0.0
H2059 H 0.10283 0.38392 0.09748 0.0
H2060 H 0.08278 0.37952 0.09116 0.0
H2061 H 0.11657 0.43783 0.1079 0.0
H2062 H 0.10414 0.31503 0.13276 0.0
H2063 H 0.09252 0.27317 0.15152 0.0
H2064 H 0.10367 0.33717 0.19577 0.0
H2065 H 0.11523 0.37976 0.17732 0.0
C2066 C 0.16664 0.37891 0.12658 0.0
C2067 C 0.17175 0.38583 0.14261 0.0
C2068 C 0.15518 0.38401 0.12434 0.0
C2069 C 0.14844 0.39659 0.13799 0.0
C2070 C 0.15344 0.4037 0.15405 0.0
C2071 C 0.165 0.39855 0.15634 0.0
C2072 C 0.13614 0.40047 0.13542 0.0
C2073 C 0.12894 0.37849 0.14588 0.0
C2074 C 0.13157 0.42245 0.12164 0.0
C2075 C 0.13863 0.44807 0.11067 0.0
C2076 C 0.14564 0.47651 0.1181 0.0
C2077 C 0.15234 0.50029 0.10771 0.0
C2078 C 0.15206 0.49608 0.08987 0.0
C2079 C 0.14505 0.46813 0.08237 0.0
C2080 C 0.13834 0.44425 0.09269 0.0
C2081 C 0.08129 0.40168 0.13378 0.0
C2082 C 0.07751 0.39219 0.11718 0.0
C2083 C 0.09269 0.40492 0.13731 0.0
C2084 C 0.10065 0.39758 0.12446 0.0
C2085 C 0.09689 0.38947 0.10769 0.0
C2086 C 0.08543 0.38701 0.10405 0.0
C2087 C 0.11284 0.39791 0.12855 0.0
C2088 C 0.12003 0.42066 0.11835 0.0
C2089 C 0.1174 0.3766 0.14258 0.0
C2090 C 0.11047 0.35082 0.15364 0.0
C2091 C 0.10406 0.32033 0.14648 0.0
C2092 C 0.09749 0.29646 0.15705 0.0
C2093 C 0.09735 0.30257 0.17479 0.0
C2094 C 0.10378 0.3325 0.18202 0.0
C2095 C 0.11034 0.3565 0.17152 0.0
H2096 H 0.09226 0.28405 0.18293 0.0
H2097 H 0.15726 0.51452 0.08185 0.0
H2098 H 0.08773 0.81354 0.15801 0.0
H2099 H 0.10772 0.80482 0.15163 0.0
H2100 H 0.10815 0.91709 0.12595 0.0
H2101 H 0.08835 0.92512 0.13175 0.0
H2102 H 0.11846 0.86821 0.10684 0.0
H2103 H 0.1197 0.89959 0.1675 0.0
H2104 H 0.11524 0.88995 0.19814 0.0
H2105 H 0.13 0.77516 0.1966 0.0
H2106 H 0.13443 0.78398 0.16588 0.0
H2107 H 0.1794 0.90835 0.13351 0.0
H2108 H 0.15969 0.90067 0.1398 0.0
H2109 H 0.15662 0.8167 0.09861 0.0
H2110 H 0.17659 0.82461 0.092 0.0
H2111 H 0.14759 0.84118 0.15047 0.0
H2112 H 0.12986 0.82473 0.08219 0.0
H2113 H 0.13451 0.8431 0.05236 0.0
H2114 H 0.15301 0.94267 0.07064 0.0
H2115 H 0.14836 0.92515 0.10053 0.0
C2116 C 0.09216 0.83645 0.1512 0.0
C2117 C 0.08645 0.86989 0.14531 0.0
C2118 C 0.10358 0.83147 0.14751 0.0
C2119 C 0.10951 0.86023 0.13819 0.0
C2120 C 0.10382 0.89414 0.1329 0.0
C2121 C 0.09247 0.89881 0.13633 0.0
C2122 C 0.12156 0.8556 0.13357 0.0
C2123 C 0.1248 0.86195 0.11641 0.0
C2124 C 0.12993 0.84757 0.14593 0.0
C2125 C 0.12727 0.84225 0.16436 0.0
C2126 C 0.12191 0.87219 0.17367 0.0
C2127 C 0.11941 0.86689 0.19105 0.0
C2128 C 0.1223 0.83191 0.1993 0.0
C2129 C 0.12774 0.8022 0.19018 0.0
C2130 C 0.13026 0.80734 0.17279 0.0
C2131 C 0.17461 0.88804 0.12574 0.0
C2132 C 0.17967 0.86692 0.11225 0.0
C2133 C 0.16329 0.88359 0.12945 0.0
C2134 C 0.15662 0.85798 0.11979 0.0
C2135 C 0.16157 0.83683 0.10623 0.0
C2136 C 0.17298 0.84141 0.10242 0.0
C2137 C 0.14446 0.85477 0.12387 0.0
C2138 C 0.14122 0.84672 0.14088 0.0
C2139 C 0.1361 0.86233 0.11148 0.0
C2140 C 0.13888 0.8733 0.09357 0.0
C2141 C 0.1349 0.85056 0.07982 0.0
C2142 C 0.13754 0.86083 0.06291 0.0
C2143 C 0.14409 0.89393 0.05961 0.0
C2144 C 0.14798 0.91694 0.07321 0.0
C2145 C 0.14536 0.90682 0.09014 0.0
H2146 H 0.14613 0.90182 0.04652 0.0
H2147 H 0.12036 0.82787 0.21275 0.0
H2148 H 0.83145 0.59352 0.88823 0.0
H2149 H 0.85144 0.58927 0.89339 0.0
H2150 H 0.85773 0.60525 0.83931 0.0
H2151 H 0.8375 0.6089 0.83394 0.0
H2152 H 0.8723 0.55228 0.85361 0.0
H2153 H 0.8598 0.68227 0.86649 0.0
H2154 H 0.8478 0.73234 0.87997 0.0
H2155 H 0.85778 0.69252 0.92999 0.0
H2156 H 0.86972 0.64178 0.9168 0.0
H2157 H 0.92781 0.62224 0.86129 0.0
H2158 H 0.90798 0.61351 0.85585 0.0
H2159 H 0.90221 0.59536 0.90993 0.0
H2160 H 0.92225 0.60436 0.9156 0.0
H2161 H 0.88741 0.64778 0.89578 0.0
H2162 H 0.90067 0.51893 0.88221 0.0
H2163 H 0.91279 0.47011 0.86811 0.0
H2164 H 0.90166 0.50965 0.81863 0.0
H2165 H 0.8896 0.55911 0.83243 0.0
C2166 C 0.83704 0.59579 0.87734 0.0
C2167 C 0.83285 0.60209 0.86067 0.0
C2168 C 0.84851 0.59343 0.88035 0.0
C2169 C 0.85613 0.5979 0.86682 0.0
C2170 C 0.85201 0.60201 0.84998 0.0
C2171 C 0.84045 0.60404 0.84692 0.0
C2172 C 0.86833 0.60013 0.87058 0.0
C2173 C 0.87563 0.57348 0.86266 0.0
C2174 C 0.87267 0.62727 0.88267 0.0
C2175 C 0.86557 0.65798 0.89065 0.0
C2176 C 0.85937 0.684 0.88037 0.0
C2177 C 0.85259 0.71253 0.88795 0.0
C2178 C 0.85201 0.71555 0.90583 0.0
C2179 C 0.85823 0.69011 0.91615 0.0
C2180 C 0.86501 0.66148 0.90862 0.0
C2181 C 0.92239 0.6162 0.87211 0.0
C2182 C 0.92668 0.6141 0.88894 0.0
C2183 C 0.91101 0.61095 0.86891 0.0
C2184 C 0.90359 0.60337 0.88243 0.0
C2185 C 0.9078 0.60102 0.89927 0.0
C2186 C 0.91926 0.60604 0.9025 0.0
C2187 C 0.8914 0.5998 0.87889 0.0
C2188 C 0.88409 0.62639 0.88681 0.0
C2189 C 0.88709 0.57281 0.86671 0.0
C2190 C 0.8943 0.54297 0.85836 0.0
C2191 C 0.90087 0.51743 0.86832 0.0
C2192 C 0.90772 0.4896 0.86038 0.0
C2193 C 0.90801 0.48684 0.84248 0.0
C2194 C 0.90144 0.51184 0.83249 0.0
C2195 C 0.89458 0.53975 0.84037 0.0
H2196 H 0.91332 0.46527 0.83636 0.0
H2197 H 0.84675 0.73765 0.91168 0.0
H2198 H 0.92334 0.12143 0.88429 0.0
H2199 H 0.90337 0.1252 0.88921 0.0
H2200 H 0.89788 0.14459 0.83515 0.0
H2201 H 0.91816 0.14126 0.83005 0.0
H2202 H 0.8841 0.19037 0.8546 0.0
H2203 H 0.89325 0.05513 0.85213 0.0
H2204 H 0.90375 0.99474 0.85875 0.0
H2205 H 0.89425 0.00396 0.91177 0.0
H2206 H 0.88384 0.06479 0.90552 0.0
H2207 H 0.82667 0.13161 0.85796 0.0
H2208 H 0.84663 0.13624 0.85201 0.0
H2209 H 0.85358 0.13485 0.90632 0.0
H2210 H 0.83344 0.13079 0.91244 0.0
H2211 H 0.86639 0.07944 0.8857 0.0
H2212 H 0.85698 0.21699 0.88657 0.0
H2213 H 0.84617 0.27545 0.87812 0.0
H2214 H 0.85563 0.25816 0.82547 0.0
H2215 H 0.86638 0.19922 0.83358 0.0
C2216 C 0.91796 0.12663 0.87335 0.0
C2217 C 0.92242 0.13057 0.85669 0.0
C2218 C 0.90648 0.12867 0.87623 0.0
C2219 C 0.89905 0.1343 0.86253 0.0
C2220 C 0.90344 0.13993 0.84593 0.0
C2221 C 0.91503 0.13805 0.84302 0.0
C2222 C 0.88676 0.13335 0.86578 0.0
C2223 C 0.88021 0.16586 0.86117 0.0
C2224 C 0.88165 0.10155 0.87455 0.0
C2225 C 0.88784 0.06477 0.87838 0.0
C2226 C 0.89347 0.04447 0.86523 0.0
C2227 C 0.89939 0.01012 0.86891 0.0
C2228 C 0.89969 0.99558 0.88567 0.0
C2229 C 0.89403 0.01529 0.89879 0.0
C2230 C 0.8881 0.0497 0.89518 0.0
C2231 C 0.83241 0.13268 0.86869 0.0
C2232 C 0.82843 0.13088 0.88571 0.0
C2233 C 0.84384 0.1354 0.86524 0.0
C2234 C 0.85162 0.13596 0.87869 0.0
C2235 C 0.84772 0.13451 0.89573 0.0
C2236 C 0.83621 0.13246 0.89922 0.0
C2237 C 0.8638 0.13672 0.87479 0.0
C2238 C 0.87031 0.10398 0.87918 0.0
C2239 C 0.86881 0.16794 0.86555 0.0
C2240 C 0.86239 0.20346 0.86067 0.0
C2241 C 0.85668 0.22544 0.87317 0.0
C2242 C 0.85058 0.25871 0.86845 0.0
C2243 C 0.85019 0.27045 0.85127 0.0
C2244 C 0.85593 0.249 0.83878 0.0
C2245 C 0.86203 0.21568 0.84343 0.0
H2246 H 0.84547 0.29622 0.84763 0.0
H2247 H 0.90428 0.96898 0.88849 0.0
H2248 H 0.16935 0.8995 0.6719 0.0
H2249 H 0.14937 0.91043 0.66638 0.0
H2250 H 0.15384 0.87355 0.61385 0.0
H2251 H 0.17355 0.86347 0.61903 0.0
H2252 H 0.1406 0.93464 0.61448 0.0
H2253 H 0.14303 0.81173 0.64568 0.0
H2254 H 0.14807 0.7699 0.67035 0.0
H2255 H 0.12785 0.84103 0.70359 0.0
H2256 H 0.12279 0.88357 0.67913 0.0
H2257 H 0.08517 0.88012 0.58889 0.0
H2258 H 0.10517 0.8853 0.59554 0.0
H2259 H 0.09717 0.91651 0.64783 0.0
H2260 H 0.07736 0.90994 0.6414 0.0
H2261 H 0.11216 0.86359 0.64871 0.0
H2262 H 0.10843 0.98367 0.61697 0.0
H2263 H 0.10336 0.02523 0.59224 0.0
H2264 H 0.12586 0.96037 0.56005 0.0
H2265 H 0.13097 0.9181 0.58454 0.0
C2266 C 0.16608 0.89398 0.65917 0.0
C2267 C 0.17314 0.88037 0.646 0.0
C2268 C 0.15464 0.90009 0.65603 0.0
C2269 C 0.15003 0.89249 0.63969 0.0
C2270 C 0.15713 0.87977 0.62653 0.0
C2271 C 0.16847 0.8738 0.62961 0.0
C2272 C 0.13783 0.89646 0.63612 0.0
C2273 C 0.13438 0.91895 0.62192 0.0
C2274 C 0.12964 0.8767 0.64597 0.0
C2275 C 0.13264 0.85106 0.66063 0.0
C2276 C 0.13972 0.8186 0.65828 0.0
C2277 C 0.14257 0.79474 0.67221 0.0
C2278 C 0.13831 0.80287 0.68854 0.0
C2279 C 0.13116 0.83482 0.69094 0.0
C2280 C 0.1283 0.85879 0.67705 0.0
C2281 C 0.08771 0.88881 0.60169 0.0
C2282 C 0.07969 0.89451 0.61462 0.0
C2283 C 0.09915 0.89181 0.60551 0.0
C2284 C 0.10277 0.90144 0.62223 0.0
C2285 C 0.09469 0.90874 0.63489 0.0
C2286 C 0.08333 0.90513 0.63116 0.0
C2287 C 0.11488 0.90165 0.62696 0.0
C2288 C 0.11832 0.87977 0.64135 0.0
C2289 C 0.12305 0.92204 0.61729 0.0
C2290 C 0.12001 0.94751 0.60256 0.0
C2291 C 0.11224 0.9781 0.60459 0.0
C2292 C 0.10937 0.00181 0.59062 0.0
C2293 C 0.11426 0.99539 0.57458 0.0
C2294 C 0.12207 0.96529 0.57248 0.0
C2295 C 0.12497 0.94148 0.58641 0.0
H2296 H 0.11203 0.01378 0.56378 0.0
H2297 H 0.14052 0.78437 0.69931 0.0
H2298 H 0.08318 0.34218 0.61535 0.0
H2299 H 0.10329 0.33791 0.61096 0.0
H2300 H 0.10874 0.36237 0.66464 0.0
H2301 H 0.08843 0.36659 0.66917 0.0
H2302 H 0.12092 0.41106 0.64261 0.0
H2303 H 0.11444 0.27262 0.64901 0.0
H2304 H 0.10517 0.20956 0.64286 0.0
H2305 H 0.11549 0.21685 0.59015 0.0
H2306 H 0.1247 0.28025 0.59592 0.0
H2307 H 0.17895 0.38663 0.64241 0.0
H2308 H 0.15905 0.38253 0.64732 0.0
H2309 H 0.15418 0.34032 0.59563 0.0
H2310 H 0.17444 0.3435 0.59063 0.0
H2311 H 0.14154 0.2997 0.61656 0.0
H2312 H 0.14627 0.43715 0.60785 0.0
H2313 H 0.15386 0.50403 0.61123 0.0
H2314 H 0.14596 0.5017 0.665 0.0
H2315 H 0.13829 0.43483 0.66194 0.0
C2316 C 0.08863 0.34606 0.62633 0.0
C2317 C 0.08419 0.35484 0.64263 0.0
C2318 C 0.10015 0.34342 0.62378 0.0
C2319 C 0.10756 0.34967 0.63745 0.0
C2320 C 0.10318 0.35733 0.6539 0.0
C2321 C 0.09158 0.35949 0.65651 0.0
C2322 C 0.11982 0.35111 0.63414 0.0
C2323 C 0.12549 0.38643 0.63726 0.0
C2324 C 0.12567 0.31964 0.62635 0.0
C2325 C 0.12019 0.28137 0.62288 0.0
C2326 C 0.11466 0.26094 0.63608 0.0
C2327 C 0.10943 0.2251 0.63266 0.0
C2328 C 0.10972 0.20925 0.61612 0.0
C2329 C 0.11527 0.22917 0.60296 0.0
C2330 C 0.12051 0.26504 0.6063 0.0
C2331 C 0.17374 0.37652 0.63195 0.0
C2332 C 0.17841 0.36549 0.61603 0.0
C2333 C 0.16225 0.37448 0.63479 0.0
C2334 C 0.15499 0.36185 0.62178 0.0
C2335 C 0.15958 0.35039 0.60589 0.0
C2336 C 0.17118 0.35225 0.60302 0.0
C2337 C 0.14271 0.35966 0.62517 0.0
C2338 C 0.13702 0.3243 0.62202 0.0
C2339 C 0.13675 0.39138 0.63262 0.0
C2340 C 0.14178 0.4309 0.63468 0.0
C2341 C 0.14623 0.4508 0.62042 0.0
C2342 C 0.15047 0.48881 0.62225 0.0
C2343 C 0.15034 0.50717 0.6383 0.0
C2344 C 0.14601 0.48751 0.65256 0.0
C2345 C 0.14168 0.4496 0.65078 0.0
H2346 H 0.15367 0.53654 0.6397 0.0
H2347 H 0.10566 0.1815 0.6135 0.0
H2348 H 0.83404 0.16594 0.37859 0.0
H2349 H 0.85398 0.16073 0.38371 0.0
H2350 H 0.85673 0.07577 0.34284 0.0
H2351 H 0.8366 0.08165 0.33731 0.0
H2352 H 0.86636 0.10416 0.39438 0.0
H2353 H 0.88316 0.08063 0.32569 0.0
H2354 H 0.87823 0.09699 0.29576 0.0
H2355 H 0.86019 0.19841 0.31311 0.0
H2356 H 0.86513 0.18292 0.3431 0.0
H2357 H 0.92527 0.06764 0.40139 0.0
H2358 H 0.90522 0.06241 0.39511 0.0
H2359 H 0.90679 0.17072 0.36642 0.0
H2360 H 0.92675 0.1749 0.37201 0.0
H2361 H 0.89497 0.12383 0.34921 0.0
H2362 H 0.89526 0.1611 0.40902 0.0
H2363 H 0.9001 0.1544 0.43967 0.0
H2364 H 0.88378 0.04223 0.44137 0.0
H2365 H 0.87895 0.04809 0.41066 0.0
C2366 C 0.83884 0.14617 0.3706 0.0
C2367 C 0.83366 0.12412 0.35753 0.0
C2368 C 0.85029 0.1431 0.37362 0.0
C2369 C 0.85693 0.1178 0.36374 0.0
C2370 C 0.85183 0.09585 0.35056 0.0
C2371 C 0.84032 0.09922 0.34739 0.0
C2372 C 0.86915 0.11491 0.36744 0.0
C2373 C 0.87261 0.10826 0.38446 0.0
C2374 C 0.87737 0.1206 0.35462 0.0
C2375 C 0.87439 0.13029 0.33664 0.0
C2376 C 0.87816 0.10644 0.3231 0.0
C2377 C 0.87537 0.11557 0.30613 0.0
C2378 C 0.86887 0.14862 0.30254 0.0
C2379 C 0.86518 0.17271 0.31591 0.0
C2380 C 0.86796 0.16374 0.3329 0.0
C2381 C 0.92128 0.09039 0.39386 0.0
C2382 C 0.92759 0.12162 0.38715 0.0
C2383 C 0.90981 0.08745 0.39027 0.0
C2384 C 0.90439 0.11626 0.3803 0.0
C2385 C 0.91071 0.14782 0.37396 0.0
C2386 C 0.92214 0.15031 0.37725 0.0
C2387 C 0.8922 0.11398 0.37624 0.0
C2388 C 0.88874 0.11934 0.35912 0.0
C2389 C 0.88396 0.10838 0.38907 0.0
C2390 C 0.88686 0.10483 0.40751 0.0
C2391 C 0.89277 0.13489 0.41591 0.0
C2392 C 0.8955 0.13126 0.43329 0.0
C2393 C 0.89228 0.09786 0.44245 0.0
C2394 C 0.88629 0.06805 0.43425 0.0
C2395 C 0.88355 0.07152 0.41686 0.0
H2396 H 0.8944 0.0951 0.45591 0.0
H2397 H 0.86671 0.15563 0.28939 0.0
H2398 H 0.92955 0.6517 0.3904 0.0
H2399 H 0.9097 0.65684 0.39669 0.0
H2400 H 0.90211 0.64514 0.34281 0.0
H2401 H 0.92219 0.64042 0.33631 0.0
H2402 H 0.8877 0.69747 0.35954 0.0
H2403 H 0.90094 0.56646 0.36739 0.0
H2404 H 0.91363 0.51528 0.37833 0.0
H2405 H 0.90505 0.54594 0.43016 0.0
H2406 H 0.89246 0.59787 0.41953 0.0
H2407 H 0.83291 0.62099 0.36844 0.0
H2408 H 0.85254 0.63222 0.36215 0.0
H2409 H 0.85937 0.6457 0.4162 0.0
H2410 H 0.83951 0.63434 0.4227 0.0
H2411 H 0.87413 0.59466 0.39964 0.0
H2412 H 0.85973 0.72415 0.39075 0.0
H2413 H 0.84674 0.77316 0.37877 0.0
H2414 H 0.85704 0.7427 0.32767 0.0
H2415 H 0.86994 0.69292 0.33931 0.0
C2416 C 0.9237 0.6508 0.3798 0.0
C2417 C 0.92746 0.64513 0.36285 0.0
C2418 C 0.91232 0.65371 0.38345 0.0
C2419 C 0.90438 0.65051 0.37029 0.0
C2420 C 0.90809 0.64748 0.35319 0.0
C2421 C 0.91956 0.64485 0.34948 0.0
C2422 C 0.89231 0.64726 0.37475 0.0
C2423 C 0.8847 0.67475 0.36815 0.0
C2424 C 0.8884 0.61796 0.38621 0.0
C2425 C 0.89584 0.58633 0.39266 0.0
C2426 C 0.90182 0.56249 0.38113 0.0
C2427 C 0.90899 0.53333 0.38727 0.0
C2428 C 0.91017 0.52742 0.40493 0.0
C2429 C 0.90414 0.5506 0.41649 0.0
C2430 C 0.89699 0.5799 0.41041 0.0
C2431 C 0.83853 0.62654 0.37906 0.0
C2432 C 0.8346 0.62662 0.39612 0.0
C2433 C 0.84978 0.6332 0.37539 0.0
C2434 C 0.85744 0.64009 0.38866 0.0
C2435 C 0.85359 0.64056 0.40574 0.0
C2436 C 0.84224 0.63425 0.40944 0.0
C2437 C 0.86951 0.64504 0.38456 0.0
C2438 C 0.87712 0.61763 0.39115 0.0
C2439 C 0.87336 0.67413 0.37295 0.0
C2440 C 0.86575 0.70455 0.36591 0.0
C2441 C 0.85917 0.72768 0.37695 0.0
C2442 C 0.85183 0.75563 0.37022 0.0
C2443 C 0.85106 0.76102 0.35248 0.0
C2444 C 0.85765 0.73849 0.34142 0.0
C2445 C 0.86498 0.71042 0.34808 0.0
H2446 H 0.84537 0.78268 0.3473 0.0
H2447 H 0.91573 0.50484 0.40967 0.0
H2448 H 0.58053 0.4078 0.58951 0.0
H2449 H 0.60041 0.41935 0.59549 0.0
H2450 H 0.59758 0.35319 0.6425 0.0
H2451 H 0.57792 0.342 0.63683 0.0
H2452 H 0.60912 0.41829 0.64817 0.0
H2453 H 0.60962 0.31448 0.60564 0.0
H2454 H 0.60538 0.28488 0.57747 0.0
H2455 H 0.62311 0.37788 0.55213 0.0
H2456 H 0.62734 0.40828 0.58016 0.0
H2457 H 0.66622 0.37611 0.668 0.0
H2458 H 0.6461 0.37688 0.66204 0.0
H2459 H 0.65242 0.43258 0.61319 0.0
H2460 H 0.67245 0.42983 0.61877 0.0
H2461 H 0.63891 0.37775 0.60772 0.0
H2462 H 0.63947 0.48016 0.64998 0.0
H2463 H 0.64367 0.51073 0.67796 0.0
H2464 H 0.62397 0.42321 0.70358 0.0
H2465 H 0.61976 0.39183 0.67577 0.0
C2466 C 0.58416 0.39563 0.60108 0.0
C2467 C 0.57754 0.374 0.61265 0.0
C2468 C 0.59554 0.40222 0.6045 0.0
C2469 C 0.60055 0.38706 0.61947 0.0
C2470 C 0.59395 0.36546 0.63094 0.0
C2471 C 0.58265 0.35897 0.62759 0.0
C2472 C 0.61264 0.39314 0.62338 0.0
C2473 C 0.61565 0.40921 0.63937 0.0
C2474 C 0.62119 0.38223 0.61179 0.0
C2475 C 0.61869 0.36386 0.59497 0.0
C2476 C 0.61254 0.32875 0.59405 0.0
C2477 C 0.61015 0.31181 0.57811 0.0
C2478 C 0.61394 0.32955 0.56302 0.0
C2479 C 0.62016 0.36421 0.56383 0.0
C2480 C 0.62256 0.38129 0.57973 0.0
C2481 C 0.66326 0.38925 0.65618 0.0
C2482 C 0.67089 0.40299 0.64388 0.0
C2483 C 0.65174 0.38975 0.65275 0.0
C2484 C 0.64762 0.40503 0.63714 0.0
C2485 C 0.65529 0.42035 0.62525 0.0
C2486 C 0.66676 0.41902 0.6285 0.0
C2487 C 0.63547 0.40287 0.63261 0.0
C2488 C 0.63243 0.38736 0.61651 0.0
C2489 C 0.6269 0.41456 0.64407 0.0
C2490 C 0.62938 0.43347 0.6608 0.0
C2491 C 0.63609 0.46729 0.66159 0.0
C2492 C 0.63846 0.48478 0.67742 0.0
C2493 C 0.63411 0.46887 0.69254 0.0
C2494 C 0.62734 0.43549 0.69186 0.0
C2495 C 0.62495 0.41787 0.67607 0.0
H2496 H 0.63596 0.48245 0.70478 0.0
H2497 H 0.61208 0.3164 0.55069 0.0
H2498 H 0.59299 0.88041 0.67147 0.0
H2499 H 0.61328 0.87827 0.66657 0.0
H2500 H 0.60806 0.81063 0.62049 0.0
H2501 H 0.58783 0.81383 0.62503 0.0
H2502 H 0.62824 0.78896 0.64274 0.0
H2503 H 0.61025 0.89523 0.61193 0.0
H2504 H 0.59718 0.95107 0.6107 0.0
H2505 H 0.61619 0.01111 0.64939 0.0
H2506 H 0.62927 0.95535 0.651 0.0
H2507 H 0.67982 0.83355 0.59928 0.0
H2508 H 0.65998 0.82195 0.60556 0.0
H2509 H 0.66087 0.91231 0.64432 0.0
H2510 H 0.68046 0.92425 0.63811 0.0
H2511 H 0.64259 0.91971 0.62526 0.0
H2512 H 0.66133 0.81526 0.65505 0.0
H2513 H 0.67374 0.7579 0.6579 0.0
H2514 H 0.65337 0.69339 0.62236 0.0
H2515 H 0.64091 0.75062 0.61911 0.0
C2516 C 0.59622 0.86405 0.66062 0.0
C2517 C 0.58888 0.84718 0.64865 0.0
C2518 C 0.60778 0.86294 0.65779 0.0
C2519 C 0.61216 0.84428 0.64315 0.0
C2520 C 0.60487 0.82491 0.63191 0.0
C2521 C 0.59333 0.82684 0.6345 0.0
C2522 C 0.62408 0.84954 0.63832 0.0
C2523 C 0.63139 0.81739 0.63876 0.0
C2524 C 0.62818 0.88666 0.63323 0.0
C2525 C 0.62066 0.92102 0.63171 0.0
C2526 C 0.61161 0.92031 0.62022 0.0
C2527 C 0.6042 0.95193 0.61944 0.0
C2528 C 0.60582 0.98459 0.62999 0.0
C2529 C 0.61492 0.98583 0.64122 0.0
C2530 C 0.62235 0.95423 0.64207 0.0
C2531 C 0.67577 0.85101 0.60909 0.0
C2532 C 0.6818 0.8797 0.61822 0.0
C2533 C 0.66444 0.84421 0.61274 0.0
C2534 C 0.65892 0.86603 0.62555 0.0
C2535 C 0.6649 0.89505 0.63441 0.0
C2536 C 0.67616 0.90171 0.63086 0.0
C2537 C 0.64693 0.85915 0.62982 0.0
C2538 C 0.63953 0.89113 0.62921 0.0
C2539 C 0.6428 0.8218 0.63477 0.0
C2540 C 0.65027 0.78738 0.63668 0.0
C2541 C 0.65955 0.78897 0.64772 0.0
C2542 C 0.66658 0.75646 0.64943 0.0
C2543 C 0.66436 0.72206 0.64027 0.0
C2544 C 0.65509 0.72008 0.62942 0.0
C2545 C 0.64804 0.75254 0.62764 0.0
H2546 H 0.66981 0.69691 0.64162 0.0
H2547 H 0.60001 0.00885 0.62946 0.0
H2548 H 0.42547 0.61574 0.35957 0.0
H2549 H 0.40552 0.61105 0.35457 0.0
H2550 H 0.4 0.59083 0.40857 0.0
H2551 H 0.42023 0.59504 0.41377 0.0
H2552 H 0.38662 0.54389 0.38878 0.0
H2553 H 0.39508 0.6803 0.39165 0.0
H2554 H 0.40524 0.74131 0.38488 0.0
H2555 H 0.39562 0.73122 0.33195 0.0
H2556 H 0.38554 0.66977 0.33835 0.0
H2557 H 0.32896 0.5976 0.387 0.0
H2558 H 0.34897 0.59287 0.3924 0.0
H2559 H 0.35546 0.60298 0.33813 0.0
H2560 H 0.33529 0.60744 0.33254 0.0
H2561 H 0.36821 0.65475 0.35864 0.0
H2562 H 0.3594 0.51744 0.3567 0.0
H2563 H 0.34901 0.45758 0.36451 0.0
H2564 H 0.35888 0.47148 0.41717 0.0
H2565 H 0.3692 0.53179 0.40972 0.0
C2566 C 0.42008 0.6102 0.37048 0.0
C2567 C 0.42452 0.6062 0.38716 0.0
C2568 C 0.40862 0.60761 0.36756 0.0
C2569 C 0.4012 0.60136 0.38121 0.0
C2570 C 0.40556 0.59591 0.39782 0.0
C2571 C 0.41713 0.59836 0.40079 0.0
C2572 C 0.38892 0.60147 0.37795 0.0
C2573 C 0.38257 0.56837 0.38242 0.0
C2574 C 0.38363 0.63312 0.36936 0.0
C2575 C 0.38964 0.6702 0.36546 0.0
C2576 C 0.3952 0.69091 0.37854 0.0
C2577 C 0.40094 0.7256 0.37477 0.0
C2578 C 0.4011 0.74008 0.35799 0.0
C2579 C 0.3955 0.71994 0.34494 0.0
C2580 C 0.38976 0.68519 0.34863 0.0
C2581 C 0.33461 0.59847 0.37615 0.0
C2582 C 0.3305 0.60297 0.35931 0.0
C2583 C 0.34607 0.5956 0.37928 0.0
C2584 C 0.35373 0.59744 0.36569 0.0
C2585 C 0.34969 0.60142 0.34882 0.0
C2586 C 0.33816 0.60375 0.34563 0.0
C2587 C 0.36594 0.59703 0.3693 0.0
C2588 C 0.37228 0.63022 0.36496 0.0
C2589 C 0.37116 0.56569 0.37816 0.0
C2590 C 0.36499 0.52936 0.38268 0.0
C2591 C 0.35928 0.50794 0.36998 0.0
C2592 C 0.35341 0.47388 0.37433 0.0
C2593 C 0.35326 0.46079 0.39133 0.0
C2594 C 0.35899 0.48168 0.40401 0.0
C2595 C 0.36486 0.51578 0.39972 0.0
H2596 H 0.34871 0.43441 0.39468 0.0
H2597 H 0.40554 0.76695 0.3551 0.0
H2598 H 0.42782 0.14393 0.39562 0.0
H2599 H 0.40787 0.15109 0.40085 0.0
H2600 H 0.40167 0.14901 0.3463 0.0
H2601 H 0.42182 0.14267 0.34091 0.0
H2602 H 0.38754 0.19991 0.36291 0.0
H2603 H 0.39995 0.06779 0.36988 0.0
H2604 H 0.41223 0.01648 0.38161 0.0
H2605 H 0.40003 0.03999 0.43243 0.0
H2606 H 0.3881 0.09304 0.42112 0.0
H2607 H 0.33211 0.12864 0.3632 0.0
H2608 H 0.35208 0.13875 0.35983 0.0
H2609 H 0.35591 0.14446 0.41482 0.0
H2610 H 0.3357 0.13414 0.41838 0.0
H2611 H 0.37125 0.09454 0.39913 0.0
H2612 H 0.35855 0.22659 0.39159 0.0
H2613 H 0.34689 0.27935 0.37945 0.0
H2614 H 0.35916 0.25311 0.32893 0.0
H2615 H 0.37079 0.19981 0.34073 0.0
C2616 C 0.42225 0.14551 0.38468 0.0
C2617 C 0.4264 0.14215 0.36783 0.0
C2618 C 0.41082 0.14959 0.38771 0.0
C2619 C 0.40323 0.14967 0.374 0.0
C2620 C 0.40737 0.14879 0.35709 0.0
C2621 C 0.41888 0.14515 0.35402 0.0
C2622 C 0.391 0.14764 0.37747 0.0
C2623 C 0.38396 0.17667 0.37068 0.0
C2624 C 0.38634 0.11765 0.38789 0.0
C2625 C 0.39321 0.08478 0.39466 0.0
C2626 C 0.39994 0.0623 0.38358 0.0
C2627 C 0.40686 0.0329 0.39016 0.0
C2628 C 0.40688 0.02482 0.40775 0.0
C2629 C 0.40001 0.04629 0.4188 0.0
C2630 C 0.39321 0.07619 0.41233 0.0
C2631 C 0.33714 0.13226 0.37465 0.0
C2632 C 0.33226 0.13044 0.3911 0.0
C2633 C 0.34858 0.13829 0.37266 0.0
C2634 C 0.35551 0.1427 0.38704 0.0
C2635 C 0.35071 0.14127 0.40353 0.0
C2636 C 0.33916 0.13556 0.40555 0.0
C2637 C 0.36779 0.14693 0.38463 0.0
C2638 C 0.37484 0.11804 0.39151 0.0
C2639 C 0.37244 0.17683 0.37418 0.0
C2640 C 0.36548 0.20898 0.36704 0.0
C2641 C 0.3587 0.23186 0.37788 0.0
C2642 C 0.35211 0.26191 0.37106 0.0
C2643 C 0.35226 0.26952 0.35343 0.0
C2644 C 0.35904 0.24716 0.34258 0.0
C2645 C 0.36565 0.21706 0.34934 0.0
H2646 H 0.34715 0.2928 0.34817 0.0
H2647 H 0.41221 0.00195 0.4128 0.0
H2648 H 0.67855 0.81301 0.13855 0.0
H2649 H 0.65877 0.8181 0.13095 0.0
H2650 H 0.66367 0.93911 0.11634 0.0
H2651 H 0.68341 0.93439 0.12486 0.0
H2652 H 0.64386 0.93184 0.13006 0.0
H2653 H 0.66341 0.86091 0.08616 0.0
H2654 H 0.67579 0.80924 0.07477 0.0
H2655 H 0.65355 0.72048 0.09383 0.0
H2656 H 0.64111 0.77162 0.10552 0.0
H2657 H 0.59082 0.92882 0.0867 0.0
H2658 H 0.61127 0.9338 0.08989 0.0
H2659 H 0.61204 0.81764 0.11191 0.0
H2660 H 0.59185 0.81269 0.10877 0.0
H2661 H 0.62956 0.8287 0.0908 0.0
H2662 H 0.61133 0.89879 0.13722 0.0
H2663 H 0.599 0.94971 0.14933 0.0
H2664 H 0.61878 0.03953 0.12542 0.0
H2665 H 0.63114 0.98903 0.11296 0.0
C2666 C 0.6753 0.84093 0.13413 0.0
C2667 C 0.68241 0.8734 0.13241 0.0
C2668 C 0.66404 0.84373 0.12955 0.0
C2669 C 0.65975 0.87866 0.12252 0.0
C2670 C 0.66676 0.91175 0.12158 0.0
C2671 C 0.67801 0.90915 0.12652 0.0
C2672 C 0.6481 0.87998 0.11562 0.0
C2673 C 0.64081 0.90968 0.12122 0.0
C2674 C 0.64401 0.85095 0.10415 0.0
C2675 C 0.65136 0.82013 0.0968 0.0
C2676 C 0.66118 0.83038 0.08797 0.0
C2677 C 0.66821 0.80118 0.08147 0.0
C2678 C 0.66547 0.7616 0.0836 0.0
C2679 C 0.65566 0.75115 0.09219 0.0
C2680 C 0.64861 0.78023 0.09873 0.0
C2681 C 0.59544 0.90407 0.09178 0.0
C2682 C 0.58977 0.8704 0.09751 0.0
C2683 C 0.60708 0.90705 0.09377 0.0
C2684 C 0.61319 0.87625 0.10137 0.0
C2685 C 0.60756 0.84181 0.10606 0.0
C2686 C 0.596 0.83903 0.10426 0.0
C2687 C 0.62531 0.88001 0.10552 0.0
C2688 C 0.63269 0.85124 0.09939 0.0
C2689 C 0.62947 0.90983 0.11647 0.0
C2690 C 0.62207 0.94015 0.12398 0.0
C2691 C 0.61299 0.92938 0.13443 0.0
C2692 C 0.60601 0.95816 0.14138 0.0
C2693 C 0.60808 -0.00217 0.1381 0.0
C2694 C 0.61716 0.00879 0.12791 0.0
C2695 C 0.62416 0.98011 0.1209 0.0
H2696 H 0.60267 0.02007 0.14349 0.0
H2697 H 0.67093 0.73904 0.07859 0.0
H2698 H 0.66458 0.36181 0.07742 0.0
H2699 H 0.64424 0.35799 0.0816 0.0
H2700 H 0.64929 0.32611 0.13463 0.0
H2701 H 0.66942 0.32965 0.13056 0.0
H2702 H 0.6317 0.28598 0.12077 0.0
H2703 H 0.64545 0.41908 0.12307 0.0
H2704 H 0.65541 0.47572 0.11081 0.0
H2705 H 0.63142 0.48251 0.06992 0.0
H2706 H 0.62157 0.42469 0.08156 0.0
H2707 H 0.57976 0.34267 0.15899 0.0
H2708 H 0.59956 0.33397 0.15174 0.0
H2709 H 0.59347 0.38154 0.10126 0.0
H2710 H 0.57399 0.3913 0.10847 0.0
H2711 H 0.61151 0.41166 0.11248 0.0
H2712 H 0.59752 0.27995 0.10951 0.0
H2713 H 0.58807 0.2203 0.12004 0.0
H2714 H 0.61203 0.21015 0.16081 0.0
H2715 H 0.62155 0.27006 0.15065 0.0
C2716 C 0.66134 0.35316 0.08984 0.0
C2717 C 0.66862 0.34652 0.10369 0.0
C2718 C 0.64972 0.35115 0.09225 0.0
C2719 C 0.64522 0.34225 0.10852 0.0
C2720 C 0.65252 0.3331 0.12199 0.0
C2721 C 0.66406 0.33541 0.11964 0.0
C2722 C 0.63303 0.34582 0.11215 0.0
C2723 C 0.62728 0.31349 0.11902 0.0
C2724 C 0.6272 0.38155 0.10969 0.0
C2725 C 0.63286 0.41723 0.10306 0.0
C2726 C 0.64234 0.43245 0.11139 0.0
C2727 C 0.64797 0.46478 0.10454 0.0
C2728 C 0.64404 0.48278 0.0896 0.0
C2729 C 0.63446 0.46849 0.08148 0.0
C2730 C 0.62888 0.43583 0.08816 0.0
C2731 C 0.58264 0.35113 0.14634 0.0
C2732 C 0.5752 0.36758 0.13436 0.0
C2733 C 0.59397 0.34598 0.14216 0.0
C2734 C 0.59805 0.35665 0.12583 0.0
C2735 C 0.59061 0.37305 0.11393 0.0
C2736 C 0.57939 0.37849 0.11812 0.0
C2737 C 0.61007 0.35167 0.12106 0.0
C2738 C 0.61584 0.38393 0.11408 0.0
C2739 C 0.61587 0.31575 0.12329 0.0
C2740 C 0.61017 0.27972 0.12942 0.0
C2741 C 0.60072 0.26517 0.1208 0.0
C2742 C 0.59536 0.23128 0.12669 0.0
C2743 C 0.59943 0.21151 0.14111 0.0
C2744 C 0.60888 0.22553 0.14965 0.0
C2745 C 0.61427 0.25943 0.14383 0.0
H2746 H 0.59527 0.18528 0.14564 0.0
H2747 H 0.64842 0.50779 0.0843 0.0
H2748 H 0.42663 0.12071 0.86468 0.0
H2749 H 0.40675 0.11618 0.85917 0.0
H2750 H 0.40039 0.10884 0.91361 0.0
H2751 H 0.42057 0.11187 0.91925 0.0
H2752 H 0.38729 0.06029 0.89825 0.0
H2753 H 0.39433 0.19714 0.88864 0.0
H2754 H 0.4034 0.2562 0.87671 0.0
H2755 H 0.39643 0.21622 0.82553 0.0
H2756 H 0.38721 0.15712 0.83717 0.0
H2757 H 0.33006 0.11373 0.89321 0.0
H2758 H 0.35009 0.10931 0.89799 0.0
H2759 H 0.35548 0.0967 0.84353 0.0
H2760 H 0.33522 0.10126 0.83856 0.0
H2761 H 0.36895 0.15366 0.85833 0.0
H2762 H 0.35958 0.01928 0.8701 0.0
H2763 H 0.34906 0.96568 0.88393 0.0
H2764 H 0.35977 0.00571 0.93356 0.0
H2765 H 0.37023 0.05989 0.92004 0.0
C2766 C 0.42106 0.11819 0.87558 0.0
C2767 C 0.42527 0.11686 0.89247 0.0
C2768 C 0.40961 0.11594 0.87237 0.0
C2769 C 0.40194 0.11316 0.88594 0.0
C2770 C 0.40609 0.11122 0.90287 0.0
C2771 C 0.41764 0.11295 0.9061 0.0
C2772 C 0.38967 0.11128 0.88229 0.0
C2773 C 0.38328 0.08111 0.88971 0.0
C2774 C 0.38436 0.13777 0.87084 0.0
C2775 C 0.39018 0.17261 0.86377 0.0
C2776 C 0.39479 0.20087 0.87484 0.0
C2777 C 0.39988 0.23447 0.86814 0.0
C2778 C 0.40049 0.23996 0.85037 0.0
C2779 C 0.39595 0.21194 0.83928 0.0
C2780 C 0.39074 0.1785 0.84592 0.0
C2781 C 0.33545 0.10959 0.88219 0.0
C2782 C 0.33099 0.10796 0.86546 0.0
C2783 C 0.34694 0.10684 0.88499 0.0
C2784 C 0.35433 0.10238 0.87116 0.0
C2785 C 0.34993 0.09998 0.85442 0.0
C2786 C 0.33836 0.10238 0.8516 0.0
C2787 C 0.36662 0.10279 0.87428 0.0
C2788 C 0.37301 0.13273 0.86678 0.0
C2789 C 0.37185 0.07657 0.8859 0.0
C2790 C 0.36563 0.04383 0.89405 0.0
C2791 C 0.35963 0.01683 0.88397 0.0
C2792 C 0.35369 0.98631 0.89175 0.0
C2793 C 0.35373 0.98234 0.90961 0.0
C2794 C 0.35974 0.00883 0.91973 0.0
C2795 C 0.36569 0.03942 0.91201 0.0
H2796 H 0.34913 0.9587 0.91562 0.0
H2797 H 0.40449 0.26588 0.84521 0.0
H2798 H 0.42145 0.62459 0.82923 0.0
H2799 H 0.40142 0.63309 0.83494 0.0
H2800 H 0.40754 0.6205 0.88928 0.0
H2801 H 0.4273 0.61078 0.88365 0.0
H2802 H 0.39052 0.57875 0.88165 0.0
H2803 H 0.40131 0.71162 0.86879 0.0
H2804 H 0.40944 0.76488 0.85137 0.0
H2805 H 0.38595 0.74113 0.81102 0.0
H2806 H 0.37777 0.68737 0.82813 0.0
H2807 H 0.33713 0.63865 0.91181 0.0
H2808 H 0.35725 0.64088 0.90583 0.0
H2809 H 0.35052 0.63751 0.85146 0.0
H2810 H 0.33053 0.63542 0.85726 0.0
H2811 H 0.36762 0.68842 0.85901 0.0
H2812 H 0.35711 0.55518 0.87196 0.0
H2813 H 0.34869 0.50317 0.88979 0.0
H2814 H 0.37177 0.52893 0.93045 0.0
H2815 H 0.3802 0.58159 0.91297 0.0
C2816 C 0.41851 0.62392 0.84239 0.0
C2817 C 0.426 0.61678 0.85595 0.0
C2818 C 0.40705 0.62893 0.84567 0.0
C2819 C 0.4029 0.62769 0.8626 0.0
C2820 C 0.41044 0.62133 0.8761 0.0
C2821 C 0.4218 0.61583 0.87283 0.0
C2822 C 0.39071 0.63166 0.86643 0.0
C2823 C 0.38559 0.60313 0.87688 0.0
C2824 C 0.38411 0.66288 0.85996 0.0
C2825 C 0.389 0.69522 0.84967 0.0
C2826 C 0.39793 0.71757 0.85615 0.0
C2827 C 0.40254 0.74788 0.84634 0.0
C2828 C 0.39824 0.75631 0.83008 0.0
C2829 C 0.38929 0.73452 0.82361 0.0
C2830 C 0.38466 0.70415 0.83336 0.0
C2831 C 0.33993 0.63899 0.89859 0.0
C2832 C 0.33219 0.63651 0.88505 0.0
C2833 C 0.35143 0.64008 0.89518 0.0
C2834 C 0.35541 0.63892 0.87817 0.0
C2835 C 0.34768 0.63838 0.86466 0.0
C2836 C 0.33623 0.63697 0.86804 0.0
C2837 C 0.36758 0.63588 0.87436 0.0
C2838 C 0.37263 0.66431 0.86385 0.0
C2839 C 0.37415 0.60468 0.88082 0.0
C2840 C 0.36921 0.57259 0.89123 0.0
C2841 C 0.36034 0.54993 0.88475 0.0
C2842 C 0.35557 0.52032 0.89479 0.0
C2843 C 0.35967 0.51281 0.91126 0.0
C2844 C 0.36858 0.53482 0.9177 0.0
C2845 C 0.37337 0.56455 0.90774 0.0
H2846 H 0.35596 0.48989 0.91901 0.0
H2847 H 0.40181 0.77979 0.8225 0.0
H2848 H 0.0579 0.00015 0.18418 0.0
H2849 H 0.05943 0.06813 0.17374 0.0
H2850 H 0.05972 0.02633 0.1215 0.0
H2851 H 0.05766 0.95907 0.13169 0.0
H2852 H 0.07594 0.09579 0.13279 0.0
H2853 H 0.0372 0.0481 0.12834 0.0
H2854 H 0.02055 0.01621 0.14072 0.0
H2855 H 0.01985 0.10173 0.18123 0.0
H2856 H 0.03662 0.13375 0.16918 0.0
H2857 H 0.05779 0.25528 0.08004 0.0
H2858 H 0.06156 0.19124 0.09325 0.0
H2859 H 0.0472 0.23211 0.14085 0.0
H2860 H 0.04305 0.29502 0.12762 0.0
H2861 H 0.03932 0.16389 0.13388 0.0
H2862 H 0.07577 0.22104 0.13406 0.0
H2863 H 0.09231 0.2528 0.12132 0.0
H2864 H 0.0982 0.15119 0.09006 0.0
H2865 H 0.08146 0.11928 0.1021 0.0
C2866 C 0.05849 0.00553 0.1705 0.0
C2867 C 0.05759 0.97447 0.15874 0.0
C2868 C 0.05941 0.0442 0.16458 0.0
C2869 C 0.05975 0.05194 0.14688 0.0
C2870 C 0.05958 0.02076 0.1352 0.0
C2871 C 0.05833 0.98238 0.14106 0.0
C2872 C 0.0587 0.09239 0.14037 0.0
C2873 C 0.06797 0.11092 0.13295 0.0
C2874 C 0.04832 0.11187 0.14084 0.0
C2875 C 0.03822 0.09294 0.14801 0.0
C2876 C 0.03355 0.05983 0.13998 0.0
C2877 C 0.02409 0.04179 0.14691 0.0
C2878 C 0.01917 0.05685 0.16179 0.0
C2879 C 0.02368 0.09005 0.16973 0.0
C2880 C 0.03317 0.10815 0.16286 0.0
C2881 C 0.05548 0.2505 0.09332 0.0
C2882 C 0.05011 0.28008 0.10277 0.0
C2883 C 0.0577 0.21406 0.10089 0.0
C2884 C 0.05477 0.20701 0.11811 0.0
C2885 C 0.04953 0.2368 0.12756 0.0
C2886 C 0.04718 0.27284 0.11996 0.0
C2887 C 0.0566 0.16811 0.12618 0.0
C2888 C 0.0474 0.1495 0.13385 0.0
C2889 C 0.0671 0.14888 0.12598 0.0
C2890 C 0.07727 0.16787 0.11889 0.0
C2891 C 0.08052 0.20555 0.12436 0.0
C2892 C 0.08994 0.22359 0.11728 0.0
C2893 C 0.09631 0.204 0.10494 0.0
C2894 C 0.09325 0.16634 0.09962 0.0
C2895 C 0.08378 0.14829 0.10654 0.0
H2896 H 0.10361 0.218 0.0995 0.0
H2897 H 0.01183 0.04286 0.16714 0.0
H2898 H 0.21229 0.9572 0.12276 0.0
H2899 H 0.20731 0.02106 0.13457 0.0
H2900 H 0.19607 0.05895 0.08465 0.0
H2901 H 0.20076 0.99422 0.0727 0.0
H2902 H 0.21259 0.10845 0.10283 0.0
H2903 H 0.17718 0.04563 0.11095 0.0
H2904 H 0.16502 0.99151 0.12053 0.0
H2905 H 0.17532 0.01033 0.1727 0.0
H2906 H 0.18776 0.06399 0.16338 0.0
H2907 H 0.1974 0.29263 0.12984 0.0
H2908 H 0.19499 0.22779 0.11752 0.0
H2909 H 0.19831 0.17602 0.16784 0.0
H2910 H 0.19997 0.24198 0.1805 0.0
H2911 H 0.18444 0.13284 0.14842 0.0
H2912 H 0.22107 0.18692 0.14147 0.0
H2913 H 0.23501 0.23683 0.13331 0.0
H2914 H 0.2242 0.23024 0.0808 0.0
H2915 H 0.21008 0.18066 0.0887 0.0
C2916 C 0.20867 0.97889 0.11428 0.0
C2917 C 0.20691 0.97077 0.09679 0.0
C2918 C 0.20578 0.01528 0.12109 0.0
C2919 C 0.20125 0.04436 0.11049 0.0
C2920 C 0.19949 0.03656 0.09301 0.0
C2921 C 0.20219 -0.00025 0.08622 0.0
C2922 C 0.19915 0.08376 0.11759 0.0
C2923 C 0.20627 0.11412 0.1125 0.0
C2924 C 0.1912 0.09027 0.13072 0.0
C2925 C 0.18348 0.05869 0.13643 0.0
C2926 C 0.17693 0.03806 0.12445 0.0
C2927 C 0.16998 0.00746 0.12983 0.0
C2928 C 0.16941 -0.00254 0.14721 0.0
C2929 C 0.17577 0.01811 0.15924 0.0
C2930 C 0.18277 0.04864 0.15391 0.0
C2931 C 0.19736 0.26764 0.13838 0.0
C2932 C 0.19901 0.27224 0.1561 0.0
C2933 C 0.19602 0.23049 0.13129 0.0
C2934 C 0.19682 0.197 0.14167 0.0
C2935 C 0.19775 0.20151 0.15957 0.0
C2936 C 0.19873 0.23906 0.16678 0.0
C2937 C 0.19785 0.15782 0.13354 0.0
C2938 C 0.19063 0.12741 0.13854 0.0
C2939 C 0.20589 0.15081 0.12053 0.0
C2940 C 0.21444 0.18038 0.11571 0.0
C2941 C 0.22162 0.19631 0.1282 0.0
C2942 C 0.22955 0.22451 0.12362 0.0
C2943 C 0.23047 0.23677 0.10656 0.0
C2944 C 0.22347 0.22076 0.09402 0.0
C2945 C 0.2155 0.19259 0.09854 0.0
H2946 H 0.23662 0.25862 0.10304 0.0
H2947 H 0.16403 0.97375 0.15135 0.0
H2948 H 0.96757 0.72286 0.88488 0.0
H2949 H 0.96421 0.78826 0.87322 0.0
H2950 H 0.93739 0.80554 0.90938 0.0
H2951 H 0.94087 0.73984 0.92145 0.0
H2952 H 0.93354 0.82828 0.87134 0.0
H2953 H 0.9569 0.85204 0.92001 0.0
H2954 H 0.97279 0.84009 0.93944 0.0
H2955 H 0.9957 0.86184 0.89811 0.0
H2956 H 0.97993 0.87329 0.87835 0.0
H2957 H 0.93448 0.0348 0.84856 0.0
H2958 H 0.93255 0.97096 0.8629 0.0
H2959 H 0.96541 0.93828 0.8451 0.0
H2960 H 0.96746 0.00261 0.83144 0.0
H2961 H 0.96381 0.92653 0.87812 0.0
H2962 H 0.94032 0.89551 0.82888 0.0
H2963 H 0.92444 0.90748 0.80938 0.0
H2964 H 0.90172 0.90098 0.85197 0.0
H2965 H 0.91749 0.88916 0.87172 0.0
C2966 C 0.96094 0.74048 0.89037 0.0
C2967 C 0.95453 0.72642 0.90415 0.0
C2968 C 0.95902 0.77777 0.88367 0.0
C2969 C 0.95056 0.80155 0.89046 0.0
C2970 C 0.94394 0.78742 0.90397 0.0
C2971 C 0.94598 0.75014 0.9109 0.0
C2972 C 0.94916 0.84175 0.8837 0.0
C2973 C 0.94002 0.85019 0.87306 0.0
C2974 C 0.95769 0.86994 0.88584 0.0
C2975 C 0.96722 0.86318 0.89767 0.0
C2976 C 0.96532 0.8539 0.91502 0.0
C2977 C 0.97431 0.8473 0.9261 0.0
C2978 C 0.98525 0.85012 0.92 0.0
C2979 C 0.98722 0.85963 0.90281 0.0
C2980 C 0.97826 0.86622 0.89167 0.0
C2981 C 0.94113 0.01343 0.84741 0.0
C2982 C 0.95105 0.02297 0.8388 0.0
C2983 C 0.94004 0.97705 0.85558 0.0
C2984 C 0.94883 0.94972 0.85504 0.0
C2985 C 0.95854 0.9589 0.84574 0.0
C2986 C 0.95968 0.99538 0.83781 0.0
C2987 C 0.9484 0.91279 0.86514 0.0
C2988 C 0.95722 0.90499 0.87651 0.0
C2989 C 0.93955 0.88539 0.86366 0.0
C2990 C 0.93007 0.89173 0.85177 0.0
C2991 C 0.93194 0.89676 0.83408 0.0
C2992 C 0.92296 0.90347 0.82298 0.0
C2993 C 0.91208 0.90504 0.82944 0.0
C2994 C 0.91015 0.89973 0.84698 0.0
C2995 C 0.9191 0.89293 0.85813 0.0
H2996 H 0.90514 0.91032 0.82083 0.0
H2997 H 0.99219 0.84501 0.9286 0.0
H2998 H 0.81292 0.00958 0.92373 0.0
H2999 H 0.81646 0.94304 0.91255 0.0
H3000 H 0.79204 0.96212 0.87269 0.0
H3001 H 0.78846 0.02762 0.88366 0.0
H3002 H 0.78881 0.89345 0.88938 0.0
H3003 H 0.81883 0.96639 0.86344 0.0
H3004 H 0.83551 0.00877 0.86377 0.0
H3005 H 0.85342 0.92151 0.89248 0.0
H3006 H 0.83676 0.87888 0.8926 0.0
H3007 H 0.8108 0.74462 0.82521 0.0
H3008 H 0.81309 0.81017 0.83801 0.0
H3009 H 0.80408 0.76346 0.88758 0.0
H3010 H 0.80153 0.69882 0.87496 0.0
H3011 H 0.825 0.84563 0.86639 0.0
H3012 H 0.78411 0.82157 0.90367 0.0
H3013 H 0.76702 0.78123 0.90191 0.0
H3014 H 0.77024 0.77582 0.84703 0.0
H3015 H 0.78724 0.81657 0.84846 0.0
C3016 C 0.80832 -0.00062 0.91262 0.0
C3017 C 0.80039 0.02367 0.90461 0.0
C3018 C 0.81039 0.9616 0.9062 0.0
C3019 C 0.80452 0.94783 0.89177 0.0
C3020 C 0.79664 0.97217 0.88384 0.0
C3021 C 0.79462 0.00965 0.89015 0.0
C3022 C 0.80611 0.90761 0.88505 0.0
C3023 C 0.79675 0.88297 0.88448 0.0
C3024 C 0.81644 0.89422 0.87843 0.0
C3025 C 0.8265 0.91964 0.87821 0.0
C3026 C 0.82629 0.95638 0.86996 0.0
C3027 C 0.83575 0.98043 0.87005 0.0
C3028 C 0.84551 0.96789 0.87819 0.0
C3029 C 0.84584 0.93122 0.88621 0.0
C3030 C 0.83639 0.9071 0.8862 0.0
C3031 C 0.80949 0.74834 0.83887 0.0
C3032 C 0.80576 0.71684 0.84902 0.0
C3033 C 0.81088 0.78563 0.84618 0.0
C3034 C 0.80863 0.79161 0.86369 0.0
C3035 C 0.80575 0.75949 0.87402 0.0
C3036 C 0.80423 0.72258 0.86673 0.0
C3037 C 0.80768 0.83175 0.8708 0.0
C3038 C 0.81712 0.85618 0.87146 0.0
C3039 C 0.79736 0.8455 0.87726 0.0
C3040 C 0.787 0.82176 0.87621 0.0
C3041 C 0.78113 0.8119 0.89123 0.0
C3042 C 0.77147 0.78895 0.89029 0.0
C3043 C 0.76757 0.77586 0.87437 0.0
C3044 C 0.77329 0.78586 0.85935 0.0
C3045 C 0.78294 0.80885 0.86023 0.0
H3046 H 0.7601 0.75804 0.87367 0.0
H3047 H 0.85283 0.98656 0.87824 0.0
H3048 H 0.04932 0.7928 0.62644 0.0
H3049 H 0.05324 0.72736 0.63773 0.0
H3050 H 0.06158 0.68733 0.58678 0.0
H3051 H 0.0579 0.75329 0.57538 0.0
H3052 H 0.04463 0.64297 0.60528 0.0
H3053 H 0.08172 0.69341 0.61257 0.0
H3054 H 0.09573 0.74144 0.62236 0.0
H3055 H 0.08581 0.72249 0.67469 0.0
H3056 H 0.07159 0.67482 0.66519 0.0
H3057 H 0.05708 0.45194 0.62844 0.0
H3058 H 0.05975 0.51764 0.61694 0.0
H3059 H 0.05871 0.5654 0.66825 0.0
H3060 H 0.05658 0.49879 0.67996 0.0
H3061 H 0.07298 0.60636 0.64894 0.0
H3062 H 0.0352 0.56292 0.64296 0.0
H3063 H 0.02002 0.51788 0.63463 0.0
H3064 H 0.02975 0.5274 0.58172 0.0
H3065 H 0.0451 0.57209 0.58977 0.0
C3066 C 0.05211 0.77023 0.61765 0.0
C3067 C 0.05325 0.778 0.60001 0.0
C3068 C 0.0544 0.73296 0.62415 0.0
C3069 C 0.05775 0.70275 0.61308 0.0
C3070 C 0.05906 0.71048 0.5955 0.0
C3071 C 0.05696 0.74804 0.58902 0.0
C3072 C 0.05889 0.6624 0.61975 0.0
C3073 C 0.05096 0.63465 0.61455 0.0
C3074 C 0.06688 0.65237 0.63237 0.0
C3075 C 0.07551 0.68077 0.63814 0.0
C3076 C 0.08245 0.69973 0.62615 0.0
C3077 C 0.09045 0.72685 0.63165 0.0
C3078 C 0.09165 0.73508 0.64913 0.0
C3079 C 0.08487 0.71611 0.66115 0.0
C3080 C 0.07684 0.68901 0.65572 0.0
C3081 C 0.05757 0.47631 0.63732 0.0
C3082 C 0.05644 0.47045 0.65507 0.0
C3083 C 0.05908 0.5139 0.63072 0.0
C3084 C 0.05911 0.54655 0.64169 0.0
C3085 C 0.05863 0.54061 0.65954 0.0
C3086 C 0.05738 0.50267 0.66621 0.0
C3087 C 0.05875 0.58668 0.63434 0.0
C3088 C 0.06672 0.61449 0.63951 0.0
C3089 C 0.05064 0.5972 0.6219 0.0
C3090 C 0.04137 0.57054 0.61699 0.0
C3091 C 0.03415 0.55519 0.62957 0.0
C3092 C 0.02551 0.52976 0.62489 0.0
C3093 C 0.02394 0.51971 0.60766 0.0
C3094 C 0.03099 0.53517 0.59507 0.0
C3095 C 0.03966 0.56057 0.59967 0.0
H3096 H 0.01725 0.50001 0.60407 0.0
H3097 H 0.09784 0.7561 0.65336 0.0
H3098 H 0.21608 0.45113 0.62662 0.0
H3099 H 0.21198 0.51567 0.63847 0.0
H3100 H 0.19738 0.55092 0.59025 0.0
H3101 H 0.20134 0.48566 0.57823 0.0
H3102 H 0.21319 0.60503 0.60549 0.0
H3103 H 0.18141 0.52716 0.6206 0.0
H3104 H 0.17285 0.46781 0.63288 0.0
H3105 H 0.18473 0.49976 0.68295 0.0
H3106 H 0.19409 0.5579 0.67081 0.0
H3107 H 0.19643 0.78516 0.63573 0.0
H3108 H 0.19434 0.72002 0.62345 0.0
H3109 H 0.20192 0.66841 0.67272 0.0
H3110 H 0.20314 0.73437 0.68543 0.0
H3111 H 0.1882 0.6218 0.65584 0.0
H3112 H 0.22258 0.68657 0.64218 0.0
H3113 H 0.23447 0.74042 0.63153 0.0
H3114 H 0.21978 0.72965 0.58145 0.0
H3115 H 0.20768 0.67606 0.59187 0.0
C3116 C 0.21198 0.47249 0.61849 0.0
C3117 C 0.20896 0.4633 0.60151 0.0
C3118 C 0.20963 0.50931 0.62532 0.0
C3119 C 0.20426 0.53769 0.61528 0.0
C3120 C 0.20147 0.52911 0.59818 0.0
C3121 C 0.20372 0.49197 0.59136 0.0
C3122 C 0.20176 0.5765 0.62273 0.0
C3123 C 0.20754 0.60894 0.61625 0.0
C3124 C 0.19471 0.58086 0.63722 0.0
C3125 C 0.18858 0.54688 0.64471 0.0
C3126 C 0.18234 0.52139 0.6342 0.0
C3127 C 0.17736 0.48783 0.64113 0.0
C3128 C 0.17818 0.48013 0.65869 0.0
C3129 C 0.18409 0.50579 0.66934 0.0
C3130 C 0.18931 0.53893 0.66241 0.0
C3131 C 0.19735 0.76002 0.64407 0.0
C3132 C 0.20004 0.76468 0.66147 0.0
C3133 C 0.19622 0.72272 0.63701 0.0
C3134 C 0.19835 0.68932 0.64701 0.0
C3135 C 0.20033 0.69379 0.66471 0.0
C3136 C 0.20106 0.73138 0.67195 0.0
C3137 C 0.19965 0.65052 0.63858 0.0
C3138 C 0.1937 0.61804 0.64491 0.0
C3139 C 0.2068 0.64564 0.62421 0.0
C3140 C 0.21415 0.67759 0.61785 0.0
C3141 C 0.22184 0.69585 0.62892 0.0
C3142 C 0.22862 0.72631 0.62292 0.0
C3143 C 0.22786 0.73852 0.60583 0.0
C3144 C 0.22034 0.7202 0.59469 0.0
C3145 C 0.21353 0.68977 0.60063 0.0
H3146 H 0.23311 0.76212 0.60122 0.0
H3147 H 0.17424 0.45428 0.66404 0.0
H3148 H 0.94328 0.54517 0.36605 0.0
H3149 H 0.93994 0.47919 0.37715 0.0
H3150 H 0.95801 0.43039 0.33418 0.0
H3151 H 0.96078 0.49673 0.32257 0.0
H3152 H 0.94154 0.38261 0.34304 0.0
H3153 H 0.97081 0.4517 0.3741 0.0
H3154 H 0.97824 0.507 0.3911 0.0
H3155 H 0.95354 0.48625 0.43004 0.0
H3156 H 0.9459 0.4311 0.41317 0.0
H3157 H 0.96555 0.21127 0.37682 0.0
H3158 H 0.96137 0.27577 0.36497 0.0
H3159 H 0.94255 0.3048 0.41047 0.0
H3160 H 0.94681 0.23997 0.42257 0.0
H3161 H 0.9566 0.36276 0.40179 0.0
H3162 H 0.92868 0.28891 0.37255 0.0
H3163 H 0.92091 0.23426 0.35556 0.0
H3164 H 0.94282 0.26282 0.31374 0.0
H3165 H 0.95069 0.31779 0.33046 0.0
C3166 C 0.94635 0.52033 0.35884 0.0
C3167 C 0.95237 0.52579 0.3436 0.0
C3168 C 0.94448 0.48262 0.36521 0.0
C3169 C 0.94902 0.44986 0.35678 0.0
C3170 C 0.95449 0.45522 0.34097 0.0
C3171 C 0.95609 0.49301 0.33436 0.0
C3172 C 0.94891 0.41063 0.3651 0.0
C3173 C 0.9449 0.37822 0.35584 0.0
C3174 C 0.95298 0.40498 0.38202 0.0
C3175 C 0.95774 0.43754 0.39232 0.0
C3176 C 0.96695 0.45904 0.38627 0.0
C3177 C 0.97119 0.49035 0.39587 0.0
C3178 C 0.96635 0.50018 0.41162 0.0
C3179 C 0.95728 0.47862 0.41783 0.0
C3180 C 0.953 0.44732 0.40827 0.0
C3181 C 0.96048 0.23126 0.38431 0.0
C3182 C 0.95652 0.22059 0.40065 0.0
C3183 C 0.95802 0.26804 0.37744 0.0
C3184 C 0.95149 0.29487 0.3867 0.0
C3185 C 0.94754 0.2844 0.40307 0.0
C3186 C 0.95 0.24745 0.40997 0.0
C3187 C 0.94944 0.33462 0.37961 0.0
C3188 C 0.95308 0.36716 0.3891 0.0
C3189 C 0.94502 0.34032 0.36293 0.0
C3190 C 0.94032 0.30732 0.35281 0.0
C3191 C 0.93189 0.28339 0.35977 0.0
C3192 C 0.92746 0.25239 0.35018 0.0
C3193 C 0.93142 0.24491 0.33363 0.0
C3194 C 0.93977 0.26861 0.32658 0.0
C3195 C 0.94418 0.29981 0.33608 0.0
H3196 H 0.92799 0.22084 0.32625 0.0
H3197 H 0.96963 0.52446 0.41902 0.0
H3198 H 0.79041 0.20968 0.36793 0.0
H3199 H 0.79298 0.27267 0.38222 0.0
H3200 H 0.8169 0.30694 0.34364 0.0
H3201 H 0.81431 0.24346 0.32907 0.0
H3202 H 0.82356 0.32286 0.37877 0.0
H3203 H 0.79305 0.3465 0.34061 0.0
H3204 H 0.77499 0.3328 0.32665 0.0
H3205 H 0.75844 0.3391 0.37549 0.0
H3206 H 0.77644 0.35225 0.38979 0.0
H3207 H 0.82124 0.52766 0.40111 0.0
H3208 H 0.82236 0.46251 0.38794 0.0
H3209 H 0.79506 0.42328 0.41982 0.0
H3210 H 0.79383 0.48888 0.43272 0.0
H3211 H 0.79095 0.41086 0.38656 0.0
H3212 H 0.82155 0.3867 0.42485 0.0
H3213 H 0.83964 0.40009 0.43879 0.0
H3214 H 0.85609 0.39525 0.38984 0.0
H3215 H 0.83807 0.38236 0.37557 0.0
C3216 C 0.79621 0.2306 0.36242 0.0
C3217 C 0.80212 0.2218 0.34733 0.0
C3218 C 0.79766 0.26656 0.37062 0.0
C3219 C 0.80508 0.29442 0.36393 0.0
C3220 C 0.81113 0.2857 0.34896 0.0
C3221 C 0.80959 0.24966 0.34061 0.0
C3222 C 0.80626 0.33279 0.37263 0.0
C3223 C 0.81651 0.34254 0.38026 0.0
C3224 C 0.79697 0.35783 0.37483 0.0
C3225 C 0.78611 0.35001 0.36629 0.0
C3226 C 0.78557 0.34462 0.3484 0.0
C3227 C 0.77534 0.33702 0.34042 0.0
C3228 C 0.76558 0.33499 0.35018 0.0
C3229 C 0.76602 0.34064 0.36794 0.0
C3230 C 0.77623 0.34821 0.37599 0.0
C3231 C 0.8157 0.50474 0.40559 0.0
C3232 C 0.8075 0.51283 0.41793 0.0
C3233 C 0.81636 0.46754 0.39811 0.0
C3234 C 0.8088 0.438 0.40291 0.0
C3235 C 0.80098 0.44565 0.41595 0.0
C3236 C 0.80033 0.48289 0.4234 0.0
C3237 C 0.8082 0.40083 0.39306 0.0
C3238 C 0.79804 0.39135 0.3851 0.0
C3239 C 0.81759 0.37621 0.39057 0.0
C3240 C 0.82843 0.38397 0.39912 0.0
C3241 C 0.82901 0.38885 0.41704 0.0
C3242 C 0.83925 0.39627 0.425 0.0
C3243 C 0.849 0.39863 0.4152 0.0
C3244 C 0.84853 0.39347 0.39741 0.0
C3245 C 0.8383 0.38607 0.38938 0.0
H3246 H 0.85692 0.40437 0.42139 0.0
H3247 H 0.75766 0.32911 0.34398 0.0
H3248 H 0.564 0.94855 0.63304 0.0
H3249 H 0.56531 0.0157 0.62205 0.0
H3250 H 0.55777 0.06074 0.67246 0.0
H3251 H 0.55693 0.99337 0.68374 0.0
H3252 H 0.54236 0.07253 0.63708 0.0
H3253 H 0.57714 0.09256 0.66694 0.0
H3254 H 0.59671 0.08087 0.6752 0.0
H3255 H 0.6069 0.09376 0.62264 0.0
H3256 H 0.58732 0.10437 0.61398 0.0
H3257 H 0.53886 0.27494 0.62145 0.0
H3258 H 0.54297 0.21144 0.6343 0.0
H3259 H 0.56429 0.18265 0.59147 0.0
H3260 H 0.56027 0.2469 0.57847 0.0
H3261 H 0.57362 0.16269 0.62317 0.0
H3262 H 0.53924 0.14289 0.59312 0.0
H3263 H 0.51988 0.15763 0.58452 0.0
H3264 H 0.50908 0.14479 0.6368 0.0
H3265 H 0.52842 0.13052 0.64576 0.0
C3266 C 0.56293 0.9728 0.64187 0.0
C3267 C 0.56032 0.96598 0.6592 0.0
C3268 C 0.56375 0.01106 0.63561 0.0
C3269 C 0.56176 0.043 0.6465 0.0
C3270 C 0.55954 0.03635 0.66396 0.0
C3271 C 0.55904 -0.00201 0.67036 0.0
C3272 C 0.56008 0.08225 0.63894 0.0
C3273 C 0.54917 0.09258 0.63428 0.0
C3274 C 0.56904 0.10746 0.63477 0.0
C3275 C 0.58071 0.09853 0.63977 0.0
C3276 C 0.5835 0.09194 0.65707 0.0
C3277 C 0.59461 0.08577 0.66185 0.0
C3278 C 0.60304 0.08659 0.64945 0.0
C3279 C 0.60036 0.0932 0.63223 0.0
C3280 C 0.58925 0.09912 0.62738 0.0
C3281 C 0.54443 0.25518 0.61471 0.0
C3282 C 0.5492 0.26578 0.59888 0.0
C3283 C 0.54675 0.21885 0.62208 0.0
C3284 C 0.55384 0.19223 0.61376 0.0
C3285 C 0.55878 0.20284 0.59807 0.0
C3286 C 0.55643 0.23936 0.59062 0.0
C3287 C 0.55588 0.15318 0.62148 0.0
C3288 C 0.56682 0.14267 0.626 0.0
C3289 C 0.54695 0.12756 0.62548 0.0
C3290 C 0.5353 0.13599 0.62013 0.0
C3291 C 0.53276 0.14352 0.60281 0.0
C3292 C 0.52178 0.15174 0.59786 0.0
C3293 C 0.51326 0.15224 0.61011 0.0
C3294 C 0.51569 0.14443 0.62733 0.0
C3295 C 0.52666 0.13624 0.63234 0.0
H3296 H 0.50477 0.15861 0.60626 0.0
H3297 H 0.61165 0.08226 0.65321 0.0
H3298 H 0.68885 0.26983 0.67473 0.0
H3299 H 0.68631 0.20409 0.66236 0.0
H3300 H 0.70881 0.2342 0.62109 0.0
H3301 H 0.71102 0.29969 0.63294 0.0
H3302 H 0.69278 0.19249 0.60858 0.0
H3303 H 0.71724 0.18266 0.65828 0.0
H3304 H 0.72201 0.18924 0.68897 0.0
H3305 H 0.6947 0.11356 0.7024 0.0
H3306 H 0.6897 0.1069 0.67177 0.0
H3307 H 0.72382 0.99344 0.61308 0.0
H3308 H 0.71873 0.05783 0.62408 0.0
H3309 H 0.68722 0.05125 0.59728 0.0
H3310 H 0.6926 0.98699 0.58552 0.0
H3311 H 0.7034 0.07876 0.64477 0.0
H3312 H 0.67783 0.14544 0.5898 0.0
H3313 H 0.67584 0.14069 0.55831 0.0
H3314 H 0.71012 0.10523 0.55394 0.0
H3315 H 0.71234 0.1102 0.58537 0.0
C3316 C 0.69317 0.26235 0.66296 0.0
C3317 C 0.7002 0.2897 0.65488 0.0
C3318 C 0.69172 0.22486 0.65591 0.0
C3319 C 0.69745 0.21404 0.64086 0.0
C3320 C 0.70424 0.24183 0.63262 0.0
C3321 C 0.70556 0.27924 0.63951 0.0
C3322 C 0.69713 0.1733 0.6341 0.0
C3323 C 0.69499 0.16752 0.61653 0.0
C3324 C 0.70003 0.14067 0.64441 0.0
C3325 C 0.70301 0.14471 0.6628 0.0
C3326 C 0.71221 0.16767 0.6678 0.0
C3327 C 0.71496 0.17137 0.68517 0.0
C3328 C 0.70864 0.15194 0.69763 0.0
C3329 C 0.69957 0.12868 0.69274 0.0
C3330 C 0.69677 0.12492 0.67538 0.0
C3331 C 0.71586 0.00594 0.60936 0.0
C3332 C 0.70863 0.98549 0.59839 0.0
C3333 C 0.71292 0.04262 0.61576 0.0
C3334 C 0.70257 0.05948 0.61159 0.0
C3335 C 0.69531 0.03913 0.60052 0.0
C3336 C 0.69838 0.00252 0.59379 0.0
C3337 C 0.69962 0.09824 0.61906 0.0
C3338 C 0.70098 0.10353 0.63684 0.0
C3339 C 0.69639 0.13061 0.60882 0.0
C3340 C 0.69519 0.12768 0.58993 0.0
C3341 C 0.68494 0.13667 0.5821 0.0
C3342 C 0.68377 0.13395 0.56427 0.0
C3343 C 0.69284 0.1225 0.55414 0.0
C3344 C 0.7031 0.11392 0.56181 0.0
C3345 C 0.70431 0.11663 0.57963 0.0
H3346 H 0.69192 0.12039 0.54035 0.0
H3347 H 0.71079 0.15483 0.71107 0.0
H3348 H 0.45962 0.70044 0.37624 0.0
H3349 H 0.4566 0.76547 0.36424 0.0
H3350 H 0.44291 0.80463 0.41254 0.0
H3351 H 0.44563 0.73866 0.42459 0.0
H3352 H 0.43139 0.83514 0.38549 0.0
H3353 H 0.46965 0.82519 0.4025 0.0
H3354 H 0.48841 0.79555 0.40407 0.0
H3355 H 0.49185 0.80582 0.34936 0.0
H3356 H 0.47305 0.83504 0.34744 0.0
H3357 H 0.45212 0.03742 0.3767 0.0
H3358 H 0.44837 0.97016 0.38594 0.0
H3359 H 0.44646 0.93326 0.33308 0.0
H3360 H 0.44974 0.00125 0.32367 0.0
H3361 H 0.46476 0.90144 0.36128 0.0
H3362 H 0.42612 0.91564 0.34537 0.0
H3363 H 0.40734 0.94511 0.34519 0.0
H3364 H 0.40488 0.92916 0.39975 0.0
H3365 H 0.42378 0.90041 0.40032 0.0
C3366 C 0.4559 0.72272 0.38433 0.0
C3367 C 0.45297 0.71458 0.40144 0.0
C3368 C 0.45419 0.75995 0.37743 0.0
C3369 C 0.44972 0.79007 0.38758 0.0
C3370 C 0.44641 0.78178 0.40451 0.0
C3371 C 0.44802 0.74422 0.4114 0.0
C3372 C 0.44905 0.83052 0.38065 0.0
C3373 C 0.4387 0.84983 0.38035 0.0
C3374 C 0.45857 0.8494 0.37371 0.0
C3375 C 0.4699 0.83193 0.37481 0.0
C3376 C 0.47438 0.82084 0.39079 0.0
C3377 C 0.48502 0.80417 0.39175 0.0
C3378 C 0.49131 0.79871 0.37682 0.0
C3379 C 0.48697 0.81002 0.36091 0.0
C3380 C 0.47632 0.82666 0.35988 0.0
C3381 C 0.45065 0.0152 0.36703 0.0
C3382 C 0.45128 0.02439 0.34947 0.0
C3383 C 0.44843 0.97689 0.37234 0.0
C3384 C 0.44703 0.94703 0.36018 0.0
C3385 C 0.44734 0.95621 0.34261 0.0
C3386 C 0.44926 0.99487 0.33728 0.0
C3387 C 0.4471 0.90584 0.36597 0.0
C3388 C 0.45742 0.88656 0.36625 0.0
C3389 C 0.4376 0.88743 0.37309 0.0
C3390 C 0.42645 0.90636 0.37291 0.0
C3391 C 0.42167 0.91907 0.35738 0.0
C3392 C 0.41097 0.93543 0.35719 0.0
C3393 C 0.40491 0.93892 0.37244 0.0
C3394 C 0.40958 0.92633 0.38794 0.0
C3395 C 0.42029 0.91008 0.3882 0.0
H3396 H 0.39662 0.95152 0.37227 0.0
H3397 H 0.49955 0.7858 0.37759 0.0
H3398 H 0.29202 0.70082 0.3677 0.0
H3399 H 0.29476 0.76512 0.38047 0.0
H3400 H 0.3148 0.80029 0.33709 0.0
H3401 H 0.31219 0.73499 0.32413 0.0
H3402 H 0.32355 0.82577 0.36895 0.0
H3403 H 0.28925 0.83086 0.3381 0.0
H3404 H 0.27065 0.80872 0.32865 0.0
H3405 H 0.25851 0.81718 0.3804 0.0
H3406 H 0.27711 0.83882 0.39022 0.0
H3407 H 0.30498 0.03318 0.37753 0.0
H3408 H 0.3078 0.96688 0.36662 0.0
H3409 H 0.30642 0.92141 0.41823 0.0
H3410 H 0.30405 0.9885 0.42943 0.0
H3411 H 0.28926 0.90184 0.38216 0.0
H3412 H 0.32532 0.8924 0.41243 0.0
H3413 H 0.34397 0.91811 0.41976 0.0
H3414 H 0.35254 0.92259 0.36625 0.0
H3415 H 0.33385 0.89748 0.35861 0.0
C3416 C 0.29706 0.72204 0.36083 0.0
C3417 C 0.30182 0.71297 0.34481 0.0
C3418 C 0.29861 0.75881 0.36818 0.0
C3419 C 0.30488 0.78751 0.35964 0.0
C3420 C 0.30993 0.77842 0.34385 0.0
C3421 C 0.30837 0.74132 0.33643 0.0
C3422 C 0.3056 0.82738 0.36707 0.0
C3423 C 0.31607 0.84253 0.37173 0.0
C3424 C 0.29582 0.84912 0.37075 0.0
C3425 C 0.28461 0.83608 0.36492 0.0
C3426 C 0.28265 0.82766 0.34749 0.0
C3427 C 0.2721 0.81526 0.34206 0.0
C3428 C 0.26341 0.81145 0.35392 0.0
C3429 C 0.26525 0.8201 0.37123 0.0
C3430 C 0.2758 0.83246 0.37674 0.0
C3431 C 0.30552 0.00927 0.38663 0.0
C3432 C 0.30426 0.01588 0.40433 0.0
C3433 C 0.3072 0.97146 0.38036 0.0
C3434 C 0.30746 0.93955 0.39165 0.0
C3435 C 0.30647 0.94596 0.40939 0.0
C3436 C 0.30507 0.9841 0.41574 0.0
C3437 C 0.30715 0.89959 0.38446 0.0
C3438 C 0.29672 0.88474 0.37958 0.0
C3439 C 0.31695 0.87854 0.38041 0.0
C3440 C 0.32815 0.89369 0.38495 0.0
C3441 C 0.33113 0.89941 0.40222 0.0
C3442 C 0.34172 0.91371 0.40644 0.0
C3443 C 0.34942 0.92215 0.39348 0.0
C3444 C 0.34656 0.91616 0.37627 0.0
C3445 C 0.33597 0.90187 0.372 0.0
H3446 H 0.35762 0.93319 0.39676 0.0
H3447 H 0.25524 0.80187 0.34969 0.0
H3448 H 0.54174 0.46397 0.12912 0.0
H3449 H 0.5473 0.52737 0.11769 0.0
H3450 H 0.56269 0.55692 0.16605 0.0
H3451 H 0.55743 0.49223 0.1776 0.0
H3452 H 0.54618 0.61259 0.15116 0.0
H3453 H 0.57951 0.54288 0.13691 0.0
H3454 H 0.59003 0.48665 0.12529 0.0
H3455 H 0.57658 0.50888 0.07512 0.0
H3456 H 0.56578 0.56475 0.08651 0.0
H3457 H 0.56186 0.79382 0.12085 0.0
H3458 H 0.56425 0.72889 0.13291 0.0
H3459 H 0.55605 0.67725 0.0839 0.0
H3460 H 0.55441 0.74327 0.07129 0.0
H3461 H 0.57099 0.63226 0.10078 0.0
H3462 H 0.53587 0.69239 0.11437 0.0
H3463 H 0.5234 0.74464 0.12497 0.0
H3464 H 0.5383 0.7365 0.175 0.0
H3465 H 0.55098 0.68455 0.16462 0.0
C3466 C 0.54641 0.48361 0.13734 0.0
C3467 C 0.54919 0.47308 0.15426 0.0
C3468 C 0.54961 0.51978 0.13073 0.0
C3469 C 0.5555 0.54638 0.14097 0.0
C3470 C 0.55823 0.53637 0.15795 0.0
C3471 C 0.5552 0.49963 0.16451 0.0
C3472 C 0.558 0.58563 0.13407 0.0
C3473 C 0.55182 0.61723 0.14044 0.0
C3474 C 0.56502 0.59085 0.11964 0.0
C3475 C 0.57176 0.55792 0.11261 0.0
C3476 C 0.57873 0.53564 0.12342 0.0
C3477 C 0.58475 0.50382 0.11687 0.0
C3478 C 0.58396 0.49415 0.09949 0.0
C3479 C 0.57718 0.51639 0.08859 0.0
C3480 C 0.57111 0.54818 0.09509 0.0
C3481 C 0.56081 0.76886 0.11246 0.0
C3482 C 0.55783 0.77363 0.09515 0.0
C3483 C 0.56215 0.73162 0.11943 0.0
C3484 C 0.56001 0.69825 0.10945 0.0
C3485 C 0.55767 0.70271 0.09186 0.0
C3486 C 0.55668 0.74031 0.0847 0.0
C3487 C 0.55915 0.65942 0.11791 0.0
C3488 C 0.56553 0.62787 0.11172 0.0
C3489 C 0.55212 0.65385 0.13236 0.0
C3490 C 0.54445 0.68488 0.13867 0.0
C3491 C 0.53654 0.70193 0.1276 0.0
C3492 C 0.52943 0.73147 0.13357 0.0
C3493 C 0.53008 0.74396 0.15063 0.0
C3494 C 0.53782 0.72684 0.16178 0.0
C3495 C 0.54496 0.69734 0.15587 0.0
H3496 H 0.52457 0.76683 0.15523 0.0
H3497 H 0.58861 0.46946 0.09445 0.0
H3498 H 0.70056 0.4439 0.12239 0.0
H3499 H 0.69922 0.50871 0.13533 0.0
H3500 H 0.69265 0.55936 0.08556 0.0
H3501 H 0.69373 0.49384 0.07249 0.0
H3502 H 0.71378 0.56362 0.1284 0.0
H3503 H 0.67997 0.64847 0.09094 0.0
H3504 H 0.66119 0.63921 0.07858 0.0
H3505 H 0.65469 0.54659 0.11458 0.0
H3506 H 0.67352 0.55468 0.12691 0.0
H3507 H 0.72258 0.76761 0.12823 0.0
H3508 H 0.71752 0.70151 0.11902 0.0
H3509 H 0.69199 0.69674 0.15801 0.0
H3510 H 0.69711 0.76327 0.1675 0.0
H3511 H 0.68548 0.66926 0.1233 0.0
H3512 H 0.71338 0.64934 0.16698 0.0
H3513 H 0.73149 0.66113 0.18114 0.0
H3514 H 0.7487 0.62366 0.13563 0.0
H3515 H 0.73068 0.61218 0.12111 0.0
C3516 C 0.69863 0.46866 0.11419 0.0
C3517 C 0.69742 0.4639 0.09637 0.0
C3518 C 0.69783 0.50573 0.12164 0.0
C3519 C 0.69588 0.53895 0.11144 0.0
C3520 C 0.69404 0.5341 0.09373 0.0
C3521 C 0.69474 0.49673 0.08625 0.0
C3522 C 0.69736 0.57856 0.11903 0.0
C3523 C 0.70752 0.58652 0.12736 0.0
C3524 C 0.68925 0.60861 0.11768 0.0
C3525 C 0.6782 0.60187 0.1097 0.0
C3526 C 0.67457 0.62584 0.09609 0.0
C3527 C 0.66393 0.62071 0.08906 0.0
C3528 C 0.6568 0.59198 0.09566 0.0
C3529 C 0.66031 0.56828 0.10927 0.0
C3530 C 0.67098 0.57297 0.11623 0.0
C3531 C 0.71589 0.75253 0.13488 0.0
C3532 C 0.71029 0.77038 0.14867 0.0
C3533 C 0.71301 0.71484 0.12958 0.0
C3534 C 0.70441 0.69439 0.13787 0.0
C3535 C 0.69864 0.71225 0.15147 0.0
C3536 C 0.70163 0.74998 0.15695 0.0
C3537 C 0.70183 0.6538 0.13253 0.0
C3538 C 0.6916 0.64595 0.12447 0.0
C3539 C 0.70983 0.62363 0.13419 0.0
C3540 C 0.72068 0.6302 0.14292 0.0
C3541 C 0.72103 0.6439 0.15995 0.0
C3542 C 0.73127 0.65048 0.16805 0.0
C3543 C 0.74124 0.64323 0.15928 0.0
C3544 C 0.74098 0.62929 0.1424 0.0
C3545 C 0.73075 0.6227 0.13424 0.0
H3546 H 0.74917 0.64834 0.16557 0.0
H3547 H 0.64853 0.58825 0.0903 0.0
H3548 H 0.44667 0.24135 0.92769 0.0
H3549 H 0.44335 0.30553 0.91418 0.0
H3550 H 0.46184 0.26822 0.86953 0.0
H3551 H 0.46512 0.20456 0.88277 0.0
H3552 H 0.4578 0.36211 0.90244 0.0
H3553 H 0.44805 0.30305 0.8331 0.0
H3554 H 0.44025 0.2427 0.82045 0.0
H3555 H 0.42319 0.21733 0.86761 0.0
H3556 H 0.43013 0.27897 0.88014 0.0
H3557 H 0.47267 0.49904 0.84279 0.0
H3558 H 0.46974 0.43524 0.85629 0.0
H3559 H 0.43439 0.44382 0.84619 0.0
H3560 H 0.43745 0.5074 0.8318 0.0
H3561 H 0.44158 0.3681 0.84378 0.0
H3562 H 0.44423 0.47081 0.88494 0.0
H3563 H 0.45246 0.53022 0.89785 0.0
H3564 H 0.48265 0.46696 0.90873 0.0
H3565 H 0.47467 0.40735 0.89561 0.0
C3566 C 0.45004 0.24699 0.91502 0.0
C3567 C 0.45608 0.21789 0.90623 0.0
C3568 C 0.44815 0.28358 0.90735 0.0
C3569 C 0.45219 0.29128 0.89076 0.0
C3570 C 0.45847 0.26258 0.88221 0.0
C3571 C 0.46036 0.22624 0.88983 0.0
C3572 C 0.44997 0.32923 0.88215 0.0
C3573 C 0.45414 0.36351 0.88971 0.0
C3574 C 0.44489 0.33104 0.86571 0.0
C3575 C 0.43976 0.29566 0.85767 0.0
C3576 C 0.44244 0.28514 0.84068 0.0
C3577 C 0.43811 0.25071 0.83349 0.0
C3578 C 0.43119 0.22629 0.8432 0.0
C3579 C 0.42845 0.23649 0.86004 0.0
C3580 C 0.43252 0.27133 0.86715 0.0
C3581 C 0.46432 0.48678 0.84306 0.0
C3582 C 0.45528 0.50781 0.83633 0.0
C3583 C 0.46263 0.45054 0.85087 0.0
C3584 C 0.4518 0.43535 0.8527 0.0
C3585 C 0.4428 0.45518 0.84502 0.0
C3586 C 0.44455 0.49129 0.83678 0.0
C3587 C 0.45001 0.40036 0.8637 0.0
C3588 C 0.44503 0.36675 0.85665 0.0
C3589 C 0.45416 0.39917 0.88075 0.0
C3590 C 0.45884 0.43459 0.88926 0.0
C3591 C 0.45263 0.46957 0.89007 0.0
C3592 C 0.45726 0.50331 0.8974 0.0
C3593 C 0.46807 0.50236 0.90411 0.0
C3594 C 0.47427 0.46763 0.90355 0.0
C3595 C 0.46968 0.43384 0.89619 0.0
H3596 H 0.47165 0.52853 0.90975 0.0
H3597 H 0.42795 0.19942 0.83769 0.0
H3598 H 0.29305 0.21499 0.87037 0.0
H3599 H 0.29725 0.28119 0.87998 0.0
H3600 H 0.31935 0.29719 0.83676 0.0
H3601 H 0.31494 0.2305 0.82677 0.0
H3602 H 0.31545 0.31658 0.89025 0.0
H3603 H 0.31806 0.39552 0.82536 0.0
H3604 H 0.31154 0.38812 0.79545 0.0
H3605 H 0.28297 0.32334 0.81296 0.0
H3606 H 0.28926 0.33076 0.84296 0.0
H3607 H 0.32136 0.5195 0.9124 0.0
H3608 H 0.32519 0.45554 0.8991 0.0
H3609 H 0.29287 0.45878 0.87451 0.0
H3610 H 0.2894 0.5233 0.88685 0.0
H3611 H 0.3065 0.43057 0.85313 0.0
H3612 H 0.29935 0.40532 0.91403 0.0
H3613 H 0.30323 0.41211 0.94502 0.0
H3614 H 0.33643 0.36796 0.93732 0.0
H3615 H 0.33277 0.36125 0.90626 0.0
C3616 C 0.29882 0.23247 0.86288 0.0
C3617 C 0.30362 0.21765 0.84775 0.0
C3618 C 0.30128 0.27029 0.86847 0.0
C3619 C 0.30861 0.29422 0.85911 0.0
C3620 C 0.3136 0.27934 0.84411 0.0
C3621 C 0.31107 0.24132 0.83842 0.0
C3622 C 0.31048 0.33517 0.86492 0.0
C3623 C 0.31362 0.34156 0.88207 0.0
C3624 C 0.3081 0.36778 0.8543 0.0
C3625 C 0.30422 0.3632 0.83634 0.0
C3626 C 0.31039 0.37971 0.8228 0.0
C3627 C 0.30673 0.37554 0.80585 0.0
C3628 C 0.29688 0.35512 0.8023 0.0
C3629 C 0.29063 0.33898 0.81571 0.0
C3630 C 0.29424 0.34312 0.83269 0.0
C3631 C 0.31511 0.50633 0.90416 0.0
C3632 C 0.30505 0.52594 0.90074 0.0
C3633 C 0.31729 0.46985 0.89657 0.0
C3634 C 0.30926 0.45195 0.88594 0.0
C3635 C 0.29925 0.47192 0.88253 0.0
C3636 C 0.29722 0.50867 0.8897 0.0
C3637 C 0.3109 0.41193 0.87874 0.0
C3638 C 0.30857 0.40572 0.86124 0.0
C3639 C 0.31366 0.37936 0.8892 0.0
C3640 C 0.31583 0.38322 0.90784 0.0
C3641 C 0.30749 0.39727 0.91896 0.0
C3642 C 0.30965 0.40108 0.93652 0.0
C3643 C 0.32008 0.39059 0.94313 0.0
C3644 C 0.32836 0.37615 0.93219 0.0
C3645 C 0.32625 0.37232 0.91461 0.0
H3646 H 0.32173 0.39357 0.95673 0.0
H3647 H 0.29406 0.35191 0.78917 0.0
loop_
_geom_bond_atom_site_label_1
_geom_bond_atom_site_label_2
_geom_bond_distance
_geom_bond_site_symmetry_2
_ccdc_geom_bond_type
Co0 O1 2.216 . S
Co0 O2 2.091 . S
Co0 O4 2.004 . S
Co0 O10 2.021 . S
Co0 O12 2.137 . S
Co0 O13 2.244 . S
O1 Co0 2.216 . S
O1 C8 1.247 . S
O2 Co0 2.091 . S
O2 C8 1.261 . S
C3 O12 1.247 . S
C3 O13 1.272 . S
O4 Co0 2.004 . S
O4 C9 1.259 . S
Co5 O6 2.061 . S
Co5 O11 2.052 . S
Co5 O13 2.135 . S
O6 Co5 2.061 . S
O6 C9 1.235 . S
C7 O10 1.238 . S
C7 O11 1.241 . S
C8 O1 1.247 . S
C8 O2 1.261 . S
C9 O4 1.259 . S
C9 O6 1.235 . S
O10 Co0 2.021 . S
O10 C7 1.238 . S
O11 Co5 2.052 . S
O11 C7 1.241 . S
O12 Co0 2.137 . S
O12 C3 1.247 . S
O13 Co0 2.244 . S
O13 C3 1.272 . S
O13 Co5 2.135 . S
Co14 O15 2.216 . S
Co14 O16 2.091 . S
Co14 O18 2.004 . S
Co14 O24 2.021 . S
Co14 O26 2.137 . S
Co14 O27 2.244 . S
O15 Co14 2.216 . S
O15 C22 1.247 . S
O16 Co14 2.091 . S
O16 C22 1.261 . S
C17 O26 1.247 . S
C17 O27 1.272 . S
O18 Co14 2.004 . S
O18 C23 1.259 . S
Co19 O20 2.061 . S
Co19 O25 2.052 . S
Co19 O27 2.135 . S
O20 Co19 2.061 . S
O20 C23 1.235 . S
C21 O24 1.238 . S
C21 O25 1.241 . S
C22 O15 1.247 . S
C22 O16 1.261 . S
C23 O18 1.259 . S
C23 O20 1.235 . S
O24 Co14 2.021 . S
O24 C21 1.238 . S
O25 Co19 2.052 . S
O25 C21 1.241 . S
O26 Co14 2.137 . S
O26 C17 1.247 . S
O27 Co14 2.244 . S
O27 C17 1.272 . S
O27 Co19 2.135 . S
Co28 O29 2.216 . S
Co28 O30 2.091 . S
Co28 O32 2.004 . S
Co28 O38 2.021 . S
Co28 O40 2.137 . S
Co28 O41 2.244 . S
O29 Co28 2.216 . S
O29 C36 1.247 . S
O30 Co28 2.091 . S
O30 C36 1.261 . S
C31 O40 1.247 . S
C31 O41 1.272 . S
O32 Co28 2.004 . S
O32 C37 1.259 . S
Co33 O34 2.061 . S
Co33 O39 2.052 . S
Co33 O41 2.135 . S
O34 Co33 2.061 . S
O34 C37 1.235 . S
C35 O38 1.238 . S
C35 O39 1.241 . S
C36 O29 1.247 . S
C36 O30 1.261 . S
C37 O32 1.259 . S
C37 O34 1.235 . S
O38 Co28 2.021 . S
O38 C35 1.238 . S
O39 Co33 2.052 . S
O39 C35 1.241 . S
O40 Co28 2.137 . S
O40 C31 1.247 . S
O41 Co28 2.244 . S
O41 C31 1.272 . S
O41 Co33 2.135 . S
Co42 O43 2.216 . S
Co42 O44 2.091 . S
Co42 O46 2.004 . S
Co42 O52 2.021 . S
Co42 O54 2.137 . S
Co42 O55 2.244 . S
O43 Co42 2.216 . S
O43 C50 1.247 . S
O44 Co42 2.091 . S
O44 C50 1.261 . S
C45 O54 1.247 . S
C45 O55 1.272 . S
O46 Co42 2.004 . S
O46 C51 1.259 . S
Co47 O48 2.061 . S
Co47 O53 2.052 . S
Co47 O55 2.135 . S
O48 Co47 2.061 . S
O48 C51 1.235 . S
C49 O52 1.238 . S
C49 O53 1.241 . S
C50 O43 1.247 . S
C50 O44 1.261 . S
C51 O46 1.259 . S
C51 O48 1.235 . S
O52 Co42 2.021 . S
O52 C49 1.238 . S
O53 Co47 2.052 . S
O53 C49 1.241 . S
O54 Co42 2.137 . S
O54 C45 1.247 . S
O55 Co42 2.244 . S
O55 C45 1.272 . S
O55 Co47 2.135 . S
Co56 O57 2.216 . S
Co56 O58 2.091 . S
Co56 O60 2.004 . S
Co56 O66 2.021 . S
Co56 O68 2.137 . S
Co56 O69 2.244 . S
O57 Co56 2.216 . S
O57 C64 1.247 . S
O58 Co56 2.091 . S
O58 C64 1.261 . S
C59 O68 1.247 . S
C59 O69 1.272 . S
O60 Co56 2.004 . S
O60 C65 1.259 . S
Co61 O62 2.061 . S
Co61 O67 2.052 . S
Co61 O69 2.135 . S
O62 Co61 2.061 . S
O62 C65 1.235 . S
C63 O66 1.238 . S
C63 O67 1.241 . S
C64 O57 1.247 . S
C64 O58 1.261 . S
C65 O60 1.259 . S
C65 O62 1.235 . S
O66 Co56 2.021 . S
O66 C63 1.238 . S
O67 Co61 2.052 . S
O67 C63 1.241 . S
O68 Co56 2.137 . S
O68 C59 1.247 . S
O69 Co56 2.244 . S
O69 C59 1.272 . S
O69 Co61 2.135 . S
Co70 O71 2.216 . S
Co70 O72 2.091 . S
Co70 O74 2.004 . S
Co70 O80 2.021 . S
Co70 O82 2.137 . S
Co70 O83 2.244 . S
O71 Co70 2.216 . S
O71 C78 1.247 . S
O72 Co70 2.091 . S
O72 C78 1.261 . S
C73 O82 1.247 . S
C73 O83 1.272 . S
O74 Co70 2.004 . S
O74 C79 1.259 . S
Co75 O76 2.061 . S
Co75 O81 2.052 . S
Co75 O83 2.135 . S
O76 Co75 2.061 . S
O76 C79 1.235 . S
C77 O80 1.238 . S
C77 O81 1.241 . S
C78 O71 1.247 . S
C78 O72 1.261 . S
C79 O74 1.259 . S
C79 O76 1.235 . S
O80 Co70 2.021 . S
O80 C77 1.238 . S
O81 Co75 2.052 . S
O81 C77 1.241 . S
O82 Co70 2.137 . S
O82 C73 1.247 . S
O83 Co70 2.244 . S
O83 C73 1.272 . S
O83 Co75 2.135 . S
Co84 O85 2.216 . S
Co84 O86 2.091 . S
Co84 O88 2.004 . S
Co84 O94 2.021 . S
Co84 O96 2.137 . S
Co84 O97 2.244 . S
O85 Co84 2.216 . S
O85 C92 1.247 . S
O86 Co84 2.091 . S
O86 C92 1.261 . S
C87 O96 1.247 . S
C87 O97 1.272 . S
O88 Co84 2.004 . S
O88 C93 1.259 . S
Co89 O90 2.061 . S
Co89 O95 2.052 . S
Co89 O97 2.135 . S
O90 Co89 2.061 . S
O90 C93 1.235 . S
C91 O94 1.238 . S
C91 O95 1.241 . S
C92 O85 1.247 . S
C92 O86 1.261 . S
C93 O88 1.259 . S
C93 O90 1.235 . S
O94 Co84 2.021 . S
O94 C91 1.238 . S
O95 Co89 2.052 . S
O95 C91 1.241 . S
O96 Co84 2.137 . S
O96 C87 1.247 . S
O97 Co84 2.244 . S
O97 C87 1.272 . S
O97 Co89 2.135 . S
Co98 O99 2.216 . S
Co98 O100 2.091 . S
Co98 O102 2.004 . S
Co98 O108 2.021 . S
Co98 O110 2.137 . S
Co98 O111 2.244 . S
O99 Co98 2.216 . S
O99 C106 1.247 . S
O100 Co98 2.091 . S
O100 C106 1.261 . S
C101 O110 1.247 . S
C101 O111 1.272 . S
O102 Co98 2.004 . S
O102 C107 1.259 . S
Co103 O104 2.061 . S
Co103 O109 2.052 . S
Co103 O111 2.135 . S
O104 Co103 2.061 . S
O104 C107 1.235 . S
C105 O108 1.238 . S
C105 O109 1.241 . S
C106 O99 1.247 . S
C106 O100 1.261 . S
C107 O102 1.259 . S
C107 O104 1.235 . S
O108 Co98 2.021 . S
O108 C105 1.238 . S
O109 Co103 2.052 . S
O109 C105 1.241 . S
O110 Co98 2.137 . S
O110 C101 1.247 . S
O111 Co98 2.244 . S
O111 C101 1.272 . S
O111 Co103 2.135 . S
Co112 O113 2.216 . S
Co112 O114 2.091 . S
Co112 O116 2.004 . S
Co112 O122 2.021 . S
Co112 O124 2.137 . S
Co112 O125 2.244 . S
O113 Co112 2.216 . S
O113 C120 1.247 . S
O114 Co112 2.091 . S
O114 C120 1.261 . S
C115 O124 1.247 . S
C115 O125 1.272 . S
O116 Co112 2.004 . S
O116 C121 1.259 . S
Co117 O118 2.061 . S
Co117 O123 2.052 . S
Co117 O125 2.135 . S
O118 Co117 2.061 . S
O118 C121 1.235 . S
C119 O122 1.238 . S
C119 O123 1.241 . S
C120 O113 1.247 . S
C120 O114 1.261 . S
C121 O116 1.259 . S
C121 O118 1.235 . S
O122 Co112 2.021 . S
O122 C119 1.238 . S
O123 Co117 2.052 . S
O123 C119 1.241 . S
O124 Co112 2.137 . S
O124 C115 1.247 . S
O125 Co112 2.244 . S
O125 C115 1.272 . S
O125 Co117 2.135 . S
Co126 O127 2.216 . S
Co126 O128 2.091 . S
Co126 O130 2.004 . S
Co126 O136 2.021 . S
Co126 O138 2.137 . S
Co126 O139 2.244 . S
O127 Co126 2.216 . S
O127 C134 1.247 . S
O128 Co126 2.091 . S
O128 C134 1.261 . S
C129 O138 1.247 . S
C129 O139 1.272 . S
O130 Co126 2.004 . S
O130 C135 1.259 . S
Co131 O132 2.061 . S
Co131 O137 2.052 . S
Co131 O139 2.135 . S
O132 Co131 2.061 . S
O132 C135 1.235 . S
C133 O136 1.238 . S
C133 O137 1.241 . S
C134 O127 1.247 . S
C134 O128 1.261 . S
C135 O130 1.259 . S
C135 O132 1.235 . S
O136 Co126 2.021 . S
O136 C133 1.238 . S
O137 Co131 2.052 . S
O137 C133 1.241 . S
O138 Co126 2.137 . S
O138 C129 1.247 . S
O139 Co126 2.244 . S
O139 C129 1.272 . S
O139 Co131 2.135 . S
Co140 O141 2.216 . S
Co140 O142 2.091 . S
Co140 O144 2.004 . S
Co140 O150 2.021 . S
Co140 O152 2.137 . S
Co140 O153 2.244 . S
O141 Co140 2.216 . S
O141 C148 1.247 . S
O142 Co140 2.091 . S
O142 C148 1.261 . S
C143 O152 1.247 . S
C143 O153 1.272 . S
O144 Co140 2.004 . S
O144 C149 1.259 . S
Co145 O146 2.061 . S
Co145 O151 2.052 . S
Co145 O153 2.135 . S
O146 Co145 2.061 . S
O146 C149 1.235 . S
C147 O150 1.238 . S
C147 O151 1.241 . S
C148 O141 1.247 . S
C148 O142 1.261 . S
C149 O144 1.259 . S
C149 O146 1.235 . S
O150 Co140 2.021 . S
O150 C147 1.238 . S
O151 Co145 2.052 . S
O151 C147 1.241 . S
O152 Co140 2.137 . S
O152 C143 1.247 . S
O153 Co140 2.244 . S
O153 C143 1.272 . S
O153 Co145 2.135 . S
Co154 O155 2.216 . S
Co154 O156 2.091 . S
Co154 O158 2.004 . S
Co154 O164 2.021 . S
Co154 O166 2.137 . S
Co154 O167 2.244 . S
O155 Co154 2.216 . S
O155 C162 1.247 . S
O156 Co154 2.091 . S
O156 C162 1.261 . S
C157 O166 1.247 . S
C157 O167 1.272 . S
O158 Co154 2.004 . S
O158 C163 1.259 . S
Co159 O160 2.061 . S
Co159 O165 2.052 . S
Co159 O167 2.135 . S
O160 Co159 2.061 . S
O160 C163 1.235 . S
C161 O164 1.238 . S
C161 O165 1.241 . S
C162 O155 1.247 . S
C162 O156 1.261 . S
C163 O158 1.259 . S
C163 O160 1.235 . S
O164 Co154 2.021 . S
O164 C161 1.238 . S
O165 Co159 2.052 . S
O165 C161 1.241 . S
O166 Co154 2.137 . S
O166 C157 1.247 . S
O167 Co154 2.244 . S
O167 C157 1.272 . S
O167 Co159 2.135 . S
Co168 O169 2.216 . S
Co168 O170 2.091 . S
Co168 O172 2.004 . S
Co168 O178 2.021 . S
Co168 O180 2.137 . S
Co168 O181 2.244 . S
O169 Co168 2.216 . S
O169 C176 1.247 . S
O170 Co168 2.091 . S
O170 C176 1.261 . S
C171 O180 1.247 . S
C171 O181 1.272 . S
O172 Co168 2.004 . S
O172 C177 1.259 . S
Co173 O174 2.061 . S
Co173 O179 2.052 . S
Co173 O181 2.135 . S
O174 Co173 2.061 . S
O174 C177 1.235 . S
C175 O178 1.238 . S
C175 O179 1.241 . S
C176 O169 1.247 . S
C176 O170 1.261 . S
C177 O172 1.259 . S
C177 O174 1.235 . S
O178 Co168 2.021 . S
O178 C175 1.238 . S
O179 Co173 2.052 . S
O179 C175 1.241 . S
O180 Co168 2.137 . S
O180 C171 1.247 . S
O181 Co168 2.244 . S
O181 C171 1.272 . S
O181 Co173 2.135 . S
Co182 O183 2.216 . S
Co182 O184 2.091 . S
Co182 O186 2.004 . S
Co182 O192 2.021 . S
Co182 O194 2.137 . S
Co182 O195 2.244 . S
O183 Co182 2.216 . S
O183 C190 1.247 . S
O184 Co182 2.091 . S
O184 C190 1.261 . S
C185 O194 1.247 . S
C185 O195 1.272 . S
O186 Co182 2.004 . S
O186 C191 1.259 . S
Co187 O188 2.061 . S
Co187 O193 2.052 . S
Co187 O195 2.135 . S
O188 Co187 2.061 . S
O188 C191 1.235 . S
C189 O192 1.238 . S
C189 O193 1.241 . S
C190 O183 1.247 . S
C190 O184 1.261 . S
C191 O186 1.259 . S
C191 O188 1.235 . S
O192 Co182 2.021 . S
O192 C189 1.238 . S
O193 Co187 2.052 . S
O193 C189 1.241 . S
O194 Co182 2.137 . S
O194 C185 1.247 . S
O195 Co182 2.244 . S
O195 C185 1.272 . S
O195 Co187 2.135 . S
Co196 O197 2.216 . S
Co196 O198 2.091 . S
Co196 O200 2.004 . S
Co196 O206 2.021 . S
Co196 O208 2.137 . S
Co196 O209 2.244 . S
O197 Co196 2.216 . S
O197 C204 1.247 . S
O198 Co196 2.091 . S
O198 C204 1.261 . S
C199 O208 1.247 . S
C199 O209 1.272 . S
O200 Co196 2.004 . S
O200 C205 1.259 . S
Co201 O202 2.061 . S
Co201 O207 2.052 . S
Co201 O209 2.135 . S
O202 Co201 2.061 . S
O202 C205 1.235 . S
C203 O206 1.238 . S
C203 O207 1.241 . S
C204 O197 1.247 . S
C204 O198 1.261 . S
C205 O200 1.259 . S
C205 O202 1.235 . S
O206 Co196 2.021 . S
O206 C203 1.238 . S
O207 Co201 2.052 . S
O207 C203 1.241 . S
O208 Co196 2.137 . S
O208 C199 1.247 . S
O209 Co196 2.244 . S
O209 C199 1.272 . S
O209 Co201 2.135 . S
Co210 O211 2.216 . S
Co210 O212 2.091 . S
Co210 O214 2.004 . S
Co210 O220 2.021 . S
Co210 O222 2.137 . S
Co210 O223 2.244 . S
O211 Co210 2.216 . S
O211 C218 1.247 . S
O212 Co210 2.091 . S
O212 C218 1.261 . S
C213 O222 1.247 . S
C213 O223 1.272 . S
O214 Co210 2.004 . S
O214 C219 1.259 . S
Co215 O216 2.061 . S
Co215 O221 2.052 . S
Co215 O223 2.135 . S
O216 Co215 2.061 . S
O216 C219 1.235 . S
C217 O220 1.238 . S
C217 O221 1.241 . S
C218 O211 1.247 . S
C218 O212 1.261 . S
C219 O214 1.259 . S
C219 O216 1.235 . S
O220 Co210 2.021 . S
O220 C217 1.238 . S
O221 Co215 2.052 . S
O221 C217 1.241 . S
O222 Co210 2.137 . S
O222 C213 1.247 . S
O223 Co210 2.244 . S
O223 C213 1.272 . S
O223 Co215 2.135 . S
Co224 O225 2.216 . S
Co224 O226 2.091 . S
Co224 O228 2.004 . S
Co224 O234 2.021 . S
Co224 O236 2.137 . S
Co224 O237 2.244 . S
O225 Co224 2.216 . S
O225 C232 1.247 . S
O226 Co224 2.091 . S
O226 C232 1.261 . S
C227 O236 1.247 . S
C227 O237 1.272 . S
O228 Co224 2.004 . S
O228 C233 1.259 . S
Co229 O230 2.061 . S
Co229 O235 2.052 . S
Co229 O237 2.135 . S
O230 Co229 2.061 . S
O230 C233 1.235 . S
C231 O234 1.238 . S
C231 O235 1.241 . S
C232 O225 1.247 . S
C232 O226 1.261 . S
C233 O228 1.259 . S
C233 O230 1.235 . S
O234 Co224 2.021 . S
O234 C231 1.238 . S
O235 Co229 2.052 . S
O235 C231 1.241 . S
O236 Co224 2.137 . S
O236 C227 1.247 . S
O237 Co224 2.244 . S
O237 C227 1.272 . S
O237 Co229 2.135 . S
Co238 O239 2.216 . S
Co238 O240 2.091 . S
Co238 O242 2.004 . S
Co238 O248 2.021 . S
Co238 O250 2.137 . S
Co238 O251 2.244 . S
O239 Co238 2.216 . S
O239 C246 1.247 . S
O240 Co238 2.091 . S
O240 C246 1.261 . S
C241 O250 1.247 . S
C241 O251 1.272 . S
O242 Co238 2.004 . S
O242 C247 1.259 . S
Co243 O244 2.061 . S
Co243 O249 2.052 . S
Co243 O251 2.135 . S
O244 Co243 2.061 . S
O244 C247 1.235 . S
C245 O248 1.238 . S
C245 O249 1.241 . S
C246 O239 1.247 . S
C246 O240 1.261 . S
C247 O242 1.259 . S
C247 O244 1.235 . S
O248 Co238 2.021 . S
O248 C245 1.238 . S
O249 Co243 2.052 . S
O249 C245 1.241 . S
O250 Co238 2.137 . S
O250 C241 1.247 . S
O251 Co238 2.244 . S
O251 C241 1.272 . S
O251 Co243 2.135 . S
Co252 O253 2.216 . S
Co252 O254 2.091 . S
Co252 O256 2.004 . S
Co252 O262 2.021 . S
Co252 O264 2.137 . S
Co252 O265 2.244 . S
O253 Co252 2.216 . S
O253 C260 1.247 . S
O254 Co252 2.091 . S
O254 C260 1.261 . S
C255 O264 1.247 . S
C255 O265 1.272 . S
O256 Co252 2.004 . S
O256 C261 1.259 . S
Co257 O258 2.061 . S
Co257 O263 2.052 . S
Co257 O265 2.135 . S
O258 Co257 2.061 . S
O258 C261 1.235 . S
C259 O262 1.238 . S
C259 O263 1.241 . S
C260 O253 1.247 . S
C260 O254 1.261 . S
C261 O256 1.259 . S
C261 O258 1.235 . S
O262 Co252 2.021 . S
O262 C259 1.238 . S
O263 Co257 2.052 . S
O263 C259 1.241 . S
O264 Co252 2.137 . S
O264 C255 1.247 . S
O265 Co252 2.244 . S
O265 C255 1.272 . S
O265 Co257 2.135 . S
Co266 O267 2.216 . S
Co266 O268 2.091 . S
Co266 O270 2.004 . S
Co266 O276 2.021 . S
Co266 O278 2.137 . S
Co266 O279 2.244 . S
O267 Co266 2.216 . S
O267 C274 1.247 . S
O268 Co266 2.091 . S
O268 C274 1.261 . S
C269 O278 1.247 . S
C269 O279 1.272 . S
O270 Co266 2.004 . S
O270 C275 1.259 . S
Co271 O272 2.061 . S
Co271 O277 2.052 . S
Co271 O279 2.135 . S
O272 Co271 2.061 . S
O272 C275 1.235 . S
C273 O276 1.238 . S
C273 O277 1.241 . S
C274 O267 1.247 . S
C274 O268 1.261 . S
C275 O270 1.259 . S
C275 O272 1.235 . S
O276 Co266 2.021 . S
O276 C273 1.238 . S
O277 Co271 2.052 . S
O277 C273 1.241 . S
O278 Co266 2.137 . S
O278 C269 1.247 . S
O279 Co266 2.244 . S
O279 C269 1.272 . S
O279 Co271 2.135 . S
Co280 O281 2.216 . S
Co280 O282 2.091 . S
Co280 O284 2.004 . S
Co280 O290 2.021 . S
Co280 O292 2.137 . S
Co280 O293 2.244 . S
O281 Co280 2.216 . S
O281 C288 1.247 . S
O282 Co280 2.091 . S
O282 C288 1.261 . S
C283 O292 1.247 . S
C283 O293 1.272 . S
O284 Co280 2.004 . S
O284 C289 1.259 . S
Co285 O286 2.061 . S
Co285 O291 2.052 . S
Co285 O293 2.135 . S
O286 Co285 2.061 . S
O286 C289 1.235 . S
C287 O290 1.238 . S
C287 O291 1.241 . S
C288 O281 1.247 . S
C288 O282 1.261 . S
C289 O284 1.259 . S
C289 O286 1.235 . S
O290 Co280 2.021 . S
O290 C287 1.238 . S
O291 Co285 2.052 . S
O291 C287 1.241 . S
O292 Co280 2.137 . S
O292 C283 1.247 . S
O293 Co280 2.244 . S
O293 C283 1.272 . S
O293 Co285 2.135 . S
Co294 O295 2.216 . S
Co294 O296 2.091 . S
Co294 O298 2.004 . S
Co294 O304 2.021 . S
Co294 O306 2.137 . S
Co294 O307 2.244 . S
O295 Co294 2.216 . S
O295 C302 1.247 . S
O296 Co294 2.091 . S
O296 C302 1.261 . S
C297 O306 1.247 . S
C297 O307 1.272 . S
O298 Co294 2.004 . S
O298 C303 1.259 . S
Co299 O300 2.061 . S
Co299 O305 2.052 . S
Co299 O307 2.135 . S
O300 Co299 2.061 . S
O300 C303 1.235 . S
C301 O304 1.238 . S
C301 O305 1.241 . S
C302 O295 1.247 . S
C302 O296 1.261 . S
C303 O298 1.259 . S
C303 O300 1.235 . S
O304 Co294 2.021 . S
O304 C301 1.238 . S
O305 Co299 2.052 . S
O305 C301 1.241 . S
O306 Co294 2.137 . S
O306 C297 1.247 . S
O307 Co294 2.244 . S
O307 C297 1.272 . S
O307 Co299 2.135 . S
Co308 O309 2.216 . S
Co308 O310 2.091 . S
Co308 O312 2.004 . S
Co308 O318 2.021 . S
Co308 O320 2.137 . S
Co308 O321 2.244 . S
O309 Co308 2.216 . S
O309 C316 1.247 . S
O310 Co308 2.091 . S
O310 C316 1.261 . S
C311 O320 1.247 . S
C311 O321 1.272 . S
O312 Co308 2.004 . S
O312 C317 1.259 . S
Co313 O314 2.061 . S
Co313 O319 2.052 . S
Co313 O321 2.135 . S
O314 Co313 2.061 . S
O314 C317 1.235 . S
C315 O318 1.238 . S
C315 O319 1.241 . S
C316 O309 1.247 . S
C316 O310 1.261 . S
C317 O312 1.259 . S
C317 O314 1.235 . S
O318 Co308 2.021 . S
O318 C315 1.238 . S
O319 Co313 2.052 . S
O319 C315 1.241 . S
O320 Co308 2.137 . S
O320 C311 1.247 . S
O321 Co308 2.244 . S
O321 C311 1.272 . S
O321 Co313 2.135 . S
Co322 O323 2.216 . S
Co322 O324 2.091 . S
Co322 O326 2.004 . S
Co322 O332 2.021 . S
Co322 O334 2.137 . S
Co322 O335 2.244 . S
O323 Co322 2.216 . S
O323 C330 1.247 . S
O324 Co322 2.091 . S
O324 C330 1.261 . S
C325 O334 1.247 . S
C325 O335 1.272 . S
O326 Co322 2.004 . S
O326 C331 1.259 . S
Co327 O328 2.061 . S
Co327 O333 2.052 . S
Co327 O335 2.135 . S
O328 Co327 2.061 . S
O328 C331 1.235 . S
C329 O332 1.238 . S
C329 O333 1.241 . S
C330 O323 1.247 . S
C330 O324 1.261 . S
C331 O326 1.259 . S
C331 O328 1.235 . S
O332 Co322 2.021 . S
O332 C329 1.238 . S
O333 Co327 2.052 . S
O333 C329 1.241 . S
O334 Co322 2.137 . S
O334 C325 1.247 . S
O335 Co322 2.244 . S
O335 C325 1.272 . S
O335 Co327 2.135 . S
Co336 O337 2.216 . S
Co336 O338 2.091 . S
Co336 O340 2.004 . S
Co336 O346 2.021 . S
Co336 O348 2.137 . S
Co336 O349 2.244 . S
O337 Co336 2.216 . S
O337 C344 1.247 . S
O338 Co336 2.091 . S
O338 C344 1.261 . S
C339 O348 1.247 . S
C339 O349 1.272 . S
O340 Co336 2.004 . S
O340 C345 1.259 . S
Co341 O342 2.061 . S
Co341 O347 2.052 . S
Co341 O349 2.135 . S
O342 Co341 2.061 . S
O342 C345 1.235 . S
C343 O346 1.238 . S
C343 O347 1.241 . S
C344 O337 1.247 . S
C344 O338 1.261 . S
C345 O340 1.259 . S
C345 O342 1.235 . S
O346 Co336 2.021 . S
O346 C343 1.238 . S
O347 Co341 2.052 . S
O347 C343 1.241 . S
O348 Co336 2.137 . S
O348 C339 1.247 . S
O349 Co336 2.244 . S
O349 C339 1.272 . S
O349 Co341 2.135 . S
Co350 O351 2.216 . S
Co350 O352 2.091 . S
Co350 O354 2.004 . S
Co350 O360 2.021 . S
Co350 O362 2.137 . S
Co350 O363 2.244 . S
O351 Co350 2.216 . S
O351 C358 1.247 . S
O352 Co350 2.091 . S
O352 C358 1.261 . S
C353 O362 1.247 . S
C353 O363 1.272 . S
O354 Co350 2.004 . S
O354 C359 1.259 . S
Co355 O356 2.061 . S
Co355 O361 2.052 . S
Co355 O363 2.135 . S
O356 Co355 2.061 . S
O356 C359 1.235 . S
C357 O360 1.238 . S
C357 O361 1.241 . S
C358 O351 1.247 . S
C358 O352 1.261 . S
C359 O354 1.259 . S
C359 O356 1.235 . S
O360 Co350 2.021 . S
O360 C357 1.238 . S
O361 Co355 2.052 . S
O361 C357 1.241 . S
O362 Co350 2.137 . S
O362 C353 1.247 . S
O363 Co350 2.244 . S
O363 C353 1.272 . S
O363 Co355 2.135 . S
Co364 O365 2.216 . S
Co364 O366 2.091 . S
Co364 O368 2.004 . S
Co364 O374 2.021 . S
Co364 O376 2.137 . S
Co364 O377 2.244 . S
O365 Co364 2.216 . S
O365 C372 1.247 . S
O366 Co364 2.091 . S
O366 C372 1.261 . S
C367 O376 1.247 . S
C367 O377 1.272 . S
O368 Co364 2.004 . S
O368 C373 1.259 . S
Co369 O370 2.061 . S
Co369 O375 2.052 . S
Co369 O377 2.135 . S
O370 Co369 2.061 . S
O370 C373 1.235 . S
C371 O374 1.238 . S
C371 O375 1.241 . S
C372 O365 1.247 . S
C372 O366 1.261 . S
C373 O368 1.259 . S
C373 O370 1.235 . S
O374 Co364 2.021 . S
O374 C371 1.238 . S
O375 Co369 2.052 . S
O375 C371 1.241 . S
O376 Co364 2.137 . S
O376 C367 1.247 . S
O377 Co364 2.244 . S
O377 C367 1.272 . S
O377 Co369 2.135 . S
Co378 O379 2.216 . S
Co378 O380 2.091 . S
Co378 O382 2.004 . S
Co378 O388 2.021 . S
Co378 O390 2.137 . S
Co378 O391 2.244 . S
O379 Co378 2.216 . S
O379 C386 1.247 . S
O380 Co378 2.091 . S
O380 C386 1.261 . S
C381 O390 1.247 . S
C381 O391 1.272 . S
O382 Co378 2.004 . S
O382 C387 1.259 . S
Co383 O384 2.061 . S
Co383 O389 2.052 . S
Co383 O391 2.135 . S
O384 Co383 2.061 . S
O384 C387 1.235 . S
C385 O388 1.238 . S
C385 O389 1.241 . S
C386 O379 1.247 . S
C386 O380 1.261 . S
C387 O382 1.259 . S
C387 O384 1.235 . S
O388 Co378 2.021 . S
O388 C385 1.238 . S
O389 Co383 2.052 . S
O389 C385 1.241 . S
O390 Co378 2.137 . S
O390 C381 1.247 . S
O391 Co378 2.244 . S
O391 C381 1.272 . S
O391 Co383 2.135 . S
Co392 O393 2.216 . S
Co392 O394 2.091 . S
Co392 O396 2.004 . S
Co392 O402 2.021 . S
Co392 O404 2.137 . S
Co392 O405 2.244 . S
O393 Co392 2.216 . S
O393 C400 1.247 . S
O394 Co392 2.091 . S
O394 C400 1.261 . S
C395 O404 1.247 . S
C395 O405 1.272 . S
O396 Co392 2.004 . S
O396 C401 1.259 . S
Co397 O398 2.061 . S
Co397 O403 2.052 . S
Co397 O405 2.135 . S
O398 Co397 2.061 . S
O398 C401 1.235 . S
C399 O402 1.238 . S
C399 O403 1.241 . S
C400 O393 1.247 . S
C400 O394 1.261 . S
C401 O396 1.259 . S
C401 O398 1.235 . S
O402 Co392 2.021 . S
O402 C399 1.238 . S
O403 Co397 2.052 . S
O403 C399 1.241 . S
O404 Co392 2.137 . S
O404 C395 1.247 . S
O405 Co392 2.244 . S
O405 C395 1.272 . S
O405 Co397 2.135 . S
Co406 O407 2.216 . S
Co406 O408 2.091 . S
Co406 O410 2.004 . S
Co406 O416 2.021 . S
Co406 O418 2.137 . S
Co406 O419 2.244 . S
O407 Co406 2.216 . S
O407 C414 1.247 . S
O408 Co406 2.091 . S
O408 C414 1.261 . S
C409 O418 1.247 . S
C409 O419 1.272 . S
O410 Co406 2.004 . S
O410 C415 1.259 . S
Co411 O412 2.061 . S
Co411 O417 2.052 . S
Co411 O419 2.135 . S
O412 Co411 2.061 . S
O412 C415 1.235 . S
C413 O416 1.238 . S
C413 O417 1.241 . S
C414 O407 1.247 . S
C414 O408 1.261 . S
C415 O410 1.259 . S
C415 O412 1.235 . S
O416 Co406 2.021 . S
O416 C413 1.238 . S
O417 Co411 2.052 . S
O417 C413 1.241 . S
O418 Co406 2.137 . S
O418 C409 1.247 . S
O419 Co406 2.244 . S
O419 C409 1.272 . S
O419 Co411 2.135 . S
Co420 O421 2.216 . S
Co420 O422 2.091 . S
Co420 O424 2.004 . S
Co420 O430 2.021 . S
Co420 O432 2.137 . S
Co420 O433 2.244 . S
O421 Co420 2.216 . S
O421 C428 1.247 . S
O422 Co420 2.091 . S
O422 C428 1.261 . S
C423 O432 1.247 . S
C423 O433 1.272 . S
O424 Co420 2.004 . S
O424 C429 1.259 . S
Co425 O426 2.061 . S
Co425 O431 2.052 . S
Co425 O433 2.135 . S
O426 Co425 2.061 . S
O426 C429 1.235 . S
C427 O430 1.238 . S
C427 O431 1.241 . S
C428 O421 1.247 . S
C428 O422 1.261 . S
C429 O424 1.259 . S
C429 O426 1.235 . S
O430 Co420 2.021 . S
O430 C427 1.238 . S
O431 Co425 2.052 . S
O431 C427 1.241 . S
O432 Co420 2.137 . S
O432 C423 1.247 . S
O433 Co420 2.244 . S
O433 C423 1.272 . S
O433 Co425 2.135 . S
Co434 O435 2.216 . S
Co434 O436 2.091 . S
Co434 O438 2.004 . S
Co434 O444 2.021 . S
Co434 O446 2.137 . S
Co434 O447 2.244 . S
O435 Co434 2.216 . S
O435 C442 1.247 . S
O436 Co434 2.091 . S
O436 C442 1.261 . S
C437 O446 1.247 . S
C437 O447 1.272 . S
O438 Co434 2.004 . S
O438 C443 1.259 . S
Co439 O440 2.061 . S
Co439 O445 2.052 . S
Co439 O447 2.135 . S
O440 Co439 2.061 . S
O440 C443 1.235 . S
C441 O444 1.238 . S
C441 O445 1.241 . S
C442 O435 1.247 . S
C442 O436 1.261 . S
C443 O438 1.259 . S
C443 O440 1.235 . S
O444 Co434 2.021 . S
O444 C441 1.238 . S
O445 Co439 2.052 . S
O445 C441 1.241 . S
O446 Co434 2.137 . S
O446 C437 1.247 . S
O447 Co434 2.244 . S
O447 C437 1.272 . S
O447 Co439 2.135 . S
H448 C466 0.951 . S
H449 C468 0.951 . S
H450 C470 0.950 . S
H451 C471 0.950 . S
H452 C473 0.950 . S
H453 C476 0.950 . S
H454 C477 0.950 . S
H455 C479 0.950 . S
H456 C480 0.950 . S
H457 C481 0.951 . S
H458 C483 0.951 . S
H459 C485 0.950 . S
H460 C486 0.950 . S
H461 C488 0.950 . S
H462 C491 0.950 . S
H463 C492 0.950 . S
H464 C494 0.950 . S
H465 C495 0.950 . S
C466 H448 0.951 . S
C466 C467 1.366 . S
C466 C468 1.388 . S
C467 C466 1.366 . S
C467 C471 1.385 . S
C468 H449 0.951 . S
C468 C466 1.388 . S
C468 C469 1.366 . S
C469 C468 1.366 . S
C469 C470 1.414 . S
C469 C472 1.499 . S
C470 H450 0.950 . S
C470 C469 1.414 . S
C470 C471 1.374 . S
C471 H451 0.950 . S
C471 C467 1.385 . S
C471 C470 1.374 . S
C472 C469 1.499 . S
C472 C473 1.373 . S
C472 C474 1.389 . S
C473 H452 0.950 . S
C473 C472 1.373 . S
C473 C489 1.377 . S
C474 C472 1.389 . S
C474 C475 1.524 . S
C474 C488 1.377 . S
C475 C474 1.524 . S
C475 C476 1.397 . S
C475 C480 1.363 . S
C476 H453 0.950 . S
C476 C475 1.397 . S
C476 C477 1.334 . S
C477 H454 0.950 . S
C477 C476 1.334 . S
C477 C478 1.287 . S
C478 C477 1.287 . S
C478 C479 1.524 . S
C478 H497 0.913 . S
C479 H455 0.950 . S
C479 C478 1.524 . S
C479 C480 1.415 . S
C480 H456 0.950 . S
C480 C475 1.363 . S
C480 C479 1.415 . S
C481 H457 0.951 . S
C481 C482 1.366 . S
C481 C483 1.388 . S
C482 C481 1.366 . S
C482 C486 1.385 . S
C483 H458 0.951 . S
C483 C481 1.388 . S
C483 C484 1.366 . S
C484 C483 1.366 . S
C484 C485 1.414 . S
C484 C487 1.499 . S
C485 H459 0.950 . S
C485 C484 1.414 . S
C485 C486 1.374 . S
C486 H460 0.950 . S
C486 C482 1.385 . S
C486 C485 1.374 . S
C487 C484 1.499 . S
C487 C488 1.373 . S
C487 C489 1.389 . S
C488 H461 0.950 . S
C488 C474 1.377 . S
C488 C487 1.373 . S
C489 C473 1.377 . S
C489 C487 1.389 . S
C489 C490 1.524 . S
C490 C489 1.524 . S
C490 C491 1.397 . S
C490 C495 1.363 . S
C491 H462 0.950 . S
C491 C490 1.397 . S
C491 C492 1.334 . S
C492 H463 0.950 . S
C492 C491 1.334 . S
C492 C493 1.287 . S
C493 C492 1.287 . S
C493 C494 1.524 . S
C493 H496 0.999 . S
C494 H464 0.950 . S
C494 C493 1.524 . S
C494 C495 1.415 . S
C495 H465 0.950 . S
C495 C490 1.363 . S
C495 C494 1.415 . S
H496 C493 0.999 . S
H497 C478 0.913 . S
H498 C516 0.951 . S
H499 C518 0.951 . S
H500 C520 0.950 . S
H501 C521 0.950 . S
H502 C523 0.950 . S
H503 C526 0.950 . S
H504 C527 0.950 . S
H505 C529 0.950 . S
H506 C530 0.950 . S
H507 C531 0.951 . S
H508 C533 0.951 . S
H509 C535 0.950 . S
H510 C536 0.950 . S
H511 C538 0.950 . S
H512 C541 0.950 . S
H513 C542 0.950 . S
H514 C544 0.950 . S
H515 C545 0.950 . S
C516 H498 0.951 . S
C516 C517 1.366 . S
C516 C518 1.388 . S
C517 C516 1.366 . S
C517 C521 1.385 . S
C518 H499 0.951 . S
C518 C516 1.388 . S
C518 C519 1.366 . S
C519 C518 1.366 . S
C519 C520 1.414 . S
C519 C522 1.499 . S
C520 H500 0.950 . S
C520 C519 1.414 . S
C520 C521 1.374 . S
C521 H501 0.950 . S
C521 C517 1.385 . S
C521 C520 1.374 . S
C522 C519 1.499 . S
C522 C523 1.373 . S
C522 C524 1.389 . S
C523 H502 0.950 . S
C523 C522 1.373 . S
C523 C539 1.377 . S
C524 C522 1.389 . S
C524 C525 1.524 . S
C524 C538 1.377 . S
C525 C524 1.524 . S
C525 C526 1.397 . S
C525 C530 1.363 . S
C526 H503 0.950 . S
C526 C525 1.397 . S
C526 C527 1.334 . S
C527 H504 0.950 . S
C527 C526 1.334 . S
C527 C528 1.287 . S
C528 C527 1.287 . S
C528 C529 1.524 . S
C528 H547 0.913 . S
C529 H505 0.950 . S
C529 C528 1.524 . S
C529 C530 1.415 . S
C530 H506 0.950 . S
C530 C525 1.363 . S
C530 C529 1.415 . S
C531 H507 0.951 . S
C531 C532 1.366 . S
C531 C533 1.388 . S
C532 C531 1.366 . S
C532 C536 1.385 . S
C533 H508 0.951 . S
C533 C531 1.388 . S
C533 C534 1.366 . S
C534 C533 1.366 . S
C534 C535 1.414 . S
C534 C537 1.499 . S
C535 H509 0.950 . S
C535 C534 1.414 . S
C535 C536 1.374 . S
C536 H510 0.950 . S
C536 C532 1.385 . S
C536 C535 1.374 . S
C537 C534 1.499 . S
C537 C538 1.373 . S
C537 C539 1.389 . S
C538 H511 0.950 . S
C538 C524 1.377 . S
C538 C537 1.373 . S
C539 C523 1.377 . S
C539 C537 1.389 . S
C539 C540 1.524 . S
C540 C539 1.524 . S
C540 C541 1.397 . S
C540 C545 1.363 . S
C541 H512 0.950 . S
C541 C540 1.397 . S
C541 C542 1.334 . S
C542 H513 0.950 . S
C542 C541 1.334 . S
C542 C543 1.287 . S
C543 C542 1.287 . S
C543 C544 1.524 . S
C543 H546 0.999 . S
C544 H514 0.950 . S
C544 C543 1.524 . S
C544 C545 1.415 . S
C545 H515 0.950 . S
C545 C540 1.363 . S
C545 C544 1.415 . S
H546 C543 0.999 . S
H547 C528 0.913 . S
H548 C566 0.951 . S
H549 C568 0.951 . S
H550 C570 0.950 . S
H551 C571 0.950 . S
H552 C573 0.950 . S
H553 C576 0.950 . S
H554 C577 0.950 . S
H555 C579 0.950 . S
H556 C580 0.950 . S
H557 C581 0.951 . S
H558 C583 0.951 . S
H559 C585 0.950 . S
H560 C586 0.950 . S
H561 C588 0.950 . S
H562 C591 0.950 . S
H563 C592 0.950 . S
H564 C594 0.950 . S
H565 C595 0.950 . S
C566 H548 0.951 . S
C566 C567 1.366 . S
C566 C568 1.388 . S
C567 C566 1.366 . S
C567 C571 1.385 . S
C568 H549 0.951 . S
C568 C566 1.388 . S
C568 C569 1.366 . S
C569 C568 1.366 . S
C569 C570 1.414 . S
C569 C572 1.499 . S
C570 H550 0.950 . S
C570 C569 1.414 . S
C570 C571 1.374 . S
C571 H551 0.950 . S
C571 C567 1.385 . S
C571 C570 1.374 . S
C572 C569 1.499 . S
C572 C573 1.373 . S
C572 C574 1.389 . S
C573 H552 0.950 . S
C573 C572 1.373 . S
C573 C589 1.377 . S
C574 C572 1.389 . S
C574 C575 1.524 . S
C574 C588 1.377 . S
C575 C574 1.524 . S
C575 C576 1.397 . S
C575 C580 1.363 . S
C576 H553 0.950 . S
C576 C575 1.397 . S
C576 C577 1.334 . S
C577 H554 0.950 . S
C577 C576 1.334 . S
C577 C578 1.287 . S
C578 C577 1.287 . S
C578 C579 1.524 . S
C578 H597 0.913 . S
C579 H555 0.950 . S
C579 C578 1.524 . S
C579 C580 1.415 . S
C580 H556 0.950 . S
C580 C575 1.363 . S
C580 C579 1.415 . S
C581 H557 0.951 . S
C581 C582 1.366 . S
C581 C583 1.388 . S
C582 C581 1.366 . S
C582 C586 1.385 . S
C583 H558 0.951 . S
C583 C581 1.388 . S
C583 C584 1.366 . S
C584 C583 1.366 . S
C584 C585 1.414 . S
C584 C587 1.499 . S
C585 H559 0.950 . S
C585 C584 1.414 . S
C585 C586 1.374 . S
C586 H560 0.950 . S
C586 C582 1.385 . S
C586 C585 1.374 . S
C587 C584 1.499 . S
C587 C588 1.373 . S
C587 C589 1.389 . S
C588 H561 0.950 . S
C588 C574 1.377 . S
C588 C587 1.373 . S
C589 C573 1.377 . S
C589 C587 1.389 . S
C589 C590 1.524 . S
C590 C589 1.524 . S
C590 C591 1.397 . S
C590 C595 1.363 . S
C591 H562 0.950 . S
C591 C590 1.397 . S
C591 C592 1.334 . S
C592 H563 0.950 . S
C592 C591 1.334 . S
C592 C593 1.287 . S
C593 C592 1.287 . S
C593 C594 1.524 . S
C593 H596 0.999 1_655 S
C594 H564 0.950 . S
C594 C593 1.524 . S
C594 C595 1.415 . S
C595 H565 0.950 . S
C595 C590 1.363 . S
C595 C594 1.415 . S
H596 C593 0.999 1_455 S
H597 C578 0.913 . S
H598 C616 0.951 . S
H599 C618 0.951 . S
H600 C620 0.950 . S
H601 C621 0.950 . S
H602 C623 0.950 . S
H603 C626 0.950 . S
H604 C627 0.950 . S
H605 C629 0.950 . S
H606 C630 0.950 . S
H607 C631 0.951 . S
H608 C633 0.951 . S
H609 C635 0.950 . S
H610 C636 0.950 . S
H611 C638 0.950 . S
H612 C641 0.950 . S
H613 C642 0.950 . S
H614 C644 0.950 . S
H615 C645 0.950 . S
C616 H598 0.951 . S
C616 C617 1.366 . S
C616 C618 1.388 . S
C617 C616 1.366 . S
C617 C621 1.385 . S
C618 H599 0.951 . S
C618 C616 1.388 . S
C618 C619 1.366 . S
C619 C618 1.366 . S
C619 C620 1.414 . S
C619 C622 1.499 . S
C620 H600 0.950 . S
C620 C619 1.414 . S
C620 C621 1.374 . S
C621 H601 0.950 . S
C621 C617 1.385 . S
C621 C620 1.374 . S
C622 C619 1.499 . S
C622 C623 1.373 . S
C622 C624 1.389 . S
C623 H602 0.950 . S
C623 C622 1.373 . S
C623 C639 1.377 . S
C624 C622 1.389 . S
C624 C625 1.524 . S
C624 C638 1.377 . S
C625 C624 1.524 . S
C625 C626 1.397 . S
C625 C630 1.363 . S
C626 H603 0.950 . S
C626 C625 1.397 . S
C626 C627 1.334 . S
C627 H604 0.950 . S
C627 C626 1.334 . S
C627 C628 1.287 . S
C628 C627 1.287 . S
C628 C629 1.524 . S
C628 H647 0.913 . S
C629 H605 0.950 . S
C629 C628 1.524 . S
C629 C630 1.415 . S
C630 H606 0.950 . S
C630 C625 1.363 . S
C630 C629 1.415 . S
C631 H607 0.951 . S
C631 C632 1.366 . S
C631 C633 1.388 . S
C632 C631 1.366 . S
C632 C636 1.385 . S
C633 H608 0.951 . S
C633 C631 1.388 . S
C633 C634 1.366 . S
C634 C633 1.366 . S
C634 C635 1.414 . S
C634 C637 1.499 . S
C635 H609 0.950 . S
C635 C634 1.414 . S
C635 C636 1.374 . S
C636 H610 0.950 . S
C636 C632 1.385 . S
C636 C635 1.374 . S
C637 C634 1.499 . S
C637 C638 1.373 . S
C637 C639 1.389 . S
C638 H611 0.950 . S
C638 C624 1.377 . S
C638 C637 1.373 . S
C639 C623 1.377 . S
C639 C637 1.389 . S
C639 C640 1.524 . S
C640 C639 1.524 . S
C640 C641 1.397 . S
C640 C645 1.363 . S
C641 H612 0.950 . S
C641 C640 1.397 . S
C641 C642 1.334 . S
C642 H613 0.950 . S
C642 C641 1.334 . S
C642 C643 1.287 . S
C643 C642 1.287 . S
C643 C644 1.524 . S
C643 H646 0.999 . S
C644 H614 0.950 . S
C644 C643 1.524 . S
C644 C645 1.415 . S
C645 H615 0.950 . S
C645 C640 1.363 . S
C645 C644 1.415 . S
H646 C643 0.999 . S
H647 C628 0.913 . S
H648 C666 0.951 . S
H649 C668 0.951 . S
H650 C670 0.950 . S
H651 C671 0.950 . S
H652 C673 0.950 . S
H653 C676 0.950 . S
H654 C677 0.950 . S
H655 C679 0.950 . S
H656 C680 0.950 . S
H657 C681 0.951 . S
H658 C683 0.951 . S
H659 C685 0.950 . S
H660 C686 0.950 . S
H661 C688 0.950 . S
H662 C691 0.950 . S
H663 C692 0.950 . S
H664 C694 0.950 . S
H665 C695 0.950 . S
C666 H648 0.951 . S
C666 C667 1.366 . S
C666 C668 1.388 1_565 S
C667 C666 1.366 . S
C667 C671 1.385 . S
C668 H649 0.951 . S
C668 C666 1.388 1_545 S
C668 C669 1.366 . S
C669 C668 1.366 . S
C669 C670 1.414 . S
C669 C672 1.499 . S
C670 H650 0.950 . S
C670 C669 1.414 . S
C670 C671 1.374 1_545 S
C671 H651 0.950 . S
C671 C667 1.385 . S
C671 C670 1.374 1_565 S
C672 C669 1.499 . S
C672 C673 1.373 . S
C672 C674 1.389 . S
C673 H652 0.950 . S
C673 C672 1.373 . S
C673 C689 1.377 . S
C674 C672 1.389 . S
C674 C675 1.524 . S
C674 C688 1.377 . S
C675 C674 1.524 . S
C675 C676 1.397 . S
C675 C680 1.363 . S
C676 H653 0.950 . S
C676 C675 1.397 . S
C676 C677 1.334 . S
C677 H654 0.950 . S
C677 C676 1.334 . S
C677 C678 1.287 . S
C678 C677 1.287 . S
C678 C679 1.524 . S
C678 H697 0.913 . S
C679 H655 0.950 . S
C679 C678 1.524 . S
C679 C680 1.415 . S
C680 H656 0.950 . S
C680 C675 1.363 . S
C680 C679 1.415 . S
C681 H657 0.951 . S
C681 C682 1.366 . S
C681 C683 1.388 . S
C682 C681 1.366 . S
C682 C686 1.385 . S
C683 H658 0.951 . S
C683 C681 1.388 . S
C683 C684 1.366 . S
C684 C683 1.366 . S
C684 C685 1.414 . S
C684 C687 1.499 . S
C685 H659 0.950 . S
C685 C684 1.414 . S
C685 C686 1.374 . S
C686 H660 0.950 . S
C686 C682 1.385 . S
C686 C685 1.374 . S
C687 C684 1.499 . S
C687 C688 1.373 . S
C687 C689 1.389 . S
C688 H661 0.950 . S
C688 C674 1.377 . S
C688 C687 1.373 . S
C689 C673 1.377 . S
C689 C687 1.389 . S
C689 C690 1.524 . S
C690 C689 1.524 . S
C690 C691 1.397 . S
C690 C695 1.363 . S
C691 H662 0.950 . S
C691 C690 1.397 . S
C691 C692 1.334 . S
C692 H663 0.950 . S
C692 C691 1.334 . S
C692 C693 1.287 . S
C693 C692 1.287 . S
C693 C694 1.524 . S
C693 H696 0.999 . S
C694 H664 0.950 . S
C694 C693 1.524 . S
C694 C695 1.415 . S
C695 H665 0.950 . S
C695 C690 1.363 . S
C695 C694 1.415 . S
H696 C693 0.999 . S
H697 C678 0.913 . S
H698 C716 0.951 . S
H699 C718 0.951 . S
H700 C720 0.950 . S
H701 C721 0.950 . S
H702 C723 0.950 . S
H703 C726 0.950 . S
H704 C727 0.950 . S
H705 C729 0.950 . S
H706 C730 0.950 . S
H707 C731 0.951 . S
H708 C733 0.951 . S
H709 C735 0.950 . S
H710 C736 0.950 . S
H711 C738 0.950 . S
H712 C741 0.950 . S
H713 C742 0.950 . S
H714 C744 0.950 . S
H715 C745 0.950 . S
C716 H698 0.951 . S
C716 C717 1.366 . S
C716 C718 1.388 1_565 S
C717 C716 1.366 . S
C717 C721 1.385 . S
C718 H699 0.951 . S
C718 C716 1.388 1_545 S
C718 C719 1.366 . S
C719 C718 1.366 . S
C719 C720 1.414 . S
C719 C722 1.499 . S
C720 H700 0.950 . S
C720 C719 1.414 . S
C720 C721 1.374 1_545 S
C721 H701 0.950 . S
C721 C717 1.385 . S
C721 C720 1.374 1_565 S
C722 C719 1.499 . S
C722 C723 1.373 . S
C722 C724 1.389 . S
C723 H702 0.950 . S
C723 C722 1.373 . S
C723 C739 1.377 . S
C724 C722 1.389 . S
C724 C725 1.524 . S
C724 C738 1.377 . S
C725 C724 1.524 . S
C725 C726 1.397 . S
C725 C730 1.363 . S
C726 H703 0.950 . S
C726 C725 1.397 . S
C726 C727 1.334 . S
C727 H704 0.950 . S
C727 C726 1.334 . S
C727 C728 1.287 . S
C728 C727 1.287 . S
C728 C729 1.524 . S
C728 H747 0.913 . S
C729 H705 0.950 . S
C729 C728 1.524 . S
C729 C730 1.415 . S
C730 H706 0.950 . S
C730 C725 1.363 . S
C730 C729 1.415 . S
C731 H707 0.951 . S
C731 C732 1.366 . S
C731 C733 1.388 . S
C732 C731 1.366 . S
C732 C736 1.385 . S
C733 H708 0.951 . S
C733 C731 1.388 . S
C733 C734 1.366 . S
C734 C733 1.366 . S
C734 C735 1.414 . S
C734 C737 1.499 . S
C735 H709 0.950 . S
C735 C734 1.414 . S
C735 C736 1.374 . S
C736 H710 0.950 . S
C736 C732 1.385 . S
C736 C735 1.374 . S
C737 C734 1.499 . S
C737 C738 1.373 . S
C737 C739 1.389 . S
C738 H711 0.950 . S
C738 C724 1.377 . S
C738 C737 1.373 . S
C739 C723 1.377 . S
C739 C737 1.389 . S
C739 C740 1.524 . S
C740 C739 1.524 . S
C740 C741 1.397 . S
C740 C745 1.363 . S
C741 H712 0.950 . S
C741 C740 1.397 . S
C741 C742 1.334 . S
C742 H713 0.950 . S
C742 C741 1.334 . S
C742 C743 1.287 . S
C743 C742 1.287 . S
C743 C744 1.524 . S
C743 H746 0.999 . S
C744 H714 0.950 . S
C744 C743 1.524 . S
C744 C745 1.415 . S
C745 H715 0.950 . S
C745 C740 1.363 . S
C745 C744 1.415 . S
H746 C743 0.999 . S
H747 C728 0.913 . S
H748 C766 0.951 . S
H749 C768 0.951 . S
H750 C770 0.950 . S
H751 C771 0.950 . S
H752 C773 0.950 . S
H753 C776 0.950 . S
H754 C777 0.950 . S
H755 C779 0.950 . S
H756 C780 0.950 . S
H757 C781 0.951 . S
H758 C783 0.951 . S
H759 C785 0.950 . S
H760 C786 0.950 . S
H761 C788 0.950 . S
H762 C791 0.950 . S
H763 C792 0.950 . S
H764 C794 0.950 . S
H765 C795 0.950 . S
C766 H748 0.951 . S
C766 C767 1.366 . S
C766 C768 1.388 1_545 S
C767 C766 1.366 . S
C767 C771 1.385 . S
C768 H749 0.951 . S
C768 C766 1.388 1_565 S
C768 C769 1.366 . S
C769 C768 1.366 . S
C769 C770 1.414 . S
C769 C772 1.499 . S
C770 H750 0.950 . S
C770 C769 1.414 . S
C770 C771 1.374 1_565 S
C771 H751 0.950 . S
C771 C767 1.385 . S
C771 C770 1.374 1_545 S
C772 C769 1.499 . S
C772 C773 1.373 . S
C772 C774 1.389 . S
C773 H752 0.950 . S
C773 C772 1.373 . S
C773 C789 1.377 . S
C774 C772 1.389 . S
C774 C775 1.524 . S
C774 C788 1.377 . S
C775 C774 1.524 . S
C775 C776 1.397 . S
C775 C780 1.363 . S
C776 H753 0.950 . S
C776 C775 1.397 . S
C776 C777 1.334 . S
C777 H754 0.950 . S
C777 C776 1.334 . S
C777 C778 1.287 . S
C778 C777 1.287 . S
C778 C779 1.524 . S
C778 H797 0.913 . S
C779 H755 0.950 . S
C779 C778 1.524 . S
C779 C780 1.415 . S
C780 H756 0.950 . S
C780 C775 1.363 . S
C780 C779 1.415 . S
C781 H757 0.951 . S
C781 C782 1.366 . S
C781 C783 1.388 . S
C782 C781 1.366 . S
C782 C786 1.385 . S
C783 H758 0.951 . S
C783 C781 1.388 . S
C783 C784 1.366 . S
C784 C783 1.366 . S
C784 C785 1.414 . S
C784 C787 1.499 . S
C785 H759 0.950 . S
C785 C784 1.414 . S
C785 C786 1.374 . S
C786 H760 0.950 . S
C786 C782 1.385 . S
C786 C785 1.374 . S
C787 C784 1.499 . S
C787 C788 1.373 . S
C787 C789 1.389 . S
C788 H761 0.950 . S
C788 C774 1.377 . S
C788 C787 1.373 . S
C789 C773 1.377 . S
C789 C787 1.389 . S
C789 C790 1.524 . S
C790 C789 1.524 . S
C790 C791 1.397 . S
C790 C795 1.363 . S
C791 H762 0.950 . S
C791 C790 1.397 . S
C791 C792 1.334 . S
C792 H763 0.950 . S
C792 C791 1.334 . S
C792 C793 1.287 . S
C793 C792 1.287 . S
C793 C794 1.524 . S
C793 H796 0.999 . S
C794 H764 0.950 . S
C794 C793 1.524 . S
C794 C795 1.415 . S
C795 H765 0.950 . S
C795 C790 1.363 . S
C795 C794 1.415 . S
H796 C793 0.999 . S
H797 C778 0.913 . S
H798 C816 0.951 . S
H799 C818 0.951 . S
H800 C820 0.950 . S
H801 C821 0.950 . S
H802 C823 0.950 . S
H803 C826 0.950 . S
H804 C827 0.950 . S
H805 C829 0.950 . S
H806 C830 0.950 . S
H807 C831 0.951 . S
H808 C833 0.951 . S
H809 C835 0.950 . S
H810 C836 0.950 . S
H811 C838 0.950 . S
H812 C841 0.950 . S
H813 C842 0.950 . S
H814 C844 0.950 . S
H815 C845 0.950 . S
C816 H798 0.951 . S
C816 C817 1.366 . S
C816 C818 1.388 . S
C817 C816 1.366 . S
C817 C821 1.385 . S
C818 H799 0.951 . S
C818 C816 1.388 . S
C818 C819 1.366 . S
C819 C818 1.366 . S
C819 C820 1.414 . S
C819 C822 1.499 . S
C820 H800 0.950 . S
C820 C819 1.414 . S
C820 C821 1.374 . S
C821 H801 0.950 . S
C821 C817 1.385 . S
C821 C820 1.374 . S
C822 C819 1.499 . S
C822 C823 1.373 . S
C822 C824 1.389 . S
C823 H802 0.950 . S
C823 C822 1.373 . S
C823 C839 1.377 . S
C824 C822 1.389 . S
C824 C825 1.524 . S
C824 C838 1.377 . S
C825 C824 1.524 . S
C825 C826 1.397 . S
C825 C830 1.363 . S
C826 H803 0.950 . S
C826 C825 1.397 . S
C826 C827 1.334 . S
C827 H804 0.950 . S
C827 C826 1.334 . S
C827 C828 1.287 . S
C828 C827 1.287 . S
C828 C829 1.524 . S
C828 H847 0.913 . S
C829 H805 0.950 . S
C829 C828 1.524 . S
C829 C830 1.415 . S
C830 H806 0.950 . S
C830 C825 1.363 . S
C830 C829 1.415 . S
C831 H807 0.951 . S
C831 C832 1.366 . S
C831 C833 1.388 1_545 S
C832 C831 1.366 . S
C832 C836 1.385 . S
C833 H808 0.951 . S
C833 C831 1.388 1_565 S
C833 C834 1.366 . S
C834 C833 1.366 . S
C834 C835 1.414 . S
C834 C837 1.499 . S
C835 H809 0.950 . S
C835 C834 1.414 . S
C835 C836 1.374 1_565 S
C836 H810 0.950 . S
C836 C832 1.385 . S
C836 C835 1.374 1_545 S
C837 C834 1.499 . S
C837 C838 1.373 . S
C837 C839 1.389 . S
C838 H811 0.950 . S
C838 C824 1.377 . S
C838 C837 1.373 . S
C839 C823 1.377 . S
C839 C837 1.389 . S
C839 C840 1.524 . S
C840 C839 1.524 . S
C840 C841 1.397 . S
C840 C845 1.363 . S
C841 H812 0.950 . S
C841 C840 1.397 . S
C841 C842 1.334 . S
C842 H813 0.950 . S
C842 C841 1.334 . S
C842 C843 1.287 . S
C843 C842 1.287 . S
C843 C844 1.524 . S
C843 H846 0.999 . S
C844 H814 0.950 . S
C844 C843 1.524 . S
C844 C845 1.415 . S
C845 H815 0.950 . S
C845 C840 1.363 . S
C845 C844 1.415 . S
H846 C843 0.999 . S
H847 C828 0.913 . S
H848 C866 0.951 . S
H849 C868 0.951 . S
H850 C870 0.950 . S
H851 C871 0.950 . S
H852 C873 0.950 . S
H853 C876 0.950 . S
H854 C877 0.950 . S
H855 C879 0.950 . S
H856 C880 0.950 . S
H857 C881 0.951 . S
H858 C883 0.951 . S
H859 C885 0.950 . S
H860 C886 0.950 . S
H861 C888 0.950 . S
H862 C891 0.950 . S
H863 C892 0.950 . S
H864 C894 0.950 . S
H865 C895 0.950 . S
C866 H848 0.951 . S
C866 C867 1.366 . S
C866 C868 1.388 . S
C867 C866 1.366 . S
C867 C871 1.385 . S
C868 H849 0.951 . S
C868 C866 1.388 . S
C868 C869 1.366 . S
C869 C868 1.366 . S
C869 C870 1.414 . S
C869 C872 1.499 . S
C870 H850 0.950 . S
C870 C869 1.414 . S
C870 C871 1.374 . S
C871 H851 0.950 . S
C871 C867 1.385 . S
C871 C870 1.374 . S
C872 C869 1.499 . S
C872 C873 1.373 . S
C872 C874 1.389 . S
C873 H852 0.950 . S
C873 C872 1.373 . S
C873 C889 1.377 . S
C874 C872 1.389 . S
C874 C875 1.524 . S
C874 C888 1.377 . S
C875 C874 1.524 . S
C875 C876 1.397 . S
C875 C880 1.363 . S
C876 H853 0.950 . S
C876 C875 1.397 . S
C876 C877 1.334 . S
C877 H854 0.950 . S
C877 C876 1.334 . S
C877 C878 1.287 . S
C878 C877 1.287 . S
C878 C879 1.524 . S
C878 H897 0.913 . S
C879 H855 0.950 . S
C879 C878 1.524 . S
C879 C880 1.415 . S
C880 H856 0.950 . S
C880 C875 1.363 . S
C880 C879 1.415 . S
C881 H857 0.951 . S
C881 C882 1.366 . S
C881 C883 1.388 . S
C882 C881 1.366 . S
C882 C886 1.385 . S
C883 H858 0.951 . S
C883 C881 1.388 . S
C883 C884 1.366 . S
C884 C883 1.366 . S
C884 C885 1.414 . S
C884 C887 1.499 . S
C885 H859 0.950 . S
C885 C884 1.414 . S
C885 C886 1.374 . S
C886 H860 0.950 . S
C886 C882 1.385 . S
C886 C885 1.374 . S
C887 C884 1.499 . S
C887 C888 1.373 . S
C887 C889 1.389 . S
C888 H861 0.950 . S
C888 C874 1.377 . S
C888 C887 1.373 . S
C889 C873 1.377 . S
C889 C887 1.389 . S
C889 C890 1.524 . S
C890 C889 1.524 . S
C890 C891 1.397 . S
C890 C895 1.363 . S
C891 H862 0.950 . S
C891 C890 1.397 . S
C891 C892 1.334 . S
C892 H863 0.950 . S
C892 C891 1.334 . S
C892 C893 1.287 . S
C893 C892 1.287 . S
C893 C894 1.524 . S
C893 H896 0.999 . S
C894 H864 0.950 . S
C894 C893 1.524 . S
C894 C895 1.415 . S
C895 H865 0.950 . S
C895 C890 1.363 . S
C895 C894 1.415 . S
H896 C893 0.999 . S
H897 C878 0.913 . S
H898 C916 0.951 . S
H899 C918 0.951 . S
H900 C920 0.950 . S
H901 C921 0.950 . S
H902 C923 0.950 . S
H903 C926 0.950 . S
H904 C927 0.950 . S
H905 C929 0.950 . S
H906 C930 0.950 . S
H907 C931 0.951 . S
H908 C933 0.951 . S
H909 C935 0.950 . S
H910 C936 0.950 . S
H911 C938 0.950 . S
H912 C941 0.950 . S
H913 C942 0.950 . S
H914 C944 0.950 . S
H915 C945 0.950 . S
C916 H898 0.951 . S
C916 C917 1.366 . S
C916 C918 1.388 . S
C917 C916 1.366 . S
C917 C921 1.385 . S
C918 H899 0.951 . S
C918 C916 1.388 . S
C918 C919 1.366 . S
C919 C918 1.366 . S
C919 C920 1.414 . S
C919 C922 1.499 . S
C920 H900 0.950 . S
C920 C919 1.414 . S
C920 C921 1.374 . S
C921 H901 0.950 . S
C921 C917 1.385 . S
C921 C920 1.374 . S
C922 C919 1.499 . S
C922 C923 1.373 . S
C922 C924 1.389 . S
C923 H902 0.950 . S
C923 C922 1.373 . S
C923 C939 1.377 . S
C924 C922 1.389 . S
C924 C925 1.524 . S
C924 C938 1.377 . S
C925 C924 1.524 . S
C925 C926 1.397 . S
C925 C930 1.363 . S
C926 H903 0.950 . S
C926 C925 1.397 . S
C926 C927 1.334 . S
C927 H904 0.950 . S
C927 C926 1.334 . S
C927 C928 1.287 . S
C928 C927 1.287 . S
C928 C929 1.524 . S
C928 H947 0.913 . S
C929 H905 0.950 . S
C929 C928 1.524 . S
C929 C930 1.415 . S
C930 H906 0.950 . S
C930 C925 1.363 . S
C930 C929 1.415 . S
C931 H907 0.951 . S
C931 C932 1.366 . S
C931 C933 1.388 . S
C932 C931 1.366 . S
C932 C936 1.385 . S
C933 H908 0.951 . S
C933 C931 1.388 . S
C933 C934 1.366 . S
C934 C933 1.366 . S
C934 C935 1.414 . S
C934 C937 1.499 . S
C935 H909 0.950 . S
C935 C934 1.414 . S
C935 C936 1.374 . S
C936 H910 0.950 . S
C936 C932 1.385 . S
C936 C935 1.374 . S
C937 C934 1.499 . S
C937 C938 1.373 . S
C937 C939 1.389 . S
C938 H911 0.950 . S
C938 C924 1.377 . S
C938 C937 1.373 . S
C939 C923 1.377 . S
C939 C937 1.389 . S
C939 C940 1.524 . S
C940 C939 1.524 . S
C940 C941 1.397 . S
C940 C945 1.363 . S
C941 H912 0.950 . S
C941 C940 1.397 . S
C941 C942 1.334 . S
C942 H913 0.950 . S
C942 C941 1.334 . S
C942 C943 1.287 . S
C943 C942 1.287 . S
C943 C944 1.524 . S
C943 H946 0.999 . S
C944 H914 0.950 . S
C944 C943 1.524 . S
C944 C945 1.415 . S
C945 H915 0.950 . S
C945 C940 1.363 . S
C945 C944 1.415 . S
H946 C943 0.999 . S
H947 C928 0.913 . S
H948 C966 0.951 . S
H949 C968 0.951 . S
H950 C970 0.950 . S
H951 C971 0.950 . S
H952 C973 0.950 . S
H953 C976 0.950 . S
H954 C977 0.950 . S
H955 C979 0.950 . S
H956 C980 0.950 . S
H957 C981 0.951 . S
H958 C983 0.951 . S
H959 C985 0.950 . S
H960 C986 0.950 . S
H961 C988 0.950 . S
H962 C991 0.950 . S
H963 C992 0.950 . S
H964 C994 0.950 . S
H965 C995 0.950 . S
C966 H948 0.951 . S
C966 C967 1.366 . S
C966 C968 1.388 . S
C967 C966 1.366 . S
C967 C971 1.385 . S
C968 H949 0.951 . S
C968 C966 1.388 . S
C968 C969 1.366 . S
C969 C968 1.366 . S
C969 C970 1.414 . S
C969 C972 1.499 . S
C970 H950 0.950 . S
C970 C969 1.414 . S
C970 C971 1.374 . S
C971 H951 0.950 . S
C971 C967 1.385 . S
C971 C970 1.374 . S
C972 C969 1.499 . S
C972 C973 1.373 . S
C972 C974 1.389 . S
C973 H952 0.950 . S
C973 C972 1.373 . S
C973 C989 1.377 . S
C974 C972 1.389 . S
C974 C975 1.524 . S
C974 C988 1.377 . S
C975 C974 1.524 . S
C975 C976 1.397 . S
C975 C980 1.363 . S
C976 H953 0.950 . S
C976 C975 1.397 . S
C976 C977 1.334 . S
C977 H954 0.950 . S
C977 C976 1.334 . S
C977 C978 1.287 . S
C978 C977 1.287 . S
C978 C979 1.524 . S
C978 H997 0.913 . S
C979 H955 0.950 . S
C979 C978 1.524 . S
C979 C980 1.415 . S
C980 H956 0.950 . S
C980 C975 1.363 . S
C980 C979 1.415 . S
C981 H957 0.951 . S
C981 C982 1.366 . S
C981 C983 1.388 . S
C982 C981 1.366 . S
C982 C986 1.385 . S
C983 H958 0.951 . S
C983 C981 1.388 . S
C983 C984 1.366 . S
C984 C983 1.366 . S
C984 C985 1.414 . S
C984 C987 1.499 . S
C985 H959 0.950 . S
C985 C984 1.414 . S
C985 C986 1.374 . S
C986 H960 0.950 . S
C986 C982 1.385 . S
C986 C985 1.374 . S
C987 C984 1.499 . S
C987 C988 1.373 . S
C987 C989 1.389 . S
C988 H961 0.950 . S
C988 C974 1.377 . S
C988 C987 1.373 . S
C989 C973 1.377 . S
C989 C987 1.389 . S
C989 C990 1.524 . S
C990 C989 1.524 . S
C990 C991 1.397 . S
C990 C995 1.363 . S
C991 H962 0.950 . S
C991 C990 1.397 . S
C991 C992 1.334 . S
C992 H963 0.950 . S
C992 C991 1.334 . S
C992 C993 1.287 . S
C993 C992 1.287 . S
C993 C994 1.524 . S
C993 H996 0.999 . S
C994 H964 0.950 . S
C994 C993 1.524 . S
C994 C995 1.415 . S
C995 H965 0.950 . S
C995 C990 1.363 . S
C995 C994 1.415 . S
H996 C993 0.999 . S
H997 C978 0.913 . S
H998 C1016 0.951 . S
H999 C1018 0.951 . S
H1000 C1020 0.950 . S
H1001 C1021 0.950 . S
H1002 C1023 0.950 . S
H1003 C1026 0.950 . S
H1004 C1027 0.950 . S
H1005 C1029 0.950 . S
H1006 C1030 0.950 . S
H1007 C1031 0.951 . S
H1008 C1033 0.951 . S
H1009 C1035 0.950 . S
H1010 C1036 0.950 . S
H1011 C1038 0.950 . S
H1012 C1041 0.950 . S
H1013 C1042 0.950 . S
H1014 C1044 0.950 . S
H1015 C1045 0.950 . S
C1016 H998 0.951 . S
C1016 C1017 1.366 . S
C1016 C1018 1.388 . S
C1017 C1016 1.366 . S
C1017 C1021 1.385 . S
C1018 H999 0.951 . S
C1018 C1016 1.388 . S
C1018 C1019 1.366 . S
C1019 C1018 1.366 . S
C1019 C1020 1.414 . S
C1019 C1022 1.499 . S
C1020 H1000 0.950 . S
C1020 C1019 1.414 . S
C1020 C1021 1.374 . S
C1021 H1001 0.950 . S
C1021 C1017 1.385 . S
C1021 C1020 1.374 . S
C1022 C1019 1.499 . S
C1022 C1023 1.373 . S
C1022 C1024 1.389 . S
C1023 H1002 0.950 . S
C1023 C1022 1.373 . S
C1023 C1039 1.377 . S
C1024 C1022 1.389 . S
C1024 C1025 1.524 . S
C1024 C1038 1.377 . S
C1025 C1024 1.524 . S
C1025 C1026 1.397 . S
C1025 C1030 1.363 . S
C1026 H1003 0.950 . S
C1026 C1025 1.397 . S
C1026 C1027 1.334 . S
C1027 H1004 0.950 . S
C1027 C1026 1.334 . S
C1027 C1028 1.287 . S
C1028 C1027 1.287 . S
C1028 C1029 1.524 . S
C1028 H1047 0.913 . S
C1029 H1005 0.950 . S
C1029 C1028 1.524 . S
C1029 C1030 1.415 . S
C1030 H1006 0.950 . S
C1030 C1025 1.363 . S
C1030 C1029 1.415 . S
C1031 H1007 0.951 . S
C1031 C1032 1.366 . S
C1031 C1033 1.388 . S
C1032 C1031 1.366 . S
C1032 C1036 1.385 . S
C1033 H1008 0.951 . S
C1033 C1031 1.388 . S
C1033 C1034 1.366 . S
C1034 C1033 1.366 . S
C1034 C1035 1.414 . S
C1034 C1037 1.499 . S
C1035 H1009 0.950 . S
C1035 C1034 1.414 . S
C1035 C1036 1.374 . S
C1036 H1010 0.950 . S
C1036 C1032 1.385 . S
C1036 C1035 1.374 . S
C1037 C1034 1.499 . S
C1037 C1038 1.373 . S
C1037 C1039 1.389 . S
C1038 H1011 0.950 . S
C1038 C1024 1.377 . S
C1038 C1037 1.373 . S
C1039 C1023 1.377 . S
C1039 C1037 1.389 . S
C1039 C1040 1.524 . S
C1040 C1039 1.524 . S
C1040 C1041 1.397 . S
C1040 C1045 1.363 . S
C1041 H1012 0.950 . S
C1041 C1040 1.397 . S
C1041 C1042 1.334 . S
C1042 H1013 0.950 . S
C1042 C1041 1.334 . S
C1042 C1043 1.287 . S
C1043 C1042 1.287 . S
C1043 C1044 1.524 . S
C1043 H1046 0.999 . S
C1044 H1014 0.950 . S
C1044 C1043 1.524 . S
C1044 C1045 1.415 . S
C1045 H1015 0.950 . S
C1045 C1040 1.363 . S
C1045 C1044 1.415 . S
H1046 C1043 0.999 . S
H1047 C1028 0.913 . S
H1048 C1066 0.951 . S
H1049 C1068 0.951 . S
H1050 C1070 0.950 . S
H1051 C1071 0.950 . S
H1052 C1073 0.950 . S
H1053 C1076 0.950 . S
H1054 C1077 0.950 . S
H1055 C1079 0.950 . S
H1056 C1080 0.950 . S
H1057 C1081 0.951 . S
H1058 C1083 0.951 . S
H1059 C1085 0.950 . S
H1060 C1086 0.950 . S
H1061 C1088 0.950 . S
H1062 C1091 0.950 . S
H1063 C1092 0.950 . S
H1064 C1094 0.950 . S
H1065 C1095 0.950 . S
C1066 H1048 0.951 . S
C1066 C1067 1.366 . S
C1066 C1068 1.388 . S
C1067 C1066 1.366 . S
C1067 C1071 1.385 . S
C1068 H1049 0.951 . S
C1068 C1066 1.388 . S
C1068 C1069 1.366 . S
C1069 C1068 1.366 . S
C1069 C1070 1.414 . S
C1069 C1072 1.499 . S
C1070 H1050 0.950 . S
C1070 C1069 1.414 . S
C1070 C1071 1.374 . S
C1071 H1051 0.950 . S
C1071 C1067 1.385 . S
C1071 C1070 1.374 . S
C1072 C1069 1.499 . S
C1072 C1073 1.373 . S
C1072 C1074 1.389 . S
C1073 H1052 0.950 . S
C1073 C1072 1.373 . S
C1073 C1089 1.377 . S
C1074 C1072 1.389 . S
C1074 C1075 1.524 . S
C1074 C1088 1.377 . S
C1075 C1074 1.524 . S
C1075 C1076 1.397 . S
C1075 C1080 1.363 . S
C1076 H1053 0.950 . S
C1076 C1075 1.397 . S
C1076 C1077 1.334 . S
C1077 H1054 0.950 . S
C1077 C1076 1.334 . S
C1077 C1078 1.287 . S
C1078 C1077 1.287 . S
C1078 C1079 1.524 . S
C1078 H1097 0.913 . S
C1079 H1055 0.950 . S
C1079 C1078 1.524 . S
C1079 C1080 1.415 . S
C1080 H1056 0.950 . S
C1080 C1075 1.363 . S
C1080 C1079 1.415 . S
C1081 H1057 0.951 . S
C1081 C1082 1.366 . S
C1081 C1083 1.388 1_565 S
C1082 C1081 1.366 . S
C1082 C1086 1.385 . S
C1083 H1058 0.951 . S
C1083 C1081 1.388 1_545 S
C1083 C1084 1.366 . S
C1084 C1083 1.366 . S
C1084 C1085 1.414 . S
C1084 C1087 1.499 . S
C1085 H1059 0.950 . S
C1085 C1084 1.414 . S
C1085 C1086 1.374 1_545 S
C1086 H1060 0.950 . S
C1086 C1082 1.385 . S
C1086 C1085 1.374 1_565 S
C1087 C1084 1.499 . S
C1087 C1088 1.373 . S
C1087 C1089 1.389 . S
C1088 H1061 0.950 . S
C1088 C1074 1.377 . S
C1088 C1087 1.373 . S
C1089 C1073 1.377 . S
C1089 C1087 1.389 . S
C1089 C1090 1.524 . S
C1090 C1089 1.524 . S
C1090 C1091 1.397 . S
C1090 C1095 1.363 . S
C1091 H1062 0.950 . S
C1091 C1090 1.397 . S
C1091 C1092 1.334 . S
C1092 H1063 0.950 . S
C1092 C1091 1.334 . S
C1092 C1093 1.287 . S
C1093 C1092 1.287 . S
C1093 C1094 1.524 . S
C1093 H1096 0.999 . S
C1094 H1064 0.950 . S
C1094 C1093 1.524 . S
C1094 C1095 1.415 . S
C1095 H1065 0.950 . S
C1095 C1090 1.363 . S
C1095 C1094 1.415 . S
H1096 C1093 0.999 . S
H1097 C1078 0.913 . S
H1098 C1116 0.951 . S
H1099 C1118 0.951 . S
H1100 C1120 0.950 . S
H1101 C1121 0.950 . S
H1102 C1123 0.950 . S
H1103 C1126 0.950 . S
H1104 C1127 0.950 . S
H1105 C1129 0.950 . S
H1106 C1130 0.950 . S
H1107 C1131 0.951 . S
H1108 C1133 0.951 . S
H1109 C1135 0.950 . S
H1110 C1136 0.950 . S
H1111 C1138 0.950 . S
H1112 C1141 0.950 . S
H1113 C1142 0.950 . S
H1114 C1144 0.950 . S
H1115 C1145 0.950 . S
C1116 H1098 0.951 . S
C1116 C1117 1.366 . S
C1116 C1118 1.388 1_565 S
C1117 C1116 1.366 . S
C1117 C1121 1.385 . S
C1118 H1099 0.951 . S
C1118 C1116 1.388 1_545 S
C1118 C1119 1.366 . S
C1119 C1118 1.366 . S
C1119 C1120 1.414 . S
C1119 C1122 1.499 . S
C1120 H1100 0.950 . S
C1120 C1119 1.414 . S
C1120 C1121 1.374 1_545 S
C1121 H1101 0.950 . S
C1121 C1117 1.385 . S
C1121 C1120 1.374 1_565 S
C1122 C1119 1.499 . S
C1122 C1123 1.373 . S
C1122 C1124 1.389 . S
C1123 H1102 0.950 . S
C1123 C1122 1.373 . S
C1123 C1139 1.377 . S
C1124 C1122 1.389 . S
C1124 C1125 1.524 . S
C1124 C1138 1.377 . S
C1125 C1124 1.524 . S
C1125 C1126 1.397 . S
C1125 C1130 1.363 . S
C1126 H1103 0.950 . S
C1126 C1125 1.397 . S
C1126 C1127 1.334 . S
C1127 H1104 0.950 . S
C1127 C1126 1.334 . S
C1127 C1128 1.287 . S
C1128 C1127 1.287 . S
C1128 C1129 1.524 . S
C1128 H1147 0.913 . S
C1129 H1105 0.950 . S
C1129 C1128 1.524 . S
C1129 C1130 1.415 . S
C1130 H1106 0.950 . S
C1130 C1125 1.363 . S
C1130 C1129 1.415 . S
C1131 H1107 0.951 . S
C1131 C1132 1.366 . S
C1131 C1133 1.388 . S
C1132 C1131 1.366 . S
C1132 C1136 1.385 . S
C1133 H1108 0.951 . S
C1133 C1131 1.388 . S
C1133 C1134 1.366 . S
C1134 C1133 1.366 . S
C1134 C1135 1.414 . S
C1134 C1137 1.499 . S
C1135 H1109 0.950 . S
C1135 C1134 1.414 . S
C1135 C1136 1.374 . S
C1136 H1110 0.950 . S
C1136 C1132 1.385 . S
C1136 C1135 1.374 . S
C1137 C1134 1.499 . S
C1137 C1138 1.373 . S
C1137 C1139 1.389 . S
C1138 H1111 0.950 . S
C1138 C1124 1.377 . S
C1138 C1137 1.373 . S
C1139 C1123 1.377 . S
C1139 C1137 1.389 . S
C1139 C1140 1.524 . S
C1140 C1139 1.524 . S
C1140 C1141 1.397 . S
C1140 C1145 1.363 . S
C1141 H1112 0.950 . S
C1141 C1140 1.397 . S
C1141 C1142 1.334 . S
C1142 H1113 0.950 . S
C1142 C1141 1.334 . S
C1142 C1143 1.287 . S
C1143 C1142 1.287 . S
C1143 C1144 1.524 . S
C1143 H1146 0.999 . S
C1144 H1114 0.950 . S
C1144 C1143 1.524 . S
C1144 C1145 1.415 . S
C1145 H1115 0.950 . S
C1145 C1140 1.363 . S
C1145 C1144 1.415 . S
H1146 C1143 0.999 . S
H1147 C1128 0.913 . S
H1148 C1166 0.951 . S
H1149 C1168 0.951 . S
H1150 C1170 0.950 . S
H1151 C1171 0.950 . S
H1152 C1173 0.950 . S
H1153 C1176 0.950 . S
H1154 C1177 0.950 . S
H1155 C1179 0.950 . S
H1156 C1180 0.950 . S
H1157 C1181 0.951 . S
H1158 C1183 0.951 . S
H1159 C1185 0.950 . S
H1160 C1186 0.950 . S
H1161 C1188 0.950 . S
H1162 C1191 0.950 . S
H1163 C1192 0.950 . S
H1164 C1194 0.950 . S
H1165 C1195 0.950 . S
C1166 H1148 0.951 . S
C1166 C1167 1.366 . S
C1166 C1168 1.388 . S
C1167 C1166 1.366 . S
C1167 C1171 1.385 . S
C1168 H1149 0.951 . S
C1168 C1166 1.388 . S
C1168 C1169 1.366 . S
C1169 C1168 1.366 . S
C1169 C1170 1.414 . S
C1169 C1172 1.499 . S
C1170 H1150 0.950 . S
C1170 C1169 1.414 . S
C1170 C1171 1.374 . S
C1171 H1151 0.950 . S
C1171 C1167 1.385 . S
C1171 C1170 1.374 . S
C1172 C1169 1.499 . S
C1172 C1173 1.373 . S
C1172 C1174 1.389 . S
C1173 H1152 0.950 . S
C1173 C1172 1.373 . S
C1173 C1189 1.377 . S
C1174 C1172 1.389 . S
C1174 C1175 1.524 . S
C1174 C1188 1.377 . S
C1175 C1174 1.524 . S
C1175 C1176 1.397 . S
C1175 C1180 1.363 . S
C1176 H1153 0.950 . S
C1176 C1175 1.397 . S
C1176 C1177 1.334 . S
C1177 H1154 0.950 . S
C1177 C1176 1.334 . S
C1177 C1178 1.287 . S
C1178 C1177 1.287 . S
C1178 C1179 1.524 . S
C1178 H1197 0.913 . S
C1179 H1155 0.950 . S
C1179 C1178 1.524 . S
C1179 C1180 1.415 . S
C1180 H1156 0.950 . S
C1180 C1175 1.363 . S
C1180 C1179 1.415 . S
C1181 H1157 0.951 . S
C1181 C1182 1.366 . S
C1181 C1183 1.388 1_545 S
C1182 C1181 1.366 . S
C1182 C1186 1.385 . S
C1183 H1158 0.951 . S
C1183 C1181 1.388 1_565 S
C1183 C1184 1.366 . S
C1184 C1183 1.366 . S
C1184 C1185 1.414 . S
C1184 C1187 1.499 . S
C1185 H1159 0.950 . S
C1185 C1184 1.414 . S
C1185 C1186 1.374 1_565 S
C1186 H1160 0.950 . S
C1186 C1182 1.385 . S
C1186 C1185 1.374 1_545 S
C1187 C1184 1.499 . S
C1187 C1188 1.373 . S
C1187 C1189 1.389 . S
C1188 H1161 0.950 . S
C1188 C1174 1.377 . S
C1188 C1187 1.373 . S
C1189 C1173 1.377 . S
C1189 C1187 1.389 . S
C1189 C1190 1.524 . S
C1190 C1189 1.524 . S
C1190 C1191 1.397 . S
C1190 C1195 1.363 . S
C1191 H1162 0.950 . S
C1191 C1190 1.397 . S
C1191 C1192 1.334 . S
C1192 H1163 0.950 . S
C1192 C1191 1.334 . S
C1192 C1193 1.287 . S
C1193 C1192 1.287 . S
C1193 C1194 1.524 . S
C1193 H1196 0.999 . S
C1194 H1164 0.950 . S
C1194 C1193 1.524 . S
C1194 C1195 1.415 . S
C1195 H1165 0.950 . S
C1195 C1190 1.363 . S
C1195 C1194 1.415 . S
H1196 C1193 0.999 . S
H1197 C1178 0.913 . S
H1198 C1216 0.951 . S
H1199 C1218 0.951 . S
H1200 C1220 0.950 . S
H1201 C1221 0.950 . S
H1202 C1223 0.950 . S
H1203 C1226 0.950 . S
H1204 C1227 0.950 . S
H1205 C1229 0.950 . S
H1206 C1230 0.950 . S
H1207 C1231 0.951 . S
H1208 C1233 0.951 . S
H1209 C1235 0.950 . S
H1210 C1236 0.950 . S
H1211 C1238 0.950 . S
H1212 C1241 0.950 . S
H1213 C1242 0.950 . S
H1214 C1244 0.950 . S
H1215 C1245 0.950 . S
C1216 H1198 0.951 . S
C1216 C1217 1.366 . S
C1216 C1218 1.388 . S
C1217 C1216 1.366 . S
C1217 C1221 1.385 . S
C1218 H1199 0.951 . S
C1218 C1216 1.388 . S
C1218 C1219 1.366 . S
C1219 C1218 1.366 . S
C1219 C1220 1.414 . S
C1219 C1222 1.499 . S
C1220 H1200 0.950 . S
C1220 C1219 1.414 . S
C1220 C1221 1.374 . S
C1221 H1201 0.950 . S
C1221 C1217 1.385 . S
C1221 C1220 1.374 . S
C1222 C1219 1.499 . S
C1222 C1223 1.373 . S
C1222 C1224 1.389 . S
C1223 H1202 0.950 . S
C1223 C1222 1.373 . S
C1223 C1239 1.377 . S
C1224 C1222 1.389 . S
C1224 C1225 1.524 . S
C1224 C1238 1.377 . S
C1225 C1224 1.524 . S
C1225 C1226 1.397 . S
C1225 C1230 1.363 . S
C1226 H1203 0.950 . S
C1226 C1225 1.397 . S
C1226 C1227 1.334 . S
C1227 H1204 0.950 . S
C1227 C1226 1.334 . S
C1227 C1228 1.287 . S
C1228 C1227 1.287 . S
C1228 C1229 1.524 . S
C1228 H1247 0.913 . S
C1229 H1205 0.950 . S
C1229 C1228 1.524 . S
C1229 C1230 1.415 . S
C1230 H1206 0.950 . S
C1230 C1225 1.363 . S
C1230 C1229 1.415 . S
C1231 H1207 0.951 . S
C1231 C1232 1.366 . S
C1231 C1233 1.388 1_545 S
C1232 C1231 1.366 . S
C1232 C1236 1.385 . S
C1233 H1208 0.951 . S
C1233 C1231 1.388 1_565 S
C1233 C1234 1.366 . S
C1234 C1233 1.366 . S
C1234 C1235 1.414 . S
C1234 C1237 1.499 . S
C1235 H1209 0.950 . S
C1235 C1234 1.414 . S
C1235 C1236 1.374 1_565 S
C1236 H1210 0.950 . S
C1236 C1232 1.385 . S
C1236 C1235 1.374 1_545 S
C1237 C1234 1.499 . S
C1237 C1238 1.373 . S
C1237 C1239 1.389 . S
C1238 H1211 0.950 . S
C1238 C1224 1.377 . S
C1238 C1237 1.373 . S
C1239 C1223 1.377 . S
C1239 C1237 1.389 . S
C1239 C1240 1.524 . S
C1240 C1239 1.524 . S
C1240 C1241 1.397 . S
C1240 C1245 1.363 . S
C1241 H1212 0.950 . S
C1241 C1240 1.397 . S
C1241 C1242 1.334 . S
C1242 H1213 0.950 . S
C1242 C1241 1.334 . S
C1242 C1243 1.287 . S
C1243 C1242 1.287 . S
C1243 C1244 1.524 . S
C1243 H1246 0.999 . S
C1244 H1214 0.950 . S
C1244 C1243 1.524 . S
C1244 C1245 1.415 . S
C1245 H1215 0.950 . S
C1245 C1240 1.363 . S
C1245 C1244 1.415 . S
H1246 C1243 0.999 . S
H1247 C1228 0.913 . S
H1248 C1266 0.951 . S
H1249 C1268 0.951 . S
H1250 C1270 0.950 . S
H1251 C1271 0.950 . S
H1252 C1273 0.952 . S
H1253 C1276 0.950 . S
H1254 C1277 0.950 . S
H1255 C1279 0.950 . S
H1256 C1280 0.950 . S
H1257 C1281 0.951 . S
H1258 C1283 0.951 . S
H1259 C1285 0.950 . S
H1260 C1286 0.950 . S
H1261 C1288 0.952 . S
H1262 C1291 0.950 . S
H1263 C1292 0.950 . S
H1264 C1294 0.950 . S
H1265 C1295 0.950 . S
C1266 H1248 0.951 . S
C1266 C1267 1.366 . S
C1266 C1268 1.388 . S
C1267 C1266 1.366 . S
C1267 C1271 1.385 . S
C1268 H1249 0.951 . S
C1268 C1266 1.388 . S
C1268 C1269 1.366 . S
C1269 C1268 1.366 . S
C1269 C1270 1.414 . S
C1269 C1272 1.499 . S
C1270 H1250 0.950 . S
C1270 C1269 1.414 . S
C1270 C1271 1.374 . S
C1271 H1251 0.950 . S
C1271 C1267 1.385 . S
C1271 C1270 1.374 . S
C1272 C1269 1.499 . S
C1272 C1273 1.345 1_556 S
C1272 C1274 1.389 1_655 S
C1273 H1252 0.952 . S
C1273 C1272 1.345 1_554 S
C1273 C1289 1.403 . S
C1274 C1272 1.389 1_455 S
C1274 C1275 1.524 . S
C1274 C1288 1.403 . S
C1275 C1274 1.524 . S
C1275 C1276 1.397 . S
C1275 C1280 1.363 . S
C1276 H1253 0.950 . S
C1276 C1275 1.397 . S
C1276 C1277 1.334 . S
C1277 H1254 0.950 . S
C1277 C1276 1.334 . S
C1277 C1278 1.287 . S
C1278 C1277 1.287 . S
C1278 C1279 1.524 . S
C1278 H1297 0.913 . S
C1279 H1255 0.950 . S
C1279 C1278 1.524 . S
C1279 C1280 1.415 . S
C1280 H1256 0.950 . S
C1280 C1275 1.363 . S
C1280 C1279 1.415 . S
C1281 H1257 0.951 . S
C1281 C1282 1.366 . S
C1281 C1283 1.388 . S
C1282 C1281 1.366 . S
C1282 C1286 1.385 . S
C1283 H1258 0.951 . S
C1283 C1281 1.388 . S
C1283 C1284 1.366 . S
C1284 C1283 1.366 . S
C1284 C1285 1.414 . S
C1284 C1287 1.499 . S
C1285 H1259 0.950 . S
C1285 C1284 1.414 . S
C1285 C1286 1.374 . S
C1286 H1260 0.950 . S
C1286 C1282 1.385 . S
C1286 C1285 1.374 . S
C1287 C1284 1.499 . S
C1287 C1288 1.345 1_554 S
C1287 C1289 1.389 1_455 S
C1288 H1261 0.952 . S
C1288 C1274 1.403 . S
C1288 C1287 1.345 1_556 S
C1289 C1273 1.403 . S
C1289 C1287 1.389 1_655 S
C1289 C1290 1.524 . S
C1290 C1289 1.524 . S
C1290 C1291 1.397 . S
C1290 C1295 1.363 . S
C1291 H1262 0.950 . S
C1291 C1290 1.397 . S
C1291 C1292 1.334 . S
C1292 H1263 0.950 . S
C1292 C1291 1.334 . S
C1292 C1293 1.287 . S
C1293 C1292 1.287 . S
C1293 C1294 1.524 . S
C1293 H1296 0.999 . S
C1294 H1264 0.950 . S
C1294 C1293 1.524 . S
C1294 C1295 1.415 . S
C1295 H1265 0.950 . S
C1295 C1290 1.363 . S
C1295 C1294 1.415 . S
H1296 C1293 0.999 . S
H1297 C1278 0.913 . S
H1298 C1316 0.951 . S
H1299 C1318 0.951 . S
H1300 C1320 0.950 . S
H1301 C1321 0.950 . S
H1302 C1323 0.950 . S
H1303 C1326 0.950 . S
H1304 C1327 0.950 . S
H1305 C1329 0.950 . S
H1306 C1330 0.950 1_554 S
H1307 C1331 0.951 . S
H1308 C1333 0.951 . S
H1309 C1335 0.950 . S
H1310 C1336 0.950 . S
H1311 C1338 0.950 . S
H1312 C1341 0.950 . S
H1313 C1342 0.950 . S
H1314 C1344 0.950 . S
H1315 C1345 0.950 1_556 S
C1316 H1298 0.951 . S
C1316 C1317 1.366 . S
C1316 C1318 1.388 . S
C1317 C1316 1.366 . S
C1317 C1321 1.385 . S
C1318 H1299 0.951 . S
C1318 C1316 1.388 . S
C1318 C1319 1.366 . S
C1319 C1318 1.366 . S
C1319 C1320 1.414 . S
C1319 C1322 1.499 . S
C1320 H1300 0.950 . S
C1320 C1319 1.414 . S
C1320 C1321 1.374 . S
C1321 H1301 0.950 . S
C1321 C1317 1.385 . S
C1321 C1320 1.374 . S
C1322 C1319 1.499 . S
C1322 C1323 1.373 . S
C1322 C1324 1.389 . S
C1323 H1302 0.950 . S
C1323 C1322 1.373 . S
C1323 C1339 1.377 1_556 S
C1324 C1322 1.389 . S
C1324 C1325 1.524 . S
C1324 C1338 1.377 1_556 S
C1325 C1324 1.524 . S
C1325 C1326 1.397 . S
C1325 C1330 1.363 . S
C1326 H1303 0.950 . S
C1326 C1325 1.397 . S
C1326 C1327 1.334 . S
C1327 H1304 0.950 . S
C1327 C1326 1.334 . S
C1327 C1328 1.287 . S
C1328 C1327 1.287 . S
C1328 C1329 1.524 . S
C1328 H1347 0.913 . S
C1329 H1305 0.950 . S
C1329 C1328 1.524 . S
C1329 C1330 1.415 . S
C1330 H1306 0.950 1_556 S
C1330 C1325 1.363 . S
C1330 C1329 1.415 . S
C1331 H1307 0.951 . S
C1331 C1332 1.366 . S
C1331 C1333 1.388 . S
C1332 C1331 1.366 . S
C1332 C1336 1.385 . S
C1333 H1308 0.951 . S
C1333 C1331 1.388 . S
C1333 C1334 1.366 . S
C1334 C1333 1.366 . S
C1334 C1335 1.414 . S
C1334 C1337 1.499 . S
C1335 H1309 0.950 . S
C1335 C1334 1.414 . S
C1335 C1336 1.374 . S
C1336 H1310 0.950 . S
C1336 C1332 1.385 . S
C1336 C1335 1.374 . S
C1337 C1334 1.499 . S
C1337 C1338 1.373 . S
C1337 C1339 1.389 . S
C1338 H1311 0.950 . S
C1338 C1324 1.377 1_554 S
C1338 C1337 1.373 . S
C1339 C1323 1.377 1_554 S
C1339 C1337 1.389 . S
C1339 C1340 1.524 . S
C1340 C1339 1.524 . S
C1340 C1341 1.397 . S
C1340 C1345 1.363 . S
C1341 H1312 0.950 . S
C1341 C1340 1.397 . S
C1341 C1342 1.334 . S
C1342 H1313 0.950 . S
C1342 C1341 1.334 . S
C1342 C1343 1.287 . S
C1343 C1342 1.287 . S
C1343 C1344 1.524 . S
C1343 H1346 0.999 . S
C1344 H1314 0.950 . S
C1344 C1343 1.524 . S
C1344 C1345 1.415 . S
C1345 H1315 0.950 1_554 S
C1345 C1340 1.363 . S
C1345 C1344 1.415 . S
H1346 C1343 0.999 . S
H1347 C1328 0.913 . S
H1348 C1366 0.951 . S
H1349 C1368 0.951 . S
H1350 C1370 0.950 . S
H1351 C1371 0.950 . S
H1352 C1373 0.950 . S
H1353 C1376 0.950 . S
H1354 C1377 0.950 . S
H1355 C1379 0.950 . S
H1356 C1380 0.950 . S
H1357 C1381 0.951 . S
H1358 C1383 0.951 . S
H1359 C1385 0.950 . S
H1360 C1386 0.950 . S
H1361 C1388 0.950 . S
H1362 C1391 0.950 . S
H1363 C1392 0.950 . S
H1364 C1394 0.950 . S
H1365 C1395 0.950 . S
C1366 H1348 0.951 . S
C1366 C1367 1.366 . S
C1366 C1368 1.388 . S
C1367 C1366 1.366 . S
C1367 C1371 1.385 . S
C1368 H1349 0.951 . S
C1368 C1366 1.388 . S
C1368 C1369 1.366 . S
C1369 C1368 1.366 . S
C1369 C1370 1.414 . S
C1369 C1372 1.499 . S
C1370 H1350 0.950 . S
C1370 C1369 1.414 . S
C1370 C1371 1.374 . S
C1371 H1351 0.950 . S
C1371 C1367 1.385 . S
C1371 C1370 1.374 . S
C1372 C1369 1.499 . S
C1372 C1373 1.373 . S
C1372 C1374 1.389 . S
C1373 H1352 0.950 . S
C1373 C1372 1.373 . S
C1373 C1389 1.377 1_455 S
C1374 C1372 1.389 . S
C1374 C1375 1.524 . S
C1374 C1388 1.377 1_455 S
C1375 C1374 1.524 . S
C1375 C1376 1.397 . S
C1375 C1380 1.363 1_455 S
C1376 H1353 0.950 . S
C1376 C1375 1.397 . S
C1376 C1377 1.334 . S
C1377 H1354 0.950 . S
C1377 C1376 1.334 . S
C1377 C1378 1.287 . S
C1378 C1377 1.287 . S
C1378 C1379 1.524 1_455 S
C1378 H1397 0.913 . S
C1379 H1355 0.950 . S
C1379 C1378 1.524 1_655 S
C1379 C1380 1.415 . S
C1380 H1356 0.950 . S
C1380 C1375 1.363 1_655 S
C1380 C1379 1.415 . S
C1381 H1357 0.951 . S
C1381 C1382 1.366 . S
C1381 C1383 1.388 . S
C1382 C1381 1.366 . S
C1382 C1386 1.385 . S
C1383 H1358 0.951 . S
C1383 C1381 1.388 . S
C1383 C1384 1.366 . S
C1384 C1383 1.366 . S
C1384 C1385 1.414 . S
C1384 C1387 1.499 . S
C1385 H1359 0.950 . S
C1385 C1384 1.414 . S
C1385 C1386 1.374 . S
C1386 H1360 0.950 . S
C1386 C1382 1.385 . S
C1386 C1385 1.374 . S
C1387 C1384 1.499 . S
C1387 C1388 1.373 . S
C1387 C1389 1.389 . S
C1388 H1361 0.950 . S
C1388 C1374 1.377 1_655 S
C1388 C1387 1.373 . S
C1389 C1373 1.377 1_655 S
C1389 C1387 1.389 . S
C1389 C1390 1.524 . S
C1390 C1389 1.524 . S
C1390 C1391 1.397 . S
C1390 C1395 1.363 1_655 S
C1391 H1362 0.950 . S
C1391 C1390 1.397 . S
C1391 C1392 1.334 . S
C1392 H1363 0.950 . S
C1392 C1391 1.334 . S
C1392 C1393 1.287 . S
C1393 C1392 1.287 . S
C1393 C1394 1.524 1_655 S
C1393 H1396 0.999 . S
C1394 H1364 0.950 . S
C1394 C1393 1.524 1_455 S
C1394 C1395 1.415 . S
C1395 H1365 0.950 . S
C1395 C1390 1.363 1_455 S
C1395 C1394 1.415 . S
H1396 C1393 0.999 . S
H1397 C1378 0.913 . S
H1398 C1416 0.951 . S
H1399 C1418 0.951 . S
H1400 C1420 0.950 . S
H1401 C1421 0.950 . S
H1402 C1423 0.950 . S
H1403 C1426 0.950 . S
H1404 C1427 0.950 . S
H1405 C1429 0.950 . S
H1406 C1430 0.950 . S
H1407 C1431 0.951 . S
H1408 C1433 0.951 . S
H1409 C1435 0.950 . S
H1410 C1436 0.950 . S
H1411 C1438 0.950 . S
H1412 C1441 0.950 . S
H1413 C1442 0.950 . S
H1414 C1444 0.950 . S
H1415 C1445 0.950 . S
C1416 H1398 0.951 . S
C1416 C1417 1.366 . S
C1416 C1418 1.388 . S
C1417 C1416 1.366 . S
C1417 C1421 1.385 . S
C1418 H1399 0.951 . S
C1418 C1416 1.388 . S
C1418 C1419 1.366 . S
C1419 C1418 1.366 . S
C1419 C1420 1.414 . S
C1419 C1422 1.499 . S
C1420 H1400 0.950 . S
C1420 C1419 1.414 . S
C1420 C1421 1.374 . S
C1421 H1401 0.950 . S
C1421 C1417 1.385 . S
C1421 C1420 1.374 . S
C1422 C1419 1.499 . S
C1422 C1423 1.373 . S
C1422 C1424 1.389 . S
C1423 H1402 0.950 . S
C1423 C1422 1.373 . S
C1423 C1439 1.377 . S
C1424 C1422 1.389 . S
C1424 C1425 1.524 . S
C1424 C1438 1.377 . S
C1425 C1424 1.524 . S
C1425 C1426 1.397 . S
C1425 C1430 1.363 . S
C1426 H1403 0.950 . S
C1426 C1425 1.397 . S
C1426 C1427 1.334 . S
C1427 H1404 0.950 . S
C1427 C1426 1.334 . S
C1427 C1428 1.287 . S
C1428 C1427 1.287 . S
C1428 C1429 1.524 . S
C1428 H1447 0.913 . S
C1429 H1405 0.950 . S
C1429 C1428 1.524 . S
C1429 C1430 1.415 . S
C1430 H1406 0.950 . S
C1430 C1425 1.363 . S
C1430 C1429 1.415 . S
C1431 H1407 0.951 . S
C1431 C1432 1.366 . S
C1431 C1433 1.388 . S
C1432 C1431 1.366 . S
C1432 C1436 1.385 . S
C1433 H1408 0.951 . S
C1433 C1431 1.388 . S
C1433 C1434 1.366 . S
C1434 C1433 1.366 . S
C1434 C1435 1.414 . S
C1434 C1437 1.499 . S
C1435 H1409 0.950 . S
C1435 C1434 1.414 . S
C1435 C1436 1.374 . S
C1436 H1410 0.950 . S
C1436 C1432 1.385 . S
C1436 C1435 1.374 . S
C1437 C1434 1.499 . S
C1437 C1438 1.373 . S
C1437 C1439 1.389 . S
C1438 H1411 0.950 . S
C1438 C1424 1.377 . S
C1438 C1437 1.373 . S
C1439 C1423 1.377 . S
C1439 C1437 1.389 . S
C1439 C1440 1.524 . S
C1440 C1439 1.524 . S
C1440 C1441 1.397 . S
C1440 C1445 1.363 . S
C1441 H1412 0.950 . S
C1441 C1440 1.397 . S
C1441 C1442 1.334 . S
C1442 H1413 0.950 . S
C1442 C1441 1.334 . S
C1442 C1443 1.287 . S
C1443 C1442 1.287 . S
C1443 C1444 1.524 . S
C1443 H1446 0.999 . S
C1444 H1414 0.950 . S
C1444 C1443 1.524 . S
C1444 C1445 1.415 . S
C1445 H1415 0.950 . S
C1445 C1440 1.363 . S
C1445 C1444 1.415 . S
H1446 C1443 0.999 . S
H1447 C1428 0.913 . S
H1448 C1466 0.951 . S
H1449 C1468 0.951 . S
H1450 C1470 0.950 . S
H1451 C1471 0.950 . S
H1452 C1473 0.950 . S
H1453 C1476 0.950 . S
H1454 C1477 0.950 . S
H1455 C1479 0.950 . S
H1456 C1480 0.950 . S
H1457 C1481 0.951 . S
H1458 C1483 0.951 . S
H1459 C1485 0.950 . S
H1460 C1486 0.950 . S
H1461 C1488 0.950 . S
H1462 C1491 0.950 . S
H1463 C1492 0.950 . S
H1464 C1494 0.950 . S
H1465 C1495 0.950 . S
C1466 H1448 0.951 . S
C1466 C1467 1.366 . S
C1466 C1468 1.388 . S
C1467 C1466 1.366 . S
C1467 C1471 1.385 . S
C1468 H1449 0.951 . S
C1468 C1466 1.388 . S
C1468 C1469 1.366 . S
C1469 C1468 1.366 . S
C1469 C1470 1.414 . S
C1469 C1472 1.499 . S
C1470 H1450 0.950 . S
C1470 C1469 1.414 . S
C1470 C1471 1.374 . S
C1471 H1451 0.950 . S
C1471 C1467 1.385 . S
C1471 C1470 1.374 . S
C1472 C1469 1.499 . S
C1472 C1473 1.373 . S
C1472 C1474 1.389 . S
C1473 H1452 0.950 . S
C1473 C1472 1.373 . S
C1473 C1489 1.377 1_556 S
C1474 C1472 1.389 . S
C1474 C1475 1.524 . S
C1474 C1488 1.377 1_556 S
C1475 C1474 1.524 . S
C1475 C1476 1.397 . S
C1475 C1480 1.363 . S
C1476 H1453 0.950 . S
C1476 C1475 1.397 . S
C1476 C1477 1.334 . S
C1477 H1454 0.950 . S
C1477 C1476 1.334 . S
C1477 C1478 1.287 . S
C1478 C1477 1.287 . S
C1478 C1479 1.524 . S
C1478 H1497 0.913 . S
C1479 H1455 0.950 . S
C1479 C1478 1.524 . S
C1479 C1480 1.415 . S
C1480 H1456 0.950 . S
C1480 C1475 1.363 . S
C1480 C1479 1.415 . S
C1481 H1457 0.951 . S
C1481 C1482 1.366 . S
C1481 C1483 1.388 . S
C1482 C1481 1.366 . S
C1482 C1486 1.385 . S
C1483 H1458 0.951 . S
C1483 C1481 1.388 . S
C1483 C1484 1.366 . S
C1484 C1483 1.366 . S
C1484 C1485 1.414 . S
C1484 C1487 1.499 . S
C1485 H1459 0.950 . S
C1485 C1484 1.414 . S
C1485 C1486 1.374 . S
C1486 H1460 0.950 . S
C1486 C1482 1.385 . S
C1486 C1485 1.374 . S
C1487 C1484 1.499 . S
C1487 C1488 1.373 . S
C1487 C1489 1.389 . S
C1488 H1461 0.950 . S
C1488 C1474 1.377 1_554 S
C1488 C1487 1.373 . S
C1489 C1473 1.377 1_554 S
C1489 C1487 1.389 . S
C1489 C1490 1.524 . S
C1490 C1489 1.524 . S
C1490 C1491 1.397 . S
C1490 C1495 1.363 . S
C1491 H1462 0.950 . S
C1491 C1490 1.397 . S
C1491 C1492 1.334 . S
C1492 H1463 0.950 . S
C1492 C1491 1.334 . S
C1492 C1493 1.287 . S
C1493 C1492 1.287 . S
C1493 C1494 1.524 . S
C1493 H1496 0.999 . S
C1494 H1464 0.950 . S
C1494 C1493 1.524 . S
C1494 C1495 1.415 . S
C1495 H1465 0.950 . S
C1495 C1490 1.363 . S
C1495 C1494 1.415 . S
H1496 C1493 0.999 . S
H1497 C1478 0.913 . S
H1498 C1516 0.951 . S
H1499 C1518 0.951 . S
H1500 C1520 0.950 . S
H1501 C1521 0.950 . S
H1502 C1523 0.950 . S
H1503 C1526 0.990 . S
H1504 C1527 0.950 . S
H1505 C1529 0.950 . S
H1506 C1530 0.950 . S
H1507 C1531 0.951 . S
H1508 C1533 0.951 . S
H1509 C1535 0.950 . S
H1510 C1536 0.950 . S
H1511 C1538 0.950 . S
H1512 C1541 0.990 . S
H1513 C1542 0.950 . S
H1514 C1544 0.950 . S
H1515 C1545 0.950 . S
C1516 H1498 0.951 . S
C1516 C1517 1.366 . S
C1516 C1518 1.388 . S
C1517 C1516 1.366 . S
C1517 C1521 1.385 . S
C1518 H1499 0.951 . S
C1518 C1516 1.388 . S
C1518 C1519 1.366 . S
C1519 C1518 1.366 . S
C1519 C1520 1.414 . S
C1519 C1522 1.499 . S
C1520 H1500 0.950 . S
C1520 C1519 1.414 . S
C1520 C1521 1.374 . S
C1521 H1501 0.950 . S
C1521 C1517 1.385 . S
C1521 C1520 1.374 . S
C1522 C1519 1.499 . S
C1522 C1523 1.373 . S
C1522 C1524 1.389 1_655 S
C1523 H1502 0.950 . S
C1523 C1522 1.373 . S
C1523 C1539 1.377 . S
C1524 C1522 1.389 1_455 S
C1524 C1525 1.524 . S
C1524 C1538 1.377 . S
C1525 C1524 1.524 . S
C1525 C1526 1.397 . S
C1525 C1530 1.363 . S
C1526 H1503 0.990 . S
C1526 C1525 1.397 . S
C1526 C1527 1.334 . S
C1527 H1504 0.950 . S
C1527 C1526 1.334 . S
C1527 C1528 1.287 . S
C1528 C1527 1.287 . S
C1528 C1529 1.524 . S
C1528 H1547 0.913 . S
C1529 H1505 0.950 . S
C1529 C1528 1.524 . S
C1529 C1530 1.415 . S
C1530 H1506 0.950 . S
C1530 C1525 1.363 . S
C1530 C1529 1.415 . S
C1531 H1507 0.951 . S
C1531 C1532 1.366 . S
C1531 C1533 1.388 . S
C1532 C1531 1.366 . S
C1532 C1536 1.385 . S
C1533 H1508 0.951 . S
C1533 C1531 1.388 . S
C1533 C1534 1.366 . S
C1534 C1533 1.366 . S
C1534 C1535 1.414 . S
C1534 C1537 1.499 . S
C1535 H1509 0.950 . S
C1535 C1534 1.414 . S
C1535 C1536 1.374 . S
C1536 H1510 0.950 . S
C1536 C1532 1.385 . S
C1536 C1535 1.374 . S
C1537 C1534 1.499 . S
C1537 C1538 1.373 . S
C1537 C1539 1.389 1_455 S
C1538 H1511 0.950 . S
C1538 C1524 1.377 . S
C1538 C1537 1.373 . S
C1539 C1523 1.377 . S
C1539 C1537 1.389 1_655 S
C1539 C1540 1.524 . S
C1540 C1539 1.524 . S
C1540 C1541 1.397 . S
C1540 C1545 1.363 . S
C1541 H1512 0.990 . S
C1541 C1540 1.397 . S
C1541 C1542 1.334 . S
C1542 H1513 0.950 . S
C1542 C1541 1.334 . S
C1542 C1543 1.287 . S
C1543 C1542 1.287 . S
C1543 C1544 1.524 . S
C1543 H1546 0.999 . S
C1544 H1514 0.950 . S
C1544 C1543 1.524 . S
C1544 C1545 1.415 . S
C1545 H1515 0.950 . S
C1545 C1540 1.363 . S
C1545 C1544 1.415 . S
H1546 C1543 0.999 . S
H1547 C1528 0.913 . S
H1548 C1566 0.951 . S
H1549 C1568 0.951 . S
H1550 C1570 0.950 . S
H1551 C1571 0.950 . S
H1552 C1573 0.950 . S
H1553 C1576 0.950 . S
H1554 C1577 0.950 . S
H1555 C1579 0.950 . S
H1556 C1580 0.950 . S
H1557 C1581 0.951 . S
H1558 C1583 0.951 . S
H1559 C1585 0.950 . S
H1560 C1586 0.950 . S
H1561 C1588 0.950 . S
H1562 C1591 0.950 . S
H1563 C1592 0.950 . S
H1564 C1594 0.950 . S
H1565 C1595 0.950 . S
C1566 H1548 0.951 . S
C1566 C1567 1.366 . S
C1566 C1568 1.388 . S
C1567 C1566 1.366 . S
C1567 C1571 1.385 . S
C1568 H1549 0.951 . S
C1568 C1566 1.388 . S
C1568 C1569 1.366 . S
C1569 C1568 1.366 . S
C1569 C1570 1.414 . S
C1569 C1572 1.499 . S
C1570 H1550 0.950 . S
C1570 C1569 1.414 . S
C1570 C1571 1.374 . S
C1571 H1551 0.950 . S
C1571 C1567 1.385 . S
C1571 C1570 1.374 . S
C1572 C1569 1.499 . S
C1572 C1573 1.373 . S
C1572 C1574 1.389 . S
C1573 H1552 0.950 . S
C1573 C1572 1.373 . S
C1573 C1589 1.377 . S
C1574 C1572 1.389 . S
C1574 C1575 1.524 . S
C1574 C1588 1.377 . S
C1575 C1574 1.524 . S
C1575 C1576 1.397 . S
C1575 C1580 1.363 . S
C1576 H1553 0.950 . S
C1576 C1575 1.397 . S
C1576 C1577 1.334 . S
C1577 H1554 0.950 . S
C1577 C1576 1.334 . S
C1577 C1578 1.287 . S
C1578 C1577 1.287 . S
C1578 C1579 1.524 . S
C1578 H1597 0.913 . S
C1579 H1555 0.950 . S
C1579 C1578 1.524 . S
C1579 C1580 1.415 . S
C1580 H1556 0.950 . S
C1580 C1575 1.363 . S
C1580 C1579 1.415 . S
C1581 H1557 0.951 . S
C1581 C1582 1.366 . S
C1581 C1583 1.388 . S
C1582 C1581 1.366 . S
C1582 C1586 1.385 . S
C1583 H1558 0.951 . S
C1583 C1581 1.388 . S
C1583 C1584 1.366 . S
C1584 C1583 1.366 . S
C1584 C1585 1.414 . S
C1584 C1587 1.499 . S
C1585 H1559 0.950 . S
C1585 C1584 1.414 . S
C1585 C1586 1.374 . S
C1586 H1560 0.950 . S
C1586 C1582 1.385 . S
C1586 C1585 1.374 . S
C1587 C1584 1.499 . S
C1587 C1588 1.373 . S
C1587 C1589 1.389 . S
C1588 H1561 0.950 . S
C1588 C1574 1.377 . S
C1588 C1587 1.373 . S
C1589 C1573 1.377 . S
C1589 C1587 1.389 . S
C1589 C1590 1.524 . S
C1590 C1589 1.524 . S
C1590 C1591 1.397 . S
C1590 C1595 1.363 . S
C1591 H1562 0.950 . S
C1591 C1590 1.397 . S
C1591 C1592 1.334 . S
C1592 H1563 0.950 . S
C1592 C1591 1.334 . S
C1592 C1593 1.287 . S
C1593 C1592 1.287 . S
C1593 C1594 1.524 . S
C1593 H1596 0.999 . S
C1594 H1564 0.950 . S
C1594 C1593 1.524 . S
C1594 C1595 1.415 . S
C1595 H1565 0.950 . S
C1595 C1590 1.363 . S
C1595 C1594 1.415 . S
H1596 C1593 0.999 . S
H1597 C1578 0.913 . S
H1598 C1616 0.951 . S
H1599 C1618 0.951 . S
H1600 C1620 0.843 1_455 S
H1601 C1621 0.950 . S
H1602 C1623 0.950 . S
H1603 C1626 0.950 . S
H1604 C1627 0.950 . S
H1605 C1629 0.950 . S
H1606 C1630 0.950 . S
H1607 C1631 0.951 . S
H1608 C1633 0.951 . S
H1609 C1635 0.843 1_655 S
H1610 C1636 0.950 . S
H1611 C1638 0.950 . S
H1612 C1641 0.950 . S
H1613 C1642 0.950 . S
H1614 C1644 0.950 . S
H1615 C1645 0.950 . S
C1616 H1598 0.951 . S
C1616 C1617 1.366 . S
C1616 C1618 1.388 . S
C1617 C1616 1.366 . S
C1617 C1621 1.385 . S
C1618 H1599 0.951 . S
C1618 C1616 1.388 . S
C1618 C1619 1.366 . S
C1619 C1618 1.366 . S
C1619 C1620 1.414 . S
C1619 C1622 1.499 . S
C1620 H1600 0.843 1_655 S
C1620 C1619 1.414 . S
C1620 C1621 1.374 . S
C1621 H1601 0.950 . S
C1621 C1617 1.385 . S
C1621 C1620 1.374 . S
C1622 C1619 1.499 . S
C1622 C1623 1.373 1_645 S
C1622 C1624 1.389 . S
C1623 H1602 0.950 . S
C1623 C1622 1.373 1_465 S
C1623 C1639 1.377 . S
C1624 C1622 1.389 . S
C1624 C1625 1.524 . S
C1624 C1638 1.377 . S
C1625 C1624 1.524 . S
C1625 C1626 1.397 . S
C1625 C1630 1.363 . S
C1626 H1603 0.950 . S
C1626 C1625 1.397 . S
C1626 C1627 1.334 . S
C1627 H1604 0.950 . S
C1627 C1626 1.334 . S
C1627 C1628 1.287 . S
C1628 C1627 1.287 . S
C1628 C1629 1.524 . S
C1628 H1647 0.913 . S
C1629 H1605 0.950 . S
C1629 C1628 1.524 . S
C1629 C1630 1.415 . S
C1630 H1606 0.950 . S
C1630 C1625 1.363 . S
C1630 C1629 1.415 . S
C1631 H1607 0.951 . S
C1631 C1632 1.366 . S
C1631 C1633 1.388 . S
C1632 C1631 1.366 . S
C1632 C1636 1.385 . S
C1633 H1608 0.951 . S
C1633 C1631 1.388 . S
C1633 C1634 1.366 . S
C1634 C1633 1.366 . S
C1634 C1635 1.414 . S
C1634 C1637 1.499 . S
C1635 H1609 0.843 1_455 S
C1635 C1634 1.414 . S
C1635 C1636 1.374 . S
C1636 H1610 0.950 . S
C1636 C1632 1.385 . S
C1636 C1635 1.374 . S
C1637 C1634 1.499 . S
C1637 C1638 1.373 1_465 S
C1637 C1639 1.389 . S
C1638 H1611 0.950 . S
C1638 C1624 1.377 . S
C1638 C1637 1.373 1_645 S
C1639 C1623 1.377 . S
C1639 C1637 1.389 . S
C1639 C1640 1.524 . S
C1640 C1639 1.524 . S
C1640 C1641 1.397 . S
C1640 C1645 1.363 . S
C1641 H1612 0.950 . S
C1641 C1640 1.397 . S
C1641 C1642 1.334 . S
C1642 H1613 0.950 . S
C1642 C1641 1.334 . S
C1642 C1643 1.287 . S
C1643 C1642 1.287 . S
C1643 C1644 1.524 . S
C1643 H1646 0.999 . S
C1644 H1614 0.950 . S
C1644 C1643 1.524 . S
C1644 C1645 1.415 . S
C1645 H1615 0.950 . S
C1645 C1640 1.363 . S
C1645 C1644 1.415 . S
H1646 C1643 0.999 . S
H1647 C1628 0.913 . S
H1648 C1666 0.951 . S
H1649 C1668 0.951 . S
H1650 C1670 0.950 . S
H1651 C1671 0.950 . S
H1652 C1673 0.950 . S
H1653 C1676 0.950 . S
H1654 C1677 0.950 . S
H1655 C1679 0.950 . S
H1656 C1680 0.950 . S
H1657 C1681 0.951 . S
H1658 C1683 0.951 . S
H1659 C1685 0.950 . S
H1660 C1686 0.950 . S
H1661 C1688 0.950 . S
H1662 C1691 0.950 . S
H1663 C1692 0.950 . S
H1664 C1694 0.950 . S
H1665 C1695 0.950 . S
C1666 H1648 0.951 . S
C1666 C1667 1.366 . S
C1666 C1668 1.388 . S
C1667 C1666 1.366 . S
C1667 C1671 1.385 . S
C1668 H1649 0.951 . S
C1668 C1666 1.388 . S
C1668 C1669 1.366 . S
C1669 C1668 1.366 . S
C1669 C1670 1.414 . S
C1669 C1672 1.499 . S
C1670 H1650 0.950 . S
C1670 C1669 1.414 . S
C1670 C1671 1.374 . S
C1671 H1651 0.950 . S
C1671 C1667 1.385 . S
C1671 C1670 1.374 . S
C1672 C1669 1.499 . S
C1672 C1673 1.373 . S
C1672 C1674 1.389 . S
C1673 H1652 0.950 . S
C1673 C1672 1.373 . S
C1673 C1689 1.377 . S
C1674 C1672 1.389 . S
C1674 C1675 1.524 . S
C1674 C1688 1.377 . S
C1675 C1674 1.524 . S
C1675 C1676 1.397 . S
C1675 C1680 1.363 . S
C1676 H1653 0.950 . S
C1676 C1675 1.397 . S
C1676 C1677 1.334 . S
C1677 H1654 0.950 . S
C1677 C1676 1.334 . S
C1677 C1678 1.287 . S
C1678 C1677 1.287 . S
C1678 C1679 1.524 . S
C1678 H1697 0.913 . S
C1679 H1655 0.950 . S
C1679 C1678 1.524 . S
C1679 C1680 1.415 . S
C1680 H1656 0.950 . S
C1680 C1675 1.363 . S
C1680 C1679 1.415 . S
C1681 H1657 0.951 . S
C1681 C1682 1.366 . S
C1681 C1683 1.388 . S
C1682 C1681 1.366 . S
C1682 C1686 1.385 . S
C1683 H1658 0.951 . S
C1683 C1681 1.388 . S
C1683 C1684 1.366 . S
C1684 C1683 1.366 . S
C1684 C1685 1.414 . S
C1684 C1687 1.499 . S
C1685 H1659 0.950 . S
C1685 C1684 1.414 . S
C1685 C1686 1.374 . S
C1686 H1660 0.950 . S
C1686 C1682 1.385 . S
C1686 C1685 1.374 . S
C1687 C1684 1.499 . S
C1687 C1688 1.373 . S
C1687 C1689 1.389 . S
C1688 H1661 0.950 . S
C1688 C1674 1.377 . S
C1688 C1687 1.373 . S
C1689 C1673 1.377 . S
C1689 C1687 1.389 . S
C1689 C1690 1.524 . S
C1690 C1689 1.524 . S
C1690 C1691 1.397 . S
C1690 C1695 1.363 . S
C1691 H1662 0.950 . S
C1691 C1690 1.397 . S
C1691 C1692 1.334 . S
C1692 H1663 0.950 . S
C1692 C1691 1.334 . S
C1692 C1693 1.287 . S
C1693 C1692 1.287 . S
C1693 C1694 1.524 . S
C1693 H1696 0.999 . S
C1694 H1664 0.950 . S
C1694 C1693 1.524 . S
C1694 C1695 1.415 . S
C1695 H1665 0.950 . S
C1695 C1690 1.363 . S
C1695 C1694 1.415 . S
H1696 C1693 0.999 . S
H1697 C1678 0.913 . S
H1698 C1716 0.951 . S
H1699 C1718 0.951 . S
H1700 C1720 0.950 . S
H1701 C1721 0.950 . S
H1702 C1723 0.950 . S
H1703 C1726 0.950 . S
H1704 C1727 0.950 . S
H1705 C1729 0.950 . S
H1706 C1730 0.950 . S
H1707 C1731 0.951 . S
H1708 C1733 0.951 . S
H1709 C1735 0.950 . S
H1710 C1736 0.950 . S
H1711 C1738 0.950 . S
H1712 C1741 0.950 . S
H1713 C1742 0.950 . S
H1714 C1744 0.950 . S
H1715 C1745 0.950 . S
C1716 H1698 0.951 . S
C1716 C1717 1.366 . S
C1716 C1718 1.388 . S
C1717 C1716 1.366 . S
C1717 C1721 1.385 . S
C1718 H1699 0.951 . S
C1718 C1716 1.388 . S
C1718 C1719 1.366 . S
C1719 C1718 1.366 . S
C1719 C1720 1.414 . S
C1719 C1722 1.499 . S
C1720 H1700 0.950 . S
C1720 C1719 1.414 . S
C1720 C1721 1.374 . S
C1721 H1701 0.950 . S
C1721 C1717 1.385 . S
C1721 C1720 1.374 . S
C1722 C1719 1.499 . S
C1722 C1723 1.373 . S
C1722 C1724 1.389 1_565 S
C1723 H1702 0.950 . S
C1723 C1722 1.373 . S
C1723 C1739 1.377 . S
C1724 C1722 1.389 1_545 S
C1724 C1725 1.524 . S
C1724 C1738 1.377 . S
C1725 C1724 1.524 . S
C1725 C1726 1.397 . S
C1725 C1730 1.363 . S
C1726 H1703 0.950 . S
C1726 C1725 1.397 . S
C1726 C1727 1.334 . S
C1727 H1704 0.950 . S
C1727 C1726 1.334 . S
C1727 C1728 1.287 . S
C1728 C1727 1.287 . S
C1728 C1729 1.524 . S
C1728 H1747 0.913 . S
C1729 H1705 0.950 . S
C1729 C1728 1.524 . S
C1729 C1730 1.415 . S
C1730 H1706 0.950 . S
C1730 C1725 1.363 . S
C1730 C1729 1.415 . S
C1731 H1707 0.951 . S
C1731 C1732 1.366 . S
C1731 C1733 1.388 . S
C1732 C1731 1.366 . S
C1732 C1736 1.385 . S
C1733 H1708 0.951 . S
C1733 C1731 1.388 . S
C1733 C1734 1.366 . S
C1734 C1733 1.366 . S
C1734 C1735 1.414 . S
C1734 C1737 1.499 . S
C1735 H1709 0.950 . S
C1735 C1734 1.414 . S
C1735 C1736 1.374 . S
C1736 H1710 0.950 . S
C1736 C1732 1.385 . S
C1736 C1735 1.374 . S
C1737 C1734 1.499 . S
C1737 C1738 1.373 . S
C1737 C1739 1.389 1_545 S
C1738 H1711 0.950 . S
C1738 C1724 1.377 . S
C1738 C1737 1.373 . S
C1739 C1723 1.377 . S
C1739 C1737 1.389 1_565 S
C1739 C1740 1.524 . S
C1740 C1739 1.524 . S
C1740 C1741 1.397 . S
C1740 C1745 1.363 . S
C1741 H1712 0.950 . S
C1741 C1740 1.397 . S
C1741 C1742 1.334 . S
C1742 H1713 0.950 . S
C1742 C1741 1.334 . S
C1742 C1743 1.287 . S
C1743 C1742 1.287 . S
C1743 C1744 1.524 . S
C1743 H1746 0.999 . S
C1744 H1714 0.950 . S
C1744 C1743 1.524 . S
C1744 C1745 1.415 . S
C1745 H1715 0.950 . S
C1745 C1740 1.363 . S
C1745 C1744 1.415 . S
H1746 C1743 0.999 . S
H1747 C1728 0.913 . S
H1748 C1766 0.951 . S
H1749 C1768 0.951 . S
H1750 C1770 0.950 . S
H1751 C1771 0.950 . S
H1752 C1773 0.950 . S
H1753 C1776 0.950 . S
H1754 C1777 0.950 . S
H1755 C1779 0.950 . S
H1756 C1780 0.950 . S
H1757 C1781 0.951 . S
H1758 C1783 0.951 . S
H1759 C1785 0.950 . S
H1760 C1786 0.950 . S
H1761 C1788 0.950 . S
H1762 C1791 0.950 . S
H1763 C1792 0.950 . S
H1764 C1794 0.950 . S
H1765 C1795 0.950 . S
C1766 H1748 0.951 . S
C1766 C1767 1.366 . S
C1766 C1768 1.388 . S
C1767 C1766 1.366 . S
C1767 C1771 1.385 . S
C1768 H1749 0.951 . S
C1768 C1766 1.388 . S
C1768 C1769 1.366 . S
C1769 C1768 1.366 . S
C1769 C1770 1.414 . S
C1769 C1772 1.499 . S
C1770 H1750 0.950 . S
C1770 C1769 1.414 . S
C1770 C1771 1.374 . S
C1771 H1751 0.950 . S
C1771 C1767 1.385 . S
C1771 C1770 1.374 . S
C1772 C1769 1.499 . S
C1772 C1773 1.373 . S
C1772 C1774 1.389 . S
C1773 H1752 0.950 . S
C1773 C1772 1.373 . S
C1773 C1789 1.377 . S
C1774 C1772 1.389 . S
C1774 C1775 1.524 . S
C1774 C1788 1.377 . S
C1775 C1774 1.524 . S
C1775 C1776 1.397 . S
C1775 C1780 1.363 . S
C1776 H1753 0.950 . S
C1776 C1775 1.397 . S
C1776 C1777 1.334 . S
C1777 H1754 0.950 . S
C1777 C1776 1.334 . S
C1777 C1778 1.287 . S
C1778 C1777 1.287 . S
C1778 C1779 1.524 . S
C1778 H1797 0.913 . S
C1779 H1755 0.950 . S
C1779 C1778 1.524 . S
C1779 C1780 1.415 . S
C1780 H1756 0.950 . S
C1780 C1775 1.363 . S
C1780 C1779 1.415 . S
C1781 H1757 0.951 . S
C1781 C1782 1.366 . S
C1781 C1783 1.388 . S
C1782 C1781 1.366 . S
C1782 C1786 1.385 . S
C1783 H1758 0.951 . S
C1783 C1781 1.388 . S
C1783 C1784 1.366 . S
C1784 C1783 1.366 . S
C1784 C1785 1.414 . S
C1784 C1787 1.499 . S
C1785 H1759 0.950 . S
C1785 C1784 1.414 . S
C1785 C1786 1.374 . S
C1786 H1760 0.950 . S
C1786 C1782 1.385 . S
C1786 C1785 1.374 . S
C1787 C1784 1.499 . S
C1787 C1788 1.373 . S
C1787 C1789 1.389 . S
C1788 H1761 0.950 . S
C1788 C1774 1.377 . S
C1788 C1787 1.373 . S
C1789 C1773 1.377 . S
C1789 C1787 1.389 . S
C1789 C1790 1.524 . S
C1790 C1789 1.524 . S
C1790 C1791 1.397 . S
C1790 C1795 1.363 . S
C1791 H1762 0.950 . S
C1791 C1790 1.397 . S
C1791 C1792 1.334 . S
C1792 H1763 0.950 . S
C1792 C1791 1.334 . S
C1792 C1793 1.287 . S
C1793 C1792 1.287 . S
C1793 C1794 1.524 . S
C1793 H1796 0.999 . S
C1794 H1764 0.950 . S
C1794 C1793 1.524 . S
C1794 C1795 1.415 . S
C1795 H1765 0.950 . S
C1795 C1790 1.363 . S
C1795 C1794 1.415 . S
H1796 C1793 0.999 . S
H1797 C1778 0.913 . S
H1798 C1816 0.951 . S
H1799 C1818 0.951 . S
H1800 C1820 0.950 . S
H1801 C1821 0.950 . S
H1802 C1823 0.950 . S
H1803 C1826 0.950 . S
H1804 C1827 0.950 . S
H1805 C1829 0.950 . S
H1806 C1830 0.950 . S
H1807 C1831 0.951 . S
H1808 C1833 0.951 . S
H1809 C1835 0.950 . S
H1810 C1836 0.950 . S
H1811 C1838 0.950 . S
H1812 C1841 0.950 . S
H1813 C1842 0.950 . S
H1814 C1844 0.950 . S
H1815 C1845 0.950 . S
C1816 H1798 0.951 . S
C1816 C1817 1.366 . S
C1816 C1818 1.388 . S
C1817 C1816 1.366 . S
C1817 C1821 1.385 . S
C1818 H1799 0.951 . S
C1818 C1816 1.388 . S
C1818 C1819 1.366 . S
C1819 C1818 1.366 . S
C1819 C1820 1.414 . S
C1819 C1822 1.499 . S
C1820 H1800 0.950 . S
C1820 C1819 1.414 . S
C1820 C1821 1.374 . S
C1821 H1801 0.950 . S
C1821 C1817 1.385 . S
C1821 C1820 1.374 . S
C1822 C1819 1.499 . S
C1822 C1823 1.373 1_565 S
C1822 C1824 1.389 . S
C1823 H1802 0.950 . S
C1823 C1822 1.373 1_545 S
C1823 C1839 1.377 . S
C1824 C1822 1.389 . S
C1824 C1825 1.524 . S
C1824 C1838 1.377 . S
C1825 C1824 1.524 . S
C1825 C1826 1.397 . S
C1825 C1830 1.363 . S
C1826 H1803 0.950 . S
C1826 C1825 1.397 . S
C1826 C1827 1.334 . S
C1827 H1804 0.950 . S
C1827 C1826 1.334 . S
C1827 C1828 1.287 . S
C1828 C1827 1.287 . S
C1828 C1829 1.524 . S
C1828 H1847 0.913 . S
C1829 H1805 0.950 . S
C1829 C1828 1.524 . S
C1829 C1830 1.415 . S
C1830 H1806 0.950 . S
C1830 C1825 1.363 . S
C1830 C1829 1.415 . S
C1831 H1807 0.951 . S
C1831 C1832 1.366 . S
C1831 C1833 1.388 . S
C1832 C1831 1.366 . S
C1832 C1836 1.385 . S
C1833 H1808 0.951 . S
C1833 C1831 1.388 . S
C1833 C1834 1.366 . S
C1834 C1833 1.366 . S
C1834 C1835 1.414 . S
C1834 C1837 1.499 . S
C1835 H1809 0.950 . S
C1835 C1834 1.414 . S
C1835 C1836 1.374 . S
C1836 H1810 0.950 . S
C1836 C1832 1.385 . S
C1836 C1835 1.374 . S
C1837 C1834 1.499 . S
C1837 C1838 1.373 1_545 S
C1837 C1839 1.389 . S
C1838 H1811 0.950 . S
C1838 C1824 1.377 . S
C1838 C1837 1.373 1_565 S
C1839 C1823 1.377 . S
C1839 C1837 1.389 . S
C1839 C1840 1.524 . S
C1840 C1839 1.524 . S
C1840 C1841 1.397 . S
C1840 C1845 1.363 . S
C1841 H1812 0.950 . S
C1841 C1840 1.397 . S
C1841 C1842 1.334 . S
C1842 H1813 0.950 . S
C1842 C1841 1.334 . S
C1842 C1843 1.287 . S
C1843 C1842 1.287 . S
C1843 C1844 1.524 . S
C1843 H1846 0.999 . S
C1844 H1814 0.950 . S
C1844 C1843 1.524 . S
C1844 C1845 1.415 . S
C1845 H1815 0.950 . S
C1845 C1840 1.363 . S
C1845 C1844 1.415 . S
H1846 C1843 0.999 . S
H1847 C1828 0.913 . S
H1848 C1866 0.951 . S
H1849 C1868 0.951 . S
H1850 C1870 0.950 . S
H1851 C1871 0.950 . S
H1852 C1873 0.950 . S
H1853 C1876 0.950 . S
H1854 C1877 0.950 . S
H1855 C1879 0.950 . S
H1856 C1880 0.950 . S
H1857 C1881 0.951 . S
H1858 C1883 0.951 . S
H1859 C1885 0.950 . S
H1860 C1886 0.950 . S
H1861 C1888 0.950 . S
H1862 C1891 0.950 . S
H1863 C1892 0.950 . S
H1864 C1894 0.950 . S
H1865 C1895 0.950 . S
C1866 H1848 0.951 . S
C1866 C1867 1.366 . S
C1866 C1868 1.388 . S
C1867 C1866 1.366 . S
C1867 C1871 1.385 . S
C1868 H1849 0.951 . S
C1868 C1866 1.388 . S
C1868 C1869 1.366 . S
C1869 C1868 1.366 . S
C1869 C1870 1.414 . S
C1869 C1872 1.499 . S
C1870 H1850 0.950 . S
C1870 C1869 1.414 . S
C1870 C1871 1.374 . S
C1871 H1851 0.950 . S
C1871 C1867 1.385 . S
C1871 C1870 1.374 . S
C1872 C1869 1.499 . S
C1872 C1873 1.373 . S
C1872 C1874 1.389 . S
C1873 H1852 0.950 . S
C1873 C1872 1.373 . S
C1873 C1889 1.377 . S
C1874 C1872 1.389 . S
C1874 C1875 1.524 . S
C1874 C1888 1.377 . S
C1875 C1874 1.524 . S
C1875 C1876 1.397 . S
C1875 C1880 1.363 . S
C1876 H1853 0.950 . S
C1876 C1875 1.397 . S
C1876 C1877 1.334 . S
C1877 H1854 0.950 . S
C1877 C1876 1.334 . S
C1877 C1878 1.287 . S
C1878 C1877 1.287 . S
C1878 C1879 1.524 . S
C1878 H1897 0.913 . S
C1879 H1855 0.950 . S
C1879 C1878 1.524 . S
C1879 C1880 1.415 . S
C1880 H1856 0.950 . S
C1880 C1875 1.363 . S
C1880 C1879 1.415 . S
C1881 H1857 0.951 . S
C1881 C1882 1.366 . S
C1881 C1883 1.388 . S
C1882 C1881 1.366 . S
C1882 C1886 1.385 . S
C1883 H1858 0.951 . S
C1883 C1881 1.388 . S
C1883 C1884 1.366 . S
C1884 C1883 1.366 . S
C1884 C1885 1.414 . S
C1884 C1887 1.499 . S
C1885 H1859 0.950 . S
C1885 C1884 1.414 . S
C1885 C1886 1.374 . S
C1886 H1860 0.950 . S
C1886 C1882 1.385 . S
C1886 C1885 1.374 . S
C1887 C1884 1.499 . S
C1887 C1888 1.373 . S
C1887 C1889 1.389 . S
C1888 H1861 0.950 . S
C1888 C1874 1.377 . S
C1888 C1887 1.373 . S
C1889 C1873 1.377 . S
C1889 C1887 1.389 . S
C1889 C1890 1.524 . S
C1890 C1889 1.524 . S
C1890 C1891 1.397 . S
C1890 C1895 1.363 . S
C1891 H1862 0.950 . S
C1891 C1890 1.397 . S
C1891 C1892 1.334 . S
C1892 H1863 0.950 . S
C1892 C1891 1.334 . S
C1892 C1893 1.287 . S
C1893 C1892 1.287 . S
C1893 C1894 1.524 . S
C1893 H1896 0.999 . S
C1894 H1864 0.950 . S
C1894 C1893 1.524 . S
C1894 C1895 1.415 . S
C1895 H1865 0.950 . S
C1895 C1890 1.363 . S
C1895 C1894 1.415 . S
H1896 C1893 0.999 . S
H1897 C1878 0.913 . S
H1898 C1916 0.951 . S
H1899 C1918 0.951 . S
H1900 C1920 0.950 . S
H1901 C1921 0.950 . S
H1902 C1923 0.950 . S
H1903 C1926 0.950 . S
H1904 C1927 0.950 . S
H1905 C1929 0.950 . S
H1906 C1930 0.950 . S
H1907 C1931 0.951 . S
H1908 C1933 0.951 . S
H1909 C1935 0.950 . S
H1910 C1936 0.950 . S
H1911 C1938 0.950 . S
H1912 C1941 0.950 . S
H1913 C1942 0.950 . S
H1914 C1944 0.950 . S
H1915 C1945 0.950 . S
C1916 H1898 0.951 . S
C1916 C1917 1.366 . S
C1916 C1918 1.388 . S
C1917 C1916 1.366 . S
C1917 C1921 1.385 . S
C1918 H1899 0.951 . S
C1918 C1916 1.388 . S
C1918 C1919 1.366 . S
C1919 C1918 1.366 . S
C1919 C1920 1.414 . S
C1919 C1922 1.499 . S
C1920 H1900 0.950 . S
C1920 C1919 1.414 . S
C1920 C1921 1.374 . S
C1921 H1901 0.950 . S
C1921 C1917 1.385 . S
C1921 C1920 1.374 . S
C1922 C1919 1.499 . S
C1922 C1923 1.373 . S
C1922 C1924 1.389 . S
C1923 H1902 0.950 . S
C1923 C1922 1.373 . S
C1923 C1939 1.377 . S
C1924 C1922 1.389 . S
C1924 C1925 1.524 . S
C1924 C1938 1.377 . S
C1925 C1924 1.524 . S
C1925 C1926 1.397 . S
C1925 C1930 1.363 . S
C1926 H1903 0.950 . S
C1926 C1925 1.397 . S
C1926 C1927 1.334 . S
C1927 H1904 0.950 . S
C1927 C1926 1.334 . S
C1927 C1928 1.287 . S
C1928 C1927 1.287 . S
C1928 C1929 1.524 . S
C1928 H1947 0.913 . S
C1929 H1905 0.950 . S
C1929 C1928 1.524 . S
C1929 C1930 1.415 . S
C1930 H1906 0.950 . S
C1930 C1925 1.363 . S
C1930 C1929 1.415 . S
C1931 H1907 0.951 . S
C1931 C1932 1.366 . S
C1931 C1933 1.388 . S
C1932 C1931 1.366 . S
C1932 C1936 1.385 . S
C1933 H1908 0.951 . S
C1933 C1931 1.388 . S
C1933 C1934 1.366 . S
C1934 C1933 1.366 . S
C1934 C1935 1.414 . S
C1934 C1937 1.499 . S
C1935 H1909 0.950 . S
C1935 C1934 1.414 . S
C1935 C1936 1.374 . S
C1936 H1910 0.950 . S
C1936 C1932 1.385 . S
C1936 C1935 1.374 . S
C1937 C1934 1.499 . S
C1937 C1938 1.373 . S
C1937 C1939 1.389 . S
C1938 H1911 0.950 . S
C1938 C1924 1.377 . S
C1938 C1937 1.373 . S
C1939 C1923 1.377 . S
C1939 C1937 1.389 . S
C1939 C1940 1.524 . S
C1940 C1939 1.524 . S
C1940 C1941 1.397 . S
C1940 C1945 1.363 . S
C1941 H1912 0.950 . S
C1941 C1940 1.397 . S
C1941 C1942 1.334 . S
C1942 H1913 0.950 . S
C1942 C1941 1.334 . S
C1942 C1943 1.287 . S
C1943 C1942 1.287 . S
C1943 C1944 1.524 . S
C1943 H1946 0.999 . S
C1944 H1914 0.950 . S
C1944 C1943 1.524 . S
C1944 C1945 1.415 . S
C1945 H1915 0.950 . S
C1945 C1940 1.363 . S
C1945 C1944 1.415 . S
H1946 C1943 0.999 . S
H1947 C1928 0.913 . S
H1948 C1966 0.951 . S
H1949 C1968 0.951 . S
H1950 C1970 0.950 . S
H1951 C1971 0.950 . S
H1952 C1973 0.950 . S
H1953 C1976 0.950 . S
H1954 C1977 0.950 . S
H1955 C1979 0.950 . S
H1956 C1980 0.950 . S
H1957 C1981 0.951 . S
H1958 C1983 0.951 . S
H1959 C1985 0.950 . S
H1960 C1986 0.950 . S
H1961 C1988 0.950 . S
H1962 C1991 0.950 . S
H1963 C1992 0.950 . S
H1964 C1994 0.950 . S
H1965 C1995 0.950 . S
C1966 H1948 0.951 . S
C1966 C1967 1.366 . S
C1966 C1968 1.388 . S
C1967 C1966 1.366 . S
C1967 C1971 1.385 . S
C1968 H1949 0.951 . S
C1968 C1966 1.388 . S
C1968 C1969 1.366 . S
C1969 C1968 1.366 . S
C1969 C1970 1.414 . S
C1969 C1972 1.499 . S
C1970 H1950 0.950 . S
C1970 C1969 1.414 . S
C1970 C1971 1.374 . S
C1971 H1951 0.950 . S
C1971 C1967 1.385 . S
C1971 C1970 1.374 . S
C1972 C1969 1.499 . S
C1972 C1973 1.373 . S
C1972 C1974 1.389 . S
C1973 H1952 0.950 . S
C1973 C1972 1.373 . S
C1973 C1989 1.377 . S
C1974 C1972 1.389 . S
C1974 C1975 1.524 . S
C1974 C1988 1.377 . S
C1975 C1974 1.524 . S
C1975 C1976 1.397 . S
C1975 C1980 1.363 . S
C1976 H1953 0.950 . S
C1976 C1975 1.397 . S
C1976 C1977 1.334 . S
C1977 H1954 0.950 . S
C1977 C1976 1.334 . S
C1977 C1978 1.287 . S
C1978 C1977 1.287 . S
C1978 C1979 1.524 . S
C1978 H1997 0.913 . S
C1979 H1955 0.950 . S
C1979 C1978 1.524 . S
C1979 C1980 1.415 . S
C1980 H1956 0.950 . S
C1980 C1975 1.363 . S
C1980 C1979 1.415 . S
C1981 H1957 0.951 . S
C1981 C1982 1.366 . S
C1981 C1983 1.388 . S
C1982 C1981 1.366 . S
C1982 C1986 1.385 . S
C1983 H1958 0.951 . S
C1983 C1981 1.388 . S
C1983 C1984 1.366 . S
C1984 C1983 1.366 . S
C1984 C1985 1.414 . S
C1984 C1987 1.499 . S
C1985 H1959 0.950 . S
C1985 C1984 1.414 . S
C1985 C1986 1.374 . S
C1986 H1960 0.950 . S
C1986 C1982 1.385 . S
C1986 C1985 1.374 . S
C1987 C1984 1.499 . S
C1987 C1988 1.373 . S
C1987 C1989 1.389 . S
C1988 H1961 0.950 . S
C1988 C1974 1.377 . S
C1988 C1987 1.373 . S
C1989 C1973 1.377 . S
C1989 C1987 1.389 . S
C1989 C1990 1.524 . S
C1990 C1989 1.524 . S
C1990 C1991 1.397 . S
C1990 C1995 1.363 . S
C1991 H1962 0.950 . S
C1991 C1990 1.397 . S
C1991 C1992 1.334 . S
C1992 H1963 0.950 . S
C1992 C1991 1.334 . S
C1992 C1993 1.287 . S
C1993 C1992 1.287 . S
C1993 C1994 1.524 . S
C1993 H1996 0.999 . S
C1994 H1964 0.950 . S
C1994 C1993 1.524 . S
C1994 C1995 1.415 . S
C1995 H1965 0.950 . S
C1995 C1990 1.363 . S
C1995 C1994 1.415 . S
H1996 C1993 0.999 . S
H1997 C1978 0.913 . S
H1998 C2016 0.951 . S
H1999 C2018 0.951 . S
H2000 C2020 0.950 . S
H2001 C2021 0.950 . S
H2002 C2023 0.950 . S
H2003 C2026 0.950 . S
H2004 C2027 0.950 . S
H2005 C2029 0.950 1_545 S
H2006 C2030 0.950 . S
H2007 C2031 0.951 . S
H2008 C2033 0.951 . S
H2009 C2035 0.950 . S
H2010 C2036 0.950 . S
H2011 C2038 0.950 . S
H2012 C2041 0.950 . S
H2013 C2042 0.950 . S
H2014 C2044 0.950 1_565 S
H2015 C2045 0.950 . S
C2016 H1998 0.951 . S
C2016 C2017 1.366 . S
C2016 C2018 1.388 . S
C2017 C2016 1.366 . S
C2017 C2021 1.385 . S
C2018 H1999 0.951 . S
C2018 C2016 1.388 . S
C2018 C2019 1.366 . S
C2019 C2018 1.366 . S
C2019 C2020 1.414 . S
C2019 C2022 1.499 . S
C2020 H2000 0.950 . S
C2020 C2019 1.414 . S
C2020 C2021 1.374 . S
C2021 H2001 0.950 . S
C2021 C2017 1.385 . S
C2021 C2020 1.374 . S
C2022 C2019 1.499 . S
C2022 C2023 1.373 1_556 S
C2022 C2024 1.389 1_545 S
C2023 H2002 0.950 . S
C2023 C2022 1.373 1_554 S
C2023 C2039 1.377 . S
C2024 C2022 1.389 1_565 S
C2024 C2025 1.524 . S
C2024 C2038 1.377 . S
C2025 C2024 1.524 . S
C2025 C2026 1.397 . S
C2025 C2030 1.363 1_565 S
C2026 H2003 0.950 . S
C2026 C2025 1.397 . S
C2026 C2027 1.334 . S
C2027 H2004 0.950 . S
C2027 C2026 1.334 . S
C2027 C2028 1.287 . S
C2028 C2027 1.287 . S
C2028 C2029 1.524 . S
C2028 H2047 0.913 . S
C2029 H2005 0.950 1_565 S
C2029 C2028 1.524 . S
C2029 C2030 1.415 1_565 S
C2030 H2006 0.950 . S
C2030 C2025 1.363 1_545 S
C2030 C2029 1.415 1_545 S
C2031 H2007 0.951 . S
C2031 C2032 1.366 . S
C2031 C2033 1.388 . S
C2032 C2031 1.366 . S
C2032 C2036 1.385 . S
C2033 H2008 0.951 . S
C2033 C2031 1.388 . S
C2033 C2034 1.366 . S
C2034 C2033 1.366 . S
C2034 C2035 1.414 . S
C2034 C2037 1.499 . S
C2035 H2009 0.950 . S
C2035 C2034 1.414 . S
C2035 C2036 1.374 . S
C2036 H2010 0.950 . S
C2036 C2032 1.385 . S
C2036 C2035 1.374 . S
C2037 C2034 1.499 . S
C2037 C2038 1.373 1_554 S
C2037 C2039 1.389 1_565 S
C2038 H2011 0.950 . S
C2038 C2024 1.377 . S
C2038 C2037 1.373 1_556 S
C2039 C2023 1.377 . S
C2039 C2037 1.389 1_545 S
C2039 C2040 1.524 . S
C2040 C2039 1.524 . S
C2040 C2041 1.397 . S
C2040 C2045 1.363 1_545 S
C2041 H2012 0.950 . S
C2041 C2040 1.397 . S
C2041 C2042 1.334 . S
C2042 H2013 0.950 . S
C2042 C2041 1.334 . S
C2042 C2043 1.287 . S
C2043 C2042 1.287 . S
C2043 C2044 1.524 . S
C2043 H2046 0.999 . S
C2044 H2014 0.950 1_545 S
C2044 C2043 1.524 . S
C2044 C2045 1.415 1_545 S
C2045 H2015 0.950 . S
C2045 C2040 1.363 1_565 S
C2045 C2044 1.415 1_565 S
H2046 C2043 0.999 . S
H2047 C2028 0.913 . S
H2048 C2066 0.951 . S
H2049 C2068 0.951 . S
H2050 C2070 0.950 . S
H2051 C2071 0.950 . S
H2052 C2073 0.950 . S
H2053 C2076 0.950 . S
H2054 C2077 0.950 . S
H2055 C2079 0.950 . S
H2056 C2080 0.950 . S
H2057 C2081 0.951 . S
H2058 C2083 0.951 . S
H2059 C2085 0.950 . S
H2060 C2086 0.950 . S
H2061 C2088 0.950 . S
H2062 C2091 0.950 . S
H2063 C2092 0.950 . S
H2064 C2094 0.950 . S
H2065 C2095 0.950 . S
C2066 H2048 0.951 . S
C2066 C2067 1.366 . S
C2066 C2068 1.388 . S
C2067 C2066 1.366 . S
C2067 C2071 1.385 . S
C2068 H2049 0.951 . S
C2068 C2066 1.388 . S
C2068 C2069 1.366 . S
C2069 C2068 1.366 . S
C2069 C2070 1.414 . S
C2069 C2072 1.499 . S
C2070 H2050 0.950 . S
C2070 C2069 1.414 . S
C2070 C2071 1.374 . S
C2071 H2051 0.950 . S
C2071 C2067 1.385 . S
C2071 C2070 1.374 . S
C2072 C2069 1.499 . S
C2072 C2073 1.373 . S
C2072 C2074 1.389 . S
C2073 H2052 0.950 . S
C2073 C2072 1.373 . S
C2073 C2089 1.377 . S
C2074 C2072 1.389 . S
C2074 C2075 1.524 . S
C2074 C2088 1.377 . S
C2075 C2074 1.524 . S
C2075 C2076 1.397 . S
C2075 C2080 1.363 . S
C2076 H2053 0.950 . S
C2076 C2075 1.397 . S
C2076 C2077 1.334 . S
C2077 H2054 0.950 . S
C2077 C2076 1.334 . S
C2077 C2078 1.287 . S
C2078 C2077 1.287 . S
C2078 C2079 1.524 . S
C2078 H2097 0.913 . S
C2079 H2055 0.950 . S
C2079 C2078 1.524 . S
C2079 C2080 1.415 . S
C2080 H2056 0.950 . S
C2080 C2075 1.363 . S
C2080 C2079 1.415 . S
C2081 H2057 0.951 . S
C2081 C2082 1.366 . S
C2081 C2083 1.388 . S
C2082 C2081 1.366 . S
C2082 C2086 1.385 . S
C2083 H2058 0.951 . S
C2083 C2081 1.388 . S
C2083 C2084 1.366 . S
C2084 C2083 1.366 . S
C2084 C2085 1.414 . S
C2084 C2087 1.499 . S
C2085 H2059 0.950 . S
C2085 C2084 1.414 . S
C2085 C2086 1.374 . S
C2086 H2060 0.950 . S
C2086 C2082 1.385 . S
C2086 C2085 1.374 . S
C2087 C2084 1.499 . S
C2087 C2088 1.373 . S
C2087 C2089 1.389 . S
C2088 H2061 0.950 . S
C2088 C2074 1.377 . S
C2088 C2087 1.373 . S
C2089 C2073 1.377 . S
C2089 C2087 1.389 . S
C2089 C2090 1.524 . S
C2090 C2089 1.524 . S
C2090 C2091 1.397 . S
C2090 C2095 1.363 . S
C2091 H2062 0.950 . S
C2091 C2090 1.397 . S
C2091 C2092 1.334 . S
C2092 H2063 0.950 . S
C2092 C2091 1.334 . S
C2092 C2093 1.287 . S
C2093 C2092 1.287 . S
C2093 C2094 1.524 . S
C2093 H2096 0.999 . S
C2094 H2064 0.950 . S
C2094 C2093 1.524 . S
C2094 C2095 1.415 . S
C2095 H2065 0.950 . S
C2095 C2090 1.363 . S
C2095 C2094 1.415 . S
H2096 C2093 0.999 . S
H2097 C2078 0.913 . S
H2098 C2116 0.951 . S
H2099 C2118 0.951 . S
H2100 C2120 0.950 . S
H2101 C2121 0.950 . S
H2102 C2123 0.950 . S
H2103 C2126 0.950 . S
H2104 C2127 0.950 . S
H2105 C2129 0.950 . S
H2106 C2130 0.950 . S
H2107 C2131 0.951 . S
H2108 C2133 0.951 . S
H2109 C2135 0.950 . S
H2110 C2136 0.950 . S
H2111 C2138 0.950 . S
H2112 C2141 0.950 . S
H2113 C2142 0.950 . S
H2114 C2144 0.950 . S
H2115 C2145 0.950 . S
C2116 H2098 0.951 . S
C2116 C2117 1.366 . S
C2116 C2118 1.388 . S
C2117 C2116 1.366 . S
C2117 C2121 1.385 . S
C2118 H2099 0.951 . S
C2118 C2116 1.388 . S
C2118 C2119 1.366 . S
C2119 C2118 1.366 . S
C2119 C2120 1.414 . S
C2119 C2122 1.499 . S
C2120 H2100 0.950 . S
C2120 C2119 1.414 . S
C2120 C2121 1.374 . S
C2121 H2101 0.950 . S
C2121 C2117 1.385 . S
C2121 C2120 1.374 . S
C2122 C2119 1.499 . S
C2122 C2123 1.373 . S
C2122 C2124 1.389 . S
C2123 H2102 0.950 . S
C2123 C2122 1.373 . S
C2123 C2139 1.377 . S
C2124 C2122 1.389 . S
C2124 C2125 1.524 . S
C2124 C2138 1.377 . S
C2125 C2124 1.524 . S
C2125 C2126 1.397 . S
C2125 C2130 1.363 . S
C2126 H2103 0.950 . S
C2126 C2125 1.397 . S
C2126 C2127 1.334 . S
C2127 H2104 0.950 . S
C2127 C2126 1.334 . S
C2127 C2128 1.287 . S
C2128 C2127 1.287 . S
C2128 C2129 1.524 . S
C2128 H2147 0.913 . S
C2129 H2105 0.950 . S
C2129 C2128 1.524 . S
C2129 C2130 1.415 . S
C2130 H2106 0.950 . S
C2130 C2125 1.363 . S
C2130 C2129 1.415 . S
C2131 H2107 0.951 . S
C2131 C2132 1.366 . S
C2131 C2133 1.388 . S
C2132 C2131 1.366 . S
C2132 C2136 1.385 . S
C2133 H2108 0.951 . S
C2133 C2131 1.388 . S
C2133 C2134 1.366 . S
C2134 C2133 1.366 . S
C2134 C2135 1.414 . S
C2134 C2137 1.499 . S
C2135 H2109 0.950 . S
C2135 C2134 1.414 . S
C2135 C2136 1.374 . S
C2136 H2110 0.950 . S
C2136 C2132 1.385 . S
C2136 C2135 1.374 . S
C2137 C2134 1.499 . S
C2137 C2138 1.373 . S
C2137 C2139 1.389 . S
C2138 H2111 0.950 . S
C2138 C2124 1.377 . S
C2138 C2137 1.373 . S
C2139 C2123 1.377 . S
C2139 C2137 1.389 . S
C2139 C2140 1.524 . S
C2140 C2139 1.524 . S
C2140 C2141 1.397 . S
C2140 C2145 1.363 . S
C2141 H2112 0.950 . S
C2141 C2140 1.397 . S
C2141 C2142 1.334 . S
C2142 H2113 0.950 . S
C2142 C2141 1.334 . S
C2142 C2143 1.287 . S
C2143 C2142 1.287 . S
C2143 C2144 1.524 . S
C2143 H2146 0.999 . S
C2144 H2114 0.950 . S
C2144 C2143 1.524 . S
C2144 C2145 1.415 . S
C2145 H2115 0.950 . S
C2145 C2140 1.363 . S
C2145 C2144 1.415 . S
H2146 C2143 0.999 . S
H2147 C2128 0.913 . S
H2148 C2166 0.951 . S
H2149 C2168 0.951 . S
H2150 C2170 0.950 . S
H2151 C2171 0.950 . S
H2152 C2173 0.950 . S
H2153 C2176 0.950 . S
H2154 C2177 0.950 . S
H2155 C2179 0.950 . S
H2156 C2180 0.950 . S
H2157 C2181 0.951 . S
H2158 C2183 0.951 . S
H2159 C2185 0.950 . S
H2160 C2186 0.950 . S
H2161 C2188 0.950 . S
H2162 C2191 0.950 . S
H2163 C2192 0.950 . S
H2164 C2194 0.950 . S
H2165 C2195 0.950 . S
C2166 H2148 0.951 . S
C2166 C2167 1.366 . S
C2166 C2168 1.388 . S
C2167 C2166 1.366 . S
C2167 C2171 1.385 . S
C2168 H2149 0.951 . S
C2168 C2166 1.388 . S
C2168 C2169 1.366 . S
C2169 C2168 1.366 . S
C2169 C2170 1.414 . S
C2169 C2172 1.499 . S
C2170 H2150 0.950 . S
C2170 C2169 1.414 . S
C2170 C2171 1.374 . S
C2171 H2151 0.950 . S
C2171 C2167 1.385 . S
C2171 C2170 1.374 . S
C2172 C2169 1.499 . S
C2172 C2173 1.373 . S
C2172 C2174 1.389 . S
C2173 H2152 0.950 . S
C2173 C2172 1.373 . S
C2173 C2189 1.377 . S
C2174 C2172 1.389 . S
C2174 C2175 1.524 . S
C2174 C2188 1.377 . S
C2175 C2174 1.524 . S
C2175 C2176 1.397 . S
C2175 C2180 1.363 . S
C2176 H2153 0.950 . S
C2176 C2175 1.397 . S
C2176 C2177 1.334 . S
C2177 H2154 0.950 . S
C2177 C2176 1.334 . S
C2177 C2178 1.287 . S
C2178 C2177 1.287 . S
C2178 C2179 1.524 . S
C2178 H2197 0.913 . S
C2179 H2155 0.950 . S
C2179 C2178 1.524 . S
C2179 C2180 1.415 . S
C2180 H2156 0.950 . S
C2180 C2175 1.363 . S
C2180 C2179 1.415 . S
C2181 H2157 0.951 . S
C2181 C2182 1.366 . S
C2181 C2183 1.388 . S
C2182 C2181 1.366 . S
C2182 C2186 1.385 . S
C2183 H2158 0.951 . S
C2183 C2181 1.388 . S
C2183 C2184 1.366 . S
C2184 C2183 1.366 . S
C2184 C2185 1.414 . S
C2184 C2187 1.499 . S
C2185 H2159 0.950 . S
C2185 C2184 1.414 . S
C2185 C2186 1.374 . S
C2186 H2160 0.950 . S
C2186 C2182 1.385 . S
C2186 C2185 1.374 . S
C2187 C2184 1.499 . S
C2187 C2188 1.373 . S
C2187 C2189 1.389 . S
C2188 H2161 0.950 . S
C2188 C2174 1.377 . S
C2188 C2187 1.373 . S
C2189 C2173 1.377 . S
C2189 C2187 1.389 . S
C2189 C2190 1.524 . S
C2190 C2189 1.524 . S
C2190 C2191 1.397 . S
C2190 C2195 1.363 . S
C2191 H2162 0.950 . S
C2191 C2190 1.397 . S
C2191 C2192 1.334 . S
C2192 H2163 0.950 . S
C2192 C2191 1.334 . S
C2192 C2193 1.287 . S
C2193 C2192 1.287 . S
C2193 C2194 1.524 . S
C2193 H2196 0.999 . S
C2194 H2164 0.950 . S
C2194 C2193 1.524 . S
C2194 C2195 1.415 . S
C2195 H2165 0.950 . S
C2195 C2190 1.363 . S
C2195 C2194 1.415 . S
H2196 C2193 0.999 . S
H2197 C2178 0.913 . S
H2198 C2216 0.951 . S
H2199 C2218 0.951 . S
H2200 C2220 0.950 . S
H2201 C2221 0.950 . S
H2202 C2223 0.950 . S
H2203 C2226 0.950 . S
H2204 C2227 0.950 . S
H2205 C2229 0.950 . S
H2206 C2230 0.950 . S
H2207 C2231 0.951 . S
H2208 C2233 0.951 . S
H2209 C2235 0.950 . S
H2210 C2236 0.950 . S
H2211 C2238 0.950 . S
H2212 C2241 0.950 . S
H2213 C2242 0.950 . S
H2214 C2244 0.950 . S
H2215 C2245 0.950 . S
C2216 H2198 0.951 . S
C2216 C2217 1.366 . S
C2216 C2218 1.388 . S
C2217 C2216 1.366 . S
C2217 C2221 1.385 . S
C2218 H2199 0.951 . S
C2218 C2216 1.388 . S
C2218 C2219 1.366 . S
C2219 C2218 1.366 . S
C2219 C2220 1.414 . S
C2219 C2222 1.499 . S
C2220 H2200 0.950 . S
C2220 C2219 1.414 . S
C2220 C2221 1.374 . S
C2221 H2201 0.950 . S
C2221 C2217 1.385 . S
C2221 C2220 1.374 . S
C2222 C2219 1.499 . S
C2222 C2223 1.373 . S
C2222 C2224 1.389 . S
C2223 H2202 0.950 . S
C2223 C2222 1.373 . S
C2223 C2239 1.377 . S
C2224 C2222 1.389 . S
C2224 C2225 1.524 . S
C2224 C2238 1.377 . S
C2225 C2224 1.524 . S
C2225 C2226 1.397 . S
C2225 C2230 1.363 . S
C2226 H2203 0.950 . S
C2226 C2225 1.397 . S
C2226 C2227 1.334 . S
C2227 H2204 0.950 . S
C2227 C2226 1.334 . S
C2227 C2228 1.287 . S
C2228 C2227 1.287 . S
C2228 C2229 1.524 . S
C2228 H2247 0.913 1_545 S
C2229 H2205 0.950 . S
C2229 C2228 1.524 . S
C2229 C2230 1.415 . S
C2230 H2206 0.950 . S
C2230 C2225 1.363 . S
C2230 C2229 1.415 . S
C2231 H2207 0.951 . S
C2231 C2232 1.366 . S
C2231 C2233 1.388 . S
C2232 C2231 1.366 . S
C2232 C2236 1.385 . S
C2233 H2208 0.951 . S
C2233 C2231 1.388 . S
C2233 C2234 1.366 . S
C2234 C2233 1.366 . S
C2234 C2235 1.414 . S
C2234 C2237 1.499 . S
C2235 H2209 0.950 . S
C2235 C2234 1.414 . S
C2235 C2236 1.374 . S
C2236 H2210 0.950 . S
C2236 C2232 1.385 . S
C2236 C2235 1.374 . S
C2237 C2234 1.499 . S
C2237 C2238 1.373 . S
C2237 C2239 1.389 . S
C2238 H2211 0.950 . S
C2238 C2224 1.377 . S
C2238 C2237 1.373 . S
C2239 C2223 1.377 . S
C2239 C2237 1.389 . S
C2239 C2240 1.524 . S
C2240 C2239 1.524 . S
C2240 C2241 1.397 . S
C2240 C2245 1.363 . S
C2241 H2212 0.950 . S
C2241 C2240 1.397 . S
C2241 C2242 1.334 . S
C2242 H2213 0.950 . S
C2242 C2241 1.334 . S
C2242 C2243 1.287 . S
C2243 C2242 1.287 . S
C2243 C2244 1.524 . S
C2243 H2246 0.999 . S
C2244 H2214 0.950 . S
C2244 C2243 1.524 . S
C2244 C2245 1.415 . S
C2245 H2215 0.950 . S
C2245 C2240 1.363 . S
C2245 C2244 1.415 . S
H2246 C2243 0.999 . S
H2247 C2228 0.913 1_565 S
H2248 C2266 0.951 . S
H2249 C2268 0.951 . S
H2250 C2270 0.950 . S
H2251 C2271 0.950 . S
H2252 C2273 0.950 . S
H2253 C2276 0.950 . S
H2254 C2277 0.950 . S
H2255 C2279 0.950 . S
H2256 C2280 0.950 . S
H2257 C2281 0.951 . S
H2258 C2283 0.951 . S
H2259 C2285 0.950 . S
H2260 C2286 0.950 . S
H2261 C2288 0.950 . S
H2262 C2291 0.950 . S
H2263 C2292 0.950 . S
H2264 C2294 0.950 . S
H2265 C2295 0.950 . S
C2266 H2248 0.951 . S
C2266 C2267 1.366 . S
C2266 C2268 1.388 . S
C2267 C2266 1.366 . S
C2267 C2271 1.385 . S
C2268 H2249 0.951 . S
C2268 C2266 1.388 . S
C2268 C2269 1.366 . S
C2269 C2268 1.366 . S
C2269 C2270 1.414 . S
C2269 C2272 1.499 . S
C2270 H2250 0.950 . S
C2270 C2269 1.414 . S
C2270 C2271 1.374 . S
C2271 H2251 0.950 . S
C2271 C2267 1.385 . S
C2271 C2270 1.374 . S
C2272 C2269 1.499 . S
C2272 C2273 1.373 . S
C2272 C2274 1.389 . S
C2273 H2252 0.950 . S
C2273 C2272 1.373 . S
C2273 C2289 1.377 . S
C2274 C2272 1.389 . S
C2274 C2275 1.524 . S
C2274 C2288 1.377 . S
C2275 C2274 1.524 . S
C2275 C2276 1.397 . S
C2275 C2280 1.363 . S
C2276 H2253 0.950 . S
C2276 C2275 1.397 . S
C2276 C2277 1.334 . S
C2277 H2254 0.950 . S
C2277 C2276 1.334 . S
C2277 C2278 1.287 . S
C2278 C2277 1.287 . S
C2278 C2279 1.524 . S
C2278 H2297 0.913 . S
C2279 H2255 0.950 . S
C2279 C2278 1.524 . S
C2279 C2280 1.415 . S
C2280 H2256 0.950 . S
C2280 C2275 1.363 . S
C2280 C2279 1.415 . S
C2281 H2257 0.951 . S
C2281 C2282 1.366 . S
C2281 C2283 1.388 . S
C2282 C2281 1.366 . S
C2282 C2286 1.385 . S
C2283 H2258 0.951 . S
C2283 C2281 1.388 . S
C2283 C2284 1.366 . S
C2284 C2283 1.366 . S
C2284 C2285 1.414 . S
C2284 C2287 1.499 . S
C2285 H2259 0.950 . S
C2285 C2284 1.414 . S
C2285 C2286 1.374 . S
C2286 H2260 0.950 . S
C2286 C2282 1.385 . S
C2286 C2285 1.374 . S
C2287 C2284 1.499 . S
C2287 C2288 1.373 . S
C2287 C2289 1.389 . S
C2288 H2261 0.950 . S
C2288 C2274 1.377 . S
C2288 C2287 1.373 . S
C2289 C2273 1.377 . S
C2289 C2287 1.389 . S
C2289 C2290 1.524 . S
C2290 C2289 1.524 . S
C2290 C2291 1.397 . S
C2290 C2295 1.363 . S
C2291 H2262 0.950 . S
C2291 C2290 1.397 . S
C2291 C2292 1.334 . S
C2292 H2263 0.950 . S
C2292 C2291 1.334 . S
C2292 C2293 1.287 . S
C2293 C2292 1.287 . S
C2293 C2294 1.524 . S
C2293 H2296 0.999 . S
C2294 H2264 0.950 . S
C2294 C2293 1.524 . S
C2294 C2295 1.415 . S
C2295 H2265 0.950 . S
C2295 C2290 1.363 . S
C2295 C2294 1.415 . S
H2296 C2293 0.999 . S
H2297 C2278 0.913 . S
H2298 C2316 0.951 . S
H2299 C2318 0.951 . S
H2300 C2320 0.950 . S
H2301 C2321 0.950 . S
H2302 C2323 0.950 . S
H2303 C2326 0.950 . S
H2304 C2327 0.950 . S
H2305 C2329 0.950 . S
H2306 C2330 0.950 . S
H2307 C2331 0.951 . S
H2308 C2333 0.951 . S
H2309 C2335 0.950 . S
H2310 C2336 0.950 . S
H2311 C2338 0.950 . S
H2312 C2341 0.950 . S
H2313 C2342 0.950 . S
H2314 C2344 0.950 . S
H2315 C2345 0.950 . S
C2316 H2298 0.951 . S
C2316 C2317 1.366 . S
C2316 C2318 1.388 . S
C2317 C2316 1.366 . S
C2317 C2321 1.385 . S
C2318 H2299 0.951 . S
C2318 C2316 1.388 . S
C2318 C2319 1.366 . S
C2319 C2318 1.366 . S
C2319 C2320 1.414 . S
C2319 C2322 1.499 . S
C2320 H2300 0.950 . S
C2320 C2319 1.414 . S
C2320 C2321 1.374 . S
C2321 H2301 0.950 . S
C2321 C2317 1.385 . S
C2321 C2320 1.374 . S
C2322 C2319 1.499 . S
C2322 C2323 1.373 . S
C2322 C2324 1.389 . S
C2323 H2302 0.950 . S
C2323 C2322 1.373 . S
C2323 C2339 1.377 . S
C2324 C2322 1.389 . S
C2324 C2325 1.524 . S
C2324 C2338 1.377 . S
C2325 C2324 1.524 . S
C2325 C2326 1.397 . S
C2325 C2330 1.363 . S
C2326 H2303 0.950 . S
C2326 C2325 1.397 . S
C2326 C2327 1.334 . S
C2327 H2304 0.950 . S
C2327 C2326 1.334 . S
C2327 C2328 1.287 . S
C2328 C2327 1.287 . S
C2328 C2329 1.524 . S
C2328 H2347 0.913 . S
C2329 H2305 0.950 . S
C2329 C2328 1.524 . S
C2329 C2330 1.415 . S
C2330 H2306 0.950 . S
C2330 C2325 1.363 . S
C2330 C2329 1.415 . S
C2331 H2307 0.951 . S
C2331 C2332 1.366 . S
C2331 C2333 1.388 . S
C2332 C2331 1.366 . S
C2332 C2336 1.385 . S
C2333 H2308 0.951 . S
C2333 C2331 1.388 . S
C2333 C2334 1.366 . S
C2334 C2333 1.366 . S
C2334 C2335 1.414 . S
C2334 C2337 1.499 . S
C2335 H2309 0.950 . S
C2335 C2334 1.414 . S
C2335 C2336 1.374 . S
C2336 H2310 0.950 . S
C2336 C2332 1.385 . S
C2336 C2335 1.374 . S
C2337 C2334 1.499 . S
C2337 C2338 1.373 . S
C2337 C2339 1.389 . S
C2338 H2311 0.950 . S
C2338 C2324 1.377 . S
C2338 C2337 1.373 . S
C2339 C2323 1.377 . S
C2339 C2337 1.389 . S
C2339 C2340 1.524 . S
C2340 C2339 1.524 . S
C2340 C2341 1.397 . S
C2340 C2345 1.363 . S
C2341 H2312 0.950 . S
C2341 C2340 1.397 . S
C2341 C2342 1.334 . S
C2342 H2313 0.950 . S
C2342 C2341 1.334 . S
C2342 C2343 1.287 . S
C2343 C2342 1.287 . S
C2343 C2344 1.524 . S
C2343 H2346 0.999 . S
C2344 H2314 0.950 . S
C2344 C2343 1.524 . S
C2344 C2345 1.415 . S
C2345 H2315 0.950 . S
C2345 C2340 1.363 . S
C2345 C2344 1.415 . S
H2346 C2343 0.999 . S
H2347 C2328 0.913 . S
H2348 C2366 0.951 . S
H2349 C2368 0.951 . S
H2350 C2370 0.950 . S
H2351 C2371 0.950 . S
H2352 C2373 0.950 . S
H2353 C2376 0.950 . S
H2354 C2377 0.950 . S
H2355 C2379 0.950 . S
H2356 C2380 0.950 . S
H2357 C2381 0.951 . S
H2358 C2383 0.951 . S
H2359 C2385 0.950 . S
H2360 C2386 0.950 . S
H2361 C2388 0.950 . S
H2362 C2391 0.950 . S
H2363 C2392 0.950 . S
H2364 C2394 0.950 . S
H2365 C2395 0.950 . S
C2366 H2348 0.951 . S
C2366 C2367 1.366 . S
C2366 C2368 1.388 . S
C2367 C2366 1.366 . S
C2367 C2371 1.385 . S
C2368 H2349 0.951 . S
C2368 C2366 1.388 . S
C2368 C2369 1.366 . S
C2369 C2368 1.366 . S
C2369 C2370 1.414 . S
C2369 C2372 1.499 . S
C2370 H2350 0.950 . S
C2370 C2369 1.414 . S
C2370 C2371 1.374 . S
C2371 H2351 0.950 . S
C2371 C2367 1.385 . S
C2371 C2370 1.374 . S
C2372 C2369 1.499 . S
C2372 C2373 1.373 . S
C2372 C2374 1.389 . S
C2373 H2352 0.950 . S
C2373 C2372 1.373 . S
C2373 C2389 1.377 . S
C2374 C2372 1.389 . S
C2374 C2375 1.524 . S
C2374 C2388 1.377 . S
C2375 C2374 1.524 . S
C2375 C2376 1.397 . S
C2375 C2380 1.363 . S
C2376 H2353 0.950 . S
C2376 C2375 1.397 . S
C2376 C2377 1.334 . S
C2377 H2354 0.950 . S
C2377 C2376 1.334 . S
C2377 C2378 1.287 . S
C2378 C2377 1.287 . S
C2378 C2379 1.524 . S
C2378 H2397 0.913 . S
C2379 H2355 0.950 . S
C2379 C2378 1.524 . S
C2379 C2380 1.415 . S
C2380 H2356 0.950 . S
C2380 C2375 1.363 . S
C2380 C2379 1.415 . S
C2381 H2357 0.951 . S
C2381 C2382 1.366 . S
C2381 C2383 1.388 . S
C2382 C2381 1.366 . S
C2382 C2386 1.385 . S
C2383 H2358 0.951 . S
C2383 C2381 1.388 . S
C2383 C2384 1.366 . S
C2384 C2383 1.366 . S
C2384 C2385 1.414 . S
C2384 C2387 1.499 . S
C2385 H2359 0.950 . S
C2385 C2384 1.414 . S
C2385 C2386 1.374 . S
C2386 H2360 0.950 . S
C2386 C2382 1.385 . S
C2386 C2385 1.374 . S
C2387 C2384 1.499 . S
C2387 C2388 1.373 . S
C2387 C2389 1.389 . S
C2388 H2361 0.950 . S
C2388 C2374 1.377 . S
C2388 C2387 1.373 . S
C2389 C2373 1.377 . S
C2389 C2387 1.389 . S
C2389 C2390 1.524 . S
C2390 C2389 1.524 . S
C2390 C2391 1.397 . S
C2390 C2395 1.363 . S
C2391 H2362 0.950 . S
C2391 C2390 1.397 . S
C2391 C2392 1.334 . S
C2392 H2363 0.950 . S
C2392 C2391 1.334 . S
C2392 C2393 1.287 . S
C2393 C2392 1.287 . S
C2393 C2394 1.524 . S
C2393 H2396 0.999 . S
C2394 H2364 0.950 . S
C2394 C2393 1.524 . S
C2394 C2395 1.415 . S
C2395 H2365 0.950 . S
C2395 C2390 1.363 . S
C2395 C2394 1.415 . S
H2396 C2393 0.999 . S
H2397 C2378 0.913 . S
H2398 C2416 0.951 . S
H2399 C2418 0.951 . S
H2400 C2420 0.950 . S
H2401 C2421 0.950 . S
H2402 C2423 0.950 . S
H2403 C2426 0.950 . S
H2404 C2427 0.950 . S
H2405 C2429 0.950 . S
H2406 C2430 0.950 . S
H2407 C2431 0.951 . S
H2408 C2433 0.951 . S
H2409 C2435 0.950 . S
H2410 C2436 0.950 . S
H2411 C2438 0.950 . S
H2412 C2441 0.950 . S
H2413 C2442 0.950 . S
H2414 C2444 0.950 . S
H2415 C2445 0.950 . S
C2416 H2398 0.951 . S
C2416 C2417 1.366 . S
C2416 C2418 1.388 . S
C2417 C2416 1.366 . S
C2417 C2421 1.385 . S
C2418 H2399 0.951 . S
C2418 C2416 1.388 . S
C2418 C2419 1.366 . S
C2419 C2418 1.366 . S
C2419 C2420 1.414 . S
C2419 C2422 1.499 . S
C2420 H2400 0.950 . S
C2420 C2419 1.414 . S
C2420 C2421 1.374 . S
C2421 H2401 0.950 . S
C2421 C2417 1.385 . S
C2421 C2420 1.374 . S
C2422 C2419 1.499 . S
C2422 C2423 1.373 . S
C2422 C2424 1.389 . S
C2423 H2402 0.950 . S
C2423 C2422 1.373 . S
C2423 C2439 1.377 . S
C2424 C2422 1.389 . S
C2424 C2425 1.524 . S
C2424 C2438 1.377 . S
C2425 C2424 1.524 . S
C2425 C2426 1.397 . S
C2425 C2430 1.363 . S
C2426 H2403 0.950 . S
C2426 C2425 1.397 . S
C2426 C2427 1.334 . S
C2427 H2404 0.950 . S
C2427 C2426 1.334 . S
C2427 C2428 1.287 . S
C2428 C2427 1.287 . S
C2428 C2429 1.524 . S
C2428 H2447 0.913 . S
C2429 H2405 0.950 . S
C2429 C2428 1.524 . S
C2429 C2430 1.415 . S
C2430 H2406 0.950 . S
C2430 C2425 1.363 . S
C2430 C2429 1.415 . S
C2431 H2407 0.951 . S
C2431 C2432 1.366 . S
C2431 C2433 1.388 . S
C2432 C2431 1.366 . S
C2432 C2436 1.385 . S
C2433 H2408 0.951 . S
C2433 C2431 1.388 . S
C2433 C2434 1.366 . S
C2434 C2433 1.366 . S
C2434 C2435 1.414 . S
C2434 C2437 1.499 . S
C2435 H2409 0.950 . S
C2435 C2434 1.414 . S
C2435 C2436 1.374 . S
C2436 H2410 0.950 . S
C2436 C2432 1.385 . S
C2436 C2435 1.374 . S
C2437 C2434 1.499 . S
C2437 C2438 1.373 . S
C2437 C2439 1.389 . S
C2438 H2411 0.950 . S
C2438 C2424 1.377 . S
C2438 C2437 1.373 . S
C2439 C2423 1.377 . S
C2439 C2437 1.389 . S
C2439 C2440 1.524 . S
C2440 C2439 1.524 . S
C2440 C2441 1.397 . S
C2440 C2445 1.363 . S
C2441 H2412 0.950 . S
C2441 C2440 1.397 . S
C2441 C2442 1.334 . S
C2442 H2413 0.950 . S
C2442 C2441 1.334 . S
C2442 C2443 1.287 . S
C2443 C2442 1.287 . S
C2443 C2444 1.524 . S
C2443 H2446 0.999 . S
C2444 H2414 0.950 . S
C2444 C2443 1.524 . S
C2444 C2445 1.415 . S
C2445 H2415 0.950 . S
C2445 C2440 1.363 . S
C2445 C2444 1.415 . S
H2446 C2443 0.999 . S
H2447 C2428 0.913 . S
H2448 C2466 0.951 . S
H2449 C2468 0.951 . S
H2450 C2470 0.950 . S
H2451 C2471 0.950 . S
H2452 C2473 0.950 . S
H2453 C2476 0.950 . S
H2454 C2477 0.950 . S
H2455 C2479 0.950 . S
H2456 C2480 0.950 . S
H2457 C2481 0.951 . S
H2458 C2483 0.951 . S
H2459 C2485 0.950 . S
H2460 C2486 0.950 . S
H2461 C2488 0.950 . S
H2462 C2491 0.950 . S
H2463 C2492 0.950 . S
H2464 C2494 0.950 . S
H2465 C2495 0.950 . S
C2466 H2448 0.951 . S
C2466 C2467 1.366 . S
C2466 C2468 1.388 . S
C2467 C2466 1.366 . S
C2467 C2471 1.385 . S
C2468 H2449 0.951 . S
C2468 C2466 1.388 . S
C2468 C2469 1.366 . S
C2469 C2468 1.366 . S
C2469 C2470 1.414 . S
C2469 C2472 1.499 . S
C2470 H2450 0.950 . S
C2470 C2469 1.414 . S
C2470 C2471 1.374 . S
C2471 H2451 0.950 . S
C2471 C2467 1.385 . S
C2471 C2470 1.374 . S
C2472 C2469 1.499 . S
C2472 C2473 1.373 . S
C2472 C2474 1.389 . S
C2473 H2452 0.950 . S
C2473 C2472 1.373 . S
C2473 C2489 1.377 . S
C2474 C2472 1.389 . S
C2474 C2475 1.524 . S
C2474 C2488 1.377 . S
C2475 C2474 1.524 . S
C2475 C2476 1.397 . S
C2475 C2480 1.363 . S
C2476 H2453 0.950 . S
C2476 C2475 1.397 . S
C2476 C2477 1.334 . S
C2477 H2454 0.950 . S
C2477 C2476 1.334 . S
C2477 C2478 1.287 . S
C2478 C2477 1.287 . S
C2478 C2479 1.524 . S
C2478 H2497 0.913 . S
C2479 H2455 0.950 . S
C2479 C2478 1.524 . S
C2479 C2480 1.415 . S
C2480 H2456 0.950 . S
C2480 C2475 1.363 . S
C2480 C2479 1.415 . S
C2481 H2457 0.951 . S
C2481 C2482 1.366 . S
C2481 C2483 1.388 . S
C2482 C2481 1.366 . S
C2482 C2486 1.385 . S
C2483 H2458 0.951 . S
C2483 C2481 1.388 . S
C2483 C2484 1.366 . S
C2484 C2483 1.366 . S
C2484 C2485 1.414 . S
C2484 C2487 1.499 . S
C2485 H2459 0.950 . S
C2485 C2484 1.414 . S
C2485 C2486 1.374 . S
C2486 H2460 0.950 . S
C2486 C2482 1.385 . S
C2486 C2485 1.374 . S
C2487 C2484 1.499 . S
C2487 C2488 1.373 . S
C2487 C2489 1.389 . S
C2488 H2461 0.950 . S
C2488 C2474 1.377 . S
C2488 C2487 1.373 . S
C2489 C2473 1.377 . S
C2489 C2487 1.389 . S
C2489 C2490 1.524 . S
C2490 C2489 1.524 . S
C2490 C2491 1.397 . S
C2490 C2495 1.363 . S
C2491 H2462 0.950 . S
C2491 C2490 1.397 . S
C2491 C2492 1.334 . S
C2492 H2463 0.950 . S
C2492 C2491 1.334 . S
C2492 C2493 1.287 . S
C2493 C2492 1.287 . S
C2493 C2494 1.524 . S
C2493 H2496 0.999 . S
C2494 H2464 0.950 . S
C2494 C2493 1.524 . S
C2494 C2495 1.415 . S
C2495 H2465 0.950 . S
C2495 C2490 1.363 . S
C2495 C2494 1.415 . S
H2496 C2493 0.999 . S
H2497 C2478 0.913 . S
H2498 C2516 0.951 . S
H2499 C2518 0.951 . S
H2500 C2520 0.950 . S
H2501 C2521 0.950 . S
H2502 C2523 0.950 . S
H2503 C2526 0.950 . S
H2504 C2527 0.950 . S
H2505 C2529 0.950 1_545 S
H2506 C2530 0.950 . S
H2507 C2531 0.951 . S
H2508 C2533 0.951 . S
H2509 C2535 0.950 . S
H2510 C2536 0.950 . S
H2511 C2538 0.950 . S
H2512 C2541 0.950 . S
H2513 C2542 0.950 . S
H2514 C2544 0.950 . S
H2515 C2545 0.950 . S
C2516 H2498 0.951 . S
C2516 C2517 1.366 . S
C2516 C2518 1.388 . S
C2517 C2516 1.366 . S
C2517 C2521 1.385 . S
C2518 H2499 0.951 . S
C2518 C2516 1.388 . S
C2518 C2519 1.366 . S
C2519 C2518 1.366 . S
C2519 C2520 1.414 . S
C2519 C2522 1.499 . S
C2520 H2500 0.950 . S
C2520 C2519 1.414 . S
C2520 C2521 1.374 . S
C2521 H2501 0.950 . S
C2521 C2517 1.385 . S
C2521 C2520 1.374 . S
C2522 C2519 1.499 . S
C2522 C2523 1.373 . S
C2522 C2524 1.389 . S
C2523 H2502 0.950 . S
C2523 C2522 1.373 . S
C2523 C2539 1.377 . S
C2524 C2522 1.389 . S
C2524 C2525 1.524 . S
C2524 C2538 1.377 . S
C2525 C2524 1.524 . S
C2525 C2526 1.397 . S
C2525 C2530 1.363 . S
C2526 H2503 0.950 . S
C2526 C2525 1.397 . S
C2526 C2527 1.334 . S
C2527 H2504 0.950 . S
C2527 C2526 1.334 . S
C2527 C2528 1.287 . S
C2528 C2527 1.287 . S
C2528 C2529 1.524 . S
C2528 H2547 0.913 1_565 S
C2529 H2505 0.950 1_565 S
C2529 C2528 1.524 . S
C2529 C2530 1.415 . S
C2530 H2506 0.950 . S
C2530 C2525 1.363 . S
C2530 C2529 1.415 . S
C2531 H2507 0.951 . S
C2531 C2532 1.366 . S
C2531 C2533 1.388 . S
C2532 C2531 1.366 . S
C2532 C2536 1.385 . S
C2533 H2508 0.951 . S
C2533 C2531 1.388 . S
C2533 C2534 1.366 . S
C2534 C2533 1.366 . S
C2534 C2535 1.414 . S
C2534 C2537 1.499 . S
C2535 H2509 0.950 . S
C2535 C2534 1.414 . S
C2535 C2536 1.374 . S
C2536 H2510 0.950 . S
C2536 C2532 1.385 . S
C2536 C2535 1.374 . S
C2537 C2534 1.499 . S
C2537 C2538 1.373 . S
C2537 C2539 1.389 . S
C2538 H2511 0.950 . S
C2538 C2524 1.377 . S
C2538 C2537 1.373 . S
C2539 C2523 1.377 . S
C2539 C2537 1.389 . S
C2539 C2540 1.524 . S
C2540 C2539 1.524 . S
C2540 C2541 1.397 . S
C2540 C2545 1.363 . S
C2541 H2512 0.950 . S
C2541 C2540 1.397 . S
C2541 C2542 1.334 . S
C2542 H2513 0.950 . S
C2542 C2541 1.334 . S
C2542 C2543 1.287 . S
C2543 C2542 1.287 . S
C2543 C2544 1.524 . S
C2543 H2546 0.999 . S
C2544 H2514 0.950 . S
C2544 C2543 1.524 . S
C2544 C2545 1.415 . S
C2545 H2515 0.950 . S
C2545 C2540 1.363 . S
C2545 C2544 1.415 . S
H2546 C2543 0.999 . S
H2547 C2528 0.913 1_545 S
H2548 C2566 0.951 . S
H2549 C2568 0.951 . S
H2550 C2570 0.950 . S
H2551 C2571 0.950 . S
H2552 C2573 0.950 . S
H2553 C2576 0.950 . S
H2554 C2577 0.950 . S
H2555 C2579 0.950 . S
H2556 C2580 0.950 . S
H2557 C2581 0.951 . S
H2558 C2583 0.951 . S
H2559 C2585 0.950 . S
H2560 C2586 0.950 . S
H2561 C2588 0.950 . S
H2562 C2591 0.950 . S
H2563 C2592 0.950 . S
H2564 C2594 0.950 . S
H2565 C2595 0.950 . S
C2566 H2548 0.951 . S
C2566 C2567 1.366 . S
C2566 C2568 1.388 . S
C2567 C2566 1.366 . S
C2567 C2571 1.385 . S
C2568 H2549 0.951 . S
C2568 C2566 1.388 . S
C2568 C2569 1.366 . S
C2569 C2568 1.366 . S
C2569 C2570 1.414 . S
C2569 C2572 1.499 . S
C2570 H2550 0.950 . S
C2570 C2569 1.414 . S
C2570 C2571 1.374 . S
C2571 H2551 0.950 . S
C2571 C2567 1.385 . S
C2571 C2570 1.374 . S
C2572 C2569 1.499 . S
C2572 C2573 1.373 . S
C2572 C2574 1.389 . S
C2573 H2552 0.950 . S
C2573 C2572 1.373 . S
C2573 C2589 1.377 . S
C2574 C2572 1.389 . S
C2574 C2575 1.524 . S
C2574 C2588 1.377 . S
C2575 C2574 1.524 . S
C2575 C2576 1.397 . S
C2575 C2580 1.363 . S
C2576 H2553 0.950 . S
C2576 C2575 1.397 . S
C2576 C2577 1.334 . S
C2577 H2554 0.950 . S
C2577 C2576 1.334 . S
C2577 C2578 1.287 . S
C2578 C2577 1.287 . S
C2578 C2579 1.524 . S
C2578 H2597 0.913 . S
C2579 H2555 0.950 . S
C2579 C2578 1.524 . S
C2579 C2580 1.415 . S
C2580 H2556 0.950 . S
C2580 C2575 1.363 . S
C2580 C2579 1.415 . S
C2581 H2557 0.951 . S
C2581 C2582 1.366 . S
C2581 C2583 1.388 . S
C2582 C2581 1.366 . S
C2582 C2586 1.385 . S
C2583 H2558 0.951 . S
C2583 C2581 1.388 . S
C2583 C2584 1.366 . S
C2584 C2583 1.366 . S
C2584 C2585 1.414 . S
C2584 C2587 1.499 . S
C2585 H2559 0.950 . S
C2585 C2584 1.414 . S
C2585 C2586 1.374 . S
C2586 H2560 0.950 . S
C2586 C2582 1.385 . S
C2586 C2585 1.374 . S
C2587 C2584 1.499 . S
C2587 C2588 1.373 . S
C2587 C2589 1.389 . S
C2588 H2561 0.950 . S
C2588 C2574 1.377 . S
C2588 C2587 1.373 . S
C2589 C2573 1.377 . S
C2589 C2587 1.389 . S
C2589 C2590 1.524 . S
C2590 C2589 1.524 . S
C2590 C2591 1.397 . S
C2590 C2595 1.363 . S
C2591 H2562 0.950 . S
C2591 C2590 1.397 . S
C2591 C2592 1.334 . S
C2592 H2563 0.950 . S
C2592 C2591 1.334 . S
C2592 C2593 1.287 . S
C2593 C2592 1.287 . S
C2593 C2594 1.524 . S
C2593 H2596 0.999 . S
C2594 H2564 0.950 . S
C2594 C2593 1.524 . S
C2594 C2595 1.415 . S
C2595 H2565 0.950 . S
C2595 C2590 1.363 . S
C2595 C2594 1.415 . S
H2596 C2593 0.999 . S
H2597 C2578 0.913 . S
H2598 C2616 0.951 . S
H2599 C2618 0.951 . S
H2600 C2620 0.950 . S
H2601 C2621 0.950 . S
H2602 C2623 0.950 . S
H2603 C2626 0.950 . S
H2604 C2627 0.950 . S
H2605 C2629 0.950 . S
H2606 C2630 0.950 . S
H2607 C2631 0.951 . S
H2608 C2633 0.951 . S
H2609 C2635 0.950 . S
H2610 C2636 0.950 . S
H2611 C2638 0.950 . S
H2612 C2641 0.950 . S
H2613 C2642 0.950 . S
H2614 C2644 0.950 . S
H2615 C2645 0.950 . S
C2616 H2598 0.951 . S
C2616 C2617 1.366 . S
C2616 C2618 1.388 . S
C2617 C2616 1.366 . S
C2617 C2621 1.385 . S
C2618 H2599 0.951 . S
C2618 C2616 1.388 . S
C2618 C2619 1.366 . S
C2619 C2618 1.366 . S
C2619 C2620 1.414 . S
C2619 C2622 1.499 . S
C2620 H2600 0.950 . S
C2620 C2619 1.414 . S
C2620 C2621 1.374 . S
C2621 H2601 0.950 . S
C2621 C2617 1.385 . S
C2621 C2620 1.374 . S
C2622 C2619 1.499 . S
C2622 C2623 1.373 . S
C2622 C2624 1.389 . S
C2623 H2602 0.950 . S
C2623 C2622 1.373 . S
C2623 C2639 1.377 . S
C2624 C2622 1.389 . S
C2624 C2625 1.524 . S
C2624 C2638 1.377 . S
C2625 C2624 1.524 . S
C2625 C2626 1.397 . S
C2625 C2630 1.363 . S
C2626 H2603 0.950 . S
C2626 C2625 1.397 . S
C2626 C2627 1.334 . S
C2627 H2604 0.950 . S
C2627 C2626 1.334 . S
C2627 C2628 1.287 . S
C2628 C2627 1.287 . S
C2628 C2629 1.524 . S
C2628 H2647 0.913 . S
C2629 H2605 0.950 . S
C2629 C2628 1.524 . S
C2629 C2630 1.415 . S
C2630 H2606 0.950 . S
C2630 C2625 1.363 . S
C2630 C2629 1.415 . S
C2631 H2607 0.951 . S
C2631 C2632 1.366 . S
C2631 C2633 1.388 . S
C2632 C2631 1.366 . S
C2632 C2636 1.385 . S
C2633 H2608 0.951 . S
C2633 C2631 1.388 . S
C2633 C2634 1.366 . S
C2634 C2633 1.366 . S
C2634 C2635 1.414 . S
C2634 C2637 1.499 . S
C2635 H2609 0.950 . S
C2635 C2634 1.414 . S
C2635 C2636 1.374 . S
C2636 H2610 0.950 . S
C2636 C2632 1.385 . S
C2636 C2635 1.374 . S
C2637 C2634 1.499 . S
C2637 C2638 1.373 . S
C2637 C2639 1.389 . S
C2638 H2611 0.950 . S
C2638 C2624 1.377 . S
C2638 C2637 1.373 . S
C2639 C2623 1.377 . S
C2639 C2637 1.389 . S
C2639 C2640 1.524 . S
C2640 C2639 1.524 . S
C2640 C2641 1.397 . S
C2640 C2645 1.363 . S
C2641 H2612 0.950 . S
C2641 C2640 1.397 . S
C2641 C2642 1.334 . S
C2642 H2613 0.950 . S
C2642 C2641 1.334 . S
C2642 C2643 1.287 . S
C2643 C2642 1.287 . S
C2643 C2644 1.524 . S
C2643 H2646 0.999 . S
C2644 H2614 0.950 . S
C2644 C2643 1.524 . S
C2644 C2645 1.415 . S
C2645 H2615 0.950 . S
C2645 C2640 1.363 . S
C2645 C2644 1.415 . S
H2646 C2643 0.999 . S
H2647 C2628 0.913 . S
H2648 C2666 0.951 . S
H2649 C2668 0.951 . S
H2650 C2670 0.950 . S
H2651 C2671 0.950 . S
H2652 C2673 0.950 . S
H2653 C2676 0.950 . S
H2654 C2677 0.950 . S
H2655 C2679 0.950 . S
H2656 C2680 0.950 . S
H2657 C2681 0.951 . S
H2658 C2683 0.951 . S
H2659 C2685 0.950 . S
H2660 C2686 0.950 . S
H2661 C2688 0.950 . S
H2662 C2691 0.950 . S
H2663 C2692 0.950 . S
H2664 C2694 0.950 . S
H2665 C2695 0.954 . S
C2666 H2648 0.951 . S
C2666 C2667 1.366 . S
C2666 C2668 1.388 . S
C2667 C2666 1.366 . S
C2667 C2671 1.385 . S
C2668 H2649 0.951 . S
C2668 C2666 1.388 . S
C2668 C2669 1.366 . S
C2669 C2668 1.366 . S
C2669 C2670 1.414 . S
C2669 C2672 1.499 . S
C2670 H2650 0.950 . S
C2670 C2669 1.414 . S
C2670 C2671 1.374 . S
C2671 H2651 0.950 . S
C2671 C2667 1.385 . S
C2671 C2670 1.374 . S
C2672 C2669 1.499 . S
C2672 C2673 1.373 . S
C2672 C2674 1.389 . S
C2673 H2652 0.950 . S
C2673 C2672 1.373 . S
C2673 C2689 1.377 . S
C2674 C2672 1.389 . S
C2674 C2675 1.524 . S
C2674 C2688 1.377 . S
C2675 C2674 1.524 . S
C2675 C2676 1.397 . S
C2675 C2680 1.363 . S
C2676 H2653 0.950 . S
C2676 C2675 1.397 . S
C2676 C2677 1.334 . S
C2677 H2654 0.950 . S
C2677 C2676 1.334 . S
C2677 C2678 1.287 . S
C2678 C2677 1.287 . S
C2678 C2679 1.524 . S
C2678 H2697 0.913 . S
C2679 H2655 0.950 . S
C2679 C2678 1.524 . S
C2679 C2680 1.415 . S
C2680 H2656 0.950 . S
C2680 C2675 1.363 . S
C2680 C2679 1.415 . S
C2681 H2657 0.951 . S
C2681 C2682 1.366 . S
C2681 C2683 1.388 . S
C2682 C2681 1.366 . S
C2682 C2686 1.385 . S
C2683 H2658 0.951 . S
C2683 C2681 1.388 . S
C2683 C2684 1.366 . S
C2684 C2683 1.366 . S
C2684 C2685 1.414 . S
C2684 C2687 1.499 . S
C2685 H2659 0.950 . S
C2685 C2684 1.414 . S
C2685 C2686 1.374 . S
C2686 H2660 0.950 . S
C2686 C2682 1.385 . S
C2686 C2685 1.374 . S
C2687 C2684 1.499 . S
C2687 C2688 1.373 . S
C2687 C2689 1.389 . S
C2688 H2661 0.950 . S
C2688 C2674 1.377 . S
C2688 C2687 1.373 . S
C2689 C2673 1.377 . S
C2689 C2687 1.389 . S
C2689 C2690 1.524 . S
C2690 C2689 1.524 . S
C2690 C2691 1.397 . S
C2690 C2695 1.337 1_565 S
C2691 H2662 0.950 . S
C2691 C2690 1.397 . S
C2691 C2692 1.334 . S
C2692 H2663 0.950 . S
C2692 C2691 1.334 . S
C2692 C2693 1.287 1_565 S
C2693 C2692 1.287 1_545 S
C2693 C2694 1.524 . S
C2693 H2696 0.999 . S
C2694 H2664 0.950 . S
C2694 C2693 1.524 . S
C2694 C2695 1.438 . S
C2695 H2665 0.954 . S
C2695 C2690 1.337 1_545 S
C2695 C2694 1.438 . S
H2696 C2693 0.999 . S
H2697 C2678 0.913 . S
H2698 C2716 0.951 . S
H2699 C2718 0.951 . S
H2700 C2720 0.950 . S
H2701 C2721 0.950 . S
H2702 C2723 0.950 . S
H2703 C2726 0.950 . S
H2704 C2727 0.950 . S
H2705 C2729 0.950 . S
H2706 C2730 0.950 . S
H2707 C2731 0.951 . S
H2708 C2733 0.951 . S
H2709 C2735 0.950 . S
H2710 C2736 0.950 . S
H2711 C2738 0.950 . S
H2712 C2741 0.950 . S
H2713 C2742 0.950 . S
H2714 C2744 0.950 . S
H2715 C2745 0.950 . S
C2716 H2698 0.951 . S
C2716 C2717 1.366 . S
C2716 C2718 1.388 . S
C2717 C2716 1.366 . S
C2717 C2721 1.385 . S
C2718 H2699 0.951 . S
C2718 C2716 1.388 . S
C2718 C2719 1.366 . S
C2719 C2718 1.366 . S
C2719 C2720 1.414 . S
C2719 C2722 1.499 . S
C2720 H2700 0.950 . S
C2720 C2719 1.414 . S
C2720 C2721 1.374 . S
C2721 H2701 0.950 . S
C2721 C2717 1.385 . S
C2721 C2720 1.374 . S
C2722 C2719 1.499 . S
C2722 C2723 1.373 . S
C2722 C2724 1.389 . S
C2723 H2702 0.950 . S
C2723 C2722 1.373 . S
C2723 C2739 1.377 . S
C2724 C2722 1.389 . S
C2724 C2725 1.524 . S
C2724 C2738 1.377 . S
C2725 C2724 1.524 . S
C2725 C2726 1.397 . S
C2725 C2730 1.363 . S
C2726 H2703 0.950 . S
C2726 C2725 1.397 . S
C2726 C2727 1.334 . S
C2727 H2704 0.950 . S
C2727 C2726 1.334 . S
C2727 C2728 1.287 . S
C2728 C2727 1.287 . S
C2728 C2729 1.524 . S
C2728 H2747 0.913 . S
C2729 H2705 0.950 . S
C2729 C2728 1.524 . S
C2729 C2730 1.415 . S
C2730 H2706 0.950 . S
C2730 C2725 1.363 . S
C2730 C2729 1.415 . S
C2731 H2707 0.951 . S
C2731 C2732 1.366 . S
C2731 C2733 1.388 . S
C2732 C2731 1.366 . S
C2732 C2736 1.385 . S
C2733 H2708 0.951 . S
C2733 C2731 1.388 . S
C2733 C2734 1.366 . S
C2734 C2733 1.366 . S
C2734 C2735 1.414 . S
C2734 C2737 1.499 . S
C2735 H2709 0.950 . S
C2735 C2734 1.414 . S
C2735 C2736 1.374 . S
C2736 H2710 0.950 . S
C2736 C2732 1.385 . S
C2736 C2735 1.374 . S
C2737 C2734 1.499 . S
C2737 C2738 1.373 . S
C2737 C2739 1.389 . S
C2738 H2711 0.950 . S
C2738 C2724 1.377 . S
C2738 C2737 1.373 . S
C2739 C2723 1.377 . S
C2739 C2737 1.389 . S
C2739 C2740 1.524 . S
C2740 C2739 1.524 . S
C2740 C2741 1.397 . S
C2740 C2745 1.363 . S
C2741 H2712 0.950 . S
C2741 C2740 1.397 . S
C2741 C2742 1.334 . S
C2742 H2713 0.950 . S
C2742 C2741 1.334 . S
C2742 C2743 1.287 . S
C2743 C2742 1.287 . S
C2743 C2744 1.524 . S
C2743 H2746 0.999 . S
C2744 H2714 0.950 . S
C2744 C2743 1.524 . S
C2744 C2745 1.415 . S
C2745 H2715 0.950 . S
C2745 C2740 1.363 . S
C2745 C2744 1.415 . S
H2746 C2743 0.999 . S
H2747 C2728 0.913 . S
H2748 C2766 0.951 . S
H2749 C2768 0.951 . S
H2750 C2770 0.950 . S
H2751 C2771 0.950 . S
H2752 C2773 0.950 . S
H2753 C2776 0.950 . S
H2754 C2777 0.950 . S
H2755 C2779 0.950 . S
H2756 C2780 0.950 . S
H2757 C2781 0.951 . S
H2758 C2783 0.951 . S
H2759 C2785 0.950 . S
H2760 C2786 0.950 . S
H2761 C2788 0.950 . S
H2762 C2791 0.950 . S
H2763 C2792 0.950 1_565 S
H2764 C2794 0.950 . S
H2765 C2795 0.950 . S
C2766 H2748 0.951 . S
C2766 C2767 1.366 . S
C2766 C2768 1.388 . S
C2767 C2766 1.366 . S
C2767 C2771 1.385 . S
C2768 H2749 0.951 . S
C2768 C2766 1.388 . S
C2768 C2769 1.366 . S
C2769 C2768 1.366 . S
C2769 C2770 1.414 . S
C2769 C2772 1.499 . S
C2770 H2750 0.950 . S
C2770 C2769 1.414 . S
C2770 C2771 1.374 . S
C2771 H2751 0.950 . S
C2771 C2767 1.385 . S
C2771 C2770 1.374 . S
C2772 C2769 1.499 . S
C2772 C2773 1.373 . S
C2772 C2774 1.389 . S
C2773 H2752 0.950 . S
C2773 C2772 1.373 . S
C2773 C2789 1.377 . S
C2774 C2772 1.389 . S
C2774 C2775 1.524 . S
C2774 C2788 1.377 . S
C2775 C2774 1.524 . S
C2775 C2776 1.397 . S
C2775 C2780 1.363 . S
C2776 H2753 0.950 . S
C2776 C2775 1.397 . S
C2776 C2777 1.334 . S
C2777 H2754 0.950 . S
C2777 C2776 1.334 . S
C2777 C2778 1.287 . S
C2778 C2777 1.287 . S
C2778 C2779 1.524 . S
C2778 H2797 0.913 . S
C2779 H2755 0.950 . S
C2779 C2778 1.524 . S
C2779 C2780 1.415 . S
C2780 H2756 0.950 . S
C2780 C2775 1.363 . S
C2780 C2779 1.415 . S
C2781 H2757 0.951 . S
C2781 C2782 1.366 . S
C2781 C2783 1.388 . S
C2782 C2781 1.366 . S
C2782 C2786 1.385 . S
C2783 H2758 0.951 . S
C2783 C2781 1.388 . S
C2783 C2784 1.366 . S
C2784 C2783 1.366 . S
C2784 C2785 1.414 . S
C2784 C2787 1.499 . S
C2785 H2759 0.950 . S
C2785 C2784 1.414 . S
C2785 C2786 1.374 . S
C2786 H2760 0.950 . S
C2786 C2782 1.385 . S
C2786 C2785 1.374 . S
C2787 C2784 1.499 . S
C2787 C2788 1.373 . S
C2787 C2789 1.389 . S
C2788 H2761 0.950 . S
C2788 C2774 1.377 . S
C2788 C2787 1.373 . S
C2789 C2773 1.377 . S
C2789 C2787 1.389 . S
C2789 C2790 1.524 . S
C2790 C2789 1.524 . S
C2790 C2791 1.397 . S
C2790 C2795 1.363 . S
C2791 H2762 0.950 . S
C2791 C2790 1.397 . S
C2791 C2792 1.334 . S
C2792 H2763 0.950 1_545 S
C2792 C2791 1.334 . S
C2792 C2793 1.287 . S
C2793 C2792 1.287 . S
C2793 C2794 1.524 . S
C2793 H2796 0.999 1_545 S
C2794 H2764 0.950 . S
C2794 C2793 1.524 . S
C2794 C2795 1.415 . S
C2795 H2765 0.950 . S
C2795 C2790 1.363 . S
C2795 C2794 1.415 . S
H2796 C2793 0.999 1_565 S
H2797 C2778 0.913 . S
H2798 C2816 0.951 . S
H2799 C2818 0.951 . S
H2800 C2820 0.950 . S
H2801 C2821 0.950 . S
H2802 C2823 0.950 . S
H2803 C2826 0.950 . S
H2804 C2827 0.950 . S
H2805 C2829 0.950 . S
H2806 C2830 0.950 . S
H2807 C2831 0.951 . S
H2808 C2833 0.951 . S
H2809 C2835 0.950 . S
H2810 C2836 0.950 . S
H2811 C2838 0.950 . S
H2812 C2841 0.950 . S
H2813 C2842 0.950 . S
H2814 C2844 0.950 . S
H2815 C2845 0.950 . S
C2816 H2798 0.951 . S
C2816 C2817 1.366 . S
C2816 C2818 1.388 . S
C2817 C2816 1.366 . S
C2817 C2821 1.385 . S
C2818 H2799 0.951 . S
C2818 C2816 1.388 . S
C2818 C2819 1.366 . S
C2819 C2818 1.366 . S
C2819 C2820 1.414 . S
C2819 C2822 1.499 . S
C2820 H2800 0.950 . S
C2820 C2819 1.414 . S
C2820 C2821 1.374 . S
C2821 H2801 0.950 . S
C2821 C2817 1.385 . S
C2821 C2820 1.374 . S
C2822 C2819 1.499 . S
C2822 C2823 1.373 . S
C2822 C2824 1.389 . S
C2823 H2802 0.950 . S
C2823 C2822 1.373 . S
C2823 C2839 1.377 . S
C2824 C2822 1.389 . S
C2824 C2825 1.524 . S
C2824 C2838 1.377 . S
C2825 C2824 1.524 . S
C2825 C2826 1.397 . S
C2825 C2830 1.363 . S
C2826 H2803 0.950 . S
C2826 C2825 1.397 . S
C2826 C2827 1.334 . S
C2827 H2804 0.950 . S
C2827 C2826 1.334 . S
C2827 C2828 1.287 . S
C2828 C2827 1.287 . S
C2828 C2829 1.524 . S
C2828 H2847 0.913 . S
C2829 H2805 0.950 . S
C2829 C2828 1.524 . S
C2829 C2830 1.415 . S
C2830 H2806 0.950 . S
C2830 C2825 1.363 . S
C2830 C2829 1.415 . S
C2831 H2807 0.951 . S
C2831 C2832 1.366 . S
C2831 C2833 1.388 . S
C2832 C2831 1.366 . S
C2832 C2836 1.385 . S
C2833 H2808 0.951 . S
C2833 C2831 1.388 . S
C2833 C2834 1.366 . S
C2834 C2833 1.366 . S
C2834 C2835 1.414 . S
C2834 C2837 1.499 . S
C2835 H2809 0.950 . S
C2835 C2834 1.414 . S
C2835 C2836 1.374 . S
C2836 H2810 0.950 . S
C2836 C2832 1.385 . S
C2836 C2835 1.374 . S
C2837 C2834 1.499 . S
C2837 C2838 1.373 . S
C2837 C2839 1.389 . S
C2838 H2811 0.950 . S
C2838 C2824 1.377 . S
C2838 C2837 1.373 . S
C2839 C2823 1.377 . S
C2839 C2837 1.389 . S
C2839 C2840 1.524 . S
C2840 C2839 1.524 . S
C2840 C2841 1.397 . S
C2840 C2845 1.363 . S
C2841 H2812 0.950 . S
C2841 C2840 1.397 . S
C2841 C2842 1.334 . S
C2842 H2813 0.950 . S
C2842 C2841 1.334 . S
C2842 C2843 1.287 . S
C2843 C2842 1.287 . S
C2843 C2844 1.524 . S
C2843 H2846 0.999 . S
C2844 H2814 0.950 . S
C2844 C2843 1.524 . S
C2844 C2845 1.415 . S
C2845 H2815 0.950 . S
C2845 C2840 1.363 . S
C2845 C2844 1.415 . S
H2846 C2843 0.999 . S
H2847 C2828 0.913 . S
H2848 C2866 0.951 . S
H2849 C2868 0.951 . S
H2850 C2870 0.950 . S
H2851 C2871 0.950 . S
H2852 C2873 0.950 . S
H2853 C2876 0.950 . S
H2854 C2877 0.950 . S
H2855 C2879 0.950 . S
H2856 C2880 0.950 . S
H2857 C2881 0.951 . S
H2858 C2883 0.951 . S
H2859 C2885 0.950 . S
H2860 C2886 0.950 . S
H2861 C2888 0.950 . S
H2862 C2891 0.950 . S
H2863 C2892 0.950 . S
H2864 C2894 0.950 . S
H2865 C2895 0.950 . S
C2866 H2848 0.951 . S
C2866 C2867 1.366 . S
C2866 C2868 1.388 1_565 S
C2867 C2866 1.366 . S
C2867 C2871 1.385 . S
C2868 H2849 0.951 . S
C2868 C2866 1.388 1_545 S
C2868 C2869 1.366 . S
C2869 C2868 1.366 . S
C2869 C2870 1.414 . S
C2869 C2872 1.499 . S
C2870 H2850 0.950 . S
C2870 C2869 1.414 . S
C2870 C2871 1.374 1_545 S
C2871 H2851 0.950 . S
C2871 C2867 1.385 . S
C2871 C2870 1.374 1_565 S
C2872 C2869 1.499 . S
C2872 C2873 1.373 . S
C2872 C2874 1.389 . S
C2873 H2852 0.950 . S
C2873 C2872 1.373 . S
C2873 C2889 1.377 . S
C2874 C2872 1.389 . S
C2874 C2875 1.524 . S
C2874 C2888 1.377 . S
C2875 C2874 1.524 . S
C2875 C2876 1.397 . S
C2875 C2880 1.363 . S
C2876 H2853 0.950 . S
C2876 C2875 1.397 . S
C2876 C2877 1.334 . S
C2877 H2854 0.950 . S
C2877 C2876 1.334 . S
C2877 C2878 1.287 1_455 S
C2878 C2877 1.287 1_655 S
C2878 C2879 1.524 . S
C2878 H2897 0.913 . S
C2879 H2855 0.950 . S
C2879 C2878 1.524 . S
C2879 C2880 1.415 1_655 S
C2880 H2856 0.950 . S
C2880 C2875 1.363 . S
C2880 C2879 1.415 1_455 S
C2881 H2857 0.951 . S
C2881 C2882 1.366 . S
C2881 C2883 1.388 . S
C2882 C2881 1.366 . S
C2882 C2886 1.385 . S
C2883 H2858 0.951 . S
C2883 C2881 1.388 . S
C2883 C2884 1.366 . S
C2884 C2883 1.366 . S
C2884 C2885 1.414 . S
C2884 C2887 1.499 . S
C2885 H2859 0.950 . S
C2885 C2884 1.414 . S
C2885 C2886 1.374 . S
C2886 H2860 0.950 . S
C2886 C2882 1.385 . S
C2886 C2885 1.374 . S
C2887 C2884 1.499 . S
C2887 C2888 1.373 . S
C2887 C2889 1.389 . S
C2888 H2861 0.950 . S
C2888 C2874 1.377 . S
C2888 C2887 1.373 . S
C2889 C2873 1.377 . S
C2889 C2887 1.389 . S
C2889 C2890 1.524 . S
C2890 C2889 1.524 . S
C2890 C2891 1.397 . S
C2890 C2895 1.363 . S
C2891 H2862 0.950 . S
C2891 C2890 1.397 . S
C2891 C2892 1.334 . S
C2892 H2863 0.950 . S
C2892 C2891 1.334 . S
C2892 C2893 1.287 . S
C2893 C2892 1.287 . S
C2893 C2894 1.524 . S
C2893 H2896 0.999 . S
C2894 H2864 0.950 . S
C2894 C2893 1.524 . S
C2894 C2895 1.415 . S
C2895 H2865 0.950 . S
C2895 C2890 1.363 . S
C2895 C2894 1.415 . S
H2896 C2893 0.999 . S
H2897 C2878 0.913 . S
H2898 C2916 0.951 . S
H2899 C2918 0.951 . S
H2900 C2920 0.950 . S
H2901 C2921 0.950 . S
H2902 C2923 0.950 . S
H2903 C2926 0.950 . S
H2904 C2927 0.950 . S
H2905 C2929 0.950 . S
H2906 C2930 0.950 . S
H2907 C2931 0.951 . S
H2908 C2933 0.951 . S
H2909 C2935 0.950 . S
H2910 C2936 0.950 . S
H2911 C2938 0.950 . S
H2912 C2941 0.950 . S
H2913 C2942 0.950 . S
H2914 C2944 0.950 . S
H2915 C2945 0.950 . S
C2916 H2898 0.951 . S
C2916 C2917 1.366 . S
C2916 C2918 1.388 1_565 S
C2917 C2916 1.366 . S
C2917 C2921 1.385 . S
C2918 H2899 0.951 . S
C2918 C2916 1.388 1_545 S
C2918 C2919 1.366 . S
C2919 C2918 1.366 . S
C2919 C2920 1.414 . S
C2919 C2922 1.499 . S
C2920 H2900 0.950 . S
C2920 C2919 1.414 . S
C2920 C2921 1.374 1_545 S
C2921 H2901 0.950 . S
C2921 C2917 1.385 . S
C2921 C2920 1.374 1_565 S
C2922 C2919 1.499 . S
C2922 C2923 1.373 . S
C2922 C2924 1.389 . S
C2923 H2902 0.950 . S
C2923 C2922 1.373 . S
C2923 C2939 1.377 . S
C2924 C2922 1.389 . S
C2924 C2925 1.524 . S
C2924 C2938 1.377 . S
C2925 C2924 1.524 . S
C2925 C2926 1.397 . S
C2925 C2930 1.363 . S
C2926 H2903 0.950 . S
C2926 C2925 1.397 . S
C2926 C2927 1.334 . S
C2927 H2904 0.950 . S
C2927 C2926 1.334 . S
C2927 C2928 1.287 . S
C2928 C2927 1.287 . S
C2928 C2929 1.524 . S
C2928 H2947 0.913 . S
C2929 H2905 0.950 . S
C2929 C2928 1.524 . S
C2929 C2930 1.415 . S
C2930 H2906 0.950 . S
C2930 C2925 1.363 . S
C2930 C2929 1.415 . S
C2931 H2907 0.951 . S
C2931 C2932 1.366 . S
C2931 C2933 1.388 . S
C2932 C2931 1.366 . S
C2932 C2936 1.385 . S
C2933 H2908 0.951 . S
C2933 C2931 1.388 . S
C2933 C2934 1.366 . S
C2934 C2933 1.366 . S
C2934 C2935 1.414 . S
C2934 C2937 1.499 . S
C2935 H2909 0.950 . S
C2935 C2934 1.414 . S
C2935 C2936 1.374 . S
C2936 H2910 0.950 . S
C2936 C2932 1.385 . S
C2936 C2935 1.374 . S
C2937 C2934 1.499 . S
C2937 C2938 1.373 . S
C2937 C2939 1.389 . S
C2938 H2911 0.950 . S
C2938 C2924 1.377 . S
C2938 C2937 1.373 . S
C2939 C2923 1.377 . S
C2939 C2937 1.389 . S
C2939 C2940 1.524 . S
C2940 C2939 1.524 . S
C2940 C2941 1.397 . S
C2940 C2945 1.363 . S
C2941 H2912 0.950 . S
C2941 C2940 1.397 . S
C2941 C2942 1.334 . S
C2942 H2913 0.950 . S
C2942 C2941 1.334 . S
C2942 C2943 1.287 . S
C2943 C2942 1.287 . S
C2943 C2944 1.524 . S
C2943 H2946 0.999 . S
C2944 H2914 0.950 . S
C2944 C2943 1.524 . S
C2944 C2945 1.415 . S
C2945 H2915 0.950 . S
C2945 C2940 1.363 . S
C2945 C2944 1.415 . S
H2946 C2943 0.999 . S
H2947 C2928 0.913 . S
H2948 C2966 0.951 . S
H2949 C2968 0.951 . S
H2950 C2970 0.950 . S
H2951 C2971 0.950 . S
H2952 C2973 0.950 . S
H2953 C2976 0.950 . S
H2954 C2977 0.950 . S
H2955 C2979 0.950 1_455 S
H2956 C2980 0.950 . S
H2957 C2981 0.951 . S
H2958 C2983 0.951 . S
H2959 C2985 0.950 . S
H2960 C2986 0.950 . S
H2961 C2988 0.950 . S
H2962 C2991 0.950 . S
H2963 C2992 0.950 . S
H2964 C2994 0.950 . S
H2965 C2995 0.950 . S
C2966 H2948 0.951 . S
C2966 C2967 1.366 . S
C2966 C2968 1.388 . S
C2967 C2966 1.366 . S
C2967 C2971 1.385 . S
C2968 H2949 0.951 . S
C2968 C2966 1.388 . S
C2968 C2969 1.366 . S
C2969 C2968 1.366 . S
C2969 C2970 1.414 . S
C2969 C2972 1.499 . S
C2970 H2950 0.950 . S
C2970 C2969 1.414 . S
C2970 C2971 1.374 . S
C2971 H2951 0.950 . S
C2971 C2967 1.385 . S
C2971 C2970 1.374 . S
C2972 C2969 1.499 . S
C2972 C2973 1.373 . S
C2972 C2974 1.389 . S
C2973 H2952 0.950 . S
C2973 C2972 1.373 . S
C2973 C2989 1.377 . S
C2974 C2972 1.389 . S
C2974 C2975 1.524 . S
C2974 C2988 1.377 . S
C2975 C2974 1.524 . S
C2975 C2976 1.397 . S
C2975 C2980 1.363 . S
C2976 H2953 0.950 . S
C2976 C2975 1.397 . S
C2976 C2977 1.334 . S
C2977 H2954 0.950 . S
C2977 C2976 1.334 . S
C2977 C2978 1.287 . S
C2978 C2977 1.287 . S
C2978 C2979 1.524 . S
C2978 H2997 0.913 . S
C2979 H2955 0.950 1_655 S
C2979 C2978 1.524 . S
C2979 C2980 1.415 . S
C2980 H2956 0.950 . S
C2980 C2975 1.363 . S
C2980 C2979 1.415 . S
C2981 H2957 0.951 . S
C2981 C2982 1.366 . S
C2981 C2983 1.388 1_545 S
C2982 C2981 1.366 . S
C2982 C2986 1.385 . S
C2983 H2958 0.951 . S
C2983 C2981 1.388 1_565 S
C2983 C2984 1.366 . S
C2984 C2983 1.366 . S
C2984 C2985 1.414 . S
C2984 C2987 1.499 . S
C2985 H2959 0.950 . S
C2985 C2984 1.414 . S
C2985 C2986 1.374 1_565 S
C2986 H2960 0.950 . S
C2986 C2982 1.385 . S
C2986 C2985 1.374 1_545 S
C2987 C2984 1.499 . S
C2987 C2988 1.373 . S
C2987 C2989 1.389 . S
C2988 H2961 0.950 . S
C2988 C2974 1.377 . S
C2988 C2987 1.373 . S
C2989 C2973 1.377 . S
C2989 C2987 1.389 . S
C2989 C2990 1.524 . S
C2990 C2989 1.524 . S
C2990 C2991 1.397 . S
C2990 C2995 1.363 . S
C2991 H2962 0.950 . S
C2991 C2990 1.397 . S
C2991 C2992 1.334 . S
C2992 H2963 0.950 . S
C2992 C2991 1.334 . S
C2992 C2993 1.287 . S
C2993 C2992 1.287 . S
C2993 C2994 1.524 . S
C2993 H2996 0.999 . S
C2994 H2964 0.950 . S
C2994 C2993 1.524 . S
C2994 C2995 1.415 . S
C2995 H2965 0.950 . S
C2995 C2990 1.363 . S
C2995 C2994 1.415 . S
H2996 C2993 0.999 . S
H2997 C2978 0.913 . S
H2998 C3016 0.951 . S
H2999 C3018 0.951 . S
H3000 C3020 0.950 . S
H3001 C3021 0.950 . S
H3002 C3023 0.950 . S
H3003 C3026 0.950 . S
H3004 C3027 0.950 . S
H3005 C3029 0.950 . S
H3006 C3030 0.950 . S
H3007 C3031 0.951 . S
H3008 C3033 0.951 . S
H3009 C3035 0.950 . S
H3010 C3036 0.950 . S
H3011 C3038 0.950 . S
H3012 C3041 0.950 . S
H3013 C3042 0.950 . S
H3014 C3044 0.950 . S
H3015 C3045 0.950 . S
C3016 H2998 0.951 . S
C3016 C3017 1.366 . S
C3016 C3018 1.388 1_545 S
C3017 C3016 1.366 . S
C3017 C3021 1.385 . S
C3018 H2999 0.951 . S
C3018 C3016 1.388 1_565 S
C3018 C3019 1.366 . S
C3019 C3018 1.366 . S
C3019 C3020 1.414 . S
C3019 C3022 1.499 . S
C3020 H3000 0.950 . S
C3020 C3019 1.414 . S
C3020 C3021 1.374 1_565 S
C3021 H3001 0.950 . S
C3021 C3017 1.385 . S
C3021 C3020 1.374 1_545 S
C3022 C3019 1.499 . S
C3022 C3023 1.373 . S
C3022 C3024 1.389 . S
C3023 H3002 0.950 . S
C3023 C3022 1.373 . S
C3023 C3039 1.377 . S
C3024 C3022 1.389 . S
C3024 C3025 1.524 . S
C3024 C3038 1.377 . S
C3025 C3024 1.524 . S
C3025 C3026 1.397 . S
C3025 C3030 1.363 . S
C3026 H3003 0.950 . S
C3026 C3025 1.397 . S
C3026 C3027 1.334 . S
C3027 H3004 0.950 . S
C3027 C3026 1.334 . S
C3027 C3028 1.287 . S
C3028 C3027 1.287 . S
C3028 C3029 1.524 . S
C3028 H3047 0.913 . S
C3029 H3005 0.950 . S
C3029 C3028 1.524 . S
C3029 C3030 1.415 . S
C3030 H3006 0.950 . S
C3030 C3025 1.363 . S
C3030 C3029 1.415 . S
C3031 H3007 0.951 . S
C3031 C3032 1.366 . S
C3031 C3033 1.388 . S
C3032 C3031 1.366 . S
C3032 C3036 1.385 . S
C3033 H3008 0.951 . S
C3033 C3031 1.388 . S
C3033 C3034 1.366 . S
C3034 C3033 1.366 . S
C3034 C3035 1.414 . S
C3034 C3037 1.499 . S
C3035 H3009 0.950 . S
C3035 C3034 1.414 . S
C3035 C3036 1.374 . S
C3036 H3010 0.950 . S
C3036 C3032 1.385 . S
C3036 C3035 1.374 . S
C3037 C3034 1.499 . S
C3037 C3038 1.373 . S
C3037 C3039 1.389 . S
C3038 H3011 0.950 . S
C3038 C3024 1.377 . S
C3038 C3037 1.373 . S
C3039 C3023 1.377 . S
C3039 C3037 1.389 . S
C3039 C3040 1.524 . S
C3040 C3039 1.524 . S
C3040 C3041 1.397 . S
C3040 C3045 1.363 . S
C3041 H3012 0.950 . S
C3041 C3040 1.397 . S
C3041 C3042 1.334 . S
C3042 H3013 0.950 . S
C3042 C3041 1.334 . S
C3042 C3043 1.287 . S
C3043 C3042 1.287 . S
C3043 C3044 1.524 . S
C3043 H3046 0.999 . S
C3044 H3014 0.950 . S
C3044 C3043 1.524 . S
C3044 C3045 1.415 . S
C3045 H3015 0.950 . S
C3045 C3040 1.363 . S
C3045 C3044 1.415 . S
H3046 C3043 0.999 . S
H3047 C3028 0.913 . S
H3048 C3066 0.951 . S
H3049 C3068 0.951 . S
H3050 C3070 0.950 . S
H3051 C3071 0.950 . S
H3052 C3073 0.950 . S
H3053 C3076 0.950 . S
H3054 C3077 0.950 . S
H3055 C3079 0.950 . S
H3056 C3080 0.950 . S
H3057 C3081 0.951 . S
H3058 C3083 0.951 . S
H3059 C3085 0.950 . S
H3060 C3086 0.950 . S
H3061 C3088 0.950 . S
H3062 C3091 0.950 . S
H3063 C3092 0.962 . S
H3064 C3094 0.950 . S
H3065 C3095 0.950 . S
C3066 H3048 0.951 . S
C3066 C3067 1.366 . S
C3066 C3068 1.388 . S
C3067 C3066 1.366 . S
C3067 C3071 1.385 . S
C3068 H3049 0.951 . S
C3068 C3066 1.388 . S
C3068 C3069 1.366 . S
C3069 C3068 1.366 . S
C3069 C3070 1.414 . S
C3069 C3072 1.499 . S
C3070 H3050 0.950 . S
C3070 C3069 1.414 . S
C3070 C3071 1.374 . S
C3071 H3051 0.950 . S
C3071 C3067 1.385 . S
C3071 C3070 1.374 . S
C3072 C3069 1.499 . S
C3072 C3073 1.373 . S
C3072 C3074 1.389 . S
C3073 H3052 0.950 . S
C3073 C3072 1.373 . S
C3073 C3089 1.377 . S
C3074 C3072 1.389 . S
C3074 C3075 1.524 . S
C3074 C3088 1.377 . S
C3075 C3074 1.524 . S
C3075 C3076 1.397 . S
C3075 C3080 1.363 . S
C3076 H3053 0.950 . S
C3076 C3075 1.397 . S
C3076 C3077 1.334 . S
C3077 H3054 0.950 . S
C3077 C3076 1.334 . S
C3077 C3078 1.287 . S
C3078 C3077 1.287 . S
C3078 C3079 1.524 . S
C3078 H3097 0.913 . S
C3079 H3055 0.950 . S
C3079 C3078 1.524 . S
C3079 C3080 1.415 . S
C3080 H3056 0.950 . S
C3080 C3075 1.363 . S
C3080 C3079 1.415 . S
C3081 H3057 0.951 . S
C3081 C3082 1.366 . S
C3081 C3083 1.388 . S
C3082 C3081 1.366 . S
C3082 C3086 1.385 . S
C3083 H3058 0.951 . S
C3083 C3081 1.388 . S
C3083 C3084 1.366 . S
C3084 C3083 1.366 . S
C3084 C3085 1.414 . S
C3084 C3087 1.499 . S
C3085 H3059 0.950 . S
C3085 C3084 1.414 . S
C3085 C3086 1.374 . S
C3086 H3060 0.950 . S
C3086 C3082 1.385 . S
C3086 C3085 1.374 . S
C3087 C3084 1.499 . S
C3087 C3088 1.373 . S
C3087 C3089 1.389 . S
C3088 H3061 0.950 . S
C3088 C3074 1.377 . S
C3088 C3087 1.373 . S
C3089 C3073 1.377 . S
C3089 C3087 1.389 . S
C3089 C3090 1.524 . S
C3090 C3089 1.524 . S
C3090 C3091 1.397 . S
C3090 C3095 1.363 . S
C3091 H3062 0.950 . S
C3091 C3090 1.397 . S
C3091 C3092 1.334 . S
C3092 H3063 0.962 . S
C3092 C3091 1.334 . S
C3092 C3093 1.287 . S
C3093 C3092 1.287 . S
C3093 C3094 1.524 . S
C3093 H3096 0.999 1_455 S
C3094 H3064 0.950 . S
C3094 C3093 1.524 . S
C3094 C3095 1.415 . S
C3095 H3065 0.950 . S
C3095 C3090 1.363 . S
C3095 C3094 1.415 . S
H3096 C3093 0.999 1_655 S
H3097 C3078 0.913 . S
H3098 C3116 0.951 . S
H3099 C3118 0.951 . S
H3100 C3120 0.950 . S
H3101 C3121 0.950 . S
H3102 C3123 0.950 . S
H3103 C3126 0.950 . S
H3104 C3127 0.950 . S
H3105 C3129 0.950 . S
H3106 C3130 0.950 . S
H3107 C3131 0.951 . S
H3108 C3133 0.951 . S
H3109 C3135 0.950 . S
H3110 C3136 0.950 . S
H3111 C3138 0.950 . S
H3112 C3141 0.950 . S
H3113 C3142 0.950 . S
H3114 C3144 0.950 . S
H3115 C3145 0.950 . S
C3116 H3098 0.951 . S
C3116 C3117 1.366 . S
C3116 C3118 1.388 . S
C3117 C3116 1.366 . S
C3117 C3121 1.385 . S
C3118 H3099 0.951 . S
C3118 C3116 1.388 . S
C3118 C3119 1.366 . S
C3119 C3118 1.366 . S
C3119 C3120 1.414 . S
C3119 C3122 1.499 . S
C3120 H3100 0.950 . S
C3120 C3119 1.414 . S
C3120 C3121 1.374 . S
C3121 H3101 0.950 . S
C3121 C3117 1.385 . S
C3121 C3120 1.374 . S
C3122 C3119 1.499 . S
C3122 C3123 1.373 . S
C3122 C3124 1.389 . S
C3123 H3102 0.950 . S
C3123 C3122 1.373 . S
C3123 C3139 1.377 . S
C3124 C3122 1.389 . S
C3124 C3125 1.524 . S
C3124 C3138 1.377 . S
C3125 C3124 1.524 . S
C3125 C3126 1.397 . S
C3125 C3130 1.363 . S
C3126 H3103 0.950 . S
C3126 C3125 1.397 . S
C3126 C3127 1.334 . S
C3127 H3104 0.950 . S
C3127 C3126 1.334 . S
C3127 C3128 1.287 . S
C3128 C3127 1.287 . S
C3128 C3129 1.524 . S
C3128 H3147 0.913 . S
C3129 H3105 0.950 . S
C3129 C3128 1.524 . S
C3129 C3130 1.415 . S
C3130 H3106 0.950 . S
C3130 C3125 1.363 . S
C3130 C3129 1.415 . S
C3131 H3107 0.951 . S
C3131 C3132 1.366 . S
C3131 C3133 1.388 . S
C3132 C3131 1.366 . S
C3132 C3136 1.385 . S
C3133 H3108 0.951 . S
C3133 C3131 1.388 . S
C3133 C3134 1.366 . S
C3134 C3133 1.366 . S
C3134 C3135 1.414 . S
C3134 C3137 1.499 . S
C3135 H3109 0.950 . S
C3135 C3134 1.414 . S
C3135 C3136 1.374 . S
C3136 H3110 0.950 . S
C3136 C3132 1.385 . S
C3136 C3135 1.374 . S
C3137 C3134 1.499 . S
C3137 C3138 1.373 . S
C3137 C3139 1.389 . S
C3138 H3111 0.950 . S
C3138 C3124 1.377 . S
C3138 C3137 1.373 . S
C3139 C3123 1.377 . S
C3139 C3137 1.389 . S
C3139 C3140 1.524 . S
C3140 C3139 1.524 . S
C3140 C3141 1.397 . S
C3140 C3145 1.363 . S
C3141 H3112 0.950 . S
C3141 C3140 1.397 . S
C3141 C3142 1.334 . S
C3142 H3113 0.950 . S
C3142 C3141 1.334 . S
C3142 C3143 1.287 . S
C3143 C3142 1.287 . S
C3143 C3144 1.524 . S
C3143 H3146 0.999 . S
C3144 H3114 0.950 . S
C3144 C3143 1.524 . S
C3144 C3145 1.415 . S
C3145 H3115 0.950 . S
C3145 C3140 1.363 . S
C3145 C3144 1.415 . S
H3146 C3143 0.999 . S
H3147 C3128 0.913 . S
H3148 C3166 0.951 . S
H3149 C3168 0.951 . S
H3150 C3170 0.950 . S
H3151 C3171 0.950 . S
H3152 C3173 0.950 . S
H3153 C3176 0.950 . S
H3154 C3177 0.950 . S
H3155 C3179 0.950 . S
H3156 C3180 0.950 . S
H3157 C3181 0.951 . S
H3158 C3183 0.951 . S
H3159 C3185 0.950 . S
H3160 C3186 0.950 . S
H3161 C3188 0.950 . S
H3162 C3191 0.950 . S
H3163 C3192 0.950 . S
H3164 C3194 0.950 . S
H3165 C3195 0.950 . S
C3166 H3148 0.951 . S
C3166 C3167 1.366 . S
C3166 C3168 1.388 . S
C3167 C3166 1.366 . S
C3167 C3171 1.385 . S
C3168 H3149 0.951 . S
C3168 C3166 1.388 . S
C3168 C3169 1.366 . S
C3169 C3168 1.366 . S
C3169 C3170 1.414 . S
C3169 C3172 1.499 . S
C3170 H3150 0.950 . S
C3170 C3169 1.414 . S
C3170 C3171 1.374 . S
C3171 H3151 0.950 . S
C3171 C3167 1.385 . S
C3171 C3170 1.374 . S
C3172 C3169 1.499 . S
C3172 C3173 1.373 . S
C3172 C3174 1.389 . S
C3173 H3152 0.950 . S
C3173 C3172 1.373 . S
C3173 C3189 1.377 . S
C3174 C3172 1.389 . S
C3174 C3175 1.524 . S
C3174 C3188 1.377 . S
C3175 C3174 1.524 . S
C3175 C3176 1.397 . S
C3175 C3180 1.363 . S
C3176 H3153 0.950 . S
C3176 C3175 1.397 . S
C3176 C3177 1.334 . S
C3177 H3154 0.950 . S
C3177 C3176 1.334 . S
C3177 C3178 1.287 . S
C3178 C3177 1.287 . S
C3178 C3179 1.524 . S
C3178 H3197 0.913 . S
C3179 H3155 0.950 . S
C3179 C3178 1.524 . S
C3179 C3180 1.415 . S
C3180 H3156 0.950 . S
C3180 C3175 1.363 . S
C3180 C3179 1.415 . S
C3181 H3157 0.951 . S
C3181 C3182 1.366 . S
C3181 C3183 1.388 . S
C3182 C3181 1.366 . S
C3182 C3186 1.385 . S
C3183 H3158 0.951 . S
C3183 C3181 1.388 . S
C3183 C3184 1.366 . S
C3184 C3183 1.366 . S
C3184 C3185 1.414 . S
C3184 C3187 1.499 . S
C3185 H3159 0.950 . S
C3185 C3184 1.414 . S
C3185 C3186 1.374 . S
C3186 H3160 0.950 . S
C3186 C3182 1.385 . S
C3186 C3185 1.374 . S
C3187 C3184 1.499 . S
C3187 C3188 1.373 . S
C3187 C3189 1.389 . S
C3188 H3161 0.950 . S
C3188 C3174 1.377 . S
C3188 C3187 1.373 . S
C3189 C3173 1.377 . S
C3189 C3187 1.389 . S
C3189 C3190 1.524 . S
C3190 C3189 1.524 . S
C3190 C3191 1.397 . S
C3190 C3195 1.363 . S
C3191 H3162 0.950 . S
C3191 C3190 1.397 . S
C3191 C3192 1.334 . S
C3192 H3163 0.950 . S
C3192 C3191 1.334 . S
C3192 C3193 1.287 . S
C3193 C3192 1.287 . S
C3193 C3194 1.524 . S
C3193 H3196 0.999 . S
C3194 H3164 0.950 . S
C3194 C3193 1.524 . S
C3194 C3195 1.415 . S
C3195 H3165 0.950 . S
C3195 C3190 1.363 . S
C3195 C3194 1.415 . S
H3196 C3193 0.999 . S
H3197 C3178 0.913 . S
H3198 C3216 0.951 . S
H3199 C3218 0.951 . S
H3200 C3220 0.950 . S
H3201 C3221 0.950 . S
H3202 C3223 0.950 . S
H3203 C3226 0.950 . S
H3204 C3227 0.950 . S
H3205 C3229 0.950 . S
H3206 C3230 0.950 . S
H3207 C3231 0.951 . S
H3208 C3233 0.951 . S
H3209 C3235 0.950 . S
H3210 C3236 0.950 . S
H3211 C3238 0.950 . S
H3212 C3241 0.950 . S
H3213 C3242 0.950 . S
H3214 C3244 0.950 . S
H3215 C3245 0.950 . S
C3216 H3198 0.951 . S
C3216 C3217 1.366 . S
C3216 C3218 1.388 . S
C3217 C3216 1.366 . S
C3217 C3221 1.385 . S
C3218 H3199 0.951 . S
C3218 C3216 1.388 . S
C3218 C3219 1.366 . S
C3219 C3218 1.366 . S
C3219 C3220 1.414 . S
C3219 C3222 1.499 . S
C3220 H3200 0.950 . S
C3220 C3219 1.414 . S
C3220 C3221 1.374 . S
C3221 H3201 0.950 . S
C3221 C3217 1.385 . S
C3221 C3220 1.374 . S
C3222 C3219 1.499 . S
C3222 C3223 1.373 . S
C3222 C3224 1.389 . S
C3223 H3202 0.950 . S
C3223 C3222 1.373 . S
C3223 C3239 1.377 . S
C3224 C3222 1.389 . S
C3224 C3225 1.524 . S
C3224 C3238 1.377 . S
C3225 C3224 1.524 . S
C3225 C3226 1.397 . S
C3225 C3230 1.363 . S
C3226 H3203 0.950 . S
C3226 C3225 1.397 . S
C3226 C3227 1.334 . S
C3227 H3204 0.950 . S
C3227 C3226 1.334 . S
C3227 C3228 1.287 . S
C3228 C3227 1.287 . S
C3228 C3229 1.524 . S
C3228 H3247 0.913 . S
C3229 H3205 0.950 . S
C3229 C3228 1.524 . S
C3229 C3230 1.415 . S
C3230 H3206 0.950 . S
C3230 C3225 1.363 . S
C3230 C3229 1.415 . S
C3231 H3207 0.951 . S
C3231 C3232 1.366 . S
C3231 C3233 1.388 . S
C3232 C3231 1.366 . S
C3232 C3236 1.385 . S
C3233 H3208 0.951 . S
C3233 C3231 1.388 . S
C3233 C3234 1.366 . S
C3234 C3233 1.366 . S
C3234 C3235 1.414 . S
C3234 C3237 1.499 . S
C3235 H3209 0.950 . S
C3235 C3234 1.414 . S
C3235 C3236 1.374 . S
C3236 H3210 0.950 . S
C3236 C3232 1.385 . S
C3236 C3235 1.374 . S
C3237 C3234 1.499 . S
C3237 C3238 1.373 . S
C3237 C3239 1.389 . S
C3238 H3211 0.950 . S
C3238 C3224 1.377 . S
C3238 C3237 1.373 . S
C3239 C3223 1.377 . S
C3239 C3237 1.389 . S
C3239 C3240 1.524 . S
C3240 C3239 1.524 . S
C3240 C3241 1.397 . S
C3240 C3245 1.363 . S
C3241 H3212 0.950 . S
C3241 C3240 1.397 . S
C3241 C3242 1.334 . S
C3242 H3213 0.950 . S
C3242 C3241 1.334 . S
C3242 C3243 1.287 . S
C3243 C3242 1.287 . S
C3243 C3244 1.524 . S
C3243 H3246 0.999 . S
C3244 H3214 0.950 . S
C3244 C3243 1.524 . S
C3244 C3245 1.415 . S
C3245 H3215 0.950 . S
C3245 C3240 1.363 . S
C3245 C3244 1.415 . S
H3246 C3243 0.999 . S
H3247 C3228 0.913 . S
H3248 C3266 0.951 . S
H3249 C3268 0.951 . S
H3250 C3270 0.950 . S
H3251 C3271 0.950 . S
H3252 C3273 0.950 . S
H3253 C3276 0.950 . S
H3254 C3277 0.950 . S
H3255 C3279 0.950 . S
H3256 C3280 0.950 . S
H3257 C3281 0.951 . S
H3258 C3283 0.951 . S
H3259 C3285 0.950 . S
H3260 C3286 0.950 . S
H3261 C3288 0.950 . S
H3262 C3291 0.950 . S
H3263 C3292 0.950 . S
H3264 C3294 0.950 . S
H3265 C3295 0.950 . S
C3266 H3248 0.951 . S
C3266 C3267 1.366 . S
C3266 C3268 1.388 1_565 S
C3267 C3266 1.366 . S
C3267 C3271 1.385 . S
C3268 H3249 0.951 . S
C3268 C3266 1.388 1_545 S
C3268 C3269 1.366 . S
C3269 C3268 1.366 . S
C3269 C3270 1.414 . S
C3269 C3272 1.499 . S
C3270 H3250 0.950 . S
C3270 C3269 1.414 . S
C3270 C3271 1.374 1_545 S
C3271 H3251 0.950 . S
C3271 C3267 1.385 . S
C3271 C3270 1.374 1_565 S
C3272 C3269 1.499 . S
C3272 C3273 1.373 . S
C3272 C3274 1.389 . S
C3273 H3252 0.950 . S
C3273 C3272 1.373 . S
C3273 C3289 1.377 . S
C3274 C3272 1.389 . S
C3274 C3275 1.524 . S
C3274 C3288 1.377 . S
C3275 C3274 1.524 . S
C3275 C3276 1.397 . S
C3275 C3280 1.363 . S
C3276 H3253 0.950 . S
C3276 C3275 1.397 . S
C3276 C3277 1.334 . S
C3277 H3254 0.950 . S
C3277 C3276 1.334 . S
C3277 C3278 1.287 . S
C3278 C3277 1.287 . S
C3278 C3279 1.524 . S
C3278 H3297 0.913 . S
C3279 H3255 0.950 . S
C3279 C3278 1.524 . S
C3279 C3280 1.415 . S
C3280 H3256 0.950 . S
C3280 C3275 1.363 . S
C3280 C3279 1.415 . S
C3281 H3257 0.951 . S
C3281 C3282 1.366 . S
C3281 C3283 1.388 . S
C3282 C3281 1.366 . S
C3282 C3286 1.385 . S
C3283 H3258 0.951 . S
C3283 C3281 1.388 . S
C3283 C3284 1.366 . S
C3284 C3283 1.366 . S
C3284 C3285 1.414 . S
C3284 C3287 1.499 . S
C3285 H3259 0.950 . S
C3285 C3284 1.414 . S
C3285 C3286 1.374 . S
C3286 H3260 0.950 . S
C3286 C3282 1.385 . S
C3286 C3285 1.374 . S
C3287 C3284 1.499 . S
C3287 C3288 1.373 . S
C3287 C3289 1.389 . S
C3288 H3261 0.950 . S
C3288 C3274 1.377 . S
C3288 C3287 1.373 . S
C3289 C3273 1.377 . S
C3289 C3287 1.389 . S
C3289 C3290 1.524 . S
C3290 C3289 1.524 . S
C3290 C3291 1.397 . S
C3290 C3295 1.363 . S
C3291 H3262 0.950 . S
C3291 C3290 1.397 . S
C3291 C3292 1.334 . S
C3292 H3263 0.950 . S
C3292 C3291 1.334 . S
C3292 C3293 1.287 . S
C3293 C3292 1.287 . S
C3293 C3294 1.524 . S
C3293 H3296 0.999 . S
C3294 H3264 0.950 . S
C3294 C3293 1.524 . S
C3294 C3295 1.415 . S
C3295 H3265 0.950 . S
C3295 C3290 1.363 . S
C3295 C3294 1.415 . S
H3296 C3293 0.999 . S
H3297 C3278 0.913 . S
H3298 C3316 0.951 . S
H3299 C3318 0.951 . S
H3300 C3320 0.950 . S
H3301 C3321 0.950 . S
H3302 C3323 0.950 . S
H3303 C3326 0.950 . S
H3304 C3327 0.950 . S
H3305 C3329 0.950 . S
H3306 C3330 0.950 . S
H3307 C3331 0.951 . S
H3308 C3333 0.951 . S
H3309 C3335 0.950 . S
H3310 C3336 0.950 . S
H3311 C3338 0.950 . S
H3312 C3341 0.950 . S
H3313 C3342 0.950 . S
H3314 C3344 0.950 . S
H3315 C3345 0.950 . S
C3316 H3298 0.951 . S
C3316 C3317 1.366 . S
C3316 C3318 1.388 . S
C3317 C3316 1.366 . S
C3317 C3321 1.385 . S
C3318 H3299 0.951 . S
C3318 C3316 1.388 . S
C3318 C3319 1.366 . S
C3319 C3318 1.366 . S
C3319 C3320 1.414 . S
C3319 C3322 1.499 . S
C3320 H3300 0.950 . S
C3320 C3319 1.414 . S
C3320 C3321 1.374 . S
C3321 H3301 0.950 . S
C3321 C3317 1.385 . S
C3321 C3320 1.374 . S
C3322 C3319 1.499 . S
C3322 C3323 1.373 . S
C3322 C3324 1.389 . S
C3323 H3302 0.950 . S
C3323 C3322 1.373 . S
C3323 C3339 1.377 . S
C3324 C3322 1.389 . S
C3324 C3325 1.524 . S
C3324 C3338 1.377 . S
C3325 C3324 1.524 . S
C3325 C3326 1.397 . S
C3325 C3330 1.363 . S
C3326 H3303 0.950 . S
C3326 C3325 1.397 . S
C3326 C3327 1.334 . S
C3327 H3304 0.950 . S
C3327 C3326 1.334 . S
C3327 C3328 1.287 . S
C3328 C3327 1.287 . S
C3328 C3329 1.524 . S
C3328 H3347 0.913 . S
C3329 H3305 0.950 . S
C3329 C3328 1.524 . S
C3329 C3330 1.415 . S
C3330 H3306 0.950 . S
C3330 C3325 1.363 . S
C3330 C3329 1.415 . S
C3331 H3307 0.951 . S
C3331 C3332 1.366 . S
C3331 C3333 1.388 1_565 S
C3332 C3331 1.366 . S
C3332 C3336 1.385 . S
C3333 H3308 0.951 . S
C3333 C3331 1.388 1_545 S
C3333 C3334 1.366 . S
C3334 C3333 1.366 . S
C3334 C3335 1.414 . S
C3334 C3337 1.499 . S
C3335 H3309 0.950 . S
C3335 C3334 1.414 . S
C3335 C3336 1.374 1_545 S
C3336 H3310 0.950 . S
C3336 C3332 1.385 . S
C3336 C3335 1.374 1_565 S
C3337 C3334 1.499 . S
C3337 C3338 1.373 . S
C3337 C3339 1.389 . S
C3338 H3311 0.950 . S
C3338 C3324 1.377 . S
C3338 C3337 1.373 . S
C3339 C3323 1.377 . S
C3339 C3337 1.389 . S
C3339 C3340 1.524 . S
C3340 C3339 1.524 . S
C3340 C3341 1.397 . S
C3340 C3345 1.363 . S
C3341 H3312 0.950 . S
C3341 C3340 1.397 . S
C3341 C3342 1.334 . S
C3342 H3313 0.950 . S
C3342 C3341 1.334 . S
C3342 C3343 1.287 . S
C3343 C3342 1.287 . S
C3343 C3344 1.524 . S
C3343 H3346 0.999 . S
C3344 H3314 0.950 . S
C3344 C3343 1.524 . S
C3344 C3345 1.415 . S
C3345 H3315 0.950 . S
C3345 C3340 1.363 . S
C3345 C3344 1.415 . S
H3346 C3343 0.999 . S
H3347 C3328 0.913 . S
H3348 C3366 0.951 . S
H3349 C3368 0.951 . S
H3350 C3370 0.950 . S
H3351 C3371 0.950 . S
H3352 C3373 0.950 . S
H3353 C3376 0.950 . S
H3354 C3377 0.950 . S
H3355 C3379 0.950 . S
H3356 C3380 0.950 . S
H3357 C3381 0.951 . S
H3358 C3383 0.951 . S
H3359 C3385 0.950 . S
H3360 C3386 0.950 . S
H3361 C3388 0.950 . S
H3362 C3391 0.950 . S
H3363 C3392 0.950 . S
H3364 C3394 0.950 . S
H3365 C3395 0.950 . S
C3366 H3348 0.951 . S
C3366 C3367 1.366 . S
C3366 C3368 1.388 . S
C3367 C3366 1.366 . S
C3367 C3371 1.385 . S
C3368 H3349 0.951 . S
C3368 C3366 1.388 . S
C3368 C3369 1.366 . S
C3369 C3368 1.366 . S
C3369 C3370 1.414 . S
C3369 C3372 1.499 . S
C3370 H3350 0.950 . S
C3370 C3369 1.414 . S
C3370 C3371 1.374 . S
C3371 H3351 0.950 . S
C3371 C3367 1.385 . S
C3371 C3370 1.374 . S
C3372 C3369 1.499 . S
C3372 C3373 1.373 . S
C3372 C3374 1.389 . S
C3373 H3352 0.950 . S
C3373 C3372 1.373 . S
C3373 C3389 1.377 . S
C3374 C3372 1.389 . S
C3374 C3375 1.524 . S
C3374 C3388 1.377 . S
C3375 C3374 1.524 . S
C3375 C3376 1.397 . S
C3375 C3380 1.363 . S
C3376 H3353 0.950 . S
C3376 C3375 1.397 . S
C3376 C3377 1.334 . S
C3377 H3354 0.950 . S
C3377 C3376 1.334 . S
C3377 C3378 1.287 . S
C3378 C3377 1.287 . S
C3378 C3379 1.524 . S
C3378 H3397 0.913 . S
C3379 H3355 0.950 . S
C3379 C3378 1.524 . S
C3379 C3380 1.415 . S
C3380 H3356 0.950 . S
C3380 C3375 1.363 . S
C3380 C3379 1.415 . S
C3381 H3357 0.951 . S
C3381 C3382 1.366 . S
C3381 C3383 1.388 1_545 S
C3382 C3381 1.366 . S
C3382 C3386 1.385 . S
C3383 H3358 0.951 . S
C3383 C3381 1.388 1_565 S
C3383 C3384 1.366 . S
C3384 C3383 1.366 . S
C3384 C3385 1.414 . S
C3384 C3387 1.499 . S
C3385 H3359 0.950 . S
C3385 C3384 1.414 . S
C3385 C3386 1.374 1_565 S
C3386 H3360 0.950 . S
C3386 C3382 1.385 . S
C3386 C3385 1.374 1_545 S
C3387 C3384 1.499 . S
C3387 C3388 1.373 . S
C3387 C3389 1.389 . S
C3388 H3361 0.950 . S
C3388 C3374 1.377 . S
C3388 C3387 1.373 . S
C3389 C3373 1.377 . S
C3389 C3387 1.389 . S
C3389 C3390 1.524 . S
C3390 C3389 1.524 . S
C3390 C3391 1.397 . S
C3390 C3395 1.363 . S
C3391 H3362 0.950 . S
C3391 C3390 1.397 . S
C3391 C3392 1.334 . S
C3392 H3363 0.950 . S
C3392 C3391 1.334 . S
C3392 C3393 1.287 . S
C3393 C3392 1.287 . S
C3393 C3394 1.524 . S
C3393 H3396 0.999 . S
C3394 H3364 0.950 . S
C3394 C3393 1.524 . S
C3394 C3395 1.415 . S
C3395 H3365 0.950 . S
C3395 C3390 1.363 . S
C3395 C3394 1.415 . S
H3396 C3393 0.999 . S
H3397 C3378 0.913 . S
H3398 C3416 0.951 . S
H3399 C3418 0.951 . S
H3400 C3420 0.950 . S
H3401 C3421 0.950 . S
H3402 C3423 0.950 . S
H3403 C3426 0.950 . S
H3404 C3427 0.950 . S
H3405 C3429 0.950 . S
H3406 C3430 0.950 . S
H3407 C3431 0.951 . S
H3408 C3433 0.951 . S
H3409 C3435 0.950 . S
H3410 C3436 0.950 . S
H3411 C3438 0.950 . S
H3412 C3441 0.950 . S
H3413 C3442 0.950 . S
H3414 C3444 0.950 . S
H3415 C3445 0.950 . S
C3416 H3398 0.951 . S
C3416 C3417 1.366 . S
C3416 C3418 1.388 . S
C3417 C3416 1.366 . S
C3417 C3421 1.385 . S
C3418 H3399 0.951 . S
C3418 C3416 1.388 . S
C3418 C3419 1.366 . S
C3419 C3418 1.366 . S
C3419 C3420 1.414 . S
C3419 C3422 1.499 . S
C3420 H3400 0.950 . S
C3420 C3419 1.414 . S
C3420 C3421 1.374 . S
C3421 H3401 0.950 . S
C3421 C3417 1.385 . S
C3421 C3420 1.374 . S
C3422 C3419 1.499 . S
C3422 C3423 1.373 . S
C3422 C3424 1.389 . S
C3423 H3402 0.950 . S
C3423 C3422 1.373 . S
C3423 C3439 1.377 . S
C3424 C3422 1.389 . S
C3424 C3425 1.524 . S
C3424 C3438 1.377 . S
C3425 C3424 1.524 . S
C3425 C3426 1.397 . S
C3425 C3430 1.363 . S
C3426 H3403 0.950 . S
C3426 C3425 1.397 . S
C3426 C3427 1.334 . S
C3427 H3404 0.950 . S
C3427 C3426 1.334 . S
C3427 C3428 1.287 . S
C3428 C3427 1.287 . S
C3428 C3429 1.524 . S
C3428 H3447 0.913 . S
C3429 H3405 0.950 . S
C3429 C3428 1.524 . S
C3429 C3430 1.415 . S
C3430 H3406 0.950 . S
C3430 C3425 1.363 . S
C3430 C3429 1.415 . S
C3431 H3407 0.951 . S
C3431 C3432 1.366 . S
C3431 C3433 1.388 1_545 S
C3432 C3431 1.366 . S
C3432 C3436 1.385 . S
C3433 H3408 0.951 . S
C3433 C3431 1.388 1_565 S
C3433 C3434 1.366 . S
C3434 C3433 1.366 . S
C3434 C3435 1.414 . S
C3434 C3437 1.499 . S
C3435 H3409 0.950 . S
C3435 C3434 1.414 . S
C3435 C3436 1.374 1_565 S
C3436 H3410 0.950 . S
C3436 C3432 1.385 . S
C3436 C3435 1.374 1_545 S
C3437 C3434 1.499 . S
C3437 C3438 1.373 . S
C3437 C3439 1.389 . S
C3438 H3411 0.950 . S
C3438 C3424 1.377 . S
C3438 C3437 1.373 . S
C3439 C3423 1.377 . S
C3439 C3437 1.389 . S
C3439 C3440 1.524 . S
C3440 C3439 1.524 . S
C3440 C3441 1.397 . S
C3440 C3445 1.363 . S
C3441 H3412 0.950 . S
C3441 C3440 1.397 . S
C3441 C3442 1.334 . S
C3442 H3413 0.950 . S
C3442 C3441 1.334 . S
C3442 C3443 1.287 . S
C3443 C3442 1.287 . S
C3443 C3444 1.524 . S
C3443 H3446 0.999 . S
C3444 H3414 0.950 . S
C3444 C3443 1.524 . S
C3444 C3445 1.415 . S
C3445 H3415 0.950 . S
C3445 C3440 1.363 . S
C3445 C3444 1.415 . S
H3446 C3443 0.999 . S
H3447 C3428 0.913 . S
H3448 C3466 0.951 . S
H3449 C3468 0.951 . S
H3450 C3470 0.950 . S
H3451 C3471 0.950 . S
H3452 C3473 0.950 . S
H3453 C3476 0.950 . S
H3454 C3477 0.950 . S
H3455 C3479 0.950 . S
H3456 C3480 0.950 . S
H3457 C3481 0.951 . S
H3458 C3483 0.951 . S
H3459 C3485 0.950 . S
H3460 C3486 0.950 . S
H3461 C3488 0.950 . S
H3462 C3491 0.950 . S
H3463 C3492 0.950 . S
H3464 C3494 0.950 . S
H3465 C3495 0.950 . S
C3466 H3448 0.951 . S
C3466 C3467 1.366 . S
C3466 C3468 1.388 . S
C3467 C3466 1.366 . S
C3467 C3471 1.385 . S
C3468 H3449 0.951 . S
C3468 C3466 1.388 . S
C3468 C3469 1.366 . S
C3469 C3468 1.366 . S
C3469 C3470 1.414 . S
C3469 C3472 1.499 . S
C3470 H3450 0.950 . S
C3470 C3469 1.414 . S
C3470 C3471 1.374 . S
C3471 H3451 0.950 . S
C3471 C3467 1.385 . S
C3471 C3470 1.374 . S
C3472 C3469 1.499 . S
C3472 C3473 1.373 . S
C3472 C3474 1.389 . S
C3473 H3452 0.950 . S
C3473 C3472 1.373 . S
C3473 C3489 1.377 . S
C3474 C3472 1.389 . S
C3474 C3475 1.524 . S
C3474 C3488 1.377 . S
C3475 C3474 1.524 . S
C3475 C3476 1.397 . S
C3475 C3480 1.363 . S
C3476 H3453 0.950 . S
C3476 C3475 1.397 . S
C3476 C3477 1.334 . S
C3477 H3454 0.950 . S
C3477 C3476 1.334 . S
C3477 C3478 1.287 . S
C3478 C3477 1.287 . S
C3478 C3479 1.524 . S
C3478 H3497 0.913 . S
C3479 H3455 0.950 . S
C3479 C3478 1.524 . S
C3479 C3480 1.415 . S
C3480 H3456 0.950 . S
C3480 C3475 1.363 . S
C3480 C3479 1.415 . S
C3481 H3457 0.951 . S
C3481 C3482 1.366 . S
C3481 C3483 1.388 . S
C3482 C3481 1.366 . S
C3482 C3486 1.385 . S
C3483 H3458 0.951 . S
C3483 C3481 1.388 . S
C3483 C3484 1.366 . S
C3484 C3483 1.366 . S
C3484 C3485 1.414 . S
C3484 C3487 1.499 . S
C3485 H3459 0.950 . S
C3485 C3484 1.414 . S
C3485 C3486 1.374 . S
C3486 H3460 0.950 . S
C3486 C3482 1.385 . S
C3486 C3485 1.374 . S
C3487 C3484 1.499 . S
C3487 C3488 1.373 . S
C3487 C3489 1.389 . S
C3488 H3461 0.950 . S
C3488 C3474 1.377 . S
C3488 C3487 1.373 . S
C3489 C3473 1.377 . S
C3489 C3487 1.389 . S
C3489 C3490 1.524 . S
C3490 C3489 1.524 . S
C3490 C3491 1.397 . S
C3490 C3495 1.363 . S
C3491 H3462 0.950 . S
C3491 C3490 1.397 . S
C3491 C3492 1.334 . S
C3492 H3463 0.950 . S
C3492 C3491 1.334 . S
C3492 C3493 1.287 . S
C3493 C3492 1.287 . S
C3493 C3494 1.524 . S
C3493 H3496 0.999 . S
C3494 H3464 0.950 . S
C3494 C3493 1.524 . S
C3494 C3495 1.415 . S
C3495 H3465 0.950 . S
C3495 C3490 1.363 . S
C3495 C3494 1.415 . S
H3496 C3493 0.999 . S
H3497 C3478 0.913 . S
H3498 C3516 0.951 . S
H3499 C3518 0.951 . S
H3500 C3520 0.950 . S
H3501 C3521 0.950 . S
H3502 C3523 0.950 . S
H3503 C3526 0.950 . S
H3504 C3527 0.950 . S
H3505 C3529 0.950 . S
H3506 C3530 0.950 . S
H3507 C3531 0.951 . S
H3508 C3533 0.951 . S
H3509 C3535 0.950 . S
H3510 C3536 0.950 . S
H3511 C3538 0.950 . S
H3512 C3541 0.950 . S
H3513 C3542 0.950 . S
H3514 C3544 0.950 . S
H3515 C3545 0.950 . S
C3516 H3498 0.951 . S
C3516 C3517 1.366 . S
C3516 C3518 1.388 . S
C3517 C3516 1.366 . S
C3517 C3521 1.385 . S
C3518 H3499 0.951 . S
C3518 C3516 1.388 . S
C3518 C3519 1.366 . S
C3519 C3518 1.366 . S
C3519 C3520 1.414 . S
C3519 C3522 1.499 . S
C3520 H3500 0.950 . S
C3520 C3519 1.414 . S
C3520 C3521 1.374 . S
C3521 H3501 0.950 . S
C3521 C3517 1.385 . S
C3521 C3520 1.374 . S
C3522 C3519 1.499 . S
C3522 C3523 1.373 . S
C3522 C3524 1.389 . S
C3523 H3502 0.950 . S
C3523 C3522 1.373 . S
C3523 C3539 1.377 . S
C3524 C3522 1.389 . S
C3524 C3525 1.524 . S
C3524 C3538 1.377 . S
C3525 C3524 1.524 . S
C3525 C3526 1.397 . S
C3525 C3530 1.363 . S
C3526 H3503 0.950 . S
C3526 C3525 1.397 . S
C3526 C3527 1.334 . S
C3527 H3504 0.950 . S
C3527 C3526 1.334 . S
C3527 C3528 1.287 . S
C3528 C3527 1.287 . S
C3528 C3529 1.524 . S
C3528 H3547 0.913 . S
C3529 H3505 0.950 . S
C3529 C3528 1.524 . S
C3529 C3530 1.415 . S
C3530 H3506 0.950 . S
C3530 C3525 1.363 . S
C3530 C3529 1.415 . S
C3531 H3507 0.951 . S
C3531 C3532 1.366 . S
C3531 C3533 1.388 . S
C3532 C3531 1.366 . S
C3532 C3536 1.385 . S
C3533 H3508 0.951 . S
C3533 C3531 1.388 . S
C3533 C3534 1.366 . S
C3534 C3533 1.366 . S
C3534 C3535 1.414 . S
C3534 C3537 1.499 . S
C3535 H3509 0.950 . S
C3535 C3534 1.414 . S
C3535 C3536 1.374 . S
C3536 H3510 0.950 . S
C3536 C3532 1.385 . S
C3536 C3535 1.374 . S
C3537 C3534 1.499 . S
C3537 C3538 1.373 . S
C3537 C3539 1.389 . S
C3538 H3511 0.950 . S
C3538 C3524 1.377 . S
C3538 C3537 1.373 . S
C3539 C3523 1.377 . S
C3539 C3537 1.389 . S
C3539 C3540 1.524 . S
C3540 C3539 1.524 . S
C3540 C3541 1.397 . S
C3540 C3545 1.363 . S
C3541 H3512 0.950 . S
C3541 C3540 1.397 . S
C3541 C3542 1.334 . S
C3542 H3513 0.950 . S
C3542 C3541 1.334 . S
C3542 C3543 1.287 . S
C3543 C3542 1.287 . S
C3543 C3544 1.524 . S
C3543 H3546 0.999 . S
C3544 H3514 0.950 . S
C3544 C3543 1.524 . S
C3544 C3545 1.415 . S
C3545 H3515 0.950 . S
C3545 C3540 1.363 . S
C3545 C3544 1.415 . S
H3546 C3543 0.999 . S
H3547 C3528 0.913 . S
H3548 C3566 0.951 . S
H3549 C3568 0.951 . S
H3550 C3570 0.950 . S
H3551 C3571 0.950 . S
H3552 C3573 0.950 . S
H3553 C3576 0.950 . S
H3554 C3577 0.950 . S
H3555 C3579 0.950 . S
H3556 C3580 0.950 . S
H3557 C3581 0.951 . S
H3558 C3583 0.951 . S
H3559 C3585 0.950 . S
H3560 C3586 0.950 . S
H3561 C3588 0.950 . S
H3562 C3591 0.950 . S
H3563 C3592 0.950 . S
H3564 C3594 0.950 . S
H3565 C3595 0.950 . S
C3566 H3548 0.951 . S
C3566 C3567 1.366 . S
C3566 C3568 1.388 . S
C3567 C3566 1.366 . S
C3567 C3571 1.385 . S
C3568 H3549 0.951 . S
C3568 C3566 1.388 . S
C3568 C3569 1.366 . S
C3569 C3568 1.366 . S
C3569 C3570 1.414 . S
C3569 C3572 1.499 . S
C3570 H3550 0.950 . S
C3570 C3569 1.414 . S
C3570 C3571 1.374 . S
C3571 H3551 0.950 . S
C3571 C3567 1.385 . S
C3571 C3570 1.374 . S
C3572 C3569 1.499 . S
C3572 C3573 1.373 . S
C3572 C3574 1.389 . S
C3573 H3552 0.950 . S
C3573 C3572 1.373 . S
C3573 C3589 1.377 . S
C3574 C3572 1.389 . S
C3574 C3575 1.524 . S
C3574 C3588 1.377 . S
C3575 C3574 1.524 . S
C3575 C3576 1.397 . S
C3575 C3580 1.363 . S
C3576 H3553 0.950 . S
C3576 C3575 1.397 . S
C3576 C3577 1.334 . S
C3577 H3554 0.950 . S
C3577 C3576 1.334 . S
C3577 C3578 1.287 . S
C3578 C3577 1.287 . S
C3578 C3579 1.524 . S
C3578 H3597 0.913 . S
C3579 H3555 0.950 . S
C3579 C3578 1.524 . S
C3579 C3580 1.415 . S
C3580 H3556 0.950 . S
C3580 C3575 1.363 . S
C3580 C3579 1.415 . S
C3581 H3557 0.951 . S
C3581 C3582 1.366 . S
C3581 C3583 1.388 . S
C3582 C3581 1.366 . S
C3582 C3586 1.385 . S
C3583 H3558 0.951 . S
C3583 C3581 1.388 . S
C3583 C3584 1.366 . S
C3584 C3583 1.366 . S
C3584 C3585 1.414 . S
C3584 C3587 1.499 . S
C3585 H3559 0.950 . S
C3585 C3584 1.414 . S
C3585 C3586 1.374 . S
C3586 H3560 0.950 . S
C3586 C3582 1.385 . S
C3586 C3585 1.374 . S
C3587 C3584 1.499 . S
C3587 C3588 1.373 . S
C3587 C3589 1.389 . S
C3588 H3561 0.950 . S
C3588 C3574 1.377 . S
C3588 C3587 1.373 . S
C3589 C3573 1.377 . S
C3589 C3587 1.389 . S
C3589 C3590 1.524 . S
C3590 C3589 1.524 . S
C3590 C3591 1.397 . S
C3590 C3595 1.363 . S
C3591 H3562 0.950 . S
C3591 C3590 1.397 . S
C3591 C3592 1.334 . S
C3592 H3563 0.950 . S
C3592 C3591 1.334 . S
C3592 C3593 1.287 . S
C3593 C3592 1.287 . S
C3593 C3594 1.524 . S
C3593 H3596 0.999 . S
C3594 H3564 0.950 . S
C3594 C3593 1.524 . S
C3594 C3595 1.415 . S
C3595 H3565 0.950 . S
C3595 C3590 1.363 . S
C3595 C3594 1.415 . S
H3596 C3593 0.999 . S
H3597 C3578 0.913 . S
H3598 C3616 0.951 . S
H3599 C3618 0.951 . S
H3600 C3620 0.950 . S
H3601 C3621 0.950 . S
H3602 C3623 0.950 . S
H3603 C3626 0.950 . S
H3604 C3627 0.950 . S
H3605 C3629 0.950 . S
H3606 C3630 0.950 . S
H3607 C3631 0.951 . S
H3608 C3633 0.951 . S
H3609 C3635 0.950 . S
H3610 C3636 0.950 . S
H3611 C3638 0.950 . S
H3612 C3641 0.950 . S
H3613 C3642 0.950 . S
H3614 C3644 0.950 . S
H3615 C3645 0.950 . S
C3616 H3598 0.951 . S
C3616 C3617 1.366 . S
C3616 C3618 1.388 . S
C3617 C3616 1.366 . S
C3617 C3621 1.385 . S
C3618 H3599 0.951 . S
C3618 C3616 1.388 . S
C3618 C3619 1.366 . S
C3619 C3618 1.366 . S
C3619 C3620 1.414 . S
C3619 C3622 1.499 . S
C3620 H3600 0.950 . S
C3620 C3619 1.414 . S
C3620 C3621 1.374 . S
C3621 H3601 0.950 . S
C3621 C3617 1.385 . S
C3621 C3620 1.374 . S
C3622 C3619 1.499 . S
C3622 C3623 1.373 . S
C3622 C3624 1.389 . S
C3623 H3602 0.950 . S
C3623 C3622 1.373 . S
C3623 C3639 1.377 . S
C3624 C3622 1.389 . S
C3624 C3625 1.524 . S
C3624 C3638 1.377 . S
C3625 C3624 1.524 . S
C3625 C3626 1.397 . S
C3625 C3630 1.363 . S
C3626 H3603 0.950 . S
C3626 C3625 1.397 . S
C3626 C3627 1.334 . S
C3627 H3604 0.950 . S
C3627 C3626 1.334 . S
C3627 C3628 1.287 . S
C3628 C3627 1.287 . S
C3628 C3629 1.524 . S
C3628 H3647 0.913 . S
C3629 H3605 0.950 . S
C3629 C3628 1.524 . S
C3629 C3630 1.415 . S
C3630 H3606 0.950 . S
C3630 C3625 1.363 . S
C3630 C3629 1.415 . S
C3631 H3607 0.951 . S
C3631 C3632 1.366 . S
C3631 C3633 1.388 . S
C3632 C3631 1.366 . S
C3632 C3636 1.385 . S
C3633 H3608 0.951 . S
C3633 C3631 1.388 . S
C3633 C3634 1.366 . S
C3634 C3633 1.366 . S
C3634 C3635 1.414 . S
C3634 C3637 1.499 . S
C3635 H3609 0.950 . S
C3635 C3634 1.414 . S
C3635 C3636 1.374 . S
C3636 H3610 0.950 . S
C3636 C3632 1.385 . S
C3636 C3635 1.374 . S
C3637 C3634 1.499 . S
C3637 C3638 1.373 . S
C3637 C3639 1.389 . S
C3638 H3611 0.950 . S
C3638 C3624 1.377 . S
C3638 C3637 1.373 . S
C3639 C3623 1.377 . S
C3639 C3637 1.389 . S
C3639 C3640 1.524 . S
C3640 C3639 1.524 . S
C3640 C3641 1.397 . S
C3640 C3645 1.363 . S
C3641 H3612 0.950 . S
C3641 C3640 1.397 . S
C3641 C3642 1.334 . S
C3642 H3613 0.950 . S
C3642 C3641 1.334 . S
C3642 C3643 1.287 . S
C3643 C3642 1.287 . S
C3643 C3644 1.524 . S
C3643 H3646 0.999 . S
C3644 H3614 0.950 . S
C3644 C3643 1.524 . S
C3644 C3645 1.415 . S
C3645 H3615 0.950 . S
C3645 C3640 1.363 . S
C3645 C3644 1.415 . S
H3646 C3643 0.999 . S
H3647 C3628 0.913 . S
C467 C35 0.290 . S
C482 C7 0.287 . S
C517 C21 0.290 . S
C532 C49 0.287 . S
C567 C91 0.290 . S
C582 C63 0.286 . S
C617 C105 0.287 . S
C632 C77 0.289 . S
C667 C119 0.287 . S
C682 C147 0.290 . S
C717 C161 0.289 . S
C732 C133 0.287 . S
C767 C175 0.287 . S
C782 C203 0.289 . S
C817 C189 0.290 . S
C832 C217 0.286 . S
C867 C259 0.287 . S
C882 C231 0.289 . S
C917 C245 0.290 . S
C932 C273 0.287 . S
C967 C287 0.288 . S
C982 C315 0.289 . S
C1017 C329 0.290 . S
C1032 C301 0.287 . S
C1067 C371 0.290 . S
C1082 C343 0.287 . S
C1117 C385 0.290 . S
C1132 C357 0.287 . S
C1167 C427 0.290 . S
C1182 C399 0.286 . S
C1217 C413 0.288 . S
C1232 C441 0.288 . S
C1267 C64 1.593 . S
C1282 C8 1.593 . S
C1317 C414 1.592 . S
C1332 C22 1.592 . S
C1367 C36 1.592 . S
C1382 C204 1.592 . S
C1417 C50 1.593 . S
C1432 C330 1.593 . S
C1467 C78 1.593 . S
C1482 C358 1.593 . S
C1517 C92 1.593 . S
C1532 C148 1.593 . S
C1567 C274 1.593 . S
C1582 C106 1.593 . S
C1617 C176 1.593 . S
C1632 C120 1.593 . S
C1667 C302 1.593 . S
C1682 C134 1.593 . S
C1717 C162 1.594 . S
C1732 C442 1.594 . S
C1767 C190 1.592 . S
C1782 C246 1.592 . S
C1817 C386 1.593 . S
C1832 C218 1.593 . S
C1867 C288 1.593 . S
C1882 C232 1.593 . S
C1917 C260 1.593 . S
C1932 C428 1.593 . S
C1967 C316 1.593 . S
C1982 C372 1.593 . S
C2017 C400 1.593 . S
C2032 C344 1.593 . S
C2067 C51 1.488 . S
C2082 C9 1.488 . S
C2117 C37 1.487 . S
C2132 C23 1.487 . S
C2167 C107 1.488 . S
C2182 C65 1.488 . S
C2217 C93 1.487 . S
C2232 C79 1.487 . S
C2267 C163 1.487 . S
C2282 C121 1.487 . S
C2317 C149 1.487 . S
C2332 C135 1.487 . S
C2367 C219 1.487 . S
C2382 C177 1.487 . S
C2417 C205 1.487 . S
C2432 C191 1.487 . S
C2467 C233 1.487 . S
C2482 C275 1.487 . S
C2517 C261 1.488 . S
C2532 C247 1.487 . S
C2567 C289 1.488 . S
C2582 C331 1.488 . S
C2617 C317 1.488 . S
C2632 C303 1.488 . S
C2667 C387 1.488 . S
C2682 C345 1.488 . S
C2717 C359 1.487 . S
C2732 C373 1.487 . S
C2767 C401 1.488 . S
C2782 C443 1.488 . S
C2817 C429 1.487 . S
C2832 C415 1.487 . S
C2867 C31 1.471 . S
C2882 C3 1.472 . S
C2917 C17 1.472 . S
C2932 C45 1.471 . S
C2967 C59 1.472 . S
C2982 C87 1.472 . S
C3017 C73 1.472 . S
C3032 C101 1.471 . S
C3067 C115 1.472 . S
C3082 C143 1.471 . S
C3117 C129 1.472 . S
C3132 C157 1.471 . S
C3167 C199 1.471 . S
C3182 C171 1.471 . S
C3217 C213 1.471 . S
C3232 C185 1.472 . S
C3267 C255 1.472 . S
C3282 C227 1.471 . S
C3317 C269 1.471 . S
C3332 C241 1.472 . S
C3367 C283 1.471 . S
C3382 C311 1.472 . S
C3417 C325 1.471 . S
C3432 C297 1.472 . S
C3467 C367 1.472 . S
C3482 C339 1.471 . S
C3517 C353 1.472 . S
C3532 C381 1.471 . S
C3567 C395 1.471 . S
C3582 C423 1.471 . S
C3617 C437 1.472 . S
C3632 C409 1.472 . S
