# Generated by pormake.
# Topology wjg, (4)-cn, num edge types: 1
# Building blocks:
#     Node 0, Type 0, BuildingBlock: KUFVIS_clean_sbu_0, # of connection points: 4
#     Node 1, Type 0, BuildingBlock: KUFVIS_clean_sbu_0, # of connection points: 4
#     Node 2, Type 0, BuildingBlock: KUFVIS_clean_sbu_0, # of connection points: 4
#     Node 3, Type 0, BuildingBlock: KUFVIS_clean_sbu_0, # of connection points: 4
#     Node 4, Type 0, BuildingBlock: KUFVIS_clean_sbu_0, # of connection points: 4
#     Node 5, Type 0, BuildingBlock: KUFVIS_clean_sbu_0, # of connection points: 4
#     Node 6, Type 0, BuildingBlock: KUFVIS_clean_sbu_0, # of connection points: 4
#     Node 7, Type 0, BuildingBlock: KUFVIS_clean_sbu_0, # of connection points: 4
#     Node 8, Type 0, BuildingBlock: KUFVIS_clean_sbu_0, # of connection points: 4
#     Node 9, Type 0, BuildingBlock: KUFVIS_clean_sbu_0, # of connection points: 4
#     Node 10, Type 0, BuildingBlock: KUFVIS_clean_sbu_0, # of connection points: 4
#     Node 11, Type 0, BuildingBlock: KUFVIS_clean_sbu_0, # of connection points: 4
#     Edge 12, Type (0, 0), None
#     Edge 13, Type (0, 0), None
#     Edge 14, Type (0, 0), None
#     Edge 15, Type (0, 0), None
#     Edge 16, Type (0, 0), None
#     Edge 17, Type (0, 0), None
#     Edge 18, Type (0, 0), None
#     Edge 19, Type (0, 0), None
#     Edge 20, Type (0, 0), None
#     Edge 21, Type (0, 0), None
#     Edge 22, Type (0, 0), None
#     Edge 23, Type (0, 0), None
#     Edge 24, Type (0, 0), None
#     Edge 25, Type (0, 0), None
#     Edge 26, Type (0, 0), None
#     Edge 27, Type (0, 0), None
#     Edge 28, Type (0, 0), None
#     Edge 29, Type (0, 0), None
#     Edge 30, Type (0, 0), None
#     Edge 31, Type (0, 0), None
#     Edge 32, Type (0, 0), None
#     Edge 33, Type (0, 0), None
#     Edge 34, Type (0, 0), None
#     Edge 35, Type (0, 0), None
# Relax obj value: 0.289
# Max RMSD: 0.128
# Mean RMSD: 0.121
data_MOF--net-wjg--node1-KUFVIS_clean_sbu_0--edge1-none
_symmetry_space_group_name_H-M    P1
_symmetry_Int_Tables_number       1
_symmetry_cell_setting            triclinic
loop_
_symmetry_equiv_pos_as_xyz
'x, y, z'
_cell_length_a     16.79726
_cell_length_b     16.848234
_cell_length_c     18.593223
_cell_angle_alpha  88.692466
_cell_angle_beta   89.730421
_cell_angle_gamma 119.73256
loop_
_atom_site_label
_atom_site_type_symbol
_atom_site_fract_x
_atom_site_fract_y
_atom_site_fract_z
_atom_type_partial_charge
Mn0 Mn 0.02591 0.30712 0.29316 0.0
Mn1 Mn 0.14482 0.25824 0.44757 0.0
C2 C 0.038 0.16098 0.31837 0.0
C3 C -0.12373 0.23734 0.20764 0.0
C4 C -2e-05 0.28711 0.42684 0.0
O5 O 0.14198 0.43765 0.3442 0.0
O6 O 0.21455 0.3936 0.4293 0.0
C7 C 0.31876 0.25604 0.47885 0.0
N8 N 0.23298 0.23704 0.50083 0.0
C9 C 0.23247 0.12573 0.58461 0.0
C10 C 0.32546 0.15871 0.57098 0.0
C11 C 0.36902 0.22433 0.51708 0.0
C12 C 0.18745 0.16614 0.54824 0.0
H13 H 0.35073 0.29672 0.43221 0.0
C14 C 0.20932 0.45707 0.3919 0.0
O15 O -0.07468 0.32191 0.22569 0.0
O16 O -0.08576 0.19503 0.23766 0.0
N17 N 0.06046 0.13604 0.48032 0.0
C18 C -0.02469 0.07664 0.45732 0.0
C19 C -0.06936 -0.01333 0.48294 0.0
C20 C -0.03886 -0.03647 0.54464 0.0
C21 C 0.04343 0.02774 0.57329 0.0
C22 C 0.09442 0.1131 0.53761 0.0
H23 H -0.06006 0.09764 0.42115 0.0
O24 O -0.02028 0.16519 0.27611 0.0
O25 O 0.08486 0.23794 0.34803 0.0
O26 O -0.05436 0.29013 0.38192 0.0
O27 O 0.06111 0.27767 0.3997 0.0
C28 C 0.08525 0.00077 0.62412 0.0
C29 C 0.17977 0.04112 0.61944 0.0
H30 H 0.36025 0.12478 0.59365 0.0
H31 H 0.43855 0.24435 0.50062 0.0
H32 H -0.12674 -0.06453 0.45484 0.0
H33 H -0.07422 0.8939 0.56569 0.0
H34 H 0.04646 -0.06263 0.65439 0.0
H35 H 0.21123 0.00197 0.63777 0.0
Mn36 Mn 0.62524 0.04063 0.66786 0.0
Mn37 Mn 0.84534 0.20222 0.76022 0.0
C38 C 0.78985 0.06163 0.67201 0.0
C39 C 0.53621 0.89924 0.57721 0.0
C40 C 0.71445 0.10655 0.83795 0.0
O41 O 0.6644 0.1909 0.66144 0.0
O42 O 0.80181 0.28105 0.71247 0.0
C43 C -0.03826 0.38937 0.81195 0.0
N44 N -0.06609 0.29948 0.81634 0.0
C45 C 0.0398 0.32571 0.91076 0.0
C46 C 0.0688 0.41907 0.90715 0.0
C47 C 0.02543 0.45012 0.85967 0.0
C48 C -0.03354 0.26701 0.86842 0.0
H49 H -0.06629 0.41302 0.77301 0.0
C50 C 0.729 0.27251 0.68263 0.0
O51 O 0.5799 0.90021 0.63538 0.0
O52 O 0.53718 -0.02338 0.57632 0.0
N53 N -0.12044 0.12542 0.817 0.0
C54 C 0.84125 0.03197 0.81889 0.0
C55 C 0.8576 -0.01188 0.876 0.0
C56 C -0.07707 0.03982 0.92592 0.0
C57 C -0.03279 0.13503 0.92015 0.0
C58 C -0.06499 0.1744 0.87022 0.0
H59 H 0.79086 -0.01214 0.78213 0.0
O60 O 0.7292 0.01239 0.63026 0.0
O61 O 0.75447 0.09262 0.71168 0.0
O62 O 0.66901 0.05218 0.78412 0.0
O63 O 0.76342 0.18925 0.82795 0.0
C64 C 0.04286 0.19257 0.96058 0.0
C65 C 0.08159 0.28855 0.95384 0.0
H66 H 0.12266 0.46672 0.94126 0.0
H67 H 0.04097 0.5203 0.85888 0.0
H68 H 0.81868 -0.08544 0.88115 0.0
H69 H -0.06408 0.00498 0.96876 0.0
H70 H 0.07344 0.16409 0.99622 0.0
H71 H 0.14191 0.33279 0.98409 0.0
Mn72 Mn 0.55047 0.68026 1.0115 0.0
Mn73 Mn 0.55964 0.84308 0.16138 0.0
C74 C 0.60123 0.85394 0.02454 0.0
C75 C 0.59774 0.61414 0.89357 0.0
C76 C 0.50491 0.67684 0.15911 0.0
O77 O 0.41263 0.65161 0.05021 0.0
O78 O 0.4246 0.77384 0.11555 0.0
C79 C 0.51957 -0.0048 0.17032 0.0
N80 N 0.55443 -0.05367 0.20165 0.0
C81 C 0.64525 0.07652 0.27565 0.0
C82 C 0.5951 0.11749 0.25262 0.0
C83 C 0.5337 0.07794 0.19757 0.0
C84 C 0.6238 -0.00911 0.24797 0.0
H85 H 0.48755 -0.02638 0.12204 0.0
C86 C 0.37372 0.69343 0.08372 0.0
O87 O 0.51693 0.57936 0.92529 0.0
O88 O 0.64995 0.68896 0.92818 0.0
N89 N 0.6747 0.89325 0.20966 0.0
C90 C 0.735 0.86121 0.21105 0.0
C91 C 0.80694 0.89643 0.25991 0.0
C92 C 0.8221 -0.02998 0.30102 0.0
C93 C 0.76388 0.00643 0.29522 0.0
C94 C 0.68636 -0.0387 0.25288 0.0
H95 H 0.72755 0.80824 0.17603 0.0
O96 O 0.55916 0.80346 0.97223 0.0
O97 O 0.60913 0.80683 0.07411 0.0
O98 O 0.46774 0.62086 0.10781 0.0
O99 O 0.57362 0.74674 0.13661 0.0
C100 C 0.78103 0.08699 0.32856 0.0
C101 C 0.72369 0.12391 0.3169 0.0
H102 H 0.6111 0.18437 0.27016 0.0
H103 H 0.50315 0.11479 0.17261 0.0
H104 H 0.85137 0.86809 0.26702 0.0
H105 H -0.12029 -0.00192 0.3358 0.0
H106 H 0.84026 0.1234 0.36134 0.0
H107 H 0.7421 0.18991 0.33841 0.0
Mn108 Mn 0.75751 0.55744 0.32262 0.0
Mn109 Mn 0.55932 0.53021 0.46161 0.0
C110 C 0.68018 0.66196 0.34705 0.0
C111 C -0.1353 0.57776 0.19882 0.0
C112 C 0.71162 0.52141 0.46712 0.0
O113 O 0.61896 0.42674 0.32462 0.0
O114 O 0.51147 0.40965 0.41444 0.0
C115 C 0.36877 0.43591 0.51658 0.0
N116 N 0.45725 0.49635 0.527 0.0
C117 C 0.40984 0.55174 0.62724 0.0
C118 C 0.32121 0.47839 0.62414 0.0
C119 C 0.29985 0.42048 0.56722 0.0
C120 C 0.47757 0.55717 0.57902 0.0
H121 H 0.35206 0.40905 0.46576 0.0
C122 C 0.54087 0.37687 0.36394 0.0
O123 O -0.12481 0.55938 0.26449 0.0
O124 O 0.78759 0.57883 0.20265 0.0
N125 N 0.61489 0.64411 0.51504 0.0
C126 C 0.69416 0.72539 0.50399 0.0
C127 C 0.72223 0.79492 0.55366 0.0
C128 C 0.66864 0.78441 0.61341 0.0
C129 C 0.58424 0.70572 0.62092 0.0
C130 C 0.56179 0.63442 0.57358 0.0
H131 H 0.73762 0.73909 0.45827 0.0
O132 O 0.75477 0.68737 0.31294 0.0
O133 O 0.65455 0.58381 0.37408 0.0
O134 O 0.78198 0.53521 0.43253 0.0
O135 O 0.66607 0.54403 0.42859 0.0
C136 C 0.51601 0.70239 0.66553 0.0
C137 C 0.42886 0.62617 0.66853 0.0
H138 H 0.26724 0.4717 0.66029 0.0
H139 H 0.22899 0.37002 0.55945 0.0
H140 H 0.78294 0.85854 0.54528 0.0
H141 H 0.69041 0.83965 0.65056 0.0
H142 H 0.52698 0.76197 0.69233 0.0
H143 H 0.3746 0.62839 0.69769 0.0
Mn144 Mn 0.08649 0.73679 0.60929 0.0
Mn145 Mn -0.08508 0.60301 0.7429 0.0
C146 C -0.06213 0.7314 0.64116 0.0
C147 C 0.17426 0.89625 0.52727 0.0
C148 C 0.08687 0.71809 0.77449 0.0
O149 O 0.083 0.60415 0.63902 0.0
O150 O -0.06046 0.51686 0.69039 0.0
C151 C 0.81009 0.43029 0.83199 0.0
N152 N 0.85683 0.52309 0.82675 0.0
C153 C 0.80773 0.52732 0.9483 0.0
C154 C 0.77476 0.43379 0.95749 0.0
C155 C 0.77477 0.38467 0.89842 0.0
C156 C 0.8489 0.57001 0.88183 0.0
H157 H 0.80077 0.3913 0.7862 0.0
C158 C 0.01547 0.52443 0.66515 0.0
O159 O 0.09791 0.86314 0.56335 0.0
O160 O 0.20533 0.8415 0.54369 0.0
N161 N -0.09158 0.69517 0.80164 0.0
C162 C -0.05629 0.78724 0.78881 0.0
C163 C -0.06839 0.84098 0.83891 0.0
C164 C -0.111 0.80236 0.90496 0.0
C165 C 0.86088 0.71102 0.92058 0.0
C166 C -0.12603 0.65988 0.86805 0.0
H167 H -0.01195 0.82343 0.74396 0.0
O168 O -0.00584 0.79177 0.59621 0.0
O169 O -0.02918 0.68544 0.66334 0.0
O170 O 0.1201 0.77458 0.71789 0.0
O171 O 0.03142 0.6355 0.77236 0.0
C172 C 0.8242 0.67056 0.98811 0.0
C173 C 0.79786 0.57877 1.00202 0.0
H174 H 0.74455 0.39829 1.00826 0.0
H175 H 0.7462 0.31183 0.90405 0.0
H176 H -0.03972 -0.0866 0.82789 0.0
H177 H -0.11677 0.84439 0.94543 0.0
H178 H 0.81787 0.71058 0.02982 0.0
H179 H 0.77003 0.54791 0.05442 0.0
Mn180 Mn 0.20586 0.13256 0.94873 0.0
Mn181 Mn 0.21828 0.03147 0.0849 0.0
C182 C 0.12345 -0.03899 0.96409 0.0
C183 C 0.18603 0.21935 0.83134 0.0
C184 C 0.21815 0.09172 0.1063 0.0
O185 O 0.35034 0.19934 0.96122 0.0
O186 O 0.35614 0.10936 0.05374 0.0
C187 C 0.30918 -0.06108 0.14845 0.0
N188 N 0.22898 -0.07014 0.12486 0.0
C189 C 0.1492 0.81117 0.21799 0.0
C190 C 0.22844 0.80716 0.22995 0.0
C191 C 0.30947 0.87331 0.19724 0.0
C192 C 0.15112 0.87183 0.16382 0.0
H193 H 0.37109 -0.00288 0.12995 0.0
C194 C 0.39575 0.17571 1.00654 0.0
O195 O 0.19745 0.24618 0.89625 0.0
O196 O 0.19581 0.14912 0.83435 0.0
N197 N 0.08204 -0.05661 0.10656 0.0
C198 C 0.00713 -0.05218 0.08546 0.0
C199 C -0.08041 0.88039 0.10899 0.0
C200 C -0.08807 0.81783 0.16293 0.0
C201 C -0.00869 0.82229 0.18989 0.0
C202 C 0.0739 0.87854 0.15311 0.0
H203 H 0.01639 0.0041 0.05225 0.0
O204 O 0.08183 0.00295 0.94018 0.0
O205 O 0.20354 0.01472 0.98095 0.0
O206 O 0.2006 0.14431 0.06401 0.0
O207 O 0.20135 0.14301 0.06735 0.0
C208 C -0.00946 0.76738 0.24739 0.0
C209 C 0.06759 0.75706 0.25828 0.0
H210 H 0.22944 0.75831 0.26827 0.0
H211 H 0.37065 0.87354 0.21341 0.0
H212 H 0.85906 0.87946 0.08831 0.0
H213 H 0.84525 0.76687 0.18362 0.0
H214 H -0.0714 0.72668 0.27903 0.0
H215 H 0.0603 0.7012 0.29264 0.0
Mn216 Mn 0.48989 0.73119 0.38834 0.0
Mn217 Mn 0.44913 0.53068 0.3024 0.0
C218 C 0.61638 0.70009 0.35344 0.0
C219 C 0.50308 0.82617 0.50991 0.0
C220 C 0.45746 0.6774 0.22815 0.0
O221 O 0.33986 0.63056 0.39099 0.0
O222 O 0.36863 0.51696 0.38339 0.0
C223 C 0.30105 0.34992 0.30545 0.0
N224 N 0.35991 0.41987 0.25782 0.0
C225 C 0.36745 0.31505 0.17032 0.0
C226 C 0.33034 0.2432 0.22601 0.0
C227 C 0.29141 0.26203 0.29917 0.0
C228 C 0.3881 0.40612 0.19076 0.0
H229 H 0.29651 0.36457 0.3582 0.0
C230 C 0.30904 0.54236 0.38632 0.0
O231 O 0.48047 0.83939 0.44588 0.0
O232 O 0.50848 0.75236 0.50507 0.0
N233 N 0.52482 0.54134 0.21839 0.0
C234 C 0.61217 0.60764 0.19979 0.0
C235 C 0.64985 0.61035 0.13213 0.0
C236 C 0.60224 0.53992 0.08531 0.0
C237 C 0.51796 0.46759 0.10712 0.0
C238 C 0.47556 0.47528 0.17002 0.0
H239 H 0.64355 0.67051 0.22592 0.0
O240 O 0.6333 0.77918 0.37678 0.0
O241 O 0.53106 0.64322 0.35467 0.0
O242 O 0.48963 0.74526 0.27188 0.0
O243 O 0.40361 0.60058 0.25345 0.0
C244 C 0.48435 0.38283 0.07634 0.0
C245 C 0.41953 0.30708 0.11582 0.0
H246 H 0.35463 0.19451 0.22603 0.0
H247 H 0.26986 0.21991 0.34729 0.0
H248 H 0.71407 0.66885 0.11575 0.0
H249 H 0.63108 0.53995 0.0334 0.0
H250 H 0.5233 0.37372 0.03391 0.0
H251 H 0.42725 0.24796 0.11806 0.0
Mn252 Mn 0.68686 0.54046 0.69146 0.0
Mn253 Mn -0.12619 0.54367 0.56124 0.0
C254 C 0.8379 0.67547 0.64276 0.0
C255 C 0.62726 0.57523 0.82097 0.0
C256 C 0.69505 0.50947 0.54653 0.0
O257 O 0.68875 0.4036 0.69484 0.0
O258 O 0.80737 0.41865 0.61738 0.0
C259 C 0.00913 0.48233 0.50841 0.0
N260 N -0.01527 0.54682 0.5189 0.0
C261 C 0.13223 0.65462 0.46602 0.0
C262 C 0.16497 0.59598 0.48398 0.0
C263 C 0.10125 0.50617 0.50169 0.0
C264 C 0.04222 0.62934 0.48843 0.0
H265 H -0.03977 0.41469 0.51084 0.0
C266 C 0.73636 0.36877 0.66096 0.0
O267 O 0.57871 0.53685 0.7648 0.0
O268 O 0.70597 0.58166 0.80563 0.0
N269 N -0.07753 0.6575 0.50252 0.0
C270 C -0.11976 0.70588 0.484 0.0
C271 C -0.07793 0.78151 0.43606 0.0
C272 C 0.00992 0.8103 0.40907 0.0
C273 C 0.05289 0.76014 0.42734 0.0
C274 C 0.00626 0.68384 0.47391 0.0
H275 H 0.81562 0.68607 0.50753 0.0
O276 O 0.77631 0.68601 0.67504 0.0
O277 O 0.81122 0.59061 0.63504 0.0
O278 O 0.63114 0.509 0.58363 0.0
O279 O 0.76142 0.52995 0.58587 0.0
C280 C 0.14141 0.78381 0.40175 0.0
C281 C 0.18275 0.73317 0.42321 0.0
H282 H 0.2366 0.61745 0.4805 0.0
H283 H 0.12232 0.45584 0.51013 0.0
H284 H -0.11312 0.8174 0.41953 0.0
H285 H 0.04319 0.87004 0.37349 0.0
H286 H 0.17762 0.83952 0.36385 0.0
H287 H 0.25106 0.75254 0.40363 0.0
Mn288 Mn 0.08085 0.70608 0.02472 0.0
Mn289 Mn 0.28376 0.86921 0.92012 0.0
C290 C 0.09646 0.86267 0.97619 0.0
C291 C -0.05424 0.61713 0.13284 0.0
C292 C 0.11176 0.74352 0.84558 0.0
O293 O 0.19816 0.65622 0.06911 0.0
O294 O 0.33313 0.72844 0.99524 0.0
C295 C 0.47389 0.03983 0.97522 0.0
N296 N 0.39707 0.00177 0.9251 0.0
C297 C 0.50053 0.09456 0.82024 0.0
C298 C 0.5788 0.13524 0.86389 0.0
C299 C 0.5721 0.11154 0.94061 0.0
C300 C 0.41224 0.02744 0.85196 0.0
H301 H 0.46281 0.03482 0.03204 0.0
C302 C 0.28527 0.67224 0.04767 0.0
O303 O -0.05108 0.58623 0.07062 0.0
O304 O 0.02355 0.69066 0.1323 0.0
N305 N 0.25751 -0.05105 0.8529 0.0
C306 C 0.17703 -0.05675 0.82828 0.0
C307 C 0.17752 0.00444 0.77818 0.0
C308 C 0.261 0.0749 0.75234 0.0
C309 C 0.33925 0.07239 0.76551 0.0
C310 C 0.33566 0.01045 0.8187 0.0
H311 H 0.11061 0.89006 0.84483 0.0
O312 O 0.02238 0.79393 1.0015 0.0
O313 O 0.16104 0.84682 0.98353 0.0
O314 O 0.06384 0.69279 0.90295 0.0
O315 O 0.19315 0.80799 0.84391 0.0
C316 C 0.42215 0.1385 0.73468 0.0
C317 C 0.50246 0.14585 0.75936 0.0
H318 H 0.63436 0.20082 0.84589 0.0
H319 H 0.62786 0.16393 0.96747 0.0
H320 H 0.11396 0.00262 0.7654 0.0
H321 H 0.26476 0.13305 0.72331 0.0
H322 H 0.42596 0.19013 0.69692 0.0
H323 H 0.56458 0.20595 0.74191 0.0
Mn324 Mn 0.23309 0.08785 0.34225 0.0
Mn325 Mn 0.2309 0.27376 0.21333 0.0
C326 C 0.07993 0.10299 0.31308 0.0
C327 C 0.21045 -0.0223 0.46326 0.0
C328 C 0.20731 0.08316 0.18724 0.0
O329 O 0.39769 0.21187 0.35197 0.0
O330 O 0.43731 0.34877 0.28559 0.0
C331 C 0.24194 0.46695 0.22341 0.0
N332 N 0.21608 0.38827 0.18721 0.0
C333 C 0.11362 0.43277 0.12467 0.0
C334 C 0.14769 0.51238 0.16156 0.0
C335 C 0.21536 0.53178 0.20906 0.0
C336 C 0.14547 0.36964 0.1415 0.0
H337 H 0.27048 0.47577 0.27228 0.0
C338 C 0.45979 0.30067 0.32778 0.0
O339 O 0.25353 -0.01533 0.40436 0.0
O340 O 0.18965 0.04084 0.45484 0.0
N341 N 0.10941 0.21987 0.15999 0.0
C342 C 0.04224 0.12804 0.15531 0.0
C343 C -0.04189 0.09909 0.12258 0.0
C344 C -0.05925 0.16105 0.08848 0.0
C345 C 0.00321 0.25291 0.09431 0.0
C346 C 0.0884 0.28045 0.12883 0.0
H347 H 0.04397 0.07154 0.18041 0.0
O348 O 0.08492 0.04473 0.35539 0.0
O349 O 0.15478 0.14204 0.27929 0.0
O350 O 0.23785 0.04561 0.23234 0.0
O351 O 0.18263 0.13206 0.21867 0.0
C352 C -0.0195 0.31744 0.06795 0.0
C353 C 0.03625 0.40801 0.08316 0.0
H354 H 0.11405 0.55308 0.16106 0.0
H355 H 0.2377 0.5904 0.2429 0.0
H356 H -0.09465 0.02827 0.12407 0.0
H357 H -0.12061 0.13754 0.05729 0.0
H358 H -0.08241 0.29717 0.03915 0.0
H359 H 0.01429 0.45675 0.06845 0.0
Mn360 Mn 0.03868 0.25989 0.66121 0.0
Mn361 Mn 0.83424 0.24875 0.58672 0.0
C362 C -0.11384 0.12691 0.6537 0.0
C363 C 0.14038 0.24801 0.76625 0.0
C364 C -0.0138 0.27744 0.50161 0.0
O365 O 0.06345 0.40052 0.66748 0.0
O366 O -0.07669 0.37398 0.62611 0.0
C367 C 0.78828 0.35944 0.47978 0.0
N368 N 0.76008 0.28264 0.52251 0.0
C369 C 0.62219 0.20979 0.45015 0.0
C370 C 0.65606 0.2867 0.40574 0.0
C371 C 0.74265 0.35838 0.41702 0.0
C372 C 0.68285 0.20619 0.50134 0.0
H373 H 0.84464 0.42204 0.4912 0.0
C374 C 0.00448 0.42852 0.65092 0.0
O375 O 0.16674 0.26844 0.69941 0.0
O376 O 0.06219 0.24328 0.77082 0.0
N377 N 0.76264 0.13475 0.53764 0.0
C378 C 0.7973 0.08295 0.51083 0.0
C379 C 0.74142 0.00403 0.47348 0.0
C380 C 0.65975 -0.00887 0.44715 0.0
C381 C 0.63204 0.05427 0.46151 0.0
C382 C 0.68662 0.12726 0.50695 0.0
H383 H -0.1364 0.09684 0.52576 0.0
O384 O -0.04298 0.11685 0.6619 0.0
O385 O -0.09521 0.20906 0.64791 0.0
O386 O 0.04215 0.27406 0.54796 0.0
O387 O -0.08895 0.27034 0.51358 0.0
C388 C 0.55526 0.05037 0.42876 0.0
C389 C 0.54834 0.12903 0.42551 0.0
H390 H 0.62317 0.28457 0.35568 0.0
H391 H 0.77486 0.41187 0.37611 0.0
H392 H 0.76291 -0.04293 0.45793 0.0
H393 H 0.6267 -0.06006 0.40724 0.0
H394 H 0.50873 -0.00752 0.39763 0.0
H395 H 0.49813 0.13079 0.39014 0.0
Mn396 Mn 0.64689 0.11729 0.05846 0.0
Mn397 Mn 0.50843 -0.00939 0.89482 0.0
C398 C 0.60741 -0.05558 0.04236 0.0
C399 C 0.79004 0.19227 0.15225 0.0
C400 C 0.70725 0.0786 0.9135 0.0
O401 O 0.54813 0.19151 0.03827 0.0
O402 O 0.473 0.15731 0.92621 0.0
C403 C 0.35936 0.87073 1.00906 0.0
N404 N 0.40765 0.87428 0.94367 0.0
C405 C 0.27474 0.73989 0.89012 0.0
C406 C 0.21584 0.73752 0.95317 0.0
C407 C 0.26321 0.80743 0.01664 0.0
C408 C 0.36868 0.81557 0.88688 0.0
H409 H 0.3936 0.89662 0.05624 0.0
C410 C 0.49085 0.19864 0.98817 0.0
O411 O 0.74935 0.23117 0.12229 0.0
O412 O 0.74984 0.11045 0.1278 0.0
N413 N 0.5173 0.88665 0.85187 0.0
C414 C 0.59168 0.87579 0.83634 0.0
C415 C 0.58089 0.79022 0.82136 0.0
C416 C 0.49324 0.71435 0.81975 0.0
C417 C 0.41754 0.72614 0.82682 0.0
C418 C 0.43274 0.81276 0.84586 0.0
H419 H 0.66055 -0.07285 0.84464 0.0
O420 O 0.66805 0.00381 0.08403 0.0
O421 O 0.57587 -0.01366 1.00178 0.0
O422 O 0.73932 0.14002 0.96378 0.0
O423 O 0.63099 0.00942 0.92768 0.0
C424 C 0.32752 0.65143 0.82647 0.0
C425 C 0.25497 0.66104 0.85311 0.0
H426 H 0.15744 0.67069 0.96268 0.0
H427 H 0.22926 0.79997 0.0677 0.0
H428 H 0.64053 0.7827 0.81263 0.0
H429 H 0.48456 0.64756 0.80985 0.0
H430 H 0.31413 0.58419 0.81145 0.0
H431 H 0.18831 0.60213 0.85705 0.0
loop_
_geom_bond_atom_site_label_1
_geom_bond_atom_site_label_2
_geom_bond_distance
_geom_bond_site_symmetry_2
_ccdc_geom_bond_type
Mn0 O5 2.095 . S
Mn0 O15 2.162 1_455 S
Mn0 O16 2.297 . S
Mn0 O24 2.385 . S
Mn0 O25 2.209 . S
Mn0 O26 2.094 . S
Mn1 O6 2.121 . S
Mn1 N8 2.257 . S
Mn1 N17 2.282 . S
Mn1 O25 2.215 . S
Mn1 O27 2.117 . S
C2 O24 1.234 . S
C2 O25 1.283 . S
C3 O15 1.281 . S
C3 O16 1.236 1_655 S
C4 O26 1.240 . S
C4 O27 1.264 . S
O5 Mn0 2.095 . S
O5 C14 1.250 . S
O6 Mn1 2.121 . S
O6 C14 1.258 . S
C7 N8 1.326 . S
C7 C11 1.460 . S
C7 H13 0.929 . S
N8 Mn1 2.257 . S
N8 C7 1.326 . S
N8 C12 1.362 . S
C9 C10 1.258 . S
C9 C12 1.431 . S
C9 C29 1.449 . S
C10 C9 1.258 . S
C10 C11 1.477 . S
C10 H30 0.931 . S
C11 C7 1.460 . S
C11 C10 1.477 . S
C11 H31 0.930 . S
C12 N8 1.362 . S
C12 C9 1.431 . S
C12 C22 1.476 . S
H13 C7 0.929 . S
C14 O5 1.250 . S
C14 O6 1.258 . S
O15 Mn0 2.162 1_655 S
O15 C3 1.281 . S
O16 Mn0 2.297 . S
O16 C3 1.236 1_455 S
N17 Mn1 2.282 . S
N17 C18 1.328 . S
N17 C22 1.318 . S
C18 N17 1.328 . S
C18 C19 1.457 . S
C18 H23 0.929 . S
C19 C18 1.457 . S
C19 C20 1.291 . S
C19 H32 0.931 . S
C20 C19 1.291 . S
C20 C21 1.373 . S
C20 H33 0.929 . S
C21 C20 1.373 . S
C21 C22 1.396 . S
C21 C28 1.403 . S
C22 C12 1.476 . S
C22 N17 1.318 . S
C22 C21 1.396 . S
H23 C18 0.929 . S
O24 Mn0 2.385 . S
O24 C2 1.234 . S
O25 Mn0 2.209 . S
O25 Mn1 2.215 . S
O25 C2 1.283 . S
O26 Mn0 2.094 . S
O26 C4 1.240 . S
O27 Mn1 2.117 . S
O27 C4 1.264 . S
C28 C21 1.403 . S
C28 C29 1.399 . S
C28 H34 0.929 . S
C29 C9 1.449 . S
C29 C28 1.399 . S
C29 H35 0.930 . S
H30 C10 0.931 . S
H31 C11 0.930 . S
H32 C19 0.931 . S
H33 C20 0.929 . S
H34 C28 0.929 . S
H35 C29 0.930 . S
Mn36 O41 2.095 . S
Mn36 O51 2.162 1_545 S
Mn36 O52 2.297 . S
Mn36 O60 2.385 . S
Mn36 O61 2.209 . S
Mn36 O62 2.094 . S
Mn37 O42 2.121 . S
Mn37 N44 2.257 1_655 S
Mn37 N53 2.282 1_655 S
Mn37 O61 2.215 . S
Mn37 O63 2.117 . S
C38 O60 1.234 . S
C38 O61 1.283 . S
C39 O51 1.281 . S
C39 O52 1.236 1_565 S
C40 O62 1.240 . S
C40 O63 1.264 . S
O41 Mn36 2.095 . S
O41 C50 1.250 . S
O42 Mn37 2.121 . S
O42 C50 1.258 . S
C43 N44 1.326 . S
C43 C47 1.460 . S
C43 H49 0.929 1_455 S
N44 Mn37 2.257 1_455 S
N44 C43 1.326 . S
N44 C48 1.362 . S
C45 C46 1.258 . S
C45 C48 1.431 . S
C45 C65 1.449 . S
C46 C45 1.258 . S
C46 C47 1.477 . S
C46 H66 0.931 . S
C47 C43 1.460 . S
C47 C46 1.477 . S
C47 H67 0.930 . S
C48 N44 1.362 . S
C48 C45 1.431 . S
C48 C58 1.476 . S
H49 C43 0.929 1_655 S
C50 O41 1.250 . S
C50 O42 1.258 . S
O51 Mn36 2.162 1_565 S
O51 C39 1.281 . S
O52 Mn36 2.297 . S
O52 C39 1.236 1_545 S
N53 Mn37 2.282 1_455 S
N53 C54 1.328 . S
N53 C58 1.318 . S
C54 N53 1.328 . S
C54 C55 1.457 . S
C54 H59 0.931 . S
C55 C54 1.457 . S
C55 C56 1.291 . S
C55 H68 0.931 . S
C56 C55 1.291 . S
C56 C57 1.373 . S
C56 H69 0.929 . S
C57 C56 1.373 . S
C57 C58 1.396 . S
C57 C64 1.403 . S
C58 C48 1.476 . S
C58 N53 1.318 . S
C58 C57 1.396 . S
H59 C54 0.931 . S
O60 Mn36 2.385 . S
O60 C38 1.234 . S
O61 Mn36 2.209 . S
O61 Mn37 2.215 . S
O61 C38 1.283 . S
O62 Mn36 2.094 . S
O62 C40 1.240 . S
O63 Mn37 2.117 . S
O63 C40 1.264 . S
C64 C57 1.403 . S
C64 C65 1.399 . S
C64 H70 0.929 . S
C65 C45 1.449 . S
C65 C64 1.399 . S
C65 H71 0.930 . S
H66 C46 0.931 . S
H67 C47 0.930 . S
H68 C55 0.931 . S
H69 C56 0.929 . S
H70 C64 0.929 . S
H71 C65 0.930 . S
Mn72 O77 2.095 1_556 S
Mn72 O87 2.162 . S
Mn72 O88 2.297 . S
Mn72 O96 2.385 . S
Mn72 O97 2.209 . S
Mn72 O98 2.094 1_556 S
Mn73 O78 2.121 . S
Mn73 N80 2.257 1_565 S
Mn73 N89 2.282 1_565 S
Mn73 O97 2.215 1_554 S
Mn73 O99 2.117 . S
C74 O96 1.234 . S
C74 O97 1.283 . S
C75 O87 1.281 . S
C75 O88 1.236 . S
C76 O98 1.240 . S
C76 O99 1.264 . S
O77 Mn72 2.095 1_554 S
O77 C86 1.250 . S
O78 Mn73 2.121 . S
O78 C86 1.259 . S
C79 N80 1.326 1_556 S
C79 C83 1.460 . S
C79 H85 0.929 1_545 S
N80 Mn73 2.257 1_545 S
N80 C79 1.326 1_554 S
N80 C84 1.362 . S
C81 C82 1.258 . S
C81 C84 1.431 . S
C81 C101 1.449 . S
C82 C81 1.258 . S
C82 C83 1.477 1_554 S
C82 H102 0.928 1_554 S
C83 C79 1.460 . S
C83 C82 1.477 1_556 S
C83 H103 0.930 . S
C84 N80 1.362 . S
C84 C81 1.431 . S
C84 C94 1.476 . S
H85 C79 0.929 1_565 S
C86 O77 1.250 . S
C86 O78 1.259 . S
O87 Mn72 2.162 . S
O87 C75 1.281 . S
O88 Mn72 2.297 . S
O88 C75 1.236 . S
N89 Mn73 2.282 1_545 S
N89 C90 1.328 . S
N89 C94 1.318 . S
C90 N89 1.328 . S
C90 C91 1.457 . S
C90 H95 0.929 1_545 S
C91 C90 1.457 . S
C91 C92 1.291 . S
C91 H104 0.931 . S
C92 C91 1.291 . S
C92 C93 1.373 . S
C92 H105 0.929 . S
C93 C92 1.373 . S
C93 C94 1.396 . S
C93 C100 1.403 . S
C94 C84 1.476 . S
C94 N89 1.318 . S
C94 C93 1.396 . S
H95 C90 0.929 1_565 S
O96 Mn72 2.385 . S
O96 C74 1.234 . S
O97 Mn72 2.209 . S
O97 Mn73 2.215 1_556 S
O97 C74 1.283 . S
O98 Mn72 2.094 1_554 S
O98 C76 1.240 . S
O99 Mn73 2.117 . S
O99 C76 1.264 . S
C100 C93 1.403 . S
C100 C101 1.399 . S
C100 H106 0.929 . S
C101 C81 1.449 . S
C101 C100 1.399 . S
C101 H107 0.930 . S
H102 C82 0.928 1_556 S
H103 C83 0.930 . S
H104 C91 0.931 . S
H105 C92 0.929 . S
H106 C100 0.929 . S
H107 C101 0.930 . S
Mn108 O113 2.095 . S
Mn108 O123 2.162 1_655 S
Mn108 O124 2.297 . S
Mn108 O132 2.385 . S
Mn108 O133 2.209 . S
Mn108 O134 2.094 . S
Mn109 O114 2.121 . S
Mn109 N116 2.257 . S
Mn109 N125 2.282 . S
Mn109 O133 2.215 . S
Mn109 O135 2.117 . S
C110 O132 1.234 . S
C110 O133 1.283 . S
C111 O123 1.281 . S
C111 O124 1.236 1_455 S
C112 O134 1.240 . S
C112 O135 1.264 . S
O113 Mn108 2.095 . S
O113 C122 1.250 . S
O114 Mn109 2.121 . S
O114 C122 1.258 . S
C115 N116 1.326 . S
C115 C119 1.460 . S
C115 H121 0.929 . S
N116 Mn109 2.257 . S
N116 C115 1.326 . S
N116 C120 1.362 . S
C117 C118 1.258 . S
C117 C120 1.431 . S
C117 C137 1.449 . S
C118 C117 1.258 . S
C118 C119 1.477 . S
C118 H138 0.931 . S
C119 C115 1.460 . S
C119 C118 1.477 . S
C119 H139 0.930 . S
C120 N116 1.362 . S
C120 C117 1.431 . S
C120 C130 1.476 . S
H121 C115 0.929 . S
C122 O113 1.250 . S
C122 O114 1.258 . S
O123 Mn108 2.162 1_455 S
O123 C111 1.281 . S
O124 Mn108 2.297 . S
O124 C111 1.236 1_655 S
N125 Mn109 2.282 . S
N125 C126 1.328 . S
N125 C130 1.318 . S
C126 N125 1.328 . S
C126 C127 1.457 . S
C126 H131 0.929 . S
C127 C126 1.457 . S
C127 C128 1.291 . S
C127 H140 0.931 . S
C128 C127 1.291 . S
C128 C129 1.373 . S
C128 H141 0.929 . S
C129 C128 1.373 . S
C129 C130 1.396 . S
C129 C136 1.403 . S
C130 C120 1.476 . S
C130 N125 1.318 . S
C130 C129 1.396 . S
H131 C126 0.929 . S
O132 Mn108 2.385 . S
O132 C110 1.234 . S
O133 Mn108 2.209 . S
O133 Mn109 2.215 . S
O133 C110 1.283 . S
O134 Mn108 2.094 . S
O134 C112 1.240 . S
O135 Mn109 2.117 . S
O135 C112 1.264 . S
C136 C129 1.403 . S
C136 C137 1.399 . S
C136 H142 0.929 . S
C137 C117 1.449 . S
C137 C136 1.399 . S
C137 H143 0.930 . S
H138 C118 0.931 . S
H139 C119 0.930 . S
H140 C127 0.931 . S
H141 C128 0.929 . S
H142 C136 0.929 . S
H143 C137 0.930 . S
Mn144 O149 2.095 . S
Mn144 O159 2.162 1_565 S
Mn144 O160 2.297 . S
Mn144 O168 2.385 . S
Mn144 O169 2.209 . S
Mn144 O170 2.094 . S
Mn145 O150 2.121 . S
Mn145 N152 2.257 1_455 S
Mn145 N161 2.282 1_455 S
Mn145 O169 2.215 . S
Mn145 O171 2.117 . S
C146 O168 1.234 . S
C146 O169 1.283 . S
C147 O159 1.281 . S
C147 O160 1.236 1_545 S
C148 O170 1.240 . S
C148 O171 1.264 . S
O149 Mn144 2.095 . S
O149 C158 1.250 . S
O150 Mn145 2.121 . S
O150 C158 1.258 . S
C151 N152 1.326 . S
C151 C155 1.460 . S
C151 H157 0.929 1_655 S
N152 Mn145 2.257 1_655 S
N152 C151 1.326 . S
N152 C156 1.362 . S
C153 C154 1.258 . S
C153 C156 1.431 . S
C153 C173 1.449 . S
C154 C153 1.258 . S
C154 C155 1.477 . S
C154 H174 0.931 . S
C155 C151 1.460 . S
C155 C154 1.477 . S
C155 H175 0.930 . S
C156 N152 1.362 . S
C156 C153 1.431 . S
C156 C166 1.476 . S
H157 C151 0.929 1_455 S
C158 O149 1.250 . S
C158 O150 1.258 . S
O159 Mn144 2.162 1_545 S
O159 C147 1.281 . S
O160 Mn144 2.297 . S
O160 C147 1.236 1_565 S
N161 Mn145 2.282 1_655 S
N161 C162 1.328 . S
N161 C166 1.318 . S
C162 N161 1.328 . S
C162 C163 1.457 . S
C162 H167 0.932 . S
C163 C162 1.457 . S
C163 C164 1.291 . S
C163 H176 0.931 . S
C164 C163 1.291 . S
C164 C165 1.373 . S
C164 H177 0.929 . S
C165 C164 1.373 . S
C165 C166 1.396 . S
C165 C172 1.403 . S
C166 C156 1.476 . S
C166 N161 1.318 . S
C166 C165 1.396 . S
H167 C162 0.932 . S
O168 Mn144 2.385 . S
O168 C146 1.234 . S
O169 Mn144 2.209 . S
O169 Mn145 2.215 . S
O169 C146 1.283 . S
O170 Mn144 2.094 . S
O170 C148 1.240 . S
O171 Mn145 2.117 . S
O171 C148 1.264 . S
C172 C165 1.403 . S
C172 C173 1.399 . S
C172 H178 0.929 . S
C173 C153 1.449 . S
C173 C172 1.399 . S
C173 H179 0.930 . S
H174 C154 0.931 . S
H175 C155 0.930 . S
H176 C163 0.931 . S
H177 C164 0.929 . S
H178 C172 0.929 . S
H179 C173 0.930 . S
Mn180 O185 2.095 1_556 S
Mn180 O195 2.162 . S
Mn180 O196 2.297 . S
Mn180 O204 2.385 . S
Mn180 O205 2.209 . S
Mn180 O206 2.094 1_556 S
Mn181 O186 2.121 . S
Mn181 N188 2.257 1_545 S
Mn181 N197 2.282 1_545 S
Mn181 O205 2.215 1_554 S
Mn181 O207 2.117 . S
C182 O204 1.234 . S
C182 O205 1.283 . S
C183 O195 1.281 . S
C183 O196 1.236 . S
C184 O206 1.240 . S
C184 O207 1.264 . S
O185 Mn180 2.095 1_554 S
O185 C194 1.250 . S
O186 Mn181 2.121 . S
O186 C194 1.259 . S
C187 N188 1.326 1_556 S
C187 C191 1.460 . S
C187 H193 0.929 1_565 S
N188 Mn181 2.257 1_565 S
N188 C187 1.326 1_554 S
N188 C192 1.362 . S
C189 C190 1.258 . S
C189 C192 1.431 . S
C189 C209 1.449 . S
C190 C189 1.258 . S
C190 C191 1.477 1_554 S
C190 H210 0.928 1_554 S
C191 C187 1.460 . S
C191 C190 1.477 1_556 S
C191 H211 0.930 . S
C192 N188 1.362 . S
C192 C189 1.431 . S
C192 C202 1.476 . S
H193 C187 0.929 1_545 S
C194 O185 1.250 . S
C194 O186 1.259 . S
O195 Mn180 2.162 . S
O195 C183 1.281 . S
O196 Mn180 2.297 . S
O196 C183 1.236 . S
N197 Mn181 2.282 1_565 S
N197 C198 1.328 . S
N197 C202 1.318 . S
C198 N197 1.328 . S
C198 C199 1.457 . S
C198 H203 0.929 1_565 S
C199 C198 1.457 . S
C199 C200 1.291 . S
C199 H212 0.931 . S
C200 C199 1.291 . S
C200 C201 1.373 . S
C200 H213 0.929 . S
C201 C200 1.373 . S
C201 C202 1.396 . S
C201 C208 1.403 . S
C202 C192 1.476 . S
C202 N197 1.318 . S
C202 C201 1.396 . S
H203 C198 0.929 1_545 S
O204 Mn180 2.385 . S
O204 C182 1.234 . S
O205 Mn180 2.209 . S
O205 Mn181 2.215 1_556 S
O205 C182 1.283 . S
O206 Mn180 2.094 1_554 S
O206 C184 1.240 . S
O207 Mn181 2.117 . S
O207 C184 1.264 . S
C208 C201 1.403 . S
C208 C209 1.399 . S
C208 H214 0.929 . S
C209 C189 1.449 . S
C209 C208 1.399 . S
C209 H215 0.930 . S
H210 C190 0.928 1_556 S
H211 C191 0.930 . S
H212 C199 0.931 . S
H213 C200 0.929 . S
H214 C208 0.929 . S
H215 C209 0.930 . S
Mn216 O221 2.095 . S
Mn216 O231 2.162 1_565 S
Mn216 O232 2.297 . S
Mn216 O240 2.385 . S
Mn216 O241 2.209 . S
Mn216 O242 2.094 . S
Mn217 O222 2.121 . S
Mn217 N224 2.257 . S
Mn217 N233 2.282 . S
Mn217 O241 2.215 . S
Mn217 O243 2.117 . S
C218 O240 1.234 . S
C218 O241 1.283 . S
C219 O231 1.281 . S
C219 O232 1.236 1_545 S
C220 O242 1.240 . S
C220 O243 1.264 . S
O221 Mn216 2.095 . S
O221 C230 1.250 . S
O222 Mn217 2.121 . S
O222 C230 1.258 . S
C223 N224 1.326 . S
C223 C227 1.460 . S
C223 H229 0.929 . S
N224 Mn217 2.257 . S
N224 C223 1.326 . S
N224 C228 1.362 . S
C225 C226 1.258 . S
C225 C228 1.431 . S
C225 C245 1.449 . S
C226 C225 1.258 . S
C226 C227 1.477 . S
C226 H246 0.931 . S
C227 C223 1.460 . S
C227 C226 1.477 . S
C227 H247 0.930 . S
C228 N224 1.362 . S
C228 C225 1.431 . S
C228 C238 1.476 . S
H229 C223 0.929 . S
C230 O221 1.250 . S
C230 O222 1.258 . S
O231 Mn216 2.162 1_545 S
O231 C219 1.281 . S
O232 Mn216 2.297 . S
O232 C219 1.236 1_565 S
N233 Mn217 2.282 . S
N233 C234 1.328 . S
N233 C238 1.318 . S
C234 N233 1.328 . S
C234 C235 1.457 . S
C234 H239 0.929 . S
C235 C234 1.457 . S
C235 C236 1.291 . S
C235 H248 0.931 . S
C236 C235 1.291 . S
C236 C237 1.373 . S
C236 H249 0.929 . S
C237 C236 1.373 . S
C237 C238 1.396 . S
C237 C244 1.403 . S
C238 C228 1.476 . S
C238 N233 1.318 . S
C238 C237 1.396 . S
H239 C234 0.929 . S
O240 Mn216 2.385 . S
O240 C218 1.234 . S
O241 Mn216 2.209 . S
O241 Mn217 2.215 . S
O241 C218 1.283 . S
O242 Mn216 2.094 . S
O242 C220 1.240 . S
O243 Mn217 2.117 . S
O243 C220 1.264 . S
C244 C237 1.403 . S
C244 C245 1.399 . S
C244 H250 0.929 . S
C245 C225 1.449 . S
C245 C244 1.399 . S
C245 H251 0.930 . S
H246 C226 0.931 . S
H247 C227 0.930 . S
H248 C235 0.931 . S
H249 C236 0.929 . S
H250 C244 0.929 . S
H251 C245 0.930 . S
Mn252 O257 2.095 . S
Mn252 O267 2.162 . S
Mn252 O268 2.297 . S
Mn252 O276 2.385 . S
Mn252 O277 2.209 . S
Mn252 O278 2.094 . S
Mn253 O258 2.121 . S
Mn253 N260 2.257 1_655 S
Mn253 N269 2.282 1_655 S
Mn253 O277 2.215 . S
Mn253 O279 2.117 . S
C254 O276 1.234 . S
C254 O277 1.283 . S
C255 O267 1.281 . S
C255 O268 1.236 . S
C256 O278 1.240 . S
C256 O279 1.264 . S
O257 Mn252 2.095 . S
O257 C266 1.250 . S
O258 Mn253 2.121 . S
O258 C266 1.258 . S
C259 N260 1.326 . S
C259 C263 1.460 . S
C259 H265 0.929 1_455 S
N260 Mn253 2.257 1_455 S
N260 C259 1.326 . S
N260 C264 1.362 . S
C261 C262 1.258 . S
C261 C264 1.431 . S
C261 C281 1.449 . S
C262 C261 1.258 . S
C262 C263 1.477 . S
C262 H282 0.931 . S
C263 C259 1.460 . S
C263 C262 1.477 . S
C263 H283 0.930 . S
C264 N260 1.362 . S
C264 C261 1.431 . S
C264 C274 1.476 . S
H265 C259 0.929 1_655 S
C266 O257 1.250 . S
C266 O258 1.258 . S
O267 Mn252 2.162 . S
O267 C255 1.281 . S
O268 Mn252 2.297 . S
O268 C255 1.236 . S
N269 Mn253 2.282 1_455 S
N269 C270 1.328 . S
N269 C274 1.318 . S
C270 N269 1.328 . S
C270 C271 1.457 . S
C270 H275 0.929 1_455 S
C271 C270 1.457 . S
C271 C272 1.291 . S
C271 H284 0.931 . S
C272 C271 1.291 . S
C272 C273 1.373 . S
C272 H285 0.929 . S
C273 C272 1.373 . S
C273 C274 1.396 . S
C273 C280 1.403 . S
C274 C264 1.476 . S
C274 N269 1.318 . S
C274 C273 1.396 . S
H275 C270 0.929 1_655 S
O276 Mn252 2.385 . S
O276 C254 1.234 . S
O277 Mn252 2.209 . S
O277 Mn253 2.215 . S
O277 C254 1.283 . S
O278 Mn252 2.094 . S
O278 C256 1.240 . S
O279 Mn253 2.117 . S
O279 C256 1.264 . S
C280 C273 1.403 . S
C280 C281 1.399 . S
C280 H286 0.929 . S
C281 C261 1.449 . S
C281 C280 1.399 . S
C281 H287 0.930 . S
H282 C262 0.931 . S
H283 C263 0.930 . S
H284 C271 0.931 . S
H285 C272 0.929 . S
H286 C280 0.929 . S
H287 C281 0.930 . S
Mn288 O293 2.095 1_554 S
Mn288 O303 2.162 1_455 S
Mn288 O304 2.297 . S
Mn288 O312 2.385 . S
Mn288 O313 2.209 . S
Mn288 O314 2.094 1_554 S
Mn289 O294 2.121 . S
Mn289 N296 2.257 1_565 S
Mn289 N305 2.282 1_565 S
Mn289 O313 2.215 1_556 S
Mn289 O315 2.117 . S
C290 O312 1.234 . S
C290 O313 1.283 . S
C291 O303 1.281 . S
C291 O304 1.236 1_655 S
C292 O314 1.240 . S
C292 O315 1.264 . S
O293 Mn288 2.095 1_556 S
O293 C302 1.250 . S
O294 Mn289 2.121 . S
O294 C302 1.259 . S
C295 N296 1.326 1_554 S
C295 C299 1.460 . S
C295 H301 0.929 1_545 S
N296 Mn289 2.257 1_545 S
N296 C295 1.326 1_556 S
N296 C300 1.362 . S
C297 C298 1.258 . S
C297 C300 1.431 . S
C297 C317 1.449 . S
C298 C297 1.258 . S
C298 C299 1.477 1_556 S
C298 H318 0.928 1_556 S
C299 C295 1.460 . S
C299 C298 1.477 1_554 S
C299 H319 0.930 . S
C300 N296 1.362 . S
C300 C297 1.431 . S
C300 C310 1.476 . S
H301 C295 0.929 1_565 S
C302 O293 1.250 . S
C302 O294 1.259 . S
O303 Mn288 2.162 1_655 S
O303 C291 1.281 . S
O304 Mn288 2.297 . S
O304 C291 1.236 1_455 S
N305 Mn289 2.282 1_545 S
N305 C306 1.328 . S
N305 C310 1.318 . S
C306 N305 1.328 . S
C306 C307 1.457 . S
C306 H311 0.929 1_545 S
C307 C306 1.457 . S
C307 C308 1.291 . S
C307 H320 0.931 . S
C308 C307 1.291 . S
C308 C309 1.373 . S
C308 H321 0.929 . S
C309 C308 1.373 . S
C309 C310 1.396 . S
C309 C316 1.403 . S
C310 C300 1.476 . S
C310 N305 1.318 . S
C310 C309 1.396 . S
H311 C306 0.929 1_565 S
O312 Mn288 2.385 . S
O312 C290 1.234 . S
O313 Mn288 2.209 . S
O313 Mn289 2.215 1_554 S
O313 C290 1.283 . S
O314 Mn288 2.094 1_556 S
O314 C292 1.240 . S
O315 Mn289 2.117 . S
O315 C292 1.264 . S
C316 C309 1.403 . S
C316 C317 1.399 . S
C316 H322 0.929 . S
C317 C297 1.449 . S
C317 C316 1.399 . S
C317 H323 0.930 . S
H318 C298 0.928 1_554 S
H319 C299 0.930 . S
H320 C307 0.931 . S
H321 C308 0.929 . S
H322 C316 0.929 . S
H323 C317 0.930 . S
Mn324 O329 2.095 . S
Mn324 O339 2.162 1_545 S
Mn324 O340 2.297 . S
Mn324 O348 2.385 . S
Mn324 O349 2.209 . S
Mn324 O350 2.094 . S
Mn325 O330 2.121 . S
Mn325 N332 2.257 . S
Mn325 N341 2.282 . S
Mn325 O349 2.215 . S
Mn325 O351 2.117 . S
C326 O348 1.234 . S
C326 O349 1.283 . S
C327 O339 1.281 . S
C327 O340 1.236 1_565 S
C328 O350 1.240 . S
C328 O351 1.264 . S
O329 Mn324 2.095 . S
O329 C338 1.250 . S
O330 Mn325 2.121 . S
O330 C338 1.258 . S
C331 N332 1.326 . S
C331 C335 1.460 . S
C331 H337 0.929 . S
N332 Mn325 2.257 . S
N332 C331 1.326 . S
N332 C336 1.362 . S
C333 C334 1.258 . S
C333 C336 1.431 . S
C333 C353 1.449 . S
C334 C333 1.258 . S
C334 C335 1.477 . S
C334 H354 0.931 . S
C335 C331 1.460 . S
C335 C334 1.477 . S
C335 H355 0.930 . S
C336 N332 1.362 . S
C336 C333 1.431 . S
C336 C346 1.476 . S
H337 C331 0.929 . S
C338 O329 1.250 . S
C338 O330 1.258 . S
O339 Mn324 2.162 1_565 S
O339 C327 1.281 . S
O340 Mn324 2.297 . S
O340 C327 1.236 1_545 S
N341 Mn325 2.282 . S
N341 C342 1.328 . S
N341 C346 1.318 . S
C342 N341 1.328 . S
C342 C343 1.457 . S
C342 H347 0.929 . S
C343 C342 1.457 . S
C343 C344 1.291 . S
C343 H356 0.931 . S
C344 C343 1.291 . S
C344 C345 1.373 . S
C344 H357 0.929 . S
C345 C344 1.373 . S
C345 C346 1.396 . S
C345 C352 1.403 . S
C346 C336 1.476 . S
C346 N341 1.318 . S
C346 C345 1.396 . S
H347 C342 0.929 . S
O348 Mn324 2.385 . S
O348 C326 1.234 . S
O349 Mn324 2.209 . S
O349 Mn325 2.215 . S
O349 C326 1.283 . S
O350 Mn324 2.094 . S
O350 C328 1.240 . S
O351 Mn325 2.117 . S
O351 C328 1.264 . S
C352 C345 1.403 . S
C352 C353 1.399 . S
C352 H358 0.929 . S
C353 C333 1.449 . S
C353 C352 1.399 . S
C353 H359 0.930 . S
H354 C334 0.931 . S
H355 C335 0.930 . S
H356 C343 0.931 . S
H357 C344 0.929 . S
H358 C352 0.929 . S
H359 C353 0.930 . S
Mn360 O365 2.095 . S
Mn360 O375 2.162 . S
Mn360 O376 2.297 . S
Mn360 O384 2.385 . S
Mn360 O385 2.209 . S
Mn360 O386 2.094 . S
Mn361 O366 2.121 . S
Mn361 N368 2.257 1_455 S
Mn361 N377 2.282 1_455 S
Mn361 O385 2.215 . S
Mn361 O387 2.117 . S
C362 O384 1.234 . S
C362 O385 1.283 . S
C363 O375 1.281 . S
C363 O376 1.236 . S
C364 O386 1.240 . S
C364 O387 1.264 . S
O365 Mn360 2.095 . S
O365 C374 1.250 . S
O366 Mn361 2.121 . S
O366 C374 1.258 . S
C367 N368 1.326 . S
C367 C371 1.460 . S
C367 H373 0.929 1_655 S
N368 Mn361 2.257 1_655 S
N368 C367 1.326 . S
N368 C372 1.362 . S
C369 C370 1.258 . S
C369 C372 1.431 . S
C369 C389 1.449 . S
C370 C369 1.258 . S
C370 C371 1.477 . S
C370 H390 0.931 . S
C371 C367 1.460 . S
C371 C370 1.477 . S
C371 H391 0.930 . S
C372 N368 1.362 . S
C372 C369 1.431 . S
C372 C382 1.476 . S
H373 C367 0.929 1_455 S
C374 O365 1.250 . S
C374 O366 1.258 . S
O375 Mn360 2.162 . S
O375 C363 1.281 . S
O376 Mn360 2.297 . S
O376 C363 1.236 . S
N377 Mn361 2.282 1_655 S
N377 C378 1.328 . S
N377 C382 1.318 . S
C378 N377 1.328 . S
C378 C379 1.457 . S
C378 H383 0.929 1_655 S
C379 C378 1.457 . S
C379 C380 1.291 . S
C379 H392 0.931 . S
C380 C379 1.291 . S
C380 C381 1.373 . S
C380 H393 0.929 . S
C381 C380 1.373 . S
C381 C382 1.396 . S
C381 C388 1.403 . S
C382 C372 1.476 . S
C382 N377 1.318 . S
C382 C381 1.396 . S
H383 C378 0.929 1_455 S
O384 Mn360 2.385 . S
O384 C362 1.234 . S
O385 Mn360 2.209 . S
O385 Mn361 2.215 . S
O385 C362 1.283 . S
O386 Mn360 2.094 . S
O386 C364 1.240 . S
O387 Mn361 2.117 . S
O387 C364 1.264 . S
C388 C381 1.403 . S
C388 C389 1.399 . S
C388 H394 0.929 . S
C389 C369 1.449 . S
C389 C388 1.399 . S
C389 H395 0.930 . S
H390 C370 0.931 . S
H391 C371 0.930 . S
H392 C379 0.931 . S
H393 C380 0.929 . S
H394 C388 0.929 . S
H395 C389 0.930 . S
Mn396 O401 2.095 1_554 S
Mn396 O411 2.162 1_655 S
Mn396 O412 2.297 . S
Mn396 O420 2.385 . S
Mn396 O421 2.209 . S
Mn396 O422 2.094 1_554 S
Mn397 O402 2.121 . S
Mn397 N404 2.257 1_545 S
Mn397 N413 2.282 1_545 S
Mn397 O421 2.215 1_556 S
Mn397 O423 2.117 . S
C398 O420 1.234 . S
C398 O421 1.283 . S
C399 O411 1.281 . S
C399 O412 1.236 1_455 S
C400 O422 1.240 . S
C400 O423 1.264 . S
O401 Mn396 2.095 1_556 S
O401 C410 1.250 . S
O402 Mn397 2.121 . S
O402 C410 1.259 . S
C403 N404 1.326 1_554 S
C403 C407 1.460 . S
C403 H409 0.929 1_565 S
N404 Mn397 2.257 1_565 S
N404 C403 1.326 1_556 S
N404 C408 1.362 . S
C405 C406 1.258 . S
C405 C408 1.431 . S
C405 C425 1.449 . S
C406 C405 1.258 . S
C406 C407 1.477 1_556 S
C406 H426 0.928 1_556 S
C407 C403 1.460 . S
C407 C406 1.477 1_554 S
C407 H427 0.930 . S
C408 N404 1.362 . S
C408 C405 1.431 . S
C408 C418 1.476 . S
H409 C403 0.929 1_545 S
C410 O401 1.250 . S
C410 O402 1.259 . S
O411 Mn396 2.162 1_455 S
O411 C399 1.281 . S
O412 Mn396 2.297 . S
O412 C399 1.236 1_655 S
N413 Mn397 2.282 1_565 S
N413 C414 1.328 . S
N413 C418 1.318 . S
C414 N413 1.328 . S
C414 C415 1.457 . S
C414 H419 0.929 1_565 S
C415 C414 1.457 . S
C415 C416 1.291 . S
C415 H428 0.931 . S
C416 C415 1.291 . S
C416 C417 1.373 . S
C416 H429 0.929 . S
C417 C416 1.373 . S
C417 C418 1.396 . S
C417 C424 1.403 . S
C418 C408 1.476 . S
C418 N413 1.318 . S
C418 C417 1.396 . S
H419 C414 0.929 1_545 S
O420 Mn396 2.385 . S
O420 C398 1.234 . S
O421 Mn396 2.209 . S
O421 Mn397 2.215 1_554 S
O421 C398 1.283 . S
O422 Mn396 2.094 1_556 S
O422 C400 1.240 . S
O423 Mn397 2.117 . S
O423 C400 1.264 . S
C424 C417 1.403 . S
C424 C425 1.399 . S
C424 H430 0.929 . S
C425 C405 1.449 . S
C425 C424 1.399 . S
C425 H431 0.930 . S
H426 C406 0.928 1_554 S
H427 C407 0.930 . S
H428 C415 0.931 . S
H429 C416 0.929 . S
H430 C424 0.929 . S
H431 C425 0.930 . S
C14 C230 1.284 . S
C50 C266 1.283 . S
C86 C302 1.202 1_554 S
C338 C122 1.284 . S
C158 C374 1.283 . S
C410 C194 1.202 1_556 S
C2 C326 1.191 . S
C38 C362 1.191 1_655 S
C398 C74 1.218 1_544 S
C218 C110 1.191 . S
C146 C254 1.191 1_455 S
C182 C290 1.218 1_546 S
C399 C3 2.087 1_455 S
C39 C219 2.230 1_565 S
C75 C255 2.087 . S
C291 C111 2.087 1_655 S
C327 C147 2.230 1_565 S
C183 C363 2.087 . S
C4 C364 2.193 . S
C400 C40 2.186 . S
C220 C76 2.186 . S
C112 C256 2.192 . S
C292 C148 2.186 . S
C328 C184 2.186 . S
