# Generated by pormake.
# Topology mer, (4)-cn, num edge types: 1
# Building blocks:
#     Node 0, Type 0, BuildingBlock: CEKHIL_clean_sbu_0, # of connection points: 4
#     Node 1, Type 0, BuildingBlock: CEKHIL_clean_sbu_0, # of connection points: 4
#     Node 2, Type 0, BuildingBlock: CEKHIL_clean_sbu_0, # of connection points: 4
#     Node 3, Type 0, BuildingBlock: CEKHIL_clean_sbu_0, # of connection points: 4
#     Node 4, Type 0, BuildingBlock: CEKHIL_clean_sbu_0, # of connection points: 4
#     Node 5, Type 0, BuildingBlock: CEKHIL_clean_sbu_0, # of connection points: 4
#     Node 6, Type 0, BuildingBlock: CEKHIL_clean_sbu_0, # of connection points: 4
#     Node 7, Type 0, BuildingBlock: CEKHIL_clean_sbu_0, # of connection points: 4
#     Node 8, Type 0, BuildingBlock: CEKHIL_clean_sbu_0, # of connection points: 4
#     Node 9, Type 0, BuildingBlock: CEKHIL_clean_sbu_0, # of connection points: 4
#     Node 10, Type 0, BuildingBlock: CEKHIL_clean_sbu_0, # of connection points: 4
#     Node 11, Type 0, BuildingBlock: CEKHIL_clean_sbu_0, # of connection points: 4
#     Node 12, Type 0, BuildingBlock: CEKHIL_clean_sbu_0, # of connection points: 4
#     Node 13, Type 0, BuildingBlock: CEKHIL_clean_sbu_0, # of connection points: 4
#     Node 14, Type 0, BuildingBlock: CEKHIL_clean_sbu_0, # of connection points: 4
#     Node 15, Type 0, BuildingBlock: CEKHIL_clean_sbu_0, # of connection points: 4
#     Node 16, Type 0, BuildingBlock: CEKHIL_clean_sbu_0, # of connection points: 4
#     Node 17, Type 0, BuildingBlock: CEKHIL_clean_sbu_0, # of connection points: 4
#     Node 18, Type 0, BuildingBlock: CEKHIL_clean_sbu_0, # of connection points: 4
#     Node 19, Type 0, BuildingBlock: CEKHIL_clean_sbu_0, # of connection points: 4
#     Node 20, Type 0, BuildingBlock: CEKHIL_clean_sbu_0, # of connection points: 4
#     Node 21, Type 0, BuildingBlock: CEKHIL_clean_sbu_0, # of connection points: 4
#     Node 22, Type 0, BuildingBlock: CEKHIL_clean_sbu_0, # of connection points: 4
#     Node 23, Type 0, BuildingBlock: CEKHIL_clean_sbu_0, # of connection points: 4
#     Node 24, Type 0, BuildingBlock: CEKHIL_clean_sbu_0, # of connection points: 4
#     Node 25, Type 0, BuildingBlock: CEKHIL_clean_sbu_0, # of connection points: 4
#     Node 26, Type 0, BuildingBlock: CEKHIL_clean_sbu_0, # of connection points: 4
#     Node 27, Type 0, BuildingBlock: CEKHIL_clean_sbu_0, # of connection points: 4
#     Node 28, Type 0, BuildingBlock: CEKHIL_clean_sbu_0, # of connection points: 4
#     Node 29, Type 0, BuildingBlock: CEKHIL_clean_sbu_0, # of connection points: 4
#     Node 30, Type 0, BuildingBlock: CEKHIL_clean_sbu_0, # of connection points: 4
#     Node 31, Type 0, BuildingBlock: CEKHIL_clean_sbu_0, # of connection points: 4
#     Edge 32, Type (0, 0), BuildingBlock: EZIPEK_clean_linker_0, # of connection points: 2
#     Edge 33, Type (0, 0), BuildingBlock: EZIPEK_clean_linker_0, # of connection points: 2
#     Edge 34, Type (0, 0), BuildingBlock: EZIPEK_clean_linker_0, # of connection points: 2
#     Edge 35, Type (0, 0), BuildingBlock: EZIPEK_clean_linker_0, # of connection points: 2
#     Edge 36, Type (0, 0), BuildingBlock: EZIPEK_clean_linker_0, # of connection points: 2
#     Edge 37, Type (0, 0), BuildingBlock: EZIPEK_clean_linker_0, # of connection points: 2
#     Edge 38, Type (0, 0), BuildingBlock: EZIPEK_clean_linker_0, # of connection points: 2
#     Edge 39, Type (0, 0), BuildingBlock: EZIPEK_clean_linker_0, # of connection points: 2
#     Edge 40, Type (0, 0), BuildingBlock: EZIPEK_clean_linker_0, # of connection points: 2
#     Edge 41, Type (0, 0), BuildingBlock: EZIPEK_clean_linker_0, # of connection points: 2
#     Edge 42, Type (0, 0), BuildingBlock: EZIPEK_clean_linker_0, # of connection points: 2
#     Edge 43, Type (0, 0), BuildingBlock: EZIPEK_clean_linker_0, # of connection points: 2
#     Edge 44, Type (0, 0), BuildingBlock: EZIPEK_clean_linker_0, # of connection points: 2
#     Edge 45, Type (0, 0), BuildingBlock: EZIPEK_clean_linker_0, # of connection points: 2
#     Edge 46, Type (0, 0), BuildingBlock: EZIPEK_clean_linker_0, # of connection points: 2
#     Edge 47, Type (0, 0), BuildingBlock: EZIPEK_clean_linker_0, # of connection points: 2
#     Edge 48, Type (0, 0), BuildingBlock: EZIPEK_clean_linker_0, # of connection points: 2
#     Edge 49, Type (0, 0), BuildingBlock: EZIPEK_clean_linker_0, # of connection points: 2
#     Edge 50, Type (0, 0), BuildingBlock: EZIPEK_clean_linker_0, # of connection points: 2
#     Edge 51, Type (0, 0), BuildingBlock: EZIPEK_clean_linker_0, # of connection points: 2
#     Edge 52, Type (0, 0), BuildingBlock: EZIPEK_clean_linker_0, # of connection points: 2
#     Edge 53, Type (0, 0), BuildingBlock: EZIPEK_clean_linker_0, # of connection points: 2
#     Edge 54, Type (0, 0), BuildingBlock: EZIPEK_clean_linker_0, # of connection points: 2
#     Edge 55, Type (0, 0), BuildingBlock: EZIPEK_clean_linker_0, # of connection points: 2
#     Edge 56, Type (0, 0), BuildingBlock: EZIPEK_clean_linker_0, # of connection points: 2
#     Edge 57, Type (0, 0), BuildingBlock: EZIPEK_clean_linker_0, # of connection points: 2
#     Edge 58, Type (0, 0), BuildingBlock: EZIPEK_clean_linker_0, # of connection points: 2
#     Edge 59, Type (0, 0), BuildingBlock: EZIPEK_clean_linker_0, # of connection points: 2
#     Edge 60, Type (0, 0), BuildingBlock: EZIPEK_clean_linker_0, # of connection points: 2
#     Edge 61, Type (0, 0), BuildingBlock: EZIPEK_clean_linker_0, # of connection points: 2
#     Edge 62, Type (0, 0), BuildingBlock: EZIPEK_clean_linker_0, # of connection points: 2
#     Edge 63, Type (0, 0), BuildingBlock: EZIPEK_clean_linker_0, # of connection points: 2
#     Edge 64, Type (0, 0), BuildingBlock: EZIPEK_clean_linker_0, # of connection points: 2
#     Edge 65, Type (0, 0), BuildingBlock: EZIPEK_clean_linker_0, # of connection points: 2
#     Edge 66, Type (0, 0), BuildingBlock: EZIPEK_clean_linker_0, # of connection points: 2
#     Edge 67, Type (0, 0), BuildingBlock: EZIPEK_clean_linker_0, # of connection points: 2
#     Edge 68, Type (0, 0), BuildingBlock: EZIPEK_clean_linker_0, # of connection points: 2
#     Edge 69, Type (0, 0), BuildingBlock: EZIPEK_clean_linker_0, # of connection points: 2
#     Edge 70, Type (0, 0), BuildingBlock: EZIPEK_clean_linker_0, # of connection points: 2
#     Edge 71, Type (0, 0), BuildingBlock: EZIPEK_clean_linker_0, # of connection points: 2
#     Edge 72, Type (0, 0), BuildingBlock: EZIPEK_clean_linker_0, # of connection points: 2
#     Edge 73, Type (0, 0), BuildingBlock: EZIPEK_clean_linker_0, # of connection points: 2
#     Edge 74, Type (0, 0), BuildingBlock: EZIPEK_clean_linker_0, # of connection points: 2
#     Edge 75, Type (0, 0), BuildingBlock: EZIPEK_clean_linker_0, # of connection points: 2
#     Edge 76, Type (0, 0), BuildingBlock: EZIPEK_clean_linker_0, # of connection points: 2
#     Edge 77, Type (0, 0), BuildingBlock: EZIPEK_clean_linker_0, # of connection points: 2
#     Edge 78, Type (0, 0), BuildingBlock: EZIPEK_clean_linker_0, # of connection points: 2
#     Edge 79, Type (0, 0), BuildingBlock: EZIPEK_clean_linker_0, # of connection points: 2
#     Edge 80, Type (0, 0), BuildingBlock: EZIPEK_clean_linker_0, # of connection points: 2
#     Edge 81, Type (0, 0), BuildingBlock: EZIPEK_clean_linker_0, # of connection points: 2
#     Edge 82, Type (0, 0), BuildingBlock: EZIPEK_clean_linker_0, # of connection points: 2
#     Edge 83, Type (0, 0), BuildingBlock: EZIPEK_clean_linker_0, # of connection points: 2
#     Edge 84, Type (0, 0), BuildingBlock: EZIPEK_clean_linker_0, # of connection points: 2
#     Edge 85, Type (0, 0), BuildingBlock: EZIPEK_clean_linker_0, # of connection points: 2
#     Edge 86, Type (0, 0), BuildingBlock: EZIPEK_clean_linker_0, # of connection points: 2
#     Edge 87, Type (0, 0), BuildingBlock: EZIPEK_clean_linker_0, # of connection points: 2
#     Edge 88, Type (0, 0), BuildingBlock: EZIPEK_clean_linker_0, # of connection points: 2
#     Edge 89, Type (0, 0), BuildingBlock: EZIPEK_clean_linker_0, # of connection points: 2
#     Edge 90, Type (0, 0), BuildingBlock: EZIPEK_clean_linker_0, # of connection points: 2
#     Edge 91, Type (0, 0), BuildingBlock: EZIPEK_clean_linker_0, # of connection points: 2
#     Edge 92, Type (0, 0), BuildingBlock: EZIPEK_clean_linker_0, # of connection points: 2
#     Edge 93, Type (0, 0), BuildingBlock: EZIPEK_clean_linker_0, # of connection points: 2
#     Edge 94, Type (0, 0), BuildingBlock: EZIPEK_clean_linker_0, # of connection points: 2
#     Edge 95, Type (0, 0), BuildingBlock: EZIPEK_clean_linker_0, # of connection points: 2
# Relax obj value: 0.064
# Max RMSD: 0.120
# Mean RMSD: 0.120
data_MOF--net-mer--node1-CEKHIL_clean_sbu_0--edge1-EZIPEK_clean_linker_0
_symmetry_space_group_name_H-M    P1
_symmetry_Int_Tables_number       1
_symmetry_cell_setting            triclinic
loop_
_symmetry_equiv_pos_as_xyz
'x, y, z'
_cell_length_a     45.595673
_cell_length_b     45.435148
_cell_length_c     39.080591
_cell_angle_alpha  90.047439
_cell_angle_beta   89.902257
_cell_angle_gamma 89.993833
loop_
_atom_site_label
_atom_site_type_symbol
_atom_site_fract_x
_atom_site_fract_y
_atom_site_fract_z
_atom_type_partial_charge
Co0 Co 0.11344 0.29636 0.35062 0.0
O1 O 0.07542 0.31465 0.34911 0.0
O2 O 0.0834 0.26698 0.35759 0.0
C3 C 0.13184 0.31838 0.30351 0.0
O4 O 0.14926 0.26908 0.35194 0.0
Co5 Co 0.16935 0.33311 0.36282 0.0
O6 O 0.19073 0.29561 0.35665 0.0
C7 C 0.13178 0.31864 0.42158 0.0
C8 C 0.06485 0.28852 0.35436 0.0
C9 C 0.17745 0.27111 0.35358 0.0
O10 O 0.11528 0.30348 0.4016 0.0
O11 O 0.15368 0.33365 0.41086 0.0
O12 O 0.11482 0.29559 0.30094 0.0
O13 O 0.13473 0.32906 0.3341 0.0
Co14 Co 0.71208 0.1148 0.34524 0.0
O15 O 0.69287 0.07731 0.34084 0.0
O16 O 0.7403 0.08354 0.35141 0.0
C17 C 0.69128 0.13561 0.29872 0.0
O18 O 0.74009 0.14957 0.35087 0.0
Co19 Co 0.6765 0.17153 0.3586 0.0
O20 O 0.71444 0.19183 0.35158 0.0
C21 C 0.68942 0.13176 0.41614 0.0
C22 C 0.71836 0.0657 0.34677 0.0
C23 C 0.73865 0.17786 0.35144 0.0
O24 O 0.70383 0.11481 0.39587 0.0
O25 O 0.67558 0.15469 0.40613 0.0
O26 O 0.71418 0.11883 0.29552 0.0
O27 O 0.68019 0.13736 0.32913 0.0
Co28 Co 0.88938 0.70681 0.35445 0.0
O29 O 0.92585 0.68557 0.35247 0.0
O30 O 0.92162 0.73377 0.36076 0.0
C31 C 0.86949 0.68514 0.30767 0.0
O32 O 0.85633 0.73696 0.35698 0.0
Co33 Co 0.83018 0.67533 0.36588 0.0
O34 O 0.81269 0.71413 0.3548 0.0
C35 C 0.86853 0.68738 0.42505 0.0
C36 C 0.93842 0.71085 0.35731 0.0
C37 C 0.8282 0.73744 0.35503 0.0
O38 O 0.8869 0.70064 0.40543 0.0
O39 O 0.84543 0.6744 0.41417 0.0
O40 O 0.88736 0.70724 0.30459 0.0
O41 O 0.8657 0.67545 0.33849 0.0
Co42 Co 0.29063 0.89273 0.34625 0.0
O43 O 0.31246 0.92905 0.3443 0.0
O44 O 0.26397 0.92579 0.34714 0.0
C45 C 0.31509 0.86934 0.30342 0.0
O46 O 0.25986 0.85998 0.34698 0.0
Co47 Co 0.31977 0.83506 0.3678 0.0
O48 O 0.28017 0.81748 0.36448 0.0
C49 C 0.30595 0.87812 0.42078 0.0
C50 C 0.28723 0.94227 0.34568 0.0
C51 C 0.25828 0.83245 0.35443 0.0
O52 O 0.29284 0.89374 0.39804 0.0
O53 O 0.32032 0.8548 0.41352 0.0
O54 O 0.2941 0.8878 0.29687 0.0
O55 O 0.32273 0.86754 0.33531 0.0
Co56 Co 0.11319 0.70757 0.63742 0.0
O57 O 0.07469 0.69002 0.63837 0.0
O58 O 0.08341 0.73775 0.6328 0.0
C59 C 0.13007 0.68092 0.68307 0.0
O60 O 0.14909 0.7344 0.63631 0.0
Co61 Co 0.1691 0.67173 0.62476 0.0
O62 O 0.19069 0.70794 0.63711 0.0
C63 C 0.13175 0.68794 0.56627 0.0
C64 C 0.06442 0.71647 0.63486 0.0
C65 C 0.17718 0.73241 0.63793 0.0
O66 O 0.11492 0.70289 0.58617 0.0
O67 O 0.15336 0.67248 0.57685 0.0
O68 O 0.1158 0.70547 0.68716 0.0
O69 O 0.13318 0.67317 0.65149 0.0
Co70 Co 0.28363 0.11503 0.6428 0.0
O71 O 0.30183 0.07695 0.64712 0.0
O72 O 0.25454 0.08437 0.63706 0.0
C73 C 0.30527 0.13565 0.68924 0.0
O74 O 0.25659 0.15057 0.63732 0.0
Co75 Co 0.32118 0.17023 0.62835 0.0
O76 O 0.28351 0.19179 0.63149 0.0
C77 C 0.30773 0.12993 0.57175 0.0
C78 C 0.27599 0.06595 0.64174 0.0
C79 C 0.2589 0.17866 0.63384 0.0
O80 O 0.29138 0.11473 0.5919 0.0
O81 O 0.32336 0.15165 0.58179 0.0
O82 O 0.28204 0.11938 0.69263 0.0
O83 O 0.31625 0.13681 0.65874 0.0
Co84 Co 0.88694 0.29479 0.639 0.0
O85 O 0.92238 0.31777 0.6418 0.0
O86 O 0.92059 0.26966 0.632 0.0
C87 C 0.86528 0.31389 0.68649 0.0
O88 O 0.85547 0.2631 0.63583 0.0
Co89 Co 0.82752 0.32481 0.62636 0.0
O90 O 0.81198 0.28402 0.62374 0.0
C91 C 0.86808 0.31866 0.5692 0.0
C92 C 0.93625 0.29327 0.6363 0.0
C93 C 0.82793 0.26152 0.62923 0.0
O94 O 0.88436 0.30208 0.58792 0.0
O95 O 0.84592 0.33273 0.58076 0.0
O96 O 0.88454 0.29295 0.68893 0.0
O97 O 0.86166 0.32455 0.6561 0.0
Co98 Co 0.70782 0.88938 0.63304 0.0
O99 O 0.6882 0.92687 0.63055 0.0
O100 O 0.73644 0.9206 0.62854 0.0
C101 C 0.68132 0.87259 0.67834 0.0
O102 O 0.73637 0.8547 0.63648 0.0
Co103 Co 0.67484 0.83107 0.62146 0.0
O104 O 0.71147 0.81196 0.63683 0.0
C105 C 0.68886 0.86863 0.56254 0.0
C106 C 0.71415 0.93845 0.62877 0.0
C107 C 0.73528 0.82645 0.63909 0.0
O108 O 0.70512 0.88496 0.58161 0.0
O109 O 0.67306 0.84759 0.57406 0.0
O110 O 0.704 0.88948 0.68266 0.0
O111 O 0.67445 0.86779 0.64676 0.0
Co112 Co 0.88936 0.71277 0.64198 0.0
O113 O 0.9269 0.69344 0.63905 0.0
O114 O 0.92005 0.74164 0.63482 0.0
C115 C 0.8729 0.68878 0.6888 0.0
O116 O 0.85401 0.74062 0.64513 0.0
Co117 Co 0.8322 0.67646 0.632 0.0
O118 O 0.81217 0.7146 0.64012 0.0
C119 C 0.86875 0.69038 0.57243 0.0
C120 C 0.93811 0.71948 0.63532 0.0
C121 C 0.82576 0.73889 0.6441 0.0
O122 O 0.88395 0.70822 0.59087 0.0
O123 O 0.84896 0.67338 0.58461 0.0
O124 O 0.89086 0.7108 0.69185 0.0
O125 O 0.8683 0.67999 0.6578 0.0
Co126 Co 0.28492 0.89036 0.63988 0.0
O127 O 0.3027 0.92869 0.64305 0.0
O128 O 0.25505 0.92058 0.63668 0.0
C129 C 0.30925 0.87004 0.68467 0.0
O130 O 0.25834 0.85409 0.63697 0.0
Co131 Co 0.32228 0.83699 0.62053 0.0
O132 O 0.28475 0.81501 0.6195 0.0
C133 C 0.30586 0.87777 0.56656 0.0
C134 C 0.27647 0.93931 0.63972 0.0
C135 C 0.26067 0.82671 0.6287 0.0
O136 O 0.28966 0.8914 0.58835 0.0
O137 O 0.32299 0.85673 0.57483 0.0
O138 O 0.28598 0.88596 0.68947 0.0
O139 O 0.31896 0.86915 0.65345 0.0
Co140 Co 0.11214 0.30041 0.63924 0.0
O141 O 0.0755 0.32131 0.6427 0.0
O142 O 0.07989 0.27338 0.6329 0.0
C143 C 0.13303 0.32082 0.68606 0.0
O144 O 0.14558 0.27083 0.63456 0.0
Co145 Co 0.17066 0.3334 0.62729 0.0
O146 O 0.18881 0.29452 0.63654 0.0
C147 C 0.13124 0.32238 0.5689 0.0
C148 C 0.06294 0.29609 0.63729 0.0
C149 C 0.17378 0.27089 0.63559 0.0
O150 O 0.11368 0.30796 0.58846 0.0
O151 O 0.15413 0.33579 0.57967 0.0
O152 O 0.11519 0.2987 0.68912 0.0
O153 O 0.13579 0.33146 0.65556 0.0
Co154 Co 0.70871 0.11463 0.63534 0.0
O155 O 0.6881 0.07764 0.63839 0.0
O156 O 0.73613 0.08245 0.63095 0.0
C157 C 0.68675 0.13682 0.68082 0.0
O158 O 0.73829 0.1482 0.63218 0.0
Co159 Co 0.67658 0.17174 0.61773 0.0
O160 O 0.716 0.19015 0.61625 0.0
C161 C 0.68891 0.13035 0.56265 0.0
C162 C 0.71352 0.06526 0.6341 0.0
C163 C 0.73881 0.17568 0.62435 0.0
O164 O 0.70335 0.11452 0.58399 0.0
O165 O 0.67423 0.15306 0.57148 0.0
O166 O 0.70856 0.11881 0.685 0.0
O167 O 0.67683 0.13879 0.64981 0.0
Co168 Co 0.89016 0.29324 0.35264 0.0
O169 O 0.92781 0.312 0.34905 0.0
O170 O 0.92083 0.26458 0.36017 0.0
C171 C 0.87123 0.31389 0.3049 0.0
O172 O 0.85486 0.26584 0.35744 0.0
Co173 Co 0.83338 0.32959 0.3623 0.0
O174 O 0.81355 0.29205 0.35044 0.0
C175 C 0.8716 0.31782 0.42188 0.0
C176 C 0.93894 0.28628 0.3552 0.0
C177 C 0.82687 0.26756 0.3537 0.0
O178 O 0.88861 0.30196 0.40321 0.0
O179 O 0.84927 0.33167 0.41028 0.0
O180 O 0.88765 0.29062 0.30279 0.0
O181 O 0.86859 0.32525 0.33508 0.0
Co182 Co 0.71376 0.88982 0.34679 0.0
O183 O 0.69328 0.92688 0.34586 0.0
O184 O 0.74107 0.92162 0.35473 0.0
C185 C 0.69227 0.87177 0.2989 0.0
O186 O 0.74321 0.85612 0.34852 0.0
Co187 Co 0.67993 0.83112 0.35484 0.0
O188 O 0.71945 0.81279 0.35083 0.0
C189 C 0.68835 0.86925 0.41456 0.0
C190 C 0.71864 0.93898 0.35114 0.0
C191 C 0.74303 0.82786 0.34964 0.0
O192 O 0.70656 0.88527 0.39758 0.0
O193 O 0.67197 0.84979 0.40059 0.0
O194 O 0.71482 0.88913 0.29668 0.0
O195 O 0.68232 0.86743 0.32938 0.0
Co196 Co 0.11385 0.70946 0.34985 0.0
O197 O 0.07805 0.68715 0.35203 0.0
O198 O 0.08112 0.73578 0.35663 0.0
C199 C 0.13227 0.68669 0.30312 0.0
O200 O 0.14635 0.74018 0.34744 0.0
Co201 Co 0.17388 0.67856 0.36011 0.0
O202 O 0.19048 0.71809 0.35062 0.0
C203 C 0.1357 0.68915 0.41939 0.0
C204 C 0.06488 0.71228 0.35566 0.0
C205 C 0.17457 0.74101 0.3477 0.0
O206 O 0.11903 0.70538 0.40082 0.0
O207 O 0.15728 0.67428 0.40755 0.0
O208 O 0.11303 0.7076 0.30018 0.0
O209 O 0.13767 0.67842 0.33415 0.0
Co210 Co 0.29391 0.1188 0.351 0.0
O211 O 0.31434 0.08181 0.34686 0.0
O212 O 0.26612 0.08665 0.35218 0.0
C213 C 0.31788 0.14199 0.3077 0.0
O214 O 0.26443 0.1527 0.35383 0.0
Co215 Co 0.32588 0.17464 0.37284 0.0
O216 O 0.28777 0.19479 0.36688 0.0
C217 C 0.31081 0.13195 0.42558 0.0
C218 C 0.28874 0.06945 0.34889 0.0
C219 C 0.26469 0.18064 0.35922 0.0
O220 O 0.29756 0.11667 0.40263 0.0
O221 O 0.32547 0.15513 0.41864 0.0
O222 O 0.29585 0.12464 0.30177 0.0
O223 O 0.32676 0.14282 0.33922 0.0
Co224 Co 0.61141 0.79449 0.84506 0.0
O225 O 0.5752 0.81619 0.84195 0.0
O226 O 0.57865 0.76792 0.84973 0.0
C227 C 0.63436 0.81616 0.79977 0.0
O228 O 0.64421 0.76404 0.84877 0.0
Co229 Co 0.67031 0.82558 0.86053 0.0
O230 O 0.68801 0.78681 0.85036 0.0
C231 C 0.62923 0.81347 0.91691 0.0
C232 C 0.56215 0.79107 0.84646 0.0
C233 C 0.67243 0.7636 0.84897 0.0
O234 O 0.61185 0.80037 0.89605 0.0
O235 O 0.65277 0.82655 0.90762 0.0
O236 O 0.61554 0.79497 0.79536 0.0
O237 O 0.63621 0.82532 0.83094 0.0
Co238 Co 0.21289 0.61535 0.84923 0.0
O239 O 0.19631 0.57641 0.85097 0.0
O240 O 0.24384 0.58653 0.85438 0.0
C241 C 0.18519 0.62964 0.80326 0.0
O242 O 0.23867 0.6518 0.84736 0.0
Co243 Co 0.17467 0.67053 0.85983 0.0
O244 O 0.21148 0.69291 0.85166 0.0
C245 C 0.19022 0.63393 0.91892 0.0
C246 C 0.22305 0.56697 0.85364 0.0
C247 C 0.23606 0.67992 0.84813 0.0
O248 O 0.20892 0.6197 0.90052 0.0
O249 O 0.1715 0.6519 0.90636 0.0
O250 O 0.20983 0.61561 0.79938 0.0
O251 O 0.17809 0.63389 0.8348 0.0
Co252 Co 0.38789 0.20809 0.85102 0.0
O253 O 0.42505 0.18825 0.84689 0.0
O254 O 0.41947 0.23589 0.85766 0.0
C255 C 0.36737 0.18779 0.80386 0.0
O256 O 0.35368 0.23668 0.85645 0.0
Co257 Co 0.33023 0.17348 0.86245 0.0
O258 O 0.31114 0.21193 0.85325 0.0
C259 C 0.36949 0.18473 0.92099 0.0
C260 C 0.43698 0.21371 0.85263 0.0
C261 C 0.32552 0.23594 0.85494 0.0
O262 O 0.3867 0.19983 0.90169 0.0
O263 O 0.3469 0.17095 0.91 0.0
O264 O 0.38458 0.21044 0.80118 0.0
O265 O 0.365 0.17666 0.83417 0.0
Co266 Co 0.79307 0.38936 0.85355 0.0
O267 O 0.81414 0.42596 0.85025 0.0
O268 O 0.76635 0.42191 0.86006 0.0
C269 C 0.81346 0.36888 0.80647 0.0
O270 O 0.76324 0.35594 0.85788 0.0
Co271 Co 0.82519 0.3303 0.86467 0.0
O272 O 0.78642 0.31236 0.8553 0.0
C273 C 0.81471 0.36962 0.9236 0.0
C274 C 0.78909 0.43875 0.8556 0.0
C275 C 0.76302 0.32764 0.85631 0.0
O276 O 0.8009 0.38775 0.90421 0.0
O277 O 0.82735 0.34629 0.91259 0.0
O278 O 0.79123 0.38658 0.80378 0.0
O279 O 0.824 0.36562 0.83693 0.0
Co280 Co 0.61448 0.21128 0.13563 0.0
O281 O 0.57721 0.19168 0.13889 0.0
O282 O 0.58321 0.23938 0.12874 0.0
C283 C 0.63405 0.19051 0.18287 0.0
O284 O 0.64905 0.23952 0.13123 0.0
Co285 Co 0.67182 0.17594 0.12481 0.0
O286 O 0.69112 0.21401 0.13534 0.0
C287 C 0.63324 0.18773 0.06585 0.0
C288 C 0.56553 0.21725 0.13326 0.0
C289 C 0.67715 0.23826 0.13362 0.0
O290 O 0.61619 0.20321 0.08495 0.0
O291 O 0.65547 0.17353 0.0771 0.0
O292 O 0.61707 0.21333 0.1855 0.0
O293 O 0.63676 0.17953 0.15251 0.0
Co294 Co 0.79382 0.61451 0.13912 0.0
O295 O 0.81494 0.57779 0.14108 0.0
O296 O 0.76698 0.58209 0.13276 0.0
C297 C 0.81481 0.63494 0.18639 0.0
O298 O 0.76371 0.64754 0.13716 0.0
Co299 Co 0.8259 0.67273 0.12609 0.0
O300 O 0.78594 0.69011 0.12343 0.0
C301 C 0.81669 0.63307 0.06857 0.0
C302 C 0.78973 0.56517 0.1364 0.0
C303 C 0.76308 0.67512 0.13004 0.0
O304 O 0.80006 0.61709 0.08767 0.0
O305 O 0.83193 0.65447 0.08009 0.0
O306 O 0.79304 0.61669 0.18909 0.0
O307 O 0.82505 0.63834 0.1557 0.0
Co308 Co 0.39126 0.79448 0.13879 0.0
O309 O 0.4283 0.81459 0.13577 0.0
O310 O 0.42235 0.76629 0.13104 0.0
C311 C 0.37488 0.81784 0.18613 0.0
O312 O 0.35668 0.76589 0.14249 0.0
Co313 Co 0.33334 0.82944 0.1296 0.0
O314 O 0.31424 0.79112 0.13934 0.0
C315 C 0.36911 0.81583 0.06924 0.0
C316 C 0.44001 0.78876 0.13209 0.0
C317 C 0.3284 0.76711 0.14274 0.0
O318 O 0.38524 0.79886 0.08769 0.0
O319 O 0.34887 0.83222 0.08156 0.0
O320 O 0.39342 0.79627 0.18852 0.0
O321 O 0.36961 0.82674 0.15528 0.0
Co322 Co 0.21168 0.39006 0.13802 0.0
O323 O 0.19225 0.42759 0.14246 0.0
O324 O 0.23996 0.42159 0.13375 0.0
C325 C 0.18955 0.36825 0.18369 0.0
O326 O 0.2402 0.35558 0.13339 0.0
Co327 Co 0.17739 0.33418 0.12053 0.0
O328 O 0.21609 0.31442 0.11841 0.0
C329 C 0.19083 0.37525 0.06541 0.0
C330 C 0.2179 0.43936 0.13789 0.0
C331 C 0.23961 0.32802 0.12576 0.0
O332 O 0.20534 0.39103 0.08681 0.0
O333 O 0.1761 0.35256 0.07413 0.0
O334 O 0.21224 0.38518 0.18762 0.0
O335 O 0.1792 0.36691 0.15283 0.0
Co336 Co 0.39033 0.21133 0.13744 0.0
O337 O 0.42755 0.19159 0.14098 0.0
O338 O 0.42168 0.23902 0.12908 0.0
C339 C 0.37122 0.19149 0.1857 0.0
O340 O 0.35619 0.24011 0.13266 0.0
Co341 Co 0.33228 0.17717 0.12864 0.0
O342 O 0.31331 0.2159 0.13592 0.0
C343 C 0.37014 0.18748 0.06843 0.0
C344 C 0.43927 0.21696 0.13421 0.0
C345 C 0.32801 0.23966 0.13406 0.0
O346 O 0.38829 0.20202 0.08707 0.0
O347 O 0.34735 0.17456 0.08032 0.0
O348 O 0.38812 0.21446 0.18714 0.0
O349 O 0.3678 0.18007 0.15564 0.0
Co350 Co 0.79404 0.38893 0.14136 0.0
O351 O 0.81409 0.42605 0.14501 0.0
O352 O 0.76645 0.42083 0.13517 0.0
C353 C 0.81477 0.36829 0.18812 0.0
O354 O 0.76541 0.3546 0.13651 0.0
Co355 Co 0.82882 0.33146 0.12876 0.0
O356 O 0.79041 0.3119 0.13551 0.0
C357 C 0.81647 0.37092 0.07075 0.0
C358 C 0.7888 0.43822 0.13949 0.0
C359 C 0.76642 0.32628 0.13579 0.0
O360 O 0.80167 0.38798 0.09055 0.0
O361 O 0.83061 0.34837 0.08129 0.0
O362 O 0.79225 0.38557 0.19121 0.0
O363 O 0.8256 0.36598 0.15764 0.0
Co364 Co 0.61569 0.79438 0.13585 0.0
O365 O 0.57887 0.81516 0.13865 0.0
O366 O 0.5836 0.76679 0.1327 0.0
C367 C 0.63823 0.81728 0.18022 0.0
O368 O 0.6492 0.76469 0.13301 0.0
Co369 Co 0.67243 0.82649 0.11643 0.0
O370 O 0.69058 0.78683 0.11504 0.0
C371 C 0.6302 0.81359 0.06274 0.0
C372 C 0.56651 0.78958 0.13516 0.0
C373 C 0.67641 0.76407 0.12426 0.0
O374 O 0.61511 0.79883 0.08452 0.0
O375 O 0.65269 0.82877 0.07088 0.0
O376 O 0.62025 0.79558 0.18544 0.0
O377 O 0.63987 0.8266 0.14893 0.0
Co378 Co 0.21187 0.61547 0.13813 0.0
O379 O 0.19234 0.57785 0.13704 0.0
O380 O 0.24055 0.58413 0.13484 0.0
C381 C 0.18483 0.63351 0.18256 0.0
O382 O 0.2404 0.6502 0.14043 0.0
Co383 Co 0.17937 0.67308 0.12375 0.0
O384 O 0.21562 0.69293 0.13886 0.0
C385 C 0.19372 0.6341 0.0665 0.0
C386 C 0.21829 0.56626 0.13542 0.0
C387 C 0.23936 0.6785 0.14191 0.0
O388 O 0.20974 0.61832 0.08643 0.0
O389 O 0.17769 0.65531 0.07709 0.0
O390 O 0.20769 0.61705 0.18778 0.0
O391 O 0.17817 0.63729 0.15073 0.0
Co392 Co 0.3866 0.7975 0.85018 0.0
O393 O 0.42353 0.81803 0.84862 0.0
O394 O 0.41842 0.76976 0.85518 0.0
C395 C 0.36691 0.82039 0.80407 0.0
O396 O 0.3527 0.76808 0.85207 0.0
Co397 Co 0.3285 0.83066 0.86323 0.0
O398 O 0.3098 0.79249 0.85194 0.0
C399 C 0.36716 0.81694 0.92158 0.0
C400 C 0.43567 0.79239 0.85221 0.0
C401 C 0.32449 0.76866 0.85096 0.0
O402 O 0.38461 0.80289 0.90148 0.0
O403 O 0.34458 0.83107 0.91117 0.0
O404 O 0.38437 0.79803 0.80035 0.0
O405 O 0.36358 0.82968 0.83515 0.0
Co406 Co 0.2161 0.39223 0.84825 0.0
O407 O 0.19872 0.4307 0.84446 0.0
O408 O 0.24582 0.4221 0.85477 0.0
C409 C 0.19411 0.37275 0.8015 0.0
O410 O 0.24235 0.35608 0.8533 0.0
Co411 Co 0.17764 0.33728 0.86115 0.0
O412 O 0.21472 0.3151 0.85487 0.0
C413 C 0.19175 0.37652 0.91875 0.0
C414 C 0.22475 0.44099 0.85037 0.0
C415 C 0.23958 0.32791 0.85434 0.0
O416 O 0.2082 0.39199 0.899 0.0
O417 O 0.17601 0.35503 0.90826 0.0
O418 O 0.21772 0.38851 0.79837 0.0
O419 O 0.18312 0.37135 0.83196 0.0
Co420 Co 0.61263 0.21025 0.84845 0.0
O421 O 0.57572 0.18981 0.84518 0.0
O422 O 0.58067 0.2376 0.85548 0.0
C423 C 0.63248 0.18926 0.80118 0.0
O424 O 0.64638 0.23975 0.85272 0.0
Co425 Co 0.67114 0.17725 0.85908 0.0
O426 O 0.68967 0.21612 0.85148 0.0
C427 C 0.63255 0.18855 0.91846 0.0
C428 C 0.56348 0.2151 0.85101 0.0
C429 C 0.67461 0.23972 0.85211 0.0
O430 O 0.61433 0.20231 0.89915 0.0
O431 O 0.65562 0.17568 0.90724 0.0
O432 O 0.61531 0.21197 0.79862 0.0
O433 O 0.63578 0.17882 0.8317 0.0
Co434 Co 0.79116 0.6152 0.85112 0.0
O435 O 0.81319 0.57904 0.84987 0.0
O436 O 0.76506 0.58224 0.85784 0.0
C437 C 0.81211 0.63577 0.8041 0.0
O438 O 0.76045 0.64768 0.8527 0.0
Co439 Co 0.82266 0.67437 0.86342 0.0
O440 O 0.78245 0.69132 0.86192 0.0
C441 C 0.8153 0.63376 0.92043 0.0
C442 C 0.78828 0.56586 0.85473 0.0
C443 C 0.7596 0.67568 0.85714 0.0
O444 O 0.79715 0.61866 0.90233 0.0
O445 O 0.83143 0.65409 0.90783 0.0
O446 O 0.79096 0.61683 0.80096 0.0
O447 O 0.82174 0.63951 0.83486 0.0
C448 C 0.23624 0.21652 0.32495 0.0
C449 C 0.23771 0.19815 0.35404 0.0
C450 C 0.19414 0.22234 0.37793 0.0
C451 C 0.19588 0.24405 0.35168 0.0
N452 N 0.22063 0.26302 0.3014 0.0
N453 N 0.21904 0.18327 0.40888 0.0
C454 C 0.21736 0.24134 0.32533 0.0
C455 C 0.21659 0.20061 0.38048 0.0
N456 N 0.25293 0.21001 0.29685 0.0
N457 N 0.17157 0.22285 0.40093 0.0
H458 H 0.23465 0.16661 0.41085 0.0
H459 H 0.20682 0.18633 0.43113 0.0
H460 H 0.15567 0.23922 0.40127 0.0
H461 H 0.16736 0.20596 0.41823 0.0
H462 H 0.25099 0.22089 0.27352 0.0
H463 H 0.26656 0.19156 0.29582 0.0
H464 H 0.23812 0.26388 0.28425 0.0
H465 H 0.20718 0.28147 0.30011 0.0
C466 C 0.76716 0.21507 0.38398 0.0
C467 C 0.76579 0.19556 0.35578 0.0
C468 C 0.81112 0.21716 0.33282 0.0
C469 C 0.80855 0.24057 0.35687 0.0
N470 N 0.78446 0.2614 0.40657 0.0
N471 N 0.78722 0.17644 0.30387 0.0
C472 C 0.7868 0.23926 0.38299 0.0
C473 C 0.78829 0.19576 0.33063 0.0
N474 N 0.75015 0.20985 0.41221 0.0
N475 N 0.83528 0.21522 0.31219 0.0
H476 H 0.77227 0.15915 0.30262 0.0
H477 H 0.80033 0.17822 0.28214 0.0
H478 H 0.85241 0.23033 0.31279 0.0
H479 H 0.83975 0.19716 0.29663 0.0
H480 H 0.75216 0.22146 0.43507 0.0
H481 H 0.73618 0.19172 0.41404 0.0
H482 H 0.7667 0.26361 0.42317 0.0
H483 H 0.79949 0.27857 0.40857 0.0
C484 C 0.81379 0.78653 0.32966 0.0
C485 C 0.8125 0.76598 0.35704 0.0
C486 C 0.77528 0.7963 0.38512 0.0
C487 C 0.7711 0.81173 0.35418 0.0
N488 N 0.7896 0.8263 0.2991 0.0
N489 N 0.79423 0.75285 0.41308 0.0
C490 C 0.7916 0.80857 0.32714 0.0
C491 C 0.79407 0.7715 0.38564 0.0
N492 N 0.83636 0.78535 0.30669 0.0
N493 N 0.76221 0.80644 0.41425 0.0
H494 H 0.80917 0.7356 0.41555 0.0
H495 H 0.77878 0.75377 0.4327 0.0
H496 H 0.75057 0.82622 0.41447 0.0
H497 H 0.76594 0.79762 0.43845 0.0
H498 H 0.83967 0.80085 0.28748 0.0
H499 H 0.8536 0.77046 0.30888 0.0
H500 H 0.80097 0.82262 0.27638 0.0
H501 H 0.77621 0.84487 0.2987 0.0
C502 C 0.20952 0.77476 0.31728 0.0
C503 C 0.1899 0.76975 0.34497 0.0
C504 C 0.21062 0.81197 0.37571 0.0
C505 C 0.23071 0.81617 0.34853 0.0
N506 N 0.2429 0.80877 0.28934 0.0
N507 N 0.16587 0.78882 0.3956 0.0
C508 C 0.22789 0.79997 0.31783 0.0
C509 C 0.1883 0.79026 0.37245 0.0
N510 N 0.21144 0.75487 0.29112 0.0
N511 N 0.21384 0.82774 0.40524 0.0
H512 H 0.14912 0.77333 0.3942 0.0
H513 H 0.16229 0.80469 0.41438 0.0
H514 H 0.22924 0.84456 0.40763 0.0
H515 H 0.20241 0.82321 0.42772 0.0
H516 H 0.22768 0.75555 0.27237 0.0
H517 H 0.19785 0.73651 0.28931 0.0
H518 H 0.24018 0.79925 0.26531 0.0
H519 H 0.25577 0.82777 0.28912 0.0
C520 C 0.2004 0.77714 0.66438 0.0
C521 C 0.19494 0.75959 0.63509 0.0
C522 C 0.22591 0.79211 0.6004 0.0
C523 C 0.23479 0.807 0.63055 0.0
N524 N 0.23261 0.81237 0.69199 0.0
N525 N 0.20339 0.74892 0.57534 0.0
C526 C 0.22226 0.79954 0.66275 0.0
C527 C 0.20775 0.76683 0.60304 0.0
N528 N 0.1849 0.77219 0.69378 0.0
N529 N 0.23467 0.80245 0.56917 0.0
H530 H 0.18954 0.73067 0.57583 0.0
H531 H 0.21488 0.75095 0.55242 0.0
H532 H 0.24827 0.82075 0.56646 0.0
H533 H 0.22652 0.79466 0.54601 0.0
H534 H 0.18566 0.78606 0.71498 0.0
H535 H 0.16943 0.75537 0.69601 0.0
H536 H 0.22697 0.80534 0.71648 0.0
H537 H 0.24851 0.82885 0.69198 0.0
C538 C 0.21171 0.19914 0.65853 0.0
C539 C 0.23212 0.19712 0.63109 0.0
C540 C 0.20929 0.23955 0.60302 0.0
C541 C 0.19013 0.24279 0.63149 0.0
N542 N 0.16643 0.22026 0.68013 0.0
N543 N 0.24453 0.20904 0.57281 0.0
C544 C 0.18907 0.22075 0.6572 0.0
C545 C 0.22901 0.21536 0.60189 0.0
N546 N 0.21482 0.18161 0.68669 0.0
N547 N 0.20894 0.25994 0.57729 0.0
H548 H 0.25896 0.19127 0.57113 0.0
H549 H 0.24125 0.21952 0.54947 0.0
H550 H 0.19311 0.27645 0.57556 0.0
H551 H 0.22489 0.26126 0.55826 0.0
H552 H 0.20337 0.18492 0.70944 0.0
H553 H 0.23001 0.16456 0.68816 0.0
H554 H 0.16297 0.20318 0.69741 0.0
H555 H 0.14926 0.23535 0.67965 0.0
C556 C 0.78031 0.20186 0.59547 0.0
C557 C 0.76681 0.19198 0.62615 0.0
C558 C 0.80118 0.22151 0.66013 0.0
C559 C 0.81313 0.23261 0.62926 0.0
N560 N 0.82246 0.22569 0.5695 0.0
N561 N 0.76699 0.18791 0.68775 0.0
C562 C 0.8054 0.22016 0.5975 0.0
C563 C 0.7784 0.20007 0.6586 0.0
N564 N 0.76831 0.19494 0.56448 0.0
N565 N 0.81107 0.23236 0.69063 0.0
H566 H 0.74956 0.17308 0.68759 0.0
H567 H 0.77549 0.19125 0.71211 0.0
H568 H 0.82922 0.24628 0.69217 0.0
H569 H 0.80152 0.22796 0.71425 0.0
H570 H 0.77534 0.20406 0.54144 0.0
H571 H 0.74984 0.18163 0.56201 0.0
H572 H 0.81944 0.21559 0.54584 0.0
H573 H 0.8417 0.23805 0.57128 0.0
C574 C 0.78504 0.76697 0.67321 0.0
C575 C 0.80733 0.76595 0.64764 0.0
C576 C 0.78492 0.80859 0.61902 0.0
C577 C 0.76267 0.80931 0.64449 0.0
N578 N 0.74642 0.79526 0.7007 0.0
N579 N 0.83275 0.79083 0.60155 0.0
C580 C 0.7644 0.79044 0.67322 0.0
C581 C 0.80885 0.78859 0.62252 0.0
N582 N 0.78289 0.74495 0.6969 0.0
N583 N 0.78222 0.82546 0.59023 0.0
H584 H 0.85045 0.77643 0.60237 0.0
H585 H 0.83635 0.80867 0.58536 0.0
H586 H 0.76536 0.84062 0.58667 0.0
H587 H 0.79546 0.82294 0.56869 0.0
H588 H 0.76506 0.74247 0.71334 0.0
H589 H 0.79809 0.72797 0.69884 0.0
H590 H 0.74839 0.78411 0.72386 0.0
H591 H 0.73136 0.81256 0.70153 0.0
C592 C 0.69259 0.71665 0.82447 0.0
C593 C 0.68796 0.73523 0.85309 0.0
C594 C 0.72138 0.70497 0.8871 0.0
C595 C 0.73098 0.69108 0.85669 0.0
N596 N 0.72433 0.681 0.79662 0.0
N597 N 0.69567 0.74611 0.91283 0.0
C598 C 0.71579 0.69569 0.82547 0.0
C599 C 0.70142 0.72884 0.88495 0.0
N600 N 0.67469 0.71902 0.79666 0.0
N601 N 0.731 0.69471 0.91795 0.0
H602 H 0.67985 0.76271 0.91264 0.0
H603 H 0.70732 0.74485 0.93566 0.0
H604 H 0.74433 0.67611 0.91981 0.0
H605 H 0.72337 0.70236 0.94145 0.0
H606 H 0.67545 0.70483 0.77576 0.0
H607 H 0.65694 0.73345 0.79621 0.0
H608 H 0.71685 0.68613 0.77219 0.0
H609 H 0.73979 0.66411 0.79697 0.0
C610 C 0.2706 0.71096 0.88169 0.0
C611 C 0.26302 0.698 0.84998 0.0
C612 C 0.30524 0.72226 0.82352 0.0
C613 C 0.30763 0.74078 0.85264 0.0
N614 N 0.29326 0.75207 0.91071 0.0
N615 N 0.27338 0.69053 0.79014 0.0
C616 C 0.29059 0.73482 0.88223 0.0
C617 C 0.28061 0.70315 0.8207 0.0
N618 N 0.25971 0.69949 0.91135 0.0
N619 N 0.32681 0.72222 0.79932 0.0
H620 H 0.25584 0.67595 0.78752 0.0
H621 H 0.2836 0.69602 0.76715 0.0
H622 H 0.34621 0.73403 0.80248 0.0
H623 H 0.32712 0.70778 0.7786 0.0
H624 H 0.26613 0.70655 0.93557 0.0
H625 H 0.24718 0.68029 0.91151 0.0
H626 H 0.27896 0.7508 0.93148 0.0
H627 H 0.30892 0.7687 0.91286 0.0
C628 C 0.31063 0.28655 0.83402 0.0
C629 C 0.3084 0.26366 0.85868 0.0
C630 C 0.26758 0.28971 0.88641 0.0
C631 C 0.26604 0.30904 0.85798 0.0
N632 N 0.28692 0.32745 0.80536 0.0
N633 N 0.28713 0.24484 0.91087 0.0
C634 C 0.28814 0.30831 0.83229 0.0
C635 C 0.2877 0.26585 0.88581 0.0
N636 N 0.33427 0.28775 0.81251 0.0
N637 N 0.25031 0.29485 0.91447 0.0
H638 H 0.30336 0.22882 0.91347 0.0
H639 H 0.27017 0.24261 0.92854 0.0
H640 H 0.2356 0.31238 0.91591 0.0
H641 H 0.2523 0.28357 0.93751 0.0
H642 H 0.33867 0.30548 0.79646 0.0
H643 H 0.35119 0.27242 0.8128 0.0
H644 H 0.29948 0.32519 0.78325 0.0
H645 H 0.27241 0.34509 0.8043 0.0
C646 C 0.70853 0.27049 0.88696 0.0
C647 C 0.69096 0.26771 0.85723 0.0
C648 C 0.7134 0.31239 0.83332 0.0
C649 C 0.73487 0.31129 0.85959 0.0
N650 N 0.75055 0.29319 0.91452 0.0
N651 N 0.67261 0.28819 0.80469 0.0
C652 C 0.73143 0.29171 0.88761 0.0
C653 C 0.6918 0.28967 0.83143 0.0
N654 N 0.70274 0.25309 0.91472 0.0
N655 N 0.71361 0.33515 0.81047 0.0
H656 H 0.65481 0.27383 0.80451 0.0
H657 H 0.67427 0.30081 0.78258 0.0
H658 H 0.72872 0.35229 0.8116 0.0
H659 H 0.69755 0.33856 0.79203 0.0
H660 H 0.71291 0.2553 0.93838 0.0
H661 H 0.68575 0.23771 0.91499 0.0
H662 H 0.75189 0.27751 0.93383 0.0
H663 H 0.76576 0.31019 0.91726 0.0
C664 C 0.71534 0.26741 0.10274 0.0
C665 C 0.69485 0.26556 0.13007 0.0
C666 C 0.71683 0.30903 0.15723 0.0
C667 C 0.73895 0.30908 0.13156 0.0
N668 N 0.75421 0.29491 0.07485 0.0
N669 N 0.67016 0.28962 0.17706 0.0
C670 C 0.73655 0.29029 0.10267 0.0
C671 C 0.69358 0.28809 0.15527 0.0
N672 N 0.71474 0.24688 0.07711 0.0
N673 N 0.71875 0.32802 0.18426 0.0
H674 H 0.65272 0.27487 0.17629 0.0
H675 H 0.66651 0.30701 0.19388 0.0
H676 H 0.73394 0.3451 0.18533 0.0
H677 H 0.70602 0.32632 0.20629 0.0
H678 H 0.73131 0.24429 0.05902 0.0
H679 H 0.69782 0.2316 0.0744 0.0
H680 H 0.75179 0.28411 0.05154 0.0
H681 H 0.76994 0.31155 0.07397 0.0
C682 C 0.72546 0.70498 0.16109 0.0
C683 C 0.73484 0.69096 0.1306 0.0
C684 C 0.70192 0.72142 0.09658 0.0
C685 C 0.69298 0.73622 0.12684 0.0
N686 N 0.69095 0.73822 0.18854 0.0
N687 N 0.72522 0.67824 0.07209 0.0
C688 C 0.70282 0.72651 0.15941 0.0
C689 C 0.72072 0.69667 0.0992 0.0
N690 N 0.73911 0.69856 0.19129 0.0
N691 N 0.69361 0.73184 0.06529 0.0
H692 H 0.73815 0.65936 0.07414 0.0
H693 H 0.71383 0.67984 0.04909 0.0
H694 H 0.67991 0.75001 0.06243 0.0
H695 H 0.702 0.72389 0.04226 0.0
H696 H 0.73618 0.71055 0.21373 0.0
H697 H 0.75437 0.68156 0.19353 0.0
H698 H 0.69534 0.73036 0.213 0.0
H699 H 0.67487 0.75453 0.18823 0.0
C700 C 0.26891 0.71491 0.17488 0.0
C701 C 0.26675 0.69572 0.14646 0.0
C702 C 0.31193 0.71688 0.12245 0.0
C703 C 0.3107 0.73974 0.14735 0.0
N704 N 0.28797 0.76051 0.19787 0.0
N705 N 0.28536 0.67873 0.09209 0.0
C706 C 0.28935 0.73854 0.17399 0.0
C707 C 0.28838 0.69633 0.12028 0.0
N708 N 0.2515 0.71024 0.20288 0.0
N709 N 0.33519 0.71494 0.10047 0.0
H710 H 0.26897 0.66291 0.08971 0.0
H711 H 0.29791 0.68109 0.06997 0.0
H712 H 0.35253 0.72979 0.10025 0.0
H713 H 0.33873 0.697 0.08439 0.0
H714 H 0.25379 0.7216 0.22587 0.0
H715 H 0.23655 0.69287 0.20426 0.0
H716 H 0.27077 0.76293 0.2152 0.0
H717 H 0.30331 0.77744 0.19926 0.0
C718 C 0.27438 0.29428 0.09578 0.0
C719 C 0.26716 0.31066 0.12554 0.0
C720 C 0.30859 0.28804 0.15558 0.0
C721 C 0.31131 0.26729 0.12873 0.0
N722 N 0.29811 0.25109 0.07202 0.0
N723 N 0.27611 0.32159 0.18523 0.0
C724 C 0.29477 0.27074 0.09826 0.0
C725 C 0.28423 0.30758 0.15574 0.0
N726 N 0.26199 0.30158 0.0651 0.0
N727 N 0.32927 0.28918 0.18074 0.0
H728 H 0.25809 0.33562 0.18689 0.0
H729 H 0.28583 0.31735 0.20883 0.0
H730 H 0.34804 0.2761 0.1802 0.0
H731 H 0.32959 0.30538 0.19962 0.0
H732 H 0.26833 0.29234 0.04184 0.0
H733 H 0.24726 0.319 0.06247 0.0
H734 H 0.2842 0.25016 0.05094 0.0
H735 H 0.31413 0.23471 0.07206 0.0
C736 C 0.98626 0.28527 0.32318 0.0
C737 C 0.97109 0.28202 0.35471 0.0
C738 C 0.01781 0.2784 0.38564 0.0
C739 C 0.03282 0.28356 0.35438 0.0
N740 N 0.03283 0.28584 0.29284 0.0
N741 N 0.97115 0.27611 0.41595 0.0
C742 C 0.01744 0.28528 0.32295 0.0
C743 C 0.98652 0.27819 0.38593 0.0
N744 N 0.97069 0.28913 0.2936 0.0
N745 N 0.0336 0.27372 0.41489 0.0
H746 H 0.9483 0.2755 0.41694 0.0
H747 H 0.98062 0.27612 0.44012 0.0
H748 H 0.05645 0.27464 0.41561 0.0
H749 H 0.02452 0.26742 0.43817 0.0
H750 H 0.9799 0.29535 0.27035 0.0
H751 H 0.94794 0.28705 0.29239 0.0
H752 H 0.02336 0.28446 0.26872 0.0
H753 H 0.05568 0.28554 0.29181 0.0
C754 C 0.71789 0.01702 0.317 0.0
C755 C 0.72196 0.03336 0.34759 0.0
C756 C 0.72561 0.98756 0.38069 0.0
C757 C 0.72197 0.97133 0.34999 0.0
N758 N 0.7206 0.96972 0.28838 0.0
N759 N 0.73378 0.03504 0.40772 0.0
C760 C 0.71982 0.98583 0.31796 0.0
C761 C 0.72732 0.01886 0.37918 0.0
N762 N 0.71176 0.03137 0.28708 0.0
N763 N 0.72606 0.97307 0.41135 0.0
H764 H 0.73379 0.05798 0.40802 0.0
H765 H 0.74093 0.0259 0.43064 0.0
H766 H 0.72556 0.95017 0.41324 0.0
H767 H 0.72521 0.98353 0.43503 0.0
H768 H 0.70467 0.0208 0.26495 0.0
H769 H 0.71232 0.05422 0.28468 0.0
H770 H 0.72223 0.97894 0.26409 0.0
H771 H 0.72217 0.94683 0.28811 0.0
C772 C 0.01687 0.70677 0.32561 0.0
C773 C 0.03251 0.71402 0.35587 0.0
C774 C 0.98622 0.71984 0.38731 0.0
C775 C 0.97069 0.71349 0.35675 0.0
N776 N 0.97037 0.70661 0.29561 0.0
N777 N 0.03287 0.7312 0.41426 0.0
C778 C 0.98579 0.7085 0.32555 0.0
C779 C 0.0174 0.72191 0.38631 0.0
N780 N 0.03175 0.698 0.29692 0.0
N781 N 0.97123 0.7225 0.41751 0.0
H782 H 0.05573 0.7315 0.41505 0.0
H783 H 0.02321 0.74031 0.43596 0.0
H784 H 0.94842 0.72138 0.41908 0.0
H785 H 0.98128 0.72386 0.44134 0.0
H786 H 0.02166 0.6886 0.27568 0.0
H787 H 0.05452 0.69859 0.29484 0.0
H788 H 0.9801 0.70626 0.2715 0.0
H789 H 0.94756 0.70796 0.29451 0.0
C790 C 0.27551 0.98983 0.37558 0.0
C791 C 0.2853 0.97485 0.34573 0.0
C792 C 0.29288 0.0221 0.31655 0.0
C793 C 0.28576 0.03702 0.34736 0.0
N794 N 0.27309 0.03581 0.40724 0.0
N795 N 0.30472 0.97603 0.28828 0.0
C796 C 0.27749 0.02111 0.37709 0.0
C797 C 0.29442 0.99082 0.31635 0.0
N798 N 0.2646 0.97415 0.40262 0.0
N799 N 0.29703 0.03792 0.28715 0.0
H800 H 0.30399 0.95317 0.286 0.0
H801 H 0.31528 0.9862 0.26784 0.0
H802 H 0.2957 0.06083 0.28631 0.0
H803 H 0.29937 0.02848 0.26303 0.0
H804 H 0.25389 0.98372 0.42338 0.0
H805 H 0.2646 0.95123 0.40358 0.0
H806 H 0.27046 0.02546 0.43079 0.0
H807 H 0.27406 0.05867 0.40931 0.0
C808 C 0.01739 0.73625 0.65951 0.0
C809 C 0.03232 0.7216 0.6325 0.0
C810 C 0.98532 0.71204 0.6038 0.0
C811 C 0.97034 0.72333 0.63278 0.0
N812 N 0.97133 0.7447 0.68924 0.0
N813 N 0.03123 0.69552 0.57873 0.0
C814 C 0.98614 0.73552 0.66069 0.0
C815 C 0.01646 0.7096 0.60448 0.0
N816 N 0.03307 0.75049 0.6843 0.0
N817 N 0.96968 0.70439 0.57529 0.0
H818 H 0.05405 0.69529 0.57691 0.0
H819 H 0.02106 0.68303 0.55984 0.0
H820 H 0.94689 0.70619 0.57399 0.0
H821 H 0.97917 0.6986 0.55202 0.0
H822 H 0.02368 0.7644 0.70244 0.0
H823 H 0.0559 0.75009 0.6855 0.0
H824 H 0.98147 0.75038 0.71214 0.0
H825 H 0.94851 0.74493 0.69094 0.0
C826 C 0.28357 0.98736 0.60969 0.0
C827 C 0.27181 0.97157 0.63793 0.0
C828 C 0.25819 0.01801 0.66615 0.0
C829 C 0.2719 0.03368 0.63911 0.0
N830 N 0.29224 0.03459 0.58224 0.0
N831 N 0.24876 0.9708 0.69342 0.0
C832 C 0.28309 0.01869 0.61002 0.0
C833 C 0.2588 0.9866 0.66601 0.0
N834 N 0.29583 0.97221 0.58296 0.0
N835 N 0.24459 0.03328 0.69187 0.0
H836 H 0.24852 0.94785 0.69396 0.0
H837 H 0.24185 0.98005 0.7164 0.0
H838 H 0.24466 0.0562 0.69327 0.0
H839 H 0.23177 0.02364 0.71081 0.0
H840 H 0.30798 0.98181 0.5634 0.0
H841 H 0.29457 0.94939 0.58064 0.0
H842 H 0.29848 0.02549 0.55893 0.0
H843 H 0.29174 0.05751 0.58152 0.0
C844 C 0.01558 0.28678 0.60633 0.0
C845 C 0.03057 0.29345 0.63723 0.0
C846 C 0.98368 0.29634 0.668 0.0
C847 C 0.96867 0.29222 0.6366 0.0
N848 N 0.96941 0.28655 0.57532 0.0
N849 N 0.02949 0.30653 0.6971 0.0
C850 C 0.98436 0.28798 0.60561 0.0
C851 C 0.01476 0.29885 0.66795 0.0
N852 N 0.03122 0.27948 0.57764 0.0
N853 N 0.96821 0.29668 0.69804 0.0
H854 H 0.05229 0.30632 0.699 0.0
H855 H 0.01925 0.31457 0.71902 0.0
H856 H 0.94543 0.2948 0.6991 0.0
H857 H 0.97788 0.29641 0.72213 0.0
H858 H 0.02175 0.27112 0.55546 0.0
H859 H 0.05405 0.2801 0.57652 0.0
H860 H 0.97945 0.28683 0.5514 0.0
H861 H 0.94657 0.28714 0.57389 0.0
C862 C 0.72833 0.01677 0.65939 0.0
C863 C 0.71633 0.03286 0.63163 0.0
C864 C 0.70923 0.98702 0.59943 0.0
C865 C 0.71783 0.97081 0.62868 0.0
N866 N 0.73344 0.96946 0.68758 0.0
N867 N 0.69373 0.03384 0.57583 0.0
C868 C 0.72715 0.98546 0.65887 0.0
C869 C 0.70634 0.01813 0.60177 0.0
N870 N 0.74073 0.03144 0.6863 0.0
N871 N 0.70482 0.97264 0.56913 0.0
H872 H 0.69259 0.05675 0.57573 0.0
H873 H 0.68286 0.02419 0.55528 0.0
H874 H 0.70766 0.94996 0.56657 0.0
H875 H 0.70112 0.98324 0.54594 0.0
H876 H 0.75276 0.02113 0.70546 0.0
H877 H 0.74075 0.05433 0.68835 0.0
H878 H 0.73688 0.97879 0.71157 0.0
H879 H 0.73338 0.94652 0.68803 0.0
C880 C 0.51535 0.80294 0.87727 0.0
C881 C 0.5298 0.78924 0.8492 0.0
C882 C 0.48233 0.77624 0.82382 0.0
C883 C 0.46795 0.78934 0.85225 0.0
N884 N 0.46996 0.81024 0.90881 0.0
N885 N 0.52784 0.75919 0.79832 0.0
C886 C 0.48425 0.80135 0.87977 0.0
C887 C 0.51351 0.77455 0.82339 0.0
N888 N 0.53136 0.81761 0.90145 0.0
N889 N 0.46621 0.76691 0.79637 0.0
H890 H 0.55059 0.75901 0.79573 0.0
H891 H 0.51737 0.7451 0.78124 0.0
H892 H 0.44336 0.76751 0.79581 0.0
H893 H 0.47535 0.76042 0.77314 0.0
H894 H 0.52216 0.8312 0.92003 0.0
H895 H 0.55421 0.8174 0.90211 0.0
H896 H 0.48053 0.81639 0.93128 0.0
H897 H 0.44721 0.80918 0.91154 0.0
C898 C 0.22571 0.48797 0.88397 0.0
C899 C 0.22976 0.47309 0.85237 0.0
C900 C 0.23373 0.52019 0.82222 0.0
C901 C 0.22926 0.53505 0.85375 0.0
N902 N 0.22764 0.53422 0.91523 0.0
N903 N 0.24371 0.47403 0.79296 0.0
C904 C 0.2274 0.51924 0.88489 0.0
C905 C 0.23581 0.48894 0.82196 0.0
N906 N 0.21926 0.47222 0.91282 0.0
N907 N 0.23482 0.53593 0.79243 0.0
H908 H 0.24509 0.45111 0.79197 0.0
H909 H 0.25113 0.48421 0.77074 0.0
H910 H 0.23471 0.55888 0.79185 0.0
H911 H 0.23441 0.52642 0.76821 0.0
H912 H 0.21261 0.48172 0.9358 0.0
H913 H 0.21916 0.44927 0.91336 0.0
H914 H 0.22882 0.52412 0.93908 0.0
H915 H 0.22919 0.55711 0.91647 0.0
C916 C 0.48456 0.21295 0.82062 0.0
C917 C 0.46928 0.21723 0.85193 0.0
C918 C 0.51599 0.22192 0.88268 0.0
C919 C 0.53117 0.21806 0.85127 0.0
N920 N 0.53072 0.21565 0.78972 0.0
N921 N 0.46956 0.22992 0.91187 0.0
C922 C 0.51566 0.2152 0.82004 0.0
C923 C 0.48475 0.22323 0.88267 0.0
N924 N 0.46931 0.2064 0.79146 0.0
N925 N 0.53143 0.22287 0.91265 0.0
H926 H 0.44673 0.22952 0.91333 0.0
H927 H 0.47935 0.23764 0.93417 0.0
H928 H 0.55429 0.22247 0.91355 0.0
H929 H 0.52179 0.22222 0.93679 0.0
H930 H 0.47913 0.1992 0.7689 0.0
H931 H 0.44648 0.20679 0.79013 0.0
H932 H 0.52073 0.21678 0.76584 0.0
H933 H 0.55351 0.2174 0.78837 0.0
C934 C 0.7792 0.48677 0.88546 0.0
C935 C 0.78667 0.47126 0.85508 0.0
C936 C 0.79131 0.51787 0.8238 0.0
C937 C 0.78638 0.53338 0.85479 0.0
N938 N 0.77798 0.53358 0.91565 0.0
N939 N 0.80124 0.47136 0.79565 0.0
C940 C 0.78065 0.51811 0.88574 0.0
C941 C 0.79316 0.48664 0.82435 0.0
N942 N 0.77098 0.47153 0.91409 0.0
N943 N 0.79302 0.53304 0.79362 0.0
H944 H 0.80036 0.44848 0.7939 0.0
H945 H 0.81016 0.48116 0.77394 0.0
H946 H 0.79167 0.55591 0.79219 0.0
H947 H 0.79341 0.52309 0.76963 0.0
H948 H 0.76206 0.48136 0.9358 0.0
H949 H 0.77149 0.44864 0.91563 0.0
H950 H 0.77723 0.5239 0.93975 0.0
H951 H 0.77837 0.55651 0.91667 0.0
C952 C 0.48671 0.22483 0.10282 0.0
C953 C 0.47147 0.22061 0.13412 0.0
C954 C 0.51796 0.21637 0.16508 0.0
C955 C 0.5333 0.2209 0.13386 0.0
N956 N 0.53313 0.23384 0.07403 0.0
N957 N 0.47167 0.21847 0.1957 0.0
C958 C 0.5179 0.22675 0.10306 0.0
C959 C 0.48686 0.21813 0.16546 0.0
N960 N 0.47141 0.22548 0.07274 0.0
N961 N 0.53317 0.21001 0.19431 0.0
H962 H 0.44887 0.21994 0.19693 0.0
H963 H 0.48156 0.21984 0.21962 0.0
H964 H 0.55599 0.2108 0.1958 0.0
H965 H 0.52335 0.20257 0.21675 0.0
H966 H 0.48119 0.22511 0.04868 0.0
H967 H 0.44857 0.22455 0.07168 0.0
H968 H 0.52331 0.24139 0.05169 0.0
H969 H 0.55598 0.23401 0.07282 0.0
C970 C 0.78971 0.51798 0.1691 0.0
C971 C 0.78692 0.53276 0.13732 0.0
C972 C 0.78015 0.48552 0.10782 0.0
C973 C 0.78588 0.47068 0.13909 0.0
N974 N 0.79757 0.47205 0.19927 0.0
N975 N 0.78178 0.53148 0.07602 0.0
C976 C 0.79105 0.48673 0.16968 0.0
C977 C 0.78244 0.51679 0.10656 0.0
N978 N 0.79005 0.5339 0.19884 0.0
N979 N 0.77275 0.4697 0.07932 0.0
H980 H 0.78297 0.55436 0.07425 0.0
H981 H 0.78197 0.52113 0.05226 0.0
H982 H 0.77234 0.44677 0.07876 0.0
H983 H 0.76521 0.47917 0.05675 0.0
H984 H 0.78892 0.52455 0.2231 0.0
H985 H 0.78902 0.55682 0.19939 0.0
H986 H 0.8054 0.4823 0.22126 0.0
H987 H 0.79652 0.4492 0.2015 0.0
C988 C 0.48728 0.77174 0.15836 0.0
C989 C 0.47233 0.78544 0.13072 0.0
C990 C 0.51941 0.79765 0.10366 0.0
C991 C 0.53422 0.78676 0.13296 0.0
N992 N 0.53299 0.76558 0.18941 0.0
N993 N 0.47339 0.81222 0.0775 0.0
C994 C 0.51839 0.77401 0.16046 0.0
C995 C 0.48821 0.79857 0.10345 0.0
N996 N 0.47175 0.75691 0.18286 0.0
N997 N 0.53524 0.80617 0.0756 0.0
H998 H 0.45064 0.8113 0.07495 0.0
H999 H 0.48339 0.82553 0.05923 0.0
H1000 H 0.55808 0.80578 0.07485 0.0
H1001 H 0.52595 0.81142 0.05208 0.0
H1002 H 0.48139 0.7435 0.20126 0.0
H1003 H 0.44893 0.75636 0.18372 0.0
H1004 H 0.52265 0.7594 0.21204 0.0
H1005 H 0.55575 0.76669 0.19178 0.0
C1006 C 0.21792 0.4878 0.16855 0.0
C1007 C 0.22155 0.47178 0.13763 0.0
C1008 C 0.22543 0.51798 0.10526 0.0
C1009 C 0.22204 0.53391 0.13624 0.0
N1010 N 0.2205 0.53493 0.19781 0.0
N1011 N 0.23305 0.47075 0.07737 0.0
C1012 C 0.2199 0.51906 0.16805 0.0
C1013 C 0.22683 0.48664 0.10623 0.0
N1014 N 0.21215 0.47307 0.19833 0.0
N1015 N 0.22611 0.53285 0.07484 0.0
H1016 H 0.233 0.44781 0.07676 0.0
H1017 H 0.24007 0.48008 0.05448 0.0
H1018 H 0.22622 0.55578 0.07338 0.0
H1019 H 0.225 0.52272 0.05099 0.0
H1020 H 0.20553 0.4833 0.22089 0.0
H1021 H 0.21269 0.45018 0.20021 0.0
H1022 H 0.22188 0.52555 0.22203 0.0
H1023 H 0.22199 0.55783 0.1983 0.0
C1024 C 0.12173 0.34622 0.47628 0.0
C1025 C 0.12558 0.31886 0.45907 0.0
C1026 C 0.13014 0.29356 0.51427 0.0
C1027 C 0.12658 0.32088 0.53142 0.0
N1028 N 0.11286 0.37195 0.52995 0.0
N1029 N 0.1249 0.26557 0.46212 0.0
C1030 C 0.12053 0.34688 0.51273 0.0
C1031 C 0.12685 0.29224 0.47817 0.0
N1032 N 0.11929 0.37156 0.45765 0.0
N1033 N 0.13857 0.26909 0.53216 0.0
H1034 H 0.12292 0.26308 0.43584 0.0
H1035 H 0.12225 0.24578 0.47518 0.0
H1036 H 0.14102 0.26871 0.55866 0.0
H1037 H 0.14557 0.24969 0.52054 0.0
H1038 H 0.12032 0.39255 0.46824 0.0
H1039 H 0.117 0.37163 0.43109 0.0
H1040 H 0.10552 0.39107 0.5181 0.0
H1041 H 0.11158 0.37291 0.55659 0.0
C1042 C 0.71741 0.12678 0.50764 0.0
C1043 C 0.69048 0.12335 0.52557 0.0
C1044 C 0.66364 0.1201 0.47133 0.0
C1045 C 0.6902 0.12557 0.4534 0.0
N1046 N 0.74313 0.12936 0.45333 0.0
N1047 N 0.6398 0.10898 0.52557 0.0
C1048 C 0.71738 0.12701 0.4712 0.0
C1049 C 0.66411 0.1176 0.50764 0.0
N1050 N 0.74276 0.13179 0.52541 0.0
N1051 N 0.63793 0.11771 0.45355 0.0
H1052 H 0.63997 0.10628 0.55209 0.0
H1053 H 0.62033 0.10208 0.51432 0.0
H1054 H 0.63712 0.11705 0.42689 0.0
H1055 H 0.6173 0.11731 0.46494 0.0
H1056 H 0.76233 0.1387 0.51433 0.0
H1057 H 0.74427 0.1303 0.55191 0.0
H1058 H 0.76375 0.12631 0.4641 0.0
H1059 H 0.74427 0.13307 0.42709 0.0
C1060 C 0.86533 0.71581 0.47973 0.0
C1061 C 0.87278 0.6893 0.46254 0.0
C1062 C 0.88372 0.66584 0.51761 0.0
C1063 C 0.87248 0.69096 0.53477 0.0
N1064 N 0.849 0.73851 0.53251 0.0
N1065 N 0.88813 0.6386 0.46432 0.0
C1066 C 0.86266 0.71577 0.51596 0.0
C1067 C 0.88183 0.66417 0.48127 0.0
N1068 N 0.86058 0.74102 0.46145 0.0
N1069 N 0.89682 0.64396 0.53609 0.0
H1070 H 0.88847 0.63712 0.43767 0.0
H1071 H 0.89152 0.61853 0.47651 0.0
H1072 H 0.8987 0.64473 0.56269 0.0
H1073 H 0.90798 0.62634 0.52508 0.0
H1074 H 0.85826 0.76167 0.47271 0.0
H1075 H 0.86132 0.74186 0.43481 0.0
H1076 H 0.83826 0.75558 0.51995 0.0
H1077 H 0.84612 0.7391 0.55896 0.0
C1078 C 0.33016 0.89338 0.51207 0.0
C1079 C 0.30407 0.88573 0.52973 0.0
C1080 C 0.27726 0.88538 0.47524 0.0
C1081 C 0.3044 0.8868 0.45745 0.0
N1082 N 0.35662 0.89479 0.45814 0.0
N1083 N 0.25234 0.87401 0.52832 0.0
C1084 C 0.33082 0.8919 0.4757 0.0
C1085 C 0.27732 0.88228 0.51148 0.0
N1086 N 0.35404 0.90261 0.53025 0.0
N1087 N 0.25142 0.88669 0.45765 0.0
H1088 H 0.25088 0.87218 0.55481 0.0
H1089 H 0.2334 0.86697 0.51593 0.0
H1090 H 0.25026 0.8886 0.43118 0.0
H1091 H 0.23105 0.88887 0.46948 0.0
H1092 H 0.37304 0.91092 0.51906 0.0
H1093 H 0.35378 0.90455 0.55686 0.0
H1094 H 0.37715 0.89474 0.46973 0.0
H1095 H 0.35748 0.89628 0.43151 0.0
C1096 C 0.11796 0.66586 0.47377 0.0
C1097 C 0.13152 0.68989 0.45687 0.0
C1098 C 0.1372 0.71566 0.51152 0.0
C1099 C 0.12753 0.69 0.52884 0.0
N1100 N 0.10893 0.6404 0.52742 0.0
N1101 N 0.15767 0.73595 0.45945 0.0
C1102 C 0.11781 0.66503 0.5102 0.0
C1103 C 0.14185 0.7145 0.47564 0.0
N1104 N 0.10484 0.6442 0.45493 0.0
N1105 N 0.1421 0.7411 0.52932 0.0
H1106 H 0.16219 0.73545 0.4333 0.0
H1107 H 0.16863 0.75277 0.47226 0.0
H1108 H 0.13947 0.7428 0.55573 0.0
H1109 H 0.14627 0.76126 0.51761 0.0
H1110 H 0.09211 0.62751 0.46551 0.0
H1111 H 0.10485 0.64416 0.42822 0.0
H1112 H 0.10487 0.62026 0.51564 0.0
H1113 H 0.10681 0.63979 0.554 0.0
C1114 C 0.33482 0.11795 0.48101 0.0
C1115 C 0.3087 0.12322 0.46221 0.0
C1116 C 0.28079 0.12769 0.51567 0.0
C1117 C 0.30711 0.12352 0.5345 0.0
N1118 N 0.35718 0.10696 0.53599 0.0
N1119 N 0.25568 0.12397 0.46133 0.0
C1120 C 0.33354 0.11618 0.51737 0.0
C1121 C 0.28129 0.12484 0.47943 0.0
N1122 N 0.36089 0.11513 0.464 0.0
N1123 N 0.25571 0.13646 0.53203 0.0
H1124 H 0.2548 0.12238 0.43482 0.0
H1125 H 0.23514 0.12186 0.47277 0.0
H1126 H 0.25398 0.13858 0.55849 0.0
H1127 H 0.23711 0.14389 0.51926 0.0
H1128 H 0.38123 0.11502 0.47603 0.0
H1129 H 0.36218 0.11381 0.43738 0.0
H1130 H 0.37639 0.0988 0.52516 0.0
H1131 H 0.35656 0.105 0.56259 0.0
C1132 C 0.8936 0.33456 0.47793 0.0
C1133 C 0.8745 0.31573 0.45949 0.0
C1134 C 0.8518 0.29913 0.51267 0.0
C1135 C 0.87147 0.31709 0.53156 0.0
N1136 N 0.91437 0.34799 0.53315 0.0
N1137 N 0.84253 0.27356 0.45955 0.0
C1138 C 0.89357 0.33351 0.51447 0.0
C1139 C 0.8558 0.29598 0.47697 0.0
N1140 N 0.91107 0.35387 0.46054 0.0
N1141 N 0.82868 0.28569 0.52858 0.0
H1142 H 0.846 0.2699 0.4335 0.0
H1143 H 0.83083 0.25675 0.47151 0.0
H1144 H 0.82502 0.28681 0.55485 0.0
H1145 H 0.81179 0.27529 0.51532 0.0
H1146 H 0.92329 0.37034 0.47233 0.0
H1147 H 0.91213 0.3543 0.43386 0.0
H1148 H 0.93264 0.35812 0.52236 0.0
H1149 H 0.91437 0.34812 0.55986 0.0
C1150 C 0.68007 0.89579 0.50708 0.0
C1151 C 0.69127 0.87104 0.52488 0.0
C1152 C 0.69848 0.84482 0.47089 0.0
C1153 C 0.68916 0.87025 0.45256 0.0
N1154 N 0.67468 0.92137 0.45288 0.0
N1155 N 0.71834 0.8255 0.52359 0.0
C1156 C 0.68134 0.89632 0.47057 0.0
C1157 C 0.70262 0.84663 0.5067 0.0
N1158 N 0.66681 0.91799 0.52493 0.0
N1159 N 0.70294 0.81859 0.45448 0.0
H1160 H 0.72223 0.82619 0.54988 0.0
H1161 H 0.73011 0.80901 0.51112 0.0
H1162 H 0.70198 0.81584 0.42809 0.0
H1163 H 0.70576 0.79876 0.46744 0.0
H1164 H 0.65547 0.93522 0.51341 0.0
H1165 H 0.66535 0.91809 0.55157 0.0
H1166 H 0.67216 0.94186 0.46446 0.0
H1167 H 0.67334 0.92206 0.42626 0.0
C1168 C 0.61625 0.83866 0.0084 0.0
C1169 C 0.62227 0.81212 0.02603 0.0
C1170 C 0.62347 0.78516 0.97158 0.0
C1171 C 0.62255 0.8125 0.95397 0.0
N1172 N 0.61584 0.8651 0.95444 0.0
N1173 N 0.6303 0.75955 0.02531 0.0
C1174 C 0.61799 0.83921 0.97208 0.0
C1175 C 0.62474 0.78507 0.00794 0.0
N1176 N 0.60819 0.86307 0.02662 0.0
N1177 N 0.62371 0.75927 0.95365 0.0
H1178 H 0.62984 0.75791 0.05184 0.0
H1179 H 0.63685 0.74002 0.01366 0.0
H1180 H 0.62526 0.75803 0.92712 0.0
H1181 H 0.62047 0.73874 0.9648 0.0
H1182 H 0.60111 0.88264 0.01556 0.0
H1183 H 0.60606 0.86287 0.05323 0.0
H1184 H 0.61615 0.88577 0.96593 0.0
H1185 H 0.61467 0.86599 0.9278 0.0
C1186 C 0.1868 0.60584 0.97464 0.0
C1187 C 0.19268 0.63248 0.95677 0.0
C1188 C 0.2067 0.65618 0.01061 0.0
C1189 C 0.19684 0.63121 0.02892 0.0
N1190 N 0.17598 0.58254 0.0293 0.0
N1191 N 0.20378 0.68472 0.95893 0.0
C1192 C 0.18683 0.60587 0.01122 0.0
C1193 C 0.20137 0.65812 0.97506 0.0
N1194 N 0.18057 0.58077 0.95672 0.0
N1195 N 0.22195 0.67784 0.0272 0.0
H1196 H 0.20096 0.68772 0.93277 0.0
H1197 H 0.20638 0.70452 0.97206 0.0
H1198 H 0.22669 0.67699 0.05328 0.0
H1199 H 0.23257 0.69497 0.01451 0.0
H1200 H 0.17931 0.56001 0.96787 0.0
H1201 H 0.17825 0.58043 0.93018 0.0
H1202 H 0.16543 0.56466 0.01812 0.0
H1203 H 0.176 0.58185 0.05598 0.0
C1204 C 0.37006 0.21399 0.01222 0.0
C1205 C 0.37437 0.18745 0.03079 0.0
C1206 C 0.38158 0.16045 0.97689 0.0
C1207 C 0.37382 0.18618 0.95851 0.0
N1208 N 0.35765 0.2368 0.95816 0.0
N1209 N 0.38382 0.13527 0.03166 0.0
C1210 C 0.36768 0.2129 0.97599 0.0
C1211 C 0.38012 0.16062 0.01333 0.0
N1212 N 0.36788 0.24028 0.02916 0.0
N1213 N 0.39104 0.13616 0.95938 0.0
H1214 H 0.38492 0.13496 0.05832 0.0
H1215 H 0.38456 0.1144 0.02071 0.0
H1216 H 0.39244 0.13555 0.93274 0.0
H1217 H 0.39966 0.1175 0.97104 0.0
H1218 H 0.36858 0.26062 0.01693 0.0
H1219 H 0.3674 0.24217 0.0557 0.0
H1220 H 0.3489 0.2555 0.9697 0.0
H1221 H 0.35589 0.23729 0.93159 0.0
C1222 C 0.78817 0.37094 0.01577 0.0
C1223 C 0.81503 0.37585 0.03331 0.0
C1224 C 0.84119 0.3801 0.9786 0.0
C1225 C 0.81445 0.37474 0.96107 0.0
N1226 N 0.76165 0.36991 0.9621 0.0
N1227 N 0.86544 0.3913 0.03245 0.0
C1228 C 0.78764 0.37201 0.97941 0.0
C1229 C 0.84108 0.3823 0.01496 0.0
N1230 N 0.76354 0.36328 0.03376 0.0
N1231 N 0.8667 0.38269 0.96041 0.0
H1232 H 0.86576 0.39348 0.05904 0.0
H1233 H 0.88449 0.39895 0.02078 0.0
H1234 H 0.86728 0.38334 0.93373 0.0
H1235 H 0.88743 0.38302 0.9715 0.0
H1236 H 0.74446 0.35528 0.02252 0.0
H1237 H 0.76248 0.36304 0.06037 0.0
H1238 H 0.7412 0.37194 0.97374 0.0
H1239 H 0.76018 0.36788 0.93561 0.0
C1240 C 0.634 0.21535 0.0104 0.0
C1241 C 0.62881 0.18865 0.02832 0.0
C1242 C 0.62302 0.16225 0.97392 0.0
C1243 C 0.62787 0.18902 0.95603 0.0
N1244 N 0.63223 0.24209 0.9569 0.0
N1245 N 0.61281 0.1382 0.02822 0.0
C1246 C 0.63124 0.21593 0.97419 0.0
C1247 C 0.62165 0.16251 0.01035 0.0
N1248 N 0.64355 0.23971 0.02774 0.0
N1249 N 0.62008 0.13656 0.95602 0.0
H1250 H 0.61139 0.13789 0.05487 0.0
H1251 H 0.60461 0.11921 0.01683 0.0
H1252 H 0.61877 0.13586 0.92938 0.0
H1253 H 0.62016 0.11582 0.96731 0.0
H1254 H 0.65155 0.25854 0.01577 0.0
H1255 H 0.6458 0.24051 0.05425 0.0
H1256 H 0.63086 0.2625 0.96892 0.0
H1257 H 0.63228 0.24371 0.93034 0.0
C1258 C 0.8239 0.60596 0.01244 0.0
C1259 C 0.81382 0.631 0.03077 0.0
C1260 C 0.80366 0.65678 0.97695 0.0
C1261 C 0.81365 0.63179 0.95835 0.0
N1262 N 0.82925 0.58111 0.95753 0.0
N1263 N 0.78749 0.67709 0.03091 0.0
C1264 C 0.8223 0.60578 0.97587 0.0
C1265 C 0.80183 0.65548 0.0131 0.0
N1266 N 0.83616 0.58303 0.02995 0.0
N1267 N 0.79619 0.68212 0.96014 0.0
H1268 H 0.78574 0.67725 0.05746 0.0
H1269 H 0.77488 0.69344 0.01947 0.0
H1270 H 0.79423 0.68367 0.93367 0.0
H1271 H 0.7933 0.70231 0.97232 0.0
H1272 H 0.84666 0.56532 0.01832 0.0
H1273 H 0.83726 0.58246 0.05661 0.0
H1274 H 0.83272 0.56053 0.96847 0.0
H1275 H 0.82993 0.58076 0.93086 0.0
C1276 C 0.38159 0.84063 0.9773 0.0
C1277 C 0.37213 0.81531 0.95908 0.0
C1278 C 0.36232 0.78972 0.01318 0.0
C1279 C 0.37237 0.81478 0.03145 0.0
N1280 N 0.39693 0.86165 0.03165 0.0
N1281 N 0.35956 0.76369 0.95913 0.0
C1282 C 0.38365 0.83954 0.01368 0.0
C1283 C 0.36464 0.78913 0.97688 0.0
N1284 N 0.38817 0.86581 0.95979 0.0
N1285 N 0.34887 0.76723 0.03036 0.0
H1286 H 0.36015 0.76244 0.93251 0.0
H1287 H 0.35715 0.74323 0.97078 0.0
H1288 H 0.34641 0.76699 0.05687 0.0
H1289 H 0.33796 0.74999 0.0183 0.0
H1290 H 0.39184 0.88605 0.97153 0.0
H1291 H 0.3886 0.86681 0.93312 0.0
H1292 H 0.40816 0.87902 0.02025 0.0
H1293 H 0.39884 0.86135 0.05826 0.0
C1294 C 0.2192 0.37567 0.97432 0.0
C1295 C 0.19299 0.38199 0.95611 0.0
C1296 C 0.16649 0.38916 0.01016 0.0
C1297 C 0.19252 0.38218 0.02836 0.0
N1298 N 0.24515 0.37551 0.02831 0.0
N1299 N 0.14392 0.40136 0.95564 0.0
C1300 C 0.21941 0.37792 0.0106 0.0
C1301 C 0.16728 0.39081 0.97378 0.0
N1302 N 0.24336 0.36547 0.95718 0.0
N1303 N 0.14095 0.39371 0.02777 0.0
H1304 H 0.14414 0.40311 0.92902 0.0
H1305 H 0.12538 0.41066 0.96683 0.0
H1306 H 0.14012 0.39489 0.05443 0.0
H1307 H 0.12047 0.39527 0.01622 0.0
H1308 H 0.26159 0.35644 0.96925 0.0
H1309 H 0.24461 0.36394 0.93062 0.0
H1310 H 0.26571 0.3761 0.0167 0.0
H1311 H 0.24642 0.37512 0.05489 0.0
C1312 C 0.16094 0.37437 0.2386 0.0
C1313 C 0.17383 0.35542 0.21379 0.0
C1314 C 0.16069 0.31247 0.24895 0.0
C1315 C 0.14652 0.33129 0.2729 0.0
N1316 N 0.12694 0.3794 0.28598 0.0
N1317 N 0.1818 0.30624 0.19277 0.0
C1318 C 0.14513 0.36209 0.26668 0.0
C1319 C 0.17221 0.32443 0.21814 0.0
N1320 N 0.16336 0.40421 0.23512 0.0
N1321 N 0.16456 0.28327 0.25629 0.0
H1322 H 0.19245 0.31415 0.17135 0.0
H1323 H 0.17744 0.28376 0.19179 0.0
H1324 H 0.15769 0.27348 0.27899 0.0
H1325 H 0.1775 0.26914 0.24171 0.0
H1326 H 0.15823 0.419 0.25461 0.0
H1327 H 0.17186 0.4143 0.21333 0.0
H1328 H 0.12253 0.40136 0.28044 0.0
H1329 H 0.11368 0.3712 0.30551 0.0
C1330 C 0.63812 0.14901 0.22507 0.0
C1331 C 0.64813 0.17678 0.21312 0.0
C1332 C 0.68817 0.17585 0.25486 0.0
C1333 C 0.67684 0.14937 0.26873 0.0
N1334 N 0.63953 0.11178 0.26964 0.0
N1335 N 0.67899 0.21936 0.22097 0.0
C1336 C 0.65132 0.13625 0.25459 0.0
C1337 C 0.67202 0.19105 0.22937 0.0
N1338 N 0.61605 0.13479 0.20809 0.0
N1339 N 0.71481 0.18611 0.26535 0.0
H1340 H 0.66762 0.23118 0.20252 0.0
H1341 H 0.69413 0.23203 0.23441 0.0
H1342 H 0.72728 0.1753 0.28365 0.0
H1343 H 0.72577 0.20353 0.25368 0.0
H1344 H 0.61008 0.11306 0.2128 0.0
H1345 H 0.60453 0.14422 0.18784 0.0
H1346 H 0.61916 0.10308 0.26322 0.0
H1347 H 0.64938 0.10097 0.29017 0.0
C1348 C 0.82772 0.6784 0.22381 0.0
C1349 C 0.82937 0.64772 0.21724 0.0
C1350 C 0.85891 0.64149 0.26948 0.0
C1351 C 0.85484 0.67176 0.27738 0.0
N1352 N 0.83045 0.71761 0.26533 0.0
N1353 N 0.84432 0.59923 0.23548 0.0
C1354 C 0.83799 0.68982 0.25535 0.0
C1355 C 0.84413 0.62899 0.24074 0.0
N1356 N 0.8165 0.69689 0.19979 0.0
N1357 N 0.87825 0.62507 0.28817 0.0
H1358 H 0.83606 0.58936 0.21342 0.0
H1359 H 0.85125 0.58414 0.2538 0.0
H1360 H 0.88995 0.63349 0.30888 0.0
H1361 H 0.88471 0.60387 0.28146 0.0
H1362 H 0.81815 0.71974 0.20096 0.0
H1363 H 0.80748 0.68915 0.17732 0.0
H1364 H 0.81525 0.73066 0.25251 0.0
H1365 H 0.83714 0.72654 0.28846 0.0
C1366 C 0.34751 0.81226 0.24187 0.0
C1367 C 0.36061 0.83095 0.21694 0.0
C1368 C 0.34828 0.87418 0.25234 0.0
C1369 C 0.33253 0.85572 0.27519 0.0
N1370 N 0.31516 0.80752 0.29045 0.0
N1371 N 0.37395 0.87991 0.19835 0.0
C1372 C 0.33201 0.82484 0.26986 0.0
C1373 C 0.36097 0.862 0.22207 0.0
N1374 N 0.34955 0.78231 0.23893 0.0
N1375 N 0.35244 0.90315 0.26065 0.0
H1376 H 0.38695 0.87211 0.17838 0.0
H1377 H 0.37117 0.90263 0.19775 0.0
H1378 H 0.34426 0.91256 0.28306 0.0
H1379 H 0.3661 0.91737 0.24718 0.0
H1380 H 0.34517 0.7679 0.25901 0.0
H1381 H 0.35618 0.77148 0.21678 0.0
H1382 H 0.30996 0.78566 0.28522 0.0
H1383 H 0.30453 0.81583 0.31172 0.0
C1384 C 0.17237 0.626 0.74053 0.0
C1385 C 0.16602 0.63809 0.77328 0.0
C1386 C 0.12706 0.66719 0.74587 0.0
C1387 C 0.13976 0.66222 0.71303 0.0
N1388 N 0.17353 0.63196 0.67961 0.0
N1389 N 0.12993 0.66564 0.80687 0.0
C1390 C 0.16214 0.64027 0.71042 0.0
C1391 C 0.1415 0.65756 0.77598 0.0
N1392 N 0.18515 0.59884 0.73806 0.0
N1393 N 0.09967 0.67879 0.74952 0.0
H1394 H 0.13448 0.65542 0.82994 0.0
H1395 H 0.1135 0.68156 0.809 0.0
H1396 H 0.08518 0.68255 0.72936 0.0
H1397 H 0.08518 0.68255 0.72936 0.0
H1398 H 0.18824 0.58786 0.7149 0.0
H1399 H 0.1881 0.58514 0.75916 0.0
H1400 H 0.19365 0.62113 0.67756 0.0
H1401 H 0.16258 0.63397 0.65655 0.0
C1402 C 0.34262 0.1325 0.73625 0.0
C1403 C 0.32047 0.14884 0.71925 0.0
C1404 C 0.32915 0.19097 0.75752 0.0
C1405 C 0.35191 0.17493 0.77386 0.0
N1406 N 0.38362 0.13256 0.77589 0.0
N1407 N 0.29153 0.19276 0.71374 0.0
C1408 C 0.35944 0.14618 0.76256 0.0
C1409 C 0.31343 0.17785 0.72998 0.0
N1410 N 0.34697 0.1036 0.72781 0.0
N1411 N 0.32208 0.21847 0.76907 0.0
H1412 H 0.2775 0.18243 0.6967 0.0
H1413 H 0.28702 0.21503 0.71674 0.0
H1414 H 0.33438 0.22939 0.78742 0.0
H1415 H 0.30391 0.23054 0.76134 0.0
H1416 H 0.36032 0.08934 0.7416 0.0
H1417 H 0.33548 0.09305 0.70827 0.0
H1418 H 0.39234 0.11301 0.76643 0.0
H1419 H 0.39664 0.14201 0.79487 0.0
C1420 C 0.8695 0.34612 0.73866 0.0
C1421 C 0.85202 0.32781 0.71739 0.0
C1422 C 0.81003 0.3347 0.75612 0.0
C1423 C 0.82686 0.35454 0.77605 0.0
N1424 N 0.87092 0.3832 0.78339 0.0
N1425 N 0.80494 0.30693 0.7038 0.0
C1426 C 0.85623 0.36122 0.76669 0.0
C1427 C 0.82207 0.32285 0.72553 0.0
N1428 N 0.89883 0.34907 0.73211 0.0
N1429 N 0.78291 0.32615 0.76719 0.0
H1430 H 0.81359 0.2962 0.68276 0.0
H1431 H 0.78219 0.30565 0.70547 0.0
H1432 H 0.77307 0.33489 0.7889 0.0
H1433 H 0.771 0.30889 0.75652 0.0
H1434 H 0.91347 0.35901 0.74895 0.0
H1435 H 0.90905 0.33998 0.71069 0.0
H1436 H 0.89108 0.39148 0.77543 0.0
H1437 H 0.86185 0.3951 0.80363 0.0
C1438 C 0.65408 0.83069 0.70743 0.0
C1439 C 0.66533 0.85971 0.70833 0.0
C1440 C 0.66031 0.85998 0.77104 0.0
C1441 C 0.65015 0.83022 0.77006 0.0
N1442 N 0.65052 0.78486 0.73783 0.0
N1443 N 0.66778 0.90528 0.73942 0.0
C1444 C 0.65088 0.81489 0.73838 0.0
C1445 C 0.66533 0.87528 0.73977 0.0
N1446 N 0.64369 0.81895 0.67772 0.0
N1447 N 0.66756 0.87318 0.80129 0.0
H1448 H 0.6689 0.91733 0.71673 0.0
H1449 H 0.66463 0.91846 0.76092 0.0
H1450 H 0.66829 0.86234 0.82456 0.0
H1451 H 0.67751 0.89376 0.80282 0.0
H1452 H 0.63385 0.79827 0.67646 0.0
H1453 H 0.63946 0.83184 0.65634 0.0
H1454 H 0.65358 0.77265 0.71551 0.0
H1455 H 0.65168 0.7724 0.76011 0.0
C1456 C 0.84145 0.69296 0.74164 0.0
C1457 C 0.85805 0.67516 0.71881 0.0
C1458 C 0.84595 0.63145 0.75339 0.0
C1459 C 0.82711 0.64897 0.77395 0.0
N1460 N 0.80163 0.69474 0.78222 0.0
N1461 N 0.87552 0.62703 0.70196 0.0
C1462 C 0.8236 0.6793 0.76676 0.0
C1463 C 0.85994 0.64421 0.72425 0.0
N1464 N 0.84234 0.72299 0.73948 0.0
N1465 N 0.85142 0.60292 0.76255 0.0
H1466 H 0.88889 0.6356 0.68274 0.0
H1467 H 0.87443 0.60415 0.70164 0.0
H1468 H 0.84135 0.59273 0.78339 0.0
H1469 H 0.86743 0.58984 0.75113 0.0
H1470 H 0.83414 0.73672 0.7586 0.0
H1471 H 0.85216 0.73448 0.71952 0.0
H1472 H 0.79573 0.71611 0.77544 0.0
H1473 H 0.78694 0.68476 0.7988 0.0
C1474 C 0.35471 0.86431 0.76679 0.0
C1475 C 0.35164 0.83384 0.77422 0.0
C1476 C 0.32554 0.82675 0.72006 0.0
C1477 C 0.32571 0.85751 0.71422 0.0
N1478 N 0.33822 0.90635 0.73366 0.0
N1479 N 0.32826 0.78762 0.76139 0.0
C1480 C 0.3395 0.87656 0.73822 0.0
C1481 C 0.33551 0.81551 0.75172 0.0
N1482 N 0.37338 0.88123 0.7858 0.0
N1483 N 0.31613 0.80802 0.69521 0.0
H1484 H 0.33423 0.77916 0.78496 0.0
H1485 H 0.31369 0.77427 0.74797 0.0
H1486 H 0.30876 0.8156 0.67188 0.0
H1487 H 0.3185 0.78524 0.69641 0.0
H1488 H 0.37903 0.90274 0.77941 0.0
H1489 H 0.38534 0.87303 0.80639 0.0
H1490 H 0.34453 0.92146 0.75231 0.0
H1491 H 0.32935 0.91611 0.71186 0.0
C1492 C 0.14018 0.3621 0.72796 0.0
C1493 C 0.14847 0.33384 0.71588 0.0
C1494 C 0.1883 0.33223 0.75809 0.0
C1495 C 0.17895 0.35972 0.77148 0.0
N1496 N 0.14569 0.40139 0.76794 0.0
N1497 N 0.17692 0.2896 0.72339 0.0
C1498 C 0.15492 0.37467 0.75629 0.0
C1499 C 0.1715 0.31818 0.73214 0.0
N1500 N 0.1175 0.37696 0.71304 0.0
N1501 N 0.21391 0.32006 0.76922 0.0
H1502 H 0.16524 0.27873 0.70442 0.0
H1503 H 0.1911 0.27586 0.7368 0.0
H1504 H 0.22685 0.33008 0.78767 0.0
H1505 H 0.22376 0.30175 0.75803 0.0
H1506 H 0.11081 0.39778 0.72126 0.0
H1507 H 0.10525 0.36843 0.69281 0.0
H1508 H 0.15526 0.41267 0.78835 0.0
H1509 H 0.15526 0.41267 0.78835 0.0
C1510 C 0.65604 0.13227 0.73433 0.0
C1511 C 0.67154 0.1504 0.7108 0.0
C1512 C 0.66402 0.19293 0.74864 0.0
C1513 C 0.64646 0.17552 0.77064 0.0
N1514 N 0.62119 0.12974 0.78124 0.0
N1515 N 0.68564 0.1991 0.69284 0.0
C1516 C 0.64134 0.1454 0.76276 0.0
C1517 C 0.67397 0.18108 0.7171 0.0
N1518 N 0.65523 0.10248 0.72949 0.0
N1519 N 0.67263 0.22039 0.75872 0.0
H1520 H 0.69378 0.19099 0.67004 0.0
H1521 H 0.68485 0.22199 0.69404 0.0
H1522 H 0.66667 0.2293 0.7822 0.0
H1523 H 0.68808 0.23298 0.74564 0.0
H1524 H 0.64769 0.08778 0.74795 0.0
H1525 H 0.66365 0.09217 0.70774 0.0
H1526 H 0.61413 0.10873 0.77451 0.0
H1527 H 0.60941 0.13866 0.80164 0.0
C1528 C 0.8178 0.32808 0.23204 0.0
C1529 C 0.8291 0.3546 0.21824 0.0
C1530 C 0.86737 0.35527 0.26245 0.0
C1531 C 0.85741 0.32745 0.27435 0.0
N1532 N 0.82686 0.28468 0.26612 0.0
N1533 N 0.86618 0.39239 0.21771 0.0
C1534 C 0.83379 0.31301 0.25777 0.0
C1535 C 0.85438 0.3679 0.23271 0.0
N1536 N 0.79127 0.31771 0.22133 0.0
N1537 N 0.88921 0.36964 0.27964 0.0
H1538 H 0.85652 0.40302 0.19693 0.0
H1539 H 0.88641 0.40127 0.22442 0.0
H1540 H 0.90066 0.36029 0.29999 0.0
H1541 H 0.89508 0.39141 0.27498 0.0
H1542 H 0.78029 0.30027 0.23294 0.0
H1543 H 0.77889 0.32848 0.20293 0.0
H1544 H 0.81197 0.27191 0.25242 0.0
H1545 H 0.83799 0.27295 0.28482 0.0
C1546 C 0.68273 0.82886 0.21605 0.0
C1547 C 0.65242 0.83292 0.20938 0.0
C1548 C 0.64879 0.86503 0.25994 0.0
C1549 C 0.67837 0.85833 0.26828 0.0
N1550 N 0.72159 0.82927 0.25791 0.0
N1551 N 0.60559 0.8528 0.2266 0.0
C1552 C 0.69486 0.83912 0.24721 0.0
C1553 C 0.63512 0.85035 0.2319 0.0
N1554 N 0.70013 0.81534 0.19248 0.0
N1555 N 0.6342 0.88638 0.27784 0.0
H1556 H 0.59507 0.84406 0.2052 0.0
H1557 H 0.59122 0.86204 0.24433 0.0
H1558 H 0.64357 0.89784 0.29821 0.0
H1559 H 0.61376 0.89455 0.27079 0.0
H1560 H 0.72293 0.81467 0.19391 0.0
H1561 H 0.69173 0.80711 0.16991 0.0
H1562 H 0.73333 0.81262 0.2457 0.0
H1563 H 0.73061 0.83562 0.28113 0.0
C1564 C 0.15188 0.68941 0.24311 0.0
C1565 C 0.14533 0.67221 0.27244 0.0
C1566 C 0.1621 0.6281 0.2415 0.0
C1567 C 0.16691 0.64543 0.21167 0.0
N1568 N 0.1507 0.6891 0.1818 0.0
N1569 N 0.13578 0.62351 0.29508 0.0
C1570 C 0.15729 0.6751 0.2116 0.0
C1571 C 0.14827 0.64103 0.27063 0.0
N1572 N 0.15324 0.7194 0.24499 0.0
N1573 N 0.16927 0.59891 0.24156 0.0
H1574 H 0.12322 0.63161 0.31525 0.0
H1575 H 0.13486 0.60066 0.29324 0.0
H1576 H 0.17431 0.58724 0.21934 0.0
H1577 H 0.1705 0.58642 0.26386 0.0
H1578 H 0.16055 0.7323 0.22463 0.0
H1579 H 0.15043 0.73111 0.26769 0.0
H1580 H 0.14264 0.71057 0.18096 0.0
H1581 H 0.14703 0.67746 0.15937 0.0
C1582 C 0.33473 0.18558 0.27293 0.0
C1583 C 0.33496 0.15481 0.27871 0.0
C1584 C 0.36256 0.14819 0.22507 0.0
C1585 C 0.35807 0.17839 0.21708 0.0
N1586 N 0.33411 0.22423 0.23069 0.0
N1587 N 0.34827 0.10611 0.25941 0.0
C1588 C 0.34261 0.19666 0.24032 0.0
C1589 C 0.34851 0.13587 0.25438 0.0
N1590 N 0.32771 0.20443 0.29876 0.0
N1591 N 0.38154 0.13167 0.20592 0.0
H1592 H 0.3409 0.0964 0.28201 0.0
H1593 H 0.3542 0.091 0.24056 0.0
H1594 H 0.39314 0.14004 0.1851 0.0
H1595 H 0.38802 0.11047 0.2126 0.0
H1596 H 0.32943 0.22723 0.29673 0.0
H1597 H 0.32402 0.19702 0.32341 0.0
H1598 H 0.32021 0.23741 0.24534 0.0
H1599 H 0.33813 0.23245 0.20631 0.0
loop_
_geom_bond_atom_site_label_1
_geom_bond_atom_site_label_2
_geom_bond_distance
_geom_bond_site_symmetry_2
_ccdc_geom_bond_type
Co0 O1 2.216 . S
Co0 O2 2.091 . S
Co0 O4 2.004 . S
Co0 O10 2.021 . S
Co0 O12 2.137 . S
Co0 O13 2.244 . S
O1 Co0 2.216 . S
O1 C8 1.247 . S
O2 Co0 2.091 . S
O2 C8 1.261 . S
C3 O12 1.247 . S
C3 O13 1.272 . S
O4 Co0 2.004 . S
O4 C9 1.259 . S
Co5 O6 2.061 . S
Co5 O11 2.052 . S
Co5 O13 2.135 . S
O6 Co5 2.061 . S
O6 C9 1.235 . S
C7 O10 1.238 . S
C7 O11 1.241 . S
C8 O1 1.247 . S
C8 O2 1.261 . S
C9 O4 1.259 . S
C9 O6 1.235 . S
O10 Co0 2.021 . S
O10 C7 1.238 . S
O11 Co5 2.052 . S
O11 C7 1.241 . S
O12 Co0 2.137 . S
O12 C3 1.247 . S
O13 Co0 2.244 . S
O13 C3 1.272 . S
O13 Co5 2.135 . S
Co14 O15 2.216 . S
Co14 O16 2.091 . S
Co14 O18 2.004 . S
Co14 O24 2.021 . S
Co14 O26 2.137 . S
Co14 O27 2.244 . S
O15 Co14 2.216 . S
O15 C22 1.247 . S
O16 Co14 2.091 . S
O16 C22 1.261 . S
C17 O26 1.247 . S
C17 O27 1.272 . S
O18 Co14 2.004 . S
O18 C23 1.259 . S
Co19 O20 2.061 . S
Co19 O25 2.052 . S
Co19 O27 2.135 . S
O20 Co19 2.061 . S
O20 C23 1.235 . S
C21 O24 1.238 . S
C21 O25 1.241 . S
C22 O15 1.247 . S
C22 O16 1.261 . S
C23 O18 1.259 . S
C23 O20 1.235 . S
O24 Co14 2.021 . S
O24 C21 1.238 . S
O25 Co19 2.052 . S
O25 C21 1.241 . S
O26 Co14 2.137 . S
O26 C17 1.247 . S
O27 Co14 2.244 . S
O27 C17 1.272 . S
O27 Co19 2.135 . S
Co28 O29 2.216 . S
Co28 O30 2.091 . S
Co28 O32 2.004 . S
Co28 O38 2.021 . S
Co28 O40 2.137 . S
Co28 O41 2.244 . S
O29 Co28 2.216 . S
O29 C36 1.247 . S
O30 Co28 2.091 . S
O30 C36 1.261 . S
C31 O40 1.247 . S
C31 O41 1.272 . S
O32 Co28 2.004 . S
O32 C37 1.259 . S
Co33 O34 2.061 . S
Co33 O39 2.052 . S
Co33 O41 2.135 . S
O34 Co33 2.061 . S
O34 C37 1.235 . S
C35 O38 1.238 . S
C35 O39 1.241 . S
C36 O29 1.247 . S
C36 O30 1.261 . S
C37 O32 1.259 . S
C37 O34 1.235 . S
O38 Co28 2.021 . S
O38 C35 1.238 . S
O39 Co33 2.052 . S
O39 C35 1.241 . S
O40 Co28 2.137 . S
O40 C31 1.247 . S
O41 Co28 2.244 . S
O41 C31 1.272 . S
O41 Co33 2.135 . S
Co42 O43 2.216 . S
Co42 O44 2.091 . S
Co42 O46 2.004 . S
Co42 O52 2.021 . S
Co42 O54 2.137 . S
Co42 O55 2.244 . S
O43 Co42 2.216 . S
O43 C50 1.247 . S
O44 Co42 2.091 . S
O44 C50 1.261 . S
C45 O54 1.247 . S
C45 O55 1.272 . S
O46 Co42 2.004 . S
O46 C51 1.259 . S
Co47 O48 2.061 . S
Co47 O53 2.052 . S
Co47 O55 2.135 . S
O48 Co47 2.061 . S
O48 C51 1.235 . S
C49 O52 1.238 . S
C49 O53 1.241 . S
C50 O43 1.247 . S
C50 O44 1.261 . S
C51 O46 1.259 . S
C51 O48 1.235 . S
O52 Co42 2.021 . S
O52 C49 1.238 . S
O53 Co47 2.052 . S
O53 C49 1.241 . S
O54 Co42 2.137 . S
O54 C45 1.247 . S
O55 Co42 2.244 . S
O55 C45 1.272 . S
O55 Co47 2.135 . S
Co56 O57 2.216 . S
Co56 O58 2.091 . S
Co56 O60 2.004 . S
Co56 O66 2.021 . S
Co56 O68 2.137 . S
Co56 O69 2.244 . S
O57 Co56 2.216 . S
O57 C64 1.247 . S
O58 Co56 2.091 . S
O58 C64 1.261 . S
C59 O68 1.247 . S
C59 O69 1.272 . S
O60 Co56 2.004 . S
O60 C65 1.259 . S
Co61 O62 2.061 . S
Co61 O67 2.052 . S
Co61 O69 2.135 . S
O62 Co61 2.061 . S
O62 C65 1.235 . S
C63 O66 1.238 . S
C63 O67 1.241 . S
C64 O57 1.247 . S
C64 O58 1.261 . S
C65 O60 1.259 . S
C65 O62 1.235 . S
O66 Co56 2.021 . S
O66 C63 1.238 . S
O67 Co61 2.052 . S
O67 C63 1.241 . S
O68 Co56 2.137 . S
O68 C59 1.247 . S
O69 Co56 2.244 . S
O69 C59 1.272 . S
O69 Co61 2.135 . S
Co70 O71 2.216 . S
Co70 O72 2.091 . S
Co70 O74 2.004 . S
Co70 O80 2.021 . S
Co70 O82 2.137 . S
Co70 O83 2.244 . S
O71 Co70 2.216 . S
O71 C78 1.247 . S
O72 Co70 2.091 . S
O72 C78 1.261 . S
C73 O82 1.247 . S
C73 O83 1.272 . S
O74 Co70 2.004 . S
O74 C79 1.259 . S
Co75 O76 2.061 . S
Co75 O81 2.052 . S
Co75 O83 2.135 . S
O76 Co75 2.061 . S
O76 C79 1.235 . S
C77 O80 1.238 . S
C77 O81 1.241 . S
C78 O71 1.247 . S
C78 O72 1.261 . S
C79 O74 1.259 . S
C79 O76 1.235 . S
O80 Co70 2.021 . S
O80 C77 1.238 . S
O81 Co75 2.052 . S
O81 C77 1.241 . S
O82 Co70 2.137 . S
O82 C73 1.247 . S
O83 Co70 2.244 . S
O83 C73 1.272 . S
O83 Co75 2.135 . S
Co84 O85 2.216 . S
Co84 O86 2.091 . S
Co84 O88 2.004 . S
Co84 O94 2.021 . S
Co84 O96 2.137 . S
Co84 O97 2.244 . S
O85 Co84 2.216 . S
O85 C92 1.247 . S
O86 Co84 2.091 . S
O86 C92 1.261 . S
C87 O96 1.247 . S
C87 O97 1.272 . S
O88 Co84 2.004 . S
O88 C93 1.259 . S
Co89 O90 2.061 . S
Co89 O95 2.052 . S
Co89 O97 2.135 . S
O90 Co89 2.061 . S
O90 C93 1.235 . S
C91 O94 1.238 . S
C91 O95 1.241 . S
C92 O85 1.247 . S
C92 O86 1.261 . S
C93 O88 1.259 . S
C93 O90 1.235 . S
O94 Co84 2.021 . S
O94 C91 1.238 . S
O95 Co89 2.052 . S
O95 C91 1.241 . S
O96 Co84 2.137 . S
O96 C87 1.247 . S
O97 Co84 2.244 . S
O97 C87 1.272 . S
O97 Co89 2.135 . S
Co98 O99 2.216 . S
Co98 O100 2.091 . S
Co98 O102 2.004 . S
Co98 O108 2.021 . S
Co98 O110 2.137 . S
Co98 O111 2.244 . S
O99 Co98 2.216 . S
O99 C106 1.247 . S
O100 Co98 2.091 . S
O100 C106 1.261 . S
C101 O110 1.247 . S
C101 O111 1.272 . S
O102 Co98 2.004 . S
O102 C107 1.259 . S
Co103 O104 2.061 . S
Co103 O109 2.052 . S
Co103 O111 2.135 . S
O104 Co103 2.061 . S
O104 C107 1.235 . S
C105 O108 1.238 . S
C105 O109 1.241 . S
C106 O99 1.247 . S
C106 O100 1.261 . S
C107 O102 1.259 . S
C107 O104 1.235 . S
O108 Co98 2.021 . S
O108 C105 1.238 . S
O109 Co103 2.052 . S
O109 C105 1.241 . S
O110 Co98 2.137 . S
O110 C101 1.247 . S
O111 Co98 2.244 . S
O111 C101 1.272 . S
O111 Co103 2.135 . S
Co112 O113 2.216 . S
Co112 O114 2.091 . S
Co112 O116 2.004 . S
Co112 O122 2.021 . S
Co112 O124 2.137 . S
Co112 O125 2.244 . S
O113 Co112 2.216 . S
O113 C120 1.247 . S
O114 Co112 2.091 . S
O114 C120 1.261 . S
C115 O124 1.247 . S
C115 O125 1.272 . S
O116 Co112 2.004 . S
O116 C121 1.259 . S
Co117 O118 2.061 . S
Co117 O123 2.052 . S
Co117 O125 2.135 . S
O118 Co117 2.061 . S
O118 C121 1.235 . S
C119 O122 1.238 . S
C119 O123 1.241 . S
C120 O113 1.247 . S
C120 O114 1.261 . S
C121 O116 1.259 . S
C121 O118 1.235 . S
O122 Co112 2.021 . S
O122 C119 1.238 . S
O123 Co117 2.052 . S
O123 C119 1.241 . S
O124 Co112 2.137 . S
O124 C115 1.247 . S
O125 Co112 2.244 . S
O125 C115 1.272 . S
O125 Co117 2.135 . S
Co126 O127 2.216 . S
Co126 O128 2.091 . S
Co126 O130 2.004 . S
Co126 O136 2.021 . S
Co126 O138 2.137 . S
Co126 O139 2.244 . S
O127 Co126 2.216 . S
O127 C134 1.247 . S
O128 Co126 2.091 . S
O128 C134 1.261 . S
C129 O138 1.247 . S
C129 O139 1.272 . S
O130 Co126 2.004 . S
O130 C135 1.259 . S
Co131 O132 2.061 . S
Co131 O137 2.052 . S
Co131 O139 2.135 . S
O132 Co131 2.061 . S
O132 C135 1.235 . S
C133 O136 1.238 . S
C133 O137 1.241 . S
C134 O127 1.247 . S
C134 O128 1.261 . S
C135 O130 1.259 . S
C135 O132 1.235 . S
O136 Co126 2.021 . S
O136 C133 1.238 . S
O137 Co131 2.052 . S
O137 C133 1.241 . S
O138 Co126 2.137 . S
O138 C129 1.247 . S
O139 Co126 2.244 . S
O139 C129 1.272 . S
O139 Co131 2.135 . S
Co140 O141 2.216 . S
Co140 O142 2.091 . S
Co140 O144 2.004 . S
Co140 O150 2.021 . S
Co140 O152 2.137 . S
Co140 O153 2.244 . S
O141 Co140 2.216 . S
O141 C148 1.247 . S
O142 Co140 2.091 . S
O142 C148 1.261 . S
C143 O152 1.247 . S
C143 O153 1.272 . S
O144 Co140 2.004 . S
O144 C149 1.259 . S
Co145 O146 2.061 . S
Co145 O151 2.052 . S
Co145 O153 2.135 . S
O146 Co145 2.061 . S
O146 C149 1.235 . S
C147 O150 1.238 . S
C147 O151 1.241 . S
C148 O141 1.247 . S
C148 O142 1.261 . S
C149 O144 1.259 . S
C149 O146 1.235 . S
O150 Co140 2.021 . S
O150 C147 1.238 . S
O151 Co145 2.052 . S
O151 C147 1.241 . S
O152 Co140 2.137 . S
O152 C143 1.247 . S
O153 Co140 2.244 . S
O153 C143 1.272 . S
O153 Co145 2.135 . S
Co154 O155 2.216 . S
Co154 O156 2.091 . S
Co154 O158 2.004 . S
Co154 O164 2.021 . S
Co154 O166 2.137 . S
Co154 O167 2.244 . S
O155 Co154 2.216 . S
O155 C162 1.247 . S
O156 Co154 2.091 . S
O156 C162 1.261 . S
C157 O166 1.247 . S
C157 O167 1.272 . S
O158 Co154 2.004 . S
O158 C163 1.259 . S
Co159 O160 2.061 . S
Co159 O165 2.052 . S
Co159 O167 2.135 . S
O160 Co159 2.061 . S
O160 C163 1.235 . S
C161 O164 1.238 . S
C161 O165 1.241 . S
C162 O155 1.247 . S
C162 O156 1.261 . S
C163 O158 1.259 . S
C163 O160 1.235 . S
O164 Co154 2.021 . S
O164 C161 1.238 . S
O165 Co159 2.052 . S
O165 C161 1.241 . S
O166 Co154 2.137 . S
O166 C157 1.247 . S
O167 Co154 2.244 . S
O167 C157 1.272 . S
O167 Co159 2.135 . S
Co168 O169 2.216 . S
Co168 O170 2.091 . S
Co168 O172 2.004 . S
Co168 O178 2.021 . S
Co168 O180 2.137 . S
Co168 O181 2.244 . S
O169 Co168 2.216 . S
O169 C176 1.247 . S
O170 Co168 2.091 . S
O170 C176 1.261 . S
C171 O180 1.247 . S
C171 O181 1.272 . S
O172 Co168 2.004 . S
O172 C177 1.259 . S
Co173 O174 2.061 . S
Co173 O179 2.052 . S
Co173 O181 2.135 . S
O174 Co173 2.061 . S
O174 C177 1.235 . S
C175 O178 1.238 . S
C175 O179 1.241 . S
C176 O169 1.247 . S
C176 O170 1.261 . S
C177 O172 1.259 . S
C177 O174 1.235 . S
O178 Co168 2.021 . S
O178 C175 1.238 . S
O179 Co173 2.052 . S
O179 C175 1.241 . S
O180 Co168 2.137 . S
O180 C171 1.247 . S
O181 Co168 2.244 . S
O181 C171 1.272 . S
O181 Co173 2.135 . S
Co182 O183 2.216 . S
Co182 O184 2.091 . S
Co182 O186 2.004 . S
Co182 O192 2.021 . S
Co182 O194 2.137 . S
Co182 O195 2.244 . S
O183 Co182 2.216 . S
O183 C190 1.247 . S
O184 Co182 2.091 . S
O184 C190 1.261 . S
C185 O194 1.247 . S
C185 O195 1.272 . S
O186 Co182 2.004 . S
O186 C191 1.259 . S
Co187 O188 2.061 . S
Co187 O193 2.052 . S
Co187 O195 2.135 . S
O188 Co187 2.061 . S
O188 C191 1.235 . S
C189 O192 1.238 . S
C189 O193 1.241 . S
C190 O183 1.247 . S
C190 O184 1.261 . S
C191 O186 1.259 . S
C191 O188 1.235 . S
O192 Co182 2.021 . S
O192 C189 1.238 . S
O193 Co187 2.052 . S
O193 C189 1.241 . S
O194 Co182 2.137 . S
O194 C185 1.247 . S
O195 Co182 2.244 . S
O195 C185 1.272 . S
O195 Co187 2.135 . S
Co196 O197 2.216 . S
Co196 O198 2.091 . S
Co196 O200 2.004 . S
Co196 O206 2.021 . S
Co196 O208 2.137 . S
Co196 O209 2.244 . S
O197 Co196 2.216 . S
O197 C204 1.247 . S
O198 Co196 2.091 . S
O198 C204 1.261 . S
C199 O208 1.247 . S
C199 O209 1.272 . S
O200 Co196 2.004 . S
O200 C205 1.259 . S
Co201 O202 2.061 . S
Co201 O207 2.052 . S
Co201 O209 2.135 . S
O202 Co201 2.061 . S
O202 C205 1.235 . S
C203 O206 1.238 . S
C203 O207 1.241 . S
C204 O197 1.247 . S
C204 O198 1.261 . S
C205 O200 1.259 . S
C205 O202 1.235 . S
O206 Co196 2.021 . S
O206 C203 1.238 . S
O207 Co201 2.052 . S
O207 C203 1.241 . S
O208 Co196 2.137 . S
O208 C199 1.247 . S
O209 Co196 2.244 . S
O209 C199 1.272 . S
O209 Co201 2.135 . S
Co210 O211 2.216 . S
Co210 O212 2.091 . S
Co210 O214 2.004 . S
Co210 O220 2.021 . S
Co210 O222 2.137 . S
Co210 O223 2.244 . S
O211 Co210 2.216 . S
O211 C218 1.247 . S
O212 Co210 2.091 . S
O212 C218 1.261 . S
C213 O222 1.247 . S
C213 O223 1.272 . S
O214 Co210 2.004 . S
O214 C219 1.259 . S
Co215 O216 2.061 . S
Co215 O221 2.052 . S
Co215 O223 2.135 . S
O216 Co215 2.061 . S
O216 C219 1.235 . S
C217 O220 1.238 . S
C217 O221 1.241 . S
C218 O211 1.247 . S
C218 O212 1.261 . S
C219 O214 1.259 . S
C219 O216 1.235 . S
O220 Co210 2.021 . S
O220 C217 1.238 . S
O221 Co215 2.052 . S
O221 C217 1.241 . S
O222 Co210 2.137 . S
O222 C213 1.247 . S
O223 Co210 2.244 . S
O223 C213 1.272 . S
O223 Co215 2.135 . S
Co224 O225 2.216 . S
Co224 O226 2.091 . S
Co224 O228 2.004 . S
Co224 O234 2.021 . S
Co224 O236 2.137 . S
Co224 O237 2.244 . S
O225 Co224 2.216 . S
O225 C232 1.247 . S
O226 Co224 2.091 . S
O226 C232 1.261 . S
C227 O236 1.247 . S
C227 O237 1.272 . S
O228 Co224 2.004 . S
O228 C233 1.259 . S
Co229 O230 2.061 . S
Co229 O235 2.052 . S
Co229 O237 2.135 . S
O230 Co229 2.061 . S
O230 C233 1.235 . S
C231 O234 1.238 . S
C231 O235 1.241 . S
C232 O225 1.247 . S
C232 O226 1.261 . S
C233 O228 1.259 . S
C233 O230 1.235 . S
O234 Co224 2.021 . S
O234 C231 1.238 . S
O235 Co229 2.052 . S
O235 C231 1.241 . S
O236 Co224 2.137 . S
O236 C227 1.247 . S
O237 Co224 2.244 . S
O237 C227 1.272 . S
O237 Co229 2.135 . S
Co238 O239 2.216 . S
Co238 O240 2.091 . S
Co238 O242 2.004 . S
Co238 O248 2.021 . S
Co238 O250 2.137 . S
Co238 O251 2.244 . S
O239 Co238 2.216 . S
O239 C246 1.247 . S
O240 Co238 2.091 . S
O240 C246 1.261 . S
C241 O250 1.247 . S
C241 O251 1.272 . S
O242 Co238 2.004 . S
O242 C247 1.259 . S
Co243 O244 2.061 . S
Co243 O249 2.052 . S
Co243 O251 2.135 . S
O244 Co243 2.061 . S
O244 C247 1.235 . S
C245 O248 1.238 . S
C245 O249 1.241 . S
C246 O239 1.247 . S
C246 O240 1.261 . S
C247 O242 1.259 . S
C247 O244 1.235 . S
O248 Co238 2.021 . S
O248 C245 1.238 . S
O249 Co243 2.052 . S
O249 C245 1.241 . S
O250 Co238 2.137 . S
O250 C241 1.247 . S
O251 Co238 2.244 . S
O251 C241 1.272 . S
O251 Co243 2.135 . S
Co252 O253 2.216 . S
Co252 O254 2.091 . S
Co252 O256 2.004 . S
Co252 O262 2.021 . S
Co252 O264 2.137 . S
Co252 O265 2.244 . S
O253 Co252 2.216 . S
O253 C260 1.247 . S
O254 Co252 2.091 . S
O254 C260 1.261 . S
C255 O264 1.247 . S
C255 O265 1.272 . S
O256 Co252 2.004 . S
O256 C261 1.259 . S
Co257 O258 2.061 . S
Co257 O263 2.052 . S
Co257 O265 2.135 . S
O258 Co257 2.061 . S
O258 C261 1.235 . S
C259 O262 1.238 . S
C259 O263 1.241 . S
C260 O253 1.247 . S
C260 O254 1.261 . S
C261 O256 1.259 . S
C261 O258 1.235 . S
O262 Co252 2.021 . S
O262 C259 1.238 . S
O263 Co257 2.052 . S
O263 C259 1.241 . S
O264 Co252 2.137 . S
O264 C255 1.247 . S
O265 Co252 2.244 . S
O265 C255 1.272 . S
O265 Co257 2.135 . S
Co266 O267 2.216 . S
Co266 O268 2.091 . S
Co266 O270 2.004 . S
Co266 O276 2.021 . S
Co266 O278 2.137 . S
Co266 O279 2.244 . S
O267 Co266 2.216 . S
O267 C274 1.247 . S
O268 Co266 2.091 . S
O268 C274 1.261 . S
C269 O278 1.247 . S
C269 O279 1.272 . S
O270 Co266 2.004 . S
O270 C275 1.259 . S
Co271 O272 2.061 . S
Co271 O277 2.052 . S
Co271 O279 2.135 . S
O272 Co271 2.061 . S
O272 C275 1.235 . S
C273 O276 1.238 . S
C273 O277 1.241 . S
C274 O267 1.247 . S
C274 O268 1.261 . S
C275 O270 1.259 . S
C275 O272 1.235 . S
O276 Co266 2.021 . S
O276 C273 1.238 . S
O277 Co271 2.052 . S
O277 C273 1.241 . S
O278 Co266 2.137 . S
O278 C269 1.247 . S
O279 Co266 2.244 . S
O279 C269 1.272 . S
O279 Co271 2.135 . S
Co280 O281 2.216 . S
Co280 O282 2.091 . S
Co280 O284 2.004 . S
Co280 O290 2.021 . S
Co280 O292 2.137 . S
Co280 O293 2.244 . S
O281 Co280 2.216 . S
O281 C288 1.247 . S
O282 Co280 2.091 . S
O282 C288 1.261 . S
C283 O292 1.247 . S
C283 O293 1.272 . S
O284 Co280 2.004 . S
O284 C289 1.259 . S
Co285 O286 2.061 . S
Co285 O291 2.052 . S
Co285 O293 2.135 . S
O286 Co285 2.061 . S
O286 C289 1.235 . S
C287 O290 1.238 . S
C287 O291 1.241 . S
C288 O281 1.247 . S
C288 O282 1.261 . S
C289 O284 1.259 . S
C289 O286 1.235 . S
O290 Co280 2.021 . S
O290 C287 1.238 . S
O291 Co285 2.052 . S
O291 C287 1.241 . S
O292 Co280 2.137 . S
O292 C283 1.247 . S
O293 Co280 2.244 . S
O293 C283 1.272 . S
O293 Co285 2.135 . S
Co294 O295 2.216 . S
Co294 O296 2.091 . S
Co294 O298 2.004 . S
Co294 O304 2.021 . S
Co294 O306 2.137 . S
Co294 O307 2.244 . S
O295 Co294 2.216 . S
O295 C302 1.247 . S
O296 Co294 2.091 . S
O296 C302 1.261 . S
C297 O306 1.247 . S
C297 O307 1.272 . S
O298 Co294 2.004 . S
O298 C303 1.259 . S
Co299 O300 2.061 . S
Co299 O305 2.052 . S
Co299 O307 2.135 . S
O300 Co299 2.061 . S
O300 C303 1.235 . S
C301 O304 1.238 . S
C301 O305 1.241 . S
C302 O295 1.247 . S
C302 O296 1.261 . S
C303 O298 1.259 . S
C303 O300 1.235 . S
O304 Co294 2.021 . S
O304 C301 1.238 . S
O305 Co299 2.052 . S
O305 C301 1.241 . S
O306 Co294 2.137 . S
O306 C297 1.247 . S
O307 Co294 2.244 . S
O307 C297 1.272 . S
O307 Co299 2.135 . S
Co308 O309 2.216 . S
Co308 O310 2.091 . S
Co308 O312 2.004 . S
Co308 O318 2.021 . S
Co308 O320 2.137 . S
Co308 O321 2.244 . S
O309 Co308 2.216 . S
O309 C316 1.247 . S
O310 Co308 2.091 . S
O310 C316 1.261 . S
C311 O320 1.247 . S
C311 O321 1.272 . S
O312 Co308 2.004 . S
O312 C317 1.259 . S
Co313 O314 2.061 . S
Co313 O319 2.052 . S
Co313 O321 2.135 . S
O314 Co313 2.061 . S
O314 C317 1.235 . S
C315 O318 1.238 . S
C315 O319 1.241 . S
C316 O309 1.247 . S
C316 O310 1.261 . S
C317 O312 1.259 . S
C317 O314 1.235 . S
O318 Co308 2.021 . S
O318 C315 1.238 . S
O319 Co313 2.052 . S
O319 C315 1.241 . S
O320 Co308 2.137 . S
O320 C311 1.247 . S
O321 Co308 2.244 . S
O321 C311 1.272 . S
O321 Co313 2.135 . S
Co322 O323 2.216 . S
Co322 O324 2.091 . S
Co322 O326 2.004 . S
Co322 O332 2.021 . S
Co322 O334 2.137 . S
Co322 O335 2.244 . S
O323 Co322 2.216 . S
O323 C330 1.247 . S
O324 Co322 2.091 . S
O324 C330 1.261 . S
C325 O334 1.247 . S
C325 O335 1.272 . S
O326 Co322 2.004 . S
O326 C331 1.259 . S
Co327 O328 2.061 . S
Co327 O333 2.052 . S
Co327 O335 2.135 . S
O328 Co327 2.061 . S
O328 C331 1.235 . S
C329 O332 1.238 . S
C329 O333 1.241 . S
C330 O323 1.247 . S
C330 O324 1.261 . S
C331 O326 1.259 . S
C331 O328 1.235 . S
O332 Co322 2.021 . S
O332 C329 1.238 . S
O333 Co327 2.052 . S
O333 C329 1.241 . S
O334 Co322 2.137 . S
O334 C325 1.247 . S
O335 Co322 2.244 . S
O335 C325 1.272 . S
O335 Co327 2.135 . S
Co336 O337 2.216 . S
Co336 O338 2.091 . S
Co336 O340 2.004 . S
Co336 O346 2.021 . S
Co336 O348 2.137 . S
Co336 O349 2.244 . S
O337 Co336 2.216 . S
O337 C344 1.247 . S
O338 Co336 2.091 . S
O338 C344 1.261 . S
C339 O348 1.247 . S
C339 O349 1.272 . S
O340 Co336 2.004 . S
O340 C345 1.259 . S
Co341 O342 2.061 . S
Co341 O347 2.052 . S
Co341 O349 2.135 . S
O342 Co341 2.061 . S
O342 C345 1.235 . S
C343 O346 1.238 . S
C343 O347 1.241 . S
C344 O337 1.247 . S
C344 O338 1.261 . S
C345 O340 1.259 . S
C345 O342 1.235 . S
O346 Co336 2.021 . S
O346 C343 1.238 . S
O347 Co341 2.052 . S
O347 C343 1.241 . S
O348 Co336 2.137 . S
O348 C339 1.247 . S
O349 Co336 2.244 . S
O349 C339 1.272 . S
O349 Co341 2.135 . S
Co350 O351 2.216 . S
Co350 O352 2.091 . S
Co350 O354 2.004 . S
Co350 O360 2.021 . S
Co350 O362 2.137 . S
Co350 O363 2.244 . S
O351 Co350 2.216 . S
O351 C358 1.247 . S
O352 Co350 2.091 . S
O352 C358 1.261 . S
C353 O362 1.247 . S
C353 O363 1.272 . S
O354 Co350 2.004 . S
O354 C359 1.259 . S
Co355 O356 2.061 . S
Co355 O361 2.052 . S
Co355 O363 2.135 . S
O356 Co355 2.061 . S
O356 C359 1.235 . S
C357 O360 1.238 . S
C357 O361 1.241 . S
C358 O351 1.247 . S
C358 O352 1.261 . S
C359 O354 1.259 . S
C359 O356 1.235 . S
O360 Co350 2.021 . S
O360 C357 1.238 . S
O361 Co355 2.052 . S
O361 C357 1.241 . S
O362 Co350 2.137 . S
O362 C353 1.247 . S
O363 Co350 2.244 . S
O363 C353 1.272 . S
O363 Co355 2.135 . S
Co364 O365 2.216 . S
Co364 O366 2.091 . S
Co364 O368 2.004 . S
Co364 O374 2.021 . S
Co364 O376 2.137 . S
Co364 O377 2.244 . S
O365 Co364 2.216 . S
O365 C372 1.247 . S
O366 Co364 2.091 . S
O366 C372 1.261 . S
C367 O376 1.247 . S
C367 O377 1.272 . S
O368 Co364 2.004 . S
O368 C373 1.259 . S
Co369 O370 2.061 . S
Co369 O375 2.052 . S
Co369 O377 2.135 . S
O370 Co369 2.061 . S
O370 C373 1.235 . S
C371 O374 1.238 . S
C371 O375 1.241 . S
C372 O365 1.247 . S
C372 O366 1.261 . S
C373 O368 1.259 . S
C373 O370 1.235 . S
O374 Co364 2.021 . S
O374 C371 1.238 . S
O375 Co369 2.052 . S
O375 C371 1.241 . S
O376 Co364 2.137 . S
O376 C367 1.247 . S
O377 Co364 2.244 . S
O377 C367 1.272 . S
O377 Co369 2.135 . S
Co378 O379 2.216 . S
Co378 O380 2.091 . S
Co378 O382 2.004 . S
Co378 O388 2.021 . S
Co378 O390 2.137 . S
Co378 O391 2.244 . S
O379 Co378 2.216 . S
O379 C386 1.247 . S
O380 Co378 2.091 . S
O380 C386 1.261 . S
C381 O390 1.247 . S
C381 O391 1.272 . S
O382 Co378 2.004 . S
O382 C387 1.259 . S
Co383 O384 2.061 . S
Co383 O389 2.052 . S
Co383 O391 2.135 . S
O384 Co383 2.061 . S
O384 C387 1.235 . S
C385 O388 1.238 . S
C385 O389 1.241 . S
C386 O379 1.247 . S
C386 O380 1.261 . S
C387 O382 1.259 . S
C387 O384 1.235 . S
O388 Co378 2.021 . S
O388 C385 1.238 . S
O389 Co383 2.052 . S
O389 C385 1.241 . S
O390 Co378 2.137 . S
O390 C381 1.247 . S
O391 Co378 2.244 . S
O391 C381 1.272 . S
O391 Co383 2.135 . S
Co392 O393 2.216 . S
Co392 O394 2.091 . S
Co392 O396 2.004 . S
Co392 O402 2.021 . S
Co392 O404 2.137 . S
Co392 O405 2.244 . S
O393 Co392 2.216 . S
O393 C400 1.247 . S
O394 Co392 2.091 . S
O394 C400 1.261 . S
C395 O404 1.247 . S
C395 O405 1.272 . S
O396 Co392 2.004 . S
O396 C401 1.259 . S
Co397 O398 2.061 . S
Co397 O403 2.052 . S
Co397 O405 2.135 . S
O398 Co397 2.061 . S
O398 C401 1.235 . S
C399 O402 1.238 . S
C399 O403 1.241 . S
C400 O393 1.247 . S
C400 O394 1.261 . S
C401 O396 1.259 . S
C401 O398 1.235 . S
O402 Co392 2.021 . S
O402 C399 1.238 . S
O403 Co397 2.052 . S
O403 C399 1.241 . S
O404 Co392 2.137 . S
O404 C395 1.247 . S
O405 Co392 2.244 . S
O405 C395 1.272 . S
O405 Co397 2.135 . S
Co406 O407 2.216 . S
Co406 O408 2.091 . S
Co406 O410 2.004 . S
Co406 O416 2.021 . S
Co406 O418 2.137 . S
Co406 O419 2.244 . S
O407 Co406 2.216 . S
O407 C414 1.247 . S
O408 Co406 2.091 . S
O408 C414 1.261 . S
C409 O418 1.247 . S
C409 O419 1.272 . S
O410 Co406 2.004 . S
O410 C415 1.259 . S
Co411 O412 2.061 . S
Co411 O417 2.052 . S
Co411 O419 2.135 . S
O412 Co411 2.061 . S
O412 C415 1.235 . S
C413 O416 1.238 . S
C413 O417 1.241 . S
C414 O407 1.247 . S
C414 O408 1.261 . S
C415 O410 1.259 . S
C415 O412 1.235 . S
O416 Co406 2.021 . S
O416 C413 1.238 . S
O417 Co411 2.052 . S
O417 C413 1.241 . S
O418 Co406 2.137 . S
O418 C409 1.247 . S
O419 Co406 2.244 . S
O419 C409 1.272 . S
O419 Co411 2.135 . S
Co420 O421 2.216 . S
Co420 O422 2.091 . S
Co420 O424 2.004 . S
Co420 O430 2.021 . S
Co420 O432 2.137 . S
Co420 O433 2.244 . S
O421 Co420 2.216 . S
O421 C428 1.247 . S
O422 Co420 2.091 . S
O422 C428 1.261 . S
C423 O432 1.247 . S
C423 O433 1.272 . S
O424 Co420 2.004 . S
O424 C429 1.259 . S
Co425 O426 2.061 . S
Co425 O431 2.052 . S
Co425 O433 2.135 . S
O426 Co425 2.061 . S
O426 C429 1.235 . S
C427 O430 1.238 . S
C427 O431 1.241 . S
C428 O421 1.247 . S
C428 O422 1.261 . S
C429 O424 1.259 . S
C429 O426 1.235 . S
O430 Co420 2.021 . S
O430 C427 1.238 . S
O431 Co425 2.052 . S
O431 C427 1.241 . S
O432 Co420 2.137 . S
O432 C423 1.247 . S
O433 Co420 2.244 . S
O433 C423 1.272 . S
O433 Co425 2.135 . S
Co434 O435 2.216 . S
Co434 O436 2.091 . S
Co434 O438 2.004 . S
Co434 O444 2.021 . S
Co434 O446 2.137 . S
Co434 O447 2.244 . S
O435 Co434 2.216 . S
O435 C442 1.247 . S
O436 Co434 2.091 . S
O436 C442 1.261 . S
C437 O446 1.247 . S
C437 O447 1.272 . S
O438 Co434 2.004 . S
O438 C443 1.259 . S
Co439 O440 2.061 . S
Co439 O445 2.052 . S
Co439 O447 2.135 . S
O440 Co439 2.061 . S
O440 C443 1.235 . S
C441 O444 1.238 . S
C441 O445 1.241 . S
C442 O435 1.247 . S
C442 O436 1.261 . S
C443 O438 1.259 . S
C443 O440 1.235 . S
O444 Co434 2.021 . S
O444 C441 1.238 . S
O445 Co439 2.052 . S
O445 C441 1.241 . S
O446 Co434 2.137 . S
O446 C437 1.247 . S
O447 Co434 2.244 . S
O447 C437 1.272 . S
O447 Co439 2.135 . S
C448 C449 1.363 . S
C448 C454 1.379 . S
C448 N456 1.356 . S
C449 C448 1.363 . S
C449 C455 1.363 . S
C450 C451 1.363 . S
C450 C455 1.379 . S
C450 N457 1.356 . S
C451 C450 1.363 . S
C451 C454 1.363 . S
N452 C454 1.356 . S
N452 H464 0.984 . S
N452 H465 0.985 . S
N453 C455 1.356 . S
N453 H458 0.984 . S
N453 H459 0.985 . S
C454 C448 1.379 . S
C454 C451 1.363 . S
C454 N452 1.356 . S
C455 C449 1.363 . S
C455 C450 1.379 . S
C455 N453 1.356 . S
N456 C448 1.356 . S
N456 H462 0.984 . S
N456 H463 0.984 . S
N457 C450 1.356 . S
N457 H460 0.984 . S
N457 H461 0.985 . S
H458 N453 0.984 . S
H459 N453 0.985 . S
H460 N457 0.984 . S
H461 N457 0.985 . S
H462 N456 0.984 . S
H463 N456 0.984 . S
H464 N452 0.984 . S
H465 N452 0.985 . S
C466 C467 1.363 . S
C466 C472 1.379 . S
C466 N474 1.356 . S
C467 C466 1.363 . S
C467 C473 1.363 . S
C468 C469 1.363 . S
C468 C473 1.379 . S
C468 N475 1.356 . S
C469 C468 1.363 . S
C469 C472 1.363 . S
N470 C472 1.356 . S
N470 H482 0.984 . S
N470 H483 0.985 . S
N471 C473 1.356 . S
N471 H476 0.984 . S
N471 H477 0.985 . S
C472 C466 1.379 . S
C472 C469 1.363 . S
C472 N470 1.356 . S
C473 C467 1.363 . S
C473 C468 1.379 . S
C473 N471 1.356 . S
N474 C466 1.356 . S
N474 H480 0.984 . S
N474 H481 0.984 . S
N475 C468 1.356 . S
N475 H478 0.984 . S
N475 H479 0.985 . S
H476 N471 0.984 . S
H477 N471 0.985 . S
H478 N475 0.984 . S
H479 N475 0.985 . S
H480 N474 0.984 . S
H481 N474 0.984 . S
H482 N470 0.984 . S
H483 N470 0.985 . S
C484 C485 1.363 . S
C484 C490 1.379 . S
C484 N492 1.356 . S
C485 C484 1.363 . S
C485 C491 1.363 . S
C486 C487 1.363 . S
C486 C491 1.379 . S
C486 N493 1.356 . S
C487 C486 1.363 . S
C487 C490 1.363 . S
N488 C490 1.356 . S
N488 H500 0.984 . S
N488 H501 0.985 . S
N489 C491 1.356 . S
N489 H494 0.984 . S
N489 H495 0.985 . S
C490 C484 1.379 . S
C490 C487 1.363 . S
C490 N488 1.356 . S
C491 C485 1.363 . S
C491 C486 1.379 . S
C491 N489 1.356 . S
N492 C484 1.356 . S
N492 H498 0.984 . S
N492 H499 0.984 . S
N493 C486 1.356 . S
N493 H496 0.984 . S
N493 H497 0.985 . S
H494 N489 0.984 . S
H495 N489 0.985 . S
H496 N493 0.984 . S
H497 N493 0.985 . S
H498 N492 0.984 . S
H499 N492 0.984 . S
H500 N488 0.984 . S
H501 N488 0.985 . S
C502 C503 1.363 . S
C502 C508 1.379 . S
C502 N510 1.356 . S
C503 C502 1.363 . S
C503 C509 1.363 . S
C504 C505 1.363 . S
C504 C509 1.379 . S
C504 N511 1.356 . S
C505 C504 1.363 . S
C505 C508 1.363 . S
N506 C508 1.356 . S
N506 H518 0.984 . S
N506 H519 0.985 . S
N507 C509 1.356 . S
N507 H512 0.984 . S
N507 H513 0.985 . S
C508 C502 1.379 . S
C508 C505 1.363 . S
C508 N506 1.356 . S
C509 C503 1.363 . S
C509 C504 1.379 . S
C509 N507 1.356 . S
N510 C502 1.356 . S
N510 H516 0.984 . S
N510 H517 0.984 . S
N511 C504 1.356 . S
N511 H514 0.984 . S
N511 H515 0.985 . S
H512 N507 0.984 . S
H513 N507 0.985 . S
H514 N511 0.984 . S
H515 N511 0.985 . S
H516 N510 0.984 . S
H517 N510 0.984 . S
H518 N506 0.984 . S
H519 N506 0.985 . S
C520 C521 1.363 . S
C520 C526 1.379 . S
C520 N528 1.356 . S
C521 C520 1.363 . S
C521 C527 1.363 . S
C522 C523 1.363 . S
C522 C527 1.379 . S
C522 N529 1.356 . S
C523 C522 1.363 . S
C523 C526 1.363 . S
N524 C526 1.356 . S
N524 H536 0.984 . S
N524 H537 0.985 . S
N525 C527 1.356 . S
N525 H530 0.984 . S
N525 H531 0.985 . S
C526 C520 1.379 . S
C526 C523 1.363 . S
C526 N524 1.356 . S
C527 C521 1.363 . S
C527 C522 1.379 . S
C527 N525 1.356 . S
N528 C520 1.356 . S
N528 H534 0.984 . S
N528 H535 0.984 . S
N529 C522 1.356 . S
N529 H532 0.984 . S
N529 H533 0.985 . S
H530 N525 0.984 . S
H531 N525 0.985 . S
H532 N529 0.984 . S
H533 N529 0.985 . S
H534 N528 0.984 . S
H535 N528 0.984 . S
H536 N524 0.984 . S
H537 N524 0.985 . S
C538 C539 1.363 . S
C538 C544 1.379 . S
C538 N546 1.356 . S
C539 C538 1.363 . S
C539 C545 1.363 . S
C540 C541 1.363 . S
C540 C545 1.379 . S
C540 N547 1.356 . S
C541 C540 1.363 . S
C541 C544 1.363 . S
N542 C544 1.356 . S
N542 H554 0.984 . S
N542 H555 0.985 . S
N543 C545 1.356 . S
N543 H548 0.984 . S
N543 H549 0.985 . S
C544 C538 1.379 . S
C544 C541 1.363 . S
C544 N542 1.356 . S
C545 C539 1.363 . S
C545 C540 1.379 . S
C545 N543 1.356 . S
N546 C538 1.356 . S
N546 H552 0.984 . S
N546 H553 0.984 . S
N547 C540 1.356 . S
N547 H550 0.984 . S
N547 H551 0.985 . S
H548 N543 0.984 . S
H549 N543 0.985 . S
H550 N547 0.984 . S
H551 N547 0.985 . S
H552 N546 0.984 . S
H553 N546 0.984 . S
H554 N542 0.984 . S
H555 N542 0.985 . S
C556 C557 1.363 . S
C556 C562 1.379 . S
C556 N564 1.356 . S
C557 C556 1.363 . S
C557 C563 1.363 . S
C558 C559 1.363 . S
C558 C563 1.379 . S
C558 N565 1.356 . S
C559 C558 1.363 . S
C559 C562 1.363 . S
N560 C562 1.356 . S
N560 H572 0.984 . S
N560 H573 0.985 . S
N561 C563 1.356 . S
N561 H566 0.984 . S
N561 H567 0.985 . S
C562 C556 1.379 . S
C562 C559 1.363 . S
C562 N560 1.356 . S
C563 C557 1.363 . S
C563 C558 1.379 . S
C563 N561 1.356 . S
N564 C556 1.356 . S
N564 H570 0.984 . S
N564 H571 0.984 . S
N565 C558 1.356 . S
N565 H568 0.984 . S
N565 H569 0.985 . S
H566 N561 0.984 . S
H567 N561 0.985 . S
H568 N565 0.984 . S
H569 N565 0.985 . S
H570 N564 0.984 . S
H571 N564 0.984 . S
H572 N560 0.984 . S
H573 N560 0.985 . S
C574 C575 1.363 . S
C574 C580 1.379 . S
C574 N582 1.356 . S
C575 C574 1.363 . S
C575 C581 1.363 . S
C576 C577 1.363 . S
C576 C581 1.379 . S
C576 N583 1.356 . S
C577 C576 1.363 . S
C577 C580 1.363 . S
N578 C580 1.356 . S
N578 H590 0.984 . S
N578 H591 0.985 . S
N579 C581 1.356 . S
N579 H584 0.984 . S
N579 H585 0.985 . S
C580 C574 1.379 . S
C580 C577 1.363 . S
C580 N578 1.356 . S
C581 C575 1.363 . S
C581 C576 1.379 . S
C581 N579 1.356 . S
N582 C574 1.356 . S
N582 H588 0.984 . S
N582 H589 0.984 . S
N583 C576 1.356 . S
N583 H586 0.984 . S
N583 H587 0.985 . S
H584 N579 0.984 . S
H585 N579 0.985 . S
H586 N583 0.984 . S
H587 N583 0.985 . S
H588 N582 0.984 . S
H589 N582 0.984 . S
H590 N578 0.984 . S
H591 N578 0.985 . S
C592 C593 1.363 . S
C592 C598 1.379 . S
C592 N600 1.356 . S
C593 C592 1.363 . S
C593 C599 1.363 . S
C594 C595 1.363 . S
C594 C599 1.379 . S
C594 N601 1.356 . S
C595 C594 1.363 . S
C595 C598 1.363 . S
N596 C598 1.356 . S
N596 H608 0.984 . S
N596 H609 0.985 . S
N597 C599 1.356 . S
N597 H602 0.984 . S
N597 H603 0.985 . S
C598 C592 1.379 . S
C598 C595 1.363 . S
C598 N596 1.356 . S
C599 C593 1.363 . S
C599 C594 1.379 . S
C599 N597 1.356 . S
N600 C592 1.356 . S
N600 H606 0.984 . S
N600 H607 0.984 . S
N601 C594 1.356 . S
N601 H604 0.984 . S
N601 H605 0.985 . S
H602 N597 0.984 . S
H603 N597 0.985 . S
H604 N601 0.984 . S
H605 N601 0.985 . S
H606 N600 0.984 . S
H607 N600 0.984 . S
H608 N596 0.984 . S
H609 N596 0.985 . S
C610 C611 1.363 . S
C610 C616 1.379 . S
C610 N618 1.356 . S
C611 C610 1.363 . S
C611 C617 1.363 . S
C612 C613 1.363 . S
C612 C617 1.379 . S
C612 N619 1.356 . S
C613 C612 1.363 . S
C613 C616 1.363 . S
N614 C616 1.356 . S
N614 H626 0.984 . S
N614 H627 0.985 . S
N615 C617 1.356 . S
N615 H620 0.984 . S
N615 H621 0.985 . S
C616 C610 1.379 . S
C616 C613 1.363 . S
C616 N614 1.356 . S
C617 C611 1.363 . S
C617 C612 1.379 . S
C617 N615 1.356 . S
N618 C610 1.356 . S
N618 H624 0.984 . S
N618 H625 0.984 . S
N619 C612 1.356 . S
N619 H622 0.984 . S
N619 H623 0.985 . S
H620 N615 0.984 . S
H621 N615 0.985 . S
H622 N619 0.984 . S
H623 N619 0.985 . S
H624 N618 0.984 . S
H625 N618 0.984 . S
H626 N614 0.984 . S
H627 N614 0.985 . S
C628 C629 1.363 . S
C628 C634 1.379 . S
C628 N636 1.356 . S
C629 C628 1.363 . S
C629 C635 1.363 . S
C630 C631 1.363 . S
C630 C635 1.379 . S
C630 N637 1.356 . S
C631 C630 1.363 . S
C631 C634 1.363 . S
N632 C634 1.356 . S
N632 H644 0.984 . S
N632 H645 0.985 . S
N633 C635 1.356 . S
N633 H638 0.984 . S
N633 H639 0.985 . S
C634 C628 1.379 . S
C634 C631 1.363 . S
C634 N632 1.356 . S
C635 C629 1.363 . S
C635 C630 1.379 . S
C635 N633 1.356 . S
N636 C628 1.356 . S
N636 H642 0.984 . S
N636 H643 0.984 . S
N637 C630 1.356 . S
N637 H640 0.984 . S
N637 H641 0.985 . S
H638 N633 0.984 . S
H639 N633 0.985 . S
H640 N637 0.984 . S
H641 N637 0.985 . S
H642 N636 0.984 . S
H643 N636 0.984 . S
H644 N632 0.984 . S
H645 N632 0.985 . S
C646 C647 1.363 . S
C646 C652 1.379 . S
C646 N654 1.356 . S
C647 C646 1.363 . S
C647 C653 1.363 . S
C648 C649 1.363 . S
C648 C653 1.379 . S
C648 N655 1.356 . S
C649 C648 1.363 . S
C649 C652 1.363 . S
N650 C652 1.356 . S
N650 H662 0.984 . S
N650 H663 0.985 . S
N651 C653 1.356 . S
N651 H656 0.984 . S
N651 H657 0.985 . S
C652 C646 1.379 . S
C652 C649 1.363 . S
C652 N650 1.356 . S
C653 C647 1.363 . S
C653 C648 1.379 . S
C653 N651 1.356 . S
N654 C646 1.356 . S
N654 H660 0.984 . S
N654 H661 0.984 . S
N655 C648 1.356 . S
N655 H658 0.984 . S
N655 H659 0.985 . S
H656 N651 0.984 . S
H657 N651 0.985 . S
H658 N655 0.984 . S
H659 N655 0.985 . S
H660 N654 0.984 . S
H661 N654 0.984 . S
H662 N650 0.984 . S
H663 N650 0.985 . S
C664 C665 1.363 . S
C664 C670 1.379 . S
C664 N672 1.356 . S
C665 C664 1.363 . S
C665 C671 1.363 . S
C666 C667 1.363 . S
C666 C671 1.379 . S
C666 N673 1.356 . S
C667 C666 1.363 . S
C667 C670 1.363 . S
N668 C670 1.356 . S
N668 H680 0.984 . S
N668 H681 0.985 . S
N669 C671 1.356 . S
N669 H674 0.984 . S
N669 H675 0.985 . S
C670 C664 1.379 . S
C670 C667 1.363 . S
C670 N668 1.356 . S
C671 C665 1.363 . S
C671 C666 1.379 . S
C671 N669 1.356 . S
N672 C664 1.356 . S
N672 H678 0.984 . S
N672 H679 0.984 . S
N673 C666 1.356 . S
N673 H676 0.984 . S
N673 H677 0.985 . S
H674 N669 0.984 . S
H675 N669 0.985 . S
H676 N673 0.984 . S
H677 N673 0.985 . S
H678 N672 0.984 . S
H679 N672 0.984 . S
H680 N668 0.984 . S
H681 N668 0.985 . S
C682 C683 1.363 . S
C682 C688 1.379 . S
C682 N690 1.356 . S
C683 C682 1.363 . S
C683 C689 1.363 . S
C684 C685 1.363 . S
C684 C689 1.379 . S
C684 N691 1.356 . S
C685 C684 1.363 . S
C685 C688 1.363 . S
N686 C688 1.356 . S
N686 H698 0.984 . S
N686 H699 0.985 . S
N687 C689 1.356 . S
N687 H692 0.984 . S
N687 H693 0.985 . S
C688 C682 1.379 . S
C688 C685 1.363 . S
C688 N686 1.356 . S
C689 C683 1.363 . S
C689 C684 1.379 . S
C689 N687 1.356 . S
N690 C682 1.356 . S
N690 H696 0.984 . S
N690 H697 0.984 . S
N691 C684 1.356 . S
N691 H694 0.984 . S
N691 H695 0.985 . S
H692 N687 0.984 . S
H693 N687 0.985 . S
H694 N691 0.984 . S
H695 N691 0.985 . S
H696 N690 0.984 . S
H697 N690 0.984 . S
H698 N686 0.984 . S
H699 N686 0.985 . S
C700 C701 1.363 . S
C700 C706 1.379 . S
C700 N708 1.356 . S
C701 C700 1.363 . S
C701 C707 1.363 . S
C702 C703 1.363 . S
C702 C707 1.379 . S
C702 N709 1.356 . S
C703 C702 1.363 . S
C703 C706 1.363 . S
N704 C706 1.356 . S
N704 H716 0.984 . S
N704 H717 0.985 . S
N705 C707 1.356 . S
N705 H710 0.984 . S
N705 H711 0.985 . S
C706 C700 1.379 . S
C706 C703 1.363 . S
C706 N704 1.356 . S
C707 C701 1.363 . S
C707 C702 1.379 . S
C707 N705 1.356 . S
N708 C700 1.356 . S
N708 H714 0.984 . S
N708 H715 0.984 . S
N709 C702 1.356 . S
N709 H712 0.984 . S
N709 H713 0.985 . S
H710 N705 0.984 . S
H711 N705 0.985 . S
H712 N709 0.984 . S
H713 N709 0.985 . S
H714 N708 0.984 . S
H715 N708 0.984 . S
H716 N704 0.984 . S
H717 N704 0.985 . S
C718 C719 1.363 . S
C718 C724 1.379 . S
C718 N726 1.356 . S
C719 C718 1.363 . S
C719 C725 1.363 . S
C720 C721 1.363 . S
C720 C725 1.379 . S
C720 N727 1.356 . S
C721 C720 1.363 . S
C721 C724 1.363 . S
N722 C724 1.356 . S
N722 H734 0.984 . S
N722 H735 0.985 . S
N723 C725 1.356 . S
N723 H728 0.984 . S
N723 H729 0.985 . S
C724 C718 1.379 . S
C724 C721 1.363 . S
C724 N722 1.356 . S
C725 C719 1.363 . S
C725 C720 1.379 . S
C725 N723 1.356 . S
N726 C718 1.356 . S
N726 H732 0.984 . S
N726 H733 0.984 . S
N727 C720 1.356 . S
N727 H730 0.984 . S
N727 H731 0.985 . S
H728 N723 0.984 . S
H729 N723 0.985 . S
H730 N727 0.984 . S
H731 N727 0.985 . S
H732 N726 0.984 . S
H733 N726 0.984 . S
H734 N722 0.984 . S
H735 N722 0.985 . S
C736 C737 1.363 . S
C736 C742 1.379 1_655 S
C736 N744 1.356 . S
C737 C736 1.363 . S
C737 C743 1.363 . S
C738 C739 1.363 . S
C738 C743 1.379 1_455 S
C738 N745 1.356 . S
C739 C738 1.363 . S
C739 C742 1.363 . S
N740 C742 1.356 . S
N740 H752 0.984 . S
N740 H753 0.985 . S
N741 C743 1.356 . S
N741 H746 0.984 . S
N741 H747 0.985 . S
C742 C736 1.379 1_455 S
C742 C739 1.363 . S
C742 N740 1.356 . S
C743 C737 1.363 . S
C743 C738 1.379 1_655 S
C743 N741 1.356 . S
N744 C736 1.356 . S
N744 H750 0.984 . S
N744 H751 0.984 . S
N745 C738 1.356 . S
N745 H748 0.984 . S
N745 H749 0.985 . S
H746 N741 0.984 . S
H747 N741 0.985 . S
H748 N745 0.984 . S
H749 N745 0.985 . S
H750 N744 0.984 . S
H751 N744 0.984 . S
H752 N740 0.984 . S
H753 N740 0.985 . S
C754 C755 1.363 . S
C754 C760 1.379 1_545 S
C754 N762 1.356 . S
C755 C754 1.363 . S
C755 C761 1.363 . S
C756 C757 1.363 . S
C756 C761 1.379 1_565 S
C756 N763 1.356 . S
C757 C756 1.363 . S
C757 C760 1.363 . S
N758 C760 1.356 . S
N758 H770 0.984 . S
N758 H771 0.985 . S
N759 C761 1.356 . S
N759 H764 0.984 . S
N759 H765 0.985 . S
C760 C754 1.379 1_565 S
C760 C757 1.363 . S
C760 N758 1.356 . S
C761 C755 1.363 . S
C761 C756 1.379 1_545 S
C761 N759 1.356 . S
N762 C754 1.356 . S
N762 H768 0.984 . S
N762 H769 0.984 . S
N763 C756 1.356 . S
N763 H766 0.984 . S
N763 H767 0.985 . S
H764 N759 0.984 . S
H765 N759 0.985 . S
H766 N763 0.984 . S
H767 N763 0.985 . S
H768 N762 0.984 . S
H769 N762 0.984 . S
H770 N758 0.984 . S
H771 N758 0.985 . S
C772 C773 1.363 . S
C772 C778 1.379 1_455 S
C772 N780 1.356 . S
C773 C772 1.363 . S
C773 C779 1.363 . S
C774 C775 1.363 . S
C774 C779 1.379 1_655 S
C774 N781 1.356 . S
C775 C774 1.363 . S
C775 C778 1.363 . S
N776 C778 1.356 . S
N776 H788 0.984 . S
N776 H789 0.985 . S
N777 C779 1.356 . S
N777 H782 0.984 . S
N777 H783 0.985 . S
C778 C772 1.379 1_655 S
C778 C775 1.363 . S
C778 N776 1.356 . S
C779 C773 1.363 . S
C779 C774 1.379 1_455 S
C779 N777 1.356 . S
N780 C772 1.356 . S
N780 H786 0.984 . S
N780 H787 0.984 . S
N781 C774 1.356 . S
N781 H784 0.984 . S
N781 H785 0.985 . S
H782 N777 0.984 . S
H783 N777 0.985 . S
H784 N781 0.984 . S
H785 N781 0.985 . S
H786 N780 0.984 . S
H787 N780 0.984 . S
H788 N776 0.984 . S
H789 N776 0.985 . S
C790 C791 1.363 . S
C790 C796 1.379 1_565 S
C790 N798 1.356 . S
C791 C790 1.363 . S
C791 C797 1.363 . S
C792 C793 1.363 . S
C792 C797 1.379 1_545 S
C792 N799 1.356 . S
C793 C792 1.363 . S
C793 C796 1.363 . S
N794 C796 1.356 . S
N794 H806 0.984 . S
N794 H807 0.985 . S
N795 C797 1.356 . S
N795 H800 0.984 . S
N795 H801 0.985 . S
C796 C790 1.379 1_545 S
C796 C793 1.363 . S
C796 N794 1.356 . S
C797 C791 1.363 . S
C797 C792 1.379 1_565 S
C797 N795 1.356 . S
N798 C790 1.356 . S
N798 H804 0.984 . S
N798 H805 0.984 . S
N799 C792 1.356 . S
N799 H802 0.984 . S
N799 H803 0.985 . S
H800 N795 0.984 . S
H801 N795 0.985 . S
H802 N799 0.984 . S
H803 N799 0.985 . S
H804 N798 0.984 . S
H805 N798 0.984 . S
H806 N794 0.984 . S
H807 N794 0.985 . S
C808 C809 1.363 . S
C808 C814 1.379 1_455 S
C808 N816 1.356 . S
C809 C808 1.363 . S
C809 C815 1.363 . S
C810 C811 1.363 . S
C810 C815 1.379 1_655 S
C810 N817 1.356 . S
C811 C810 1.363 . S
C811 C814 1.363 . S
N812 C814 1.356 . S
N812 H824 0.984 . S
N812 H825 0.985 . S
N813 C815 1.356 . S
N813 H818 0.984 . S
N813 H819 0.985 . S
C814 C808 1.379 1_655 S
C814 C811 1.363 . S
C814 N812 1.356 . S
C815 C809 1.363 . S
C815 C810 1.379 1_455 S
C815 N813 1.356 . S
N816 C808 1.356 . S
N816 H822 0.984 . S
N816 H823 0.984 . S
N817 C810 1.356 . S
N817 H820 0.984 . S
N817 H821 0.985 . S
H818 N813 0.984 . S
H819 N813 0.985 . S
H820 N817 0.984 . S
H821 N817 0.985 . S
H822 N816 0.984 . S
H823 N816 0.984 . S
H824 N812 0.984 . S
H825 N812 0.985 . S
C826 C827 1.363 . S
C826 C832 1.379 1_565 S
C826 N834 1.356 . S
C827 C826 1.363 . S
C827 C833 1.363 . S
C828 C829 1.363 . S
C828 C833 1.379 1_545 S
C828 N835 1.356 . S
C829 C828 1.363 . S
C829 C832 1.363 . S
N830 C832 1.356 . S
N830 H842 0.984 . S
N830 H843 0.985 . S
N831 C833 1.356 . S
N831 H836 0.984 . S
N831 H837 0.985 . S
C832 C826 1.379 1_545 S
C832 C829 1.363 . S
C832 N830 1.356 . S
C833 C827 1.363 . S
C833 C828 1.379 1_565 S
C833 N831 1.356 . S
N834 C826 1.356 . S
N834 H840 0.984 . S
N834 H841 0.984 . S
N835 C828 1.356 . S
N835 H838 0.984 . S
N835 H839 0.985 . S
H836 N831 0.984 . S
H837 N831 0.985 . S
H838 N835 0.984 . S
H839 N835 0.985 . S
H840 N834 0.984 . S
H841 N834 0.984 . S
H842 N830 0.984 . S
H843 N830 0.985 . S
C844 C845 1.363 . S
C844 C850 1.379 1_455 S
C844 N852 1.356 . S
C845 C844 1.363 . S
C845 C851 1.363 . S
C846 C847 1.363 . S
C846 C851 1.379 1_655 S
C846 N853 1.356 . S
C847 C846 1.363 . S
C847 C850 1.363 . S
N848 C850 1.356 . S
N848 H860 0.984 . S
N848 H861 0.985 . S
N849 C851 1.356 . S
N849 H854 0.984 . S
N849 H855 0.985 . S
C850 C844 1.379 1_655 S
C850 C847 1.363 . S
C850 N848 1.356 . S
C851 C845 1.363 . S
C851 C846 1.379 1_455 S
C851 N849 1.356 . S
N852 C844 1.356 . S
N852 H858 0.984 . S
N852 H859 0.984 . S
N853 C846 1.356 . S
N853 H856 0.984 . S
N853 H857 0.985 . S
H854 N849 0.984 . S
H855 N849 0.985 . S
H856 N853 0.984 . S
H857 N853 0.985 . S
H858 N852 0.984 . S
H859 N852 0.984 . S
H860 N848 0.984 . S
H861 N848 0.985 . S
C862 C863 1.363 . S
C862 C868 1.379 1_545 S
C862 N870 1.356 . S
C863 C862 1.363 . S
C863 C869 1.363 . S
C864 C865 1.363 . S
C864 C869 1.379 1_565 S
C864 N871 1.356 . S
C865 C864 1.363 . S
C865 C868 1.363 . S
N866 C868 1.356 . S
N866 H878 0.984 . S
N866 H879 0.985 . S
N867 C869 1.356 . S
N867 H872 0.984 . S
N867 H873 0.985 . S
C868 C862 1.379 1_565 S
C868 C865 1.363 . S
C868 N866 1.356 . S
C869 C863 1.363 . S
C869 C864 1.379 1_545 S
C869 N867 1.356 . S
N870 C862 1.356 . S
N870 H876 0.984 . S
N870 H877 0.984 . S
N871 C864 1.356 . S
N871 H874 0.984 . S
N871 H875 0.985 . S
H872 N867 0.984 . S
H873 N867 0.985 . S
H874 N871 0.984 . S
H875 N871 0.985 . S
H876 N870 0.984 . S
H877 N870 0.984 . S
H878 N866 0.984 . S
H879 N866 0.985 . S
C880 C881 1.363 . S
C880 C886 1.379 . S
C880 N888 1.356 . S
C881 C880 1.363 . S
C881 C887 1.363 . S
C882 C883 1.363 . S
C882 C887 1.379 . S
C882 N889 1.356 . S
C883 C882 1.363 . S
C883 C886 1.363 . S
N884 C886 1.356 . S
N884 H896 0.984 . S
N884 H897 0.985 . S
N885 C887 1.356 . S
N885 H890 0.984 . S
N885 H891 0.985 . S
C886 C880 1.379 . S
C886 C883 1.363 . S
C886 N884 1.356 . S
C887 C881 1.363 . S
C887 C882 1.379 . S
C887 N885 1.356 . S
N888 C880 1.356 . S
N888 H894 0.984 . S
N888 H895 0.984 . S
N889 C882 1.356 . S
N889 H892 0.984 . S
N889 H893 0.985 . S
H890 N885 0.984 . S
H891 N885 0.985 . S
H892 N889 0.984 . S
H893 N889 0.985 . S
H894 N888 0.984 . S
H895 N888 0.984 . S
H896 N884 0.984 . S
H897 N884 0.985 . S
C898 C899 1.363 . S
C898 C904 1.379 . S
C898 N906 1.356 . S
C899 C898 1.363 . S
C899 C905 1.363 . S
C900 C901 1.363 . S
C900 C905 1.379 . S
C900 N907 1.356 . S
C901 C900 1.363 . S
C901 C904 1.363 . S
N902 C904 1.356 . S
N902 H914 0.984 . S
N902 H915 0.985 . S
N903 C905 1.356 . S
N903 H908 0.984 . S
N903 H909 0.985 . S
C904 C898 1.379 . S
C904 C901 1.363 . S
C904 N902 1.356 . S
C905 C899 1.363 . S
C905 C900 1.379 . S
C905 N903 1.356 . S
N906 C898 1.356 . S
N906 H912 0.984 . S
N906 H913 0.984 . S
N907 C900 1.356 . S
N907 H910 0.984 . S
N907 H911 0.985 . S
H908 N903 0.984 . S
H909 N903 0.985 . S
H910 N907 0.984 . S
H911 N907 0.985 . S
H912 N906 0.984 . S
H913 N906 0.984 . S
H914 N902 0.984 . S
H915 N902 0.985 . S
C916 C917 1.363 . S
C916 C922 1.379 . S
C916 N924 1.356 . S
C917 C916 1.363 . S
C917 C923 1.363 . S
C918 C919 1.363 . S
C918 C923 1.379 . S
C918 N925 1.356 . S
C919 C918 1.363 . S
C919 C922 1.363 . S
N920 C922 1.356 . S
N920 H932 0.984 . S
N920 H933 0.985 . S
N921 C923 1.356 . S
N921 H926 0.984 . S
N921 H927 0.985 . S
C922 C916 1.379 . S
C922 C919 1.363 . S
C922 N920 1.356 . S
C923 C917 1.363 . S
C923 C918 1.379 . S
C923 N921 1.356 . S
N924 C916 1.356 . S
N924 H930 0.984 . S
N924 H931 0.984 . S
N925 C918 1.356 . S
N925 H928 0.984 . S
N925 H929 0.985 . S
H926 N921 0.984 . S
H927 N921 0.985 . S
H928 N925 0.984 . S
H929 N925 0.985 . S
H930 N924 0.984 . S
H931 N924 0.984 . S
H932 N920 0.984 . S
H933 N920 0.985 . S
C934 C935 1.363 . S
C934 C940 1.379 . S
C934 N942 1.356 . S
C935 C934 1.363 . S
C935 C941 1.363 . S
C936 C937 1.363 . S
C936 C941 1.379 . S
C936 N943 1.356 . S
C937 C936 1.363 . S
C937 C940 1.363 . S
N938 C940 1.356 . S
N938 H950 0.984 . S
N938 H951 0.985 . S
N939 C941 1.356 . S
N939 H944 0.984 . S
N939 H945 0.985 . S
C940 C934 1.379 . S
C940 C937 1.363 . S
C940 N938 1.356 . S
C941 C935 1.363 . S
C941 C936 1.379 . S
C941 N939 1.356 . S
N942 C934 1.356 . S
N942 H948 0.984 . S
N942 H949 0.984 . S
N943 C936 1.356 . S
N943 H946 0.984 . S
N943 H947 0.985 . S
H944 N939 0.984 . S
H945 N939 0.985 . S
H946 N943 0.984 . S
H947 N943 0.985 . S
H948 N942 0.984 . S
H949 N942 0.984 . S
H950 N938 0.984 . S
H951 N938 0.985 . S
C952 C953 1.363 . S
C952 C958 1.379 . S
C952 N960 1.356 . S
C953 C952 1.363 . S
C953 C959 1.363 . S
C954 C955 1.363 . S
C954 C959 1.379 . S
C954 N961 1.356 . S
C955 C954 1.363 . S
C955 C958 1.363 . S
N956 C958 1.356 . S
N956 H968 0.984 . S
N956 H969 0.985 . S
N957 C959 1.356 . S
N957 H962 0.984 . S
N957 H963 0.985 . S
C958 C952 1.379 . S
C958 C955 1.363 . S
C958 N956 1.356 . S
C959 C953 1.363 . S
C959 C954 1.379 . S
C959 N957 1.356 . S
N960 C952 1.356 . S
N960 H966 0.984 . S
N960 H967 0.984 . S
N961 C954 1.356 . S
N961 H964 0.984 . S
N961 H965 0.985 . S
H962 N957 0.984 . S
H963 N957 0.985 . S
H964 N961 0.984 . S
H965 N961 0.985 . S
H966 N960 0.984 . S
H967 N960 0.984 . S
H968 N956 0.984 . S
H969 N956 0.985 . S
C970 C971 1.363 . S
C970 C976 1.379 . S
C970 N978 1.356 . S
C971 C970 1.363 . S
C971 C977 1.363 . S
C972 C973 1.363 . S
C972 C977 1.379 . S
C972 N979 1.356 . S
C973 C972 1.363 . S
C973 C976 1.363 . S
N974 C976 1.356 . S
N974 H986 0.984 . S
N974 H987 0.985 . S
N975 C977 1.356 . S
N975 H980 0.984 . S
N975 H981 0.985 . S
C976 C970 1.379 . S
C976 C973 1.363 . S
C976 N974 1.356 . S
C977 C971 1.363 . S
C977 C972 1.379 . S
C977 N975 1.356 . S
N978 C970 1.356 . S
N978 H984 0.984 . S
N978 H985 0.984 . S
N979 C972 1.356 . S
N979 H982 0.984 . S
N979 H983 0.985 . S
H980 N975 0.984 . S
H981 N975 0.985 . S
H982 N979 0.984 . S
H983 N979 0.985 . S
H984 N978 0.984 . S
H985 N978 0.984 . S
H986 N974 0.984 . S
H987 N974 0.985 . S
C988 C989 1.363 . S
C988 C994 1.379 . S
C988 N996 1.356 . S
C989 C988 1.363 . S
C989 C995 1.363 . S
C990 C991 1.363 . S
C990 C995 1.379 . S
C990 N997 1.356 . S
C991 C990 1.363 . S
C991 C994 1.363 . S
N992 C994 1.356 . S
N992 H1004 0.984 . S
N992 H1005 0.985 . S
N993 C995 1.356 . S
N993 H998 0.984 . S
N993 H999 0.985 . S
C994 C988 1.379 . S
C994 C991 1.363 . S
C994 N992 1.356 . S
C995 C989 1.363 . S
C995 C990 1.379 . S
C995 N993 1.356 . S
N996 C988 1.356 . S
N996 H1002 0.984 . S
N996 H1003 0.984 . S
N997 C990 1.356 . S
N997 H1000 0.984 . S
N997 H1001 0.985 . S
H998 N993 0.984 . S
H999 N993 0.985 . S
H1000 N997 0.984 . S
H1001 N997 0.985 . S
H1002 N996 0.984 . S
H1003 N996 0.984 . S
H1004 N992 0.984 . S
H1005 N992 0.985 . S
C1006 C1007 1.363 . S
C1006 C1012 1.379 . S
C1006 N1014 1.356 . S
C1007 C1006 1.363 . S
C1007 C1013 1.363 . S
C1008 C1009 1.363 . S
C1008 C1013 1.379 . S
C1008 N1015 1.356 . S
C1009 C1008 1.363 . S
C1009 C1012 1.363 . S
N1010 C1012 1.356 . S
N1010 H1022 0.984 . S
N1010 H1023 0.985 . S
N1011 C1013 1.356 . S
N1011 H1016 0.984 . S
N1011 H1017 0.985 . S
C1012 C1006 1.379 . S
C1012 C1009 1.363 . S
C1012 N1010 1.356 . S
C1013 C1007 1.363 . S
C1013 C1008 1.379 . S
C1013 N1011 1.356 . S
N1014 C1006 1.356 . S
N1014 H1020 0.984 . S
N1014 H1021 0.984 . S
N1015 C1008 1.356 . S
N1015 H1018 0.984 . S
N1015 H1019 0.985 . S
H1016 N1011 0.984 . S
H1017 N1011 0.985 . S
H1018 N1015 0.984 . S
H1019 N1015 0.985 . S
H1020 N1014 0.984 . S
H1021 N1014 0.984 . S
H1022 N1010 0.984 . S
H1023 N1010 0.985 . S
C1024 C1025 1.363 . S
C1024 C1030 1.379 . S
C1024 N1032 1.356 . S
C1025 C1024 1.363 . S
C1025 C1031 1.363 . S
C1026 C1027 1.363 . S
C1026 C1031 1.379 . S
C1026 N1033 1.356 . S
C1027 C1026 1.363 . S
C1027 C1030 1.363 . S
N1028 C1030 1.356 . S
N1028 H1040 0.984 . S
N1028 H1041 0.985 . S
N1029 C1031 1.356 . S
N1029 H1034 0.984 . S
N1029 H1035 0.985 . S
C1030 C1024 1.379 . S
C1030 C1027 1.363 . S
C1030 N1028 1.356 . S
C1031 C1025 1.363 . S
C1031 C1026 1.379 . S
C1031 N1029 1.356 . S
N1032 C1024 1.356 . S
N1032 H1038 0.984 . S
N1032 H1039 0.984 . S
N1033 C1026 1.356 . S
N1033 H1036 0.984 . S
N1033 H1037 0.985 . S
H1034 N1029 0.984 . S
H1035 N1029 0.985 . S
H1036 N1033 0.984 . S
H1037 N1033 0.985 . S
H1038 N1032 0.984 . S
H1039 N1032 0.984 . S
H1040 N1028 0.984 . S
H1041 N1028 0.985 . S
C1042 C1043 1.363 . S
C1042 C1048 1.379 . S
C1042 N1050 1.356 . S
C1043 C1042 1.363 . S
C1043 C1049 1.363 . S
C1044 C1045 1.363 . S
C1044 C1049 1.379 . S
C1044 N1051 1.356 . S
C1045 C1044 1.363 . S
C1045 C1048 1.363 . S
N1046 C1048 1.356 . S
N1046 H1058 0.984 . S
N1046 H1059 0.985 . S
N1047 C1049 1.356 . S
N1047 H1052 0.984 . S
N1047 H1053 0.985 . S
C1048 C1042 1.379 . S
C1048 C1045 1.363 . S
C1048 N1046 1.356 . S
C1049 C1043 1.363 . S
C1049 C1044 1.379 . S
C1049 N1047 1.356 . S
N1050 C1042 1.356 . S
N1050 H1056 0.984 . S
N1050 H1057 0.984 . S
N1051 C1044 1.356 . S
N1051 H1054 0.984 . S
N1051 H1055 0.985 . S
H1052 N1047 0.984 . S
H1053 N1047 0.985 . S
H1054 N1051 0.984 . S
H1055 N1051 0.985 . S
H1056 N1050 0.984 . S
H1057 N1050 0.984 . S
H1058 N1046 0.984 . S
H1059 N1046 0.985 . S
C1060 C1061 1.363 . S
C1060 C1066 1.379 . S
C1060 N1068 1.356 . S
C1061 C1060 1.363 . S
C1061 C1067 1.363 . S
C1062 C1063 1.363 . S
C1062 C1067 1.379 . S
C1062 N1069 1.356 . S
C1063 C1062 1.363 . S
C1063 C1066 1.363 . S
N1064 C1066 1.356 . S
N1064 H1076 0.984 . S
N1064 H1077 0.985 . S
N1065 C1067 1.356 . S
N1065 H1070 0.984 . S
N1065 H1071 0.985 . S
C1066 C1060 1.379 . S
C1066 C1063 1.363 . S
C1066 N1064 1.356 . S
C1067 C1061 1.363 . S
C1067 C1062 1.379 . S
C1067 N1065 1.356 . S
N1068 C1060 1.356 . S
N1068 H1074 0.984 . S
N1068 H1075 0.984 . S
N1069 C1062 1.356 . S
N1069 H1072 0.984 . S
N1069 H1073 0.985 . S
H1070 N1065 0.984 . S
H1071 N1065 0.985 . S
H1072 N1069 0.984 . S
H1073 N1069 0.985 . S
H1074 N1068 0.984 . S
H1075 N1068 0.984 . S
H1076 N1064 0.984 . S
H1077 N1064 0.985 . S
C1078 C1079 1.363 . S
C1078 C1084 1.379 . S
C1078 N1086 1.356 . S
C1079 C1078 1.363 . S
C1079 C1085 1.363 . S
C1080 C1081 1.363 . S
C1080 C1085 1.379 . S
C1080 N1087 1.356 . S
C1081 C1080 1.363 . S
C1081 C1084 1.363 . S
N1082 C1084 1.356 . S
N1082 H1094 0.984 . S
N1082 H1095 0.985 . S
N1083 C1085 1.356 . S
N1083 H1088 0.984 . S
N1083 H1089 0.985 . S
C1084 C1078 1.379 . S
C1084 C1081 1.363 . S
C1084 N1082 1.356 . S
C1085 C1079 1.363 . S
C1085 C1080 1.379 . S
C1085 N1083 1.356 . S
N1086 C1078 1.356 . S
N1086 H1092 0.984 . S
N1086 H1093 0.984 . S
N1087 C1080 1.356 . S
N1087 H1090 0.984 . S
N1087 H1091 0.985 . S
H1088 N1083 0.984 . S
H1089 N1083 0.985 . S
H1090 N1087 0.984 . S
H1091 N1087 0.985 . S
H1092 N1086 0.984 . S
H1093 N1086 0.984 . S
H1094 N1082 0.984 . S
H1095 N1082 0.985 . S
C1096 C1097 1.363 . S
C1096 C1102 1.379 . S
C1096 N1104 1.356 . S
C1097 C1096 1.363 . S
C1097 C1103 1.363 . S
C1098 C1099 1.363 . S
C1098 C1103 1.379 . S
C1098 N1105 1.356 . S
C1099 C1098 1.363 . S
C1099 C1102 1.363 . S
N1100 C1102 1.356 . S
N1100 H1112 0.984 . S
N1100 H1113 0.985 . S
N1101 C1103 1.356 . S
N1101 H1106 0.984 . S
N1101 H1107 0.985 . S
C1102 C1096 1.379 . S
C1102 C1099 1.363 . S
C1102 N1100 1.356 . S
C1103 C1097 1.363 . S
C1103 C1098 1.379 . S
C1103 N1101 1.356 . S
N1104 C1096 1.356 . S
N1104 H1110 0.984 . S
N1104 H1111 0.984 . S
N1105 C1098 1.356 . S
N1105 H1108 0.984 . S
N1105 H1109 0.985 . S
H1106 N1101 0.984 . S
H1107 N1101 0.985 . S
H1108 N1105 0.984 . S
H1109 N1105 0.985 . S
H1110 N1104 0.984 . S
H1111 N1104 0.984 . S
H1112 N1100 0.984 . S
H1113 N1100 0.985 . S
C1114 C1115 1.363 . S
C1114 C1120 1.379 . S
C1114 N1122 1.356 . S
C1115 C1114 1.363 . S
C1115 C1121 1.363 . S
C1116 C1117 1.363 . S
C1116 C1121 1.379 . S
C1116 N1123 1.356 . S
C1117 C1116 1.363 . S
C1117 C1120 1.363 . S
N1118 C1120 1.356 . S
N1118 H1130 0.984 . S
N1118 H1131 0.985 . S
N1119 C1121 1.356 . S
N1119 H1124 0.984 . S
N1119 H1125 0.985 . S
C1120 C1114 1.379 . S
C1120 C1117 1.363 . S
C1120 N1118 1.356 . S
C1121 C1115 1.363 . S
C1121 C1116 1.379 . S
C1121 N1119 1.356 . S
N1122 C1114 1.356 . S
N1122 H1128 0.984 . S
N1122 H1129 0.984 . S
N1123 C1116 1.356 . S
N1123 H1126 0.984 . S
N1123 H1127 0.985 . S
H1124 N1119 0.984 . S
H1125 N1119 0.985 . S
H1126 N1123 0.984 . S
H1127 N1123 0.985 . S
H1128 N1122 0.984 . S
H1129 N1122 0.984 . S
H1130 N1118 0.984 . S
H1131 N1118 0.985 . S
C1132 C1133 1.363 . S
C1132 C1138 1.379 . S
C1132 N1140 1.356 . S
C1133 C1132 1.363 . S
C1133 C1139 1.363 . S
C1134 C1135 1.363 . S
C1134 C1139 1.379 . S
C1134 N1141 1.356 . S
C1135 C1134 1.363 . S
C1135 C1138 1.363 . S
N1136 C1138 1.356 . S
N1136 H1148 0.984 . S
N1136 H1149 0.985 . S
N1137 C1139 1.356 . S
N1137 H1142 0.984 . S
N1137 H1143 0.985 . S
C1138 C1132 1.379 . S
C1138 C1135 1.363 . S
C1138 N1136 1.356 . S
C1139 C1133 1.363 . S
C1139 C1134 1.379 . S
C1139 N1137 1.356 . S
N1140 C1132 1.356 . S
N1140 H1146 0.984 . S
N1140 H1147 0.984 . S
N1141 C1134 1.356 . S
N1141 H1144 0.984 . S
N1141 H1145 0.985 . S
H1142 N1137 0.984 . S
H1143 N1137 0.985 . S
H1144 N1141 0.984 . S
H1145 N1141 0.985 . S
H1146 N1140 0.984 . S
H1147 N1140 0.984 . S
H1148 N1136 0.984 . S
H1149 N1136 0.985 . S
C1150 C1151 1.363 . S
C1150 C1156 1.379 . S
C1150 N1158 1.356 . S
C1151 C1150 1.363 . S
C1151 C1157 1.363 . S
C1152 C1153 1.363 . S
C1152 C1157 1.379 . S
C1152 N1159 1.356 . S
C1153 C1152 1.363 . S
C1153 C1156 1.363 . S
N1154 C1156 1.356 . S
N1154 H1166 0.984 . S
N1154 H1167 0.985 . S
N1155 C1157 1.356 . S
N1155 H1160 0.984 . S
N1155 H1161 0.985 . S
C1156 C1150 1.379 . S
C1156 C1153 1.363 . S
C1156 N1154 1.356 . S
C1157 C1151 1.363 . S
C1157 C1152 1.379 . S
C1157 N1155 1.356 . S
N1158 C1150 1.356 . S
N1158 H1164 0.984 . S
N1158 H1165 0.984 . S
N1159 C1152 1.356 . S
N1159 H1162 0.984 . S
N1159 H1163 0.985 . S
H1160 N1155 0.984 . S
H1161 N1155 0.985 . S
H1162 N1159 0.984 . S
H1163 N1159 0.985 . S
H1164 N1158 0.984 . S
H1165 N1158 0.984 . S
H1166 N1154 0.984 . S
H1167 N1154 0.985 . S
C1168 C1169 1.363 . S
C1168 C1174 1.379 1_554 S
C1168 N1176 1.356 . S
C1169 C1168 1.363 . S
C1169 C1175 1.363 . S
C1170 C1171 1.363 . S
C1170 C1175 1.379 1_556 S
C1170 N1177 1.356 . S
C1171 C1170 1.363 . S
C1171 C1174 1.363 . S
N1172 C1174 1.356 . S
N1172 H1184 0.984 . S
N1172 H1185 0.985 . S
N1173 C1175 1.356 . S
N1173 H1178 0.984 . S
N1173 H1179 0.985 . S
C1174 C1168 1.379 1_556 S
C1174 C1171 1.363 . S
C1174 N1172 1.356 . S
C1175 C1169 1.363 . S
C1175 C1170 1.379 1_554 S
C1175 N1173 1.356 . S
N1176 C1168 1.356 . S
N1176 H1182 0.984 . S
N1176 H1183 0.984 . S
N1177 C1170 1.356 . S
N1177 H1180 0.984 . S
N1177 H1181 0.985 . S
H1178 N1173 0.984 . S
H1179 N1173 0.985 . S
H1180 N1177 0.984 . S
H1181 N1177 0.985 . S
H1182 N1176 0.984 . S
H1183 N1176 0.984 . S
H1184 N1172 0.984 . S
H1185 N1172 0.985 . S
C1186 C1187 1.363 . S
C1186 C1192 1.379 1_556 S
C1186 N1194 1.356 . S
C1187 C1186 1.363 . S
C1187 C1193 1.363 . S
C1188 C1189 1.363 . S
C1188 C1193 1.379 1_554 S
C1188 N1195 1.356 . S
C1189 C1188 1.363 . S
C1189 C1192 1.363 . S
N1190 C1192 1.356 . S
N1190 H1202 0.984 . S
N1190 H1203 0.985 . S
N1191 C1193 1.356 . S
N1191 H1196 0.984 . S
N1191 H1197 0.985 . S
C1192 C1186 1.379 1_554 S
C1192 C1189 1.363 . S
C1192 N1190 1.356 . S
C1193 C1187 1.363 . S
C1193 C1188 1.379 1_556 S
C1193 N1191 1.356 . S
N1194 C1186 1.356 . S
N1194 H1200 0.984 . S
N1194 H1201 0.984 . S
N1195 C1188 1.356 . S
N1195 H1198 0.984 . S
N1195 H1199 0.985 . S
H1196 N1191 0.984 . S
H1197 N1191 0.985 . S
H1198 N1195 0.984 . S
H1199 N1195 0.985 . S
H1200 N1194 0.984 . S
H1201 N1194 0.984 . S
H1202 N1190 0.984 . S
H1203 N1190 0.985 . S
C1204 C1205 1.363 . S
C1204 C1210 1.379 1_554 S
C1204 N1212 1.356 . S
C1205 C1204 1.363 . S
C1205 C1211 1.363 . S
C1206 C1207 1.363 . S
C1206 C1211 1.379 1_556 S
C1206 N1213 1.356 . S
C1207 C1206 1.363 . S
C1207 C1210 1.363 . S
N1208 C1210 1.356 . S
N1208 H1220 0.984 . S
N1208 H1221 0.985 . S
N1209 C1211 1.356 . S
N1209 H1214 0.984 . S
N1209 H1215 0.985 . S
C1210 C1204 1.379 1_556 S
C1210 C1207 1.363 . S
C1210 N1208 1.356 . S
C1211 C1205 1.363 . S
C1211 C1206 1.379 1_554 S
C1211 N1209 1.356 . S
N1212 C1204 1.356 . S
N1212 H1218 0.984 . S
N1212 H1219 0.984 . S
N1213 C1206 1.356 . S
N1213 H1216 0.984 . S
N1213 H1217 0.985 . S
H1214 N1209 0.984 . S
H1215 N1209 0.985 . S
H1216 N1213 0.984 . S
H1217 N1213 0.985 . S
H1218 N1212 0.984 . S
H1219 N1212 0.984 . S
H1220 N1208 0.984 . S
H1221 N1208 0.985 . S
C1222 C1223 1.363 . S
C1222 C1228 1.379 1_554 S
C1222 N1230 1.356 . S
C1223 C1222 1.363 . S
C1223 C1229 1.363 . S
C1224 C1225 1.363 . S
C1224 C1229 1.379 1_556 S
C1224 N1231 1.356 . S
C1225 C1224 1.363 . S
C1225 C1228 1.363 . S
N1226 C1228 1.356 . S
N1226 H1238 0.984 . S
N1226 H1239 0.985 . S
N1227 C1229 1.356 . S
N1227 H1232 0.984 . S
N1227 H1233 0.985 . S
C1228 C1222 1.379 1_556 S
C1228 C1225 1.363 . S
C1228 N1226 1.356 . S
C1229 C1223 1.363 . S
C1229 C1224 1.379 1_554 S
C1229 N1227 1.356 . S
N1230 C1222 1.356 . S
N1230 H1236 0.984 . S
N1230 H1237 0.984 . S
N1231 C1224 1.356 . S
N1231 H1234 0.984 . S
N1231 H1235 0.985 . S
H1232 N1227 0.984 . S
H1233 N1227 0.985 . S
H1234 N1231 0.984 . S
H1235 N1231 0.985 . S
H1236 N1230 0.984 . S
H1237 N1230 0.984 . S
H1238 N1226 0.984 . S
H1239 N1226 0.985 . S
C1240 C1241 1.363 . S
C1240 C1246 1.379 1_554 S
C1240 N1248 1.356 . S
C1241 C1240 1.363 . S
C1241 C1247 1.363 . S
C1242 C1243 1.363 . S
C1242 C1247 1.379 1_556 S
C1242 N1249 1.356 . S
C1243 C1242 1.363 . S
C1243 C1246 1.363 . S
N1244 C1246 1.356 . S
N1244 H1256 0.984 . S
N1244 H1257 0.985 . S
N1245 C1247 1.356 . S
N1245 H1250 0.984 . S
N1245 H1251 0.985 . S
C1246 C1240 1.379 1_556 S
C1246 C1243 1.363 . S
C1246 N1244 1.356 . S
C1247 C1241 1.363 . S
C1247 C1242 1.379 1_554 S
C1247 N1245 1.356 . S
N1248 C1240 1.356 . S
N1248 H1254 0.984 . S
N1248 H1255 0.984 . S
N1249 C1242 1.356 . S
N1249 H1252 0.984 . S
N1249 H1253 0.985 . S
H1250 N1245 0.984 . S
H1251 N1245 0.985 . S
H1252 N1249 0.984 . S
H1253 N1249 0.985 . S
H1254 N1248 0.984 . S
H1255 N1248 0.984 . S
H1256 N1244 0.984 . S
H1257 N1244 0.985 . S
C1258 C1259 1.363 . S
C1258 C1264 1.379 1_554 S
C1258 N1266 1.356 . S
C1259 C1258 1.363 . S
C1259 C1265 1.363 . S
C1260 C1261 1.363 . S
C1260 C1265 1.379 1_556 S
C1260 N1267 1.356 . S
C1261 C1260 1.363 . S
C1261 C1264 1.363 . S
N1262 C1264 1.356 . S
N1262 H1274 0.984 . S
N1262 H1275 0.985 . S
N1263 C1265 1.356 . S
N1263 H1268 0.984 . S
N1263 H1269 0.985 . S
C1264 C1258 1.379 1_556 S
C1264 C1261 1.363 . S
C1264 N1262 1.356 . S
C1265 C1259 1.363 . S
C1265 C1260 1.379 1_554 S
C1265 N1263 1.356 . S
N1266 C1258 1.356 . S
N1266 H1272 0.984 . S
N1266 H1273 0.984 . S
N1267 C1260 1.356 . S
N1267 H1270 0.984 . S
N1267 H1271 0.985 . S
H1268 N1263 0.984 . S
H1269 N1263 0.985 . S
H1270 N1267 0.984 . S
H1271 N1267 0.985 . S
H1272 N1266 0.984 . S
H1273 N1266 0.984 . S
H1274 N1262 0.984 . S
H1275 N1262 0.985 . S
C1276 C1277 1.363 . S
C1276 C1282 1.379 1_556 S
C1276 N1284 1.356 . S
C1277 C1276 1.363 . S
C1277 C1283 1.363 . S
C1278 C1279 1.363 . S
C1278 C1283 1.379 1_554 S
C1278 N1285 1.356 . S
C1279 C1278 1.363 . S
C1279 C1282 1.363 . S
N1280 C1282 1.356 . S
N1280 H1292 0.984 . S
N1280 H1293 0.985 . S
N1281 C1283 1.356 . S
N1281 H1286 0.984 . S
N1281 H1287 0.985 . S
C1282 C1276 1.379 1_554 S
C1282 C1279 1.363 . S
C1282 N1280 1.356 . S
C1283 C1277 1.363 . S
C1283 C1278 1.379 1_556 S
C1283 N1281 1.356 . S
N1284 C1276 1.356 . S
N1284 H1290 0.984 . S
N1284 H1291 0.984 . S
N1285 C1278 1.356 . S
N1285 H1288 0.984 . S
N1285 H1289 0.985 . S
H1286 N1281 0.984 . S
H1287 N1281 0.985 . S
H1288 N1285 0.984 . S
H1289 N1285 0.985 . S
H1290 N1284 0.984 . S
H1291 N1284 0.984 . S
H1292 N1280 0.984 . S
H1293 N1280 0.985 . S
C1294 C1295 1.363 . S
C1294 C1300 1.379 1_556 S
C1294 N1302 1.356 . S
C1295 C1294 1.363 . S
C1295 C1301 1.363 . S
C1296 C1297 1.363 . S
C1296 C1301 1.379 1_554 S
C1296 N1303 1.356 . S
C1297 C1296 1.363 . S
C1297 C1300 1.363 . S
N1298 C1300 1.356 . S
N1298 H1310 0.984 . S
N1298 H1311 0.985 . S
N1299 C1301 1.356 . S
N1299 H1304 0.984 . S
N1299 H1305 0.985 . S
C1300 C1294 1.379 1_554 S
C1300 C1297 1.363 . S
C1300 N1298 1.356 . S
C1301 C1295 1.363 . S
C1301 C1296 1.379 1_556 S
C1301 N1299 1.356 . S
N1302 C1294 1.356 . S
N1302 H1308 0.984 . S
N1302 H1309 0.984 . S
N1303 C1296 1.356 . S
N1303 H1306 0.984 . S
N1303 H1307 0.985 . S
H1304 N1299 0.984 . S
H1305 N1299 0.985 . S
H1306 N1303 0.984 . S
H1307 N1303 0.985 . S
H1308 N1302 0.984 . S
H1309 N1302 0.984 . S
H1310 N1298 0.984 . S
H1311 N1298 0.985 . S
C1312 C1313 1.363 . S
C1312 C1318 1.379 . S
C1312 N1320 1.356 . S
C1313 C1312 1.363 . S
C1313 C1319 1.363 . S
C1314 C1315 1.363 . S
C1314 C1319 1.379 . S
C1314 N1321 1.356 . S
C1315 C1314 1.363 . S
C1315 C1318 1.363 . S
N1316 C1318 1.356 . S
N1316 H1328 0.984 . S
N1316 H1329 0.985 . S
N1317 C1319 1.356 . S
N1317 H1322 0.984 . S
N1317 H1323 0.985 . S
C1318 C1312 1.379 . S
C1318 C1315 1.363 . S
C1318 N1316 1.356 . S
C1319 C1313 1.363 . S
C1319 C1314 1.379 . S
C1319 N1317 1.356 . S
N1320 C1312 1.356 . S
N1320 H1326 0.984 . S
N1320 H1327 0.984 . S
N1321 C1314 1.356 . S
N1321 H1324 0.984 . S
N1321 H1325 0.985 . S
H1322 N1317 0.984 . S
H1323 N1317 0.985 . S
H1324 N1321 0.984 . S
H1325 N1321 0.985 . S
H1326 N1320 0.984 . S
H1327 N1320 0.984 . S
H1328 N1316 0.984 . S
H1329 N1316 0.985 . S
C1330 C1331 1.363 . S
C1330 C1336 1.379 . S
C1330 N1338 1.356 . S
C1331 C1330 1.363 . S
C1331 C1337 1.363 . S
C1332 C1333 1.363 . S
C1332 C1337 1.379 . S
C1332 N1339 1.356 . S
C1333 C1332 1.363 . S
C1333 C1336 1.363 . S
N1334 C1336 1.356 . S
N1334 H1346 0.984 . S
N1334 H1347 0.985 . S
N1335 C1337 1.356 . S
N1335 H1340 0.984 . S
N1335 H1341 0.985 . S
C1336 C1330 1.379 . S
C1336 C1333 1.363 . S
C1336 N1334 1.356 . S
C1337 C1331 1.363 . S
C1337 C1332 1.379 . S
C1337 N1335 1.356 . S
N1338 C1330 1.356 . S
N1338 H1344 0.984 . S
N1338 H1345 0.984 . S
N1339 C1332 1.356 . S
N1339 H1342 0.984 . S
N1339 H1343 0.985 . S
H1340 N1335 0.984 . S
H1341 N1335 0.985 . S
H1342 N1339 0.984 . S
H1343 N1339 0.985 . S
H1344 N1338 0.984 . S
H1345 N1338 0.984 . S
H1346 N1334 0.984 . S
H1347 N1334 0.985 . S
C1348 C1349 1.363 . S
C1348 C1354 1.379 . S
C1348 N1356 1.356 . S
C1349 C1348 1.363 . S
C1349 C1355 1.363 . S
C1350 C1351 1.363 . S
C1350 C1355 1.379 . S
C1350 N1357 1.356 . S
C1351 C1350 1.363 . S
C1351 C1354 1.363 . S
N1352 C1354 1.356 . S
N1352 H1364 0.984 . S
N1352 H1365 0.985 . S
N1353 C1355 1.356 . S
N1353 H1358 0.984 . S
N1353 H1359 0.985 . S
C1354 C1348 1.379 . S
C1354 C1351 1.363 . S
C1354 N1352 1.356 . S
C1355 C1349 1.363 . S
C1355 C1350 1.379 . S
C1355 N1353 1.356 . S
N1356 C1348 1.356 . S
N1356 H1362 0.984 . S
N1356 H1363 0.984 . S
N1357 C1350 1.356 . S
N1357 H1360 0.984 . S
N1357 H1361 0.985 . S
H1358 N1353 0.984 . S
H1359 N1353 0.985 . S
H1360 N1357 0.984 . S
H1361 N1357 0.985 . S
H1362 N1356 0.984 . S
H1363 N1356 0.984 . S
H1364 N1352 0.984 . S
H1365 N1352 0.985 . S
C1366 C1367 1.363 . S
C1366 C1372 1.379 . S
C1366 N1374 1.356 . S
C1367 C1366 1.363 . S
C1367 C1373 1.363 . S
C1368 C1369 1.363 . S
C1368 C1373 1.379 . S
C1368 N1375 1.356 . S
C1369 C1368 1.363 . S
C1369 C1372 1.363 . S
N1370 C1372 1.356 . S
N1370 H1382 0.984 . S
N1370 H1383 0.985 . S
N1371 C1373 1.356 . S
N1371 H1376 0.984 . S
N1371 H1377 0.985 . S
C1372 C1366 1.379 . S
C1372 C1369 1.363 . S
C1372 N1370 1.356 . S
C1373 C1367 1.363 . S
C1373 C1368 1.379 . S
C1373 N1371 1.356 . S
N1374 C1366 1.356 . S
N1374 H1380 0.984 . S
N1374 H1381 0.984 . S
N1375 C1368 1.356 . S
N1375 H1378 0.984 . S
N1375 H1379 0.985 . S
H1376 N1371 0.984 . S
H1377 N1371 0.985 . S
H1378 N1375 0.984 . S
H1379 N1375 0.985 . S
H1380 N1374 0.984 . S
H1381 N1374 0.984 . S
H1382 N1370 0.984 . S
H1383 N1370 0.985 . S
C1384 C1385 1.363 . S
C1384 C1390 1.379 . S
C1384 N1392 1.356 . S
C1385 C1384 1.363 . S
C1385 C1391 1.363 . S
C1386 C1387 1.363 . S
C1386 C1391 1.379 . S
C1386 N1393 1.356 . S
C1387 C1386 1.363 . S
C1387 C1390 1.363 . S
N1388 C1390 1.356 . S
N1388 H1400 0.984 . S
N1388 H1401 0.985 . S
N1389 C1391 1.356 . S
N1389 H1394 0.984 . S
N1389 H1395 0.985 . S
C1390 C1384 1.379 . S
C1390 C1387 1.363 . S
C1390 N1388 1.356 . S
C1391 C1385 1.363 . S
C1391 C1386 1.379 . S
C1391 N1389 1.356 . S
N1392 C1384 1.356 . S
N1392 H1398 0.984 . S
N1392 H1399 0.984 . S
N1393 C1386 1.356 . S
N1393 H1396 0.984 . S
N1393 H1397 0.985 . S
H1394 N1389 0.984 . S
H1395 N1389 0.985 . S
H1396 N1393 0.984 . S
H1397 N1393 0.985 . S
H1398 N1392 0.984 . S
H1399 N1392 0.984 . S
H1400 N1388 0.984 . S
H1401 N1388 0.985 . S
C1402 C1403 1.363 . S
C1402 C1408 1.379 . S
C1402 N1410 1.356 . S
C1403 C1402 1.363 . S
C1403 C1409 1.363 . S
C1404 C1405 1.363 . S
C1404 C1409 1.379 . S
C1404 N1411 1.356 . S
C1405 C1404 1.363 . S
C1405 C1408 1.363 . S
N1406 C1408 1.356 . S
N1406 H1418 0.984 . S
N1406 H1419 0.985 . S
N1407 C1409 1.356 . S
N1407 H1412 0.984 . S
N1407 H1413 0.985 . S
C1408 C1402 1.379 . S
C1408 C1405 1.363 . S
C1408 N1406 1.356 . S
C1409 C1403 1.363 . S
C1409 C1404 1.379 . S
C1409 N1407 1.356 . S
N1410 C1402 1.356 . S
N1410 H1416 0.984 . S
N1410 H1417 0.984 . S
N1411 C1404 1.356 . S
N1411 H1414 0.984 . S
N1411 H1415 0.985 . S
H1412 N1407 0.984 . S
H1413 N1407 0.985 . S
H1414 N1411 0.984 . S
H1415 N1411 0.985 . S
H1416 N1410 0.984 . S
H1417 N1410 0.984 . S
H1418 N1406 0.984 . S
H1419 N1406 0.985 . S
C1420 C1421 1.363 . S
C1420 C1426 1.379 . S
C1420 N1428 1.356 . S
C1421 C1420 1.363 . S
C1421 C1427 1.363 . S
C1422 C1423 1.363 . S
C1422 C1427 1.379 . S
C1422 N1429 1.356 . S
C1423 C1422 1.363 . S
C1423 C1426 1.363 . S
N1424 C1426 1.356 . S
N1424 H1436 0.984 . S
N1424 H1437 0.985 . S
N1425 C1427 1.356 . S
N1425 H1430 0.984 . S
N1425 H1431 0.985 . S
C1426 C1420 1.379 . S
C1426 C1423 1.363 . S
C1426 N1424 1.356 . S
C1427 C1421 1.363 . S
C1427 C1422 1.379 . S
C1427 N1425 1.356 . S
N1428 C1420 1.356 . S
N1428 H1434 0.984 . S
N1428 H1435 0.984 . S
N1429 C1422 1.356 . S
N1429 H1432 0.984 . S
N1429 H1433 0.985 . S
H1430 N1425 0.984 . S
H1431 N1425 0.985 . S
H1432 N1429 0.984 . S
H1433 N1429 0.985 . S
H1434 N1428 0.984 . S
H1435 N1428 0.984 . S
H1436 N1424 0.984 . S
H1437 N1424 0.985 . S
C1438 C1439 1.363 . S
C1438 C1444 1.379 . S
C1438 N1446 1.356 . S
C1439 C1438 1.363 . S
C1439 C1445 1.363 . S
C1440 C1441 1.363 . S
C1440 C1445 1.379 . S
C1440 N1447 1.356 . S
C1441 C1440 1.363 . S
C1441 C1444 1.363 . S
N1442 C1444 1.356 . S
N1442 H1454 0.984 . S
N1442 H1455 0.985 . S
N1443 C1445 1.356 . S
N1443 H1448 0.984 . S
N1443 H1449 0.985 . S
C1444 C1438 1.379 . S
C1444 C1441 1.363 . S
C1444 N1442 1.356 . S
C1445 C1439 1.363 . S
C1445 C1440 1.379 . S
C1445 N1443 1.356 . S
N1446 C1438 1.356 . S
N1446 H1452 0.984 . S
N1446 H1453 0.984 . S
N1447 C1440 1.356 . S
N1447 H1450 0.984 . S
N1447 H1451 0.985 . S
H1448 N1443 0.984 . S
H1449 N1443 0.985 . S
H1450 N1447 0.984 . S
H1451 N1447 0.985 . S
H1452 N1446 0.984 . S
H1453 N1446 0.984 . S
H1454 N1442 0.984 . S
H1455 N1442 0.985 . S
C1456 C1457 1.363 . S
C1456 C1462 1.379 . S
C1456 N1464 1.356 . S
C1457 C1456 1.363 . S
C1457 C1463 1.363 . S
C1458 C1459 1.363 . S
C1458 C1463 1.379 . S
C1458 N1465 1.356 . S
C1459 C1458 1.363 . S
C1459 C1462 1.363 . S
N1460 C1462 1.356 . S
N1460 H1472 0.984 . S
N1460 H1473 0.985 . S
N1461 C1463 1.356 . S
N1461 H1466 0.984 . S
N1461 H1467 0.985 . S
C1462 C1456 1.379 . S
C1462 C1459 1.363 . S
C1462 N1460 1.356 . S
C1463 C1457 1.363 . S
C1463 C1458 1.379 . S
C1463 N1461 1.356 . S
N1464 C1456 1.356 . S
N1464 H1470 0.984 . S
N1464 H1471 0.984 . S
N1465 C1458 1.356 . S
N1465 H1468 0.984 . S
N1465 H1469 0.985 . S
H1466 N1461 0.984 . S
H1467 N1461 0.985 . S
H1468 N1465 0.984 . S
H1469 N1465 0.985 . S
H1470 N1464 0.984 . S
H1471 N1464 0.984 . S
H1472 N1460 0.984 . S
H1473 N1460 0.985 . S
C1474 C1475 1.363 . S
C1474 C1480 1.379 . S
C1474 N1482 1.356 . S
C1475 C1474 1.363 . S
C1475 C1481 1.363 . S
C1476 C1477 1.363 . S
C1476 C1481 1.379 . S
C1476 N1483 1.356 . S
C1477 C1476 1.363 . S
C1477 C1480 1.363 . S
N1478 C1480 1.356 . S
N1478 H1490 0.984 . S
N1478 H1491 0.985 . S
N1479 C1481 1.356 . S
N1479 H1484 0.984 . S
N1479 H1485 0.985 . S
C1480 C1474 1.379 . S
C1480 C1477 1.363 . S
C1480 N1478 1.356 . S
C1481 C1475 1.363 . S
C1481 C1476 1.379 . S
C1481 N1479 1.356 . S
N1482 C1474 1.356 . S
N1482 H1488 0.984 . S
N1482 H1489 0.984 . S
N1483 C1476 1.356 . S
N1483 H1486 0.984 . S
N1483 H1487 0.985 . S
H1484 N1479 0.984 . S
H1485 N1479 0.985 . S
H1486 N1483 0.984 . S
H1487 N1483 0.985 . S
H1488 N1482 0.984 . S
H1489 N1482 0.984 . S
H1490 N1478 0.984 . S
H1491 N1478 0.985 . S
C1492 C1493 1.363 . S
C1492 C1498 1.379 . S
C1492 N1500 1.356 . S
C1493 C1492 1.363 . S
C1493 C1499 1.363 . S
C1494 C1495 1.363 . S
C1494 C1499 1.379 . S
C1494 N1501 1.356 . S
C1495 C1494 1.363 . S
C1495 C1498 1.363 . S
N1496 C1498 1.356 . S
N1496 H1508 0.984 . S
N1496 H1509 0.985 . S
N1497 C1499 1.356 . S
N1497 H1502 0.984 . S
N1497 H1503 0.985 . S
C1498 C1492 1.379 . S
C1498 C1495 1.363 . S
C1498 N1496 1.356 . S
C1499 C1493 1.363 . S
C1499 C1494 1.379 . S
C1499 N1497 1.356 . S
N1500 C1492 1.356 . S
N1500 H1506 0.984 . S
N1500 H1507 0.984 . S
N1501 C1494 1.356 . S
N1501 H1504 0.984 . S
N1501 H1505 0.985 . S
H1502 N1497 0.984 . S
H1503 N1497 0.985 . S
H1504 N1501 0.984 . S
H1505 N1501 0.985 . S
H1506 N1500 0.984 . S
H1507 N1500 0.984 . S
H1508 N1496 0.984 . S
H1509 N1496 0.985 . S
C1510 C1511 1.363 . S
C1510 C1516 1.379 . S
C1510 N1518 1.356 . S
C1511 C1510 1.363 . S
C1511 C1517 1.363 . S
C1512 C1513 1.363 . S
C1512 C1517 1.379 . S
C1512 N1519 1.356 . S
C1513 C1512 1.363 . S
C1513 C1516 1.363 . S
N1514 C1516 1.356 . S
N1514 H1526 0.984 . S
N1514 H1527 0.985 . S
N1515 C1517 1.356 . S
N1515 H1520 0.984 . S
N1515 H1521 0.985 . S
C1516 C1510 1.379 . S
C1516 C1513 1.363 . S
C1516 N1514 1.356 . S
C1517 C1511 1.363 . S
C1517 C1512 1.379 . S
C1517 N1515 1.356 . S
N1518 C1510 1.356 . S
N1518 H1524 0.984 . S
N1518 H1525 0.984 . S
N1519 C1512 1.356 . S
N1519 H1522 0.984 . S
N1519 H1523 0.985 . S
H1520 N1515 0.984 . S
H1521 N1515 0.985 . S
H1522 N1519 0.984 . S
H1523 N1519 0.985 . S
H1524 N1518 0.984 . S
H1525 N1518 0.984 . S
H1526 N1514 0.984 . S
H1527 N1514 0.985 . S
C1528 C1529 1.363 . S
C1528 C1534 1.379 . S
C1528 N1536 1.356 . S
C1529 C1528 1.363 . S
C1529 C1535 1.363 . S
C1530 C1531 1.363 . S
C1530 C1535 1.379 . S
C1530 N1537 1.356 . S
C1531 C1530 1.363 . S
C1531 C1534 1.363 . S
N1532 C1534 1.356 . S
N1532 H1544 0.984 . S
N1532 H1545 0.985 . S
N1533 C1535 1.356 . S
N1533 H1538 0.984 . S
N1533 H1539 0.985 . S
C1534 C1528 1.379 . S
C1534 C1531 1.363 . S
C1534 N1532 1.356 . S
C1535 C1529 1.363 . S
C1535 C1530 1.379 . S
C1535 N1533 1.356 . S
N1536 C1528 1.356 . S
N1536 H1542 0.984 . S
N1536 H1543 0.984 . S
N1537 C1530 1.356 . S
N1537 H1540 0.984 . S
N1537 H1541 0.985 . S
H1538 N1533 0.984 . S
H1539 N1533 0.985 . S
H1540 N1537 0.984 . S
H1541 N1537 0.985 . S
H1542 N1536 0.984 . S
H1543 N1536 0.984 . S
H1544 N1532 0.984 . S
H1545 N1532 0.985 . S
C1546 C1547 1.363 . S
C1546 C1552 1.379 . S
C1546 N1554 1.356 . S
C1547 C1546 1.363 . S
C1547 C1553 1.363 . S
C1548 C1549 1.363 . S
C1548 C1553 1.379 . S
C1548 N1555 1.356 . S
C1549 C1548 1.363 . S
C1549 C1552 1.363 . S
N1550 C1552 1.356 . S
N1550 H1562 0.984 . S
N1550 H1563 0.985 . S
N1551 C1553 1.356 . S
N1551 H1556 0.984 . S
N1551 H1557 0.985 . S
C1552 C1546 1.379 . S
C1552 C1549 1.363 . S
C1552 N1550 1.356 . S
C1553 C1547 1.363 . S
C1553 C1548 1.379 . S
C1553 N1551 1.356 . S
N1554 C1546 1.356 . S
N1554 H1560 0.984 . S
N1554 H1561 0.984 . S
N1555 C1548 1.356 . S
N1555 H1558 0.984 . S
N1555 H1559 0.985 . S
H1556 N1551 0.984 . S
H1557 N1551 0.985 . S
H1558 N1555 0.984 . S
H1559 N1555 0.985 . S
H1560 N1554 0.984 . S
H1561 N1554 0.984 . S
H1562 N1550 0.984 . S
H1563 N1550 0.985 . S
C1564 C1565 1.363 . S
C1564 C1570 1.379 . S
C1564 N1572 1.356 . S
C1565 C1564 1.363 . S
C1565 C1571 1.363 . S
C1566 C1567 1.363 . S
C1566 C1571 1.379 . S
C1566 N1573 1.356 . S
C1567 C1566 1.363 . S
C1567 C1570 1.363 . S
N1568 C1570 1.356 . S
N1568 H1580 0.984 . S
N1568 H1581 0.985 . S
N1569 C1571 1.356 . S
N1569 H1574 0.984 . S
N1569 H1575 0.985 . S
C1570 C1564 1.379 . S
C1570 C1567 1.363 . S
C1570 N1568 1.356 . S
C1571 C1565 1.363 . S
C1571 C1566 1.379 . S
C1571 N1569 1.356 . S
N1572 C1564 1.356 . S
N1572 H1578 0.984 . S
N1572 H1579 0.984 . S
N1573 C1566 1.356 . S
N1573 H1576 0.984 . S
N1573 H1577 0.985 . S
H1574 N1569 0.984 . S
H1575 N1569 0.985 . S
H1576 N1573 0.984 . S
H1577 N1573 0.985 . S
H1578 N1572 0.984 . S
H1579 N1572 0.984 . S
H1580 N1568 0.984 . S
H1581 N1568 0.985 . S
C1582 C1583 1.363 . S
C1582 C1588 1.379 . S
C1582 N1590 1.356 . S
C1583 C1582 1.363 . S
C1583 C1589 1.363 . S
C1584 C1585 1.363 . S
C1584 C1589 1.379 . S
C1584 N1591 1.356 . S
C1585 C1584 1.363 . S
C1585 C1588 1.363 . S
N1586 C1588 1.356 . S
N1586 H1598 0.984 . S
N1586 H1599 0.985 . S
N1587 C1589 1.356 . S
N1587 H1592 0.984 . S
N1587 H1593 0.985 . S
C1588 C1582 1.379 . S
C1588 C1585 1.363 . S
C1588 N1586 1.356 . S
C1589 C1583 1.363 . S
C1589 C1584 1.379 . S
C1589 N1587 1.356 . S
N1590 C1582 1.356 . S
N1590 H1596 0.984 . S
N1590 H1597 0.984 . S
N1591 C1584 1.356 . S
N1591 H1594 0.984 . S
N1591 H1595 0.985 . S
H1592 N1587 0.984 . S
H1593 N1587 0.985 . S
H1594 N1591 0.984 . S
H1595 N1591 0.985 . S
H1596 N1590 0.984 . S
H1597 N1590 0.984 . S
H1598 N1586 0.984 . S
H1599 N1586 0.985 . S
C449 C219 1.475 . S
C451 C9 1.475 . S
C467 C23 1.475 . S
C469 C177 1.475 . S
C485 C37 1.475 . S
C487 C191 1.475 . S
C503 C205 1.475 . S
C505 C51 1.475 . S
C521 C65 1.475 . S
C523 C135 1.475 . S
C539 C79 1.475 . S
C541 C149 1.475 . S
C557 C163 1.475 . S
C559 C93 1.475 . S
C575 C121 1.475 . S
C577 C107 1.475 . S
C593 C233 1.475 . S
C595 C443 1.475 . S
C611 C247 1.475 . S
C613 C401 1.475 . S
C629 C261 1.475 . S
C631 C415 1.475 . S
C647 C429 1.475 . S
C649 C275 1.475 . S
C665 C289 1.475 . S
C667 C359 1.475 . S
C683 C303 1.475 . S
C685 C373 1.475 . S
C701 C387 1.475 . S
C703 C317 1.475 . S
C719 C331 1.475 . S
C721 C345 1.475 . S
C737 C176 1.459 . S
C739 C8 1.459 . S
C755 C22 1.459 . S
C757 C190 1.459 . S
C773 C204 1.459 . S
C775 C36 1.459 . S
C791 C50 1.459 . S
C793 C218 1.459 . S
C809 C64 1.459 . S
C811 C120 1.459 . S
C827 C134 1.459 . S
C829 C78 1.459 . S
C845 C148 1.459 . S
C847 C92 1.459 . S
C863 C162 1.459 . S
C865 C106 1.459 . S
C881 C232 1.459 . S
C883 C400 1.459 . S
C899 C414 1.459 . S
C901 C246 1.459 . S
C917 C260 1.459 . S
C919 C428 1.459 . S
C935 C274 1.459 . S
C937 C442 1.459 . S
C953 C344 1.459 . S
C955 C288 1.459 . S
C971 C302 1.459 . S
C973 C358 1.459 . S
C989 C316 1.459 . S
C991 C372 1.459 . S
C1007 C330 1.459 . S
C1009 C386 1.459 . S
C1025 C7 1.369 . S
C1027 C147 1.369 . S
C1043 C161 1.369 . S
C1045 C21 1.369 . S
C1061 C35 1.369 . S
C1063 C119 1.369 . S
C1079 C133 1.369 . S
C1081 C49 1.369 . S
C1097 C203 1.369 . S
C1099 C63 1.369 . S
C1115 C217 1.369 . S
C1117 C77 1.369 . S
C1133 C175 1.369 . S
C1135 C91 1.369 . S
C1151 C105 1.369 . S
C1153 C189 1.369 . S
C1169 C371 1.369 . S
C1171 C231 1.369 . S
C1187 C245 1.369 . S
C1189 C385 1.369 . S
C1205 C343 1.369 . S
C1207 C259 1.369 . S
C1223 C357 1.369 . S
C1225 C273 1.369 . S
C1241 C287 1.369 . S
C1243 C427 1.369 . S
C1259 C301 1.369 . S
C1261 C441 1.369 . S
C1277 C399 1.369 . S
C1279 C315 1.369 . S
C1295 C413 1.369 . S
C1297 C329 1.369 . S
C1313 C325 1.305 . S
C1315 C3 1.305 . S
C1331 C283 1.305 . S
C1333 C17 1.305 . S
C1349 C297 1.305 . S
C1351 C31 1.305 . S
C1367 C311 1.305 . S
C1369 C45 1.305 . S
C1385 C241 1.305 . S
C1387 C59 1.305 . S
C1403 C73 1.305 . S
C1405 C255 1.305 . S
C1421 C87 1.305 . S
C1423 C269 1.305 . S
C1439 C101 1.305 . S
C1441 C227 1.305 . S
C1457 C115 1.305 . S
C1459 C437 1.305 . S
C1475 C395 1.305 . S
C1477 C129 1.305 . S
C1493 C143 1.305 . S
C1495 C409 1.305 . S
C1511 C157 1.305 . S
C1513 C423 1.305 . S
C1529 C353 1.305 . S
C1531 C171 1.305 . S
C1547 C367 1.305 . S
C1549 C185 1.305 . S
C1565 C199 1.305 . S
C1567 C381 1.305 . S
C1583 C213 1.305 . S
C1585 C339 1.305 . S
