# Generated by pormake.
# Topology lcv-e, (6)-cn, num edge types: 1
# Building blocks:
#     Node 0, Type 0, BuildingBlock: OJICUG_clean_sbu_0, # of connection points: 6
#     Node 1, Type 0, BuildingBlock: OJICUG_clean_sbu_0, # of connection points: 6
#     Node 2, Type 0, BuildingBlock: OJICUG_clean_sbu_0, # of connection points: 6
#     Node 3, Type 0, BuildingBlock: OJICUG_clean_sbu_0, # of connection points: 6
#     Node 4, Type 0, BuildingBlock: OJICUG_clean_sbu_0, # of connection points: 6
#     Node 5, Type 0, BuildingBlock: OJICUG_clean_sbu_0, # of connection points: 6
#     Node 6, Type 0, BuildingBlock: OJICUG_clean_sbu_0, # of connection points: 6
#     Node 7, Type 0, BuildingBlock: OJICUG_clean_sbu_0, # of connection points: 6
#     Node 8, Type 0, BuildingBlock: OJICUG_clean_sbu_0, # of connection points: 6
#     Node 9, Type 0, BuildingBlock: OJICUG_clean_sbu_0, # of connection points: 6
#     Node 10, Type 0, BuildingBlock: OJICUG_clean_sbu_0, # of connection points: 6
#     Node 11, Type 0, BuildingBlock: OJICUG_clean_sbu_0, # of connection points: 6
#     Node 12, Type 0, BuildingBlock: OJICUG_clean_sbu_0, # of connection points: 6
#     Node 13, Type 0, BuildingBlock: OJICUG_clean_sbu_0, # of connection points: 6
#     Node 14, Type 0, BuildingBlock: OJICUG_clean_sbu_0, # of connection points: 6
#     Node 15, Type 0, BuildingBlock: OJICUG_clean_sbu_0, # of connection points: 6
#     Node 16, Type 0, BuildingBlock: OJICUG_clean_sbu_0, # of connection points: 6
#     Node 17, Type 0, BuildingBlock: OJICUG_clean_sbu_0, # of connection points: 6
#     Node 18, Type 0, BuildingBlock: OJICUG_clean_sbu_0, # of connection points: 6
#     Node 19, Type 0, BuildingBlock: OJICUG_clean_sbu_0, # of connection points: 6
#     Node 20, Type 0, BuildingBlock: OJICUG_clean_sbu_0, # of connection points: 6
#     Node 21, Type 0, BuildingBlock: OJICUG_clean_sbu_0, # of connection points: 6
#     Node 22, Type 0, BuildingBlock: OJICUG_clean_sbu_0, # of connection points: 6
#     Node 23, Type 0, BuildingBlock: OJICUG_clean_sbu_0, # of connection points: 6
#     Edge 24, Type (0, 0), BuildingBlock: UVAHIK_clean_linker_0, # of connection points: 2
#     Edge 25, Type (0, 0), BuildingBlock: UVAHIK_clean_linker_0, # of connection points: 2
#     Edge 26, Type (0, 0), BuildingBlock: UVAHIK_clean_linker_0, # of connection points: 2
#     Edge 27, Type (0, 0), BuildingBlock: UVAHIK_clean_linker_0, # of connection points: 2
#     Edge 28, Type (0, 0), BuildingBlock: UVAHIK_clean_linker_0, # of connection points: 2
#     Edge 29, Type (0, 0), BuildingBlock: UVAHIK_clean_linker_0, # of connection points: 2
#     Edge 30, Type (0, 0), BuildingBlock: UVAHIK_clean_linker_0, # of connection points: 2
#     Edge 31, Type (0, 0), BuildingBlock: UVAHIK_clean_linker_0, # of connection points: 2
#     Edge 32, Type (0, 0), BuildingBlock: UVAHIK_clean_linker_0, # of connection points: 2
#     Edge 33, Type (0, 0), BuildingBlock: UVAHIK_clean_linker_0, # of connection points: 2
#     Edge 34, Type (0, 0), BuildingBlock: UVAHIK_clean_linker_0, # of connection points: 2
#     Edge 35, Type (0, 0), BuildingBlock: UVAHIK_clean_linker_0, # of connection points: 2
#     Edge 36, Type (0, 0), BuildingBlock: UVAHIK_clean_linker_0, # of connection points: 2
#     Edge 37, Type (0, 0), BuildingBlock: UVAHIK_clean_linker_0, # of connection points: 2
#     Edge 38, Type (0, 0), BuildingBlock: UVAHIK_clean_linker_0, # of connection points: 2
#     Edge 39, Type (0, 0), BuildingBlock: UVAHIK_clean_linker_0, # of connection points: 2
#     Edge 40, Type (0, 0), BuildingBlock: UVAHIK_clean_linker_0, # of connection points: 2
#     Edge 41, Type (0, 0), BuildingBlock: UVAHIK_clean_linker_0, # of connection points: 2
#     Edge 42, Type (0, 0), BuildingBlock: UVAHIK_clean_linker_0, # of connection points: 2
#     Edge 43, Type (0, 0), BuildingBlock: UVAHIK_clean_linker_0, # of connection points: 2
#     Edge 44, Type (0, 0), BuildingBlock: UVAHIK_clean_linker_0, # of connection points: 2
#     Edge 45, Type (0, 0), BuildingBlock: UVAHIK_clean_linker_0, # of connection points: 2
#     Edge 46, Type (0, 0), BuildingBlock: UVAHIK_clean_linker_0, # of connection points: 2
#     Edge 47, Type (0, 0), BuildingBlock: UVAHIK_clean_linker_0, # of connection points: 2
#     Edge 48, Type (0, 0), BuildingBlock: UVAHIK_clean_linker_0, # of connection points: 2
#     Edge 49, Type (0, 0), BuildingBlock: UVAHIK_clean_linker_0, # of connection points: 2
#     Edge 50, Type (0, 0), BuildingBlock: UVAHIK_clean_linker_0, # of connection points: 2
#     Edge 51, Type (0, 0), BuildingBlock: UVAHIK_clean_linker_0, # of connection points: 2
#     Edge 52, Type (0, 0), BuildingBlock: UVAHIK_clean_linker_0, # of connection points: 2
#     Edge 53, Type (0, 0), BuildingBlock: UVAHIK_clean_linker_0, # of connection points: 2
#     Edge 54, Type (0, 0), BuildingBlock: UVAHIK_clean_linker_0, # of connection points: 2
#     Edge 55, Type (0, 0), BuildingBlock: UVAHIK_clean_linker_0, # of connection points: 2
#     Edge 56, Type (0, 0), BuildingBlock: UVAHIK_clean_linker_0, # of connection points: 2
#     Edge 57, Type (0, 0), BuildingBlock: UVAHIK_clean_linker_0, # of connection points: 2
#     Edge 58, Type (0, 0), BuildingBlock: UVAHIK_clean_linker_0, # of connection points: 2
#     Edge 59, Type (0, 0), BuildingBlock: UVAHIK_clean_linker_0, # of connection points: 2
#     Edge 60, Type (0, 0), BuildingBlock: UVAHIK_clean_linker_0, # of connection points: 2
#     Edge 61, Type (0, 0), BuildingBlock: UVAHIK_clean_linker_0, # of connection points: 2
#     Edge 62, Type (0, 0), BuildingBlock: UVAHIK_clean_linker_0, # of connection points: 2
#     Edge 63, Type (0, 0), BuildingBlock: UVAHIK_clean_linker_0, # of connection points: 2
#     Edge 64, Type (0, 0), BuildingBlock: UVAHIK_clean_linker_0, # of connection points: 2
#     Edge 65, Type (0, 0), BuildingBlock: UVAHIK_clean_linker_0, # of connection points: 2
#     Edge 66, Type (0, 0), BuildingBlock: UVAHIK_clean_linker_0, # of connection points: 2
#     Edge 67, Type (0, 0), BuildingBlock: UVAHIK_clean_linker_0, # of connection points: 2
#     Edge 68, Type (0, 0), BuildingBlock: UVAHIK_clean_linker_0, # of connection points: 2
#     Edge 69, Type (0, 0), BuildingBlock: UVAHIK_clean_linker_0, # of connection points: 2
#     Edge 70, Type (0, 0), BuildingBlock: UVAHIK_clean_linker_0, # of connection points: 2
#     Edge 71, Type (0, 0), BuildingBlock: UVAHIK_clean_linker_0, # of connection points: 2
#     Edge 72, Type (0, 0), BuildingBlock: UVAHIK_clean_linker_0, # of connection points: 2
#     Edge 73, Type (0, 0), BuildingBlock: UVAHIK_clean_linker_0, # of connection points: 2
#     Edge 74, Type (0, 0), BuildingBlock: UVAHIK_clean_linker_0, # of connection points: 2
#     Edge 75, Type (0, 0), BuildingBlock: UVAHIK_clean_linker_0, # of connection points: 2
#     Edge 76, Type (0, 0), BuildingBlock: UVAHIK_clean_linker_0, # of connection points: 2
#     Edge 77, Type (0, 0), BuildingBlock: UVAHIK_clean_linker_0, # of connection points: 2
#     Edge 78, Type (0, 0), BuildingBlock: UVAHIK_clean_linker_0, # of connection points: 2
#     Edge 79, Type (0, 0), BuildingBlock: UVAHIK_clean_linker_0, # of connection points: 2
#     Edge 80, Type (0, 0), BuildingBlock: UVAHIK_clean_linker_0, # of connection points: 2
#     Edge 81, Type (0, 0), BuildingBlock: UVAHIK_clean_linker_0, # of connection points: 2
#     Edge 82, Type (0, 0), BuildingBlock: UVAHIK_clean_linker_0, # of connection points: 2
#     Edge 83, Type (0, 0), BuildingBlock: UVAHIK_clean_linker_0, # of connection points: 2
#     Edge 84, Type (0, 0), BuildingBlock: UVAHIK_clean_linker_0, # of connection points: 2
#     Edge 85, Type (0, 0), BuildingBlock: UVAHIK_clean_linker_0, # of connection points: 2
#     Edge 86, Type (0, 0), BuildingBlock: UVAHIK_clean_linker_0, # of connection points: 2
#     Edge 87, Type (0, 0), BuildingBlock: UVAHIK_clean_linker_0, # of connection points: 2
#     Edge 88, Type (0, 0), BuildingBlock: UVAHIK_clean_linker_0, # of connection points: 2
#     Edge 89, Type (0, 0), BuildingBlock: UVAHIK_clean_linker_0, # of connection points: 2
#     Edge 90, Type (0, 0), BuildingBlock: UVAHIK_clean_linker_0, # of connection points: 2
#     Edge 91, Type (0, 0), BuildingBlock: UVAHIK_clean_linker_0, # of connection points: 2
#     Edge 92, Type (0, 0), BuildingBlock: UVAHIK_clean_linker_0, # of connection points: 2
#     Edge 93, Type (0, 0), BuildingBlock: UVAHIK_clean_linker_0, # of connection points: 2
#     Edge 94, Type (0, 0), BuildingBlock: UVAHIK_clean_linker_0, # of connection points: 2
#     Edge 95, Type (0, 0), BuildingBlock: UVAHIK_clean_linker_0, # of connection points: 2
# Relax obj value: 0.527
# Max RMSD: 0.261
# Mean RMSD: 0.261
data_MOF--net-lcv-e--node1-OJICUG_clean_sbu_0--edge1-UVAHIK_clean_linker_0
_symmetry_space_group_name_H-M    P1
_symmetry_Int_Tables_number       1
_symmetry_cell_setting            triclinic
loop_
_symmetry_equiv_pos_as_xyz
'x, y, z'
_cell_length_a     67.58697
_cell_length_b     67.503093
_cell_length_c     67.541806
_cell_angle_alpha  90.042358
_cell_angle_beta   90.340429
_cell_angle_gamma 90.03793
loop_
_atom_site_label
_atom_site_type_symbol
_atom_site_fract_x
_atom_site_fract_y
_atom_site_fract_z
_atom_type_partial_charge
Sc0 Sc 0.04502 0.11639 0.23983 0.0
Sc1 Sc 0.00427 0.09319 0.21858 0.0
Sc2 Sc 0.99913 0.12215 0.2608 0.0
O3 O 0.01593 0.11101 0.23936 0.0
C4 C 0.03717 0.11006 0.28477 0.0
C5 C 0.04329 0.07099 0.23178 0.0
C6 C 0.98406 0.07816 0.25746 0.0
C7 C 0.03463 0.11666 0.19384 0.0
C8 C 0.02919 0.15769 0.25032 0.0
C9 C 0.97234 0.12781 0.22238 0.0
O10 O 0.04747 0.11842 0.27159 0.0
O11 O 0.02954 0.07339 0.219 0.0
O12 O 0.98104 0.09576 0.26351 0.0
O13 O 0.04708 0.11559 0.20799 0.0
O14 O 0.01587 0.14975 0.26109 0.0
O15 O 0.97767 0.11087 0.21597 0.0
O16 O 0.03987 0.14772 0.23845 0.0
O17 O 0.01673 0.11118 0.19557 0.0
O18 O 0.97962 0.1354 0.23823 0.0
O19 O 0.05012 0.08513 0.24223 0.0
O20 O 0.01848 0.1082 0.28293 0.0
O21 O 0.99249 0.0745 0.24113 0.0
Sc22 Sc 0.10028 0.80958 0.48003 0.0
Sc23 Sc 0.12003 0.80771 0.43262 0.0
Sc24 Sc 0.13291 0.77223 0.46667 0.0
O25 O 0.11745 0.79614 0.45972 0.0
C26 C 0.1387 0.80002 0.50423 0.0
C27 C 0.12239 0.84336 0.45965 0.0
C28 C 0.16351 0.79727 0.44109 0.0
C29 C 0.07504 0.80925 0.44026 0.0
C30 C 0.09101 0.76497 0.48694 0.0
C31 C 0.1197 0.7619 0.42329 0.0
O32 O 0.12017 0.80326 0.50442 0.0
O33 O 0.11392 0.83668 0.4443 0.0
O34 O 0.15797 0.78116 0.4491 0.0
O35 O 0.07771 0.81636 0.45764 0.0
O36 O 0.10914 0.76031 0.4846 0.0
O37 O 0.12462 0.77938 0.4182 0.0
O38 O 0.08452 0.78251 0.48456 0.0
O39 O 0.08907 0.80353 0.42918 0.0
O40 O 0.11968 0.75647 0.44145 0.0
O41 O 0.11767 0.83625 0.47632 0.0
O42 O 0.1466 0.78911 0.49096 0.0
O43 O 0.15162 0.81117 0.43638 0.0
Sc44 Sc 0.45298 0.86839 0.71194 0.0
Sc45 Sc 0.46428 0.86156 0.76202 0.0
Sc46 Sc 0.49372 0.89182 0.73265 0.0
O47 O 0.47041 0.87357 0.73535 0.0
C48 C 0.49724 0.86675 0.69398 0.0
C49 C 0.45387 0.82645 0.73218 0.0
C50 C 0.50997 0.85745 0.76045 0.0
C51 C 0.42208 0.87382 0.74775 0.0
C52 C 0.46267 0.91259 0.70373 0.0
C53 C 0.4723 0.90565 0.77127 0.0
O54 O 0.47839 0.86599 0.69222 0.0
O55 O 0.45427 0.83362 0.74962 0.0
O56 O 0.51181 0.87489 0.75343 0.0
O57 O 0.42619 0.87038 0.72962 0.0
O58 O 0.47997 0.91063 0.71083 0.0
O59 O 0.47362 0.88798 0.77763 0.0
O60 O 0.44937 0.89946 0.70545 0.0
O61 O 0.4349 0.87316 0.76156 0.0
O62 O 0.47971 0.9105 0.75468 0.0
O63 O 0.45526 0.8371 0.71674 0.0
O64 O 0.50593 0.87381 0.70929 0.0
O65 O 0.49327 0.84937 0.76323 0.0
Sc66 Sc 0.3875 0.26897 0.0197 0.0
Sc67 Sc 0.3796 0.23445 0.98258 0.0
Sc68 Sc 0.40256 0.2202 0.0266 0.0
O69 O 0.38967 0.24118 0.0092 0.0
C70 C 0.43013 0.25572 0.02687 0.0
C71 C 0.40397 0.27496 0.97622 0.0
C72 C 0.41599 0.20546 0.98516 0.0
C73 C 0.34824 0.26726 0.9935 0.0
C74 C 0.37627 0.24193 0.05447 0.0
C75 C 0.36308 0.2009 0.0125 0.0
O76 O 0.41559 0.26471 0.03478 0.0
O77 O 0.39459 0.25971 0.96993 0.0
O78 O 0.41327 0.20151 0.00324 0.0
O79 O 0.35996 0.27616 0.00527 0.0
O80 O 0.39406 0.23665 0.05238 0.0
O81 O 0.36426 0.20922 0.99547 0.0
O82 O 0.36977 0.25591 0.04356 0.0
O83 O 0.35249 0.25078 0.98555 0.0
O84 O 0.37532 0.20376 0.02671 0.0
O85 O 0.40375 0.28059 0.99436 0.0
O86 O 0.42922 0.23712 0.02401 0.0
O87 O 0.40612 0.21846 0.97596 0.0
Sc88 Sc 0.06094 0.84466 0.25929 0.0
Sc89 Sc 0.06962 0.86052 0.30854 0.0
Sc90 Sc 0.02993 0.88006 0.28101 0.0
O91 O 0.0535 0.86171 0.28303 0.0
C92 C 0.0552 0.88802 0.24155 0.0
C93 C 0.10317 0.85821 0.27581 0.0
C94 C 0.05855 0.90599 0.30844 0.0
C95 C 0.06567 0.81494 0.29522 0.0
C96 C 0.01414 0.8436 0.25544 0.0
C97 C 0.02439 0.86014 0.32355 0.0
O98 O 0.06081 0.87008 0.23999 0.0
O99 O 0.09734 0.86299 0.29304 0.0
O100 O 0.0434 0.90305 0.29781 0.0
O101 O 0.06147 0.81827 0.27717 0.0
O102 O 0.01162 0.85981 0.26451 0.0
O103 O 0.04301 0.85803 0.32615 0.0
O104 O 0.03113 0.8364 0.25242 0.0
O105 O 0.07019 0.82857 0.30749 0.0
O106 O 0.01688 0.86719 0.3076 0.0
O107 O 0.09192 0.85052 0.26282 0.0
O108 O 0.04354 0.89399 0.25519 0.0
O109 O 0.07064 0.89238 0.31317 0.0
Sc110 Sc 0.37586 0.77431 0.52898 0.0
Sc111 Sc 0.3559 0.79659 0.57019 0.0
Sc112 Sc 0.3454 0.74684 0.55959 0.0
O113 O 0.35846 0.77286 0.55291 0.0
C114 C 0.34048 0.74843 0.51414 0.0
C115 C 0.35169 0.81344 0.52517 0.0
C116 C 0.31277 0.77832 0.5717 0.0
C117 C 0.39939 0.80328 0.55716 0.0
C118 C 0.38882 0.73648 0.55211 0.0
C119 C 0.36032 0.76073 0.60145 0.0
O120 O 0.35883 0.75231 0.51276 0.0
O121 O 0.35247 0.81563 0.54406 0.0
O122 O 0.31855 0.76053 0.56976 0.0
O123 O 0.3951 0.79693 0.54005 0.0
O124 O 0.3711 0.73059 0.54967 0.0
O125 O 0.35886 0.77906 0.59694 0.0
O126 O 0.39451 0.75275 0.54436 0.0
O127 O 0.3877 0.80141 0.57167 0.0
O128 O 0.35755 0.7468 0.58903 0.0
O129 O 0.35745 0.79757 0.51647 0.0
O130 O 0.33213 0.74668 0.5308 0.0
O131 O 0.32422 0.79327 0.57081 0.0
Sc132 Sc 0.46902 0.10418 0.79618 0.0
Sc133 Sc 0.51953 0.09344 0.79611 0.0
Sc134 Sc 0.4982 0.12172 0.75853 0.0
O135 O 0.49529 0.10622 0.78367 0.0
C136 C 0.45983 0.09726 0.74951 0.0
C137 C 0.48622 0.06178 0.80453 0.0
C138 C 0.52142 0.08371 0.75223 0.0
C139 C 0.49913 0.11175 0.83269 0.0
C140 C 0.46475 0.14689 0.77947 0.0
C141 C 0.53261 0.13549 0.78617 0.0
O142 O 0.45469 0.09927 0.76762 0.0
O143 O 0.50358 0.06823 0.80793 0.0
O144 O 0.5221 0.10237 0.74988 0.0
O145 O 0.48188 0.10843 0.8255 0.0
O146 O 0.47465 0.14215 0.76429 0.0
O147 O 0.53796 0.11743 0.78564 0.0
O148 O 0.46375 0.13589 0.79471 0.0
O149 O 0.51506 0.10946 0.823 0.0
O150 O 0.51767 0.14111 0.77596 0.0
O151 O 0.47226 0.07265 0.79812 0.0
O152 O 0.47682 0.10282 0.74319 0.0
O153 O 0.52295 0.0766 0.76954 0.0
Sc154 Sc 0.14014 0.25935 0.01239 0.0
Sc155 Sc 0.12588 0.21714 0.98542 0.0
Sc156 Sc 0.1143 0.26444 0.96681 0.0
O157 O 0.12669 0.24706 0.98819 0.0
C158 C 0.10241 0.2871 0.00739 0.0
C159 C 0.11873 0.22231 0.03172 0.0
C160 C 0.08283 0.22907 0.97079 0.0
C161 C 0.16987 0.2248 1.00056 0.0
C162 C 0.15374 0.28813 0.97762 0.0
C163 C 0.13339 0.22954 0.94077 0.0
O164 O 0.11665 0.27976 0.0172 0.0
O165 O 0.11861 0.21256 0.0157 0.0
O166 O 0.0879 0.24643 0.9654 0.0
O167 O 0.16571 0.24046 0.0101 0.0
O168 O 0.13981 0.28377 0.96565 0.0
O169 O 0.13281 0.21737 0.95493 0.0
O170 O 0.15558 0.28052 0.99471 0.0
O171 O 0.15708 0.21484 0.99094 0.0
O172 O 0.12787 0.24757 0.94238 0.0
O173 O 0.1257 0.23974 0.03302 0.0
O174 O 0.0992 0.28304 0.98911 0.0
O175 O 0.09475 0.21696 0.97894 0.0
Sc176 Sc 0.21607 0.08179 0.14066 0.0
Sc177 Sc 0.18799 0.04606 0.11737 0.0
Sc178 Sc 0.23704 0.0357 0.13032 0.0
O179 O 0.21413 0.05419 0.12939 0.0
C180 C 0.25445 0.07837 0.1153 0.0
C181 C 0.19502 0.08729 0.10091 0.0
C182 C 0.21725 0.02211 0.08985 0.0
C183 C 0.17733 0.06578 0.15612 0.0
C184 C 0.2452 0.05924 0.16987 0.0
C185 C 0.19857 0.01007 0.14466 0.0
O186 O 0.23935 0.08826 0.12069 0.0
O187 O 0.19186 0.06935 0.09639 0.0
O188 O 0.2327 0.02597 0.09999 0.0
O189 O 0.19368 0.07339 0.16136 0.0
O190 O 0.24425 0.04288 0.16063 0.0
O191 O 0.18576 0.02208 0.13773 0.0
O192 O 0.23741 0.07498 0.16325 0.0
O193 O 0.17275 0.06505 0.13789 0.0
O194 O 0.21738 0.01192 0.14203 0.0
O195 O 0.19506 0.09269 0.11895 0.0
O196 O 0.25683 0.05975 0.11906 0.0
O197 O 0.20002 0.02666 0.09555 0.0
Sc198 Sc 0.22286 0.96017 0.36479 0.0
Sc199 Sc 0.27301 0.96967 0.36247 0.0
Sc200 Sc 0.24211 0.9999 0.39046 0.0
O201 O 0.24586 0.97715 0.37195 0.0
C202 C 0.20336 0.00384 0.36576 0.0
C203 C 0.24469 0.96108 0.32522 0.0
C204 C 0.27341 0.01531 0.35818 0.0
C205 C 0.25674 0.92859 0.37262 0.0
C206 C 0.21625 0.96622 0.40988 0.0
C207 C 0.28026 0.97825 0.40664 0.0
O208 O 0.20214 0.98498 0.36474 0.0
O209 O 0.26124 0.95898 0.33421 0.0
O210 O 0.26345 0.01784 0.37404 0.0
O211 O 0.24045 0.93314 0.36413 0.0
O212 O 0.22022 0.98459 0.40809 0.0
O213 O 0.28762 0.97898 0.38942 0.0
O214 O 0.21767 0.95416 0.3955 0.0
O215 O 0.27036 0.94113 0.37554 0.0
O216 O 0.26347 0.98594 0.41016 0.0
O217 O 0.22879 0.96556 0.33417 0.0
O218 O 0.21887 0.01267 0.37208 0.0
O219 O 0.27649 0.99845 0.35038 0.0
Sc220 Sc 0.23994 0.96142 0.65228 0.0
Sc221 Sc 0.28845 0.94814 0.64071 0.0
Sc222 Sc 0.26715 0.98827 0.61777 0.0
O223 O 0.26541 0.96622 0.63766 0.0
C224 C 0.2281 0.96511 0.60812 0.0
C225 C 0.25146 0.91834 0.63983 0.0
C226 C 0.28946 0.95527 0.59541 0.0
C227 C 0.27339 0.9523 0.6846 0.0
C228 C 0.24214 0.00732 0.65222 0.0
C229 C 0.30724 0.99245 0.64029 0.0
O230 O 0.22268 0.96828 0.62591 0.0
O231 O 0.27 0.92181 0.64099 0.0
O232 O 0.28832 0.97365 0.59897 0.0
O233 O 0.25518 0.95363 0.67968 0.0
O234 O 0.247 0.00734 0.63403 0.0
O235 O 0.30895 0.97349 0.64042 0.0
O236 O 0.24037 0.99144 0.6621 0.0
O237 O 0.28741 0.95158 0.67214 0.0
O238 O 0.29152 1.00118 0.63422 0.0
O239 O 0.23839 0.93137 0.64297 0.0
O240 O 0.24404 0.97273 0.60151 0.0
O241 O 0.28911 0.94282 0.60936 0.0
Sc242 Sc 0.26569 0.0318 0.8579 0.0
Sc243 Sc 0.29963 0.02835 0.89653 0.0
Sc244 Sc 0.29135 0.07368 0.87415 0.0
O245 O 0.28497 0.04469 0.87617 0.0
C246 C 0.28478 0.06293 0.82866 0.0
C247 C 0.30523 0.00412 0.85787 0.0
C248 C 0.33189 0.05464 0.88123 0.0
C249 C 0.25911 0.00567 0.89559 0.0
C250 C 0.24491 0.07344 0.87028 0.0
C251 C 0.28706 0.06427 0.92059 0.0
O252 O 0.2775 0.04599 0.83223 0.0
O253 O 0.31271 0.01163 0.87349 0.0
O254 O 0.32196 0.06579 0.86986 0.0
O255 O 0.25147 0.01656 0.88227 0.0
O256 O 0.26083 0.08145 0.87651 0.0
O257 O 0.28626 0.04549 0.91933 0.0
O258 O 0.24415 0.05613 0.86232 0.0
O259 O 0.27746 0.00589 0.89936 0.0
O260 O 0.29287 0.07549 0.90646 0.0
O261 O 0.28754 0.00792 0.85173 0.0
O262 O 0.2892 0.07533 0.84216 0.0
O263 O 0.32412 0.04845 0.89699 0.0
Sc264 Sc 0.64455 0.29637 0.95017 0.0
Sc265 Sc 0.65018 0.24623 0.96231 0.0
Sc266 Sc 0.61478 0.27509 0.98602 0.0
O267 O 0.63687 0.27282 0.96634 0.0
C268 C 0.6388 0.31446 0.99432 0.0
C269 C 0.686 0.27623 0.95763 0.0
C270 C 0.6466 0.24827 0.00806 0.0
C271 C 0.64437 0.26035 0.91865 0.0
C272 C 0.59885 0.30372 0.95219 0.0
C273 C 0.60588 0.23591 0.96219 0.0
O274 O 0.64333 0.31578 0.97598 0.0
O275 O 0.67907 0.25876 0.95691 0.0
O276 O 0.62896 0.25484 0.00677 0.0
O277 O 0.64654 0.2786 0.92331 0.0
O278 O 0.59796 0.29601 0.96923 0.0
O279 O 0.62306 0.23007 0.96713 0.0
O280 O 0.61429 0.30316 0.94159 0.0
O281 O 0.64354 0.24651 0.93136 0.0
O282 O 0.59933 0.25242 0.96856 0.0
O283 O 0.67525 0.29165 0.9572 0.0
O284 O 0.62958 0.29947 0.00141 0.0
O285 O 0.65745 0.24549 0.99303 0.0
Sc286 Sc 0.95141 0.37386 0.18358 0.0
Sc287 Sc 0.95713 0.36066 0.23278 0.0
Sc288 Sc 0.98889 0.39495 0.21232 0.0
O289 O 0.9657 0.37707 0.20943 0.0
C290 C 0.99585 0.37466 0.16925 0.0
C291 C 0.96095 0.33096 0.19888 0.0
C292 C 0.00231 0.36087 0.24031 0.0
C293 C 0.9166 0.37033 0.21261 0.0
C294 C 0.96131 0.42012 0.18405 0.0
C295 C 0.95974 0.4028 0.25026 0.0
O296 O 0.97807 0.36873 0.16751 0.0
O297 O 0.96649 0.33541 0.21632 0.0
O298 O 0.00625 0.37155 0.22547 0.0
O299 O 0.92413 0.37966 0.19822 0.0
O300 O 0.97384 0.41879 0.19805 0.0
O301 O 0.94969 0.38697 0.24804 0.0
O302 O 0.95272 0.40524 0.17618 0.0
O303 O 0.92664 0.35805 0.22276 0.0
O304 O 0.97569 0.40652 0.24043 0.0
O305 O 0.94923 0.34196 0.18883 0.0
O306 O 0.00206 0.38494 0.18406 0.0
O307 O 0.98527 0.36094 0.24787 0.0
Sc308 Sc 0.88767 0.72438 0.4904 0.0
Sc309 Sc 0.85987 0.75046 0.4546 0.0
Sc310 Sc 0.86787 0.69898 0.44943 0.0
O311 O 0.87163 0.72456 0.46493 0.0
C312 C 0.91172 0.69305 0.46459 0.0
C313 C 0.90359 0.76277 0.46713 0.0
C314 C 0.87657 0.73026 0.41542 0.0
C315 C 0.85415 0.75613 0.50065 0.0
C316 C 0.86179 0.68497 0.49465 0.0
C317 C 0.82525 0.71939 0.44657 0.0
O318 O 0.90919 0.70393 0.47964 0.0
O319 O 0.88694 0.76638 0.45913 0.0
O320 O 0.87523 0.71265 0.42183 0.0
O321 O 0.86806 0.74446 0.50552 0.0
O322 O 0.8607 0.6826 0.47594 0.0
O323 O 0.83122 0.737 0.44955 0.0
O324 O 0.87027 0.69999 0.50261 0.0
O325 O 0.84893 0.7592 0.48287 0.0
O326 O 0.83679 0.70456 0.44573 0.0
O327 O 0.90663 0.74794 0.47854 0.0
O328 O 0.89869 0.69067 0.45121 0.0
O329 O 0.87091 0.74525 0.42522 0.0
Sc330 Sc 0.96571 0.61694 0.2857 0.0
Sc331 Sc 0.01561 0.6106 0.27784 0.0
Sc332 Sc 0.98754 0.637 0.24408 0.0
O333 O 0.98925 0.62116 0.26897 0.0
C334 C 0.94858 0.61156 0.24125 0.0
C335 C 0.98684 0.57692 0.29206 0.0
C336 C 0.01317 0.59931 0.23382 0.0
C337 C 0.9994 0.63029 0.3157 0.0
C338 C 0.95786 0.66042 0.27198 0.0
C339 C 0.02654 0.6516 0.26376 0.0
O340 O 0.94681 0.61214 0.26007 0.0
O341 O 0.00329 0.58584 0.29412 0.0
O342 O 0.00898 0.61741 0.23002 0.0
O343 O 0.98297 0.62136 0.31272 0.0
O344 O 0.96562 0.6572 0.25519 0.0
O345 O 0.03138 0.63355 0.26249 0.0
O346 O 0.95881 0.6482 0.28627 0.0
O347 O 0.01371 0.62939 0.3035 0.0
O348 O 0.00975 0.65701 0.25706 0.0
O349 O 0.97142 0.58563 0.28574 0.0
O350 O 0.96392 0.61818 0.23237 0.0
O351 O 0.01561 0.59298 0.25147 0.0
Sc352 Sc 0.53665 0.35439 0.74375 0.0
Sc353 Sc 0.54842 0.37243 0.79105 0.0
Sc354 Sc 0.50286 0.38327 0.76989 0.0
O355 O 0.52934 0.36957 0.76863 0.0
C356 C 0.52125 0.39381 0.7294 0.0
C357 C 0.57495 0.37933 0.75203 0.0
C358 C 0.52854 0.41392 0.79494 0.0
C359 C 0.55683 0.32829 0.77701 0.0
C360 C 0.49302 0.34224 0.74912 0.0
C361 C 0.50615 0.36321 0.81176 0.0
O362 O 0.52036 0.37535 0.72612 0.0
O363 O 0.57228 0.37956 0.77077 0.0
O364 O 0.51227 0.40747 0.7882 0.0
O365 O 0.55308 0.33152 0.75887 0.0
O366 O 0.48818 0.36014 0.75264 0.0
O367 O 0.52496 0.36582 0.81215 0.0
O368 O 0.51083 0.33668 0.74732 0.0
O369 O 0.5546 0.34127 0.79043 0.0
O370 O 0.49539 0.36716 0.79657 0.0
O371 O 0.563 0.3714 0.73977 0.0
O372 O 0.51296 0.40076 0.74478 0.0
O373 O 0.54439 0.40396 0.79447 0.0
Sc374 Sc 0.48037 0.61323 0.72087 0.0
Sc375 Sc 0.53029 0.6268 0.71791 0.0
Sc376 Sc 0.50262 0.64003 0.7588 0.0
O377 O 0.50489 0.62624 0.73252 0.0
C378 C 0.46595 0.65267 0.73447 0.0
C379 C 0.49668 0.63808 0.68553 0.0
C380 C 0.53401 0.66856 0.73843 0.0
C381 C 0.51358 0.58484 0.7051 0.0
C382 C 0.4791 0.60005 0.76426 0.0
C383 C 0.54258 0.61559 0.76299 0.0
O384 O 0.46218 0.6344 0.73579 0.0
O385 O 0.51469 0.63595 0.69119 0.0
O386 O 0.52358 0.66304 0.75292 0.0
O387 O 0.49564 0.59018 0.70529 0.0
O388 O 0.48155 0.61805 0.76952 0.0
O389 O 0.5463 0.61796 0.74455 0.0
O390 O 0.47957 0.59464 0.74625 0.0
O391 O 0.52773 0.59582 0.71087 0.0
O392 O 0.52646 0.62162 0.771 0.0
O393 O 0.48183 0.63159 0.69508 0.0
O394 O 0.48073 0.65935 0.74416 0.0
O395 O 0.53628 0.65786 0.72316 0.0
Sc396 Sc 0.85566 0.25801 0.02889 0.0
Sc397 Sc 0.88714 0.2985 0.02011 0.0
Sc398 Sc 0.86878 0.28924 0.06793 0.0
O399 O 0.87061 0.28187 0.03895 0.0
C400 C 0.82531 0.27514 0.06111 0.0
C401 C 0.84704 0.29153 0.99609 0.0
C402 C 0.86722 0.3313 0.04674 0.0
C403 C 0.89494 0.25601 0.0027 0.0
C404 C 0.87274 0.24195 0.06988 0.0
C405 C 0.91455 0.29443 0.05826 0.0
O406 O 0.83083 0.26279 0.04806 0.0
O407 O 0.86434 0.29868 0.99796 0.0
O408 O 0.86628 0.32031 0.06194 0.0
O409 O 0.87851 0.24899 0.00846 0.0
O410 O 0.87079 0.25899 0.07765 0.0
O411 O 0.91206 0.29971 0.04035 0.0
O412 O 0.86976 0.23876 0.05137 0.0
O413 O 0.90086 0.27329 0.00707 0.0
O414 O 0.90035 0.29018 0.06976 0.0
O415 O 0.8407 0.27715 0.00676 0.0
O416 O 0.83686 0.28809 0.06844 0.0
O417 O 0.87403 0.32547 0.03032 0.0
Sc418 Sc 0.62445 0.76175 0.49704 0.0
Sc419 Sc 0.62801 0.72762 0.53547 0.0
Sc420 Sc 0.60388 0.71507 0.49134 0.0
O421 O 0.61872 0.7349 0.50837 0.0
C422 C 0.57966 0.75337 0.48674 0.0
C423 C 0.60993 0.77144 0.54066 0.0
C424 C 0.58754 0.70427 0.53348 0.0
C425 C 0.66335 0.75527 0.52329 0.0
C426 C 0.63302 0.73281 0.46236 0.0
C427 C 0.64065 0.69145 0.507 0.0
O428 O 0.59559 0.76251 0.48223 0.0
O429 O 0.61688 0.75519 0.54749 0.0
O430 O 0.58931 0.69992 0.51531 0.0
O431 O 0.6531 0.76496 0.51082 0.0
O432 O 0.61513 0.72777 0.46445 0.0
O433 O 0.64006 0.70002 0.52394 0.0
O434 O 0.64013 0.74653 0.4732 0.0
O435 O 0.65686 0.7402 0.53234 0.0
O436 O 0.62889 0.69561 0.49275 0.0
O437 O 0.61036 0.77603 0.52225 0.0
O438 O 0.57957 0.73506 0.49109 0.0
O439 O 0.59986 0.71523 0.54246 0.0
Sc440 Sc 0.72982 0.50586 0.62453 0.0
Sc441 Sc 0.7107 0.55237 0.61212 0.0
Sc442 Sc 0.69109 0.51019 0.59081 0.0
O443 O 0.71106 0.52277 0.60919 0.0
C444 C 0.72543 0.47914 0.58682 0.0
C445 C 0.75624 0.54259 0.60842 0.0
C446 C 0.7084 0.54322 0.56545 0.0
C447 C 0.72131 0.53978 0.65626 0.0
C448 C 0.68563 0.48763 0.63091 0.0
C449 C 0.6664 0.54309 0.60867 0.0
O450 O 0.73664 0.48781 0.59916 0.0
O451 O 0.74156 0.55419 0.60651 0.0
O452 O 0.70498 0.52469 0.56645 0.0
O453 O 0.72591 0.5222 0.65152 0.0
O454 O 0.6781 0.49651 0.61599 0.0
O455 O 0.67978 0.55092 0.61927 0.0
O456 O 0.70443 0.48716 0.63446 0.0
O457 O 0.71617 0.55279 0.64367 0.0
O458 O 0.67088 0.53459 0.59268 0.0
O459 O 0.75489 0.52477 0.61506 0.0
O460 O 0.70734 0.48355 0.58502 0.0
O461 O 0.70647 0.55508 0.58014 0.0
Sc462 Sc 0.70572 0.44961 0.86328 0.0
Sc463 Sc 0.75481 0.45412 0.84793 0.0
Sc464 Sc 0.73407 0.48833 0.8805 0.0
O465 O 0.73128 0.46429 0.86313 0.0
C466 C 0.69331 0.49607 0.86013 0.0
C467 C 0.71847 0.44749 0.81834 0.0
C468 C 0.75967 0.49955 0.84287 0.0
C469 C 0.73773 0.41466 0.86533 0.0
C470 C 0.70815 0.46186 0.90759 0.0
C471 C 0.76991 0.46037 0.89065 0.0
O472 O 0.68917 0.47758 0.8618 0.0
O473 O 0.73693 0.44653 0.82223 0.0
O474 O 0.75526 0.50262 0.86093 0.0
O475 O 0.71991 0.42085 0.86495 0.0
O476 O 0.71268 0.47919 0.90212 0.0
O477 O 0.77459 0.46088 0.87241 0.0
O478 O 0.70607 0.44795 0.89517 0.0
O479 O 0.75231 0.42522 0.86017 0.0
O480 O 0.75576 0.47103 0.89716 0.0
O481 O 0.70527 0.44965 0.83155 0.0
O482 O 0.71044 0.50307 0.86439 0.0
O483 O 0.75865 0.48254 0.83496 0.0
Sc484 Sc 0.74293 0.50083 0.13157 0.0
Sc485 Sc 0.71933 0.46617 0.16135 0.0
Sc486 Sc 0.7687 0.46141 0.15091 0.0
O487 O 0.74386 0.47656 0.14844 0.0
C488 C 0.76789 0.47159 0.10592 0.0
C489 C 0.70491 0.47712 0.11963 0.0
C490 C 0.73673 0.42796 0.14438 0.0
C491 C 0.71952 0.51126 0.17042 0.0
C492 C 0.78389 0.50669 0.15203 0.0
C493 C 0.75323 0.45679 0.193 0.0
O494 O 0.76356 0.48947 0.11 0.0
O495 O 0.70029 0.47709 0.13787 0.0
O496 O 0.75324 0.43314 0.15201 0.0
O497 O 0.72233 0.51474 0.15204 0.0
O498 O 0.78695 0.48805 0.15069 0.0
O499 O 0.73592 0.45337 0.18614 0.0
O500 O 0.76707 0.51441 0.14803 0.0
O501 O 0.71815 0.49369 0.17724 0.0
O502 O 0.767 0.46395 0.18243 0.0
O503 O 0.72035 0.48618 0.11391 0.0
O504 O 0.76942 0.45833 0.11922 0.0
O505 O 0.72171 0.43926 0.14458 0.0
Sc506 Sc 0.78423 0.54116 0.37391 0.0
Sc507 Sc 0.82077 0.54152 0.41002 0.0
Sc508 Sc 0.8087 0.58512 0.38657 0.0
O509 O 0.80403 0.55587 0.38996 0.0
C510 C 0.79769 0.57311 0.34225 0.0
C511 C 0.82609 0.51694 0.37113 0.0
C512 C 0.85033 0.56907 0.39167 0.0
C513 C 0.78319 0.51377 0.41106 0.0
C514 C 0.76214 0.58161 0.38817 0.0
C515 C 0.80629 0.57749 0.43266 0.0
O516 O 0.79167 0.55605 0.34712 0.0
O517 O 0.8337 0.52504 0.3865 0.0
O518 O 0.83914 0.57872 0.38008 0.0
O519 O 0.7735 0.52385 0.39852 0.0
O520 O 0.77815 0.59104 0.39149 0.0
O521 O 0.80593 0.55865 0.43215 0.0
O522 O 0.76145 0.56379 0.38127 0.0
O523 O 0.80115 0.5172 0.41502 0.0
O524 O 0.81354 0.58789 0.4186 0.0
O525 O 0.80781 0.51943 0.36591 0.0
O526 O 0.80332 0.586 0.3548 0.0
O527 O 0.84365 0.56353 0.40819 0.0
C528 C 0.02761 0.13475 0.16216 0.0
C529 C 0.04126 0.12621 0.17539 0.0
C530 C 0.03423 0.14646 0.14645 0.0
C531 C 0.0774 0.17635 0.13201 0.0
H532 H 0.05644 0.17146 0.07871 0.0
C533 C 0.1031 0.19316 0.04796 0.0
C534 C 0.10937 0.213 0.04911 0.0
C535 C 0.09308 0.18443 0.0636 0.0
C536 C 0.06239 0.17301 0.09355 0.0
H537 H 0.07252 0.12216 0.18184 0.0
H538 H 0.08397 0.14217 0.15437 0.0
H539 H 0.04211 0.15173 0.10529 0.0
H540 H 0.11023 0.23915 0.06781 0.0
H541 H 0.09267 0.22369 0.09539 0.0
H542 H 0.0982 0.19702 0.12015 0.0
C543 C 0.06818 0.14035 0.15642 0.0
C544 C 0.05408 0.16185 0.10877 0.0
C545 C 0.06161 0.12874 0.17205 0.0
C546 C 0.10567 0.22382 0.06649 0.0
C547 C 0.0956 0.215 0.08224 0.0
C548 C 0.0857 0.18751 0.11681 0.0
C549 C 0.05459 0.14975 0.14378 0.0
C550 C 0.06187 0.16304 0.12803 0.0
C551 C 0.08904 0.19527 0.08081 0.0
C552 C 0.0786 0.18555 0.09735 0.0
H553 H 0.01184 0.13315 0.16443 0.0
H554 H 0.02344 0.15351 0.13686 0.0
H555 H 0.08343 0.17783 0.14683 0.0
H556 H 0.10581 0.18429 0.03488 0.0
H557 H 0.08865 0.16905 0.06226 0.0
C558 C 0.04709 0.78612 0.43769 0.0
C559 C 0.05505 0.80479 0.43313 0.0
C560 C 0.0343 0.77667 0.4243 0.0
C561 C 0.0361 0.7577 0.38369 0.0
H562 H 0.00875 0.787 0.34263 0.0
C563 C 0.07147 0.78871 0.32026 0.0
C564 C 0.06082 0.79544 0.30373 0.0
C565 C 0.06266 0.77578 0.33366 0.0
C566 C 0.01579 0.77787 0.35382 0.0
H567 H 0.05415 0.82932 0.41268 0.0
H568 H 0.03185 0.81324 0.38958 0.0
H569 H 0.00274 0.79476 0.377 0.0
H570 H 0.03384 0.79174 0.2866 0.0
H571 H 0.01825 0.76942 0.31033 0.0
H572 H 0.05118 0.74268 0.3604 0.0
C573 C 0.03498 0.80579 0.40342 0.0
C574 C 0.01227 0.78241 0.37364 0.0
C575 C 0.04788 0.8151 0.41665 0.0
C576 C 0.04241 0.78673 0.29925 0.0
C577 C 0.03344 0.77397 0.31286 0.0
C578 C 0.03964 0.75317 0.36384 0.0
C579 C 0.02934 0.78591 0.40631 0.0
C580 C 0.02404 0.77396 0.38858 0.0
C581 C 0.04293 0.76959 0.33089 0.0
C582 C 0.03124 0.76489 0.34881 0.0
H583 H 0.05273 0.77778 0.45022 0.0
H584 H 0.03017 0.7614 0.42696 0.0
H585 H 0.04522 0.75056 0.39483 0.0
H586 H 0.0857 0.79517 0.324 0.0
H587 H 0.0704 0.77289 0.34745 0.0
C588 C 0.43775 0.79475 0.74279 0.0
C589 C 0.44959 0.80519 0.72932 0.0
C590 C 0.4293 0.77659 0.73732 0.0
C591 C 0.4241 0.74223 0.69355 0.0
H592 H 0.3693 0.75849 0.69765 0.0
C593 C 0.36605 0.77026 0.63673 0.0
C594 C 0.36596 0.75556 0.62201 0.0
C595 C 0.37299 0.76605 0.6557 0.0
C596 C 0.38444 0.75332 0.6966 0.0
H597 H 0.4645 0.80352 0.70106 0.0
H598 H 0.44974 0.77239 0.6914 0.0
H599 H 0.39258 0.76796 0.72331 0.0
H600 H 0.37198 0.7245 0.61608 0.0
H601 H 0.38401 0.71727 0.64964 0.0
H602 H 0.41624 0.72988 0.66542 0.0
C603 C 0.44671 0.7779 0.70613 0.0
C604 C 0.39785 0.75858 0.71145 0.0
C605 C 0.45501 0.796 0.71153 0.0
C606 C 0.37199 0.73622 0.62703 0.0
C607 C 0.37896 0.73204 0.64614 0.0
C608 C 0.41068 0.73713 0.67857 0.0
C609 C 0.43263 0.76867 0.71833 0.0
C610 C 0.41818 0.75481 0.70906 0.0
C611 C 0.38 0.74704 0.66048 0.0
C612 C 0.39116 0.74426 0.67919 0.0
H613 H 0.43358 0.80138 0.75676 0.0
H614 H 0.41882 0.76967 0.74722 0.0
H615 H 0.43955 0.73848 0.69165 0.0
H616 H 0.36133 0.78524 0.63347 0.0
H617 H 0.37388 0.77806 0.66632 0.0
C618 C 0.43452 0.17539 0.9748 0.0
C619 C 0.43247 0.196 0.97493 0.0
C620 C 0.44966 0.16661 0.9639 0.0
C621 C 0.48455 0.14976 0.94243 0.0
H622 H 0.49269 0.17553 0.89185 0.0
C623 C 0.51473 0.13335 0.85834 0.0
C624 C 0.50055 0.11903 0.85312 0.0
C625 C 0.51425 0.14221 0.87702 0.0
C626 C 0.49105 0.16836 0.9061 0.0
H627 H 0.44524 0.22385 0.96555 0.0
H628 H 0.47246 0.20872 0.94763 0.0
H629 H 0.47618 0.1933 0.91802 0.0
H630 H 0.47595 0.1014 0.86358 0.0
H631 H 0.4754 0.11653 0.8964 0.0
H632 H 0.49756 0.12399 0.92923 0.0
C633 C 0.46192 0.19912 0.95489 0.0
C634 C 0.48158 0.17856 0.92124 0.0
C635 C 0.44639 0.20783 0.9652 0.0
C636 C 0.48689 0.11258 0.86726 0.0
C637 C 0.48675 0.12104 0.88606 0.0
C638 C 0.4936 0.13939 0.92706 0.0
C639 C 0.46335 0.17837 0.95346 0.0
C640 C 0.47737 0.16909 0.93931 0.0
C641 C 0.49997 0.13637 0.89084 0.0
C642 C 0.49614 0.1484 0.90856 0.0
H643 H 0.42392 0.16609 0.98238 0.0
H644 H 0.44996 0.15061 0.96296 0.0
H645 H 0.4822 0.1422 0.95635 0.0
H646 H 0.52541 0.13849 0.84762 0.0
H647 H 0.5244 0.15419 0.88039 0.0
C648 C 0.06182 0.04565 0.25132 0.0
C649 C 0.05296 0.05152 0.23341 0.0
C650 C 0.0746 0.02942 0.25183 0.0
C651 C 0.10382 0.99879 0.21538 0.0
H652 H 0.1437 0.03473 0.23567 0.0
C653 C 0.14893 0.04373 0.16449 0.0
C654 C 0.16653 0.05317 0.17029 0.0
C655 C 0.13944 0.03066 0.17727 0.0
C656 C 0.13318 0.024 0.23002 0.0
H657 H 0.04775 0.04327 0.20285 0.0
H658 H 0.071 0.01616 0.20314 0.0
H659 H 0.11375 0.03036 0.25359 0.0
H660 H 0.18855 0.05547 0.19374 0.0
H661 H 0.17187 0.03277 0.21611 0.0
H662 H 0.12284 0.99423 0.19061 0.0
C663 C 0.06809 0.02352 0.21706 0.0
C664 C 0.1157 0.02136 0.24048 0.0
C665 C 0.05489 0.03938 0.21672 0.0
C666 C 0.17471 0.04885 0.18899 0.0
C667 C 0.16525 0.03567 0.20176 0.0
C668 C 0.12131 1.00151 0.2048 0.0
C669 C 0.07953 0.01953 0.23418 0.0
C670 C 0.09975 0.0111 0.23169 0.0
C671 C 0.14732 0.02663 0.19618 0.0
C672 C 0.135 0.01602 0.21092 0.0
H673 H 0.05987 0.05432 0.26463 0.0
H674 H 0.08234 0.02617 0.26553 0.0
H675 H 0.09234 0.98955 0.20897 0.0
H676 H 0.14237 0.04653 0.1501 0.0
H677 H 0.12541 0.02444 0.17255 0.0
C678 C 0.26875 0.90709 0.40019 0.0
C679 C 0.25819 0.90911 0.38229 0.0
C680 C 0.26455 0.89138 0.41298 0.0
C681 C 0.23415 0.87644 0.44147 0.0
H682 H 0.20028 0.83467 0.42163 0.0
C683 C 0.1564 0.85136 0.47272 0.0
C684 C 0.14227 0.8522 0.45731 0.0
C685 C 0.17653 0.85418 0.46868 0.0
C686 C 0.20997 0.84586 0.42784 0.0
H687 H 0.23781 0.89473 0.36208 0.0
H688 H 0.23028 0.86777 0.38398 0.0
H689 H 0.23143 0.84123 0.40533 0.0
H690 H 0.13788 0.85909 0.42621 0.0
H691 H 0.17278 0.86382 0.41925 0.0
H692 H 0.21227 0.88099 0.46396 0.0
C693 C 0.24168 0.87804 0.38866 0.0
C694 C 0.22778 0.84976 0.4184 0.0
C695 C 0.24581 0.89372 0.376 0.0
C696 C 0.14839 0.85796 0.43833 0.0
C697 C 0.16838 0.86046 0.43429 0.0
C698 C 0.21667 0.87193 0.4515 0.0
C699 C 0.24973 0.87758 0.40798 0.0
C700 C 0.23876 0.86666 0.4236 0.0
C701 C 0.18264 0.85765 0.44919 0.0
C702 C 0.2037 0.85776 0.44364 0.0
H703 H 0.27866 0.91866 0.40529 0.0
H704 H 0.27148 0.89118 0.42748 0.0
H705 H 0.24259 0.88917 0.44638 0.0
H706 H 0.15211 0.84722 0.48757 0.0
H707 H 0.18733 0.85238 0.48045 0.0
C708 C 0.29684 0.95842 0.71214 0.0
C709 C 0.27897 0.95012 0.70557 0.0
C710 C 0.30561 0.95192 0.72965 0.0
C711 C 0.30942 0.90391 0.75199 0.0
H712 H 0.3553 0.93014 0.77452 0.0
C713 C 0.39755 0.88924 0.77085 0.0
C714 C 0.40161 0.87939 0.75294 0.0
C715 C 0.37841 0.89589 0.77498 0.0
C716 C 0.34237 0.92243 0.76894 0.0
H717 H 0.25478 0.9306 0.71327 0.0
H718 H 0.27021 0.91901 0.74407 0.0
H719 H 0.32584 0.94935 0.76681 0.0
H720 H 0.38864 0.86796 0.72581 0.0
H721 H 0.35551 0.87965 0.7328 0.0
H722 H 0.3263 0.87718 0.75329 0.0
C723 C 0.27758 0.9304 0.73557 0.0
C724 C 0.32549 0.93349 0.76437 0.0
C725 C 0.2687 0.93707 0.718 0.0
C726 C 0.38603 0.87558 0.73967 0.0
C727 C 0.36694 0.88206 0.74386 0.0
C728 C 0.32616 0.89283 0.75684 0.0
C729 C 0.29677 0.93677 0.74085 0.0
C730 C 0.3096 0.92466 0.75409 0.0
C731 C 0.36294 0.8926 0.76137 0.0
C732 C 0.34339 0.90231 0.76371 0.0
H733 H 0.30488 0.96876 0.7029 0.0
H734 H 0.32035 0.95726 0.73306 0.0
H735 H 0.2974 0.89644 0.74437 0.0
H736 H 0.40927 0.89246 0.78138 0.0
H737 H 0.37583 0.90402 0.78855 0.0
C738 C 0.34916 0.16792 0.0213 0.0
C739 C 0.34622 0.18767 0.01574 0.0
C740 C 0.33343 0.15449 0.02034 0.0
C741 C 0.28853 0.14951 0.99031 0.0
H742 H 0.29013 0.09665 0.01254 0.0
C743 C 0.29418 0.07015 0.95618 0.0
C744 C 0.28231 0.07362 0.93951 0.0
C745 C 0.29236 0.08221 0.97287 0.0
C746 C 0.2893 0.11139 0.00627 0.0
H747 H 0.3245 0.20974 0.00749 0.0
H748 H 0.29674 0.18666 0.00696 0.0
H749 H 0.30609 0.12391 0.03018 0.0
H750 H 0.25757 0.09023 0.92772 0.0
H751 H 0.25352 0.11066 0.95728 0.0
H752 H 0.2733 0.13712 0.96577 0.0
C753 C 0.31125 0.18112 0.01096 0.0
C754 C 0.29846 0.12704 0.01639 0.0
C755 C 0.32707 0.19437 0.01135 0.0
C756 C 0.26712 0.08768 0.94041 0.0
C757 C 0.26487 0.09934 0.95731 0.0
C758 C 0.27948 0.13396 0.98024 0.0
C759 C 0.31444 0.16078 0.01424 0.0
C760 C 0.2994 0.14598 0.00777 0.0
C761 C 0.27838 0.09772 0.97319 0.0
C762 C 0.28106 0.11444 0.98733 0.0
H763 H 0.36386 0.16257 0.02488 0.0
H764 H 0.33657 0.13899 0.02294 0.0
H765 H 0.28878 0.1638 0.98307 0.0
H766 H 0.30591 0.05923 0.95569 0.0
H767 H 0.30313 0.08047 0.98466 0.0
C768 C 0.13899 0.86413 0.28302 0.0
C769 C 0.12311 0.86428 0.26959 0.0
C770 C 0.15709 0.87256 0.27778 0.0
C771 C 0.17367 0.91523 0.2569 0.0
H772 H 0.22653 0.89327 0.25977 0.0
C773 C 0.23123 0.96311 0.29096 0.0
C774 C 0.24235 0.95291 0.30523 0.0
C775 C 0.22278 0.95285 0.27502 0.0
C776 C 0.21192 0.89977 0.25909 0.0
H777 H 0.11368 0.87286 0.24003 0.0
H778 H 0.14511 0.88859 0.23136 0.0
H779 H 0.19822 0.87127 0.25532 0.0
H780 H 0.25536 0.92475 0.31311 0.0
H781 H 0.23965 0.90659 0.28671 0.0
H782 H 0.18629 0.94319 0.26328 0.0
C783 C 0.14374 0.88126 0.24555 0.0
C784 C 0.19577 0.88711 0.25622 0.0
C785 C 0.12582 0.87232 0.25057 0.0
C786 C 0.24682 0.93291 0.3022 0.0
C787 C 0.2377 0.92247 0.28682 0.0
C788 C 0.18965 0.9278 0.26051 0.0
C789 C 0.15936 0.8817 0.25926 0.0
C790 C 0.17651 0.89472 0.2561 0.0
C791 C 0.22428 0.93202 0.27388 0.0
C792 C 0.20894 0.9201 0.26303 0.0
H793 H 0.13721 0.85808 0.29776 0.0
H794 H 0.16891 0.87313 0.28869 0.0
H795 H 0.15886 0.92138 0.2568 0.0
H796 H 0.22784 0.97867 0.29293 0.0
H797 H 0.21362 0.96108 0.26474 0.0
C798 C 0.22547 0.89224 0.63456 0.0
C799 C 0.24479 0.89936 0.63133 0.0
C800 C 0.21862 0.87537 0.62457 0.0
C801 C 0.2289 0.84443 0.58103 0.0
H802 H 0.22931 0.7995 0.61662 0.0
C803 C 0.27755 0.78194 0.56137 0.0
C804 C 0.292 0.78187 0.57635 0.0
C805 C 0.25853 0.78909 0.56535 0.0
C806 C 0.22854 0.81174 0.60627 0.0
H807 H 0.27174 0.89489 0.61465 0.0
H808 H 0.25983 0.86576 0.59724 0.0
H809 H 0.21936 0.8319 0.62887 0.0
H810 H 0.29798 0.78719 0.60733 0.0
H811 H 0.2652 0.79975 0.61442 0.0
H812 H 0.24089 0.82516 0.55925 0.0
C813 C 0.24997 0.87314 0.60747 0.0
C814 C 0.2227 0.83029 0.61328 0.0
C815 C 0.25696 0.88955 0.61777 0.0
C816 C 0.28694 0.78726 0.59562 0.0
C817 C 0.26801 0.79418 0.59966 0.0
C818 C 0.23493 0.82595 0.57408 0.0
C819 C 0.23075 0.86591 0.61071 0.0
C820 C 0.22508 0.84704 0.60127 0.0
C821 C 0.25386 0.79618 0.58437 0.0
C822 C 0.23714 0.81009 0.58741 0.0
H823 H 0.2157 0.89973 0.64478 0.0
H824 H 0.20392 0.86978 0.62755 0.0
H825 H 0.23027 0.85716 0.57137 0.0
H826 H 0.28131 0.77771 0.54638 0.0
H827 H 0.24799 0.7904 0.55329 0.0
C828 C 0.47161 0.02886 0.79753 0.0
C829 C 0.48071 0.04185 0.81098 0.0
C830 C 0.45925 0.01379 0.8044 0.0
C831 C 0.43145 1.00129 0.85144 0.0
H832 H 0.3877 0.0148 0.81674 0.0
C833 C 0.35789 0.05038 0.85548 0.0
C834 C 0.34947 0.04432 0.8734 0.0
C835 C 0.37298 0.03934 0.84686 0.0
C836 C 0.39976 0.01093 0.82665 0.0
H837 H 0.48661 0.04785 0.84185 0.0
H838 H 0.46429 0.02284 0.85394 0.0
H839 H 0.4201 0.01039 0.80299 0.0
H840 H 0.35018 0.02167 0.89624 0.0
H841 H 0.37648 0.00232 0.88106 0.0
H842 H 0.41115 0.00423 0.87538 0.0
C843 C 0.46671 0.02341 0.83814 0.0
C844 C 0.4185 0.00796 0.81872 0.0
C845 C 0.4796 0.03797 0.83126 0.0
C846 C 0.35657 0.02695 0.88256 0.0
C847 C 0.37155 0.01575 0.8738 0.0
C848 C 0.41275 0.00474 0.85945 0.0
C849 C 0.45486 0.01244 0.82474 0.0
C850 C 0.43502 0.00521 0.83129 0.0
C851 C 0.37993 0.02182 0.85583 0.0
C852 C 0.39718 0.01134 0.84724 0.0
H853 H 0.47259 0.03148 0.78174 0.0
H854 H 0.45137 0.00487 0.79361 0.0
H855 H 0.44352 0.99785 0.86146 0.0
H856 H 0.35274 0.06362 0.848 0.0
H857 H 0.37948 0.04485 0.83332 0.0
C858 C 0.19751 0.20449 0.9871 0.0
C859 C 0.18994 0.21652 0.00224 0.0
C860 C 0.21368 0.19216 0.99082 0.0
C861 C 0.24208 0.17168 0.03462 0.0
H862 H 0.21242 0.12521 0.01855 0.0
C863 C 0.20688 0.12068 0.09007 0.0
C864 C 0.20295 0.10074 0.08563 0.0
C865 C 0.21625 0.13281 0.07626 0.0
C866 C 0.22138 0.13774 0.02309 0.0
H867 H 0.19514 0.22766 0.03187 0.0
H868 H 0.2222 0.20543 0.03891 0.0
H869 H 0.21324 0.15341 0.99718 0.0
H870 H 0.20634 0.07773 0.06337 0.0
H871 H 0.22263 0.09892 0.03935 0.0
H872 H 0.24831 0.15633 0.06162 0.0
C873 C 0.21624 0.20547 0.02401 0.0
C874 C 0.22199 0.15413 0.01063 0.0
C875 C 0.20044 0.21817 0.0201 0.0
C876 C 0.20876 0.09315 0.06714 0.0
C877 C 0.21828 0.10523 0.05341 0.0
C878 C 0.24126 0.1553 0.04723 0.0
C879 C 0.22183 0.19101 0.01001 0.0
C880 C 0.23049 0.17204 0.01724 0.0
C881 C 0.22205 0.12524 0.05776 0.0
C882 C 0.22939 0.1389 0.04226 0.0
H883 H 0.19004 0.20354 0.97289 0.0
H884 H 0.21822 0.18193 0.97936 0.0
H885 H 0.24971 0.18487 0.03968 0.0
H886 H 0.20277 0.12692 0.10424 0.0
H887 H 0.21843 0.14828 0.07992 0.0
C888 C 0.71615 0.27531 0.93741 0.0
C889 C 0.70735 0.27915 0.95568 0.0
C890 C 0.73388 0.2846 0.93248 0.0
C891 C 0.76407 0.31322 0.91913 0.0
H892 H 0.75071 0.36467 0.94053 0.0
C893 C 0.76054 0.38636 0.87287 0.0
C894 C 0.74215 0.3958 0.8754 0.0
C895 C 0.76609 0.37059 0.88512 0.0
C896 C 0.75476 0.35039 0.93443 0.0
H897 H 0.71144 0.29242 0.98454 0.0
H898 H 0.74335 0.30726 0.97671 0.0
H899 H 0.74678 0.33581 0.96084 0.0
H900 H 0.71505 0.39586 0.89247 0.0
H901 H 0.72475 0.36862 0.91378 0.0
H902 H 0.76996 0.32829 0.89185 0.0
C903 C 0.73609 0.29832 0.96552 0.0
C904 C 0.7528 0.33363 0.94621 0.0
C905 C 0.71791 0.28965 0.97017 0.0
C906 C 0.72922 0.38881 0.88998 0.0
C907 C 0.73495 0.37345 0.90245 0.0
C908 C 0.76569 0.33006 0.90718 0.0
C909 C 0.74315 0.29779 0.9459 0.0
C910 C 0.75523 0.31458 0.93797 0.0
C911 C 0.75363 0.36451 0.90049 0.0
C912 C 0.75924 0.34846 0.91429 0.0
H913 H 0.70821 0.26709 0.92609 0.0
H914 H 0.7387 0.28325 0.91731 0.0
H915 H 0.76752 0.29896 0.91269 0.0
H916 H 0.77083 0.39149 0.86176 0.0
H917 H 0.78032 0.36358 0.88297 0.0
C918 C 0.88841 0.36861 0.2368 0.0
C919 C 0.89622 0.37537 0.2187 0.0
C920 C 0.87039 0.37605 0.2438 0.0
C921 C 0.82517 0.38895 0.24508 0.0
H922 H 0.82219 0.44591 0.2388 0.0
C923 C 0.75933 0.42676 0.21275 0.0
C924 C 0.75944 0.44748 0.21161 0.0
C925 C 0.77254 0.41707 0.22541 0.0
C926 C 0.82254 0.4301 0.24141 0.0
H927 H 0.89058 0.39427 0.19327 0.0
H928 H 0.85944 0.40708 0.20545 0.0
H929 H 0.85376 0.42964 0.23683 0.0
H930 H 0.7705 0.47444 0.22494 0.0
H931 H 0.79227 0.45759 0.2484 0.0
H932 H 0.79375 0.3893 0.24894 0.0
C933 C 0.86738 0.39633 0.21436 0.0
C934 C 0.8408 0.42075 0.23998 0.0
C935 C 0.88517 0.38887 0.20734 0.0
C936 C 0.77039 0.4584 0.2255 0.0
C937 C 0.78305 0.44868 0.23871 0.0
C938 C 0.80677 0.39835 0.2467 0.0
C939 C 0.86011 0.39044 0.23287 0.0
C940 C 0.84206 0.40005 0.24045 0.0
C941 C 0.7858 0.42802 0.23733 0.0
C942 C 0.80504 0.41893 0.24341 0.0
H943 H 0.89657 0.35821 0.24591 0.0
H944 H 0.86492 0.3712 0.25803 0.0
H945 H 0.82589 0.37293 0.24579 0.0
H946 H 0.75099 0.41807 0.20208 0.0
H947 H 0.77389 0.40117 0.22388 0.0
C948 C 0.79579 0.7009 0.43492 0.0
C949 C 0.80399 0.71491 0.44786 0.0
C950 C 0.77917 0.69006 0.44048 0.0
C951 C 0.76907 0.66775 0.48638 0.0
H952 H 0.7441 0.63253 0.44853 0.0
C953 C 0.77573 0.58534 0.45135 0.0
C954 C 0.79618 0.588 0.44872 0.0
C955 C 0.76472 0.59938 0.46187 0.0
C956 C 0.75036 0.64209 0.45984 0.0
H957 H 0.79988 0.73064 0.47548 0.0
H958 H 0.77105 0.71128 0.48553 0.0
H959 H 0.74212 0.66808 0.44368 0.0
H960 H 0.82156 0.60588 0.45658 0.0
H961 H 0.80276 0.62995 0.47537 0.0
H962 H 0.77912 0.6417 0.50137 0.0
C963 C 0.77727 0.70876 0.471 0.0
C964 C 0.74927 0.66257 0.45696 0.0
C965 C 0.79374 0.71991 0.46521 0.0
C966 C 0.80582 0.60352 0.45853 0.0
C967 C 0.79497 0.61722 0.46944 0.0
C968 C 0.77001 0.6473 0.48936 0.0
C969 C 0.77083 0.69264 0.4594 0.0
C970 C 0.76091 0.67531 0.4687 0.0
C971 C 0.77415 0.61602 0.47018 0.0
C972 C 0.76293 0.63438 0.47462 0.0
H973 H 0.80347 0.69683 0.42147 0.0
H974 H 0.77471 0.67785 0.43104 0.0
H975 H 0.77768 0.67712 0.49619 0.0
H976 H 0.768 0.57352 0.44366 0.0
H977 H 0.74875 0.59811 0.46212 0.0
C978 C 0.87843 0.54494 0.39479 0.0
C979 C 0.86802 0.55914 0.38356 0.0
C980 C 0.8933 0.53349 0.38612 0.0
C981 C 0.93244 0.5222 0.36639 0.0
H982 H 0.9282 0.51561 0.30966 0.0
C983 C 0.98847 0.55511 0.32134 0.0
C984 C 0.98412 0.55743 0.30123 0.0
C985 C 0.9793 0.54012 0.33212 0.0
C986 C 0.93004 0.51677 0.32551 0.0
H987 H 0.86551 0.57281 0.3546 0.0
H988 H 0.89162 0.55344 0.33974 0.0
H989 H 0.89885 0.52032 0.32872 0.0
H990 H 0.97051 0.54386 0.27555 0.0
H991 H 0.95611 0.51644 0.29384 0.0
H992 H 0.96355 0.51829 0.36333 0.0
C993 C 0.88793 0.55059 0.35506 0.0
C994 C 0.91292 0.51974 0.33647 0.0
C995 C 0.87317 0.56201 0.36369 0.0
C996 C 0.97349 0.54261 0.29129 0.0
C997 C 0.965 0.52707 0.30193 0.0
C998 C 0.94958 0.51864 0.35545 0.0
C999 C 0.89796 0.53596 0.36604 0.0
C1000 C 0.91425 0.52474 0.35659 0.0
C1001 C 0.96572 0.52707 0.32283 0.0
C1002 C 0.94884 0.51872 0.33456 0.0
H1003 H 0.87471 0.54225 0.41013 0.0
H1004 H 0.90082 0.52243 0.395 0.0
H1005 H 0.93389 0.52506 0.3821 0.0
H1006 H 0.99695 0.56628 0.32923 0.0
H1007 H 0.98115 0.54064 0.348 0.0
C1008 C 0.72188 0.43475 0.78355 0.0
C1009 C 0.71174 0.44622 0.79758 0.0
C1010 C 0.71347 0.43135 0.76483 0.0
C1011 C 0.68095 0.41092 0.74144 0.0
H1012 H 0.63935 0.44542 0.72203 0.0
C1013 C 0.5981 0.40781 0.75177 0.0
C1014 C 0.59244 0.38939 0.74408 0.0
C1015 C 0.61524 0.41704 0.74511 0.0
C1016 C 0.65117 0.43558 0.72663 0.0
H1017 H 0.68625 0.46505 0.80238 0.0
H1018 H 0.6716 0.45908 0.77025 0.0
H1019 H 0.67017 0.45974 0.7344 0.0
H1020 H 0.59938 0.36656 0.72266 0.0
H1021 H 0.63041 0.38216 0.71195 0.0
H1022 H 0.66126 0.3869 0.73537 0.0
C1023 C 0.68595 0.45261 0.77334 0.0
C1024 C 0.66879 0.44375 0.73381 0.0
C1025 C 0.69416 0.45576 0.79199 0.0
C1026 C 0.60367 0.38071 0.72894 0.0
C1027 C 0.62125 0.38965 0.72272 0.0
C1028 C 0.66346 0.40274 0.734 0.0
C1029 C 0.69499 0.43962 0.75984 0.0
C1030 C 0.68284 0.43159 0.7433 0.0
C1031 C 0.62733 0.40775 0.73101 0.0
C1032 C 0.64772 0.41515 0.72848 0.0
H1033 H 0.73561 0.42742 0.78745 0.0
H1034 H 0.72083 0.42135 0.75472 0.0
H1035 H 0.69157 0.40105 0.74832 0.0
H1036 H 0.58941 0.41494 0.76318 0.0
H1037 H 0.61971 0.43084 0.75202 0.0
C1038 C 0.50443 0.66557 0.66265 0.0
C1039 C 0.49305 0.64881 0.66699 0.0
C1040 C 0.50309 0.6744 0.6441 0.0
C1041 C 0.5008 0.65801 0.59522 0.0
H1042 H 0.50975 0.71383 0.58528 0.0
C1043 C 0.55527 0.68563 0.53546 0.0
C1044 C 0.56955 0.69811 0.54422 0.0
C1045 C 0.53768 0.68121 0.54543 0.0
C1046 C 0.50694 0.6982 0.58759 0.0
H1047 H 0.47017 0.62898 0.65621 0.0
H1048 H 0.46861 0.64393 0.62302 0.0
H1049 H 0.49063 0.70372 0.61407 0.0
H1050 H 0.57637 0.71585 0.57026 0.0
H1051 H 0.54617 0.70802 0.58749 0.0
H1052 H 0.51914 0.6524 0.57012 0.0
C1053 C 0.47825 0.65038 0.63416 0.0
C1054 C 0.49586 0.69245 0.60395 0.0
C1055 C 0.47923 0.64182 0.65301 0.0
C1056 C 0.56582 0.7061 0.56305 0.0
C1057 C 0.54829 0.70188 0.57282 0.0
C1058 C 0.51206 0.66376 0.57892 0.0
C1059 C 0.49064 0.66637 0.62941 0.0
C1060 C 0.49398 0.67231 0.60868 0.0
C1061 C 0.53399 0.68948 0.56415 0.0
C1062 C 0.51647 0.68386 0.57592 0.0
H1063 H 0.51491 0.6714 0.67337 0.0
H1064 H 0.51297 0.68659 0.64078 0.0
H1065 H 0.49958 0.64237 0.59857 0.0
H1066 H 0.55763 0.67934 0.52091 0.0
H1067 H 0.52697 0.67141 0.53854 0.0
C1068 C 0.64553 0.26911 0.88277 0.0
C1069 C 0.64142 0.25517 0.89757 0.0
C1070 C 0.64012 0.26541 0.86318 0.0
C1071 C 0.62834 0.25563 0.82172 0.0
H1072 H 0.57216 0.24437 0.82327 0.0
C1073 C 0.57668 0.29753 0.77079 0.0
C1074 C 0.56418 0.30867 0.78306 0.0
C1075 C 0.58586 0.2804 0.77807 0.0
C1076 C 0.58792 0.24711 0.82233 0.0
H1077 H 0.62979 0.2257 0.90319 0.0
H1078 H 0.62018 0.21934 0.86891 0.0
H1079 H 0.59329 0.23343 0.85026 0.0
H1080 H 0.54978 0.30971 0.81162 0.0
H1081 H 0.56559 0.28014 0.82428 0.0
H1082 H 0.62248 0.27156 0.79504 0.0
C1083 C 0.62755 0.23315 0.87249 0.0
C1084 C 0.60012 0.24071 0.83778 0.0
C1085 C 0.63307 0.23683 0.89213 0.0
C1086 C 0.55963 0.30155 0.80198 0.0
C1087 C 0.56848 0.28438 0.8091 0.0
C1088 C 0.61609 0.26224 0.80638 0.0
C1089 C 0.6304 0.24771 0.85791 0.0
C1090 C 0.6201 0.24651 0.83846 0.0
C1091 C 0.58231 0.27403 0.79756 0.0
C1092 C 0.59551 0.25959 0.80755 0.0
H1093 H 0.65214 0.28328 0.88642 0.0
H1094 H 0.64229 0.27715 0.85248 0.0
H1095 H 0.64385 0.25968 0.82152 0.0
H1096 H 0.58029 0.30269 0.75606 0.0
H1097 H 0.59646 0.27272 0.76887 0.0
C1098 C 0.95104 0.30226 0.05922 0.0
C1099 C 0.93477 0.29119 0.06587 0.0
C1100 C 0.96961 0.29999 0.06835 0.0
C1101 C 0.99448 0.2716 0.10972 0.0
H1102 H 1.00053 0.32457 0.13068 0.0
C1103 C 0.96288 0.30186 0.17651 0.0
C1104 C 0.97246 0.31617 0.18805 0.0
C1105 C 0.97327 0.2919 0.16177 0.0
C1106 C 0.99999 0.30964 0.12481 0.0
H1107 H 0.92562 0.26739 0.08534 0.0
H1108 H 0.95721 0.26374 0.10134 0.0
H1109 H 0.99031 0.32022 0.09677 0.0
H1110 H 1.00047 0.33053 0.19444 0.0
H1111 H 0.01831 0.31404 0.16763 0.0
H1112 H 1.00018 0.26134 0.13923 0.0
C1113 C 0.95615 0.27417 0.08921 0.0
C1114 C 0.99411 0.3071 0.10516 0.0
C1115 C 0.93775 0.2766 0.08033 0.0
C1116 C 0.99292 0.31923 0.18585 0.0
C1117 C 0.00316 0.30979 0.17062 0.0
C1118 C 0.99965 0.27418 0.12962 0.0
C1119 C 0.97214 0.28644 0.08404 0.0
C1120 C 0.98897 0.28814 0.09822 0.0
C1121 C 0.99314 0.29675 0.15789 0.0
C1122 C 1.00035 0.29332 0.13765 0.0
H1123 H 0.94918 0.31334 0.04777 0.0
H1124 H 0.98165 0.30958 0.06393 0.0
H1125 H 0.99153 0.25672 0.10444 0.0
H1126 H 0.94709 0.29949 0.17788 0.0
H1127 H 0.96511 0.2822 0.15187 0.0
C1128 C 0.00827 0.66398 0.32769 0.0
C1129 C 0.99981 0.64537 0.33153 0.0
C1130 C 0.00244 0.68062 0.33851 0.0
C1131 C 0.9665 0.70727 0.34663 0.0
H1132 H 0.95421 0.71183 0.4024 0.0
C1133 C 0.90702 0.74594 0.40296 0.0
C1134 C 0.89076 0.73339 0.39929 0.0
C1135 C 0.92484 0.74297 0.39302 0.0
C1136 C 0.95787 0.71109 0.38682 0.0
H1137 H 0.9809 0.62896 0.35143 0.0
H1138 H 0.97133 0.6578 0.37088 0.0
H1139 H 0.9812 0.69013 0.39187 0.0
H1140 H 0.87952 0.70973 0.38076 0.0
H1141 H 0.91028 0.70553 0.36233 0.0
H1142 H 0.94158 0.72629 0.34143 0.0
C1143 C 0.98218 0.65968 0.35927 0.0
C1144 C 0.97327 0.69871 0.38083 0.0
C1145 C 0.98761 0.64315 0.34813 0.0
C1146 C 0.89173 0.71974 0.38365 0.0
C1147 C 0.90935 0.71729 0.37322 0.0
C1148 C 0.95074 0.71921 0.35257 0.0
C1149 C 0.98852 0.6787 0.35372 0.0
C1150 C 0.97714 0.69604 0.36062 0.0
C1151 C 0.92633 0.72804 0.37869 0.0
C1152 C 0.94585 0.72055 0.37265 0.0
H1153 H 0.01761 0.66607 0.31497 0.0
H1154 H 0.00755 0.69514 0.33397 0.0
H1155 H 0.96913 0.70536 0.33098 0.0
H1156 H 0.9068 0.75635 0.41518 0.0
H1157 H 0.93785 0.75117 0.39762 0.0
C1158 C 0.6331 0.52693 0.60753 0.0
C1159 C 0.64646 0.53999 0.61688 0.0
C1160 C 0.61565 0.52126 0.61693 0.0
C1161 C 0.59208 0.52193 0.66661 0.0
H1162 H 0.54307 0.52376 0.63672 0.0
C1163 C 0.51825 0.56532 0.67476 0.0
C1164 C 0.51872 0.56624 0.69541 0.0
C1165 C 0.52859 0.55046 0.66495 0.0
C1166 C 0.55659 0.52316 0.64537 0.0
H1167 H 0.65152 0.55806 0.64298 0.0
H1168 H 0.62077 0.549 0.65891 0.0
H1169 H 0.57433 0.52273 0.61929 0.0
H1170 H 0.5275 0.55125 0.72231 0.0
H1171 H 0.54439 0.52425 0.70528 0.0
H1172 H 0.57494 0.52488 0.69255 0.0
C1173 C 0.62412 0.5424 0.6447 0.0
C1174 C 0.57457 0.52229 0.63531 0.0
C1175 C 0.6416 0.54793 0.6354 0.0
C1176 C 0.52731 0.55081 0.70628 0.0
C1177 C 0.53712 0.53551 0.69646 0.0
C1178 C 0.57421 0.52341 0.67662 0.0
C1179 C 0.61115 0.52867 0.63579 0.0
C1180 C 0.5925 0.52328 0.64589 0.0
C1181 C 0.53939 0.53612 0.67573 0.0
C1182 C 0.55633 0.52585 0.66605 0.0
H1183 H 0.63648 0.5204 0.59329 0.0
H1184 H 0.60596 0.51072 0.60964 0.0
H1185 H 0.60568 0.52159 0.67517 0.0
H1186 H 0.5116 0.57718 0.6662 0.0
H1187 H 0.52974 0.55171 0.64904 0.0
C1188 C 0.85385 0.36026 0.06461 0.0
C1189 C 0.85503 0.34924 0.04709 0.0
C1190 C 0.83719 0.37174 0.06836 0.0
C1191 C 0.80062 0.39638 0.0729 0.0
H1192 H 0.75631 0.35965 0.07191 0.0
C1193 C 0.72866 0.41225 0.11211 0.0
C1194 C 0.737 0.41061 0.13117 0.0
C1195 C 0.7368 0.40158 0.09637 0.0
C1196 C 0.7684 0.37018 0.07188 0.0
H1197 H 0.84086 0.34304 0.01883 0.0
H1198 H 0.81149 0.36298 0.02559 0.0
H1199 H 0.78588 0.3527 0.05207 0.0
H1200 H 0.75716 0.39376 0.14961 0.0
H1201 H 0.77115 0.37505 0.12224 0.0
H1202 H 0.78435 0.4125 0.09446 0.0
C1203 C 0.82346 0.3628 0.03633 0.0
C1204 C 0.78522 0.36637 0.06046 0.0
C1205 C 0.84038 0.35162 0.03239 0.0
C1206 C 0.7507 0.39547 0.13498 0.0
C1207 C 0.75866 0.38471 0.11933 0.0
C1208 C 0.78406 0.4 0.08442 0.0
C1209 C 0.82132 0.37208 0.05478 0.0
C1210 C 0.80179 0.37904 0.06159 0.0
C1211 C 0.75305 0.38912 0.09981 0.0
C1212 C 0.7681 0.38669 0.08441 0.0
H1213 H 0.86489 0.35848 0.07617 0.0
H1214 H 0.83591 0.37866 0.08277 0.0
H1215 H 0.81316 0.40634 0.07406 0.0
H1216 H 0.71805 0.42379 0.1088 0.0
H1217 H 0.73226 0.40513 0.08138 0.0
C1218 C 0.66922 0.67102 0.51884 0.0
C1219 C 0.65661 0.67689 0.50335 0.0
C1220 C 0.68458 0.65772 0.51538 0.0
C1221 C 0.69686 0.61681 0.4823 0.0
H1222 H 0.73803 0.61323 0.52215 0.0
C1223 C 0.73164 0.56166 0.544 0.0
C1224 C 0.71348 0.55192 0.5463 0.0
C1225 C 0.73473 0.57403 0.52773 0.0
C1226 C 0.72711 0.61375 0.5104 0.0
H1227 H 0.65082 0.67394 0.47182 0.0
H1228 H 0.67777 0.65072 0.4659 0.0
H1229 H 0.72427 0.64505 0.51398 0.0
H1230 H 0.68513 0.54557 0.5329 0.0
H1231 H 0.68962 0.568 0.5054 0.0
H1232 H 0.69972 0.58552 0.47867 0.0
C1233 C 0.67561 0.65632 0.4807 0.0
C1234 C 0.71896 0.63219 0.50594 0.0
C1235 C 0.66009 0.66954 0.48417 0.0
C1236 C 0.6992 0.5531 0.53134 0.0
C1237 C 0.702 0.56591 0.5154 0.0
C1238 C 0.70545 0.59842 0.48632 0.0
C1239 C 0.68791 0.65004 0.49629 0.0
C1240 C 0.70217 0.63347 0.49367 0.0
C1241 C 0.7193 0.57762 0.51407 0.0
C1242 C 0.71879 0.59637 0.50229 0.0
H1243 H 0.66708 0.67643 0.53377 0.0
H1244 H 0.6933 0.65287 0.52796 0.0
H1245 H 0.6845 0.6173 0.47205 0.0
H1246 H 0.743 0.56058 0.55535 0.0
H1247 H 0.74859 0.58203 0.52686 0.0
C1248 C 0.0673 0.94099 0.30334 0.0
C1249 C 0.06061 0.92615 0.3162 0.0
C1250 C 0.06032 0.9604 0.30523 0.0
C1251 C 0.0131 0.98079 0.31621 0.0
H1252 H 0.03712 0.03135 0.30374 0.0
C1253 C 0.99035 0.06537 0.29139 0.0
C1254 C 0.98358 0.0618 0.27196 0.0
C1255 C 0.99778 0.04985 0.30293 0.0
C1256 C 0.03024 0.01741 0.30763 0.0
H1257 H 0.04304 0.92011 0.34215 0.0
H1258 H 0.03089 0.95403 0.34555 0.0
H1259 H 0.05812 0.00356 0.31412 0.0
H1260 H 0.9771 0.03896 0.25033 0.0
H1261 H 0.98898 0.01168 0.271 0.0
H1262 H 0.98543 0.99422 0.30814 0.0
C1263 C 0.04157 0.95076 0.33411 0.0
C1264 C 0.04223 1.00154 0.31346 0.0
C1265 C 0.04875 0.93143 0.33235 0.0
C1266 C 0.98208 0.04213 0.26528 0.0
C1267 C 0.98899 0.02655 0.27705 0.0
C1268 C 0.00119 0.99654 0.31 0.0
C1269 C 0.04631 0.96507 0.31982 0.0
C1270 C 0.03379 0.98296 0.31743 0.0
C1271 C 0.99787 0.03045 0.29549 0.0
C1272 C 0.00971 0.01486 0.30531 0.0
H1273 H 0.07602 0.93713 0.29049 0.0
H1274 H 0.06414 0.97111 0.29394 0.0
H1275 H 0.00622 0.96654 0.31882 0.0
H1276 H 0.99189 0.08036 0.29692 0.0
H1277 H 0.00456 0.05315 0.31713 0.0
C1278 C 0.33234 0.76356 0.48139 0.0
C1279 C 0.32773 0.74986 0.49636 0.0
C1280 C 0.31793 0.76931 0.46759 0.0
C1281 C 0.279 0.79043 0.4573 0.0
H1282 H 0.23937 0.75556 0.43448 0.0
C1283 C 0.19624 0.80686 0.45418 0.0
C1284 C 0.18484 0.79959 0.4384 0.0
C1285 C 0.21667 0.80392 0.45459 0.0
C1286 C 0.25049 0.76557 0.44033 0.0
H1287 H 0.30511 0.73015 0.50756 0.0
H1288 H 0.2802 0.73968 0.48314 0.0
H1289 H 0.27045 0.74175 0.44676 0.0
H1290 H 0.18551 0.78388 0.41051 0.0
H1291 H 0.22144 0.77864 0.41112 0.0
H1292 H 0.25846 0.81409 0.45204 0.0
C1293 C 0.29484 0.74613 0.48214 0.0
C1294 C 0.26821 0.75762 0.44749 0.0
C1295 C 0.30909 0.74068 0.49615 0.0
C1296 C 0.19419 0.79007 0.42255 0.0
C1297 C 0.21465 0.78695 0.423 0.0
C1298 C 0.26117 0.79836 0.45033 0.0
C1299 C 0.29884 0.76112 0.46828 0.0
C1300 C 0.28233 0.76987 0.45669 0.0
C1301 C 0.22598 0.79322 0.43938 0.0
C1302 C 0.24645 0.7859 0.44243 0.0
H1303 H 0.34652 0.77105 0.48131 0.0
H1304 H 0.3214 0.78084 0.45702 0.0
H1305 H 0.28956 0.80021 0.46446 0.0
H1306 H 0.18918 0.81366 0.46681 0.0
H1307 H 0.22491 0.80866 0.46756 0.0
C1308 C 0.46863 0.93876 0.67883 0.0
C1309 C 0.45787 0.93191 0.69511 0.0
C1310 C 0.46917 0.95897 0.67444 0.0
C1311 C 0.45265 0.00873 0.69384 0.0
H1312 H 0.50852 0.02045 0.68827 0.0
C1313 C 0.49525 0.0591 0.74463 0.0
C1314 C 0.51045 0.07149 0.73775 0.0
C1315 C 0.48468 0.04712 0.73162 0.0
C1316 C 0.49277 0.01767 0.68929 0.0
H1317 H 0.43809 0.94016 0.71872 0.0
H1318 H 0.43967 0.9754 0.7119 0.0
H1319 H 0.49606 0.98842 0.67814 0.0
H1320 H 0.52595 0.08174 0.71176 0.0
H1321 H 0.508 0.05955 0.68877 0.0
H1322 H 0.45017 0.03723 0.70746 0.0
C1323 C 0.44719 0.96545 0.70187 0.0
C1324 C 0.48549 0.9992 0.68342 0.0
C1325 C 0.44626 0.94518 0.70591 0.0
C1326 C 0.51445 0.07213 0.71739 0.0
C1327 C 0.50414 0.0596 0.70431 0.0
C1328 C 0.46005 0.02702 0.70013 0.0
C1329 C 0.4596 0.97273 0.68679 0.0
C1330 C 0.46556 0.99403 0.68677 0.0
C1331 C 0.48927 0.04688 0.7114 0.0
C1332 C 0.48037 0.0312 0.69888 0.0
H1333 H 0.47773 0.92866 0.67036 0.0
H1334 H 0.47836 0.9639 0.66232 0.0
H1335 H 0.43711 0.00559 0.69604 0.0
H1336 H 0.49149 0.05864 0.76018 0.0
H1337 H 0.47352 0.03731 0.73759 0.0
C1338 C 0.32314 0.29421 0.99812 0.0
C1339 C 0.32914 0.27679 0.98842 0.0
C1340 C 0.30511 0.30315 0.99335 0.0
C1341 C 0.26042 0.3071 0.99136 0.0
H1342 H 0.23915 0.30968 0.93797 0.0
C1343 C 0.18169 0.29284 0.95476 0.0
C1344 C 0.17054 0.29992 0.97068 0.0
C1345 C 0.20151 0.29838 0.95289 0.0
C1346 C 0.24486 0.30914 0.95297 0.0
H1347 H 0.32109 0.25546 0.96566 0.0
H1348 H 0.28954 0.27097 0.95755 0.0
H1349 H 0.27412 0.30189 0.94317 0.0
H1350 H 0.16999 0.32039 0.99531 0.0
H1351 H 0.20414 0.33126 0.99123 0.0
H1352 H 0.23126 0.31275 0.00145 0.0
C1353 C 0.29892 0.27781 0.96868 0.0
C1354 C 0.26488 0.30469 0.95592 0.0
C1355 C 0.31689 0.26879 0.97352 0.0
C1356 C 0.17846 0.3147 0.98297 0.0
C1357 C 0.19808 0.32068 0.98077 0.0
C1358 C 0.24044 0.3113 0.98845 0.0
C1359 C 0.29275 0.29495 0.9787 0.0
C1360 C 0.27266 0.30299 0.97519 0.0
C1361 C 0.21029 0.31134 0.96676 0.0
C1362 C 0.2322 0.31168 0.96925 0.0
H1363 H 0.33226 0.30086 0.00957 0.0
H1364 H 0.30073 0.31639 1.00126 0.0
H1365 H 0.26594 0.30571 0.00639 0.0
H1366 H 0.17588 0.28127 0.94523 0.0
H1367 H 0.21033 0.29084 0.94189 0.0
C1368 C 0.25463 0.97901 0.92036 0.0
C1369 C 0.24661 0.99524 0.91005 0.0
C1370 C 0.24748 0.97391 0.93899 0.0
C1371 C 0.21057 0.98404 0.97773 0.0
H1372 H 0.25685 0.99379 0.01059 0.0
C1373 C 0.2043 0.01665 0.0557 0.0
C1374 C 0.21905 0.01307 0.07 0.0
C1375 C 0.20598 0.00905 0.03661 0.0
C1376 C 0.24376 0.99047 0.00188 0.0
H1377 H 0.22305 0.01697 0.90975 0.0
H1378 H 0.21041 0.00794 0.94235 0.0
H1379 H 0.26078 0.98802 0.97547 0.0
H1380 H 0.2468 0.99807 0.07574 0.0
H1381 H 0.24944 0.98401 0.0425 0.0
H1382 H 0.19349 0.98659 0.00415 0.0
C1383 C 0.22229 0.99924 0.93607 0.0
C1384 C 0.24604 0.9872 0.98164 0.0
C1385 C 0.22948 0.00438 0.91735 0.0
C1386 C 0.23531 1.00122 0.06495 0.0
C1387 C 0.23681 0.99324 0.04586 0.0
C1388 C 0.20829 0.98691 0.99812 0.0
C1389 C 0.23215 0.9849 0.94755 0.0
C1390 C 0.22946 0.98453 0.96928 0.0
C1391 C 0.22231 0.99732 0.03132 0.0
C1392 C 0.22482 0.99088 0.01036 0.0
H1393 H 0.26773 0.97157 0.91494 0.0
H1394 H 0.25512 0.96258 0.94744 0.0
H1395 H 0.19757 0.98194 0.96851 0.0
H1396 H 0.19167 0.02591 0.05906 0.0
H1397 H 0.19475 0.01303 0.02584 0.0
C1398 C 0.25957 0.04265 0.19982 0.0
C1399 C 0.25515 0.06009 0.18941 0.0
C1400 C 0.2676 0.0436 0.21888 0.0
C1401 C 0.2702 0.07677 0.26204 0.0
H1402 H 0.30353 0.03444 0.28174 0.0
C1403 C 0.26406 0.0452 0.33935 0.0
C1404 C 0.27899 0.03254 0.34626 0.0
C1405 C 0.26685 0.05599 0.32195 0.0
C1406 C 0.29469 0.0468 0.27661 0.0
H1407 H 0.25659 0.09223 0.19048 0.0
H1408 H 0.27093 0.09381 0.2236 0.0
H1409 H 0.29822 0.03781 0.24652 0.0
H1410 H 0.30939 0.02338 0.34255 0.0
H1411 H 0.31485 0.04331 0.31299 0.0
H1412 H 0.26659 0.08568 0.29221 0.0
C1413 C 0.26779 0.07943 0.2172 0.0
C1414 C 0.29134 0.04846 0.25631 0.0
C1415 C 0.25961 0.07849 0.19819 0.0
C1416 C 0.29765 0.03302 0.33734 0.0
C1417 C 0.30064 0.04422 0.32026 0.0
C1418 C 0.27376 0.07527 0.28239 0.0
C1419 C 0.27159 0.062 0.2279 0.0
C1420 C 0.2783 0.06284 0.24886 0.0
C1421 C 0.28475 0.05447 0.31144 0.0
C1422 C 0.28528 0.05966 0.29002 0.0
H1423 H 0.25624 0.02826 0.19352 0.0
H1424 H 0.26998 0.02986 0.22681 0.0
H1425 H 0.26011 0.08809 0.25682 0.0
H1426 H 0.24948 0.04489 0.34593 0.0
H1427 H 0.25422 0.06368 0.31573 0.0
C1428 C 0.2128 0.97147 0.44622 0.0
C1429 C 0.21355 0.95832 0.43012 0.0
C1430 C 0.21625 0.96472 0.4654 0.0
C1431 C 0.24508 0.92544 0.48932 0.0
H1432 H 0.23139 0.95668 0.53537 0.0
C1433 C 0.27974 0.92889 0.571 0.0
C1434 C 0.28599 0.94847 0.57483 0.0
C1435 C 0.27025 0.92418 0.5531 0.0
C1436 C 0.23517 0.94762 0.52269 0.0
H1437 H 0.21606 0.92731 0.42187 0.0
H1438 H 0.22127 0.91555 0.45562 0.0
H1439 H 0.2105 0.95821 0.50596 0.0
H1440 H 0.28956 0.97767 0.56188 0.0
H1441 H 0.27283 0.96945 0.53097 0.0
H1442 H 0.27 0.91513 0.5064 0.0
C1443 C 0.21881 0.93115 0.45322 0.0
C1444 C 0.22329 0.94856 0.50582 0.0
C1445 C 0.21555 0.93792 0.43391 0.0
C1446 C 0.28468 0.96255 0.55956 0.0
C1447 C 0.27507 0.95789 0.54188 0.0
C1448 C 0.25683 0.92426 0.50643 0.0
C1449 C 0.22027 0.94459 0.46904 0.0
C1450 C 0.22886 0.93857 0.48847 0.0
C1451 C 0.26687 0.93903 0.539 0.0
C1452 C 0.25251 0.93623 0.52277 0.0
H1453 H 0.21112 0.98726 0.4439 0.0
H1454 H 0.21735 0.97566 0.47708 0.0
H1455 H 0.2497 0.91727 0.47635 0.0
H1456 H 0.28056 0.91766 0.58242 0.0
H1457 H 0.2641 0.9095 0.55104 0.0
C1458 C 0.29309 0.05443 0.79398 0.0
C1459 C 0.28667 0.06858 0.80772 0.0
C1460 C 0.29102 0.05788 0.77374 0.0
C1461 C 0.25568 0.08022 0.74132 0.0
H1462 H 0.29042 0.05859 0.7013 0.0
C1463 C 0.25598 0.04097 0.65876 0.0
C1464 C 0.24209 0.02616 0.66332 0.0
C1465 C 0.26074 0.05557 0.67272 0.0
C1466 C 0.28062 0.06524 0.71206 0.0
H1467 H 0.27408 0.09785 0.81129 0.0
H1468 H 0.26988 0.10371 0.77561 0.0
H1469 H 0.30375 0.06714 0.73378 0.0
H1470 H 0.22063 0.01637 0.68488 0.0
H1471 H 0.2286 0.04192 0.70901 0.0
H1472 H 0.23224 0.07687 0.72007 0.0
C1473 C 0.2768 0.0901 0.78056 0.0
C1474 C 0.28826 0.06999 0.73072 0.0
C1475 C 0.27928 0.0868 0.80091 0.0
C1476 C 0.23142 0.02758 0.68102 0.0
C1477 C 0.23595 0.04231 0.69482 0.0
C1478 C 0.24799 0.07535 0.72268 0.0
C1479 C 0.28211 0.0754 0.76683 0.0
C1480 C 0.27566 0.07649 0.74585 0.0
C1481 C 0.25145 0.05575 0.69129 0.0
C1482 C 0.26019 0.06678 0.70823 0.0
H1483 H 0.29881 0.04027 0.79893 0.0
H1484 H 0.29502 0.04616 0.76356 0.0
H1485 H 0.24559 0.08516 0.75271 0.0
H1486 H 0.26453 0.04017 0.64527 0.0
H1487 H 0.27264 0.06582 0.66956 0.0
C1488 C 0.91079 0.22329 0.9957 0.0
C1489 C 0.90839 0.24345 0.99116 0.0
C1490 C 0.92651 0.2126 0.98756 0.0
C1491 C 0.97103 0.20568 0.98541 0.0
H1492 H 0.99434 0.21698 0.93432 0.0
C1493 C 0.04881 0.23498 0.95723 0.0
C1494 C 0.06206 0.22278 0.96769 0.0
C1495 C 0.02894 0.22972 0.95537 0.0
C1496 C 0.98799 0.21346 0.94858 0.0
H1497 H 0.91903 0.26773 0.97318 0.0
H1498 H 0.94618 0.2492 0.95887 0.0
H1499 H 0.95873 0.22092 0.93881 0.0
H1500 H 0.06495 0.19492 0.98354 0.0
H1501 H 0.03012 0.18587 0.98039 0.0
H1502 H 1.00037 0.19981 0.99567 0.0
C1503 C 0.93614 0.24153 0.96868 0.0
C1504 C 0.96762 0.21562 0.95111 0.0
C1505 C 0.92071 0.25224 0.97704 0.0
C1506 C 0.05512 0.20476 0.97552 0.0
C1507 C 0.03518 0.19953 0.97371 0.0
C1508 C 0.99139 0.20356 0.98288 0.0
C1509 C 0.93975 0.22188 0.97451 0.0
C1510 C 0.95916 0.21294 0.96988 0.0
C1511 C 0.02181 0.21215 0.96393 0.0
C1512 C 1.00019 0.2086 0.96478 0.0
H1513 H 0.90144 0.21621 0.00659 0.0
H1514 H 0.92898 0.19746 0.99227 0.0
H1515 H 0.96497 0.2036 1.00007 0.0
H1516 H 0.05364 0.24888 0.95088 0.0
H1517 H 0.01898 0.23996 0.94804 0.0
C1518 C 0.45638 0.25759 1.00103 0.0
C1519 C 0.44509 0.26715 0.01564 0.0
C1520 C 0.46881 0.26837 0.98866 0.0
C1521 C 0.49916 0.31221 0.98775 0.0
H1522 H 0.50502 0.29841 0.93234 0.0
C1523 C 0.57208 0.32841 0.95269 0.0
C1524 C 0.58001 0.31115 0.94436 0.0
C1525 C 0.55158 0.33056 0.9545 0.0
C1526 C 0.50357 0.30256 0.94775 0.0
H1527 H 0.43812 0.29568 0.02862 0.0
H1528 H 0.46066 0.31452 0.00739 0.0
H1529 H 0.47634 0.28652 0.9507 0.0
H1530 H 0.57306 0.28382 0.9292 0.0
H1531 H 0.53756 0.2871 0.93271 0.0
H1532 H 0.52703 0.32665 0.98563 0.0
C1533 C 0.45954 0.29862 0.00546 0.0
C1534 C 0.48709 0.29579 0.95823 0.0
C1535 C 0.44678 0.28783 0.0177 0.0
C1536 C 0.56723 0.2974 0.93544 0.0
C1537 C 0.54676 0.29931 0.9376 0.0
C1538 C 0.51575 0.31872 0.97739 0.0
C1539 C 0.47056 0.28899 0.99072 0.0
C1540 C 0.4852 0.29983 0.97855 0.0
C1541 C 0.53878 0.31515 0.94857 0.0
C1542 C 0.51869 0.31319 0.95748 0.0
H1543 H 0.45535 0.24173 0.99882 0.0
H1544 H 0.47739 0.26046 0.97771 0.0
H1545 H 0.49814 0.3155 0.00342 0.0
H1546 H 0.5817 0.33913 0.95984 0.0
H1547 H 0.54596 0.34333 0.96238 0.0
C1548 C 0.04142 0.19011 0.2368 0.0
C1549 C 0.03236 0.1793 0.25205 0.0
C1550 C 0.04312 0.21075 0.23811 0.0
C1551 C 0.05131 0.25434 0.24777 0.0
H1552 H 0.00467 0.28028 0.26851 0.0
C1553 C 0.01389 0.33605 0.26498 0.0
C1554 C 0.01589 0.3448 0.24625 0.0
C1555 C 0.02145 0.31717 0.26858 0.0
C1556 C 0.01804 0.27335 0.26309 0.0
H1557 H 0.01914 0.18149 0.28116 0.0
H1558 H 0.02256 0.2172 0.28368 0.0
H1559 H 0.00653 0.24454 0.2687 0.0
H1560 H 0.02933 0.34168 0.21734 0.0
H1561 H 0.04214 0.30847 0.22347 0.0
H1562 H 0.06232 0.28349 0.24141 0.0
C1563 C 0.02778 0.20992 0.2704 0.0
C1564 C 0.01909 0.25277 0.26316 0.0
C1565 C 0.02585 0.18941 0.26898 0.0
C1566 C 0.02755 0.33529 0.23194 0.0
C1567 C 0.0349 0.31623 0.23545 0.0
C1568 C 0.0502 0.27507 0.2476 0.0
C1569 C 0.03597 0.22092 0.25479 0.0
C1570 C 0.03567 0.24295 0.25544 0.0
C1571 C 0.0309 0.30656 0.25342 0.0
C1572 C 0.03348 0.28478 0.2552 0.0
H1573 H 0.0466 0.18271 0.22357 0.0
H1574 H 0.04935 0.21876 0.22574 0.0
H1575 H 0.06436 0.24724 0.24185 0.0
H1576 H 0.00517 0.34316 0.27637 0.0
H1577 H 0.01862 0.3103 0.28278 0.0
C1578 C 0.08047 0.72977 0.48246 0.0
C1579 C 0.07645 0.74891 0.48968 0.0
C1580 C 0.06536 0.71569 0.48094 0.0
C1581 C 0.02642 0.69936 0.46354 0.0
H1582 H 0.98575 0.69347 0.50328 0.0
C1583 C 0.94384 0.69272 0.44733 0.0
C1584 C 0.93162 0.68493 0.46209 0.0
C1585 C 0.96441 0.69183 0.44952 0.0
C1586 C 0.99712 0.6944 0.49209 0.0
H1587 H 0.05386 0.76785 0.5022 0.0
H1588 H 0.02764 0.74315 0.5 0.0
H1589 H 0.01686 0.70922 0.51207 0.0
H1590 H 0.93078 0.66794 0.4892 0.0
H1591 H 0.96665 0.66548 0.49258 0.0
H1592 H 0.0062 0.68544 0.44326 0.0
C1593 C 0.04242 0.73907 0.49541 0.0
C1594 C 0.01488 0.70366 0.49714 0.0
C1595 C 0.0574 0.75323 0.49663 0.0
C1596 C 0.94003 0.674 0.47764 0.0
C1597 C 0.96054 0.6728 0.47965 0.0
C1598 C 0.00855 0.69015 0.45843 0.0
C1599 C 0.04611 0.7204 0.48697 0.0
C1600 C 0.02937 0.70689 0.48275 0.0
C1601 C 0.9729 0.68302 0.46646 0.0
C1602 C 0.99342 0.68823 0.47249 0.0
H1603 H 0.09496 0.72605 0.47679 0.0
H1604 H 0.06857 0.70138 0.47445 0.0
H1605 H 0.03735 0.70177 0.45213 0.0
H1606 H 0.93758 0.70146 0.43538 0.0
H1607 H 0.97345 0.69989 0.43907 0.0
C1608 C 0.54342 0.75479 0.49318 0.0
C1609 C 0.5615 0.76481 0.49106 0.0
C1610 C 0.52762 0.76377 0.50287 0.0
C1611 C 0.5082 0.81108 0.52306 0.0
H1612 H 0.47935 0.77452 0.55643 0.0
C1613 C 0.43246 0.80135 0.57347 0.0
C1614 C 0.41979 0.81049 0.55974 0.0
C1615 C 0.45295 0.8014 0.57032 0.0
C1616 C 0.48746 0.78517 0.54768 0.0
H1617 H 0.57656 0.7928 0.49588 0.0
H1618 H 0.54895 0.80845 0.51299 0.0
H1619 H 0.50799 0.76303 0.53855 0.0
H1620 H 0.41846 0.82912 0.53372 0.0
H1621 H 0.45374 0.82914 0.52808 0.0
H1622 H 0.48769 0.8333 0.53245 0.0
C1623 C 0.54699 0.79363 0.50716 0.0
C1624 C 0.5037 0.77841 0.53698 0.0
C1625 C 0.5628 0.78468 0.49723 0.0
C1626 C 0.42799 0.82194 0.5445 0.0
C1627 C 0.44833 0.82193 0.54129 0.0
C1628 C 0.49202 0.81794 0.53398 0.0
C1629 C 0.52955 0.78292 0.5109 0.0
C1630 C 0.51375 0.79103 0.52388 0.0
C1631 C 0.46095 0.81047 0.55331 0.0
C1632 C 0.48092 0.80487 0.54581 0.0
H1633 H 0.54184 0.73955 0.48838 0.0
H1634 H 0.51411 0.75535 0.50475 0.0
H1635 H 0.51575 0.82129 0.51332 0.0
H1636 H 0.42648 0.79234 0.58529 0.0
H1637 H 0.46229 0.79293 0.58025 0.0
C1638 C 0.97963 0.83282 0.26325 0.0
C1639 C 0.99682 0.83066 0.25178 0.0
C1640 C 0.9658 0.81744 0.26434 0.0
C1641 C 0.95382 0.77627 0.27823 0.0
H1642 H 0.94454 0.73841 0.23607 0.0
C1643 C 0.95817 0.69282 0.28919 0.0
C1644 C 0.94957 0.68024 0.27507 0.0
C1645 C 0.95517 0.71328 0.28801 0.0
C1646 C 0.94642 0.74888 0.24809 0.0
H1647 H 0.01181 0.8117 0.23075 0.0
H1648 H 0.98779 0.78505 0.23254 0.0
H1649 H 0.95472 0.77183 0.22796 0.0
H1650 H 0.92953 0.6785 0.25006 0.0
H1651 H 0.92331 0.71408 0.24862 0.0
H1652 H 0.94609 0.75311 0.29841 0.0
C1653 C 0.98493 0.7985 0.24079 0.0
C1654 C 0.95251 0.76805 0.24337 0.0
C1655 C 0.99879 0.81377 0.23981 0.0
C1656 C 0.9363 0.68804 0.26109 0.0
C1657 C 0.93293 0.70842 0.26016 0.0
C1658 C 0.94758 0.7571 0.28296 0.0
C1659 C 0.9688 0.79975 0.2538 0.0
C1660 C 0.95725 0.78163 0.25841 0.0
C1661 C 0.94331 0.7214 0.2728 0.0
C1662 C 0.94476 0.74288 0.26798 0.0
H1663 H 0.97765 0.84565 0.27268 0.0
H1664 H 0.95338 0.81893 0.27429 0.0
H1665 H 0.95738 0.78636 0.2902 0.0
H1666 H 0.96876 0.68706 0.29983 0.0
H1667 H 0.96359 0.72275 0.29789 0.0
C1668 C 0.4469 0.173 0.76097 0.0
C1669 C 0.45508 0.16644 0.77896 0.0
C1670 C 0.44264 0.19296 0.75808 0.0
C1671 C 0.45861 0.23394 0.75138 0.0
H1672 H 0.43495 0.27381 0.78504 0.0
C1673 C 0.4715 0.32097 0.7694 0.0
C1674 C 0.478 0.32666 0.75058 0.0
C1675 C 0.46218 0.30269 0.7721 0.0
C1676 C 0.44174 0.26289 0.77551 0.0
H1677 H 0.46355 0.17515 0.80867 0.0
H1678 H 0.45623 0.21045 0.80354 0.0
H1679 H 0.43053 0.23864 0.79283 0.0
H1680 H 0.47854 0.3189 0.71956 0.0
H1681 H 0.46077 0.28771 0.72383 0.0
H1682 H 0.47113 0.25754 0.7349 0.0
C1683 C 0.45296 0.20003 0.79177 0.0
C1684 C 0.43909 0.24276 0.77996 0.0
C1685 C 0.45713 0.17987 0.79472 0.0
C1686 C 0.47352 0.31476 0.73419 0.0
C1687 C 0.46364 0.29676 0.73677 0.0
C1688 C 0.46156 0.2539 0.74716 0.0
C1689 C 0.44665 0.20682 0.77307 0.0
C1690 C 0.44765 0.22814 0.76798 0.0
C1691 C 0.45892 0.28991 0.75591 0.0
C1692 C 0.45338 0.26874 0.75924 0.0
H1693 H 0.44501 0.16286 0.74866 0.0
H1694 H 0.43753 0.19778 0.74363 0.0
H1695 H 0.46573 0.223 0.7421 0.0
H1696 H 0.47516 0.32986 0.78229 0.0
H1697 H 0.459 0.29806 0.78708 0.0
C1698 C 0.53931 0.4492 0.79519 0.0
C1699 C 0.52841 0.43379 0.8037 0.0
C1700 C 0.53524 0.46887 0.80032 0.0
C1701 C 0.49192 0.49692 0.81664 0.0
H1702 H 0.52708 0.54149 0.80852 0.0
C1703 C 0.49127 0.58599 0.79617 0.0
C1704 C 0.47892 0.58439 0.77942 0.0
C1705 C 0.49602 0.56914 0.80728 0.0
C1706 C 0.51707 0.52928 0.81135 0.0
H1707 H 0.50628 0.42625 0.82543 0.0
H1708 H 0.49981 0.46043 0.83516 0.0
H1709 H 0.54094 0.50856 0.81388 0.0
H1710 H 0.46032 0.56457 0.7623 0.0
H1711 H 0.46818 0.53537 0.78179 0.0
H1712 H 0.46807 0.51749 0.81341 0.0
C1713 C 0.51097 0.4576 0.82407 0.0
C1714 C 0.52502 0.51036 0.81415 0.0
C1715 C 0.51475 0.43804 0.81864 0.0
C1716 C 0.46984 0.56618 0.77516 0.0
C1717 C 0.47434 0.54947 0.7864 0.0
C1718 C 0.48401 0.51579 0.81393 0.0
C1719 C 0.52036 0.47331 0.8142 0.0
C1720 C 0.5125 0.49382 0.81591 0.0
C1721 C 0.4882 0.55057 0.80198 0.0
C1722 C 0.49646 0.532 0.81029 0.0
H1723 H 0.54978 0.44616 0.78348 0.0
H1724 H 0.54266 0.48054 0.79227 0.0
H1725 H 0.48173 0.48459 0.8178 0.0
H1726 H 0.49862 0.59983 0.79966 0.0
H1727 H 0.50664 0.57043 0.81928 0.0
C1728 C 0.79469 0.25553 0.06625 0.0
C1729 C 0.80463 0.27372 0.06797 0.0
C1730 C 0.77472 0.254 0.07079 0.0
C1731 C 0.73033 0.2838 0.06896 0.0
H1732 H 0.70716 0.23341 0.08385 0.0
C1733 C 0.65386 0.26356 0.04079 0.0
C1734 C 0.65638 0.24765 0.02759 0.0
C1735 C 0.66791 0.26716 0.05566 0.0
C1736 C 0.71329 0.24773 0.08006 0.0
H1737 H 0.80167 0.30444 0.07681 0.0
H1738 H 0.76628 0.30185 0.08456 0.0
H1739 H 0.74156 0.24056 0.09252 0.0
H1740 H 0.67399 0.22175 0.02097 0.0
H1741 H 0.69808 0.22756 0.04729 0.0
H1742 H 0.70243 0.29048 0.05547 0.0
C1743 C 0.77412 0.28875 0.07969 0.0
C1744 C 0.733 0.25181 0.08491 0.0
C1745 C 0.79434 0.29024 0.07529 0.0
C1746 C 0.67171 0.23407 0.031 0.0
C1747 C 0.68547 0.23741 0.04611 0.0
C1748 C 0.71055 0.27981 0.06431 0.0
C1749 C 0.76402 0.27066 0.07712 0.0
C1750 C 0.7421 0.26932 0.0782 0.0
C1751 C 0.68436 0.25462 0.0578 0.0
C1752 C 0.70225 0.26124 0.06873 0.0
H1753 H 0.80226 0.24245 0.06088 0.0
H1754 H 0.76744 0.23992 0.06825 0.0
H1755 H 0.73683 0.29742 0.06354 0.0
H1756 H 0.64228 0.27439 0.03834 0.0
H1757 H 0.66672 0.2805 0.06449 0.0
C1758 C 0.96844 0.44605 0.15927 0.0
C1759 C 0.95808 0.44007 0.17618 0.0
C1760 C 0.9721 0.46617 0.15592 0.0
C1761 C 0.96224 0.51721 0.17441 0.0
H1762 H 0.01947 0.52176 0.17535 0.0
C1763 C 0.01965 0.56552 0.22014 0.0
C1764 C 0.01191 0.58465 0.21758 0.0
C1765 C 0.0143 0.55027 0.20719 0.0
C1766 C 0.00348 0.52082 0.17475 0.0
H1767 H 0.94203 0.45003 0.20191 0.0
H1768 H 0.94785 0.48512 0.19586 0.0
H1769 H 0.00412 0.49048 0.16575 0.0
H1770 H 0.99357 0.6031 0.19859 0.0
H1771 H 0.98403 0.57632 0.17619 0.0
H1772 H 0.96168 0.54718 0.18476 0.0
C1773 C 0.9531 0.47449 0.18508 0.0
C1774 C 0.99465 0.50297 0.16908 0.0
C1775 C 0.9497 0.45441 0.18856 0.0
C1776 C 0.9999 0.58854 0.20093 0.0
C1777 C 0.9943 0.5732 0.18816 0.0
C1778 C 0.97107 0.53514 0.1799 0.0
C1779 C 0.96532 0.4805 0.1694 0.0
C1780 C 0.97397 0.5007 0.16975 0.0
C1781 C 1.0009 0.55379 0.19158 0.0
C1782 C 0.99179 0.5368 0.18101 0.0
H1783 H 0.97536 0.43514 0.14979 0.0
H1784 H 0.98149 0.47041 0.14369 0.0
H1785 H 0.94628 0.5159 0.17499 0.0
H1786 H 0.02892 0.56206 0.23282 0.0
H1787 H 0.0195 0.53541 0.21031 0.0
C1788 C 0.69092 0.76093 0.54728 0.0
C1789 C 0.68351 0.7621 0.52786 0.0
C1790 C 0.71014 0.76724 0.55164 0.0
C1791 C 0.75404 0.79238 0.52869 0.0
H1792 H 0.78316 0.75887 0.56508 0.0
C1793 C 0.83147 0.75052 0.52851 0.0
C1794 C 0.84119 0.7639 0.5161 0.0
C1795 C 0.81432 0.75626 0.53832 0.0
C1796 C 0.77534 0.76833 0.55474 0.0
H1797 H 0.69006 0.77082 0.4978 0.0
H1798 H 0.72395 0.78045 0.50491 0.0
H1799 H 0.74751 0.75682 0.56387 0.0
H1800 H 0.84274 0.79434 0.50634 0.0
H1801 H 0.81388 0.80504 0.52498 0.0
H1802 H 0.78171 0.80208 0.51773 0.0
C1803 C 0.71485 0.77564 0.51713 0.0
C1804 C 0.7547 0.76743 0.5543 0.0
C1805 C 0.69547 0.76987 0.51291 0.0
C1806 C 0.83522 0.78376 0.51571 0.0
C1807 C 0.81849 0.78974 0.52617 0.0
C1808 C 0.77466 0.79276 0.52862 0.0
C1809 C 0.72254 0.77433 0.53655 0.0
C1810 C 0.74384 0.77864 0.54045 0.0
C1811 C 0.80686 0.77569 0.53627 0.0
C1812 C 0.78565 0.77985 0.54083 0.0
H1813 H 0.68178 0.75528 0.55914 0.0
H1814 H 0.71528 0.76636 0.56682 0.0
H1815 H 0.7462 0.802 0.51852 0.0
H1816 H 0.83583 0.73507 0.52889 0.0
H1817 H 0.80604 0.74481 0.5458 0.0
C1818 C 0.72181 0.45363 0.56035 0.0
C1819 C 0.73403 0.46658 0.57121 0.0
C1820 C 0.72756 0.44696 0.54169 0.0
C1821 C 0.7679 0.45157 0.50394 0.0
H1822 H 0.72376 0.46472 0.46945 0.0
C1823 C 0.75541 0.50219 0.43218 0.0
C1824 C 0.77338 0.49832 0.42275 0.0
C1825 C 0.74878 0.48961 0.44719 0.0
C1826 C 0.73626 0.46094 0.47881 0.0
H1827 H 0.76286 0.4806 0.57228 0.0
H1828 H 0.77267 0.4696 0.53969 0.0
H1829 H 0.71773 0.45702 0.5039 0.0
H1830 H 0.79743 0.47738 0.41972 0.0
H1831 H 0.78539 0.45485 0.44512 0.0
H1832 H 0.78662 0.45759 0.47943 0.0
C1833 C 0.75874 0.46427 0.54544 0.0
C1834 C 0.73279 0.45615 0.49859 0.0
C1835 C 0.7531 0.47067 0.56423 0.0
C1836 C 0.7836 0.48074 0.42704 0.0
C1837 C 0.77678 0.46794 0.44169 0.0
C1838 C 0.7714 0.45667 0.48424 0.0
C1839 C 0.74549 0.45341 0.53343 0.0
C1840 C 0.74868 0.45246 0.51167 0.0
C1841 C 0.75989 0.47279 0.45273 0.0
C1842 C 0.75569 0.46243 0.47171 0.0
H1843 H 0.70713 0.44995 0.56558 0.0
H1844 H 0.71728 0.43807 0.53311 0.0
H1845 H 0.78044 0.44831 0.51344 0.0
H1846 H 0.74737 0.51575 0.42916 0.0
H1847 H 0.73581 0.49401 0.45542 0.0
C1848 C 0.71759 0.53127 0.69185 0.0
C1849 C 0.72271 0.54522 0.67737 0.0
C1850 C 0.72092 0.53528 0.71184 0.0
C1851 C 0.75593 0.55879 0.74348 0.0
H1852 H 0.71856 0.54461 0.78444 0.0
C1853 C 0.74978 0.53301 0.83095 0.0
C1854 C 0.76239 0.51653 0.82944 0.0
C1855 C 0.74686 0.54547 0.81464 0.0
C1856 C 0.72911 0.54917 0.77333 0.0
H1857 H 0.73487 0.57449 0.67233 0.0
H1858 H 0.74145 0.58123 0.70756 0.0
H1859 H 0.70694 0.54925 0.75053 0.0
H1860 H 0.78365 0.5016 0.81081 0.0
H1861 H 0.77898 0.52355 0.78261 0.0
H1862 H 0.77837 0.55707 0.76602 0.0
C1863 C 0.73449 0.56738 0.70333 0.0
C1864 C 0.72245 0.55167 0.75389 0.0
C1865 C 0.73068 0.56356 0.68327 0.0
C1866 C 0.77385 0.51421 0.81234 0.0
C1867 C 0.77119 0.52684 0.79619 0.0
C1868 C 0.76266 0.55602 0.76292 0.0
C1869 C 0.72983 0.55316 0.71775 0.0
C1870 C 0.73592 0.55567 0.73868 0.0
C1871 C 0.75677 0.54182 0.79676 0.0
C1872 C 0.74942 0.55035 0.77786 0.0
H1873 H 0.71139 0.51705 0.68767 0.0
H1874 H 0.71741 0.52397 0.72264 0.0
H1875 H 0.76662 0.56178 0.73197 0.0
H1876 H 0.74062 0.53504 0.8439 0.0
H1877 H 0.73575 0.557 0.81551 0.0
C1878 C 0.76971 0.47974 0.06985 0.0
C1879 C 0.76753 0.46558 0.08488 0.0
C1880 C 0.76516 0.47494 0.05023 0.0
C1881 C 0.7332 0.4408 0.02196 0.0
H1882 H 0.75785 0.46707 0.97743 0.0
C1883 C 0.71355 0.43823 0.9358 0.0
C1884 C 0.70914 0.45748 0.92903 0.0
C1885 C 0.72015 0.43525 0.95529 0.0
C1886 C 0.75096 0.4595 0.98975 0.0
H1887 H 0.75921 0.43537 0.0911 0.0
H1888 H 0.75218 0.42655 0.05675 0.0
H1889 H 0.77359 0.46865 0.01 0.0
H1890 H 0.70618 0.48824 0.93792 0.0
H1891 H 0.7177 0.48295 0.97171 0.0
H1892 H 0.7104 0.43196 0.00142 0.0
C1893 C 0.75718 0.44142 0.06011 0.0
C1894 C 0.75987 0.4605 0.00839 0.0
C1895 C 0.76163 0.44631 0.07973 0.0
C1896 C 0.70964 0.47328 0.94259 0.0
C1897 C 0.71629 0.47031 0.9619 0.0
C1898 C 0.72437 0.43966 0.00319 0.0
C1899 C 0.75832 0.45586 0.04519 0.0
C1900 C 0.75074 0.45179 0.02488 0.0
C1901 C 0.72234 0.45146 0.96812 0.0
C1902 C 0.7329 0.44957 0.98715 0.0
H1903 H 0.77401 0.4948 0.07337 0.0
H1904 H 0.76594 0.48656 0.03922 0.0
H1905 H 0.7257 0.43396 0.03431 0.0
H1906 H 0.71346 0.42577 0.92568 0.0
H1907 H 0.72479 0.42059 0.95989 0.0
C1908 C 0.78297 0.59383 0.31551 0.0
C1909 C 0.79553 0.57826 0.32118 0.0
C1910 C 0.77538 0.59465 0.29616 0.0
C1911 C 0.77888 0.57274 0.24575 0.0
H1912 H 0.72164 0.56962 0.24847 0.0
C1913 C 0.71655 0.52519 0.20465 0.0
C1914 C 0.72198 0.52773 0.18476 0.0
C1915 C 0.72361 0.53813 0.21924 0.0
C1916 C 0.73759 0.57074 0.2474 0.0
H1917 H 0.8114 0.55241 0.31097 0.0
H1918 H 0.79881 0.55419 0.27714 0.0
H1919 H 0.74053 0.58094 0.27728 0.0
H1920 H 0.73793 0.54679 0.16445 0.0
H1921 H 0.75036 0.56921 0.18998 0.0
H1922 H 0.77602 0.56147 0.21624 0.0
C1923 C 0.79467 0.56572 0.28747 0.0
C1924 C 0.74841 0.57739 0.26382 0.0
C1925 C 0.80191 0.56469 0.30684 0.0
C1926 C 0.73334 0.54443 0.1796 0.0
C1927 C 0.74064 0.5572 0.19424 0.0
C1928 C 0.76805 0.5663 0.22925 0.0
C1929 C 0.78056 0.5801 0.28219 0.0
C1930 C 0.76921 0.57773 0.26343 0.0
C1931 C 0.73644 0.55375 0.21429 0.0
C1932 C 0.74733 0.56451 0.23017 0.0
H1933 H 0.77758 0.60425 0.32643 0.0
H1934 H 0.76459 0.60593 0.29245 0.0
H1935 H 0.79489 0.57291 0.24501 0.0
H1936 H 0.70786 0.51248 0.20912 0.0
H1937 H 0.7202 0.535 0.23458 0.0
C1938 C 0.54364 0.69855 0.7578 0.0
C1939 C 0.54324 0.68847 0.73959 0.0
C1940 C 0.55038 0.718 0.75901 0.0
C1941 C 0.55335 0.7624 0.72845 0.0
H1942 H 0.5728 0.78441 0.77796 0.0
C1943 C 0.54052 0.84364 0.74557 0.0
C1944 C 0.52742 0.84444 0.76164 0.0
C1945 C 0.55222 0.82681 0.74255 0.0
C1946 C 0.56773 0.77852 0.76389 0.0
H1947 H 0.55073 0.69065 0.70849 0.0
H1948 H 0.56264 0.72488 0.71062 0.0
H1949 H 0.57553 0.74886 0.77185 0.0
H1950 H 0.518 0.82963 0.78837 0.0
H1951 H 0.53891 0.80068 0.78359 0.0
H1952 H 0.54474 0.79193 0.7209 0.0
C1953 C 0.5575 0.71766 0.72394 0.0
C1954 C 0.56914 0.75815 0.76043 0.0
C1955 C 0.55074 0.69804 0.72273 0.0
C1956 C 0.52804 0.82938 0.77593 0.0
C1957 C 0.54004 0.81281 0.77316 0.0
C1958 C 0.55219 0.78279 0.73182 0.0
C1959 C 0.55699 0.72801 0.74206 0.0
C1960 C 0.56087 0.74971 0.74318 0.0
C1961 C 0.5513 0.81082 0.75583 0.0
C1962 C 0.55837 0.79088 0.75002 0.0
H1963 H 0.53817 0.69162 0.77116 0.0
H1964 H 0.54938 0.72549 0.77316 0.0
H1965 H 0.54676 0.75649 0.71504 0.0
H1966 H 0.54016 0.85497 0.73422 0.0
H1967 H 0.56081 0.82566 0.72911 0.0
C1968 C 0.04936 0.07858 0.29949 0.0
C1969 C 0.04839 0.09932 0.30029 0.0
C1970 C 0.06489 0.06835 0.30887 0.0
C1971 C 0.11572 0.07796 0.33075 0.0
H1972 H 0.11331 0.02157 0.34049 0.0
C1973 C 0.18714 0.03343 0.34956 0.0
C1974 C 0.18556 0.01556 0.36005 0.0
C1975 C 0.17008 0.04368 0.34335 0.0
C1976 C 0.11438 0.0374 0.3383 0.0
H1977 H 0.06203 0.12553 0.31265 0.0
H1978 H 0.08761 0.10779 0.33092 0.0
H1979 H 0.08376 0.03893 0.33056 0.0
H1980 H 0.16488 0.99486 0.37297 0.0
H1981 H 0.13543 0.01317 0.36362 0.0
H1982 H 0.14598 0.07668 0.33986 0.0
C1983 C 0.07732 0.09923 0.32207 0.0
C1984 C 0.09725 0.04743 0.33209 0.0
C1985 C 0.06226 0.1095 0.31202 0.0
C1986 C 0.16659 0.00849 0.36469 0.0
C1987 C 0.14959 0.01899 0.35905 0.0
C1988 C 0.13269 0.06803 0.33753 0.0
C1989 C 0.07954 0.07853 0.3199 0.0
C1990 C 0.09759 0.0679 0.32793 0.0
C1991 C 0.15091 0.03666 0.34798 0.0
C1992 C 0.13248 0.04749 0.34124 0.0
H1993 H 0.03915 0.07041 0.29013 0.0
H1994 H 0.06596 0.05259 0.30631 0.0
H1995 H 0.11712 0.09355 0.3274 0.0
H1996 H 0.20155 0.03917 0.34561 0.0
H1997 H 0.17207 0.05689 0.33454 0.0
C1998 C 0.17074 0.81741 0.51315 0.0
C1999 C 0.15125 0.81202 0.51811 0.0
C2000 C 0.18067 0.83258 0.52355 0.0
C2001 C 0.17989 0.86284 0.56989 0.0
H2002 H 0.20313 0.90393 0.53743 0.0
C2003 C 0.20149 0.93898 0.60387 0.0
C2004 C 0.21799 0.94917 0.59631 0.0
C2005 C 0.19408 0.92194 0.59442 0.0
C2006 C 0.19704 0.89254 0.54688 0.0
H2007 H 0.12762 0.81754 0.53898 0.0
H2008 H 0.14503 0.84331 0.55733 0.0
H2009 H 0.19069 0.87375 0.52197 0.0
H2010 H 0.23928 0.94929 0.57249 0.0
H2011 H 0.22677 0.91954 0.55638 0.0
H2012 H 0.18623 0.8814 0.5948 0.0
C2013 C 0.15261 0.83607 0.54525 0.0
C2014 C 0.18987 0.87513 0.53792 0.0
C2015 C 0.1426 0.8212 0.53468 0.0
C2016 C 0.22647 0.94204 0.5787 0.0
C2017 C 0.21921 0.92487 0.56938 0.0
C2018 C 0.18721 0.88015 0.57887 0.0
C2019 C 0.17154 0.84245 0.53947 0.0
C2020 C 0.18094 0.86013 0.54926 0.0
C2021 C 0.20302 0.91433 0.57718 0.0
C2022 C 0.1957 0.89548 0.56753 0.0
H2023 H 0.17787 0.81081 0.50046 0.0
H2024 H 0.19533 0.83692 0.5188 0.0
H2025 H 0.17339 0.85152 0.57916 0.0
H2026 H 0.19457 0.94386 0.61745 0.0
H2027 H 0.18133 0.91469 0.60079 0.0
C2028 C 0.44997 0.93555 0.77109 0.0
C2029 C 0.45835 0.91942 0.78138 0.0
C2030 C 0.43377 0.9459 0.7789 0.0
C2031 C 0.40553 0.95479 0.82515 0.0
H2032 H 0.36122 0.9644 0.78972 0.0
C2033 C 0.33001 0.97703 0.8565 0.0
C2034 C 0.31872 0.99128 0.84638 0.0
C2035 C 0.34648 0.9683 0.84765 0.0
C2036 C 0.37349 0.96204 0.79982 0.0
H2037 H 0.45669 0.90227 0.80845 0.0
H2038 H 0.42883 0.92044 0.82213 0.0
H2039 H 0.39193 0.95065 0.7767 0.0
H2040 H 0.31571 0.00743 0.81889 0.0
H2041 H 0.34472 0.99233 0.80332 0.0
H2042 H 0.38728 0.96605 0.84827 0.0
C2043 C 0.43473 0.92511 0.80801 0.0
C2044 C 0.39117 0.9542 0.79231 0.0
C2045 C 0.45077 0.91466 0.80015 0.0
C2046 C 0.32381 0.99606 0.82682 0.0
C2047 C 0.34056 0.98749 0.81799 0.0
C2048 C 0.3879 0.96257 0.83264 0.0
C2049 C 0.42568 0.94054 0.79728 0.0
C2050 C 0.40736 0.95026 0.80494 0.0
C2051 C 0.35248 0.97388 0.82852 0.0
C2052 C 0.37148 0.96609 0.82016 0.0
H2053 H 0.45523 0.93955 0.75651 0.0
H2054 H 0.42735 0.95787 0.77035 0.0
H2055 H 0.4178 0.95237 0.83525 0.0
H2056 H 0.32658 0.97326 0.87169 0.0
H2057 H 0.35483 0.95751 0.8561 0.0
C2058 C 0.28934 0.09118 0.11154 0.0
C2059 C 0.26968 0.09016 0.1048 0.0
C2060 C 0.30176 0.10678 0.1054 0.0
C2061 C 0.30398 0.15049 0.0701 0.0
H2062 H 0.33978 0.17163 0.1098 0.0
C2063 C 0.34241 0.2264 0.05854 0.0
C2064 C 0.3625 0.22755 0.06402 0.0
C2065 C 0.33076 0.21019 0.06443 0.0
C2066 C 0.32999 0.16589 0.09842 0.0
H2067 H 0.24813 0.10374 0.08544 0.0
H2068 H 0.26913 0.13063 0.075 0.0
H2069 H 0.32191 0.1411 0.11638 0.0
H2070 H 0.38568 0.21295 0.08085 0.0
H2071 H 0.36565 0.18492 0.09088 0.0
H2072 H 0.31137 0.1758 0.05264 0.0
C2073 C 0.27543 0.11964 0.08477 0.0
C2074 C 0.31978 0.14816 0.10215 0.0
C2075 C 0.26322 0.10412 0.09079 0.0
C2076 C 0.37026 0.21265 0.0764 0.0
C2077 C 0.35868 0.1965 0.08223 0.0
C2078 C 0.31393 0.16835 0.06655 0.0
C2079 C 0.29471 0.12173 0.09248 0.0
C2080 C 0.30662 0.14007 0.08802 0.0
C2081 C 0.33887 0.19471 0.07597 0.0
C2082 C 0.32726 0.17627 0.08051 0.0
H2083 H 0.29468 0.08079 0.12255 0.0
H2084 H 0.31665 0.10744 0.11133 0.0
H2085 H 0.29424 0.14491 0.05862 0.0
H2086 H 0.33595 0.23745 0.04886 0.0
H2087 H 0.31549 0.20961 0.05955 0.0
C2088 C 0.0721 0.92099 0.23778 0.0
C2089 C 0.06616 0.9028 0.2294 0.0
C2090 C 0.08677 0.9326 0.22874 0.0
C2091 C 0.11266 0.94202 0.1817 0.0
H2092 H 0.15733 0.95731 0.21461 0.0
C2093 C 0.18097 0.97778 0.14585 0.0
C2094 C 0.19031 0.99333 0.15606 0.0
C2095 C 0.16735 0.96546 0.15544 0.0
C2096 C 0.14494 0.95341 0.20516 0.0
H2097 H 0.07036 0.88316 0.20439 0.0
H2098 H 0.0952 0.90379 0.18823 0.0
H2099 H 0.12905 0.94048 0.22942 0.0
H2100 H 0.19324 0.0078 0.18443 0.0
H2101 H 0.16935 0.9866 0.20126 0.0
H2102 H 0.12795 0.95537 0.15757 0.0
C2103 C 0.08871 0.90896 0.20192 0.0
C2104 C 0.12867 0.94374 0.21372 0.0
C2105 C 0.07437 0.89718 0.21113 0.0
C2106 C 0.18654 0.99564 0.17633 0.0
C2107 C 0.17272 0.98347 0.18593 0.0
C2108 C 0.12875 0.95192 0.1732 0.0
C2109 C 0.09555 0.92651 0.2109 0.0
C2110 C 0.11238 0.9378 0.20206 0.0
C2111 C 0.16228 0.96866 0.17543 0.0
C2112 C 0.14529 0.95764 0.18471 0.0
H2113 H 0.06641 0.92561 0.25201 0.0
H2114 H 0.09157 0.94613 0.23594 0.0
H2115 H 0.10028 0.93784 0.17234 0.0
H2116 H 0.18329 0.97593 0.13009 0.0
H2117 H 0.16022 0.95389 0.14688 0.0
C2118 C 0.27827 0.95776 0.43776 0.0
C2119 C 0.2893 0.96448 0.42145 0.0
C2120 C 0.28505 0.94194 0.44943 0.0
C2121 C 0.31954 0.89872 0.44749 0.0
H2122 H 0.30862 0.89572 0.50364 0.0
C2123 C 0.33785 0.82787 0.49333 0.0
C2124 C 0.34411 0.8304 0.51308 0.0
C2125 C 0.33062 0.844 0.48228 0.0
C2126 C 0.31204 0.8963 0.48801 0.0
H2127 H 0.3166 0.96015 0.40532 0.0
H2128 H 0.32863 0.9331 0.42596 0.0
H2129 H 0.29855 0.92486 0.48503 0.0
H2130 H 0.34787 0.85213 0.53649 0.0
H2131 H 0.33605 0.88007 0.51724 0.0
H2132 H 0.33384 0.87059 0.4506 0.0
C2133 C 0.31448 0.9397 0.42946 0.0
C2134 C 0.30593 0.91299 0.47723 0.0
C2135 C 0.30769 0.95548 0.41774 0.0
C2136 C 0.34304 0.84949 0.5214 0.0
C2137 C 0.33606 0.8656 0.51032 0.0
C2138 C 0.32585 0.88211 0.45832 0.0
C2139 C 0.30305 0.93236 0.44521 0.0
C2140 C 0.30963 0.91452 0.4568 0.0
C2141 C 0.32966 0.86318 0.49058 0.0
C2142 C 0.3223 0.88064 0.4788 0.0
H2143 H 0.26389 0.96403 0.44097 0.0
H2144 H 0.27574 0.93675 0.46129 0.0
H2145 H 0.32237 0.89907 0.43174 0.0
H2146 H 0.33829 0.81337 0.48646 0.0
H2147 H 0.32557 0.84132 0.46728 0.0
C2148 C 0.32215 0.02525 0.65078 0.0
C2149 C 0.32405 0.00463 0.64821 0.0
C2150 C 0.33747 0.0364 0.65944 0.0
C2151 C 0.3913 0.03505 0.67305 0.0
H2152 H 0.37618 0.0751 0.71119 0.0
C2153 C 0.44897 0.08477 0.71551 0.0
C2154 C 0.44512 0.08781 0.73576 0.0
C2155 C 0.43474 0.07573 0.7031 0.0
C2156 C 0.38073 0.06395 0.70062 0.0
H2157 H 0.34399 0.97979 0.65253 0.0
H2158 H 0.37049 0.99915 0.66764 0.0
H2159 H 0.35071 0.05717 0.69297 0.0
H2160 H 0.42315 0.08321 0.7587 0.0
H2161 H 0.39897 0.06742 0.73745 0.0
H2162 H 0.42138 0.0416 0.68116 0.0
C2163 C 0.35724 0.00678 0.66277 0.0
C2164 C 0.36605 0.05378 0.68996 0.0
C2165 C 0.34191 0.99561 0.65418 0.0
C2166 C 0.42676 0.08139 0.7432 0.0
C2167 C 0.4127 0.07238 0.73092 0.0
C2168 C 0.40603 0.04533 0.68369 0.0
C2169 C 0.35519 0.02731 0.66576 0.0
C2170 C 0.37106 0.03898 0.67618 0.0
C2171 C 0.41635 0.06946 0.71067 0.0
C2172 C 0.40094 0.05968 0.6979 0.0
H2173 H 0.30867 0.03278 0.64643 0.0
H2174 H 0.33538 0.0522 0.66123 0.0
H2175 H 0.3958 0.02396 0.66241 0.0
H2176 H 0.46295 0.08935 0.70923 0.0
H2177 H 0.43811 0.07373 0.68758 0.0
C2178 C 0.16188 0.22111 0.91949 0.0
C2179 C 0.14129 0.22123 0.92223 0.0
C2180 C 0.17092 0.20598 0.90849 0.0
C2181 C 0.16204 0.15333 0.8985 0.0
H2182 H 0.20984 0.15656 0.86727 0.0
C2183 C 0.21784 0.08858 0.89001 0.0
C2184 C 0.22705 0.08593 0.87163 0.0
C2185 C 0.20482 0.10446 0.89306 0.0
C2186 C 0.19636 0.15537 0.87578 0.0
H2187 H 0.11396 0.20635 0.91458 0.0
H2188 H 0.12956 0.18036 0.89492 0.0
H2189 H 0.1924 0.18695 0.87648 0.0
H2190 H 0.22994 0.09771 0.84203 0.0
H2191 H 0.20707 0.1254 0.84722 0.0
H2192 H 0.1663 0.12184 0.89832 0.0
C2193 C 0.1388 0.19182 0.90136 0.0
C2194 C 0.18645 0.17282 0.88118 0.0
C2195 C 0.1298 0.20697 0.91226 0.0
C2196 C 0.22255 0.09909 0.85615 0.0
C2197 C 0.20972 0.11512 0.85925 0.0
C2198 C 0.17207 0.13593 0.89331 0.0
C2199 C 0.15954 0.19053 0.9002 0.0
C2200 C 0.16923 0.17205 0.89275 0.0
C2201 C 0.20108 0.11831 0.8779 0.0
C2202 C 0.18947 0.13671 0.88204 0.0
H2203 H 0.17116 0.23147 0.92757 0.0
H2204 H 0.18693 0.20544 0.90802 0.0
H2205 H 0.14901 0.15213 0.90768 0.0
H2206 H 0.22161 0.07904 0.90237 0.0
H2207 H 0.19865 0.10657 0.90767 0.0
C2208 C 0.09831 0.3162 0.0295 0.0
C2209 C 0.08945 0.30077 0.01863 0.0
C2210 C 0.08797 0.32604 0.04446 0.0
C2211 C 0.06941 0.33409 0.08433 0.0
H2212 H 0.01305 0.34392 0.08306 0.0
C2213 C 0.02622 0.35842 0.15496 0.0
C2214 C 0.00908 0.36989 0.15244 0.0
C2215 C 0.03641 0.35101 0.13838 0.0
C2216 C 0.02884 0.34146 0.08377 0.0
H2217 H 0.06256 0.28384 0.01466 0.0
H2218 H 0.04433 0.30095 0.04092 0.0
H2219 H 0.02906 0.32993 0.05418 0.0
H2220 H 0.98954 0.38316 0.13073 0.0
H2221 H 0.00771 0.37146 0.10206 0.0
H2222 H 0.06933 0.34602 0.1137 0.0
C2223 C 0.05923 0.30576 0.03764 0.0
C2224 C 0.03803 0.33317 0.06712 0.0
C2225 C 0.0696 0.29601 0.02244 0.0
C2226 C 0.00279 0.37442 0.13311 0.0
C2227 C 0.01309 0.3674 0.11662 0.0
C2228 C 0.06023 0.3424 0.10097 0.0
C2229 C 0.06851 0.32051 0.04932 0.0
C2230 C 0.0585 0.32941 0.06707 0.0
C2231 C 0.02981 0.35512 0.11889 0.0
C2232 C 0.03976 0.34626 0.10102 0.0
H2233 H 0.11367 0.32004 0.02704 0.0
H2234 H 0.09551 0.33763 0.05263 0.0
H2235 H 0.08514 0.33113 0.08514 0.0
H2236 H 0.03112 0.35429 0.16968 0.0
H2237 H 0.04897 0.3414 0.14093 0.0
C2238 C 0.53189 0.16629 0.80779 0.0
C2239 C 0.54137 0.14868 0.80183 0.0
C2240 C 0.53828 0.17667 0.82478 0.0
C2241 C 0.56545 0.16783 0.87209 0.0
H2242 H 0.56651 0.22503 0.87676 0.0
C2243 C 0.60277 0.20683 0.93895 0.0
C2244 C 0.59512 0.22485 0.94613 0.0
C2245 C 0.59504 0.19792 0.92181 0.0
C2246 C 0.56604 0.20903 0.87585 0.0
H2247 H 0.56569 0.12889 0.80882 0.0
H2248 H 0.57689 0.147 0.83795 0.0
H2249 H 0.55623 0.20968 0.84551 0.0
H2250 H 0.57277 0.24726 0.94078 0.0
H2251 H 0.55899 0.23149 0.91109 0.0
H2252 H 0.5751 0.16704 0.90231 0.0
C2253 C 0.56428 0.15265 0.82977 0.0
C2254 C 0.56017 0.2002 0.85784 0.0
C2255 C 0.55794 0.14232 0.81286 0.0
C2256 C 0.57899 0.23333 0.93589 0.0
C2257 C 0.57124 0.22439 0.91864 0.0
C2258 C 0.57123 0.17662 0.89004 0.0
C2259 C 0.55427 0.16971 0.83634 0.0
C2260 C 0.56001 0.17944 0.85561 0.0
C2261 C 0.57932 0.20664 0.91116 0.0
C2262 C 0.57189 0.19737 0.89221 0.0
H2263 H 0.51896 0.17158 0.79987 0.0
H2264 H 0.53011 0.18967 0.82935 0.0
H2265 H 0.56504 0.15182 0.87122 0.0
H2266 H 0.61531 0.19988 0.94618 0.0
H2267 H 0.60196 0.18447 0.91652 0.0
C2268 C 0.99196 0.84622 0.33577 0.0
C2269 C 0.01116 0.85328 0.33976 0.0
C2270 C 0.98043 0.83796 0.35093 0.0
C2271 C 0.9657 0.80919 0.38265 0.0
H2272 H 0.96647 0.83032 0.43607 0.0
C2273 C 0.93588 0.76481 0.44952 0.0
C2274 C 0.92039 0.77451 0.45937 0.0
C2275 C 0.94811 0.77526 0.43642 0.0
C2276 C 0.96623 0.8242 0.42124 0.0
H2277 H 0.03292 0.85788 0.36303 0.0
H2278 H 0.01273 0.84413 0.38938 0.0
H2279 H 0.98379 0.84793 0.40962 0.0
H2280 H 0.90627 0.80288 0.46407 0.0
H2281 H 0.92837 0.82133 0.44215 0.0
H2282 H 0.94839 0.78535 0.39439 0.0
C2283 C 0.00658 0.84468 0.37456 0.0
C2284 C 0.97617 0.83426 0.40607 0.0
C2285 C 0.01823 0.85253 0.35938 0.0
C2286 C 0.91835 0.79511 0.457 0.0
C2287 C 0.93089 0.80563 0.44433 0.0
C2288 C 0.95616 0.79893 0.3979 0.0
C2289 C 0.98768 0.83688 0.37052 0.0
C2290 C 0.97612 0.82686 0.38654 0.0
C2291 C 0.94538 0.79569 0.43328 0.0
C2292 C 0.95633 0.80629 0.41738 0.0
H2293 H 0.98609 0.84647 0.32081 0.0
H2294 H 0.96586 0.83233 0.34727 0.0
H2295 H 0.96546 0.80288 0.36791 0.0
H2296 H 0.93745 0.74887 0.45059 0.0
H2297 H 0.95921 0.76723 0.42815 0.0
C2298 C 0.89549 0.2135 0.07911 0.0
C2299 C 0.87952 0.22603 0.08365 0.0
C2300 C 0.90458 0.20197 0.09404 0.0
C2301 C 0.90985 0.20039 0.14947 0.0
H2302 H 0.9334 0.14902 0.14003 0.0
C2303 C 0.959 0.16024 0.20877 0.0
C2304 C 0.95861 0.1394 0.20929 0.0
C2305 C 0.94878 0.17073 0.19384 0.0
C2306 C 0.92674 0.16327 0.14308 0.0
H2307 H 0.85994 0.23535 0.10714 0.0
H2308 H 0.87501 0.21487 0.13266 0.0
H2309 H 0.91647 0.16614 0.11308 0.0
H2310 H 0.94616 0.11343 0.19496 0.0
H2311 H 0.92801 0.13152 0.16965 0.0
H2312 H 0.91968 0.19735 0.17955 0.0
C2313 C 0.88111 0.21431 0.11789 0.0
C2314 C 0.91721 0.17326 0.12743 0.0
C2315 C 0.87223 0.22588 0.10312 0.0
C2316 C 0.94696 0.12946 0.19505 0.0
C2317 C 0.93668 0.13988 0.18028 0.0
C2318 C 0.91932 0.19039 0.16511 0.0
C2319 C 0.89786 0.20264 0.11383 0.0
C2320 C 0.90845 0.19194 0.13038 0.0
C2321 C 0.93779 0.16067 0.17906 0.0
C2322 C 0.92785 0.17159 0.16225 0.0
H2323 H 0.90171 0.21355 0.06437 0.0
H2324 H 0.91746 0.19327 0.09023 0.0
H2325 H 0.90372 0.2149 0.15239 0.0
H2326 H 0.96802 0.16842 0.21928 0.0
H2327 H 0.95018 0.1867 0.19346 0.0
C2328 C 0.46575 0.68166 0.71031 0.0
C2329 C 0.4575 0.66377 0.71715 0.0
C2330 C 0.45945 0.69008 0.69222 0.0
C2331 C 0.41885 0.6859 0.65371 0.0
H2332 H 0.45559 0.71454 0.62051 0.0
C2333 C 0.39619 0.70752 0.57437 0.0
C2334 C 0.40114 0.72662 0.56772 0.0
C2335 C 0.40485 0.69962 0.59155 0.0
C2336 C 0.44511 0.70662 0.62961 0.0
H2337 H 0.43588 0.64101 0.71018 0.0
H2338 H 0.42563 0.65495 0.67893 0.0
H2339 H 0.46655 0.7021 0.65275 0.0
H2340 H 0.41978 0.75209 0.57381 0.0
H2341 H 0.4347 0.73843 0.6039 0.0
H2342 H 0.39764 0.6898 0.63049 0.0
C2343 C 0.43649 0.66304 0.68756 0.0
C2344 C 0.45136 0.69957 0.64826 0.0
C2345 C 0.44251 0.65488 0.70564 0.0
C2346 C 0.41576 0.73722 0.57828 0.0
C2347 C 0.42432 0.72937 0.59563 0.0
C2348 C 0.41279 0.69253 0.635 0.0
C2349 C 0.44484 0.68075 0.68039 0.0
C2350 C 0.43831 0.68902 0.66065 0.0
C2351 C 0.41858 0.71064 0.60286 0.0
C2352 C 0.42572 0.70309 0.62262 0.0
H2353 H 0.47746 0.68888 0.71862 0.0
H2354 H 0.46613 0.70385 0.6875 0.0
H2355 H 0.408 0.6785 0.66281 0.0
H2356 H 0.38504 0.69888 0.56667 0.0
H2357 H 0.40037 0.68496 0.59622 0.0
C2358 C 0.09792 0.73405 0.41065 0.0
C2359 C 0.11267 0.74833 0.40724 0.0
C2360 C 0.0892 0.72366 0.39475 0.0
C2361 C 0.08266 0.72648 0.33946 0.0
H2362 H 0.06401 0.67257 0.34529 0.0
C2363 C 0.03298 0.68454 0.28101 0.0
C2364 C 0.03845 0.66477 0.27715 0.0
C2365 C 0.04249 0.69548 0.29611 0.0
C2366 C 0.06913 0.68766 0.34341 0.0
H2367 H 0.13031 0.76224 0.38443 0.0
H2368 H 0.11591 0.74369 0.35708 0.0
H2369 H 0.08016 0.68905 0.37318 0.0
H2370 H 0.05898 0.64151 0.28576 0.0
H2371 H 0.07512 0.66034 0.31186 0.0
H2372 H 0.07149 0.72498 0.30963 0.0
C2373 C 0.11047 0.74086 0.37185 0.0
C2374 C 0.07827 0.69721 0.35951 0.0
C2375 C 0.11896 0.75138 0.38765 0.0
C2376 C 0.05421 0.65662 0.28821 0.0
C2377 C 0.06342 0.66737 0.30339 0.0
C2378 C 0.07319 0.71704 0.32347 0.0
C2379 C 0.09516 0.7271 0.37503 0.0
C2380 C 0.08529 0.71678 0.35781 0.0
C2381 C 0.05744 0.68677 0.30787 0.0
C2382 C 0.06651 0.69741 0.32515 0.0
H2383 H 0.09245 0.73157 0.42549 0.0
H2384 H 0.0773 0.71343 0.39793 0.0
H2385 H 0.08766 0.74155 0.33745 0.0
H2386 H 0.02086 0.69131 0.27292 0.0
H2387 H 0.03753 0.71041 0.29918 0.0
C2388 C 0.42284 0.30526 0.96455 0.0
C2389 C 0.41638 0.28565 0.96154 0.0
C2390 C 0.43401 0.31501 0.94998 0.0
C2391 C 0.46626 0.30549 0.90701 0.0
H2392 H 0.44879 0.35655 0.88732 0.0
C2393 C 0.50816 0.34755 0.84549 0.0
C2394 C 0.49657 0.35535 0.82996 0.0
C2395 C 0.49935 0.34023 0.86269 0.0
C2396 C 0.45385 0.3423 0.89269 0.0
H2397 H 0.41753 0.26069 0.94124 0.0
H2398 H 0.43689 0.2775 0.91629 0.0
H2399 H 0.43244 0.34174 0.91606 0.0
H2400 H 0.46646 0.36162 0.82058 0.0
H2401 H 0.45109 0.3489 0.85072 0.0
H2402 H 0.48746 0.30581 0.88358 0.0
C2403 C 0.43322 0.28546 0.92971 0.0
C2404 C 0.44463 0.33394 0.90926 0.0
C2405 C 0.42192 0.27588 0.94401 0.0
C2406 C 0.47587 0.35572 0.83219 0.0
C2407 C 0.46706 0.34857 0.84953 0.0
C2408 C 0.47565 0.31396 0.89067 0.0
C2409 C 0.43925 0.30518 0.93236 0.0
C2410 C 0.45051 0.31526 0.91638 0.0
C2411 C 0.4787 0.34066 0.86496 0.0
C2412 C 0.46935 0.3323 0.88308 0.0
H2413 H 0.41901 0.31314 0.97796 0.0
H2414 H 0.43863 0.33017 0.9525 0.0
H2415 H 0.47116 0.29111 0.91216 0.0
H2416 H 0.52413 0.34697 0.84436 0.0
H2417 H 0.50875 0.33436 0.87433 0.0
C2418 C 0.65891 0.50208 0.84663 0.0
C2419 C 0.67747 0.50967 0.8525 0.0
C2420 C 0.64421 0.5145 0.83876 0.0
C2421 C 0.63717 0.5638 0.81477 0.0
H2422 H 0.58164 0.55275 0.82376 0.0
C2423 C 0.57605 0.59962 0.76667 0.0
C2424 C 0.55779 0.60487 0.77517 0.0
C2425 C 0.5903 0.58904 0.77741 0.0
C2426 C 0.59705 0.55624 0.82124 0.0
H2427 H 0.69482 0.53662 0.85475 0.0
H2428 H 0.66912 0.5583 0.84139 0.0
H2429 H 0.60685 0.53291 0.84045 0.0
H2430 H 0.54043 0.60282 0.80198 0.0
H2431 H 0.56548 0.58449 0.82089 0.0
H2432 H 0.62744 0.58733 0.79587 0.0
C2433 C 0.66601 0.54262 0.84259 0.0
C2434 C 0.6116 0.54464 0.83063 0.0
C2435 C 0.68077 0.53016 0.85042 0.0
C2436 C 0.5543 0.59918 0.79491 0.0
C2437 C 0.56865 0.58851 0.80572 0.0
C2438 C 0.62266 0.57541 0.80544 0.0
C2439 C 0.6475 0.53497 0.83652 0.0
C2440 C 0.63191 0.54807 0.82738 0.0
C2441 C 0.58692 0.58329 0.79712 0.0
C2442 C 0.60235 0.57167 0.80828 0.0
H2443 H 0.65573 0.4864 0.84783 0.0
H2444 H 0.63039 0.50788 0.83398 0.0
H2445 H 0.65256 0.5669 0.81166 0.0
H2446 H 0.5794 0.60355 0.75151 0.0
H2447 H 0.6039 0.58502 0.77003 0.0
C2448 C 0.70161 0.46071 0.08613 0.0
C2449 C 0.69482 0.46304 0.10569 0.0
C2450 C 0.69454 0.44527 0.07407 0.0
C2451 C 0.67155 0.39534 0.07714 0.0
H2452 H 0.66143 0.40283 0.02113 0.0
C2453 C 0.63847 0.33241 0.02745 0.0
C2454 C 0.64481 0.33123 0.00766 0.0
C2455 C 0.64404 0.3485 0.03956 0.0
C2456 C 0.66442 0.4003 0.03669 0.0
H2457 H 0.67477 0.45093 0.12754 0.0
H2458 H 0.66236 0.42423 0.10647 0.0
H2459 H 0.67183 0.43086 0.04138 0.0
H2460 H 0.66254 0.3461 0.98544 0.0
H2461 H 0.67249 0.37352 0.00643 0.0
H2462 H 0.6645 0.36471 0.07242 0.0
C2463 C 0.67332 0.43427 0.10053 0.0
C2464 C 0.67036 0.4165 0.04835 0.0
C2465 C 0.68028 0.4498 0.11256 0.0
C2466 C 0.6571 0.34647 1.00049 0.0
C2467 C 0.66275 0.36241 0.01257 0.0
C2468 C 0.66574 0.37909 0.06544 0.0
C2469 C 0.68057 0.43157 0.08121 0.0
C2470 C 0.67399 0.41429 0.06877 0.0
C2471 C 0.65621 0.36384 0.03228 0.0
C2472 C 0.6621 0.38127 0.04498 0.0
H2473 H 0.71298 0.47037 0.08032 0.0
H2474 H 0.70061 0.44364 0.05937 0.0
H2475 H 0.67455 0.39293 0.09272 0.0
H2476 H 0.62902 0.32102 0.03356 0.0
H2477 H 0.6385 0.34905 0.05455 0.0
C2478 C 0.83578 0.49998 0.3389 0.0
C2479 C 0.83987 0.50485 0.35878 0.0
C2480 C 0.85008 0.4903 0.32724 0.0
C2481 C 0.89709 0.46103 0.33209 0.0
H2482 H 0.90235 0.47178 0.27602 0.0
C2483 C 0.94167 0.40975 0.28146 0.0
C2484 C 0.95158 0.41718 0.26479 0.0
C2485 C 0.93002 0.42203 0.29323 0.0
C2486 C 0.90131 0.46881 0.29173 0.0
H2487 H 0.86226 0.50285 0.38189 0.0
H2488 H 0.88688 0.48689 0.3618 0.0
H2489 H 0.87754 0.48959 0.29534 0.0
H2490 H 0.95743 0.44369 0.24779 0.0
H2491 H 0.93726 0.46554 0.2688 0.0
H2492 H 0.92108 0.44075 0.32878 0.0
C2493 C 0.87264 0.49004 0.3551 0.0
C2494 C 0.88679 0.47879 0.30278 0.0
C2495 C 0.85844 0.49947 0.36667 0.0
C2496 C 0.95025 0.43758 0.26072 0.0
C2497 C 0.93842 0.45 0.27258 0.0
C2498 C 0.91163 0.45125 0.32116 0.0
C2499 C 0.8688 0.48526 0.33518 0.0
C2500 C 0.88431 0.47489 0.32312 0.0
C2501 C 0.92782 0.44227 0.28881 0.0
C2502 C 0.91377 0.45465 0.30073 0.0
H2503 H 0.82173 0.50399 0.33224 0.0
H2504 H 0.84639 0.48668 0.31204 0.0
H2505 H 0.89567 0.45732 0.3476 0.0
H2506 H 0.94223 0.39409 0.28494 0.0
H2507 H 0.92195 0.41532 0.3053 0.0
C2508 C 0.78321 0.56747 0.60949 0.0
C2509 C 0.775 0.55051 0.60061 0.0
C2510 C 0.79566 0.5801 0.59878 0.0
C2511 C 0.80219 0.59634 0.54742 0.0
H2512 H 0.84721 0.62554 0.5681 0.0
C2513 C 0.84506 0.65191 0.49871 0.0
C2514 C 0.85285 0.66925 0.5074 0.0
C2515 C 0.8368 0.6369 0.51031 0.0
C2516 C 0.8345 0.61773 0.56215 0.0
H2517 H 0.77382 0.53314 0.57372 0.0
H2518 H 0.79578 0.555 0.55499 0.0
H2519 H 0.83228 0.59929 0.58795 0.0
H2520 H 0.85772 0.68427 0.53539 0.0
H2521 H 0.84292 0.65824 0.55565 0.0
H2522 H 0.80389 0.61502 0.52193 0.0
C2523 C 0.79271 0.55852 0.57031 0.0
C2524 C 0.82602 0.60256 0.57352 0.0
C2525 C 0.78046 0.54576 0.58115 0.0
C2526 C 0.85199 0.67114 0.52813 0.0
C2527 C 0.84359 0.6561 0.53978 0.0
C2528 C 0.81054 0.61159 0.53615 0.0
C2529 C 0.79984 0.57626 0.57875 0.0
C2530 C 0.80976 0.59163 0.56629 0.0
C2531 C 0.83587 0.63872 0.53103 0.0
C2532 C 0.82686 0.62254 0.5433 0.0
H2533 H 0.77871 0.57183 0.62424 0.0
H2534 H 0.80071 0.59367 0.60573 0.0
H2535 H 0.78939 0.5886 0.54156 0.0
H2536 H 0.84545 0.64974 0.48282 0.0
H2537 H 0.83141 0.62369 0.50294 0.0
C2538 C 0.67537 0.46171 0.65639 0.0
C2539 C 0.67116 0.47855 0.64485 0.0
C2540 C 0.66043 0.45285 0.66793 0.0
C2541 C 0.61017 0.4626 0.68909 0.0
H2542 H 0.60346 0.40571 0.68591 0.0
C2543 C 0.54548 0.42227 0.72879 0.0
C2544 C 0.53713 0.40552 0.71951 0.0
C2545 C 0.56256 0.43127 0.72119 0.0
C2546 C 0.605 0.42164 0.6869 0.0
H2547 H 0.64828 0.49985 0.63749 0.0
H2548 H 0.62268 0.48463 0.65706 0.0
H2549 H 0.63257 0.42111 0.67131 0.0
H2550 H 0.54006 0.38555 0.69457 0.0
H2551 H 0.56923 0.40162 0.68093 0.0
H2552 H 0.5824 0.46331 0.70408 0.0
C2553 C 0.63731 0.47808 0.65736 0.0
C2554 C 0.62192 0.43045 0.67874 0.0
C2555 C 0.65203 0.48672 0.64586 0.0
C2556 C 0.54599 0.39846 0.70208 0.0
C2557 C 0.56297 0.40753 0.69441 0.0
C2558 C 0.59334 0.4538 0.69732 0.0
C2559 C 0.64112 0.46086 0.66838 0.0
C2560 C 0.62454 0.45111 0.67934 0.0
C2561 C 0.57174 0.4239 0.70401 0.0
C2562 C 0.59029 0.4332 0.6961 0.0
H2563 H 0.68995 0.45508 0.65603 0.0
H2564 H 0.66395 0.43969 0.67641 0.0
H2565 H 0.61176 0.47853 0.69009 0.0
H2566 H 0.53937 0.42793 0.74245 0.0
H2567 H 0.56893 0.44362 0.72924 0.0
C2568 C 0.81546 0.31019 0.98866 0.0
C2569 C 0.8338 0.3027 0.98232 0.0
C2570 C 0.8061 0.32576 0.97827 0.0
C2571 C 0.79834 0.36803 0.96269 0.0
H2572 H 0.805 0.37481 0.90621 0.0
C2573 C 0.76819 0.43767 0.92043 0.0
C2574 C 0.77821 0.4441 0.90335 0.0
C2575 C 0.77375 0.42012 0.93024 0.0
C2576 C 0.80308 0.37339 0.92202 0.0
H2577 H 0.85608 0.30509 0.95957 0.0
H2578 H 0.83998 0.33167 0.94155 0.0
H2579 H 0.81442 0.34382 0.92161 0.0
H2580 H 0.8026 0.43724 0.88385 0.0
H2581 H 0.81293 0.40752 0.90137 0.0
H2582 H 0.78687 0.39766 0.96302 0.0
C2583 C 0.83252 0.32564 0.95434 0.0
C2584 C 0.80856 0.35544 0.93094 0.0
C2585 C 0.84182 0.31025 0.9647 0.0
C2586 C 0.7945 0.43288 0.89693 0.0
C2587 C 0.80024 0.41553 0.90688 0.0
C2588 C 0.79265 0.38599 0.9537 0.0
C2589 C 0.81484 0.33416 0.96127 0.0
C2590 C 0.80666 0.35253 0.95149 0.0
C2591 C 0.78971 0.40853 0.92345 0.0
C2592 C 0.79515 0.38911 0.93321 0.0
H2593 H 0.80908 0.30505 0.0024 0.0
H2594 H 0.79236 0.33164 0.98396 0.0
H2595 H 0.79686 0.36663 0.97858 0.0
H2596 H 0.75542 0.44571 0.92573 0.0
H2597 H 0.76501 0.41533 0.94274 0.0
C2598 C 0.79828 0.53989 0.16228 0.0
C2599 C 0.80073 0.5195 0.15867 0.0
C2600 C 0.8142 0.5515 0.16913 0.0
C2601 C 0.86952 0.5514 0.1745 0.0
H2602 H 0.85967 0.59077 0.21499 0.0
C2603 C 0.93284 0.59954 0.20912 0.0
C2604 C 0.93183 0.60268 0.2297 0.0
C2605 C 0.91687 0.59087 0.19879 0.0
C2606 C 0.86276 0.57978 0.20374 0.0
H2607 H 0.82212 0.4955 0.15944 0.0
H2608 H 0.84944 0.51547 0.17152 0.0
H2609 H 0.83201 0.57281 0.20033 0.0
H2610 H 0.91298 0.59898 0.25541 0.0
H2611 H 0.88572 0.58386 0.23768 0.0
H2612 H 0.90036 0.55782 0.17854 0.0
C2613 C 0.83539 0.52268 0.16876 0.0
C2614 C 0.84679 0.56963 0.19511 0.0
C2615 C 0.81956 0.51113 0.16195 0.0
C2616 C 0.91443 0.59695 0.23958 0.0
C2617 C 0.89859 0.58837 0.22932 0.0
C2618 C 0.88551 0.56153 0.18318 0.0
C2619 C 0.833 0.54304 0.17252 0.0
C2620 C 0.84993 0.55504 0.18058 0.0
C2621 C 0.89947 0.58521 0.20878 0.0
C2622 C 0.8824 0.57563 0.19819 0.0
H2623 H 0.78403 0.54688 0.15999 0.0
H2624 H 0.81177 0.56714 0.17168 0.0
H2625 H 0.87257 0.54054 0.16312 0.0
H2626 H 0.94598 0.60367 0.20099 0.0
H2627 H 0.9181 0.58877 0.18295 0.0
C2628 C 0.66676 0.71899 0.45411 0.0
C2629 C 0.64621 0.71955 0.45062 0.0
C2630 C 0.67849 0.70399 0.44577 0.0
C2631 C 0.67435 0.65278 0.4256 0.0
H2632 H 0.72775 0.6621 0.4073 0.0
C2633 C 0.73255 0.59043 0.4087 0.0
C2634 C 0.74394 0.59325 0.39158 0.0
C2635 C 0.71923 0.60516 0.41497 0.0
C2636 C 0.71283 0.65924 0.41233 0.0
H2637 H 0.62216 0.70513 0.43482 0.0
H2638 H 0.64256 0.67942 0.42003 0.0
H2639 H 0.70801 0.68983 0.41935 0.0
H2640 H 0.75014 0.6134 0.36752 0.0
H2641 H 0.72677 0.63878 0.37814 0.0
H2642 H 0.67942 0.62207 0.41891 0.0
C2643 C 0.6496 0.69029 0.42954 0.0
C2644 C 0.70154 0.67515 0.41938 0.0
C2645 C 0.63791 0.70522 0.43788 0.0
C2646 C 0.74119 0.61064 0.3805 0.0
C2647 C 0.72805 0.62532 0.38677 0.0
C2648 C 0.6858 0.63679 0.41894 0.0
C2649 C 0.66999 0.68916 0.4337 0.0
C2650 C 0.68209 0.6722 0.42605 0.0
C2651 C 0.71731 0.62306 0.40438 0.0
C2652 C 0.70513 0.63985 0.41205 0.0
H2653 H 0.67365 0.72956 0.46407 0.0
H2654 H 0.69409 0.70353 0.44949 0.0
H2655 H 0.65954 0.64982 0.43088 0.0
H2656 H 0.7349 0.57749 0.4179 0.0
H2657 H 0.7113 0.60303 0.4287 0.0
C2658 C 0.52882 0.85232 0.68075 0.0
C2659 C 0.50943 0.85909 0.67742 0.0
C2660 C 0.54003 0.84456 0.66518 0.0
C2661 C 0.53494 0.82473 0.61351 0.0
H2662 H 0.59208 0.82985 0.61417 0.0
C2663 C 0.58512 0.79804 0.54895 0.0
C2664 C 0.60013 0.78492 0.555 0.0
C2665 C 0.57435 0.80887 0.56297 0.0
C2666 C 0.57612 0.82834 0.61379 0.0
H2667 H 0.48682 0.86351 0.65497 0.0
H2668 H 0.50653 0.85087 0.62774 0.0
H2669 H 0.57267 0.84539 0.64022 0.0
H2670 H 0.61631 0.77376 0.5805 0.0
H2671 H 0.59805 0.79312 0.60477 0.0
H2672 H 0.53858 0.80797 0.58675 0.0
C2673 C 0.51296 0.85082 0.64246 0.0
C2674 C 0.56495 0.83709 0.62883 0.0
C2675 C 0.50164 0.85823 0.65809 0.0
C2676 C 0.60477 0.78363 0.5753 0.0
C2677 C 0.59436 0.79478 0.58923 0.0
C2678 C 0.54612 0.81627 0.59828 0.0
C2679 C 0.53229 0.8437 0.64575 0.0
C2680 C 0.54418 0.83518 0.62912 0.0
C2681 C 0.5788 0.80723 0.58328 0.0
C2682 C 0.56684 0.81774 0.59842 0.0
H2683 H 0.5352 0.85258 0.6955 0.0
H2684 H 0.55464 0.83889 0.66853 0.0
H2685 H 0.51908 0.82254 0.61326 0.0
H2686 H 0.58126 0.79944 0.53346 0.0
H2687 H 0.5625 0.81846 0.55796 0.0
loop_
_geom_bond_atom_site_label_1
_geom_bond_atom_site_label_2
_geom_bond_distance
_geom_bond_site_symmetry_2
_ccdc_geom_bond_type
Sc0 O3 2.025 . S
Sc0 O10 2.105 . S
Sc0 O13 2.105 . S
Sc0 O16 2.105 . S
Sc0 O19 2.105 . S
Sc1 O3 2.025 . S
Sc1 O11 2.105 . S
Sc1 O15 2.105 1_455 S
Sc1 O17 2.105 . S
Sc1 O21 2.105 1_455 S
Sc2 O3 2.025 1_655 S
Sc2 O12 2.105 . S
Sc2 O14 2.105 . S
Sc2 O18 2.105 . S
Sc2 O20 2.105 1_655 S
O3 Sc0 2.025 . S
O3 Sc1 2.025 . S
O3 Sc2 2.025 1_455 S
C4 O10 1.268 . S
C4 O20 1.268 . S
C5 O11 1.268 . S
C5 O19 1.268 . S
C6 O12 1.268 . S
C6 O21 1.268 . S
C7 O13 1.268 . S
C7 O17 1.268 . S
C8 O14 1.268 1_455 S
C8 O16 1.268 . S
C9 O15 1.268 . S
C9 O18 1.268 . S
O10 Sc0 2.105 . S
O10 C4 1.268 . S
O11 Sc1 2.105 . S
O11 C5 1.268 . S
O12 Sc2 2.105 . S
O12 C6 1.268 . S
O13 Sc0 2.105 . S
O13 C7 1.268 . S
O14 Sc2 2.105 . S
O14 C8 1.268 1_655 S
O15 Sc1 2.105 1_655 S
O15 C9 1.268 . S
O16 Sc0 2.105 . S
O16 C8 1.268 . S
O17 Sc1 2.105 . S
O17 C7 1.268 . S
O18 Sc2 2.105 . S
O18 C9 1.268 . S
O19 Sc0 2.105 . S
O19 C5 1.268 . S
O20 Sc2 2.105 1_455 S
O20 C4 1.268 . S
O21 Sc1 2.105 1_655 S
O21 C6 1.268 . S
Sc22 O25 2.025 . S
Sc22 O32 2.105 . S
Sc22 O35 2.105 . S
Sc22 O38 2.105 . S
Sc22 O41 2.105 . S
Sc23 O25 2.025 . S
Sc23 O33 2.105 . S
Sc23 O37 2.105 . S
Sc23 O39 2.105 . S
Sc23 O43 2.105 . S
Sc24 O25 2.025 . S
Sc24 O34 2.105 . S
Sc24 O36 2.105 . S
Sc24 O40 2.105 . S
Sc24 O42 2.105 . S
O25 Sc22 2.025 . S
O25 Sc23 2.025 . S
O25 Sc24 2.025 . S
C26 O32 1.268 . S
C26 O42 1.268 . S
C27 O33 1.268 . S
C27 O41 1.268 . S
C28 O34 1.268 . S
C28 O43 1.268 . S
C29 O35 1.268 . S
C29 O39 1.268 . S
C30 O36 1.268 . S
C30 O38 1.268 . S
C31 O37 1.268 . S
C31 O40 1.268 . S
O32 Sc22 2.105 . S
O32 C26 1.268 . S
O33 Sc23 2.105 . S
O33 C27 1.268 . S
O34 Sc24 2.105 . S
O34 C28 1.268 . S
O35 Sc22 2.105 . S
O35 C29 1.268 . S
O36 Sc24 2.105 . S
O36 C30 1.268 . S
O37 Sc23 2.105 . S
O37 C31 1.268 . S
O38 Sc22 2.105 . S
O38 C30 1.268 . S
O39 Sc23 2.105 . S
O39 C29 1.268 . S
O40 Sc24 2.105 . S
O40 C31 1.268 . S
O41 Sc22 2.105 . S
O41 C27 1.268 . S
O42 Sc24 2.105 . S
O42 C26 1.268 . S
O43 Sc23 2.105 . S
O43 C28 1.268 . S
Sc44 O47 2.025 . S
Sc44 O54 2.105 . S
Sc44 O57 2.105 . S
Sc44 O60 2.105 . S
Sc44 O63 2.105 . S
Sc45 O47 2.025 . S
Sc45 O55 2.105 . S
Sc45 O59 2.105 . S
Sc45 O61 2.105 . S
Sc45 O65 2.105 . S
Sc46 O47 2.025 . S
Sc46 O56 2.105 . S
Sc46 O58 2.105 . S
Sc46 O62 2.105 . S
Sc46 O64 2.105 . S
O47 Sc44 2.025 . S
O47 Sc45 2.025 . S
O47 Sc46 2.025 . S
C48 O54 1.268 . S
C48 O64 1.268 . S
C49 O55 1.268 . S
C49 O63 1.268 . S
C50 O56 1.268 . S
C50 O65 1.268 . S
C51 O57 1.268 . S
C51 O61 1.268 . S
C52 O58 1.268 . S
C52 O60 1.268 . S
C53 O59 1.268 . S
C53 O62 1.268 . S
O54 Sc44 2.105 . S
O54 C48 1.268 . S
O55 Sc45 2.105 . S
O55 C49 1.268 . S
O56 Sc46 2.105 . S
O56 C50 1.268 . S
O57 Sc44 2.105 . S
O57 C51 1.268 . S
O58 Sc46 2.105 . S
O58 C52 1.268 . S
O59 Sc45 2.105 . S
O59 C53 1.268 . S
O60 Sc44 2.105 . S
O60 C52 1.268 . S
O61 Sc45 2.105 . S
O61 C51 1.268 . S
O62 Sc46 2.105 . S
O62 C53 1.268 . S
O63 Sc44 2.105 . S
O63 C49 1.268 . S
O64 Sc46 2.105 . S
O64 C48 1.268 . S
O65 Sc45 2.105 . S
O65 C50 1.268 . S
Sc66 O69 2.025 1_554 S
Sc66 O76 2.105 . S
Sc66 O79 2.105 . S
Sc66 O82 2.105 . S
Sc66 O85 2.105 1_554 S
Sc67 O69 2.025 . S
Sc67 O77 2.105 . S
Sc67 O81 2.105 . S
Sc67 O83 2.105 . S
Sc67 O87 2.105 . S
Sc68 O69 2.025 . S
Sc68 O78 2.105 . S
Sc68 O80 2.105 1_556 S
Sc68 O84 2.105 . S
Sc68 O86 2.105 1_556 S
O69 Sc66 2.025 1_556 S
O69 Sc67 2.025 . S
O69 Sc68 2.025 . S
C70 O76 1.268 . S
C70 O86 1.268 . S
C71 O77 1.268 . S
C71 O85 1.268 . S
C72 O78 1.268 . S
C72 O87 1.268 . S
C73 O79 1.268 1_556 S
C73 O83 1.268 . S
C74 O80 1.268 . S
C74 O82 1.268 . S
C75 O81 1.268 . S
C75 O84 1.268 . S
O76 Sc66 2.105 . S
O76 C70 1.268 . S
O77 Sc67 2.105 . S
O77 C71 1.268 . S
O78 Sc68 2.105 . S
O78 C72 1.268 . S
O79 Sc66 2.105 . S
O79 C73 1.268 1_554 S
O80 Sc68 2.105 1_554 S
O80 C74 1.268 . S
O81 Sc67 2.105 . S
O81 C75 1.268 . S
O82 Sc66 2.105 . S
O82 C74 1.268 . S
O83 Sc67 2.105 . S
O83 C73 1.268 . S
O84 Sc68 2.105 . S
O84 C75 1.268 . S
O85 Sc66 2.105 1_556 S
O85 C71 1.268 . S
O86 Sc68 2.105 1_554 S
O86 C70 1.268 . S
O87 Sc67 2.105 . S
O87 C72 1.268 . S
Sc88 O91 2.025 . S
Sc88 O98 2.105 . S
Sc88 O101 2.105 . S
Sc88 O104 2.105 . S
Sc88 O107 2.105 . S
Sc89 O91 2.025 . S
Sc89 O99 2.105 . S
Sc89 O103 2.105 1_455 S
Sc89 O105 2.105 . S
Sc89 O109 2.105 1_455 S
Sc90 O91 2.025 1_655 S
Sc90 O100 2.105 . S
Sc90 O102 2.105 . S
Sc90 O106 2.105 . S
Sc90 O108 2.105 1_655 S
O91 Sc88 2.025 . S
O91 Sc89 2.025 . S
O91 Sc90 2.025 1_455 S
C92 O98 1.268 . S
C92 O108 1.268 . S
C93 O99 1.268 . S
C93 O107 1.268 . S
C94 O100 1.268 . S
C94 O109 1.268 . S
C95 O101 1.268 . S
C95 O105 1.268 . S
C96 O102 1.268 1_455 S
C96 O104 1.268 . S
C97 O103 1.268 . S
C97 O106 1.268 . S
O98 Sc88 2.105 . S
O98 C92 1.268 . S
O99 Sc89 2.105 . S
O99 C93 1.268 . S
O100 Sc90 2.105 . S
O100 C94 1.268 . S
O101 Sc88 2.105 . S
O101 C95 1.268 . S
O102 Sc90 2.105 . S
O102 C96 1.268 1_655 S
O103 Sc89 2.105 1_655 S
O103 C97 1.268 . S
O104 Sc88 2.105 . S
O104 C96 1.268 . S
O105 Sc89 2.105 . S
O105 C95 1.268 . S
O106 Sc90 2.105 . S
O106 C97 1.268 . S
O107 Sc88 2.105 . S
O107 C93 1.268 . S
O108 Sc90 2.105 1_455 S
O108 C92 1.268 . S
O109 Sc89 2.105 1_655 S
O109 C94 1.268 . S
Sc110 O113 2.025 . S
Sc110 O120 2.105 . S
Sc110 O123 2.105 . S
Sc110 O126 2.105 . S
Sc110 O129 2.105 . S
Sc111 O113 2.025 . S
Sc111 O121 2.105 . S
Sc111 O125 2.105 . S
Sc111 O127 2.105 . S
Sc111 O131 2.105 . S
Sc112 O113 2.025 . S
Sc112 O122 2.105 . S
Sc112 O124 2.105 . S
Sc112 O128 2.105 . S
Sc112 O130 2.105 . S
O113 Sc110 2.025 . S
O113 Sc111 2.025 . S
O113 Sc112 2.025 . S
C114 O120 1.268 . S
C114 O130 1.268 . S
C115 O121 1.268 . S
C115 O129 1.268 . S
C116 O122 1.268 . S
C116 O131 1.268 . S
C117 O123 1.268 . S
C117 O127 1.268 . S
C118 O124 1.268 . S
C118 O126 1.268 . S
C119 O125 1.268 . S
C119 O128 1.268 . S
O120 Sc110 2.105 . S
O120 C114 1.268 . S
O121 Sc111 2.105 . S
O121 C115 1.268 . S
O122 Sc112 2.105 . S
O122 C116 1.268 . S
O123 Sc110 2.105 . S
O123 C117 1.268 . S
O124 Sc112 2.105 . S
O124 C118 1.268 . S
O125 Sc111 2.105 . S
O125 C119 1.268 . S
O126 Sc110 2.105 . S
O126 C118 1.268 . S
O127 Sc111 2.105 . S
O127 C117 1.268 . S
O128 Sc112 2.105 . S
O128 C119 1.268 . S
O129 Sc110 2.105 . S
O129 C115 1.268 . S
O130 Sc112 2.105 . S
O130 C114 1.268 . S
O131 Sc111 2.105 . S
O131 C116 1.268 . S
Sc132 O135 2.025 . S
Sc132 O142 2.105 . S
Sc132 O145 2.105 . S
Sc132 O148 2.105 . S
Sc132 O151 2.105 . S
Sc133 O135 2.025 . S
Sc133 O143 2.105 . S
Sc133 O147 2.105 . S
Sc133 O149 2.105 . S
Sc133 O153 2.105 . S
Sc134 O135 2.025 . S
Sc134 O144 2.105 . S
Sc134 O146 2.105 . S
Sc134 O150 2.105 . S
Sc134 O152 2.105 . S
O135 Sc132 2.025 . S
O135 Sc133 2.025 . S
O135 Sc134 2.025 . S
C136 O142 1.268 . S
C136 O152 1.268 . S
C137 O143 1.268 . S
C137 O151 1.268 . S
C138 O144 1.268 . S
C138 O153 1.268 . S
C139 O145 1.268 . S
C139 O149 1.268 . S
C140 O146 1.268 . S
C140 O148 1.268 . S
C141 O147 1.268 . S
C141 O150 1.268 . S
O142 Sc132 2.105 . S
O142 C136 1.268 . S
O143 Sc133 2.105 . S
O143 C137 1.268 . S
O144 Sc134 2.105 . S
O144 C138 1.268 . S
O145 Sc132 2.105 . S
O145 C139 1.268 . S
O146 Sc134 2.105 . S
O146 C140 1.268 . S
O147 Sc133 2.105 . S
O147 C141 1.268 . S
O148 Sc132 2.105 . S
O148 C140 1.268 . S
O149 Sc133 2.105 . S
O149 C139 1.268 . S
O150 Sc134 2.105 . S
O150 C141 1.268 . S
O151 Sc132 2.105 . S
O151 C137 1.268 . S
O152 Sc134 2.105 . S
O152 C136 1.268 . S
O153 Sc133 2.105 . S
O153 C138 1.268 . S
Sc154 O157 2.025 . S
Sc154 O164 2.105 . S
Sc154 O167 2.105 . S
Sc154 O170 2.105 . S
Sc154 O173 2.105 . S
Sc155 O157 2.025 . S
Sc155 O165 2.105 . S
Sc155 O169 2.105 1_554 S
Sc155 O171 2.105 . S
Sc155 O175 2.105 1_554 S
Sc156 O157 2.025 1_556 S
Sc156 O166 2.105 . S
Sc156 O168 2.105 . S
Sc156 O172 2.105 . S
Sc156 O174 2.105 1_556 S
O157 Sc154 2.025 . S
O157 Sc155 2.025 . S
O157 Sc156 2.025 1_554 S
C158 O164 1.268 . S
C158 O174 1.268 . S
C159 O165 1.268 . S
C159 O173 1.268 . S
C160 O166 1.268 . S
C160 O175 1.268 . S
C161 O167 1.268 . S
C161 O171 1.268 . S
C162 O168 1.268 1_554 S
C162 O170 1.268 . S
C163 O169 1.268 . S
C163 O172 1.268 . S
O164 Sc154 2.105 . S
O164 C158 1.268 . S
O165 Sc155 2.105 . S
O165 C159 1.268 . S
O166 Sc156 2.105 . S
O166 C160 1.268 . S
O167 Sc154 2.105 . S
O167 C161 1.268 . S
O168 Sc156 2.105 . S
O168 C162 1.268 1_556 S
O169 Sc155 2.105 1_556 S
O169 C163 1.268 . S
O170 Sc154 2.105 . S
O170 C162 1.268 . S
O171 Sc155 2.105 . S
O171 C161 1.268 . S
O172 Sc156 2.105 . S
O172 C163 1.268 . S
O173 Sc154 2.105 . S
O173 C159 1.268 . S
O174 Sc156 2.105 1_554 S
O174 C158 1.268 . S
O175 Sc155 2.105 1_556 S
O175 C160 1.268 . S
Sc176 O179 2.025 . S
Sc176 O186 2.105 . S
Sc176 O189 2.105 . S
Sc176 O192 2.105 . S
Sc176 O195 2.105 . S
Sc177 O179 2.025 . S
Sc177 O187 2.105 . S
Sc177 O191 2.105 1_545 S
Sc177 O193 2.105 . S
Sc177 O197 2.105 1_545 S
Sc178 O179 2.025 1_565 S
Sc178 O188 2.105 . S
Sc178 O190 2.105 . S
Sc178 O194 2.105 . S
Sc178 O196 2.105 1_565 S
O179 Sc176 2.025 . S
O179 Sc177 2.025 . S
O179 Sc178 2.025 1_545 S
C180 O186 1.268 . S
C180 O196 1.268 . S
C181 O187 1.268 . S
C181 O195 1.268 . S
C182 O188 1.268 . S
C182 O197 1.268 . S
C183 O189 1.268 . S
C183 O193 1.268 . S
C184 O190 1.268 1_545 S
C184 O192 1.268 . S
C185 O191 1.268 . S
C185 O194 1.268 . S
O186 Sc176 2.105 . S
O186 C180 1.268 . S
O187 Sc177 2.105 . S
O187 C181 1.268 . S
O188 Sc178 2.105 . S
O188 C182 1.268 . S
O189 Sc176 2.105 . S
O189 C183 1.268 . S
O190 Sc178 2.105 . S
O190 C184 1.268 1_565 S
O191 Sc177 2.105 1_565 S
O191 C185 1.268 . S
O192 Sc176 2.105 . S
O192 C184 1.268 . S
O193 Sc177 2.105 . S
O193 C183 1.268 . S
O194 Sc178 2.105 . S
O194 C185 1.268 . S
O195 Sc176 2.105 . S
O195 C181 1.268 . S
O196 Sc178 2.105 1_545 S
O196 C180 1.268 . S
O197 Sc177 2.105 1_565 S
O197 C182 1.268 . S
Sc198 O201 2.025 . S
Sc198 O208 2.105 1_565 S
Sc198 O211 2.105 . S
Sc198 O214 2.105 1_565 S
Sc198 O217 2.105 . S
Sc199 O201 2.025 . S
Sc199 O209 2.105 . S
Sc199 O213 2.105 . S
Sc199 O215 2.105 . S
Sc199 O219 2.105 . S
Sc200 O201 2.025 1_545 S
Sc200 O210 2.105 . S
Sc200 O212 2.105 . S
Sc200 O216 2.105 1_545 S
Sc200 O218 2.105 . S
O201 Sc198 2.025 . S
O201 Sc199 2.025 . S
O201 Sc200 2.025 1_565 S
C202 O208 1.268 . S
C202 O218 1.268 . S
C203 O209 1.268 . S
C203 O217 1.268 . S
C204 O210 1.268 1_565 S
C204 O219 1.268 . S
C205 O211 1.268 . S
C205 O215 1.268 . S
C206 O212 1.268 . S
C206 O214 1.268 . S
C207 O213 1.268 . S
C207 O216 1.268 . S
O208 Sc198 2.105 1_545 S
O208 C202 1.268 . S
O209 Sc199 2.105 . S
O209 C203 1.268 . S
O210 Sc200 2.105 . S
O210 C204 1.268 1_545 S
O211 Sc198 2.105 . S
O211 C205 1.268 . S
O212 Sc200 2.105 . S
O212 C206 1.268 . S
O213 Sc199 2.105 . S
O213 C207 1.268 . S
O214 Sc198 2.105 1_545 S
O214 C206 1.268 . S
O215 Sc199 2.105 . S
O215 C205 1.268 . S
O216 Sc200 2.105 1_565 S
O216 C207 1.268 . S
O217 Sc198 2.105 . S
O217 C203 1.268 . S
O218 Sc200 2.105 . S
O218 C202 1.268 . S
O219 Sc199 2.105 . S
O219 C204 1.268 . S
Sc220 O223 2.025 . S
Sc220 O230 2.105 . S
Sc220 O233 2.105 . S
Sc220 O236 2.105 . S
Sc220 O239 2.105 . S
Sc221 O223 2.025 . S
Sc221 O231 2.105 . S
Sc221 O235 2.105 1_565 S
Sc221 O237 2.105 . S
Sc221 O241 2.105 1_565 S
Sc222 O223 2.025 1_545 S
Sc222 O232 2.105 . S
Sc222 O234 2.105 . S
Sc222 O238 2.105 . S
Sc222 O240 2.105 1_545 S
O223 Sc220 2.025 . S
O223 Sc221 2.025 . S
O223 Sc222 2.025 1_565 S
C224 O230 1.268 . S
C224 O240 1.268 . S
C225 O231 1.268 . S
C225 O239 1.268 . S
C226 O232 1.268 . S
C226 O241 1.268 . S
C227 O233 1.268 . S
C227 O237 1.268 . S
C228 O234 1.268 1_565 S
C228 O236 1.268 . S
C229 O235 1.268 . S
C229 O238 1.268 . S
O230 Sc220 2.105 . S
O230 C224 1.268 . S
O231 Sc221 2.105 . S
O231 C225 1.268 . S
O232 Sc222 2.105 . S
O232 C226 1.268 . S
O233 Sc220 2.105 . S
O233 C227 1.268 . S
O234 Sc222 2.105 . S
O234 C228 1.268 1_545 S
O235 Sc221 2.105 1_545 S
O235 C229 1.268 . S
O236 Sc220 2.105 . S
O236 C228 1.268 . S
O237 Sc221 2.105 . S
O237 C227 1.268 . S
O238 Sc222 2.105 . S
O238 C229 1.268 . S
O239 Sc220 2.105 . S
O239 C225 1.268 . S
O240 Sc222 2.105 1_565 S
O240 C224 1.268 . S
O241 Sc221 2.105 1_545 S
O241 C226 1.268 . S
Sc242 O245 2.025 1_565 S
Sc242 O252 2.105 . S
Sc242 O255 2.105 . S
Sc242 O258 2.105 1_565 S
Sc242 O261 2.105 . S
Sc243 O245 2.025 . S
Sc243 O253 2.105 1_545 S
Sc243 O257 2.105 . S
Sc243 O259 2.105 1_545 S
Sc243 O263 2.105 . S
Sc244 O245 2.025 . S
Sc244 O254 2.105 . S
Sc244 O256 2.105 . S
Sc244 O260 2.105 . S
Sc244 O262 2.105 . S
O245 Sc242 2.025 1_545 S
O245 Sc243 2.025 . S
O245 Sc244 2.025 . S
C246 O252 1.268 1_545 S
C246 O262 1.268 . S
C247 O253 1.268 . S
C247 O261 1.268 . S
C248 O254 1.268 . S
C248 O263 1.268 . S
C249 O255 1.268 . S
C249 O259 1.268 . S
C250 O256 1.268 . S
C250 O258 1.268 . S
C251 O257 1.268 . S
C251 O260 1.268 . S
O252 Sc242 2.105 . S
O252 C246 1.268 1_565 S
O253 Sc243 2.105 1_565 S
O253 C247 1.268 . S
O254 Sc244 2.105 . S
O254 C248 1.268 . S
O255 Sc242 2.105 . S
O255 C249 1.268 . S
O256 Sc244 2.105 . S
O256 C250 1.268 . S
O257 Sc243 2.105 . S
O257 C251 1.268 . S
O258 Sc242 2.105 1_545 S
O258 C250 1.268 . S
O259 Sc243 2.105 1_565 S
O259 C249 1.268 . S
O260 Sc244 2.105 . S
O260 C251 1.268 . S
O261 Sc242 2.105 . S
O261 C247 1.268 . S
O262 Sc244 2.105 . S
O262 C246 1.268 . S
O263 Sc243 2.105 . S
O263 C248 1.268 . S
Sc264 O267 2.025 . S
Sc264 O274 2.105 1_556 S
Sc264 O277 2.105 . S
Sc264 O280 2.105 1_556 S
Sc264 O283 2.105 . S
Sc265 O267 2.025 . S
Sc265 O275 2.105 . S
Sc265 O279 2.105 . S
Sc265 O281 2.105 . S
Sc265 O285 2.105 . S
Sc266 O267 2.025 1_554 S
Sc266 O276 2.105 . S
Sc266 O278 2.105 . S
Sc266 O282 2.105 1_554 S
Sc266 O284 2.105 . S
O267 Sc264 2.025 . S
O267 Sc265 2.025 . S
O267 Sc266 2.025 1_556 S
C268 O274 1.268 . S
C268 O284 1.268 . S
C269 O275 1.268 . S
C269 O283 1.268 . S
C270 O276 1.268 1_556 S
C270 O285 1.268 . S
C271 O277 1.268 . S
C271 O281 1.268 . S
C272 O278 1.268 . S
C272 O280 1.268 . S
C273 O279 1.268 . S
C273 O282 1.268 . S
O274 Sc264 2.105 1_554 S
O274 C268 1.268 . S
O275 Sc265 2.105 . S
O275 C269 1.268 . S
O276 Sc266 2.105 . S
O276 C270 1.268 1_554 S
O277 Sc264 2.105 . S
O277 C271 1.268 . S
O278 Sc266 2.105 . S
O278 C272 1.268 . S
O279 Sc265 2.105 . S
O279 C273 1.268 . S
O280 Sc264 2.105 1_554 S
O280 C272 1.268 . S
O281 Sc265 2.105 . S
O281 C271 1.268 . S
O282 Sc266 2.105 1_556 S
O282 C273 1.268 . S
O283 Sc264 2.105 . S
O283 C269 1.268 . S
O284 Sc266 2.105 . S
O284 C268 1.268 . S
O285 Sc265 2.105 . S
O285 C270 1.268 . S
Sc286 O289 2.025 . S
Sc286 O296 2.105 1_655 S
Sc286 O299 2.105 . S
Sc286 O302 2.105 1_655 S
Sc286 O305 2.105 . S
Sc287 O289 2.025 . S
Sc287 O297 2.105 . S
Sc287 O301 2.105 . S
Sc287 O303 2.105 . S
Sc287 O307 2.105 . S
Sc288 O289 2.025 1_455 S
Sc288 O298 2.105 . S
Sc288 O300 2.105 . S
Sc288 O304 2.105 1_455 S
Sc288 O306 2.105 . S
O289 Sc286 2.025 . S
O289 Sc287 2.025 . S
O289 Sc288 2.025 1_655 S
C290 O296 1.268 . S
C290 O306 1.268 . S
C291 O297 1.268 . S
C291 O305 1.268 . S
C292 O298 1.268 1_655 S
C292 O307 1.268 . S
C293 O299 1.268 . S
C293 O303 1.268 . S
C294 O300 1.268 . S
C294 O302 1.268 . S
C295 O301 1.268 . S
C295 O304 1.268 . S
O296 Sc286 2.105 1_455 S
O296 C290 1.268 . S
O297 Sc287 2.105 . S
O297 C291 1.268 . S
O298 Sc288 2.105 . S
O298 C292 1.268 1_455 S
O299 Sc286 2.105 . S
O299 C293 1.268 . S
O300 Sc288 2.105 . S
O300 C294 1.268 . S
O301 Sc287 2.105 . S
O301 C295 1.268 . S
O302 Sc286 2.105 1_455 S
O302 C294 1.268 . S
O303 Sc287 2.105 . S
O303 C293 1.268 . S
O304 Sc288 2.105 1_655 S
O304 C295 1.268 . S
O305 Sc286 2.105 . S
O305 C291 1.268 . S
O306 Sc288 2.105 . S
O306 C290 1.268 . S
O307 Sc287 2.105 . S
O307 C292 1.268 . S
Sc308 O311 2.025 . S
Sc308 O318 2.105 . S
Sc308 O321 2.105 . S
Sc308 O324 2.105 . S
Sc308 O327 2.105 . S
Sc309 O311 2.025 . S
Sc309 O319 2.105 . S
Sc309 O323 2.105 . S
Sc309 O325 2.105 . S
Sc309 O329 2.105 . S
Sc310 O311 2.025 . S
Sc310 O320 2.105 . S
Sc310 O322 2.105 . S
Sc310 O326 2.105 . S
Sc310 O328 2.105 . S
O311 Sc308 2.025 . S
O311 Sc309 2.025 . S
O311 Sc310 2.025 . S
C312 O318 1.268 . S
C312 O328 1.268 . S
C313 O319 1.268 . S
C313 O327 1.268 . S
C314 O320 1.268 . S
C314 O329 1.268 . S
C315 O321 1.268 . S
C315 O325 1.268 . S
C316 O322 1.268 . S
C316 O324 1.268 . S
C317 O323 1.268 . S
C317 O326 1.268 . S
O318 Sc308 2.105 . S
O318 C312 1.268 . S
O319 Sc309 2.105 . S
O319 C313 1.268 . S
O320 Sc310 2.105 . S
O320 C314 1.268 . S
O321 Sc308 2.105 . S
O321 C315 1.268 . S
O322 Sc310 2.105 . S
O322 C316 1.268 . S
O323 Sc309 2.105 . S
O323 C317 1.268 . S
O324 Sc308 2.105 . S
O324 C316 1.268 . S
O325 Sc309 2.105 . S
O325 C315 1.268 . S
O326 Sc310 2.105 . S
O326 C317 1.268 . S
O327 Sc308 2.105 . S
O327 C313 1.268 . S
O328 Sc310 2.105 . S
O328 C312 1.268 . S
O329 Sc309 2.105 . S
O329 C314 1.268 . S
Sc330 O333 2.025 . S
Sc330 O340 2.105 . S
Sc330 O343 2.105 . S
Sc330 O346 2.105 . S
Sc330 O349 2.105 . S
Sc331 O333 2.025 . S
Sc331 O341 2.105 . S
Sc331 O345 2.105 1_655 S
Sc331 O347 2.105 . S
Sc331 O351 2.105 1_655 S
Sc332 O333 2.025 1_455 S
Sc332 O342 2.105 . S
Sc332 O344 2.105 . S
Sc332 O348 2.105 . S
Sc332 O350 2.105 1_455 S
O333 Sc330 2.025 . S
O333 Sc331 2.025 . S
O333 Sc332 2.025 1_655 S
C334 O340 1.268 . S
C334 O350 1.268 . S
C335 O341 1.268 . S
C335 O349 1.268 . S
C336 O342 1.268 . S
C336 O351 1.268 . S
C337 O343 1.268 . S
C337 O347 1.268 . S
C338 O344 1.268 1_655 S
C338 O346 1.268 . S
C339 O345 1.268 . S
C339 O348 1.268 . S
O340 Sc330 2.105 . S
O340 C334 1.268 . S
O341 Sc331 2.105 . S
O341 C335 1.268 . S
O342 Sc332 2.105 . S
O342 C336 1.268 . S
O343 Sc330 2.105 . S
O343 C337 1.268 . S
O344 Sc332 2.105 . S
O344 C338 1.268 1_455 S
O345 Sc331 2.105 1_455 S
O345 C339 1.268 . S
O346 Sc330 2.105 . S
O346 C338 1.268 . S
O347 Sc331 2.105 . S
O347 C337 1.268 . S
O348 Sc332 2.105 . S
O348 C339 1.268 . S
O349 Sc330 2.105 . S
O349 C335 1.268 . S
O350 Sc332 2.105 1_655 S
O350 C334 1.268 . S
O351 Sc331 2.105 1_455 S
O351 C336 1.268 . S
Sc352 O355 2.025 . S
Sc352 O362 2.105 . S
Sc352 O365 2.105 . S
Sc352 O368 2.105 . S
Sc352 O371 2.105 . S
Sc353 O355 2.025 . S
Sc353 O363 2.105 . S
Sc353 O367 2.105 . S
Sc353 O369 2.105 . S
Sc353 O373 2.105 . S
Sc354 O355 2.025 . S
Sc354 O364 2.105 . S
Sc354 O366 2.105 . S
Sc354 O370 2.105 . S
Sc354 O372 2.105 . S
O355 Sc352 2.025 . S
O355 Sc353 2.025 . S
O355 Sc354 2.025 . S
C356 O362 1.268 . S
C356 O372 1.268 . S
C357 O363 1.268 . S
C357 O371 1.268 . S
C358 O364 1.268 . S
C358 O373 1.268 . S
C359 O365 1.268 . S
C359 O369 1.268 . S
C360 O366 1.268 . S
C360 O368 1.268 . S
C361 O367 1.268 . S
C361 O370 1.268 . S
O362 Sc352 2.105 . S
O362 C356 1.268 . S
O363 Sc353 2.105 . S
O363 C357 1.268 . S
O364 Sc354 2.105 . S
O364 C358 1.268 . S
O365 Sc352 2.105 . S
O365 C359 1.268 . S
O366 Sc354 2.105 . S
O366 C360 1.268 . S
O367 Sc353 2.105 . S
O367 C361 1.268 . S
O368 Sc352 2.105 . S
O368 C360 1.268 . S
O369 Sc353 2.105 . S
O369 C359 1.268 . S
O370 Sc354 2.105 . S
O370 C361 1.268 . S
O371 Sc352 2.105 . S
O371 C357 1.268 . S
O372 Sc354 2.105 . S
O372 C356 1.268 . S
O373 Sc353 2.105 . S
O373 C358 1.268 . S
Sc374 O377 2.025 . S
Sc374 O384 2.105 . S
Sc374 O387 2.105 . S
Sc374 O390 2.105 . S
Sc374 O393 2.105 . S
Sc375 O377 2.025 . S
Sc375 O385 2.105 . S
Sc375 O389 2.105 . S
Sc375 O391 2.105 . S
Sc375 O395 2.105 . S
Sc376 O377 2.025 . S
Sc376 O386 2.105 . S
Sc376 O388 2.105 . S
Sc376 O392 2.105 . S
Sc376 O394 2.105 . S
O377 Sc374 2.025 . S
O377 Sc375 2.025 . S
O377 Sc376 2.025 . S
C378 O384 1.268 . S
C378 O394 1.268 . S
C379 O385 1.268 . S
C379 O393 1.268 . S
C380 O386 1.268 . S
C380 O395 1.268 . S
C381 O387 1.268 . S
C381 O391 1.268 . S
C382 O388 1.268 . S
C382 O390 1.268 . S
C383 O389 1.268 . S
C383 O392 1.268 . S
O384 Sc374 2.105 . S
O384 C378 1.268 . S
O385 Sc375 2.105 . S
O385 C379 1.268 . S
O386 Sc376 2.105 . S
O386 C380 1.268 . S
O387 Sc374 2.105 . S
O387 C381 1.268 . S
O388 Sc376 2.105 . S
O388 C382 1.268 . S
O389 Sc375 2.105 . S
O389 C383 1.268 . S
O390 Sc374 2.105 . S
O390 C382 1.268 . S
O391 Sc375 2.105 . S
O391 C381 1.268 . S
O392 Sc376 2.105 . S
O392 C383 1.268 . S
O393 Sc374 2.105 . S
O393 C379 1.268 . S
O394 Sc376 2.105 . S
O394 C378 1.268 . S
O395 Sc375 2.105 . S
O395 C380 1.268 . S
Sc396 O399 2.025 1_556 S
Sc396 O406 2.105 . S
Sc396 O409 2.105 . S
Sc396 O412 2.105 1_556 S
Sc396 O415 2.105 . S
Sc397 O399 2.025 . S
Sc397 O407 2.105 1_554 S
Sc397 O411 2.105 . S
Sc397 O413 2.105 1_554 S
Sc397 O417 2.105 . S
Sc398 O399 2.025 . S
Sc398 O408 2.105 . S
Sc398 O410 2.105 . S
Sc398 O414 2.105 . S
Sc398 O416 2.105 . S
O399 Sc396 2.025 1_554 S
O399 Sc397 2.025 . S
O399 Sc398 2.025 . S
C400 O406 1.268 1_554 S
C400 O416 1.268 . S
C401 O407 1.268 . S
C401 O415 1.268 . S
C402 O408 1.268 . S
C402 O417 1.268 . S
C403 O409 1.268 . S
C403 O413 1.268 . S
C404 O410 1.268 . S
C404 O412 1.268 . S
C405 O411 1.268 . S
C405 O414 1.268 . S
O406 Sc396 2.105 . S
O406 C400 1.268 1_556 S
O407 Sc397 2.105 1_556 S
O407 C401 1.268 . S
O408 Sc398 2.105 . S
O408 C402 1.268 . S
O409 Sc396 2.105 . S
O409 C403 1.268 . S
O410 Sc398 2.105 . S
O410 C404 1.268 . S
O411 Sc397 2.105 . S
O411 C405 1.268 . S
O412 Sc396 2.105 1_554 S
O412 C404 1.268 . S
O413 Sc397 2.105 1_556 S
O413 C403 1.268 . S
O414 Sc398 2.105 . S
O414 C405 1.268 . S
O415 Sc396 2.105 . S
O415 C401 1.268 . S
O416 Sc398 2.105 . S
O416 C400 1.268 . S
O417 Sc397 2.105 . S
O417 C402 1.268 . S
Sc418 O421 2.025 . S
Sc418 O428 2.105 . S
Sc418 O431 2.105 . S
Sc418 O434 2.105 . S
Sc418 O437 2.105 . S
Sc419 O421 2.025 . S
Sc419 O429 2.105 . S
Sc419 O433 2.105 . S
Sc419 O435 2.105 . S
Sc419 O439 2.105 . S
Sc420 O421 2.025 . S
Sc420 O430 2.105 . S
Sc420 O432 2.105 . S
Sc420 O436 2.105 . S
Sc420 O438 2.105 . S
O421 Sc418 2.025 . S
O421 Sc419 2.025 . S
O421 Sc420 2.025 . S
C422 O428 1.268 . S
C422 O438 1.268 . S
C423 O429 1.268 . S
C423 O437 1.268 . S
C424 O430 1.268 . S
C424 O439 1.268 . S
C425 O431 1.268 . S
C425 O435 1.268 . S
C426 O432 1.268 . S
C426 O434 1.268 . S
C427 O433 1.268 . S
C427 O436 1.268 . S
O428 Sc418 2.105 . S
O428 C422 1.268 . S
O429 Sc419 2.105 . S
O429 C423 1.268 . S
O430 Sc420 2.105 . S
O430 C424 1.268 . S
O431 Sc418 2.105 . S
O431 C425 1.268 . S
O432 Sc420 2.105 . S
O432 C426 1.268 . S
O433 Sc419 2.105 . S
O433 C427 1.268 . S
O434 Sc418 2.105 . S
O434 C426 1.268 . S
O435 Sc419 2.105 . S
O435 C425 1.268 . S
O436 Sc420 2.105 . S
O436 C427 1.268 . S
O437 Sc418 2.105 . S
O437 C423 1.268 . S
O438 Sc420 2.105 . S
O438 C422 1.268 . S
O439 Sc419 2.105 . S
O439 C424 1.268 . S
Sc440 O443 2.025 . S
Sc440 O450 2.105 . S
Sc440 O453 2.105 . S
Sc440 O456 2.105 . S
Sc440 O459 2.105 . S
Sc441 O443 2.025 . S
Sc441 O451 2.105 . S
Sc441 O455 2.105 . S
Sc441 O457 2.105 . S
Sc441 O461 2.105 . S
Sc442 O443 2.025 . S
Sc442 O452 2.105 . S
Sc442 O454 2.105 . S
Sc442 O458 2.105 . S
Sc442 O460 2.105 . S
O443 Sc440 2.025 . S
O443 Sc441 2.025 . S
O443 Sc442 2.025 . S
C444 O450 1.268 . S
C444 O460 1.268 . S
C445 O451 1.268 . S
C445 O459 1.268 . S
C446 O452 1.268 . S
C446 O461 1.268 . S
C447 O453 1.268 . S
C447 O457 1.268 . S
C448 O454 1.268 . S
C448 O456 1.268 . S
C449 O455 1.268 . S
C449 O458 1.268 . S
O450 Sc440 2.105 . S
O450 C444 1.268 . S
O451 Sc441 2.105 . S
O451 C445 1.268 . S
O452 Sc442 2.105 . S
O452 C446 1.268 . S
O453 Sc440 2.105 . S
O453 C447 1.268 . S
O454 Sc442 2.105 . S
O454 C448 1.268 . S
O455 Sc441 2.105 . S
O455 C449 1.268 . S
O456 Sc440 2.105 . S
O456 C448 1.268 . S
O457 Sc441 2.105 . S
O457 C447 1.268 . S
O458 Sc442 2.105 . S
O458 C449 1.268 . S
O459 Sc440 2.105 . S
O459 C445 1.268 . S
O460 Sc442 2.105 . S
O460 C444 1.268 . S
O461 Sc441 2.105 . S
O461 C446 1.268 . S
Sc462 O465 2.025 . S
Sc462 O472 2.105 . S
Sc462 O475 2.105 . S
Sc462 O478 2.105 . S
Sc462 O481 2.105 . S
Sc463 O465 2.025 . S
Sc463 O473 2.105 . S
Sc463 O477 2.105 . S
Sc463 O479 2.105 . S
Sc463 O483 2.105 . S
Sc464 O465 2.025 . S
Sc464 O474 2.105 . S
Sc464 O476 2.105 . S
Sc464 O480 2.105 . S
Sc464 O482 2.105 . S
O465 Sc462 2.025 . S
O465 Sc463 2.025 . S
O465 Sc464 2.025 . S
C466 O472 1.268 . S
C466 O482 1.268 . S
C467 O473 1.268 . S
C467 O481 1.268 . S
C468 O474 1.268 . S
C468 O483 1.268 . S
C469 O475 1.268 . S
C469 O479 1.268 . S
C470 O476 1.268 . S
C470 O478 1.268 . S
C471 O477 1.268 . S
C471 O480 1.268 . S
O472 Sc462 2.105 . S
O472 C466 1.268 . S
O473 Sc463 2.105 . S
O473 C467 1.268 . S
O474 Sc464 2.105 . S
O474 C468 1.268 . S
O475 Sc462 2.105 . S
O475 C469 1.268 . S
O476 Sc464 2.105 . S
O476 C470 1.268 . S
O477 Sc463 2.105 . S
O477 C471 1.268 . S
O478 Sc462 2.105 . S
O478 C470 1.268 . S
O479 Sc463 2.105 . S
O479 C469 1.268 . S
O480 Sc464 2.105 . S
O480 C471 1.268 . S
O481 Sc462 2.105 . S
O481 C467 1.268 . S
O482 Sc464 2.105 . S
O482 C466 1.268 . S
O483 Sc463 2.105 . S
O483 C468 1.268 . S
Sc484 O487 2.025 . S
Sc484 O494 2.105 . S
Sc484 O497 2.105 . S
Sc484 O500 2.105 . S
Sc484 O503 2.105 . S
Sc485 O487 2.025 . S
Sc485 O495 2.105 . S
Sc485 O499 2.105 . S
Sc485 O501 2.105 . S
Sc485 O505 2.105 . S
Sc486 O487 2.025 . S
Sc486 O496 2.105 . S
Sc486 O498 2.105 . S
Sc486 O502 2.105 . S
Sc486 O504 2.105 . S
O487 Sc484 2.025 . S
O487 Sc485 2.025 . S
O487 Sc486 2.025 . S
C488 O494 1.268 . S
C488 O504 1.268 . S
C489 O495 1.268 . S
C489 O503 1.268 . S
C490 O496 1.268 . S
C490 O505 1.268 . S
C491 O497 1.268 . S
C491 O501 1.268 . S
C492 O498 1.268 . S
C492 O500 1.268 . S
C493 O499 1.268 . S
C493 O502 1.268 . S
O494 Sc484 2.105 . S
O494 C488 1.268 . S
O495 Sc485 2.105 . S
O495 C489 1.268 . S
O496 Sc486 2.105 . S
O496 C490 1.268 . S
O497 Sc484 2.105 . S
O497 C491 1.268 . S
O498 Sc486 2.105 . S
O498 C492 1.268 . S
O499 Sc485 2.105 . S
O499 C493 1.268 . S
O500 Sc484 2.105 . S
O500 C492 1.268 . S
O501 Sc485 2.105 . S
O501 C491 1.268 . S
O502 Sc486 2.105 . S
O502 C493 1.268 . S
O503 Sc484 2.105 . S
O503 C489 1.268 . S
O504 Sc486 2.105 . S
O504 C488 1.268 . S
O505 Sc485 2.105 . S
O505 C490 1.268 . S
Sc506 O509 2.025 . S
Sc506 O516 2.105 . S
Sc506 O519 2.105 . S
Sc506 O522 2.105 . S
Sc506 O525 2.105 . S
Sc507 O509 2.025 . S
Sc507 O517 2.105 . S
Sc507 O521 2.105 . S
Sc507 O523 2.105 . S
Sc507 O527 2.105 . S
Sc508 O509 2.025 . S
Sc508 O518 2.105 . S
Sc508 O520 2.105 . S
Sc508 O524 2.105 . S
Sc508 O526 2.105 . S
O509 Sc506 2.025 . S
O509 Sc507 2.025 . S
O509 Sc508 2.025 . S
C510 O516 1.268 . S
C510 O526 1.268 . S
C511 O517 1.268 . S
C511 O525 1.268 . S
C512 O518 1.268 . S
C512 O527 1.268 . S
C513 O519 1.268 . S
C513 O523 1.268 . S
C514 O520 1.268 . S
C514 O522 1.268 . S
C515 O521 1.268 . S
C515 O524 1.268 . S
O516 Sc506 2.105 . S
O516 C510 1.268 . S
O517 Sc507 2.105 . S
O517 C511 1.268 . S
O518 Sc508 2.105 . S
O518 C512 1.268 . S
O519 Sc506 2.105 . S
O519 C513 1.268 . S
O520 Sc508 2.105 . S
O520 C514 1.268 . S
O521 Sc507 2.105 . S
O521 C515 1.268 . S
O522 Sc506 2.105 . S
O522 C514 1.268 . S
O523 Sc507 2.105 . S
O523 C513 1.268 . S
O524 Sc508 2.105 . S
O524 C515 1.268 . S
O525 Sc506 2.105 . S
O525 C511 1.268 . S
O526 Sc508 2.105 . S
O526 C510 1.268 . S
O527 Sc507 2.105 . S
O527 C512 1.268 . S
C528 C529 1.349 . S
C528 C530 1.327 . S
C528 H553 0.950 . S
C529 C528 1.349 . S
C529 C545 1.349 . S
C530 C528 1.327 . S
C530 C549 1.429 . S
C530 H554 0.950 . S
C531 C548 1.574 . S
C531 C550 1.368 . S
C531 H555 0.949 . S
H532 C536 0.949 . S
C533 C534 1.349 . S
C533 C535 1.327 . S
C533 H556 0.950 . S
C534 C533 1.349 . S
C534 C546 1.349 . S
C535 C533 1.327 . S
C535 C551 1.429 . S
C535 H557 0.950 . S
C536 H532 0.949 . S
C536 C544 1.574 . S
C536 C552 1.368 . S
H537 C545 0.950 . S
H538 C543 0.950 . S
H539 C544 0.949 . S
H540 C546 0.950 . S
H541 C547 0.950 . S
H542 C548 0.949 . S
C543 H538 0.950 . S
C543 C545 1.327 . S
C543 C549 1.429 . S
C544 C536 1.574 . S
C544 H539 0.949 . S
C544 C550 1.368 . S
C545 C529 1.349 . S
C545 H537 0.950 . S
C545 C543 1.327 . S
C546 C534 1.349 . S
C546 H540 0.950 . S
C546 C547 1.327 . S
C547 H541 0.950 . S
C547 C546 1.327 . S
C547 C551 1.429 . S
C548 C531 1.574 . S
C548 H542 0.949 . S
C548 C552 1.368 . S
C549 C530 1.429 . S
C549 C543 1.429 . S
C549 C550 1.523 . S
C550 C531 1.368 . S
C550 C544 1.368 . S
C550 C549 1.523 . S
C551 C535 1.429 . S
C551 C547 1.429 . S
C551 C552 1.523 . S
C552 C536 1.368 . S
C552 C548 1.368 . S
C552 C551 1.523 . S
H553 C528 0.950 . S
H554 C530 0.950 . S
H555 C531 0.949 . S
H556 C533 0.950 . S
H557 C535 0.950 . S
C558 C559 1.349 . S
C558 C560 1.327 . S
C558 H583 0.950 . S
C559 C558 1.349 . S
C559 C575 1.349 . S
C560 C558 1.327 . S
C560 C579 1.429 . S
C560 H584 0.950 . S
C561 C578 1.574 . S
C561 C580 1.368 . S
C561 H585 0.949 . S
H562 C566 0.949 . S
C563 C564 1.349 . S
C563 C565 1.327 . S
C563 H586 0.950 . S
C564 C563 1.349 . S
C564 C576 1.349 . S
C565 C563 1.327 . S
C565 C581 1.429 . S
C565 H587 0.950 . S
C566 H562 0.949 . S
C566 C574 1.574 . S
C566 C582 1.368 . S
H567 C575 0.950 . S
H568 C573 0.950 . S
H569 C574 0.949 . S
H570 C576 0.950 . S
H571 C577 0.950 . S
H572 C578 0.949 . S
C573 H568 0.950 . S
C573 C575 1.327 . S
C573 C579 1.429 . S
C574 C566 1.574 . S
C574 H569 0.949 . S
C574 C580 1.368 . S
C575 C559 1.349 . S
C575 H567 0.950 . S
C575 C573 1.327 . S
C576 C564 1.349 . S
C576 H570 0.950 . S
C576 C577 1.327 . S
C577 H571 0.950 . S
C577 C576 1.327 . S
C577 C581 1.429 . S
C578 C561 1.574 . S
C578 H572 0.949 . S
C578 C582 1.368 . S
C579 C560 1.429 . S
C579 C573 1.429 . S
C579 C580 1.523 . S
C580 C561 1.368 . S
C580 C574 1.368 . S
C580 C579 1.523 . S
C581 C565 1.429 . S
C581 C577 1.429 . S
C581 C582 1.523 . S
C582 C566 1.368 . S
C582 C578 1.368 . S
C582 C581 1.523 . S
H583 C558 0.950 . S
H584 C560 0.950 . S
H585 C561 0.949 . S
H586 C563 0.950 . S
H587 C565 0.950 . S
C588 C589 1.349 . S
C588 C590 1.327 . S
C588 H613 0.950 . S
C589 C588 1.349 . S
C589 C605 1.349 . S
C590 C588 1.327 . S
C590 C609 1.429 . S
C590 H614 0.950 . S
C591 C608 1.574 . S
C591 C610 1.368 . S
C591 H615 0.949 . S
H592 C596 0.949 . S
C593 C594 1.349 . S
C593 C595 1.327 . S
C593 H616 0.950 . S
C594 C593 1.349 . S
C594 C606 1.349 . S
C595 C593 1.327 . S
C595 C611 1.429 . S
C595 H617 0.950 . S
C596 H592 0.949 . S
C596 C604 1.574 . S
C596 C612 1.368 . S
H597 C605 0.950 . S
H598 C603 0.950 . S
H599 C604 0.949 . S
H600 C606 0.950 . S
H601 C607 0.950 . S
H602 C608 0.949 . S
C603 H598 0.950 . S
C603 C605 1.327 . S
C603 C609 1.429 . S
C604 C596 1.574 . S
C604 H599 0.949 . S
C604 C610 1.368 . S
C605 C589 1.349 . S
C605 H597 0.950 . S
C605 C603 1.327 . S
C606 C594 1.349 . S
C606 H600 0.950 . S
C606 C607 1.327 . S
C607 H601 0.950 . S
C607 C606 1.327 . S
C607 C611 1.429 . S
C608 C591 1.574 . S
C608 H602 0.949 . S
C608 C612 1.368 . S
C609 C590 1.429 . S
C609 C603 1.429 . S
C609 C610 1.523 . S
C610 C591 1.368 . S
C610 C604 1.368 . S
C610 C609 1.523 . S
C611 C595 1.429 . S
C611 C607 1.429 . S
C611 C612 1.523 . S
C612 C596 1.368 . S
C612 C608 1.368 . S
C612 C611 1.523 . S
H613 C588 0.950 . S
H614 C590 0.950 . S
H615 C591 0.949 . S
H616 C593 0.950 . S
H617 C595 0.950 . S
C618 C619 1.349 . S
C618 C620 1.327 . S
C618 H643 0.950 . S
C619 C618 1.349 . S
C619 C635 1.349 . S
C620 C618 1.327 . S
C620 C639 1.429 . S
C620 H644 0.950 . S
C621 C638 1.574 . S
C621 C640 1.368 . S
C621 H645 0.949 . S
H622 C626 0.949 . S
C623 C624 1.349 . S
C623 C625 1.327 . S
C623 H646 0.950 . S
C624 C623 1.349 . S
C624 C636 1.349 . S
C625 C623 1.327 . S
C625 C641 1.429 . S
C625 H647 0.950 . S
C626 H622 0.949 . S
C626 C634 1.574 . S
C626 C642 1.368 . S
H627 C635 0.950 . S
H628 C633 0.950 . S
H629 C634 0.949 . S
H630 C636 0.950 . S
H631 C637 0.950 . S
H632 C638 0.949 . S
C633 H628 0.950 . S
C633 C635 1.327 . S
C633 C639 1.429 . S
C634 C626 1.574 . S
C634 H629 0.949 . S
C634 C640 1.368 . S
C635 C619 1.349 . S
C635 H627 0.950 . S
C635 C633 1.327 . S
C636 C624 1.349 . S
C636 H630 0.950 . S
C636 C637 1.327 . S
C637 H631 0.950 . S
C637 C636 1.327 . S
C637 C641 1.429 . S
C638 C621 1.574 . S
C638 H632 0.949 . S
C638 C642 1.368 . S
C639 C620 1.429 . S
C639 C633 1.429 . S
C639 C640 1.523 . S
C640 C621 1.368 . S
C640 C634 1.368 . S
C640 C639 1.523 . S
C641 C625 1.429 . S
C641 C637 1.429 . S
C641 C642 1.523 . S
C642 C626 1.368 . S
C642 C638 1.368 . S
C642 C641 1.523 . S
H643 C618 0.950 . S
H644 C620 0.950 . S
H645 C621 0.949 . S
H646 C623 0.950 . S
H647 C625 0.950 . S
C648 C649 1.349 . S
C648 C650 1.327 . S
C648 H673 0.950 . S
C649 C648 1.349 . S
C649 C665 1.349 . S
C650 C648 1.327 . S
C650 C669 1.429 . S
C650 H674 0.950 . S
C651 C668 1.574 . S
C651 C670 1.368 . S
C651 H675 0.949 . S
H652 C656 0.949 . S
C653 C654 1.349 . S
C653 C655 1.327 . S
C653 H676 0.950 . S
C654 C653 1.349 . S
C654 C666 1.349 . S
C655 C653 1.327 . S
C655 C671 1.429 . S
C655 H677 0.950 . S
C656 H652 0.949 . S
C656 C664 1.574 . S
C656 C672 1.368 . S
H657 C665 0.950 . S
H658 C663 0.950 . S
H659 C664 0.949 . S
H660 C666 0.950 . S
H661 C667 0.950 . S
H662 C668 0.949 . S
C663 H658 0.950 . S
C663 C665 1.327 . S
C663 C669 1.429 . S
C664 C656 1.574 . S
C664 H659 0.949 . S
C664 C670 1.368 . S
C665 C649 1.349 . S
C665 H657 0.950 . S
C665 C663 1.327 . S
C666 C654 1.349 . S
C666 H660 0.950 . S
C666 C667 1.327 . S
C667 H661 0.950 . S
C667 C666 1.327 . S
C667 C671 1.429 . S
C668 C651 1.574 . S
C668 H662 0.949 . S
C668 C672 1.368 . S
C669 C650 1.429 . S
C669 C663 1.429 . S
C669 C670 1.523 . S
C670 C651 1.368 . S
C670 C664 1.368 . S
C670 C669 1.523 . S
C671 C655 1.429 . S
C671 C667 1.429 . S
C671 C672 1.523 . S
C672 C656 1.368 . S
C672 C668 1.368 . S
C672 C671 1.523 . S
H673 C648 0.950 . S
H674 C650 0.950 . S
H675 C651 0.949 . S
H676 C653 0.950 . S
H677 C655 0.950 . S
C678 C679 1.349 . S
C678 C680 1.327 . S
C678 H703 0.950 . S
C679 C678 1.349 . S
C679 C695 1.349 . S
C680 C678 1.327 . S
C680 C699 1.429 . S
C680 H704 0.950 . S
C681 C698 1.574 . S
C681 C700 1.368 . S
C681 H705 0.949 . S
H682 C686 0.949 . S
C683 C684 1.349 . S
C683 C685 1.327 . S
C683 H706 0.950 . S
C684 C683 1.349 . S
C684 C696 1.349 . S
C685 C683 1.327 . S
C685 C701 1.429 . S
C685 H707 0.950 . S
C686 H682 0.949 . S
C686 C694 1.574 . S
C686 C702 1.368 . S
H687 C695 0.950 . S
H688 C693 0.950 . S
H689 C694 0.949 . S
H690 C696 0.950 . S
H691 C697 0.950 . S
H692 C698 0.949 . S
C693 H688 0.950 . S
C693 C695 1.327 . S
C693 C699 1.429 . S
C694 C686 1.574 . S
C694 H689 0.949 . S
C694 C700 1.368 . S
C695 C679 1.349 . S
C695 H687 0.950 . S
C695 C693 1.327 . S
C696 C684 1.349 . S
C696 H690 0.950 . S
C696 C697 1.327 . S
C697 H691 0.950 . S
C697 C696 1.327 . S
C697 C701 1.429 . S
C698 C681 1.574 . S
C698 H692 0.949 . S
C698 C702 1.368 . S
C699 C680 1.429 . S
C699 C693 1.429 . S
C699 C700 1.523 . S
C700 C681 1.368 . S
C700 C694 1.368 . S
C700 C699 1.523 . S
C701 C685 1.429 . S
C701 C697 1.429 . S
C701 C702 1.523 . S
C702 C686 1.368 . S
C702 C698 1.368 . S
C702 C701 1.523 . S
H703 C678 0.950 . S
H704 C680 0.950 . S
H705 C681 0.949 . S
H706 C683 0.950 . S
H707 C685 0.950 . S
C708 C709 1.349 . S
C708 C710 1.327 . S
C708 H733 0.950 . S
C709 C708 1.349 . S
C709 C725 1.349 . S
C710 C708 1.327 . S
C710 C729 1.429 . S
C710 H734 0.950 . S
C711 C728 1.574 . S
C711 C730 1.368 . S
C711 H735 0.949 . S
H712 C716 0.949 . S
C713 C714 1.349 . S
C713 C715 1.327 . S
C713 H736 0.950 . S
C714 C713 1.349 . S
C714 C726 1.349 . S
C715 C713 1.327 . S
C715 C731 1.429 . S
C715 H737 0.950 . S
C716 H712 0.949 . S
C716 C724 1.574 . S
C716 C732 1.368 . S
H717 C725 0.950 . S
H718 C723 0.950 . S
H719 C724 0.949 . S
H720 C726 0.950 . S
H721 C727 0.950 . S
H722 C728 0.949 . S
C723 H718 0.950 . S
C723 C725 1.327 . S
C723 C729 1.429 . S
C724 C716 1.574 . S
C724 H719 0.949 . S
C724 C730 1.368 . S
C725 C709 1.349 . S
C725 H717 0.950 . S
C725 C723 1.327 . S
C726 C714 1.349 . S
C726 H720 0.950 . S
C726 C727 1.327 . S
C727 H721 0.950 . S
C727 C726 1.327 . S
C727 C731 1.429 . S
C728 C711 1.574 . S
C728 H722 0.949 . S
C728 C732 1.368 . S
C729 C710 1.429 . S
C729 C723 1.429 . S
C729 C730 1.523 . S
C730 C711 1.368 . S
C730 C724 1.368 . S
C730 C729 1.523 . S
C731 C715 1.429 . S
C731 C727 1.429 . S
C731 C732 1.523 . S
C732 C716 1.368 . S
C732 C728 1.368 . S
C732 C731 1.523 . S
H733 C708 0.950 . S
H734 C710 0.950 . S
H735 C711 0.949 . S
H736 C713 0.950 . S
H737 C715 0.950 . S
C738 C739 1.349 . S
C738 C740 1.327 . S
C738 H763 0.950 . S
C739 C738 1.349 . S
C739 C755 1.349 . S
C740 C738 1.327 . S
C740 C759 1.429 . S
C740 H764 0.950 . S
C741 C758 1.574 . S
C741 C760 1.368 . S
C741 H765 0.949 . S
H742 C746 0.949 . S
C743 C744 1.349 . S
C743 C745 1.327 . S
C743 H766 0.950 . S
C744 C743 1.349 . S
C744 C756 1.349 . S
C745 C743 1.327 . S
C745 C761 1.429 . S
C745 H767 0.950 . S
C746 H742 0.949 . S
C746 C754 1.574 . S
C746 C762 1.368 . S
H747 C755 0.950 . S
H748 C753 0.950 . S
H749 C754 0.949 . S
H750 C756 0.950 . S
H751 C757 0.950 . S
H752 C758 0.949 . S
C753 H748 0.950 . S
C753 C755 1.327 . S
C753 C759 1.429 . S
C754 C746 1.574 . S
C754 H749 0.949 . S
C754 C760 1.368 . S
C755 C739 1.349 . S
C755 H747 0.950 . S
C755 C753 1.327 . S
C756 C744 1.349 . S
C756 H750 0.950 . S
C756 C757 1.327 . S
C757 H751 0.950 . S
C757 C756 1.327 . S
C757 C761 1.429 . S
C758 C741 1.574 . S
C758 H752 0.949 . S
C758 C762 1.368 . S
C759 C740 1.429 . S
C759 C753 1.429 . S
C759 C760 1.523 . S
C760 C741 1.368 . S
C760 C754 1.368 . S
C760 C759 1.523 . S
C761 C745 1.429 . S
C761 C757 1.429 . S
C761 C762 1.523 . S
C762 C746 1.368 . S
C762 C758 1.368 . S
C762 C761 1.523 . S
H763 C738 0.950 . S
H764 C740 0.950 . S
H765 C741 0.949 . S
H766 C743 0.950 . S
H767 C745 0.950 . S
C768 C769 1.349 . S
C768 C770 1.327 . S
C768 H793 0.950 . S
C769 C768 1.349 . S
C769 C785 1.349 . S
C770 C768 1.327 . S
C770 C789 1.429 . S
C770 H794 0.950 . S
C771 C788 1.574 . S
C771 C790 1.368 . S
C771 H795 0.949 . S
H772 C776 0.949 . S
C773 C774 1.349 . S
C773 C775 1.327 . S
C773 H796 0.950 . S
C774 C773 1.349 . S
C774 C786 1.349 . S
C775 C773 1.327 . S
C775 C791 1.429 . S
C775 H797 0.950 . S
C776 H772 0.949 . S
C776 C784 1.574 . S
C776 C792 1.368 . S
H777 C785 0.950 . S
H778 C783 0.950 . S
H779 C784 0.949 . S
H780 C786 0.950 . S
H781 C787 0.950 . S
H782 C788 0.949 . S
C783 H778 0.950 . S
C783 C785 1.327 . S
C783 C789 1.429 . S
C784 C776 1.574 . S
C784 H779 0.949 . S
C784 C790 1.368 . S
C785 C769 1.349 . S
C785 H777 0.950 . S
C785 C783 1.327 . S
C786 C774 1.349 . S
C786 H780 0.950 . S
C786 C787 1.327 . S
C787 H781 0.950 . S
C787 C786 1.327 . S
C787 C791 1.429 . S
C788 C771 1.574 . S
C788 H782 0.949 . S
C788 C792 1.368 . S
C789 C770 1.429 . S
C789 C783 1.429 . S
C789 C790 1.523 . S
C790 C771 1.368 . S
C790 C784 1.368 . S
C790 C789 1.523 . S
C791 C775 1.429 . S
C791 C787 1.429 . S
C791 C792 1.523 . S
C792 C776 1.368 . S
C792 C788 1.368 . S
C792 C791 1.523 . S
H793 C768 0.950 . S
H794 C770 0.950 . S
H795 C771 0.949 . S
H796 C773 0.950 . S
H797 C775 0.950 . S
C798 C799 1.349 . S
C798 C800 1.327 . S
C798 H823 0.950 . S
C799 C798 1.349 . S
C799 C815 1.349 . S
C800 C798 1.327 . S
C800 C819 1.429 . S
C800 H824 0.950 . S
C801 C818 1.574 . S
C801 C820 1.368 . S
C801 H825 0.949 . S
H802 C806 0.949 . S
C803 C804 1.349 . S
C803 C805 1.327 . S
C803 H826 0.950 . S
C804 C803 1.349 . S
C804 C816 1.349 . S
C805 C803 1.327 . S
C805 C821 1.429 . S
C805 H827 0.950 . S
C806 H802 0.949 . S
C806 C814 1.574 . S
C806 C822 1.368 . S
H807 C815 0.950 . S
H808 C813 0.950 . S
H809 C814 0.949 . S
H810 C816 0.950 . S
H811 C817 0.950 . S
H812 C818 0.949 . S
C813 H808 0.950 . S
C813 C815 1.327 . S
C813 C819 1.429 . S
C814 C806 1.574 . S
C814 H809 0.949 . S
C814 C820 1.368 . S
C815 C799 1.349 . S
C815 H807 0.950 . S
C815 C813 1.327 . S
C816 C804 1.349 . S
C816 H810 0.950 . S
C816 C817 1.327 . S
C817 H811 0.950 . S
C817 C816 1.327 . S
C817 C821 1.429 . S
C818 C801 1.574 . S
C818 H812 0.949 . S
C818 C822 1.368 . S
C819 C800 1.429 . S
C819 C813 1.429 . S
C819 C820 1.523 . S
C820 C801 1.368 . S
C820 C814 1.368 . S
C820 C819 1.523 . S
C821 C805 1.429 . S
C821 C817 1.429 . S
C821 C822 1.523 . S
C822 C806 1.368 . S
C822 C818 1.368 . S
C822 C821 1.523 . S
H823 C798 0.950 . S
H824 C800 0.950 . S
H825 C801 0.949 . S
H826 C803 0.950 . S
H827 C805 0.950 . S
C828 C829 1.349 . S
C828 C830 1.327 . S
C828 H853 0.950 . S
C829 C828 1.349 . S
C829 C845 1.349 . S
C830 C828 1.327 . S
C830 C849 1.429 . S
C830 H854 0.950 . S
C831 C848 1.574 . S
C831 C850 1.368 . S
C831 H855 0.949 . S
H832 C836 0.949 . S
C833 C834 1.349 . S
C833 C835 1.327 . S
C833 H856 0.950 . S
C834 C833 1.349 . S
C834 C846 1.349 . S
C835 C833 1.327 . S
C835 C851 1.429 . S
C835 H857 0.950 . S
C836 H832 0.949 . S
C836 C844 1.574 . S
C836 C852 1.368 . S
H837 C845 0.950 . S
H838 C843 0.950 . S
H839 C844 0.949 . S
H840 C846 0.950 . S
H841 C847 0.950 . S
H842 C848 0.949 . S
C843 H838 0.950 . S
C843 C845 1.327 . S
C843 C849 1.429 . S
C844 C836 1.574 . S
C844 H839 0.949 . S
C844 C850 1.368 . S
C845 C829 1.349 . S
C845 H837 0.950 . S
C845 C843 1.327 . S
C846 C834 1.349 . S
C846 H840 0.950 . S
C846 C847 1.327 . S
C847 H841 0.950 . S
C847 C846 1.327 . S
C847 C851 1.429 . S
C848 C831 1.574 . S
C848 H842 0.949 . S
C848 C852 1.368 . S
C849 C830 1.429 . S
C849 C843 1.429 . S
C849 C850 1.523 . S
C850 C831 1.368 . S
C850 C844 1.368 . S
C850 C849 1.523 . S
C851 C835 1.429 . S
C851 C847 1.429 . S
C851 C852 1.523 . S
C852 C836 1.368 . S
C852 C848 1.368 . S
C852 C851 1.523 . S
H853 C828 0.950 . S
H854 C830 0.950 . S
H855 C831 0.949 . S
H856 C833 0.950 . S
H857 C835 0.950 . S
C858 C859 1.349 . S
C858 C860 1.327 . S
C858 H883 0.950 . S
C859 C858 1.349 . S
C859 C875 1.349 . S
C860 C858 1.327 . S
C860 C879 1.429 . S
C860 H884 0.950 . S
C861 C878 1.574 . S
C861 C880 1.368 . S
C861 H885 0.949 . S
H862 C866 0.949 . S
C863 C864 1.349 . S
C863 C865 1.327 . S
C863 H886 0.950 . S
C864 C863 1.349 . S
C864 C876 1.349 . S
C865 C863 1.327 . S
C865 C881 1.429 . S
C865 H887 0.950 . S
C866 H862 0.949 . S
C866 C874 1.574 . S
C866 C882 1.368 . S
H867 C875 0.950 . S
H868 C873 0.950 . S
H869 C874 0.949 . S
H870 C876 0.950 . S
H871 C877 0.950 . S
H872 C878 0.949 . S
C873 H868 0.950 . S
C873 C875 1.327 . S
C873 C879 1.429 . S
C874 C866 1.574 . S
C874 H869 0.949 . S
C874 C880 1.368 . S
C875 C859 1.349 . S
C875 H867 0.950 . S
C875 C873 1.327 . S
C876 C864 1.349 . S
C876 H870 0.950 . S
C876 C877 1.327 . S
C877 H871 0.950 . S
C877 C876 1.327 . S
C877 C881 1.429 . S
C878 C861 1.574 . S
C878 H872 0.949 . S
C878 C882 1.368 . S
C879 C860 1.429 . S
C879 C873 1.429 . S
C879 C880 1.523 . S
C880 C861 1.368 . S
C880 C874 1.368 . S
C880 C879 1.523 . S
C881 C865 1.429 . S
C881 C877 1.429 . S
C881 C882 1.523 . S
C882 C866 1.368 . S
C882 C878 1.368 . S
C882 C881 1.523 . S
H883 C858 0.950 . S
H884 C860 0.950 . S
H885 C861 0.949 . S
H886 C863 0.950 . S
H887 C865 0.950 . S
C888 C889 1.349 . S
C888 C890 1.327 . S
C888 H913 0.950 . S
C889 C888 1.349 . S
C889 C905 1.349 . S
C890 C888 1.327 . S
C890 C909 1.429 . S
C890 H914 0.950 . S
C891 C908 1.574 . S
C891 C910 1.368 . S
C891 H915 0.949 . S
H892 C896 0.949 . S
C893 C894 1.349 . S
C893 C895 1.327 . S
C893 H916 0.950 . S
C894 C893 1.349 . S
C894 C906 1.349 . S
C895 C893 1.327 . S
C895 C911 1.429 . S
C895 H917 0.950 . S
C896 H892 0.949 . S
C896 C904 1.574 . S
C896 C912 1.368 . S
H897 C905 0.950 . S
H898 C903 0.950 . S
H899 C904 0.949 . S
H900 C906 0.950 . S
H901 C907 0.950 . S
H902 C908 0.949 . S
C903 H898 0.950 . S
C903 C905 1.327 . S
C903 C909 1.429 . S
C904 C896 1.574 . S
C904 H899 0.949 . S
C904 C910 1.368 . S
C905 C889 1.349 . S
C905 H897 0.950 . S
C905 C903 1.327 . S
C906 C894 1.349 . S
C906 H900 0.950 . S
C906 C907 1.327 . S
C907 H901 0.950 . S
C907 C906 1.327 . S
C907 C911 1.429 . S
C908 C891 1.574 . S
C908 H902 0.949 . S
C908 C912 1.368 . S
C909 C890 1.429 . S
C909 C903 1.429 . S
C909 C910 1.523 . S
C910 C891 1.368 . S
C910 C904 1.368 . S
C910 C909 1.523 . S
C911 C895 1.429 . S
C911 C907 1.429 . S
C911 C912 1.523 . S
C912 C896 1.368 . S
C912 C908 1.368 . S
C912 C911 1.523 . S
H913 C888 0.950 . S
H914 C890 0.950 . S
H915 C891 0.949 . S
H916 C893 0.950 . S
H917 C895 0.950 . S
C918 C919 1.349 . S
C918 C920 1.327 . S
C918 H943 0.950 . S
C919 C918 1.349 . S
C919 C935 1.349 . S
C920 C918 1.327 . S
C920 C939 1.429 . S
C920 H944 0.950 . S
C921 C938 1.574 . S
C921 C940 1.368 . S
C921 H945 0.949 . S
H922 C926 0.949 . S
C923 C924 1.349 . S
C923 C925 1.327 . S
C923 H946 0.950 . S
C924 C923 1.349 . S
C924 C936 1.349 . S
C925 C923 1.327 . S
C925 C941 1.429 . S
C925 H947 0.950 . S
C926 H922 0.949 . S
C926 C934 1.574 . S
C926 C942 1.368 . S
H927 C935 0.950 . S
H928 C933 0.950 . S
H929 C934 0.949 . S
H930 C936 0.950 . S
H931 C937 0.950 . S
H932 C938 0.949 . S
C933 H928 0.950 . S
C933 C935 1.327 . S
C933 C939 1.429 . S
C934 C926 1.574 . S
C934 H929 0.949 . S
C934 C940 1.368 . S
C935 C919 1.349 . S
C935 H927 0.950 . S
C935 C933 1.327 . S
C936 C924 1.349 . S
C936 H930 0.950 . S
C936 C937 1.327 . S
C937 H931 0.950 . S
C937 C936 1.327 . S
C937 C941 1.429 . S
C938 C921 1.574 . S
C938 H932 0.949 . S
C938 C942 1.368 . S
C939 C920 1.429 . S
C939 C933 1.429 . S
C939 C940 1.523 . S
C940 C921 1.368 . S
C940 C934 1.368 . S
C940 C939 1.523 . S
C941 C925 1.429 . S
C941 C937 1.429 . S
C941 C942 1.523 . S
C942 C926 1.368 . S
C942 C938 1.368 . S
C942 C941 1.523 . S
H943 C918 0.950 . S
H944 C920 0.950 . S
H945 C921 0.949 . S
H946 C923 0.950 . S
H947 C925 0.950 . S
C948 C949 1.349 . S
C948 C950 1.327 . S
C948 H973 0.950 . S
C949 C948 1.349 . S
C949 C965 1.349 . S
C950 C948 1.327 . S
C950 C969 1.429 . S
C950 H974 0.950 . S
C951 C968 1.574 . S
C951 C970 1.368 . S
C951 H975 0.949 . S
H952 C956 0.949 . S
C953 C954 1.349 . S
C953 C955 1.327 . S
C953 H976 0.950 . S
C954 C953 1.349 . S
C954 C966 1.349 . S
C955 C953 1.327 . S
C955 C971 1.429 . S
C955 H977 0.950 . S
C956 H952 0.949 . S
C956 C964 1.574 . S
C956 C972 1.368 . S
H957 C965 0.950 . S
H958 C963 0.950 . S
H959 C964 0.949 . S
H960 C966 0.950 . S
H961 C967 0.950 . S
H962 C968 0.949 . S
C963 H958 0.950 . S
C963 C965 1.327 . S
C963 C969 1.429 . S
C964 C956 1.574 . S
C964 H959 0.949 . S
C964 C970 1.368 . S
C965 C949 1.349 . S
C965 H957 0.950 . S
C965 C963 1.327 . S
C966 C954 1.349 . S
C966 H960 0.950 . S
C966 C967 1.327 . S
C967 H961 0.950 . S
C967 C966 1.327 . S
C967 C971 1.429 . S
C968 C951 1.574 . S
C968 H962 0.949 . S
C968 C972 1.368 . S
C969 C950 1.429 . S
C969 C963 1.429 . S
C969 C970 1.523 . S
C970 C951 1.368 . S
C970 C964 1.368 . S
C970 C969 1.523 . S
C971 C955 1.429 . S
C971 C967 1.429 . S
C971 C972 1.523 . S
C972 C956 1.368 . S
C972 C968 1.368 . S
C972 C971 1.523 . S
H973 C948 0.950 . S
H974 C950 0.950 . S
H975 C951 0.949 . S
H976 C953 0.950 . S
H977 C955 0.950 . S
C978 C979 1.349 . S
C978 C980 1.327 . S
C978 H1003 0.950 . S
C979 C978 1.349 . S
C979 C995 1.349 . S
C980 C978 1.327 . S
C980 C999 1.429 . S
C980 H1004 0.950 . S
C981 C998 1.574 . S
C981 C1000 1.368 . S
C981 H1005 0.949 . S
H982 C986 0.949 . S
C983 C984 1.349 . S
C983 C985 1.327 . S
C983 H1006 0.950 . S
C984 C983 1.349 . S
C984 C996 1.349 . S
C985 C983 1.327 . S
C985 C1001 1.429 . S
C985 H1007 0.950 . S
C986 H982 0.949 . S
C986 C994 1.574 . S
C986 C1002 1.368 . S
H987 C995 0.950 . S
H988 C993 0.950 . S
H989 C994 0.949 . S
H990 C996 0.950 . S
H991 C997 0.950 . S
H992 C998 0.949 . S
C993 H988 0.950 . S
C993 C995 1.327 . S
C993 C999 1.429 . S
C994 C986 1.574 . S
C994 H989 0.949 . S
C994 C1000 1.368 . S
C995 C979 1.349 . S
C995 H987 0.950 . S
C995 C993 1.327 . S
C996 C984 1.349 . S
C996 H990 0.950 . S
C996 C997 1.327 . S
C997 H991 0.950 . S
C997 C996 1.327 . S
C997 C1001 1.429 . S
C998 C981 1.574 . S
C998 H992 0.949 . S
C998 C1002 1.368 . S
C999 C980 1.429 . S
C999 C993 1.429 . S
C999 C1000 1.523 . S
C1000 C981 1.368 . S
C1000 C994 1.368 . S
C1000 C999 1.523 . S
C1001 C985 1.429 . S
C1001 C997 1.429 . S
C1001 C1002 1.523 . S
C1002 C986 1.368 . S
C1002 C998 1.368 . S
C1002 C1001 1.523 . S
H1003 C978 0.950 . S
H1004 C980 0.950 . S
H1005 C981 0.949 . S
H1006 C983 0.950 . S
H1007 C985 0.950 . S
C1008 C1009 1.349 . S
C1008 C1010 1.327 . S
C1008 H1033 0.950 . S
C1009 C1008 1.349 . S
C1009 C1025 1.349 . S
C1010 C1008 1.327 . S
C1010 C1029 1.429 . S
C1010 H1034 0.950 . S
C1011 C1028 1.574 . S
C1011 C1030 1.368 . S
C1011 H1035 0.949 . S
H1012 C1016 0.949 . S
C1013 C1014 1.349 . S
C1013 C1015 1.327 . S
C1013 H1036 0.950 . S
C1014 C1013 1.349 . S
C1014 C1026 1.349 . S
C1015 C1013 1.327 . S
C1015 C1031 1.429 . S
C1015 H1037 0.950 . S
C1016 H1012 0.949 . S
C1016 C1024 1.574 . S
C1016 C1032 1.368 . S
H1017 C1025 0.950 . S
H1018 C1023 0.950 . S
H1019 C1024 0.949 . S
H1020 C1026 0.950 . S
H1021 C1027 0.950 . S
H1022 C1028 0.949 . S
C1023 H1018 0.950 . S
C1023 C1025 1.327 . S
C1023 C1029 1.429 . S
C1024 C1016 1.574 . S
C1024 H1019 0.949 . S
C1024 C1030 1.368 . S
C1025 C1009 1.349 . S
C1025 H1017 0.950 . S
C1025 C1023 1.327 . S
C1026 C1014 1.349 . S
C1026 H1020 0.950 . S
C1026 C1027 1.327 . S
C1027 H1021 0.950 . S
C1027 C1026 1.327 . S
C1027 C1031 1.429 . S
C1028 C1011 1.574 . S
C1028 H1022 0.949 . S
C1028 C1032 1.368 . S
C1029 C1010 1.429 . S
C1029 C1023 1.429 . S
C1029 C1030 1.523 . S
C1030 C1011 1.368 . S
C1030 C1024 1.368 . S
C1030 C1029 1.523 . S
C1031 C1015 1.429 . S
C1031 C1027 1.429 . S
C1031 C1032 1.523 . S
C1032 C1016 1.368 . S
C1032 C1028 1.368 . S
C1032 C1031 1.523 . S
H1033 C1008 0.950 . S
H1034 C1010 0.950 . S
H1035 C1011 0.949 . S
H1036 C1013 0.950 . S
H1037 C1015 0.950 . S
C1038 C1039 1.349 . S
C1038 C1040 1.327 . S
C1038 H1063 0.950 . S
C1039 C1038 1.349 . S
C1039 C1055 1.349 . S
C1040 C1038 1.327 . S
C1040 C1059 1.429 . S
C1040 H1064 0.950 . S
C1041 C1058 1.574 . S
C1041 C1060 1.368 . S
C1041 H1065 0.949 . S
H1042 C1046 0.949 . S
C1043 C1044 1.349 . S
C1043 C1045 1.327 . S
C1043 H1066 0.950 . S
C1044 C1043 1.349 . S
C1044 C1056 1.349 . S
C1045 C1043 1.327 . S
C1045 C1061 1.429 . S
C1045 H1067 0.950 . S
C1046 H1042 0.949 . S
C1046 C1054 1.574 . S
C1046 C1062 1.368 . S
H1047 C1055 0.950 . S
H1048 C1053 0.950 . S
H1049 C1054 0.949 . S
H1050 C1056 0.950 . S
H1051 C1057 0.950 . S
H1052 C1058 0.949 . S
C1053 H1048 0.950 . S
C1053 C1055 1.327 . S
C1053 C1059 1.429 . S
C1054 C1046 1.574 . S
C1054 H1049 0.949 . S
C1054 C1060 1.368 . S
C1055 C1039 1.349 . S
C1055 H1047 0.950 . S
C1055 C1053 1.327 . S
C1056 C1044 1.349 . S
C1056 H1050 0.950 . S
C1056 C1057 1.327 . S
C1057 H1051 0.950 . S
C1057 C1056 1.327 . S
C1057 C1061 1.429 . S
C1058 C1041 1.574 . S
C1058 H1052 0.949 . S
C1058 C1062 1.368 . S
C1059 C1040 1.429 . S
C1059 C1053 1.429 . S
C1059 C1060 1.523 . S
C1060 C1041 1.368 . S
C1060 C1054 1.368 . S
C1060 C1059 1.523 . S
C1061 C1045 1.429 . S
C1061 C1057 1.429 . S
C1061 C1062 1.523 . S
C1062 C1046 1.368 . S
C1062 C1058 1.368 . S
C1062 C1061 1.523 . S
H1063 C1038 0.950 . S
H1064 C1040 0.950 . S
H1065 C1041 0.949 . S
H1066 C1043 0.950 . S
H1067 C1045 0.950 . S
C1068 C1069 1.349 . S
C1068 C1070 1.327 . S
C1068 H1093 0.950 . S
C1069 C1068 1.349 . S
C1069 C1085 1.349 . S
C1070 C1068 1.327 . S
C1070 C1089 1.429 . S
C1070 H1094 0.950 . S
C1071 C1088 1.574 . S
C1071 C1090 1.368 . S
C1071 H1095 0.949 . S
H1072 C1076 0.949 . S
C1073 C1074 1.349 . S
C1073 C1075 1.327 . S
C1073 H1096 0.950 . S
C1074 C1073 1.349 . S
C1074 C1086 1.349 . S
C1075 C1073 1.327 . S
C1075 C1091 1.429 . S
C1075 H1097 0.950 . S
C1076 H1072 0.949 . S
C1076 C1084 1.574 . S
C1076 C1092 1.368 . S
H1077 C1085 0.950 . S
H1078 C1083 0.950 . S
H1079 C1084 0.949 . S
H1080 C1086 0.950 . S
H1081 C1087 0.950 . S
H1082 C1088 0.949 . S
C1083 H1078 0.950 . S
C1083 C1085 1.327 . S
C1083 C1089 1.429 . S
C1084 C1076 1.574 . S
C1084 H1079 0.949 . S
C1084 C1090 1.368 . S
C1085 C1069 1.349 . S
C1085 H1077 0.950 . S
C1085 C1083 1.327 . S
C1086 C1074 1.349 . S
C1086 H1080 0.950 . S
C1086 C1087 1.327 . S
C1087 H1081 0.950 . S
C1087 C1086 1.327 . S
C1087 C1091 1.429 . S
C1088 C1071 1.574 . S
C1088 H1082 0.949 . S
C1088 C1092 1.368 . S
C1089 C1070 1.429 . S
C1089 C1083 1.429 . S
C1089 C1090 1.523 . S
C1090 C1071 1.368 . S
C1090 C1084 1.368 . S
C1090 C1089 1.523 . S
C1091 C1075 1.429 . S
C1091 C1087 1.429 . S
C1091 C1092 1.523 . S
C1092 C1076 1.368 . S
C1092 C1088 1.368 . S
C1092 C1091 1.523 . S
H1093 C1068 0.950 . S
H1094 C1070 0.950 . S
H1095 C1071 0.949 . S
H1096 C1073 0.950 . S
H1097 C1075 0.950 . S
C1098 C1099 1.349 . S
C1098 C1100 1.327 . S
C1098 H1123 0.950 . S
C1099 C1098 1.349 . S
C1099 C1115 1.349 . S
C1100 C1098 1.327 . S
C1100 C1119 1.429 . S
C1100 H1124 0.950 . S
C1101 C1118 1.574 . S
C1101 C1120 1.368 . S
C1101 H1125 0.949 . S
H1102 C1106 0.949 . S
C1103 C1104 1.349 . S
C1103 C1105 1.327 . S
C1103 H1126 0.950 . S
C1104 C1103 1.349 . S
C1104 C1116 1.349 . S
C1105 C1103 1.327 . S
C1105 C1121 1.429 . S
C1105 H1127 0.950 . S
C1106 H1102 0.949 . S
C1106 C1114 1.574 . S
C1106 C1122 1.368 . S
H1107 C1115 0.950 . S
H1108 C1113 0.950 . S
H1109 C1114 0.949 . S
H1110 C1116 0.950 . S
H1111 C1117 0.950 . S
H1112 C1118 0.949 . S
C1113 H1108 0.950 . S
C1113 C1115 1.327 . S
C1113 C1119 1.429 . S
C1114 C1106 1.574 . S
C1114 H1109 0.949 . S
C1114 C1120 1.368 . S
C1115 C1099 1.349 . S
C1115 H1107 0.950 . S
C1115 C1113 1.327 . S
C1116 C1104 1.349 . S
C1116 H1110 0.950 . S
C1116 C1117 1.327 . S
C1117 H1111 0.950 . S
C1117 C1116 1.327 . S
C1117 C1121 1.429 . S
C1118 C1101 1.574 . S
C1118 H1112 0.949 . S
C1118 C1122 1.368 . S
C1119 C1100 1.429 . S
C1119 C1113 1.429 . S
C1119 C1120 1.523 . S
C1120 C1101 1.368 . S
C1120 C1114 1.368 . S
C1120 C1119 1.523 . S
C1121 C1105 1.429 . S
C1121 C1117 1.429 . S
C1121 C1122 1.523 . S
C1122 C1106 1.368 . S
C1122 C1118 1.368 . S
C1122 C1121 1.523 . S
H1123 C1098 0.950 . S
H1124 C1100 0.950 . S
H1125 C1101 0.949 . S
H1126 C1103 0.950 . S
H1127 C1105 0.950 . S
C1128 C1129 1.349 . S
C1128 C1130 1.327 . S
C1128 H1153 0.950 . S
C1129 C1128 1.349 . S
C1129 C1145 1.349 . S
C1130 C1128 1.327 . S
C1130 C1149 1.429 . S
C1130 H1154 0.950 . S
C1131 C1148 1.574 . S
C1131 C1150 1.368 . S
C1131 H1155 0.949 . S
H1132 C1136 0.949 . S
C1133 C1134 1.349 . S
C1133 C1135 1.327 . S
C1133 H1156 0.950 . S
C1134 C1133 1.349 . S
C1134 C1146 1.349 . S
C1135 C1133 1.327 . S
C1135 C1151 1.429 . S
C1135 H1157 0.950 . S
C1136 H1132 0.949 . S
C1136 C1144 1.574 . S
C1136 C1152 1.368 . S
H1137 C1145 0.950 . S
H1138 C1143 0.950 . S
H1139 C1144 0.949 . S
H1140 C1146 0.950 . S
H1141 C1147 0.950 . S
H1142 C1148 0.949 . S
C1143 H1138 0.950 . S
C1143 C1145 1.327 . S
C1143 C1149 1.429 . S
C1144 C1136 1.574 . S
C1144 H1139 0.949 . S
C1144 C1150 1.368 . S
C1145 C1129 1.349 . S
C1145 H1137 0.950 . S
C1145 C1143 1.327 . S
C1146 C1134 1.349 . S
C1146 H1140 0.950 . S
C1146 C1147 1.327 . S
C1147 H1141 0.950 . S
C1147 C1146 1.327 . S
C1147 C1151 1.429 . S
C1148 C1131 1.574 . S
C1148 H1142 0.949 . S
C1148 C1152 1.368 . S
C1149 C1130 1.429 . S
C1149 C1143 1.429 . S
C1149 C1150 1.523 . S
C1150 C1131 1.368 . S
C1150 C1144 1.368 . S
C1150 C1149 1.523 . S
C1151 C1135 1.429 . S
C1151 C1147 1.429 . S
C1151 C1152 1.523 . S
C1152 C1136 1.368 . S
C1152 C1148 1.368 . S
C1152 C1151 1.523 . S
H1153 C1128 0.950 . S
H1154 C1130 0.950 . S
H1155 C1131 0.949 . S
H1156 C1133 0.950 . S
H1157 C1135 0.950 . S
C1158 C1159 1.349 . S
C1158 C1160 1.327 . S
C1158 H1183 0.950 . S
C1159 C1158 1.349 . S
C1159 C1175 1.349 . S
C1160 C1158 1.327 . S
C1160 C1179 1.429 . S
C1160 H1184 0.950 . S
C1161 C1178 1.574 . S
C1161 C1180 1.368 . S
C1161 H1185 0.949 . S
H1162 C1166 0.949 . S
C1163 C1164 1.349 . S
C1163 C1165 1.327 . S
C1163 H1186 0.950 . S
C1164 C1163 1.349 . S
C1164 C1176 1.349 . S
C1165 C1163 1.327 . S
C1165 C1181 1.429 . S
C1165 H1187 0.950 . S
C1166 H1162 0.949 . S
C1166 C1174 1.574 . S
C1166 C1182 1.368 . S
H1167 C1175 0.950 . S
H1168 C1173 0.950 . S
H1169 C1174 0.949 . S
H1170 C1176 0.950 . S
H1171 C1177 0.950 . S
H1172 C1178 0.949 . S
C1173 H1168 0.950 . S
C1173 C1175 1.327 . S
C1173 C1179 1.429 . S
C1174 C1166 1.574 . S
C1174 H1169 0.949 . S
C1174 C1180 1.368 . S
C1175 C1159 1.349 . S
C1175 H1167 0.950 . S
C1175 C1173 1.327 . S
C1176 C1164 1.349 . S
C1176 H1170 0.950 . S
C1176 C1177 1.327 . S
C1177 H1171 0.950 . S
C1177 C1176 1.327 . S
C1177 C1181 1.429 . S
C1178 C1161 1.574 . S
C1178 H1172 0.949 . S
C1178 C1182 1.368 . S
C1179 C1160 1.429 . S
C1179 C1173 1.429 . S
C1179 C1180 1.523 . S
C1180 C1161 1.368 . S
C1180 C1174 1.368 . S
C1180 C1179 1.523 . S
C1181 C1165 1.429 . S
C1181 C1177 1.429 . S
C1181 C1182 1.523 . S
C1182 C1166 1.368 . S
C1182 C1178 1.368 . S
C1182 C1181 1.523 . S
H1183 C1158 0.950 . S
H1184 C1160 0.950 . S
H1185 C1161 0.949 . S
H1186 C1163 0.950 . S
H1187 C1165 0.950 . S
C1188 C1189 1.349 . S
C1188 C1190 1.327 . S
C1188 H1213 0.950 . S
C1189 C1188 1.349 . S
C1189 C1205 1.349 . S
C1190 C1188 1.327 . S
C1190 C1209 1.429 . S
C1190 H1214 0.950 . S
C1191 C1208 1.574 . S
C1191 C1210 1.368 . S
C1191 H1215 0.949 . S
H1192 C1196 0.949 . S
C1193 C1194 1.349 . S
C1193 C1195 1.327 . S
C1193 H1216 0.950 . S
C1194 C1193 1.349 . S
C1194 C1206 1.349 . S
C1195 C1193 1.327 . S
C1195 C1211 1.429 . S
C1195 H1217 0.950 . S
C1196 H1192 0.949 . S
C1196 C1204 1.574 . S
C1196 C1212 1.368 . S
H1197 C1205 0.950 . S
H1198 C1203 0.950 . S
H1199 C1204 0.949 . S
H1200 C1206 0.950 . S
H1201 C1207 0.950 . S
H1202 C1208 0.949 . S
C1203 H1198 0.950 . S
C1203 C1205 1.327 . S
C1203 C1209 1.429 . S
C1204 C1196 1.574 . S
C1204 H1199 0.949 . S
C1204 C1210 1.368 . S
C1205 C1189 1.349 . S
C1205 H1197 0.950 . S
C1205 C1203 1.327 . S
C1206 C1194 1.349 . S
C1206 H1200 0.950 . S
C1206 C1207 1.327 . S
C1207 H1201 0.950 . S
C1207 C1206 1.327 . S
C1207 C1211 1.429 . S
C1208 C1191 1.574 . S
C1208 H1202 0.949 . S
C1208 C1212 1.368 . S
C1209 C1190 1.429 . S
C1209 C1203 1.429 . S
C1209 C1210 1.523 . S
C1210 C1191 1.368 . S
C1210 C1204 1.368 . S
C1210 C1209 1.523 . S
C1211 C1195 1.429 . S
C1211 C1207 1.429 . S
C1211 C1212 1.523 . S
C1212 C1196 1.368 . S
C1212 C1208 1.368 . S
C1212 C1211 1.523 . S
H1213 C1188 0.950 . S
H1214 C1190 0.950 . S
H1215 C1191 0.949 . S
H1216 C1193 0.950 . S
H1217 C1195 0.950 . S
C1218 C1219 1.349 . S
C1218 C1220 1.327 . S
C1218 H1243 0.950 . S
C1219 C1218 1.349 . S
C1219 C1235 1.349 . S
C1220 C1218 1.327 . S
C1220 C1239 1.429 . S
C1220 H1244 0.950 . S
C1221 C1238 1.574 . S
C1221 C1240 1.368 . S
C1221 H1245 0.949 . S
H1222 C1226 0.949 . S
C1223 C1224 1.349 . S
C1223 C1225 1.327 . S
C1223 H1246 0.950 . S
C1224 C1223 1.349 . S
C1224 C1236 1.349 . S
C1225 C1223 1.327 . S
C1225 C1241 1.429 . S
C1225 H1247 0.950 . S
C1226 H1222 0.949 . S
C1226 C1234 1.574 . S
C1226 C1242 1.368 . S
H1227 C1235 0.950 . S
H1228 C1233 0.950 . S
H1229 C1234 0.949 . S
H1230 C1236 0.950 . S
H1231 C1237 0.950 . S
H1232 C1238 0.949 . S
C1233 H1228 0.950 . S
C1233 C1235 1.327 . S
C1233 C1239 1.429 . S
C1234 C1226 1.574 . S
C1234 H1229 0.949 . S
C1234 C1240 1.368 . S
C1235 C1219 1.349 . S
C1235 H1227 0.950 . S
C1235 C1233 1.327 . S
C1236 C1224 1.349 . S
C1236 H1230 0.950 . S
C1236 C1237 1.327 . S
C1237 H1231 0.950 . S
C1237 C1236 1.327 . S
C1237 C1241 1.429 . S
C1238 C1221 1.574 . S
C1238 H1232 0.949 . S
C1238 C1242 1.368 . S
C1239 C1220 1.429 . S
C1239 C1233 1.429 . S
C1239 C1240 1.523 . S
C1240 C1221 1.368 . S
C1240 C1234 1.368 . S
C1240 C1239 1.523 . S
C1241 C1225 1.429 . S
C1241 C1237 1.429 . S
C1241 C1242 1.523 . S
C1242 C1226 1.368 . S
C1242 C1238 1.368 . S
C1242 C1241 1.523 . S
H1243 C1218 0.950 . S
H1244 C1220 0.950 . S
H1245 C1221 0.949 . S
H1246 C1223 0.950 . S
H1247 C1225 0.950 . S
C1248 C1249 1.349 . S
C1248 C1250 1.327 . S
C1248 H1273 0.950 . S
C1249 C1248 1.349 . S
C1249 C1265 1.349 . S
C1250 C1248 1.327 . S
C1250 C1269 1.429 . S
C1250 H1274 0.950 . S
C1251 C1268 1.574 1_565 S
C1251 C1270 1.379 . S
C1251 H1275 0.940 1_655 S
H1252 C1256 0.949 . S
C1253 C1254 1.349 . S
C1253 C1255 1.329 . S
C1253 H1276 0.950 1_655 S
C1254 C1253 1.349 . S
C1254 C1266 1.349 . S
C1255 C1253 1.329 . S
C1255 C1271 1.458 . S
C1255 H1277 0.921 1_655 S
C1256 H1252 0.949 . S
C1256 C1264 1.574 1_545 S
C1256 C1272 1.368 . S
H1257 C1265 0.950 1_455 S
H1258 C1263 0.921 1_455 S
H1259 C1264 0.949 . S
H1260 C1266 0.950 . S
H1261 C1267 0.950 . S
H1262 C1268 0.940 1_455 S
C1263 H1258 0.921 1_655 S
C1263 C1265 1.329 . S
C1263 C1269 1.458 . S
C1264 C1256 1.574 1_565 S
C1264 H1259 0.949 . S
C1264 C1270 1.368 . S
C1265 C1249 1.349 . S
C1265 H1257 0.950 1_655 S
C1265 C1263 1.329 . S
C1266 C1254 1.349 . S
C1266 H1260 0.950 . S
C1266 C1267 1.327 . S
C1267 H1261 0.950 . S
C1267 C1266 1.327 . S
C1267 C1271 1.429 . S
C1268 C1251 1.574 1_545 S
C1268 H1262 0.940 1_655 S
C1268 C1272 1.379 . S
C1269 C1250 1.429 . S
C1269 C1263 1.458 . S
C1269 C1270 1.523 . S
C1270 C1251 1.379 . S
C1270 C1264 1.368 . S
C1270 C1269 1.523 . S
C1271 C1255 1.458 . S
C1271 C1267 1.429 . S
C1271 C1272 1.523 . S
C1272 C1256 1.368 . S
C1272 C1268 1.379 . S
C1272 C1271 1.523 . S
H1273 C1248 0.950 . S
H1274 C1250 0.950 . S
H1275 C1251 0.940 1_455 S
H1276 C1253 0.950 1_455 S
H1277 C1255 0.921 1_455 S
C1278 C1279 1.349 . S
C1278 C1280 1.327 . S
C1278 H1303 0.950 . S
C1279 C1278 1.349 . S
C1279 C1295 1.349 . S
C1280 C1278 1.327 . S
C1280 C1299 1.429 . S
C1280 H1304 0.950 . S
C1281 C1298 1.574 . S
C1281 C1300 1.368 . S
C1281 H1305 0.949 . S
H1282 C1286 0.949 . S
C1283 C1284 1.349 . S
C1283 C1285 1.327 . S
C1283 H1306 0.950 . S
C1284 C1283 1.349 . S
C1284 C1296 1.349 . S
C1285 C1283 1.327 . S
C1285 C1301 1.429 . S
C1285 H1307 0.950 . S
C1286 H1282 0.949 . S
C1286 C1294 1.574 . S
C1286 C1302 1.368 . S
H1287 C1295 0.950 . S
H1288 C1293 0.950 . S
H1289 C1294 0.949 . S
H1290 C1296 0.950 . S
H1291 C1297 0.950 . S
H1292 C1298 0.949 . S
C1293 H1288 0.950 . S
C1293 C1295 1.327 . S
C1293 C1299 1.429 . S
C1294 C1286 1.574 . S
C1294 H1289 0.949 . S
C1294 C1300 1.368 . S
C1295 C1279 1.349 . S
C1295 H1287 0.950 . S
C1295 C1293 1.327 . S
C1296 C1284 1.349 . S
C1296 H1290 0.950 . S
C1296 C1297 1.327 . S
C1297 H1291 0.950 . S
C1297 C1296 1.327 . S
C1297 C1301 1.429 . S
C1298 C1281 1.574 . S
C1298 H1292 0.949 . S
C1298 C1302 1.368 . S
C1299 C1280 1.429 . S
C1299 C1293 1.429 . S
C1299 C1300 1.523 . S
C1300 C1281 1.368 . S
C1300 C1294 1.368 . S
C1300 C1299 1.523 . S
C1301 C1285 1.429 . S
C1301 C1297 1.429 . S
C1301 C1302 1.523 . S
C1302 C1286 1.368 . S
C1302 C1298 1.368 . S
C1302 C1301 1.523 . S
H1303 C1278 0.950 . S
H1304 C1280 0.950 . S
H1305 C1281 0.949 . S
H1306 C1283 0.950 . S
H1307 C1285 0.950 . S
C1308 C1309 1.349 . S
C1308 C1310 1.327 . S
C1308 H1333 0.950 . S
C1309 C1308 1.349 . S
C1309 C1325 1.349 . S
C1310 C1308 1.327 . S
C1310 C1329 1.429 . S
C1310 H1334 0.950 . S
C1311 C1328 1.574 1_565 S
C1311 C1330 1.368 . S
C1311 H1335 0.949 . S
H1312 C1316 0.949 . S
C1313 C1314 1.349 . S
C1313 C1315 1.327 . S
C1313 H1336 0.950 . S
C1314 C1313 1.349 . S
C1314 C1326 1.349 . S
C1315 C1313 1.327 . S
C1315 C1331 1.429 . S
C1315 H1337 0.950 . S
C1316 H1312 0.949 . S
C1316 C1324 1.574 1_545 S
C1316 C1332 1.368 . S
H1317 C1325 0.950 . S
H1318 C1323 0.950 . S
H1319 C1324 0.949 . S
H1320 C1326 0.950 . S
H1321 C1327 0.950 . S
H1322 C1328 0.949 . S
C1323 H1318 0.950 . S
C1323 C1325 1.327 . S
C1323 C1329 1.429 . S
C1324 C1316 1.574 1_565 S
C1324 H1319 0.949 . S
C1324 C1330 1.368 . S
C1325 C1309 1.349 . S
C1325 H1317 0.950 . S
C1325 C1323 1.327 . S
C1326 C1314 1.349 . S
C1326 H1320 0.950 . S
C1326 C1327 1.327 . S
C1327 H1321 0.950 . S
C1327 C1326 1.327 . S
C1327 C1331 1.429 . S
C1328 C1311 1.574 1_545 S
C1328 H1322 0.949 . S
C1328 C1332 1.368 . S
C1329 C1310 1.429 . S
C1329 C1323 1.429 . S
C1329 C1330 1.523 . S
C1330 C1311 1.368 . S
C1330 C1324 1.368 . S
C1330 C1329 1.523 . S
C1331 C1315 1.429 . S
C1331 C1327 1.429 . S
C1331 C1332 1.523 . S
C1332 C1316 1.368 . S
C1332 C1328 1.368 . S
C1332 C1331 1.523 . S
H1333 C1308 0.950 . S
H1334 C1310 0.950 . S
H1335 C1311 0.949 . S
H1336 C1313 0.950 . S
H1337 C1315 0.950 . S
C1338 C1339 1.349 . S
C1338 C1340 1.327 . S
C1338 H1363 0.950 . S
C1339 C1338 1.349 . S
C1339 C1355 1.349 1_556 S
C1340 C1338 1.327 . S
C1340 C1359 1.429 . S
C1340 H1364 0.950 . S
C1341 C1358 1.574 . S
C1341 C1360 1.368 1_554 S
C1341 H1365 0.949 . S
H1342 C1346 0.949 . S
C1343 C1344 1.349 . S
C1343 C1345 1.327 . S
C1343 H1366 0.950 . S
C1344 C1343 1.349 . S
C1344 C1356 1.349 1_554 S
C1345 C1343 1.327 . S
C1345 C1361 1.429 . S
C1345 H1367 0.950 . S
C1346 H1342 0.949 . S
C1346 C1354 1.574 . S
C1346 C1362 1.368 1_556 S
H1347 C1355 0.950 . S
H1348 C1353 0.950 . S
H1349 C1354 0.949 . S
H1350 C1356 0.950 . S
H1351 C1357 0.950 . S
H1352 C1358 0.949 . S
C1353 H1348 0.950 . S
C1353 C1355 1.327 . S
C1353 C1359 1.429 1_554 S
C1354 C1346 1.574 . S
C1354 H1349 0.949 . S
C1354 C1360 1.368 . S
C1355 C1339 1.349 1_554 S
C1355 H1347 0.950 . S
C1355 C1353 1.327 . S
C1356 C1344 1.349 1_556 S
C1356 H1350 0.950 . S
C1356 C1357 1.327 . S
C1357 H1351 0.950 . S
C1357 C1356 1.327 . S
C1357 C1361 1.429 1_556 S
C1358 C1341 1.574 . S
C1358 H1352 0.949 . S
C1358 C1362 1.368 . S
C1359 C1340 1.429 . S
C1359 C1353 1.429 1_556 S
C1359 C1360 1.523 . S
C1360 C1341 1.368 1_556 S
C1360 C1354 1.368 . S
C1360 C1359 1.523 . S
C1361 C1345 1.429 . S
C1361 C1357 1.429 1_554 S
C1361 C1362 1.523 . S
C1362 C1346 1.368 1_554 S
C1362 C1358 1.368 . S
C1362 C1361 1.523 . S
H1363 C1338 0.950 . S
H1364 C1340 0.950 . S
H1365 C1341 0.949 . S
H1366 C1343 0.950 . S
H1367 C1345 0.950 . S
C1368 C1369 1.349 . S
C1368 C1370 1.327 . S
C1368 H1393 0.950 . S
C1369 C1368 1.349 . S
C1369 C1385 1.349 1_565 S
C1370 C1368 1.327 . S
C1370 C1389 1.429 . S
C1370 H1394 0.950 . S
C1371 C1388 1.574 1_556 S
C1371 C1390 1.368 1_545 S
C1371 H1395 0.949 . S
H1372 C1376 0.949 . S
C1373 C1374 1.349 1_545 S
C1373 C1375 1.327 . S
C1373 H1396 0.950 . S
C1374 C1373 1.349 1_565 S
C1374 C1386 1.349 . S
C1375 C1373 1.327 . S
C1375 C1391 1.429 1_545 S
C1375 H1397 0.950 . S
C1376 H1372 0.949 . S
C1376 C1384 1.574 1_554 S
C1376 C1392 1.368 . S
H1377 C1385 0.950 . S
H1378 C1383 0.950 . S
H1379 C1384 0.949 . S
H1380 C1386 0.950 . S
H1381 C1387 0.950 . S
H1382 C1388 0.949 . S
C1383 H1378 0.950 . S
C1383 C1385 1.327 . S
C1383 C1389 1.429 1_545 S
C1384 C1376 1.574 1_556 S
C1384 H1379 0.949 . S
C1384 C1390 1.368 . S
C1385 C1369 1.349 1_545 S
C1385 H1377 0.950 . S
C1385 C1383 1.327 . S
C1386 C1374 1.349 . S
C1386 H1380 0.950 . S
C1386 C1387 1.327 . S
C1387 H1381 0.950 . S
C1387 C1386 1.327 . S
C1387 C1391 1.429 . S
C1388 C1371 1.574 1_554 S
C1388 H1382 0.949 . S
C1388 C1392 1.368 1_545 S
C1389 C1370 1.429 . S
C1389 C1383 1.429 1_565 S
C1389 C1390 1.523 . S
C1390 C1371 1.368 1_565 S
C1390 C1384 1.368 . S
C1390 C1389 1.523 . S
C1391 C1375 1.429 1_565 S
C1391 C1387 1.429 . S
C1391 C1392 1.523 . S
C1392 C1376 1.368 . S
C1392 C1388 1.368 1_565 S
C1392 C1391 1.523 . S
H1393 C1368 0.950 . S
H1394 C1370 0.950 . S
H1395 C1371 0.949 . S
H1396 C1373 0.950 . S
H1397 C1375 0.950 . S
C1398 C1399 1.349 1_565 S
C1398 C1400 1.327 . S
C1398 H1423 0.950 . S
C1399 C1398 1.349 1_545 S
C1399 C1415 1.349 . S
C1400 C1398 1.327 . S
C1400 C1419 1.429 1_565 S
C1400 H1424 0.950 . S
C1401 C1418 1.574 . S
C1401 C1420 1.368 . S
C1401 H1425 0.949 . S
H1402 C1406 0.949 . S
C1403 C1404 1.349 1_545 S
C1403 C1405 1.327 . S
C1403 H1426 0.950 . S
C1404 C1403 1.349 1_565 S
C1404 C1416 1.349 . S
C1405 C1403 1.327 . S
C1405 C1421 1.429 1_545 S
C1405 H1427 0.950 . S
C1406 H1402 0.949 . S
C1406 C1414 1.574 . S
C1406 C1422 1.368 . S
H1407 C1415 0.950 . S
H1408 C1413 0.950 . S
H1409 C1414 0.949 . S
H1410 C1416 0.950 . S
H1411 C1417 0.950 . S
H1412 C1418 0.949 . S
C1413 H1408 0.950 . S
C1413 C1415 1.327 . S
C1413 C1419 1.429 . S
C1414 C1406 1.574 . S
C1414 H1409 0.949 . S
C1414 C1420 1.368 1_565 S
C1415 C1399 1.349 . S
C1415 H1407 0.950 . S
C1415 C1413 1.327 . S
C1416 C1404 1.349 . S
C1416 H1410 0.950 . S
C1416 C1417 1.327 . S
C1417 H1411 0.950 . S
C1417 C1416 1.327 . S
C1417 C1421 1.429 . S
C1418 C1401 1.574 . S
C1418 H1412 0.949 . S
C1418 C1422 1.368 1_545 S
C1419 C1400 1.429 1_545 S
C1419 C1413 1.429 . S
C1419 C1420 1.523 . S
C1420 C1401 1.368 . S
C1420 C1414 1.368 1_545 S
C1420 C1419 1.523 . S
C1421 C1405 1.429 1_565 S
C1421 C1417 1.429 . S
C1421 C1422 1.523 . S
C1422 C1406 1.368 . S
C1422 C1418 1.368 1_565 S
C1422 C1421 1.523 . S
H1423 C1398 0.950 . S
H1424 C1400 0.950 . S
H1425 C1401 0.949 . S
H1426 C1403 0.950 . S
H1427 C1405 0.950 . S
C1428 C1429 1.349 . S
C1428 C1430 1.327 . S
C1428 H1453 0.950 . S
C1429 C1428 1.349 . S
C1429 C1445 1.349 1_545 S
C1430 C1428 1.327 . S
C1430 C1449 1.429 . S
C1430 H1454 0.950 . S
C1431 C1448 1.574 . S
C1431 C1450 1.368 1_565 S
C1431 H1455 0.949 . S
H1432 C1436 0.949 . S
C1433 C1434 1.349 1_565 S
C1433 C1435 1.327 . S
C1433 H1456 0.950 . S
C1434 C1433 1.349 1_545 S
C1434 C1446 1.349 . S
C1435 C1433 1.327 . S
C1435 C1451 1.429 1_565 S
C1435 H1457 0.950 . S
C1436 H1432 0.949 . S
C1436 C1444 1.574 . S
C1436 C1452 1.368 . S
H1437 C1445 0.950 . S
H1438 C1443 0.950 . S
H1439 C1444 0.949 . S
H1440 C1446 0.950 . S
H1441 C1447 0.950 . S
H1442 C1448 0.949 . S
C1443 H1438 0.950 . S
C1443 C1445 1.327 . S
C1443 C1449 1.429 1_565 S
C1444 C1436 1.574 . S
C1444 H1439 0.949 . S
C1444 C1450 1.368 . S
C1445 C1429 1.349 1_565 S
C1445 H1437 0.950 . S
C1445 C1443 1.327 . S
C1446 C1434 1.349 . S
C1446 H1440 0.950 . S
C1446 C1447 1.327 . S
C1447 H1441 0.950 . S
C1447 C1446 1.327 . S
C1447 C1451 1.429 . S
C1448 C1431 1.574 . S
C1448 H1442 0.949 . S
C1448 C1452 1.368 1_565 S
C1449 C1430 1.429 . S
C1449 C1443 1.429 1_545 S
C1449 C1450 1.523 . S
C1450 C1431 1.368 1_545 S
C1450 C1444 1.368 . S
C1450 C1449 1.523 . S
C1451 C1435 1.429 1_545 S
C1451 C1447 1.429 . S
C1451 C1452 1.523 . S
C1452 C1436 1.368 . S
C1452 C1448 1.368 1_545 S
C1452 C1451 1.523 . S
H1453 C1428 0.950 . S
H1454 C1430 0.950 . S
H1455 C1431 0.949 . S
H1456 C1433 0.950 . S
H1457 C1435 0.950 . S
C1458 C1459 1.349 1_565 S
C1458 C1460 1.327 . S
C1458 H1483 0.950 . S
C1459 C1458 1.349 1_545 S
C1459 C1475 1.349 . S
C1460 C1458 1.327 . S
C1460 C1479 1.429 1_565 S
C1460 H1484 0.950 . S
C1461 C1478 1.574 . S
C1461 C1480 1.368 . S
C1461 H1485 0.949 . S
H1462 C1466 0.949 . S
C1463 C1464 1.349 1_545 S
C1463 C1465 1.327 . S
C1463 H1486 0.950 . S
C1464 C1463 1.349 1_565 S
C1464 C1476 1.349 . S
C1465 C1463 1.327 . S
C1465 C1481 1.429 1_545 S
C1465 H1487 0.950 . S
C1466 H1462 0.949 . S
C1466 C1474 1.574 . S
C1466 C1482 1.368 . S
H1467 C1475 0.950 . S
H1468 C1473 0.950 . S
H1469 C1474 0.949 . S
H1470 C1476 0.950 . S
H1471 C1477 0.950 . S
H1472 C1478 0.949 . S
C1473 H1468 0.950 . S
C1473 C1475 1.327 . S
C1473 C1479 1.429 . S
C1474 C1466 1.574 . S
C1474 H1469 0.949 . S
C1474 C1480 1.368 1_565 S
C1475 C1459 1.349 . S
C1475 H1467 0.950 . S
C1475 C1473 1.327 . S
C1476 C1464 1.349 . S
C1476 H1470 0.950 . S
C1476 C1477 1.327 . S
C1477 H1471 0.950 . S
C1477 C1476 1.327 . S
C1477 C1481 1.429 . S
C1478 C1461 1.574 . S
C1478 H1472 0.949 . S
C1478 C1482 1.368 1_545 S
C1479 C1460 1.429 1_545 S
C1479 C1473 1.429 . S
C1479 C1480 1.523 . S
C1480 C1461 1.368 . S
C1480 C1474 1.368 1_545 S
C1480 C1479 1.523 . S
C1481 C1465 1.429 1_565 S
C1481 C1477 1.429 . S
C1481 C1482 1.523 . S
C1482 C1466 1.368 . S
C1482 C1478 1.368 1_565 S
C1482 C1481 1.523 . S
H1483 C1458 0.950 . S
H1484 C1460 0.950 . S
H1485 C1461 0.949 . S
H1486 C1463 0.950 . S
H1487 C1465 0.950 . S
C1488 C1489 1.349 1_554 S
C1488 C1490 1.327 . S
C1488 H1513 0.950 . S
C1489 C1488 1.349 1_556 S
C1489 C1505 1.349 . S
C1490 C1488 1.327 . S
C1490 C1509 1.429 1_554 S
C1490 H1514 0.950 . S
C1491 C1508 1.574 1_655 S
C1491 C1510 1.368 . S
C1491 H1515 0.949 . S
H1492 C1496 0.949 . S
C1493 C1494 1.349 . S
C1493 C1495 1.327 . S
C1493 H1516 0.950 . S
C1494 C1493 1.349 . S
C1494 C1506 1.349 1_556 S
C1495 C1493 1.327 . S
C1495 C1511 1.429 . S
C1495 H1517 0.950 . S
C1496 H1492 0.949 . S
C1496 C1504 1.574 1_455 S
C1496 C1512 1.368 1_554 S
H1497 C1505 0.950 . S
H1498 C1503 0.950 . S
H1499 C1504 0.949 . S
H1500 C1506 0.950 . S
H1501 C1507 0.950 . S
H1502 C1508 0.949 . S
C1503 H1498 0.950 . S
C1503 C1505 1.327 . S
C1503 C1509 1.429 . S
C1504 C1496 1.574 1_655 S
C1504 H1499 0.949 . S
C1504 C1510 1.368 1_554 S
C1505 C1489 1.349 . S
C1505 H1497 0.950 . S
C1505 C1503 1.327 . S
C1506 C1494 1.349 1_554 S
C1506 H1500 0.950 . S
C1506 C1507 1.327 . S
C1507 H1501 0.950 . S
C1507 C1506 1.327 . S
C1507 C1511 1.429 1_554 S
C1508 C1491 1.574 1_455 S
C1508 H1502 0.949 . S
C1508 C1512 1.368 . S
C1509 C1490 1.429 1_556 S
C1509 C1503 1.429 . S
C1509 C1510 1.523 . S
C1510 C1491 1.368 . S
C1510 C1504 1.368 1_556 S
C1510 C1509 1.523 . S
C1511 C1495 1.429 . S
C1511 C1507 1.429 1_556 S
C1511 C1512 1.523 . S
C1512 C1496 1.368 1_556 S
C1512 C1508 1.368 . S
C1512 C1511 1.523 . S
H1513 C1488 0.950 . S
H1514 C1490 0.950 . S
H1515 C1491 0.949 . S
H1516 C1493 0.950 . S
H1517 C1495 0.950 . S
C1518 C1519 1.349 . S
C1518 C1520 1.327 . S
C1518 H1543 0.950 . S
C1519 C1518 1.349 . S
C1519 C1535 1.349 1_554 S
C1520 C1518 1.327 . S
C1520 C1539 1.429 . S
C1520 H1544 0.950 . S
C1521 C1538 1.574 . S
C1521 C1540 1.368 1_556 S
C1521 H1545 0.949 . S
H1522 C1526 0.949 . S
C1523 C1524 1.349 1_556 S
C1523 C1525 1.327 . S
C1523 H1546 0.950 . S
C1524 C1523 1.349 1_554 S
C1524 C1536 1.349 . S
C1525 C1523 1.327 . S
C1525 C1541 1.429 1_556 S
C1525 H1547 0.950 . S
C1526 H1522 0.949 . S
C1526 C1534 1.574 . S
C1526 C1542 1.368 . S
H1527 C1535 0.950 . S
H1528 C1533 0.950 . S
H1529 C1534 0.949 . S
H1530 C1536 0.950 . S
H1531 C1537 0.950 . S
H1532 C1538 0.949 . S
C1533 H1528 0.950 . S
C1533 C1535 1.327 . S
C1533 C1539 1.429 1_556 S
C1534 C1526 1.574 . S
C1534 H1529 0.949 . S
C1534 C1540 1.368 . S
C1535 C1519 1.349 1_556 S
C1535 H1527 0.950 . S
C1535 C1533 1.327 . S
C1536 C1524 1.349 . S
C1536 H1530 0.950 . S
C1536 C1537 1.327 . S
C1537 H1531 0.950 . S
C1537 C1536 1.327 . S
C1537 C1541 1.429 . S
C1538 C1521 1.574 . S
C1538 H1532 0.949 . S
C1538 C1542 1.368 1_556 S
C1539 C1520 1.429 . S
C1539 C1533 1.429 1_554 S
C1539 C1540 1.523 . S
C1540 C1521 1.368 1_554 S
C1540 C1534 1.368 . S
C1540 C1539 1.523 . S
C1541 C1525 1.429 1_554 S
C1541 C1537 1.429 . S
C1541 C1542 1.523 . S
C1542 C1526 1.368 . S
C1542 C1538 1.368 1_554 S
C1542 C1541 1.523 . S
H1543 C1518 0.950 . S
H1544 C1520 0.950 . S
H1545 C1521 0.949 . S
H1546 C1523 0.950 . S
H1547 C1525 0.950 . S
C1548 C1549 1.349 1_655 S
C1548 C1550 1.327 . S
C1548 H1573 0.950 . S
C1549 C1548 1.349 1_455 S
C1549 C1565 1.349 . S
C1550 C1548 1.327 . S
C1550 C1569 1.429 1_655 S
C1550 H1574 0.950 . S
C1551 C1568 1.574 . S
C1551 C1570 1.368 . S
C1551 H1575 0.949 . S
H1552 C1556 0.949 . S
C1553 C1554 1.349 1_455 S
C1553 C1555 1.327 . S
C1553 H1576 0.950 . S
C1554 C1553 1.349 1_655 S
C1554 C1566 1.349 . S
C1555 C1553 1.327 . S
C1555 C1571 1.429 1_455 S
C1555 H1577 0.950 . S
C1556 H1552 0.949 . S
C1556 C1564 1.574 . S
C1556 C1572 1.368 . S
H1557 C1565 0.950 . S
H1558 C1563 0.950 . S
H1559 C1564 0.949 . S
H1560 C1566 0.950 . S
H1561 C1567 0.950 . S
H1562 C1568 0.949 . S
C1563 H1558 0.950 . S
C1563 C1565 1.327 . S
C1563 C1569 1.429 . S
C1564 C1556 1.574 . S
C1564 H1559 0.949 . S
C1564 C1570 1.368 1_655 S
C1565 C1549 1.349 . S
C1565 H1557 0.950 . S
C1565 C1563 1.327 . S
C1566 C1554 1.349 . S
C1566 H1560 0.950 . S
C1566 C1567 1.327 . S
C1567 H1561 0.950 . S
C1567 C1566 1.327 . S
C1567 C1571 1.429 . S
C1568 C1551 1.574 . S
C1568 H1562 0.949 . S
C1568 C1572 1.368 1_455 S
C1569 C1550 1.429 1_455 S
C1569 C1563 1.429 . S
C1569 C1570 1.523 . S
C1570 C1551 1.368 . S
C1570 C1564 1.368 1_455 S
C1570 C1569 1.523 . S
C1571 C1555 1.429 1_655 S
C1571 C1567 1.429 . S
C1571 C1572 1.523 . S
C1572 C1556 1.368 . S
C1572 C1568 1.368 1_655 S
C1572 C1571 1.523 . S
H1573 C1548 0.950 . S
H1574 C1550 0.950 . S
H1575 C1551 0.949 . S
H1576 C1553 0.950 . S
H1577 C1555 0.950 . S
C1578 C1579 1.349 . S
C1578 C1580 1.327 . S
C1578 H1603 0.950 . S
C1579 C1578 1.349 . S
C1579 C1595 1.349 . S
C1580 C1578 1.327 . S
C1580 C1599 1.429 . S
C1580 H1604 0.950 . S
C1581 C1598 1.574 1_455 S
C1581 C1600 1.368 . S
C1581 H1605 0.949 . S
H1582 C1586 0.949 . S
C1583 C1584 1.349 . S
C1583 C1585 1.327 . S
C1583 H1606 0.950 . S
C1584 C1583 1.349 . S
C1584 C1596 1.349 . S
C1585 C1583 1.327 . S
C1585 C1601 1.429 . S
C1585 H1607 0.950 . S
C1586 H1582 0.949 . S
C1586 C1594 1.574 1_655 S
C1586 C1602 1.368 . S
H1587 C1595 0.950 . S
H1588 C1593 0.950 . S
H1589 C1594 0.949 . S
H1590 C1596 0.950 . S
H1591 C1597 0.950 . S
H1592 C1598 0.949 . S
C1593 H1588 0.950 . S
C1593 C1595 1.327 . S
C1593 C1599 1.429 . S
C1594 C1586 1.574 1_455 S
C1594 H1589 0.949 . S
C1594 C1600 1.368 . S
C1595 C1579 1.349 . S
C1595 H1587 0.950 . S
C1595 C1593 1.327 . S
C1596 C1584 1.349 . S
C1596 H1590 0.950 . S
C1596 C1597 1.327 . S
C1597 H1591 0.950 . S
C1597 C1596 1.327 . S
C1597 C1601 1.429 . S
C1598 C1581 1.574 1_655 S
C1598 H1592 0.949 . S
C1598 C1602 1.368 . S
C1599 C1580 1.429 . S
C1599 C1593 1.429 . S
C1599 C1600 1.523 . S
C1600 C1581 1.368 . S
C1600 C1594 1.368 . S
C1600 C1599 1.523 . S
C1601 C1585 1.429 . S
C1601 C1597 1.429 . S
C1601 C1602 1.523 . S
C1602 C1586 1.368 . S
C1602 C1598 1.368 . S
C1602 C1601 1.523 . S
H1603 C1578 0.950 . S
H1604 C1580 0.950 . S
H1605 C1581 0.949 . S
H1606 C1583 0.950 . S
H1607 C1585 0.950 . S
C1608 C1609 1.349 . S
C1608 C1610 1.327 . S
C1608 H1633 0.950 . S
C1609 C1608 1.349 . S
C1609 C1625 1.349 . S
C1610 C1608 1.327 . S
C1610 C1629 1.429 . S
C1610 H1634 0.950 . S
C1611 C1628 1.574 . S
C1611 C1630 1.368 . S
C1611 H1635 0.949 . S
H1612 C1616 0.949 . S
C1613 C1614 1.349 . S
C1613 C1615 1.327 . S
C1613 H1636 0.950 . S
C1614 C1613 1.349 . S
C1614 C1626 1.349 . S
C1615 C1613 1.327 . S
C1615 C1631 1.429 . S
C1615 H1637 0.950 . S
C1616 H1612 0.949 . S
C1616 C1624 1.574 . S
C1616 C1632 1.368 . S
H1617 C1625 0.950 . S
H1618 C1623 0.950 . S
H1619 C1624 0.949 . S
H1620 C1626 0.950 . S
H1621 C1627 0.950 . S
H1622 C1628 0.949 . S
C1623 H1618 0.950 . S
C1623 C1625 1.327 . S
C1623 C1629 1.429 . S
C1624 C1616 1.574 . S
C1624 H1619 0.949 . S
C1624 C1630 1.368 . S
C1625 C1609 1.349 . S
C1625 H1617 0.950 . S
C1625 C1623 1.327 . S
C1626 C1614 1.349 . S
C1626 H1620 0.950 . S
C1626 C1627 1.327 . S
C1627 H1621 0.950 . S
C1627 C1626 1.327 . S
C1627 C1631 1.429 . S
C1628 C1611 1.574 . S
C1628 H1622 0.949 . S
C1628 C1632 1.368 . S
C1629 C1610 1.429 . S
C1629 C1623 1.429 . S
C1629 C1630 1.523 . S
C1630 C1611 1.368 . S
C1630 C1624 1.368 . S
C1630 C1629 1.523 . S
C1631 C1615 1.429 . S
C1631 C1627 1.429 . S
C1631 C1632 1.523 . S
C1632 C1616 1.368 . S
C1632 C1628 1.368 . S
C1632 C1631 1.523 . S
H1633 C1608 0.950 . S
H1634 C1610 0.950 . S
H1635 C1611 0.949 . S
H1636 C1613 0.950 . S
H1637 C1615 0.950 . S
C1638 C1639 1.349 1_655 S
C1638 C1640 1.327 . S
C1638 H1663 0.950 . S
C1639 C1638 1.349 1_455 S
C1639 C1655 1.349 . S
C1640 C1638 1.327 . S
C1640 C1659 1.429 1_655 S
C1640 H1664 0.950 . S
C1641 C1658 1.574 . S
C1641 C1660 1.368 . S
C1641 H1665 0.949 . S
H1642 C1646 0.949 . S
C1643 C1644 1.349 1_455 S
C1643 C1645 1.327 . S
C1643 H1666 0.950 . S
C1644 C1643 1.349 1_655 S
C1644 C1656 1.349 . S
C1645 C1643 1.327 . S
C1645 C1661 1.429 1_455 S
C1645 H1667 0.950 . S
C1646 H1642 0.949 . S
C1646 C1654 1.574 . S
C1646 C1662 1.368 . S
H1647 C1655 0.950 . S
H1648 C1653 0.950 . S
H1649 C1654 0.949 . S
H1650 C1656 0.950 . S
H1651 C1657 0.950 . S
H1652 C1658 0.949 . S
C1653 H1648 0.950 . S
C1653 C1655 1.327 . S
C1653 C1659 1.429 . S
C1654 C1646 1.574 . S
C1654 H1649 0.949 . S
C1654 C1660 1.368 1_655 S
C1655 C1639 1.349 . S
C1655 H1647 0.950 . S
C1655 C1653 1.327 . S
C1656 C1644 1.349 . S
C1656 H1650 0.950 . S
C1656 C1657 1.327 . S
C1657 H1651 0.950 . S
C1657 C1656 1.327 . S
C1657 C1661 1.429 . S
C1658 C1641 1.574 . S
C1658 H1652 0.949 . S
C1658 C1662 1.368 1_455 S
C1659 C1640 1.429 1_455 S
C1659 C1653 1.429 . S
C1659 C1660 1.523 . S
C1660 C1641 1.368 . S
C1660 C1654 1.368 1_455 S
C1660 C1659 1.523 . S
C1661 C1645 1.429 1_655 S
C1661 C1657 1.429 . S
C1661 C1662 1.523 . S
C1662 C1646 1.368 . S
C1662 C1658 1.368 1_655 S
C1662 C1661 1.523 . S
H1663 C1638 0.950 . S
H1664 C1640 0.950 . S
H1665 C1641 0.949 . S
H1666 C1643 0.950 . S
H1667 C1645 0.950 . S
C1668 C1669 1.349 . S
C1668 C1670 1.327 . S
C1668 H1693 0.950 . S
C1669 C1668 1.349 . S
C1669 C1685 1.349 . S
C1670 C1668 1.327 . S
C1670 C1689 1.429 . S
C1670 H1694 0.950 . S
C1671 C1688 1.574 . S
C1671 C1690 1.368 . S
C1671 H1695 0.949 . S
H1672 C1676 0.949 . S
C1673 C1674 1.349 . S
C1673 C1675 1.327 . S
C1673 H1696 0.950 . S
C1674 C1673 1.349 . S
C1674 C1686 1.349 . S
C1675 C1673 1.327 . S
C1675 C1691 1.429 . S
C1675 H1697 0.950 . S
C1676 H1672 0.949 . S
C1676 C1684 1.574 . S
C1676 C1692 1.368 . S
H1677 C1685 0.950 . S
H1678 C1683 0.950 . S
H1679 C1684 0.949 . S
H1680 C1686 0.950 . S
H1681 C1687 0.950 . S
H1682 C1688 0.949 . S
C1683 H1678 0.950 . S
C1683 C1685 1.327 . S
C1683 C1689 1.429 . S
C1684 C1676 1.574 . S
C1684 H1679 0.949 . S
C1684 C1690 1.368 . S
C1685 C1669 1.349 . S
C1685 H1677 0.950 . S
C1685 C1683 1.327 . S
C1686 C1674 1.349 . S
C1686 H1680 0.950 . S
C1686 C1687 1.327 . S
C1687 H1681 0.950 . S
C1687 C1686 1.327 . S
C1687 C1691 1.429 . S
C1688 C1671 1.574 . S
C1688 H1682 0.949 . S
C1688 C1692 1.368 . S
C1689 C1670 1.429 . S
C1689 C1683 1.429 . S
C1689 C1690 1.523 . S
C1690 C1671 1.368 . S
C1690 C1684 1.368 . S
C1690 C1689 1.523 . S
C1691 C1675 1.429 . S
C1691 C1687 1.429 . S
C1691 C1692 1.523 . S
C1692 C1676 1.368 . S
C1692 C1688 1.368 . S
C1692 C1691 1.523 . S
H1693 C1668 0.950 . S
H1694 C1670 0.950 . S
H1695 C1671 0.949 . S
H1696 C1673 0.950 . S
H1697 C1675 0.950 . S
C1698 C1699 1.349 . S
C1698 C1700 1.327 . S
C1698 H1723 0.950 . S
C1699 C1698 1.349 . S
C1699 C1715 1.349 . S
C1700 C1698 1.327 . S
C1700 C1719 1.429 . S
C1700 H1724 0.950 . S
C1701 C1718 1.574 . S
C1701 C1720 1.368 . S
C1701 H1725 0.949 . S
H1702 C1706 0.949 . S
C1703 C1704 1.349 . S
C1703 C1705 1.327 . S
C1703 H1726 0.950 . S
C1704 C1703 1.349 . S
C1704 C1716 1.349 . S
C1705 C1703 1.327 . S
C1705 C1721 1.429 . S
C1705 H1727 0.950 . S
C1706 H1702 0.949 . S
C1706 C1714 1.574 . S
C1706 C1722 1.368 . S
H1707 C1715 0.950 . S
H1708 C1713 0.950 . S
H1709 C1714 0.949 . S
H1710 C1716 0.950 . S
H1711 C1717 0.950 . S
H1712 C1718 0.949 . S
C1713 H1708 0.950 . S
C1713 C1715 1.327 . S
C1713 C1719 1.429 . S
C1714 C1706 1.574 . S
C1714 H1709 0.949 . S
C1714 C1720 1.368 . S
C1715 C1699 1.349 . S
C1715 H1707 0.950 . S
C1715 C1713 1.327 . S
C1716 C1704 1.349 . S
C1716 H1710 0.950 . S
C1716 C1717 1.327 . S
C1717 H1711 0.950 . S
C1717 C1716 1.327 . S
C1717 C1721 1.429 . S
C1718 C1701 1.574 . S
C1718 H1712 0.949 . S
C1718 C1722 1.368 . S
C1719 C1700 1.429 . S
C1719 C1713 1.429 . S
C1719 C1720 1.523 . S
C1720 C1701 1.368 . S
C1720 C1714 1.368 . S
C1720 C1719 1.523 . S
C1721 C1705 1.429 . S
C1721 C1717 1.429 . S
C1721 C1722 1.523 . S
C1722 C1706 1.368 . S
C1722 C1718 1.368 . S
C1722 C1721 1.523 . S
H1723 C1698 0.950 . S
H1724 C1700 0.950 . S
H1725 C1701 0.949 . S
H1726 C1703 0.950 . S
H1727 C1705 0.950 . S
C1728 C1729 1.349 . S
C1728 C1730 1.327 . S
C1728 H1753 0.950 . S
C1729 C1728 1.349 . S
C1729 C1745 1.349 1_554 S
C1730 C1728 1.327 . S
C1730 C1749 1.429 . S
C1730 H1754 0.950 . S
C1731 C1748 1.574 . S
C1731 C1750 1.368 1_556 S
C1731 H1755 0.949 . S
H1732 C1736 0.949 . S
C1733 C1734 1.349 . S
C1733 C1735 1.327 . S
C1733 H1756 0.950 . S
C1734 C1733 1.349 . S
C1734 C1746 1.349 1_556 S
C1735 C1733 1.327 . S
C1735 C1751 1.429 . S
C1735 H1757 0.950 . S
C1736 H1732 0.949 . S
C1736 C1744 1.574 . S
C1736 C1752 1.368 1_554 S
H1737 C1745 0.950 . S
H1738 C1743 0.950 . S
H1739 C1744 0.949 . S
H1740 C1746 0.950 . S
H1741 C1747 0.950 . S
H1742 C1748 0.949 . S
C1743 H1738 0.950 . S
C1743 C1745 1.327 . S
C1743 C1749 1.429 1_556 S
C1744 C1736 1.574 . S
C1744 H1739 0.949 . S
C1744 C1750 1.368 . S
C1745 C1729 1.349 1_556 S
C1745 H1737 0.950 . S
C1745 C1743 1.327 . S
C1746 C1734 1.349 1_554 S
C1746 H1740 0.950 . S
C1746 C1747 1.327 . S
C1747 H1741 0.950 . S
C1747 C1746 1.327 . S
C1747 C1751 1.429 1_554 S
C1748 C1731 1.574 . S
C1748 H1742 0.949 . S
C1748 C1752 1.368 . S
C1749 C1730 1.429 . S
C1749 C1743 1.429 1_554 S
C1749 C1750 1.523 . S
C1750 C1731 1.368 1_554 S
C1750 C1744 1.368 . S
C1750 C1749 1.523 . S
C1751 C1735 1.429 . S
C1751 C1747 1.429 1_556 S
C1751 C1752 1.523 . S
C1752 C1736 1.368 1_556 S
C1752 C1748 1.368 . S
C1752 C1751 1.523 . S
H1753 C1728 0.950 . S
H1754 C1730 0.950 . S
H1755 C1731 0.949 . S
H1756 C1733 0.950 . S
H1757 C1735 0.950 . S
C1758 C1759 1.349 . S
C1758 C1760 1.327 . S
C1758 H1783 0.950 1_455 S
C1759 C1758 1.349 . S
C1759 C1775 1.349 . S
C1760 C1758 1.327 . S
C1760 C1779 1.429 . S
C1760 H1784 0.950 1_455 S
C1761 C1778 1.574 . S
C1761 C1780 1.368 . S
C1761 H1785 0.949 . S
H1762 C1766 0.949 1_655 S
C1763 C1764 1.349 . S
C1763 C1765 1.327 . S
C1763 H1786 0.950 . S
C1764 C1763 1.349 . S
C1764 C1776 1.349 . S
C1765 C1763 1.327 . S
C1765 C1781 1.429 . S
C1765 H1787 0.950 . S
C1766 H1762 0.949 1_455 S
C1766 C1774 1.574 . S
C1766 C1782 1.368 . S
H1767 C1775 0.950 . S
H1768 C1773 0.950 . S
H1769 C1774 0.949 1_655 S
H1770 C1776 0.950 1_655 S
H1771 C1777 0.950 1_655 S
H1772 C1778 0.949 . S
C1773 H1768 0.950 . S
C1773 C1775 1.327 . S
C1773 C1779 1.429 . S
C1774 C1766 1.574 . S
C1774 H1769 0.949 1_455 S
C1774 C1780 1.368 . S
C1775 C1759 1.349 . S
C1775 H1767 0.950 . S
C1775 C1773 1.327 . S
C1776 C1764 1.349 . S
C1776 H1770 0.950 1_455 S
C1776 C1777 1.327 . S
C1777 H1771 0.950 1_455 S
C1777 C1776 1.327 . S
C1777 C1781 1.429 . S
C1778 C1761 1.574 . S
C1778 H1772 0.949 . S
C1778 C1782 1.368 . S
C1779 C1760 1.429 . S
C1779 C1773 1.429 . S
C1779 C1780 1.523 . S
C1780 C1761 1.368 . S
C1780 C1774 1.368 . S
C1780 C1779 1.523 . S
C1781 C1765 1.429 . S
C1781 C1777 1.429 . S
C1781 C1782 1.523 . S
C1782 C1766 1.368 . S
C1782 C1778 1.368 . S
C1782 C1781 1.523 . S
H1783 C1758 0.950 1_655 S
H1784 C1760 0.950 1_655 S
H1785 C1761 0.949 . S
H1786 C1763 0.950 . S
H1787 C1765 0.950 . S
C1788 C1789 1.349 . S
C1788 C1790 1.327 . S
C1788 H1813 0.950 . S
C1789 C1788 1.349 . S
C1789 C1805 1.349 . S
C1790 C1788 1.327 . S
C1790 C1809 1.429 . S
C1790 H1814 0.950 . S
C1791 C1808 1.574 . S
C1791 C1810 1.368 . S
C1791 H1815 0.949 . S
H1792 C1796 0.949 . S
C1793 C1794 1.349 . S
C1793 C1795 1.327 . S
C1793 H1816 0.950 . S
C1794 C1793 1.349 . S
C1794 C1806 1.349 . S
C1795 C1793 1.327 . S
C1795 C1811 1.429 . S
C1795 H1817 0.950 . S
C1796 H1792 0.949 . S
C1796 C1804 1.574 . S
C1796 C1812 1.368 . S
H1797 C1805 0.950 . S
H1798 C1803 0.950 . S
H1799 C1804 0.949 . S
H1800 C1806 0.950 . S
H1801 C1807 0.950 . S
H1802 C1808 0.949 . S
C1803 H1798 0.950 . S
C1803 C1805 1.327 . S
C1803 C1809 1.429 . S
C1804 C1796 1.574 . S
C1804 H1799 0.949 . S
C1804 C1810 1.368 . S
C1805 C1789 1.349 . S
C1805 H1797 0.950 . S
C1805 C1803 1.327 . S
C1806 C1794 1.349 . S
C1806 H1800 0.950 . S
C1806 C1807 1.327 . S
C1807 H1801 0.950 . S
C1807 C1806 1.327 . S
C1807 C1811 1.429 . S
C1808 C1791 1.574 . S
C1808 H1802 0.949 . S
C1808 C1812 1.368 . S
C1809 C1790 1.429 . S
C1809 C1803 1.429 . S
C1809 C1810 1.523 . S
C1810 C1791 1.368 . S
C1810 C1804 1.368 . S
C1810 C1809 1.523 . S
C1811 C1795 1.429 . S
C1811 C1807 1.429 . S
C1811 C1812 1.523 . S
C1812 C1796 1.368 . S
C1812 C1808 1.368 . S
C1812 C1811 1.523 . S
H1813 C1788 0.950 . S
H1814 C1790 0.950 . S
H1815 C1791 0.949 . S
H1816 C1793 0.950 . S
H1817 C1795 0.950 . S
C1818 C1819 1.349 . S
C1818 C1820 1.327 . S
C1818 H1843 0.950 . S
C1819 C1818 1.349 . S
C1819 C1835 1.349 . S
C1820 C1818 1.327 . S
C1820 C1839 1.429 . S
C1820 H1844 0.950 . S
C1821 C1838 1.574 . S
C1821 C1840 1.368 . S
C1821 H1845 0.949 . S
H1822 C1826 0.949 . S
C1823 C1824 1.349 . S
C1823 C1825 1.327 . S
C1823 H1846 0.950 . S
C1824 C1823 1.349 . S
C1824 C1836 1.349 . S
C1825 C1823 1.327 . S
C1825 C1841 1.429 . S
C1825 H1847 0.950 . S
C1826 H1822 0.949 . S
C1826 C1834 1.574 . S
C1826 C1842 1.368 . S
H1827 C1835 0.950 . S
H1828 C1833 0.950 . S
H1829 C1834 0.949 . S
H1830 C1836 0.950 . S
H1831 C1837 0.950 . S
H1832 C1838 0.949 . S
C1833 H1828 0.950 . S
C1833 C1835 1.327 . S
C1833 C1839 1.429 . S
C1834 C1826 1.574 . S
C1834 H1829 0.949 . S
C1834 C1840 1.368 . S
C1835 C1819 1.349 . S
C1835 H1827 0.950 . S
C1835 C1833 1.327 . S
C1836 C1824 1.349 . S
C1836 H1830 0.950 . S
C1836 C1837 1.327 . S
C1837 H1831 0.950 . S
C1837 C1836 1.327 . S
C1837 C1841 1.429 . S
C1838 C1821 1.574 . S
C1838 H1832 0.949 . S
C1838 C1842 1.368 . S
C1839 C1820 1.429 . S
C1839 C1833 1.429 . S
C1839 C1840 1.523 . S
C1840 C1821 1.368 . S
C1840 C1834 1.368 . S
C1840 C1839 1.523 . S
C1841 C1825 1.429 . S
C1841 C1837 1.429 . S
C1841 C1842 1.523 . S
C1842 C1826 1.368 . S
C1842 C1838 1.368 . S
C1842 C1841 1.523 . S
H1843 C1818 0.950 . S
H1844 C1820 0.950 . S
H1845 C1821 0.949 . S
H1846 C1823 0.950 . S
H1847 C1825 0.950 . S
C1848 C1849 1.349 . S
C1848 C1850 1.327 . S
C1848 H1873 0.950 . S
C1849 C1848 1.349 . S
C1849 C1865 1.349 . S
C1850 C1848 1.327 . S
C1850 C1869 1.429 . S
C1850 H1874 0.950 . S
C1851 C1868 1.574 . S
C1851 C1870 1.368 . S
C1851 H1875 0.949 . S
H1852 C1856 0.949 . S
C1853 C1854 1.349 . S
C1853 C1855 1.327 . S
C1853 H1876 0.950 . S
C1854 C1853 1.349 . S
C1854 C1866 1.349 . S
C1855 C1853 1.327 . S
C1855 C1871 1.429 . S
C1855 H1877 0.950 . S
C1856 H1852 0.949 . S
C1856 C1864 1.574 . S
C1856 C1872 1.368 . S
H1857 C1865 0.950 . S
H1858 C1863 0.950 . S
H1859 C1864 0.949 . S
H1860 C1866 0.950 . S
H1861 C1867 0.950 . S
H1862 C1868 0.949 . S
C1863 H1858 0.950 . S
C1863 C1865 1.327 . S
C1863 C1869 1.429 . S
C1864 C1856 1.574 . S
C1864 H1859 0.949 . S
C1864 C1870 1.368 . S
C1865 C1849 1.349 . S
C1865 H1857 0.950 . S
C1865 C1863 1.327 . S
C1866 C1854 1.349 . S
C1866 H1860 0.950 . S
C1866 C1867 1.327 . S
C1867 H1861 0.950 . S
C1867 C1866 1.327 . S
C1867 C1871 1.429 . S
C1868 C1851 1.574 . S
C1868 H1862 0.949 . S
C1868 C1872 1.368 . S
C1869 C1850 1.429 . S
C1869 C1863 1.429 . S
C1869 C1870 1.523 . S
C1870 C1851 1.368 . S
C1870 C1864 1.368 . S
C1870 C1869 1.523 . S
C1871 C1855 1.429 . S
C1871 C1867 1.429 . S
C1871 C1872 1.523 . S
C1872 C1856 1.368 . S
C1872 C1868 1.368 . S
C1872 C1871 1.523 . S
H1873 C1848 0.950 . S
H1874 C1850 0.950 . S
H1875 C1851 0.949 . S
H1876 C1853 0.950 . S
H1877 C1855 0.950 . S
C1878 C1879 1.349 . S
C1878 C1880 1.327 . S
C1878 H1903 0.950 . S
C1879 C1878 1.349 . S
C1879 C1895 1.349 . S
C1880 C1878 1.327 . S
C1880 C1899 1.429 . S
C1880 H1904 0.950 . S
C1881 C1898 1.574 1_554 S
C1881 C1900 1.368 . S
C1881 H1905 0.949 . S
H1882 C1886 0.949 . S
C1883 C1884 1.349 . S
C1883 C1885 1.327 . S
C1883 H1906 0.950 . S
C1884 C1883 1.349 . S
C1884 C1896 1.349 . S
C1885 C1883 1.327 . S
C1885 C1901 1.429 . S
C1885 H1907 0.950 . S
C1886 H1882 0.949 . S
C1886 C1894 1.574 1_556 S
C1886 C1902 1.368 . S
H1887 C1895 0.950 . S
H1888 C1893 0.950 . S
H1889 C1894 0.949 . S
H1890 C1896 0.950 . S
H1891 C1897 0.950 . S
H1892 C1898 0.949 . S
C1893 H1888 0.950 . S
C1893 C1895 1.327 . S
C1893 C1899 1.429 . S
C1894 C1886 1.574 1_554 S
C1894 H1889 0.949 . S
C1894 C1900 1.368 . S
C1895 C1879 1.349 . S
C1895 H1887 0.950 . S
C1895 C1893 1.327 . S
C1896 C1884 1.349 . S
C1896 H1890 0.950 . S
C1896 C1897 1.327 . S
C1897 H1891 0.950 . S
C1897 C1896 1.327 . S
C1897 C1901 1.429 . S
C1898 C1881 1.574 1_556 S
C1898 H1892 0.949 . S
C1898 C1902 1.368 . S
C1899 C1880 1.429 . S
C1899 C1893 1.429 . S
C1899 C1900 1.523 . S
C1900 C1881 1.368 . S
C1900 C1894 1.368 . S
C1900 C1899 1.523 . S
C1901 C1885 1.429 . S
C1901 C1897 1.429 . S
C1901 C1902 1.523 . S
C1902 C1886 1.368 . S
C1902 C1898 1.368 . S
C1902 C1901 1.523 . S
H1903 C1878 0.950 . S
H1904 C1880 0.950 . S
H1905 C1881 0.949 . S
H1906 C1883 0.950 . S
H1907 C1885 0.950 . S
C1908 C1909 1.349 . S
C1908 C1910 1.327 . S
C1908 H1933 0.950 . S
C1909 C1908 1.349 . S
C1909 C1925 1.349 . S
C1910 C1908 1.327 . S
C1910 C1929 1.429 . S
C1910 H1934 0.950 . S
C1911 C1928 1.574 . S
C1911 C1930 1.368 . S
C1911 H1935 0.949 . S
H1912 C1916 0.949 . S
C1913 C1914 1.349 . S
C1913 C1915 1.327 . S
C1913 H1936 0.950 . S
C1914 C1913 1.349 . S
C1914 C1926 1.349 . S
C1915 C1913 1.327 . S
C1915 C1931 1.429 . S
C1915 H1937 0.950 . S
C1916 H1912 0.949 . S
C1916 C1924 1.574 . S
C1916 C1932 1.368 . S
H1917 C1925 0.950 . S
H1918 C1923 0.950 . S
H1919 C1924 0.949 . S
H1920 C1926 0.950 . S
H1921 C1927 0.950 . S
H1922 C1928 0.949 . S
C1923 H1918 0.950 . S
C1923 C1925 1.327 . S
C1923 C1929 1.429 . S
C1924 C1916 1.574 . S
C1924 H1919 0.949 . S
C1924 C1930 1.368 . S
C1925 C1909 1.349 . S
C1925 H1917 0.950 . S
C1925 C1923 1.327 . S
C1926 C1914 1.349 . S
C1926 H1920 0.950 . S
C1926 C1927 1.327 . S
C1927 H1921 0.950 . S
C1927 C1926 1.327 . S
C1927 C1931 1.429 . S
C1928 C1911 1.574 . S
C1928 H1922 0.949 . S
C1928 C1932 1.368 . S
C1929 C1910 1.429 . S
C1929 C1923 1.429 . S
C1929 C1930 1.523 . S
C1930 C1911 1.368 . S
C1930 C1924 1.368 . S
C1930 C1929 1.523 . S
C1931 C1915 1.429 . S
C1931 C1927 1.429 . S
C1931 C1932 1.523 . S
C1932 C1916 1.368 . S
C1932 C1928 1.368 . S
C1932 C1931 1.523 . S
H1933 C1908 0.950 . S
H1934 C1910 0.950 . S
H1935 C1911 0.949 . S
H1936 C1913 0.950 . S
H1937 C1915 0.950 . S
C1938 C1939 1.349 . S
C1938 C1940 1.327 . S
C1938 H1963 0.950 . S
C1939 C1938 1.349 . S
C1939 C1955 1.349 . S
C1940 C1938 1.327 . S
C1940 C1959 1.429 . S
C1940 H1964 0.950 . S
C1941 C1958 1.574 . S
C1941 C1960 1.368 . S
C1941 H1965 0.949 . S
H1942 C1946 0.949 . S
C1943 C1944 1.349 . S
C1943 C1945 1.327 . S
C1943 H1966 0.950 . S
C1944 C1943 1.349 . S
C1944 C1956 1.349 . S
C1945 C1943 1.327 . S
C1945 C1961 1.429 . S
C1945 H1967 0.950 . S
C1946 H1942 0.949 . S
C1946 C1954 1.574 . S
C1946 C1962 1.368 . S
H1947 C1955 0.950 . S
H1948 C1953 0.950 . S
H1949 C1954 0.949 . S
H1950 C1956 0.950 . S
H1951 C1957 0.950 . S
H1952 C1958 0.949 . S
C1953 H1948 0.950 . S
C1953 C1955 1.327 . S
C1953 C1959 1.429 . S
C1954 C1946 1.574 . S
C1954 H1949 0.949 . S
C1954 C1960 1.368 . S
C1955 C1939 1.349 . S
C1955 H1947 0.950 . S
C1955 C1953 1.327 . S
C1956 C1944 1.349 . S
C1956 H1950 0.950 . S
C1956 C1957 1.327 . S
C1957 H1951 0.950 . S
C1957 C1956 1.327 . S
C1957 C1961 1.429 . S
C1958 C1941 1.574 . S
C1958 H1952 0.949 . S
C1958 C1962 1.368 . S
C1959 C1940 1.429 . S
C1959 C1953 1.429 . S
C1959 C1960 1.523 . S
C1960 C1941 1.368 . S
C1960 C1954 1.368 . S
C1960 C1959 1.523 . S
C1961 C1945 1.429 . S
C1961 C1957 1.429 . S
C1961 C1962 1.523 . S
C1962 C1946 1.368 . S
C1962 C1958 1.368 . S
C1962 C1961 1.523 . S
H1963 C1938 0.950 . S
H1964 C1940 0.950 . S
H1965 C1941 0.949 . S
H1966 C1943 0.950 . S
H1967 C1945 0.950 . S
C1968 C1969 1.349 . S
C1968 C1970 1.327 . S
C1968 H1993 0.950 . S
C1969 C1968 1.349 . S
C1969 C1985 1.349 . S
C1970 C1968 1.327 . S
C1970 C1989 1.429 . S
C1970 H1994 0.950 . S
C1971 C1988 1.574 . S
C1971 C1990 1.368 . S
C1971 H1995 0.949 . S
H1972 C1976 0.949 . S
C1973 C1974 1.349 . S
C1973 C1975 1.327 . S
C1973 H1996 0.950 . S
C1974 C1973 1.349 . S
C1974 C1986 1.349 . S
C1975 C1973 1.327 . S
C1975 C1991 1.429 . S
C1975 H1997 0.950 . S
C1976 H1972 0.949 . S
C1976 C1984 1.574 . S
C1976 C1992 1.368 . S
H1977 C1985 0.950 . S
H1978 C1983 0.950 . S
H1979 C1984 0.949 . S
H1980 C1986 0.950 . S
H1981 C1987 0.950 . S
H1982 C1988 0.949 . S
C1983 H1978 0.950 . S
C1983 C1985 1.327 . S
C1983 C1989 1.429 . S
C1984 C1976 1.574 . S
C1984 H1979 0.949 . S
C1984 C1990 1.368 . S
C1985 C1969 1.349 . S
C1985 H1977 0.950 . S
C1985 C1983 1.327 . S
C1986 C1974 1.349 . S
C1986 H1980 0.950 . S
C1986 C1987 1.327 . S
C1987 H1981 0.950 . S
C1987 C1986 1.327 . S
C1987 C1991 1.429 . S
C1988 C1971 1.574 . S
C1988 H1982 0.949 . S
C1988 C1992 1.368 . S
C1989 C1970 1.429 . S
C1989 C1983 1.429 . S
C1989 C1990 1.523 . S
C1990 C1971 1.368 . S
C1990 C1984 1.368 . S
C1990 C1989 1.523 . S
C1991 C1975 1.429 . S
C1991 C1987 1.429 . S
C1991 C1992 1.523 . S
C1992 C1976 1.368 . S
C1992 C1988 1.368 . S
C1992 C1991 1.523 . S
H1993 C1968 0.950 . S
H1994 C1970 0.950 . S
H1995 C1971 0.949 . S
H1996 C1973 0.950 . S
H1997 C1975 0.950 . S
C1998 C1999 1.349 . S
C1998 C2000 1.327 . S
C1998 H2023 0.950 . S
C1999 C1998 1.349 . S
C1999 C2015 1.349 . S
C2000 C1998 1.327 . S
C2000 C2019 1.429 . S
C2000 H2024 0.950 . S
C2001 C2018 1.574 . S
C2001 C2020 1.368 . S
C2001 H2025 0.949 . S
H2002 C2006 0.949 . S
C2003 C2004 1.349 . S
C2003 C2005 1.327 . S
C2003 H2026 0.950 . S
C2004 C2003 1.349 . S
C2004 C2016 1.349 . S
C2005 C2003 1.327 . S
C2005 C2021 1.429 . S
C2005 H2027 0.950 . S
C2006 H2002 0.949 . S
C2006 C2014 1.574 . S
C2006 C2022 1.368 . S
H2007 C2015 0.950 . S
H2008 C2013 0.950 . S
H2009 C2014 0.949 . S
H2010 C2016 0.950 . S
H2011 C2017 0.950 . S
H2012 C2018 0.949 . S
C2013 H2008 0.950 . S
C2013 C2015 1.327 . S
C2013 C2019 1.429 . S
C2014 C2006 1.574 . S
C2014 H2009 0.949 . S
C2014 C2020 1.368 . S
C2015 C1999 1.349 . S
C2015 H2007 0.950 . S
C2015 C2013 1.327 . S
C2016 C2004 1.349 . S
C2016 H2010 0.950 . S
C2016 C2017 1.327 . S
C2017 H2011 0.950 . S
C2017 C2016 1.327 . S
C2017 C2021 1.429 . S
C2018 C2001 1.574 . S
C2018 H2012 0.949 . S
C2018 C2022 1.368 . S
C2019 C2000 1.429 . S
C2019 C2013 1.429 . S
C2019 C2020 1.523 . S
C2020 C2001 1.368 . S
C2020 C2014 1.368 . S
C2020 C2019 1.523 . S
C2021 C2005 1.429 . S
C2021 C2017 1.429 . S
C2021 C2022 1.523 . S
C2022 C2006 1.368 . S
C2022 C2018 1.368 . S
C2022 C2021 1.523 . S
H2023 C1998 0.950 . S
H2024 C2000 0.950 . S
H2025 C2001 0.949 . S
H2026 C2003 0.950 . S
H2027 C2005 0.950 . S
C2028 C2029 1.349 . S
C2028 C2030 1.327 . S
C2028 H2053 0.950 . S
C2029 C2028 1.349 . S
C2029 C2045 1.349 . S
C2030 C2028 1.327 . S
C2030 C2049 1.429 . S
C2030 H2054 0.950 . S
C2031 C2048 1.574 . S
C2031 C2050 1.368 . S
C2031 H2055 0.949 . S
H2032 C2036 0.949 . S
C2033 C2034 1.349 . S
C2033 C2035 1.327 . S
C2033 H2056 0.950 . S
C2034 C2033 1.349 . S
C2034 C2046 1.349 . S
C2035 C2033 1.327 . S
C2035 C2051 1.429 . S
C2035 H2057 0.950 . S
C2036 H2032 0.949 . S
C2036 C2044 1.574 . S
C2036 C2052 1.368 . S
H2037 C2045 0.950 . S
H2038 C2043 0.950 . S
H2039 C2044 0.949 . S
H2040 C2046 0.950 . S
H2041 C2047 0.950 . S
H2042 C2048 0.949 . S
C2043 H2038 0.950 . S
C2043 C2045 1.327 . S
C2043 C2049 1.429 . S
C2044 C2036 1.574 . S
C2044 H2039 0.949 . S
C2044 C2050 1.368 . S
C2045 C2029 1.349 . S
C2045 H2037 0.950 . S
C2045 C2043 1.327 . S
C2046 C2034 1.349 . S
C2046 H2040 0.950 . S
C2046 C2047 1.327 . S
C2047 H2041 0.950 . S
C2047 C2046 1.327 . S
C2047 C2051 1.429 . S
C2048 C2031 1.574 . S
C2048 H2042 0.949 . S
C2048 C2052 1.368 . S
C2049 C2030 1.429 . S
C2049 C2043 1.429 . S
C2049 C2050 1.523 . S
C2050 C2031 1.368 . S
C2050 C2044 1.368 . S
C2050 C2049 1.523 . S
C2051 C2035 1.429 . S
C2051 C2047 1.429 . S
C2051 C2052 1.523 . S
C2052 C2036 1.368 . S
C2052 C2048 1.368 . S
C2052 C2051 1.523 . S
H2053 C2028 0.950 . S
H2054 C2030 0.950 . S
H2055 C2031 0.949 . S
H2056 C2033 0.950 . S
H2057 C2035 0.950 . S
C2058 C2059 1.349 . S
C2058 C2060 1.327 . S
C2058 H2083 0.950 . S
C2059 C2058 1.349 . S
C2059 C2075 1.349 . S
C2060 C2058 1.327 . S
C2060 C2079 1.429 . S
C2060 H2084 0.950 . S
C2061 C2078 1.574 . S
C2061 C2080 1.368 . S
C2061 H2085 0.949 . S
H2062 C2066 0.949 . S
C2063 C2064 1.349 . S
C2063 C2065 1.327 . S
C2063 H2086 0.950 . S
C2064 C2063 1.349 . S
C2064 C2076 1.349 . S
C2065 C2063 1.327 . S
C2065 C2081 1.429 . S
C2065 H2087 0.950 . S
C2066 H2062 0.949 . S
C2066 C2074 1.574 . S
C2066 C2082 1.368 . S
H2067 C2075 0.950 . S
H2068 C2073 0.950 . S
H2069 C2074 0.949 . S
H2070 C2076 0.950 . S
H2071 C2077 0.950 . S
H2072 C2078 0.949 . S
C2073 H2068 0.950 . S
C2073 C2075 1.327 . S
C2073 C2079 1.429 . S
C2074 C2066 1.574 . S
C2074 H2069 0.949 . S
C2074 C2080 1.368 . S
C2075 C2059 1.349 . S
C2075 H2067 0.950 . S
C2075 C2073 1.327 . S
C2076 C2064 1.349 . S
C2076 H2070 0.950 . S
C2076 C2077 1.327 . S
C2077 H2071 0.950 . S
C2077 C2076 1.327 . S
C2077 C2081 1.429 . S
C2078 C2061 1.574 . S
C2078 H2072 0.949 . S
C2078 C2082 1.368 . S
C2079 C2060 1.429 . S
C2079 C2073 1.429 . S
C2079 C2080 1.523 . S
C2080 C2061 1.368 . S
C2080 C2074 1.368 . S
C2080 C2079 1.523 . S
C2081 C2065 1.429 . S
C2081 C2077 1.429 . S
C2081 C2082 1.523 . S
C2082 C2066 1.368 . S
C2082 C2078 1.368 . S
C2082 C2081 1.523 . S
H2083 C2058 0.950 . S
H2084 C2060 0.950 . S
H2085 C2061 0.949 . S
H2086 C2063 0.950 . S
H2087 C2065 0.950 . S
C2088 C2089 1.349 . S
C2088 C2090 1.327 . S
C2088 H2113 0.950 . S
C2089 C2088 1.349 . S
C2089 C2105 1.349 . S
C2090 C2088 1.327 . S
C2090 C2109 1.429 . S
C2090 H2114 0.950 . S
C2091 C2108 1.574 . S
C2091 C2110 1.368 . S
C2091 H2115 0.949 . S
H2092 C2096 0.949 . S
C2093 C2094 1.349 . S
C2093 C2095 1.327 . S
C2093 H2116 0.950 . S
C2094 C2093 1.349 . S
C2094 C2106 1.349 . S
C2095 C2093 1.327 . S
C2095 C2111 1.429 . S
C2095 H2117 0.950 . S
C2096 H2092 0.949 . S
C2096 C2104 1.574 . S
C2096 C2112 1.368 . S
H2097 C2105 0.950 . S
H2098 C2103 0.950 . S
H2099 C2104 0.949 . S
H2100 C2106 0.950 . S
H2101 C2107 0.950 . S
H2102 C2108 0.949 . S
C2103 H2098 0.950 . S
C2103 C2105 1.327 . S
C2103 C2109 1.429 . S
C2104 C2096 1.574 . S
C2104 H2099 0.949 . S
C2104 C2110 1.368 . S
C2105 C2089 1.349 . S
C2105 H2097 0.950 . S
C2105 C2103 1.327 . S
C2106 C2094 1.349 . S
C2106 H2100 0.950 . S
C2106 C2107 1.327 . S
C2107 H2101 0.950 . S
C2107 C2106 1.327 . S
C2107 C2111 1.429 . S
C2108 C2091 1.574 . S
C2108 H2102 0.949 . S
C2108 C2112 1.368 . S
C2109 C2090 1.429 . S
C2109 C2103 1.429 . S
C2109 C2110 1.523 . S
C2110 C2091 1.368 . S
C2110 C2104 1.368 . S
C2110 C2109 1.523 . S
C2111 C2095 1.429 . S
C2111 C2107 1.429 . S
C2111 C2112 1.523 . S
C2112 C2096 1.368 . S
C2112 C2108 1.368 . S
C2112 C2111 1.523 . S
H2113 C2088 0.950 . S
H2114 C2090 0.950 . S
H2115 C2091 0.949 . S
H2116 C2093 0.950 . S
H2117 C2095 0.950 . S
C2118 C2119 1.349 . S
C2118 C2120 1.327 . S
C2118 H2143 0.950 . S
C2119 C2118 1.349 . S
C2119 C2135 1.349 . S
C2120 C2118 1.327 . S
C2120 C2139 1.429 . S
C2120 H2144 0.950 . S
C2121 C2138 1.574 . S
C2121 C2140 1.368 . S
C2121 H2145 0.949 . S
H2122 C2126 0.949 . S
C2123 C2124 1.349 . S
C2123 C2125 1.327 . S
C2123 H2146 0.950 . S
C2124 C2123 1.349 . S
C2124 C2136 1.349 . S
C2125 C2123 1.327 . S
C2125 C2141 1.429 . S
C2125 H2147 0.950 . S
C2126 H2122 0.949 . S
C2126 C2134 1.574 . S
C2126 C2142 1.368 . S
H2127 C2135 0.950 . S
H2128 C2133 0.950 . S
H2129 C2134 0.949 . S
H2130 C2136 0.950 . S
H2131 C2137 0.950 . S
H2132 C2138 0.949 . S
C2133 H2128 0.950 . S
C2133 C2135 1.327 . S
C2133 C2139 1.429 . S
C2134 C2126 1.574 . S
C2134 H2129 0.949 . S
C2134 C2140 1.368 . S
C2135 C2119 1.349 . S
C2135 H2127 0.950 . S
C2135 C2133 1.327 . S
C2136 C2124 1.349 . S
C2136 H2130 0.950 . S
C2136 C2137 1.327 . S
C2137 H2131 0.950 . S
C2137 C2136 1.327 . S
C2137 C2141 1.429 . S
C2138 C2121 1.574 . S
C2138 H2132 0.949 . S
C2138 C2142 1.368 . S
C2139 C2120 1.429 . S
C2139 C2133 1.429 . S
C2139 C2140 1.523 . S
C2140 C2121 1.368 . S
C2140 C2134 1.368 . S
C2140 C2139 1.523 . S
C2141 C2125 1.429 . S
C2141 C2137 1.429 . S
C2141 C2142 1.523 . S
C2142 C2126 1.368 . S
C2142 C2138 1.368 . S
C2142 C2141 1.523 . S
H2143 C2118 0.950 . S
H2144 C2120 0.950 . S
H2145 C2121 0.949 . S
H2146 C2123 0.950 . S
H2147 C2125 0.950 . S
C2148 C2149 1.349 . S
C2148 C2150 1.327 . S
C2148 H2173 0.950 . S
C2149 C2148 1.349 . S
C2149 C2165 1.349 . S
C2150 C2148 1.327 . S
C2150 C2169 1.429 . S
C2150 H2174 0.950 . S
C2151 C2168 1.574 . S
C2151 C2170 1.368 . S
C2151 H2175 0.949 . S
H2152 C2156 0.949 . S
C2153 C2154 1.349 . S
C2153 C2155 1.327 . S
C2153 H2176 0.950 . S
C2154 C2153 1.349 . S
C2154 C2166 1.349 . S
C2155 C2153 1.327 . S
C2155 C2171 1.429 . S
C2155 H2177 0.950 . S
C2156 H2152 0.949 . S
C2156 C2164 1.574 . S
C2156 C2172 1.368 . S
H2157 C2165 0.950 . S
H2158 C2163 0.950 . S
H2159 C2164 0.949 . S
H2160 C2166 0.950 . S
H2161 C2167 0.950 . S
H2162 C2168 0.949 . S
C2163 H2158 0.950 . S
C2163 C2165 1.327 . S
C2163 C2169 1.429 . S
C2164 C2156 1.574 . S
C2164 H2159 0.949 . S
C2164 C2170 1.368 . S
C2165 C2149 1.349 . S
C2165 H2157 0.950 . S
C2165 C2163 1.327 . S
C2166 C2154 1.349 . S
C2166 H2160 0.950 . S
C2166 C2167 1.327 . S
C2167 H2161 0.950 . S
C2167 C2166 1.327 . S
C2167 C2171 1.429 . S
C2168 C2151 1.574 . S
C2168 H2162 0.949 . S
C2168 C2172 1.368 . S
C2169 C2150 1.429 . S
C2169 C2163 1.429 . S
C2169 C2170 1.523 . S
C2170 C2151 1.368 . S
C2170 C2164 1.368 . S
C2170 C2169 1.523 . S
C2171 C2155 1.429 . S
C2171 C2167 1.429 . S
C2171 C2172 1.523 . S
C2172 C2156 1.368 . S
C2172 C2168 1.368 . S
C2172 C2171 1.523 . S
H2173 C2148 0.950 . S
H2174 C2150 0.950 . S
H2175 C2151 0.949 . S
H2176 C2153 0.950 . S
H2177 C2155 0.950 . S
C2178 C2179 1.349 . S
C2178 C2180 1.327 . S
C2178 H2203 0.950 . S
C2179 C2178 1.349 . S
C2179 C2195 1.349 . S
C2180 C2178 1.327 . S
C2180 C2199 1.429 . S
C2180 H2204 0.950 . S
C2181 C2198 1.574 . S
C2181 C2200 1.368 . S
C2181 H2205 0.949 . S
H2182 C2186 0.949 . S
C2183 C2184 1.349 . S
C2183 C2185 1.327 . S
C2183 H2206 0.950 . S
C2184 C2183 1.349 . S
C2184 C2196 1.349 . S
C2185 C2183 1.327 . S
C2185 C2201 1.429 . S
C2185 H2207 0.950 . S
C2186 H2182 0.949 . S
C2186 C2194 1.574 . S
C2186 C2202 1.368 . S
H2187 C2195 0.950 . S
H2188 C2193 0.950 . S
H2189 C2194 0.949 . S
H2190 C2196 0.950 . S
H2191 C2197 0.950 . S
H2192 C2198 0.949 . S
C2193 H2188 0.950 . S
C2193 C2195 1.327 . S
C2193 C2199 1.429 . S
C2194 C2186 1.574 . S
C2194 H2189 0.949 . S
C2194 C2200 1.368 . S
C2195 C2179 1.349 . S
C2195 H2187 0.950 . S
C2195 C2193 1.327 . S
C2196 C2184 1.349 . S
C2196 H2190 0.950 . S
C2196 C2197 1.327 . S
C2197 H2191 0.950 . S
C2197 C2196 1.327 . S
C2197 C2201 1.429 . S
C2198 C2181 1.574 . S
C2198 H2192 0.949 . S
C2198 C2202 1.368 . S
C2199 C2180 1.429 . S
C2199 C2193 1.429 . S
C2199 C2200 1.523 . S
C2200 C2181 1.368 . S
C2200 C2194 1.368 . S
C2200 C2199 1.523 . S
C2201 C2185 1.429 . S
C2201 C2197 1.429 . S
C2201 C2202 1.523 . S
C2202 C2186 1.368 . S
C2202 C2198 1.368 . S
C2202 C2201 1.523 . S
H2203 C2178 0.950 . S
H2204 C2180 0.950 . S
H2205 C2181 0.949 . S
H2206 C2183 0.950 . S
H2207 C2185 0.950 . S
C2208 C2209 1.349 . S
C2208 C2210 1.327 . S
C2208 H2233 0.950 . S
C2209 C2208 1.349 . S
C2209 C2225 1.349 . S
C2210 C2208 1.327 . S
C2210 C2229 1.429 . S
C2210 H2234 0.950 . S
C2211 C2228 1.574 . S
C2211 C2230 1.368 . S
C2211 H2235 0.949 . S
H2212 C2216 0.949 . S
C2213 C2214 1.349 . S
C2213 C2215 1.327 . S
C2213 H2236 0.950 . S
C2214 C2213 1.349 . S
C2214 C2226 1.349 . S
C2215 C2213 1.327 . S
C2215 C2231 1.429 . S
C2215 H2237 0.950 . S
C2216 H2212 0.949 . S
C2216 C2224 1.574 . S
C2216 C2232 1.368 . S
H2217 C2225 0.950 . S
H2218 C2223 0.950 . S
H2219 C2224 0.949 . S
H2220 C2226 0.950 . S
H2221 C2227 0.950 . S
H2222 C2228 0.949 . S
C2223 H2218 0.950 . S
C2223 C2225 1.327 . S
C2223 C2229 1.429 . S
C2224 C2216 1.574 . S
C2224 H2219 0.949 . S
C2224 C2230 1.368 . S
C2225 C2209 1.349 . S
C2225 H2217 0.950 . S
C2225 C2223 1.327 . S
C2226 C2214 1.349 . S
C2226 H2220 0.950 . S
C2226 C2227 1.327 . S
C2227 H2221 0.950 . S
C2227 C2226 1.327 . S
C2227 C2231 1.429 . S
C2228 C2211 1.574 . S
C2228 H2222 0.949 . S
C2228 C2232 1.368 . S
C2229 C2210 1.429 . S
C2229 C2223 1.429 . S
C2229 C2230 1.523 . S
C2230 C2211 1.368 . S
C2230 C2224 1.368 . S
C2230 C2229 1.523 . S
C2231 C2215 1.429 . S
C2231 C2227 1.429 . S
C2231 C2232 1.523 . S
C2232 C2216 1.368 . S
C2232 C2228 1.368 . S
C2232 C2231 1.523 . S
H2233 C2208 0.950 . S
H2234 C2210 0.950 . S
H2235 C2211 0.949 . S
H2236 C2213 0.950 . S
H2237 C2215 0.950 . S
C2238 C2239 1.349 . S
C2238 C2240 1.327 . S
C2238 H2263 0.950 . S
C2239 C2238 1.349 . S
C2239 C2255 1.349 . S
C2240 C2238 1.327 . S
C2240 C2259 1.429 . S
C2240 H2264 0.950 . S
C2241 C2258 1.574 . S
C2241 C2260 1.368 . S
C2241 H2265 0.949 . S
H2242 C2246 0.949 . S
C2243 C2244 1.349 . S
C2243 C2245 1.327 . S
C2243 H2266 0.950 . S
C2244 C2243 1.349 . S
C2244 C2256 1.349 . S
C2245 C2243 1.327 . S
C2245 C2261 1.429 . S
C2245 H2267 0.950 . S
C2246 H2242 0.949 . S
C2246 C2254 1.574 . S
C2246 C2262 1.368 . S
H2247 C2255 0.950 . S
H2248 C2253 0.950 . S
H2249 C2254 0.949 . S
H2250 C2256 0.950 . S
H2251 C2257 0.950 . S
H2252 C2258 0.949 . S
C2253 H2248 0.950 . S
C2253 C2255 1.327 . S
C2253 C2259 1.429 . S
C2254 C2246 1.574 . S
C2254 H2249 0.949 . S
C2254 C2260 1.368 . S
C2255 C2239 1.349 . S
C2255 H2247 0.950 . S
C2255 C2253 1.327 . S
C2256 C2244 1.349 . S
C2256 H2250 0.950 . S
C2256 C2257 1.327 . S
C2257 H2251 0.950 . S
C2257 C2256 1.327 . S
C2257 C2261 1.429 . S
C2258 C2241 1.574 . S
C2258 H2252 0.949 . S
C2258 C2262 1.368 . S
C2259 C2240 1.429 . S
C2259 C2253 1.429 . S
C2259 C2260 1.523 . S
C2260 C2241 1.368 . S
C2260 C2254 1.368 . S
C2260 C2259 1.523 . S
C2261 C2245 1.429 . S
C2261 C2257 1.429 . S
C2261 C2262 1.523 . S
C2262 C2246 1.368 . S
C2262 C2258 1.368 . S
C2262 C2261 1.523 . S
H2263 C2238 0.950 . S
H2264 C2240 0.950 . S
H2265 C2241 0.949 . S
H2266 C2243 0.950 . S
H2267 C2245 0.950 . S
C2268 C2269 1.349 . S
C2268 C2270 1.327 . S
C2268 H2293 0.950 . S
C2269 C2268 1.349 . S
C2269 C2285 1.349 . S
C2270 C2268 1.327 . S
C2270 C2289 1.429 . S
C2270 H2294 0.950 . S
C2271 C2288 1.574 . S
C2271 C2290 1.368 . S
C2271 H2295 0.949 . S
H2272 C2276 0.949 . S
C2273 C2274 1.349 . S
C2273 C2275 1.327 . S
C2273 H2296 0.950 . S
C2274 C2273 1.349 . S
C2274 C2286 1.349 . S
C2275 C2273 1.327 . S
C2275 C2291 1.429 . S
C2275 H2297 0.950 . S
C2276 H2272 0.949 . S
C2276 C2284 1.574 . S
C2276 C2292 1.368 . S
H2277 C2285 0.950 . S
H2278 C2283 0.950 . S
H2279 C2284 0.949 . S
H2280 C2286 0.950 . S
H2281 C2287 0.950 . S
H2282 C2288 0.949 . S
C2283 H2278 0.950 . S
C2283 C2285 1.327 . S
C2283 C2289 1.429 . S
C2284 C2276 1.574 . S
C2284 H2279 0.949 . S
C2284 C2290 1.368 . S
C2285 C2269 1.349 . S
C2285 H2277 0.950 . S
C2285 C2283 1.327 . S
C2286 C2274 1.349 . S
C2286 H2280 0.950 . S
C2286 C2287 1.327 . S
C2287 H2281 0.950 . S
C2287 C2286 1.327 . S
C2287 C2291 1.429 . S
C2288 C2271 1.574 . S
C2288 H2282 0.949 . S
C2288 C2292 1.368 . S
C2289 C2270 1.429 . S
C2289 C2283 1.429 . S
C2289 C2290 1.523 . S
C2290 C2271 1.368 . S
C2290 C2284 1.368 . S
C2290 C2289 1.523 . S
C2291 C2275 1.429 . S
C2291 C2287 1.429 . S
C2291 C2292 1.523 . S
C2292 C2276 1.368 . S
C2292 C2288 1.368 . S
C2292 C2291 1.523 . S
H2293 C2268 0.950 . S
H2294 C2270 0.950 . S
H2295 C2271 0.949 . S
H2296 C2273 0.950 . S
H2297 C2275 0.950 . S
C2298 C2299 1.349 . S
C2298 C2300 1.327 . S
C2298 H2323 0.950 . S
C2299 C2298 1.349 . S
C2299 C2315 1.349 . S
C2300 C2298 1.327 . S
C2300 C2319 1.429 . S
C2300 H2324 0.950 . S
C2301 C2318 1.574 . S
C2301 C2320 1.368 . S
C2301 H2325 0.949 . S
H2302 C2306 0.949 . S
C2303 C2304 1.349 . S
C2303 C2305 1.327 . S
C2303 H2326 0.950 . S
C2304 C2303 1.349 . S
C2304 C2316 1.349 . S
C2305 C2303 1.327 . S
C2305 C2321 1.429 . S
C2305 H2327 0.950 . S
C2306 H2302 0.949 . S
C2306 C2314 1.574 . S
C2306 C2322 1.368 . S
H2307 C2315 0.950 . S
H2308 C2313 0.950 . S
H2309 C2314 0.949 . S
H2310 C2316 0.950 . S
H2311 C2317 0.950 . S
H2312 C2318 0.949 . S
C2313 H2308 0.950 . S
C2313 C2315 1.327 . S
C2313 C2319 1.429 . S
C2314 C2306 1.574 . S
C2314 H2309 0.949 . S
C2314 C2320 1.368 . S
C2315 C2299 1.349 . S
C2315 H2307 0.950 . S
C2315 C2313 1.327 . S
C2316 C2304 1.349 . S
C2316 H2310 0.950 . S
C2316 C2317 1.327 . S
C2317 H2311 0.950 . S
C2317 C2316 1.327 . S
C2317 C2321 1.429 . S
C2318 C2301 1.574 . S
C2318 H2312 0.949 . S
C2318 C2322 1.368 . S
C2319 C2300 1.429 . S
C2319 C2313 1.429 . S
C2319 C2320 1.523 . S
C2320 C2301 1.368 . S
C2320 C2314 1.368 . S
C2320 C2319 1.523 . S
C2321 C2305 1.429 . S
C2321 C2317 1.429 . S
C2321 C2322 1.523 . S
C2322 C2306 1.368 . S
C2322 C2318 1.368 . S
C2322 C2321 1.523 . S
H2323 C2298 0.950 . S
H2324 C2300 0.950 . S
H2325 C2301 0.949 . S
H2326 C2303 0.950 . S
H2327 C2305 0.950 . S
C2328 C2329 1.349 . S
C2328 C2330 1.327 . S
C2328 H2353 0.950 . S
C2329 C2328 1.349 . S
C2329 C2345 1.349 . S
C2330 C2328 1.327 . S
C2330 C2349 1.429 . S
C2330 H2354 0.950 . S
C2331 C2348 1.574 . S
C2331 C2350 1.368 . S
C2331 H2355 0.949 . S
H2332 C2336 0.949 . S
C2333 C2334 1.349 . S
C2333 C2335 1.327 . S
C2333 H2356 0.950 . S
C2334 C2333 1.349 . S
C2334 C2346 1.349 . S
C2335 C2333 1.327 . S
C2335 C2351 1.429 . S
C2335 H2357 0.950 . S
C2336 H2332 0.949 . S
C2336 C2344 1.574 . S
C2336 C2352 1.368 . S
H2337 C2345 0.950 . S
H2338 C2343 0.950 . S
H2339 C2344 0.949 . S
H2340 C2346 0.950 . S
H2341 C2347 0.950 . S
H2342 C2348 0.949 . S
C2343 H2338 0.950 . S
C2343 C2345 1.327 . S
C2343 C2349 1.429 . S
C2344 C2336 1.574 . S
C2344 H2339 0.949 . S
C2344 C2350 1.368 . S
C2345 C2329 1.349 . S
C2345 H2337 0.950 . S
C2345 C2343 1.327 . S
C2346 C2334 1.349 . S
C2346 H2340 0.950 . S
C2346 C2347 1.327 . S
C2347 H2341 0.950 . S
C2347 C2346 1.327 . S
C2347 C2351 1.429 . S
C2348 C2331 1.574 . S
C2348 H2342 0.949 . S
C2348 C2352 1.368 . S
C2349 C2330 1.429 . S
C2349 C2343 1.429 . S
C2349 C2350 1.523 . S
C2350 C2331 1.368 . S
C2350 C2344 1.368 . S
C2350 C2349 1.523 . S
C2351 C2335 1.429 . S
C2351 C2347 1.429 . S
C2351 C2352 1.523 . S
C2352 C2336 1.368 . S
C2352 C2348 1.368 . S
C2352 C2351 1.523 . S
H2353 C2328 0.950 . S
H2354 C2330 0.950 . S
H2355 C2331 0.949 . S
H2356 C2333 0.950 . S
H2357 C2335 0.950 . S
C2358 C2359 1.349 . S
C2358 C2360 1.327 . S
C2358 H2383 0.950 . S
C2359 C2358 1.349 . S
C2359 C2375 1.349 . S
C2360 C2358 1.327 . S
C2360 C2379 1.429 . S
C2360 H2384 0.950 . S
C2361 C2378 1.574 . S
C2361 C2380 1.368 . S
C2361 H2385 0.949 . S
H2362 C2366 0.949 . S
C2363 C2364 1.349 . S
C2363 C2365 1.327 . S
C2363 H2386 0.950 . S
C2364 C2363 1.349 . S
C2364 C2376 1.349 . S
C2365 C2363 1.327 . S
C2365 C2381 1.429 . S
C2365 H2387 0.950 . S
C2366 H2362 0.949 . S
C2366 C2374 1.574 . S
C2366 C2382 1.368 . S
H2367 C2375 0.950 . S
H2368 C2373 0.950 . S
H2369 C2374 0.949 . S
H2370 C2376 0.950 . S
H2371 C2377 0.950 . S
H2372 C2378 0.949 . S
C2373 H2368 0.950 . S
C2373 C2375 1.327 . S
C2373 C2379 1.429 . S
C2374 C2366 1.574 . S
C2374 H2369 0.949 . S
C2374 C2380 1.368 . S
C2375 C2359 1.349 . S
C2375 H2367 0.950 . S
C2375 C2373 1.327 . S
C2376 C2364 1.349 . S
C2376 H2370 0.950 . S
C2376 C2377 1.327 . S
C2377 H2371 0.950 . S
C2377 C2376 1.327 . S
C2377 C2381 1.429 . S
C2378 C2361 1.574 . S
C2378 H2372 0.949 . S
C2378 C2382 1.368 . S
C2379 C2360 1.429 . S
C2379 C2373 1.429 . S
C2379 C2380 1.523 . S
C2380 C2361 1.368 . S
C2380 C2374 1.368 . S
C2380 C2379 1.523 . S
C2381 C2365 1.429 . S
C2381 C2377 1.429 . S
C2381 C2382 1.523 . S
C2382 C2366 1.368 . S
C2382 C2378 1.368 . S
C2382 C2381 1.523 . S
H2383 C2358 0.950 . S
H2384 C2360 0.950 . S
H2385 C2361 0.949 . S
H2386 C2363 0.950 . S
H2387 C2365 0.950 . S
C2388 C2389 1.349 . S
C2388 C2390 1.327 . S
C2388 H2413 0.950 . S
C2389 C2388 1.349 . S
C2389 C2405 1.349 . S
C2390 C2388 1.327 . S
C2390 C2409 1.429 . S
C2390 H2414 0.950 . S
C2391 C2408 1.574 . S
C2391 C2410 1.368 . S
C2391 H2415 0.949 . S
H2392 C2396 0.949 . S
C2393 C2394 1.349 . S
C2393 C2395 1.327 . S
C2393 H2416 0.950 . S
C2394 C2393 1.349 . S
C2394 C2406 1.349 . S
C2395 C2393 1.327 . S
C2395 C2411 1.429 . S
C2395 H2417 0.950 . S
C2396 H2392 0.949 . S
C2396 C2404 1.574 . S
C2396 C2412 1.368 . S
H2397 C2405 0.950 . S
H2398 C2403 0.950 . S
H2399 C2404 0.949 . S
H2400 C2406 0.950 . S
H2401 C2407 0.950 . S
H2402 C2408 0.949 . S
C2403 H2398 0.950 . S
C2403 C2405 1.327 . S
C2403 C2409 1.429 . S
C2404 C2396 1.574 . S
C2404 H2399 0.949 . S
C2404 C2410 1.368 . S
C2405 C2389 1.349 . S
C2405 H2397 0.950 . S
C2405 C2403 1.327 . S
C2406 C2394 1.349 . S
C2406 H2400 0.950 . S
C2406 C2407 1.327 . S
C2407 H2401 0.950 . S
C2407 C2406 1.327 . S
C2407 C2411 1.429 . S
C2408 C2391 1.574 . S
C2408 H2402 0.949 . S
C2408 C2412 1.368 . S
C2409 C2390 1.429 . S
C2409 C2403 1.429 . S
C2409 C2410 1.523 . S
C2410 C2391 1.368 . S
C2410 C2404 1.368 . S
C2410 C2409 1.523 . S
C2411 C2395 1.429 . S
C2411 C2407 1.429 . S
C2411 C2412 1.523 . S
C2412 C2396 1.368 . S
C2412 C2408 1.368 . S
C2412 C2411 1.523 . S
H2413 C2388 0.950 . S
H2414 C2390 0.950 . S
H2415 C2391 0.949 . S
H2416 C2393 0.950 . S
H2417 C2395 0.950 . S
C2418 C2419 1.349 . S
C2418 C2420 1.327 . S
C2418 H2443 0.950 . S
C2419 C2418 1.349 . S
C2419 C2435 1.349 . S
C2420 C2418 1.327 . S
C2420 C2439 1.429 . S
C2420 H2444 0.950 . S
C2421 C2438 1.574 . S
C2421 C2440 1.368 . S
C2421 H2445 0.949 . S
H2422 C2426 0.949 . S
C2423 C2424 1.349 . S
C2423 C2425 1.327 . S
C2423 H2446 0.950 . S
C2424 C2423 1.349 . S
C2424 C2436 1.349 . S
C2425 C2423 1.327 . S
C2425 C2441 1.429 . S
C2425 H2447 0.950 . S
C2426 H2422 0.949 . S
C2426 C2434 1.574 . S
C2426 C2442 1.368 . S
H2427 C2435 0.950 . S
H2428 C2433 0.950 . S
H2429 C2434 0.949 . S
H2430 C2436 0.950 . S
H2431 C2437 0.950 . S
H2432 C2438 0.949 . S
C2433 H2428 0.950 . S
C2433 C2435 1.327 . S
C2433 C2439 1.429 . S
C2434 C2426 1.574 . S
C2434 H2429 0.949 . S
C2434 C2440 1.368 . S
C2435 C2419 1.349 . S
C2435 H2427 0.950 . S
C2435 C2433 1.327 . S
C2436 C2424 1.349 . S
C2436 H2430 0.950 . S
C2436 C2437 1.327 . S
C2437 H2431 0.950 . S
C2437 C2436 1.327 . S
C2437 C2441 1.429 . S
C2438 C2421 1.574 . S
C2438 H2432 0.949 . S
C2438 C2442 1.368 . S
C2439 C2420 1.429 . S
C2439 C2433 1.429 . S
C2439 C2440 1.523 . S
C2440 C2421 1.368 . S
C2440 C2434 1.368 . S
C2440 C2439 1.523 . S
C2441 C2425 1.429 . S
C2441 C2437 1.429 . S
C2441 C2442 1.523 . S
C2442 C2426 1.368 . S
C2442 C2438 1.368 . S
C2442 C2441 1.523 . S
H2443 C2418 0.950 . S
H2444 C2420 0.950 . S
H2445 C2421 0.949 . S
H2446 C2423 0.950 . S
H2447 C2425 0.950 . S
C2448 C2449 1.349 . S
C2448 C2450 1.327 . S
C2448 H2473 0.950 . S
C2449 C2448 1.349 . S
C2449 C2465 1.349 . S
C2450 C2448 1.327 . S
C2450 C2469 1.429 . S
C2450 H2474 0.950 . S
C2451 C2468 1.574 . S
C2451 C2470 1.368 . S
C2451 H2475 0.949 . S
H2452 C2456 0.949 . S
C2453 C2454 1.349 . S
C2453 C2455 1.327 . S
C2453 H2476 0.950 . S
C2454 C2453 1.349 . S
C2454 C2466 1.349 . S
C2455 C2453 1.327 . S
C2455 C2471 1.429 . S
C2455 H2477 0.950 . S
C2456 H2452 0.949 . S
C2456 C2464 1.574 . S
C2456 C2472 1.368 . S
H2457 C2465 0.950 . S
H2458 C2463 0.950 . S
H2459 C2464 0.949 . S
H2460 C2466 0.950 . S
H2461 C2467 0.950 . S
H2462 C2468 0.949 . S
C2463 H2458 0.950 . S
C2463 C2465 1.327 . S
C2463 C2469 1.429 . S
C2464 C2456 1.574 . S
C2464 H2459 0.949 . S
C2464 C2470 1.368 . S
C2465 C2449 1.349 . S
C2465 H2457 0.950 . S
C2465 C2463 1.327 . S
C2466 C2454 1.349 . S
C2466 H2460 0.950 . S
C2466 C2467 1.327 . S
C2467 H2461 0.950 . S
C2467 C2466 1.327 . S
C2467 C2471 1.429 . S
C2468 C2451 1.574 . S
C2468 H2462 0.949 . S
C2468 C2472 1.368 . S
C2469 C2450 1.429 . S
C2469 C2463 1.429 . S
C2469 C2470 1.523 . S
C2470 C2451 1.368 . S
C2470 C2464 1.368 . S
C2470 C2469 1.523 . S
C2471 C2455 1.429 . S
C2471 C2467 1.429 . S
C2471 C2472 1.523 . S
C2472 C2456 1.368 . S
C2472 C2468 1.368 . S
C2472 C2471 1.523 . S
H2473 C2448 0.950 . S
H2474 C2450 0.950 . S
H2475 C2451 0.949 . S
H2476 C2453 0.950 . S
H2477 C2455 0.950 . S
C2478 C2479 1.349 . S
C2478 C2480 1.327 . S
C2478 H2503 0.950 . S
C2479 C2478 1.349 . S
C2479 C2495 1.349 . S
C2480 C2478 1.327 . S
C2480 C2499 1.429 . S
C2480 H2504 0.950 . S
C2481 C2498 1.574 . S
C2481 C2500 1.368 . S
C2481 H2505 0.949 . S
H2482 C2486 0.949 . S
C2483 C2484 1.349 . S
C2483 C2485 1.327 . S
C2483 H2506 0.950 . S
C2484 C2483 1.349 . S
C2484 C2496 1.349 . S
C2485 C2483 1.327 . S
C2485 C2501 1.429 . S
C2485 H2507 0.950 . S
C2486 H2482 0.949 . S
C2486 C2494 1.574 . S
C2486 C2502 1.368 . S
H2487 C2495 0.950 . S
H2488 C2493 0.950 . S
H2489 C2494 0.949 . S
H2490 C2496 0.950 . S
H2491 C2497 0.950 . S
H2492 C2498 0.949 . S
C2493 H2488 0.950 . S
C2493 C2495 1.327 . S
C2493 C2499 1.429 . S
C2494 C2486 1.574 . S
C2494 H2489 0.949 . S
C2494 C2500 1.368 . S
C2495 C2479 1.349 . S
C2495 H2487 0.950 . S
C2495 C2493 1.327 . S
C2496 C2484 1.349 . S
C2496 H2490 0.950 . S
C2496 C2497 1.327 . S
C2497 H2491 0.950 . S
C2497 C2496 1.327 . S
C2497 C2501 1.429 . S
C2498 C2481 1.574 . S
C2498 H2492 0.949 . S
C2498 C2502 1.368 . S
C2499 C2480 1.429 . S
C2499 C2493 1.429 . S
C2499 C2500 1.523 . S
C2500 C2481 1.368 . S
C2500 C2494 1.368 . S
C2500 C2499 1.523 . S
C2501 C2485 1.429 . S
C2501 C2497 1.429 . S
C2501 C2502 1.523 . S
C2502 C2486 1.368 . S
C2502 C2498 1.368 . S
C2502 C2501 1.523 . S
H2503 C2478 0.950 . S
H2504 C2480 0.950 . S
H2505 C2481 0.949 . S
H2506 C2483 0.950 . S
H2507 C2485 0.950 . S
C2508 C2509 1.349 . S
C2508 C2510 1.327 . S
C2508 H2533 0.950 . S
C2509 C2508 1.349 . S
C2509 C2525 1.349 . S
C2510 C2508 1.327 . S
C2510 C2529 1.429 . S
C2510 H2534 0.950 . S
C2511 C2528 1.574 . S
C2511 C2530 1.368 . S
C2511 H2535 0.949 . S
H2512 C2516 0.949 . S
C2513 C2514 1.349 . S
C2513 C2515 1.327 . S
C2513 H2536 0.950 . S
C2514 C2513 1.349 . S
C2514 C2526 1.349 . S
C2515 C2513 1.327 . S
C2515 C2531 1.429 . S
C2515 H2537 0.950 . S
C2516 H2512 0.949 . S
C2516 C2524 1.574 . S
C2516 C2532 1.368 . S
H2517 C2525 0.950 . S
H2518 C2523 0.950 . S
H2519 C2524 0.949 . S
H2520 C2526 0.950 . S
H2521 C2527 0.950 . S
H2522 C2528 0.949 . S
C2523 H2518 0.950 . S
C2523 C2525 1.327 . S
C2523 C2529 1.429 . S
C2524 C2516 1.574 . S
C2524 H2519 0.949 . S
C2524 C2530 1.368 . S
C2525 C2509 1.349 . S
C2525 H2517 0.950 . S
C2525 C2523 1.327 . S
C2526 C2514 1.349 . S
C2526 H2520 0.950 . S
C2526 C2527 1.327 . S
C2527 H2521 0.950 . S
C2527 C2526 1.327 . S
C2527 C2531 1.429 . S
C2528 C2511 1.574 . S
C2528 H2522 0.949 . S
C2528 C2532 1.368 . S
C2529 C2510 1.429 . S
C2529 C2523 1.429 . S
C2529 C2530 1.523 . S
C2530 C2511 1.368 . S
C2530 C2524 1.368 . S
C2530 C2529 1.523 . S
C2531 C2515 1.429 . S
C2531 C2527 1.429 . S
C2531 C2532 1.523 . S
C2532 C2516 1.368 . S
C2532 C2528 1.368 . S
C2532 C2531 1.523 . S
H2533 C2508 0.950 . S
H2534 C2510 0.950 . S
H2535 C2511 0.949 . S
H2536 C2513 0.950 . S
H2537 C2515 0.950 . S
C2538 C2539 1.349 . S
C2538 C2540 1.327 . S
C2538 H2563 0.950 . S
C2539 C2538 1.349 . S
C2539 C2555 1.349 . S
C2540 C2538 1.327 . S
C2540 C2559 1.429 . S
C2540 H2564 0.950 . S
C2541 C2558 1.574 . S
C2541 C2560 1.368 . S
C2541 H2565 0.949 . S
H2542 C2546 0.949 . S
C2543 C2544 1.349 . S
C2543 C2545 1.327 . S
C2543 H2566 0.950 . S
C2544 C2543 1.349 . S
C2544 C2556 1.349 . S
C2545 C2543 1.327 . S
C2545 C2561 1.429 . S
C2545 H2567 0.950 . S
C2546 H2542 0.949 . S
C2546 C2554 1.574 . S
C2546 C2562 1.368 . S
H2547 C2555 0.950 . S
H2548 C2553 0.950 . S
H2549 C2554 0.949 . S
H2550 C2556 0.950 . S
H2551 C2557 0.950 . S
H2552 C2558 0.949 . S
C2553 H2548 0.950 . S
C2553 C2555 1.327 . S
C2553 C2559 1.429 . S
C2554 C2546 1.574 . S
C2554 H2549 0.949 . S
C2554 C2560 1.368 . S
C2555 C2539 1.349 . S
C2555 H2547 0.950 . S
C2555 C2553 1.327 . S
C2556 C2544 1.349 . S
C2556 H2550 0.950 . S
C2556 C2557 1.327 . S
C2557 H2551 0.950 . S
C2557 C2556 1.327 . S
C2557 C2561 1.429 . S
C2558 C2541 1.574 . S
C2558 H2552 0.949 . S
C2558 C2562 1.368 . S
C2559 C2540 1.429 . S
C2559 C2553 1.429 . S
C2559 C2560 1.523 . S
C2560 C2541 1.368 . S
C2560 C2554 1.368 . S
C2560 C2559 1.523 . S
C2561 C2545 1.429 . S
C2561 C2557 1.429 . S
C2561 C2562 1.523 . S
C2562 C2546 1.368 . S
C2562 C2558 1.368 . S
C2562 C2561 1.523 . S
H2563 C2538 0.950 . S
H2564 C2540 0.950 . S
H2565 C2541 0.949 . S
H2566 C2543 0.950 . S
H2567 C2545 0.950 . S
C2568 C2569 1.349 . S
C2568 C2570 1.327 . S
C2568 H2593 0.950 . S
C2569 C2568 1.349 . S
C2569 C2585 1.349 . S
C2570 C2568 1.327 . S
C2570 C2589 1.429 . S
C2570 H2594 0.950 . S
C2571 C2588 1.574 . S
C2571 C2590 1.368 . S
C2571 H2595 0.949 . S
H2572 C2576 0.949 . S
C2573 C2574 1.349 . S
C2573 C2575 1.327 . S
C2573 H2596 0.950 . S
C2574 C2573 1.349 . S
C2574 C2586 1.349 . S
C2575 C2573 1.327 . S
C2575 C2591 1.429 . S
C2575 H2597 0.950 . S
C2576 H2572 0.949 . S
C2576 C2584 1.574 . S
C2576 C2592 1.368 . S
H2577 C2585 0.950 . S
H2578 C2583 0.950 . S
H2579 C2584 0.949 . S
H2580 C2586 0.950 . S
H2581 C2587 0.950 . S
H2582 C2588 0.949 . S
C2583 H2578 0.950 . S
C2583 C2585 1.327 . S
C2583 C2589 1.429 . S
C2584 C2576 1.574 . S
C2584 H2579 0.949 . S
C2584 C2590 1.368 . S
C2585 C2569 1.349 . S
C2585 H2577 0.950 . S
C2585 C2583 1.327 . S
C2586 C2574 1.349 . S
C2586 H2580 0.950 . S
C2586 C2587 1.327 . S
C2587 H2581 0.950 . S
C2587 C2586 1.327 . S
C2587 C2591 1.429 . S
C2588 C2571 1.574 . S
C2588 H2582 0.949 . S
C2588 C2592 1.368 . S
C2589 C2570 1.429 . S
C2589 C2583 1.429 . S
C2589 C2590 1.523 . S
C2590 C2571 1.368 . S
C2590 C2584 1.368 . S
C2590 C2589 1.523 . S
C2591 C2575 1.429 . S
C2591 C2587 1.429 . S
C2591 C2592 1.523 . S
C2592 C2576 1.368 . S
C2592 C2588 1.368 . S
C2592 C2591 1.523 . S
H2593 C2568 0.950 . S
H2594 C2570 0.950 . S
H2595 C2571 0.949 . S
H2596 C2573 0.950 . S
H2597 C2575 0.950 . S
C2598 C2599 1.349 . S
C2598 C2600 1.327 . S
C2598 H2623 0.950 . S
C2599 C2598 1.349 . S
C2599 C2615 1.349 . S
C2600 C2598 1.327 . S
C2600 C2619 1.429 . S
C2600 H2624 0.950 . S
C2601 C2618 1.574 . S
C2601 C2620 1.368 . S
C2601 H2625 0.949 . S
H2602 C2606 0.949 . S
C2603 C2604 1.349 . S
C2603 C2605 1.327 . S
C2603 H2626 0.950 . S
C2604 C2603 1.349 . S
C2604 C2616 1.349 . S
C2605 C2603 1.327 . S
C2605 C2621 1.429 . S
C2605 H2627 0.950 . S
C2606 H2602 0.949 . S
C2606 C2614 1.574 . S
C2606 C2622 1.368 . S
H2607 C2615 0.950 . S
H2608 C2613 0.950 . S
H2609 C2614 0.949 . S
H2610 C2616 0.950 . S
H2611 C2617 0.950 . S
H2612 C2618 0.949 . S
C2613 H2608 0.950 . S
C2613 C2615 1.327 . S
C2613 C2619 1.429 . S
C2614 C2606 1.574 . S
C2614 H2609 0.949 . S
C2614 C2620 1.368 . S
C2615 C2599 1.349 . S
C2615 H2607 0.950 . S
C2615 C2613 1.327 . S
C2616 C2604 1.349 . S
C2616 H2610 0.950 . S
C2616 C2617 1.327 . S
C2617 H2611 0.950 . S
C2617 C2616 1.327 . S
C2617 C2621 1.429 . S
C2618 C2601 1.574 . S
C2618 H2612 0.949 . S
C2618 C2622 1.368 . S
C2619 C2600 1.429 . S
C2619 C2613 1.429 . S
C2619 C2620 1.523 . S
C2620 C2601 1.368 . S
C2620 C2614 1.368 . S
C2620 C2619 1.523 . S
C2621 C2605 1.429 . S
C2621 C2617 1.429 . S
C2621 C2622 1.523 . S
C2622 C2606 1.368 . S
C2622 C2618 1.368 . S
C2622 C2621 1.523 . S
H2623 C2598 0.950 . S
H2624 C2600 0.950 . S
H2625 C2601 0.949 . S
H2626 C2603 0.950 . S
H2627 C2605 0.950 . S
C2628 C2629 1.349 . S
C2628 C2630 1.327 . S
C2628 H2653 0.950 . S
C2629 C2628 1.349 . S
C2629 C2645 1.349 . S
C2630 C2628 1.327 . S
C2630 C2649 1.429 . S
C2630 H2654 0.950 . S
C2631 C2648 1.574 . S
C2631 C2650 1.368 . S
C2631 H2655 0.949 . S
H2632 C2636 0.949 . S
C2633 C2634 1.349 . S
C2633 C2635 1.327 . S
C2633 H2656 0.950 . S
C2634 C2633 1.349 . S
C2634 C2646 1.349 . S
C2635 C2633 1.327 . S
C2635 C2651 1.429 . S
C2635 H2657 0.950 . S
C2636 H2632 0.949 . S
C2636 C2644 1.574 . S
C2636 C2652 1.368 . S
H2637 C2645 0.950 . S
H2638 C2643 0.950 . S
H2639 C2644 0.949 . S
H2640 C2646 0.950 . S
H2641 C2647 0.950 . S
H2642 C2648 0.949 . S
C2643 H2638 0.950 . S
C2643 C2645 1.327 . S
C2643 C2649 1.429 . S
C2644 C2636 1.574 . S
C2644 H2639 0.949 . S
C2644 C2650 1.368 . S
C2645 C2629 1.349 . S
C2645 H2637 0.950 . S
C2645 C2643 1.327 . S
C2646 C2634 1.349 . S
C2646 H2640 0.950 . S
C2646 C2647 1.327 . S
C2647 H2641 0.950 . S
C2647 C2646 1.327 . S
C2647 C2651 1.429 . S
C2648 C2631 1.574 . S
C2648 H2642 0.949 . S
C2648 C2652 1.368 . S
C2649 C2630 1.429 . S
C2649 C2643 1.429 . S
C2649 C2650 1.523 . S
C2650 C2631 1.368 . S
C2650 C2644 1.368 . S
C2650 C2649 1.523 . S
C2651 C2635 1.429 . S
C2651 C2647 1.429 . S
C2651 C2652 1.523 . S
C2652 C2636 1.368 . S
C2652 C2648 1.368 . S
C2652 C2651 1.523 . S
H2653 C2628 0.950 . S
H2654 C2630 0.950 . S
H2655 C2631 0.949 . S
H2656 C2633 0.950 . S
H2657 C2635 0.950 . S
C2658 C2659 1.349 . S
C2658 C2660 1.327 . S
C2658 H2683 0.950 . S
C2659 C2658 1.349 . S
C2659 C2675 1.349 . S
C2660 C2658 1.327 . S
C2660 C2679 1.429 . S
C2660 H2684 0.950 . S
C2661 C2678 1.574 . S
C2661 C2680 1.368 . S
C2661 H2685 0.949 . S
H2662 C2666 0.949 . S
C2663 C2664 1.349 . S
C2663 C2665 1.327 . S
C2663 H2686 0.950 . S
C2664 C2663 1.349 . S
C2664 C2676 1.349 . S
C2665 C2663 1.327 . S
C2665 C2681 1.429 . S
C2665 H2687 0.950 . S
C2666 H2662 0.949 . S
C2666 C2674 1.574 . S
C2666 C2682 1.368 . S
H2667 C2675 0.950 . S
H2668 C2673 0.950 . S
H2669 C2674 0.949 . S
H2670 C2676 0.950 . S
H2671 C2677 0.950 . S
H2672 C2678 0.949 . S
C2673 H2668 0.950 . S
C2673 C2675 1.327 . S
C2673 C2679 1.429 . S
C2674 C2666 1.574 . S
C2674 H2669 0.949 . S
C2674 C2680 1.368 . S
C2675 C2659 1.349 . S
C2675 H2667 0.950 . S
C2675 C2673 1.327 . S
C2676 C2664 1.349 . S
C2676 H2670 0.950 . S
C2676 C2677 1.327 . S
C2677 H2671 0.950 . S
C2677 C2676 1.327 . S
C2677 C2681 1.429 . S
C2678 C2661 1.574 . S
C2678 H2672 0.949 . S
C2678 C2682 1.368 . S
C2679 C2660 1.429 . S
C2679 C2673 1.429 . S
C2679 C2680 1.523 . S
C2680 C2661 1.368 . S
C2680 C2674 1.368 . S
C2680 C2679 1.523 . S
C2681 C2665 1.429 . S
C2681 C2677 1.429 . S
C2681 C2682 1.523 . S
C2682 C2666 1.368 . S
C2682 C2678 1.368 . S
C2682 C2681 1.523 . S
H2683 C2658 0.950 . S
H2684 C2660 0.950 . S
H2685 C2661 0.949 . S
H2686 C2663 0.950 . S
H2687 C2665 0.950 . S
C529 C7 0.604 . S
C534 C159 0.604 . S
C559 C29 0.604 . S
C564 C95 0.604 . S
C589 C49 0.603 . S
C594 C119 0.603 . S
C619 C72 0.603 . S
C624 C139 0.603 . S
C649 C5 0.604 . S
C654 C183 0.604 . S
C679 C205 0.603 . S
C684 C27 0.603 . S
C709 C227 0.604 . S
C714 C51 0.604 . S
C739 C75 0.603 . S
C744 C251 0.604 . S
C769 C93 0.604 . S
C774 C203 0.603 . S
C799 C225 0.604 . S
C804 C116 0.604 . S
C829 C137 0.604 . S
C834 C248 0.604 . S
C859 C161 0.604 . S
C864 C181 0.604 . S
C889 C269 0.604 . S
C894 C469 0.604 . S
C919 C293 0.603 . S
C924 C493 0.603 . S
C949 C317 0.603 . S
C954 C515 0.603 . S
C979 C512 0.604 . S
C984 C335 0.604 . S
C1009 C467 0.603 . S
C1014 C357 0.603 . S
C1039 C379 0.604 . S
C1044 C424 0.604 . S
C1069 C271 0.604 . S
C1074 C359 0.604 . S
C1099 C405 0.604 . S
C1104 C291 0.603 . S
C1129 C337 0.604 . S
C1134 C314 0.604 . S
C1159 C449 0.604 . S
C1164 C381 0.604 . S
C1189 C402 0.604 . S
C1194 C490 0.604 . S
C1219 C427 0.604 . S
C1224 C446 0.604 . S
C1249 C94 0.176 . S
C1254 C6 0.176 . S
C1279 C114 0.176 . S
C1284 C28 0.176 . S
C1309 C52 0.176 . S
C1314 C138 0.176 . S
C1339 C73 0.176 . S
C1344 C162 0.176 . S
C1369 C249 0.176 . S
C1374 C182 0.176 . S
C1399 C184 0.176 . S
C1404 C204 0.176 . S
C1429 C206 0.176 . S
C1434 C226 0.176 . S
C1459 C246 0.176 . S
C1464 C228 0.176 . S
C1489 C403 0.176 . S
C1494 C160 0.176 . S
C1519 C70 0.176 . S
C1524 C272 0.176 . S
C1549 C8 0.176 . S
C1554 C292 0.176 . S
C1579 C30 0.176 . S
C1584 C312 0.176 . S
C1609 C422 0.176 . S
C1614 C117 0.176 . S
C1639 C96 0.176 . S
C1644 C338 0.176 . S
C1669 C140 0.176 . S
C1674 C360 0.176 . S
C1699 C358 0.176 . S
C1704 C382 0.176 . S
C1729 C400 0.176 . S
C1734 C270 0.176 . S
C1759 C294 0.176 . S
C1764 C336 0.176 . S
C1789 C425 0.176 . S
C1794 C315 0.176 . S
C1819 C444 0.176 . S
C1824 C513 0.176 . S
C1849 C447 0.176 . S
C1854 C468 0.176 . S
C1879 C488 0.176 . S
C1884 C470 0.176 . S
C1909 C510 0.176 . S
C1914 C491 0.176 . S
C1939 C380 0.176 . S
C1944 C50 0.176 . S
C1969 C4 2.063 . S
C1974 C202 2.063 . S
C1999 C26 2.061 . S
C2004 C224 2.061 . S
C2029 C53 2.063 . S
C2034 C247 2.063 . S
C2059 C180 2.063 . S
C2064 C74 2.063 . S
C2089 C92 2.063 . S
C2094 C185 2.063 . S
C2119 C207 2.063 . S
C2124 C115 2.063 . S
C2149 C229 2.061 . S
C2154 C136 2.061 . S
C2179 C163 2.063 . S
C2184 C250 2.063 . S
C2209 C158 2.063 . S
C2214 C290 2.063 . S
C2239 C141 2.061 . S
C2244 C273 2.061 . S
C2269 C97 2.063 . S
C2274 C313 2.063 . S
C2299 C404 2.063 . S
C2304 C9 2.063 . S
C2329 C378 2.063 . S
C2334 C118 2.063 . S
C2359 C31 2.061 . S
C2364 C339 2.061 . S
C2389 C71 2.063 . S
C2394 C361 2.063 . S
C2419 C466 2.063 . S
C2424 C383 2.063 . S
C2449 C489 2.061 . S
C2454 C268 2.061 . S
C2479 C511 2.063 . S
C2484 C295 2.063 . S
C2509 C445 2.063 . S
C2514 C316 2.063 . S
C2539 C448 2.063 . S
C2544 C356 2.063 . S
C2569 C401 2.063 . S
C2574 C471 2.063 . S
C2599 C492 2.061 . S
C2604 C334 2.061 . S
C2629 C426 2.063 . S
C2634 C514 2.063 . S
C2659 C48 2.063 . S
C2664 C423 2.063 . S
