# Generated by pormake.
# Topology smq, (6)-cn, num edge types: 1
# Building blocks:
#     Node 0, Type 0, BuildingBlock: IZENUY_clean_sbu_0, # of connection points: 6
#     Node 1, Type 0, BuildingBlock: IZENUY_clean_sbu_0, # of connection points: 6
#     Node 2, Type 0, BuildingBlock: IZENUY_clean_sbu_0, # of connection points: 6
#     Node 3, Type 0, BuildingBlock: IZENUY_clean_sbu_0, # of connection points: 6
#     Node 4, Type 0, BuildingBlock: IZENUY_clean_sbu_0, # of connection points: 6
#     Node 5, Type 0, BuildingBlock: IZENUY_clean_sbu_0, # of connection points: 6
#     Node 6, Type 0, BuildingBlock: IZENUY_clean_sbu_0, # of connection points: 6
#     Node 7, Type 0, BuildingBlock: IZENUY_clean_sbu_0, # of connection points: 6
#     Node 8, Type 0, BuildingBlock: IZENUY_clean_sbu_0, # of connection points: 6
#     Node 9, Type 0, BuildingBlock: IZENUY_clean_sbu_0, # of connection points: 6
#     Node 10, Type 0, BuildingBlock: IZENUY_clean_sbu_0, # of connection points: 6
#     Node 11, Type 0, BuildingBlock: IZENUY_clean_sbu_0, # of connection points: 6
#     Node 12, Type 0, BuildingBlock: IZENUY_clean_sbu_0, # of connection points: 6
#     Node 13, Type 0, BuildingBlock: IZENUY_clean_sbu_0, # of connection points: 6
#     Node 14, Type 0, BuildingBlock: IZENUY_clean_sbu_0, # of connection points: 6
#     Node 15, Type 0, BuildingBlock: IZENUY_clean_sbu_0, # of connection points: 6
#     Node 16, Type 0, BuildingBlock: IZENUY_clean_sbu_0, # of connection points: 6
#     Node 17, Type 0, BuildingBlock: IZENUY_clean_sbu_0, # of connection points: 6
#     Node 18, Type 0, BuildingBlock: IZENUY_clean_sbu_0, # of connection points: 6
#     Node 19, Type 0, BuildingBlock: IZENUY_clean_sbu_0, # of connection points: 6
#     Node 20, Type 0, BuildingBlock: IZENUY_clean_sbu_0, # of connection points: 6
#     Node 21, Type 0, BuildingBlock: IZENUY_clean_sbu_0, # of connection points: 6
#     Node 22, Type 0, BuildingBlock: IZENUY_clean_sbu_0, # of connection points: 6
#     Node 23, Type 0, BuildingBlock: IZENUY_clean_sbu_0, # of connection points: 6
#     Edge 24, Type (0, 0), BuildingBlock: KIFKEQ_clean_linker_1, # of connection points: 2
#     Edge 25, Type (0, 0), BuildingBlock: KIFKEQ_clean_linker_1, # of connection points: 2
#     Edge 26, Type (0, 0), BuildingBlock: KIFKEQ_clean_linker_1, # of connection points: 2
#     Edge 27, Type (0, 0), BuildingBlock: KIFKEQ_clean_linker_1, # of connection points: 2
#     Edge 28, Type (0, 0), BuildingBlock: KIFKEQ_clean_linker_1, # of connection points: 2
#     Edge 29, Type (0, 0), BuildingBlock: KIFKEQ_clean_linker_1, # of connection points: 2
#     Edge 30, Type (0, 0), BuildingBlock: KIFKEQ_clean_linker_1, # of connection points: 2
#     Edge 31, Type (0, 0), BuildingBlock: KIFKEQ_clean_linker_1, # of connection points: 2
#     Edge 32, Type (0, 0), BuildingBlock: KIFKEQ_clean_linker_1, # of connection points: 2
#     Edge 33, Type (0, 0), BuildingBlock: KIFKEQ_clean_linker_1, # of connection points: 2
#     Edge 34, Type (0, 0), BuildingBlock: KIFKEQ_clean_linker_1, # of connection points: 2
#     Edge 35, Type (0, 0), BuildingBlock: KIFKEQ_clean_linker_1, # of connection points: 2
#     Edge 36, Type (0, 0), BuildingBlock: KIFKEQ_clean_linker_1, # of connection points: 2
#     Edge 37, Type (0, 0), BuildingBlock: KIFKEQ_clean_linker_1, # of connection points: 2
#     Edge 38, Type (0, 0), BuildingBlock: KIFKEQ_clean_linker_1, # of connection points: 2
#     Edge 39, Type (0, 0), BuildingBlock: KIFKEQ_clean_linker_1, # of connection points: 2
#     Edge 40, Type (0, 0), BuildingBlock: KIFKEQ_clean_linker_1, # of connection points: 2
#     Edge 41, Type (0, 0), BuildingBlock: KIFKEQ_clean_linker_1, # of connection points: 2
#     Edge 42, Type (0, 0), BuildingBlock: KIFKEQ_clean_linker_1, # of connection points: 2
#     Edge 43, Type (0, 0), BuildingBlock: KIFKEQ_clean_linker_1, # of connection points: 2
#     Edge 44, Type (0, 0), BuildingBlock: KIFKEQ_clean_linker_1, # of connection points: 2
#     Edge 45, Type (0, 0), BuildingBlock: KIFKEQ_clean_linker_1, # of connection points: 2
#     Edge 46, Type (0, 0), BuildingBlock: KIFKEQ_clean_linker_1, # of connection points: 2
#     Edge 47, Type (0, 0), BuildingBlock: KIFKEQ_clean_linker_1, # of connection points: 2
#     Edge 48, Type (0, 0), BuildingBlock: KIFKEQ_clean_linker_1, # of connection points: 2
#     Edge 49, Type (0, 0), BuildingBlock: KIFKEQ_clean_linker_1, # of connection points: 2
#     Edge 50, Type (0, 0), BuildingBlock: KIFKEQ_clean_linker_1, # of connection points: 2
#     Edge 51, Type (0, 0), BuildingBlock: KIFKEQ_clean_linker_1, # of connection points: 2
#     Edge 52, Type (0, 0), BuildingBlock: KIFKEQ_clean_linker_1, # of connection points: 2
#     Edge 53, Type (0, 0), BuildingBlock: KIFKEQ_clean_linker_1, # of connection points: 2
#     Edge 54, Type (0, 0), BuildingBlock: KIFKEQ_clean_linker_1, # of connection points: 2
#     Edge 55, Type (0, 0), BuildingBlock: KIFKEQ_clean_linker_1, # of connection points: 2
#     Edge 56, Type (0, 0), BuildingBlock: KIFKEQ_clean_linker_1, # of connection points: 2
#     Edge 57, Type (0, 0), BuildingBlock: KIFKEQ_clean_linker_1, # of connection points: 2
#     Edge 58, Type (0, 0), BuildingBlock: KIFKEQ_clean_linker_1, # of connection points: 2
#     Edge 59, Type (0, 0), BuildingBlock: KIFKEQ_clean_linker_1, # of connection points: 2
#     Edge 60, Type (0, 0), BuildingBlock: KIFKEQ_clean_linker_1, # of connection points: 2
#     Edge 61, Type (0, 0), BuildingBlock: KIFKEQ_clean_linker_1, # of connection points: 2
#     Edge 62, Type (0, 0), BuildingBlock: KIFKEQ_clean_linker_1, # of connection points: 2
#     Edge 63, Type (0, 0), BuildingBlock: KIFKEQ_clean_linker_1, # of connection points: 2
#     Edge 64, Type (0, 0), BuildingBlock: KIFKEQ_clean_linker_1, # of connection points: 2
#     Edge 65, Type (0, 0), BuildingBlock: KIFKEQ_clean_linker_1, # of connection points: 2
#     Edge 66, Type (0, 0), BuildingBlock: KIFKEQ_clean_linker_1, # of connection points: 2
#     Edge 67, Type (0, 0), BuildingBlock: KIFKEQ_clean_linker_1, # of connection points: 2
#     Edge 68, Type (0, 0), BuildingBlock: KIFKEQ_clean_linker_1, # of connection points: 2
#     Edge 69, Type (0, 0), BuildingBlock: KIFKEQ_clean_linker_1, # of connection points: 2
#     Edge 70, Type (0, 0), BuildingBlock: KIFKEQ_clean_linker_1, # of connection points: 2
#     Edge 71, Type (0, 0), BuildingBlock: KIFKEQ_clean_linker_1, # of connection points: 2
#     Edge 72, Type (0, 0), BuildingBlock: KIFKEQ_clean_linker_1, # of connection points: 2
#     Edge 73, Type (0, 0), BuildingBlock: KIFKEQ_clean_linker_1, # of connection points: 2
#     Edge 74, Type (0, 0), BuildingBlock: KIFKEQ_clean_linker_1, # of connection points: 2
#     Edge 75, Type (0, 0), BuildingBlock: KIFKEQ_clean_linker_1, # of connection points: 2
#     Edge 76, Type (0, 0), BuildingBlock: KIFKEQ_clean_linker_1, # of connection points: 2
#     Edge 77, Type (0, 0), BuildingBlock: KIFKEQ_clean_linker_1, # of connection points: 2
#     Edge 78, Type (0, 0), BuildingBlock: KIFKEQ_clean_linker_1, # of connection points: 2
#     Edge 79, Type (0, 0), BuildingBlock: KIFKEQ_clean_linker_1, # of connection points: 2
#     Edge 80, Type (0, 0), BuildingBlock: KIFKEQ_clean_linker_1, # of connection points: 2
#     Edge 81, Type (0, 0), BuildingBlock: KIFKEQ_clean_linker_1, # of connection points: 2
#     Edge 82, Type (0, 0), BuildingBlock: KIFKEQ_clean_linker_1, # of connection points: 2
#     Edge 83, Type (0, 0), BuildingBlock: KIFKEQ_clean_linker_1, # of connection points: 2
#     Edge 84, Type (0, 0), BuildingBlock: KIFKEQ_clean_linker_1, # of connection points: 2
#     Edge 85, Type (0, 0), BuildingBlock: KIFKEQ_clean_linker_1, # of connection points: 2
#     Edge 86, Type (0, 0), BuildingBlock: KIFKEQ_clean_linker_1, # of connection points: 2
#     Edge 87, Type (0, 0), BuildingBlock: KIFKEQ_clean_linker_1, # of connection points: 2
#     Edge 88, Type (0, 0), BuildingBlock: KIFKEQ_clean_linker_1, # of connection points: 2
#     Edge 89, Type (0, 0), BuildingBlock: KIFKEQ_clean_linker_1, # of connection points: 2
#     Edge 90, Type (0, 0), BuildingBlock: KIFKEQ_clean_linker_1, # of connection points: 2
#     Edge 91, Type (0, 0), BuildingBlock: KIFKEQ_clean_linker_1, # of connection points: 2
#     Edge 92, Type (0, 0), BuildingBlock: KIFKEQ_clean_linker_1, # of connection points: 2
#     Edge 93, Type (0, 0), BuildingBlock: KIFKEQ_clean_linker_1, # of connection points: 2
#     Edge 94, Type (0, 0), BuildingBlock: KIFKEQ_clean_linker_1, # of connection points: 2
#     Edge 95, Type (0, 0), BuildingBlock: KIFKEQ_clean_linker_1, # of connection points: 2
# Relax obj value: 0.236
# Max RMSD: 0.213
# Mean RMSD: 0.213
data_MOF--net-smq--node1-IZENUY_clean_sbu_0--edge1-KIFKEQ_clean_linker_1
_symmetry_space_group_name_H-M    P1
_symmetry_Int_Tables_number       1
_symmetry_cell_setting            triclinic
loop_
_symmetry_equiv_pos_as_xyz
'x, y, z'
_cell_length_a     46.035168
_cell_length_b     46.004037
_cell_length_c     46.022965
_cell_angle_alpha  89.980967
_cell_angle_beta   90.010711
_cell_angle_gamma 90.01031
loop_
_atom_site_label
_atom_site_type_symbol
_atom_site_fract_x
_atom_site_fract_y
_atom_site_fract_z
_atom_type_partial_charge
Fe0 Fe 0.00345 0.17686 0.29524 0.0
Fe1 Fe 0.99637 0.18121 0.22956 0.0
O2 O 0.00023 0.19851 0.26355 0.0
Fe3 Fe 0.00048 0.2369 0.26543 0.0
O4 O 0.02633 0.23844 0.29621 0.0
O5 O 0.03805 0.19266 0.30423 0.0
O6 O 0.0242 0.14774 0.27685 0.0
C7 C 0.04013 0.15036 0.25445 0.0
C8 C 0.96665 0.22281 0.31271 0.0
O9 O 0.03199 0.16559 0.23321 0.0
C10 C 0.95655 0.22395 0.22342 0.0
O11 O 0.9684 0.16002 0.28855 0.0
O12 O 0.97855 0.14857 0.24381 0.0
O13 O 0.96923 0.23696 0.28937 0.0
O14 O 0.98399 0.20237 0.31889 0.0
C15 C 0.03114 0.22983 0.21552 0.0
O16 O 0.9608 0.19686 0.22468 0.0
O17 O 0.97448 0.2416 0.23498 0.0
C18 C 0.96181 0.14703 0.26546 0.0
O19 O 0.0132 0.21031 0.20852 0.0
O20 O 0.03177 0.23963 0.24112 0.0
C21 C 0.0431 0.21939 0.30718 0.0
Fe22 Fe 0.32487 0.50538 0.79854 0.0
Fe23 Fe 0.32324 0.50217 0.73253 0.0
O24 O 0.30455 0.50319 0.76595 0.0
Fe25 Fe 0.26614 0.50169 0.76661 0.0
O26 O 0.26273 0.52586 0.79871 0.0
O27 O 0.30781 0.53913 0.80824 0.0
O28 O 0.35431 0.5274 0.78252 0.0
C29 C 0.35259 0.54467 0.76109 0.0
C30 C 0.27991 0.46624 0.81267 0.0
O31 O 0.33789 0.53794 0.73901 0.0
C32 C 0.28217 0.46157 0.72172 0.0
O33 O 0.34276 0.47114 0.79078 0.0
O34 O 0.35566 0.48401 0.74702 0.0
O35 O 0.26667 0.46902 0.78882 0.0
O36 O 0.29903 0.48443 0.82032 0.0
C37 C 0.27395 0.53617 0.71913 0.0
O38 O 0.30892 0.46668 0.72464 0.0
O39 O 0.26333 0.47737 0.73444 0.0
C40 C 0.35679 0.46615 0.76787 0.0
O41 O 0.29448 0.51968 0.71152 0.0
O42 O 0.26285 0.53422 0.74411 0.0
C43 C 0.28084 0.54307 0.81065 0.0
Fe44 Fe 0.00019 0.7709 0.26818 0.0
Fe45 Fe 0.99908 0.8298 0.30028 0.0
O46 O 0.00085 0.80946 0.26761 0.0
Fe47 Fe 0.00353 0.82816 0.23421 0.0
O48 O 0.98426 0.8007 0.21311 0.0
O49 O 0.96795 0.76936 0.2452 0.0
O50 O 0.9756 0.76863 0.29977 0.0
C51 C 0.95906 0.78738 0.31148 0.0
C52 C 0.04204 0.78451 0.22446 0.0
O53 O 0.96437 0.81419 0.30957 0.0
C54 C 0.04037 0.86022 0.27049 0.0
O55 O 0.03238 0.76946 0.29098 0.0
O56 O 0.01858 0.80297 0.32213 0.0
O57 O 0.03831 0.81162 0.22655 0.0
O58 O 0.02454 0.76685 0.23653 0.0
C59 C 0.9619 0.85959 0.26221 0.0
O60 O 0.03424 0.84631 0.29321 0.0
O61 O 0.02336 0.85947 0.24894 0.0
C62 C 0.03558 0.78268 0.31479 0.0
O63 O 0.97861 0.86032 0.28412 0.0
O64 O 0.96866 0.84496 0.24013 0.0
C65 C 0.96616 0.78154 0.2207 0.0
Fe66 Fe 0.67916 0.50458 0.79553 0.0
Fe67 Fe 0.68638 0.49767 0.73 0.0
O68 O 0.70202 0.50063 0.76487 0.0
Fe69 Fe 0.74019 0.49941 0.7688 0.0
O70 O 0.73778 0.46759 0.79196 0.0
O71 O 0.70313 0.48446 0.82024 0.0
O72 O 0.66158 0.4701 0.78807 0.0
C73 C 0.6493 0.46393 0.76445 0.0
C74 C 0.72233 0.54253 0.80967 0.0
O75 O 0.65277 0.48011 0.7425 0.0
C76 C 0.73599 0.53215 0.71988 0.0
O77 O 0.65133 0.52603 0.77601 0.0
O78 O 0.67119 0.53359 0.73326 0.0
O79 O 0.74105 0.52453 0.80022 0.0
O80 O 0.69562 0.53878 0.80509 0.0
C81 C 0.72839 0.45696 0.72497 0.0
O82 O 0.71695 0.51457 0.71082 0.0
O83 O 0.74492 0.53119 0.74574 0.0
C84 C 0.65499 0.54186 0.75369 0.0
O85 O 0.70143 0.46177 0.72525 0.0
O86 O 0.74583 0.47416 0.73784 0.0
C87 C 0.72289 0.46606 0.81492 0.0
Fe88 Fe 0.00527 0.82626 0.76947 0.0
Fe89 Fe 0.00298 0.76922 0.73546 0.0
O90 O 0.00277 0.80764 0.73605 0.0
Fe91 Fe 0.00033 0.82787 0.70346 0.0
O92 O 0.03508 0.84522 0.71041 0.0
O93 O 0.02372 0.85832 0.75455 0.0
O94 O 0.04072 0.81083 0.77643 0.0
C95 C 0.04487 0.78379 0.7787 0.0
C96 C 0.9625 0.85648 0.74188 0.0
O97 O 0.0274 0.76578 0.76713 0.0
C98 C 0.96153 0.78453 0.69209 0.0
O99 O 0.98749 0.79787 0.79087 0.0
O100 O 0.97067 0.7672 0.75843 0.0
O101 O 0.97913 0.85772 0.71989 0.0
O102 O 0.96973 0.84192 0.76394 0.0
C103 C 0.03813 0.78174 0.68892 0.0
O104 O 0.97869 0.76626 0.70366 0.0
O105 O 0.96596 0.81145 0.69443 0.0
C106 C 0.96993 0.77807 0.78361 0.0
O107 O 0.0353 0.76866 0.71286 0.0
O108 O 0.02048 0.80148 0.68146 0.0
C109 C 0.04075 0.85943 0.73305 0.0
Fe110 Fe 0.68469 0.50798 0.27153 0.0
Fe111 Fe 0.73985 0.50391 0.23492 0.0
O112 O 0.70154 0.50392 0.23739 0.0
Fe113 Fe 0.67975 0.49999 0.20598 0.0
O114 O 0.66265 0.53508 0.21208 0.0
O115 O 0.65209 0.52598 0.25746 0.0
O116 O 0.70063 0.54359 0.27611 0.0
C117 C 0.72774 0.54743 0.27739 0.0
C118 C 0.65298 0.46406 0.24749 0.0
O119 O 0.74503 0.5294 0.26558 0.0
C120 C 0.72238 0.46051 0.1945 0.0
O121 O 0.71396 0.49078 0.29223 0.0
O122 O 0.74273 0.47235 0.25894 0.0
O123 O 0.6507 0.47955 0.22474 0.0
O124 O 0.66857 0.4724 0.26841 0.0
C125 C 0.7252 0.53711 0.18758 0.0
O126 O 0.74118 0.47841 0.20392 0.0
O127 O 0.69566 0.46515 0.1979 0.0
C128 C 0.73289 0.47245 0.28457 0.0
O129 O 0.73929 0.53546 0.21108 0.0
O130 O 0.70518 0.51909 0.18183 0.0
C131 C 0.64961 0.54179 0.23515 0.0
Fe132 Fe 0.99777 0.18138 0.77154 0.0
Fe133 Fe 0.99828 0.2376 0.73599 0.0
O134 O 0.00028 0.19916 0.73768 0.0
Fe135 Fe 0.00427 0.17809 0.70581 0.0
O136 O 0.97024 0.15935 0.71256 0.0
O137 O 0.98104 0.1482 0.75729 0.0
O138 O 0.96175 0.19545 0.77686 0.0
C139 C 0.95649 0.2222 0.77941 0.0
C140 C 0.042 0.15148 0.74642 0.0
O141 O 0.97284 0.24092 0.76722 0.0
C142 C 0.04135 0.22278 0.69391 0.0
O143 O 0.01392 0.21106 0.79249 0.0
O144 O 0.02994 0.24165 0.75956 0.0
O145 O 0.02672 0.14977 0.72345 0.0
O146 O 0.03378 0.16675 0.7676 0.0
C147 C 0.96474 0.22223 0.68905 0.0
O148 O 0.02327 0.24074 0.70459 0.0
O149 O 0.03792 0.19581 0.69699 0.0
C150 C 0.03074 0.2314 0.785 0.0
O151 O 0.96658 0.23622 0.71258 0.0
O152 O 0.98316 0.2028 0.68266 0.0
C153 C 0.96441 0.14591 0.73562 0.0
Fe154 Fe 0.32032 0.50498 0.20656 0.0
Fe155 Fe 0.3145 0.50076 0.27235 0.0
O156 O 0.29813 0.50126 0.23772 0.0
Fe157 Fe 0.25997 0.49785 0.23449 0.0
O158 O 0.26356 0.46535 0.21259 0.0
O159 O 0.29706 0.48253 0.18312 0.0
O160 O 0.33957 0.47171 0.21519 0.0
C161 C 0.35204 0.46686 0.23903 0.0
C162 C 0.27498 0.54024 0.19205 0.0
O163 O 0.34866 0.48426 0.26001 0.0
C164 C 0.2634 0.53304 0.28187 0.0
O165 O 0.34747 0.5285 0.2246 0.0
O166 O 0.32786 0.53718 0.26721 0.0
O167 O 0.25742 0.52138 0.20198 0.0
O168 O 0.30195 0.53802 0.19614 0.0
C169 C 0.2749 0.45786 0.27944 0.0
O170 O 0.28349 0.51693 0.29131 0.0
O171 O 0.25383 0.53027 0.25636 0.0
C172 C 0.34359 0.5451 0.24629 0.0
O173 O 0.30145 0.4645 0.27892 0.0
O174 O 0.25619 0.47359 0.26649 0.0
C175 C 0.27827 0.46344 0.18954 0.0
Fe176 Fe 0.27074 0.00328 0.23647 0.0
Fe177 Fe 0.3032 -0.0002 0.17784 0.0
O178 O 0.27043 0.00173 0.19796 0.0
Fe179 Fe 0.23712 0.00221 0.179 0.0
O180 O 0.22846 0.03765 0.19319 0.0
O181 O 0.2383 0.027 0.23884 0.0
O182 O 0.29256 0.0362 0.23614 0.0
C183 C 0.31632 0.03946 0.22284 0.0
C184 C 0.22431 0.96728 0.22755 0.0
O185 O 0.32434 0.02155 0.20359 0.0
C186 C 0.26662 0.9596 0.15068 0.0
O187 O 0.30315 0.97976 0.24028 0.0
O188 O 0.31328 0.96632 0.19542 0.0
O189 O 0.21634 0.98416 0.20747 0.0
O190 O 0.24865 0.97045 0.23978 0.0
C191 C 0.2722 0.03843 0.14528 0.0
O192 O 0.28783 0.97706 0.14851 0.0
O193 O 0.24425 0.96655 0.16472 0.0
C194 C 0.31523 0.96242 0.22245 0.0
O195 O 0.29512 0.03375 0.1594 0.0
O196 O 0.25148 0.02045 0.14659 0.0
C197 C 0.2259 0.04298 0.21996 0.0
Fe198 Fe 0.50342 0.73516 0.67378 0.0
Fe199 Fe 0.50303 0.76915 0.73086 0.0
O200 O 0.50174 0.76858 0.69249 0.0
Fe201 Fe 0.49907 0.80124 0.67228 0.0
O202 O 0.47729 0.7849 0.64279 0.0
O203 O 0.46757 0.74109 0.65904 0.0
O204 O 0.48624 0.71383 0.70253 0.0
C205 C 0.46961 0.72117 0.72307 0.0
C206 C 0.5389 0.77119 0.64063 0.0
O207 O 0.47088 0.7463 0.73387 0.0
C208 C 0.53785 0.81573 0.71756 0.0
O209 O 0.53907 0.72778 0.68819 0.0
O210 O 0.52774 0.73743 0.73368 0.0
O211 O 0.53339 0.79404 0.65452 0.0
O212 O 0.52133 0.7501 0.64146 0.0
C213 C 0.46107 0.81239 0.71622 0.0
O214 O 0.5353 0.79174 0.73057 0.0
O215 O 0.51975 0.82328 0.69827 0.0
C216 C 0.54426 0.72542 0.71501 0.0
O217 O 0.47852 0.80083 0.73428 0.0
O218 O 0.46515 0.81039 0.68925 0.0
C219 C 0.4604 0.76313 0.64444 0.0
Fe220 Fe 0.73107 0.00319 0.23806 0.0
Fe221 Fe 0.70018 5e-05 0.17862 0.0
O222 O 0.73228 0.00363 0.19956 0.0
Fe223 Fe 0.76597 0.00807 0.18168 0.0
O224 O 0.78761 0.99084 0.21022 0.0
O225 O 0.75544 0.97196 0.23991 0.0
O226 O 0.70048 0.97733 0.24023 0.0
C227 C 0.68948 0.96034 0.22147 0.0
C228 C 0.77298 0.04721 0.22491 0.0
O229 O 0.69174 0.96545 0.19473 0.0
C230 C 0.72861 0.04172 0.14756 0.0
O231 O 0.70696 0.03433 0.23892 0.0
O232 O 0.6771 0.01986 0.20437 0.0
O233 O 0.77081 0.04356 0.19781 0.0
O234 O 0.76159 0.02909 0.24244 0.0
C235 C 0.74138 0.96442 0.15005 0.0
O236 O 0.70606 0.03491 0.16126 0.0
O237 O 0.7511 0.02617 0.1495 0.0
C238 C 0.68361 0.03709 0.22483 0.0
O239 O 0.71797 0.97909 0.14929 0.0
O240 O 0.76268 0.97275 0.16513 0.0
C241 C 0.78082 0.97265 0.22961 0.0
Fe242 Fe 0.50072 0.23541 0.73643 0.0
Fe243 Fe 0.50308 0.20331 0.6777 0.0
O244 O 0.50039 0.236 0.69786 0.0
Fe245 Fe 0.49696 0.26939 0.67922 0.0
O246 O 0.51627 0.29056 0.70663 0.0
O247 O 0.53294 0.25847 0.73796 0.0
O248 O 0.52515 0.20364 0.73904 0.0
C249 C 0.54246 0.19252 0.72064 0.0
C250 C 0.45881 0.27908 0.72299 0.0
O251 O 0.5378 0.19494 0.69378 0.0
C252 C 0.46106 0.23223 0.64721 0.0
O253 O 0.46847 0.2126 0.7374 0.0
O254 O 0.4834 0.18132 0.70445 0.0
O255 O 0.46216 0.27636 0.69595 0.0
O256 O 0.47649 0.26718 0.74054 0.0
C257 C 0.53893 0.2426 0.64715 0.0
O258 O 0.46807 0.20949 0.66066 0.0
O259 O 0.47725 0.25437 0.64813 0.0
C260 C 0.46563 0.18874 0.72409 0.0
O261 O 0.52373 0.21958 0.64739 0.0
O262 O 0.53156 0.26441 0.66186 0.0
C263 C 0.53466 0.28291 0.72553 0.0
Fe264 Fe 0.30395 -0.00011 0.82633 0.0
Fe265 Fe 0.23788 0.00374 0.82559 0.0
O266 O 0.27102 0.00153 0.80644 0.0
Fe267 Fe 0.27109 0.00122 0.7679 0.0
O268 O 0.30291 0.97693 0.76509 0.0
O269 O 0.31319 0.96541 0.81046 0.0
O270 O 0.2884 0.97904 0.8569 0.0
C271 C 0.26666 0.96209 0.85634 0.0
C272 C 0.31743 0.03718 0.77956 0.0
O273 O 0.24433 0.96874 0.84202 0.0
C274 C 0.22713 0.04248 0.7824 0.0
O275 O 0.29684 0.03483 0.84309 0.0
O276 O 0.2529 0.02339 0.85684 0.0
O277 O 0.29353 0.03377 0.76652 0.0
O278 O 0.3253 0.01982 0.79936 0.0
C279 C 0.22406 0.96667 0.77882 0.0
O280 O 0.22971 0.03865 0.80945 0.0
O281 O 0.23909 0.02523 0.76445 0.0
C282 C 0.27432 0.04056 0.85742 0.0
O283 O 0.2166 0.98452 0.79826 0.0
O284 O 0.24839 0.96876 0.76634 0.0
C285 C 0.3148 0.96026 0.78365 0.0
Fe286 Fe 0.50393 0.80005 0.32909 0.0
Fe287 Fe 0.49879 0.73411 0.32722 0.0
O288 O 0.50126 0.76755 0.30861 0.0
Fe289 Fe 0.5006 0.76827 0.27019 0.0
O290 O 0.52597 0.79937 0.26735 0.0
O291 O 0.53823 0.80901 0.31272 0.0
O292 O 0.52503 0.78323 0.35877 0.0
C293 C 0.54177 0.76135 0.35717 0.0
C294 C 0.46631 0.81553 0.28326 0.0
O295 O 0.53458 0.73945 0.34236 0.0
C296 C 0.45814 0.7255 0.28545 0.0
O297 O 0.46913 0.7931 0.34626 0.0
O298 O 0.48083 0.74914 0.35943 0.0
O299 O 0.46884 0.79168 0.27001 0.0
O300 O 0.48406 0.8226 0.30299 0.0
C301 C 0.53255 0.71918 0.27804 0.0
O302 O 0.46318 0.72739 0.31235 0.0
O303 O 0.47509 0.73725 0.26699 0.0
C304 C 0.46331 0.77025 0.3601 0.0
O305 O 0.51579 0.71253 0.29868 0.0
O306 O 0.53222 0.74443 0.26734 0.0
C307 C 0.54298 0.81096 0.28583 0.0
Fe308 Fe 0.7331 0.00272 0.76421 0.0
Fe309 Fe 0.70144 0.9993 0.82296 0.0
O310 O 0.73398 0.00192 0.80262 0.0
Fe311 Fe 0.76752 0.00398 0.82105 0.0
O312 O 0.77493 0.03942 0.80577 0.0
O313 O 0.765 0.02687 0.76073 0.0
O314 O 0.71086 0.03528 0.76441 0.0
C315 C 0.68701 0.03804 0.77763 0.0
C316 C 0.78084 0.96891 0.77242 0.0
O317 O 0.6794 0.01987 0.79685 0.0
C318 C 0.73984 0.96125 0.85141 0.0
O319 O 0.70108 0.97871 0.76116 0.0
O320 O 0.69231 0.96509 0.80617 0.0
O321 O 0.78846 0.98602 0.79248 0.0
O322 O 0.75572 0.97025 0.76151 0.0
C323 C 0.73142 0.03967 0.85441 0.0
O324 O 0.71785 0.97784 0.85262 0.0
O325 O 0.76179 0.9684 0.83668 0.0
C326 C 0.68982 0.96109 0.7792 0.0
O327 O 0.70853 0.0338 0.84067 0.0
O328 O 0.75294 0.02264 0.85313 0.0
C329 C 0.77726 0.0438 0.77879 0.0
Fe330 Fe 0.50287 0.20271 0.3247 0.0
Fe331 Fe 0.49578 0.26859 0.32693 0.0
O332 O 0.49932 0.23637 0.30645 0.0
Fe333 Fe 0.49926 0.23789 0.26794 0.0
O334 O 0.46715 0.2149 0.26614 0.0
O335 O 0.48323 0.18198 0.29694 0.0
O336 O 0.46795 0.20732 0.3424 0.0
C337 C 0.46094 0.22899 0.3575 0.0
C338 C 0.5416 0.19467 0.28073 0.0
O339 O 0.47665 0.25155 0.35751 0.0
C340 C 0.53283 0.28513 0.28115 0.0
O341 O 0.52345 0.21765 0.35572 0.0
O342 O 0.53097 0.26302 0.34325 0.0
O343 O 0.52371 0.20634 0.26326 0.0
O344 O 0.53765 0.19591 0.30777 0.0
C345 C 0.45714 0.28049 0.28417 0.0
O346 O 0.51427 0.29144 0.30038 0.0
O347 O 0.53139 0.2613 0.26748 0.0
C348 C 0.53901 0.2404 0.35636 0.0
O349 O 0.46061 0.27621 0.31105 0.0
O350 O 0.47477 0.26963 0.26592 0.0
C351 C 0.46487 0.19031 0.27819 0.0
Fe352 Fe 0.24026 0.26968 0.00028 0.0
Fe353 Fe 0.18156 0.30187 0.99884 0.0
O354 O 0.20171 0.26912 0.00029 0.0
Fe355 Fe 0.18287 0.23577 0.00181 0.0
O356 O 0.19904 0.22693 0.03648 0.0
O357 O 0.24398 0.23719 0.02371 0.0
O358 O 0.24112 0.29152 0.03318 0.0
C359 C 0.22801 0.31539 0.03648 0.0
C360 C 0.22989 0.22337 0.96462 0.0
O361 O 0.20836 0.32326 0.01895 0.0
C362 C 0.15154 0.26486 0.96078 0.0
O363 O 0.24289 0.3021 0.9766 0.0
O364 O 0.19754 0.31131 0.96438 0.0
O365 O 0.21039 0.21525 0.98212 0.0
O366 O 0.24228 0.24767 0.96744 0.0
C367 C 0.15055 0.27155 0.03913 0.0
O368 O 0.15101 0.2864 0.97794 0.0
O369 O 0.16629 0.24268 0.96694 0.0
C370 C 0.22439 0.31353 0.95954 0.0
O371 O 0.16465 0.29433 0.03364 0.0
O372 O 0.15158 0.25015 0.02191 0.0
C373 C 0.22606 0.22435 0.04038 0.0
Fe374 Fe 0.1864 0.7715 0.0068 0.0
Fe375 Fe 0.24013 0.73268 0.00234 0.0
O376 O 0.20184 0.73653 0.00298 0.0
Fe377 Fe 0.17859 0.70594 0.00037 0.0
O378 O 0.15058 0.72547 0.9793 0.0
O379 O 0.16973 0.76871 0.97154 0.0
O380 O 0.21636 0.79092 0.98947 0.0
C381 C 0.23502 0.78261 0.97123 0.0
C382 C 0.15019 0.73778 0.04161 0.0
O383 O 0.24352 0.75656 0.97081 0.0
C384 C 0.22398 0.68652 0.03696 0.0
O385 O 0.20275 0.77557 0.04216 0.0
O386 O 0.2467 0.76304 0.02801 0.0
O387 O 0.16209 0.71402 0.03535 0.0
O388 O 0.15324 0.75931 0.02496 0.0
C389 C 0.22023 0.69152 0.96036 0.0
O390 O 0.23963 0.7088 0.0337 0.0
O391 O 0.20271 0.6814 0.02031 0.0
C392 C 0.22988 0.77548 0.0461 0.0
O393 O 0.23989 0.70181 0.97678 0.0
O394 O 0.19371 0.69535 0.96582 0.0
C395 C 0.15313 0.74829 0.96391 0.0
Fe396 Fe 0.77121 0.73837 0.50288 0.0
Fe397 Fe 0.80224 0.67907 0.50066 0.0
O398 O 0.77001 0.69992 0.50388 0.0
Fe399 Fe 0.7363 0.68219 0.50854 0.0
O400 O 0.71494 0.71028 0.49023 0.0
O401 O 0.74737 0.73974 0.47127 0.0
O402 O 0.80218 0.74022 0.47757 0.0
C403 C 0.81289 0.72143 0.46048 0.0
C404 C 0.72893 0.72632 0.54654 0.0
O405 O 0.81053 0.69468 0.46569 0.0
C406 C 0.77356 0.64928 0.54335 0.0
O407 O 0.79466 0.73931 0.53443 0.0
O408 O 0.82519 0.70551 0.51982 0.0
O409 O 0.73111 0.69917 0.54354 0.0
O410 O 0.74036 0.74335 0.52807 0.0
C411 C 0.76131 0.64971 0.46573 0.0
O412 O 0.79645 0.66215 0.53582 0.0
O413 O 0.75106 0.65073 0.52777 0.0
C414 C 0.81829 0.7257 0.53724 0.0
O415 O 0.78463 0.64924 0.48049 0.0
O416 O 0.73986 0.66472 0.47374 0.0
C417 C 0.72203 0.72927 0.4717 0.0
Fe418 Fe 0.81379 0.234 0.99903 0.0
Fe419 Fe 0.75826 0.27039 0.00123 0.0
O420 O 0.79667 0.26813 0.00143 0.0
Fe421 Fe 0.81837 0.2999 0.00405 0.0
O422 O 0.8351 0.29269 0.969 0.0
O423 O 0.84581 0.24763 0.97985 0.0
O424 O 0.79765 0.22716 0.96393 0.0
C425 C 0.7706 0.22587 0.95978 0.0
C426 C 0.8456 0.26049 0.04133 0.0
O427 O 0.75314 0.23867 0.97695 0.0
C428 C 0.77586 0.31198 0.04347 0.0
O429 O 0.7851 0.21417 0.01773 0.0
O430 O 0.75505 0.24773 0.03356 0.0
O431 O 0.84799 0.28222 0.02457 0.0
O432 O 0.83004 0.23916 0.03426 0.0
C433 C 0.77259 0.31668 0.96679 0.0
O434 O 0.75702 0.30229 0.02571 0.0
O435 O 0.80263 0.3088 0.03875 0.0
C436 C 0.76633 0.22284 0.03572 0.0
O437 O 0.75892 0.29299 0.96888 0.0
O438 O 0.79248 0.32317 0.98464 0.0
C439 C 0.84738 0.26907 0.96273 0.0
Fe440 Fe 0.23094 0.25886 0.50209 0.0
Fe441 Fe 0.26858 0.3134 0.50495 0.0
O442 O 0.23399 0.29719 0.50206 0.0
Fe443 Fe 0.20285 0.31986 0.4995 0.0
O444 O 0.17886 0.29516 0.51954 0.0
O445 O 0.20769 0.25983 0.53388 0.0
O446 O 0.26172 0.25329 0.52745 0.0
C447 C 0.27428 0.27063 0.54498 0.0
C448 C 0.1892 0.27751 0.46006 0.0
O449 O 0.27393 0.29771 0.54052 0.0
C450 C 0.24348 0.34504 0.46177 0.0
O451 O 0.25456 0.25502 0.47032 0.0
O452 O 0.28834 0.28366 0.4878 0.0
O453 O 0.19261 0.3042 0.46515 0.0
O454 O 0.19974 0.25821 0.47681 0.0
C455 C 0.23466 0.34875 0.54023 0.0
O456 O 0.26443 0.32906 0.46928 0.0
O457 O 0.22165 0.34833 0.47833 0.0
C458 C 0.28043 0.26412 0.4703 0.0
O459 O 0.2558 0.3464 0.52297 0.0
O460 O 0.21083 0.3368 0.53433 0.0
C461 C 0.18493 0.27479 0.53699 0.0
Fe462 Fe 0.82439 0.70347 0.99946 0.0
Fe463 Fe 0.82084 0.76941 0.00452 0.0
O464 O 0.80317 0.73547 0.00174 0.0
Fe465 Fe 0.7648 0.73382 0.00149 0.0
O466 O 0.76441 0.71069 0.03362 0.0
O467 O 0.79836 0.68045 0.01894 0.0
O468 O 0.841 0.71082 0.03454 0.0
C469 C 0.85471 0.73379 0.04021 0.0
C470 C 0.78208 0.69113 0.95981 0.0
O471 O 0.85309 0.75531 0.02322 0.0
C472 C 0.77271 0.78252 0.96884 0.0
O473 O 0.85406 0.72091 0.97875 0.0
O474 O 0.83699 0.76443 0.96909 0.0
O475 O 0.76311 0.7023 0.97653 0.0
O476 O 0.80882 0.694 0.96485 0.0
C477 C 0.77779 0.77757 0.04374 0.0
O478 O 0.79214 0.79019 0.9866 0.0
O479 O 0.76246 0.75708 0.96939 0.0
C480 C 0.85241 0.74289 0.96211 0.0
O481 O 0.8049 0.77586 0.03985 0.0
O482 O 0.76022 0.76525 0.02629 0.0
C483 C 0.77791 0.68693 0.03611 0.0
Fe484 Fe 0.77037 0.2617 0.5005 0.0
Fe485 Fe 0.80108 0.3212 0.49889 0.0
O486 O 0.76893 0.30018 0.50073 0.0
Fe487 Fe 0.73509 0.31808 0.50303 0.0
O488 O 0.72799 0.30193 0.53812 0.0
O489 O 0.73852 0.25721 0.52465 0.0
O490 O 0.7929 0.26107 0.53296 0.0
C491 C 0.81642 0.27483 0.53621 0.0
C492 C 0.72239 0.2701 0.4669 0.0
O493 O 0.82345 0.29509 0.51897 0.0
C494 C 0.76244 0.3499 0.46117 0.0
O495 O 0.80236 0.25982 0.47635 0.0
O496 O 0.81083 0.30541 0.46439 0.0
O497 O 0.71451 0.28959 0.48451 0.0
O498 O 0.74767 0.25953 0.468 0.0
C499 C 0.77035 0.35128 0.53966 0.0
O500 O 0.78429 0.35105 0.47798 0.0
O501 O 0.7407 0.33459 0.46777 0.0
C502 C 0.81372 0.2786 0.45958 0.0
O503 O 0.79345 0.33794 0.53376 0.0
O504 O 0.74906 0.35006 0.52235 0.0
C505 C 0.7262 0.27483 0.54202 0.0
Fe506 Fe 0.26591 0.68182 0.49551 0.0
Fe507 Fe 0.23084 0.73816 0.49926 0.0
O508 O 0.23217 0.6997 0.49903 0.0
Fe509 Fe 0.19997 0.67883 0.50223 0.0
O510 O 0.21735 0.64911 0.52273 0.0
O511 O 0.26152 0.66523 0.53084 0.0
O512 O 0.287 0.71025 0.51355 0.0
C513 C 0.27967 0.7298 0.53135 0.0
C514 C 0.22907 0.64842 0.46046 0.0
O515 O 0.25434 0.74027 0.53112 0.0
C516 C 0.18397 0.72494 0.46492 0.0
O517 O 0.27197 0.69807 0.46027 0.0
O518 O 0.26201 0.74265 0.47431 0.0
O519 O 0.20617 0.66159 0.46739 0.0
O520 O 0.25134 0.64999 0.47647 0.0
C521 C 0.18882 0.72178 0.54161 0.0
O522 O 0.20761 0.73859 0.46747 0.0
O523 O 0.17714 0.70495 0.48259 0.0
C524 C 0.274 0.72518 0.45659 0.0
O525 O 0.19951 0.74031 0.52417 0.0
O526 O 0.1915 0.69494 0.53697 0.0
C527 C 0.23991 0.65025 0.53853 0.0
H528 H 0.08704 0.25144 0.21651 0.0
H529 H 0.01247 0.23905 0.16094 0.0
H530 H 0.11601 0.26588 0.17384 0.0
H531 H 0.04088 0.25363 0.11899 0.0
H532 H 0.10949 0.23085 0.05136 0.0
H533 H 0.08088 0.22581 0.09536 0.0
H534 H 0.12125 0.30266 0.13102 0.0
H535 H 0.15033 0.30778 0.08659 0.0
C536 C 0.07674 0.25249 0.19538 0.0
C537 C 0.04777 0.24363 0.19186 0.0
C538 C 0.09323 0.26073 0.17103 0.0
C539 C 0.08078 0.26027 0.14306 0.0
C540 C 0.05123 0.25352 0.14014 0.0
C541 C 0.03497 0.24521 0.16419 0.0
C542 C 0.1122 0.24686 0.0684 0.0
C543 C 0.13201 0.26985 0.06534 0.0
C544 C 0.09572 0.24402 0.09361 0.0
C545 C 0.09869 0.26398 0.11653 0.0
C546 C 0.11858 0.28696 0.11368 0.0
C547 C 0.13499 0.28999 0.08819 0.0
H548 H 0.26594 0.59499 0.71842 0.0
H549 H 0.25302 0.51695 0.66817 0.0
H550 H 0.25326 0.62448 0.67564 0.0
H551 H 0.24014 0.54604 0.62575 0.0
H552 H 0.20261 0.60807 0.55825 0.0
H553 H 0.2046 0.58229 0.60475 0.0
H554 H 0.28131 0.63083 0.62839 0.0
H555 H 0.27948 0.65648 0.58214 0.0
C556 C 0.25945 0.58425 0.6985 0.0
C557 C 0.26027 0.55387 0.6964 0.0
C558 C 0.25249 0.601 0.67402 0.0
C559 C 0.24587 0.58751 0.64735 0.0
C560 C 0.24488 0.55704 0.64601 0.0
C561 C 0.25228 0.54041 0.67023 0.0
C562 C 0.21989 0.61322 0.57337 0.0
C563 C 0.24111 0.63403 0.56631 0.0
C564 C 0.22096 0.59854 0.6 0.0
C565 C 0.24298 0.60472 0.62025 0.0
C566 C 0.26383 0.62592 0.61341 0.0
C567 C 0.26299 0.64031 0.58671 0.0
H568 H 0.89816 0.77225 0.05082 0.0
H569 H 0.85077 0.70138 0.09015 0.0
H570 H 0.92298 0.78113 0.09646 0.0
H571 H 0.87522 0.71089 0.13653 0.0
H572 H 0.9493 0.72584 0.20691 0.0
H573 H 0.92205 0.71115 0.16334 0.0
H574 H 0.90824 0.80161 0.14204 0.0
H575 H 0.93608 0.81594 0.1845 0.0
C576 C 0.89315 0.75845 0.06923 0.0
C577 C 0.87236 0.73627 0.06694 0.0
C578 C 0.90719 0.7637 0.09552 0.0
C579 C 0.90054 0.74719 0.12038 0.0
C580 C 0.88077 0.72402 0.1178 0.0
C581 C 0.86682 0.71857 0.09126 0.0
C582 C 0.93983 0.74241 0.19313 0.0
C583 C 0.94494 0.77198 0.19876 0.0
C584 C 0.92435 0.73406 0.16819 0.0
C585 C 0.91367 0.75523 0.1488 0.0
C586 C 0.917 0.78474 0.15593 0.0
C587 C 0.93267 0.79299 0.18042 0.0
H588 H 0.78161 0.45631 0.69808 0.0
H589 H 0.69932 0.41124 0.70141 0.0
H590 H 0.79432 0.42959 0.6539 0.0
H591 H 0.71214 0.38448 0.65763 0.0
H592 H 0.8111 0.35841 0.58278 0.0
H593 H 0.80394 0.38074 0.63056 0.0
H594 H 0.71574 0.4023 0.60702 0.0
H595 H 0.72266 0.38006 0.55969 0.0
C596 C 0.76664 0.44008 0.68993 0.0
C597 C 0.7393 0.43614 0.70302 0.0
C598 C 0.77388 0.42486 0.66456 0.0
C599 C 0.75392 0.40547 0.65194 0.0
C600 C 0.72765 0.39985 0.66643 0.0
C601 C 0.72041 0.41501 0.69164 0.0
C602 C 0.79029 0.36821 0.58772 0.0
C603 C 0.76745 0.36744 0.56737 0.0
C604 C 0.78621 0.38094 0.61509 0.0
C605 C 0.75915 0.39284 0.6227 0.0
C606 C 0.73665 0.39273 0.60205 0.0
C607 C 0.74074 0.38024 0.57476 0.0
H608 H 0.03963 0.73575 0.81288 0.0
H609 H 0.09478 0.80991 0.79658 0.0
H610 H 0.0664 0.7254 0.85727 0.0
H611 H 0.12266 0.79876 0.84018 0.0
H612 H 0.13778 0.79851 0.93691 0.0
H613 H 0.11411 0.8041 0.89014 0.0
H614 H 0.10922 0.7106 0.88142 0.0
H615 H 0.13185 0.70514 0.92913 0.0
C616 C 0.05814 0.74924 0.81829 0.0
C617 C 0.06503 0.77378 0.80145 0.0
C618 C 0.07351 0.74333 0.84379 0.0
C619 C 0.09634 0.76159 0.8527 0.0
C620 C 0.1046 0.78478 0.83451 0.0
C621 C 0.0889 0.791 0.80933 0.0
C622 C 0.13141 0.77915 0.92511 0.0
C623 C 0.13651 0.7514 0.9367 0.0
C624 C 0.11817 0.78232 0.89807 0.0
C625 C 0.11017 0.7578 0.88166 0.0
C626 C 0.11489 0.72997 0.8935 0.0
C627 C 0.12779 0.72682 0.92086 0.0
H628 H 0.77631 0.54114 0.31077 0.0
H629 H 0.70291 0.59769 0.296 0.0
H630 H 0.78681 0.56645 0.35608 0.0
H631 H 0.71407 0.62386 0.34065 0.0
H632 H 0.80554 0.63043 0.4309 0.0
H633 H 0.8012 0.60932 0.38231 0.0
H634 H 0.70764 0.6111 0.39023 0.0
H635 H 0.712 0.6329 0.43799 0.0
C636 C 0.76308 0.5597 0.31667 0.0
C637 C 0.73862 0.56732 0.30003 0.0
C638 C 0.76905 0.57417 0.34271 0.0
C639 C 0.75085 0.59672 0.35239 0.0
C640 C 0.72797 0.60596 0.33431 0.0
C641 C 0.72177 0.59124 0.30855 0.0
C642 C 0.7841 0.62593 0.42232 0.0
C643 C 0.75911 0.63332 0.43823 0.0
C644 C 0.7816 0.61396 0.39445 0.0
C645 C 0.75406 0.60902 0.3821 0.0
C646 C 0.72919 0.61545 0.39861 0.0
C647 C 0.73167 0.62761 0.42621 0.0
H648 H 0.9357 0.18767 0.82216 0.0
H649 H 0.9332 0.27638 0.79125 0.0
H650 H 0.90935 0.20127 0.86472 0.0
H651 H 0.90393 0.28996 0.83371 0.0
H652 H 0.87998 0.30789 0.9307 0.0
H653 H 0.90407 0.29834 0.88407 0.0
H654 H 0.86567 0.21241 0.88284 0.0
H655 H 0.84519 0.22085 0.93021 0.0
C656 C 0.9287 0.21009 0.82397 0.0
C657 C 0.93648 0.23091 0.80305 0.0
C658 C 0.91317 0.21794 0.84856 0.0
C659 C 0.90382 0.24673 0.85275 0.0
C660 C 0.91093 0.26762 0.83145 0.0
C661 C 0.92738 0.25982 0.80694 0.0
C662 C 0.87717 0.28692 0.92037 0.0
C663 C 0.8613 0.26487 0.93424 0.0
C664 C 0.89061 0.28152 0.89351 0.0
C665 C 0.88748 0.25429 0.87973 0.0
C666 C 0.86987 0.23316 0.89309 0.0
C667 C 0.85772 0.23809 0.92025 0.0
H668 H 0.30878 0.41645 0.304 0.0
H669 H 0.22101 0.44976 0.30397 0.0
H670 H 0.29803 0.38739 0.34632 0.0
H671 H 0.20963 0.41926 0.34604 0.0
H672 H 0.21685 0.39557 0.44443 0.0
H673 H 0.22066 0.4191 0.39688 0.0
H674 H 0.27385 0.34789 0.36633 0.0
H675 H 0.27138 0.32556 0.41401 0.0
C676 C 0.28688 0.41699 0.31263 0.0
C677 C 0.26585 0.43569 0.30084 0.0
C678 C 0.2806 0.40008 0.33689 0.0
C679 C 0.25297 0.40108 0.34986 0.0
C680 C 0.23129 0.41838 0.33693 0.0
C681 C 0.23767 0.43555 0.31259 0.0
C682 C 0.22938 0.38512 0.42747 0.0
C683 C 0.24445 0.3592 0.43306 0.0
C684 C 0.2313 0.39837 0.40013 0.0
C685 C 0.24786 0.38557 0.37778 0.0
C686 C 0.26161 0.35883 0.38317 0.0
C687 C 0.26021 0.346 0.41054 0.0
H688 H 0.20176 0.05074 0.27409 0.0
H689 H 0.1976 0.08167 0.18548 0.0
H690 H 0.15851 0.07927 0.28589 0.0
H691 H 0.15418 0.1088 0.19677 0.0
H692 H 0.08666 0.17016 0.22497 0.0
H693 H 0.13449 0.14857 0.22111 0.0
H694 H 0.10706 0.07773 0.27651 0.0
H695 H 0.05921 0.10055 0.28162 0.0
C696 C 0.19192 0.06393 0.25726 0.0
C697 C 0.20303 0.06377 0.2288 0.0
C698 C 0.16692 0.07998 0.26393 0.0
C699 C 0.15264 0.09616 0.24226 0.0
C700 C 0.16469 0.09697 0.21419 0.0
C701 C 0.18961 0.08118 0.20762 0.0
C702 C 0.09081 0.14995 0.23634 0.0
C703 C 0.06904 0.13664 0.25308 0.0
C704 C 0.11827 0.13754 0.23412 0.0
C705 C 0.12457 0.1111 0.24804 0.0
C706 C 0.10305 0.09822 0.26564 0.0
C707 C 0.07556 0.11106 0.26836 0.0
H708 H 0.41314 0.72391 0.74139 0.0
H709 H 0.48732 0.66685 0.73547 0.0
H710 H 0.38293 0.68258 0.75694 0.0
H711 H 0.45758 0.62601 0.75129 0.0
H712 H 0.39901 0.56029 0.79502 0.0
H713 H 0.42628 0.60602 0.79308 0.0
H714 H 0.36869 0.6376 0.72609 0.0
H715 H 0.34169 0.5921 0.72775 0.0
C716 C 0.42304 0.70272 0.74416 0.0
C717 C 0.45231 0.6983 0.73702 0.0
C718 C 0.40585 0.67916 0.75291 0.0
C719 C 0.418 0.65117 0.75523 0.0
C720 C 0.44775 0.64736 0.74994 0.0
C721 C 0.46467 0.67065 0.74068 0.0
C722 C 0.39211 0.5771 0.78005 0.0
C723 C 0.36859 0.57246 0.76117 0.0
C724 C 0.4076 0.60323 0.77903 0.0
C725 C 0.39944 0.62531 0.75954 0.0
C726 C 0.37519 0.62109 0.74157 0.0
C727 C 0.36003 0.59488 0.74225 0.0
H728 H 0.91565 0.85052 0.22676 0.0
H729 H 0.94487 0.90432 0.29799 0.0
H730 H 0.86957 0.87636 0.22597 0.0
H731 H 0.89845 0.9305 0.29692 0.0
H732 H 0.83381 0.99249 0.24452 0.0
H733 H 0.87626 0.96393 0.25819 0.0
H734 H 0.82412 0.88588 0.25712 0.0
H735 H 0.78122 0.91482 0.2437 0.0
C736 C 0.91225 0.86792 0.24226 0.0
C737 C 0.9341 0.87569 0.26217 0.0
C738 C 0.88566 0.88241 0.24205 0.0
C739 C 0.88037 0.90526 0.26151 0.0
C740 C 0.90201 0.91289 0.28171 0.0
C741 C 0.92856 0.89802 0.28224 0.0
C742 C 0.8313 0.96929 0.24785 0.0
C743 C 0.80443 0.9557 0.24289 0.0
C744 C 0.85554 0.95301 0.25586 0.0
C745 C 0.8535 0.92271 0.25855 0.0
C746 C 0.82623 0.90924 0.25504 0.0
C747 C 0.80174 0.9257 0.24754 0.0
H748 H 0.61109 0.44999 0.72143 0.0
H749 H 0.64763 0.41732 0.80151 0.0
H750 H 0.58555 0.40434 0.71444 0.0
H751 H 0.62271 0.37099 0.79399 0.0
H752 H 0.54807 0.30224 0.7803 0.0
H753 H 0.57606 0.34618 0.79203 0.0
H754 H 0.59783 0.35605 0.70116 0.0
H755 H 0.56905 0.31326 0.68966 0.0
C756 C 0.61361 0.43306 0.7376 0.0
C757 C 0.63145 0.43728 0.76196 0.0
C758 C 0.5992 0.40672 0.73346 0.0
C759 C 0.60255 0.38369 0.75334 0.0
C760 C 0.6196 0.38824 0.77828 0.0
C761 C 0.63386 0.4148 0.78258 0.0
C762 C 0.55949 0.31355 0.7631 0.0
C763 C 0.55645 0.30461 0.73412 0.0
C764 C 0.5754 0.33873 0.76972 0.0
C765 C 0.5886 0.35509 0.74742 0.0
C766 C 0.58717 0.34462 0.71876 0.0
C767 C 0.57103 0.31989 0.71217 0.0
H768 H 0.20844 0.95198 0.72305 0.0
H769 H 0.18925 0.93505 0.81322 0.0
H770 H 0.1641 0.92573 0.70883 0.0
H771 H 0.14597 0.90824 0.7993 0.0
H772 H 0.05344 0.90141 0.77264 0.0
H773 H 0.09987 0.92496 0.78094 0.0
H774 H 0.13667 0.87898 0.70785 0.0
H775 H 0.08958 0.85575 0.69901 0.0
C776 C 0.19524 0.94184 0.73969 0.0
C777 C 0.202 0.94562 0.7692 0.0
C778 C 0.16984 0.92696 0.73162 0.0
C779 C 0.15111 0.9156 0.75301 0.0
C780 C 0.15938 0.91753 0.78233 0.0
C781 C 0.18434 0.93258 0.79032 0.0
C782 C 0.07128 0.89653 0.75809 0.0
C783 C 0.06786 0.87657 0.7353 0.0
C784 C 0.09802 0.90984 0.763 0.0
C785 C 0.12219 0.9033 0.74549 0.0
C786 C 0.11849 0.88442 0.72176 0.0
C787 C 0.09152 0.87117 0.71669 0.0
H788 H 0.58759 0.71949 0.25424 0.0
H789 H 0.51304 0.66475 0.27002 0.0
H790 H 0.61553 0.6764 0.23896 0.0
H791 H 0.54037 0.6224 0.25451 0.0
H792 H 0.6093 0.55465 0.27623 0.0
H793 H 0.58095 0.59878 0.2812 0.0
H794 H 0.61929 0.63297 0.20267 0.0
H795 H 0.64817 0.58832 0.19764 0.0
C796 C 0.57706 0.69843 0.25376 0.0
C797 C 0.54845 0.69526 0.26386 0.0
C798 C 0.59294 0.67386 0.24501 0.0
C799 C 0.58024 0.64601 0.24615 0.0
C800 C 0.55094 0.64345 0.25408 0.0
C801 C 0.5353 0.66772 0.26294 0.0
C802 C 0.61159 0.57137 0.25981 0.0
C803 C 0.63083 0.56786 0.23643 0.0
C804 C 0.59524 0.59667 0.26261 0.0
C805 C 0.59776 0.61925 0.2422 0.0
C806 C 0.61698 0.6159 0.21872 0.0
C807 C 0.63325 0.59029 0.21573 0.0
H808 H 0.80501 0.08571 0.81018 0.0
H809 H 0.80255 0.04632 0.72492 0.0
H810 H 0.8496 0.11101 0.79716 0.0
H811 H 0.84746 0.07148 0.71209 0.0
H812 H 0.9466 0.11366 0.78193 0.0
H813 H 0.89919 0.09191 0.78976 0.0
H814 H 0.872 0.11958 0.7043 0.0
H815 H 0.91986 0.14133 0.6962 0.0
C816 C 0.81371 0.08281 0.78849 0.0
C817 C 0.80043 0.06369 0.76874 0.0
C818 C 0.83938 0.09712 0.78112 0.0
C819 C 0.85236 0.09266 0.75385 0.0
C820 C 0.83798 0.07527 0.73329 0.0
C821 C 0.81222 0.06092 0.74066 0.0
C822 C 0.93071 0.11487 0.76461 0.0
C823 C 0.93703 0.1293 0.73846 0.0
C824 C 0.9034 0.10267 0.76924 0.0
C825 C 0.8817 0.10456 0.74787 0.0
C826 C 0.88831 0.11786 0.72118 0.0
C827 C 0.91572 0.13022 0.71654 0.0
H828 H 0.41626 0.30874 0.3168 0.0
H829 H 0.45372 0.30647 0.2307 0.0
H830 H 0.39036 0.35315 0.30428 0.0
H831 H 0.42827 0.35125 0.21844 0.0
H832 H 0.35919 0.42181 0.20075 0.0
H833 H 0.38163 0.37469 0.2102 0.0
H834 H 0.4049 0.4032 0.29656 0.0
H835 H 0.38205 0.44997 0.28739 0.0
C836 C 0.41872 0.31749 0.29508 0.0
C837 C 0.43735 0.30417 0.27488 0.0
C838 C 0.40408 0.34313 0.288 0.0
C839 C 0.40774 0.3561 0.26056 0.0
C840 C 0.42495 0.34184 0.23976 0.0
C841 C 0.43955 0.31612 0.24682 0.0
C842 C 0.36942 0.41815 0.22163 0.0
C843 C 0.36886 0.43972 0.24329 0.0
C844 C 0.38224 0.39111 0.22705 0.0
C845 C 0.39473 0.38503 0.25427 0.0
C846 C 0.39489 0.40692 0.27559 0.0
C847 C 0.38209 0.4339 0.27019 0.0
H848 H 0.28019 0.19936 0.04308 0.0
H849 H 0.19475 0.19587 0.08187 0.0
H850 H 0.29351 0.15477 0.06874 0.0
H851 H 0.2082 0.15169 0.1076 0.0
H852 H 0.31051 0.08396 0.14 0.0
H853 H 0.30153 0.13117 0.11715 0.0
H854 H 0.21656 0.1018 0.0903 0.0
H855 H 0.22527 0.05502 0.11317 0.0
C856 C 0.26448 0.1895 0.05757 0.0
C857 C 0.23625 0.20099 0.0601 0.0
C858 C 0.27212 0.16392 0.07223 0.0
C859 C 0.25169 0.14938 0.08967 0.0
C860 C 0.22418 0.16197 0.0937 0.0
C861 C 0.21655 0.18744 0.07911 0.0
C862 C 0.29006 0.08748 0.12888 0.0
C863 C 0.26859 0.06568 0.12846 0.0
C864 C 0.28493 0.11453 0.11585 0.0
C865 C 0.25817 0.12037 0.10234 0.0
C866 C 0.23716 0.09823 0.10111 0.0
C867 C 0.24229 0.07126 0.11398 0.0
H868 H 0.25499 0.83425 0.99006 0.0
H869 H 0.24592 0.78196 0.91278 0.0
H870 H 0.26864 0.87606 0.96058 0.0
H871 H 0.25946 0.82418 0.8829 0.0
H872 H 0.23002 0.91632 0.84925 0.0
H873 H 0.22998 0.8702 0.87501 0.0
H874 H 0.30447 0.89777 0.92492 0.0
H875 H 0.30467 0.9443 0.89891 0.0
C876 C 0.25668 0.8316 0.96671 0.0
C877 C 0.2493 0.80507 0.95355 0.0
C878 C 0.26463 0.85549 0.94986 0.0
C879 C 0.26489 0.85344 0.91945 0.0
C880 C 0.25923 0.82635 0.90634 0.0
C881 C 0.25171 0.8022 0.92333 0.0
C882 C 0.24645 0.91264 0.8657 0.0
C883 C 0.26708 0.93419 0.87237 0.0
C884 C 0.24667 0.886 0.88014 0.0
C885 C 0.26734 0.8803 0.90181 0.0
C886 C 0.28829 0.90163 0.90827 0.0
C887 C 0.28832 0.92825 0.89349 0.0
H888 H 0.55964 0.79772 0.40088 0.0
H889 H 0.58735 0.72469 0.3487 0.0
H890 H 0.60601 0.79645 0.42695 0.0
H891 H 0.63349 0.72363 0.37458 0.0
H892 H 0.72218 0.74111 0.41342 0.0
H893 H 0.67961 0.75395 0.38371 0.0
H894 H 0.62705 0.75844 0.46132 0.0
H895 H 0.66916 0.74537 0.49062 0.0
C896 C 0.57562 0.78151 0.39491 0.0
C897 C 0.56967 0.76102 0.37307 0.0
C898 C 0.60215 0.78086 0.40973 0.0
C899 C 0.62336 0.76006 0.40262 0.0
C900 C 0.61771 0.74016 0.38023 0.0
C901 C 0.5911 0.74053 0.36571 0.0
C902 C 0.70164 0.74557 0.424 0.0
C903 C 0.69871 0.74212 0.45412 0.0
C904 C 0.67733 0.75271 0.4071 0.0
C905 C 0.65006 0.75705 0.42028 0.0
C906 C 0.6478 0.75545 0.45062 0.0
C907 C 0.67183 0.74782 0.46734 0.0
H908 H 0.79887 0.20315 0.91312 0.0
H909 H 0.71838 0.1971 0.96096 0.0
H910 H 0.78675 0.15882 0.88698 0.0
H911 H 0.70623 0.15248 0.93465 0.0
H912 H 0.77899 0.06053 0.88282 0.0
H913 H 0.78509 0.10788 0.90536 0.0
H914 H 0.69598 0.12931 0.88545 0.0
H915 H 0.68966 0.08156 0.86279 0.0
C916 C 0.77836 0.19261 0.91773 0.0
C917 C 0.75984 0.20338 0.93946 0.0
C918 C 0.77149 0.16713 0.90286 0.0
C919 C 0.74589 0.15181 0.90931 0.0
C920 C 0.72617 0.16379 0.92932 0.0
C921 C 0.73309 0.18939 0.9443 0.0
C922 C 0.76054 0.07512 0.88346 0.0
C923 C 0.73383 0.06719 0.87097 0.0
C924 C 0.76414 0.10241 0.89612 0.0
C925 C 0.74114 0.12248 0.89673 0.0
C926 C 0.71408 0.11428 0.88524 0.0
C927 C 0.7105 0.08693 0.87232 0.0
H928 H 0.28193 0.24883 0.41244 0.0
H929 H 0.33155 0.24647 0.49198 0.0
H930 H 0.32576 0.23483 0.38502 0.0
H931 H 0.37476 0.23247 0.46499 0.0
H932 H 0.44761 0.26362 0.40353 0.0
H933 H 0.40222 0.2656 0.43051 0.0
H934 H 0.36756 0.19579 0.3783 0.0
H935 H 0.41344 0.19356 0.35115 0.0
C936 C 0.3019 0.24437 0.42408 0.0
C937 C 0.30357 0.249 0.45417 0.0
C938 C 0.32693 0.23646 0.40847 0.0
C939 C 0.35373 0.23313 0.4229 0.0
C940 C 0.35456 0.23543 0.45327 0.0
C941 C 0.3298 0.24333 0.46869 0.0
C942 C 0.4305 0.24844 0.39796 0.0
C943 C 0.43421 0.22831 0.37535 0.0
C944 C 0.40451 0.24951 0.41346 0.0
C945 C 0.38141 0.23074 0.40657 0.0
C946 C 0.38502 0.2105 0.38401 0.0
C947 C 0.41132 0.2091 0.3687 0.0
H948 H 0.80336 0.79678 0.09344 0.0
H949 H 0.72911 0.81105 0.03794 0.0
H950 H 0.79186 0.84091 0.12028 0.0
H951 H 0.71824 0.85597 0.06389 0.0
H952 H 0.79134 0.93774 0.13334 0.0
H953 H 0.79685 0.89083 0.11001 0.0
H954 H 0.70348 0.88119 0.1069 0.0
H955 H 0.698 0.92903 0.1295 0.0
C956 C 0.78431 0.80917 0.08728 0.0
C957 C 0.76722 0.80053 0.06356 0.0
C958 C 0.77789 0.83468 0.1024 0.0
C959 C 0.75454 0.8525 0.09379 0.0
C960 C 0.73633 0.84283 0.07121 0.0
C961 C 0.74252 0.817 0.05635 0.0
C962 C 0.77194 0.92575 0.12749 0.0
C963 C 0.74423 0.93714 0.13324 0.0
C964 C 0.77509 0.89861 0.1144 0.0
C965 C 0.75062 0.88182 0.10705 0.0
C966 C 0.72281 0.89352 0.11215 0.0
C967 C 0.71965 0.92096 0.12504 0.0
H968 H 0.57369 0.19786 0.62853 0.0
H969 H 0.56575 0.29142 0.62787 0.0
H970 H 0.62186 0.20195 0.60623 0.0
H971 H 0.61296 0.2955 0.60497 0.0
H972 H 0.6931 0.22576 0.53687 0.0
H973 H 0.64785 0.21544 0.56253 0.0
H974 H 0.66258 0.28993 0.61785 0.0
H975 H 0.70701 0.30088 0.59136 0.0
C976 C 0.58198 0.21922 0.62308 0.0
C977 C 0.566 0.24432 0.62999 0.0
C978 C 0.60959 0.22158 0.61043 0.0
C979 C 0.62158 0.24908 0.60436 0.0
C980 C 0.6049 0.274 0.6102 0.0
C981 C 0.5776 0.27166 0.62301 0.0
C982 C 0.68698 0.23949 0.55498 0.0
C983 C 0.70334 0.26435 0.56191 0.0
C984 C 0.661 0.2336 0.56967 0.0
C985 C 0.65117 0.25229 0.59175 0.0
C986 C 0.669 0.27563 0.6003 0.0
C987 C 0.69464 0.28175 0.58537 0.0
H988 H 0.27964 0.742 0.58956 0.0
H989 H 0.3321 0.74681 0.51202 0.0
H990 H 0.32221 0.75552 0.61896 0.0
H991 H 0.37423 0.76051 0.54101 0.0
H992 H 0.44224 0.79954 0.60078 0.0
H993 H 0.39564 0.79829 0.57507 0.0
H994 H 0.36833 0.72582 0.62808 0.0
H995 H 0.41463 0.72689 0.65358 0.0
C996 C 0.30004 0.74677 0.57884 0.0
C997 C 0.30282 0.74327 0.54871 0.0
C998 C 0.32436 0.75429 0.59556 0.0
C999 C 0.35152 0.75892 0.58222 0.0
C1000 C 0.35358 0.75732 0.55185 0.0
C1001 C 0.32954 0.74933 0.53531 0.0
C1002 C 0.42623 0.78343 0.60697 0.0
C1003 C 0.43229 0.76302 0.62887 0.0
C1004 C 0.39957 0.78279 0.59235 0.0
C1005 C 0.37834 0.76207 0.59972 0.0
C1006 C 0.3841 0.74229 0.62221 0.0
C1007 C 0.41081 0.74266 0.63652 0.0
H1008 H 0.89786 0.70815 0.94517 0.0
H1009 H 0.84375 0.77929 0.91629 0.0
H1010 H 0.92495 0.71049 0.89941 0.0
H1011 H 0.87064 0.78141 0.87075 0.0
H1012 H 0.91186 0.76501 0.78264 0.0
H1013 H 0.88174 0.75175 0.82481 0.0
H1014 H 0.95852 0.74924 0.8787 0.0
H1015 H 0.9882 0.76273 0.83699 0.0
C1016 C 0.89169 0.72418 0.92906 0.0
C1017 C 0.86896 0.74382 0.93454 0.0
C1018 C 0.90712 0.72545 0.90288 0.0
C1019 C 0.89977 0.74602 0.88148 0.0
C1020 C 0.87653 0.76507 0.88666 0.0
C1021 C 0.86141 0.7641 0.91293 0.0
C1022 C 0.92219 0.76088 0.80338 0.0
C1023 C 0.95219 0.76494 0.80674 0.0
C1024 C 0.90505 0.75353 0.82748 0.0
C1025 C 0.91783 0.74958 0.85503 0.0
C1026 C 0.94809 0.75188 0.85776 0.0
C1027 C 0.96504 0.75973 0.83393 0.0
H1028 H 0.79878 0.39436 0.44505 0.0
H1029 H 0.72548 0.34378 0.41525 0.0
H1030 H 0.79759 0.42244 0.39988 0.0
H1031 H 0.72447 0.37173 0.37023 0.0
H1032 H 0.74297 0.41381 0.28276 0.0
H1033 H 0.75432 0.38236 0.32451 0.0
H1034 H 0.76109 0.45814 0.37948 0.0
H1035 H 0.74952 0.48918 0.33814 0.0
C1036 C 0.78248 0.38919 0.42888 0.0
C1037 C 0.76197 0.36712 0.43394 0.0
C1038 C 0.78186 0.40521 0.40301 0.0
C1039 C 0.76103 0.39917 0.38148 0.0
C1040 C 0.74101 0.37663 0.38624 0.0
C1041 C 0.74137 0.36089 0.41222 0.0
C1042 C 0.74769 0.42362 0.30363 0.0
C1043 C 0.74541 0.45379 0.30736 0.0
C1044 C 0.7539 0.40571 0.32752 0.0
C1045 C 0.75844 0.41783 0.35527 0.0
C1046 C 0.75793 0.44817 0.35839 0.0
C1047 C 0.75123 0.46592 0.33475 0.0
H1048 H 0.01345 0.24451 0.83936 0.0
H1049 H 0.08779 0.24811 0.78237 0.0
H1050 H 0.04384 0.25861 0.88038 0.0
H1051 H 0.11861 0.26191 0.82382 0.0
H1052 H 0.16012 0.23118 0.9131 0.0
H1053 H 0.13212 0.23037 0.86822 0.0
H1054 H 0.0768 0.2985 0.9013 0.0
H1055 H 0.10513 0.29958 0.94644 0.0
C1056 C 0.03627 0.24895 0.83558 0.0
C1057 C 0.04842 0.24513 0.80784 0.0
C1058 C 0.05361 0.25716 0.85901 0.0
C1059 C 0.08358 0.26121 0.8553 0.0
C1060 C 0.09554 0.2588 0.82723 0.0
C1061 C 0.07798 0.25111 0.80355 0.0
C1062 C 0.14204 0.24608 0.91083 0.0
C1063 C 0.13454 0.26515 0.9335 0.0
C1064 C 0.12627 0.24587 0.88494 0.0
C1065 C 0.10241 0.26447 0.88122 0.0
C1066 C 0.09515 0.28394 0.90364 0.0
C1067 C 0.11127 0.2845 0.92945 0.0
H1068 H 0.27176 0.591 0.2866 0.0
H1069 H 0.22605 0.51868 0.32478 0.0
H1070 H 0.25988 0.62097 0.32908 0.0
H1071 H 0.21341 0.54878 0.36693 0.0
H1072 H 0.18394 0.62481 0.42944 0.0
H1073 H 0.18683 0.59907 0.38275 0.0
H1074 H 0.2799 0.61023 0.38251 0.0
H1075 H 0.27724 0.63518 0.42918 0.0
C1076 C 0.25821 0.58197 0.3036 0.0
C1077 C 0.24948 0.55283 0.30252 0.0
C1078 C 0.25161 0.59895 0.3279 0.0
C1079 C 0.23587 0.58705 0.35123 0.0
C1080 C 0.22535 0.55849 0.3491 0.0
C1081 C 0.23244 0.54136 0.32504 0.0
C1082 C 0.20499 0.62157 0.41945 0.0
C1083 C 0.2304 0.6317 0.43308 0.0
C1084 C 0.2066 0.60698 0.39278 0.0
C1085 C 0.23353 0.60304 0.379 0.0
C1086 C 0.25883 0.61335 0.39255 0.0
C1087 C 0.25732 0.6273 0.41941 0.0
H1088 H 0.82339 0.23802 0.09048 0.0
H1089 H 0.89843 0.28337 0.05732 0.0
H1090 H 0.84597 0.23462 0.13801 0.0
H1091 H 0.92199 0.27885 0.10492 0.0
H1092 H 0.95306 0.27786 0.19797 0.0
H1093 H 0.9235 0.29128 0.1559 0.0
H1094 H 0.88354 0.20622 0.15744 0.0
H1095 H 0.91199 0.19339 0.1997 0.0
C1096 C 0.84495 0.247 0.09338 0.0
C1097 C 0.85955 0.26025 0.07012 0.0
C1098 C 0.85789 0.24511 0.12064 0.0
C1099 C 0.88605 0.25594 0.12523 0.0
C1100 C 0.9002 0.27041 0.10222 0.0
C1101 C 0.88691 0.27279 0.07491 0.0
C1102 C 0.93733 0.26239 0.18977 0.0
C1103 C 0.935 0.23449 0.20205 0.0
C1104 C 0.92068 0.26994 0.16543 0.0
C1105 C 0.90134 0.24976 0.15304 0.0
C1106 C 0.89791 0.22251 0.16648 0.0
C1107 C 0.9144 0.21504 0.19072 0.0
H1108 H 0.22851 0.43692 0.71055 0.0
H1109 H 0.31623 0.44289 0.67764 0.0
H1110 H 0.21503 0.40728 0.66829 0.0
H1111 H 0.30265 0.41583 0.63533 0.0
H1112 H 0.28353 0.34824 0.57208 0.0
H1113 H 0.29256 0.37083 0.6185 0.0
H1114 H 0.20582 0.40717 0.61779 0.0
H1115 H 0.19597 0.38163 0.57201 0.0
C1116 C 0.24487 0.43183 0.69442 0.0
C1117 C 0.27352 0.44191 0.69775 0.0
C1118 C 0.23712 0.41513 0.67005 0.0
C1119 C 0.25778 0.40871 0.64834 0.0
C1120 C 0.28625 0.41919 0.65184 0.0
C1121 C 0.29408 0.43506 0.67626 0.0
C1122 C 0.26631 0.36093 0.58188 0.0
C1123 C 0.23922 0.36359 0.56825 0.0
C1124 C 0.27154 0.37418 0.6085 0.0
C1125 C 0.25025 0.39168 0.62176 0.0
C1126 C 0.22275 0.39383 0.6084 0.0
C1127 C 0.21716 0.37952 0.58203 0.0
H1128 H 0.11979 0.78536 0.05902 0.0
H1129 H 0.14368 0.69867 0.08637 0.0
H1130 H 0.0969 0.79387 0.10568 0.0
H1131 H 0.12071 0.70746 0.13361 0.0
H1132 H 0.08615 0.81464 0.19888 0.0
H1133 H 0.11367 0.80068 0.15596 0.0
H1134 H 0.07183 0.71665 0.15613 0.0
H1135 H 0.04447 0.73042 0.19948 0.0
C1136 C 0.12002 0.768 0.07493 0.0
C1137 C 0.13362 0.74133 0.06893 0.0
C1138 C 0.10713 0.77302 0.10183 0.0
C1139 C 0.10749 0.75154 0.12352 0.0
C1140 C 0.12017 0.72444 0.11731 0.0
C1141 C 0.13323 0.7194 0.09026 0.0
C1142 C 0.08317 0.79299 0.19011 0.0
C1143 C 0.06277 0.77383 0.20233 0.0
C1144 C 0.0988 0.78506 0.16541 0.0
C1145 C 0.09438 0.75783 0.15229 0.0
C1146 C 0.07564 0.7378 0.16573 0.0
C1147 C 0.05999 0.74572 0.19057 0.0
H1148 H 0.76669 0.51578 0.67275 0.0
H1149 H 0.73486 0.59107 0.71859 0.0
H1150 H 0.78119 0.54668 0.63182 0.0
H1151 H 0.74853 0.62198 0.67719 0.0
H1152 H 0.72618 0.64068 0.57699 0.0
H1153 H 0.72326 0.61519 0.62335 0.0
H1154 H 0.81482 0.59568 0.6188 0.0
H1155 H 0.81809 0.62219 0.57244 0.0
C1156 C 0.76361 0.53909 0.67428 0.0
C1157 C 0.74996 0.55129 0.69865 0.0
C1158 C 0.77191 0.55669 0.651 0.0
C1159 C 0.76593 0.58658 0.6515 0.0
C1160 C 0.75345 0.59896 0.67648 0.0
C1161 C 0.74578 0.58142 0.7001 0.0
C1162 C 0.74573 0.63098 0.58583 0.0
C1163 C 0.77232 0.6331 0.571 0.0
C1164 C 0.74409 0.61673 0.61249 0.0
C1165 C 0.76886 0.60379 0.62461 0.0
C1166 C 0.7955 0.60572 0.60984 0.0
C1167 C 0.79732 0.62071 0.58339 0.0
H1168 H 0.8318 0.98834 0.75167 0.0
H1169 H 0.78176 0.91008 0.76427 0.0
H1170 H 0.87438 0.95945 0.73908 0.0
H1171 H 0.82469 0.88079 0.75182 0.0
H1172 H 0.91785 0.8497 0.78007 0.0
H1173 H 0.87133 0.87477 0.78057 0.0
H1174 H 0.89635 0.92326 0.70423 0.0
H1175 H 0.94319 0.89804 0.70359 0.0
C1176 C 0.82982 0.96487 0.75093 0.0
C1177 C 0.80368 0.95129 0.75883 0.0
C1178 C 0.85413 0.94835 0.74365 0.0
C1179 C 0.8529 0.91788 0.74466 0.0
C1180 C 0.82623 0.90427 0.75106 0.0
C1181 C 0.80167 0.92092 0.75791 0.0
C1182 C 0.91352 0.86572 0.76335 0.0
C1183 C 0.93443 0.8722 0.74202 0.0
C1184 C 0.88666 0.87976 0.76342 0.0
C1185 C 0.88013 0.90081 0.74233 0.0
C1186 C 0.90085 0.90712 0.72077 0.0
C1187 C 0.92767 0.89277 0.72048 0.0
H1188 H 0.55542 0.32385 0.31839 0.0
H1189 H 0.55884 0.29762 0.22837 0.0
H1190 H 0.58604 0.36524 0.30791 0.0
H1191 H 0.59043 0.33959 0.21771 0.0
H1192 H 0.61126 0.44103 0.21114 0.0
H1193 H 0.58556 0.39465 0.21688 0.0
H1194 H 0.63545 0.3768 0.29433 0.0
H1195 H 0.66036 0.42291 0.28915 0.0
C1196 C 0.5631 0.32678 0.29632 0.0
C1197 C 0.55466 0.30757 0.27417 0.0
C1198 C 0.58084 0.35046 0.29034 0.0
C1199 C 0.59072 0.35572 0.26198 0.0
C1200 C 0.58295 0.33614 0.23975 0.0
C1201 C 0.56519 0.31203 0.24586 0.0
C1202 C 0.61664 0.42717 0.22939 0.0
C1203 C 0.63734 0.43602 0.25007 0.0
C1204 C 0.60218 0.40049 0.23248 0.0
C1205 C 0.6083 0.3822 0.25621 0.0
C1206 C 0.62982 0.39063 0.27612 0.0
C1207 C 0.64405 0.41718 0.27318 0.0
H1208 H 0.20853 0.09195 0.8089 0.0
H1209 H 0.1936 0.03792 0.73366 0.0
H1210 H 0.16516 0.11998 0.79742 0.0
H1211 H 0.14939 0.065 0.72288 0.0
H1212 H 0.07753 0.13147 0.703 0.0
H1213 H 0.12516 0.10845 0.7085 0.0
H1214 H 0.11518 0.11094 0.80191 0.0
H1215 H 0.06858 0.13476 0.79635 0.0
C1216 C 0.19612 0.08631 0.7897 0.0
C1217 C 0.20432 0.06266 0.7723 0.0
C1218 C 0.17106 0.10214 0.78326 0.0
C1219 C 0.15328 0.0943 0.75963 0.0
C1220 C 0.16253 0.07175 0.74118 0.0
C1221 C 0.18792 0.0562 0.74736 0.0
C1222 C 0.08553 0.12682 0.72465 0.0
C1223 C 0.06936 0.13493 0.74923 0.0
C1224 C 0.11283 0.1137 0.72783 0.0
C1225 C 0.12432 0.10822 0.75567 0.0
C1226 C 0.10757 0.11561 0.78014 0.0
C1227 C 0.08061 0.12898 0.77696 0.0
H1228 H 0.32494 0.59194 0.27632 0.0
H1229 H 0.39382 0.56328 0.21951 0.0
H1230 H 0.34815 0.63898 0.28125 0.0
H1231 H 0.41824 0.61015 0.22573 0.0
H1232 H 0.44966 0.70306 0.23072 0.0
H1233 H 0.41907 0.66165 0.21761 0.0
H1234 H 0.38839 0.65674 0.30628 0.0
H1235 H 0.41763 0.69846 0.3189 0.0
C1236 C 0.34524 0.59568 0.26503 0.0
C1237 C 0.35786 0.57379 0.24794 0.0
C1238 C 0.35862 0.62267 0.26792 0.0
C1239 C 0.38536 0.6283 0.25432 0.0
C1240 C 0.39753 0.6067 0.23633 0.0
C1241 C 0.38374 0.57975 0.23297 0.0
C1242 C 0.4358 0.69353 0.24718 0.0
C1243 C 0.43626 0.70395 0.2759 0.0
C1244 C 0.41854 0.66957 0.23975 0.0
C1245 C 0.40142 0.65561 0.2609 0.0
C1246 C 0.40091 0.66704 0.28924 0.0
C1247 C 0.41792 0.69097 0.29658 0.0
H1248 H 0.8004 0.04735 0.27783 0.0
H1249 H 0.79782 0.09212 0.19528 0.0
H1250 H 0.84542 0.07263 0.29005 0.0
H1251 H 0.84254 0.11752 0.20769 0.0
H1252 H 0.91886 0.14098 0.30651 0.0
H1253 H 0.87031 0.12038 0.2995 0.0
H1254 H 0.89258 0.09836 0.21107 0.0
H1255 H 0.94068 0.11892 0.21784 0.0
C1256 C 0.80893 0.0632 0.26266 0.0
C1257 C 0.79573 0.06742 0.23539 0.0
C1258 C 0.83478 0.07762 0.26966 0.0
C1259 C 0.84785 0.09652 0.24953 0.0
C1260 C 0.83336 0.10249 0.22332 0.0
C1261 C 0.80761 0.08811 0.21632 0.0
C1262 C 0.91348 0.13142 0.28569 0.0
C1263 C 0.93369 0.1316 0.26274 0.0
C1264 C 0.88566 0.11971 0.28168 0.0
C1265 C 0.87748 0.10822 0.2546 0.0
C1266 C 0.89799 0.10767 0.232 0.0
C1267 C 0.92572 0.11918 0.23601 0.0
H1268 H 0.41594 0.30627 0.69244 0.0
H1269 H 0.45731 0.30477 0.77677 0.0
H1270 H 0.39062 0.35076 0.70566 0.0
H1271 H 0.43206 0.34961 0.78984 0.0
H1272 H 0.36217 0.42142 0.807 0.0
H1273 H 0.38391 0.37365 0.7985 0.0
H1274 H 0.40923 0.40073 0.71229 0.0
H1275 H 0.38746 0.44812 0.72054 0.0
C1276 C 0.4193 0.31516 0.71398 0.0
C1277 C 0.43899 0.30218 0.73339 0.0
C1278 C 0.40495 0.34079 0.72146 0.0
C1279 C 0.40991 0.35403 0.74851 0.0
C1280 C 0.42788 0.33994 0.76879 0.0
C1281 C 0.4423 0.31422 0.7613 0.0
C1282 C 0.37271 0.41728 0.78637 0.0
C1283 C 0.37305 0.43861 0.76443 0.0
C1284 C 0.38509 0.38991 0.78152 0.0
C1285 C 0.39782 0.3833 0.75457 0.0
C1286 C 0.39898 0.40495 0.73306 0.0
C1287 C 0.38678 0.43226 0.73792 0.0
H1288 H 0.19397 0.93056 0.19411 0.0
H1289 H 0.20556 0.95681 0.28331 0.0
H1290 H 0.15065 0.90338 0.20741 0.0
H1291 H 0.16125 0.93006 0.29679 0.0
H1292 H 0.08727 0.85928 0.30756 0.0
H1293 H 0.13482 0.88209 0.29989 0.0
H1294 H 0.10287 0.92138 0.22086 0.0
H1295 H 0.05598 0.89845 0.22814 0.0
C1296 C 0.18747 0.92995 0.21674 0.0
C1297 C 0.20295 0.94574 0.23769 0.0
C1298 C 0.16248 0.91469 0.22433 0.0
C1299 C 0.15203 0.91526 0.25301 0.0
C1300 C 0.16871 0.92931 0.27449 0.0
C1301 C 0.19411 0.94447 0.26686 0.0
C1302 C 0.09036 0.87311 0.28876 0.0
C1303 C 0.06787 0.87687 0.26833 0.0
C1304 C 0.11759 0.88612 0.28438 0.0
C1305 C 0.12281 0.90302 0.25946 0.0
C1306 C 0.09985 0.90781 0.23987 0.0
C1307 C 0.07282 0.89485 0.24418 0.0
H1308 H 0.55244 0.70204 0.76943 0.0
H1309 H 0.58342 0.69725 0.6809 0.0
H1310 H 0.58168 0.65945 0.78183 0.0
H1311 H 0.61125 0.65438 0.6928 0.0
H1312 H 0.67373 0.58791 0.72243 0.0
H1313 H 0.65118 0.63521 0.71715 0.0
H1314 H 0.5811 0.60804 0.77355 0.0
H1315 H 0.60481 0.56084 0.78004 0.0
C1316 C 0.56578 0.6922 0.75274 0.0
C1317 C 0.56544 0.70297 0.72413 0.0
C1318 C 0.58225 0.66756 0.75975 0.0
C1319 C 0.59866 0.65322 0.73829 0.0
C1320 C 0.59926 0.66492 0.71006 0.0
C1321 C 0.58307 0.68953 0.70314 0.0
C1322 C 0.65348 0.592 0.73372 0.0
C1323 C 0.64071 0.57049 0.75121 0.0
C1324 C 0.6405 0.61917 0.73066 0.0
C1325 C 0.61403 0.62542 0.74453 0.0
C1326 C 0.60161 0.60413 0.76274 0.0
C1327 C 0.61499 0.57698 0.76625 0.0
H1328 H 0.77682 0.9157 0.84376 0.0
H1329 H 0.7034 0.94359 0.89521 0.0
H1330 H 0.77814 0.86991 0.87033 0.0
H1331 H 0.70491 0.89758 0.92196 0.0
H1332 H 0.75527 0.8353 0.9869 0.0
H1333 H 0.7422 0.87697 0.95693 0.0
H1334 H 0.74876 0.82363 0.87999 0.0
H1335 H 0.76161 0.78151 0.9104 0.0
C1336 C 0.76095 0.91207 0.86076 0.0
C1337 C 0.74027 0.93348 0.86769 0.0
C1338 C 0.76147 0.88565 0.87569 0.0
C1339 C 0.74154 0.88012 0.8981 0.0
C1340 C 0.72055 0.90131 0.90478 0.0
C1341 C 0.71976 0.92765 0.88954 0.0
C1342 C 0.75319 0.83234 0.96363 0.0
C1343 C 0.75944 0.80534 0.95083 0.0
C1344 C 0.74559 0.85614 0.9465 0.0
C1345 C 0.74461 0.85358 0.91614 0.0
C1346 C 0.74951 0.82617 0.90338 0.0
C1347 C 0.75662 0.8021 0.92068 0.0
H1348 H 0.80107 0.19281 0.07121 0.0
H1349 H 0.71094 0.20489 0.04863 0.0
H1350 H 0.7886 0.15016 0.09968 0.0
H1351 H 0.69827 0.16096 0.07646 0.0
H1352 H 0.69118 0.08809 0.14926 0.0
H1353 H 0.69741 0.13519 0.1251 0.0
H1354 H 0.77405 0.10246 0.08195 0.0
H1355 H 0.7683 0.05606 0.10633 0.0
C1356 C 0.77843 0.18661 0.07298 0.0
C1357 C 0.75693 0.20199 0.0579 0.0
C1358 C 0.77131 0.16198 0.08892 0.0
C1359 C 0.74259 0.15174 0.08956 0.0
C1360 C 0.72061 0.16833 0.07622 0.0
C1361 C 0.72777 0.19346 0.06046 0.0
C1362 C 0.7091 0.09091 0.13426 0.0
C1363 C 0.72946 0.0685 0.1299 0.0
C1364 C 0.71265 0.11786 0.1205 0.0
C1365 C 0.73659 0.12271 0.10221 0.0
C1366 C 0.75587 0.09968 0.09663 0.0
C1367 C 0.75245 0.07298 0.11042 0.0
H1368 H 0.41906 0.19002 0.6416 0.0
H1369 H 0.43923 0.27877 0.61799 0.0
H1370 H 0.37047 0.1957 0.62047 0.0
H1371 H 0.39114 0.28422 0.59716 0.0
H1372 H 0.29659 0.29862 0.59196 0.0
H1373 H 0.34075 0.28605 0.61823 0.0
H1374 H 0.34629 0.20531 0.57075 0.0
H1375 H 0.30186 0.21784 0.54438 0.0
C1376 C 0.41331 0.21056 0.63162 0.0
C1377 C 0.43304 0.23396 0.63152 0.0
C1378 C 0.3855 0.21379 0.61964 0.0
C1379 C 0.3769 0.24056 0.60772 0.0
C1380 C 0.39695 0.26355 0.60683 0.0
C1381 C 0.42465 0.26029 0.61851 0.0
C1382 C 0.30683 0.27789 0.58756 0.0
C1383 C 0.29603 0.25946 0.56578 0.0
C1384 C 0.33219 0.27077 0.60249 0.0
C1385 C 0.34728 0.24505 0.59597 0.0
C1386 C 0.33511 0.22532 0.57611 0.0
C1387 C 0.30963 0.23247 0.56111 0.0
H1388 H 0.20168 0.79894 0.09217 0.0
H1389 H 0.28409 0.80041 0.04726 0.0
H1390 H 0.21577 0.84136 0.11974 0.0
H1391 H 0.29887 0.84267 0.07593 0.0
H1392 H 0.2897 0.94217 0.0984 0.0
H1393 H 0.28619 0.89351 0.07689 0.0
H1394 H 0.24527 0.86205 0.15545 0.0
H1395 H 0.24731 0.91066 0.17586 0.0
C1396 C 0.22321 0.80787 0.08879 0.0
C1397 C 0.24163 0.79649 0.06734 0.0
C1398 C 0.23143 0.83219 0.10477 0.0
C1399 C 0.25844 0.84567 0.09994 0.0
C1400 C 0.27773 0.8331 0.07984 0.0
C1401 C 0.26943 0.80866 0.06371 0.0
C1402 C 0.28019 0.92468 0.11095 0.0
C1403 C 0.26805 0.93016 0.13834 0.0
C1404 C 0.27838 0.89677 0.09883 0.0
C1405 C 0.26495 0.87392 0.11425 0.0
C1406 C 0.25491 0.87924 0.14258 0.0
C1407 C 0.25611 0.90708 0.1543 0.0
H1408 H 0.70228 0.69724 0.59076 0.0
H1409 H 0.70304 0.77991 0.54602 0.0
H1410 H 0.65703 0.71065 0.61464 0.0
H1411 H 0.65755 0.79311 0.56977 0.0
H1412 H 0.55913 0.72328 0.61231 0.0
H1413 H 0.60769 0.71532 0.59325 0.0
H1414 H 0.63173 0.80294 0.61683 0.0
H1415 H 0.58283 0.81116 0.63585 0.0
C1416 C 0.69312 0.7185 0.58646 0.0
C1417 C 0.70601 0.73731 0.56614 0.0
C1418 C 0.66709 0.72607 0.59995 0.0
C1419 C 0.65344 0.7526 0.59346 0.0
C1420 C 0.66755 0.77247 0.57509 0.0
C1421 C 0.69366 0.76491 0.56155 0.0
C1422 C 0.57458 0.74103 0.61314 0.0
C1423 C 0.56707 0.76786 0.62559 0.0
C1424 C 0.60253 0.73632 0.60254 0.0
C1425 C 0.62363 0.75835 0.60406 0.0
C1426 C 0.61589 0.78558 0.61546 0.0
C1427 C 0.58788 0.79027 0.62624 0.0
H1428 H 0.19576 0.19086 0.93049 0.0
H1429 H 0.28569 0.20704 0.95134 0.0
H1430 H 0.20951 0.14781 0.90316 0.0
H1431 H 0.29967 0.16295 0.92454 0.0
H1432 H 0.30938 0.0887 0.85401 0.0
H1433 H 0.30108 0.13611 0.87683 0.0
H1434 H 0.22627 0.10109 0.92141 0.0
H1435 H 0.23409 0.05431 0.89838 0.0
C1436 C 0.21859 0.18541 0.92867 0.0
C1437 C 0.23968 0.20204 0.94301 0.0
C1438 C 0.22646 0.1606 0.91334 0.0
C1439 C 0.25558 0.15153 0.91245 0.0
C1440 C 0.27705 0.16937 0.92498 0.0
C1441 C 0.26912 0.19461 0.94015 0.0
C1442 C 0.29142 0.0911 0.86902 0.0
C1443 C 0.27221 0.06785 0.87421 0.0
C1444 C 0.28668 0.11823 0.88202 0.0
C1445 C 0.26266 0.12248 0.90036 0.0
C1446 C 0.24448 0.09875 0.90668 0.0
C1447 C 0.24911 0.07183 0.89368 0.0
H1448 H 0.30123 0.69521 0.41333 0.0
H1449 H 0.29939 0.77908 0.45565 0.0
H1450 H 0.34609 0.70868 0.38876 0.0
H1451 H 0.34453 0.79237 0.43118 0.0
H1452 H 0.44372 0.72287 0.38968 0.0
H1453 H 0.39547 0.71476 0.40936 0.0
H1454 H 0.37003 0.80136 0.3836 0.0
H1455 H 0.41871 0.80973 0.36387 0.0
C1456 C 0.31009 0.71672 0.41698 0.0
C1457 C 0.29695 0.7359 0.43678 0.0
C1458 C 0.3359 0.72435 0.40307 0.0
C1459 C 0.34915 0.7513 0.40862 0.0
C1460 C 0.33484 0.77142 0.42656 0.0
C1461 C 0.30894 0.7638 0.44052 0.0
C1462 C 0.42803 0.74037 0.38844 0.0
C1463 C 0.43512 0.76697 0.3752 0.0
C1464 C 0.40023 0.73558 0.39943 0.0
C1465 C 0.37882 0.75724 0.39753 0.0
C1466 C 0.3861 0.78426 0.38528 0.0
C1467 C 0.41399 0.78905 0.37409 0.0
H1468 H 0.56085 0.19973 0.39443 0.0
H1469 H 0.58142 0.28148 0.3529 0.0
H1470 H 0.60816 0.20055 0.41892 0.0
H1471 H 0.62831 0.28213 0.37714 0.0
H1472 H 0.71961 0.26706 0.40773 0.0
H1473 H 0.67621 0.25525 0.37891 0.0
H1474 H 0.63025 0.23283 0.45761 0.0
H1475 H 0.67332 0.24489 0.48609 0.0
C1476 C 0.57539 0.21783 0.39054 0.0
C1477 C 0.56717 0.24071 0.37202 0.0
C1478 C 0.60248 0.21824 0.40445 0.0
C1479 C 0.62204 0.24128 0.39972 0.0
C1480 C 0.61395 0.26385 0.38085 0.0
C1481 C 0.58685 0.26364 0.36728 0.0
C1482 C 0.70049 0.25868 0.41859 0.0
C1483 C 0.69968 0.25664 0.44896 0.0
C1484 C 0.67562 0.2522 0.40224 0.0
C1485 C 0.64979 0.24328 0.41606 0.0
C1486 C 0.64983 0.23938 0.44631 0.0
C1487 C 0.67445 0.24628 0.46261 0.0
H1488 H 0.14817 0.3108 0.43346 0.0
H1489 H 0.18701 0.22539 0.43132 0.0
H1490 H 0.11502 0.29697 0.39496 0.0
H1491 H 0.15483 0.21186 0.39142 0.0
H1492 H 0.07031 0.18566 0.34739 0.0
H1493 H 0.10689 0.19979 0.38233 0.0
H1494 H 0.10796 0.28657 0.34608 0.0
H1495 H 0.06981 0.27261 0.31192 0.0
C1496 C 0.14992 0.28913 0.42441 0.0
C1497 C 0.17008 0.26908 0.43561 0.0
C1498 C 0.13101 0.28125 0.40206 0.0
C1499 C 0.13206 0.25324 0.38988 0.0
C1500 C 0.15286 0.23343 0.40059 0.0
C1501 C 0.17146 0.24118 0.42339 0.0
C1502 C 0.07842 0.20776 0.3467 0.0
C1503 C 0.06698 0.22808 0.32693 0.0
C1504 C 0.0997 0.21584 0.3667 0.0
C1505 C 0.11059 0.24438 0.36722 0.0
C1506 C 0.09975 0.26453 0.3468 0.0
C1507 C 0.07799 0.25654 0.32706 0.0
H1508 H 0.27226 0.6882 0.9319 0.0
H1509 H 0.18609 0.65111 0.93354 0.0
H1510 H 0.28577 0.6549 0.89306 0.0
H1511 H 0.19994 0.61673 0.89596 0.0
H1512 H 0.22705 0.56904 0.81392 0.0
H1513 H 0.21186 0.60751 0.84736 0.0
H1514 H 0.29709 0.6063 0.88694 0.0
H1515 H 0.31241 0.56943 0.85292 0.0
C1516 C 0.25627 0.67281 0.92406 0.0
C1517 C 0.22822 0.67216 0.93595 0.0
C1518 C 0.26402 0.65354 0.90188 0.0
C1519 C 0.24409 0.63271 0.89147 0.0
C1520 C 0.21581 0.6326 0.90301 0.0
C1521 C 0.20791 0.65222 0.92479 0.0
C1522 C 0.24247 0.5772 0.82971 0.0
C1523 C 0.27092 0.56625 0.83066 0.0
C1524 C 0.23379 0.59916 0.849 0.0
C1525 C 0.25327 0.61028 0.8699 0.0
C1526 C 0.28163 0.59903 0.87077 0.0
C1527 C 0.29038 0.57757 0.85132 0.0
H1528 H 0.93189 0.73442 0.31272 0.0
H1529 H 0.93193 0.81895 0.35356 0.0
H1530 H 0.89346 0.7186 0.34561 0.0
H1531 H 0.89488 0.80287 0.38731 0.0
H1532 H 0.81438 0.77462 0.43389 0.0
H1533 H 0.84655 0.79032 0.39483 0.0
H1534 H 0.88648 0.7052 0.39389 0.0
H1535 H 0.85334 0.68924 0.4316 0.0
C1536 C 0.92376 0.74956 0.3288 0.0
C1537 C 0.93502 0.77786 0.33059 0.0
C1538 C 0.90183 0.74048 0.3478 0.0
C1539 C 0.89103 0.75936 0.36935 0.0
C1540 C 0.90211 0.78782 0.37074 0.0
C1541 C 0.92362 0.79701 0.35147 0.0
C1542 C 0.8299 0.75926 0.42511 0.0
C1543 C 0.83142 0.73078 0.43594 0.0
C1544 C 0.8485 0.76827 0.40282 0.0
C1545 C 0.8694 0.74914 0.39122 0.0
C1546 C 0.87043 0.72047 0.40179 0.0
C1547 C 0.85152 0.71134 0.42367 0.0
H1548 H 0.75155 0.41462 0.80692 0.0
H1549 H 0.70945 0.46693 0.87257 0.0
H1550 H 0.76241 0.37756 0.8436 0.0
H1551 H 0.72066 0.43011 0.90908 0.0
H1552 H 0.78206 0.37506 0.96776 0.0
H1553 H 0.76935 0.41066 0.93059 0.0
H1554 H 0.732 0.34263 0.87793 0.0
H1555 H 0.74436 0.30679 0.91541 0.0
C1556 C 0.74473 0.41824 0.82915 0.0
C1557 C 0.72977 0.44371 0.83691 0.0
C1558 C 0.75075 0.39698 0.85003 0.0
C1559 C 0.74236 0.40109 0.87907 0.0
C1560 C 0.72747 0.42655 0.88683 0.0
C1561 C 0.72101 0.44754 0.86592 0.0
C1562 C 0.77106 0.36766 0.94831 0.0
C1563 C 0.76413 0.33815 0.9445 0.0
C1564 C 0.76371 0.38806 0.92713 0.0
C1565 C 0.74974 0.37931 0.90149 0.0
C1566 C 0.74291 0.34982 0.89751 0.0
C1567 C 0.7498 0.32942 0.91898 0.0
H1568 H 0.16124 0.68782 0.58179 0.0
H1569 H 0.17298 0.77744 0.55599 0.0
H1570 H 0.12635 0.70286 0.61842 0.0
H1571 H 0.13849 0.79255 0.59328 0.0
H1572 H 0.04823 0.80287 0.63438 0.0
H1573 H 0.08657 0.78915 0.6008 0.0
H1574 H 0.12029 0.72838 0.66396 0.0
H1575 H 0.08141 0.74164 0.69747 0.0
C1576 C 0.15665 0.7108 0.58413 0.0
C1577 C 0.16971 0.7314 0.56568 0.0
C1578 C 0.13675 0.71943 0.60532 0.0
C1579 C 0.12946 0.74889 0.60868 0.0
C1580 C 0.14326 0.76962 0.59092 0.0
C1581 C 0.16317 0.76097 0.56966 0.0
C1582 C 0.06377 0.78655 0.64117 0.0
C1583 C 0.06158 0.77321 0.66858 0.0
C1584 C 0.08595 0.77888 0.62197 0.0
C1585 C 0.10659 0.75774 0.6297 0.0
C1586 C 0.10455 0.74452 0.6572 0.0
C1587 C 0.0823 0.75216 0.67643 0.0
H1588 H 0.71361 0.5361 0.12947 0.0
H1589 H 0.75403 0.58853 0.19606 0.0
H1590 H 0.72558 0.57292 0.09321 0.0
H1591 H 0.76565 0.62565 0.15959 0.0
H1592 H 0.74899 0.69669 0.08731 0.0
H1593 H 0.73627 0.66077 0.12467 0.0
H1594 H 0.77398 0.59281 0.07223 0.0
H1595 H 0.78705 0.62847 0.03525 0.0
C1596 C 0.72502 0.5555 0.13638 0.0
C1597 C 0.73302 0.55933 0.16563 0.0
C1598 C 0.73191 0.57653 0.11559 0.0
C1599 C 0.74649 0.60211 0.12363 0.0
C1600 C 0.75422 0.60618 0.15289 0.0
C1601 C 0.74779 0.58486 0.17366 0.0
C1602 C 0.75442 0.67405 0.08375 0.0
C1603 C 0.76897 0.6654 0.05833 0.0
C1604 C 0.74734 0.65359 0.10519 0.0
C1605 C 0.75416 0.62406 0.10128 0.0
C1606 C 0.76833 0.61541 0.07571 0.0
C1607 C 0.77588 0.63586 0.0546 0.0
H1608 H 0.86028 0.30762 0.55852 0.0
H1609 H 0.81881 0.22379 0.56716 0.0
H1610 H 0.89468 0.2946 0.59662 0.0
H1611 H 0.85357 0.21071 0.60533 0.0
H1612 H 0.94584 0.18945 0.64338 0.0
H1613 H 0.90852 0.20171 0.6077 0.0
H1614 H 0.89406 0.28372 0.65087 0.0
H1615 H 0.9313 0.27147 0.68675 0.0
C1616 C 0.85853 0.28637 0.56851 0.0
C1617 C 0.83691 0.26665 0.55967 0.0
C1618 C 0.87811 0.27903 0.5905 0.0
C1619 C 0.87679 0.25166 0.60394 0.0
C1620 C 0.85517 0.2319 0.5952 0.0
C1621 C 0.83524 0.23942 0.57345 0.0
C1622 C 0.9347 0.21011 0.64529 0.0
C1623 C 0.9417 0.2296 0.66779 0.0
C1624 C 0.91317 0.21699 0.62499 0.0
C1625 C 0.89843 0.24367 0.62649 0.0
C1626 C 0.90524 0.26308 0.64908 0.0
C1627 C 0.92649 0.25603 0.66966 0.0
H1628 H 0.23047 0.42817 0.1878 0.0
H1629 H 0.31187 0.44515 0.14415 0.0
H1630 H 0.21929 0.39049 0.15215 0.0
H1631 H 0.30061 0.4073 0.1086 0.0
H1632 H 0.27909 0.31716 0.06739 0.0
H1633 H 0.29222 0.35156 0.10598 0.0
H1634 H 0.20832 0.39266 0.09782 0.0
H1635 H 0.19529 0.35873 0.0594 0.0
C1636 C 0.24605 0.42376 0.17072 0.0
C1637 C 0.27193 0.43985 0.16863 0.0
C1638 C 0.2396 0.40225 0.1503 0.0
C1639 C 0.25907 0.39607 0.12762 0.0
C1640 C 0.28533 0.41151 0.12599 0.0
C1641 C 0.29162 0.43332 0.14619 0.0
C1642 C 0.26348 0.33351 0.07394 0.0
C1643 C 0.23625 0.33538 0.06024 0.0
C1644 C 0.27102 0.35321 0.09589 0.0
C1645 C 0.25124 0.37469 0.10487 0.0
C1646 C 0.22388 0.37617 0.09151 0.0
C1647 C 0.21654 0.35686 0.06934 0.0
H1648 H 0.36017 0.06201 0.19018 0.0
H1649 H 0.31693 0.07176 0.27294 0.0
H1650 H 0.39403 0.10066 0.20324 0.0
H1651 H 0.3511 0.11041 0.28604 0.0
H1652 H 0.44381 0.145 0.30961 0.0
H1653 H 0.4058 0.11071 0.29608 0.0
H1654 H 0.39435 0.15546 0.21442 0.0
H1655 H 0.43244 0.19016 0.22805 0.0
C1656 C 0.35788 0.07243 0.21116 0.0
C1657 C 0.33605 0.06363 0.23066 0.0
C1658 C 0.37711 0.09473 0.21849 0.0
C1659 C 0.37519 0.10848 0.24564 0.0
C1660 C 0.35314 0.10002 0.26502 0.0
C1661 C 0.33357 0.07797 0.2575 0.0
C1662 C 0.4332 0.14758 0.28875 0.0
C1663 C 0.44131 0.17013 0.26976 0.0
C1664 C 0.41125 0.1281 0.28115 0.0
C1665 C 0.39713 0.13045 0.25423 0.0
C1666 C 0.40502 0.1531 0.23526 0.0
C1667 C 0.42673 0.17296 0.24308 0.0
H1668 H 0.31508 0.93262 0.73096 0.0
H1669 H 0.35724 0.93341 0.81483 0.0
H1670 H 0.34742 0.89366 0.71523 0.0
H1671 H 0.39041 0.89583 0.79881 0.0
H1672 H 0.43589 0.81437 0.77021 0.0
H1673 H 0.3974 0.84706 0.78653 0.0
H1674 H 0.39568 0.88716 0.70151 0.0
H1675 H 0.4327 0.85375 0.68502 0.0
C1676 C 0.33135 0.92457 0.74595 0.0
C1677 C 0.33371 0.93618 0.77403 0.0
C1678 C 0.34999 0.90233 0.73695 0.0
C1679 C 0.37174 0.89162 0.75567 0.0
C1680 C 0.37368 0.90303 0.78392 0.0
C1681 C 0.35476 0.92485 0.79305 0.0
C1682 C 0.42707 0.83008 0.75505 0.0
C1683 C 0.43739 0.83152 0.7264 0.0
C1684 C 0.40511 0.84892 0.76438 0.0
C1685 C 0.39338 0.8699 0.74537 0.0
C1686 C 0.40362 0.87099 0.71664 0.0
C1687 C 0.42513 0.85192 0.70723 0.0
H1688 H 0.64869 0.93224 0.18918 0.0
H1689 H 0.68811 0.93296 0.27436 0.0
H1690 H 0.61562 0.89429 0.20452 0.0
H1691 H 0.65596 0.89357 0.28944 0.0
H1692 H 0.57053 0.85245 0.31761 0.0
H1693 H 0.6077 0.88609 0.30194 0.0
H1694 H 0.60828 0.84581 0.217 0.0
H1695 H 0.56959 0.81293 0.23247 0.0
C1696 C 0.65063 0.92391 0.21112 0.0
C1697 C 0.67086 0.93581 0.23068 0.0
C1698 C 0.63175 0.90187 0.21987 0.0
C1699 C 0.63291 0.89074 0.24829 0.0
C1700 C 0.65392 0.90198 0.26756 0.0
C1701 C 0.67249 0.92447 0.25893 0.0
C1702 C 0.57865 0.85061 0.2956 0.0
C1703 C 0.56694 0.83011 0.2762 0.0
C1704 C 0.60026 0.86984 0.28665 0.0
C1705 C 0.6112 0.86881 0.25816 0.0
C1706 C 0.60005 0.84768 0.23895 0.0
C1707 C 0.57797 0.8287 0.24781 0.0
H1708 H 0.69662 0.08285 0.73958 0.0
H1709 H 0.63232 0.048 0.79852 0.0
H1710 H 0.66389 0.12274 0.72754 0.0
H1711 H 0.59944 0.08742 0.78595 0.0
H1712 H 0.55541 0.17475 0.77613 0.0
H1713 H 0.59205 0.13931 0.79091 0.0
H1714 H 0.61917 0.13018 0.7015 0.0
H1715 H 0.58331 0.16596 0.68686 0.0
C1716 C 0.67546 0.08358 0.74985 0.0
C1717 C 0.66704 0.06208 0.76986 0.0
C1718 C 0.65668 0.10643 0.74291 0.0
C1719 C 0.62902 0.1083 0.75579 0.0
C1720 C 0.62073 0.08692 0.77597 0.0
C1721 C 0.63952 0.06413 0.78296 0.0
C1722 C 0.56943 0.16542 0.7597 0.0
C1723 C 0.56622 0.17304 0.73029 0.0
C1724 C 0.59029 0.14496 0.76813 0.0
C1725 C 0.6084 0.13171 0.74735 0.0
C1726 C 0.60581 0.14011 0.71812 0.0
C1727 C 0.58504 0.16053 0.70971 0.0
H1728 H 0.87322 0.7051 0.547 0.0
H1729 H 0.80892 0.76432 0.58137 0.0
H1730 H 0.90618 0.71814 0.5863 0.0
H1731 H 0.8416 0.77675 0.62104 0.0
H1732 H 0.92119 0.81798 0.66443 0.0
H1733 H 0.88612 0.80297 0.6281 0.0
H1734 H 0.91331 0.71366 0.63845 0.0
H1735 H 0.94923 0.72883 0.67447 0.0
C1736 C 0.86607 0.72084 0.56297 0.0
C1737 C 0.83853 0.73387 0.56086 0.0
C1738 C 0.88488 0.72809 0.58567 0.0
C1739 C 0.87652 0.74846 0.60684 0.0
C1740 C 0.84887 0.76128 0.60487 0.0
C1741 C 0.83012 0.75412 0.58212 0.0
C1742 C 0.91965 0.79508 0.65916 0.0
C1743 C 0.93825 0.77463 0.67222 0.0
C1744 C 0.89935 0.78646 0.63841 0.0
C1745 C 0.89698 0.75714 0.63025 0.0
C1746 C 0.91492 0.7365 0.64394 0.0
C1747 C 0.93534 0.74515 0.66474 0.0
H1748 H 0.80896 0.32797 0.08983 0.0
H1749 H 0.72302 0.33771 0.05327 0.0
H1750 H 0.7963 0.36129 0.12884 0.0
H1751 H 0.71055 0.37168 0.09201 0.0
H1752 H 0.68907 0.41457 0.1775 0.0
H1753 H 0.70167 0.37619 0.14341 0.0
H1754 H 0.78776 0.4126 0.13446 0.0
H1755 H 0.77536 0.45067 0.16916 0.0
C1756 C 0.78732 0.33724 0.09012 0.0
C1757 C 0.76705 0.33041 0.06828 0.0
C1758 C 0.78014 0.35645 0.11244 0.0
C1759 C 0.75253 0.3694 0.11342 0.0
C1760 C 0.73194 0.36187 0.09207 0.0
C1761 C 0.73909 0.34249 0.06979 0.0
C1762 C 0.71078 0.41428 0.16843 0.0
C1763 C 0.73117 0.43583 0.17586 0.0
C1764 C 0.71793 0.39235 0.14876 0.0
C1765 C 0.74561 0.39146 0.13596 0.0
C1766 C 0.76632 0.41246 0.14412 0.0
C1767 C 0.7592 0.43436 0.16394 0.0
H1768 H 0.08438 0.18986 0.6703 0.0
H1769 H 0.05141 0.27783 0.67254 0.0
H1770 H 0.1195 0.20375 0.6338 0.0
H1771 H 0.08766 0.29209 0.63635 0.0
H1772 H 0.12969 0.29527 0.54512 0.0
H1773 H 0.09683 0.28473 0.58526 0.0
H1774 H 0.16253 0.23044 0.62473 0.0
H1775 H 0.19497 0.24018 0.58415 0.0
C1776 C 0.08486 0.21234 0.6633 0.0
C1777 C 0.06481 0.23268 0.67419 0.0
C1778 C 0.10527 0.22037 0.64244 0.0
C1779 C 0.10641 0.24903 0.632 0.0
C1780 C 0.08706 0.26971 0.64361 0.0
C1781 C 0.06646 0.26162 0.66452 0.0
C1782 C 0.13709 0.28102 0.56234 0.0
C1783 C 0.16483 0.26826 0.56123 0.0
C1784 C 0.11834 0.27522 0.58553 0.0
C1785 C 0.12698 0.25671 0.60826 0.0
C1786 C 0.15494 0.2444 0.60736 0.0
C1787 C 0.17358 0.24999 0.58408 0.0
H1788 H 0.22973 0.5375 0.15376 0.0
H1789 H 0.29757 0.59423 0.1849 0.0
H1790 H 0.21706 0.573 0.11655 0.0
H1791 H 0.28391 0.63062 0.14907 0.0
H1792 H 0.27672 0.67528 0.06175 0.0
H1793 H 0.28761 0.64045 0.10006 0.0
H1794 H 0.19659 0.61736 0.10475 0.0
H1795 H 0.18625 0.65091 0.06521 0.0
C1796 C 0.24144 0.55791 0.15304 0.0
C1797 C 0.26471 0.56309 0.17204 0.0
C1798 C 0.23417 0.57838 0.13176 0.0
C1799 C 0.24961 0.60476 0.12943 0.0
C1800 C 0.27203 0.61032 0.14949 0.0
C1801 C 0.2797 0.5896 0.17028 0.0
C1802 C 0.25912 0.66265 0.07097 0.0
C1803 C 0.23071 0.66561 0.06036 0.0
C1804 C 0.26526 0.64282 0.09316 0.0
C1805 C 0.24299 0.62598 0.10578 0.0
C1806 C 0.21446 0.62937 0.0953 0.0
C1807 C 0.20846 0.64873 0.07268 0.0
H1808 H 0.84181 0.31322 0.42047 0.0
H1809 H 0.83113 0.22325 0.44549 0.0
H1810 H 0.87775 0.2991 0.38461 0.0
H1811 H 0.86675 0.20901 0.40883 0.0
H1812 H 0.95727 0.20046 0.36704 0.0
H1813 H 0.91873 0.21299 0.40104 0.0
H1814 H 0.88403 0.27443 0.33906 0.0
H1815 H 0.92296 0.26246 0.30532 0.0
C1816 C 0.84688 0.29035 0.41813 0.0
C1817 C 0.8337 0.26938 0.43607 0.0
C1818 C 0.8674 0.28224 0.39737 0.0
C1819 C 0.87523 0.25293 0.39388 0.0
C1820 C 0.86152 0.23183 0.41127 0.0
C1821 C 0.84095 0.23996 0.43213 0.0
C1822 C 0.94147 0.2167 0.36067 0.0
C1823 C 0.94339 0.23064 0.33353 0.0
C1824 C 0.9192 0.22369 0.38008 0.0
C1825 C 0.89826 0.24469 0.37278 0.0
C1826 C 0.90004 0.25844 0.34554 0.0
C1827 C 0.92235 0.25153 0.32617 0.0
H1828 H 0.27985 0.33082 0.94571 0.0
H1829 H 0.1903 0.33984 0.91882 0.0
H1830 H 0.29436 0.36549 0.90819 0.0
H1831 H 0.20467 0.37483 0.88211 0.0
H1832 H 0.30151 0.45645 0.86703 0.0
H1833 H 0.28942 0.41729 0.90029 0.0
H1834 H 0.23017 0.38154 0.83685 0.0
H1835 H 0.24177 0.42127 0.80364 0.0
C1836 C 0.2633 0.34005 0.93175 0.0
C1837 C 0.2339 0.33275 0.93551 0.0
C1838 C 0.27158 0.36005 0.91037 0.0
C1839 C 0.25064 0.3731 0.89227 0.0
C1840 C 0.22141 0.36501 0.89543 0.0
C1841 C 0.21315 0.34507 0.91672 0.0
C1842 C 0.28587 0.44028 0.8601 0.0
C1843 C 0.2724 0.44219 0.83272 0.0
C1844 C 0.27917 0.41762 0.87911 0.0
C1845 C 0.25889 0.39621 0.87124 0.0
C1846 C 0.24565 0.39788 0.84372 0.0
C1847 C 0.25231 0.42063 0.82467 0.0
H1848 H 0.18354 0.77465 0.4322 0.0
H1849 H 0.13776 0.6936 0.44503 0.0
H1850 H 0.1489 0.78809 0.39425 0.0
H1851 H 0.10329 0.70709 0.40703 0.0
H1852 H 0.0655 0.73107 0.31671 0.0
H1853 H 0.10274 0.71671 0.35199 0.0
H1854 H 0.09495 0.80017 0.39416 0.0
H1855 H 0.05786 0.81447 0.35924 0.0
C1856 C 0.16615 0.75969 0.42689 0.0
C1857 C 0.16324 0.73318 0.44179 0.0
C1858 C 0.14632 0.76742 0.40523 0.0
C1859 C 0.12346 0.74861 0.39775 0.0
C1860 C 0.12086 0.72187 0.41222 0.0
C1861 C 0.14044 0.7143 0.43414 0.0
C1862 C 0.07183 0.74633 0.33346 0.0
C1863 C 0.05861 0.7738 0.33534 0.0
C1864 C 0.09302 0.73809 0.35368 0.0
C1865 C 0.10168 0.75736 0.37575 0.0
C1866 C 0.08885 0.78498 0.37723 0.0
C1867 C 0.06745 0.79305 0.35736 0.0
H1868 H 0.68858 0.57064 0.84926 0.0
H1869 H 0.77585 0.56812 0.81499 0.0
H1870 H 0.70293 0.60764 0.88383 0.0
H1871 H 0.79004 0.60662 0.84858 0.0
H1872 H 0.81457 0.64879 0.93445 0.0
H1873 H 0.80019 0.61466 0.8971 0.0
H1874 H 0.71569 0.65556 0.89239 0.0
H1875 H 0.72977 0.6888 0.93128 0.0
C1876 C 0.7108 0.57837 0.84879 0.0
C1877 C 0.73116 0.5663 0.82948 0.0
C1878 C 0.71901 0.59987 0.86855 0.0
C1879 C 0.74771 0.61033 0.86921 0.0
C1880 C 0.76789 0.59876 0.84925 0.0
C1881 C 0.75977 0.57679 0.82982 0.0
C1882 C 0.79292 0.6506 0.92539 0.0
C1883 C 0.77323 0.67145 0.93594 0.0
C1884 C 0.78471 0.6311 0.90368 0.0
C1885 C 0.75674 0.63219 0.89147 0.0
C1886 C 0.73724 0.65357 0.90159 0.0
C1887 C 0.74531 0.67279 0.92378 0.0
H1888 H 0.5821 0.80633 0.7562 0.0
H1889 H 0.54749 0.87076 0.69721 0.0
H1890 H 0.62115 0.83956 0.76943 0.0
H1891 H 0.58611 0.90416 0.71096 0.0
H1892 H 0.67305 0.9489 0.72325 0.0
H1893 H 0.63811 0.91228 0.7073 0.0
H1894 H 0.62697 0.8842 0.79621 0.0
H1895 H 0.66224 0.92009 0.81203 0.0
C1896 C 0.58271 0.82762 0.74615 0.0
C1897 C 0.56151 0.83593 0.7258 0.0
C1898 C 0.60508 0.84669 0.75379 0.0
C1899 C 0.60675 0.87454 0.74129 0.0
C1900 C 0.58572 0.88273 0.7207 0.0
C1901 C 0.5634 0.86364 0.71302 0.0
C1902 C 0.66335 0.93471 0.73934 0.0
C1903 C 0.67032 0.9376 0.76894 0.0
C1904 C 0.64318 0.91386 0.73023 0.0
C1905 C 0.6296 0.89542 0.7505 0.0
C1906 C 0.63723 0.8978 0.77996 0.0
C1907 C 0.65734 0.91858 0.78906 0.0
H1908 H 0.59493 0.18478 0.30408 0.0
H1909 H 0.53903 0.15927 0.23333 0.0
H1910 H 0.63051 0.14856 0.28928 0.0
H1911 H 0.57335 0.1215 0.21962 0.0
H1912 H 0.64842 0.06712 0.18816 0.0
H1913 H 0.6165 0.10765 0.19962 0.0
H1914 H 0.63996 0.09988 0.29041 0.0
H1915 H 0.67346 0.06082 0.27825 0.0
C1916 C 0.59034 0.17135 0.28529 0.0
C1917 C 0.56433 0.17486 0.26978 0.0
C1918 C 0.61055 0.15026 0.27697 0.0
C1919 C 0.60487 0.13152 0.25342 0.0
C1920 C 0.57897 0.13563 0.23755 0.0
C1921 C 0.55913 0.15728 0.24543 0.0
C1922 C 0.64665 0.07416 0.21056 0.0
C1923 C 0.66329 0.06078 0.23235 0.0
C1924 C 0.6282 0.09736 0.21723 0.0
C1925 C 0.62534 0.10732 0.24604 0.0
C1926 C 0.64191 0.09353 0.26786 0.0
C1927 C 0.66094 0.07085 0.26101 0.0
H1928 H 0.31806 0.06893 0.72895 0.0
H1929 H 0.36165 0.05971 0.81161 0.0
H1930 H 0.35221 0.10755 0.71548 0.0
H1931 H 0.39544 0.09819 0.7982 0.0
H1932 H 0.43342 0.18748 0.77431 0.0
H1933 H 0.39554 0.15249 0.78752 0.0
H1934 H 0.40663 0.10921 0.70505 0.0
H1935 H 0.44443 0.1439 0.69188 0.0
C1936 C 0.3348 0.07521 0.74426 0.0
C1937 C 0.33733 0.06107 0.77121 0.0
C1938 C 0.35436 0.09723 0.73653 0.0
C1939 C 0.37645 0.10586 0.75582 0.0
C1940 C 0.3785 0.09218 0.783 0.0
C1941 C 0.35929 0.06995 0.79054 0.0
C1942 C 0.42769 0.17056 0.75899 0.0
C1943 C 0.44214 0.16828 0.73219 0.0
C1944 C 0.40608 0.15051 0.76657 0.0
C1945 C 0.39816 0.12814 0.74729 0.0
C1946 C 0.4121 0.12635 0.72023 0.0
C1947 C 0.43395 0.14607 0.71284 0.0
H1948 H 0.42146 0.80663 0.24514 0.0
H1949 H 0.45764 0.87076 0.30347 0.0
H1950 H 0.38255 0.84024 0.23249 0.0
H1951 H 0.4192 0.90456 0.29025 0.0
H1952 H 0.33287 0.95094 0.27845 0.0
H1953 H 0.36757 0.91396 0.29437 0.0
H1954 H 0.3767 0.88451 0.20569 0.0
H1955 H 0.34172 0.92059 0.18999 0.0
C1956 C 0.42124 0.82795 0.25513 0.0
C1957 C 0.44284 0.83605 0.27514 0.0
C1958 C 0.39894 0.84725 0.24784 0.0
C1959 C 0.39775 0.87516 0.26031 0.0
C1960 C 0.41919 0.88312 0.28055 0.0
C1961 C 0.44142 0.8638 0.28791 0.0
C1962 C 0.34208 0.93636 0.26244 0.0
C1963 C 0.33465 0.93893 0.23293 0.0
C1964 C 0.36211 0.9153 0.27151 0.0
C1965 C 0.37505 0.89634 0.25128 0.0
C1966 C 0.36696 0.89847 0.22193 0.0
C1967 C 0.34701 0.91941 0.2129 0.0
loop_
_geom_bond_atom_site_label_1
_geom_bond_atom_site_label_2
_geom_bond_distance
_geom_bond_site_symmetry_2
_ccdc_geom_bond_type
Fe0 O2 1.918 1_455 S
Fe0 O5 2.011 . S
Fe0 O6 2.018 . S
Fe0 O11 1.961 1_455 S
Fe0 O14 1.981 1_455 S
Fe1 O2 1.918 1_455 S
Fe1 O9 2.010 . S
Fe1 O12 1.982 1_455 S
Fe1 O16 1.962 1_455 S
Fe1 O19 2.016 . S
O2 Fe0 1.918 1_655 S
O2 Fe1 1.918 1_655 S
O2 Fe3 1.918 1_655 S
Fe3 O2 1.918 1_455 S
Fe3 O4 2.016 . S
Fe3 O13 1.962 1_455 S
Fe3 O17 1.983 1_455 S
Fe3 O20 2.010 . S
O4 Fe3 2.016 . S
O4 C21 1.295 . S
O5 Fe0 2.011 . S
O5 C21 1.235 . S
O6 Fe0 2.018 . S
O6 C7 1.295 . S
C7 O6 1.295 . S
C7 O9 1.235 . S
C8 O13 1.287 . S
C8 O14 1.255 . S
O9 Fe1 2.010 . S
O9 C7 1.235 . S
C10 O16 1.287 . S
C10 O17 1.255 . S
O11 Fe0 1.961 1_655 S
O11 C18 1.287 . S
O12 Fe1 1.982 1_655 S
O12 C18 1.255 . S
O13 Fe3 1.962 1_655 S
O13 C8 1.287 . S
O14 Fe0 1.981 1_655 S
O14 C8 1.255 . S
C15 O19 1.295 . S
C15 O20 1.235 . S
O16 Fe1 1.962 1_655 S
O16 C10 1.287 . S
O17 Fe3 1.983 1_655 S
O17 C10 1.255 . S
C18 O11 1.287 . S
C18 O12 1.255 . S
O19 Fe1 2.016 . S
O19 C15 1.295 . S
O20 Fe3 2.010 . S
O20 C15 1.235 . S
C21 O4 1.295 . S
C21 O5 1.235 . S
Fe22 O24 1.918 . S
Fe22 O27 1.997 . S
Fe22 O28 2.002 . S
Fe22 O33 1.976 . S
Fe22 O36 1.996 . S
Fe23 O24 1.918 . S
Fe23 O31 1.997 . S
Fe23 O34 1.996 . S
Fe23 O38 1.976 . S
Fe23 O41 2.002 . S
O24 Fe22 1.918 . S
O24 Fe23 1.918 . S
O24 Fe25 1.918 . S
Fe25 O24 1.918 . S
Fe25 O26 2.002 . S
Fe25 O35 1.976 . S
Fe25 O39 1.996 . S
Fe25 O42 1.997 . S
O26 Fe25 2.002 . S
O26 C43 1.295 . S
O27 Fe22 1.997 . S
O27 C43 1.235 . S
O28 Fe22 2.002 . S
O28 C29 1.295 . S
C29 O28 1.295 . S
C29 O31 1.235 . S
C30 O35 1.287 . S
C30 O36 1.255 . S
O31 Fe23 1.997 . S
O31 C29 1.235 . S
C32 O38 1.287 . S
C32 O39 1.255 . S
O33 Fe22 1.976 . S
O33 C40 1.287 . S
O34 Fe23 1.996 . S
O34 C40 1.255 . S
O35 Fe25 1.976 . S
O35 C30 1.287 . S
O36 Fe22 1.996 . S
O36 C30 1.255 . S
C37 O41 1.295 . S
C37 O42 1.235 . S
O38 Fe23 1.976 . S
O38 C32 1.287 . S
O39 Fe25 1.996 . S
O39 C32 1.255 . S
C40 O33 1.287 . S
C40 O34 1.255 . S
O41 Fe23 2.002 . S
O41 C37 1.295 . S
O42 Fe25 1.997 . S
O42 C37 1.235 . S
C43 O26 1.295 . S
C43 O27 1.235 . S
Fe44 O46 1.918 . S
Fe44 O49 1.997 1_455 S
Fe44 O50 2.002 1_455 S
Fe44 O55 1.976 . S
Fe44 O58 1.996 . S
Fe45 O46 1.918 . S
Fe45 O53 1.997 1_455 S
Fe45 O56 1.996 . S
Fe45 O60 1.976 . S
Fe45 O63 2.002 1_455 S
O46 Fe44 1.918 . S
O46 Fe45 1.918 . S
O46 Fe47 1.918 . S
Fe47 O46 1.918 . S
Fe47 O48 2.002 1_455 S
Fe47 O57 1.976 . S
Fe47 O61 1.996 . S
Fe47 O64 1.997 1_455 S
O48 Fe47 2.002 1_655 S
O48 C65 1.295 . S
O49 Fe44 1.997 1_655 S
O49 C65 1.235 . S
O50 Fe44 2.002 1_655 S
O50 C51 1.295 . S
C51 O50 1.295 . S
C51 O53 1.235 . S
C52 O57 1.287 . S
C52 O58 1.255 . S
O53 Fe45 1.997 1_655 S
O53 C51 1.235 . S
C54 O60 1.287 . S
C54 O61 1.255 . S
O55 Fe44 1.976 . S
O55 C62 1.287 . S
O56 Fe45 1.996 . S
O56 C62 1.255 . S
O57 Fe47 1.976 . S
O57 C52 1.287 . S
O58 Fe44 1.996 . S
O58 C52 1.255 . S
C59 O63 1.295 . S
C59 O64 1.235 . S
O60 Fe45 1.976 . S
O60 C54 1.287 . S
O61 Fe47 1.996 . S
O61 C54 1.255 . S
C62 O55 1.287 . S
C62 O56 1.255 . S
O63 Fe45 2.002 1_655 S
O63 C59 1.295 . S
O64 Fe47 1.997 1_655 S
O64 C59 1.235 . S
C65 O48 1.295 . S
C65 O49 1.235 . S
Fe66 O68 1.918 . S
Fe66 O71 1.997 . S
Fe66 O72 2.002 . S
Fe66 O77 1.976 . S
Fe66 O80 1.996 . S
Fe67 O68 1.918 . S
Fe67 O75 1.997 . S
Fe67 O78 1.996 . S
Fe67 O82 1.976 . S
Fe67 O85 2.002 . S
O68 Fe66 1.918 . S
O68 Fe67 1.918 . S
O68 Fe69 1.918 . S
Fe69 O68 1.918 . S
Fe69 O70 2.002 . S
Fe69 O79 1.976 . S
Fe69 O83 1.996 . S
Fe69 O86 1.997 . S
O70 Fe69 2.002 . S
O70 C87 1.295 . S
O71 Fe66 1.997 . S
O71 C87 1.235 . S
O72 Fe66 2.002 . S
O72 C73 1.295 . S
C73 O72 1.295 . S
C73 O75 1.235 . S
C74 O79 1.287 . S
C74 O80 1.255 . S
O75 Fe67 1.997 . S
O75 C73 1.235 . S
C76 O82 1.287 . S
C76 O83 1.255 . S
O77 Fe66 1.976 . S
O77 C84 1.287 . S
O78 Fe67 1.996 . S
O78 C84 1.255 . S
O79 Fe69 1.976 . S
O79 C74 1.287 . S
O80 Fe66 1.996 . S
O80 C74 1.255 . S
C81 O85 1.295 . S
C81 O86 1.235 . S
O82 Fe67 1.976 . S
O82 C76 1.287 . S
O83 Fe69 1.996 . S
O83 C76 1.255 . S
C84 O77 1.287 . S
C84 O78 1.255 . S
O85 Fe67 2.002 . S
O85 C81 1.295 . S
O86 Fe69 1.997 . S
O86 C81 1.235 . S
C87 O70 1.295 . S
C87 O71 1.235 . S
Fe88 O90 1.919 . S
Fe88 O93 1.997 . S
Fe88 O94 2.002 . S
Fe88 O99 1.976 1_455 S
Fe88 O102 1.996 1_455 S
Fe89 O90 1.919 . S
Fe89 O97 1.997 . S
Fe89 O100 1.996 1_455 S
Fe89 O104 1.976 1_455 S
Fe89 O107 2.002 . S
O90 Fe88 1.919 . S
O90 Fe89 1.919 . S
O90 Fe91 1.919 . S
Fe91 O90 1.919 . S
Fe91 O92 2.002 . S
Fe91 O101 1.976 1_455 S
Fe91 O105 1.996 1_455 S
Fe91 O108 1.997 . S
O92 Fe91 2.002 . S
O92 C109 1.295 . S
O93 Fe88 1.997 . S
O93 C109 1.235 . S
O94 Fe88 2.002 . S
O94 C95 1.295 . S
C95 O94 1.295 . S
C95 O97 1.235 . S
C96 O101 1.287 . S
C96 O102 1.255 . S
O97 Fe89 1.997 . S
O97 C95 1.235 . S
C98 O104 1.287 . S
C98 O105 1.255 . S
O99 Fe88 1.976 1_655 S
O99 C106 1.287 . S
O100 Fe89 1.996 1_655 S
O100 C106 1.255 . S
O101 Fe91 1.976 1_655 S
O101 C96 1.287 . S
O102 Fe88 1.996 1_655 S
O102 C96 1.255 . S
C103 O107 1.295 . S
C103 O108 1.235 . S
O104 Fe89 1.976 1_655 S
O104 C98 1.287 . S
O105 Fe91 1.996 1_655 S
O105 C98 1.255 . S
C106 O99 1.287 . S
C106 O100 1.255 . S
O107 Fe89 2.002 . S
O107 C103 1.295 . S
O108 Fe91 1.997 . S
O108 C103 1.235 . S
C109 O92 1.295 . S
C109 O93 1.235 . S
Fe110 O112 1.918 . S
Fe110 O115 1.997 . S
Fe110 O116 2.002 . S
Fe110 O121 1.976 . S
Fe110 O124 1.996 . S
Fe111 O112 1.918 . S
Fe111 O119 1.997 . S
Fe111 O122 1.996 . S
Fe111 O126 1.976 . S
Fe111 O129 2.002 . S
O112 Fe110 1.918 . S
O112 Fe111 1.918 . S
O112 Fe113 1.918 . S
Fe113 O112 1.918 . S
Fe113 O114 2.002 . S
Fe113 O123 1.976 . S
Fe113 O127 1.996 . S
Fe113 O130 1.997 . S
O114 Fe113 2.002 . S
O114 C131 1.295 . S
O115 Fe110 1.997 . S
O115 C131 1.235 . S
O116 Fe110 2.002 . S
O116 C117 1.295 . S
C117 O116 1.295 . S
C117 O119 1.235 . S
C118 O123 1.287 . S
C118 O124 1.255 . S
O119 Fe111 1.997 . S
O119 C117 1.235 . S
C120 O126 1.287 . S
C120 O127 1.255 . S
O121 Fe110 1.976 . S
O121 C128 1.287 . S
O122 Fe111 1.996 . S
O122 C128 1.255 . S
O123 Fe113 1.976 . S
O123 C118 1.287 . S
O124 Fe110 1.996 . S
O124 C118 1.255 . S
C125 O129 1.295 . S
C125 O130 1.235 . S
O126 Fe111 1.976 . S
O126 C120 1.287 . S
O127 Fe113 1.996 . S
O127 C120 1.255 . S
C128 O121 1.287 . S
C128 O122 1.255 . S
O129 Fe111 2.002 . S
O129 C125 1.295 . S
O130 Fe113 1.997 . S
O130 C125 1.235 . S
C131 O114 1.295 . S
C131 O115 1.235 . S
Fe132 O134 1.918 . S
Fe132 O137 1.997 1_455 S
Fe132 O138 2.002 1_455 S
Fe132 O143 1.976 . S
Fe132 O146 1.996 . S
Fe133 O134 1.918 . S
Fe133 O141 1.997 1_455 S
Fe133 O144 1.996 . S
Fe133 O148 1.976 . S
Fe133 O151 2.002 1_455 S
O134 Fe132 1.918 . S
O134 Fe133 1.918 . S
O134 Fe135 1.918 . S
Fe135 O134 1.918 . S
Fe135 O136 2.002 1_455 S
Fe135 O145 1.976 . S
Fe135 O149 1.996 . S
Fe135 O152 1.997 1_455 S
O136 Fe135 2.002 1_655 S
O136 C153 1.295 . S
O137 Fe132 1.997 1_655 S
O137 C153 1.235 . S
O138 Fe132 2.002 1_655 S
O138 C139 1.295 . S
C139 O138 1.295 . S
C139 O141 1.235 . S
C140 O145 1.287 . S
C140 O146 1.255 . S
O141 Fe133 1.997 1_655 S
O141 C139 1.235 . S
C142 O148 1.287 . S
C142 O149 1.255 . S
O143 Fe132 1.976 . S
O143 C150 1.287 . S
O144 Fe133 1.996 . S
O144 C150 1.255 . S
O145 Fe135 1.976 . S
O145 C140 1.287 . S
O146 Fe132 1.996 . S
O146 C140 1.255 . S
C147 O151 1.295 . S
C147 O152 1.235 . S
O148 Fe133 1.976 . S
O148 C142 1.287 . S
O149 Fe135 1.996 . S
O149 C142 1.255 . S
C150 O143 1.287 . S
C150 O144 1.255 . S
O151 Fe133 2.002 1_655 S
O151 C147 1.295 . S
O152 Fe135 1.997 1_655 S
O152 C147 1.235 . S
C153 O136 1.295 . S
C153 O137 1.235 . S
Fe154 O156 1.918 . S
Fe154 O159 1.997 . S
Fe154 O160 2.002 . S
Fe154 O165 1.976 . S
Fe154 O168 1.996 . S
Fe155 O156 1.918 . S
Fe155 O163 1.997 . S
Fe155 O166 1.996 . S
Fe155 O170 1.976 . S
Fe155 O173 2.002 . S
O156 Fe154 1.918 . S
O156 Fe155 1.918 . S
O156 Fe157 1.918 . S
Fe157 O156 1.918 . S
Fe157 O158 2.002 . S
Fe157 O167 1.976 . S
Fe157 O171 1.996 . S
Fe157 O174 1.997 . S
O158 Fe157 2.002 . S
O158 C175 1.295 . S
O159 Fe154 1.997 . S
O159 C175 1.235 . S
O160 Fe154 2.002 . S
O160 C161 1.295 . S
C161 O160 1.295 . S
C161 O163 1.235 . S
C162 O167 1.287 . S
C162 O168 1.255 . S
O163 Fe155 1.997 . S
O163 C161 1.235 . S
C164 O170 1.287 . S
C164 O171 1.255 . S
O165 Fe154 1.976 . S
O165 C172 1.287 . S
O166 Fe155 1.996 . S
O166 C172 1.255 . S
O167 Fe157 1.976 . S
O167 C162 1.287 . S
O168 Fe154 1.996 . S
O168 C162 1.255 . S
C169 O173 1.295 . S
C169 O174 1.235 . S
O170 Fe155 1.976 . S
O170 C164 1.287 . S
O171 Fe157 1.996 . S
O171 C164 1.255 . S
C172 O165 1.287 . S
C172 O166 1.255 . S
O173 Fe155 2.002 . S
O173 C169 1.295 . S
O174 Fe157 1.997 . S
O174 C169 1.235 . S
C175 O158 1.295 . S
C175 O159 1.235 . S
Fe176 O178 1.919 . S
Fe176 O181 1.997 . S
Fe176 O182 2.002 . S
Fe176 O187 1.976 1_545 S
Fe176 O190 1.996 1_545 S
Fe177 O178 1.919 . S
Fe177 O185 1.997 . S
Fe177 O188 1.996 1_545 S
Fe177 O192 1.976 1_545 S
Fe177 O195 2.002 . S
O178 Fe176 1.919 . S
O178 Fe177 1.919 . S
O178 Fe179 1.919 . S
Fe179 O178 1.919 . S
Fe179 O180 2.002 . S
Fe179 O189 1.976 1_545 S
Fe179 O193 1.996 1_545 S
Fe179 O196 1.997 . S
O180 Fe179 2.002 . S
O180 C197 1.295 . S
O181 Fe176 1.997 . S
O181 C197 1.235 . S
O182 Fe176 2.002 . S
O182 C183 1.295 . S
C183 O182 1.295 . S
C183 O185 1.235 . S
C184 O189 1.287 . S
C184 O190 1.255 . S
O185 Fe177 1.997 . S
O185 C183 1.235 . S
C186 O192 1.287 . S
C186 O193 1.255 . S
O187 Fe176 1.976 1_565 S
O187 C194 1.287 . S
O188 Fe177 1.996 1_565 S
O188 C194 1.255 . S
O189 Fe179 1.976 1_565 S
O189 C184 1.287 . S
O190 Fe176 1.996 1_565 S
O190 C184 1.255 . S
C191 O195 1.295 . S
C191 O196 1.235 . S
O192 Fe177 1.976 1_565 S
O192 C186 1.287 . S
O193 Fe179 1.996 1_565 S
O193 C186 1.255 . S
C194 O187 1.287 . S
C194 O188 1.255 . S
O195 Fe177 2.002 . S
O195 C191 1.295 . S
O196 Fe179 1.997 . S
O196 C191 1.235 . S
C197 O180 1.295 . S
C197 O181 1.235 . S
Fe198 O200 1.918 . S
Fe198 O203 1.997 . S
Fe198 O204 2.002 . S
Fe198 O209 1.976 . S
Fe198 O212 1.996 . S
Fe199 O200 1.918 . S
Fe199 O207 1.997 . S
Fe199 O210 1.996 . S
Fe199 O214 1.976 . S
Fe199 O217 2.002 . S
O200 Fe198 1.918 . S
O200 Fe199 1.918 . S
O200 Fe201 1.918 . S
Fe201 O200 1.918 . S
Fe201 O202 2.002 . S
Fe201 O211 1.976 . S
Fe201 O215 1.996 . S
Fe201 O218 1.997 . S
O202 Fe201 2.002 . S
O202 C219 1.295 . S
O203 Fe198 1.997 . S
O203 C219 1.235 . S
O204 Fe198 2.002 . S
O204 C205 1.295 . S
C205 O204 1.295 . S
C205 O207 1.235 . S
C206 O211 1.287 . S
C206 O212 1.255 . S
O207 Fe199 1.997 . S
O207 C205 1.235 . S
C208 O214 1.287 . S
C208 O215 1.255 . S
O209 Fe198 1.976 . S
O209 C216 1.287 . S
O210 Fe199 1.996 . S
O210 C216 1.255 . S
O211 Fe201 1.976 . S
O211 C206 1.287 . S
O212 Fe198 1.996 . S
O212 C206 1.255 . S
C213 O217 1.295 . S
C213 O218 1.235 . S
O214 Fe199 1.976 . S
O214 C208 1.287 . S
O215 Fe201 1.996 . S
O215 C208 1.255 . S
C216 O209 1.287 . S
C216 O210 1.255 . S
O217 Fe199 2.002 . S
O217 C213 1.295 . S
O218 Fe201 1.997 . S
O218 C213 1.235 . S
C219 O202 1.295 . S
C219 O203 1.235 . S
Fe220 O222 1.918 . S
Fe220 O225 1.997 1_545 S
Fe220 O226 2.002 1_545 S
Fe220 O231 1.976 . S
Fe220 O234 1.996 . S
Fe221 O222 1.918 . S
Fe221 O229 1.997 1_545 S
Fe221 O232 1.996 . S
Fe221 O236 1.976 . S
Fe221 O239 2.002 1_545 S
O222 Fe220 1.918 . S
O222 Fe221 1.918 . S
O222 Fe223 1.918 . S
Fe223 O222 1.918 . S
Fe223 O224 2.002 1_545 S
Fe223 O233 1.976 . S
Fe223 O237 1.996 . S
Fe223 O240 1.997 1_545 S
O224 Fe223 2.002 1_565 S
O224 C241 1.295 . S
O225 Fe220 1.997 1_565 S
O225 C241 1.235 . S
O226 Fe220 2.002 1_565 S
O226 C227 1.295 . S
C227 O226 1.295 . S
C227 O229 1.235 . S
C228 O233 1.287 . S
C228 O234 1.255 . S
O229 Fe221 1.997 1_565 S
O229 C227 1.235 . S
C230 O236 1.287 . S
C230 O237 1.255 . S
O231 Fe220 1.976 . S
O231 C238 1.287 . S
O232 Fe221 1.996 . S
O232 C238 1.255 . S
O233 Fe223 1.976 . S
O233 C228 1.287 . S
O234 Fe220 1.996 . S
O234 C228 1.255 . S
C235 O239 1.295 . S
C235 O240 1.235 . S
O236 Fe221 1.976 . S
O236 C230 1.287 . S
O237 Fe223 1.996 . S
O237 C230 1.255 . S
C238 O231 1.287 . S
C238 O232 1.255 . S
O239 Fe221 2.002 1_565 S
O239 C235 1.295 . S
O240 Fe223 1.997 1_565 S
O240 C235 1.235 . S
C241 O224 1.295 . S
C241 O225 1.235 . S
Fe242 O244 1.918 . S
Fe242 O247 1.997 . S
Fe242 O248 2.002 . S
Fe242 O253 1.976 . S
Fe242 O256 1.996 . S
Fe243 O244 1.918 . S
Fe243 O251 1.997 . S
Fe243 O254 1.996 . S
Fe243 O258 1.976 . S
Fe243 O261 2.002 . S
O244 Fe242 1.918 . S
O244 Fe243 1.918 . S
O244 Fe245 1.918 . S
Fe245 O244 1.918 . S
Fe245 O246 2.002 . S
Fe245 O255 1.976 . S
Fe245 O259 1.996 . S
Fe245 O262 1.997 . S
O246 Fe245 2.002 . S
O246 C263 1.295 . S
O247 Fe242 1.997 . S
O247 C263 1.235 . S
O248 Fe242 2.002 . S
O248 C249 1.295 . S
C249 O248 1.295 . S
C249 O251 1.235 . S
C250 O255 1.287 . S
C250 O256 1.255 . S
O251 Fe243 1.997 . S
O251 C249 1.235 . S
C252 O258 1.287 . S
C252 O259 1.255 . S
O253 Fe242 1.976 . S
O253 C260 1.287 . S
O254 Fe243 1.996 . S
O254 C260 1.255 . S
O255 Fe245 1.976 . S
O255 C250 1.287 . S
O256 Fe242 1.996 . S
O256 C250 1.255 . S
C257 O261 1.295 . S
C257 O262 1.235 . S
O258 Fe243 1.976 . S
O258 C252 1.287 . S
O259 Fe245 1.996 . S
O259 C252 1.255 . S
C260 O253 1.287 . S
C260 O254 1.255 . S
O261 Fe243 2.002 . S
O261 C257 1.295 . S
O262 Fe245 1.997 . S
O262 C257 1.235 . S
C263 O246 1.295 . S
C263 O247 1.235 . S
Fe264 O266 1.918 . S
Fe264 O269 1.997 1_545 S
Fe264 O270 2.002 1_545 S
Fe264 O275 1.976 . S
Fe264 O278 1.996 . S
Fe265 O266 1.918 . S
Fe265 O273 1.997 1_545 S
Fe265 O276 1.996 . S
Fe265 O280 1.976 . S
Fe265 O283 2.002 1_545 S
O266 Fe264 1.918 . S
O266 Fe265 1.918 . S
O266 Fe267 1.918 . S
Fe267 O266 1.918 . S
Fe267 O268 2.002 1_545 S
Fe267 O277 1.976 . S
Fe267 O281 1.996 . S
Fe267 O284 1.997 1_545 S
O268 Fe267 2.002 1_565 S
O268 C285 1.295 . S
O269 Fe264 1.997 1_565 S
O269 C285 1.235 . S
O270 Fe264 2.002 1_565 S
O270 C271 1.295 . S
C271 O270 1.295 . S
C271 O273 1.235 . S
C272 O277 1.287 . S
C272 O278 1.255 . S
O273 Fe265 1.997 1_565 S
O273 C271 1.235 . S
C274 O280 1.287 . S
C274 O281 1.255 . S
O275 Fe264 1.976 . S
O275 C282 1.287 . S
O276 Fe265 1.996 . S
O276 C282 1.255 . S
O277 Fe267 1.976 . S
O277 C272 1.287 . S
O278 Fe264 1.996 . S
O278 C272 1.255 . S
C279 O283 1.295 . S
C279 O284 1.235 . S
O280 Fe265 1.976 . S
O280 C274 1.287 . S
O281 Fe267 1.996 . S
O281 C274 1.255 . S
C282 O275 1.287 . S
C282 O276 1.255 . S
O283 Fe265 2.002 1_565 S
O283 C279 1.295 . S
O284 Fe267 1.997 1_565 S
O284 C279 1.235 . S
C285 O268 1.295 . S
C285 O269 1.235 . S
Fe286 O288 1.918 . S
Fe286 O291 1.997 . S
Fe286 O292 2.002 . S
Fe286 O297 1.976 . S
Fe286 O300 1.996 . S
Fe287 O288 1.918 . S
Fe287 O295 1.997 . S
Fe287 O298 1.996 . S
Fe287 O302 1.976 . S
Fe287 O305 2.002 . S
O288 Fe286 1.918 . S
O288 Fe287 1.918 . S
O288 Fe289 1.918 . S
Fe289 O288 1.918 . S
Fe289 O290 2.002 . S
Fe289 O299 1.976 . S
Fe289 O303 1.996 . S
Fe289 O306 1.997 . S
O290 Fe289 2.002 . S
O290 C307 1.295 . S
O291 Fe286 1.997 . S
O291 C307 1.235 . S
O292 Fe286 2.002 . S
O292 C293 1.295 . S
C293 O292 1.295 . S
C293 O295 1.235 . S
C294 O299 1.287 . S
C294 O300 1.255 . S
O295 Fe287 1.997 . S
O295 C293 1.235 . S
C296 O302 1.287 . S
C296 O303 1.255 . S
O297 Fe286 1.976 . S
O297 C304 1.287 . S
O298 Fe287 1.996 . S
O298 C304 1.255 . S
O299 Fe289 1.976 . S
O299 C294 1.287 . S
O300 Fe286 1.996 . S
O300 C294 1.255 . S
C301 O305 1.295 . S
C301 O306 1.235 . S
O302 Fe287 1.976 . S
O302 C296 1.287 . S
O303 Fe289 1.996 . S
O303 C296 1.255 . S
C304 O297 1.287 . S
C304 O298 1.255 . S
O305 Fe287 2.002 . S
O305 C301 1.295 . S
O306 Fe289 1.997 . S
O306 C301 1.235 . S
C307 O290 1.295 . S
C307 O291 1.235 . S
Fe308 O310 1.918 . S
Fe308 O313 1.997 . S
Fe308 O314 2.002 . S
Fe308 O319 1.976 1_545 S
Fe308 O322 1.996 1_545 S
Fe309 O310 1.918 . S
Fe309 O317 1.997 . S
Fe309 O320 1.996 1_545 S
Fe309 O324 1.976 1_545 S
Fe309 O327 2.002 . S
O310 Fe308 1.918 . S
O310 Fe309 1.918 . S
O310 Fe311 1.918 . S
Fe311 O310 1.918 . S
Fe311 O312 2.002 . S
Fe311 O321 1.976 1_545 S
Fe311 O325 1.996 1_545 S
Fe311 O328 1.997 . S
O312 Fe311 2.002 . S
O312 C329 1.295 . S
O313 Fe308 1.997 . S
O313 C329 1.235 . S
O314 Fe308 2.002 . S
O314 C315 1.295 . S
C315 O314 1.295 . S
C315 O317 1.235 . S
C316 O321 1.287 . S
C316 O322 1.255 . S
O317 Fe309 1.997 . S
O317 C315 1.235 . S
C318 O324 1.287 . S
C318 O325 1.255 . S
O319 Fe308 1.976 1_565 S
O319 C326 1.287 . S
O320 Fe309 1.996 1_565 S
O320 C326 1.255 . S
O321 Fe311 1.976 1_565 S
O321 C316 1.287 . S
O322 Fe308 1.996 1_565 S
O322 C316 1.255 . S
C323 O327 1.295 . S
C323 O328 1.235 . S
O324 Fe309 1.976 1_565 S
O324 C318 1.287 . S
O325 Fe311 1.996 1_565 S
O325 C318 1.255 . S
C326 O319 1.287 . S
C326 O320 1.255 . S
O327 Fe309 2.002 . S
O327 C323 1.295 . S
O328 Fe311 1.997 . S
O328 C323 1.235 . S
C329 O312 1.295 . S
C329 O313 1.235 . S
Fe330 O332 1.918 . S
Fe330 O335 1.997 . S
Fe330 O336 2.002 . S
Fe330 O341 1.976 . S
Fe330 O344 1.996 . S
Fe331 O332 1.918 . S
Fe331 O339 1.997 . S
Fe331 O342 1.996 . S
Fe331 O346 1.976 . S
Fe331 O349 2.002 . S
O332 Fe330 1.918 . S
O332 Fe331 1.918 . S
O332 Fe333 1.918 . S
Fe333 O332 1.918 . S
Fe333 O334 2.002 . S
Fe333 O343 1.976 . S
Fe333 O347 1.996 . S
Fe333 O350 1.997 . S
O334 Fe333 2.002 . S
O334 C351 1.295 . S
O335 Fe330 1.997 . S
O335 C351 1.235 . S
O336 Fe330 2.002 . S
O336 C337 1.295 . S
C337 O336 1.295 . S
C337 O339 1.235 . S
C338 O343 1.287 . S
C338 O344 1.255 . S
O339 Fe331 1.997 . S
O339 C337 1.235 . S
C340 O346 1.287 . S
C340 O347 1.255 . S
O341 Fe330 1.976 . S
O341 C348 1.287 . S
O342 Fe331 1.996 . S
O342 C348 1.255 . S
O343 Fe333 1.976 . S
O343 C338 1.287 . S
O344 Fe330 1.996 . S
O344 C338 1.255 . S
C345 O349 1.295 . S
C345 O350 1.235 . S
O346 Fe331 1.976 . S
O346 C340 1.287 . S
O347 Fe333 1.996 . S
O347 C340 1.255 . S
C348 O341 1.287 . S
C348 O342 1.255 . S
O349 Fe331 2.002 . S
O349 C345 1.295 . S
O350 Fe333 1.997 . S
O350 C345 1.235 . S
C351 O334 1.295 . S
C351 O335 1.235 . S
Fe352 O354 1.918 . S
Fe352 O357 1.997 . S
Fe352 O358 2.002 . S
Fe352 O363 1.976 1_554 S
Fe352 O366 1.996 1_554 S
Fe353 O354 1.918 . S
Fe353 O361 1.997 . S
Fe353 O364 1.996 1_554 S
Fe353 O368 1.976 1_554 S
Fe353 O371 2.002 . S
O354 Fe352 1.918 . S
O354 Fe353 1.918 . S
O354 Fe355 1.918 . S
Fe355 O354 1.918 . S
Fe355 O356 2.002 . S
Fe355 O365 1.976 1_554 S
Fe355 O369 1.996 1_554 S
Fe355 O372 1.997 . S
O356 Fe355 2.002 . S
O356 C373 1.295 . S
O357 Fe352 1.997 . S
O357 C373 1.235 . S
O358 Fe352 2.002 . S
O358 C359 1.295 . S
C359 O358 1.295 . S
C359 O361 1.235 . S
C360 O365 1.287 . S
C360 O366 1.255 . S
O361 Fe353 1.997 . S
O361 C359 1.235 . S
C362 O368 1.287 . S
C362 O369 1.255 . S
O363 Fe352 1.976 1_556 S
O363 C370 1.287 . S
O364 Fe353 1.996 1_556 S
O364 C370 1.255 . S
O365 Fe355 1.976 1_556 S
O365 C360 1.287 . S
O366 Fe352 1.996 1_556 S
O366 C360 1.255 . S
C367 O371 1.295 . S
C367 O372 1.235 . S
O368 Fe353 1.976 1_556 S
O368 C362 1.287 . S
O369 Fe355 1.996 1_556 S
O369 C362 1.255 . S
C370 O363 1.287 . S
C370 O364 1.255 . S
O371 Fe353 2.002 . S
O371 C367 1.295 . S
O372 Fe355 1.997 . S
O372 C367 1.235 . S
C373 O356 1.295 . S
C373 O357 1.235 . S
Fe374 O376 1.918 . S
Fe374 O379 1.997 1_554 S
Fe374 O380 2.002 1_554 S
Fe374 O385 1.976 . S
Fe374 O388 1.996 . S
Fe375 O376 1.918 . S
Fe375 O383 1.997 1_554 S
Fe375 O386 1.996 . S
Fe375 O390 1.976 . S
Fe375 O393 2.002 1_554 S
O376 Fe374 1.918 . S
O376 Fe375 1.918 . S
O376 Fe377 1.918 . S
Fe377 O376 1.918 . S
Fe377 O378 2.002 1_554 S
Fe377 O387 1.976 . S
Fe377 O391 1.996 . S
Fe377 O394 1.997 1_554 S
O378 Fe377 2.002 1_556 S
O378 C395 1.295 . S
O379 Fe374 1.997 1_556 S
O379 C395 1.235 . S
O380 Fe374 2.002 1_556 S
O380 C381 1.295 . S
C381 O380 1.295 . S
C381 O383 1.235 . S
C382 O387 1.287 . S
C382 O388 1.255 . S
O383 Fe375 1.997 1_556 S
O383 C381 1.235 . S
C384 O390 1.287 . S
C384 O391 1.255 . S
O385 Fe374 1.976 . S
O385 C392 1.287 . S
O386 Fe375 1.996 . S
O386 C392 1.255 . S
O387 Fe377 1.976 . S
O387 C382 1.287 . S
O388 Fe374 1.996 . S
O388 C382 1.255 . S
C389 O393 1.295 . S
C389 O394 1.235 . S
O390 Fe375 1.976 . S
O390 C384 1.287 . S
O391 Fe377 1.996 . S
O391 C384 1.255 . S
C392 O385 1.287 . S
C392 O386 1.255 . S
O393 Fe375 2.002 1_556 S
O393 C389 1.295 . S
O394 Fe377 1.997 1_556 S
O394 C389 1.235 . S
C395 O378 1.295 . S
C395 O379 1.235 . S
Fe396 O398 1.918 . S
Fe396 O401 1.997 . S
Fe396 O402 2.002 . S
Fe396 O407 1.976 . S
Fe396 O410 1.996 . S
Fe397 O398 1.918 . S
Fe397 O405 1.997 . S
Fe397 O408 1.996 . S
Fe397 O412 1.976 . S
Fe397 O415 2.002 . S
O398 Fe396 1.918 . S
O398 Fe397 1.918 . S
O398 Fe399 1.918 . S
Fe399 O398 1.918 . S
Fe399 O400 2.002 . S
Fe399 O409 1.976 . S
Fe399 O413 1.996 . S
Fe399 O416 1.997 . S
O400 Fe399 2.002 . S
O400 C417 1.295 . S
O401 Fe396 1.997 . S
O401 C417 1.235 . S
O402 Fe396 2.002 . S
O402 C403 1.295 . S
C403 O402 1.295 . S
C403 O405 1.235 . S
C404 O409 1.287 . S
C404 O410 1.255 . S
O405 Fe397 1.997 . S
O405 C403 1.235 . S
C406 O412 1.287 . S
C406 O413 1.255 . S
O407 Fe396 1.976 . S
O407 C414 1.287 . S
O408 Fe397 1.996 . S
O408 C414 1.255 . S
O409 Fe399 1.976 . S
O409 C404 1.287 . S
O410 Fe396 1.996 . S
O410 C404 1.255 . S
C411 O415 1.295 . S
C411 O416 1.235 . S
O412 Fe397 1.976 . S
O412 C406 1.287 . S
O413 Fe399 1.996 . S
O413 C406 1.255 . S
C414 O407 1.287 . S
C414 O408 1.255 . S
O415 Fe397 2.002 . S
O415 C411 1.295 . S
O416 Fe399 1.997 . S
O416 C411 1.235 . S
C417 O400 1.295 . S
C417 O401 1.235 . S
Fe418 O420 1.918 . S
Fe418 O423 1.997 1_554 S
Fe418 O424 2.002 1_554 S
Fe418 O429 1.976 . S
Fe418 O432 1.996 . S
Fe419 O420 1.918 . S
Fe419 O427 1.997 1_554 S
Fe419 O430 1.996 . S
Fe419 O434 1.976 . S
Fe419 O437 2.002 1_554 S
O420 Fe418 1.918 . S
O420 Fe419 1.918 . S
O420 Fe421 1.918 . S
Fe421 O420 1.918 . S
Fe421 O422 2.002 1_554 S
Fe421 O431 1.976 . S
Fe421 O435 1.996 . S
Fe421 O438 1.997 1_554 S
O422 Fe421 2.002 1_556 S
O422 C439 1.295 . S
O423 Fe418 1.997 1_556 S
O423 C439 1.235 . S
O424 Fe418 2.002 1_556 S
O424 C425 1.295 . S
C425 O424 1.295 . S
C425 O427 1.235 . S
C426 O431 1.287 . S
C426 O432 1.255 . S
O427 Fe419 1.997 1_556 S
O427 C425 1.235 . S
C428 O434 1.287 . S
C428 O435 1.255 . S
O429 Fe418 1.976 . S
O429 C436 1.287 . S
O430 Fe419 1.996 . S
O430 C436 1.255 . S
O431 Fe421 1.976 . S
O431 C426 1.287 . S
O432 Fe418 1.996 . S
O432 C426 1.255 . S
C433 O437 1.295 . S
C433 O438 1.235 . S
O434 Fe419 1.976 . S
O434 C428 1.287 . S
O435 Fe421 1.996 . S
O435 C428 1.255 . S
C436 O429 1.287 . S
C436 O430 1.255 . S
O437 Fe419 2.002 1_556 S
O437 C433 1.295 . S
O438 Fe421 1.997 1_556 S
O438 C433 1.235 . S
C439 O422 1.295 . S
C439 O423 1.235 . S
Fe440 O442 1.918 . S
Fe440 O445 1.997 . S
Fe440 O446 2.002 . S
Fe440 O451 1.976 . S
Fe440 O454 1.996 . S
Fe441 O442 1.918 . S
Fe441 O449 1.997 . S
Fe441 O452 1.996 . S
Fe441 O456 1.976 . S
Fe441 O459 2.002 . S
O442 Fe440 1.918 . S
O442 Fe441 1.918 . S
O442 Fe443 1.918 . S
Fe443 O442 1.918 . S
Fe443 O444 2.002 . S
Fe443 O453 1.976 . S
Fe443 O457 1.996 . S
Fe443 O460 1.997 . S
O444 Fe443 2.002 . S
O444 C461 1.295 . S
O445 Fe440 1.997 . S
O445 C461 1.235 . S
O446 Fe440 2.002 . S
O446 C447 1.295 . S
C447 O446 1.295 . S
C447 O449 1.235 . S
C448 O453 1.287 . S
C448 O454 1.255 . S
O449 Fe441 1.997 . S
O449 C447 1.235 . S
C450 O456 1.287 . S
C450 O457 1.255 . S
O451 Fe440 1.976 . S
O451 C458 1.287 . S
O452 Fe441 1.996 . S
O452 C458 1.255 . S
O453 Fe443 1.976 . S
O453 C448 1.287 . S
O454 Fe440 1.996 . S
O454 C448 1.255 . S
C455 O459 1.295 . S
C455 O460 1.235 . S
O456 Fe441 1.976 . S
O456 C450 1.287 . S
O457 Fe443 1.996 . S
O457 C450 1.255 . S
C458 O451 1.287 . S
C458 O452 1.255 . S
O459 Fe441 2.002 . S
O459 C455 1.295 . S
O460 Fe443 1.997 . S
O460 C455 1.235 . S
C461 O444 1.295 . S
C461 O445 1.235 . S
Fe462 O464 1.919 . S
Fe462 O467 1.997 . S
Fe462 O468 2.002 . S
Fe462 O473 1.976 1_554 S
Fe462 O476 1.996 1_554 S
Fe463 O464 1.919 . S
Fe463 O471 1.997 . S
Fe463 O474 1.996 1_554 S
Fe463 O478 1.976 1_554 S
Fe463 O481 2.002 . S
O464 Fe462 1.919 . S
O464 Fe463 1.919 . S
O464 Fe465 1.919 . S
Fe465 O464 1.919 . S
Fe465 O466 2.002 . S
Fe465 O475 1.976 1_554 S
Fe465 O479 1.996 1_554 S
Fe465 O482 1.997 . S
O466 Fe465 2.002 . S
O466 C483 1.295 . S
O467 Fe462 1.997 . S
O467 C483 1.235 . S
O468 Fe462 2.002 . S
O468 C469 1.295 . S
C469 O468 1.295 . S
C469 O471 1.235 . S
C470 O475 1.287 . S
C470 O476 1.255 . S
O471 Fe463 1.997 . S
O471 C469 1.235 . S
C472 O478 1.287 . S
C472 O479 1.255 . S
O473 Fe462 1.976 1_556 S
O473 C480 1.287 . S
O474 Fe463 1.996 1_556 S
O474 C480 1.255 . S
O475 Fe465 1.976 1_556 S
O475 C470 1.287 . S
O476 Fe462 1.996 1_556 S
O476 C470 1.255 . S
C477 O481 1.295 . S
C477 O482 1.235 . S
O478 Fe463 1.976 1_556 S
O478 C472 1.287 . S
O479 Fe465 1.996 1_556 S
O479 C472 1.255 . S
C480 O473 1.287 . S
C480 O474 1.255 . S
O481 Fe463 2.002 . S
O481 C477 1.295 . S
O482 Fe465 1.997 . S
O482 C477 1.235 . S
C483 O466 1.295 . S
C483 O467 1.235 . S
Fe484 O486 1.918 . S
Fe484 O489 1.997 . S
Fe484 O490 2.002 . S
Fe484 O495 1.976 . S
Fe484 O498 1.996 . S
Fe485 O486 1.918 . S
Fe485 O493 1.997 . S
Fe485 O496 1.996 . S
Fe485 O500 1.976 . S
Fe485 O503 2.002 . S
O486 Fe484 1.918 . S
O486 Fe485 1.918 . S
O486 Fe487 1.918 . S
Fe487 O486 1.918 . S
Fe487 O488 2.002 . S
Fe487 O497 1.976 . S
Fe487 O501 1.996 . S
Fe487 O504 1.997 . S
O488 Fe487 2.002 . S
O488 C505 1.295 . S
O489 Fe484 1.997 . S
O489 C505 1.235 . S
O490 Fe484 2.002 . S
O490 C491 1.295 . S
C491 O490 1.295 . S
C491 O493 1.235 . S
C492 O497 1.287 . S
C492 O498 1.255 . S
O493 Fe485 1.997 . S
O493 C491 1.235 . S
C494 O500 1.287 . S
C494 O501 1.255 . S
O495 Fe484 1.976 . S
O495 C502 1.287 . S
O496 Fe485 1.996 . S
O496 C502 1.255 . S
O497 Fe487 1.976 . S
O497 C492 1.287 . S
O498 Fe484 1.996 . S
O498 C492 1.255 . S
C499 O503 1.295 . S
C499 O504 1.235 . S
O500 Fe485 1.976 . S
O500 C494 1.287 . S
O501 Fe487 1.996 . S
O501 C494 1.255 . S
C502 O495 1.287 . S
C502 O496 1.255 . S
O503 Fe485 2.002 . S
O503 C499 1.295 . S
O504 Fe487 1.997 . S
O504 C499 1.235 . S
C505 O488 1.295 . S
C505 O489 1.235 . S
Fe506 O508 1.918 . S
Fe506 O511 1.997 . S
Fe506 O512 2.002 . S
Fe506 O517 1.976 . S
Fe506 O520 1.996 . S
Fe507 O508 1.918 . S
Fe507 O515 1.997 . S
Fe507 O518 1.996 . S
Fe507 O522 1.976 . S
Fe507 O525 2.002 . S
O508 Fe506 1.918 . S
O508 Fe507 1.918 . S
O508 Fe509 1.918 . S
Fe509 O508 1.918 . S
Fe509 O510 2.002 . S
Fe509 O519 1.976 . S
Fe509 O523 1.996 . S
Fe509 O526 1.997 . S
O510 Fe509 2.002 . S
O510 C527 1.295 . S
O511 Fe506 1.997 . S
O511 C527 1.235 . S
O512 Fe506 2.002 . S
O512 C513 1.295 . S
C513 O512 1.295 . S
C513 O515 1.235 . S
C514 O519 1.287 . S
C514 O520 1.255 . S
O515 Fe507 1.997 . S
O515 C513 1.235 . S
C516 O522 1.287 . S
C516 O523 1.255 . S
O517 Fe506 1.976 . S
O517 C524 1.287 . S
O518 Fe507 1.996 . S
O518 C524 1.255 . S
O519 Fe509 1.976 . S
O519 C514 1.287 . S
O520 Fe506 1.996 . S
O520 C514 1.255 . S
C521 O525 1.295 . S
C521 O526 1.235 . S
O522 Fe507 1.976 . S
O522 C516 1.287 . S
O523 Fe509 1.996 . S
O523 C516 1.255 . S
C524 O517 1.287 . S
C524 O518 1.255 . S
O525 Fe507 2.002 . S
O525 C521 1.295 . S
O526 Fe509 1.997 . S
O526 C521 1.235 . S
C527 O510 1.295 . S
C527 O511 1.235 . S
H528 C536 0.950 . S
H529 C541 0.950 . S
H530 C538 0.950 . S
H531 C540 0.950 . S
H532 C542 0.950 . S
H533 C544 0.950 . S
H534 C546 0.950 . S
H535 C547 0.950 . S
C536 H528 0.950 . S
C536 C537 1.386 . S
C536 C538 1.391 . S
C537 C536 1.386 . S
C537 C541 1.393 . S
C538 H530 0.950 . S
C538 C536 1.391 . S
C538 C539 1.400 . S
C539 C538 1.400 . S
C539 C540 1.398 . S
C539 C545 1.491 . S
C540 H531 0.950 . S
C540 C539 1.398 . S
C540 C541 1.391 . S
C541 H529 0.950 . S
C541 C537 1.393 . S
C541 C540 1.391 . S
C542 H532 0.950 . S
C542 C543 1.386 . S
C542 C544 1.391 . S
C543 C542 1.386 . S
C543 C547 1.393 . S
C544 H533 0.950 . S
C544 C542 1.391 . S
C544 C545 1.400 . S
C545 C539 1.491 . S
C545 C544 1.400 . S
C545 C546 1.398 . S
C546 H534 0.950 . S
C546 C545 1.398 . S
C546 C547 1.391 . S
C547 H535 0.950 . S
C547 C543 1.393 . S
C547 C546 1.391 . S
H548 C556 0.950 . S
H549 C561 0.950 . S
H550 C558 0.950 . S
H551 C560 0.950 . S
H552 C562 0.950 . S
H553 C564 0.950 . S
H554 C566 0.950 . S
H555 C567 0.950 . S
C556 H548 0.950 . S
C556 C557 1.386 . S
C556 C558 1.391 . S
C557 C556 1.386 . S
C557 C561 1.393 . S
C558 H550 0.950 . S
C558 C556 1.391 . S
C558 C559 1.400 . S
C559 C558 1.400 . S
C559 C560 1.398 . S
C559 C565 1.491 . S
C560 H551 0.950 . S
C560 C559 1.398 . S
C560 C561 1.391 . S
C561 H549 0.950 . S
C561 C557 1.393 . S
C561 C560 1.391 . S
C562 H552 0.950 . S
C562 C563 1.386 . S
C562 C564 1.391 . S
C563 C562 1.386 . S
C563 C567 1.393 . S
C564 H553 0.950 . S
C564 C562 1.391 . S
C564 C565 1.400 . S
C565 C559 1.491 . S
C565 C564 1.400 . S
C565 C566 1.398 . S
C566 H554 0.950 . S
C566 C565 1.398 . S
C566 C567 1.391 . S
C567 H555 0.950 . S
C567 C563 1.393 . S
C567 C566 1.391 . S
H568 C576 0.950 . S
H569 C581 0.950 . S
H570 C578 0.950 . S
H571 C580 0.950 . S
H572 C582 0.950 . S
H573 C584 0.950 . S
H574 C586 0.950 . S
H575 C587 0.950 . S
C576 H568 0.950 . S
C576 C577 1.386 . S
C576 C578 1.391 . S
C577 C576 1.386 . S
C577 C581 1.393 . S
C578 H570 0.950 . S
C578 C576 1.391 . S
C578 C579 1.400 . S
C579 C578 1.400 . S
C579 C580 1.398 . S
C579 C585 1.491 . S
C580 H571 0.950 . S
C580 C579 1.398 . S
C580 C581 1.391 . S
C581 H569 0.950 . S
C581 C577 1.393 . S
C581 C580 1.391 . S
C582 H572 0.950 . S
C582 C583 1.386 . S
C582 C584 1.391 . S
C583 C582 1.386 . S
C583 C587 1.393 . S
C584 H573 0.950 . S
C584 C582 1.391 . S
C584 C585 1.400 . S
C585 C579 1.491 . S
C585 C584 1.400 . S
C585 C586 1.398 . S
C586 H574 0.950 . S
C586 C585 1.398 . S
C586 C587 1.391 . S
C587 H575 0.950 . S
C587 C583 1.393 . S
C587 C586 1.391 . S
H588 C596 0.950 . S
H589 C601 0.950 . S
H590 C598 0.950 . S
H591 C600 0.950 . S
H592 C602 0.950 . S
H593 C604 0.950 . S
H594 C606 0.950 . S
H595 C607 0.950 . S
C596 H588 0.950 . S
C596 C597 1.386 . S
C596 C598 1.391 . S
C597 C596 1.386 . S
C597 C601 1.393 . S
C598 H590 0.950 . S
C598 C596 1.391 . S
C598 C599 1.400 . S
C599 C598 1.400 . S
C599 C600 1.398 . S
C599 C605 1.491 . S
C600 H591 0.950 . S
C600 C599 1.398 . S
C600 C601 1.391 . S
C601 H589 0.950 . S
C601 C597 1.393 . S
C601 C600 1.391 . S
C602 H592 0.950 . S
C602 C603 1.386 . S
C602 C604 1.391 . S
C603 C602 1.386 . S
C603 C607 1.393 . S
C604 H593 0.950 . S
C604 C602 1.391 . S
C604 C605 1.400 . S
C605 C599 1.491 . S
C605 C604 1.400 . S
C605 C606 1.398 . S
C606 H594 0.950 . S
C606 C605 1.398 . S
C606 C607 1.391 . S
C607 H595 0.950 . S
C607 C603 1.393 . S
C607 C606 1.391 . S
H608 C616 0.950 . S
H609 C621 0.950 . S
H610 C618 0.950 . S
H611 C620 0.950 . S
H612 C622 0.950 . S
H613 C624 0.950 . S
H614 C626 0.950 . S
H615 C627 0.950 . S
C616 H608 0.950 . S
C616 C617 1.386 . S
C616 C618 1.391 . S
C617 C616 1.386 . S
C617 C621 1.393 . S
C618 H610 0.950 . S
C618 C616 1.391 . S
C618 C619 1.400 . S
C619 C618 1.400 . S
C619 C620 1.398 . S
C619 C625 1.491 . S
C620 H611 0.950 . S
C620 C619 1.398 . S
C620 C621 1.391 . S
C621 H609 0.950 . S
C621 C617 1.393 . S
C621 C620 1.391 . S
C622 H612 0.950 . S
C622 C623 1.386 . S
C622 C624 1.391 . S
C623 C622 1.386 . S
C623 C627 1.393 . S
C624 H613 0.950 . S
C624 C622 1.391 . S
C624 C625 1.400 . S
C625 C619 1.491 . S
C625 C624 1.400 . S
C625 C626 1.398 . S
C626 H614 0.950 . S
C626 C625 1.398 . S
C626 C627 1.391 . S
C627 H615 0.950 . S
C627 C623 1.393 . S
C627 C626 1.391 . S
H628 C636 0.950 . S
H629 C641 0.950 . S
H630 C638 0.950 . S
H631 C640 0.950 . S
H632 C642 0.950 . S
H633 C644 0.950 . S
H634 C646 0.950 . S
H635 C647 0.950 . S
C636 H628 0.950 . S
C636 C637 1.386 . S
C636 C638 1.391 . S
C637 C636 1.386 . S
C637 C641 1.393 . S
C638 H630 0.950 . S
C638 C636 1.391 . S
C638 C639 1.400 . S
C639 C638 1.400 . S
C639 C640 1.398 . S
C639 C645 1.491 . S
C640 H631 0.950 . S
C640 C639 1.398 . S
C640 C641 1.391 . S
C641 H629 0.950 . S
C641 C637 1.393 . S
C641 C640 1.391 . S
C642 H632 0.950 . S
C642 C643 1.386 . S
C642 C644 1.391 . S
C643 C642 1.386 . S
C643 C647 1.393 . S
C644 H633 0.950 . S
C644 C642 1.391 . S
C644 C645 1.400 . S
C645 C639 1.491 . S
C645 C644 1.400 . S
C645 C646 1.398 . S
C646 H634 0.950 . S
C646 C645 1.398 . S
C646 C647 1.391 . S
C647 H635 0.950 . S
C647 C643 1.393 . S
C647 C646 1.391 . S
H648 C656 0.950 . S
H649 C661 0.950 . S
H650 C658 0.950 . S
H651 C660 0.950 . S
H652 C662 0.950 . S
H653 C664 0.950 . S
H654 C666 0.950 . S
H655 C667 0.950 . S
C656 H648 0.950 . S
C656 C657 1.386 . S
C656 C658 1.391 . S
C657 C656 1.386 . S
C657 C661 1.393 . S
C658 H650 0.950 . S
C658 C656 1.391 . S
C658 C659 1.400 . S
C659 C658 1.400 . S
C659 C660 1.398 . S
C659 C665 1.491 . S
C660 H651 0.950 . S
C660 C659 1.398 . S
C660 C661 1.391 . S
C661 H649 0.950 . S
C661 C657 1.393 . S
C661 C660 1.391 . S
C662 H652 0.950 . S
C662 C663 1.386 . S
C662 C664 1.391 . S
C663 C662 1.386 . S
C663 C667 1.393 . S
C664 H653 0.950 . S
C664 C662 1.391 . S
C664 C665 1.400 . S
C665 C659 1.491 . S
C665 C664 1.400 . S
C665 C666 1.398 . S
C666 H654 0.950 . S
C666 C665 1.398 . S
C666 C667 1.391 . S
C667 H655 0.950 . S
C667 C663 1.393 . S
C667 C666 1.391 . S
H668 C676 0.950 . S
H669 C681 0.950 . S
H670 C678 0.950 . S
H671 C680 0.950 . S
H672 C682 0.950 . S
H673 C684 0.950 . S
H674 C686 0.950 . S
H675 C687 0.950 . S
C676 H668 0.950 . S
C676 C677 1.386 . S
C676 C678 1.391 . S
C677 C676 1.386 . S
C677 C681 1.393 . S
C678 H670 0.950 . S
C678 C676 1.391 . S
C678 C679 1.400 . S
C679 C678 1.400 . S
C679 C680 1.398 . S
C679 C685 1.491 . S
C680 H671 0.950 . S
C680 C679 1.398 . S
C680 C681 1.391 . S
C681 H669 0.950 . S
C681 C677 1.393 . S
C681 C680 1.391 . S
C682 H672 0.950 . S
C682 C683 1.386 . S
C682 C684 1.391 . S
C683 C682 1.386 . S
C683 C687 1.393 . S
C684 H673 0.950 . S
C684 C682 1.391 . S
C684 C685 1.400 . S
C685 C679 1.491 . S
C685 C684 1.400 . S
C685 C686 1.398 . S
C686 H674 0.950 . S
C686 C685 1.398 . S
C686 C687 1.391 . S
C687 H675 0.950 . S
C687 C683 1.393 . S
C687 C686 1.391 . S
H688 C696 0.950 . S
H689 C701 0.950 . S
H690 C698 0.950 . S
H691 C700 0.950 . S
H692 C702 0.950 . S
H693 C704 0.950 . S
H694 C706 0.950 . S
H695 C707 0.950 . S
C696 H688 0.950 . S
C696 C697 1.386 . S
C696 C698 1.391 . S
C697 C696 1.386 . S
C697 C701 1.393 . S
C698 H690 0.950 . S
C698 C696 1.391 . S
C698 C699 1.400 . S
C699 C698 1.400 . S
C699 C700 1.398 . S
C699 C705 1.491 . S
C700 H691 0.950 . S
C700 C699 1.398 . S
C700 C701 1.391 . S
C701 H689 0.950 . S
C701 C697 1.393 . S
C701 C700 1.391 . S
C702 H692 0.950 . S
C702 C703 1.386 . S
C702 C704 1.391 . S
C703 C702 1.386 . S
C703 C707 1.393 . S
C704 H693 0.950 . S
C704 C702 1.391 . S
C704 C705 1.400 . S
C705 C699 1.491 . S
C705 C704 1.400 . S
C705 C706 1.398 . S
C706 H694 0.950 . S
C706 C705 1.398 . S
C706 C707 1.391 . S
C707 H695 0.950 . S
C707 C703 1.393 . S
C707 C706 1.391 . S
H708 C716 0.950 . S
H709 C721 0.950 . S
H710 C718 0.950 . S
H711 C720 0.950 . S
H712 C722 0.950 . S
H713 C724 0.950 . S
H714 C726 0.950 . S
H715 C727 0.950 . S
C716 H708 0.950 . S
C716 C717 1.386 . S
C716 C718 1.391 . S
C717 C716 1.386 . S
C717 C721 1.393 . S
C718 H710 0.950 . S
C718 C716 1.391 . S
C718 C719 1.400 . S
C719 C718 1.400 . S
C719 C720 1.398 . S
C719 C725 1.491 . S
C720 H711 0.950 . S
C720 C719 1.398 . S
C720 C721 1.391 . S
C721 H709 0.950 . S
C721 C717 1.393 . S
C721 C720 1.391 . S
C722 H712 0.950 . S
C722 C723 1.386 . S
C722 C724 1.391 . S
C723 C722 1.386 . S
C723 C727 1.393 . S
C724 H713 0.950 . S
C724 C722 1.391 . S
C724 C725 1.400 . S
C725 C719 1.491 . S
C725 C724 1.400 . S
C725 C726 1.398 . S
C726 H714 0.950 . S
C726 C725 1.398 . S
C726 C727 1.391 . S
C727 H715 0.950 . S
C727 C723 1.393 . S
C727 C726 1.391 . S
H728 C736 0.950 . S
H729 C741 0.950 . S
H730 C738 0.950 . S
H731 C740 0.950 . S
H732 C742 0.950 . S
H733 C744 0.950 . S
H734 C746 0.950 . S
H735 C747 0.950 . S
C736 H728 0.950 . S
C736 C737 1.386 . S
C736 C738 1.391 . S
C737 C736 1.386 . S
C737 C741 1.393 . S
C738 H730 0.950 . S
C738 C736 1.391 . S
C738 C739 1.400 . S
C739 C738 1.400 . S
C739 C740 1.398 . S
C739 C745 1.491 . S
C740 H731 0.950 . S
C740 C739 1.398 . S
C740 C741 1.391 . S
C741 H729 0.950 . S
C741 C737 1.393 . S
C741 C740 1.391 . S
C742 H732 0.950 . S
C742 C743 1.386 . S
C742 C744 1.391 . S
C743 C742 1.386 . S
C743 C747 1.393 . S
C744 H733 0.950 . S
C744 C742 1.391 . S
C744 C745 1.400 . S
C745 C739 1.491 . S
C745 C744 1.400 . S
C745 C746 1.398 . S
C746 H734 0.950 . S
C746 C745 1.398 . S
C746 C747 1.391 . S
C747 H735 0.950 . S
C747 C743 1.393 . S
C747 C746 1.391 . S
H748 C756 0.950 . S
H749 C761 0.950 . S
H750 C758 0.950 . S
H751 C760 0.950 . S
H752 C762 0.950 . S
H753 C764 0.950 . S
H754 C766 0.950 . S
H755 C767 0.950 . S
C756 H748 0.950 . S
C756 C757 1.386 . S
C756 C758 1.391 . S
C757 C756 1.386 . S
C757 C761 1.393 . S
C758 H750 0.950 . S
C758 C756 1.391 . S
C758 C759 1.400 . S
C759 C758 1.400 . S
C759 C760 1.398 . S
C759 C765 1.491 . S
C760 H751 0.950 . S
C760 C759 1.398 . S
C760 C761 1.391 . S
C761 H749 0.950 . S
C761 C757 1.393 . S
C761 C760 1.391 . S
C762 H752 0.950 . S
C762 C763 1.386 . S
C762 C764 1.391 . S
C763 C762 1.386 . S
C763 C767 1.393 . S
C764 H753 0.950 . S
C764 C762 1.391 . S
C764 C765 1.400 . S
C765 C759 1.491 . S
C765 C764 1.400 . S
C765 C766 1.398 . S
C766 H754 0.950 . S
C766 C765 1.398 . S
C766 C767 1.391 . S
C767 H755 0.950 . S
C767 C763 1.393 . S
C767 C766 1.391 . S
H768 C776 0.950 . S
H769 C781 0.950 . S
H770 C778 0.950 . S
H771 C780 0.950 . S
H772 C782 0.950 . S
H773 C784 0.950 . S
H774 C786 0.950 . S
H775 C787 0.950 . S
C776 H768 0.950 . S
C776 C777 1.386 . S
C776 C778 1.391 . S
C777 C776 1.386 . S
C777 C781 1.393 . S
C778 H770 0.950 . S
C778 C776 1.391 . S
C778 C779 1.400 . S
C779 C778 1.400 . S
C779 C780 1.398 . S
C779 C785 1.491 . S
C780 H771 0.950 . S
C780 C779 1.398 . S
C780 C781 1.391 . S
C781 H769 0.950 . S
C781 C777 1.393 . S
C781 C780 1.391 . S
C782 H772 0.950 . S
C782 C783 1.386 . S
C782 C784 1.391 . S
C783 C782 1.386 . S
C783 C787 1.393 . S
C784 H773 0.950 . S
C784 C782 1.391 . S
C784 C785 1.400 . S
C785 C779 1.491 . S
C785 C784 1.400 . S
C785 C786 1.398 . S
C786 H774 0.950 . S
C786 C785 1.398 . S
C786 C787 1.391 . S
C787 H775 0.950 . S
C787 C783 1.393 . S
C787 C786 1.391 . S
H788 C796 0.950 . S
H789 C801 0.950 . S
H790 C798 0.950 . S
H791 C800 0.950 . S
H792 C802 0.950 . S
H793 C804 0.950 . S
H794 C806 0.950 . S
H795 C807 0.950 . S
C796 H788 0.950 . S
C796 C797 1.386 . S
C796 C798 1.391 . S
C797 C796 1.386 . S
C797 C801 1.393 . S
C798 H790 0.950 . S
C798 C796 1.391 . S
C798 C799 1.400 . S
C799 C798 1.400 . S
C799 C800 1.398 . S
C799 C805 1.491 . S
C800 H791 0.950 . S
C800 C799 1.398 . S
C800 C801 1.391 . S
C801 H789 0.950 . S
C801 C797 1.393 . S
C801 C800 1.391 . S
C802 H792 0.950 . S
C802 C803 1.386 . S
C802 C804 1.391 . S
C803 C802 1.386 . S
C803 C807 1.393 . S
C804 H793 0.950 . S
C804 C802 1.391 . S
C804 C805 1.400 . S
C805 C799 1.491 . S
C805 C804 1.400 . S
C805 C806 1.398 . S
C806 H794 0.950 . S
C806 C805 1.398 . S
C806 C807 1.391 . S
C807 H795 0.950 . S
C807 C803 1.393 . S
C807 C806 1.391 . S
H808 C816 0.950 . S
H809 C821 0.950 . S
H810 C818 0.950 . S
H811 C820 0.950 . S
H812 C822 0.950 . S
H813 C824 0.950 . S
H814 C826 0.950 . S
H815 C827 0.950 . S
C816 H808 0.950 . S
C816 C817 1.386 . S
C816 C818 1.391 . S
C817 C816 1.386 . S
C817 C821 1.393 . S
C818 H810 0.950 . S
C818 C816 1.391 . S
C818 C819 1.400 . S
C819 C818 1.400 . S
C819 C820 1.398 . S
C819 C825 1.491 . S
C820 H811 0.950 . S
C820 C819 1.398 . S
C820 C821 1.391 . S
C821 H809 0.950 . S
C821 C817 1.393 . S
C821 C820 1.391 . S
C822 H812 0.950 . S
C822 C823 1.386 . S
C822 C824 1.391 . S
C823 C822 1.386 . S
C823 C827 1.393 . S
C824 H813 0.950 . S
C824 C822 1.391 . S
C824 C825 1.400 . S
C825 C819 1.491 . S
C825 C824 1.400 . S
C825 C826 1.398 . S
C826 H814 0.950 . S
C826 C825 1.398 . S
C826 C827 1.391 . S
C827 H815 0.950 . S
C827 C823 1.393 . S
C827 C826 1.391 . S
H828 C836 0.950 . S
H829 C841 0.950 . S
H830 C838 0.950 . S
H831 C840 0.950 . S
H832 C842 0.950 . S
H833 C844 0.950 . S
H834 C846 0.950 . S
H835 C847 0.950 . S
C836 H828 0.950 . S
C836 C837 1.386 . S
C836 C838 1.391 . S
C837 C836 1.386 . S
C837 C841 1.393 . S
C838 H830 0.950 . S
C838 C836 1.391 . S
C838 C839 1.400 . S
C839 C838 1.400 . S
C839 C840 1.398 . S
C839 C845 1.491 . S
C840 H831 0.950 . S
C840 C839 1.398 . S
C840 C841 1.391 . S
C841 H829 0.950 . S
C841 C837 1.393 . S
C841 C840 1.391 . S
C842 H832 0.950 . S
C842 C843 1.386 . S
C842 C844 1.391 . S
C843 C842 1.386 . S
C843 C847 1.393 . S
C844 H833 0.950 . S
C844 C842 1.391 . S
C844 C845 1.400 . S
C845 C839 1.491 . S
C845 C844 1.400 . S
C845 C846 1.398 . S
C846 H834 0.950 . S
C846 C845 1.398 . S
C846 C847 1.391 . S
C847 H835 0.950 . S
C847 C843 1.393 . S
C847 C846 1.391 . S
H848 C856 0.950 . S
H849 C861 0.950 . S
H850 C858 0.950 . S
H851 C860 0.950 . S
H852 C862 0.950 . S
H853 C864 0.950 . S
H854 C866 0.950 . S
H855 C867 0.950 . S
C856 H848 0.950 . S
C856 C857 1.386 . S
C856 C858 1.391 . S
C857 C856 1.386 . S
C857 C861 1.393 . S
C858 H850 0.950 . S
C858 C856 1.391 . S
C858 C859 1.400 . S
C859 C858 1.400 . S
C859 C860 1.398 . S
C859 C865 1.491 . S
C860 H851 0.950 . S
C860 C859 1.398 . S
C860 C861 1.391 . S
C861 H849 0.950 . S
C861 C857 1.393 . S
C861 C860 1.391 . S
C862 H852 0.950 . S
C862 C863 1.386 . S
C862 C864 1.391 . S
C863 C862 1.386 . S
C863 C867 1.393 . S
C864 H853 0.950 . S
C864 C862 1.391 . S
C864 C865 1.400 . S
C865 C859 1.491 . S
C865 C864 1.400 . S
C865 C866 1.398 . S
C866 H854 0.950 . S
C866 C865 1.398 . S
C866 C867 1.391 . S
C867 H855 0.950 . S
C867 C863 1.393 . S
C867 C866 1.391 . S
H868 C876 0.950 . S
H869 C881 0.950 . S
H870 C878 0.950 . S
H871 C880 0.950 . S
H872 C882 0.950 . S
H873 C884 0.950 . S
H874 C886 0.950 . S
H875 C887 0.950 . S
C876 H868 0.950 . S
C876 C877 1.386 . S
C876 C878 1.391 . S
C877 C876 1.386 . S
C877 C881 1.393 . S
C878 H870 0.950 . S
C878 C876 1.391 . S
C878 C879 1.400 . S
C879 C878 1.400 . S
C879 C880 1.398 . S
C879 C885 1.491 . S
C880 H871 0.950 . S
C880 C879 1.398 . S
C880 C881 1.391 . S
C881 H869 0.950 . S
C881 C877 1.393 . S
C881 C880 1.391 . S
C882 H872 0.950 . S
C882 C883 1.386 . S
C882 C884 1.391 . S
C883 C882 1.386 . S
C883 C887 1.393 . S
C884 H873 0.950 . S
C884 C882 1.391 . S
C884 C885 1.400 . S
C885 C879 1.491 . S
C885 C884 1.400 . S
C885 C886 1.398 . S
C886 H874 0.950 . S
C886 C885 1.398 . S
C886 C887 1.391 . S
C887 H875 0.950 . S
C887 C883 1.393 . S
C887 C886 1.391 . S
H888 C896 0.950 . S
H889 C901 0.950 . S
H890 C898 0.950 . S
H891 C900 0.950 . S
H892 C902 0.950 . S
H893 C904 0.950 . S
H894 C906 0.950 . S
H895 C907 0.950 . S
C896 H888 0.950 . S
C896 C897 1.386 . S
C896 C898 1.391 . S
C897 C896 1.386 . S
C897 C901 1.393 . S
C898 H890 0.950 . S
C898 C896 1.391 . S
C898 C899 1.400 . S
C899 C898 1.400 . S
C899 C900 1.398 . S
C899 C905 1.491 . S
C900 H891 0.950 . S
C900 C899 1.398 . S
C900 C901 1.391 . S
C901 H889 0.950 . S
C901 C897 1.393 . S
C901 C900 1.391 . S
C902 H892 0.950 . S
C902 C903 1.386 . S
C902 C904 1.391 . S
C903 C902 1.386 . S
C903 C907 1.393 . S
C904 H893 0.950 . S
C904 C902 1.391 . S
C904 C905 1.400 . S
C905 C899 1.491 . S
C905 C904 1.400 . S
C905 C906 1.398 . S
C906 H894 0.950 . S
C906 C905 1.398 . S
C906 C907 1.391 . S
C907 H895 0.950 . S
C907 C903 1.393 . S
C907 C906 1.391 . S
H908 C916 0.950 . S
H909 C921 0.950 . S
H910 C918 0.950 . S
H911 C920 0.950 . S
H912 C922 0.950 . S
H913 C924 0.950 . S
H914 C926 0.950 . S
H915 C927 0.950 . S
C916 H908 0.950 . S
C916 C917 1.386 . S
C916 C918 1.391 . S
C917 C916 1.386 . S
C917 C921 1.393 . S
C918 H910 0.950 . S
C918 C916 1.391 . S
C918 C919 1.400 . S
C919 C918 1.400 . S
C919 C920 1.398 . S
C919 C925 1.491 . S
C920 H911 0.950 . S
C920 C919 1.398 . S
C920 C921 1.391 . S
C921 H909 0.950 . S
C921 C917 1.393 . S
C921 C920 1.391 . S
C922 H912 0.950 . S
C922 C923 1.386 . S
C922 C924 1.391 . S
C923 C922 1.386 . S
C923 C927 1.393 . S
C924 H913 0.950 . S
C924 C922 1.391 . S
C924 C925 1.400 . S
C925 C919 1.491 . S
C925 C924 1.400 . S
C925 C926 1.398 . S
C926 H914 0.950 . S
C926 C925 1.398 . S
C926 C927 1.391 . S
C927 H915 0.950 . S
C927 C923 1.393 . S
C927 C926 1.391 . S
H928 C936 0.950 . S
H929 C941 0.950 . S
H930 C938 0.950 . S
H931 C940 0.950 . S
H932 C942 0.950 . S
H933 C944 0.950 . S
H934 C946 0.950 . S
H935 C947 0.950 . S
C936 H928 0.950 . S
C936 C937 1.386 . S
C936 C938 1.391 . S
C937 C936 1.386 . S
C937 C941 1.393 . S
C938 H930 0.950 . S
C938 C936 1.391 . S
C938 C939 1.400 . S
C939 C938 1.400 . S
C939 C940 1.398 . S
C939 C945 1.491 . S
C940 H931 0.950 . S
C940 C939 1.398 . S
C940 C941 1.391 . S
C941 H929 0.950 . S
C941 C937 1.393 . S
C941 C940 1.391 . S
C942 H932 0.950 . S
C942 C943 1.386 . S
C942 C944 1.391 . S
C943 C942 1.386 . S
C943 C947 1.393 . S
C944 H933 0.950 . S
C944 C942 1.391 . S
C944 C945 1.400 . S
C945 C939 1.491 . S
C945 C944 1.400 . S
C945 C946 1.398 . S
C946 H934 0.950 . S
C946 C945 1.398 . S
C946 C947 1.391 . S
C947 H935 0.950 . S
C947 C943 1.393 . S
C947 C946 1.391 . S
H948 C956 0.950 . S
H949 C961 0.950 . S
H950 C958 0.950 . S
H951 C960 0.950 . S
H952 C962 0.950 . S
H953 C964 0.950 . S
H954 C966 0.950 . S
H955 C967 0.950 . S
C956 H948 0.950 . S
C956 C957 1.386 . S
C956 C958 1.391 . S
C957 C956 1.386 . S
C957 C961 1.393 . S
C958 H950 0.950 . S
C958 C956 1.391 . S
C958 C959 1.400 . S
C959 C958 1.400 . S
C959 C960 1.398 . S
C959 C965 1.491 . S
C960 H951 0.950 . S
C960 C959 1.398 . S
C960 C961 1.391 . S
C961 H949 0.950 . S
C961 C957 1.393 . S
C961 C960 1.391 . S
C962 H952 0.950 . S
C962 C963 1.386 . S
C962 C964 1.391 . S
C963 C962 1.386 . S
C963 C967 1.393 . S
C964 H953 0.950 . S
C964 C962 1.391 . S
C964 C965 1.400 . S
C965 C959 1.491 . S
C965 C964 1.400 . S
C965 C966 1.398 . S
C966 H954 0.950 . S
C966 C965 1.398 . S
C966 C967 1.391 . S
C967 H955 0.950 . S
C967 C963 1.393 . S
C967 C966 1.391 . S
H968 C976 0.950 . S
H969 C981 0.950 . S
H970 C978 0.950 . S
H971 C980 0.950 . S
H972 C982 0.950 . S
H973 C984 0.950 . S
H974 C986 0.950 . S
H975 C987 0.950 . S
C976 H968 0.950 . S
C976 C977 1.386 . S
C976 C978 1.391 . S
C977 C976 1.386 . S
C977 C981 1.393 . S
C978 H970 0.950 . S
C978 C976 1.391 . S
C978 C979 1.400 . S
C979 C978 1.400 . S
C979 C980 1.398 . S
C979 C985 1.491 . S
C980 H971 0.950 . S
C980 C979 1.398 . S
C980 C981 1.391 . S
C981 H969 0.950 . S
C981 C977 1.393 . S
C981 C980 1.391 . S
C982 H972 0.950 . S
C982 C983 1.386 . S
C982 C984 1.391 . S
C983 C982 1.386 . S
C983 C987 1.393 . S
C984 H973 0.950 . S
C984 C982 1.391 . S
C984 C985 1.400 . S
C985 C979 1.491 . S
C985 C984 1.400 . S
C985 C986 1.398 . S
C986 H974 0.950 . S
C986 C985 1.398 . S
C986 C987 1.391 . S
C987 H975 0.950 . S
C987 C983 1.393 . S
C987 C986 1.391 . S
H988 C996 0.950 . S
H989 C1001 0.950 . S
H990 C998 0.950 . S
H991 C1000 0.950 . S
H992 C1002 0.950 . S
H993 C1004 0.950 . S
H994 C1006 0.950 . S
H995 C1007 0.950 . S
C996 H988 0.950 . S
C996 C997 1.386 . S
C996 C998 1.391 . S
C997 C996 1.386 . S
C997 C1001 1.393 . S
C998 H990 0.950 . S
C998 C996 1.391 . S
C998 C999 1.400 . S
C999 C998 1.400 . S
C999 C1000 1.398 . S
C999 C1005 1.491 . S
C1000 H991 0.950 . S
C1000 C999 1.398 . S
C1000 C1001 1.391 . S
C1001 H989 0.950 . S
C1001 C997 1.393 . S
C1001 C1000 1.391 . S
C1002 H992 0.950 . S
C1002 C1003 1.386 . S
C1002 C1004 1.391 . S
C1003 C1002 1.386 . S
C1003 C1007 1.393 . S
C1004 H993 0.950 . S
C1004 C1002 1.391 . S
C1004 C1005 1.400 . S
C1005 C999 1.491 . S
C1005 C1004 1.400 . S
C1005 C1006 1.398 . S
C1006 H994 0.950 . S
C1006 C1005 1.398 . S
C1006 C1007 1.391 . S
C1007 H995 0.950 . S
C1007 C1003 1.393 . S
C1007 C1006 1.391 . S
H1008 C1016 0.950 . S
H1009 C1021 0.950 . S
H1010 C1018 0.950 . S
H1011 C1020 0.950 . S
H1012 C1022 0.950 . S
H1013 C1024 0.950 . S
H1014 C1026 0.950 . S
H1015 C1027 0.950 . S
C1016 H1008 0.950 . S
C1016 C1017 1.386 . S
C1016 C1018 1.391 . S
C1017 C1016 1.386 . S
C1017 C1021 1.393 . S
C1018 H1010 0.950 . S
C1018 C1016 1.391 . S
C1018 C1019 1.400 . S
C1019 C1018 1.400 . S
C1019 C1020 1.398 . S
C1019 C1025 1.491 . S
C1020 H1011 0.950 . S
C1020 C1019 1.398 . S
C1020 C1021 1.391 . S
C1021 H1009 0.950 . S
C1021 C1017 1.393 . S
C1021 C1020 1.391 . S
C1022 H1012 0.950 . S
C1022 C1023 1.386 . S
C1022 C1024 1.391 . S
C1023 C1022 1.386 . S
C1023 C1027 1.393 . S
C1024 H1013 0.950 . S
C1024 C1022 1.391 . S
C1024 C1025 1.400 . S
C1025 C1019 1.491 . S
C1025 C1024 1.400 . S
C1025 C1026 1.398 . S
C1026 H1014 0.950 . S
C1026 C1025 1.398 . S
C1026 C1027 1.391 . S
C1027 H1015 0.950 . S
C1027 C1023 1.393 . S
C1027 C1026 1.391 . S
H1028 C1036 0.950 . S
H1029 C1041 0.950 . S
H1030 C1038 0.950 . S
H1031 C1040 0.950 . S
H1032 C1042 0.950 . S
H1033 C1044 0.950 . S
H1034 C1046 0.950 . S
H1035 C1047 0.950 . S
C1036 H1028 0.950 . S
C1036 C1037 1.386 . S
C1036 C1038 1.391 . S
C1037 C1036 1.386 . S
C1037 C1041 1.393 . S
C1038 H1030 0.950 . S
C1038 C1036 1.391 . S
C1038 C1039 1.400 . S
C1039 C1038 1.400 . S
C1039 C1040 1.398 . S
C1039 C1045 1.491 . S
C1040 H1031 0.950 . S
C1040 C1039 1.398 . S
C1040 C1041 1.391 . S
C1041 H1029 0.950 . S
C1041 C1037 1.393 . S
C1041 C1040 1.391 . S
C1042 H1032 0.950 . S
C1042 C1043 1.386 . S
C1042 C1044 1.391 . S
C1043 C1042 1.386 . S
C1043 C1047 1.393 . S
C1044 H1033 0.950 . S
C1044 C1042 1.391 . S
C1044 C1045 1.400 . S
C1045 C1039 1.491 . S
C1045 C1044 1.400 . S
C1045 C1046 1.398 . S
C1046 H1034 0.950 . S
C1046 C1045 1.398 . S
C1046 C1047 1.391 . S
C1047 H1035 0.950 . S
C1047 C1043 1.393 . S
C1047 C1046 1.391 . S
H1048 C1056 0.950 . S
H1049 C1061 0.950 . S
H1050 C1058 0.950 . S
H1051 C1060 0.950 . S
H1052 C1062 0.950 . S
H1053 C1064 0.950 . S
H1054 C1066 0.950 . S
H1055 C1067 0.950 . S
C1056 H1048 0.950 . S
C1056 C1057 1.386 . S
C1056 C1058 1.391 . S
C1057 C1056 1.386 . S
C1057 C1061 1.393 . S
C1058 H1050 0.950 . S
C1058 C1056 1.391 . S
C1058 C1059 1.400 . S
C1059 C1058 1.400 . S
C1059 C1060 1.398 . S
C1059 C1065 1.491 . S
C1060 H1051 0.950 . S
C1060 C1059 1.398 . S
C1060 C1061 1.391 . S
C1061 H1049 0.950 . S
C1061 C1057 1.393 . S
C1061 C1060 1.391 . S
C1062 H1052 0.950 . S
C1062 C1063 1.386 . S
C1062 C1064 1.391 . S
C1063 C1062 1.386 . S
C1063 C1067 1.393 . S
C1064 H1053 0.950 . S
C1064 C1062 1.391 . S
C1064 C1065 1.400 . S
C1065 C1059 1.491 . S
C1065 C1064 1.400 . S
C1065 C1066 1.398 . S
C1066 H1054 0.950 . S
C1066 C1065 1.398 . S
C1066 C1067 1.391 . S
C1067 H1055 0.950 . S
C1067 C1063 1.393 . S
C1067 C1066 1.391 . S
H1068 C1076 0.950 . S
H1069 C1081 0.950 . S
H1070 C1078 0.950 . S
H1071 C1080 0.950 . S
H1072 C1082 0.950 . S
H1073 C1084 0.950 . S
H1074 C1086 0.950 . S
H1075 C1087 0.950 . S
C1076 H1068 0.950 . S
C1076 C1077 1.386 . S
C1076 C1078 1.391 . S
C1077 C1076 1.386 . S
C1077 C1081 1.393 . S
C1078 H1070 0.950 . S
C1078 C1076 1.391 . S
C1078 C1079 1.400 . S
C1079 C1078 1.400 . S
C1079 C1080 1.398 . S
C1079 C1085 1.491 . S
C1080 H1071 0.950 . S
C1080 C1079 1.398 . S
C1080 C1081 1.391 . S
C1081 H1069 0.950 . S
C1081 C1077 1.393 . S
C1081 C1080 1.391 . S
C1082 H1072 0.950 . S
C1082 C1083 1.386 . S
C1082 C1084 1.391 . S
C1083 C1082 1.386 . S
C1083 C1087 1.393 . S
C1084 H1073 0.950 . S
C1084 C1082 1.391 . S
C1084 C1085 1.400 . S
C1085 C1079 1.491 . S
C1085 C1084 1.400 . S
C1085 C1086 1.398 . S
C1086 H1074 0.950 . S
C1086 C1085 1.398 . S
C1086 C1087 1.391 . S
C1087 H1075 0.950 . S
C1087 C1083 1.393 . S
C1087 C1086 1.391 . S
H1088 C1096 0.950 . S
H1089 C1101 0.950 . S
H1090 C1098 0.950 . S
H1091 C1100 0.950 . S
H1092 C1102 0.950 . S
H1093 C1104 0.950 . S
H1094 C1106 0.950 . S
H1095 C1107 0.950 . S
C1096 H1088 0.950 . S
C1096 C1097 1.386 . S
C1096 C1098 1.391 . S
C1097 C1096 1.386 . S
C1097 C1101 1.393 . S
C1098 H1090 0.950 . S
C1098 C1096 1.391 . S
C1098 C1099 1.400 . S
C1099 C1098 1.400 . S
C1099 C1100 1.398 . S
C1099 C1105 1.491 . S
C1100 H1091 0.950 . S
C1100 C1099 1.398 . S
C1100 C1101 1.391 . S
C1101 H1089 0.950 . S
C1101 C1097 1.393 . S
C1101 C1100 1.391 . S
C1102 H1092 0.950 . S
C1102 C1103 1.386 . S
C1102 C1104 1.391 . S
C1103 C1102 1.386 . S
C1103 C1107 1.393 . S
C1104 H1093 0.950 . S
C1104 C1102 1.391 . S
C1104 C1105 1.400 . S
C1105 C1099 1.491 . S
C1105 C1104 1.400 . S
C1105 C1106 1.398 . S
C1106 H1094 0.950 . S
C1106 C1105 1.398 . S
C1106 C1107 1.391 . S
C1107 H1095 0.950 . S
C1107 C1103 1.393 . S
C1107 C1106 1.391 . S
H1108 C1116 0.950 . S
H1109 C1121 0.950 . S
H1110 C1118 0.950 . S
H1111 C1120 0.950 . S
H1112 C1122 0.950 . S
H1113 C1124 0.950 . S
H1114 C1126 0.950 . S
H1115 C1127 0.950 . S
C1116 H1108 0.950 . S
C1116 C1117 1.386 . S
C1116 C1118 1.391 . S
C1117 C1116 1.386 . S
C1117 C1121 1.393 . S
C1118 H1110 0.950 . S
C1118 C1116 1.391 . S
C1118 C1119 1.400 . S
C1119 C1118 1.400 . S
C1119 C1120 1.398 . S
C1119 C1125 1.491 . S
C1120 H1111 0.950 . S
C1120 C1119 1.398 . S
C1120 C1121 1.391 . S
C1121 H1109 0.950 . S
C1121 C1117 1.393 . S
C1121 C1120 1.391 . S
C1122 H1112 0.950 . S
C1122 C1123 1.386 . S
C1122 C1124 1.391 . S
C1123 C1122 1.386 . S
C1123 C1127 1.393 . S
C1124 H1113 0.950 . S
C1124 C1122 1.391 . S
C1124 C1125 1.400 . S
C1125 C1119 1.491 . S
C1125 C1124 1.400 . S
C1125 C1126 1.398 . S
C1126 H1114 0.950 . S
C1126 C1125 1.398 . S
C1126 C1127 1.391 . S
C1127 H1115 0.950 . S
C1127 C1123 1.393 . S
C1127 C1126 1.391 . S
H1128 C1136 0.950 . S
H1129 C1141 0.950 . S
H1130 C1138 0.950 . S
H1131 C1140 0.950 . S
H1132 C1142 0.950 . S
H1133 C1144 0.950 . S
H1134 C1146 0.950 . S
H1135 C1147 0.950 . S
C1136 H1128 0.950 . S
C1136 C1137 1.386 . S
C1136 C1138 1.391 . S
C1137 C1136 1.386 . S
C1137 C1141 1.393 . S
C1138 H1130 0.950 . S
C1138 C1136 1.391 . S
C1138 C1139 1.400 . S
C1139 C1138 1.400 . S
C1139 C1140 1.398 . S
C1139 C1145 1.491 . S
C1140 H1131 0.950 . S
C1140 C1139 1.398 . S
C1140 C1141 1.391 . S
C1141 H1129 0.950 . S
C1141 C1137 1.393 . S
C1141 C1140 1.391 . S
C1142 H1132 0.950 . S
C1142 C1143 1.386 . S
C1142 C1144 1.391 . S
C1143 C1142 1.386 . S
C1143 C1147 1.393 . S
C1144 H1133 0.950 . S
C1144 C1142 1.391 . S
C1144 C1145 1.400 . S
C1145 C1139 1.491 . S
C1145 C1144 1.400 . S
C1145 C1146 1.398 . S
C1146 H1134 0.950 . S
C1146 C1145 1.398 . S
C1146 C1147 1.391 . S
C1147 H1135 0.950 . S
C1147 C1143 1.393 . S
C1147 C1146 1.391 . S
H1148 C1156 0.950 . S
H1149 C1161 0.950 . S
H1150 C1158 0.950 . S
H1151 C1160 0.950 . S
H1152 C1162 0.950 . S
H1153 C1164 0.950 . S
H1154 C1166 0.950 . S
H1155 C1167 0.950 . S
C1156 H1148 0.950 . S
C1156 C1157 1.386 . S
C1156 C1158 1.391 . S
C1157 C1156 1.386 . S
C1157 C1161 1.393 . S
C1158 H1150 0.950 . S
C1158 C1156 1.391 . S
C1158 C1159 1.400 . S
C1159 C1158 1.400 . S
C1159 C1160 1.398 . S
C1159 C1165 1.491 . S
C1160 H1151 0.950 . S
C1160 C1159 1.398 . S
C1160 C1161 1.391 . S
C1161 H1149 0.950 . S
C1161 C1157 1.393 . S
C1161 C1160 1.391 . S
C1162 H1152 0.950 . S
C1162 C1163 1.386 . S
C1162 C1164 1.391 . S
C1163 C1162 1.386 . S
C1163 C1167 1.393 . S
C1164 H1153 0.950 . S
C1164 C1162 1.391 . S
C1164 C1165 1.400 . S
C1165 C1159 1.491 . S
C1165 C1164 1.400 . S
C1165 C1166 1.398 . S
C1166 H1154 0.950 . S
C1166 C1165 1.398 . S
C1166 C1167 1.391 . S
C1167 H1155 0.950 . S
C1167 C1163 1.393 . S
C1167 C1166 1.391 . S
H1168 C1176 0.950 . S
H1169 C1181 0.950 . S
H1170 C1178 0.950 . S
H1171 C1180 0.950 . S
H1172 C1182 0.950 . S
H1173 C1184 0.950 . S
H1174 C1186 0.950 . S
H1175 C1187 0.950 . S
C1176 H1168 0.950 . S
C1176 C1177 1.386 . S
C1176 C1178 1.391 . S
C1177 C1176 1.386 . S
C1177 C1181 1.393 . S
C1178 H1170 0.950 . S
C1178 C1176 1.391 . S
C1178 C1179 1.400 . S
C1179 C1178 1.400 . S
C1179 C1180 1.398 . S
C1179 C1185 1.491 . S
C1180 H1171 0.950 . S
C1180 C1179 1.398 . S
C1180 C1181 1.391 . S
C1181 H1169 0.950 . S
C1181 C1177 1.393 . S
C1181 C1180 1.391 . S
C1182 H1172 0.950 . S
C1182 C1183 1.386 . S
C1182 C1184 1.391 . S
C1183 C1182 1.386 . S
C1183 C1187 1.393 . S
C1184 H1173 0.950 . S
C1184 C1182 1.391 . S
C1184 C1185 1.400 . S
C1185 C1179 1.491 . S
C1185 C1184 1.400 . S
C1185 C1186 1.398 . S
C1186 H1174 0.950 . S
C1186 C1185 1.398 . S
C1186 C1187 1.391 . S
C1187 H1175 0.950 . S
C1187 C1183 1.393 . S
C1187 C1186 1.391 . S
H1188 C1196 0.950 . S
H1189 C1201 0.950 . S
H1190 C1198 0.950 . S
H1191 C1200 0.950 . S
H1192 C1202 0.950 . S
H1193 C1204 0.950 . S
H1194 C1206 0.950 . S
H1195 C1207 0.950 . S
C1196 H1188 0.950 . S
C1196 C1197 1.386 . S
C1196 C1198 1.391 . S
C1197 C1196 1.386 . S
C1197 C1201 1.393 . S
C1198 H1190 0.950 . S
C1198 C1196 1.391 . S
C1198 C1199 1.400 . S
C1199 C1198 1.400 . S
C1199 C1200 1.398 . S
C1199 C1205 1.491 . S
C1200 H1191 0.950 . S
C1200 C1199 1.398 . S
C1200 C1201 1.391 . S
C1201 H1189 0.950 . S
C1201 C1197 1.393 . S
C1201 C1200 1.391 . S
C1202 H1192 0.950 . S
C1202 C1203 1.386 . S
C1202 C1204 1.391 . S
C1203 C1202 1.386 . S
C1203 C1207 1.393 . S
C1204 H1193 0.950 . S
C1204 C1202 1.391 . S
C1204 C1205 1.400 . S
C1205 C1199 1.491 . S
C1205 C1204 1.400 . S
C1205 C1206 1.398 . S
C1206 H1194 0.950 . S
C1206 C1205 1.398 . S
C1206 C1207 1.391 . S
C1207 H1195 0.950 . S
C1207 C1203 1.393 . S
C1207 C1206 1.391 . S
H1208 C1216 0.950 . S
H1209 C1221 0.950 . S
H1210 C1218 0.950 . S
H1211 C1220 0.950 . S
H1212 C1222 0.950 . S
H1213 C1224 0.950 . S
H1214 C1226 0.950 . S
H1215 C1227 0.950 . S
C1216 H1208 0.950 . S
C1216 C1217 1.386 . S
C1216 C1218 1.391 . S
C1217 C1216 1.386 . S
C1217 C1221 1.393 . S
C1218 H1210 0.950 . S
C1218 C1216 1.391 . S
C1218 C1219 1.400 . S
C1219 C1218 1.400 . S
C1219 C1220 1.398 . S
C1219 C1225 1.491 . S
C1220 H1211 0.950 . S
C1220 C1219 1.398 . S
C1220 C1221 1.391 . S
C1221 H1209 0.950 . S
C1221 C1217 1.393 . S
C1221 C1220 1.391 . S
C1222 H1212 0.950 . S
C1222 C1223 1.386 . S
C1222 C1224 1.391 . S
C1223 C1222 1.386 . S
C1223 C1227 1.393 . S
C1224 H1213 0.950 . S
C1224 C1222 1.391 . S
C1224 C1225 1.400 . S
C1225 C1219 1.491 . S
C1225 C1224 1.400 . S
C1225 C1226 1.398 . S
C1226 H1214 0.950 . S
C1226 C1225 1.398 . S
C1226 C1227 1.391 . S
C1227 H1215 0.950 . S
C1227 C1223 1.393 . S
C1227 C1226 1.391 . S
H1228 C1236 0.950 . S
H1229 C1241 0.950 . S
H1230 C1238 0.950 . S
H1231 C1240 0.950 . S
H1232 C1242 0.950 . S
H1233 C1244 0.950 . S
H1234 C1246 0.950 . S
H1235 C1247 0.950 . S
C1236 H1228 0.950 . S
C1236 C1237 1.386 . S
C1236 C1238 1.391 . S
C1237 C1236 1.386 . S
C1237 C1241 1.393 . S
C1238 H1230 0.950 . S
C1238 C1236 1.391 . S
C1238 C1239 1.400 . S
C1239 C1238 1.400 . S
C1239 C1240 1.398 . S
C1239 C1245 1.491 . S
C1240 H1231 0.950 . S
C1240 C1239 1.398 . S
C1240 C1241 1.391 . S
C1241 H1229 0.950 . S
C1241 C1237 1.393 . S
C1241 C1240 1.391 . S
C1242 H1232 0.950 . S
C1242 C1243 1.386 . S
C1242 C1244 1.391 . S
C1243 C1242 1.386 . S
C1243 C1247 1.393 . S
C1244 H1233 0.950 . S
C1244 C1242 1.391 . S
C1244 C1245 1.400 . S
C1245 C1239 1.491 . S
C1245 C1244 1.400 . S
C1245 C1246 1.398 . S
C1246 H1234 0.950 . S
C1246 C1245 1.398 . S
C1246 C1247 1.391 . S
C1247 H1235 0.950 . S
C1247 C1243 1.393 . S
C1247 C1246 1.391 . S
H1248 C1256 0.950 . S
H1249 C1261 0.950 . S
H1250 C1258 0.950 . S
H1251 C1260 0.950 . S
H1252 C1262 0.950 . S
H1253 C1264 0.950 . S
H1254 C1266 0.950 . S
H1255 C1267 0.950 . S
C1256 H1248 0.950 . S
C1256 C1257 1.386 . S
C1256 C1258 1.391 . S
C1257 C1256 1.386 . S
C1257 C1261 1.393 . S
C1258 H1250 0.950 . S
C1258 C1256 1.391 . S
C1258 C1259 1.400 . S
C1259 C1258 1.400 . S
C1259 C1260 1.398 . S
C1259 C1265 1.491 . S
C1260 H1251 0.950 . S
C1260 C1259 1.398 . S
C1260 C1261 1.391 . S
C1261 H1249 0.950 . S
C1261 C1257 1.393 . S
C1261 C1260 1.391 . S
C1262 H1252 0.950 . S
C1262 C1263 1.386 . S
C1262 C1264 1.391 . S
C1263 C1262 1.386 . S
C1263 C1267 1.393 . S
C1264 H1253 0.950 . S
C1264 C1262 1.391 . S
C1264 C1265 1.400 . S
C1265 C1259 1.491 . S
C1265 C1264 1.400 . S
C1265 C1266 1.398 . S
C1266 H1254 0.950 . S
C1266 C1265 1.398 . S
C1266 C1267 1.391 . S
C1267 H1255 0.950 . S
C1267 C1263 1.393 . S
C1267 C1266 1.391 . S
H1268 C1276 0.950 . S
H1269 C1281 0.950 . S
H1270 C1278 0.950 . S
H1271 C1280 0.950 . S
H1272 C1282 0.950 . S
H1273 C1284 0.950 . S
H1274 C1286 0.950 . S
H1275 C1287 0.950 . S
C1276 H1268 0.950 . S
C1276 C1277 1.386 . S
C1276 C1278 1.391 . S
C1277 C1276 1.386 . S
C1277 C1281 1.393 . S
C1278 H1270 0.950 . S
C1278 C1276 1.391 . S
C1278 C1279 1.400 . S
C1279 C1278 1.400 . S
C1279 C1280 1.398 . S
C1279 C1285 1.491 . S
C1280 H1271 0.950 . S
C1280 C1279 1.398 . S
C1280 C1281 1.391 . S
C1281 H1269 0.950 . S
C1281 C1277 1.393 . S
C1281 C1280 1.391 . S
C1282 H1272 0.950 . S
C1282 C1283 1.386 . S
C1282 C1284 1.391 . S
C1283 C1282 1.386 . S
C1283 C1287 1.393 . S
C1284 H1273 0.950 . S
C1284 C1282 1.391 . S
C1284 C1285 1.400 . S
C1285 C1279 1.491 . S
C1285 C1284 1.400 . S
C1285 C1286 1.398 . S
C1286 H1274 0.950 . S
C1286 C1285 1.398 . S
C1286 C1287 1.391 . S
C1287 H1275 0.950 . S
C1287 C1283 1.393 . S
C1287 C1286 1.391 . S
H1288 C1296 0.950 . S
H1289 C1301 0.950 . S
H1290 C1298 0.950 . S
H1291 C1300 0.950 . S
H1292 C1302 0.950 . S
H1293 C1304 0.950 . S
H1294 C1306 0.950 . S
H1295 C1307 0.950 . S
C1296 H1288 0.950 . S
C1296 C1297 1.386 . S
C1296 C1298 1.391 . S
C1297 C1296 1.386 . S
C1297 C1301 1.393 . S
C1298 H1290 0.950 . S
C1298 C1296 1.391 . S
C1298 C1299 1.400 . S
C1299 C1298 1.400 . S
C1299 C1300 1.398 . S
C1299 C1305 1.491 . S
C1300 H1291 0.950 . S
C1300 C1299 1.398 . S
C1300 C1301 1.391 . S
C1301 H1289 0.950 . S
C1301 C1297 1.393 . S
C1301 C1300 1.391 . S
C1302 H1292 0.950 . S
C1302 C1303 1.386 . S
C1302 C1304 1.391 . S
C1303 C1302 1.386 . S
C1303 C1307 1.393 . S
C1304 H1293 0.950 . S
C1304 C1302 1.391 . S
C1304 C1305 1.400 . S
C1305 C1299 1.491 . S
C1305 C1304 1.400 . S
C1305 C1306 1.398 . S
C1306 H1294 0.950 . S
C1306 C1305 1.398 . S
C1306 C1307 1.391 . S
C1307 H1295 0.950 . S
C1307 C1303 1.393 . S
C1307 C1306 1.391 . S
H1308 C1316 0.950 . S
H1309 C1321 0.950 . S
H1310 C1318 0.950 . S
H1311 C1320 0.950 . S
H1312 C1322 0.950 . S
H1313 C1324 0.950 . S
H1314 C1326 0.950 . S
H1315 C1327 0.950 . S
C1316 H1308 0.950 . S
C1316 C1317 1.386 . S
C1316 C1318 1.391 . S
C1317 C1316 1.386 . S
C1317 C1321 1.393 . S
C1318 H1310 0.950 . S
C1318 C1316 1.391 . S
C1318 C1319 1.400 . S
C1319 C1318 1.400 . S
C1319 C1320 1.398 . S
C1319 C1325 1.491 . S
C1320 H1311 0.950 . S
C1320 C1319 1.398 . S
C1320 C1321 1.391 . S
C1321 H1309 0.950 . S
C1321 C1317 1.393 . S
C1321 C1320 1.391 . S
C1322 H1312 0.950 . S
C1322 C1323 1.386 . S
C1322 C1324 1.391 . S
C1323 C1322 1.386 . S
C1323 C1327 1.393 . S
C1324 H1313 0.950 . S
C1324 C1322 1.391 . S
C1324 C1325 1.400 . S
C1325 C1319 1.491 . S
C1325 C1324 1.400 . S
C1325 C1326 1.398 . S
C1326 H1314 0.950 . S
C1326 C1325 1.398 . S
C1326 C1327 1.391 . S
C1327 H1315 0.950 . S
C1327 C1323 1.393 . S
C1327 C1326 1.391 . S
H1328 C1336 0.950 . S
H1329 C1341 0.950 . S
H1330 C1338 0.950 . S
H1331 C1340 0.950 . S
H1332 C1342 0.950 . S
H1333 C1344 0.950 . S
H1334 C1346 0.950 . S
H1335 C1347 0.950 . S
C1336 H1328 0.950 . S
C1336 C1337 1.386 . S
C1336 C1338 1.391 . S
C1337 C1336 1.386 . S
C1337 C1341 1.393 . S
C1338 H1330 0.950 . S
C1338 C1336 1.391 . S
C1338 C1339 1.400 . S
C1339 C1338 1.400 . S
C1339 C1340 1.398 . S
C1339 C1345 1.491 . S
C1340 H1331 0.950 . S
C1340 C1339 1.398 . S
C1340 C1341 1.391 . S
C1341 H1329 0.950 . S
C1341 C1337 1.393 . S
C1341 C1340 1.391 . S
C1342 H1332 0.950 . S
C1342 C1343 1.386 . S
C1342 C1344 1.391 . S
C1343 C1342 1.386 . S
C1343 C1347 1.393 . S
C1344 H1333 0.950 . S
C1344 C1342 1.391 . S
C1344 C1345 1.400 . S
C1345 C1339 1.491 . S
C1345 C1344 1.400 . S
C1345 C1346 1.398 . S
C1346 H1334 0.950 . S
C1346 C1345 1.398 . S
C1346 C1347 1.391 . S
C1347 H1335 0.950 . S
C1347 C1343 1.393 . S
C1347 C1346 1.391 . S
H1348 C1356 0.950 . S
H1349 C1361 0.950 . S
H1350 C1358 0.950 . S
H1351 C1360 0.950 . S
H1352 C1362 0.950 . S
H1353 C1364 0.950 . S
H1354 C1366 0.950 . S
H1355 C1367 0.950 . S
C1356 H1348 0.950 . S
C1356 C1357 1.386 . S
C1356 C1358 1.391 . S
C1357 C1356 1.386 . S
C1357 C1361 1.393 . S
C1358 H1350 0.950 . S
C1358 C1356 1.391 . S
C1358 C1359 1.400 . S
C1359 C1358 1.400 . S
C1359 C1360 1.398 . S
C1359 C1365 1.491 . S
C1360 H1351 0.950 . S
C1360 C1359 1.398 . S
C1360 C1361 1.391 . S
C1361 H1349 0.950 . S
C1361 C1357 1.393 . S
C1361 C1360 1.391 . S
C1362 H1352 0.950 . S
C1362 C1363 1.386 . S
C1362 C1364 1.391 . S
C1363 C1362 1.386 . S
C1363 C1367 1.393 . S
C1364 H1353 0.950 . S
C1364 C1362 1.391 . S
C1364 C1365 1.400 . S
C1365 C1359 1.491 . S
C1365 C1364 1.400 . S
C1365 C1366 1.398 . S
C1366 H1354 0.950 . S
C1366 C1365 1.398 . S
C1366 C1367 1.391 . S
C1367 H1355 0.950 . S
C1367 C1363 1.393 . S
C1367 C1366 1.391 . S
H1368 C1376 0.950 . S
H1369 C1381 0.950 . S
H1370 C1378 0.950 . S
H1371 C1380 0.950 . S
H1372 C1382 0.950 . S
H1373 C1384 0.950 . S
H1374 C1386 0.950 . S
H1375 C1387 0.950 . S
C1376 H1368 0.950 . S
C1376 C1377 1.386 . S
C1376 C1378 1.391 . S
C1377 C1376 1.386 . S
C1377 C1381 1.393 . S
C1378 H1370 0.950 . S
C1378 C1376 1.391 . S
C1378 C1379 1.400 . S
C1379 C1378 1.400 . S
C1379 C1380 1.398 . S
C1379 C1385 1.491 . S
C1380 H1371 0.950 . S
C1380 C1379 1.398 . S
C1380 C1381 1.391 . S
C1381 H1369 0.950 . S
C1381 C1377 1.393 . S
C1381 C1380 1.391 . S
C1382 H1372 0.950 . S
C1382 C1383 1.386 . S
C1382 C1384 1.391 . S
C1383 C1382 1.386 . S
C1383 C1387 1.393 . S
C1384 H1373 0.950 . S
C1384 C1382 1.391 . S
C1384 C1385 1.400 . S
C1385 C1379 1.491 . S
C1385 C1384 1.400 . S
C1385 C1386 1.398 . S
C1386 H1374 0.950 . S
C1386 C1385 1.398 . S
C1386 C1387 1.391 . S
C1387 H1375 0.950 . S
C1387 C1383 1.393 . S
C1387 C1386 1.391 . S
H1388 C1396 0.950 . S
H1389 C1401 0.950 . S
H1390 C1398 0.950 . S
H1391 C1400 0.950 . S
H1392 C1402 0.950 . S
H1393 C1404 0.950 . S
H1394 C1406 0.950 . S
H1395 C1407 0.950 . S
C1396 H1388 0.950 . S
C1396 C1397 1.386 . S
C1396 C1398 1.391 . S
C1397 C1396 1.386 . S
C1397 C1401 1.393 . S
C1398 H1390 0.950 . S
C1398 C1396 1.391 . S
C1398 C1399 1.400 . S
C1399 C1398 1.400 . S
C1399 C1400 1.398 . S
C1399 C1405 1.491 . S
C1400 H1391 0.950 . S
C1400 C1399 1.398 . S
C1400 C1401 1.391 . S
C1401 H1389 0.950 . S
C1401 C1397 1.393 . S
C1401 C1400 1.391 . S
C1402 H1392 0.950 . S
C1402 C1403 1.386 . S
C1402 C1404 1.391 . S
C1403 C1402 1.386 . S
C1403 C1407 1.393 . S
C1404 H1393 0.950 . S
C1404 C1402 1.391 . S
C1404 C1405 1.400 . S
C1405 C1399 1.491 . S
C1405 C1404 1.400 . S
C1405 C1406 1.398 . S
C1406 H1394 0.950 . S
C1406 C1405 1.398 . S
C1406 C1407 1.391 . S
C1407 H1395 0.950 . S
C1407 C1403 1.393 . S
C1407 C1406 1.391 . S
H1408 C1416 0.950 . S
H1409 C1421 0.950 . S
H1410 C1418 0.950 . S
H1411 C1420 0.950 . S
H1412 C1422 0.950 . S
H1413 C1424 0.950 . S
H1414 C1426 0.950 . S
H1415 C1427 0.950 . S
C1416 H1408 0.950 . S
C1416 C1417 1.386 . S
C1416 C1418 1.391 . S
C1417 C1416 1.386 . S
C1417 C1421 1.393 . S
C1418 H1410 0.950 . S
C1418 C1416 1.391 . S
C1418 C1419 1.400 . S
C1419 C1418 1.400 . S
C1419 C1420 1.398 . S
C1419 C1425 1.491 . S
C1420 H1411 0.950 . S
C1420 C1419 1.398 . S
C1420 C1421 1.391 . S
C1421 H1409 0.950 . S
C1421 C1417 1.393 . S
C1421 C1420 1.391 . S
C1422 H1412 0.950 . S
C1422 C1423 1.386 . S
C1422 C1424 1.391 . S
C1423 C1422 1.386 . S
C1423 C1427 1.393 . S
C1424 H1413 0.950 . S
C1424 C1422 1.391 . S
C1424 C1425 1.400 . S
C1425 C1419 1.491 . S
C1425 C1424 1.400 . S
C1425 C1426 1.398 . S
C1426 H1414 0.950 . S
C1426 C1425 1.398 . S
C1426 C1427 1.391 . S
C1427 H1415 0.950 . S
C1427 C1423 1.393 . S
C1427 C1426 1.391 . S
H1428 C1436 0.950 . S
H1429 C1441 0.950 . S
H1430 C1438 0.950 . S
H1431 C1440 0.950 . S
H1432 C1442 0.950 . S
H1433 C1444 0.950 . S
H1434 C1446 0.950 . S
H1435 C1447 0.950 . S
C1436 H1428 0.950 . S
C1436 C1437 1.386 . S
C1436 C1438 1.391 . S
C1437 C1436 1.386 . S
C1437 C1441 1.393 . S
C1438 H1430 0.950 . S
C1438 C1436 1.391 . S
C1438 C1439 1.400 . S
C1439 C1438 1.400 . S
C1439 C1440 1.398 . S
C1439 C1445 1.491 . S
C1440 H1431 0.950 . S
C1440 C1439 1.398 . S
C1440 C1441 1.391 . S
C1441 H1429 0.950 . S
C1441 C1437 1.393 . S
C1441 C1440 1.391 . S
C1442 H1432 0.950 . S
C1442 C1443 1.386 . S
C1442 C1444 1.391 . S
C1443 C1442 1.386 . S
C1443 C1447 1.393 . S
C1444 H1433 0.950 . S
C1444 C1442 1.391 . S
C1444 C1445 1.400 . S
C1445 C1439 1.491 . S
C1445 C1444 1.400 . S
C1445 C1446 1.398 . S
C1446 H1434 0.950 . S
C1446 C1445 1.398 . S
C1446 C1447 1.391 . S
C1447 H1435 0.950 . S
C1447 C1443 1.393 . S
C1447 C1446 1.391 . S
H1448 C1456 0.950 . S
H1449 C1461 0.950 . S
H1450 C1458 0.950 . S
H1451 C1460 0.950 . S
H1452 C1462 0.950 . S
H1453 C1464 0.950 . S
H1454 C1466 0.950 . S
H1455 C1467 0.950 . S
C1456 H1448 0.950 . S
C1456 C1457 1.386 . S
C1456 C1458 1.391 . S
C1457 C1456 1.386 . S
C1457 C1461 1.393 . S
C1458 H1450 0.950 . S
C1458 C1456 1.391 . S
C1458 C1459 1.400 . S
C1459 C1458 1.400 . S
C1459 C1460 1.398 . S
C1459 C1465 1.491 . S
C1460 H1451 0.950 . S
C1460 C1459 1.398 . S
C1460 C1461 1.391 . S
C1461 H1449 0.950 . S
C1461 C1457 1.393 . S
C1461 C1460 1.391 . S
C1462 H1452 0.950 . S
C1462 C1463 1.386 . S
C1462 C1464 1.391 . S
C1463 C1462 1.386 . S
C1463 C1467 1.393 . S
C1464 H1453 0.950 . S
C1464 C1462 1.391 . S
C1464 C1465 1.400 . S
C1465 C1459 1.491 . S
C1465 C1464 1.400 . S
C1465 C1466 1.398 . S
C1466 H1454 0.950 . S
C1466 C1465 1.398 . S
C1466 C1467 1.391 . S
C1467 H1455 0.950 . S
C1467 C1463 1.393 . S
C1467 C1466 1.391 . S
H1468 C1476 0.950 . S
H1469 C1481 0.950 . S
H1470 C1478 0.950 . S
H1471 C1480 0.950 . S
H1472 C1482 0.950 . S
H1473 C1484 0.950 . S
H1474 C1486 0.950 . S
H1475 C1487 0.950 . S
C1476 H1468 0.950 . S
C1476 C1477 1.386 . S
C1476 C1478 1.391 . S
C1477 C1476 1.386 . S
C1477 C1481 1.393 . S
C1478 H1470 0.950 . S
C1478 C1476 1.391 . S
C1478 C1479 1.400 . S
C1479 C1478 1.400 . S
C1479 C1480 1.398 . S
C1479 C1485 1.491 . S
C1480 H1471 0.950 . S
C1480 C1479 1.398 . S
C1480 C1481 1.391 . S
C1481 H1469 0.950 . S
C1481 C1477 1.393 . S
C1481 C1480 1.391 . S
C1482 H1472 0.950 . S
C1482 C1483 1.386 . S
C1482 C1484 1.391 . S
C1483 C1482 1.386 . S
C1483 C1487 1.393 . S
C1484 H1473 0.950 . S
C1484 C1482 1.391 . S
C1484 C1485 1.400 . S
C1485 C1479 1.491 . S
C1485 C1484 1.400 . S
C1485 C1486 1.398 . S
C1486 H1474 0.950 . S
C1486 C1485 1.398 . S
C1486 C1487 1.391 . S
C1487 H1475 0.950 . S
C1487 C1483 1.393 . S
C1487 C1486 1.391 . S
H1488 C1496 0.950 . S
H1489 C1501 0.950 . S
H1490 C1498 0.950 . S
H1491 C1500 0.950 . S
H1492 C1502 0.950 . S
H1493 C1504 0.950 . S
H1494 C1506 0.950 . S
H1495 C1507 0.950 . S
C1496 H1488 0.950 . S
C1496 C1497 1.386 . S
C1496 C1498 1.391 . S
C1497 C1496 1.386 . S
C1497 C1501 1.393 . S
C1498 H1490 0.950 . S
C1498 C1496 1.391 . S
C1498 C1499 1.400 . S
C1499 C1498 1.400 . S
C1499 C1500 1.398 . S
C1499 C1505 1.491 . S
C1500 H1491 0.950 . S
C1500 C1499 1.398 . S
C1500 C1501 1.391 . S
C1501 H1489 0.950 . S
C1501 C1497 1.393 . S
C1501 C1500 1.391 . S
C1502 H1492 0.950 . S
C1502 C1503 1.386 . S
C1502 C1504 1.391 . S
C1503 C1502 1.386 . S
C1503 C1507 1.393 . S
C1504 H1493 0.950 . S
C1504 C1502 1.391 . S
C1504 C1505 1.400 . S
C1505 C1499 1.491 . S
C1505 C1504 1.400 . S
C1505 C1506 1.398 . S
C1506 H1494 0.950 . S
C1506 C1505 1.398 . S
C1506 C1507 1.391 . S
C1507 H1495 0.950 . S
C1507 C1503 1.393 . S
C1507 C1506 1.391 . S
H1508 C1516 0.950 . S
H1509 C1521 0.950 . S
H1510 C1518 0.950 . S
H1511 C1520 0.950 . S
H1512 C1522 0.950 . S
H1513 C1524 0.950 . S
H1514 C1526 0.950 . S
H1515 C1527 0.950 . S
C1516 H1508 0.950 . S
C1516 C1517 1.386 . S
C1516 C1518 1.391 . S
C1517 C1516 1.386 . S
C1517 C1521 1.393 . S
C1518 H1510 0.950 . S
C1518 C1516 1.391 . S
C1518 C1519 1.400 . S
C1519 C1518 1.400 . S
C1519 C1520 1.398 . S
C1519 C1525 1.491 . S
C1520 H1511 0.950 . S
C1520 C1519 1.398 . S
C1520 C1521 1.391 . S
C1521 H1509 0.950 . S
C1521 C1517 1.393 . S
C1521 C1520 1.391 . S
C1522 H1512 0.950 . S
C1522 C1523 1.386 . S
C1522 C1524 1.391 . S
C1523 C1522 1.386 . S
C1523 C1527 1.393 . S
C1524 H1513 0.950 . S
C1524 C1522 1.391 . S
C1524 C1525 1.400 . S
C1525 C1519 1.491 . S
C1525 C1524 1.400 . S
C1525 C1526 1.398 . S
C1526 H1514 0.950 . S
C1526 C1525 1.398 . S
C1526 C1527 1.391 . S
C1527 H1515 0.950 . S
C1527 C1523 1.393 . S
C1527 C1526 1.391 . S
H1528 C1536 0.950 . S
H1529 C1541 0.950 . S
H1530 C1538 0.950 . S
H1531 C1540 0.950 . S
H1532 C1542 0.950 . S
H1533 C1544 0.950 . S
H1534 C1546 0.950 . S
H1535 C1547 0.950 . S
C1536 H1528 0.950 . S
C1536 C1537 1.386 . S
C1536 C1538 1.391 . S
C1537 C1536 1.386 . S
C1537 C1541 1.393 . S
C1538 H1530 0.950 . S
C1538 C1536 1.391 . S
C1538 C1539 1.400 . S
C1539 C1538 1.400 . S
C1539 C1540 1.398 . S
C1539 C1545 1.491 . S
C1540 H1531 0.950 . S
C1540 C1539 1.398 . S
C1540 C1541 1.391 . S
C1541 H1529 0.950 . S
C1541 C1537 1.393 . S
C1541 C1540 1.391 . S
C1542 H1532 0.950 . S
C1542 C1543 1.386 . S
C1542 C1544 1.391 . S
C1543 C1542 1.386 . S
C1543 C1547 1.393 . S
C1544 H1533 0.950 . S
C1544 C1542 1.391 . S
C1544 C1545 1.400 . S
C1545 C1539 1.491 . S
C1545 C1544 1.400 . S
C1545 C1546 1.398 . S
C1546 H1534 0.950 . S
C1546 C1545 1.398 . S
C1546 C1547 1.391 . S
C1547 H1535 0.950 . S
C1547 C1543 1.393 . S
C1547 C1546 1.391 . S
H1548 C1556 0.950 . S
H1549 C1561 0.950 . S
H1550 C1558 0.950 . S
H1551 C1560 0.950 . S
H1552 C1562 0.950 . S
H1553 C1564 0.950 . S
H1554 C1566 0.950 . S
H1555 C1567 0.950 . S
C1556 H1548 0.950 . S
C1556 C1557 1.386 . S
C1556 C1558 1.391 . S
C1557 C1556 1.386 . S
C1557 C1561 1.393 . S
C1558 H1550 0.950 . S
C1558 C1556 1.391 . S
C1558 C1559 1.400 . S
C1559 C1558 1.400 . S
C1559 C1560 1.398 . S
C1559 C1565 1.491 . S
C1560 H1551 0.950 . S
C1560 C1559 1.398 . S
C1560 C1561 1.391 . S
C1561 H1549 0.950 . S
C1561 C1557 1.393 . S
C1561 C1560 1.391 . S
C1562 H1552 0.950 . S
C1562 C1563 1.386 . S
C1562 C1564 1.391 . S
C1563 C1562 1.386 . S
C1563 C1567 1.393 . S
C1564 H1553 0.950 . S
C1564 C1562 1.391 . S
C1564 C1565 1.400 . S
C1565 C1559 1.491 . S
C1565 C1564 1.400 . S
C1565 C1566 1.398 . S
C1566 H1554 0.950 . S
C1566 C1565 1.398 . S
C1566 C1567 1.391 . S
C1567 H1555 0.950 . S
C1567 C1563 1.393 . S
C1567 C1566 1.391 . S
H1568 C1576 0.950 . S
H1569 C1581 0.950 . S
H1570 C1578 0.950 . S
H1571 C1580 0.950 . S
H1572 C1582 0.950 . S
H1573 C1584 0.950 . S
H1574 C1586 0.950 . S
H1575 C1587 0.950 . S
C1576 H1568 0.950 . S
C1576 C1577 1.386 . S
C1576 C1578 1.391 . S
C1577 C1576 1.386 . S
C1577 C1581 1.393 . S
C1578 H1570 0.950 . S
C1578 C1576 1.391 . S
C1578 C1579 1.400 . S
C1579 C1578 1.400 . S
C1579 C1580 1.398 . S
C1579 C1585 1.491 . S
C1580 H1571 0.950 . S
C1580 C1579 1.398 . S
C1580 C1581 1.391 . S
C1581 H1569 0.950 . S
C1581 C1577 1.393 . S
C1581 C1580 1.391 . S
C1582 H1572 0.950 . S
C1582 C1583 1.386 . S
C1582 C1584 1.391 . S
C1583 C1582 1.386 . S
C1583 C1587 1.393 . S
C1584 H1573 0.950 . S
C1584 C1582 1.391 . S
C1584 C1585 1.400 . S
C1585 C1579 1.491 . S
C1585 C1584 1.400 . S
C1585 C1586 1.398 . S
C1586 H1574 0.950 . S
C1586 C1585 1.398 . S
C1586 C1587 1.391 . S
C1587 H1575 0.950 . S
C1587 C1583 1.393 . S
C1587 C1586 1.391 . S
H1588 C1596 0.950 . S
H1589 C1601 0.950 . S
H1590 C1598 0.950 . S
H1591 C1600 0.950 . S
H1592 C1602 0.950 . S
H1593 C1604 0.950 . S
H1594 C1606 0.950 . S
H1595 C1607 0.950 . S
C1596 H1588 0.950 . S
C1596 C1597 1.386 . S
C1596 C1598 1.391 . S
C1597 C1596 1.386 . S
C1597 C1601 1.393 . S
C1598 H1590 0.950 . S
C1598 C1596 1.391 . S
C1598 C1599 1.400 . S
C1599 C1598 1.400 . S
C1599 C1600 1.398 . S
C1599 C1605 1.491 . S
C1600 H1591 0.950 . S
C1600 C1599 1.398 . S
C1600 C1601 1.391 . S
C1601 H1589 0.950 . S
C1601 C1597 1.393 . S
C1601 C1600 1.391 . S
C1602 H1592 0.950 . S
C1602 C1603 1.386 . S
C1602 C1604 1.391 . S
C1603 C1602 1.386 . S
C1603 C1607 1.393 . S
C1604 H1593 0.950 . S
C1604 C1602 1.391 . S
C1604 C1605 1.400 . S
C1605 C1599 1.491 . S
C1605 C1604 1.400 . S
C1605 C1606 1.398 . S
C1606 H1594 0.950 . S
C1606 C1605 1.398 . S
C1606 C1607 1.391 . S
C1607 H1595 0.950 . S
C1607 C1603 1.393 . S
C1607 C1606 1.391 . S
H1608 C1616 0.950 . S
H1609 C1621 0.950 . S
H1610 C1618 0.950 . S
H1611 C1620 0.950 . S
H1612 C1622 0.950 . S
H1613 C1624 0.950 . S
H1614 C1626 0.950 . S
H1615 C1627 0.950 . S
C1616 H1608 0.950 . S
C1616 C1617 1.386 . S
C1616 C1618 1.391 . S
C1617 C1616 1.386 . S
C1617 C1621 1.393 . S
C1618 H1610 0.950 . S
C1618 C1616 1.391 . S
C1618 C1619 1.400 . S
C1619 C1618 1.400 . S
C1619 C1620 1.398 . S
C1619 C1625 1.491 . S
C1620 H1611 0.950 . S
C1620 C1619 1.398 . S
C1620 C1621 1.391 . S
C1621 H1609 0.950 . S
C1621 C1617 1.393 . S
C1621 C1620 1.391 . S
C1622 H1612 0.950 . S
C1622 C1623 1.386 . S
C1622 C1624 1.391 . S
C1623 C1622 1.386 . S
C1623 C1627 1.393 . S
C1624 H1613 0.950 . S
C1624 C1622 1.391 . S
C1624 C1625 1.400 . S
C1625 C1619 1.491 . S
C1625 C1624 1.400 . S
C1625 C1626 1.398 . S
C1626 H1614 0.950 . S
C1626 C1625 1.398 . S
C1626 C1627 1.391 . S
C1627 H1615 0.950 . S
C1627 C1623 1.393 . S
C1627 C1626 1.391 . S
H1628 C1636 0.950 . S
H1629 C1641 0.950 . S
H1630 C1638 0.950 . S
H1631 C1640 0.950 . S
H1632 C1642 0.950 . S
H1633 C1644 0.950 . S
H1634 C1646 0.950 . S
H1635 C1647 0.950 . S
C1636 H1628 0.950 . S
C1636 C1637 1.386 . S
C1636 C1638 1.391 . S
C1637 C1636 1.386 . S
C1637 C1641 1.393 . S
C1638 H1630 0.950 . S
C1638 C1636 1.391 . S
C1638 C1639 1.400 . S
C1639 C1638 1.400 . S
C1639 C1640 1.398 . S
C1639 C1645 1.491 . S
C1640 H1631 0.950 . S
C1640 C1639 1.398 . S
C1640 C1641 1.391 . S
C1641 H1629 0.950 . S
C1641 C1637 1.393 . S
C1641 C1640 1.391 . S
C1642 H1632 0.950 . S
C1642 C1643 1.386 . S
C1642 C1644 1.391 . S
C1643 C1642 1.386 . S
C1643 C1647 1.393 . S
C1644 H1633 0.950 . S
C1644 C1642 1.391 . S
C1644 C1645 1.400 . S
C1645 C1639 1.491 . S
C1645 C1644 1.400 . S
C1645 C1646 1.398 . S
C1646 H1634 0.950 . S
C1646 C1645 1.398 . S
C1646 C1647 1.391 . S
C1647 H1635 0.950 . S
C1647 C1643 1.393 . S
C1647 C1646 1.391 . S
H1648 C1656 0.950 . S
H1649 C1661 0.950 . S
H1650 C1658 0.950 . S
H1651 C1660 0.950 . S
H1652 C1662 0.950 . S
H1653 C1664 0.950 . S
H1654 C1666 0.950 . S
H1655 C1667 0.950 . S
C1656 H1648 0.950 . S
C1656 C1657 1.386 . S
C1656 C1658 1.391 . S
C1657 C1656 1.386 . S
C1657 C1661 1.393 . S
C1658 H1650 0.950 . S
C1658 C1656 1.391 . S
C1658 C1659 1.400 . S
C1659 C1658 1.400 . S
C1659 C1660 1.398 . S
C1659 C1665 1.491 . S
C1660 H1651 0.950 . S
C1660 C1659 1.398 . S
C1660 C1661 1.391 . S
C1661 H1649 0.950 . S
C1661 C1657 1.393 . S
C1661 C1660 1.391 . S
C1662 H1652 0.950 . S
C1662 C1663 1.386 . S
C1662 C1664 1.391 . S
C1663 C1662 1.386 . S
C1663 C1667 1.393 . S
C1664 H1653 0.950 . S
C1664 C1662 1.391 . S
C1664 C1665 1.400 . S
C1665 C1659 1.491 . S
C1665 C1664 1.400 . S
C1665 C1666 1.398 . S
C1666 H1654 0.950 . S
C1666 C1665 1.398 . S
C1666 C1667 1.391 . S
C1667 H1655 0.950 . S
C1667 C1663 1.393 . S
C1667 C1666 1.391 . S
H1668 C1676 0.950 . S
H1669 C1681 0.950 . S
H1670 C1678 0.950 . S
H1671 C1680 0.950 . S
H1672 C1682 0.950 . S
H1673 C1684 0.950 . S
H1674 C1686 0.950 . S
H1675 C1687 0.950 . S
C1676 H1668 0.950 . S
C1676 C1677 1.386 . S
C1676 C1678 1.391 . S
C1677 C1676 1.386 . S
C1677 C1681 1.393 . S
C1678 H1670 0.950 . S
C1678 C1676 1.391 . S
C1678 C1679 1.400 . S
C1679 C1678 1.400 . S
C1679 C1680 1.398 . S
C1679 C1685 1.491 . S
C1680 H1671 0.950 . S
C1680 C1679 1.398 . S
C1680 C1681 1.391 . S
C1681 H1669 0.950 . S
C1681 C1677 1.393 . S
C1681 C1680 1.391 . S
C1682 H1672 0.950 . S
C1682 C1683 1.386 . S
C1682 C1684 1.391 . S
C1683 C1682 1.386 . S
C1683 C1687 1.393 . S
C1684 H1673 0.950 . S
C1684 C1682 1.391 . S
C1684 C1685 1.400 . S
C1685 C1679 1.491 . S
C1685 C1684 1.400 . S
C1685 C1686 1.398 . S
C1686 H1674 0.950 . S
C1686 C1685 1.398 . S
C1686 C1687 1.391 . S
C1687 H1675 0.950 . S
C1687 C1683 1.393 . S
C1687 C1686 1.391 . S
H1688 C1696 0.950 . S
H1689 C1701 0.950 . S
H1690 C1698 0.950 . S
H1691 C1700 0.950 . S
H1692 C1702 0.950 . S
H1693 C1704 0.950 . S
H1694 C1706 0.950 . S
H1695 C1707 0.950 . S
C1696 H1688 0.950 . S
C1696 C1697 1.386 . S
C1696 C1698 1.391 . S
C1697 C1696 1.386 . S
C1697 C1701 1.393 . S
C1698 H1690 0.950 . S
C1698 C1696 1.391 . S
C1698 C1699 1.400 . S
C1699 C1698 1.400 . S
C1699 C1700 1.398 . S
C1699 C1705 1.491 . S
C1700 H1691 0.950 . S
C1700 C1699 1.398 . S
C1700 C1701 1.391 . S
C1701 H1689 0.950 . S
C1701 C1697 1.393 . S
C1701 C1700 1.391 . S
C1702 H1692 0.950 . S
C1702 C1703 1.386 . S
C1702 C1704 1.391 . S
C1703 C1702 1.386 . S
C1703 C1707 1.393 . S
C1704 H1693 0.950 . S
C1704 C1702 1.391 . S
C1704 C1705 1.400 . S
C1705 C1699 1.491 . S
C1705 C1704 1.400 . S
C1705 C1706 1.398 . S
C1706 H1694 0.950 . S
C1706 C1705 1.398 . S
C1706 C1707 1.391 . S
C1707 H1695 0.950 . S
C1707 C1703 1.393 . S
C1707 C1706 1.391 . S
H1708 C1716 0.950 . S
H1709 C1721 0.950 . S
H1710 C1718 0.950 . S
H1711 C1720 0.950 . S
H1712 C1722 0.950 . S
H1713 C1724 0.950 . S
H1714 C1726 0.950 . S
H1715 C1727 0.950 . S
C1716 H1708 0.950 . S
C1716 C1717 1.386 . S
C1716 C1718 1.391 . S
C1717 C1716 1.386 . S
C1717 C1721 1.393 . S
C1718 H1710 0.950 . S
C1718 C1716 1.391 . S
C1718 C1719 1.400 . S
C1719 C1718 1.400 . S
C1719 C1720 1.398 . S
C1719 C1725 1.491 . S
C1720 H1711 0.950 . S
C1720 C1719 1.398 . S
C1720 C1721 1.391 . S
C1721 H1709 0.950 . S
C1721 C1717 1.393 . S
C1721 C1720 1.391 . S
C1722 H1712 0.950 . S
C1722 C1723 1.386 . S
C1722 C1724 1.391 . S
C1723 C1722 1.386 . S
C1723 C1727 1.393 . S
C1724 H1713 0.950 . S
C1724 C1722 1.391 . S
C1724 C1725 1.400 . S
C1725 C1719 1.491 . S
C1725 C1724 1.400 . S
C1725 C1726 1.398 . S
C1726 H1714 0.950 . S
C1726 C1725 1.398 . S
C1726 C1727 1.391 . S
C1727 H1715 0.950 . S
C1727 C1723 1.393 . S
C1727 C1726 1.391 . S
H1728 C1736 0.950 . S
H1729 C1741 0.950 . S
H1730 C1738 0.950 . S
H1731 C1740 0.950 . S
H1732 C1742 0.950 . S
H1733 C1744 0.950 . S
H1734 C1746 0.950 . S
H1735 C1747 0.950 . S
C1736 H1728 0.950 . S
C1736 C1737 1.386 . S
C1736 C1738 1.391 . S
C1737 C1736 1.386 . S
C1737 C1741 1.393 . S
C1738 H1730 0.950 . S
C1738 C1736 1.391 . S
C1738 C1739 1.400 . S
C1739 C1738 1.400 . S
C1739 C1740 1.398 . S
C1739 C1745 1.491 . S
C1740 H1731 0.950 . S
C1740 C1739 1.398 . S
C1740 C1741 1.391 . S
C1741 H1729 0.950 . S
C1741 C1737 1.393 . S
C1741 C1740 1.391 . S
C1742 H1732 0.950 . S
C1742 C1743 1.386 . S
C1742 C1744 1.391 . S
C1743 C1742 1.386 . S
C1743 C1747 1.393 . S
C1744 H1733 0.950 . S
C1744 C1742 1.391 . S
C1744 C1745 1.400 . S
C1745 C1739 1.491 . S
C1745 C1744 1.400 . S
C1745 C1746 1.398 . S
C1746 H1734 0.950 . S
C1746 C1745 1.398 . S
C1746 C1747 1.391 . S
C1747 H1735 0.950 . S
C1747 C1743 1.393 . S
C1747 C1746 1.391 . S
H1748 C1756 0.950 . S
H1749 C1761 0.950 . S
H1750 C1758 0.950 . S
H1751 C1760 0.950 . S
H1752 C1762 0.950 . S
H1753 C1764 0.950 . S
H1754 C1766 0.950 . S
H1755 C1767 0.950 . S
C1756 H1748 0.950 . S
C1756 C1757 1.386 . S
C1756 C1758 1.391 . S
C1757 C1756 1.386 . S
C1757 C1761 1.393 . S
C1758 H1750 0.950 . S
C1758 C1756 1.391 . S
C1758 C1759 1.400 . S
C1759 C1758 1.400 . S
C1759 C1760 1.398 . S
C1759 C1765 1.491 . S
C1760 H1751 0.950 . S
C1760 C1759 1.398 . S
C1760 C1761 1.391 . S
C1761 H1749 0.950 . S
C1761 C1757 1.393 . S
C1761 C1760 1.391 . S
C1762 H1752 0.950 . S
C1762 C1763 1.386 . S
C1762 C1764 1.391 . S
C1763 C1762 1.386 . S
C1763 C1767 1.393 . S
C1764 H1753 0.950 . S
C1764 C1762 1.391 . S
C1764 C1765 1.400 . S
C1765 C1759 1.491 . S
C1765 C1764 1.400 . S
C1765 C1766 1.398 . S
C1766 H1754 0.950 . S
C1766 C1765 1.398 . S
C1766 C1767 1.391 . S
C1767 H1755 0.950 . S
C1767 C1763 1.393 . S
C1767 C1766 1.391 . S
H1768 C1776 0.950 . S
H1769 C1781 0.950 . S
H1770 C1778 0.950 . S
H1771 C1780 0.950 . S
H1772 C1782 0.950 . S
H1773 C1784 0.950 . S
H1774 C1786 0.950 . S
H1775 C1787 0.950 . S
C1776 H1768 0.950 . S
C1776 C1777 1.386 . S
C1776 C1778 1.391 . S
C1777 C1776 1.386 . S
C1777 C1781 1.393 . S
C1778 H1770 0.950 . S
C1778 C1776 1.391 . S
C1778 C1779 1.400 . S
C1779 C1778 1.400 . S
C1779 C1780 1.398 . S
C1779 C1785 1.491 . S
C1780 H1771 0.950 . S
C1780 C1779 1.398 . S
C1780 C1781 1.391 . S
C1781 H1769 0.950 . S
C1781 C1777 1.393 . S
C1781 C1780 1.391 . S
C1782 H1772 0.950 . S
C1782 C1783 1.386 . S
C1782 C1784 1.391 . S
C1783 C1782 1.386 . S
C1783 C1787 1.393 . S
C1784 H1773 0.950 . S
C1784 C1782 1.391 . S
C1784 C1785 1.400 . S
C1785 C1779 1.491 . S
C1785 C1784 1.400 . S
C1785 C1786 1.398 . S
C1786 H1774 0.950 . S
C1786 C1785 1.398 . S
C1786 C1787 1.391 . S
C1787 H1775 0.950 . S
C1787 C1783 1.393 . S
C1787 C1786 1.391 . S
H1788 C1796 0.950 . S
H1789 C1801 0.950 . S
H1790 C1798 0.950 . S
H1791 C1800 0.950 . S
H1792 C1802 0.950 . S
H1793 C1804 0.950 . S
H1794 C1806 0.950 . S
H1795 C1807 0.950 . S
C1796 H1788 0.950 . S
C1796 C1797 1.386 . S
C1796 C1798 1.391 . S
C1797 C1796 1.386 . S
C1797 C1801 1.393 . S
C1798 H1790 0.950 . S
C1798 C1796 1.391 . S
C1798 C1799 1.400 . S
C1799 C1798 1.400 . S
C1799 C1800 1.398 . S
C1799 C1805 1.491 . S
C1800 H1791 0.950 . S
C1800 C1799 1.398 . S
C1800 C1801 1.391 . S
C1801 H1789 0.950 . S
C1801 C1797 1.393 . S
C1801 C1800 1.391 . S
C1802 H1792 0.950 . S
C1802 C1803 1.386 . S
C1802 C1804 1.391 . S
C1803 C1802 1.386 . S
C1803 C1807 1.393 . S
C1804 H1793 0.950 . S
C1804 C1802 1.391 . S
C1804 C1805 1.400 . S
C1805 C1799 1.491 . S
C1805 C1804 1.400 . S
C1805 C1806 1.398 . S
C1806 H1794 0.950 . S
C1806 C1805 1.398 . S
C1806 C1807 1.391 . S
C1807 H1795 0.950 . S
C1807 C1803 1.393 . S
C1807 C1806 1.391 . S
H1808 C1816 0.950 . S
H1809 C1821 0.950 . S
H1810 C1818 0.950 . S
H1811 C1820 0.950 . S
H1812 C1822 0.950 . S
H1813 C1824 0.950 . S
H1814 C1826 0.950 . S
H1815 C1827 0.950 . S
C1816 H1808 0.950 . S
C1816 C1817 1.386 . S
C1816 C1818 1.391 . S
C1817 C1816 1.386 . S
C1817 C1821 1.393 . S
C1818 H1810 0.950 . S
C1818 C1816 1.391 . S
C1818 C1819 1.400 . S
C1819 C1818 1.400 . S
C1819 C1820 1.398 . S
C1819 C1825 1.491 . S
C1820 H1811 0.950 . S
C1820 C1819 1.398 . S
C1820 C1821 1.391 . S
C1821 H1809 0.950 . S
C1821 C1817 1.393 . S
C1821 C1820 1.391 . S
C1822 H1812 0.950 . S
C1822 C1823 1.386 . S
C1822 C1824 1.391 . S
C1823 C1822 1.386 . S
C1823 C1827 1.393 . S
C1824 H1813 0.950 . S
C1824 C1822 1.391 . S
C1824 C1825 1.400 . S
C1825 C1819 1.491 . S
C1825 C1824 1.400 . S
C1825 C1826 1.398 . S
C1826 H1814 0.950 . S
C1826 C1825 1.398 . S
C1826 C1827 1.391 . S
C1827 H1815 0.950 . S
C1827 C1823 1.393 . S
C1827 C1826 1.391 . S
H1828 C1836 0.950 . S
H1829 C1841 0.950 . S
H1830 C1838 0.950 . S
H1831 C1840 0.950 . S
H1832 C1842 0.950 . S
H1833 C1844 0.950 . S
H1834 C1846 0.950 . S
H1835 C1847 0.950 . S
C1836 H1828 0.950 . S
C1836 C1837 1.386 . S
C1836 C1838 1.391 . S
C1837 C1836 1.386 . S
C1837 C1841 1.393 . S
C1838 H1830 0.950 . S
C1838 C1836 1.391 . S
C1838 C1839 1.400 . S
C1839 C1838 1.400 . S
C1839 C1840 1.398 . S
C1839 C1845 1.491 . S
C1840 H1831 0.950 . S
C1840 C1839 1.398 . S
C1840 C1841 1.391 . S
C1841 H1829 0.950 . S
C1841 C1837 1.393 . S
C1841 C1840 1.391 . S
C1842 H1832 0.950 . S
C1842 C1843 1.386 . S
C1842 C1844 1.391 . S
C1843 C1842 1.386 . S
C1843 C1847 1.393 . S
C1844 H1833 0.950 . S
C1844 C1842 1.391 . S
C1844 C1845 1.400 . S
C1845 C1839 1.491 . S
C1845 C1844 1.400 . S
C1845 C1846 1.398 . S
C1846 H1834 0.950 . S
C1846 C1845 1.398 . S
C1846 C1847 1.391 . S
C1847 H1835 0.950 . S
C1847 C1843 1.393 . S
C1847 C1846 1.391 . S
H1848 C1856 0.950 . S
H1849 C1861 0.950 . S
H1850 C1858 0.950 . S
H1851 C1860 0.950 . S
H1852 C1862 0.950 . S
H1853 C1864 0.950 . S
H1854 C1866 0.950 . S
H1855 C1867 0.950 . S
C1856 H1848 0.950 . S
C1856 C1857 1.386 . S
C1856 C1858 1.391 . S
C1857 C1856 1.386 . S
C1857 C1861 1.393 . S
C1858 H1850 0.950 . S
C1858 C1856 1.391 . S
C1858 C1859 1.400 . S
C1859 C1858 1.400 . S
C1859 C1860 1.398 . S
C1859 C1865 1.491 . S
C1860 H1851 0.950 . S
C1860 C1859 1.398 . S
C1860 C1861 1.391 . S
C1861 H1849 0.950 . S
C1861 C1857 1.393 . S
C1861 C1860 1.391 . S
C1862 H1852 0.950 . S
C1862 C1863 1.386 . S
C1862 C1864 1.391 . S
C1863 C1862 1.386 . S
C1863 C1867 1.393 . S
C1864 H1853 0.950 . S
C1864 C1862 1.391 . S
C1864 C1865 1.400 . S
C1865 C1859 1.491 . S
C1865 C1864 1.400 . S
C1865 C1866 1.398 . S
C1866 H1854 0.950 . S
C1866 C1865 1.398 . S
C1866 C1867 1.391 . S
C1867 H1855 0.950 . S
C1867 C1863 1.393 . S
C1867 C1866 1.391 . S
H1868 C1876 0.950 . S
H1869 C1881 0.950 . S
H1870 C1878 0.950 . S
H1871 C1880 0.950 . S
H1872 C1882 0.950 . S
H1873 C1884 0.950 . S
H1874 C1886 0.950 . S
H1875 C1887 0.950 . S
C1876 H1868 0.950 . S
C1876 C1877 1.386 . S
C1876 C1878 1.391 . S
C1877 C1876 1.386 . S
C1877 C1881 1.393 . S
C1878 H1870 0.950 . S
C1878 C1876 1.391 . S
C1878 C1879 1.400 . S
C1879 C1878 1.400 . S
C1879 C1880 1.398 . S
C1879 C1885 1.491 . S
C1880 H1871 0.950 . S
C1880 C1879 1.398 . S
C1880 C1881 1.391 . S
C1881 H1869 0.950 . S
C1881 C1877 1.393 . S
C1881 C1880 1.391 . S
C1882 H1872 0.950 . S
C1882 C1883 1.386 . S
C1882 C1884 1.391 . S
C1883 C1882 1.386 . S
C1883 C1887 1.393 . S
C1884 H1873 0.950 . S
C1884 C1882 1.391 . S
C1884 C1885 1.400 . S
C1885 C1879 1.491 . S
C1885 C1884 1.400 . S
C1885 C1886 1.398 . S
C1886 H1874 0.950 . S
C1886 C1885 1.398 . S
C1886 C1887 1.391 . S
C1887 H1875 0.950 . S
C1887 C1883 1.393 . S
C1887 C1886 1.391 . S
H1888 C1896 0.950 . S
H1889 C1901 0.950 . S
H1890 C1898 0.950 . S
H1891 C1900 0.950 . S
H1892 C1902 0.950 . S
H1893 C1904 0.950 . S
H1894 C1906 0.950 . S
H1895 C1907 0.950 . S
C1896 H1888 0.950 . S
C1896 C1897 1.386 . S
C1896 C1898 1.391 . S
C1897 C1896 1.386 . S
C1897 C1901 1.393 . S
C1898 H1890 0.950 . S
C1898 C1896 1.391 . S
C1898 C1899 1.400 . S
C1899 C1898 1.400 . S
C1899 C1900 1.398 . S
C1899 C1905 1.491 . S
C1900 H1891 0.950 . S
C1900 C1899 1.398 . S
C1900 C1901 1.391 . S
C1901 H1889 0.950 . S
C1901 C1897 1.393 . S
C1901 C1900 1.391 . S
C1902 H1892 0.950 . S
C1902 C1903 1.386 . S
C1902 C1904 1.391 . S
C1903 C1902 1.386 . S
C1903 C1907 1.393 . S
C1904 H1893 0.950 . S
C1904 C1902 1.391 . S
C1904 C1905 1.400 . S
C1905 C1899 1.491 . S
C1905 C1904 1.400 . S
C1905 C1906 1.398 . S
C1906 H1894 0.950 . S
C1906 C1905 1.398 . S
C1906 C1907 1.391 . S
C1907 H1895 0.950 . S
C1907 C1903 1.393 . S
C1907 C1906 1.391 . S
H1908 C1916 0.950 . S
H1909 C1921 0.950 . S
H1910 C1918 0.950 . S
H1911 C1920 0.950 . S
H1912 C1922 0.950 . S
H1913 C1924 0.950 . S
H1914 C1926 0.950 . S
H1915 C1927 0.950 . S
C1916 H1908 0.950 . S
C1916 C1917 1.386 . S
C1916 C1918 1.391 . S
C1917 C1916 1.386 . S
C1917 C1921 1.393 . S
C1918 H1910 0.950 . S
C1918 C1916 1.391 . S
C1918 C1919 1.400 . S
C1919 C1918 1.400 . S
C1919 C1920 1.398 . S
C1919 C1925 1.491 . S
C1920 H1911 0.950 . S
C1920 C1919 1.398 . S
C1920 C1921 1.391 . S
C1921 H1909 0.950 . S
C1921 C1917 1.393 . S
C1921 C1920 1.391 . S
C1922 H1912 0.950 . S
C1922 C1923 1.386 . S
C1922 C1924 1.391 . S
C1923 C1922 1.386 . S
C1923 C1927 1.393 . S
C1924 H1913 0.950 . S
C1924 C1922 1.391 . S
C1924 C1925 1.400 . S
C1925 C1919 1.491 . S
C1925 C1924 1.400 . S
C1925 C1926 1.398 . S
C1926 H1914 0.950 . S
C1926 C1925 1.398 . S
C1926 C1927 1.391 . S
C1927 H1915 0.950 . S
C1927 C1923 1.393 . S
C1927 C1926 1.391 . S
H1928 C1936 0.950 . S
H1929 C1941 0.950 . S
H1930 C1938 0.950 . S
H1931 C1940 0.950 . S
H1932 C1942 0.950 . S
H1933 C1944 0.950 . S
H1934 C1946 0.950 . S
H1935 C1947 0.950 . S
C1936 H1928 0.950 . S
C1936 C1937 1.386 . S
C1936 C1938 1.391 . S
C1937 C1936 1.386 . S
C1937 C1941 1.393 . S
C1938 H1930 0.950 . S
C1938 C1936 1.391 . S
C1938 C1939 1.400 . S
C1939 C1938 1.400 . S
C1939 C1940 1.398 . S
C1939 C1945 1.491 . S
C1940 H1931 0.950 . S
C1940 C1939 1.398 . S
C1940 C1941 1.391 . S
C1941 H1929 0.950 . S
C1941 C1937 1.393 . S
C1941 C1940 1.391 . S
C1942 H1932 0.950 . S
C1942 C1943 1.386 . S
C1942 C1944 1.391 . S
C1943 C1942 1.386 . S
C1943 C1947 1.393 . S
C1944 H1933 0.950 . S
C1944 C1942 1.391 . S
C1944 C1945 1.400 . S
C1945 C1939 1.491 . S
C1945 C1944 1.400 . S
C1945 C1946 1.398 . S
C1946 H1934 0.950 . S
C1946 C1945 1.398 . S
C1946 C1947 1.391 . S
C1947 H1935 0.950 . S
C1947 C1943 1.393 . S
C1947 C1946 1.391 . S
H1948 C1956 0.950 . S
H1949 C1961 0.950 . S
H1950 C1958 0.950 . S
H1951 C1960 0.950 . S
H1952 C1962 0.950 . S
H1953 C1964 0.950 . S
H1954 C1966 0.950 . S
H1955 C1967 0.950 . S
C1956 H1948 0.950 . S
C1956 C1957 1.386 . S
C1956 C1958 1.391 . S
C1957 C1956 1.386 . S
C1957 C1961 1.393 . S
C1958 H1950 0.950 . S
C1958 C1956 1.391 . S
C1958 C1959 1.400 . S
C1959 C1958 1.400 . S
C1959 C1960 1.398 . S
C1959 C1965 1.491 . S
C1960 H1951 0.950 . S
C1960 C1959 1.398 . S
C1960 C1961 1.391 . S
C1961 H1949 0.950 . S
C1961 C1957 1.393 . S
C1961 C1960 1.391 . S
C1962 H1952 0.950 . S
C1962 C1963 1.386 . S
C1962 C1964 1.391 . S
C1963 C1962 1.386 . S
C1963 C1967 1.393 . S
C1964 H1953 0.950 . S
C1964 C1962 1.391 . S
C1964 C1965 1.400 . S
C1965 C1959 1.491 . S
C1965 C1964 1.400 . S
C1965 C1966 1.398 . S
C1966 H1954 0.950 . S
C1966 C1965 1.398 . S
C1966 C1967 1.391 . S
C1967 H1955 0.950 . S
C1967 C1963 1.393 . S
C1967 C1966 1.391 . S
C537 C15 1.132 . S
C543 C367 1.175 . S
C557 C37 1.130 . S
C563 C527 1.164 . S
C577 C469 1.164 . S
C583 C65 1.121 . S
C597 C81 1.136 . S
C603 C499 1.159 . S
C617 C95 1.152 . S
C623 C395 1.170 . S
C637 C117 1.139 . S
C643 C411 1.162 . S
C657 C139 1.132 . S
C663 C439 1.162 . S
C677 C169 1.088 . S
C683 C450 1.121 . S
C697 C197 1.155 . S
C703 C7 1.173 . S
C717 C205 1.134 . S
C723 C29 1.179 . S
C737 C59 1.162 . S
C743 C241 1.124 . S
C757 C73 1.163 . S
C763 C263 1.121 . S
C777 C279 1.151 . S
C783 C109 1.171 . S
C797 C301 1.135 . S
C803 C131 1.173 . S
C817 C329 1.144 . S
C823 C153 1.186 . S
C837 C345 1.160 . S
C843 C161 1.180 . S
C857 C373 1.141 . S
C863 C191 1.161 . S
C877 C381 1.145 . S
C883 C271 1.169 . S
C897 C293 1.170 . S
C903 C417 1.148 . S
C917 C425 1.125 . S
C923 C323 1.168 . S
C937 C458 1.085 . S
C943 C337 1.118 . S
C957 C477 1.127 . S
C963 C235 1.165 . S
C977 C257 1.182 . S
C983 C505 1.146 . S
C997 C513 1.119 . S
C1003 C219 1.161 . S
C1017 C480 1.138 . S
C1023 C106 1.122 . S
C1037 C494 1.132 . S
C1043 C128 1.133 . S
C1057 C150 1.118 . S
C1063 C362 1.135 . S
C1077 C164 1.143 . S
C1083 C514 1.138 . S
C1097 C426 1.141 . S
C1103 C10 1.146 . S
C1117 C32 1.168 . S
C1123 C455 1.179 . S
C1137 C382 1.137 . S
C1143 C52 1.122 . S
C1157 C76 1.123 . S
C1163 C406 1.135 . S
C1177 C316 1.126 . S
C1183 C96 1.128 . S
C1197 C340 1.141 . S
C1203 C118 1.134 . S
C1217 C274 1.134 . S
C1223 C140 1.143 . S
C1237 C172 1.136 . S
C1243 C296 1.120 . S
C1257 C228 1.120 . S
C1263 C18 1.133 . S
C1277 C250 1.130 . S
C1283 C40 1.124 . S
C1297 C184 1.138 . S
C1303 C54 1.149 . S
C1317 C216 1.130 . S
C1323 C84 1.126 . S
C1337 C318 1.154 . S
C1343 C472 1.144 . S
C1357 C436 1.146 . S
C1363 C230 1.148 . S
C1377 C252 1.183 . S
C1383 C447 1.176 . S
C1397 C392 1.141 . S
C1403 C186 1.152 . S
C1417 C404 1.145 . S
C1423 C206 1.139 . S
C1437 C360 1.147 . S
C1443 C282 1.151 . S
C1457 C524 1.139 . S
C1463 C304 1.133 . S
C1477 C348 1.118 . S
C1483 C492 1.122 . S
C1497 C448 1.325 . S
C1503 C21 1.318 . S
C1517 C389 1.367 . S
C1523 C43 1.372 . S
C1537 C51 1.357 . S
C1543 C403 1.363 . S
C1557 C87 1.366 . S
C1563 C433 1.367 . S
C1577 C521 1.363 . S
C1583 C103 1.368 . S
C1597 C125 1.360 . S
C1603 C483 1.361 . S
C1617 C491 1.372 . S
C1623 C147 1.365 . S
C1637 C175 1.368 . S
C1643 C359 1.373 . S
C1657 C183 1.373 . S
C1663 C351 1.369 . S
C1677 C285 1.361 . S
C1683 C213 1.369 . S
C1697 C227 1.359 . S
C1703 C307 1.351 . S
C1717 C315 1.377 . S
C1723 C249 1.377 . S
C1737 C414 1.326 . S
C1743 C98 1.328 . S
C1757 C428 1.332 . S
C1763 C120 1.334 . S
C1777 C142 1.365 . S
C1783 C461 1.369 . S
C1797 C162 1.327 . S
C1803 C384 1.325 . S
C1817 C502 1.318 . S
C1823 C8 1.320 . S
C1837 C370 1.321 . S
C1843 C30 1.319 . S
C1857 C516 1.338 . S
C1863 C62 1.337 . S
C1877 C74 1.333 . S
C1883 C470 1.335 . S
C1897 C208 1.341 . S
C1903 C326 1.339 . S
C1917 C338 1.319 . S
C1923 C238 1.321 . S
C1937 C272 1.319 . S
C1943 C260 1.316 . S
C1957 C294 1.326 . S
C1963 C194 1.325 . S
