# Generated by pormake.
# Topology sml, (6)-cn, num edge types: 1
# Building blocks:
#     Node 0, Type 0, BuildingBlock: BETFAJ_clean_sbu_0, # of connection points: 6
#     Node 1, Type 0, BuildingBlock: BETFAJ_clean_sbu_0, # of connection points: 6
#     Node 2, Type 0, BuildingBlock: BETFAJ_clean_sbu_0, # of connection points: 6
#     Node 3, Type 0, BuildingBlock: BETFAJ_clean_sbu_0, # of connection points: 6
#     Node 4, Type 0, BuildingBlock: BETFAJ_clean_sbu_0, # of connection points: 6
#     Node 5, Type 0, BuildingBlock: BETFAJ_clean_sbu_0, # of connection points: 6
#     Edge 6, Type (0, 0), BuildingBlock: OJICUG_clean_linker_0, # of connection points: 2
#     Edge 7, Type (0, 0), BuildingBlock: OJICUG_clean_linker_0, # of connection points: 2
#     Edge 8, Type (0, 0), BuildingBlock: OJICUG_clean_linker_0, # of connection points: 2
#     Edge 9, Type (0, 0), BuildingBlock: OJICUG_clean_linker_0, # of connection points: 2
#     Edge 10, Type (0, 0), BuildingBlock: OJICUG_clean_linker_0, # of connection points: 2
#     Edge 11, Type (0, 0), BuildingBlock: OJICUG_clean_linker_0, # of connection points: 2
#     Edge 12, Type (0, 0), BuildingBlock: OJICUG_clean_linker_0, # of connection points: 2
#     Edge 13, Type (0, 0), BuildingBlock: OJICUG_clean_linker_0, # of connection points: 2
#     Edge 14, Type (0, 0), BuildingBlock: OJICUG_clean_linker_0, # of connection points: 2
#     Edge 15, Type (0, 0), BuildingBlock: OJICUG_clean_linker_0, # of connection points: 2
#     Edge 16, Type (0, 0), BuildingBlock: OJICUG_clean_linker_0, # of connection points: 2
#     Edge 17, Type (0, 0), BuildingBlock: OJICUG_clean_linker_0, # of connection points: 2
#     Edge 18, Type (0, 0), BuildingBlock: OJICUG_clean_linker_0, # of connection points: 2
#     Edge 19, Type (0, 0), BuildingBlock: OJICUG_clean_linker_0, # of connection points: 2
#     Edge 20, Type (0, 0), BuildingBlock: OJICUG_clean_linker_0, # of connection points: 2
#     Edge 21, Type (0, 0), BuildingBlock: OJICUG_clean_linker_0, # of connection points: 2
#     Edge 22, Type (0, 0), BuildingBlock: OJICUG_clean_linker_0, # of connection points: 2
#     Edge 23, Type (0, 0), BuildingBlock: OJICUG_clean_linker_0, # of connection points: 2
# Relax obj value: 0.262
# Max RMSD: 0.270
# Mean RMSD: 0.270
data_MOF--net-sml--node1-BETFAJ_clean_sbu_0--edge1-OJICUG_clean_linker_0
_symmetry_space_group_name_H-M    P1
_symmetry_Int_Tables_number       1
_symmetry_cell_setting            triclinic
loop_
_symmetry_equiv_pos_as_xyz
'x, y, z'
_cell_length_a     21.49006
_cell_length_b     21.413324
_cell_length_c     20.600073
_cell_angle_alpha  90.336639
_cell_angle_beta   90.000116
_cell_angle_gamma 120.11417
loop_
_atom_site_label
_atom_site_type_symbol
_atom_site_fract_x
_atom_site_fract_y
_atom_site_fract_z
_atom_type_partial_charge
Sm0 Sm 0.13403 0.42443 0.14658 0.0
Sm1 Sm 0.22105 0.39694 0.25714 0.0
C2 C 0.09575 0.45119 0.0326 0.0
C3 C 0.10913 0.44169 0.96379 0.0
C4 C 0.13145 0.49939 0.92052 0.0
C5 C 0.14811 0.49264 0.85606 0.0
C6 C 0.14309 0.42804 0.83364 0.0
C7 C 0.11967 0.36996 0.87693 0.0
C8 C 0.10274 0.37666 0.94123 0.0
C9 C 0.0525 0.34398 0.24822 0.0
C10 C 0.18041 0.29737 0.13024 0.0
C11 C 0.26563 0.37429 0.36963 0.0
C12 C 0.25396 0.38572 0.43841 0.0
C13 C 0.23651 0.33055 0.48349 0.0
C14 C 0.2204 0.33838 0.54782 0.0
C15 C 0.22153 0.40177 0.56855 0.0
C16 C 0.24029 0.45749 0.52336 0.0
C17 C 0.25605 0.44947 0.45898 0.0
C18 C 0.2986 0.4766 0.15271 0.0
C19 C 0.17359 0.52248 0.27647 0.0
O20 O 0.15146 0.49966 0.0656 0.0
O21 O 0.05517 0.39249 0.0659 0.0
O22 O 0.10583 0.34204 0.22499 0.0
O23 O 0.03493 0.38271 0.21255 0.0
O24 O 0.16413 0.34311 0.10244 0.0
O25 O 0.19522 0.30035 0.19273 0.0
O26 O 0.20937 0.32401 0.33859 0.0
O27 O 0.30398 0.43207 0.33457 0.0
O28 O 0.24849 0.48038 0.18053 0.0
O29 O 0.31425 0.43317 0.1833 0.0
O30 O 0.19617 0.48074 0.30168 0.0
O31 O 0.15146 0.51663 0.21561 0.0
H32 H 0.13704 0.55015 0.93687 0.0
H33 H 0.16661 0.53864 0.82422 0.0
H34 H 0.1142 0.31912 0.86104 0.0
H35 H 0.08524 0.33112 0.9734 0.0
H36 H 0.23407 0.28073 0.46863 0.0
H37 H 0.20536 0.29394 0.58088 0.0
H38 H 0.24293 0.50751 0.53768 0.0
H39 H 0.26901 0.49287 0.42521 0.0
Sm40 Sm 0.84221 0.28658 0.59887 0.0
Sm41 Sm 0.75877 0.16906 0.48845 0.0
C42 C 0.87778 0.35099 0.71387 0.0
C43 C 0.85961 0.32633 0.78168 0.0
C44 C 0.79141 0.26842 0.79751 0.0
C45 C 0.775 0.24431 0.86156 0.0
C46 C 0.8267 0.27703 0.91127 0.0
C47 C 0.89517 0.33492 0.89504 0.0
C48 C 0.91137 0.35928 0.8309 0.0
C49 C 0.92676 0.28669 0.4997 0.0
C50 C 0.79861 0.11443 0.61664 0.0
C51 C 0.71601 0.1006 0.37557 0.0
C52 C 0.72745 0.12432 0.30714 0.0
C53 C 0.74106 0.08503 0.2602 0.0
C54 C 0.75613 0.10915 0.19597 0.0
C55 C 0.75794 0.17323 0.17729 0.0
C56 C 0.74351 0.21207 0.2245 0.0
C57 C 0.72861 0.188 0.28868 0.0
C58 C 0.67835 0.16826 0.59174 0.0
C59 C 0.80462 0.34174 0.46778 0.0
O60 O 0.82549 0.34721 0.67804 0.0
O61 O 0.91757 0.33016 0.68289 0.0
O62 O 0.87303 0.23167 0.52275 0.0
O63 O 0.94297 0.34397 0.53422 0.0
O64 O 0.81143 0.17606 0.64371 0.0
O65 O 0.78693 0.10171 0.55378 0.0
O66 O 0.77279 0.10867 0.40666 0.0
O67 O 0.67627 0.11813 0.4109 0.0
O68 O 0.72755 0.22367 0.56454 0.0
O69 O 0.66552 0.10961 0.56111 0.0
O70 O 0.78275 0.27677 0.44362 0.0
O71 O 0.82596 0.36005 0.52862 0.0
H72 H 0.75076 0.24157 0.76031 0.0
H73 H 0.72147 0.20033 0.87209 0.0
H74 H 0.93678 0.36071 0.93164 0.0
H75 H 0.96462 0.40347 0.81964 0.0
H76 H 0.74115 0.0362 0.27348 0.0
H77 H 0.76802 0.07841 0.16131 0.0
H78 H 0.7434 0.26104 0.21187 0.0
H79 H 0.71866 0.21966 0.32393 0.0
Sm80 Sm 0.54712 0.70332 0.80424 0.0
Sm81 Sm 0.58242 0.82091 0.91506 0.0
C82 C 0.51417 0.63815 0.68948 0.0
C83 C 0.52314 0.66169 0.62097 0.0
C84 C 0.46399 0.63023 0.5784 0.0
C85 C 0.47087 0.65415 0.51421 0.0
C86 C 0.53707 0.7104 0.49138 0.0
C87 C 0.59639 0.7412 0.53401 0.0
C88 C 0.58954 0.71705 0.59798 0.0
C89 C 0.63127 0.70219 0.90323 0.0
C90 C 0.67798 0.87499 0.78719 0.0
C91 C 0.60819 0.88904 0.02801 0.0
C92 C 0.59424 0.86536 0.09646 0.0
C93 C 0.64949 0.89889 0.14262 0.0
C94 C 0.63864 0.87455 0.2068 0.0
C95 C 0.57206 0.81611 0.22639 0.0
C96 C 0.51647 0.78311 0.18003 0.0
C97 C 0.5275 0.80726 0.11578 0.0
C98 C 0.50322 0.82243 0.81178 0.0
C99 C 0.45498 0.64858 0.93577 0.0
O100 O 0.46871 0.64841 0.7239 0.0
O101 O 0.57264 0.65287 0.72181 0.0
O102 O 0.63314 0.75757 0.88031 0.0
O103 O 0.58974 0.64506 0.86867 0.0
O104 O 0.6296 0.81327 0.75985 0.0
O105 O 0.67822 0.88786 0.84996 0.0
O106 O 0.65622 0.87913 0.99775 0.0
O107 O 0.55208 0.87374 0.9918 0.0
O108 O 0.49649 0.76691 0.83918 0.0
O109 O 0.54954 0.881 0.8422 0.0
O110 O 0.4981 0.71353 0.95996 0.0
O111 O 0.4579 0.63028 0.87492 0.0
H112 H 0.41216 0.5876 0.59503 0.0
H113 H 0.42395 0.62961 0.48289 0.0
H114 H 0.64839 0.78379 0.51779 0.0
H115 H 0.63621 0.74209 0.62952 0.0
H116 H 0.70159 0.94323 0.12872 0.0
H117 H 0.68311 0.90052 0.24069 0.0
H118 H 0.46422 0.73865 0.19335 0.0
H119 H 0.48393 0.77992 0.08115 0.0
Sm120 Sm 0.70515 0.56292 0.254 0.0
Sm121 Sm 0.81835 0.58885 0.14382 0.0
C122 C 0.6412 0.53676 0.36837 0.0
C123 C 0.66407 0.54144 0.43713 0.0
C124 C 0.66939 0.48473 0.4657 0.0
C125 C 0.6939 0.49062 0.52959 0.0
C126 C 0.71342 0.55322 0.56655 0.0
C127 C 0.70636 0.60914 0.53858 0.0
C128 C 0.68169 0.6032 0.47473 0.0
C129 C 0.70341 0.64321 0.15247 0.0
C130 C 0.87836 0.68926 0.26988 0.0
C131 C 0.88648 0.61002 0.03192 0.0
C132 C 0.86617 0.60196 0.96214 0.0
C133 C 0.86734 0.65942 0.9284 0.0
C134 C 0.84492 0.65106 0.86367 0.0
C135 C 0.82146 0.58527 0.83058 0.0
C136 C 0.82224 0.52838 0.86379 0.0
C137 C 0.8444 0.53665 0.92875 0.0
C138 C 0.81712 0.51017 0.249 0.0
C139 C 0.64511 0.46572 0.12397 0.0
O140 O 0.64197 0.48655 0.3322 0.0
O141 O 0.66426 0.59787 0.33753 0.0
O142 O 0.7589 0.64509 0.17512 0.0
O143 O 0.6476 0.60506 0.18882 0.0
O144 O 0.81684 0.6431 0.29809 0.0
O145 O 0.88938 0.68638 0.20722 0.0
O146 O 0.88383 0.66155 0.06425 0.0
O147 O 0.86284 0.55068 0.06567 0.0
O148 O 0.76301 0.50592 0.2212 0.0
O149 O 0.87582 0.55343 0.21798 0.0
O150 O 0.70921 0.50752 0.09842 0.0
O151 O 0.62958 0.47104 0.18516 0.0
H152 H 0.65533 0.43594 0.43856 0.0
H153 H 0.69896 0.44669 0.5496 0.0
H154 H 0.7196 0.65747 0.56621 0.0
H155 H 0.677 0.64733 0.45467 0.0
H156 H 0.88429 0.71068 0.95234 0.0
H157 H 0.84429 0.69583 0.84014 0.0
H158 H 0.80597 0.47741 0.83956 0.0
H159 H 0.84388 0.49159 0.9529 0.0
Sm160 Sm 0.29166 0.87096 0.46317 0.0
Sm161 Sm 0.17478 0.79985 0.57298 0.0
C162 C 0.36021 0.90454 0.35077 0.0
C163 C 0.33899 0.8959 0.28164 0.0
C164 C 0.37155 0.87178 0.23675 0.0
C165 C 0.34919 0.85971 0.17175 0.0
C166 C 0.29363 0.87144 0.15043 0.0
C167 C 0.26224 0.89707 0.19543 0.0
C168 C 0.28456 0.90904 0.26027 0.0
C169 C 0.30129 0.96198 0.56223 0.0
C170 C 0.12095 0.83045 0.43977 0.0
C171 C 0.11019 0.77135 0.687 0.0
C172 C 0.13632 0.78337 0.75475 0.0
C173 C 0.1052 0.8074 0.80111 0.0
C174 C 0.13134 0.822 0.86488 0.0
C175 C 0.18916 0.81263 0.88375 0.0
C176 C 0.22041 0.78878 0.83688 0.0
C177 C 0.19442 0.77453 0.77307 0.0
C178 C 0.17003 0.7088 0.47632 0.0
C179 C 0.3403 0.82761 0.59524 0.0
O180 O 0.34374 0.8451 0.38205 0.0
O181 O 0.34891 0.94961 0.38505 0.0
O182 O 0.24382 0.91273 0.53696 0.0
O183 O 0.35628 0.96953 0.52935 0.0
O184 O 0.18255 0.84144 0.4149 0.0
O185 O 0.10847 0.82406 0.50274 0.0
O186 O 0.12631 0.82965 0.6541 0.0
O187 O 0.1174 0.72341 0.65304 0.0
O188 O 0.22592 0.75906 0.5024 0.0
O189 O 0.1123 0.7007 0.5048 0.0
O190 O 0.27906 0.81684 0.62003 0.0
O191 O 0.35765 0.84362 0.53348 0.0
H192 H 0.41354 0.86114 0.25221 0.0
H193 H 0.37416 0.83939 0.13865 0.0
H194 H 0.2204 0.90812 0.18055 0.0
H195 H 0.25868 0.928 0.29376 0.0
H196 H 0.06101 0.81555 0.7878 0.0
H197 H 0.10677 0.84158 0.89917 0.0
H198 H 0.26441 0.78015 0.84958 0.0
H199 H 0.21988 0.7566 0.73813 0.0
Sm200 Sm 0.41286 0.11729 0.9365 0.0
Sm201 Sm 0.36865 0.1901 0.82679 0.0
C202 C 0.44586 0.08209 0.04906 0.0
C203 C 0.43325 0.09113 0.11811 0.0
C204 C 0.48966 0.11443 0.16317 0.0
C205 C 0.47954 0.12714 0.22804 0.0
C206 C 0.41272 0.11693 0.24907 0.0
C207 C 0.35592 0.09211 0.20391 0.0
C208 C 0.36607 0.07942 0.13919 0.0
C209 C 0.33304 0.02781 0.83606 0.0
C210 C 0.28285 0.15801 0.95944 0.0
C211 C 0.3331 0.21975 0.71293 0.0
C212 C 0.34684 0.20809 0.64496 0.0
C213 C 0.29231 0.18701 0.59834 0.0
C214 C 0.30327 0.17233 0.53439 0.0
C215 C 0.36927 0.17868 0.5156 0.0
C216 C 0.42387 0.19998 0.5627 0.0
C217 C 0.41267 0.21423 0.62668 0.0
C218 C 0.45382 0.27982 0.92471 0.0
C219 C 0.50692 0.1628 0.8056 0.0
O220 O 0.48999 0.14121 1.01792 0.0
O221 O 0.3893 0.03792 1.01451 0.0
O222 O 0.32446 0.07672 0.8616 0.0
O223 O 0.37982 0.01961 0.86938 0.0
O224 O 0.33313 0.14667 0.98449 0.0
O225 O 0.27749 0.16525 0.8965 0.0
O226 O 0.29071 0.16129 0.74554 0.0
O227 O 0.38855 0.26708 0.74697 0.0
O228 O 0.45949 0.2297 0.89839 0.0
O229 O 0.40487 0.28865 0.89576 0.0
O230 O 0.45685 0.17401 0.78043 0.0
O231 O 0.50718 0.14566 0.86719 0.0
H232 H 0.54197 0.12396 0.14795 0.0
H233 H 0.52466 0.14679 0.26126 0.0
H234 H 0.30336 0.08223 0.21858 0.0
H235 H 0.32143 0.06102 0.10557 0.0
H236 H 0.24083 0.1811 0.61158 0.0
H237 H 0.25947 0.15485 0.49998 0.0
H238 H 0.47571 0.20648 0.55013 0.0
H239 H 0.45556 0.22997 0.6618 0.0
C240 C 0.24974 0.17615 0.07158 0.0
C241 C 0.24127 0.17758 1.00404 0.0
H242 H 0.23633 0.21211 0.16473 0.0
C243 C 0.20213 0.20882 0.97962 0.0
H244 H 0.27915 0.15213 0.09215 0.0
C245 C 0.17803 0.24382 1.02129 0.0
C246 C 0.19205 0.24784 0.08826 0.0
H247 H 0.19416 0.21062 0.92789 0.0
H248 H 0.15191 0.27102 1.00043 0.0
C249 C 0.2252 0.21075 0.1133 0.0
C250 C 0.06456 0.338 0.36793 0.0
C251 C 0.02095 0.31736 0.31225 0.0
H252 H 0.06829 0.34557 0.47197 0.0
C253 C 0.94605 0.28012 0.31888 0.0
H254 H 0.1223 0.36794 0.36407 0.0
C255 C 0.91521 0.26536 0.38047 0.0
C256 C 0.95875 0.28987 0.4361 0.0
H257 H 0.91144 0.26455 0.27647 0.0
H258 H 0.8576 0.23914 0.38411 0.0
C259 C 0.03368 0.32555 0.42958 0.0
C260 C 0.7925 0.065 0.72732 0.0
C261 C 0.78451 0.05403 0.65978 0.0
H262 H 0.76602 0.0166 0.82102 0.0
C263 C 0.75297 0.98336 0.63496 0.0
H264 H 0.81736 0.11887 0.74804 0.0
C265 C 0.72332 0.92462 0.67691 0.0
C266 C 0.72495 0.93551 0.74437 0.0
H267 H 0.74657 0.97299 0.58316 0.0
H268 H 0.69512 0.87084 0.65616 0.0
C269 C 0.76311 0.00624 0.76926 0.0
C270 C 0.64192 0.7221 1.02273 0.0
C271 C 0.66103 0.69884 0.96634 0.0
H272 H 0.6398 0.72142 0.12674 0.0
C273 C 0.70157 0.66434 0.9716 0.0
H274 H 0.60969 0.74754 1.02013 0.0
C275 C 0.72136 0.65188 0.0327 0.0
C276 C 0.69799 0.67089 0.08911 0.0
H277 H 0.71605 0.6452 0.9286 0.0
H278 H 0.7505 0.62309 0.03565 0.0
C279 C 0.65906 0.70703 0.08375 0.0
C280 C -0.01067 0.7795 0.41974 0.0
C281 C 0.05963 0.81023 0.39516 0.0
H282 H 0.87666 0.71728 0.39933 0.0
C283 C 0.06927 0.81057 0.32764 0.0
H284 H 0.97978 0.77857 0.47144 0.0
C285 C 0.00994 0.77549 0.28617 0.0
C286 C 0.93979 0.73901 0.31145 0.0
H287 H 0.12262 0.83414 0.30696 0.0
H288 H 0.01947 0.7733 0.2348 0.0
C289 C 0.93002 0.744 0.37833 0.0
C290 C 0.37378 0.00138 0.73257 0.0
C291 C 0.32134 0.00893 0.76643 0.0
H292 H 0.41086 0.98629 0.64133 0.0
C293 C 0.26172 0.0025 0.73235 0.0
H294 H 0.42014 0.00574 0.75742 0.0
C295 C 0.2547 0.9879 0.66528 0.0
C296 C 0.30833 0.98181 0.63163 0.0
H297 H 0.22053 0.00806 0.75758 0.0
H298 H 0.20789 0.9818 0.63976 0.0
C299 C 0.36846 0.99022 0.66586 0.0
C300 C 0.14256 0.4492 0.71354 0.0
C301 C 0.16328 0.42155 0.76574 0.0
H302 H 0.14326 0.46348 0.61073 0.0
C303 C 0.20377 0.38784 0.75264 0.0
H304 H 0.11054 0.47461 0.72181 0.0
C305 C 0.22301 0.38185 0.68897 0.0
C306 C 0.20204 0.40918 0.63662 0.0
H307 H 0.22159 0.36696 0.7918 0.0
H308 H 0.25516 0.35655 0.68093 0.0
C309 C 0.16153 0.44294 0.6498 0.0
C310 C 0.81875 0.27406 0.09623 0.0
C311 C 0.77552 0.19985 0.10912 0.0
H312 H 0.86797 0.35659 1.02444 0.0
C313 C 0.74953 0.15131 0.05632 0.0
H314 H 0.84057 0.31302 0.13559 0.0
C315 C 0.76626 0.17625 0.99246 0.0
C316 C 0.8093 0.25049 0.97952 0.0
H317 H 0.71555 0.09387 0.06421 0.0
H318 H 0.74596 0.13705 0.95323 0.0
C319 C 0.83533 0.29903 0.03235 0.0
C320 C 0.51276 0.68904 0.37123 0.0
C321 C 0.54438 0.73735 0.42361 0.0
H322 H 0.49772 0.67555 0.26829 0.0
C323 C 0.58374 0.8118 0.41074 0.0
H324 H 0.48276 0.63134 0.37932 0.0
C325 C 0.59193 0.83729 0.3471 0.0
C326 C 0.56126 0.78899 0.29449 0.0
H327 H 0.60773 0.8506 0.45003 0.0
H328 H 0.62191 0.89503 0.33924 0.0
C329 C 0.52124 0.7145 0.3075 0.0
C330 C 0.82801 0.63331 0.71791 0.0
C331 C 0.79517 0.57598 0.76219 0.0
H332 H 0.82832 0.67092 0.62175 0.0
C333 C 0.73588 0.51042 0.74099 0.0
H334 H 0.87467 0.68406 0.73193 0.0
C335 C 0.70968 0.50277 0.67749 0.0
C336 C 0.74181 0.56061 0.63376 0.0
H337 H 0.70852 0.4654 0.77387 0.0
H338 H 0.66324 0.45201 0.66307 0.0
C339 C 0.8015 0.62581 0.65464 0.0
C340 C 0.16817 0.80948 1.00425 0.0
C341 C 0.21625 0.82717 0.95206 0.0
H342 H 0.15449 0.8085 0.10712 0.0
C343 C 0.29019 0.85855 0.96583 0.0
H344 H 0.11075 0.78367 0.9958 0.0
C345 C 0.31528 0.8722 0.03 0.0
C346 C 0.26722 0.85564 0.08203 0.0
H347 H 0.329 0.87382 0.92698 0.0
H348 H 0.37261 0.89741 0.03872 0.0
C349 C 0.1933 0.82366 0.06827 0.0
C350 C 0.35162 0.18194 0.39492 0.0
C351 C 0.38109 0.16333 0.44726 0.0
H352 H 0.33904 0.1828 0.29197 0.0
C353 C 0.42203 0.13013 0.43362 0.0
H354 H 0.32128 0.20913 0.40318 0.0
C355 C 0.43297 0.11582 0.36952 0.0
C356 C 0.40244 0.13333 0.31738 0.0
H357 H 0.44477 0.114 0.4725 0.0
H358 H 0.46405 0.08946 0.36095 0.0
C359 C 0.36194 0.16694 0.33094 0.0
C360 C 0.23552 0.61915 0.35862 0.0
C361 C 0.1742 0.57727 0.32031 0.0
H362 H 0.28225 0.69421 0.43734 0.0
C363 C 0.11173 0.58109 0.33145 0.0
H364 H 0.28404 0.6164 0.35126 0.0
C365 C 0.11001 0.62427 0.38218 0.0
C366 C 0.17118 0.66499 0.4213 0.0
H367 H 0.06345 0.54815 0.30319 0.0
H368 H 0.06082 0.6252 0.39126 0.0
C369 C 0.23434 0.66329 0.40803 0.0
C370 C 0.61215 0.11064 0.69407 0.0
C371 C 0.64205 0.16986 0.65171 0.0
H372 H 0.54864 0.06367 0.77959 0.0
C373 C 0.63563 0.23038 0.66624 0.0
H374 H 0.61754 0.06384 0.68417 0.0
C375 C 0.59535 0.22962 0.7196 0.0
C376 C 0.56276 0.16931 0.76047 0.0
H377 H 0.65871 0.27685 0.63455 0.0
H378 H 0.58718 0.27508 0.72751 0.0
C379 C 0.57364 0.11087 0.74888 0.0
C380 C 0.3729 0.49423 0.05322 0.0
C381 C 0.33277 0.5151 0.09238 0.0
H382 H 0.44181 0.51959 0.97001 0.0
C383 C 0.32612 0.5745 0.07417 0.0
H384 H 0.37834 0.44823 0.06619 0.0
C385 C 0.36202 0.61478 1.01974 0.0
C386 C 0.40405 0.59559 0.98175 0.0
H387 H 0.29569 0.59183 0.10362 0.0
H388 H 0.35947 0.66291 1.00884 0.0
C389 C 0.40806 0.53409 0.99781 0.0
C390 C 0.87141 0.45531 0.40425 0.0
C391 C 0.80605 0.39444 0.42173 0.0
H392 H 0.92659 0.53959 0.33427 0.0
C393 C 0.74418 0.37498 0.3846 0.0
H394 H 0.92016 0.46996 0.43128 0.0
C395 C 0.7477 0.41428 0.32968 0.0
C396 C 0.81356 0.47291 0.31 0.0
H397 H 0.69356 0.3273 0.39658 0.0
H398 H 0.6994 0.39673 0.301 0.0
C399 C 0.87525 0.49416 0.34834 0.0
C400 C 0.36138 0.76079 0.68148 0.0
C401 C 0.38933 0.82134 0.64092 0.0
H402 H 0.37637 0.71349 0.76702 0.0
C403 C 0.45811 0.8802 0.65359 0.0
H404 H 0.30809 0.71507 0.67282 0.0
C405 C 0.49603 0.88046 0.70906 0.0
C406 C 0.46639 0.82095 0.75109 0.0
H407 H 0.48047 0.9276 0.62313 0.0
H408 H 0.54777 0.92755 0.71974 0.0
C409 C 0.40006 0.76013 0.73555 0.0
C410 C 0.60843 0.36757 0.04313 0.0
C411 C 0.59038 0.41122 0.08035 0.0
H412 H 0.57872 0.29114 0.96542 0.0
C413 C 0.52506 0.40919 0.06839 0.0
H414 H 0.65894 0.36891 0.05118 0.0
C415 C 0.47978 0.36596 1.01787 0.0
C416 C 0.4989 0.32348 0.97975 0.0
H417 H 0.51083 0.4435 0.09585 0.0
H418 H 0.43049 0.36645 1.00809 0.0
C419 C 0.56274 0.32343 0.99392 0.0
loop_
_geom_bond_atom_site_label_1
_geom_bond_atom_site_label_2
_geom_bond_distance
_geom_bond_site_symmetry_2
_ccdc_geom_bond_type
Sm0 C2 2.846 . S
Sm0 O20 2.543 . S
Sm0 O21 2.450 . S
Sm0 O22 2.681 . S
Sm0 O23 2.464 . S
Sm0 O24 2.396 . S
Sm0 O28 2.386 . S
Sm0 O31 2.408 . S
Sm1 C11 2.846 . S
Sm1 O22 2.386 . S
Sm1 O25 2.408 . S
Sm1 O26 2.543 . S
Sm1 O27 2.450 . S
Sm1 O28 2.681 . S
Sm1 O29 2.464 . S
Sm1 O30 2.396 . S
C2 Sm0 2.846 . S
C2 C3 1.506 1_554 S
C2 O20 1.261 . S
C2 O21 1.242 . S
C3 C2 1.506 1_556 S
C3 C4 1.358 . S
C3 C8 1.382 . S
C4 C3 1.358 . S
C4 C5 1.385 . S
C4 H32 0.930 . S
C5 C4 1.385 . S
C5 C6 1.395 . S
C5 H33 0.929 . S
C6 C5 1.395 . S
C6 C7 1.335 . S
C7 C6 1.335 . S
C7 C8 1.398 . S
C7 H34 0.930 . S
C8 C3 1.382 . S
C8 C7 1.398 . S
C8 H35 0.929 . S
C9 O22 1.271 . S
C9 O23 1.251 . S
C10 O24 1.252 . S
C10 O25 1.272 . S
C11 Sm1 2.846 . S
C11 C12 1.506 . S
C11 O26 1.261 . S
C11 O27 1.242 . S
C12 C11 1.506 . S
C12 C13 1.358 . S
C12 C17 1.382 . S
C13 C12 1.358 . S
C13 C14 1.385 . S
C13 H36 0.930 . S
C14 C13 1.385 . S
C14 C15 1.395 . S
C14 H37 0.929 . S
C15 C14 1.395 . S
C15 C16 1.335 . S
C16 C15 1.335 . S
C16 C17 1.398 . S
C16 H38 0.930 . S
C17 C12 1.382 . S
C17 C16 1.398 . S
C17 H39 0.929 . S
C18 O28 1.271 . S
C18 O29 1.251 . S
C19 O30 1.252 . S
C19 O31 1.272 . S
O20 Sm0 2.543 . S
O20 C2 1.261 . S
O21 Sm0 2.450 . S
O21 C2 1.242 . S
O22 Sm0 2.681 . S
O22 Sm1 2.386 . S
O22 C9 1.271 . S
O23 Sm0 2.464 . S
O23 C9 1.251 . S
O24 Sm0 2.396 . S
O24 C10 1.252 . S
O25 Sm1 2.408 . S
O25 C10 1.272 . S
O26 Sm1 2.543 . S
O26 C11 1.261 . S
O27 Sm1 2.450 . S
O27 C11 1.242 . S
O28 Sm0 2.386 . S
O28 Sm1 2.681 . S
O28 C18 1.271 . S
O29 Sm1 2.464 . S
O29 C18 1.251 . S
O30 Sm1 2.396 . S
O30 C19 1.252 . S
O31 Sm0 2.408 . S
O31 C19 1.272 . S
H32 C4 0.930 . S
H33 C5 0.929 . S
H34 C7 0.930 . S
H35 C8 0.929 . S
H36 C13 0.930 . S
H37 C14 0.929 . S
H38 C16 0.930 . S
H39 C17 0.929 . S
Sm40 C42 2.846 . S
Sm40 O60 2.543 . S
Sm40 O61 2.450 . S
Sm40 O62 2.681 . S
Sm40 O63 2.464 . S
Sm40 O64 2.396 . S
Sm40 O68 2.386 . S
Sm40 O71 2.408 . S
Sm41 C51 2.846 . S
Sm41 O62 2.386 . S
Sm41 O65 2.408 . S
Sm41 O66 2.543 . S
Sm41 O67 2.450 . S
Sm41 O68 2.681 . S
Sm41 O69 2.464 . S
Sm41 O70 2.396 . S
C42 Sm40 2.846 . S
C42 C43 1.506 . S
C42 O60 1.261 . S
C42 O61 1.242 . S
C43 C42 1.506 . S
C43 C44 1.358 . S
C43 C48 1.382 . S
C44 C43 1.358 . S
C44 C45 1.385 . S
C44 H72 0.930 . S
C45 C44 1.385 . S
C45 C46 1.395 . S
C45 H73 0.929 . S
C46 C45 1.395 . S
C46 C47 1.335 . S
C47 C46 1.335 . S
C47 C48 1.398 . S
C47 H74 0.930 . S
C48 C43 1.382 . S
C48 C47 1.398 . S
C48 H75 0.929 . S
C49 O62 1.271 . S
C49 O63 1.251 . S
C50 O64 1.252 . S
C50 O65 1.272 . S
C51 Sm41 2.846 . S
C51 C52 1.506 . S
C51 O66 1.261 . S
C51 O67 1.242 . S
C52 C51 1.506 . S
C52 C53 1.358 . S
C52 C57 1.382 . S
C53 C52 1.358 . S
C53 C54 1.385 . S
C53 H76 0.930 . S
C54 C53 1.385 . S
C54 C55 1.395 . S
C54 H77 0.929 . S
C55 C54 1.395 . S
C55 C56 1.335 . S
C56 C55 1.335 . S
C56 C57 1.398 . S
C56 H78 0.930 . S
C57 C52 1.382 . S
C57 C56 1.398 . S
C57 H79 0.929 . S
C58 O68 1.271 . S
C58 O69 1.251 . S
C59 O70 1.252 . S
C59 O71 1.272 . S
O60 Sm40 2.543 . S
O60 C42 1.261 . S
O61 Sm40 2.450 . S
O61 C42 1.242 . S
O62 Sm40 2.681 . S
O62 Sm41 2.386 . S
O62 C49 1.271 . S
O63 Sm40 2.464 . S
O63 C49 1.251 . S
O64 Sm40 2.396 . S
O64 C50 1.252 . S
O65 Sm41 2.408 . S
O65 C50 1.272 . S
O66 Sm41 2.543 . S
O66 C51 1.261 . S
O67 Sm41 2.450 . S
O67 C51 1.242 . S
O68 Sm40 2.386 . S
O68 Sm41 2.681 . S
O68 C58 1.271 . S
O69 Sm41 2.464 . S
O69 C58 1.251 . S
O70 Sm41 2.396 . S
O70 C59 1.252 . S
O71 Sm40 2.408 . S
O71 C59 1.272 . S
H72 C44 0.930 . S
H73 C45 0.929 . S
H74 C47 0.930 . S
H75 C48 0.929 . S
H76 C53 0.930 . S
H77 C54 0.929 . S
H78 C56 0.930 . S
H79 C57 0.929 . S
Sm80 C82 2.846 . S
Sm80 O100 2.543 . S
Sm80 O101 2.450 . S
Sm80 O102 2.681 . S
Sm80 O103 2.464 . S
Sm80 O104 2.396 . S
Sm80 O108 2.386 . S
Sm80 O111 2.408 . S
Sm81 C91 2.846 1_556 S
Sm81 O102 2.386 . S
Sm81 O105 2.408 . S
Sm81 O106 2.543 1_556 S
Sm81 O107 2.450 1_556 S
Sm81 O108 2.681 . S
Sm81 O109 2.464 . S
Sm81 O110 2.396 1_556 S
C82 Sm80 2.846 . S
C82 C83 1.506 . S
C82 O100 1.261 . S
C82 O101 1.242 . S
C83 C82 1.506 . S
C83 C84 1.358 . S
C83 C88 1.382 . S
C84 C83 1.358 . S
C84 C85 1.385 . S
C84 H112 0.930 . S
C85 C84 1.385 . S
C85 C86 1.395 . S
C85 H113 0.929 . S
C86 C85 1.395 . S
C86 C87 1.335 . S
C87 C86 1.335 . S
C87 C88 1.398 . S
C87 H114 0.930 . S
C88 C83 1.382 . S
C88 C87 1.398 . S
C88 H115 0.929 . S
C89 O102 1.271 . S
C89 O103 1.251 . S
C90 O104 1.252 . S
C90 O105 1.272 . S
C91 Sm81 2.846 1_554 S
C91 C92 1.506 . S
C91 O106 1.261 . S
C91 O107 1.242 . S
C92 C91 1.506 . S
C92 C93 1.358 . S
C92 C97 1.382 . S
C93 C92 1.358 . S
C93 C94 1.385 . S
C93 H116 0.930 . S
C94 C93 1.385 . S
C94 C95 1.395 . S
C94 H117 0.929 . S
C95 C94 1.395 . S
C95 C96 1.335 . S
C96 C95 1.335 . S
C96 C97 1.398 . S
C96 H118 0.930 . S
C97 C92 1.382 . S
C97 C96 1.398 . S
C97 H119 0.929 . S
C98 O108 1.271 . S
C98 O109 1.251 . S
C99 O110 1.252 1_556 S
C99 O111 1.272 . S
O100 Sm80 2.543 . S
O100 C82 1.261 . S
O101 Sm80 2.450 . S
O101 C82 1.242 . S
O102 Sm80 2.681 . S
O102 Sm81 2.386 . S
O102 C89 1.271 . S
O103 Sm80 2.464 . S
O103 C89 1.251 . S
O104 Sm80 2.396 . S
O104 C90 1.252 . S
O105 Sm81 2.408 . S
O105 C90 1.272 . S
O106 Sm81 2.543 1_554 S
O106 C91 1.261 . S
O107 Sm81 2.450 1_554 S
O107 C91 1.242 . S
O108 Sm80 2.386 . S
O108 Sm81 2.681 . S
O108 C98 1.271 . S
O109 Sm81 2.464 . S
O109 C98 1.251 . S
O110 Sm81 2.396 1_554 S
O110 C99 1.252 1_554 S
O111 Sm80 2.408 . S
O111 C99 1.272 . S
H112 C84 0.930 . S
H113 C85 0.929 . S
H114 C87 0.930 . S
H115 C88 0.929 . S
H116 C93 0.930 . S
H117 C94 0.929 . S
H118 C96 0.930 . S
H119 C97 0.929 . S
Sm120 C122 2.846 . S
Sm120 O140 2.543 . S
Sm120 O141 2.450 . S
Sm120 O142 2.681 . S
Sm120 O143 2.464 . S
Sm120 O144 2.396 . S
Sm120 O148 2.386 . S
Sm120 O151 2.408 . S
Sm121 C131 2.846 1_554 S
Sm121 O142 2.386 . S
Sm121 O145 2.408 . S
Sm121 O146 2.543 1_554 S
Sm121 O147 2.450 1_554 S
Sm121 O148 2.681 . S
Sm121 O149 2.464 . S
Sm121 O150 2.396 . S
C122 Sm120 2.846 . S
C122 C123 1.506 . S
C122 O140 1.261 . S
C122 O141 1.242 . S
C123 C122 1.506 . S
C123 C124 1.358 . S
C123 C128 1.382 . S
C124 C123 1.358 . S
C124 C125 1.385 . S
C124 H152 0.930 . S
C125 C124 1.385 . S
C125 C126 1.395 . S
C125 H153 0.929 . S
C126 C125 1.395 . S
C126 C127 1.335 . S
C127 C126 1.335 . S
C127 C128 1.398 . S
C127 H154 0.930 . S
C128 C123 1.382 . S
C128 C127 1.398 . S
C128 H155 0.929 . S
C129 O142 1.271 . S
C129 O143 1.251 . S
C130 O144 1.252 . S
C130 O145 1.272 . S
C131 Sm121 2.846 1_556 S
C131 C132 1.506 . S
C131 O146 1.261 . S
C131 O147 1.242 . S
C132 C131 1.506 . S
C132 C133 1.358 . S
C132 C137 1.382 . S
C133 C132 1.358 . S
C133 C134 1.385 . S
C133 H156 0.930 . S
C134 C133 1.385 . S
C134 C135 1.395 . S
C134 H157 0.929 . S
C135 C134 1.395 . S
C135 C136 1.335 . S
C136 C135 1.335 . S
C136 C137 1.398 . S
C136 H158 0.930 . S
C137 C132 1.382 . S
C137 C136 1.398 . S
C137 H159 0.929 . S
C138 O148 1.271 . S
C138 O149 1.251 . S
C139 O150 1.252 . S
C139 O151 1.272 . S
O140 Sm120 2.543 . S
O140 C122 1.261 . S
O141 Sm120 2.450 . S
O141 C122 1.242 . S
O142 Sm120 2.681 . S
O142 Sm121 2.386 . S
O142 C129 1.271 . S
O143 Sm120 2.464 . S
O143 C129 1.251 . S
O144 Sm120 2.396 . S
O144 C130 1.252 . S
O145 Sm121 2.408 . S
O145 C130 1.272 . S
O146 Sm121 2.543 1_556 S
O146 C131 1.261 . S
O147 Sm121 2.450 1_556 S
O147 C131 1.242 . S
O148 Sm120 2.386 . S
O148 Sm121 2.681 . S
O148 C138 1.271 . S
O149 Sm121 2.464 . S
O149 C138 1.251 . S
O150 Sm121 2.396 . S
O150 C139 1.252 . S
O151 Sm120 2.408 . S
O151 C139 1.272 . S
H152 C124 0.930 . S
H153 C125 0.929 . S
H154 C127 0.930 . S
H155 C128 0.929 . S
H156 C133 0.930 . S
H157 C134 0.929 . S
H158 C136 0.930 . S
H159 C137 0.929 . S
Sm160 C162 2.846 . S
Sm160 O180 2.543 . S
Sm160 O181 2.450 . S
Sm160 O182 2.681 . S
Sm160 O183 2.464 . S
Sm160 O184 2.396 . S
Sm160 O188 2.386 . S
Sm160 O191 2.408 . S
Sm161 C171 2.846 . S
Sm161 O182 2.386 . S
Sm161 O185 2.408 . S
Sm161 O186 2.543 . S
Sm161 O187 2.450 . S
Sm161 O188 2.681 . S
Sm161 O189 2.464 . S
Sm161 O190 2.396 . S
C162 Sm160 2.846 . S
C162 C163 1.506 . S
C162 O180 1.261 . S
C162 O181 1.242 . S
C163 C162 1.506 . S
C163 C164 1.358 . S
C163 C168 1.382 . S
C164 C163 1.358 . S
C164 C165 1.385 . S
C164 H192 0.930 . S
C165 C164 1.385 . S
C165 C166 1.395 . S
C165 H193 0.929 . S
C166 C165 1.395 . S
C166 C167 1.335 . S
C167 C166 1.335 . S
C167 C168 1.398 . S
C167 H194 0.930 . S
C168 C163 1.382 . S
C168 C167 1.398 . S
C168 H195 0.929 . S
C169 O182 1.271 . S
C169 O183 1.251 . S
C170 O184 1.252 . S
C170 O185 1.272 . S
C171 Sm161 2.846 . S
C171 C172 1.506 . S
C171 O186 1.261 . S
C171 O187 1.242 . S
C172 C171 1.506 . S
C172 C173 1.358 . S
C172 C177 1.382 . S
C173 C172 1.358 . S
C173 C174 1.385 . S
C173 H196 0.930 . S
C174 C173 1.385 . S
C174 C175 1.395 . S
C174 H197 0.929 . S
C175 C174 1.395 . S
C175 C176 1.335 . S
C176 C175 1.335 . S
C176 C177 1.398 . S
C176 H198 0.930 . S
C177 C172 1.382 . S
C177 C176 1.398 . S
C177 H199 0.929 . S
C178 O188 1.271 . S
C178 O189 1.251 . S
C179 O190 1.252 . S
C179 O191 1.272 . S
O180 Sm160 2.543 . S
O180 C162 1.261 . S
O181 Sm160 2.450 . S
O181 C162 1.242 . S
O182 Sm160 2.681 . S
O182 Sm161 2.386 . S
O182 C169 1.271 . S
O183 Sm160 2.464 . S
O183 C169 1.251 . S
O184 Sm160 2.396 . S
O184 C170 1.252 . S
O185 Sm161 2.408 . S
O185 C170 1.272 . S
O186 Sm161 2.543 . S
O186 C171 1.261 . S
O187 Sm161 2.450 . S
O187 C171 1.242 . S
O188 Sm160 2.386 . S
O188 Sm161 2.681 . S
O188 C178 1.271 . S
O189 Sm161 2.464 . S
O189 C178 1.251 . S
O190 Sm161 2.396 . S
O190 C179 1.252 . S
O191 Sm160 2.408 . S
O191 C179 1.272 . S
H192 C164 0.930 . S
H193 C165 0.929 . S
H194 C167 0.930 . S
H195 C168 0.929 . S
H196 C173 0.930 . S
H197 C174 0.929 . S
H198 C176 0.930 . S
H199 C177 0.929 . S
Sm200 C202 2.846 . S
Sm200 O220 2.543 . S
Sm200 O221 2.450 . S
Sm200 O222 2.681 . S
Sm200 O223 2.464 . S
Sm200 O224 2.396 . S
Sm200 O228 2.386 . S
Sm200 O231 2.408 . S
Sm201 C211 2.846 . S
Sm201 O222 2.386 . S
Sm201 O225 2.408 . S
Sm201 O226 2.543 . S
Sm201 O227 2.450 . S
Sm201 O228 2.681 . S
Sm201 O229 2.464 . S
Sm201 O230 2.396 . S
C202 Sm200 2.846 . S
C202 C203 1.506 1_556 S
C202 O220 1.261 . S
C202 O221 1.242 . S
C203 C202 1.506 1_554 S
C203 C204 1.358 . S
C203 C208 1.382 . S
C204 C203 1.358 . S
C204 C205 1.385 . S
C204 H232 0.930 . S
C205 C204 1.385 . S
C205 C206 1.395 . S
C205 H233 0.929 . S
C206 C205 1.395 . S
C206 C207 1.335 . S
C207 C206 1.335 . S
C207 C208 1.398 . S
C207 H234 0.930 . S
C208 C203 1.382 . S
C208 C207 1.398 . S
C208 H235 0.929 . S
C209 O222 1.271 . S
C209 O223 1.251 . S
C210 O224 1.252 . S
C210 O225 1.272 . S
C211 Sm201 2.846 . S
C211 C212 1.506 . S
C211 O226 1.261 . S
C211 O227 1.242 . S
C212 C211 1.506 . S
C212 C213 1.358 . S
C212 C217 1.382 . S
C213 C212 1.358 . S
C213 C214 1.385 . S
C213 H236 0.930 . S
C214 C213 1.385 . S
C214 C215 1.395 . S
C214 H237 0.929 . S
C215 C214 1.395 . S
C215 C216 1.335 . S
C216 C215 1.335 . S
C216 C217 1.398 . S
C216 H238 0.930 . S
C217 C212 1.382 . S
C217 C216 1.398 . S
C217 H239 0.929 . S
C218 O228 1.271 . S
C218 O229 1.251 . S
C219 O230 1.252 . S
C219 O231 1.272 . S
O220 Sm200 2.543 . S
O220 C202 1.261 . S
O221 Sm200 2.450 . S
O221 C202 1.242 . S
O222 Sm200 2.681 . S
O222 Sm201 2.386 . S
O222 C209 1.271 . S
O223 Sm200 2.464 . S
O223 C209 1.251 . S
O224 Sm200 2.396 . S
O224 C210 1.252 . S
O225 Sm201 2.408 . S
O225 C210 1.272 . S
O226 Sm201 2.543 . S
O226 C211 1.261 . S
O227 Sm201 2.450 . S
O227 C211 1.242 . S
O228 Sm200 2.386 . S
O228 Sm201 2.681 . S
O228 C218 1.271 . S
O229 Sm201 2.464 . S
O229 C218 1.251 . S
O230 Sm201 2.396 . S
O230 C219 1.252 . S
O231 Sm200 2.408 . S
O231 C219 1.272 . S
H232 C204 0.930 . S
H233 C205 0.929 . S
H234 C207 0.930 . S
H235 C208 0.929 . S
H236 C213 0.930 . S
H237 C214 0.929 . S
H238 C216 0.930 . S
H239 C217 0.929 . S
C240 C241 1.387 . S
C240 H244 0.950 . S
C240 C249 1.390 1_556 S
C241 C240 1.387 . S
C241 C243 1.387 . S
H242 C249 0.950 . S
C243 C241 1.387 . S
C243 C245 1.390 1_556 S
C243 H247 0.950 . S
H244 C240 0.950 . S
C245 C243 1.390 1_554 S
C245 C246 1.387 . S
C245 H248 0.950 . S
C246 C245 1.387 . S
C246 C249 1.387 . S
H247 C243 0.950 . S
H248 C245 0.950 . S
C249 C240 1.390 1_554 S
C249 H242 0.950 . S
C249 C246 1.387 . S
C250 C251 1.387 . S
C250 H254 0.950 . S
C250 C259 1.390 1_455 S
C251 C250 1.387 . S
C251 C253 1.387 . S
H252 C259 0.949 . S
C253 C251 1.387 . S
C253 C255 1.391 1_455 S
C253 H257 0.949 . S
H254 C250 0.950 . S
C255 C253 1.391 1_655 S
C255 C256 1.387 . S
C255 H258 0.950 . S
C256 C255 1.387 . S
C256 C259 1.388 . S
H257 C253 0.949 . S
H258 C255 0.950 . S
C259 C250 1.390 1_655 S
C259 H252 0.949 . S
C259 C256 1.388 . S
C260 C261 1.387 . S
C260 H264 0.950 . S
C260 C269 1.390 1_545 S
C261 C260 1.387 . S
C261 C263 1.387 . S
H262 C269 0.950 . S
C263 C261 1.387 . S
C263 C265 1.390 1_545 S
C263 H267 0.950 . S
H264 C260 0.950 . S
C265 C263 1.390 1_565 S
C265 C266 1.387 . S
C265 H268 0.950 . S
C266 C265 1.387 . S
C266 C269 1.387 . S
H267 C263 0.950 . S
H268 C265 0.950 . S
C269 C260 1.390 1_565 S
C269 H262 0.950 . S
C269 C266 1.387 . S
C270 C271 1.387 1_554 S
C270 H274 0.950 . S
C270 C279 1.390 . S
C271 C270 1.387 1_556 S
C271 C273 1.387 . S
H272 C279 0.950 . S
C273 C271 1.387 . S
C273 C275 1.390 1_556 S
C273 H277 0.950 . S
H274 C270 0.950 . S
C275 C273 1.390 1_554 S
C275 C276 1.387 . S
C275 H278 0.950 1_554 S
C276 C275 1.387 . S
C276 C279 1.387 . S
H277 C273 0.950 . S
H278 C275 0.950 1_556 S
C279 C270 1.390 . S
C279 H272 0.950 . S
C279 C276 1.387 . S
C280 C281 1.387 1_655 S
C280 H284 0.950 . S
C280 C289 1.390 . S
C281 C280 1.387 1_455 S
C281 C283 1.387 . S
H282 C289 0.950 . S
C283 C281 1.387 . S
C283 C285 1.390 . S
C283 H287 0.950 . S
H284 C280 0.950 . S
C285 C283 1.390 . S
C285 C286 1.387 1_455 S
C285 H288 0.950 . S
C286 C285 1.387 1_655 S
C286 C289 1.387 . S
H287 C283 0.950 . S
H288 C285 0.950 . S
C289 C280 1.390 . S
C289 H282 0.950 . S
C289 C286 1.387 . S
C290 C291 1.387 . S
C290 H294 0.950 . S
C290 C299 1.390 1_545 S
C291 C290 1.387 . S
C291 C293 1.387 . S
H292 C299 0.950 . S
C293 C291 1.387 . S
C293 C295 1.390 1_545 S
C293 H297 0.950 . S
H294 C290 0.950 . S
C295 C293 1.390 1_565 S
C295 C296 1.387 . S
C295 H298 0.950 . S
C296 C295 1.387 . S
C296 C299 1.387 . S
H297 C293 0.950 . S
H298 C295 0.950 . S
C299 C290 1.390 1_565 S
C299 H292 0.950 . S
C299 C296 1.387 . S
C300 C301 1.387 . S
C300 H304 0.950 . S
C300 C309 1.390 . S
C301 C300 1.387 . S
C301 C303 1.387 . S
H302 C309 0.950 . S
C303 C301 1.387 . S
C303 C305 1.390 . S
C303 H307 0.950 . S
H304 C300 0.950 . S
C305 C303 1.390 . S
C305 C306 1.387 . S
C305 H308 0.950 . S
C306 C305 1.387 . S
C306 C309 1.387 . S
H307 C303 0.950 . S
H308 C305 0.950 . S
C309 C300 1.390 . S
C309 H302 0.950 . S
C309 C306 1.387 . S
C310 C311 1.387 . S
C310 H314 0.950 1_556 S
C310 C319 1.390 . S
C311 C310 1.387 . S
C311 C313 1.387 . S
H312 C319 0.950 . S
C313 C311 1.387 . S
C313 C315 1.390 . S
C313 H317 0.950 . S
H314 C310 0.950 1_554 S
C315 C313 1.390 . S
C315 C316 1.387 . S
C315 H318 0.950 . S
C316 C315 1.387 . S
C316 C319 1.387 . S
H317 C313 0.950 . S
H318 C315 0.950 . S
C319 C310 1.390 . S
C319 H312 0.950 . S
C319 C316 1.387 . S
C320 C321 1.387 . S
C320 H324 0.950 . S
C320 C329 1.390 . S
C321 C320 1.387 . S
C321 C323 1.387 . S
H322 C329 0.950 . S
C323 C321 1.387 . S
C323 C325 1.390 . S
C323 H327 0.950 . S
H324 C320 0.950 . S
C325 C323 1.390 . S
C325 C326 1.387 . S
C325 H328 0.950 . S
C326 C325 1.387 . S
C326 C329 1.387 . S
H327 C323 0.950 . S
H328 C325 0.950 . S
C329 C320 1.390 . S
C329 H322 0.950 . S
C329 C326 1.387 . S
C330 C331 1.387 . S
C330 H334 0.950 . S
C330 C339 1.390 . S
C331 C330 1.387 . S
C331 C333 1.387 . S
H332 C339 0.950 . S
C333 C331 1.387 . S
C333 C335 1.390 . S
C333 H337 0.950 . S
H334 C330 0.950 . S
C335 C333 1.390 . S
C335 C336 1.387 . S
C335 H338 0.950 . S
C336 C335 1.387 . S
C336 C339 1.387 . S
H337 C333 0.950 . S
H338 C335 0.950 . S
C339 C330 1.390 . S
C339 H332 0.950 . S
C339 C336 1.387 . S
C340 C341 1.387 . S
C340 H344 0.950 . S
C340 C349 1.390 . S
C341 C340 1.387 . S
C341 C343 1.387 . S
H342 C349 0.950 . S
C343 C341 1.387 . S
C343 C345 1.390 . S
C343 H347 0.950 . S
H344 C340 0.950 . S
C345 C343 1.390 . S
C345 C346 1.387 . S
C345 H348 0.950 . S
C346 C345 1.387 . S
C346 C349 1.387 . S
H347 C343 0.950 . S
H348 C345 0.950 . S
C349 C340 1.390 . S
C349 H342 0.950 . S
C349 C346 1.387 . S
C350 C351 1.387 . S
C350 H354 0.950 . S
C350 C359 1.390 . S
C351 C350 1.387 . S
C351 C353 1.387 . S
H352 C359 0.950 . S
C353 C351 1.387 . S
C353 C355 1.390 . S
C353 H357 0.950 . S
H354 C350 0.950 . S
C355 C353 1.390 . S
C355 C356 1.387 . S
C355 H358 0.950 . S
C356 C355 1.387 . S
C356 C359 1.387 . S
H357 C353 0.950 . S
H358 C355 0.950 . S
C359 C350 1.390 . S
C359 H352 0.950 . S
C359 C356 1.387 . S
C360 C361 1.387 . S
C360 H364 0.950 . S
C360 C369 1.390 . S
C361 C360 1.387 . S
C361 C363 1.387 . S
H362 C369 0.950 . S
C363 C361 1.387 . S
C363 C365 1.390 . S
C363 H367 0.950 . S
H364 C360 0.950 . S
C365 C363 1.390 . S
C365 C366 1.387 . S
C365 H368 0.950 . S
C366 C365 1.387 . S
C366 C369 1.387 . S
H367 C363 0.950 . S
H368 C365 0.950 . S
C369 C360 1.390 . S
C369 H362 0.950 . S
C369 C366 1.387 . S
C370 C371 1.387 . S
C370 H374 0.950 . S
C370 C379 1.390 . S
C371 C370 1.387 . S
C371 C373 1.387 . S
H372 C379 0.950 . S
C373 C371 1.387 . S
C373 C375 1.390 . S
C373 H377 0.950 . S
H374 C370 0.950 . S
C375 C373 1.390 . S
C375 C376 1.387 . S
C375 H378 0.950 . S
C376 C375 1.387 . S
C376 C379 1.387 . S
H377 C373 0.950 . S
H378 C375 0.950 . S
C379 C370 1.390 . S
C379 H372 0.950 . S
C379 C376 1.387 . S
C380 C381 1.387 . S
C380 H384 0.950 . S
C380 C389 1.390 . S
C381 C380 1.387 . S
C381 C383 1.387 . S
H382 C389 0.950 . S
C383 C381 1.387 . S
C383 C385 1.390 . S
C383 H387 0.950 . S
H384 C380 0.950 . S
C385 C383 1.390 . S
C385 C386 1.387 . S
C385 H388 0.950 . S
C386 C385 1.387 . S
C386 C389 1.387 . S
H387 C383 0.950 . S
H388 C385 0.950 . S
C389 C380 1.390 . S
C389 H382 0.950 . S
C389 C386 1.387 . S
C390 C391 1.387 . S
C390 H394 0.950 . S
C390 C399 1.390 . S
C391 C390 1.387 . S
C391 C393 1.387 . S
H392 C399 0.950 . S
C393 C391 1.387 . S
C393 C395 1.390 . S
C393 H397 0.950 . S
H394 C390 0.950 . S
C395 C393 1.390 . S
C395 C396 1.387 . S
C395 H398 0.950 . S
C396 C395 1.387 . S
C396 C399 1.387 . S
H397 C393 0.950 . S
H398 C395 0.950 . S
C399 C390 1.390 . S
C399 H392 0.950 . S
C399 C396 1.387 . S
C400 C401 1.387 . S
C400 H404 0.950 . S
C400 C409 1.390 . S
C401 C400 1.387 . S
C401 C403 1.387 . S
H402 C409 0.950 . S
C403 C401 1.387 . S
C403 C405 1.390 . S
C403 H407 0.950 . S
H404 C400 0.950 . S
C405 C403 1.390 . S
C405 C406 1.387 . S
C405 H408 0.950 . S
C406 C405 1.387 . S
C406 C409 1.387 . S
H407 C403 0.950 . S
H408 C405 0.950 . S
C409 C400 1.390 . S
C409 H402 0.950 . S
C409 C406 1.387 . S
C410 C411 1.387 . S
C410 H414 0.950 . S
C410 C419 1.390 . S
C411 C410 1.387 . S
C411 C413 1.387 . S
H412 C419 0.950 . S
C413 C411 1.387 . S
C413 C415 1.390 . S
C413 H417 0.950 1_556 S
H414 C410 0.950 . S
C415 C413 1.390 . S
C415 C416 1.387 . S
C415 H418 0.950 . S
C416 C415 1.387 . S
C416 C419 1.387 . S
H417 C413 0.950 1_554 S
H418 C415 0.950 . S
C419 C410 1.390 . S
C419 H412 0.950 . S
C419 C416 1.387 . S
C241 C210 2.006 . S
C246 C10 2.006 . S
C251 C9 1.448 . S
C256 C49 1.445 . S
C261 C50 2.006 . S
C266 C90 2.006 . S
C271 C89 1.446 . S
C276 C129 1.444 . S
C281 C170 2.004 . S
C286 C130 2.004 . S
C291 C209 1.446 . S
C296 C169 1.446 . S
C301 C6 1.919 . S
C306 C15 1.919 . S
C311 C55 1.919 1_556 S
C316 C46 1.919 . S
C321 C86 1.920 . S
C326 C95 1.920 . S
C331 C135 1.916 . S
C336 C126 1.916 . S
C341 C175 1.916 1_554 S
C346 C166 1.916 . S
C351 C215 1.916 . S
C356 C206 1.916 . S
C361 C19 1.965 . S
C366 C178 1.952 . S
C371 C58 1.953 . S
C376 C219 1.966 . S
C381 C18 1.953 . S
C386 C99 1.966 1_554 S
C391 C59 1.966 . S
C396 C138 1.953 . S
C401 C179 1.966 . S
C406 C98 1.952 . S
C411 C139 1.966 1_556 S
C416 C218 1.952 . S
