# Generated by pormake.
# Topology cha, (4)-cn, num edge types: 1
# Building blocks:
#     Node 0, Type 0, BuildingBlock: CEKHIL_clean_sbu_0, # of connection points: 4
#     Node 1, Type 0, BuildingBlock: CEKHIL_clean_sbu_0, # of connection points: 4
#     Node 2, Type 0, BuildingBlock: CEKHIL_clean_sbu_0, # of connection points: 4
#     Node 3, Type 0, BuildingBlock: CEKHIL_clean_sbu_0, # of connection points: 4
#     Node 4, Type 0, BuildingBlock: CEKHIL_clean_sbu_0, # of connection points: 4
#     Node 5, Type 0, BuildingBlock: CEKHIL_clean_sbu_0, # of connection points: 4
#     Node 6, Type 0, BuildingBlock: CEKHIL_clean_sbu_0, # of connection points: 4
#     Node 7, Type 0, BuildingBlock: CEKHIL_clean_sbu_0, # of connection points: 4
#     Node 8, Type 0, BuildingBlock: CEKHIL_clean_sbu_0, # of connection points: 4
#     Node 9, Type 0, BuildingBlock: CEKHIL_clean_sbu_0, # of connection points: 4
#     Node 10, Type 0, BuildingBlock: CEKHIL_clean_sbu_0, # of connection points: 4
#     Node 11, Type 0, BuildingBlock: CEKHIL_clean_sbu_0, # of connection points: 4
#     Node 12, Type 0, BuildingBlock: CEKHIL_clean_sbu_0, # of connection points: 4
#     Node 13, Type 0, BuildingBlock: CEKHIL_clean_sbu_0, # of connection points: 4
#     Node 14, Type 0, BuildingBlock: CEKHIL_clean_sbu_0, # of connection points: 4
#     Node 15, Type 0, BuildingBlock: CEKHIL_clean_sbu_0, # of connection points: 4
#     Node 16, Type 0, BuildingBlock: CEKHIL_clean_sbu_0, # of connection points: 4
#     Node 17, Type 0, BuildingBlock: CEKHIL_clean_sbu_0, # of connection points: 4
#     Node 18, Type 0, BuildingBlock: CEKHIL_clean_sbu_0, # of connection points: 4
#     Node 19, Type 0, BuildingBlock: CEKHIL_clean_sbu_0, # of connection points: 4
#     Node 20, Type 0, BuildingBlock: CEKHIL_clean_sbu_0, # of connection points: 4
#     Node 21, Type 0, BuildingBlock: CEKHIL_clean_sbu_0, # of connection points: 4
#     Node 22, Type 0, BuildingBlock: CEKHIL_clean_sbu_0, # of connection points: 4
#     Node 23, Type 0, BuildingBlock: CEKHIL_clean_sbu_0, # of connection points: 4
#     Node 24, Type 0, BuildingBlock: CEKHIL_clean_sbu_0, # of connection points: 4
#     Node 25, Type 0, BuildingBlock: CEKHIL_clean_sbu_0, # of connection points: 4
#     Node 26, Type 0, BuildingBlock: CEKHIL_clean_sbu_0, # of connection points: 4
#     Node 27, Type 0, BuildingBlock: CEKHIL_clean_sbu_0, # of connection points: 4
#     Node 28, Type 0, BuildingBlock: CEKHIL_clean_sbu_0, # of connection points: 4
#     Node 29, Type 0, BuildingBlock: CEKHIL_clean_sbu_0, # of connection points: 4
#     Node 30, Type 0, BuildingBlock: CEKHIL_clean_sbu_0, # of connection points: 4
#     Node 31, Type 0, BuildingBlock: CEKHIL_clean_sbu_0, # of connection points: 4
#     Node 32, Type 0, BuildingBlock: CEKHIL_clean_sbu_0, # of connection points: 4
#     Node 33, Type 0, BuildingBlock: CEKHIL_clean_sbu_0, # of connection points: 4
#     Node 34, Type 0, BuildingBlock: CEKHIL_clean_sbu_0, # of connection points: 4
#     Node 35, Type 0, BuildingBlock: CEKHIL_clean_sbu_0, # of connection points: 4
#     Edge 36, Type (0, 0), BuildingBlock: KIFKEQ_clean_linker_1, # of connection points: 2
#     Edge 37, Type (0, 0), BuildingBlock: KIFKEQ_clean_linker_1, # of connection points: 2
#     Edge 38, Type (0, 0), BuildingBlock: KIFKEQ_clean_linker_1, # of connection points: 2
#     Edge 39, Type (0, 0), BuildingBlock: KIFKEQ_clean_linker_1, # of connection points: 2
#     Edge 40, Type (0, 0), BuildingBlock: KIFKEQ_clean_linker_1, # of connection points: 2
#     Edge 41, Type (0, 0), BuildingBlock: KIFKEQ_clean_linker_1, # of connection points: 2
#     Edge 42, Type (0, 0), BuildingBlock: KIFKEQ_clean_linker_1, # of connection points: 2
#     Edge 43, Type (0, 0), BuildingBlock: KIFKEQ_clean_linker_1, # of connection points: 2
#     Edge 44, Type (0, 0), BuildingBlock: KIFKEQ_clean_linker_1, # of connection points: 2
#     Edge 45, Type (0, 0), BuildingBlock: KIFKEQ_clean_linker_1, # of connection points: 2
#     Edge 46, Type (0, 0), BuildingBlock: KIFKEQ_clean_linker_1, # of connection points: 2
#     Edge 47, Type (0, 0), BuildingBlock: KIFKEQ_clean_linker_1, # of connection points: 2
#     Edge 48, Type (0, 0), BuildingBlock: KIFKEQ_clean_linker_1, # of connection points: 2
#     Edge 49, Type (0, 0), BuildingBlock: KIFKEQ_clean_linker_1, # of connection points: 2
#     Edge 50, Type (0, 0), BuildingBlock: KIFKEQ_clean_linker_1, # of connection points: 2
#     Edge 51, Type (0, 0), BuildingBlock: KIFKEQ_clean_linker_1, # of connection points: 2
#     Edge 52, Type (0, 0), BuildingBlock: KIFKEQ_clean_linker_1, # of connection points: 2
#     Edge 53, Type (0, 0), BuildingBlock: KIFKEQ_clean_linker_1, # of connection points: 2
#     Edge 54, Type (0, 0), BuildingBlock: KIFKEQ_clean_linker_1, # of connection points: 2
#     Edge 55, Type (0, 0), BuildingBlock: KIFKEQ_clean_linker_1, # of connection points: 2
#     Edge 56, Type (0, 0), BuildingBlock: KIFKEQ_clean_linker_1, # of connection points: 2
#     Edge 57, Type (0, 0), BuildingBlock: KIFKEQ_clean_linker_1, # of connection points: 2
#     Edge 58, Type (0, 0), BuildingBlock: KIFKEQ_clean_linker_1, # of connection points: 2
#     Edge 59, Type (0, 0), BuildingBlock: KIFKEQ_clean_linker_1, # of connection points: 2
#     Edge 60, Type (0, 0), BuildingBlock: KIFKEQ_clean_linker_1, # of connection points: 2
#     Edge 61, Type (0, 0), BuildingBlock: KIFKEQ_clean_linker_1, # of connection points: 2
#     Edge 62, Type (0, 0), BuildingBlock: KIFKEQ_clean_linker_1, # of connection points: 2
#     Edge 63, Type (0, 0), BuildingBlock: KIFKEQ_clean_linker_1, # of connection points: 2
#     Edge 64, Type (0, 0), BuildingBlock: KIFKEQ_clean_linker_1, # of connection points: 2
#     Edge 65, Type (0, 0), BuildingBlock: KIFKEQ_clean_linker_1, # of connection points: 2
#     Edge 66, Type (0, 0), BuildingBlock: KIFKEQ_clean_linker_1, # of connection points: 2
#     Edge 67, Type (0, 0), BuildingBlock: KIFKEQ_clean_linker_1, # of connection points: 2
#     Edge 68, Type (0, 0), BuildingBlock: KIFKEQ_clean_linker_1, # of connection points: 2
#     Edge 69, Type (0, 0), BuildingBlock: KIFKEQ_clean_linker_1, # of connection points: 2
#     Edge 70, Type (0, 0), BuildingBlock: KIFKEQ_clean_linker_1, # of connection points: 2
#     Edge 71, Type (0, 0), BuildingBlock: KIFKEQ_clean_linker_1, # of connection points: 2
#     Edge 72, Type (0, 0), BuildingBlock: KIFKEQ_clean_linker_1, # of connection points: 2
#     Edge 73, Type (0, 0), BuildingBlock: KIFKEQ_clean_linker_1, # of connection points: 2
#     Edge 74, Type (0, 0), BuildingBlock: KIFKEQ_clean_linker_1, # of connection points: 2
#     Edge 75, Type (0, 0), BuildingBlock: KIFKEQ_clean_linker_1, # of connection points: 2
#     Edge 76, Type (0, 0), BuildingBlock: KIFKEQ_clean_linker_1, # of connection points: 2
#     Edge 77, Type (0, 0), BuildingBlock: KIFKEQ_clean_linker_1, # of connection points: 2
#     Edge 78, Type (0, 0), BuildingBlock: KIFKEQ_clean_linker_1, # of connection points: 2
#     Edge 79, Type (0, 0), BuildingBlock: KIFKEQ_clean_linker_1, # of connection points: 2
#     Edge 80, Type (0, 0), BuildingBlock: KIFKEQ_clean_linker_1, # of connection points: 2
#     Edge 81, Type (0, 0), BuildingBlock: KIFKEQ_clean_linker_1, # of connection points: 2
#     Edge 82, Type (0, 0), BuildingBlock: KIFKEQ_clean_linker_1, # of connection points: 2
#     Edge 83, Type (0, 0), BuildingBlock: KIFKEQ_clean_linker_1, # of connection points: 2
#     Edge 84, Type (0, 0), BuildingBlock: KIFKEQ_clean_linker_1, # of connection points: 2
#     Edge 85, Type (0, 0), BuildingBlock: KIFKEQ_clean_linker_1, # of connection points: 2
#     Edge 86, Type (0, 0), BuildingBlock: KIFKEQ_clean_linker_1, # of connection points: 2
#     Edge 87, Type (0, 0), BuildingBlock: KIFKEQ_clean_linker_1, # of connection points: 2
#     Edge 88, Type (0, 0), BuildingBlock: KIFKEQ_clean_linker_1, # of connection points: 2
#     Edge 89, Type (0, 0), BuildingBlock: KIFKEQ_clean_linker_1, # of connection points: 2
#     Edge 90, Type (0, 0), BuildingBlock: KIFKEQ_clean_linker_1, # of connection points: 2
#     Edge 91, Type (0, 0), BuildingBlock: KIFKEQ_clean_linker_1, # of connection points: 2
#     Edge 92, Type (0, 0), BuildingBlock: KIFKEQ_clean_linker_1, # of connection points: 2
#     Edge 93, Type (0, 0), BuildingBlock: KIFKEQ_clean_linker_1, # of connection points: 2
#     Edge 94, Type (0, 0), BuildingBlock: KIFKEQ_clean_linker_1, # of connection points: 2
#     Edge 95, Type (0, 0), BuildingBlock: KIFKEQ_clean_linker_1, # of connection points: 2
#     Edge 96, Type (0, 0), BuildingBlock: KIFKEQ_clean_linker_1, # of connection points: 2
#     Edge 97, Type (0, 0), BuildingBlock: KIFKEQ_clean_linker_1, # of connection points: 2
#     Edge 98, Type (0, 0), BuildingBlock: KIFKEQ_clean_linker_1, # of connection points: 2
#     Edge 99, Type (0, 0), BuildingBlock: KIFKEQ_clean_linker_1, # of connection points: 2
#     Edge 100, Type (0, 0), BuildingBlock: KIFKEQ_clean_linker_1, # of connection points: 2
#     Edge 101, Type (0, 0), BuildingBlock: KIFKEQ_clean_linker_1, # of connection points: 2
#     Edge 102, Type (0, 0), BuildingBlock: KIFKEQ_clean_linker_1, # of connection points: 2
#     Edge 103, Type (0, 0), BuildingBlock: KIFKEQ_clean_linker_1, # of connection points: 2
#     Edge 104, Type (0, 0), BuildingBlock: KIFKEQ_clean_linker_1, # of connection points: 2
#     Edge 105, Type (0, 0), BuildingBlock: KIFKEQ_clean_linker_1, # of connection points: 2
#     Edge 106, Type (0, 0), BuildingBlock: KIFKEQ_clean_linker_1, # of connection points: 2
#     Edge 107, Type (0, 0), BuildingBlock: KIFKEQ_clean_linker_1, # of connection points: 2
# Relax obj value: 0.071
# Max RMSD: 0.095
# Mean RMSD: 0.095
data_MOF--net-cha--node1-CEKHIL_clean_sbu_0--edge1-KIFKEQ_clean_linker_1
_symmetry_space_group_name_H-M    P1
_symmetry_Int_Tables_number       1
_symmetry_cell_setting            triclinic
loop_
_symmetry_equiv_pos_as_xyz
'x, y, z'
_cell_length_a     54.796761
_cell_length_b     54.774935
_cell_length_c     86.039393
_cell_angle_alpha  90.004814
_cell_angle_beta   90.001073
_cell_angle_gamma 119.96049
loop_
_atom_site_label
_atom_site_type_symbol
_atom_site_fract_x
_atom_site_fract_y
_atom_site_fract_z
_atom_type_partial_charge
Co0 Co 0.03546 0.30233 0.09656 0.0
O1 O 0.03357 0.29514 0.11852 0.0
O2 O 0.01701 0.32008 0.1071 0.0
C3 C 0.08108 0.31395 0.0943 0.0
O4 O 0.03442 0.31456 0.07411 0.0
Co5 Co 0.04979 0.26789 0.07319 0.0
O6 O 0.05794 0.2996 0.05906 0.0
C7 C 0.99238 0.24279 0.08688 0.0
C8 C 0.02127 0.31 0.11988 0.0
C9 C 0.04633 0.31448 0.06119 0.0
O10 O -0.00162 0.26626 0.0935 0.0
O11 O 0.0104 0.23913 0.07926 0.0
O12 O 0.07476 0.33281 0.09872 0.0
O13 O 0.06002 0.28895 0.0923 0.0
Co14 Co 0.75284 0.7647 0.09866 0.0
O15 O 0.75932 0.76957 0.12066 0.0
O16 O 0.73546 0.72822 0.10899 0.0
C17 C 0.74025 0.79802 0.09624 0.0
O18 O 0.74178 0.75219 0.07601 0.0
Co19 Co 0.78855 0.81504 0.07633 0.0
O20 O 0.75851 0.79138 0.06131 0.0
C21 C 0.81346 0.78298 0.09045 0.0
C22 C 0.74511 0.74239 0.12187 0.0
C23 C 0.7433 0.76482 0.06307 0.0
O24 O 0.78933 0.76439 0.09589 0.0
O25 O 0.81756 0.80543 0.08352 0.0
O26 O 0.72168 0.77267 0.10053 0.0
O27 O 0.76555 0.80256 0.09471 0.0
Co28 Co 0.29393 0.02015 0.09383 0.0
O29 O 0.28924 0.02089 0.1159 0.0
O30 O 0.33047 0.03919 0.10401 0.0
C31 C 0.26137 0.97429 0.09084 0.0
O32 O 0.30613 0.02226 0.07105 0.0
Co33 Co 0.24288 0.00641 0.07223 0.0
O34 O 0.26645 0.00102 0.05668 0.0
C35 C 0.27421 0.06211 0.08752 0.0
C36 C 0.31643 0.03396 0.11697 0.0
C37 C 0.29301 0.01173 0.05814 0.0
O38 O 0.29368 0.05685 0.09175 0.0
O39 O 0.25139 0.04383 0.08089 0.0
O40 O 0.2867 0.98126 0.09524 0.0
O41 O 0.25616 0.9947 0.08982 0.0
Co42 Co 0.30312 0.03801 0.91437 0.0
O43 O 0.29815 0.03645 0.89228 0.0
O44 O 0.32192 0.01965 0.90476 0.0
C45 C 0.31437 0.08353 0.91666 0.0
O46 O 0.31281 0.03697 0.93734 0.0
Co47 Co 0.2642 0.0509 0.93516 0.0
O48 O 0.29324 0.05793 0.95101 0.0
C49 C 0.2418 0.9952 0.92003 0.0
C50 C 0.3128 0.02386 0.89161 0.0
C51 C 0.30964 0.04775 0.95001 0.0
O52 O 0.26687 0.00074 0.91643 0.0
O53 O 0.23644 0.01331 0.9262 0.0
O54 O 0.33375 0.07749 0.91294 0.0
O55 O 0.28925 0.06232 0.91763 0.0
Co56 Co 0.01885 0.29793 0.91656 0.0
O57 O 0.01748 0.29104 0.89458 0.0
O58 O 0.039 0.33336 0.90536 0.0
C59 C 0.97269 0.26786 0.92091 0.0
O60 O 0.02383 0.31266 0.93895 0.0
Co61 Co 0.00382 0.24832 0.93962 0.0
O62 O 0.00369 0.27513 0.95504 0.0
C63 C 0.0584 0.2753 0.92302 0.0
C64 C 0.03201 0.31812 0.89277 0.0
C65 C 0.0152 0.30149 0.95249 0.0
O66 O 0.05429 0.29527 0.91829 0.0
O67 O 0.03975 0.25359 0.93035 0.0
O68 O 0.98077 0.29307 0.91579 0.0
O69 O 0.99204 0.26113 0.92184 0.0
Co70 Co 0.762 0.75199 0.9176 0.0
O71 O 0.76804 0.75568 0.89553 0.0
O72 O 0.72613 0.7356 0.90676 0.0
C73 C 0.79256 0.73665 0.92242 0.0
O74 O 0.74828 0.74418 0.94021 0.0
Co75 Co 0.81258 0.78923 0.93955 0.0
O76 O 0.78644 0.76437 0.95588 0.0
C77 C 0.78504 0.81466 0.92156 0.0
C78 C 0.74091 0.74298 0.894 0.0
C79 C 0.76004 0.7487 0.95371 0.0
O80 O 0.76439 0.79003 0.91823 0.0
O81 O 0.80741 0.81864 0.92851 0.0
O82 O 0.76719 0.71896 0.91775 0.0
O83 O 0.79906 0.76272 0.92261 0.0
Co84 Co 0.01949 0.75043 0.91689 0.0
O85 O 0.02025 0.75627 0.89483 0.0
O86 O 0.03757 0.73213 0.90636 0.0
C87 C 0.97404 0.73927 0.91968 0.0
O88 O 0.02117 0.73937 0.93958 0.0
Co89 Co 0.00664 0.78709 0.93952 0.0
O90 O 0.99832 0.75588 0.95405 0.0
C91 C 0.06365 0.81029 0.92567 0.0
C92 C 0.03252 0.7414 0.8935 0.0
C93 C 0.00956 0.74053 0.95243 0.0
O94 O 0.05693 0.78648 0.91924 0.0
O95 O 0.04618 0.8148 0.93327 0.0
O96 O 0.97993 0.72002 0.91543 0.0
O97 O 0.99533 0.76427 0.92107 0.0
Co98 Co 0.30375 0.29771 0.9183 0.0
O99 O 0.29609 0.29146 0.89639 0.0
O100 O 0.3197 0.33348 0.90736 0.0
C101 C 0.31794 0.26574 0.92105 0.0
O102 O 0.31633 0.31181 0.94066 0.0
Co103 Co 0.27032 0.24862 0.94172 0.0
O104 O 0.30156 0.2734 0.95577 0.0
C105 C 0.24332 0.27879 0.92786 0.0
C106 C 0.3099 0.31859 0.89472 0.0
C107 C 0.31627 0.29991 0.95365 0.0
O108 O 0.26672 0.29699 0.92148 0.0
O109 O 0.24032 0.2573 0.9354 0.0
O110 O 0.33552 0.29084 0.91598 0.0
O111 O 0.2924 0.2603 0.92298 0.0
Co112 Co 0.76555 0.03874 0.91694 0.0
O113 O 0.77138 0.03878 0.89488 0.0
O114 O 0.72958 0.0192 0.90619 0.0
C115 C 0.79752 0.08484 0.92026 0.0
O116 O 0.75167 0.0354 0.93946 0.0
Co117 Co 0.81478 0.05386 0.94015 0.0
O118 O 0.78967 0.05848 0.95493 0.0
C119 C 0.78607 0.99792 0.92462 0.0
C120 C 0.74422 0.02509 0.89341 0.0
C121 C 0.7632 0.04629 0.95266 0.0
O122 O 0.76699 0.00266 0.91903 0.0
O123 O 0.80749 0.0164 0.93222 0.0
O124 O 0.77213 0.07748 0.91573 0.0
O125 O 0.8029 0.0646 0.92159 0.0
Co126 Co 0.74781 0.0203 0.09779 0.0
O127 O 0.75312 0.01994 0.11985 0.0
O128 O 0.73205 0.04064 0.10844 0.0
C129 C 0.7324 0.97405 0.09414 0.0
O130 O 0.73835 0.0242 0.07513 0.0
Co131 Co 0.78317 0.00476 0.07556 0.0
O132 O 0.75619 0.00345 0.05979 0.0
C133 C 0.80996 0.05981 0.09171 0.0
C134 C 0.74041 0.0344 0.12125 0.0
C135 C 0.74115 0.01493 0.06183 0.0
O136 O 0.7857 0.05587 0.09594 0.0
O137 O 0.81332 0.04092 0.08486 0.0
O138 O 0.71492 0.982 0.09884 0.0
O139 O 0.75834 0.99365 0.0932 0.0
Co140 Co 0.03475 0.75848 0.09518 0.0
O141 O 0.03224 0.76345 0.1171 0.0
O142 O 0.01765 0.72223 0.10576 0.0
C143 C 0.07972 0.79395 0.0931 0.0
O144 O 0.03492 0.74596 0.07262 0.0
Co145 Co 0.04696 0.80729 0.0722 0.0
O146 O 0.0575 0.78539 0.05821 0.0
C147 C 0.98936 0.77148 0.08495 0.0
C148 C 0.02108 0.73644 0.11852 0.0
C149 C 0.04693 0.75889 0.05987 0.0
O150 O 0.99672 0.75539 0.09198 0.0
O151 O 0.00649 0.79352 0.07729 0.0
O152 O 0.07455 0.76911 0.09748 0.0
O153 O 0.05794 0.79671 0.09112 0.0
Co154 Co 0.29901 0.3084 0.09551 0.0
O155 O 0.29359 0.30042 0.11743 0.0
O156 O 0.33512 0.32556 0.10616 0.0
C157 C 0.26555 0.32078 0.0933 0.0
O158 O 0.31227 0.32152 0.07309 0.0
Co159 Co 0.24975 0.27394 0.0723 0.0
O160 O 0.27338 0.30571 0.05829 0.0
C161 C 0.28266 0.24896 0.08512 0.0
C162 C 0.32071 0.31517 0.11889 0.0
C163 C 0.29986 0.32109 0.06022 0.0
O164 O 0.29995 0.27227 0.09193 0.0
O165 O 0.26079 0.24526 0.0777 0.0
O166 O 0.29052 0.33906 0.09823 0.0
O167 O 0.26117 0.29563 0.09118 0.0
Co168 Co 0.70423 0.64036 0.43043 0.0
O169 O 0.70083 0.63231 0.4523 0.0
O170 O 0.68664 0.6592 0.44084 0.0
C171 C 0.74934 0.64996 0.42883 0.0
O172 O 0.70525 0.65367 0.40795 0.0
Co173 Co 0.71737 0.60437 0.4075 0.0
O174 O 0.72778 0.63678 0.39352 0.0
C175 C 0.65949 0.58183 0.42003 0.0
C176 C 0.68952 0.64806 0.4536 0.0
C177 C 0.71737 0.65285 0.39523 0.0
O178 O 0.66637 0.60543 0.42676 0.0
O179 O 0.67712 0.57711 0.41274 0.0
O180 O 0.74395 0.66948 0.43322 0.0
O181 O 0.72765 0.62548 0.42657 0.0
Co182 Co 0.41958 0.09597 0.4292 0.0
O183 O 0.42296 0.10028 0.45132 0.0
O184 O 0.39977 0.05927 0.43919 0.0
C185 C 0.40898 0.13044 0.42546 0.0
O186 O 0.4115 0.08414 0.40632 0.0
Co187 Co 0.46048 0.14661 0.40831 0.0
O188 O 0.43465 0.12317 0.3915 0.0
C189 C 0.48104 0.11356 0.42543 0.0
C190 C 0.40805 0.0731 0.45225 0.0
C191 C 0.41718 0.09697 0.39311 0.0
O192 O 0.4556 0.09434 0.42853 0.0
O193 O 0.48721 0.13698 0.41889 0.0
O194 O 0.3892 0.10523 0.42919 0.0
O195 O 0.43408 0.1341 0.42526 0.0
Co196 Co 0.96265 0.35269 0.42943 0.0
O197 O 0.95738 0.35371 0.45142 0.0
O198 O -0.00106 0.37193 0.43992 0.0
C199 C 0.93015 0.30679 0.42648 0.0
O200 O 0.97534 0.3544 0.40676 0.0
Co201 Co 0.91196 0.33867 0.40742 0.0
O202 O 0.93585 0.33303 0.39222 0.0
C203 C 0.94275 0.39434 0.42273 0.0
C204 C 0.98454 0.36686 0.45275 0.0
C205 C 0.96237 0.34361 0.39383 0.0
O206 O 0.9624 0.38935 0.42697 0.0
O207 O 0.91998 0.37589 0.41613 0.0
O208 O 0.95535 0.31379 0.43114 0.0
O209 O 0.92502 0.32721 0.4252 0.0
Co210 Co 0.97269 0.37076 0.25044 0.0
O211 O 0.96713 0.3702 0.22839 0.0
O212 O 0.98936 0.35098 0.24012 0.0
C213 C 0.98685 0.41682 0.25363 0.0
O214 O 0.98276 0.36837 0.27319 0.0
Co215 Co 0.93566 0.38518 0.27197 0.0
O216 O 0.96381 0.38905 0.2877 0.0
C217 C 0.9106 0.33037 0.25586 0.0
C218 C 0.98057 0.35642 0.22721 0.0
C219 C 0.97984 0.37853 0.28617 0.0
O220 O 0.9353 0.33454 0.2525 0.0
O221 O 0.90639 0.34914 0.26215 0.0
O222 O 0.00484 0.40944 0.24907 0.0
O223 O 0.96112 0.39673 0.2546 0.0
Co224 Co 0.68785 0.63549 0.25304 0.0
O225 O 0.68904 0.62955 0.23109 0.0
O226 O 0.70781 0.67143 0.24228 0.0
C227 C 0.64167 0.6037 0.25585 0.0
O228 O 0.6898 0.64926 0.27551 0.0
Co229 Co 0.67213 0.58584 0.27611 0.0
O230 O 0.66652 0.61071 0.29056 0.0
C231 C 0.72908 0.61589 0.262 0.0
C232 C 0.70262 0.6567 0.22957 0.0
C233 C 0.6784 0.63725 0.28855 0.0
O234 O 0.724 0.63443 0.25595 0.0
O235 O 0.71054 0.59423 0.2694 0.0
O236 O 0.64928 0.62893 0.25094 0.0
O237 O 0.66169 0.59808 0.25759 0.0
Co238 Co 0.42796 0.08778 0.24699 0.0
O239 O 0.43268 0.0914 0.22487 0.0
O240 O 0.39142 0.0687 0.23677 0.0
C241 C 0.46174 0.07631 0.25099 0.0
O242 O 0.4158 0.07957 0.26981 0.0
Co243 Co 0.4787 0.12812 0.26807 0.0
O244 O 0.45496 0.10175 0.28463 0.0
C245 C 0.44709 0.14956 0.25043 0.0
C246 C 0.4055 0.07696 0.22378 0.0
C247 C 0.42867 0.08467 0.283 0.0
O248 O 0.42715 0.12426 0.24771 0.0
O249 O 0.47046 0.15532 0.25685 0.0
O250 O 0.43653 0.05688 0.247 0.0
O251 O 0.46585 0.10158 0.25116 0.0
Co252 Co 0.68625 0.08693 0.2526 0.0
O253 O 0.68724 0.09367 0.23061 0.0
O254 O 0.70598 0.07062 0.24191 0.0
C255 C 0.64013 0.07274 0.25557 0.0
O256 O 0.68833 0.07541 0.27512 0.0
Co257 Co 0.671 0.1215 0.27549 0.0
O258 O 0.66556 0.09134 0.29014 0.0
C259 C 0.72743 0.14811 0.26079 0.0
C260 C 0.70071 0.07995 0.22915 0.0
C261 C 0.67713 0.07637 0.28817 0.0
O262 O 0.72247 0.12417 0.25528 0.0
O263 O 0.70888 0.15145 0.26805 0.0
O264 O 0.64761 0.05498 0.25072 0.0
O265 O 0.66022 0.09838 0.25713 0.0
Co266 Co 0.9696 0.6283 0.24956 0.0
O267 O 0.96386 0.62356 0.22752 0.0
O268 O 0.98779 0.66485 0.23921 0.0
C269 C 0.98146 0.5945 0.25225 0.0
O270 O 0.98011 0.64036 0.27236 0.0
Co271 Co 0.93185 0.57749 0.27121 0.0
O272 O 0.96129 0.60055 0.28665 0.0
C273 C 0.90827 0.60935 0.25565 0.0
C274 C 0.97844 0.6507 0.2263 0.0
C275 C 0.97748 0.62709 0.28524 0.0
O276 O 0.93313 0.62898 0.25175 0.0
O277 O 0.90344 0.58628 0.26211 0.0
O278 O 0.00047 0.6198 0.24813 0.0
O279 O 0.95627 0.59037 0.25341 0.0
Co280 Co 0.43096 0.37482 0.24946 0.0
O281 O 0.43533 0.37373 0.22738 0.0
O282 O 0.39424 0.35602 0.23931 0.0
C283 C 0.46448 0.42057 0.25204 0.0
O284 O 0.41914 0.37316 0.27235 0.0
Co285 Co 0.48196 0.38861 0.27112 0.0
O286 O 0.45906 0.3954 0.28645 0.0
C287 C 0.45011 0.33257 0.25606 0.0
C288 C 0.40815 0.36077 0.22631 0.0
C289 C 0.43244 0.38436 0.28515 0.0
O290 O 0.43086 0.33795 0.25154 0.0
O291 O 0.47277 0.35078 0.26286 0.0
O292 O 0.43906 0.41408 0.24805 0.0
O293 O 0.46887 0.39966 0.25319 0.0
Co294 Co 0.41833 0.35535 0.42936 0.0
O295 O 0.42362 0.35557 0.45145 0.0
O296 O 0.40052 0.37395 0.43986 0.0
C297 C 0.40558 0.30965 0.4259 0.0
O298 O 0.40849 0.3579 0.40653 0.0
Co299 Co 0.45665 0.34269 0.40781 0.0
O300 O 0.4282 0.3379 0.39208 0.0
C301 C 0.48002 0.39766 0.42374 0.0
C302 C 0.40947 0.3686 0.45275 0.0
C303 C 0.41185 0.34805 0.39353 0.0
O304 O 0.45509 0.39228 0.42757 0.0
O305 O 0.48499 0.37959 0.41718 0.0
O306 O 0.38696 0.3162 0.43043 0.0
O307 O 0.43106 0.3303 0.42511 0.0
Co308 Co 0.70308 0.09189 0.43062 0.0
O309 O 0.70062 0.09651 0.45257 0.0
O310 O 0.68567 0.05542 0.44098 0.0
C311 C 0.74817 0.1271 0.4286 0.0
O312 O 0.70317 0.07982 0.40797 0.0
Co313 Co 0.7156 0.14144 0.40812 0.0
O314 O 0.72562 0.11956 0.39379 0.0
C315 C 0.65818 0.10613 0.4212 0.0
C316 C 0.68917 0.06944 0.45382 0.0
C317 C 0.7151 0.09303 0.39528 0.0
O318 O 0.66521 0.08925 0.42758 0.0
O319 O 0.67558 0.12854 0.41389 0.0
O320 O 0.74279 0.10212 0.43284 0.0
O321 O 0.72652 0.13013 0.42679 0.0
Co322 Co 0.96516 0.63955 0.42844 0.0
O323 O 0.95975 0.632 0.45038 0.0
O324 O 0.00134 0.65656 0.43912 0.0
C325 C 0.93203 0.65236 0.42614 0.0
O326 O 0.9782 0.65191 0.40588 0.0
Co327 Co 0.91544 0.60476 0.40556 0.0
O328 O 0.93902 0.63615 0.39132 0.0
C329 C 0.94805 0.57966 0.41864 0.0
C330 C 0.98687 0.64641 0.45185 0.0
C331 C 0.96559 0.65123 0.39304 0.0
O332 O 0.96565 0.60316 0.42516 0.0
O333 O 0.9261 0.57591 0.41129 0.0
O334 O 0.95714 0.67057 0.43091 0.0
O335 O 0.92736 0.62707 0.4242 0.0
Co336 Co 0.36924 0.96767 0.762 0.0
O337 O 0.36728 0.96026 0.78395 0.0
O338 O 0.35052 0.98505 0.77255 0.0
C339 C 0.41498 0.98001 0.75951 0.0
O340 O 0.36823 0.98021 0.73963 0.0
Co341 Co 0.38352 0.9334 0.73848 0.0
O342 O 0.39193 0.96545 0.72459 0.0
C343 C 0.32581 0.90845 0.75161 0.0
C344 C 0.35491 0.97506 0.78532 0.0
C345 C 0.38032 0.98032 0.72674 0.0
O346 O 0.33218 0.93157 0.75875 0.0
O347 O 0.34364 0.90482 0.74378 0.0
O348 O 0.4083 0.99837 0.76436 0.0
O349 O 0.39425 0.95479 0.7575 0.0
Co350 Co 0.08126 0.42378 0.76134 0.0
O351 O 0.08869 0.42864 0.78326 0.0
O352 O 0.06323 0.38735 0.77174 0.0
C353 C 0.07013 0.45822 0.75944 0.0
O354 O 0.0689 0.41124 0.73879 0.0
Co355 Co 0.11665 0.47335 0.73856 0.0
O356 O 0.08497 0.45052 0.7243 0.0
C357 C 0.14065 0.43961 0.7516 0.0
C358 C 0.07372 0.40151 0.78454 0.0
C359 C 0.06966 0.42395 0.72598 0.0
O360 O 0.11703 0.42223 0.75808 0.0
O361 O 0.14482 0.46175 0.74429 0.0
O362 O 0.0511 0.43307 0.76377 0.0
O363 O 0.095 0.46185 0.75743 0.0
Co364 Co 0.6329 0.68458 0.76312 0.0
O365 O 0.628 0.68617 0.78512 0.0
O366 O 0.66933 0.7033 0.77346 0.0
C367 C 0.59959 0.63889 0.76038 0.0
O368 O 0.6453 0.68567 0.74045 0.0
Co369 Co 0.58236 0.67132 0.74115 0.0
O370 O 0.60582 0.66515 0.7259 0.0
C371 C 0.61418 0.72707 0.75629 0.0
C372 C 0.65517 0.69887 0.78632 0.0
C373 C 0.63225 0.67515 0.72752 0.0
O374 O 0.63354 0.72165 0.76052 0.0
O375 O 0.5912 0.70883 0.74977 0.0
O376 O 0.62467 0.64536 0.76501 0.0
O377 O 0.59507 0.6597 0.75902 0.0
Co378 Co 0.64218 0.70588 0.58522 0.0
O379 O 0.63535 0.7055 0.56328 0.0
O380 O 0.6573 0.68531 0.57426 0.0
C381 C 0.65787 0.75224 0.5885 0.0
O382 O 0.6536 0.70301 0.60764 0.0
Co383 Co 0.60875 0.72222 0.60834 0.0
O384 O 0.63829 0.72597 0.62296 0.0
C385 C 0.58067 0.66598 0.59341 0.0
C386 C 0.64824 0.69126 0.56161 0.0
C387 C 0.65286 0.71402 0.62079 0.0
O388 O 0.60436 0.6703 0.58785 0.0
O389 O 0.57801 0.68486 0.60077 0.0
O390 O 0.67495 0.74407 0.58343 0.0
O391 O 0.63198 0.73273 0.59004 0.0
Co392 Co 0.35284 0.96091 0.58194 0.0
O393 O 0.3511 0.95576 0.55983 0.0
O394 O 0.37048 0.99724 0.57159 0.0
C395 C 0.30749 0.9278 0.58622 0.0
O396 O 0.35769 0.97384 0.60462 0.0
Co397 Co 0.34194 0.91065 0.6035 0.0
O398 O 0.34178 0.93564 0.62012 0.0
C399 C 0.39487 0.94096 0.5856 0.0
C400 C 0.36403 0.98296 0.55866 0.0
C401 C 0.35105 0.96186 0.61806 0.0
O402 O 0.38976 0.96097 0.58249 0.0
O403 O 0.37713 0.918 0.59234 0.0
O404 O 0.31368 0.95311 0.58216 0.0
O405 O 0.32832 0.92317 0.5864 0.0
Co406 Co 0.09179 0.41909 0.5839 0.0
O407 O 0.09687 0.42695 0.56202 0.0
O408 O 0.05569 0.39968 0.57324 0.0
C409 C 0.12771 0.41018 0.58598 0.0
O410 O 0.07903 0.40585 0.60633 0.0
Co411 Co 0.13986 0.45559 0.60721 0.0
O412 O 0.1181 0.42288 0.62103 0.0
C413 C 0.10336 0.47678 0.59467 0.0
C414 C 0.06991 0.4108 0.56054 0.0
C415 C 0.09171 0.40672 0.61916 0.0
O416 O 0.08792 0.45357 0.5873 0.0
O417 O 0.12529 0.48181 0.60248 0.0
O418 O 0.10305 0.3904 0.58147 0.0
O419 O 0.13008 0.43455 0.5881 0.0
Co420 Co 0.3547 0.42316 0.58369 0.0
O421 O 0.35486 0.42808 0.56158 0.0
O422 O 0.3737 0.40559 0.57336 0.0
C423 C 0.30884 0.40978 0.58701 0.0
O424 O 0.35733 0.41371 0.60659 0.0
Co425 Co 0.34135 0.46134 0.60492 0.0
O426 O 0.33698 0.4333 0.62085 0.0
C427 C 0.39599 0.48522 0.58869 0.0
C428 C 0.3681 0.41413 0.5604 0.0
C429 C 0.34736 0.41711 0.61953 0.0
O430 O 0.39128 0.46029 0.58538 0.0
O431 O 0.3776 0.48997 0.59501 0.0
O432 O 0.3158 0.39137 0.58265 0.0
O433 O 0.32922 0.43542 0.58775 0.0
Co434 Co 0.63832 0.96134 0.58477 0.0
O435 O 0.63255 0.95612 0.56274 0.0
O436 O 0.65543 0.99767 0.57429 0.0
C437 C 0.65163 0.92867 0.58763 0.0
O438 O 0.64876 0.97415 0.60749 0.0
Co439 Co 0.60262 0.91101 0.60708 0.0
O440 O 0.63263 0.93487 0.62202 0.0
C441 C 0.57699 0.94157 0.59201 0.0
C442 C 0.64643 0.98328 0.56143 0.0
C443 C 0.64749 0.9615 0.62041 0.0
O444 O 0.6012 0.96068 0.5869 0.0
O445 O 0.57325 0.91947 0.59919 0.0
O446 O 0.67002 0.95411 0.58338 0.0
O447 O 0.62614 0.92369 0.5889 0.0
Co448 Co 0.09172 0.70458 0.58378 0.0
O449 O 0.09755 0.70307 0.56184 0.0
O450 O 0.05573 0.68531 0.57293 0.0
C451 C 0.12437 0.75051 0.58666 0.0
O452 O 0.07834 0.70327 0.6063 0.0
Co453 Co 0.14169 0.71895 0.60648 0.0
O454 O 0.11732 0.72471 0.62124 0.0
C455 C 0.11037 0.66237 0.59212 0.0
C456 C 0.07044 0.69003 0.56025 0.0
C457 C 0.09086 0.71409 0.61934 0.0
O458 O 0.09162 0.66782 0.58678 0.0
O459 O 0.13279 0.68076 0.59903 0.0
O460 O 0.09937 0.74358 0.58167 0.0
O461 O 0.12929 0.73001 0.58828 0.0
Co462 Co 0.08251 0.68376 0.76217 0.0
O463 O 0.08828 0.68368 0.7842 0.0
O464 O 0.06692 0.70419 0.77292 0.0
C465 C 0.0673 0.63746 0.75883 0.0
O466 O 0.07196 0.68671 0.73954 0.0
Co467 Co 0.11748 0.66811 0.73977 0.0
O468 O 0.08852 0.66429 0.72466 0.0
C469 C 0.14439 0.72397 0.75503 0.0
C470 C 0.07525 0.6978 0.7857 0.0
C471 C 0.07353 0.67589 0.72648 0.0
O472 O 0.12027 0.71957 0.7599 0.0
O473 O 0.14769 0.70516 0.74805 0.0
O474 O 0.04984 0.64538 0.76361 0.0
O475 O 0.09316 0.65717 0.75762 0.0
Co476 Co 0.36889 0.4287 0.76429 0.0
O477 O 0.36686 0.43219 0.78635 0.0
O478 O 0.35007 0.39153 0.77403 0.0
C479 C 0.41459 0.46262 0.76238 0.0
O480 O 0.36837 0.41815 0.74126 0.0
Co481 Co 0.38282 0.48098 0.74364 0.0
O482 O 0.39002 0.45897 0.72786 0.0
C483 C 0.32651 0.44769 0.75807 0.0
C484 C 0.35415 0.405 0.78714 0.0
C485 C 0.37958 0.43234 0.72869 0.0
O486 O 0.33186 0.42808 0.76187 0.0
O487 O 0.34489 0.47117 0.75206 0.0
O488 O 0.40818 0.43709 0.76607 0.0
O489 O 0.39358 0.46683 0.7612 0.0
Co490 Co 0.63207 0.96991 0.76342 0.0
O491 O 0.62848 0.96275 0.7854 0.0
O492 O 0.66891 0.9895 0.77336 0.0
C493 C 0.59613 0.97896 0.76212 0.0
O494 O 0.64323 0.98233 0.74071 0.0
Co495 Co 0.58209 0.93275 0.74123 0.0
O496 O 0.60313 0.96475 0.72685 0.0
C497 C 0.61881 0.91139 0.75327 0.0
C498 C 0.65554 0.9788 0.78634 0.0
C499 C 0.62965 0.98094 0.72815 0.0
O500 O 0.63537 0.9351 0.75993 0.0
O501 O 0.59617 0.90622 0.74617 0.0
O502 O 0.62111 0.99883 0.76612 0.0
O503 O 0.59357 0.95451 0.76006 0.0
H504 H 0.09689 0.2763 0.08619 0.0
H505 H 0.13096 0.36433 0.09735 0.0
H506 H 0.14379 0.28334 0.08405 0.0
H507 H 0.17888 0.37181 0.09463 0.0
H508 H 0.25436 0.35716 0.10941 0.0
H509 H 0.21121 0.3601 0.10775 0.0
H510 H 0.18414 0.30348 0.06839 0.0
H511 H 0.22587 0.29917 0.0708 0.0
C512 C 0.1145 0.29737 0.08793 0.0
C513 C 0.11019 0.31976 0.09194 0.0
C514 C 0.14156 0.3015 0.08656 0.0
C515 C 0.16526 0.32826 0.08894 0.0
C516 C 0.16107 0.35092 0.09275 0.0
C517 C 0.1337 0.34669 0.09424 0.0
C518 C 0.23931 0.34582 0.10026 0.0
C519 C 0.24312 0.32756 0.09041 0.0
C520 C 0.21468 0.34756 0.09926 0.0
C521 C 0.19384 0.33144 0.08818 0.0
C522 C 0.19924 0.31542 0.0774 0.0
C523 C 0.22331 0.3131 0.07869 0.0
H524 H 0.75096 0.95505 0.07057 0.0
H525 H 0.69621 0.92703 0.11056 0.0
H526 H 0.74632 0.90876 0.06814 0.0
H527 H 0.69288 0.88078 0.10881 0.0
H528 H 0.68945 0.79658 0.09948 0.0
H529 H 0.68075 0.83615 0.09608 0.0
H530 H 0.76828 0.89002 0.08378 0.0
H531 H 0.77655 0.851 0.08671 0.0
C532 C 0.73752 0.93875 0.07869 0.0
C533 C 0.72419 0.94459 0.09084 0.0
C534 C 0.73503 0.91226 0.0774 0.0
C535 C 0.71996 0.8913 0.08857 0.0
C536 C 0.70466 0.89642 0.10001 0.0
C537 C 0.70659 0.92289 0.10104 0.0
C538 C 0.70661 0.81686 0.09584 0.0
C539 C 0.73366 0.82069 0.09335 0.0
C540 C 0.70168 0.8395 0.09395 0.0
C541 C 0.72372 0.86624 0.0895 0.0
C542 C 0.75056 0.86966 0.08681 0.0
C543 C 0.75541 0.84723 0.08865 0.0
H544 H 0.09343 0.84729 0.08607 0.0
H545 H 0.13055 0.79508 0.09458 0.0
H546 H 0.13961 0.88807 0.08336 0.0
H547 H 0.17766 0.83642 0.09124 0.0
H548 H 0.25258 0.92652 0.10574 0.0
H549 H 0.21003 0.88004 0.10428 0.0
H550 H 0.17884 0.90996 0.06699 0.0
H551 H 0.22013 0.95643 0.06926 0.0
C552 C 0.11155 0.84443 0.0871 0.0
C553 C 0.10834 0.81795 0.09054 0.0
C554 C 0.13818 0.86789 0.08539 0.0
C555 C 0.1625 0.86557 0.08685 0.0
C556 C 0.15937 0.83895 0.0901 0.0
C557 C 0.13246 0.8153 0.09194 0.0
C558 C 0.23676 0.92283 0.09707 0.0
C559 C 0.23927 0.94506 0.0878 0.0
C560 C 0.21246 0.89622 0.09617 0.0
C561 C 0.19065 0.89145 0.08578 0.0
C562 C 0.19472 0.91313 0.0755 0.0
C563 C 0.21851 0.93975 0.0767 0.0
H564 H 0.36475 0.13374 0.91507 0.0
H565 H 0.2761 0.09843 0.92489 0.0
H566 H 0.37182 0.18133 0.91896 0.0
H567 H 0.28283 0.14503 0.9283 0.0
H568 H 0.29725 0.22565 0.94335 0.0
H569 H 0.30254 0.18433 0.94518 0.0
H570 H 0.35972 0.21401 0.90608 0.0
H571 H 0.35563 0.25656 0.90495 0.0
C572 C 0.34689 0.13613 0.91816 0.0
C573 C 0.3199 0.11238 0.9197 0.0
C574 C 0.3509 0.1633 0.92032 0.0
C575 C 0.32797 0.16702 0.92413 0.0
C576 C 0.30116 0.14309 0.92581 0.0
C577 C 0.29722 0.11622 0.9237 0.0
C578 C 0.31153 0.22374 0.93542 0.0
C579 C 0.32573 0.24401 0.92387 0.0
C580 C 0.31445 0.19996 0.93639 0.0
C581 C 0.33087 0.19542 0.92547 0.0
C582 C 0.34688 0.21684 0.91467 0.0
C583 C 0.34449 0.24113 0.91396 0.0
H584 H 0.92573 0.25617 0.90426 0.0
H585 H 0.95365 0.23248 0.94548 0.0
H586 H 0.87934 0.21382 0.90674 0.0
H587 H 0.90711 0.19148 0.94869 0.0
H588 H 0.84954 0.1022 0.93162 0.0
H589 H 0.88812 0.14959 0.93443 0.0
H590 H 0.83474 0.1823 0.91926 0.0
H591 H 0.79561 0.13382 0.91595 0.0
C592 C 0.92152 0.24247 0.91419 0.0
C593 C 0.94323 0.24718 0.92454 0.0
C594 C 0.89495 0.21826 0.91566 0.0
C595 C 0.8897 0.19879 0.92769 0.0
C596 C 0.91069 0.20547 0.93898 0.0
C597 C 0.93732 0.22909 0.93724 0.0
C598 C 0.84574 0.11938 0.92905 0.0
C599 C 0.81953 0.11422 0.92348 0.0
C600 C 0.86793 0.14676 0.93083 0.0
C601 C 0.8646 0.16996 0.92722 0.0
C602 C 0.83806 0.16491 0.92208 0.0
C603 C 0.81565 0.13721 0.92026 0.0
H604 H 0.80139 0.69783 0.90743 0.0
H605 H 0.83192 0.75785 0.94506 0.0
H606 H 0.84373 0.69361 0.9092 0.0
H607 H 0.87314 0.75242 0.9476 0.0
H608 H 0.95934 0.77758 0.9282 0.0
H609 H 0.91287 0.77112 0.93151 0.0
H610 H 0.87622 0.68212 0.9219 0.0
H611 H 0.92369 0.68899 0.918 0.0
C612 C 0.81668 0.70927 0.91646 0.0
C613 C 0.81379 0.72852 0.92594 0.0
C614 C 0.8409 0.70682 0.91752 0.0
C615 C 0.86225 0.72326 0.92828 0.0
C616 C 0.85763 0.74019 0.93882 0.0
C617 C 0.83391 0.74317 0.93748 0.0
C618 C 0.9415 0.75651 0.92693 0.0
C619 C 0.94523 0.7338 0.9228 0.0
C620 C 0.91467 0.75271 0.929 0.0
C621 C 0.89064 0.72599 0.92718 0.0
C622 C 0.89428 0.703 0.92334 0.0
C623 C 0.9214 0.70688 0.92117 0.0
H624 H 0.80012 0.69964 0.43088 0.0
H625 H 0.76339 0.61054 0.42183 0.0
H626 H 0.84737 0.70556 0.42778 0.0
H627 H 0.8097 0.6161 0.41932 0.0
H628 H 0.8906 0.62941 0.40463 0.0
H629 H 0.849 0.63414 0.40283 0.0
H630 H 0.87983 0.69396 0.44074 0.0
H631 H 0.92267 0.6904 0.4418 0.0
C632 C 0.80214 0.68141 0.42819 0.0
C633 C 0.77808 0.65466 0.42653 0.0
C634 C 0.82913 0.68475 0.42648 0.0
C635 C 0.8324 0.66138 0.4231 0.0
C636 C 0.80815 0.63476 0.42146 0.0
C637 C 0.78145 0.6315 0.42305 0.0
C638 C 0.88883 0.64406 0.41234 0.0
C639 C 0.90961 0.65926 0.42349 0.0
C640 C 0.86486 0.64665 0.4114 0.0
C641 C 0.86062 0.66378 0.42196 0.0
C642 C 0.88239 0.68056 0.43243 0.0
C643 C 0.90686 0.67847 0.43309 0.0
H644 H 0.4301 0.29366 0.40397 0.0
H645 H 0.36638 0.2606 0.4397 0.0
H646 H 0.42546 0.2476 0.4006 0.0
H647 H 0.36296 0.21443 0.43714 0.0
H648 H 0.35885 0.13077 0.42604 0.0
H649 H 0.35264 0.17194 0.42313 0.0
H650 H 0.44245 0.22464 0.41633 0.0
H651 H 0.4483 0.18402 0.41861 0.0
C652 C 0.41485 0.27639 0.41101 0.0
C653 C 0.39885 0.28071 0.42222 0.0
C654 C 0.41233 0.24998 0.40917 0.0
C655 C 0.39447 0.22745 0.41892 0.0
C656 C 0.37692 0.23127 0.42942 0.0
C657 C 0.37893 0.2577 0.43095 0.0
C658 C 0.37708 0.15116 0.42366 0.0
C659 C 0.40404 0.15418 0.42254 0.0
C660 C 0.37357 0.17473 0.42209 0.0
C661 C 0.39699 0.20164 0.41938 0.0
C662 C 0.42377 0.20427 0.418 0.0
C663 C 0.4272 0.18089 0.41946 0.0
H664 H 0.92108 0.25896 0.44144 0.0
H665 H 0.88928 0.28898 0.40467 0.0
H666 H 0.87847 0.21254 0.43987 0.0
H667 H 0.84793 0.24259 0.40232 0.0
H668 H 0.76226 0.18052 0.42149 0.0
H669 H 0.80859 0.22107 0.41874 0.0
H670 H 0.84605 0.1689 0.42669 0.0
H671 H 0.79879 0.12779 0.43005 0.0
C672 C 0.90541 0.25531 0.43268 0.0
C673 C 0.90811 0.27756 0.42337 0.0
C674 C 0.88107 0.22873 0.43172 0.0
C675 C 0.85942 0.22403 0.42123 0.0
C676 C 0.8637 0.24571 0.4109 0.0
C677 C 0.88752 0.27229 0.41215 0.0
C678 C 0.78028 0.17749 0.42253 0.0
C679 C 0.77686 0.15094 0.426 0.0
C680 C 0.80699 0.20081 0.42079 0.0
C681 C 0.83118 0.19828 0.42227 0.0
C682 C 0.82785 0.17159 0.42554 0.0
C683 C 0.80086 0.14806 0.42739 0.0
H684 H 0.02439 0.46454 0.23815 0.0
H685 H 0.96582 0.43483 0.27647 0.0
H686 H 0.02803 0.51089 0.24013 0.0
H687 H 0.97085 0.48118 0.27924 0.0
H688 H 0.03201 0.59515 0.24997 0.0
H689 H 0.03959 0.55484 0.25324 0.0
H690 H 0.95101 0.50158 0.26346 0.0
H691 H 0.94385 0.5413 0.26075 0.0
C692 C 0.01314 0.46827 0.24734 0.0
C693 C 0.99446 0.44611 0.25699 0.0
C694 C 0.01528 0.49481 0.24853 0.0
C695 C -0.00087 0.49955 0.25959 0.0
C696 C 0.98283 0.47802 0.27024 0.0
C697 C 0.98009 0.45146 0.26876 0.0
C698 C 0.01437 0.57483 0.25315 0.0
C699 C 0.98736 0.57138 0.25512 0.0
C700 C 0.01866 0.55177 0.25495 0.0
C701 C 0.99599 0.52498 0.25877 0.0
C702 C 0.96918 0.52193 0.26094 0.0
C703 C 0.96498 0.54478 0.25922 0.0
H704 H 0.59495 0.5937 0.23933 0.0
H705 H 0.62222 0.56452 0.27863 0.0
H706 H 0.54853 0.55096 0.24058 0.0
H707 H 0.57579 0.5231 0.28059 0.0
H708 H 0.51745 0.43631 0.26108 0.0
H709 H 0.55683 0.48321 0.26428 0.0
H710 H 0.50365 0.51833 0.25325 0.0
H711 H 0.46363 0.47041 0.24956 0.0
C712 C 0.59065 0.57864 0.24857 0.0
C713 C 0.61219 0.58205 0.25872 0.0
C714 C 0.56407 0.55423 0.24933 0.0
C715 C 0.55868 0.53324 0.26044 0.0
C716 C 0.5795 0.53836 0.27157 0.0
C717 C 0.60609 0.56222 0.27053 0.0
C718 C 0.51389 0.45391 0.25947 0.0
C719 C 0.48739 0.44962 0.25506 0.0
C720 C 0.53654 0.48096 0.26147 0.0
C721 C 0.53342 0.50466 0.25924 0.0
C722 C 0.50676 0.5005 0.25503 0.0
C723 C 0.48386 0.47313 0.25299 0.0
H724 H 0.5144 0.11449 0.26009 0.0
H725 H 0.46163 0.02594 0.24979 0.0
H726 H 0.5543 0.10786 0.26372 0.0
H727 H 0.50208 0.01893 0.25395 0.0
H728 H 0.59296 0.03483 0.23981 0.0
H729 H 0.54642 0.03081 0.2412 0.0
H730 H 0.57468 0.08858 0.28006 0.0
H731 H 0.62122 0.09384 0.27794 0.0
C732 C 0.51119 0.0934 0.25887 0.0
C733 C 0.48486 0.07075 0.2546 0.0
C734 C 0.53413 0.0895 0.26111 0.0
C735 C 0.53144 0.06276 0.25929 0.0
C736 C 0.50489 0.03982 0.25537 0.0
C737 C 0.48173 0.04378 0.25307 0.0
C738 C 0.58888 0.04613 0.24883 0.0
C739 C 0.61071 0.06503 0.25858 0.0
C740 C 0.56223 0.04378 0.24968 0.0
C741 C 0.55702 0.05995 0.26049 0.0
C742 C 0.57821 0.07655 0.27125 0.0
C743 C 0.60487 0.07944 0.27012 0.0
H744 H 0.46255 0.01872 0.77474 0.0
H745 H 0.43317 0.95605 0.73843 0.0
H746 H 0.509 0.02244 0.77367 0.0
H747 H 0.47955 0.96086 0.73665 0.0
H748 H 0.54261 0.93886 0.75592 0.0
H749 H 0.50151 0.94387 0.75342 0.0
H750 H 0.55279 0.03379 0.76048 0.0
H751 H 0.59448 0.02845 0.76356 0.0
C752 C 0.46632 0.00641 0.76622 0.0
C753 C 0.44423 0.98672 0.75687 0.0
C754 C 0.49291 0.00859 0.76555 0.0
C755 C 0.49782 0.99142 0.75534 0.0
C756 C 0.47627 0.9737 0.74503 0.0
C757 C 0.4497 0.97106 0.74596 0.0
C758 C 0.54532 0.9598 0.75684 0.0
C759 C 0.57182 0.98327 0.75991 0.0
C760 C 0.52168 0.96273 0.75525 0.0
C761 C 0.52381 0.98932 0.7565 0.0
C762 C 0.55041 0.013 0.75949 0.0
C763 C 0.57426 0.00999 0.76119 0.0
H764 H 0.02014 0.45846 0.76279 0.0
H765 H 0.10794 0.51133 0.7509 0.0
H766 H 0.0131 0.4992 0.75996 0.0
H767 H 0.10133 0.55146 0.74861 0.0
H768 H 0.08674 0.61844 0.73568 0.0
H769 H 0.08109 0.57183 0.73305 0.0
H770 H 0.02584 0.54365 0.77299 0.0
H771 H 0.03011 0.59031 0.77488 0.0
C772 C 0.03781 0.47866 0.75948 0.0
C773 C 0.06455 0.48169 0.75703 0.0
C774 C 0.03384 0.50197 0.75793 0.0
C775 C 0.05656 0.52858 0.75387 0.0
C776 C 0.08311 0.53124 0.75131 0.0
C777 C 0.087 0.50815 0.75278 0.0
C778 C 0.07273 0.60209 0.74361 0.0
C779 C 0.05909 0.60797 0.75557 0.0
C780 C 0.06966 0.57539 0.74221 0.0
C781 C 0.05374 0.55421 0.75312 0.0
C782 C 0.03828 0.55946 0.76439 0.0
C783 C 0.04077 0.58616 0.76552 0.0
H784 H 0.46421 0.46126 0.7637 0.0
H785 H 0.43056 0.51661 0.7555 0.0
H786 H 0.51218 0.50137 0.76048 0.0
H787 H 0.47758 0.55611 0.75281 0.0
H788 H 0.55909 0.6219 0.73842 0.0
H789 H 0.5169 0.57614 0.73611 0.0
H790 H 0.54559 0.54486 0.77394 0.0
H791 H 0.58903 0.59067 0.77552 0.0
C792 C 0.46705 0.48188 0.76113 0.0
C793 C 0.44366 0.48579 0.75981 0.0
C794 C 0.49444 0.50482 0.75935 0.0
C795 C 0.49876 0.53192 0.7562 0.0
C796 C 0.47518 0.53549 0.75479 0.0
C797 C 0.44808 0.51278 0.75649 0.0
C798 C 0.55675 0.60507 0.74597 0.0
C799 C 0.57706 0.60985 0.75728 0.0
C800 C 0.53246 0.57886 0.74474 0.0
C801 C 0.52743 0.55706 0.75516 0.0
C802 C 0.54878 0.56118 0.76573 0.0
C803 C 0.57359 0.5874 0.76669 0.0
H804 H 0.64116 0.77184 0.61267 0.0
H805 H 0.69336 0.79894 0.57166 0.0
H806 H 0.64705 0.81849 0.61561 0.0
H807 H 0.69766 0.84557 0.57386 0.0
H808 H 0.70228 0.9301 0.58358 0.0
H809 H 0.71105 0.8905 0.58669 0.0
H810 H 0.62434 0.83722 0.60071 0.0
H811 H 0.61605 0.87621 0.59809 0.0
C812 C 0.65431 0.78799 0.60442 0.0
C813 C 0.66657 0.7818 0.59186 0.0
C814 C 0.65751 0.81471 0.60601 0.0
C815 C 0.67205 0.83553 0.59469 0.0
C816 C 0.68631 0.83004 0.58279 0.0
C817 C 0.68378 0.80334 0.58147 0.0
C818 C 0.68536 0.90996 0.58758 0.0
C819 C 0.65849 0.90624 0.59059 0.0
C820 C 0.69032 0.8873 0.58928 0.0
C821 C 0.6685 0.86071 0.59409 0.0
C822 C 0.64191 0.85747 0.59739 0.0
C823 C 0.63704 0.87989 0.59573 0.0
H824 H 0.16297 0.76794 0.60974 0.0
H825 H 0.13547 0.79861 0.57122 0.0
H826 H 0.2042 0.8141 0.61297 0.0
H827 H 0.17817 0.84481 0.57366 0.0
H828 H 0.25771 0.92862 0.58405 0.0
H829 H 0.20987 0.88834 0.58712 0.0
H830 H 0.2451 0.83511 0.59786 0.0
H831 H 0.29198 0.87487 0.59536 0.0
C832 C 0.16561 0.78472 0.60206 0.0
C833 C 0.14626 0.77968 0.59012 0.0
C834 C 0.1894 0.81119 0.60382 0.0
C835 C 0.19501 0.83299 0.59328 0.0
C836 C 0.17454 0.82854 0.582 0.0
C837 C 0.15016 0.80208 0.58054 0.0
C838 C 0.25503 0.90834 0.58735 0.0
C839 C 0.27856 0.90488 0.58944 0.0
C840 C 0.22769 0.88527 0.58901 0.0
C841 C 0.22354 0.85846 0.59284 0.0
C842 C 0.24728 0.85546 0.59529 0.0
C843 C 0.27433 0.87833 0.5937 0.0
H844 H 0.29144 0.43361 0.60859 0.0
H845 H 0.26074 0.37054 0.5725 0.0
H846 H 0.24501 0.42847 0.61116 0.0
H847 H 0.2143 0.36663 0.57423 0.0
H848 H 0.12945 0.36081 0.58435 0.0
H849 H 0.17109 0.35546 0.58739 0.0
H850 H 0.22215 0.4452 0.59524 0.0
H851 H 0.181 0.45016 0.59287 0.0
C852 C 0.2746 0.41842 0.6013 0.0
C853 C 0.27967 0.40272 0.59023 0.0
C854 C 0.248 0.41562 0.60265 0.0
C855 C 0.22606 0.39778 0.59257 0.0
C856 C 0.23065 0.38056 0.5822 0.0
C857 C 0.25724 0.38284 0.58115 0.0
C858 C 0.1496 0.37922 0.58692 0.0
C859 C 0.15197 0.40588 0.58841 0.0
C860 C 0.17344 0.37621 0.58859 0.0
C861 C 0.2 0.39983 0.59172 0.0
C862 C 0.20204 0.42634 0.59329 0.0
C863 C 0.17837 0.42927 0.59176 0.0
H864 H 0.00648 0.34933 0.12792 0.0
H865 H 0.01902 0.28354 0.14704 0.0
H866 H 0.99694 0.36027 0.15395 0.0
H867 H 0.00841 0.29357 0.1729 0.0
H868 H 0.01722 0.33793 0.21933 0.0
H869 H 0.0268 0.32676 0.19332 0.0
H870 H 0.96379 0.3438 0.17427 0.0
H871 H 0.95519 0.35597 0.20003 0.0
C872 C 0.00681 0.33696 0.13765 0.0
C873 C 0.01353 0.31562 0.13542 0.0
C874 C 0.00124 0.34313 0.1526 0.0
C875 C 0.00195 0.32786 0.16563 0.0
C876 C 0.00821 0.30618 0.16326 0.0
C877 C 0.01406 0.30025 0.14838 0.0
C878 C 0.00541 0.33917 0.20956 0.0
C879 C 0.98556 0.34792 0.21173 0.0
C880 C 0.01078 0.33266 0.19464 0.0
C881 C 0.99616 0.33447 0.18159 0.0
C882 C 0.97593 0.34273 0.18391 0.0
C883 C 0.97082 0.3495 0.19875 0.0
H884 H 0.77222 0.76662 0.1488 0.0
H885 H 0.7067 0.68789 0.13001 0.0
H886 H 0.76337 0.74607 0.17462 0.0
H887 H 0.69689 0.66741 0.15609 0.0
H888 H 0.70269 0.63108 0.20249 0.0
H889 H 0.71392 0.65121 0.17652 0.0
H890 H 0.73073 0.73147 0.19514 0.0
H891 H 0.72054 0.71143 0.22127 0.0
C892 C 0.75579 0.74487 0.1502 0.0
C893 C 0.74011 0.72888 0.13735 0.0
C894 C 0.75054 0.73313 0.16508 0.0
C895 C 0.72922 0.70511 0.16757 0.0
C896 C 0.71373 0.68896 0.15464 0.0
C897 C 0.71924 0.70068 0.13967 0.0
C898 C 0.70896 0.6531 0.20105 0.0
C899 C 0.71077 0.6697 0.21395 0.0
C900 C 0.71518 0.6646 0.1861 0.0
C901 C 0.72312 0.69298 0.18361 0.0
C902 C 0.72512 0.70965 0.19658 0.0
C903 C 0.71918 0.69817 0.21158 0.0
H904 H 0.3709 0.04933 0.12451 0.0
H905 H 0.29263 0.03541 0.14439 0.0
H906 H 0.39194 0.05878 0.15041 0.0
H907 H 0.31379 0.04598 0.1701 0.0
H908 H 0.35064 0.03875 0.2162 0.0
H909 H 0.32949 0.02814 0.19029 0.0
H910 H 0.4086 0.09186 0.17071 0.0
H911 H 0.42979 0.10143 0.19635 0.0
C912 C 0.35834 0.04868 0.13438 0.0
C913 C 0.33015 0.04161 0.13241 0.0
C914 C 0.37037 0.05417 0.14925 0.0
C915 C 0.35457 0.05308 0.16245 0.0
C916 C 0.32648 0.04645 0.16033 0.0
C917 C 0.3144 0.04064 0.14554 0.0
C918 C 0.36341 0.05043 0.20633 0.0
C919 C 0.39186 0.07083 0.20832 0.0
C920 C 0.3513 0.04449 0.19147 0.0
C921 C 0.36733 0.05909 0.17831 0.0
C922 C 0.39571 0.07973 0.18043 0.0
C923 C 0.40783 0.08539 0.19521 0.0
H924 H 0.35134 0.0073 0.88445 0.0
H925 H 0.28675 0.02059 0.86428 0.0
H926 H 0.36154 0.99544 0.85873 0.0
H927 H 0.29601 0.00782 0.8389 0.0
H928 H 0.33897 0.01361 0.79289 0.0
H929 H 0.32949 0.0252 0.81873 0.0
H930 H 0.34394 0.96102 0.83862 0.0
H931 H 0.35446 0.9503 0.81286 0.0
C932 C 0.33915 0.00738 0.87457 0.0
C933 C 0.31839 0.01503 0.87639 0.0
C934 C 0.34487 0.00049 0.85982 0.0
C935 C 0.32974 0.00086 0.84664 0.0
C936 C 0.30858 0.00794 0.84864 0.0
C937 C 0.3031 0.01507 0.86327 0.0
C938 C 0.33997 0.00191 0.80278 0.0
C939 C 0.34741 0.98103 0.80083 0.0
C940 C 0.33445 0.00846 0.81762 0.0
C941 C 0.3359 0.99403 0.83084 0.0
C942 C 0.34307 0.97292 0.8288 0.0
C943 C 0.34886 0.96658 0.81399 0.0
H944 H 0.03326 0.34803 0.7931 0.0
H945 H 0.10282 0.42495 0.81109 0.0
H946 H 0.02335 0.32801 0.81928 0.0
H947 H 0.09384 0.40477 0.837 0.0
H948 H 0.05239 0.37315 0.88417 0.0
H949 H 0.06225 0.39254 0.8579 0.0
H950 H 0.03917 0.3103 0.83952 0.0
H951 H 0.02826 0.29088 0.86566 0.0
C952 C 0.04666 0.36047 0.8026 0.0
C953 C 0.06871 0.38807 0.80004 0.0
C954 C 0.04109 0.34901 0.81763 0.0
C955 C 0.05767 0.36481 0.83038 0.0
C956 C 0.08017 0.39216 0.82762 0.0
C957 C 0.08549 0.40367 0.81269 0.0
C958 C 0.04953 0.3593 0.8745 0.0
C959 C 0.03952 0.33052 0.877 0.0
C960 C 0.0553 0.37039 0.85941 0.0
C961 C 0.05152 0.35302 0.84648 0.0
C962 C 0.04185 0.32427 0.84909 0.0
C963 C 0.0358 0.31316 0.86413 0.0
H964 H 0.70901 0.7128 0.79455 0.0
H965 H 0.63157 0.70334 0.81312 0.0
H966 H 0.72946 0.72311 0.82062 0.0
H967 H 0.65217 0.71481 0.83894 0.0
H968 H 0.68583 0.70714 0.88591 0.0
H969 H 0.66571 0.69667 0.8598 0.0
H970 H 0.74694 0.75664 0.84068 0.0
H971 H 0.76709 0.76601 0.86663 0.0
C972 C 0.69652 0.71332 0.80417 0.0
C973 C 0.66868 0.70716 0.8018 0.0
C974 C 0.70823 0.71933 0.81913 0.0
C975 C 0.69245 0.71968 0.83201 0.0
C976 C 0.6648 0.71411 0.82946 0.0
C977 C 0.65304 0.70777 0.81459 0.0
C978 C 0.6993 0.71807 0.87611 0.0
C979 C 0.72802 0.73733 0.87833 0.0
C980 C 0.68778 0.71221 0.86111 0.0
C981 C 0.70467 0.72577 0.84802 0.0
C982 C 0.73335 0.74532 0.85037 0.0
C983 C 0.74488 0.75088 0.8653 0.0
H984 H 0.01019 0.7443 0.86591 0.0
H985 H 0.07043 0.72436 0.88579 0.0
H986 H 0.0206 0.7341 0.84013 0.0
H987 H 0.08227 0.71561 0.85977 0.0
H988 H 0.07687 0.67428 0.81316 0.0
H989 H 0.06686 0.68467 0.839 0.0
H990 H 0.05237 0.74934 0.81979 0.0
H991 H 0.06089 0.73758 0.79372 0.0
C992 C 0.02597 0.73802 0.86473 0.0
C993 C 0.03949 0.73511 0.8779 0.0
C994 C 0.03217 0.73239 0.84987 0.0
C995 C 0.05247 0.72416 0.84767 0.0
C996 C 0.06615 0.72142 0.86091 0.0
C997 C 0.05953 0.72658 0.87587 0.0
C998 C 0.07154 0.69074 0.81445 0.0
C999 C 0.06962 0.70509 0.80138 0.0
C1000 C 0.06601 0.6969 0.82936 0.0
C1001 C 0.05885 0.71797 0.83168 0.0
C1002 C 0.05727 0.73259 0.81854 0.0
C1003 C 0.06233 0.72603 0.80356 0.0
H1004 H 0.34949 0.42801 0.81404 0.0
H1005 H 0.33903 0.35042 0.795 0.0
H1006 H 0.33765 0.40705 0.8397 0.0
H1007 H 0.3281 0.32947 0.82103 0.0
H1008 H 0.28517 0.29248 0.86752 0.0
H1009 H 0.29442 0.31243 0.84147 0.0
H1010 H 0.35644 0.39317 0.86019 0.0
H1011 H 0.34632 0.37333 0.88634 0.0
C1012 C 0.34475 0.40641 0.81536 0.0
C1013 C 0.3453 0.3909 0.80247 0.0
C1014 C 0.33816 0.39443 0.83016 0.0
C1015 C 0.33223 0.36663 0.83259 0.0
C1016 C 0.33229 0.35086 0.81962 0.0
C1017 C 0.33863 0.36284 0.80469 0.0
C1018 C 0.30067 0.31456 0.86608 0.0
C1019 C 0.31495 0.33137 0.87902 0.0
C1020 C 0.30616 0.32595 0.85109 0.0
C1021 C 0.32625 0.35443 0.84861 0.0
C1022 C 0.34047 0.37126 0.86161 0.0
C1023 C 0.33477 0.3599 0.87664 0.0
H1024 H 0.77006 0.02804 0.86588 0.0
H1025 H 0.68884 0.0048 0.88557 0.0
H1026 H 0.74936 0.01636 0.84005 0.0
H1027 H 0.66816 0.99408 0.85959 0.0
H1028 H 0.63356 0.951 0.81343 0.0
H1029 H 0.65497 0.96142 0.83905 0.0
H1030 H 0.73049 0.03145 0.81993 0.0
H1031 H 0.7092 0.02018 0.79404 0.0
C1032 C 0.74774 0.02053 0.86468 0.0
C1033 C 0.73106 0.01727 0.8778 0.0
C1034 C 0.73589 0.01404 0.84981 0.0
C1035 C 0.70705 0.00432 0.84761 0.0
C1036 C 0.69036 0.00106 0.86079 0.0
C1037 C 0.7022 0.00732 0.87571 0.0
C1038 C 0.65482 0.96856 0.81466 0.0
C1039 C 0.66969 0.98479 0.80169 0.0
C1040 C 0.66704 0.9747 0.82942 0.0
C1041 C 0.69442 0.99747 0.8317 0.0
C1042 C 0.70948 0.01354 0.81864 0.0
C1043 C 0.69729 0.00717 0.80379 0.0
H1044 H 0.70413 0.05311 0.12953 0.0
H1045 H 0.76615 0.03457 0.14827 0.0
H1046 H 0.69498 0.06419 0.15564 0.0
H1047 H 0.75811 0.0468 0.17415 0.0
H1048 H 0.71657 0.04152 0.22088 0.0
H1049 H 0.72602 0.03088 0.19476 0.0
H1050 H 0.71283 0.09672 0.17612 0.0
H1051 H 0.70219 0.10632 0.20208 0.0
C1052 C 0.71605 0.05177 0.1392 0.0
C1053 C 0.73575 0.04287 0.13684 0.0
C1054 C 0.71095 0.05824 0.15419 0.0
C1055 C 0.72572 0.05633 0.16714 0.0
C1056 C 0.74583 0.04795 0.16462 0.0
C1057 C 0.75063 0.04114 0.14971 0.0
C1058 C 0.71586 0.05377 0.21119 0.0
C1059 C 0.70859 0.07469 0.21355 0.0
C1060 C 0.72138 0.04779 0.19618 0.0
C1061 C 0.72015 0.06287 0.1832 0.0
C1062 C 0.71343 0.08421 0.1857 0.0
C1063 C 0.70756 0.08991 0.20065 0.0
H1064 H 0.0187 0.76084 0.14555 0.0
H1065 H 0.00678 0.68246 0.12686 0.0
H1066 H 0.00816 0.74063 0.17148 0.0
H1067 H 0.99714 0.66234 0.15302 0.0
H1068 H 0.95364 0.62573 0.19903 0.0
H1069 H 0.96324 0.6461 0.17317 0.0
H1070 H 0.02652 0.726 0.19217 0.0
H1071 H 0.01607 0.70562 0.2183 0.0
C1072 C 0.0139 0.73925 0.14699 0.0
C1073 C 0.01352 0.72322 0.13412 0.0
C1074 C 0.00809 0.72772 0.16193 0.0
C1075 C 0.00193 0.69987 0.16446 0.0
C1076 C 0.00141 0.68375 0.15153 0.0
C1077 C 0.00702 0.69526 0.13652 0.0
C1078 C 0.96956 0.64771 0.19773 0.0
C1079 C 0.98411 0.66408 0.21075 0.0
C1080 C 0.97524 0.65934 0.18283 0.0
C1081 C 0.99582 0.68768 0.18047 0.0
C1082 C 0.01027 0.70418 0.19353 0.0
C1083 C 0.00439 0.69253 0.20852 0.0
H1084 H 0.2961 0.28908 0.1461 0.0
H1085 H 0.37502 0.35369 0.12702 0.0
H1086 H 0.31662 0.2989 0.17201 0.0
H1087 H 0.39539 0.36439 0.15306 0.0
H1088 H 0.43241 0.35939 0.19908 0.0
H1089 H 0.41147 0.34736 0.17339 0.0
H1090 H 0.33212 0.33214 0.19252 0.0
H1091 H 0.35307 0.34323 0.21851 0.0
C1092 C 0.31788 0.30547 0.14745 0.0
C1093 C 0.33397 0.32056 0.13448 0.0
C1094 C 0.32959 0.31129 0.16237 0.0
C1095 C 0.35768 0.33255 0.16476 0.0
C1096 C 0.37383 0.34755 0.15171 0.0
C1097 C 0.36215 0.34152 0.13675 0.0
C1098 C 0.41044 0.35337 0.19785 0.0
C1099 C 0.39441 0.35232 0.21086 0.0
C1100 C 0.39845 0.34668 0.18303 0.0
C1101 C 0.37011 0.33899 0.18073 0.0
C1102 C 0.35393 0.33763 0.19382 0.0
C1103 C 0.36592 0.3441 0.20873 0.0
H1104 H 0.62413 0.69388 0.53448 0.0
H1105 H 0.68299 0.67085 0.55317 0.0
H1106 H 0.63261 0.68262 0.50841 0.0
H1107 H 0.69238 0.66054 0.52696 0.0
H1108 H 0.68398 0.61921 0.48026 0.0
H1109 H 0.67286 0.62844 0.50614 0.0
H1110 H 0.66648 0.69878 0.48821 0.0
H1111 H 0.67663 0.68871 0.46207 0.0
C1112 C 0.63898 0.68646 0.53301 0.0
C1113 C 0.65286 0.6832 0.54591 0.0
C1114 C 0.64403 0.68022 0.518 0.0
C1115 C 0.6633 0.67077 0.51547 0.0
C1116 C 0.67707 0.66735 0.52843 0.0
C1117 C 0.67179 0.67336 0.54348 0.0
C1118 C 0.68005 0.63657 0.4818 0.0
C1119 C 0.68122 0.65327 0.4691 0.0
C1120 C 0.67389 0.64203 0.49672 0.0
C1121 C 0.669 0.66453 0.4994 0.0
C1122 C 0.66978 0.68104 0.48661 0.0
C1123 C 0.67569 0.67537 0.47161 0.0
H1124 H 0.43292 0.09635 0.47975 0.0
H1125 H 0.3682 0.01865 0.45951 0.0
H1126 H 0.42243 0.07471 0.50527 0.0
H1127 H 0.35667 0.99709 0.48532 0.0
H1128 H 0.36297 0.95859 0.53099 0.0
H1129 H 0.3734 0.97993 0.50533 0.0
H1130 H 0.38928 0.05887 0.5255 0.0
H1131 H 0.38001 0.03764 0.55134 0.0
C1132 C 0.41623 0.07463 0.48079 0.0
C1133 C 0.40137 0.05917 0.46761 0.0
C1134 C 0.41004 0.06226 0.49549 0.0
C1135 C 0.38855 0.03417 0.49747 0.0
C1136 C 0.37364 0.01866 0.48425 0.0
C1137 C 0.38012 0.031 0.46945 0.0
C1138 C 0.36877 0.98055 0.52995 0.0
C1139 C 0.37077 0.99649 0.54319 0.0
C1140 C 0.37452 0.99274 0.51519 0.0
C1141 C 0.38211 0.02114 0.51325 0.0
C1142 C 0.38397 0.03706 0.52654 0.0
C1143 C 0.37855 0.02491 0.54136 0.0
H1144 H 0.95916 0.36636 0.47995 0.0
H1145 H 0.03952 0.38503 0.46084 0.0
H1146 H 0.97944 0.37749 0.50585 0.0
H1147 H 0.05979 0.39528 0.48697 0.0
H1148 H 0.09411 0.43798 0.53357 0.0
H1149 H 0.07388 0.42825 0.50764 0.0
H1150 H 0.99612 0.36018 0.52601 0.0
H1151 H 0.01622 0.3707 0.55216 0.0
C1152 C 0.98121 0.37277 0.4813 0.0
C1153 C 0.99776 0.37484 0.46833 0.0
C1154 C 0.9928 0.37893 0.49621 0.0
C1155 C 0.02124 0.38711 0.49861 0.0
C1156 C 0.03789 0.3894 0.48558 0.0
C1157 C 0.0263 0.38345 0.47059 0.0
C1158 C 0.07262 0.42099 0.5321 0.0
C1159 C 0.05673 0.40512 0.54494 0.0
C1160 C 0.06109 0.41525 0.51717 0.0
C1161 C 0.03339 0.39331 0.51462 0.0
C1162 C 0.0174 0.37751 0.52752 0.0
C1163 C 0.02891 0.38344 0.54252 0.0
H1164 H 0.36843 0.43899 0.53303 0.0
H1165 H 0.38452 0.37578 0.55254 0.0
H1166 H 0.37888 0.42881 0.50721 0.0
H1167 H 0.3939 0.36459 0.52649 0.0
H1168 H 0.43508 0.36939 0.47993 0.0
H1169 H 0.42606 0.38089 0.50577 0.0
H1170 H 0.36141 0.3957 0.48696 0.0
H1171 H 0.37146 0.38529 0.46088 0.0
C1172 C 0.3741 0.42276 0.53178 0.0
C1173 C 0.37568 0.4082 0.54486 0.0
C1174 C 0.37986 0.41673 0.5169 0.0
C1175 C 0.38707 0.3957 0.51461 0.0
C1176 C 0.38882 0.38122 0.52775 0.0
C1177 C 0.38335 0.38752 0.54271 0.0
C1178 C 0.41899 0.37521 0.48128 0.0
C1179 C 0.404 0.37646 0.46833 0.0
C1180 C 0.41363 0.38159 0.49618 0.0
C1181 C 0.39286 0.3891 0.49861 0.0
C1182 C 0.37788 0.39043 0.48558 0.0
C1183 C 0.38351 0.38435 0.47061 0.0
H1184 H 0.6219 0.95792 0.53416 0.0
H1185 H 0.68329 0.03829 0.55341 0.0
H1186 H 0.6313 0.97826 0.50827 0.0
H1187 H 0.69357 0.05861 0.5273 0.0
H1188 H 0.68579 0.09328 0.4808 0.0
H1189 H 0.67494 0.0728 0.50665 0.0
H1190 H 0.66522 0.99506 0.48811 0.0
H1191 H 0.67515 0.01546 0.46201 0.0
C1192 C 0.63754 0.97999 0.53285 0.0
C1193 C 0.65185 0.99652 0.54586 0.0
C1194 C 0.6431 0.99161 0.51794 0.0
C1195 C 0.66334 0.02007 0.51558 0.0
C1196 C 0.67756 0.03669 0.52865 0.0
C1197 C 0.67177 0.02507 0.54363 0.0
C1198 C 0.68121 0.07175 0.48221 0.0
C1199 C 0.68131 0.05597 0.46934 0.0
C1200 C 0.67522 0.06006 0.4971 0.0
C1201 C 0.66938 0.03231 0.49959 0.0
C1202 C 0.66925 0.01639 0.48665 0.0
C1203 C 0.67502 0.02806 0.47168 0.0
H1204 H 0.04115 0.68481 0.46037 0.0
H1205 H 0.96188 0.61965 0.47879 0.0
H1206 H 0.06091 0.69497 0.4866 0.0
H1207 H 0.98174 0.62892 0.50482 0.0
H1208 H 0.01579 0.67226 0.55159 0.0
H1209 H 0.99613 0.66174 0.52534 0.0
H1210 H 0.07656 0.6781 0.50732 0.0
H1211 H 0.09627 0.68958 0.53335 0.0
C1212 C 0.02808 0.6724 0.46999 0.0
C1213 C -4e-05 0.65149 0.46749 0.0
C1214 C 0.0394 0.67813 0.48505 0.0
C1215 C 0.02292 0.66286 0.49796 0.0
C1216 C 0.99495 0.64155 0.49531 0.0
C1217 C 0.98361 0.63605 0.48031 0.0
C1218 C 0.02917 0.67348 0.54201 0.0
C1219 C 0.05758 0.68182 0.54457 0.0
C1220 C 0.01791 0.66734 0.52693 0.0
C1221 C 0.03474 0.66913 0.51408 0.0
C1222 C 0.06304 0.67702 0.51678 0.0
C1223 C 0.07431 0.68339 0.53179 0.0
H1224 H 0.99682 0.30008 0.0473 0.0
H1225 H 0.08631 0.35552 0.04294 0.0
H1226 H 0.9905 0.30753 0.02018 0.0
H1227 H 0.08017 0.36541 0.01604 0.0
H1228 H 0.98037 0.31166 0.97049 0.0
H1229 H 0.98895 0.32742 0.9975 0.0
H1230 H 0.07408 0.34215 0.99353 0.0
H1231 H 0.06576 0.32872 0.96642 0.0
C1232 C 0.01498 0.31515 0.04068 0.0
C1233 C 0.04201 0.32722 0.04714 0.0
C1234 C 0.01145 0.31955 0.02502 0.0
C1235 C 0.03491 0.33662 0.01551 0.0
C1236 C 0.06163 0.35126 0.02265 0.0
C1237 C 0.06521 0.34608 0.03819 0.0
C1238 C 0.00128 0.31971 0.97531 0.0
C1239 C 0.02255 0.31938 0.96641 0.0
C1240 C 0.00614 0.32821 0.9909 0.0
C1241 C 0.03202 0.3354 0.99811 0.0
C1242 C 0.05393 0.33718 0.98866 0.0
C1243 C 0.04925 0.32945 0.97298 0.0
H1244 H 0.74832 0.70326 0.97178 0.0
H1245 H 0.73556 0.77445 0.96805 0.0
H1246 H 0.73234 0.69634 0.99878 0.0
H1247 H 0.72163 0.7693 0.9951 0.0
H1248 H 0.70391 0.76537 0.04412 0.0
H1249 H 0.69578 0.75082 0.01694 0.0
H1250 H 0.75208 0.71723 0.02188 0.0
H1251 H 0.75792 0.72973 0.04924 0.0
C1252 C 0.74118 0.71684 0.97666 0.0
C1253 C 0.74269 0.73909 0.96786 0.0
C1254 C 0.73251 0.71329 0.99224 0.0
C1255 C 0.72613 0.73256 0.99948 0.0
C1256 C 0.72583 0.75362 0.99015 0.0
C1257 C 0.73388 0.75671 0.97453 0.0
C1258 C 0.71337 0.75364 0.03947 0.0
C1259 C 0.73134 0.74844 0.04873 0.0
C1260 C 0.70921 0.74574 0.02379 0.0
C1261 C 0.72394 0.73357 0.01685 0.0
C1262 C 0.74007 0.7263 0.02659 0.0
C1263 C 0.7435 0.73345 0.04238 0.0
H1264 H 0.32811 0.08505 0.97385 0.0
H1265 H 0.31891 0.0053 0.95971 0.0
H1266 H 0.33563 0.076 1.00051 0.0
H1267 H 0.32681 0.99617 0.98661 0.0
H1268 H 0.27749 0.974 0.03466 0.0
H1269 H 0.29364 0.98404 0.00794 0.0
H1270 H 0.3596 0.06696 0.02157 0.0
H1271 H 0.34297 0.05678 0.04852 0.0
C1272 C 0.32869 0.06597 0.97638 0.0
C1273 C 0.32248 0.04568 0.96474 0.0
C1274 C 0.33323 0.06083 0.9917 0.0
C1275 C 0.33142 0.03514 0.99582 0.0
C1276 C 0.32797 0.01603 0.98387 0.0
C1277 C 0.32366 0.02132 0.96844 0.0
C1278 C 0.2961 0.994 0.03205 0.0
C1279 C 0.30874 0.01475 0.04362 0.0
C1280 C 0.30552 -0.00026 0.0167 0.0
C1281 C 0.32766 0.02652 0.0125 0.0
C1282 C 0.34222 0.04626 0.02438 0.0
C1283 C 0.33289 0.04037 0.03985 0.0
H1284 H 0.0541 0.73418 0.96158 0.0
H1285 H 0.9722 0.71856 0.97612 0.0
H1286 H 0.06437 0.72674 0.98832 0.0
H1287 H 0.9824 0.71169 1.00265 0.0
H1288 H 0.00343 0.70756 0.05055 0.0
H1289 H 0.99368 0.69036 0.02373 0.0
H1290 H 0.07515 0.75859 0.00977 0.0
H1291 H 0.08488 0.77516 0.0364 0.0
C1292 C 0.03789 0.72807 0.97035 0.0
C1293 C 0.01251 0.72735 0.96682 0.0
C1294 C 0.04385 0.72409 0.98572 0.0
C1295 C 0.02446 0.71916 0.99777 0.0
C1296 C 0.99788 0.71531 0.99378 0.0
C1297 C 0.99203 0.71944 0.97852 0.0
C1298 C 0.0197 0.71806 0.04185 0.0
C1299 C 0.04474 0.74295 0.04552 0.0
C1300 C 0.01402 0.70841 0.02643 0.0
C1301 C 0.03335 0.72342 0.01445 0.0
C1302 C 0.05972 0.74634 0.01857 0.0
C1303 C 0.06529 0.756 0.0339 0.0
H1304 H 0.28472 0.34412 0.03697 0.0
H1305 H 0.35113 0.32835 0.0511 0.0
H1306 H 0.30135 0.35092 0.0104 0.0
H1307 H 0.36863 0.33606 0.02434 0.0
H1308 H 0.34007 0.28609 0.97708 0.0
H1309 H 0.34802 0.30419 1.00336 0.0
H1310 H 0.33174 0.37023 0.9887 0.0
H1311 H 0.32292 0.35125 0.96223 0.0
C1312 C 0.30369 0.3433 0.03448 0.0
C1313 C 0.31628 0.33514 0.04606 0.0
C1314 C 0.31342 0.34739 0.01917 0.0
C1315 C 0.336 0.34338 0.01504 0.0
C1316 C 0.35076 0.33867 0.02703 0.0
C1317 C 0.34097 0.33457 0.04242 0.0
C1318 C 0.33911 0.30506 0.97935 0.0
C1319 C 0.33032 0.31691 0.96767 0.0
C1320 C 0.34389 0.31566 0.99448 0.0
C1321 C 0.33994 0.33839 0.99835 0.0
C1322 C 0.33437 0.3523 0.98623 0.0
C1323 C 0.32961 0.34165 0.971 0.0
H1324 H 0.73117 0.99617 0.96675 0.0
H1325 H 0.75827 0.08446 0.9706 0.0
H1326 H 0.71645 0.98914 0.99373 0.0
H1327 H 0.74134 0.07744 0.99736 0.0
H1328 H 0.76229 0.06542 0.04784 0.0
H1329 H 0.75833 0.07303 0.02045 0.0
H1330 H 0.69253 0.98586 0.01577 0.0
H1331 H 0.69863 0.97817 0.04309 0.0
C1332 C 0.73253 0.0138 0.97321 0.0
C1333 C 0.74571 0.04079 0.96664 0.0
C1334 C 0.72404 0.00986 0.9888 0.0
C1335 C 0.72812 0.03283 0.99812 0.0
C1336 C 0.73867 0.05934 0.99088 0.0
C1337 C 0.74792 0.06337 0.97542 0.0
C1338 C 0.74623 0.04825 0.04104 0.0
C1339 C 0.73063 0.02131 0.04755 0.0
C1340 C 0.74387 0.0525 0.0252 0.0
C1341 C 0.72548 0.02992 0.01551 0.0
C1342 C 0.70765 0.00363 0.02257 0.0
C1343 C 0.71064 -0.00075 0.03834 0.0
H1344 H 0.72476 0.68693 0.29738 0.0
H1345 H 0.64125 0.62458 0.3121 0.0
H1346 H 0.73622 0.70445 0.3241 0.0
H1347 H 0.65259 0.64137 0.33862 0.0
H1348 H 0.67569 0.66405 0.38657 0.0
H1349 H 0.66635 0.67337 0.36004 0.0
H1350 H 0.74536 0.68147 0.34507 0.0
H1351 H 0.75476 0.67288 0.37142 0.0
C1352 C 0.7085 0.67776 0.30619 0.0
C1353 C 0.68227 0.65413 0.30273 0.0
C1354 C 0.71512 0.68756 0.32155 0.0
C1355 C 0.69558 0.67394 0.33366 0.0
C1356 C 0.66824 0.65254 0.32972 0.0
C1357 C 0.66172 0.64274 0.31446 0.0
C1358 C 0.69155 0.66903 0.37772 0.0
C1359 C 0.71571 0.66723 0.38101 0.0
C1360 C 0.68611 0.67411 0.36246 0.0
C1361 C 0.70478 0.67756 0.35027 0.0
C1362 C 0.73045 0.67902 0.35404 0.0
C1363 C 0.7358 0.67387 0.3692 0.0
H1364 H 0.37238 0.08953 0.37579 0.0
H1365 H 0.43977 0.07067 0.37741 0.0
H1366 H 0.36393 0.07529 0.34847 0.0
H1367 H 0.43293 0.05814 0.35008 0.0
H1368 H 0.42489 0.04176 0.30061 0.0
H1369 H 0.41119 0.03319 0.32797 0.0
H1370 H 0.38694 0.09718 0.32582 0.0
H1371 H 0.39892 0.104 0.29838 0.0
C1372 C 0.38474 0.08142 0.37037 0.0
C1373 C 0.40644 0.08078 0.37865 0.0
C1374 C 0.38028 0.07369 0.35465 0.0
C1375 C 0.39806 0.06601 0.34679 0.0
C1376 C 0.41843 0.06347 0.35556 0.0
C1377 C 0.42248 0.0707 0.37131 0.0
C1378 C 0.41534 0.05291 0.30591 0.0
C1379 C 0.4126 0.07327 0.29745 0.0
C1380 C 0.40791 0.04841 0.32166 0.0
C1381 C 0.39853 0.06493 0.32939 0.0
C1382 C 0.39374 0.08373 0.32044 0.0
C1383 C 0.40062 0.08774 0.30463 0.0
H1384 H 0.94623 0.30543 0.37058 0.0
H1385 H 0.01333 0.38748 0.38429 0.0
H1386 H 0.96275 0.3146 0.34394 0.0
H1387 H 0.03052 0.39671 0.35743 0.0
H1388 H 0.00136 0.41637 0.30958 0.0
H1389 H 0.00873 0.40708 0.33619 0.0
H1390 H 0.99465 0.32508 0.32256 0.0
H1391 H 0.98672 0.33446 0.29571 0.0
C1392 C 0.96526 0.32506 0.36797 0.0
C1393 C 0.97821 0.34592 0.37945 0.0
C1394 C 0.97491 0.3303 0.35265 0.0
C1395 C 0.9977 0.35665 0.34839 0.0
C1396 C 0.01259 0.37636 0.36025 0.0
C1397 C 0.00295 0.37101 0.37568 0.0
C1398 C 0.00079 0.39673 0.31216 0.0
C1399 C 0.99301 0.37596 0.30064 0.0
C1400 C 0.00523 0.39143 0.32746 0.0
C1401 C 0.00181 0.36509 0.33166 0.0
C1402 C 0.99699 0.34542 0.31977 0.0
C1403 C 0.9927 0.35085 0.30436 0.0
H1404 H 0.75295 0.11016 0.37175 0.0
H1405 H 0.67208 0.04148 0.38583 0.0
H1406 H 0.74334 0.09393 0.34506 0.0
H1407 H 0.66248 0.02457 0.35895 0.0
H1408 H 0.63994 0.05301 0.3118 0.0
H1409 H 0.6505 0.04565 0.33814 0.0
H1410 H 0.73299 0.06279 0.3234 0.0
H1411 H 0.72234 0.07077 0.29684 0.0
C1412 C 0.73353 0.09085 0.36921 0.0
C1413 C 0.71306 0.0774 0.38083 0.0
C1414 C 0.72804 0.08137 0.35385 0.0
C1415 C 0.70184 0.05822 0.34971 0.0
C1416 C 0.68267 0.04281 0.36168 0.0
C1417 C 0.68826 0.0523 0.37713 0.0
C1418 C 0.65998 0.05425 0.31406 0.0
C1419 C 0.68048 0.06293 0.30232 0.0
C1420 C 0.66603 0.04983 0.32921 0.0
C1421 C 0.69285 0.05414 0.33305 0.0
C1422 C 0.71229 0.05979 0.32092 0.0
C1423 C 0.70613 0.06409 0.30566 0.0
H1424 H 0.95164 0.67568 0.37001 0.0
H1425 H 0.01469 0.65441 0.38315 0.0
H1426 H 0.96652 0.68036 0.34311 0.0
H1427 H 0.03028 0.6597 0.35606 0.0
H1428 H 0.99663 0.60916 0.30917 0.0
H1429 H 0.00558 0.62701 0.33554 0.0
H1430 H 0.99717 0.69798 0.32099 0.0
H1431 H 0.98762 0.6795 0.29437 0.0
C1432 C 0.96959 0.67324 0.36722 0.0
C1433 C 0.98172 0.66427 0.37865 0.0
C1434 C 0.97826 0.67603 0.35173 0.0
C1435 C -0.00077 0.66978 0.34727 0.0
C1436 C 0.01365 0.66411 0.35903 0.0
C1437 C 0.005 0.66142 0.37461 0.0
C1438 C 0.99753 0.62905 0.31148 0.0
C1439 C 0.99096 0.64267 0.29974 0.0
C1440 C 0.00292 0.63948 0.32666 0.0
C1441 C 0.00171 0.66379 0.33055 0.0
C1442 C 0.99784 0.67895 0.31846 0.0
C1443 C 0.99261 0.66853 0.30317 0.0
H1444 H 0.3903 0.3102 0.37012 0.0
H1445 H 0.4065 0.39281 0.38359 0.0
H1446 H 0.38461 0.31994 0.34328 0.0
H1447 H 0.40028 0.40266 0.35652 0.0
H1448 H 0.38145 0.3405 0.29478 0.0
H1449 H 0.36419 0.33104 0.32163 0.0
H1450 H 0.43269 0.41247 0.33546 0.0
H1451 H 0.44933 0.42188 0.30884 0.0
C1452 C 0.39151 0.3301 0.36739 0.0
C1453 C 0.39918 0.35087 0.37891 0.0
C1454 C 0.38809 0.33568 0.35196 0.0
C1455 C 0.39247 0.36231 0.34759 0.0
C1456 C 0.39723 0.38208 0.35942 0.0
C1457 C 0.40048 0.37637 0.37497 0.0
C1458 C 0.39205 0.35677 0.30347 0.0
C1459 C 0.41695 0.38177 0.29976 0.0
C1460 C 0.38236 0.35128 0.3189 0.0
C1461 C 0.3973 0.37076 0.33084 0.0
C1462 C 0.42045 0.39695 0.32669 0.0
C1463 C 0.43017 0.40232 0.31137 0.0
H1464 H 0.33095 0.96672 0.71288 0.0
H1465 H 0.42068 0.0207 0.70848 0.0
H1466 H 0.32507 0.97273 0.68543 0.0
H1467 H 0.415 0.02887 0.68119 0.0
H1468 H 0.4001 0.98508 0.63342 0.0
H1469 H 0.40799 0.0006 0.66023 0.0
H1470 H 0.32522 0.99241 0.66177 0.0
H1471 H 0.31706 0.9751 0.63495 0.0
C1472 C 0.34925 0.98124 0.70618 0.0
C1473 C 0.37624 0.99319 0.71271 0.0
C1474 C 0.34597 0.98474 0.69034 0.0
C1475 C 0.36967 0.00067 0.68079 0.0
C1476 C 0.39632 0.01557 0.68795 0.0
C1477 C 0.39963 0.01137 0.70367 0.0
C1478 C 0.38404 0.98758 0.63937 0.0
C1479 C 0.35812 0.97915 0.63219 0.0
C1480 C 0.38852 0.99662 0.65481 0.0
C1481 C 0.36714 0.9976 0.66346 0.0
C1482 C 0.34198 0.99139 0.6557 0.0
C1483 C 0.33738 0.98186 0.64026 0.0
H1484 H 0.06355 0.37311 0.71704 0.0
H1485 H 0.04755 0.43904 0.70217 0.0
H1486 H 0.05698 0.35559 0.69031 0.0
H1487 H 0.04148 0.42209 0.67563 0.0
H1488 H 0.03959 0.39758 0.62777 0.0
H1489 H 0.0212 0.38938 0.65435 0.0
H1490 H 0.09004 0.37785 0.66936 0.0
H1491 H 0.10786 0.38553 0.64296 0.0
C1492 C 0.05748 0.38314 0.7082 0.0
C1493 C 0.05648 0.40769 0.71164 0.0
C1494 C 0.054 0.3733 0.69284 0.0
C1495 C 0.04928 0.38775 0.6807 0.0
C1496 C 0.04498 0.41027 0.68458 0.0
C1497 C 0.04863 0.42015 0.69984 0.0
C1498 C 0.05001 0.39204 0.63664 0.0
C1499 C 0.0754 0.39263 0.63335 0.0
C1500 C 0.03965 0.38762 0.65191 0.0
C1501 C 0.05443 0.38354 0.66412 0.0
C1502 C 0.07795 0.38082 0.66036 0.0
C1503 C 0.08833 0.3854 0.64518 0.0
H1504 H 0.61463 0.63793 0.70371 0.0
H1505 H 0.68469 0.71732 0.71856 0.0
H1506 H 0.63197 0.64732 0.67726 0.0
H1507 H 0.70278 0.72669 0.69189 0.0
H1508 H 0.67781 0.75126 0.64422 0.0
H1509 H 0.6841 0.74016 0.67063 0.0
H1510 H 0.66343 0.65645 0.65607 0.0
H1511 H 0.65643 0.66766 0.62945 0.0
C1512 C 0.63441 0.65698 0.70139 0.0
C1513 C 0.64801 0.67714 0.71314 0.0
C1514 C 0.64456 0.66232 0.68617 0.0
C1515 C 0.66856 0.68806 0.68228 0.0
C1516 C 0.68393 0.70687 0.69441 0.0
C1517 C 0.67375 0.70142 0.70973 0.0
C1518 C 0.67561 0.73081 0.64654 0.0
C1519 C 0.66614 0.71016 0.63485 0.0
C1520 C 0.6794 0.72444 0.66174 0.0
C1521 C 0.67368 0.69715 0.66565 0.0
C1522 C 0.66746 0.67751 0.65353 0.0
C1523 C 0.66374 0.68398 0.63824 0.0
H1524 H 0.33657 0.38176 0.718 0.0
H1525 H 0.41807 0.45117 0.70547 0.0
H1526 H 0.32831 0.36631 0.69081 0.0
H1527 H 0.40987 0.43626 0.6785 0.0
H1528 H 0.39209 0.41202 0.6298 0.0
H1529 H 0.40112 0.40485 0.65687 0.0
H1530 H 0.31792 0.38836 0.66952 0.0
H1531 H 0.30903 0.39512 0.64269 0.0
C1532 C 0.35313 0.39307 0.70956 0.0
C1533 C 0.3778 0.41787 0.71382 0.0
C1534 C 0.34833 0.38442 0.69394 0.0
C1535 C 0.36821 0.4003 0.68235 0.0
C1536 C 0.39409 0.42334 0.68701 0.0
C1537 C 0.39876 0.43205 0.70251 0.0
C1538 C 0.3754 0.40569 0.63828 0.0
C1539 C 0.34998 0.4044 0.63418 0.0
C1540 C 0.38063 0.40186 0.65383 0.0
C1541 C 0.36044 0.39647 0.6655 0.0
C1542 C 0.33396 0.39229 0.66096 0.0
C1543 C 0.32887 0.39633 0.64553 0.0
H1544 H 0.68132 0.99016 0.71848 0.0
H1545 H 0.61159 0.00088 0.7046 0.0
H1546 H 0.69795 0.99755 0.69154 0.0
H1547 H 0.62765 0.00769 0.67786 0.0
H1548 H 0.65213 0.0117 0.62954 0.0
H1549 H 0.6592 0.02949 0.65626 0.0
H1550 H 0.67681 0.96425 0.67064 0.0
H1551 H 0.67021 0.94706 0.64414 0.0
C1552 C 0.67019 0.99521 0.70981 0.0
C1553 C 0.64491 0.9945 0.7136 0.0
C1554 C 0.67953 -0.00084 0.69433 0.0
C1555 C 0.66383 0.00261 0.68241 0.0
C1556 C 0.64041 0.00518 0.68662 0.0
C1557 C 0.63105 0.0011 0.702 0.0
C1558 C 0.65868 0.002 0.63832 0.0
C1559 C 0.66023 0.97776 0.63481 0.0
C1560 C 0.66248 0.01199 0.65367 0.0
C1561 C 0.66807 0.99801 0.66573 0.0
C1562 C 0.67267 0.97572 0.66177 0.0
C1563 C 0.6687 0.96569 0.64653 0.0
H1564 H 0.06729 0.72072 0.71758 0.0
H1565 H 0.05106 0.6387 0.7028 0.0
H1566 H 0.05908 0.73095 0.69098 0.0
H1567 H 0.04364 0.64889 0.67641 0.0
H1568 H 0.0399 0.66979 0.62859 0.0
H1569 H 0.02267 0.65986 0.65541 0.0
H1570 H 0.08972 0.7421 0.6693 0.0
H1571 H 0.10612 0.75202 0.64268 0.0
C1572 C 0.06096 0.70451 0.70879 0.0
C1573 C 0.06027 0.67911 0.7122 0.0
C1574 C 0.05653 0.71043 0.69349 0.0
C1575 C 0.05128 0.69102 0.68138 0.0
C1576 C 0.0475 0.66442 0.68529 0.0
C1577 C 0.05199 0.65859 0.70048 0.0
C1578 C 0.05007 0.68615 0.63728 0.0
C1579 C 0.0746 0.7115 0.6336 0.0
C1580 C 0.04044 0.68038 0.65271 0.0
C1581 C 0.05519 0.69988 0.66469 0.0
C1582 C 0.07767 0.7265 0.66053 0.0
C1583 C 0.08725 0.73219 0.6452 0.0
H1584 H 0.86416 0.07136 0.0926 0.0
H1585 H 0.8135 0.11138 0.09619 0.0
H1586 H 0.90662 0.11716 0.09274 0.0
H1587 H 0.85661 0.15779 0.09612 0.0
H1588 H 0.96906 0.1961 0.06872 0.0
H1589 H 0.92396 0.15359 0.07174 0.0
H1590 H 0.90431 0.1905 0.11066 0.0
H1591 H 0.95009 0.23391 0.10758 0.0
C1592 C 0.86207 0.08996 0.09352 0.0
C1593 C 0.83541 0.08772 0.09407 0.0
C1594 C 0.88644 0.11623 0.09358 0.0
C1595 C 0.88488 0.14103 0.09408 0.0
C1596 C 0.85837 0.13896 0.09567 0.0
C1597 C 0.83376 0.11244 0.09567 0.0
C1598 C 0.95526 0.19539 0.07793 0.0
C1599 C 0.96347 0.21828 0.08809 0.0
C1600 C 0.92937 0.17092 0.07967 0.0
C1601 C 0.91092 0.1685 0.09165 0.0
C1602 C 0.91826 0.19181 0.10137 0.0
C1603 C 0.94442 0.21657 0.09962 0.0
H1604 H 0.96071 0.78072 0.06242 0.0
H1605 H 0.95155 0.7482 0.10908 0.0
H1606 H 0.91578 0.77918 0.06469 0.0
H1607 H 0.90621 0.7471 0.11146 0.0
H1608 H 0.81437 0.73541 0.10044 0.0
H1609 H 0.85457 0.72719 0.09954 0.0
H1610 H 0.90729 0.81155 0.08207 0.0
H1611 H 0.86793 0.81983 0.08289 0.0
C1612 C 0.94886 0.77289 0.07311 0.0
C1613 C 0.95983 0.76511 0.08568 0.0
C1614 C 0.92316 0.77204 0.07442 0.0
C1615 C 0.9079 0.76368 0.08838 0.0
C1616 C 0.91767 0.75373 0.10059 0.0
C1617 C 0.94353 0.75437 0.09923 0.0
C1618 C 0.83463 0.75224 0.09654 0.0
C1619 C 0.83775 0.77814 0.0915 0.0
C1620 C 0.85757 0.74751 0.09605 0.0
C1621 C 0.88382 0.76854 0.09043 0.0
C1622 C 0.88712 0.79472 0.0861 0.0
C1623 C 0.86447 0.79946 0.08663 0.0
H1624 H 0.32333 0.11187 0.09396 0.0
H1625 H 0.23407 0.07729 0.08621 0.0
H1626 H 0.32958 0.15959 0.09429 0.0
H1627 H 0.24038 0.1243 0.08663 0.0
H1628 H 0.31184 0.23657 0.10702 0.0
H1629 H 0.31302 0.19229 0.10918 0.0
H1630 H 0.26576 0.16295 0.06648 0.0
H1631 H 0.26437 0.20633 0.06436 0.0
C1632 C 0.30505 0.11436 0.09255 0.0
C1633 C 0.27829 0.09078 0.08973 0.0
C1634 C 0.30865 0.14163 0.09278 0.0
C1635 C 0.28554 0.14559 0.09017 0.0
C1636 C 0.25867 0.1219 0.08832 0.0
C1637 C 0.25509 0.09491 0.08808 0.0
C1638 C 0.30213 0.22077 0.09801 0.0
C1639 C 0.28748 0.22467 0.0857 0.0
C1640 C 0.30283 0.19552 0.09924 0.0
C1641 C 0.28892 0.17401 0.08817 0.0
C1642 C 0.27604 0.17888 0.07538 0.0
C1643 C 0.27527 0.20379 0.07418 0.0
H1644 H 0.24201 0.94511 0.91674 0.0
H1645 H 0.18676 0.98025 0.91781 0.0
H1646 H 0.20056 0.89734 0.91682 0.0
H1647 H 0.1461 0.93316 0.91785 0.0
H1648 H 0.10435 0.81945 0.90376 0.0
H1649 H 0.15015 0.86292 0.90037 0.0
H1650 H 0.13407 0.89793 0.94142 0.0
H1651 H 0.08907 0.85533 0.94484 0.0
C1652 C 0.22115 0.94269 0.91669 0.0
C1653 C 0.21765 0.96644 0.91763 0.0
C1654 C 0.19753 0.91542 0.9167 0.0
C1655 C 0.17029 0.91174 0.91762 0.0
C1656 C 0.16693 0.93549 0.91741 0.0
C1657 C 0.19027 0.96246 0.91743 0.0
C1658 C 0.11091 0.83631 0.91217 0.0
C1659 C 0.09283 0.83422 0.92437 0.0
C1660 C 0.13704 0.86106 0.91023 0.0
C1661 C 0.14523 0.88383 0.92048 0.0
C1662 C 0.12795 0.88086 0.93318 0.0
C1663 C 0.10212 0.85644 0.93511 0.0
H1664 H 0.19642 0.25401 0.94584 0.0
H1665 H 0.23316 0.3113 0.90712 0.0
H1666 H 0.15326 0.25542 0.94287 0.0
H1667 H 0.18908 0.31238 0.90402 0.0
H1668 H 0.1097 0.323 0.9176 0.0
H1669 H 0.15618 0.32651 0.91768 0.0
H1670 H 0.11611 0.23622 0.923 0.0
H1671 H 0.07024 0.23274 0.92321 0.0
C1672 C 0.19531 0.26692 0.93664 0.0
C1673 C 0.21816 0.28218 0.92655 0.0
C1674 C 0.17044 0.26763 0.93491 0.0
C1675 C 0.16751 0.28347 0.92299 0.0
C1676 C 0.19072 0.29987 0.91328 0.0
C1677 C 0.21589 0.29922 0.91504 0.0
C1678 C 0.11089 0.30391 0.91856 0.0
C1679 C 0.08631 0.27765 0.92071 0.0
C1680 C 0.13747 0.30593 0.91858 0.0
C1681 C 0.13979 0.2817 0.9207 0.0
C1682 C 0.11507 0.25536 0.92178 0.0
C1683 C 0.08873 0.25337 0.92185 0.0
H1684 H 0.82762 0.86664 0.91412 0.0
H1685 H 0.73756 0.81961 0.92097 0.0
H1686 H 0.82597 0.91005 0.91221 0.0
H1687 H 0.73598 0.86356 0.91963 0.0
H1688 H 0.7459 0.95175 0.90821 0.0
H1689 H 0.74385 0.90627 0.90456 0.0
H1690 H 0.8186 0.93565 0.93273 0.0
H1691 H 0.821 0.98045 0.93613 0.0
C1692 C 0.80741 0.8656 0.91511 0.0
C1693 C 0.78281 0.83986 0.91798 0.0
C1694 C 0.80645 0.89048 0.91406 0.0
C1695 C 0.78095 0.89035 0.91618 0.0
C1696 C 0.75595 0.86435 0.91797 0.0
C1697 C 0.75686 0.83922 0.91879 0.0
C1698 C 0.76189 0.94843 0.91357 0.0
C1699 C 0.78373 0.96993 0.92237 0.0
C1700 C 0.76067 0.92239 0.9115 0.0
C1701 C 0.78134 0.91752 0.91813 0.0
C1702 C 0.80277 0.93889 0.92709 0.0
C1703 C 0.80399 0.96465 0.92915 0.0
H1704 H 0.53503 0.41215 0.42512 0.0
H1705 H 0.48043 0.44787 0.4281 0.0
H1706 H 0.57594 0.45907 0.42528 0.0
H1707 H 0.52211 0.49547 0.42822 0.0
H1708 H 0.63405 0.53815 0.39996 0.0
H1709 H 0.5887 0.49564 0.40271 0.0
H1710 H 0.57219 0.52884 0.44438 0.0
H1711 H 0.61827 0.57216 0.44164 0.0
C1712 C 0.53172 0.43002 0.42594 0.0
C1713 C 0.50442 0.42626 0.42625 0.0
C1714 C 0.55521 0.45691 0.42605 0.0
C1715 C 0.55209 0.48081 0.42645 0.0
C1716 C 0.52497 0.47729 0.42785 0.0
C1717 C 0.50121 0.45011 0.42776 0.0
C1718 C 0.62078 0.53667 0.40966 0.0
C1719 C 0.63004 0.5583 0.42077 0.0
C1720 C 0.59478 0.5123 0.41121 0.0
C1721 C 0.57729 0.50879 0.42392 0.0
C1722 C 0.58544 0.53108 0.43451 0.0
C1723 C 0.61173 0.55577 0.43294 0.0
H1724 H 0.63209 0.12457 0.40173 0.0
H1725 H 0.61782 0.07459 0.4432 0.0
H1726 H 0.58694 0.12196 0.40527 0.0
H1727 H 0.5719 0.07199 0.44667 0.0
H1728 H 0.53581 0.15289 0.42978 0.0
H1729 H 0.57611 0.14574 0.4303 0.0
H1730 H 0.52072 0.05569 0.42877 0.0
H1731 H 0.47971 0.06274 0.42827 0.0
C1732 C 0.61919 0.11277 0.41154 0.0
C1733 C 0.62881 0.10029 0.42237 0.0
C1734 C 0.5933 0.11124 0.41352 0.0
C1735 C 0.57632 0.09721 0.42637 0.0
C1736 C 0.58479 0.08299 0.4367 0.0
C1737 C 0.61098 0.08451 0.4347 0.0
C1738 C 0.53205 0.1315 0.42979 0.0
C1739 C 0.5046 0.1084 0.42863 0.0
C1740 C 0.55514 0.12744 0.43014 0.0
C1741 C 0.55141 0.10022 0.42933 0.0
C1742 C 0.52401 0.07688 0.4294 0.0
C1743 C 0.50065 0.08094 0.42909 0.0
H1744 H 0.99195 0.44496 0.42731 0.0
H1745 H 0.90169 0.40819 0.42322 0.0
H1746 H 0.99713 0.49227 0.42729 0.0
H1747 H 0.90693 0.45479 0.42334 0.0
H1748 H 0.98007 0.56946 0.43971 0.0
H1749 H 0.98197 0.52566 0.4424 0.0
H1750 H 0.92866 0.49162 0.40204 0.0
H1751 H 0.92655 0.53453 0.39939 0.0
C1752 C 0.97326 0.44692 0.42666 0.0
C1753 C 0.94646 0.42284 0.42492 0.0
C1754 C 0.97625 0.47394 0.42668 0.0
C1755 C 0.95247 0.47713 0.42498 0.0
C1756 C 0.92568 0.45297 0.42429 0.0
C1757 C 0.92271 0.42624 0.42423 0.0
C1758 C 0.9691 0.5527 0.43133 0.0
C1759 C 0.95266 0.55523 0.41954 0.0
C1760 C 0.97023 0.52773 0.43286 0.0
C1761 C 0.95494 0.50509 0.42262 0.0
C1762 C 0.94006 0.50846 0.41033 0.0
C1763 C 0.93888 0.53311 0.40883 0.0
H1764 H 0.7458 0.20035 0.27282 0.0
H1765 H 0.77339 0.15351 0.2444 0.0
H1766 H 0.7908 0.24248 0.26932 0.0
H1767 H 0.81909 0.19665 0.24072 0.0
H1768 H 0.90632 0.27809 0.25639 0.0
H1769 H 0.86258 0.23222 0.25589 0.0
H1770 H 0.81504 0.27449 0.24779 0.0
H1771 H 0.85816 0.31982 0.24874 0.0
C1772 C 0.76141 0.19897 0.26574 0.0
C1773 C 0.75572 0.17342 0.25878 0.0
C1774 C 0.78728 0.22332 0.26366 0.0
C1775 C 0.80835 0.22306 0.2545 0.0
C1776 C 0.80318 0.19747 0.24781 0.0
C1777 C 0.77702 0.17284 0.24989 0.0
C1778 C 0.88651 0.27741 0.25424 0.0
C1779 C 0.88552 0.3025 0.25295 0.0
C1780 C 0.86153 0.2512 0.25392 0.0
C1781 C 0.83533 0.24982 0.25217 0.0
C1782 C 0.8348 0.27488 0.24961 0.0
C1783 C 0.85953 0.30087 0.25012 0.0
H1784 H 0.85401 0.56845 0.25185 0.0
H1785 H 0.90689 0.65898 0.25393 0.0
H1786 H 0.81235 0.57324 0.25189 0.0
H1787 H 0.86454 0.66376 0.2542 0.0
H1788 H 0.74983 0.5874 0.27789 0.0
H1789 H 0.7943 0.5889 0.27433 0.0
H1790 H 0.81809 0.6529 0.23907 0.0
H1791 H 0.77291 0.65163 0.24268 0.0
C1792 C 0.85675 0.58945 0.2522 0.0
C1793 C 0.88373 0.61331 0.25322 0.0
C1794 C 0.83285 0.59218 0.25224 0.0
C1795 C 0.8352 0.61883 0.25342 0.0
C1796 C 0.86216 0.64295 0.25334 0.0
C1797 C 0.88633 0.64021 0.25321 0.0
C1798 C 0.76437 0.60189 0.26935 0.0
C1799 C 0.7575 0.61906 0.26039 0.0
C1800 C 0.78992 0.60268 0.2673 0.0
C1801 C 0.8094 0.62058 0.2562 0.0
C1802 C 0.80334 0.63881 0.24766 0.0
C1803 C 0.77751 0.63802 0.24972 0.0
H1804 H 0.48743 0.31527 0.26314 0.0
H1805 H 0.40508 0.28552 0.24283 0.0
H1806 H 0.48324 0.26991 0.25876 0.0
H1807 H 0.40112 0.23937 0.23822 0.0
H1808 H 0.39985 0.15409 0.25453 0.0
H1809 H 0.39775 0.19785 0.25357 0.0
H1810 H 0.48332 0.24239 0.23653 0.0
H1811 H 0.48567 0.19927 0.23807 0.0
C1812 C 0.46838 0.2991 0.25766 0.0
C1813 C 0.44663 0.30424 0.2533 0.0
C1814 C 0.46611 0.27303 0.25501 0.0
C1815 C 0.44207 0.25118 0.24788 0.0
C1816 C 0.41995 0.2559 0.24369 0.0
C1817 C 0.42227 0.2823 0.2463 0.0
C1818 C 0.41789 0.17317 0.25024 0.0
C1819 C 0.44311 0.17358 0.24666 0.0
C1820 C 0.41669 0.19815 0.24966 0.0
C1821 C 0.44061 0.22367 0.24533 0.0
C1822 C 0.46481 0.22323 0.24033 0.0
C1823 C 0.46614 0.19855 0.24115 0.0
H1824 H 0.28525 0.89604 0.77409 0.0
H1825 H 0.30023 0.8665 0.73051 0.0
H1826 H 0.23937 0.85241 0.77624 0.0
H1827 H 0.25489 0.82377 0.73256 0.0
H1828 H 0.19896 0.73761 0.75125 0.0
H1829 H 0.24052 0.78389 0.75121 0.0
H1830 H 0.18993 0.8215 0.76279 0.0
H1831 H 0.14756 0.77446 0.76296 0.0
C1832 C 0.27859 0.88051 0.76488 0.0
C1833 C 0.29661 0.8844 0.7523 0.0
C1834 C 0.25237 0.85564 0.7661 0.0
C1835 C 0.2439 0.83447 0.75473 0.0
C1836 C 0.26118 0.83937 0.74171 0.0
C1837 C 0.28719 0.8639 0.74054 0.0
C1838 C 0.19646 0.75558 0.75388 0.0
C1839 C 0.16974 0.75226 0.75684 0.0
C1840 C 0.22038 0.78218 0.75381 0.0
C1841 C 0.21839 0.80635 0.75666 0.0
C1842 C 0.192 0.80318 0.76048 0.0
C1843 C 0.1678 0.77629 0.76055 0.0
H1844 H 0.31132 0.48774 0.75934 0.0
H1845 H 0.27642 0.39746 0.76131 0.0
H1846 H 0.26422 0.48124 0.75878 0.0
H1847 H 0.22864 0.39104 0.76069 0.0
H1848 H 0.18608 0.46074 0.73261 0.0
H1849 H 0.22902 0.45889 0.73592 0.0
H1850 H 0.19382 0.40566 0.7762 0.0
H1851 H 0.15003 0.40739 0.77291 0.0
C1852 C 0.29358 0.46646 0.75977 0.0
C1853 C 0.29766 0.44309 0.76003 0.0
C1854 C 0.26659 0.46277 0.75947 0.0
C1855 C 0.24289 0.43564 0.75937 0.0
C1856 C 0.24666 0.41217 0.76069 0.0
C1857 C 0.27394 0.41587 0.76102 0.0
C1858 C 0.18722 0.44842 0.74214 0.0
C1859 C 0.16483 0.43469 0.75269 0.0
C1860 C 0.21187 0.44738 0.74401 0.0
C1861 C 0.21489 0.43263 0.75649 0.0
C1862 C 0.19196 0.41728 0.76653 0.0
C1863 C 0.16701 0.4183 0.76464 0.0
H1864 H 0.66369 0.77699 0.76188 0.0
H1865 H 0.57404 0.74221 0.75565 0.0
H1866 H 0.66996 0.82477 0.76197 0.0
H1867 H 0.5804 0.78925 0.75578 0.0
H1868 H 0.64875 0.90057 0.7754 0.0
H1869 H 0.65171 0.85724 0.77766 0.0
H1870 H 0.60667 0.82735 0.73435 0.0
H1871 H 0.60356 0.86985 0.7321 0.0
C1872 C 0.64536 0.77946 0.76076 0.0
C1873 C 0.61844 0.75581 0.75842 0.0
C1874 C 0.64897 0.80674 0.76085 0.0
C1875 C 0.62571 0.81058 0.75858 0.0
C1876 C 0.59875 0.78686 0.75723 0.0
C1877 C 0.59516 0.75989 0.75714 0.0
C1878 C 0.64003 0.88493 0.76624 0.0
C1879 C 0.62537 0.88827 0.75375 0.0
C1880 C 0.64175 0.86024 0.76754 0.0
C1881 C 0.6289 0.83882 0.75633 0.0
C1882 C 0.61624 0.8433 0.74331 0.0
C1883 C 0.61444 0.86765 0.74205 0.0
H1884 H 0.57383 0.6197 0.57675 0.0
H1885 H 0.52883 0.64873 0.60568 0.0
H1886 H 0.53002 0.57458 0.57312 0.0
H1887 H 0.48601 0.60427 0.60222 0.0
H1888 H 0.40766 0.53815 0.5818 0.0
H1889 H 0.45346 0.58067 0.58081 0.0
H1890 H 0.49404 0.53135 0.58828 0.0
H1891 H 0.44768 0.48822 0.58884 0.0
C1892 C 0.55476 0.6165 0.58236 0.0
C1893 C 0.55489 0.63804 0.59138 0.0
C1894 C 0.52974 0.59067 0.5803 0.0
C1895 C 0.50447 0.58607 0.58715 0.0
C1896 C 0.50492 0.60737 0.59643 0.0
C1897 C 0.52966 0.63292 0.59849 0.0
C1898 C 0.42633 0.53626 0.58303 0.0
C1899 C 0.42408 0.50994 0.58571 0.0
C1900 C 0.45259 0.56065 0.5825 0.0
C1901 C 0.47734 0.55945 0.58487 0.0
C1902 C 0.47532 0.53293 0.58646 0.0
C1903 C 0.44883 0.50829 0.58682 0.0
H1904 H 0.40618 0.90038 0.57665 0.0
H1905 H 0.44652 0.98934 0.58683 0.0
H1906 H 0.45187 0.90325 0.57571 0.0
H1907 H 0.49269 0.9921 0.58634 0.0
H1908 H 0.57264 0.98293 0.5758 0.0
H1909 H 0.52966 0.98547 0.57123 0.0
H1910 H 0.48199 0.90971 0.5983 0.0
H1911 H 0.52397 0.90692 0.60272 0.0
C1912 C 0.42492 0.92066 0.57849 0.0
C1913 C 0.42283 0.94452 0.58209 0.0
C1914 C 0.45108 0.9223 0.57799 0.0
C1915 C 0.47578 0.94774 0.58136 0.0
C1916 C 0.47398 0.9722 0.58374 0.0
C1917 C 0.44761 0.97062 0.58404 0.0
C1918 C 0.55294 0.96687 0.58077 0.0
C1919 C 0.5518 0.94457 0.58951 0.0
C1920 C 0.5284 0.96837 0.57816 0.0
C1921 C 0.50239 0.94748 0.58416 0.0
C1922 C 0.50154 0.92572 0.59316 0.0
C1923 C 0.5258 0.92425 0.59578 0.0
H1924 H 0.0642 0.61416 0.5806 0.0
H1925 H 0.14672 0.64474 0.60087 0.0
H1926 H 0.05684 0.56599 0.58081 0.0
H1927 H 0.13932 0.59746 0.60098 0.0
H1928 H 0.10937 0.51205 0.61808 0.0
H1929 H 0.10632 0.55475 0.6167 0.0
H1930 H 0.07887 0.53625 0.56896 0.0
H1931 H 0.08137 0.49263 0.57046 0.0
C1932 C 0.08077 0.61073 0.58499 0.0
C1933 C 0.1059 0.63335 0.59092 0.0
C1934 C 0.07655 0.58321 0.58508 0.0
C1935 C 0.09729 0.57798 0.59121 0.0
C1936 C 0.12267 0.60074 0.59654 0.0
C1937 C 0.12693 0.62796 0.5964 0.0
C1938 C 0.10221 0.51679 0.60736 0.0
C1939 C 0.09615 0.49938 0.59428 0.0
C1940 C 0.10049 0.54124 0.60656 0.0
C1941 C 0.09302 0.54912 0.59261 0.0
C1942 C 0.08476 0.53065 0.57984 0.0
C1943 C 0.08622 0.5058 0.58069 0.0
loop_
_geom_bond_atom_site_label_1
_geom_bond_atom_site_label_2
_geom_bond_distance
_geom_bond_site_symmetry_2
_ccdc_geom_bond_type
Co0 O1 2.216 . S
Co0 O2 2.091 . S
Co0 O4 2.004 . S
Co0 O10 2.021 1_455 S
Co0 O12 2.137 . S
Co0 O13 2.244 . S
O1 Co0 2.216 . S
O1 C8 1.247 . S
O2 Co0 2.091 . S
O2 C8 1.261 . S
C3 O12 1.247 . S
C3 O13 1.272 . S
O4 Co0 2.004 . S
O4 C9 1.259 . S
Co5 O6 2.061 . S
Co5 O11 2.052 1_455 S
Co5 O13 2.135 . S
O6 Co5 2.061 . S
O6 C9 1.235 . S
C7 O10 1.238 . S
C7 O11 1.241 . S
C8 O1 1.247 . S
C8 O2 1.261 . S
C9 O4 1.259 . S
C9 O6 1.235 . S
O10 Co0 2.021 1_655 S
O10 C7 1.238 . S
O11 Co5 2.052 1_655 S
O11 C7 1.241 . S
O12 Co0 2.137 . S
O12 C3 1.247 . S
O13 Co0 2.244 . S
O13 C3 1.272 . S
O13 Co5 2.135 . S
Co14 O15 2.216 . S
Co14 O16 2.091 . S
Co14 O18 2.004 . S
Co14 O24 2.021 . S
Co14 O26 2.137 . S
Co14 O27 2.244 . S
O15 Co14 2.216 . S
O15 C22 1.247 . S
O16 Co14 2.091 . S
O16 C22 1.261 . S
C17 O26 1.247 . S
C17 O27 1.272 . S
O18 Co14 2.004 . S
O18 C23 1.259 . S
Co19 O20 2.061 . S
Co19 O25 2.052 . S
Co19 O27 2.135 . S
O20 Co19 2.061 . S
O20 C23 1.235 . S
C21 O24 1.238 . S
C21 O25 1.241 . S
C22 O15 1.247 . S
C22 O16 1.261 . S
C23 O18 1.259 . S
C23 O20 1.235 . S
O24 Co14 2.021 . S
O24 C21 1.238 . S
O25 Co19 2.052 . S
O25 C21 1.241 . S
O26 Co14 2.137 . S
O26 C17 1.247 . S
O27 Co14 2.244 . S
O27 C17 1.272 . S
O27 Co19 2.135 . S
Co28 O29 2.216 . S
Co28 O30 2.091 . S
Co28 O32 2.004 . S
Co28 O38 2.021 . S
Co28 O40 2.137 1_545 S
Co28 O41 2.244 . S
O29 Co28 2.216 . S
O29 C36 1.247 . S
O30 Co28 2.091 . S
O30 C36 1.261 . S
C31 O40 1.247 . S
C31 O41 1.272 1_565 S
O32 Co28 2.004 . S
O32 C37 1.259 . S
Co33 O34 2.061 . S
Co33 O39 2.052 . S
Co33 O41 2.135 . S
O34 Co33 2.061 . S
O34 C37 1.235 . S
C35 O38 1.238 . S
C35 O39 1.241 . S
C36 O29 1.247 . S
C36 O30 1.261 . S
C37 O32 1.259 . S
C37 O34 1.235 . S
O38 Co28 2.021 . S
O38 C35 1.238 . S
O39 Co33 2.052 . S
O39 C35 1.241 . S
O40 Co28 2.137 1_565 S
O40 C31 1.247 . S
O41 Co28 2.244 . S
O41 C31 1.272 1_545 S
O41 Co33 2.135 . S
Co42 O43 2.216 . S
Co42 O44 2.091 . S
Co42 O46 2.004 . S
Co42 O52 2.021 1_545 S
Co42 O54 2.137 . S
Co42 O55 2.244 . S
O43 Co42 2.216 . S
O43 C50 1.247 . S
O44 Co42 2.091 . S
O44 C50 1.261 . S
C45 O54 1.247 . S
C45 O55 1.272 . S
O46 Co42 2.004 . S
O46 C51 1.259 . S
Co47 O48 2.061 . S
Co47 O53 2.052 1_545 S
Co47 O55 2.135 . S
O48 Co47 2.061 . S
O48 C51 1.235 . S
C49 O52 1.238 . S
C49 O53 1.241 . S
C50 O43 1.247 . S
C50 O44 1.261 . S
C51 O46 1.259 . S
C51 O48 1.235 . S
O52 Co42 2.021 1_565 S
O52 C49 1.238 . S
O53 Co47 2.052 1_565 S
O53 C49 1.241 . S
O54 Co42 2.137 . S
O54 C45 1.247 . S
O55 Co42 2.244 . S
O55 C45 1.272 . S
O55 Co47 2.135 . S
Co56 O57 2.216 . S
Co56 O58 2.091 . S
Co56 O60 2.004 . S
Co56 O66 2.021 . S
Co56 O68 2.137 1_455 S
Co56 O69 2.244 . S
O57 Co56 2.216 . S
O57 C64 1.247 . S
O58 Co56 2.091 . S
O58 C64 1.261 . S
C59 O68 1.247 . S
C59 O69 1.272 1_655 S
O60 Co56 2.004 . S
O60 C65 1.259 . S
Co61 O62 2.061 . S
Co61 O67 2.052 . S
Co61 O69 2.135 . S
O62 Co61 2.061 . S
O62 C65 1.235 . S
C63 O66 1.238 . S
C63 O67 1.241 . S
C64 O57 1.247 . S
C64 O58 1.261 . S
C65 O60 1.259 . S
C65 O62 1.235 . S
O66 Co56 2.021 . S
O66 C63 1.238 . S
O67 Co61 2.052 . S
O67 C63 1.241 . S
O68 Co56 2.137 1_655 S
O68 C59 1.247 . S
O69 Co56 2.244 . S
O69 C59 1.272 1_455 S
O69 Co61 2.135 . S
Co70 O71 2.216 . S
Co70 O72 2.091 . S
Co70 O74 2.004 . S
Co70 O80 2.021 . S
Co70 O82 2.137 . S
Co70 O83 2.244 . S
O71 Co70 2.216 . S
O71 C78 1.247 . S
O72 Co70 2.091 . S
O72 C78 1.261 . S
C73 O82 1.247 . S
C73 O83 1.272 . S
O74 Co70 2.004 . S
O74 C79 1.259 . S
Co75 O76 2.061 . S
Co75 O81 2.052 . S
Co75 O83 2.135 . S
O76 Co75 2.061 . S
O76 C79 1.235 . S
C77 O80 1.238 . S
C77 O81 1.241 . S
C78 O71 1.247 . S
C78 O72 1.261 . S
C79 O74 1.259 . S
C79 O76 1.235 . S
O80 Co70 2.021 . S
O80 C77 1.238 . S
O81 Co75 2.052 . S
O81 C77 1.241 . S
O82 Co70 2.137 . S
O82 C73 1.247 . S
O83 Co70 2.244 . S
O83 C73 1.272 . S
O83 Co75 2.135 . S
Co84 O85 2.216 . S
Co84 O86 2.091 . S
Co84 O88 2.004 . S
Co84 O94 2.021 . S
Co84 O96 2.137 1_455 S
Co84 O97 2.244 . S
O85 Co84 2.216 . S
O85 C92 1.247 . S
O86 Co84 2.091 . S
O86 C92 1.261 . S
C87 O96 1.247 . S
C87 O97 1.272 1_655 S
O88 Co84 2.004 . S
O88 C93 1.259 . S
Co89 O90 2.061 . S
Co89 O95 2.052 . S
Co89 O97 2.135 . S
O90 Co89 2.061 . S
O90 C93 1.235 . S
C91 O94 1.238 . S
C91 O95 1.241 . S
C92 O85 1.247 . S
C92 O86 1.261 . S
C93 O88 1.259 . S
C93 O90 1.235 . S
O94 Co84 2.021 . S
O94 C91 1.238 . S
O95 Co89 2.052 . S
O95 C91 1.241 . S
O96 Co84 2.137 1_655 S
O96 C87 1.247 . S
O97 Co84 2.244 . S
O97 C87 1.272 1_455 S
O97 Co89 2.135 . S
Co98 O99 2.216 . S
Co98 O100 2.091 . S
Co98 O102 2.004 . S
Co98 O108 2.021 . S
Co98 O110 2.137 . S
Co98 O111 2.244 . S
O99 Co98 2.216 . S
O99 C106 1.247 . S
O100 Co98 2.091 . S
O100 C106 1.261 . S
C101 O110 1.247 . S
C101 O111 1.272 . S
O102 Co98 2.004 . S
O102 C107 1.259 . S
Co103 O104 2.061 . S
Co103 O109 2.052 . S
Co103 O111 2.135 . S
O104 Co103 2.061 . S
O104 C107 1.235 . S
C105 O108 1.238 . S
C105 O109 1.241 . S
C106 O99 1.247 . S
C106 O100 1.261 . S
C107 O102 1.259 . S
C107 O104 1.235 . S
O108 Co98 2.021 . S
O108 C105 1.238 . S
O109 Co103 2.052 . S
O109 C105 1.241 . S
O110 Co98 2.137 . S
O110 C101 1.247 . S
O111 Co98 2.244 . S
O111 C101 1.272 . S
O111 Co103 2.135 . S
Co112 O113 2.216 . S
Co112 O114 2.091 . S
Co112 O116 2.004 . S
Co112 O122 2.021 1_545 S
Co112 O124 2.137 . S
Co112 O125 2.244 . S
O113 Co112 2.216 . S
O113 C120 1.247 . S
O114 Co112 2.091 . S
O114 C120 1.261 . S
C115 O124 1.247 . S
C115 O125 1.272 . S
O116 Co112 2.004 . S
O116 C121 1.259 . S
Co117 O118 2.061 . S
Co117 O123 2.052 1_545 S
Co117 O125 2.135 . S
O118 Co117 2.061 . S
O118 C121 1.235 . S
C119 O122 1.238 . S
C119 O123 1.241 . S
C120 O113 1.247 . S
C120 O114 1.261 . S
C121 O116 1.259 . S
C121 O118 1.235 . S
O122 Co112 2.021 1_565 S
O122 C119 1.238 . S
O123 Co117 2.052 1_565 S
O123 C119 1.241 . S
O124 Co112 2.137 . S
O124 C115 1.247 . S
O125 Co112 2.244 . S
O125 C115 1.272 . S
O125 Co117 2.135 . S
Co126 O127 2.216 . S
Co126 O128 2.091 . S
Co126 O130 2.004 . S
Co126 O136 2.021 . S
Co126 O138 2.137 1_545 S
Co126 O139 2.244 . S
O127 Co126 2.216 . S
O127 C134 1.247 . S
O128 Co126 2.091 . S
O128 C134 1.261 . S
C129 O138 1.247 . S
C129 O139 1.272 1_565 S
O130 Co126 2.004 . S
O130 C135 1.259 . S
Co131 O132 2.061 . S
Co131 O137 2.052 . S
Co131 O139 2.135 . S
O132 Co131 2.061 . S
O132 C135 1.235 . S
C133 O136 1.238 . S
C133 O137 1.241 . S
C134 O127 1.247 . S
C134 O128 1.261 . S
C135 O130 1.259 . S
C135 O132 1.235 . S
O136 Co126 2.021 . S
O136 C133 1.238 . S
O137 Co131 2.052 . S
O137 C133 1.241 . S
O138 Co126 2.137 1_565 S
O138 C129 1.247 . S
O139 Co126 2.244 . S
O139 C129 1.272 1_545 S
O139 Co131 2.135 . S
Co140 O141 2.216 . S
Co140 O142 2.091 . S
Co140 O144 2.004 . S
Co140 O150 2.021 1_455 S
Co140 O152 2.137 . S
Co140 O153 2.244 . S
O141 Co140 2.216 . S
O141 C148 1.247 . S
O142 Co140 2.091 . S
O142 C148 1.261 . S
C143 O152 1.247 . S
C143 O153 1.272 . S
O144 Co140 2.004 . S
O144 C149 1.259 . S
Co145 O146 2.061 . S
Co145 O151 2.052 1_455 S
Co145 O153 2.135 . S
O146 Co145 2.061 . S
O146 C149 1.235 . S
C147 O150 1.238 . S
C147 O151 1.241 . S
C148 O141 1.247 . S
C148 O142 1.261 . S
C149 O144 1.259 . S
C149 O146 1.235 . S
O150 Co140 2.021 1_655 S
O150 C147 1.238 . S
O151 Co145 2.052 1_655 S
O151 C147 1.241 . S
O152 Co140 2.137 . S
O152 C143 1.247 . S
O153 Co140 2.244 . S
O153 C143 1.272 . S
O153 Co145 2.135 . S
Co154 O155 2.216 . S
Co154 O156 2.091 . S
Co154 O158 2.004 . S
Co154 O164 2.021 . S
Co154 O166 2.137 . S
Co154 O167 2.244 . S
O155 Co154 2.216 . S
O155 C162 1.247 . S
O156 Co154 2.091 . S
O156 C162 1.261 . S
C157 O166 1.247 . S
C157 O167 1.272 . S
O158 Co154 2.004 . S
O158 C163 1.259 . S
Co159 O160 2.061 . S
Co159 O165 2.052 . S
Co159 O167 2.135 . S
O160 Co159 2.061 . S
O160 C163 1.235 . S
C161 O164 1.238 . S
C161 O165 1.241 . S
C162 O155 1.247 . S
C162 O156 1.261 . S
C163 O158 1.259 . S
C163 O160 1.235 . S
O164 Co154 2.021 . S
O164 C161 1.238 . S
O165 Co159 2.052 . S
O165 C161 1.241 . S
O166 Co154 2.137 . S
O166 C157 1.247 . S
O167 Co154 2.244 . S
O167 C157 1.272 . S
O167 Co159 2.135 . S
Co168 O169 2.216 . S
Co168 O170 2.091 . S
Co168 O172 2.004 . S
Co168 O178 2.021 . S
Co168 O180 2.137 . S
Co168 O181 2.244 . S
O169 Co168 2.216 . S
O169 C176 1.247 . S
O170 Co168 2.091 . S
O170 C176 1.261 . S
C171 O180 1.247 . S
C171 O181 1.272 . S
O172 Co168 2.004 . S
O172 C177 1.259 . S
Co173 O174 2.061 . S
Co173 O179 2.052 . S
Co173 O181 2.135 . S
O174 Co173 2.061 . S
O174 C177 1.235 . S
C175 O178 1.238 . S
C175 O179 1.241 . S
C176 O169 1.247 . S
C176 O170 1.261 . S
C177 O172 1.259 . S
C177 O174 1.235 . S
O178 Co168 2.021 . S
O178 C175 1.238 . S
O179 Co173 2.052 . S
O179 C175 1.241 . S
O180 Co168 2.137 . S
O180 C171 1.247 . S
O181 Co168 2.244 . S
O181 C171 1.272 . S
O181 Co173 2.135 . S
Co182 O183 2.216 . S
Co182 O184 2.091 . S
Co182 O186 2.004 . S
Co182 O192 2.021 . S
Co182 O194 2.137 . S
Co182 O195 2.244 . S
O183 Co182 2.216 . S
O183 C190 1.247 . S
O184 Co182 2.091 . S
O184 C190 1.261 . S
C185 O194 1.247 . S
C185 O195 1.272 . S
O186 Co182 2.004 . S
O186 C191 1.259 . S
Co187 O188 2.061 . S
Co187 O193 2.052 . S
Co187 O195 2.135 . S
O188 Co187 2.061 . S
O188 C191 1.235 . S
C189 O192 1.238 . S
C189 O193 1.241 . S
C190 O183 1.247 . S
C190 O184 1.261 . S
C191 O186 1.259 . S
C191 O188 1.235 . S
O192 Co182 2.021 . S
O192 C189 1.238 . S
O193 Co187 2.052 . S
O193 C189 1.241 . S
O194 Co182 2.137 . S
O194 C185 1.247 . S
O195 Co182 2.244 . S
O195 C185 1.272 . S
O195 Co187 2.135 . S
Co196 O197 2.216 . S
Co196 O198 2.091 1_655 S
Co196 O200 2.004 . S
Co196 O206 2.021 . S
Co196 O208 2.137 . S
Co196 O209 2.244 . S
O197 Co196 2.216 . S
O197 C204 1.247 1_655 S
O198 Co196 2.091 1_455 S
O198 C204 1.261 . S
C199 O208 1.247 . S
C199 O209 1.272 . S
O200 Co196 2.004 . S
O200 C205 1.259 . S
Co201 O202 2.061 . S
Co201 O207 2.052 . S
Co201 O209 2.135 . S
O202 Co201 2.061 . S
O202 C205 1.235 . S
C203 O206 1.238 . S
C203 O207 1.241 . S
C204 O197 1.247 1_455 S
C204 O198 1.261 . S
C205 O200 1.259 . S
C205 O202 1.235 . S
O206 Co196 2.021 . S
O206 C203 1.238 . S
O207 Co201 2.052 . S
O207 C203 1.241 . S
O208 Co196 2.137 . S
O208 C199 1.247 . S
O209 Co196 2.244 . S
O209 C199 1.272 . S
O209 Co201 2.135 . S
Co210 O211 2.216 . S
Co210 O212 2.091 1_655 S
Co210 O214 2.004 1_655 S
Co210 O220 2.021 . S
Co210 O222 2.137 1_655 S
Co210 O223 2.244 . S
O211 Co210 2.216 . S
O211 C218 1.247 1_655 S
O212 Co210 2.091 1_455 S
O212 C218 1.261 . S
C213 O222 1.247 1_655 S
C213 O223 1.272 . S
O214 Co210 2.004 1_455 S
O214 C219 1.259 1_455 S
Co215 O216 2.061 . S
Co215 O221 2.052 . S
Co215 O223 2.135 . S
O216 Co215 2.061 . S
O216 C219 1.235 . S
C217 O220 1.238 . S
C217 O221 1.241 . S
C218 O211 1.247 1_455 S
C218 O212 1.261 . S
C219 O214 1.259 1_655 S
C219 O216 1.235 . S
O220 Co210 2.021 . S
O220 C217 1.238 . S
O221 Co215 2.052 . S
O221 C217 1.241 . S
O222 Co210 2.137 1_455 S
O222 C213 1.247 1_455 S
O223 Co210 2.244 . S
O223 C213 1.272 . S
O223 Co215 2.135 . S
Co224 O225 2.216 . S
Co224 O226 2.091 . S
Co224 O228 2.004 . S
Co224 O234 2.021 . S
Co224 O236 2.137 . S
Co224 O237 2.244 . S
O225 Co224 2.216 . S
O225 C232 1.247 . S
O226 Co224 2.091 . S
O226 C232 1.261 . S
C227 O236 1.247 . S
C227 O237 1.272 . S
O228 Co224 2.004 . S
O228 C233 1.259 . S
Co229 O230 2.061 . S
Co229 O235 2.052 . S
Co229 O237 2.135 . S
O230 Co229 2.061 . S
O230 C233 1.235 . S
C231 O234 1.238 . S
C231 O235 1.241 . S
C232 O225 1.247 . S
C232 O226 1.261 . S
C233 O228 1.259 . S
C233 O230 1.235 . S
O234 Co224 2.021 . S
O234 C231 1.238 . S
O235 Co229 2.052 . S
O235 C231 1.241 . S
O236 Co224 2.137 . S
O236 C227 1.247 . S
O237 Co224 2.244 . S
O237 C227 1.272 . S
O237 Co229 2.135 . S
Co238 O239 2.216 . S
Co238 O240 2.091 . S
Co238 O242 2.004 . S
Co238 O248 2.021 . S
Co238 O250 2.137 . S
Co238 O251 2.244 . S
O239 Co238 2.216 . S
O239 C246 1.247 . S
O240 Co238 2.091 . S
O240 C246 1.261 . S
C241 O250 1.247 . S
C241 O251 1.272 . S
O242 Co238 2.004 . S
O242 C247 1.259 . S
Co243 O244 2.061 . S
Co243 O249 2.052 . S
Co243 O251 2.135 . S
O244 Co243 2.061 . S
O244 C247 1.235 . S
C245 O248 1.238 . S
C245 O249 1.241 . S
C246 O239 1.247 . S
C246 O240 1.261 . S
C247 O242 1.259 . S
C247 O244 1.235 . S
O248 Co238 2.021 . S
O248 C245 1.238 . S
O249 Co243 2.052 . S
O249 C245 1.241 . S
O250 Co238 2.137 . S
O250 C241 1.247 . S
O251 Co238 2.244 . S
O251 C241 1.272 . S
O251 Co243 2.135 . S
Co252 O253 2.216 . S
Co252 O254 2.091 . S
Co252 O256 2.004 . S
Co252 O262 2.021 . S
Co252 O264 2.137 . S
Co252 O265 2.244 . S
O253 Co252 2.216 . S
O253 C260 1.247 . S
O254 Co252 2.091 . S
O254 C260 1.261 . S
C255 O264 1.247 . S
C255 O265 1.272 . S
O256 Co252 2.004 . S
O256 C261 1.259 . S
Co257 O258 2.061 . S
Co257 O263 2.052 . S
Co257 O265 2.135 . S
O258 Co257 2.061 . S
O258 C261 1.235 . S
C259 O262 1.238 . S
C259 O263 1.241 . S
C260 O253 1.247 . S
C260 O254 1.261 . S
C261 O256 1.259 . S
C261 O258 1.235 . S
O262 Co252 2.021 . S
O262 C259 1.238 . S
O263 Co257 2.052 . S
O263 C259 1.241 . S
O264 Co252 2.137 . S
O264 C255 1.247 . S
O265 Co252 2.244 . S
O265 C255 1.272 . S
O265 Co257 2.135 . S
Co266 O267 2.216 . S
Co266 O268 2.091 1_655 S
Co266 O270 2.004 1_655 S
Co266 O276 2.021 . S
Co266 O278 2.137 1_655 S
Co266 O279 2.244 . S
O267 Co266 2.216 . S
O267 C274 1.247 1_655 S
O268 Co266 2.091 1_455 S
O268 C274 1.261 . S
C269 O278 1.247 1_655 S
C269 O279 1.272 . S
O270 Co266 2.004 1_455 S
O270 C275 1.259 1_455 S
Co271 O272 2.061 . S
Co271 O277 2.052 . S
Co271 O279 2.135 . S
O272 Co271 2.061 . S
O272 C275 1.235 . S
C273 O276 1.238 . S
C273 O277 1.241 . S
C274 O267 1.247 1_455 S
C274 O268 1.261 . S
C275 O270 1.259 1_655 S
C275 O272 1.235 . S
O276 Co266 2.021 . S
O276 C273 1.238 . S
O277 Co271 2.052 . S
O277 C273 1.241 . S
O278 Co266 2.137 1_455 S
O278 C269 1.247 1_455 S
O279 Co266 2.244 . S
O279 C269 1.272 . S
O279 Co271 2.135 . S
Co280 O281 2.216 . S
Co280 O282 2.091 . S
Co280 O284 2.004 . S
Co280 O290 2.021 . S
Co280 O292 2.137 . S
Co280 O293 2.244 . S
O281 Co280 2.216 . S
O281 C288 1.247 . S
O282 Co280 2.091 . S
O282 C288 1.261 . S
C283 O292 1.247 . S
C283 O293 1.272 . S
O284 Co280 2.004 . S
O284 C289 1.259 . S
Co285 O286 2.061 . S
Co285 O291 2.052 . S
Co285 O293 2.135 . S
O286 Co285 2.061 . S
O286 C289 1.235 . S
C287 O290 1.238 . S
C287 O291 1.241 . S
C288 O281 1.247 . S
C288 O282 1.261 . S
C289 O284 1.259 . S
C289 O286 1.235 . S
O290 Co280 2.021 . S
O290 C287 1.238 . S
O291 Co285 2.052 . S
O291 C287 1.241 . S
O292 Co280 2.137 . S
O292 C283 1.247 . S
O293 Co280 2.244 . S
O293 C283 1.272 . S
O293 Co285 2.135 . S
Co294 O295 2.216 . S
Co294 O296 2.091 . S
Co294 O298 2.004 . S
Co294 O304 2.021 . S
Co294 O306 2.137 . S
Co294 O307 2.244 . S
O295 Co294 2.216 . S
O295 C302 1.247 . S
O296 Co294 2.091 . S
O296 C302 1.261 . S
C297 O306 1.247 . S
C297 O307 1.272 . S
O298 Co294 2.004 . S
O298 C303 1.259 . S
Co299 O300 2.061 . S
Co299 O305 2.052 . S
Co299 O307 2.135 . S
O300 Co299 2.061 . S
O300 C303 1.235 . S
C301 O304 1.238 . S
C301 O305 1.241 . S
C302 O295 1.247 . S
C302 O296 1.261 . S
C303 O298 1.259 . S
C303 O300 1.235 . S
O304 Co294 2.021 . S
O304 C301 1.238 . S
O305 Co299 2.052 . S
O305 C301 1.241 . S
O306 Co294 2.137 . S
O306 C297 1.247 . S
O307 Co294 2.244 . S
O307 C297 1.272 . S
O307 Co299 2.135 . S
Co308 O309 2.216 . S
Co308 O310 2.091 . S
Co308 O312 2.004 . S
Co308 O318 2.021 . S
Co308 O320 2.137 . S
Co308 O321 2.244 . S
O309 Co308 2.216 . S
O309 C316 1.247 . S
O310 Co308 2.091 . S
O310 C316 1.261 . S
C311 O320 1.247 . S
C311 O321 1.272 . S
O312 Co308 2.004 . S
O312 C317 1.259 . S
Co313 O314 2.061 . S
Co313 O319 2.052 . S
Co313 O321 2.135 . S
O314 Co313 2.061 . S
O314 C317 1.235 . S
C315 O318 1.238 . S
C315 O319 1.241 . S
C316 O309 1.247 . S
C316 O310 1.261 . S
C317 O312 1.259 . S
C317 O314 1.235 . S
O318 Co308 2.021 . S
O318 C315 1.238 . S
O319 Co313 2.052 . S
O319 C315 1.241 . S
O320 Co308 2.137 . S
O320 C311 1.247 . S
O321 Co308 2.244 . S
O321 C311 1.272 . S
O321 Co313 2.135 . S
Co322 O323 2.216 . S
Co322 O324 2.091 1_655 S
Co322 O326 2.004 . S
Co322 O332 2.021 . S
Co322 O334 2.137 . S
Co322 O335 2.244 . S
O323 Co322 2.216 . S
O323 C330 1.247 1_655 S
O324 Co322 2.091 1_455 S
O324 C330 1.261 . S
C325 O334 1.247 . S
C325 O335 1.272 . S
O326 Co322 2.004 . S
O326 C331 1.259 . S
Co327 O328 2.061 . S
Co327 O333 2.052 . S
Co327 O335 2.135 . S
O328 Co327 2.061 . S
O328 C331 1.235 . S
C329 O332 1.238 . S
C329 O333 1.241 . S
C330 O323 1.247 1_455 S
C330 O324 1.261 . S
C331 O326 1.259 . S
C331 O328 1.235 . S
O332 Co322 2.021 . S
O332 C329 1.238 . S
O333 Co327 2.052 . S
O333 C329 1.241 . S
O334 Co322 2.137 . S
O334 C325 1.247 . S
O335 Co322 2.244 . S
O335 C325 1.272 . S
O335 Co327 2.135 . S
Co336 O337 2.216 . S
Co336 O338 2.091 1_565 S
Co336 O340 2.004 1_565 S
Co336 O346 2.021 . S
Co336 O348 2.137 1_565 S
Co336 O349 2.244 . S
O337 Co336 2.216 . S
O337 C344 1.247 1_565 S
O338 Co336 2.091 1_545 S
O338 C344 1.261 . S
C339 O348 1.247 1_565 S
C339 O349 1.272 . S
O340 Co336 2.004 1_545 S
O340 C345 1.259 1_545 S
Co341 O342 2.061 . S
Co341 O347 2.052 . S
Co341 O349 2.135 . S
O342 Co341 2.061 . S
O342 C345 1.235 . S
C343 O346 1.238 . S
C343 O347 1.241 . S
C344 O337 1.247 1_545 S
C344 O338 1.261 . S
C345 O340 1.259 1_565 S
C345 O342 1.235 . S
O346 Co336 2.021 . S
O346 C343 1.238 . S
O347 Co341 2.052 . S
O347 C343 1.241 . S
O348 Co336 2.137 1_545 S
O348 C339 1.247 1_545 S
O349 Co336 2.244 . S
O349 C339 1.272 . S
O349 Co341 2.135 . S
Co350 O351 2.216 . S
Co350 O352 2.091 . S
Co350 O354 2.004 . S
Co350 O360 2.021 . S
Co350 O362 2.137 . S
Co350 O363 2.244 . S
O351 Co350 2.216 . S
O351 C358 1.247 . S
O352 Co350 2.091 . S
O352 C358 1.261 . S
C353 O362 1.247 . S
C353 O363 1.272 . S
O354 Co350 2.004 . S
O354 C359 1.259 . S
Co355 O356 2.061 . S
Co355 O361 2.052 . S
Co355 O363 2.135 . S
O356 Co355 2.061 . S
O356 C359 1.235 . S
C357 O360 1.238 . S
C357 O361 1.241 . S
C358 O351 1.247 . S
C358 O352 1.261 . S
C359 O354 1.259 . S
C359 O356 1.235 . S
O360 Co350 2.021 . S
O360 C357 1.238 . S
O361 Co355 2.052 . S
O361 C357 1.241 . S
O362 Co350 2.137 . S
O362 C353 1.247 . S
O363 Co350 2.244 . S
O363 C353 1.272 . S
O363 Co355 2.135 . S
Co364 O365 2.216 . S
Co364 O366 2.091 . S
Co364 O368 2.004 . S
Co364 O374 2.021 . S
Co364 O376 2.137 . S
Co364 O377 2.244 . S
O365 Co364 2.216 . S
O365 C372 1.247 . S
O366 Co364 2.091 . S
O366 C372 1.261 . S
C367 O376 1.247 . S
C367 O377 1.272 . S
O368 Co364 2.004 . S
O368 C373 1.259 . S
Co369 O370 2.061 . S
Co369 O375 2.052 . S
Co369 O377 2.135 . S
O370 Co369 2.061 . S
O370 C373 1.235 . S
C371 O374 1.238 . S
C371 O375 1.241 . S
C372 O365 1.247 . S
C372 O366 1.261 . S
C373 O368 1.259 . S
C373 O370 1.235 . S
O374 Co364 2.021 . S
O374 C371 1.238 . S
O375 Co369 2.052 . S
O375 C371 1.241 . S
O376 Co364 2.137 . S
O376 C367 1.247 . S
O377 Co364 2.244 . S
O377 C367 1.272 . S
O377 Co369 2.135 . S
Co378 O379 2.216 . S
Co378 O380 2.091 . S
Co378 O382 2.004 . S
Co378 O388 2.021 . S
Co378 O390 2.137 . S
Co378 O391 2.244 . S
O379 Co378 2.216 . S
O379 C386 1.247 . S
O380 Co378 2.091 . S
O380 C386 1.261 . S
C381 O390 1.247 . S
C381 O391 1.272 . S
O382 Co378 2.004 . S
O382 C387 1.259 . S
Co383 O384 2.061 . S
Co383 O389 2.052 . S
Co383 O391 2.135 . S
O384 Co383 2.061 . S
O384 C387 1.235 . S
C385 O388 1.238 . S
C385 O389 1.241 . S
C386 O379 1.247 . S
C386 O380 1.261 . S
C387 O382 1.259 . S
C387 O384 1.235 . S
O388 Co378 2.021 . S
O388 C385 1.238 . S
O389 Co383 2.052 . S
O389 C385 1.241 . S
O390 Co378 2.137 . S
O390 C381 1.247 . S
O391 Co378 2.244 . S
O391 C381 1.272 . S
O391 Co383 2.135 . S
Co392 O393 2.216 . S
Co392 O394 2.091 1_565 S
Co392 O396 2.004 . S
Co392 O402 2.021 . S
Co392 O404 2.137 . S
Co392 O405 2.244 . S
O393 Co392 2.216 . S
O393 C400 1.247 1_565 S
O394 Co392 2.091 1_545 S
O394 C400 1.261 . S
C395 O404 1.247 . S
C395 O405 1.272 . S
O396 Co392 2.004 . S
O396 C401 1.259 . S
Co397 O398 2.061 . S
Co397 O403 2.052 . S
Co397 O405 2.135 . S
O398 Co397 2.061 . S
O398 C401 1.235 . S
C399 O402 1.238 . S
C399 O403 1.241 . S
C400 O393 1.247 1_545 S
C400 O394 1.261 . S
C401 O396 1.259 . S
C401 O398 1.235 . S
O402 Co392 2.021 . S
O402 C399 1.238 . S
O403 Co397 2.052 . S
O403 C399 1.241 . S
O404 Co392 2.137 . S
O404 C395 1.247 . S
O405 Co392 2.244 . S
O405 C395 1.272 . S
O405 Co397 2.135 . S
Co406 O407 2.216 . S
Co406 O408 2.091 . S
Co406 O410 2.004 . S
Co406 O416 2.021 . S
Co406 O418 2.137 . S
Co406 O419 2.244 . S
O407 Co406 2.216 . S
O407 C414 1.247 . S
O408 Co406 2.091 . S
O408 C414 1.261 . S
C409 O418 1.247 . S
C409 O419 1.272 . S
O410 Co406 2.004 . S
O410 C415 1.259 . S
Co411 O412 2.061 . S
Co411 O417 2.052 . S
Co411 O419 2.135 . S
O412 Co411 2.061 . S
O412 C415 1.235 . S
C413 O416 1.238 . S
C413 O417 1.241 . S
C414 O407 1.247 . S
C414 O408 1.261 . S
C415 O410 1.259 . S
C415 O412 1.235 . S
O416 Co406 2.021 . S
O416 C413 1.238 . S
O417 Co411 2.052 . S
O417 C413 1.241 . S
O418 Co406 2.137 . S
O418 C409 1.247 . S
O419 Co406 2.244 . S
O419 C409 1.272 . S
O419 Co411 2.135 . S
Co420 O421 2.216 . S
Co420 O422 2.091 . S
Co420 O424 2.004 . S
Co420 O430 2.021 . S
Co420 O432 2.137 . S
Co420 O433 2.244 . S
O421 Co420 2.216 . S
O421 C428 1.247 . S
O422 Co420 2.091 . S
O422 C428 1.261 . S
C423 O432 1.247 . S
C423 O433 1.272 . S
O424 Co420 2.004 . S
O424 C429 1.259 . S
Co425 O426 2.061 . S
Co425 O431 2.052 . S
Co425 O433 2.135 . S
O426 Co425 2.061 . S
O426 C429 1.235 . S
C427 O430 1.238 . S
C427 O431 1.241 . S
C428 O421 1.247 . S
C428 O422 1.261 . S
C429 O424 1.259 . S
C429 O426 1.235 . S
O430 Co420 2.021 . S
O430 C427 1.238 . S
O431 Co425 2.052 . S
O431 C427 1.241 . S
O432 Co420 2.137 . S
O432 C423 1.247 . S
O433 Co420 2.244 . S
O433 C423 1.272 . S
O433 Co425 2.135 . S
Co434 O435 2.216 . S
Co434 O436 2.091 1_565 S
Co434 O438 2.004 . S
Co434 O444 2.021 . S
Co434 O446 2.137 . S
Co434 O447 2.244 . S
O435 Co434 2.216 . S
O435 C442 1.247 1_565 S
O436 Co434 2.091 1_545 S
O436 C442 1.261 . S
C437 O446 1.247 . S
C437 O447 1.272 . S
O438 Co434 2.004 . S
O438 C443 1.259 . S
Co439 O440 2.061 . S
Co439 O445 2.052 . S
Co439 O447 2.135 . S
O440 Co439 2.061 . S
O440 C443 1.235 . S
C441 O444 1.238 . S
C441 O445 1.241 . S
C442 O435 1.247 1_545 S
C442 O436 1.261 . S
C443 O438 1.259 . S
C443 O440 1.235 . S
O444 Co434 2.021 . S
O444 C441 1.238 . S
O445 Co439 2.052 . S
O445 C441 1.241 . S
O446 Co434 2.137 . S
O446 C437 1.247 . S
O447 Co434 2.244 . S
O447 C437 1.272 . S
O447 Co439 2.135 . S
Co448 O449 2.216 . S
Co448 O450 2.091 . S
Co448 O452 2.004 . S
Co448 O458 2.021 . S
Co448 O460 2.137 . S
Co448 O461 2.244 . S
O449 Co448 2.216 . S
O449 C456 1.247 . S
O450 Co448 2.091 . S
O450 C456 1.261 . S
C451 O460 1.247 . S
C451 O461 1.272 . S
O452 Co448 2.004 . S
O452 C457 1.259 . S
Co453 O454 2.061 . S
Co453 O459 2.052 . S
Co453 O461 2.135 . S
O454 Co453 2.061 . S
O454 C457 1.235 . S
C455 O458 1.238 . S
C455 O459 1.241 . S
C456 O449 1.247 . S
C456 O450 1.261 . S
C457 O452 1.259 . S
C457 O454 1.235 . S
O458 Co448 2.021 . S
O458 C455 1.238 . S
O459 Co453 2.052 . S
O459 C455 1.241 . S
O460 Co448 2.137 . S
O460 C451 1.247 . S
O461 Co448 2.244 . S
O461 C451 1.272 . S
O461 Co453 2.135 . S
Co462 O463 2.216 . S
Co462 O464 2.091 . S
Co462 O466 2.004 . S
Co462 O472 2.021 . S
Co462 O474 2.137 . S
Co462 O475 2.244 . S
O463 Co462 2.216 . S
O463 C470 1.247 . S
O464 Co462 2.091 . S
O464 C470 1.261 . S
C465 O474 1.247 . S
C465 O475 1.272 . S
O466 Co462 2.004 . S
O466 C471 1.259 . S
Co467 O468 2.061 . S
Co467 O473 2.052 . S
Co467 O475 2.135 . S
O468 Co467 2.061 . S
O468 C471 1.235 . S
C469 O472 1.238 . S
C469 O473 1.241 . S
C470 O463 1.247 . S
C470 O464 1.261 . S
C471 O466 1.259 . S
C471 O468 1.235 . S
O472 Co462 2.021 . S
O472 C469 1.238 . S
O473 Co467 2.052 . S
O473 C469 1.241 . S
O474 Co462 2.137 . S
O474 C465 1.247 . S
O475 Co462 2.244 . S
O475 C465 1.272 . S
O475 Co467 2.135 . S
Co476 O477 2.216 . S
Co476 O478 2.091 . S
Co476 O480 2.004 . S
Co476 O486 2.021 . S
Co476 O488 2.137 . S
Co476 O489 2.244 . S
O477 Co476 2.216 . S
O477 C484 1.247 . S
O478 Co476 2.091 . S
O478 C484 1.261 . S
C479 O488 1.247 . S
C479 O489 1.272 . S
O480 Co476 2.004 . S
O480 C485 1.259 . S
Co481 O482 2.061 . S
Co481 O487 2.052 . S
Co481 O489 2.135 . S
O482 Co481 2.061 . S
O482 C485 1.235 . S
C483 O486 1.238 . S
C483 O487 1.241 . S
C484 O477 1.247 . S
C484 O478 1.261 . S
C485 O480 1.259 . S
C485 O482 1.235 . S
O486 Co476 2.021 . S
O486 C483 1.238 . S
O487 Co481 2.052 . S
O487 C483 1.241 . S
O488 Co476 2.137 . S
O488 C479 1.247 . S
O489 Co476 2.244 . S
O489 C479 1.272 . S
O489 Co481 2.135 . S
Co490 O491 2.216 . S
Co490 O492 2.091 1_565 S
Co490 O494 2.004 1_565 S
Co490 O500 2.021 . S
Co490 O502 2.137 1_565 S
Co490 O503 2.244 . S
O491 Co490 2.216 . S
O491 C498 1.247 1_565 S
O492 Co490 2.091 1_545 S
O492 C498 1.261 . S
C493 O502 1.247 1_565 S
C493 O503 1.272 . S
O494 Co490 2.004 1_545 S
O494 C499 1.259 1_545 S
Co495 O496 2.061 . S
Co495 O501 2.052 . S
Co495 O503 2.135 . S
O496 Co495 2.061 . S
O496 C499 1.235 . S
C497 O500 1.238 . S
C497 O501 1.241 . S
C498 O491 1.247 1_545 S
C498 O492 1.261 . S
C499 O494 1.259 1_565 S
C499 O496 1.235 . S
O500 Co490 2.021 . S
O500 C497 1.238 . S
O501 Co495 2.052 . S
O501 C497 1.241 . S
O502 Co490 2.137 1_545 S
O502 C493 1.247 1_545 S
O503 Co490 2.244 . S
O503 C493 1.272 . S
O503 Co495 2.135 . S
H504 C512 0.950 . S
H505 C517 0.950 . S
H506 C514 0.950 . S
H507 C516 0.950 . S
H508 C518 0.950 . S
H509 C520 0.950 . S
H510 C522 0.950 . S
H511 C523 0.950 . S
C512 H504 0.950 . S
C512 C513 1.386 . S
C512 C514 1.391 . S
C513 C512 1.386 . S
C513 C517 1.393 . S
C514 H506 0.950 . S
C514 C512 1.391 . S
C514 C515 1.400 . S
C515 C514 1.400 . S
C515 C516 1.398 . S
C515 C521 1.491 . S
C516 H507 0.950 . S
C516 C515 1.398 . S
C516 C517 1.391 . S
C517 H505 0.950 . S
C517 C513 1.393 . S
C517 C516 1.391 . S
C518 H508 0.950 . S
C518 C519 1.386 . S
C518 C520 1.391 . S
C519 C518 1.386 . S
C519 C523 1.393 . S
C520 H509 0.950 . S
C520 C518 1.391 . S
C520 C521 1.400 . S
C521 C515 1.491 . S
C521 C520 1.400 . S
C521 C522 1.398 . S
C522 H510 0.950 . S
C522 C521 1.398 . S
C522 C523 1.391 . S
C523 H511 0.950 . S
C523 C519 1.393 . S
C523 C522 1.391 . S
H524 C532 0.950 . S
H525 C537 0.950 . S
H526 C534 0.950 . S
H527 C536 0.950 . S
H528 C538 0.950 . S
H529 C540 0.950 . S
H530 C542 0.950 . S
H531 C543 0.950 . S
C532 H524 0.950 . S
C532 C533 1.386 . S
C532 C534 1.391 . S
C533 C532 1.386 . S
C533 C537 1.393 . S
C534 H526 0.950 . S
C534 C532 1.391 . S
C534 C535 1.400 . S
C535 C534 1.400 . S
C535 C536 1.398 . S
C535 C541 1.491 . S
C536 H527 0.950 . S
C536 C535 1.398 . S
C536 C537 1.391 . S
C537 H525 0.950 . S
C537 C533 1.393 . S
C537 C536 1.391 . S
C538 H528 0.950 . S
C538 C539 1.386 . S
C538 C540 1.391 . S
C539 C538 1.386 . S
C539 C543 1.393 . S
C540 H529 0.950 . S
C540 C538 1.391 . S
C540 C541 1.400 . S
C541 C535 1.491 . S
C541 C540 1.400 . S
C541 C542 1.398 . S
C542 H530 0.950 . S
C542 C541 1.398 . S
C542 C543 1.391 . S
C543 H531 0.950 . S
C543 C539 1.393 . S
C543 C542 1.391 . S
H544 C552 0.950 . S
H545 C557 0.950 . S
H546 C554 0.950 . S
H547 C556 0.950 . S
H548 C558 0.950 . S
H549 C560 0.950 . S
H550 C562 0.950 . S
H551 C563 0.950 . S
C552 H544 0.950 . S
C552 C553 1.386 . S
C552 C554 1.391 . S
C553 C552 1.386 . S
C553 C557 1.393 . S
C554 H546 0.950 . S
C554 C552 1.391 . S
C554 C555 1.400 . S
C555 C554 1.400 . S
C555 C556 1.398 . S
C555 C561 1.491 . S
C556 H547 0.950 . S
C556 C555 1.398 . S
C556 C557 1.391 . S
C557 H545 0.950 . S
C557 C553 1.393 . S
C557 C556 1.391 . S
C558 H548 0.950 . S
C558 C559 1.386 . S
C558 C560 1.391 . S
C559 C558 1.386 . S
C559 C563 1.393 . S
C560 H549 0.950 . S
C560 C558 1.391 . S
C560 C561 1.400 . S
C561 C555 1.491 . S
C561 C560 1.400 . S
C561 C562 1.398 . S
C562 H550 0.950 . S
C562 C561 1.398 . S
C562 C563 1.391 . S
C563 H551 0.950 . S
C563 C559 1.393 . S
C563 C562 1.391 . S
H564 C572 0.950 . S
H565 C577 0.950 . S
H566 C574 0.950 . S
H567 C576 0.950 . S
H568 C578 0.950 . S
H569 C580 0.950 . S
H570 C582 0.950 . S
H571 C583 0.950 . S
C572 H564 0.950 . S
C572 C573 1.386 . S
C572 C574 1.391 . S
C573 C572 1.386 . S
C573 C577 1.393 . S
C574 H566 0.950 . S
C574 C572 1.391 . S
C574 C575 1.400 . S
C575 C574 1.400 . S
C575 C576 1.398 . S
C575 C581 1.491 . S
C576 H567 0.950 . S
C576 C575 1.398 . S
C576 C577 1.391 . S
C577 H565 0.950 . S
C577 C573 1.393 . S
C577 C576 1.391 . S
C578 H568 0.950 . S
C578 C579 1.386 . S
C578 C580 1.391 . S
C579 C578 1.386 . S
C579 C583 1.393 . S
C580 H569 0.950 . S
C580 C578 1.391 . S
C580 C581 1.400 . S
C581 C575 1.491 . S
C581 C580 1.400 . S
C581 C582 1.398 . S
C582 H570 0.950 . S
C582 C581 1.398 . S
C582 C583 1.391 . S
C583 H571 0.950 . S
C583 C579 1.393 . S
C583 C582 1.391 . S
H584 C592 0.950 . S
H585 C597 0.950 . S
H586 C594 0.950 . S
H587 C596 0.950 . S
H588 C598 0.950 . S
H589 C600 0.950 . S
H590 C602 0.950 . S
H591 C603 0.950 . S
C592 H584 0.950 . S
C592 C593 1.386 . S
C592 C594 1.391 . S
C593 C592 1.386 . S
C593 C597 1.393 . S
C594 H586 0.950 . S
C594 C592 1.391 . S
C594 C595 1.400 . S
C595 C594 1.400 . S
C595 C596 1.398 . S
C595 C601 1.491 . S
C596 H587 0.950 . S
C596 C595 1.398 . S
C596 C597 1.391 . S
C597 H585 0.950 . S
C597 C593 1.393 . S
C597 C596 1.391 . S
C598 H588 0.950 . S
C598 C599 1.386 . S
C598 C600 1.391 . S
C599 C598 1.386 . S
C599 C603 1.393 . S
C600 H589 0.950 . S
C600 C598 1.391 . S
C600 C601 1.400 . S
C601 C595 1.491 . S
C601 C600 1.400 . S
C601 C602 1.398 . S
C602 H590 0.950 . S
C602 C601 1.398 . S
C602 C603 1.391 . S
C603 H591 0.950 . S
C603 C599 1.393 . S
C603 C602 1.391 . S
H604 C612 0.950 . S
H605 C617 0.950 . S
H606 C614 0.950 . S
H607 C616 0.950 . S
H608 C618 0.950 . S
H609 C620 0.950 . S
H610 C622 0.950 . S
H611 C623 0.950 . S
C612 H604 0.950 . S
C612 C613 1.386 . S
C612 C614 1.391 . S
C613 C612 1.386 . S
C613 C617 1.393 . S
C614 H606 0.950 . S
C614 C612 1.391 . S
C614 C615 1.400 . S
C615 C614 1.400 . S
C615 C616 1.398 . S
C615 C621 1.491 . S
C616 H607 0.950 . S
C616 C615 1.398 . S
C616 C617 1.391 . S
C617 H605 0.950 . S
C617 C613 1.393 . S
C617 C616 1.391 . S
C618 H608 0.950 . S
C618 C619 1.386 . S
C618 C620 1.391 . S
C619 C618 1.386 . S
C619 C623 1.393 . S
C620 H609 0.950 . S
C620 C618 1.391 . S
C620 C621 1.400 . S
C621 C615 1.491 . S
C621 C620 1.400 . S
C621 C622 1.398 . S
C622 H610 0.950 . S
C622 C621 1.398 . S
C622 C623 1.391 . S
C623 H611 0.950 . S
C623 C619 1.393 . S
C623 C622 1.391 . S
H624 C632 0.950 . S
H625 C637 0.950 . S
H626 C634 0.950 . S
H627 C636 0.950 . S
H628 C638 0.950 . S
H629 C640 0.950 . S
H630 C642 0.950 . S
H631 C643 0.950 . S
C632 H624 0.950 . S
C632 C633 1.386 . S
C632 C634 1.391 . S
C633 C632 1.386 . S
C633 C637 1.393 . S
C634 H626 0.950 . S
C634 C632 1.391 . S
C634 C635 1.400 . S
C635 C634 1.400 . S
C635 C636 1.398 . S
C635 C641 1.491 . S
C636 H627 0.950 . S
C636 C635 1.398 . S
C636 C637 1.391 . S
C637 H625 0.950 . S
C637 C633 1.393 . S
C637 C636 1.391 . S
C638 H628 0.950 . S
C638 C639 1.386 . S
C638 C640 1.391 . S
C639 C638 1.386 . S
C639 C643 1.393 . S
C640 H629 0.950 . S
C640 C638 1.391 . S
C640 C641 1.400 . S
C641 C635 1.491 . S
C641 C640 1.400 . S
C641 C642 1.398 . S
C642 H630 0.950 . S
C642 C641 1.398 . S
C642 C643 1.391 . S
C643 H631 0.950 . S
C643 C639 1.393 . S
C643 C642 1.391 . S
H644 C652 0.950 . S
H645 C657 0.950 . S
H646 C654 0.950 . S
H647 C656 0.950 . S
H648 C658 0.950 . S
H649 C660 0.950 . S
H650 C662 0.950 . S
H651 C663 0.950 . S
C652 H644 0.950 . S
C652 C653 1.386 . S
C652 C654 1.391 . S
C653 C652 1.386 . S
C653 C657 1.393 . S
C654 H646 0.950 . S
C654 C652 1.391 . S
C654 C655 1.400 . S
C655 C654 1.400 . S
C655 C656 1.398 . S
C655 C661 1.491 . S
C656 H647 0.950 . S
C656 C655 1.398 . S
C656 C657 1.391 . S
C657 H645 0.950 . S
C657 C653 1.393 . S
C657 C656 1.391 . S
C658 H648 0.950 . S
C658 C659 1.386 . S
C658 C660 1.391 . S
C659 C658 1.386 . S
C659 C663 1.393 . S
C660 H649 0.950 . S
C660 C658 1.391 . S
C660 C661 1.400 . S
C661 C655 1.491 . S
C661 C660 1.400 . S
C661 C662 1.398 . S
C662 H650 0.950 . S
C662 C661 1.398 . S
C662 C663 1.391 . S
C663 H651 0.950 . S
C663 C659 1.393 . S
C663 C662 1.391 . S
H664 C672 0.950 . S
H665 C677 0.950 . S
H666 C674 0.950 . S
H667 C676 0.950 . S
H668 C678 0.950 . S
H669 C680 0.950 . S
H670 C682 0.950 . S
H671 C683 0.950 . S
C672 H664 0.950 . S
C672 C673 1.386 . S
C672 C674 1.391 . S
C673 C672 1.386 . S
C673 C677 1.393 . S
C674 H666 0.950 . S
C674 C672 1.391 . S
C674 C675 1.400 . S
C675 C674 1.400 . S
C675 C676 1.398 . S
C675 C681 1.491 . S
C676 H667 0.950 . S
C676 C675 1.398 . S
C676 C677 1.391 . S
C677 H665 0.950 . S
C677 C673 1.393 . S
C677 C676 1.391 . S
C678 H668 0.950 . S
C678 C679 1.386 . S
C678 C680 1.391 . S
C679 C678 1.386 . S
C679 C683 1.393 . S
C680 H669 0.950 . S
C680 C678 1.391 . S
C680 C681 1.400 . S
C681 C675 1.491 . S
C681 C680 1.400 . S
C681 C682 1.398 . S
C682 H670 0.950 . S
C682 C681 1.398 . S
C682 C683 1.391 . S
C683 H671 0.950 . S
C683 C679 1.393 . S
C683 C682 1.391 . S
H684 C692 0.950 . S
H685 C697 0.950 . S
H686 C694 0.950 . S
H687 C696 0.950 . S
H688 C698 0.950 . S
H689 C700 0.950 . S
H690 C702 0.950 . S
H691 C703 0.950 . S
C692 H684 0.950 . S
C692 C693 1.386 . S
C692 C694 1.391 . S
C693 C692 1.386 . S
C693 C697 1.393 . S
C694 H686 0.950 . S
C694 C692 1.391 . S
C694 C695 1.400 . S
C695 C694 1.400 . S
C695 C696 1.398 . S
C695 C701 1.491 . S
C696 H687 0.950 . S
C696 C695 1.398 . S
C696 C697 1.391 . S
C697 H685 0.950 . S
C697 C693 1.393 . S
C697 C696 1.391 . S
C698 H688 0.950 . S
C698 C699 1.386 . S
C698 C700 1.391 . S
C699 C698 1.386 . S
C699 C703 1.393 . S
C700 H689 0.950 . S
C700 C698 1.391 . S
C700 C701 1.400 . S
C701 C695 1.491 . S
C701 C700 1.400 . S
C701 C702 1.398 . S
C702 H690 0.950 . S
C702 C701 1.398 . S
C702 C703 1.391 . S
C703 H691 0.950 . S
C703 C699 1.393 . S
C703 C702 1.391 . S
H704 C712 0.950 . S
H705 C717 0.950 . S
H706 C714 0.950 . S
H707 C716 0.950 . S
H708 C718 0.950 . S
H709 C720 0.950 . S
H710 C722 0.950 . S
H711 C723 0.950 . S
C712 H704 0.950 . S
C712 C713 1.386 . S
C712 C714 1.391 . S
C713 C712 1.386 . S
C713 C717 1.393 . S
C714 H706 0.950 . S
C714 C712 1.391 . S
C714 C715 1.400 . S
C715 C714 1.400 . S
C715 C716 1.398 . S
C715 C721 1.491 . S
C716 H707 0.950 . S
C716 C715 1.398 . S
C716 C717 1.391 . S
C717 H705 0.950 . S
C717 C713 1.393 . S
C717 C716 1.391 . S
C718 H708 0.950 . S
C718 C719 1.386 . S
C718 C720 1.391 . S
C719 C718 1.386 . S
C719 C723 1.393 . S
C720 H709 0.950 . S
C720 C718 1.391 . S
C720 C721 1.400 . S
C721 C715 1.491 . S
C721 C720 1.400 . S
C721 C722 1.398 . S
C722 H710 0.950 . S
C722 C721 1.398 . S
C722 C723 1.391 . S
C723 H711 0.950 . S
C723 C719 1.393 . S
C723 C722 1.391 . S
H724 C732 0.950 . S
H725 C737 0.950 . S
H726 C734 0.950 . S
H727 C736 0.950 . S
H728 C738 0.950 . S
H729 C740 0.950 . S
H730 C742 0.950 . S
H731 C743 0.950 . S
C732 H724 0.950 . S
C732 C733 1.386 . S
C732 C734 1.391 . S
C733 C732 1.386 . S
C733 C737 1.393 . S
C734 H726 0.950 . S
C734 C732 1.391 . S
C734 C735 1.400 . S
C735 C734 1.400 . S
C735 C736 1.398 . S
C735 C741 1.491 . S
C736 H727 0.950 . S
C736 C735 1.398 . S
C736 C737 1.391 . S
C737 H725 0.950 . S
C737 C733 1.393 . S
C737 C736 1.391 . S
C738 H728 0.950 . S
C738 C739 1.386 . S
C738 C740 1.391 . S
C739 C738 1.386 . S
C739 C743 1.393 . S
C740 H729 0.950 . S
C740 C738 1.391 . S
C740 C741 1.400 . S
C741 C735 1.491 . S
C741 C740 1.400 . S
C741 C742 1.398 . S
C742 H730 0.950 . S
C742 C741 1.398 . S
C742 C743 1.391 . S
C743 H731 0.950 . S
C743 C739 1.393 . S
C743 C742 1.391 . S
H744 C752 0.950 . S
H745 C757 0.950 . S
H746 C754 0.950 . S
H747 C756 0.950 . S
H748 C758 0.950 . S
H749 C760 0.950 . S
H750 C762 0.950 . S
H751 C763 0.950 . S
C752 H744 0.950 . S
C752 C753 1.386 1_545 S
C752 C754 1.391 . S
C753 C752 1.386 1_565 S
C753 C757 1.393 . S
C754 H746 0.950 . S
C754 C752 1.391 . S
C754 C755 1.400 1_545 S
C755 C754 1.400 1_565 S
C755 C756 1.398 . S
C755 C761 1.491 . S
C756 H747 0.950 . S
C756 C755 1.398 . S
C756 C757 1.391 . S
C757 H745 0.950 . S
C757 C753 1.393 . S
C757 C756 1.391 . S
C758 H748 0.950 . S
C758 C759 1.386 . S
C758 C760 1.391 . S
C759 C758 1.386 . S
C759 C763 1.393 1_565 S
C760 H749 0.950 . S
C760 C758 1.391 . S
C760 C761 1.400 . S
C761 C755 1.491 . S
C761 C760 1.400 . S
C761 C762 1.398 1_565 S
C762 H750 0.950 . S
C762 C761 1.398 1_545 S
C762 C763 1.391 . S
C763 H751 0.950 . S
C763 C759 1.393 1_545 S
C763 C762 1.391 . S
H764 C772 0.950 . S
H765 C777 0.950 . S
H766 C774 0.950 . S
H767 C776 0.950 . S
H768 C778 0.950 . S
H769 C780 0.950 . S
H770 C782 0.950 . S
H771 C783 0.950 . S
C772 H764 0.950 . S
C772 C773 1.386 . S
C772 C774 1.391 . S
C773 C772 1.386 . S
C773 C777 1.393 . S
C774 H766 0.950 . S
C774 C772 1.391 . S
C774 C775 1.400 . S
C775 C774 1.400 . S
C775 C776 1.398 . S
C775 C781 1.491 . S
C776 H767 0.950 . S
C776 C775 1.398 . S
C776 C777 1.391 . S
C777 H765 0.950 . S
C777 C773 1.393 . S
C777 C776 1.391 . S
C778 H768 0.950 . S
C778 C779 1.386 . S
C778 C780 1.391 . S
C779 C778 1.386 . S
C779 C783 1.393 . S
C780 H769 0.950 . S
C780 C778 1.391 . S
C780 C781 1.400 . S
C781 C775 1.491 . S
C781 C780 1.400 . S
C781 C782 1.398 . S
C782 H770 0.950 . S
C782 C781 1.398 . S
C782 C783 1.391 . S
C783 H771 0.950 . S
C783 C779 1.393 . S
C783 C782 1.391 . S
H784 C792 0.950 . S
H785 C797 0.950 . S
H786 C794 0.950 . S
H787 C796 0.950 . S
H788 C798 0.950 . S
H789 C800 0.950 . S
H790 C802 0.950 . S
H791 C803 0.950 . S
C792 H784 0.950 . S
C792 C793 1.386 . S
C792 C794 1.391 . S
C793 C792 1.386 . S
C793 C797 1.393 . S
C794 H786 0.950 . S
C794 C792 1.391 . S
C794 C795 1.400 . S
C795 C794 1.400 . S
C795 C796 1.398 . S
C795 C801 1.491 . S
C796 H787 0.950 . S
C796 C795 1.398 . S
C796 C797 1.391 . S
C797 H785 0.950 . S
C797 C793 1.393 . S
C797 C796 1.391 . S
C798 H788 0.950 . S
C798 C799 1.386 . S
C798 C800 1.391 . S
C799 C798 1.386 . S
C799 C803 1.393 . S
C800 H789 0.950 . S
C800 C798 1.391 . S
C800 C801 1.400 . S
C801 C795 1.491 . S
C801 C800 1.400 . S
C801 C802 1.398 . S
C802 H790 0.950 . S
C802 C801 1.398 . S
C802 C803 1.391 . S
C803 H791 0.950 . S
C803 C799 1.393 . S
C803 C802 1.391 . S
H804 C812 0.950 . S
H805 C817 0.950 . S
H806 C814 0.950 . S
H807 C816 0.950 . S
H808 C818 0.950 . S
H809 C820 0.950 . S
H810 C822 0.950 . S
H811 C823 0.950 . S
C812 H804 0.950 . S
C812 C813 1.386 . S
C812 C814 1.391 . S
C813 C812 1.386 . S
C813 C817 1.393 . S
C814 H806 0.950 . S
C814 C812 1.391 . S
C814 C815 1.400 . S
C815 C814 1.400 . S
C815 C816 1.398 . S
C815 C821 1.491 . S
C816 H807 0.950 . S
C816 C815 1.398 . S
C816 C817 1.391 . S
C817 H805 0.950 . S
C817 C813 1.393 . S
C817 C816 1.391 . S
C818 H808 0.950 . S
C818 C819 1.386 . S
C818 C820 1.391 . S
C819 C818 1.386 . S
C819 C823 1.393 . S
C820 H809 0.950 . S
C820 C818 1.391 . S
C820 C821 1.400 . S
C821 C815 1.491 . S
C821 C820 1.400 . S
C821 C822 1.398 . S
C822 H810 0.950 . S
C822 C821 1.398 . S
C822 C823 1.391 . S
C823 H811 0.950 . S
C823 C819 1.393 . S
C823 C822 1.391 . S
H824 C832 0.950 . S
H825 C837 0.950 . S
H826 C834 0.950 . S
H827 C836 0.950 . S
H828 C838 0.950 . S
H829 C840 0.950 . S
H830 C842 0.950 . S
H831 C843 0.950 . S
C832 H824 0.950 . S
C832 C833 1.386 . S
C832 C834 1.391 . S
C833 C832 1.386 . S
C833 C837 1.393 . S
C834 H826 0.950 . S
C834 C832 1.391 . S
C834 C835 1.400 . S
C835 C834 1.400 . S
C835 C836 1.398 . S
C835 C841 1.491 . S
C836 H827 0.950 . S
C836 C835 1.398 . S
C836 C837 1.391 . S
C837 H825 0.950 . S
C837 C833 1.393 . S
C837 C836 1.391 . S
C838 H828 0.950 . S
C838 C839 1.386 . S
C838 C840 1.391 . S
C839 C838 1.386 . S
C839 C843 1.393 . S
C840 H829 0.950 . S
C840 C838 1.391 . S
C840 C841 1.400 . S
C841 C835 1.491 . S
C841 C840 1.400 . S
C841 C842 1.398 . S
C842 H830 0.950 . S
C842 C841 1.398 . S
C842 C843 1.391 . S
C843 H831 0.950 . S
C843 C839 1.393 . S
C843 C842 1.391 . S
H844 C852 0.950 . S
H845 C857 0.950 . S
H846 C854 0.950 . S
H847 C856 0.950 . S
H848 C858 0.950 . S
H849 C860 0.950 . S
H850 C862 0.950 . S
H851 C863 0.950 . S
C852 H844 0.950 . S
C852 C853 1.386 . S
C852 C854 1.391 . S
C853 C852 1.386 . S
C853 C857 1.393 . S
C854 H846 0.950 . S
C854 C852 1.391 . S
C854 C855 1.400 . S
C855 C854 1.400 . S
C855 C856 1.398 . S
C855 C861 1.491 . S
C856 H847 0.950 . S
C856 C855 1.398 . S
C856 C857 1.391 . S
C857 H845 0.950 . S
C857 C853 1.393 . S
C857 C856 1.391 . S
C858 H848 0.950 . S
C858 C859 1.386 . S
C858 C860 1.391 . S
C859 C858 1.386 . S
C859 C863 1.393 . S
C860 H849 0.950 . S
C860 C858 1.391 . S
C860 C861 1.400 . S
C861 C855 1.491 . S
C861 C860 1.400 . S
C861 C862 1.398 . S
C862 H850 0.950 . S
C862 C861 1.398 . S
C862 C863 1.391 . S
C863 H851 0.950 . S
C863 C859 1.393 . S
C863 C862 1.391 . S
H864 C872 0.950 . S
H865 C877 0.950 . S
H866 C874 0.950 . S
H867 C876 0.950 . S
H868 C878 0.950 . S
H869 C880 0.950 . S
H870 C882 0.950 . S
H871 C883 0.950 . S
C872 H864 0.950 . S
C872 C873 1.386 . S
C872 C874 1.391 . S
C873 C872 1.386 . S
C873 C877 1.393 . S
C874 H866 0.950 . S
C874 C872 1.391 . S
C874 C875 1.400 . S
C875 C874 1.400 . S
C875 C876 1.398 . S
C875 C881 1.491 . S
C876 H867 0.950 . S
C876 C875 1.398 . S
C876 C877 1.391 . S
C877 H865 0.950 . S
C877 C873 1.393 . S
C877 C876 1.391 . S
C878 H868 0.950 . S
C878 C879 1.386 . S
C878 C880 1.391 . S
C879 C878 1.386 . S
C879 C883 1.393 . S
C880 H869 0.950 . S
C880 C878 1.391 . S
C880 C881 1.400 . S
C881 C875 1.491 . S
C881 C880 1.400 . S
C881 C882 1.398 . S
C882 H870 0.950 . S
C882 C881 1.398 . S
C882 C883 1.391 . S
C883 H871 0.950 . S
C883 C879 1.393 . S
C883 C882 1.391 . S
H884 C892 0.950 . S
H885 C897 0.950 . S
H886 C894 0.950 . S
H887 C896 0.950 . S
H888 C898 0.950 . S
H889 C900 0.950 . S
H890 C902 0.950 . S
H891 C903 0.950 . S
C892 H884 0.950 . S
C892 C893 1.386 . S
C892 C894 1.391 . S
C893 C892 1.386 . S
C893 C897 1.393 . S
C894 H886 0.950 . S
C894 C892 1.391 . S
C894 C895 1.400 . S
C895 C894 1.400 . S
C895 C896 1.398 . S
C895 C901 1.491 . S
C896 H887 0.950 . S
C896 C895 1.398 . S
C896 C897 1.391 . S
C897 H885 0.950 . S
C897 C893 1.393 . S
C897 C896 1.391 . S
C898 H888 0.950 . S
C898 C899 1.386 . S
C898 C900 1.391 . S
C899 C898 1.386 . S
C899 C903 1.393 . S
C900 H889 0.950 . S
C900 C898 1.391 . S
C900 C901 1.400 . S
C901 C895 1.491 . S
C901 C900 1.400 . S
C901 C902 1.398 . S
C902 H890 0.950 . S
C902 C901 1.398 . S
C902 C903 1.391 . S
C903 H891 0.950 . S
C903 C899 1.393 . S
C903 C902 1.391 . S
H904 C912 0.950 . S
H905 C917 0.950 . S
H906 C914 0.950 . S
H907 C916 0.950 . S
H908 C918 0.950 . S
H909 C920 0.950 . S
H910 C922 0.950 . S
H911 C923 0.950 . S
C912 H904 0.950 . S
C912 C913 1.386 . S
C912 C914 1.391 . S
C913 C912 1.386 . S
C913 C917 1.393 . S
C914 H906 0.950 . S
C914 C912 1.391 . S
C914 C915 1.400 . S
C915 C914 1.400 . S
C915 C916 1.398 . S
C915 C921 1.491 . S
C916 H907 0.950 . S
C916 C915 1.398 . S
C916 C917 1.391 . S
C917 H905 0.950 . S
C917 C913 1.393 . S
C917 C916 1.391 . S
C918 H908 0.950 . S
C918 C919 1.386 . S
C918 C920 1.391 . S
C919 C918 1.386 . S
C919 C923 1.393 . S
C920 H909 0.950 . S
C920 C918 1.391 . S
C920 C921 1.400 . S
C921 C915 1.491 . S
C921 C920 1.400 . S
C921 C922 1.398 . S
C922 H910 0.950 . S
C922 C921 1.398 . S
C922 C923 1.391 . S
C923 H911 0.950 . S
C923 C919 1.393 . S
C923 C922 1.391 . S
H924 C932 0.950 . S
H925 C937 0.950 . S
H926 C934 0.950 . S
H927 C936 0.950 . S
H928 C938 0.950 . S
H929 C940 0.950 . S
H930 C942 0.950 . S
H931 C943 0.950 . S
C932 H924 0.950 . S
C932 C933 1.386 1_565 S
C932 C934 1.391 . S
C933 C932 1.386 1_545 S
C933 C937 1.393 . S
C934 H926 0.950 . S
C934 C932 1.391 . S
C934 C935 1.400 1_565 S
C935 C934 1.400 1_545 S
C935 C936 1.398 . S
C935 C941 1.491 . S
C936 H927 0.950 . S
C936 C935 1.398 . S
C936 C937 1.391 . S
C937 H925 0.950 . S
C937 C933 1.393 . S
C937 C936 1.391 . S
C938 H928 0.950 . S
C938 C939 1.386 . S
C938 C940 1.391 . S
C939 C938 1.386 . S
C939 C943 1.393 1_545 S
C940 H929 0.950 . S
C940 C938 1.391 . S
C940 C941 1.400 . S
C941 C935 1.491 . S
C941 C940 1.400 . S
C941 C942 1.398 1_545 S
C942 H930 0.950 . S
C942 C941 1.398 1_565 S
C942 C943 1.391 . S
C943 H931 0.950 . S
C943 C939 1.393 1_565 S
C943 C942 1.391 . S
H944 C952 0.950 . S
H945 C957 0.950 . S
H946 C954 0.950 . S
H947 C956 0.950 . S
H948 C958 0.950 . S
H949 C960 0.950 . S
H950 C962 0.950 . S
H951 C963 0.950 . S
C952 H944 0.950 . S
C952 C953 1.386 . S
C952 C954 1.391 . S
C953 C952 1.386 . S
C953 C957 1.393 . S
C954 H946 0.950 . S
C954 C952 1.391 . S
C954 C955 1.400 . S
C955 C954 1.400 . S
C955 C956 1.398 . S
C955 C961 1.491 . S
C956 H947 0.950 . S
C956 C955 1.398 . S
C956 C957 1.391 . S
C957 H945 0.950 . S
C957 C953 1.393 . S
C957 C956 1.391 . S
C958 H948 0.950 . S
C958 C959 1.386 . S
C958 C960 1.391 . S
C959 C958 1.386 . S
C959 C963 1.393 . S
C960 H949 0.950 . S
C960 C958 1.391 . S
C960 C961 1.400 . S
C961 C955 1.491 . S
C961 C960 1.400 . S
C961 C962 1.398 . S
C962 H950 0.950 . S
C962 C961 1.398 . S
C962 C963 1.391 . S
C963 H951 0.950 . S
C963 C959 1.393 . S
C963 C962 1.391 . S
H964 C972 0.950 . S
H965 C977 0.950 . S
H966 C974 0.950 . S
H967 C976 0.950 . S
H968 C978 0.950 . S
H969 C980 0.950 . S
H970 C982 0.950 . S
H971 C983 0.950 . S
C972 H964 0.950 . S
C972 C973 1.386 . S
C972 C974 1.391 . S
C973 C972 1.386 . S
C973 C977 1.393 . S
C974 H966 0.950 . S
C974 C972 1.391 . S
C974 C975 1.400 . S
C975 C974 1.400 . S
C975 C976 1.398 . S
C975 C981 1.491 . S
C976 H967 0.950 . S
C976 C975 1.398 . S
C976 C977 1.391 . S
C977 H965 0.950 . S
C977 C973 1.393 . S
C977 C976 1.391 . S
C978 H968 0.950 . S
C978 C979 1.386 . S
C978 C980 1.391 . S
C979 C978 1.386 . S
C979 C983 1.393 . S
C980 H969 0.950 . S
C980 C978 1.391 . S
C980 C981 1.400 . S
C981 C975 1.491 . S
C981 C980 1.400 . S
C981 C982 1.398 . S
C982 H970 0.950 . S
C982 C981 1.398 . S
C982 C983 1.391 . S
C983 H971 0.950 . S
C983 C979 1.393 . S
C983 C982 1.391 . S
H984 C992 0.950 . S
H985 C997 0.950 . S
H986 C994 0.950 . S
H987 C996 0.950 . S
H988 C998 0.950 . S
H989 C1000 0.950 . S
H990 C1002 0.950 . S
H991 C1003 0.950 . S
C992 H984 0.950 . S
C992 C993 1.386 . S
C992 C994 1.391 . S
C993 C992 1.386 . S
C993 C997 1.393 . S
C994 H986 0.950 . S
C994 C992 1.391 . S
C994 C995 1.400 . S
C995 C994 1.400 . S
C995 C996 1.398 . S
C995 C1001 1.491 . S
C996 H987 0.950 . S
C996 C995 1.398 . S
C996 C997 1.391 . S
C997 H985 0.950 . S
C997 C993 1.393 . S
C997 C996 1.391 . S
C998 H988 0.950 . S
C998 C999 1.386 . S
C998 C1000 1.391 . S
C999 C998 1.386 . S
C999 C1003 1.393 . S
C1000 H989 0.950 . S
C1000 C998 1.391 . S
C1000 C1001 1.400 . S
C1001 C995 1.491 . S
C1001 C1000 1.400 . S
C1001 C1002 1.398 . S
C1002 H990 0.950 . S
C1002 C1001 1.398 . S
C1002 C1003 1.391 . S
C1003 H991 0.950 . S
C1003 C999 1.393 . S
C1003 C1002 1.391 . S
H1004 C1012 0.950 . S
H1005 C1017 0.950 . S
H1006 C1014 0.950 . S
H1007 C1016 0.950 . S
H1008 C1018 0.950 . S
H1009 C1020 0.950 . S
H1010 C1022 0.950 . S
H1011 C1023 0.950 . S
C1012 H1004 0.950 . S
C1012 C1013 1.386 . S
C1012 C1014 1.391 . S
C1013 C1012 1.386 . S
C1013 C1017 1.393 . S
C1014 H1006 0.950 . S
C1014 C1012 1.391 . S
C1014 C1015 1.400 . S
C1015 C1014 1.400 . S
C1015 C1016 1.398 . S
C1015 C1021 1.491 . S
C1016 H1007 0.950 . S
C1016 C1015 1.398 . S
C1016 C1017 1.391 . S
C1017 H1005 0.950 . S
C1017 C1013 1.393 . S
C1017 C1016 1.391 . S
C1018 H1008 0.950 . S
C1018 C1019 1.386 . S
C1018 C1020 1.391 . S
C1019 C1018 1.386 . S
C1019 C1023 1.393 . S
C1020 H1009 0.950 . S
C1020 C1018 1.391 . S
C1020 C1021 1.400 . S
C1021 C1015 1.491 . S
C1021 C1020 1.400 . S
C1021 C1022 1.398 . S
C1022 H1010 0.950 . S
C1022 C1021 1.398 . S
C1022 C1023 1.391 . S
C1023 H1011 0.950 . S
C1023 C1019 1.393 . S
C1023 C1022 1.391 . S
H1024 C1032 0.950 . S
H1025 C1037 0.976 . S
H1026 C1034 0.950 . S
H1027 C1036 0.950 . S
H1028 C1038 0.950 . S
H1029 C1040 0.950 . S
H1030 C1042 0.950 . S
H1031 C1043 0.950 . S
C1032 H1024 0.950 . S
C1032 C1033 1.386 . S
C1032 C1034 1.391 . S
C1033 C1032 1.386 . S
C1033 C1037 1.368 1_545 S
C1034 H1026 0.950 . S
C1034 C1032 1.391 . S
C1034 C1035 1.400 . S
C1035 C1034 1.400 . S
C1035 C1036 1.398 1_545 S
C1035 C1041 1.491 . S
C1036 H1027 0.950 . S
C1036 C1035 1.398 1_565 S
C1036 C1037 1.392 . S
C1037 H1025 0.976 . S
C1037 C1033 1.368 1_565 S
C1037 C1036 1.392 . S
C1038 H1028 0.950 . S
C1038 C1039 1.386 1_565 S
C1038 C1040 1.391 . S
C1039 C1038 1.386 1_545 S
C1039 C1043 1.393 . S
C1040 H1029 0.950 . S
C1040 C1038 1.391 . S
C1040 C1041 1.400 1_565 S
C1041 C1035 1.491 . S
C1041 C1040 1.400 1_545 S
C1041 C1042 1.398 . S
C1042 H1030 0.950 . S
C1042 C1041 1.398 . S
C1042 C1043 1.391 . S
C1043 H1031 0.950 . S
C1043 C1039 1.393 . S
C1043 C1042 1.391 . S
H1044 C1052 0.950 . S
H1045 C1057 0.950 1_565 S
H1046 C1054 0.950 . S
H1047 C1056 0.950 . S
H1048 C1058 0.950 . S
H1049 C1060 0.950 . S
H1050 C1062 0.950 . S
H1051 C1063 0.950 . S
C1052 H1044 0.950 . S
C1052 C1053 1.386 . S
C1052 C1054 1.391 . S
C1053 C1052 1.386 . S
C1053 C1057 1.393 . S
C1054 H1046 0.950 . S
C1054 C1052 1.391 . S
C1054 C1055 1.400 . S
C1055 C1054 1.400 . S
C1055 C1056 1.398 . S
C1055 C1061 1.491 . S
C1056 H1047 0.950 . S
C1056 C1055 1.398 . S
C1056 C1057 1.391 . S
C1057 H1045 0.950 1_545 S
C1057 C1053 1.393 . S
C1057 C1056 1.391 . S
C1058 H1048 0.950 . S
C1058 C1059 1.386 . S
C1058 C1060 1.391 . S
C1059 C1058 1.386 . S
C1059 C1063 1.393 . S
C1060 H1049 0.950 . S
C1060 C1058 1.391 . S
C1060 C1061 1.400 . S
C1061 C1055 1.491 . S
C1061 C1060 1.400 . S
C1061 C1062 1.398 . S
C1062 H1050 0.950 . S
C1062 C1061 1.398 . S
C1062 C1063 1.391 . S
C1063 H1051 0.950 . S
C1063 C1059 1.393 . S
C1063 C1062 1.391 . S
H1064 C1072 0.950 . S
H1065 C1077 0.934 1_655 S
H1066 C1074 0.950 . S
H1067 C1076 0.950 . S
H1068 C1078 0.950 . S
H1069 C1080 0.950 . S
H1070 C1082 0.950 . S
H1071 C1083 0.950 . S
C1072 H1064 0.950 . S
C1072 C1073 1.386 . S
C1072 C1074 1.391 . S
C1073 C1072 1.386 . S
C1073 C1077 1.410 . S
C1074 H1066 0.950 . S
C1074 C1072 1.391 . S
C1074 C1075 1.400 . S
C1075 C1074 1.400 . S
C1075 C1076 1.398 1_455 S
C1075 C1081 1.491 . S
C1076 H1067 0.950 . S
C1076 C1075 1.398 1_655 S
C1076 C1077 1.391 1_655 S
C1077 H1065 0.934 1_455 S
C1077 C1073 1.410 . S
C1077 C1076 1.391 1_455 S
C1078 H1068 0.950 . S
C1078 C1079 1.386 1_655 S
C1078 C1080 1.391 . S
C1079 C1078 1.386 1_455 S
C1079 C1083 1.393 . S
C1080 H1069 0.950 . S
C1080 C1078 1.391 . S
C1080 C1081 1.400 1_655 S
C1081 C1075 1.491 . S
C1081 C1080 1.400 1_455 S
C1081 C1082 1.398 . S
C1082 H1070 0.950 . S
C1082 C1081 1.398 . S
C1082 C1083 1.391 . S
C1083 H1071 0.950 . S
C1083 C1079 1.393 . S
C1083 C1082 1.391 . S
H1084 C1092 0.950 . S
H1085 C1097 0.950 . S
H1086 C1094 0.950 . S
H1087 C1096 0.950 . S
H1088 C1098 0.950 . S
H1089 C1100 0.950 . S
H1090 C1102 0.950 . S
H1091 C1103 0.950 . S
C1092 H1084 0.950 . S
C1092 C1093 1.386 . S
C1092 C1094 1.391 . S
C1093 C1092 1.386 . S
C1093 C1097 1.393 . S
C1094 H1086 0.950 . S
C1094 C1092 1.391 . S
C1094 C1095 1.400 . S
C1095 C1094 1.400 . S
C1095 C1096 1.398 . S
C1095 C1101 1.491 . S
C1096 H1087 0.950 . S
C1096 C1095 1.398 . S
C1096 C1097 1.391 . S
C1097 H1085 0.950 . S
C1097 C1093 1.393 . S
C1097 C1096 1.391 . S
C1098 H1088 0.950 . S
C1098 C1099 1.386 . S
C1098 C1100 1.391 . S
C1099 C1098 1.386 . S
C1099 C1103 1.393 . S
C1100 H1089 0.950 . S
C1100 C1098 1.391 . S
C1100 C1101 1.400 . S
C1101 C1095 1.491 . S
C1101 C1100 1.400 . S
C1101 C1102 1.398 . S
C1102 H1090 0.950 . S
C1102 C1101 1.398 . S
C1102 C1103 1.391 . S
C1103 H1091 0.950 . S
C1103 C1099 1.393 . S
C1103 C1102 1.391 . S
H1104 C1112 0.950 . S
H1105 C1117 0.950 . S
H1106 C1114 0.950 . S
H1107 C1116 0.950 . S
H1108 C1118 0.950 . S
H1109 C1120 0.950 . S
H1110 C1122 0.950 . S
H1111 C1123 0.950 . S
C1112 H1104 0.950 . S
C1112 C1113 1.386 . S
C1112 C1114 1.391 . S
C1113 C1112 1.386 . S
C1113 C1117 1.393 . S
C1114 H1106 0.950 . S
C1114 C1112 1.391 . S
C1114 C1115 1.400 . S
C1115 C1114 1.400 . S
C1115 C1116 1.398 . S
C1115 C1121 1.491 . S
C1116 H1107 0.950 . S
C1116 C1115 1.398 . S
C1116 C1117 1.391 . S
C1117 H1105 0.950 . S
C1117 C1113 1.393 . S
C1117 C1116 1.391 . S
C1118 H1108 0.950 . S
C1118 C1119 1.386 . S
C1118 C1120 1.391 . S
C1119 C1118 1.386 . S
C1119 C1123 1.393 . S
C1120 H1109 0.950 . S
C1120 C1118 1.391 . S
C1120 C1121 1.400 . S
C1121 C1115 1.491 . S
C1121 C1120 1.400 . S
C1121 C1122 1.398 . S
C1122 H1110 0.950 . S
C1122 C1121 1.398 . S
C1122 C1123 1.391 . S
C1123 H1111 0.950 . S
C1123 C1119 1.393 . S
C1123 C1122 1.391 . S
H1124 C1132 0.950 . S
H1125 C1137 0.950 . S
H1126 C1134 0.950 . S
H1127 C1136 0.950 . S
H1128 C1138 0.950 1_565 S
H1129 C1140 0.950 . S
H1130 C1142 0.950 . S
H1131 C1143 0.950 . S
C1132 H1124 0.950 . S
C1132 C1133 1.386 . S
C1132 C1134 1.391 . S
C1133 C1132 1.386 . S
C1133 C1137 1.393 . S
C1134 H1126 0.950 . S
C1134 C1132 1.391 . S
C1134 C1135 1.400 . S
C1135 C1134 1.400 . S
C1135 C1136 1.398 . S
C1135 C1141 1.491 . S
C1136 H1127 0.950 . S
C1136 C1135 1.398 . S
C1136 C1137 1.391 . S
C1137 H1125 0.950 . S
C1137 C1133 1.393 . S
C1137 C1136 1.391 . S
C1138 H1128 0.950 1_545 S
C1138 C1139 1.386 . S
C1138 C1140 1.391 . S
C1139 C1138 1.386 . S
C1139 C1143 1.393 . S
C1140 H1129 0.950 . S
C1140 C1138 1.391 . S
C1140 C1141 1.400 . S
C1141 C1135 1.491 . S
C1141 C1140 1.400 . S
C1141 C1142 1.398 . S
C1142 H1130 0.950 . S
C1142 C1141 1.398 . S
C1142 C1143 1.391 . S
C1143 H1131 0.950 . S
C1143 C1139 1.393 . S
C1143 C1142 1.391 . S
H1144 C1152 0.950 . S
H1145 C1157 0.950 . S
H1146 C1154 0.950 . S
H1147 C1156 0.950 . S
H1148 C1158 0.950 . S
H1149 C1160 0.950 . S
H1150 C1162 0.950 . S
H1151 C1163 0.950 . S
C1152 H1144 0.950 . S
C1152 C1153 1.386 . S
C1152 C1154 1.391 . S
C1153 C1152 1.386 . S
C1153 C1157 1.393 . S
C1154 H1146 0.950 . S
C1154 C1152 1.391 . S
C1154 C1155 1.400 . S
C1155 C1154 1.400 . S
C1155 C1156 1.398 . S
C1155 C1161 1.491 . S
C1156 H1147 0.950 . S
C1156 C1155 1.398 . S
C1156 C1157 1.391 . S
C1157 H1145 0.950 . S
C1157 C1153 1.393 . S
C1157 C1156 1.391 . S
C1158 H1148 0.950 . S
C1158 C1159 1.386 . S
C1158 C1160 1.391 . S
C1159 C1158 1.386 . S
C1159 C1163 1.393 . S
C1160 H1149 0.950 . S
C1160 C1158 1.391 . S
C1160 C1161 1.400 . S
C1161 C1155 1.491 . S
C1161 C1160 1.400 . S
C1161 C1162 1.398 . S
C1162 H1150 0.950 . S
C1162 C1161 1.398 . S
C1162 C1163 1.391 . S
C1163 H1151 0.950 . S
C1163 C1159 1.393 . S
C1163 C1162 1.391 . S
H1164 C1172 0.950 . S
H1165 C1177 0.950 . S
H1166 C1174 0.950 . S
H1167 C1176 0.950 . S
H1168 C1178 0.950 . S
H1169 C1180 0.950 . S
H1170 C1182 0.950 . S
H1171 C1183 0.950 . S
C1172 H1164 0.950 . S
C1172 C1173 1.386 . S
C1172 C1174 1.391 . S
C1173 C1172 1.386 . S
C1173 C1177 1.393 . S
C1174 H1166 0.950 . S
C1174 C1172 1.391 . S
C1174 C1175 1.400 . S
C1175 C1174 1.400 . S
C1175 C1176 1.398 . S
C1175 C1181 1.491 . S
C1176 H1167 0.950 . S
C1176 C1175 1.398 . S
C1176 C1177 1.391 . S
C1177 H1165 0.950 . S
C1177 C1173 1.393 . S
C1177 C1176 1.391 . S
C1178 H1168 0.950 . S
C1178 C1179 1.386 . S
C1178 C1180 1.391 . S
C1179 C1178 1.386 . S
C1179 C1183 1.393 . S
C1180 H1169 0.950 . S
C1180 C1178 1.391 . S
C1180 C1181 1.400 . S
C1181 C1175 1.491 . S
C1181 C1180 1.400 . S
C1181 C1182 1.398 . S
C1182 H1170 0.950 . S
C1182 C1181 1.398 . S
C1182 C1183 1.391 . S
C1183 H1171 0.950 . S
C1183 C1179 1.393 . S
C1183 C1182 1.391 . S
H1184 C1192 0.950 . S
H1185 C1197 0.950 . S
H1186 C1194 0.950 1_565 S
H1187 C1196 0.950 . S
H1188 C1198 0.950 . S
H1189 C1200 0.950 . S
H1190 C1202 0.950 1_565 S
H1191 C1203 0.950 . S
C1192 H1184 0.950 . S
C1192 C1193 1.386 1_565 S
C1192 C1194 1.391 1_565 S
C1193 C1192 1.386 1_545 S
C1193 C1197 1.393 . S
C1194 H1186 0.950 1_545 S
C1194 C1192 1.391 1_545 S
C1194 C1195 1.400 . S
C1195 C1194 1.400 . S
C1195 C1196 1.398 . S
C1195 C1201 1.491 . S
C1196 H1187 0.950 . S
C1196 C1195 1.398 . S
C1196 C1197 1.391 . S
C1197 H1185 0.950 . S
C1197 C1193 1.393 . S
C1197 C1196 1.391 . S
C1198 H1188 0.950 . S
C1198 C1199 1.386 . S
C1198 C1200 1.391 . S
C1199 C1198 1.386 . S
C1199 C1203 1.393 . S
C1200 H1189 0.950 . S
C1200 C1198 1.391 . S
C1200 C1201 1.400 . S
C1201 C1195 1.491 . S
C1201 C1200 1.400 . S
C1201 C1202 1.398 . S
C1202 H1190 0.950 1_545 S
C1202 C1201 1.398 . S
C1202 C1203 1.391 . S
C1203 H1191 0.950 . S
C1203 C1199 1.393 . S
C1203 C1202 1.391 . S
H1204 C1212 0.950 . S
H1205 C1217 0.950 . S
H1206 C1214 0.950 . S
H1207 C1216 0.950 . S
H1208 C1218 0.950 . S
H1209 C1220 0.950 . S
H1210 C1222 0.950 . S
H1211 C1223 0.950 . S
C1212 H1204 0.950 . S
C1212 C1213 1.386 . S
C1212 C1214 1.391 . S
C1213 C1212 1.386 . S
C1213 C1217 1.393 . S
C1214 H1206 0.950 . S
C1214 C1212 1.391 . S
C1214 C1215 1.400 . S
C1215 C1214 1.400 . S
C1215 C1216 1.398 . S
C1215 C1221 1.491 . S
C1216 H1207 0.950 . S
C1216 C1215 1.398 . S
C1216 C1217 1.391 . S
C1217 H1205 0.950 . S
C1217 C1213 1.393 . S
C1217 C1216 1.391 . S
C1218 H1208 0.950 . S
C1218 C1219 1.386 . S
C1218 C1220 1.391 . S
C1219 C1218 1.386 . S
C1219 C1223 1.393 . S
C1220 H1209 0.950 . S
C1220 C1218 1.391 . S
C1220 C1221 1.400 . S
C1221 C1215 1.491 . S
C1221 C1220 1.400 . S
C1221 C1222 1.398 . S
C1222 H1210 0.950 . S
C1222 C1221 1.398 . S
C1222 C1223 1.391 . S
C1223 H1211 0.950 . S
C1223 C1219 1.393 . S
C1223 C1222 1.391 . S
H1224 C1232 0.950 . S
H1225 C1237 0.950 . S
H1226 C1234 0.950 . S
H1227 C1236 0.950 . S
H1228 C1238 0.950 . S
H1229 C1240 0.950 . S
H1230 C1242 0.950 . S
H1231 C1243 0.950 . S
C1232 H1224 0.950 . S
C1232 C1233 1.386 . S
C1232 C1234 1.391 . S
C1233 C1232 1.386 . S
C1233 C1237 1.393 . S
C1234 H1226 0.950 . S
C1234 C1232 1.391 . S
C1234 C1235 1.400 . S
C1235 C1234 1.400 . S
C1235 C1236 1.398 . S
C1235 C1241 1.491 1_554 S
C1236 H1227 0.950 . S
C1236 C1235 1.398 . S
C1236 C1237 1.391 . S
C1237 H1225 0.950 . S
C1237 C1233 1.393 . S
C1237 C1236 1.391 . S
C1238 H1228 0.950 . S
C1238 C1239 1.386 . S
C1238 C1240 1.391 . S
C1239 C1238 1.386 . S
C1239 C1243 1.393 . S
C1240 H1229 0.950 . S
C1240 C1238 1.391 . S
C1240 C1241 1.400 . S
C1241 C1235 1.491 1_556 S
C1241 C1240 1.400 . S
C1241 C1242 1.398 . S
C1242 H1230 0.950 . S
C1242 C1241 1.398 . S
C1242 C1243 1.391 . S
C1243 H1231 0.950 . S
C1243 C1239 1.393 . S
C1243 C1242 1.391 . S
H1244 C1252 0.950 . S
H1245 C1257 0.950 . S
H1246 C1254 0.950 . S
H1247 C1256 0.950 . S
H1248 C1258 0.950 . S
H1249 C1260 0.950 . S
H1250 C1262 0.950 . S
H1251 C1263 0.950 . S
C1252 H1244 0.950 . S
C1252 C1253 1.386 . S
C1252 C1254 1.391 . S
C1253 C1252 1.386 . S
C1253 C1257 1.393 . S
C1254 H1246 0.950 . S
C1254 C1252 1.391 . S
C1254 C1255 1.400 . S
C1255 C1254 1.400 . S
C1255 C1256 1.398 . S
C1255 C1261 1.491 1_556 S
C1256 H1247 0.950 . S
C1256 C1255 1.398 . S
C1256 C1257 1.391 . S
C1257 H1245 0.950 . S
C1257 C1253 1.393 . S
C1257 C1256 1.391 . S
C1258 H1248 0.950 . S
C1258 C1259 1.386 . S
C1258 C1260 1.391 . S
C1259 C1258 1.386 . S
C1259 C1263 1.393 . S
C1260 H1249 0.950 . S
C1260 C1258 1.391 . S
C1260 C1261 1.400 . S
C1261 C1255 1.491 1_554 S
C1261 C1260 1.400 . S
C1261 C1262 1.398 . S
C1262 H1250 0.950 . S
C1262 C1261 1.398 . S
C1262 C1263 1.391 . S
C1263 H1251 0.950 . S
C1263 C1259 1.393 . S
C1263 C1262 1.391 . S
H1264 C1272 0.950 . S
H1265 C1277 0.950 1_565 S
H1266 C1274 0.950 . S
H1267 C1276 0.950 1_565 S
H1268 C1278 0.950 1_565 S
H1269 C1280 0.950 1_565 S
H1270 C1282 0.950 . S
H1271 C1283 0.950 . S
C1272 H1264 0.950 . S
C1272 C1273 1.386 . S
C1272 C1274 1.391 . S
C1273 C1272 1.386 . S
C1273 C1277 1.393 . S
C1274 H1266 0.950 . S
C1274 C1272 1.391 . S
C1274 C1275 1.400 . S
C1275 C1274 1.400 . S
C1275 C1276 1.398 . S
C1275 C1281 1.491 1_556 S
C1276 H1267 0.950 1_545 S
C1276 C1275 1.398 . S
C1276 C1277 1.391 . S
C1277 H1265 0.950 1_545 S
C1277 C1273 1.393 . S
C1277 C1276 1.391 . S
C1278 H1268 0.950 1_545 S
C1278 C1279 1.386 . S
C1278 C1280 1.391 . S
C1279 C1278 1.386 . S
C1279 C1283 1.393 . S
C1280 H1269 0.950 1_545 S
C1280 C1278 1.391 . S
C1280 C1281 1.400 . S
C1281 C1275 1.491 1_554 S
C1281 C1280 1.400 . S
C1281 C1282 1.398 . S
C1282 H1270 0.950 . S
C1282 C1281 1.398 . S
C1282 C1283 1.391 . S
C1283 H1271 0.950 . S
C1283 C1279 1.393 . S
C1283 C1282 1.391 . S
H1284 C1292 0.950 . S
H1285 C1297 0.950 . S
H1286 C1294 0.950 . S
H1287 C1296 0.950 . S
H1288 C1298 0.950 . S
H1289 C1300 0.950 . S
H1290 C1302 0.950 . S
H1291 C1303 0.950 . S
C1292 H1284 0.950 . S
C1292 C1293 1.386 . S
C1292 C1294 1.391 . S
C1293 C1292 1.386 . S
C1293 C1297 1.393 . S
C1294 H1286 0.950 . S
C1294 C1292 1.391 . S
C1294 C1295 1.400 . S
C1295 C1294 1.400 . S
C1295 C1296 1.398 . S
C1295 C1301 1.491 1_556 S
C1296 H1287 0.950 . S
C1296 C1295 1.398 . S
C1296 C1297 1.391 . S
C1297 H1285 0.950 . S
C1297 C1293 1.393 . S
C1297 C1296 1.391 . S
C1298 H1288 0.950 . S
C1298 C1299 1.386 . S
C1298 C1300 1.391 . S
C1299 C1298 1.386 . S
C1299 C1303 1.393 . S
C1300 H1289 0.950 . S
C1300 C1298 1.391 . S
C1300 C1301 1.400 . S
C1301 C1295 1.491 1_554 S
C1301 C1300 1.400 . S
C1301 C1302 1.398 . S
C1302 H1290 0.950 . S
C1302 C1301 1.398 . S
C1302 C1303 1.391 . S
C1303 H1291 0.950 . S
C1303 C1299 1.393 . S
C1303 C1302 1.391 . S
H1304 C1312 0.950 . S
H1305 C1317 0.950 . S
H1306 C1314 0.950 . S
H1307 C1316 0.950 . S
H1308 C1318 0.950 . S
H1309 C1320 0.950 . S
H1310 C1322 0.950 . S
H1311 C1323 0.950 . S
C1312 H1304 0.950 . S
C1312 C1313 1.386 . S
C1312 C1314 1.391 . S
C1313 C1312 1.386 . S
C1313 C1317 1.393 . S
C1314 H1306 0.950 . S
C1314 C1312 1.391 . S
C1314 C1315 1.400 . S
C1315 C1314 1.400 . S
C1315 C1316 1.398 . S
C1315 C1321 1.491 1_554 S
C1316 H1307 0.950 . S
C1316 C1315 1.398 . S
C1316 C1317 1.391 . S
C1317 H1305 0.950 . S
C1317 C1313 1.393 . S
C1317 C1316 1.391 . S
C1318 H1308 0.950 . S
C1318 C1319 1.386 . S
C1318 C1320 1.391 . S
C1319 C1318 1.386 . S
C1319 C1323 1.393 . S
C1320 H1309 0.950 . S
C1320 C1318 1.391 . S
C1320 C1321 1.400 . S
C1321 C1315 1.491 1_556 S
C1321 C1320 1.400 . S
C1321 C1322 1.398 . S
C1322 H1310 0.950 . S
C1322 C1321 1.398 . S
C1322 C1323 1.391 . S
C1323 H1311 0.950 . S
C1323 C1319 1.393 . S
C1323 C1322 1.391 . S
H1324 C1332 0.950 . S
H1325 C1337 0.950 . S
H1326 C1334 0.950 . S
H1327 C1336 0.950 . S
H1328 C1338 0.950 . S
H1329 C1340 0.950 . S
H1330 C1342 0.950 . S
H1331 C1343 0.950 . S
C1332 H1324 0.950 . S
C1332 C1333 1.386 . S
C1332 C1334 1.391 . S
C1333 C1332 1.386 . S
C1333 C1337 1.393 . S
C1334 H1326 0.950 . S
C1334 C1332 1.391 . S
C1334 C1335 1.400 . S
C1335 C1334 1.400 . S
C1335 C1336 1.398 . S
C1335 C1341 1.491 1_556 S
C1336 H1327 0.950 . S
C1336 C1335 1.398 . S
C1336 C1337 1.391 . S
C1337 H1325 0.950 . S
C1337 C1333 1.393 . S
C1337 C1336 1.391 . S
C1338 H1328 0.950 . S
C1338 C1339 1.386 . S
C1338 C1340 1.391 . S
C1339 C1338 1.386 . S
C1339 C1343 1.393 . S
C1340 H1329 0.950 . S
C1340 C1338 1.391 . S
C1340 C1341 1.400 . S
C1341 C1335 1.491 1_554 S
C1341 C1340 1.400 . S
C1341 C1342 1.398 . S
C1342 H1330 0.950 . S
C1342 C1341 1.398 . S
C1342 C1343 1.391 . S
C1343 H1331 0.950 . S
C1343 C1339 1.393 . S
C1343 C1342 1.391 . S
H1344 C1352 0.950 . S
H1345 C1357 0.950 . S
H1346 C1354 0.950 . S
H1347 C1356 0.950 . S
H1348 C1358 0.950 . S
H1349 C1360 0.950 . S
H1350 C1362 0.950 . S
H1351 C1363 0.950 . S
C1352 H1344 0.950 . S
C1352 C1353 1.386 . S
C1352 C1354 1.391 . S
C1353 C1352 1.386 . S
C1353 C1357 1.393 . S
C1354 H1346 0.950 . S
C1354 C1352 1.391 . S
C1354 C1355 1.400 . S
C1355 C1354 1.400 . S
C1355 C1356 1.398 . S
C1355 C1361 1.491 . S
C1356 H1347 0.950 . S
C1356 C1355 1.398 . S
C1356 C1357 1.391 . S
C1357 H1345 0.950 . S
C1357 C1353 1.393 . S
C1357 C1356 1.391 . S
C1358 H1348 0.950 . S
C1358 C1359 1.386 . S
C1358 C1360 1.391 . S
C1359 C1358 1.386 . S
C1359 C1363 1.393 . S
C1360 H1349 0.950 . S
C1360 C1358 1.391 . S
C1360 C1361 1.400 . S
C1361 C1355 1.491 . S
C1361 C1360 1.400 . S
C1361 C1362 1.398 . S
C1362 H1350 0.950 . S
C1362 C1361 1.398 . S
C1362 C1363 1.391 . S
C1363 H1351 0.950 . S
C1363 C1359 1.393 . S
C1363 C1362 1.391 . S
H1364 C1372 0.950 . S
H1365 C1377 0.950 . S
H1366 C1374 0.950 . S
H1367 C1376 0.950 . S
H1368 C1378 0.950 . S
H1369 C1380 0.950 . S
H1370 C1382 0.950 . S
H1371 C1383 0.950 . S
C1372 H1364 0.950 . S
C1372 C1373 1.386 . S
C1372 C1374 1.391 . S
C1373 C1372 1.386 . S
C1373 C1377 1.393 . S
C1374 H1366 0.950 . S
C1374 C1372 1.391 . S
C1374 C1375 1.400 . S
C1375 C1374 1.400 . S
C1375 C1376 1.398 . S
C1375 C1381 1.491 . S
C1376 H1367 0.950 . S
C1376 C1375 1.398 . S
C1376 C1377 1.391 . S
C1377 H1365 0.950 . S
C1377 C1373 1.393 . S
C1377 C1376 1.391 . S
C1378 H1368 0.950 . S
C1378 C1379 1.386 . S
C1378 C1380 1.391 . S
C1379 C1378 1.386 . S
C1379 C1383 1.393 . S
C1380 H1369 0.950 . S
C1380 C1378 1.391 . S
C1380 C1381 1.400 . S
C1381 C1375 1.491 . S
C1381 C1380 1.400 . S
C1381 C1382 1.398 . S
C1382 H1370 0.950 . S
C1382 C1381 1.398 . S
C1382 C1383 1.391 . S
C1383 H1371 0.950 . S
C1383 C1379 1.393 . S
C1383 C1382 1.391 . S
H1384 C1392 0.950 . S
H1385 C1397 0.950 . S
H1386 C1394 0.950 . S
H1387 C1396 0.950 . S
H1388 C1398 0.950 . S
H1389 C1400 0.950 . S
H1390 C1402 0.950 . S
H1391 C1403 0.950 . S
C1392 H1384 0.950 . S
C1392 C1393 1.386 . S
C1392 C1394 1.391 . S
C1393 C1392 1.386 . S
C1393 C1397 1.393 1_655 S
C1394 H1386 0.950 . S
C1394 C1392 1.391 . S
C1394 C1395 1.400 . S
C1395 C1394 1.400 . S
C1395 C1396 1.398 1_655 S
C1395 C1401 1.491 . S
C1396 H1387 0.950 . S
C1396 C1395 1.398 1_455 S
C1396 C1397 1.391 . S
C1397 H1385 0.950 . S
C1397 C1393 1.393 1_455 S
C1397 C1396 1.391 . S
C1398 H1388 0.950 . S
C1398 C1399 1.386 1_455 S
C1398 C1400 1.391 . S
C1399 C1398 1.386 1_655 S
C1399 C1403 1.393 . S
C1400 H1389 0.950 . S
C1400 C1398 1.391 . S
C1400 C1401 1.400 1_455 S
C1401 C1395 1.491 . S
C1401 C1400 1.400 1_655 S
C1401 C1402 1.398 . S
C1402 H1390 0.950 . S
C1402 C1401 1.398 . S
C1402 C1403 1.391 . S
C1403 H1391 0.950 . S
C1403 C1399 1.393 . S
C1403 C1402 1.391 . S
H1404 C1412 0.950 . S
H1405 C1417 0.950 . S
H1406 C1414 0.950 . S
H1407 C1416 0.950 . S
H1408 C1418 0.950 . S
H1409 C1420 0.950 . S
H1410 C1422 0.950 . S
H1411 C1423 0.950 . S
C1412 H1404 0.950 . S
C1412 C1413 1.386 . S
C1412 C1414 1.391 . S
C1413 C1412 1.386 . S
C1413 C1417 1.393 . S
C1414 H1406 0.950 . S
C1414 C1412 1.391 . S
C1414 C1415 1.400 . S
C1415 C1414 1.400 . S
C1415 C1416 1.398 . S
C1415 C1421 1.491 . S
C1416 H1407 0.950 . S
C1416 C1415 1.398 . S
C1416 C1417 1.391 . S
C1417 H1405 0.950 . S
C1417 C1413 1.393 . S
C1417 C1416 1.391 . S
C1418 H1408 0.950 . S
C1418 C1419 1.386 . S
C1418 C1420 1.391 . S
C1419 C1418 1.386 . S
C1419 C1423 1.393 . S
C1420 H1409 0.950 . S
C1420 C1418 1.391 . S
C1420 C1421 1.400 . S
C1421 C1415 1.491 . S
C1421 C1420 1.400 . S
C1421 C1422 1.398 . S
C1422 H1410 0.950 . S
C1422 C1421 1.398 . S
C1422 C1423 1.391 . S
C1423 H1411 0.950 . S
C1423 C1419 1.393 . S
C1423 C1422 1.391 . S
H1424 C1432 0.950 . S
H1425 C1437 0.976 . S
H1426 C1434 0.950 . S
H1427 C1436 0.950 . S
H1428 C1438 0.963 . S
H1429 C1440 0.958 . S
H1430 C1442 0.950 . S
H1431 C1443 0.950 . S
C1432 H1424 0.950 . S
C1432 C1433 1.386 . S
C1432 C1434 1.391 . S
C1433 C1432 1.386 . S
C1433 C1437 1.366 1_655 S
C1434 H1426 0.950 . S
C1434 C1432 1.391 . S
C1434 C1435 1.400 . S
C1435 C1434 1.400 . S
C1435 C1436 1.398 1_655 S
C1435 C1441 1.491 . S
C1436 H1427 0.950 . S
C1436 C1435 1.398 1_455 S
C1436 C1437 1.393 . S
C1437 H1425 0.976 . S
C1437 C1433 1.366 1_455 S
C1437 C1436 1.393 . S
C1438 H1428 0.963 . S
C1438 C1439 1.373 1_455 S
C1438 C1440 1.391 . S
C1439 C1438 1.373 1_655 S
C1439 C1443 1.393 . S
C1440 H1429 0.958 . S
C1440 C1438 1.391 . S
C1440 C1441 1.392 1_455 S
C1441 C1435 1.491 . S
C1441 C1440 1.392 1_655 S
C1441 C1442 1.398 . S
C1442 H1430 0.950 . S
C1442 C1441 1.398 . S
C1442 C1443 1.391 . S
C1443 H1431 0.950 . S
C1443 C1439 1.393 . S
C1443 C1442 1.391 . S
H1444 C1452 0.950 . S
H1445 C1457 0.950 . S
H1446 C1454 0.950 . S
H1447 C1456 0.950 . S
H1448 C1458 0.950 . S
H1449 C1460 0.950 . S
H1450 C1462 0.950 . S
H1451 C1463 0.950 . S
C1452 H1444 0.950 . S
C1452 C1453 1.386 . S
C1452 C1454 1.391 . S
C1453 C1452 1.386 . S
C1453 C1457 1.393 . S
C1454 H1446 0.950 . S
C1454 C1452 1.391 . S
C1454 C1455 1.400 . S
C1455 C1454 1.400 . S
C1455 C1456 1.398 . S
C1455 C1461 1.491 . S
C1456 H1447 0.950 . S
C1456 C1455 1.398 . S
C1456 C1457 1.391 . S
C1457 H1445 0.950 . S
C1457 C1453 1.393 . S
C1457 C1456 1.391 . S
C1458 H1448 0.950 . S
C1458 C1459 1.386 . S
C1458 C1460 1.391 . S
C1459 C1458 1.386 . S
C1459 C1463 1.393 . S
C1460 H1449 0.950 . S
C1460 C1458 1.391 . S
C1460 C1461 1.400 . S
C1461 C1455 1.491 . S
C1461 C1460 1.400 . S
C1461 C1462 1.398 . S
C1462 H1450 0.950 . S
C1462 C1461 1.398 . S
C1462 C1463 1.391 . S
C1463 H1451 0.950 . S
C1463 C1459 1.393 . S
C1463 C1462 1.391 . S
H1464 C1472 0.950 . S
H1465 C1477 0.950 . S
H1466 C1474 0.950 . S
H1467 C1476 0.950 . S
H1468 C1478 0.950 . S
H1469 C1480 0.950 . S
H1470 C1482 0.950 . S
H1471 C1483 0.950 . S
C1472 H1464 0.950 . S
C1472 C1473 1.386 1_545 S
C1472 C1474 1.391 . S
C1473 C1472 1.386 1_565 S
C1473 C1477 1.393 . S
C1474 H1466 0.950 . S
C1474 C1472 1.391 . S
C1474 C1475 1.400 1_545 S
C1475 C1474 1.400 1_565 S
C1475 C1476 1.398 . S
C1475 C1481 1.491 . S
C1476 H1467 0.950 . S
C1476 C1475 1.398 . S
C1476 C1477 1.391 . S
C1477 H1465 0.950 . S
C1477 C1473 1.393 . S
C1477 C1476 1.391 . S
C1478 H1468 0.950 . S
C1478 C1479 1.386 . S
C1478 C1480 1.391 . S
C1479 C1478 1.386 . S
C1479 C1483 1.393 1_565 S
C1480 H1469 0.950 . S
C1480 C1478 1.391 . S
C1480 C1481 1.400 . S
C1481 C1475 1.491 . S
C1481 C1480 1.400 . S
C1481 C1482 1.398 1_565 S
C1482 H1470 0.950 . S
C1482 C1481 1.398 1_545 S
C1482 C1483 1.391 . S
C1483 H1471 0.950 . S
C1483 C1479 1.393 1_545 S
C1483 C1482 1.391 . S
H1484 C1492 0.950 . S
H1485 C1497 0.950 . S
H1486 C1494 0.950 . S
H1487 C1496 0.950 . S
H1488 C1498 0.950 . S
H1489 C1500 0.950 . S
H1490 C1502 0.950 . S
H1491 C1503 0.950 . S
C1492 H1484 0.950 . S
C1492 C1493 1.386 . S
C1492 C1494 1.391 . S
C1493 C1492 1.386 . S
C1493 C1497 1.393 . S
C1494 H1486 0.950 . S
C1494 C1492 1.391 . S
C1494 C1495 1.400 . S
C1495 C1494 1.400 . S
C1495 C1496 1.398 . S
C1495 C1501 1.491 . S
C1496 H1487 0.950 . S
C1496 C1495 1.398 . S
C1496 C1497 1.391 . S
C1497 H1485 0.950 . S
C1497 C1493 1.393 . S
C1497 C1496 1.391 . S
C1498 H1488 0.950 . S
C1498 C1499 1.386 . S
C1498 C1500 1.391 . S
C1499 C1498 1.386 . S
C1499 C1503 1.393 . S
C1500 H1489 0.950 . S
C1500 C1498 1.391 . S
C1500 C1501 1.400 . S
C1501 C1495 1.491 . S
C1501 C1500 1.400 . S
C1501 C1502 1.398 . S
C1502 H1490 0.950 . S
C1502 C1501 1.398 . S
C1502 C1503 1.391 . S
C1503 H1491 0.950 . S
C1503 C1499 1.393 . S
C1503 C1502 1.391 . S
H1504 C1512 0.950 . S
H1505 C1517 0.950 . S
H1506 C1514 0.950 . S
H1507 C1516 0.950 . S
H1508 C1518 0.950 . S
H1509 C1520 0.950 . S
H1510 C1522 0.950 . S
H1511 C1523 0.950 . S
C1512 H1504 0.950 . S
C1512 C1513 1.386 . S
C1512 C1514 1.391 . S
C1513 C1512 1.386 . S
C1513 C1517 1.393 . S
C1514 H1506 0.950 . S
C1514 C1512 1.391 . S
C1514 C1515 1.400 . S
C1515 C1514 1.400 . S
C1515 C1516 1.398 . S
C1515 C1521 1.491 . S
C1516 H1507 0.950 . S
C1516 C1515 1.398 . S
C1516 C1517 1.391 . S
C1517 H1505 0.950 . S
C1517 C1513 1.393 . S
C1517 C1516 1.391 . S
C1518 H1508 0.950 . S
C1518 C1519 1.386 . S
C1518 C1520 1.391 . S
C1519 C1518 1.386 . S
C1519 C1523 1.393 . S
C1520 H1509 0.950 . S
C1520 C1518 1.391 . S
C1520 C1521 1.400 . S
C1521 C1515 1.491 . S
C1521 C1520 1.400 . S
C1521 C1522 1.398 . S
C1522 H1510 0.950 . S
C1522 C1521 1.398 . S
C1522 C1523 1.391 . S
C1523 H1511 0.950 . S
C1523 C1519 1.393 . S
C1523 C1522 1.391 . S
H1524 C1532 0.950 . S
H1525 C1537 0.950 . S
H1526 C1534 0.950 . S
H1527 C1536 0.950 . S
H1528 C1538 0.950 . S
H1529 C1540 0.950 . S
H1530 C1542 0.950 . S
H1531 C1543 0.950 . S
C1532 H1524 0.950 . S
C1532 C1533 1.386 . S
C1532 C1534 1.391 . S
C1533 C1532 1.386 . S
C1533 C1537 1.393 . S
C1534 H1526 0.950 . S
C1534 C1532 1.391 . S
C1534 C1535 1.400 . S
C1535 C1534 1.400 . S
C1535 C1536 1.398 . S
C1535 C1541 1.491 . S
C1536 H1527 0.950 . S
C1536 C1535 1.398 . S
C1536 C1537 1.391 . S
C1537 H1525 0.950 . S
C1537 C1533 1.393 . S
C1537 C1536 1.391 . S
C1538 H1528 0.950 . S
C1538 C1539 1.386 . S
C1538 C1540 1.391 . S
C1539 C1538 1.386 . S
C1539 C1543 1.393 . S
C1540 H1529 0.950 . S
C1540 C1538 1.391 . S
C1540 C1541 1.400 . S
C1541 C1535 1.491 . S
C1541 C1540 1.400 . S
C1541 C1542 1.398 . S
C1542 H1530 0.950 . S
C1542 C1541 1.398 . S
C1542 C1543 1.391 . S
C1543 H1531 0.950 . S
C1543 C1539 1.393 . S
C1543 C1542 1.391 . S
H1544 C1552 0.950 . S
H1545 C1557 0.950 . S
H1546 C1554 0.950 . S
H1547 C1556 0.950 . S
H1548 C1558 0.950 . S
H1549 C1560 0.950 . S
H1550 C1562 0.950 . S
H1551 C1563 0.950 . S
C1552 H1544 0.950 . S
C1552 C1553 1.386 1_545 S
C1552 C1554 1.391 . S
C1553 C1552 1.386 1_565 S
C1553 C1557 1.393 . S
C1554 H1546 0.950 . S
C1554 C1552 1.391 . S
C1554 C1555 1.400 1_545 S
C1555 C1554 1.400 1_565 S
C1555 C1556 1.398 . S
C1555 C1561 1.491 . S
C1556 H1547 0.950 . S
C1556 C1555 1.398 . S
C1556 C1557 1.391 . S
C1557 H1545 0.950 . S
C1557 C1553 1.393 . S
C1557 C1556 1.391 . S
C1558 H1548 0.950 . S
C1558 C1559 1.386 . S
C1558 C1560 1.391 . S
C1559 C1558 1.386 . S
C1559 C1563 1.393 1_565 S
C1560 H1549 0.950 . S
C1560 C1558 1.391 . S
C1560 C1561 1.400 . S
C1561 C1555 1.491 . S
C1561 C1560 1.400 . S
C1561 C1562 1.398 1_565 S
C1562 H1550 0.950 . S
C1562 C1561 1.398 1_545 S
C1562 C1563 1.391 . S
C1563 H1551 0.950 . S
C1563 C1559 1.393 1_545 S
C1563 C1562 1.391 . S
H1564 C1572 0.950 . S
H1565 C1577 0.950 . S
H1566 C1574 0.950 . S
H1567 C1576 0.950 . S
H1568 C1578 0.950 . S
H1569 C1580 0.950 . S
H1570 C1582 0.950 . S
H1571 C1583 0.950 . S
C1572 H1564 0.950 . S
C1572 C1573 1.386 . S
C1572 C1574 1.391 . S
C1573 C1572 1.386 . S
C1573 C1577 1.393 . S
C1574 H1566 0.950 . S
C1574 C1572 1.391 . S
C1574 C1575 1.400 . S
C1575 C1574 1.400 . S
C1575 C1576 1.398 . S
C1575 C1581 1.491 . S
C1576 H1567 0.950 . S
C1576 C1575 1.398 . S
C1576 C1577 1.391 . S
C1577 H1565 0.950 . S
C1577 C1573 1.393 . S
C1577 C1576 1.391 . S
C1578 H1568 0.950 . S
C1578 C1579 1.386 . S
C1578 C1580 1.391 . S
C1579 C1578 1.386 . S
C1579 C1583 1.393 . S
C1580 H1569 0.950 . S
C1580 C1578 1.391 . S
C1580 C1581 1.400 . S
C1581 C1575 1.491 . S
C1581 C1580 1.400 . S
C1581 C1582 1.398 . S
C1582 H1570 0.950 . S
C1582 C1581 1.398 . S
C1582 C1583 1.391 . S
C1583 H1571 0.950 . S
C1583 C1579 1.393 . S
C1583 C1582 1.391 . S
H1584 C1592 0.950 . S
H1585 C1597 0.950 . S
H1586 C1594 0.950 . S
H1587 C1596 0.950 . S
H1588 C1598 0.950 . S
H1589 C1600 0.950 . S
H1590 C1602 0.950 . S
H1591 C1603 0.950 . S
C1592 H1584 0.950 . S
C1592 C1593 1.386 . S
C1592 C1594 1.391 . S
C1593 C1592 1.386 . S
C1593 C1597 1.393 . S
C1594 H1586 0.950 . S
C1594 C1592 1.391 . S
C1594 C1595 1.400 . S
C1595 C1594 1.400 . S
C1595 C1596 1.398 . S
C1595 C1601 1.491 . S
C1596 H1587 0.950 . S
C1596 C1595 1.398 . S
C1596 C1597 1.391 . S
C1597 H1585 0.950 . S
C1597 C1593 1.393 . S
C1597 C1596 1.391 . S
C1598 H1588 0.950 . S
C1598 C1599 1.386 . S
C1598 C1600 1.391 . S
C1599 C1598 1.386 . S
C1599 C1603 1.393 . S
C1600 H1589 0.950 . S
C1600 C1598 1.391 . S
C1600 C1601 1.400 . S
C1601 C1595 1.491 . S
C1601 C1600 1.400 . S
C1601 C1602 1.398 . S
C1602 H1590 0.950 . S
C1602 C1601 1.398 . S
C1602 C1603 1.391 . S
C1603 H1591 0.950 . S
C1603 C1599 1.393 . S
C1603 C1602 1.391 . S
H1604 C1612 0.950 . S
H1605 C1617 0.950 . S
H1606 C1614 0.950 . S
H1607 C1616 0.950 . S
H1608 C1618 0.950 . S
H1609 C1620 0.950 . S
H1610 C1622 0.950 . S
H1611 C1623 0.950 . S
C1612 H1604 0.950 . S
C1612 C1613 1.386 . S
C1612 C1614 1.391 . S
C1613 C1612 1.386 . S
C1613 C1617 1.393 . S
C1614 H1606 0.950 . S
C1614 C1612 1.391 . S
C1614 C1615 1.400 . S
C1615 C1614 1.400 . S
C1615 C1616 1.398 . S
C1615 C1621 1.491 . S
C1616 H1607 0.950 . S
C1616 C1615 1.398 . S
C1616 C1617 1.391 . S
C1617 H1605 0.950 . S
C1617 C1613 1.393 . S
C1617 C1616 1.391 . S
C1618 H1608 0.950 . S
C1618 C1619 1.386 . S
C1618 C1620 1.391 . S
C1619 C1618 1.386 . S
C1619 C1623 1.393 . S
C1620 H1609 0.950 . S
C1620 C1618 1.391 . S
C1620 C1621 1.400 . S
C1621 C1615 1.491 . S
C1621 C1620 1.400 . S
C1621 C1622 1.398 . S
C1622 H1610 0.950 . S
C1622 C1621 1.398 . S
C1622 C1623 1.391 . S
C1623 H1611 0.950 . S
C1623 C1619 1.393 . S
C1623 C1622 1.391 . S
H1624 C1632 0.950 . S
H1625 C1637 0.950 . S
H1626 C1634 0.950 . S
H1627 C1636 0.950 . S
H1628 C1638 0.950 . S
H1629 C1640 0.950 . S
H1630 C1642 0.950 . S
H1631 C1643 0.950 . S
C1632 H1624 0.950 . S
C1632 C1633 1.386 . S
C1632 C1634 1.391 . S
C1633 C1632 1.386 . S
C1633 C1637 1.393 . S
C1634 H1626 0.950 . S
C1634 C1632 1.391 . S
C1634 C1635 1.400 . S
C1635 C1634 1.400 . S
C1635 C1636 1.398 . S
C1635 C1641 1.491 . S
C1636 H1627 0.950 . S
C1636 C1635 1.398 . S
C1636 C1637 1.391 . S
C1637 H1625 0.950 . S
C1637 C1633 1.393 . S
C1637 C1636 1.391 . S
C1638 H1628 0.950 . S
C1638 C1639 1.386 . S
C1638 C1640 1.391 . S
C1639 C1638 1.386 . S
C1639 C1643 1.393 . S
C1640 H1629 0.950 . S
C1640 C1638 1.391 . S
C1640 C1641 1.400 . S
C1641 C1635 1.491 . S
C1641 C1640 1.400 . S
C1641 C1642 1.398 . S
C1642 H1630 0.950 . S
C1642 C1641 1.398 . S
C1642 C1643 1.391 . S
C1643 H1631 0.950 . S
C1643 C1639 1.393 . S
C1643 C1642 1.391 . S
H1644 C1652 0.950 . S
H1645 C1657 0.950 . S
H1646 C1654 0.950 . S
H1647 C1656 0.950 . S
H1648 C1658 0.950 . S
H1649 C1660 0.950 . S
H1650 C1662 0.950 . S
H1651 C1663 0.950 . S
C1652 H1644 0.950 . S
C1652 C1653 1.386 . S
C1652 C1654 1.391 . S
C1653 C1652 1.386 . S
C1653 C1657 1.393 . S
C1654 H1646 0.950 . S
C1654 C1652 1.391 . S
C1654 C1655 1.400 . S
C1655 C1654 1.400 . S
C1655 C1656 1.398 . S
C1655 C1661 1.491 . S
C1656 H1647 0.950 . S
C1656 C1655 1.398 . S
C1656 C1657 1.391 . S
C1657 H1645 0.950 . S
C1657 C1653 1.393 . S
C1657 C1656 1.391 . S
C1658 H1648 0.950 . S
C1658 C1659 1.386 . S
C1658 C1660 1.391 . S
C1659 C1658 1.386 . S
C1659 C1663 1.393 . S
C1660 H1649 0.950 . S
C1660 C1658 1.391 . S
C1660 C1661 1.400 . S
C1661 C1655 1.491 . S
C1661 C1660 1.400 . S
C1661 C1662 1.398 . S
C1662 H1650 0.950 . S
C1662 C1661 1.398 . S
C1662 C1663 1.391 . S
C1663 H1651 0.950 . S
C1663 C1659 1.393 . S
C1663 C1662 1.391 . S
H1664 C1672 0.950 . S
H1665 C1677 0.950 . S
H1666 C1674 0.950 . S
H1667 C1676 0.950 . S
H1668 C1678 0.950 . S
H1669 C1680 0.950 . S
H1670 C1682 0.950 . S
H1671 C1683 0.950 . S
C1672 H1664 0.950 . S
C1672 C1673 1.386 . S
C1672 C1674 1.391 . S
C1673 C1672 1.386 . S
C1673 C1677 1.393 . S
C1674 H1666 0.950 . S
C1674 C1672 1.391 . S
C1674 C1675 1.400 . S
C1675 C1674 1.400 . S
C1675 C1676 1.398 . S
C1675 C1681 1.491 . S
C1676 H1667 0.950 . S
C1676 C1675 1.398 . S
C1676 C1677 1.391 . S
C1677 H1665 0.950 . S
C1677 C1673 1.393 . S
C1677 C1676 1.391 . S
C1678 H1668 0.950 . S
C1678 C1679 1.386 . S
C1678 C1680 1.391 . S
C1679 C1678 1.386 . S
C1679 C1683 1.393 . S
C1680 H1669 0.950 . S
C1680 C1678 1.391 . S
C1680 C1681 1.400 . S
C1681 C1675 1.491 . S
C1681 C1680 1.400 . S
C1681 C1682 1.398 . S
C1682 H1670 0.950 . S
C1682 C1681 1.398 . S
C1682 C1683 1.391 . S
C1683 H1671 0.950 . S
C1683 C1679 1.393 . S
C1683 C1682 1.391 . S
H1684 C1692 0.950 . S
H1685 C1697 0.950 . S
H1686 C1694 0.950 . S
H1687 C1696 0.950 . S
H1688 C1698 0.950 . S
H1689 C1700 0.950 . S
H1690 C1702 0.950 . S
H1691 C1703 0.950 . S
C1692 H1684 0.950 . S
C1692 C1693 1.386 . S
C1692 C1694 1.391 . S
C1693 C1692 1.386 . S
C1693 C1697 1.393 . S
C1694 H1686 0.950 . S
C1694 C1692 1.391 . S
C1694 C1695 1.400 . S
C1695 C1694 1.400 . S
C1695 C1696 1.398 . S
C1695 C1701 1.491 . S
C1696 H1687 0.950 . S
C1696 C1695 1.398 . S
C1696 C1697 1.391 . S
C1697 H1685 0.950 . S
C1697 C1693 1.393 . S
C1697 C1696 1.391 . S
C1698 H1688 0.950 . S
C1698 C1699 1.386 . S
C1698 C1700 1.391 . S
C1699 C1698 1.386 . S
C1699 C1703 1.393 . S
C1700 H1689 0.950 . S
C1700 C1698 1.391 . S
C1700 C1701 1.400 . S
C1701 C1695 1.491 . S
C1701 C1700 1.400 . S
C1701 C1702 1.398 . S
C1702 H1690 0.950 . S
C1702 C1701 1.398 . S
C1702 C1703 1.391 . S
C1703 H1691 0.950 . S
C1703 C1699 1.393 . S
C1703 C1702 1.391 . S
H1704 C1712 0.950 . S
H1705 C1717 0.950 . S
H1706 C1714 0.950 . S
H1707 C1716 0.950 . S
H1708 C1718 0.950 . S
H1709 C1720 0.950 . S
H1710 C1722 0.950 . S
H1711 C1723 0.950 . S
C1712 H1704 0.950 . S
C1712 C1713 1.386 . S
C1712 C1714 1.391 . S
C1713 C1712 1.386 . S
C1713 C1717 1.393 . S
C1714 H1706 0.950 . S
C1714 C1712 1.391 . S
C1714 C1715 1.400 . S
C1715 C1714 1.400 . S
C1715 C1716 1.398 . S
C1715 C1721 1.491 . S
C1716 H1707 0.950 . S
C1716 C1715 1.398 . S
C1716 C1717 1.391 . S
C1717 H1705 0.950 . S
C1717 C1713 1.393 . S
C1717 C1716 1.391 . S
C1718 H1708 0.950 . S
C1718 C1719 1.386 . S
C1718 C1720 1.391 . S
C1719 C1718 1.386 . S
C1719 C1723 1.393 . S
C1720 H1709 0.950 . S
C1720 C1718 1.391 . S
C1720 C1721 1.400 . S
C1721 C1715 1.491 . S
C1721 C1720 1.400 . S
C1721 C1722 1.398 . S
C1722 H1710 0.950 . S
C1722 C1721 1.398 . S
C1722 C1723 1.391 . S
C1723 H1711 0.950 . S
C1723 C1719 1.393 . S
C1723 C1722 1.391 . S
H1724 C1732 0.950 . S
H1725 C1737 0.950 . S
H1726 C1734 0.950 . S
H1727 C1736 0.950 . S
H1728 C1738 0.950 . S
H1729 C1740 0.950 . S
H1730 C1742 0.950 . S
H1731 C1743 0.950 . S
C1732 H1724 0.950 . S
C1732 C1733 1.386 . S
C1732 C1734 1.391 . S
C1733 C1732 1.386 . S
C1733 C1737 1.393 . S
C1734 H1726 0.950 . S
C1734 C1732 1.391 . S
C1734 C1735 1.400 . S
C1735 C1734 1.400 . S
C1735 C1736 1.398 . S
C1735 C1741 1.491 . S
C1736 H1727 0.950 . S
C1736 C1735 1.398 . S
C1736 C1737 1.391 . S
C1737 H1725 0.950 . S
C1737 C1733 1.393 . S
C1737 C1736 1.391 . S
C1738 H1728 0.950 . S
C1738 C1739 1.386 . S
C1738 C1740 1.391 . S
C1739 C1738 1.386 . S
C1739 C1743 1.393 . S
C1740 H1729 0.950 . S
C1740 C1738 1.391 . S
C1740 C1741 1.400 . S
C1741 C1735 1.491 . S
C1741 C1740 1.400 . S
C1741 C1742 1.398 . S
C1742 H1730 0.950 . S
C1742 C1741 1.398 . S
C1742 C1743 1.391 . S
C1743 H1731 0.950 . S
C1743 C1739 1.393 . S
C1743 C1742 1.391 . S
H1744 C1752 0.981 . S
H1745 C1757 0.950 . S
H1746 C1754 0.970 . S
H1747 C1756 0.950 . S
H1748 C1758 0.950 . S
H1749 C1760 0.950 . S
H1750 C1762 0.950 . S
H1751 C1763 0.950 . S
C1752 H1744 0.981 . S
C1752 C1753 1.372 1_455 S
C1752 C1754 1.397 . S
C1753 C1752 1.372 1_655 S
C1753 C1757 1.393 . S
C1754 H1746 0.970 . S
C1754 C1752 1.397 . S
C1754 C1755 1.358 1_455 S
C1755 C1754 1.358 1_655 S
C1755 C1756 1.398 . S
C1755 C1761 1.491 . S
C1756 H1747 0.950 . S
C1756 C1755 1.398 . S
C1756 C1757 1.391 . S
C1757 H1745 0.950 . S
C1757 C1753 1.393 . S
C1757 C1756 1.391 . S
C1758 H1748 0.950 . S
C1758 C1759 1.386 . S
C1758 C1760 1.391 . S
C1759 C1758 1.386 . S
C1759 C1763 1.393 1_655 S
C1760 H1749 0.950 . S
C1760 C1758 1.391 . S
C1760 C1761 1.400 . S
C1761 C1755 1.491 . S
C1761 C1760 1.400 . S
C1761 C1762 1.398 1_655 S
C1762 H1750 0.950 . S
C1762 C1761 1.398 1_455 S
C1762 C1763 1.391 . S
C1763 H1751 0.950 . S
C1763 C1759 1.393 1_455 S
C1763 C1762 1.391 . S
H1764 C1772 0.950 . S
H1765 C1777 0.950 . S
H1766 C1774 0.950 . S
H1767 C1776 0.950 . S
H1768 C1778 0.950 . S
H1769 C1780 0.950 . S
H1770 C1782 0.950 . S
H1771 C1783 0.950 . S
C1772 H1764 0.950 . S
C1772 C1773 1.386 . S
C1772 C1774 1.391 . S
C1773 C1772 1.386 . S
C1773 C1777 1.393 . S
C1774 H1766 0.950 . S
C1774 C1772 1.391 . S
C1774 C1775 1.400 . S
C1775 C1774 1.400 . S
C1775 C1776 1.398 . S
C1775 C1781 1.491 . S
C1776 H1767 0.950 . S
C1776 C1775 1.398 . S
C1776 C1777 1.391 . S
C1777 H1765 0.950 . S
C1777 C1773 1.393 . S
C1777 C1776 1.391 . S
C1778 H1768 0.950 . S
C1778 C1779 1.386 . S
C1778 C1780 1.391 . S
C1779 C1778 1.386 . S
C1779 C1783 1.393 . S
C1780 H1769 0.950 . S
C1780 C1778 1.391 . S
C1780 C1781 1.400 . S
C1781 C1775 1.491 . S
C1781 C1780 1.400 . S
C1781 C1782 1.398 . S
C1782 H1770 0.950 . S
C1782 C1781 1.398 . S
C1782 C1783 1.391 . S
C1783 H1771 0.950 . S
C1783 C1779 1.393 . S
C1783 C1782 1.391 . S
H1784 C1792 0.950 . S
H1785 C1797 0.950 . S
H1786 C1794 0.950 . S
H1787 C1796 0.950 . S
H1788 C1798 0.950 . S
H1789 C1800 0.950 . S
H1790 C1802 0.950 . S
H1791 C1803 0.950 . S
C1792 H1784 0.950 . S
C1792 C1793 1.386 . S
C1792 C1794 1.391 . S
C1793 C1792 1.386 . S
C1793 C1797 1.393 . S
C1794 H1786 0.950 . S
C1794 C1792 1.391 . S
C1794 C1795 1.400 . S
C1795 C1794 1.400 . S
C1795 C1796 1.398 . S
C1795 C1801 1.491 . S
C1796 H1787 0.950 . S
C1796 C1795 1.398 . S
C1796 C1797 1.391 . S
C1797 H1785 0.950 . S
C1797 C1793 1.393 . S
C1797 C1796 1.391 . S
C1798 H1788 0.950 . S
C1798 C1799 1.386 . S
C1798 C1800 1.391 . S
C1799 C1798 1.386 . S
C1799 C1803 1.393 . S
C1800 H1789 0.950 . S
C1800 C1798 1.391 . S
C1800 C1801 1.400 . S
C1801 C1795 1.491 . S
C1801 C1800 1.400 . S
C1801 C1802 1.398 . S
C1802 H1790 0.950 . S
C1802 C1801 1.398 . S
C1802 C1803 1.391 . S
C1803 H1791 0.950 . S
C1803 C1799 1.393 . S
C1803 C1802 1.391 . S
H1804 C1812 0.950 . S
H1805 C1817 0.950 . S
H1806 C1814 0.950 . S
H1807 C1816 0.950 . S
H1808 C1818 0.950 . S
H1809 C1820 0.950 . S
H1810 C1822 0.950 . S
H1811 C1823 0.950 . S
C1812 H1804 0.950 . S
C1812 C1813 1.386 . S
C1812 C1814 1.391 . S
C1813 C1812 1.386 . S
C1813 C1817 1.393 . S
C1814 H1806 0.950 . S
C1814 C1812 1.391 . S
C1814 C1815 1.400 . S
C1815 C1814 1.400 . S
C1815 C1816 1.398 . S
C1815 C1821 1.491 . S
C1816 H1807 0.950 . S
C1816 C1815 1.398 . S
C1816 C1817 1.391 . S
C1817 H1805 0.950 . S
C1817 C1813 1.393 . S
C1817 C1816 1.391 . S
C1818 H1808 0.950 . S
C1818 C1819 1.386 . S
C1818 C1820 1.391 . S
C1819 C1818 1.386 . S
C1819 C1823 1.393 . S
C1820 H1809 0.950 . S
C1820 C1818 1.391 . S
C1820 C1821 1.400 . S
C1821 C1815 1.491 . S
C1821 C1820 1.400 . S
C1821 C1822 1.398 . S
C1822 H1810 0.950 . S
C1822 C1821 1.398 . S
C1822 C1823 1.391 . S
C1823 H1811 0.950 . S
C1823 C1819 1.393 . S
C1823 C1822 1.391 . S
H1824 C1832 0.950 . S
H1825 C1837 0.950 . S
H1826 C1834 0.950 . S
H1827 C1836 0.950 . S
H1828 C1838 0.950 . S
H1829 C1840 0.950 . S
H1830 C1842 0.950 . S
H1831 C1843 0.950 . S
C1832 H1824 0.950 . S
C1832 C1833 1.386 . S
C1832 C1834 1.391 . S
C1833 C1832 1.386 . S
C1833 C1837 1.393 . S
C1834 H1826 0.950 . S
C1834 C1832 1.391 . S
C1834 C1835 1.400 . S
C1835 C1834 1.400 . S
C1835 C1836 1.398 . S
C1835 C1841 1.491 . S
C1836 H1827 0.950 . S
C1836 C1835 1.398 . S
C1836 C1837 1.391 . S
C1837 H1825 0.950 . S
C1837 C1833 1.393 . S
C1837 C1836 1.391 . S
C1838 H1828 0.950 . S
C1838 C1839 1.386 . S
C1838 C1840 1.391 . S
C1839 C1838 1.386 . S
C1839 C1843 1.393 . S
C1840 H1829 0.950 . S
C1840 C1838 1.391 . S
C1840 C1841 1.400 . S
C1841 C1835 1.491 . S
C1841 C1840 1.400 . S
C1841 C1842 1.398 . S
C1842 H1830 0.950 . S
C1842 C1841 1.398 . S
C1842 C1843 1.391 . S
C1843 H1831 0.950 . S
C1843 C1839 1.393 . S
C1843 C1842 1.391 . S
H1844 C1852 0.950 . S
H1845 C1857 0.950 . S
H1846 C1854 0.950 . S
H1847 C1856 0.950 . S
H1848 C1858 0.950 . S
H1849 C1860 0.950 . S
H1850 C1862 0.950 . S
H1851 C1863 0.950 . S
C1852 H1844 0.950 . S
C1852 C1853 1.386 . S
C1852 C1854 1.391 . S
C1853 C1852 1.386 . S
C1853 C1857 1.393 . S
C1854 H1846 0.950 . S
C1854 C1852 1.391 . S
C1854 C1855 1.400 . S
C1855 C1854 1.400 . S
C1855 C1856 1.398 . S
C1855 C1861 1.491 . S
C1856 H1847 0.950 . S
C1856 C1855 1.398 . S
C1856 C1857 1.391 . S
C1857 H1845 0.950 . S
C1857 C1853 1.393 . S
C1857 C1856 1.391 . S
C1858 H1848 0.950 . S
C1858 C1859 1.386 . S
C1858 C1860 1.391 . S
C1859 C1858 1.386 . S
C1859 C1863 1.393 . S
C1860 H1849 0.950 . S
C1860 C1858 1.391 . S
C1860 C1861 1.400 . S
C1861 C1855 1.491 . S
C1861 C1860 1.400 . S
C1861 C1862 1.398 . S
C1862 H1850 0.950 . S
C1862 C1861 1.398 . S
C1862 C1863 1.391 . S
C1863 H1851 0.950 . S
C1863 C1859 1.393 . S
C1863 C1862 1.391 . S
H1864 C1872 0.950 . S
H1865 C1877 0.950 . S
H1866 C1874 0.950 . S
H1867 C1876 0.950 . S
H1868 C1878 0.950 . S
H1869 C1880 0.950 . S
H1870 C1882 0.950 . S
H1871 C1883 0.950 . S
C1872 H1864 0.950 . S
C1872 C1873 1.386 . S
C1872 C1874 1.391 . S
C1873 C1872 1.386 . S
C1873 C1877 1.393 . S
C1874 H1866 0.950 . S
C1874 C1872 1.391 . S
C1874 C1875 1.400 . S
C1875 C1874 1.400 . S
C1875 C1876 1.398 . S
C1875 C1881 1.491 . S
C1876 H1867 0.950 . S
C1876 C1875 1.398 . S
C1876 C1877 1.391 . S
C1877 H1865 0.950 . S
C1877 C1873 1.393 . S
C1877 C1876 1.391 . S
C1878 H1868 0.950 . S
C1878 C1879 1.386 . S
C1878 C1880 1.391 . S
C1879 C1878 1.386 . S
C1879 C1883 1.393 . S
C1880 H1869 0.950 . S
C1880 C1878 1.391 . S
C1880 C1881 1.400 . S
C1881 C1875 1.491 . S
C1881 C1880 1.400 . S
C1881 C1882 1.398 . S
C1882 H1870 0.950 . S
C1882 C1881 1.398 . S
C1882 C1883 1.391 . S
C1883 H1871 0.950 . S
C1883 C1879 1.393 . S
C1883 C1882 1.391 . S
H1884 C1892 0.950 . S
H1885 C1897 0.950 . S
H1886 C1894 0.950 . S
H1887 C1896 0.950 . S
H1888 C1898 0.950 . S
H1889 C1900 0.950 . S
H1890 C1902 0.950 . S
H1891 C1903 0.950 . S
C1892 H1884 0.950 . S
C1892 C1893 1.386 . S
C1892 C1894 1.391 . S
C1893 C1892 1.386 . S
C1893 C1897 1.393 . S
C1894 H1886 0.950 . S
C1894 C1892 1.391 . S
C1894 C1895 1.400 . S
C1895 C1894 1.400 . S
C1895 C1896 1.398 . S
C1895 C1901 1.491 . S
C1896 H1887 0.950 . S
C1896 C1895 1.398 . S
C1896 C1897 1.391 . S
C1897 H1885 0.950 . S
C1897 C1893 1.393 . S
C1897 C1896 1.391 . S
C1898 H1888 0.950 . S
C1898 C1899 1.386 . S
C1898 C1900 1.391 . S
C1899 C1898 1.386 . S
C1899 C1903 1.393 . S
C1900 H1889 0.950 . S
C1900 C1898 1.391 . S
C1900 C1901 1.400 . S
C1901 C1895 1.491 . S
C1901 C1900 1.400 . S
C1901 C1902 1.398 . S
C1902 H1890 0.950 . S
C1902 C1901 1.398 . S
C1902 C1903 1.391 . S
C1903 H1891 0.950 . S
C1903 C1899 1.393 . S
C1903 C1902 1.391 . S
H1904 C1912 0.950 . S
H1905 C1917 0.950 . S
H1906 C1914 0.950 . S
H1907 C1916 0.950 . S
H1908 C1918 0.950 . S
H1909 C1920 0.950 . S
H1910 C1922 0.950 . S
H1911 C1923 0.950 . S
C1912 H1904 0.950 . S
C1912 C1913 1.386 . S
C1912 C1914 1.391 . S
C1913 C1912 1.386 . S
C1913 C1917 1.393 1_565 S
C1914 H1906 0.950 . S
C1914 C1912 1.391 . S
C1914 C1915 1.400 . S
C1915 C1914 1.400 . S
C1915 C1916 1.398 1_565 S
C1915 C1921 1.491 . S
C1916 H1907 0.950 . S
C1916 C1915 1.398 1_545 S
C1916 C1917 1.391 . S
C1917 H1905 0.950 . S
C1917 C1913 1.393 1_545 S
C1917 C1916 1.391 . S
C1918 H1908 0.950 . S
C1918 C1919 1.386 1_545 S
C1918 C1920 1.391 . S
C1919 C1918 1.386 1_565 S
C1919 C1923 1.393 . S
C1920 H1909 0.950 . S
C1920 C1918 1.391 . S
C1920 C1921 1.400 1_545 S
C1921 C1915 1.491 . S
C1921 C1920 1.400 1_565 S
C1921 C1922 1.398 . S
C1922 H1910 0.950 . S
C1922 C1921 1.398 . S
C1922 C1923 1.391 . S
C1923 H1911 0.950 . S
C1923 C1919 1.393 . S
C1923 C1922 1.391 . S
H1924 C1932 0.950 . S
H1925 C1937 0.950 . S
H1926 C1934 0.950 . S
H1927 C1936 0.950 . S
H1928 C1938 0.950 . S
H1929 C1940 0.950 . S
H1930 C1942 0.950 . S
H1931 C1943 0.950 . S
C1932 H1924 0.950 . S
C1932 C1933 1.386 . S
C1932 C1934 1.391 . S
C1933 C1932 1.386 . S
C1933 C1937 1.393 . S
C1934 H1926 0.950 . S
C1934 C1932 1.391 . S
C1934 C1935 1.400 . S
C1935 C1934 1.400 . S
C1935 C1936 1.398 . S
C1935 C1941 1.491 . S
C1936 H1927 0.950 . S
C1936 C1935 1.398 . S
C1936 C1937 1.391 . S
C1937 H1925 0.950 . S
C1937 C1933 1.393 . S
C1937 C1936 1.391 . S
C1938 H1928 0.950 . S
C1938 C1939 1.386 . S
C1938 C1940 1.391 . S
C1939 C1938 1.386 . S
C1939 C1943 1.393 . S
C1940 H1929 0.950 . S
C1940 C1938 1.391 . S
C1940 C1941 1.400 . S
C1941 C1935 1.491 . S
C1941 C1940 1.400 . S
C1941 C1942 1.398 . S
C1942 H1930 0.950 . S
C1942 C1941 1.398 . S
C1942 C1943 1.391 . S
C1943 H1931 0.950 . S
C1943 C1939 1.393 . S
C1943 C1942 1.391 . S
C513 C3 1.599 . S
C519 C157 1.600 . S
C533 C129 1.599 . S
C539 C17 1.599 . S
C553 C143 1.599 . S
C559 C31 1.598 . S
C573 C45 1.600 . S
C579 C101 1.598 . S
C593 C59 1.599 . S
C599 C115 1.598 . S
C613 C73 1.600 . S
C619 C87 1.598 . S
C633 C171 1.600 . S
C639 C325 1.598 . S
C653 C297 1.600 . S
C659 C185 1.598 . S
C673 C199 1.600 . S
C679 C311 1.598 . S
C693 C213 1.599 . S
C699 C269 1.599 . S
C713 C227 1.600 . S
C719 C283 1.598 . S
C733 C241 1.599 . S
C739 C255 1.600 . S
C753 C339 1.600 . S
C759 C493 1.598 . S
C773 C353 1.600 . S
C779 C465 1.598 . S
C793 C479 1.598 . S
C799 C367 1.599 . S
C813 C381 1.599 . S
C819 C437 1.599 . S
C833 C451 1.600 . S
C839 C395 1.598 . S
C853 C423 1.600 . S
C859 C409 1.598 . S
C873 C8 1.278 . S
C879 C218 1.284 . S
C893 C22 1.286 . S
C899 C232 1.284 . S
C913 C36 1.282 . S
C919 C246 1.286 . S
C933 C50 1.269 . S
C939 C344 1.273 . S
C953 C358 1.269 . S
C959 C64 1.271 . S
C973 C372 1.281 . S
C979 C78 1.286 . S
C993 C92 1.275 . S
C999 C470 1.282 . S
C1013 C484 1.278 . S
C1019 C106 1.284 . S
C1033 C120 1.271 . S
C1039 C498 1.277 . S
C1053 C134 1.284 . S
C1059 C260 1.278 . S
C1073 C148 1.272 . S
C1079 C274 1.278 . S
C1093 C162 1.286 . S
C1099 C288 1.285 . S
C1113 C386 1.274 . S
C1119 C176 1.270 . S
C1133 C190 1.286 . S
C1139 C400 1.283 . S
C1153 C204 1.272 . S
C1159 C414 1.269 . S
C1173 C428 1.271 . S
C1179 C302 1.277 . S
C1193 C442 1.278 . S
C1199 C316 1.284 . S
C1213 C330 1.286 . S
C1219 C456 1.283 . S
C1233 C9 1.258 . S
C1239 C65 1.251 . S
C1253 C79 1.244 . S
C1259 C23 1.266 . S
C1273 C51 1.241 . S
C1279 C37 1.268 . S
C1293 C93 1.251 . S
C1299 C149 1.259 . S
C1313 C163 1.270 . S
C1319 C107 1.240 . S
C1333 C121 1.254 . S
C1339 C135 1.257 . S
C1353 C233 1.258 . S
C1359 C177 1.251 . S
C1373 C191 1.245 . S
C1379 C247 1.266 . S
C1393 C205 1.252 . S
C1399 C219 1.258 . S
C1413 C317 1.270 . S
C1419 C261 1.240 . S
C1433 C331 1.270 . S
C1439 C275 1.241 . S
C1453 C303 1.257 . S
C1459 C289 1.254 . S
C1473 C345 1.258 . S
C1479 C401 1.253 . S
C1493 C359 1.269 . S
C1499 C415 1.241 . S
C1513 C373 1.253 . S
C1519 C387 1.257 . S
C1533 C485 1.244 . S
C1539 C429 1.265 . S
C1553 C499 1.247 . S
C1559 C443 1.263 . S
C1573 C471 1.243 . S
C1579 C457 1.267 . S
C1593 C133 1.558 . S
C1599 C7 1.577 . S
C1613 C147 1.571 . S
C1619 C21 1.564 . S
C1633 C35 1.558 . S
C1639 C161 1.577 . S
C1653 C49 1.559 . S
C1659 C91 1.577 . S
C1673 C105 1.569 . S
C1679 C63 1.567 . S
C1693 C77 1.574 . S
C1699 C119 1.562 . S
C1713 C301 1.558 . S
C1719 C175 1.577 . S
C1733 C315 1.577 . S
C1739 C189 1.558 . S
C1753 C203 1.558 . S
C1759 C329 1.577 . S
C1773 C259 1.560 . S
C1779 C217 1.576 . S
C1793 C273 1.558 . S
C1799 C231 1.577 . S
C1813 C287 1.561 . S
C1819 C245 1.575 . S
C1833 C343 1.570 . S
C1839 C469 1.566 . S
C1853 C483 1.558 . S
C1859 C357 1.578 . S
C1873 C371 1.559 . S
C1879 C497 1.577 . S
C1893 C385 1.562 . S
C1899 C427 1.574 . S
C1913 C399 1.573 . S
C1919 C441 1.562 . S
C1933 C455 1.560 . S
C1939 C413 1.576 . S
