# Generated by pormake.
# Topology upd, (4)-cn, num edge types: 1
# Building blocks:
#     Node 0, Type 0, BuildingBlock: MUDLON_clean_sbu_0, # of connection points: 4
#     Node 1, Type 0, BuildingBlock: MUDLON_clean_sbu_0, # of connection points: 4
#     Node 2, Type 0, BuildingBlock: MUDLON_clean_sbu_0, # of connection points: 4
#     Node 3, Type 0, BuildingBlock: MUDLON_clean_sbu_0, # of connection points: 4
#     Node 4, Type 0, BuildingBlock: MUDLON_clean_sbu_0, # of connection points: 4
#     Node 5, Type 0, BuildingBlock: MUDLON_clean_sbu_0, # of connection points: 4
#     Node 6, Type 0, BuildingBlock: MUDLON_clean_sbu_0, # of connection points: 4
#     Node 7, Type 0, BuildingBlock: MUDLON_clean_sbu_0, # of connection points: 4
#     Node 8, Type 0, BuildingBlock: MUDLON_clean_sbu_0, # of connection points: 4
#     Node 9, Type 0, BuildingBlock: MUDLON_clean_sbu_0, # of connection points: 4
#     Node 10, Type 0, BuildingBlock: MUDLON_clean_sbu_0, # of connection points: 4
#     Node 11, Type 0, BuildingBlock: MUDLON_clean_sbu_0, # of connection points: 4
#     Node 12, Type 0, BuildingBlock: MUDLON_clean_sbu_0, # of connection points: 4
#     Node 13, Type 0, BuildingBlock: MUDLON_clean_sbu_0, # of connection points: 4
#     Node 14, Type 0, BuildingBlock: MUDLON_clean_sbu_0, # of connection points: 4
#     Node 15, Type 0, BuildingBlock: MUDLON_clean_sbu_0, # of connection points: 4
#     Node 16, Type 0, BuildingBlock: MUDLON_clean_sbu_0, # of connection points: 4
#     Node 17, Type 0, BuildingBlock: MUDLON_clean_sbu_0, # of connection points: 4
#     Node 18, Type 0, BuildingBlock: MUDLON_clean_sbu_0, # of connection points: 4
#     Node 19, Type 0, BuildingBlock: MUDLON_clean_sbu_0, # of connection points: 4
#     Node 20, Type 0, BuildingBlock: MUDLON_clean_sbu_0, # of connection points: 4
#     Node 21, Type 0, BuildingBlock: MUDLON_clean_sbu_0, # of connection points: 4
#     Node 22, Type 0, BuildingBlock: MUDLON_clean_sbu_0, # of connection points: 4
#     Node 23, Type 0, BuildingBlock: MUDLON_clean_sbu_0, # of connection points: 4
#     Node 24, Type 0, BuildingBlock: MUDLON_clean_sbu_0, # of connection points: 4
#     Node 25, Type 0, BuildingBlock: MUDLON_clean_sbu_0, # of connection points: 4
#     Node 26, Type 0, BuildingBlock: MUDLON_clean_sbu_0, # of connection points: 4
#     Node 27, Type 0, BuildingBlock: MUDLON_clean_sbu_0, # of connection points: 4
#     Node 28, Type 0, BuildingBlock: MUDLON_clean_sbu_0, # of connection points: 4
#     Node 29, Type 0, BuildingBlock: MUDLON_clean_sbu_0, # of connection points: 4
#     Node 30, Type 0, BuildingBlock: MUDLON_clean_sbu_0, # of connection points: 4
#     Node 31, Type 0, BuildingBlock: MUDLON_clean_sbu_0, # of connection points: 4
#     Edge 32, Type (0, 0), BuildingBlock: EZIPEK_clean_linker_0, # of connection points: 2
#     Edge 33, Type (0, 0), BuildingBlock: EZIPEK_clean_linker_0, # of connection points: 2
#     Edge 34, Type (0, 0), BuildingBlock: EZIPEK_clean_linker_0, # of connection points: 2
#     Edge 35, Type (0, 0), BuildingBlock: EZIPEK_clean_linker_0, # of connection points: 2
#     Edge 36, Type (0, 0), BuildingBlock: EZIPEK_clean_linker_0, # of connection points: 2
#     Edge 37, Type (0, 0), BuildingBlock: EZIPEK_clean_linker_0, # of connection points: 2
#     Edge 38, Type (0, 0), BuildingBlock: EZIPEK_clean_linker_0, # of connection points: 2
#     Edge 39, Type (0, 0), BuildingBlock: EZIPEK_clean_linker_0, # of connection points: 2
#     Edge 40, Type (0, 0), BuildingBlock: EZIPEK_clean_linker_0, # of connection points: 2
#     Edge 41, Type (0, 0), BuildingBlock: EZIPEK_clean_linker_0, # of connection points: 2
#     Edge 42, Type (0, 0), BuildingBlock: EZIPEK_clean_linker_0, # of connection points: 2
#     Edge 43, Type (0, 0), BuildingBlock: EZIPEK_clean_linker_0, # of connection points: 2
#     Edge 44, Type (0, 0), BuildingBlock: EZIPEK_clean_linker_0, # of connection points: 2
#     Edge 45, Type (0, 0), BuildingBlock: EZIPEK_clean_linker_0, # of connection points: 2
#     Edge 46, Type (0, 0), BuildingBlock: EZIPEK_clean_linker_0, # of connection points: 2
#     Edge 47, Type (0, 0), BuildingBlock: EZIPEK_clean_linker_0, # of connection points: 2
#     Edge 48, Type (0, 0), BuildingBlock: EZIPEK_clean_linker_0, # of connection points: 2
#     Edge 49, Type (0, 0), BuildingBlock: EZIPEK_clean_linker_0, # of connection points: 2
#     Edge 50, Type (0, 0), BuildingBlock: EZIPEK_clean_linker_0, # of connection points: 2
#     Edge 51, Type (0, 0), BuildingBlock: EZIPEK_clean_linker_0, # of connection points: 2
#     Edge 52, Type (0, 0), BuildingBlock: EZIPEK_clean_linker_0, # of connection points: 2
#     Edge 53, Type (0, 0), BuildingBlock: EZIPEK_clean_linker_0, # of connection points: 2
#     Edge 54, Type (0, 0), BuildingBlock: EZIPEK_clean_linker_0, # of connection points: 2
#     Edge 55, Type (0, 0), BuildingBlock: EZIPEK_clean_linker_0, # of connection points: 2
#     Edge 56, Type (0, 0), BuildingBlock: EZIPEK_clean_linker_0, # of connection points: 2
#     Edge 57, Type (0, 0), BuildingBlock: EZIPEK_clean_linker_0, # of connection points: 2
#     Edge 58, Type (0, 0), BuildingBlock: EZIPEK_clean_linker_0, # of connection points: 2
#     Edge 59, Type (0, 0), BuildingBlock: EZIPEK_clean_linker_0, # of connection points: 2
#     Edge 60, Type (0, 0), BuildingBlock: EZIPEK_clean_linker_0, # of connection points: 2
#     Edge 61, Type (0, 0), BuildingBlock: EZIPEK_clean_linker_0, # of connection points: 2
#     Edge 62, Type (0, 0), BuildingBlock: EZIPEK_clean_linker_0, # of connection points: 2
#     Edge 63, Type (0, 0), BuildingBlock: EZIPEK_clean_linker_0, # of connection points: 2
#     Edge 64, Type (0, 0), BuildingBlock: EZIPEK_clean_linker_0, # of connection points: 2
#     Edge 65, Type (0, 0), BuildingBlock: EZIPEK_clean_linker_0, # of connection points: 2
#     Edge 66, Type (0, 0), BuildingBlock: EZIPEK_clean_linker_0, # of connection points: 2
#     Edge 67, Type (0, 0), BuildingBlock: EZIPEK_clean_linker_0, # of connection points: 2
#     Edge 68, Type (0, 0), BuildingBlock: EZIPEK_clean_linker_0, # of connection points: 2
#     Edge 69, Type (0, 0), BuildingBlock: EZIPEK_clean_linker_0, # of connection points: 2
#     Edge 70, Type (0, 0), BuildingBlock: EZIPEK_clean_linker_0, # of connection points: 2
#     Edge 71, Type (0, 0), BuildingBlock: EZIPEK_clean_linker_0, # of connection points: 2
#     Edge 72, Type (0, 0), BuildingBlock: EZIPEK_clean_linker_0, # of connection points: 2
#     Edge 73, Type (0, 0), BuildingBlock: EZIPEK_clean_linker_0, # of connection points: 2
#     Edge 74, Type (0, 0), BuildingBlock: EZIPEK_clean_linker_0, # of connection points: 2
#     Edge 75, Type (0, 0), BuildingBlock: EZIPEK_clean_linker_0, # of connection points: 2
#     Edge 76, Type (0, 0), BuildingBlock: EZIPEK_clean_linker_0, # of connection points: 2
#     Edge 77, Type (0, 0), BuildingBlock: EZIPEK_clean_linker_0, # of connection points: 2
#     Edge 78, Type (0, 0), BuildingBlock: EZIPEK_clean_linker_0, # of connection points: 2
#     Edge 79, Type (0, 0), BuildingBlock: EZIPEK_clean_linker_0, # of connection points: 2
#     Edge 80, Type (0, 0), BuildingBlock: EZIPEK_clean_linker_0, # of connection points: 2
#     Edge 81, Type (0, 0), BuildingBlock: EZIPEK_clean_linker_0, # of connection points: 2
#     Edge 82, Type (0, 0), BuildingBlock: EZIPEK_clean_linker_0, # of connection points: 2
#     Edge 83, Type (0, 0), BuildingBlock: EZIPEK_clean_linker_0, # of connection points: 2
#     Edge 84, Type (0, 0), BuildingBlock: EZIPEK_clean_linker_0, # of connection points: 2
#     Edge 85, Type (0, 0), BuildingBlock: EZIPEK_clean_linker_0, # of connection points: 2
#     Edge 86, Type (0, 0), BuildingBlock: EZIPEK_clean_linker_0, # of connection points: 2
#     Edge 87, Type (0, 0), BuildingBlock: EZIPEK_clean_linker_0, # of connection points: 2
#     Edge 88, Type (0, 0), BuildingBlock: EZIPEK_clean_linker_0, # of connection points: 2
#     Edge 89, Type (0, 0), BuildingBlock: EZIPEK_clean_linker_0, # of connection points: 2
#     Edge 90, Type (0, 0), BuildingBlock: EZIPEK_clean_linker_0, # of connection points: 2
#     Edge 91, Type (0, 0), BuildingBlock: EZIPEK_clean_linker_0, # of connection points: 2
#     Edge 92, Type (0, 0), BuildingBlock: EZIPEK_clean_linker_0, # of connection points: 2
#     Edge 93, Type (0, 0), BuildingBlock: EZIPEK_clean_linker_0, # of connection points: 2
#     Edge 94, Type (0, 0), BuildingBlock: EZIPEK_clean_linker_0, # of connection points: 2
#     Edge 95, Type (0, 0), BuildingBlock: EZIPEK_clean_linker_0, # of connection points: 2
# Relax obj value: 0.064
# Max RMSD: 0.095
# Mean RMSD: 0.095
data_MOF--net-upd--node1-MUDLON_clean_sbu_0--edge1-EZIPEK_clean_linker_0
_symmetry_space_group_name_H-M    P1
_symmetry_Int_Tables_number       1
_symmetry_cell_setting            triclinic
loop_
_symmetry_equiv_pos_as_xyz
'x, y, z'
_cell_length_a     33.679463
_cell_length_b     33.646881
_cell_length_c     50.245681
_cell_angle_alpha  90.267768
_cell_angle_beta   90.068341
_cell_angle_gamma 90.02397
loop_
_atom_site_label
_atom_site_type_symbol
_atom_site_fract_x
_atom_site_fract_y
_atom_site_fract_z
_atom_type_partial_charge
Mg0 Mg 0.14678 0.15902 0.31659 0.0
C1 C 0.05889 0.161 0.32932 0.0
O2 O 0.06784 0.19524 0.34033 0.0
C3 C 0.20967 0.21308 0.29772 0.0
O4 O 0.22468 0.19734 0.3194 0.0
C5 C 0.15942 0.08985 0.28309 0.0
O6 O 0.13318 0.11186 0.2706 0.0
O7 O 0.17377 0.10265 0.30499 0.0
O8 O 0.08336 0.14507 0.31325 0.0
O9 O 0.154 0.17844 0.35814 0.0
C10 C 0.14765 0.21541 0.36164 0.0
O11 O 0.14186 0.23791 0.34071 0.0
O12 O 0.17457 0.2033 0.29073 0.0
Mg13 Mg 0.1194 0.89972 0.56625 0.0
C14 C 0.12693 0.81083 0.58232 0.0
O15 O 0.09102 0.81483 0.59193 0.0
C16 C 0.06972 0.95446 0.53639 0.0
O17 O 0.08764 0.97643 0.55444 0.0
C18 C 0.18667 0.92487 0.53429 0.0
O19 O 0.16308 0.90618 0.5176 0.0
O20 O 0.17479 0.93085 0.55805 0.0
O21 O 0.14155 0.83821 0.56798 0.0
O22 O 0.08597 0.91428 0.60248 0.0
C23 C 0.08838 0.89587 0.62448 0.0
O24 O 0.1183 0.87178 0.62876 0.0
O25 O 0.07783 0.91748 0.53506 0.0
Mg26 Mg 0.36638 0.86841 0.82641 0.0
C27 C 0.45036 0.90462 0.82998 0.0
O28 O 0.43515 0.93486 0.8171 0.0
C29 C 0.31583 0.80169 0.80448 0.0
O30 O 0.30769 0.79907 0.82994 0.0
C31 C 0.35147 0.93835 0.79266 0.0
O32 O 0.37034 0.91375 0.77671 0.0
O33 O 0.34359 0.92715 0.81625 0.0
O34 O 0.43082 0.87235 0.83155 0.0
O35 O 0.35306 0.84538 0.866 0.0
C36 C 0.37356 0.81412 0.86994 0.0
O37 O 0.39636 0.80102 0.85058 0.0
O38 O 0.34157 0.82697 0.79684 0.0
Mg39 Mg 0.40005 0.13554 0.07335 0.0
C40 C 0.3804 0.22763 0.06691 0.0
O41 O 0.36163 0.22032 0.04449 0.0
C42 C 0.4493 0.07333 0.04806 0.0
O43 O 0.42992 0.05371 0.06647 0.0
C44 C 0.33008 0.11626 0.03929 0.0
O45 O 0.35642 0.12685 0.02143 0.0
O46 O 0.34021 0.11513 0.0637 0.0
O47 O 0.39847 0.19982 0.07894 0.0
O48 O 0.42349 0.11925 0.11211 0.0
C49 C 0.45546 0.13828 0.11687 0.0
O50 O 0.46911 0.16295 0.09888 0.0
O51 O 0.44267 0.11036 0.04517 0.0
Mg52 Mg 0.16058 0.8672 0.19719 0.0
C53 C 0.06399 0.8741 0.20176 0.0
O54 O 0.06312 0.86334 0.22685 0.0
C55 C 0.20009 0.79364 0.22105 0.0
O56 O 0.19997 0.78243 0.19603 0.0
C57 C 0.16243 0.93839 0.23068 0.0
O58 O 0.13323 0.91677 0.24014 0.0
O59 O 0.18193 0.9251 0.21083 0.0
O60 O 0.09687 0.8756 0.18928 0.0
O61 O 0.18095 0.84564 0.15811 0.0
C62 C 0.15889 0.817 0.15045 0.0
O63 O 0.13046 0.80506 0.16633 0.0
O64 O 0.18247 0.82571 0.22766 0.0
Mg65 Mg 0.40689 0.89742 0.45191 0.0
C66 C 0.36957 0.81456 0.44676 0.0
O67 O 0.34045 0.8308 0.46033 0.0
C68 C 0.45462 0.95913 0.47843 0.0
O69 O 0.43108 0.97897 0.46242 0.0
C70 C 0.34549 0.92139 0.49141 0.0
O71 O 0.37677 0.91631 0.50665 0.0
O72 O 0.34911 0.91763 0.46629 0.0
O73 O 0.40216 0.83337 0.44421 0.0
O74 O 0.4271 0.91752 0.41312 0.0
C75 C 0.45715 0.89722 0.40583 0.0
O76 O 0.47047 0.86907 0.42148 0.0
O77 O 0.45202 0.9213 0.47906 0.0
Mg78 Mg 0.37792 0.15442 0.708 0.0
C79 C 0.4591 0.11564 0.70698 0.0
O80 O 0.44117 0.08646 0.71941 0.0
C81 C 0.33401 0.22964 0.7261 0.0
O82 O 0.33756 0.2386 0.70083 0.0
C83 C 0.34129 0.09237 0.74304 0.0
O84 O 0.33276 0.1246 0.75671 0.0
O85 O 0.35723 0.09568 0.72019 0.0
O86 O 0.44253 0.14958 0.70613 0.0
O87 O 0.36647 0.17284 0.66694 0.0
C88 C 0.39144 0.19907 0.65955 0.0
O89 O 0.41845 0.2113 0.67657 0.0
O90 O 0.35059 0.19829 0.73489 0.0
Mg91 Mg 0.10834 0.1266 0.95704 0.0
C92 C 0.09689 0.2135 0.94233 0.0
O93 O 0.06143 0.20206 0.93469 0.0
C94 C 0.06014 0.06177 0.9809 0.0
O95 O 0.08485 0.04216 0.96548 0.0
C96 C 0.17059 0.1064 0.99657 0.0
O97 O 0.13968 0.11288 1.01191 0.0
O98 O 0.166 0.10662 0.97142 0.0
O99 O 0.11708 0.19105 0.95745 0.0
O100 O 0.09551 0.11271 0.91525 0.0
C101 C 0.05943 0.11726 0.90836 0.0
O102 O 0.03301 0.12667 0.92648 0.0
O103 O 0.06218 0.0996 0.98183 0.0
Mg104 Mg 0.86254 0.86334 0.70079 0.0
C105 C 0.94505 0.88733 0.68665 0.0
O106 O 0.92507 0.91998 0.68177 0.0
C107 C 0.79854 0.82766 0.73395 0.0
O108 O 0.78067 0.85894 0.72396 0.0
C109 C 0.85088 0.93002 0.73956 0.0
O110 O 0.85892 0.90032 0.75552 0.0
O111 O 0.84933 0.92378 0.71453 0.0
O112 O 0.92709 0.85806 0.69721 0.0
O113 O 0.84039 0.84383 0.66182 0.0
C114 C 0.85715 0.85174 0.63974 0.0
O115 O 0.88582 0.8781 0.63987 0.0
O116 O 0.83493 0.82161 0.72832 0.0
Mg117 Mg 0.9026 0.10616 0.45154 0.0
C118 C 0.95437 0.09792 0.40444 0.0
O119 O 0.97948 0.09856 0.42442 0.0
C120 C 0.83596 0.08937 0.48828 0.0
O121 O 0.86405 0.10107 0.50469 0.0
C122 C 0.95634 0.04191 0.47234 0.0
O123 O 0.93963 0.02371 0.45203 0.0
O124 O 0.94697 0.07789 0.47737 0.0
O125 O 0.91743 0.0962 0.40953 0.0
O126 O 0.89699 0.17106 0.45315 0.0
C127 C 0.91876 0.19228 0.43819 0.0
O128 O 0.95194 0.17734 0.42891 0.0
O129 O 0.84373 0.08622 0.46357 0.0
Mg130 Mg 0.66264 0.16024 0.19593 0.0
C131 C 0.57477 0.13879 0.1977 0.0
O132 O 0.58674 0.10964 0.21303 0.0
C133 C 0.72915 0.19847 0.22636 0.0
O134 O 0.74588 0.1653 0.21825 0.0
C135 C 0.6782 0.09901 0.23747 0.0
O136 O 0.67851 0.13182 0.25171 0.0
O137 O 0.67389 0.1013 0.21234 0.0
O138 O 0.59856 0.16698 0.19226 0.0
O139 O 0.67947 0.1704 0.15464 0.0
C140 C 0.65484 0.16032 0.13654 0.0
O141 O 0.62528 0.13722 0.14344 0.0
O142 O 0.69318 0.20527 0.21994 0.0
Mg143 Mg 0.6107 0.91709 0.96248 0.0
C144 C 0.562 0.91127 0.91549 0.0
O145 O 0.54601 0.88744 0.93309 0.0
C146 C 0.67301 0.93916 1.0013 0.0
O147 O 0.64237 0.93181 0.01666 0.0
C148 C 0.56526 0.98219 0.98823 0.0
O149 O 0.5919 1.00159 0.97432 0.0
O150 O 0.56546 0.9443 0.98785 0.0
O151 O 0.59275 0.93118 0.92193 0.0
O152 O 0.6142 0.85219 0.96098 0.0
C153 C 0.63637 0.84063 0.94193 0.0
O154 O 0.65587 0.86765 0.92839 0.0
O155 O 0.66873 0.9373 0.97614 0.0
Mg156 Mg 0.87013 0.15436 0.82271 0.0
C157 C 0.95051 0.11911 0.82773 0.0
O158 O 0.92621 0.08929 0.83207 0.0
C159 C 0.80331 0.19166 0.79314 0.0
O160 O 0.78616 0.16103 0.80449 0.0
C161 C 0.85477 0.08832 0.78555 0.0
O162 O 0.86681 0.11732 0.77012 0.0
O163 O 0.85059 0.09502 0.81038 0.0
O164 O 0.935 0.15235 0.82153 0.0
O165 O 0.8595 0.17644 0.86311 0.0
C166 C 0.88248 0.16805 0.88244 0.0
O167 O 0.90772 0.13852 0.88005 0.0
O168 O 0.84044 0.19701 0.7966 0.0
Mg169 Mg 0.61292 0.11344 0.57036 0.0
C170 C 0.55835 0.10012 0.61511 0.0
O171 O 0.53489 0.10912 0.59515 0.0
C172 C 0.67712 0.09358 0.53229 0.0
O173 O 0.64758 0.10303 0.51645 0.0
C174 C 0.56235 0.05127 0.54479 0.0
O175 O 0.58081 0.03132 0.56349 0.0
O176 O 0.56926 0.08837 0.54239 0.0
O177 O 0.59539 0.09643 0.61075 0.0
O178 O 0.62088 0.17825 0.57288 0.0
C179 C 0.60103 0.19899 0.58943 0.0
O180 O 0.56865 0.18411 0.59984 0.0
O181 O 0.67123 0.09287 0.55732 0.0
Mg182 Mg 0.66158 0.87618 0.32337 0.0
C183 C 0.57468 0.90373 0.32418 0.0
O184 O 0.58826 0.9356 0.31232 0.0
C185 C 0.72856 0.83736 0.29494 0.0
O186 O 0.74651 0.86577 0.30836 0.0
C187 C 0.67215 0.9454 0.28825 0.0
O188 O 0.65598 0.91881 0.27237 0.0
O189 O 0.67978 0.93589 0.3122 0.0
O190 O 0.59689 0.87337 0.32637 0.0
O191 O 0.67454 0.85809 0.36393 0.0
C192 C 0.65899 0.82407 0.36756 0.0
O193 O 0.64246 0.8057 0.34727 0.0
O194 O 0.691 0.83381 0.29688 0.0
Mg195 Mg 0.89957 0.91809 0.07612 0.0
C196 C 0.92962 0.91056 0.13396 0.0
O197 O 0.90031 0.88508 0.13612 0.0
C198 C 0.83171 0.9426 0.04457 0.0
O199 O 0.85616 0.92595 0.02753 0.0
C200 C 0.94954 0.97452 0.04699 0.0
O201 O 0.9343 0.99581 0.06642 0.0
O202 O 0.93998 0.93797 0.04486 0.0
O203 O 0.93242 0.93141 0.11298 0.0
O204 O 0.88089 0.85543 0.0766 0.0
C205 C 0.9009 0.828 0.08754 0.0
O206 O 0.93814 0.83464 0.09362 0.0
O207 O 0.84294 0.94716 0.06862 0.0
Mg208 Mg 0.65625 0.65923 0.8261 0.0
C209 C 0.57235 0.62424 0.82884 0.0
O210 O 0.58835 0.5933 0.81705 0.0
C211 C 0.70304 0.7291 0.80368 0.0
O212 O 0.70451 0.7386 0.82901 0.0
C213 C 0.67153 0.58717 0.79325 0.0
O214 O 0.65432 0.61139 0.77636 0.0
O215 O 0.67806 0.59935 0.81692 0.0
O216 O 0.59148 0.65681 0.82965 0.0
O217 O 0.66921 0.68291 0.86592 0.0
C218 C 0.64719 0.71278 0.87116 0.0
O219 O 0.62217 0.72501 0.85287 0.0
O220 O 0.68287 0.69887 0.7964 0.0
Mg221 Mg 0.61334 0.38138 0.06691 0.0
C222 C 0.63534 0.30199 0.0828 0.0
O223 O 0.65473 0.32632 0.09869 0.0
C224 C 0.57031 0.4502 0.04364 0.0
O225 O 0.59712 0.46794 0.05854 0.0
C226 C 0.67813 0.40217 0.02946 0.0
O227 O 0.64753 0.39836 0.0134 0.0
O228 O 0.67281 0.39889 0.05443 0.0
O229 O 0.61362 0.31671 0.06457 0.0
O230 O 0.59767 0.39253 0.10831 0.0
C231 C 0.56511 0.37607 0.11494 0.0
O232 O 0.54532 0.35561 0.09697 0.0
O233 O 0.56951 0.41237 0.04261 0.0
Mg234 Mg 0.87206 0.36524 0.31947 0.0
C235 C 0.94454 0.39856 0.33913 0.0
O236 O 0.91525 0.41322 0.35338 0.0
C237 C 0.82594 0.29573 0.29679 0.0
O238 O 0.82249 0.28808 0.32227 0.0
C239 C 0.86379 0.43787 0.28949 0.0
O240 O 0.89214 0.41749 0.27777 0.0
O241 O 0.84691 0.42299 0.3098 0.0
O242 O 0.93594 0.37573 0.3197 0.0
O243 O 0.8623 0.34129 0.35944 0.0
C244 C 0.88708 0.31393 0.36499 0.0
O245 O 0.91334 0.30356 0.34696 0.0
O246 O 0.84754 0.32474 0.28947 0.0
Mg247 Mg 0.89842 0.62648 0.56989 0.0
C248 C 0.87335 0.70434 0.5896 0.0
O249 O 0.86238 0.67902 0.60801 0.0
C250 C 0.94674 0.56282 0.54447 0.0
O251 O 0.92498 0.54274 0.56142 0.0
C252 C 0.83141 0.60897 0.53518 0.0
O253 O 0.85826 0.6245 0.5194 0.0
O254 O 0.84005 0.60357 0.55955 0.0
O255 O 0.89047 0.69092 0.5688 0.0
O256 O 0.92118 0.61637 0.60984 0.0
C257 C 0.95366 0.63516 0.61302 0.0
O258 O 0.96749 0.65617 0.59309 0.0
O259 O 0.94222 0.60035 0.54286 0.0
Mg260 Mg 0.65298 0.36499 0.71131 0.0
C261 C 0.57717 0.39464 0.6953 0.0
O262 O 0.60472 0.41352 0.68182 0.0
C263 C 0.69943 0.29114 0.72928 0.0
O264 O 0.69435 0.28068 0.70431 0.0
C265 C 0.68279 0.42984 0.74691 0.0
O266 O 0.68745 0.39852 0.76209 0.0
O267 O 0.6719 0.42494 0.72282 0.0
O268 O 0.58831 0.3701 0.71303 0.0
O269 O 0.6612 0.34534 0.66992 0.0
C270 C 0.63686 0.31774 0.66374 0.0
O271 O 0.61212 0.30484 0.68192 0.0
O272 O 0.68331 0.32296 0.73786 0.0
Mg273 Mg 0.9069 0.39197 0.95035 0.0
C274 C 0.89208 0.29884 0.95642 0.0
O275 O 0.8766 0.3046 0.9801 0.0
C276 C 0.95832 0.45444 0.97416 0.0
O277 O 0.94199 0.47289 0.95393 0.0
C278 C 0.83732 0.40312 0.98587 0.0
O279 O 0.8645 0.39042 1.00254 0.0
O280 O 0.84669 0.40883 0.96164 0.0
O281 O 0.90715 0.32779 0.94378 0.0
O282 O 0.92741 0.40905 0.91099 0.0
C283 C 0.96082 0.39256 0.90654 0.0
O284 O 0.97711 0.37125 0.92548 0.0
O285 O 0.94945 0.41815 0.97837 0.0
Mg286 Mg 0.86438 0.66065 0.20603 0.0
C287 C 0.94642 0.6226 0.19832 0.0
O288 O 0.92871 0.59014 0.20648 0.0
C289 C 0.82871 0.73817 0.22787 0.0
O290 O 0.83704 0.75109 0.20391 0.0
C291 C 0.85695 0.59168 0.24116 0.0
O292 O 0.88187 0.6155 0.25356 0.0
O293 O 0.84221 0.60307 0.21913 0.0
O294 O 0.92898 0.65595 0.20103 0.0
O295 O 0.84698 0.6805 0.16613 0.0
C296 C 0.87198 0.70492 0.15641 0.0
O297 O 0.90334 0.71465 0.17053 0.0
O298 O 0.83971 0.70344 0.23463 0.0
Mg299 Mg 0.6053 0.62648 0.45832 0.0
C300 C 0.60574 0.71137 0.43773 0.0
O301 O 0.57923 0.69662 0.42136 0.0
C302 C 0.55824 0.56595 0.48616 0.0
O303 O 0.57922 0.54545 0.46887 0.0
C304 C 0.67094 0.60821 0.49436 0.0
O305 O 0.64382 0.62389 0.50996 0.0
O306 O 0.66285 0.60285 0.46986 0.0
O307 O 0.61751 0.69062 0.45731 0.0
O308 O 0.58354 0.60825 0.41906 0.0
C309 C 0.54707 0.61669 0.41563 0.0
O310 O 0.52737 0.63318 0.43533 0.0
O311 O 0.56246 0.60358 0.48715 0.0
Mg312 Mg 0.37234 0.35815 0.20302 0.0
C313 C 0.4574 0.38137 0.19868 0.0
O314 O 0.43837 0.41537 0.19918 0.0
C315 C 0.3152 0.32422 0.24465 0.0
O316 O 0.31355 0.36163 0.25214 0.0
C317 C 0.33444 0.4423 0.21553 0.0
O318 O 0.30532 0.43328 0.19918 0.0
O319 O 0.36265 0.41787 0.21925 0.0
O320 O 0.43678 0.34994 0.20171 0.0
O321 O 0.35675 0.34455 0.16187 0.0
C322 C 0.37783 0.35569 0.14227 0.0
O323 O 0.40346 0.38475 0.14552 0.0
O324 O 0.33878 0.31421 0.22598 0.0
Mg325 Mg 0.40983 0.61024 0.96052 0.0
C326 C 0.46445 0.61299 0.91678 0.0
O327 O 0.48168 0.63167 0.93667 0.0
C328 C 0.34332 0.58584 0.99585 0.0
O329 O 0.37241 0.58982 0.01306 0.0
C330 C 0.45888 0.54617 0.98384 0.0
O331 O 0.43931 0.52749 0.96493 0.0
O332 O 0.45278 0.58315 0.98753 0.0
O333 O 0.4307 0.59691 0.92048 0.0
O334 O 0.40721 0.67495 0.95916 0.0
C335 C 0.38453 0.68624 0.94036 0.0
O336 O 0.3639 0.65924 0.92738 0.0
O337 O 0.35033 0.59078 0.97119 0.0
Mg338 Mg 0.15821 0.66175 0.70248 0.0
C339 C 0.08065 0.63896 0.68486 0.0
O340 O 0.1062 0.61811 0.67085 0.0
C341 C 0.2233 0.69697 0.7361 0.0
O342 O 0.23979 0.66321 0.72892 0.0
C343 C 0.17225 0.59154 0.73565 0.0
O344 O 0.15814 0.61787 0.75253 0.0
O345 O 0.17774 0.60159 0.71152 0.0
O346 O 0.09364 0.66045 0.70391 0.0
O347 O 0.16391 0.68481 0.66244 0.0
C348 C 0.19314 0.69029 0.64702 0.0
O349 O 0.2287 0.67767 0.65363 0.0
O350 O 0.18798 0.70442 0.72852 0.0
Mg351 Mg 0.11384 0.41103 0.45884 0.0
C352 C 0.06181 0.4231 0.41263 0.0
O353 O 0.03709 0.41548 0.43212 0.0
C354 C 0.17837 0.42575 0.49719 0.0
O355 O 0.14982 0.41133 0.51211 0.0
C356 C 0.06061 0.47376 0.48115 0.0
O357 O 0.07935 0.49292 0.46223 0.0
O358 O 0.06842 0.43711 0.48495 0.0
O359 O 0.09872 0.42581 0.41771 0.0
O360 O 0.12233 0.34641 0.45714 0.0
C361 C 0.10181 0.32496 0.44136 0.0
O362 O 0.06731 0.33804 0.43305 0.0
O363 O 0.17164 0.43171 0.4726 0.0
Mg364 Mg 0.35917 0.64964 0.3178 0.0
C365 C 0.43964 0.61391 0.32699 0.0
O366 O 0.421 0.58189 0.31866 0.0
C367 C 0.2971 0.69294 0.28807 0.0
O368 O 0.27807 0.66202 0.29758 0.0
C369 C 0.34505 0.58998 0.27544 0.0
O370 O 0.35565 0.62188 0.26226 0.0
O371 O 0.34165 0.59221 0.30067 0.0
O372 O 0.42327 0.64765 0.32393 0.0
O373 O 0.34134 0.66676 0.35805 0.0
C374 C 0.36132 0.69726 0.36515 0.0
O375 O 0.38694 0.71252 0.34838 0.0
O376 O 0.33412 0.69645 0.29288 0.0
Mg377 Mg 0.11334 0.60851 0.06767 0.0
C378 C 0.06235 0.62342 0.11397 0.0
O379 O 0.05563 0.65383 0.09833 0.0
C380 C 0.18191 0.59065 0.03474 0.0
O381 O 0.15612 0.6069 0.01845 0.0
C382 C 0.06817 0.54507 0.0398 0.0
O383 O 0.09024 0.52503 0.05661 0.0
O384 O 0.07134 0.58283 0.03904 0.0
O385 O 0.08731 0.59707 0.10672 0.0
O386 O 0.12394 0.67267 0.06728 0.0
C387 C 0.14446 0.68384 0.08729 0.0
O388 O 0.15715 0.6565 0.10384 0.0
O389 O 0.17182 0.58461 0.05879 0.0
Mg390 Mg 0.16019 0.36782 0.81678 0.0
C391 C 0.08105 0.39091 0.83077 0.0
O392 O 0.10542 0.41589 0.84261 0.0
C393 C 0.22975 0.33054 0.78908 0.0
O394 O 0.246 0.36271 0.79926 0.0
C395 C 0.17669 0.43292 0.7794 0.0
O396 O 0.17155 0.40214 0.76359 0.0
O397 O 0.17597 0.42775 0.80448 0.0
O398 O 0.09568 0.36611 0.8143 0.0
O399 O 0.16685 0.35159 0.85856 0.0
C400 C 0.14933 0.31856 0.86235 0.0
O401 O 0.13455 0.29939 0.84178 0.0
O402 O 0.19286 0.32427 0.79283 0.0
Mg403 Mg 0.40475 0.40728 0.57594 0.0
C404 C 0.4585 0.41705 0.62246 0.0
O405 O 0.48347 0.41429 0.60253 0.0
C406 C 0.33777 0.42847 0.54041 0.0
O407 O 0.36592 0.41972 0.52332 0.0
C408 C 0.45542 0.47247 0.55413 0.0
O409 O 0.43874 0.49018 0.57461 0.0
O410 O 0.44745 0.43608 0.54942 0.0
O411 O 0.42141 0.41759 0.61764 0.0
O412 O 0.39866 0.34267 0.57331 0.0
C413 C 0.42099 0.32073 0.58738 0.0
O414 O 0.45462 0.33521 0.59638 0.0
O415 O 0.34562 0.42799 0.5652 0.0
C416 C 0.15497 0.29804 0.4107 0.0
C417 C 0.12058 0.29135 0.42661 0.0
C418 C 0.11103 0.2263 0.40493 0.0
C419 C 0.14433 0.2341 0.38842 0.0
N420 N 0.20531 0.2694 0.38189 0.0
N421 N 0.07191 0.24569 0.44358 0.0
C422 C 0.16886 0.26723 0.3937 0.0
C423 C 0.10067 0.25417 0.42529 0.0
N424 N 0.17236 0.33476 0.40974 0.0
N425 N 0.08821 0.19342 0.40027 0.0
H426 H 0.06407 0.26553 0.45871 0.0
H427 H 0.05826 0.21806 0.44523 0.0
H428 H 0.09655 0.17109 0.38698 0.0
H429 H 0.06056 0.18871 0.40894 0.0
H430 H 0.19426 0.3422 0.39602 0.0
H431 H 0.16281 0.35921 0.42072 0.0
H432 H 0.2264 0.29091 0.38674 0.0
H433 H 0.21589 0.24695 0.36934 0.0
C434 C 0.01967 0.86991 0.63269 0.0
C435 C 0.05258 0.89283 0.64165 0.0
C436 C 0.01678 0.9077 0.6831 0.0
C437 C 0.98505 0.8829 0.67453 0.0
N438 N 0.96283 0.83045 0.64509 0.0
N439 N 0.08544 0.9283 0.67714 0.0
C440 C 0.9887 0.86064 0.65069 0.0
C441 C 0.05218 0.9099 0.66753 0.0
N442 N 0.01679 0.85826 0.60667 0.0
N443 N 0.01273 0.92956 0.70591 0.0
H444 H 0.11112 0.93184 0.66581 0.0
H445 H 0.08845 0.93784 0.69678 0.0
H446 H 0.98847 0.92628 0.71861 0.0
H447 H 0.03247 0.9518 0.71169 0.0
H448 H 0.99143 0.84508 0.59875 0.0
H449 H 0.03756 0.86545 0.59218 0.0
H450 H 0.96713 0.81054 0.62942 0.0
H451 H 0.93975 0.82225 0.65767 0.0
C452 C 0.34444 0.74461 0.92604 0.0
C453 C 0.38252 0.72813 0.93101 0.0
C454 C 0.41247 0.78291 0.90614 0.0
C455 C 0.37463 0.7927 0.89574 0.0
N456 N 0.30346 0.78461 0.8969 0.0
N457 N 0.45385 0.73215 0.92552 0.0
C458 C 0.3401 0.77482 0.90649 0.0
C459 C 0.41699 0.74801 0.92164 0.0
N460 N 0.31248 0.73097 0.93999 0.0
N461 N 0.44415 0.80701 0.90086 0.0
H462 H 0.45922 0.70754 0.9374 0.0
H463 H 0.479 0.74217 0.91556 0.0
H464 H 0.44126 0.83309 0.88983 0.0
H465 H 0.47193 0.80348 0.90969 0.0
H466 H 0.2844 0.74384 0.93905 0.0
H467 H 0.31525 0.7092 0.9546 0.0
H468 H 0.27777 0.76876 0.90136 0.0
H469 H 0.29885 0.80767 0.88352 0.0
C470 C 0.48204 0.16695 0.15936 0.0
C471 C 0.47799 0.13376 0.142 0.0
C472 C 0.53453 0.10123 0.16337 0.0
C473 C 0.53845 0.13427 0.18109 0.0
N474 N 0.51052 0.19381 0.20006 0.0
N475 N 0.49333 0.06553 0.13167 0.0
C476 C 0.51036 0.16563 0.18038 0.0
C477 C 0.50158 0.09946 0.14569 0.0
N478 N 0.45962 0.20022 0.15519 0.0
N479 N 0.56395 0.07332 0.16156 0.0
H480 H 0.47032 0.06358 0.11784 0.0
H481 H 0.50682 0.03832 0.13557 0.0
H482 H 0.5897 0.07376 0.17301 0.0
H483 H 0.56487 0.05162 0.14672 0.0
H484 H 0.46476 0.22725 0.16477 0.0
H485 H 0.43684 0.20127 0.1411 0.0
H486 H 0.48851 0.21531 0.20217 0.0
H487 H 0.53076 0.19335 0.2158 0.0
C488 C 0.19624 0.76819 0.12188 0.0
C489 C 0.16433 0.79508 0.12501 0.0
C490 C 0.12346 0.75605 0.09415 0.0
C491 C 0.15359 0.72639 0.09349 0.0
N492 N 0.22342 0.71208 0.0974 0.0
N493 N 0.10635 0.82411 0.1057 0.0
C494 C 0.19173 0.73531 0.10418 0.0
C495 C 0.13099 0.79218 0.10807 0.0
N496 N 0.22973 0.77273 0.1369 0.0
N497 N 0.08674 0.74899 0.08357 0.0
H498 H 0.11159 0.8506 0.11607 0.0
H499 H 0.08384 0.82564 0.09152 0.0
H500 H 0.07973 0.72414 0.07218 0.0
H501 H 0.06241 0.7674 0.08707 0.0
H502 H 0.25188 0.75125 0.13826 0.0
H503 H 0.23472 0.79786 0.14865 0.0
H504 H 0.25256 0.71858 0.10282 0.0
H505 H 0.22081 0.68841 0.08401 0.0
C506 C 0.47798 0.87907 0.35954 0.0
C507 C 0.47971 0.90604 0.38132 0.0
C508 C 0.54201 0.93349 0.36456 0.0
C509 C 0.54005 0.90715 0.34232 0.0
N510 N 0.50289 0.86034 0.31585 0.0
N511 N 0.50723 0.9651 0.40121 0.0
C512 C 0.50685 0.88169 0.3389 0.0
C513 C 0.5095 0.9356 0.38248 0.0
N514 N 0.44947 0.85015 0.35915 0.0
N515 N 0.57621 0.95397 0.36997 0.0
H516 H 0.48412 0.96695 0.41495 0.0
H517 H 0.526 0.98971 0.40146 0.0
H518 H 0.60173 0.95194 0.35837 0.0
H519 H 0.58081 0.96993 0.38751 0.0
H520 H 0.44926 0.82654 0.3457 0.0
H521 H 0.4267 0.84893 0.37321 0.0
H522 H 0.4777 0.8439 0.311 0.0
H523 H 0.52368 0.86171 0.30049 0.0
C524 C 0.3603 0.24693 0.62825 0.0
C525 C 0.39024 0.21856 0.63315 0.0
C526 C 0.43149 0.24912 0.5986 0.0
C527 C 0.40606 0.28275 0.59876 0.0
N528 N 0.34668 0.31479 0.61615 0.0
N529 N 0.45296 0.18934 0.62148 0.0
C530 C 0.36995 0.28168 0.61363 0.0
C531 C 0.42516 0.21827 0.61743 0.0
N532 N 0.32313 0.24137 0.63836 0.0
N533 N 0.46171 0.247 0.58054 0.0
H534 H 0.44776 0.16521 0.63402 0.0
H535 H 0.4813 0.18987 0.61324 0.0
H536 H 0.46648 0.26907 0.56636 0.0
H537 H 0.47961 0.22205 0.578 0.0
H538 H 0.29909 0.25949 0.63359 0.0
H539 H 0.3154 0.21597 0.64896 0.0
H540 H 0.32298 0.31661 0.6294 0.0
H541 H 0.35266 0.34185 0.60712 0.0
C542 C 0.03081 0.07845 0.87043 0.0
C543 C 0.04649 0.11466 0.88023 0.0
C544 C 0.01507 0.15074 0.84345 0.0
C545 C 0.99238 0.1162 0.83785 0.0
N546 N 0.9957 0.04503 0.8345 0.0
N547 N 0.06241 0.18336 0.87306 0.0
C548 C 1.00597 0.07915 0.84758 0.0
C549 C 0.04193 0.1502 0.86542 0.0
N550 N 0.03777 0.04397 0.88388 0.0
N551 N 0.01194 0.18294 0.82716 0.0
H552 H 0.08482 0.18206 0.88736 0.0
H553 H 0.05773 0.21162 0.86537 0.0
H554 H 0.99618 0.18163 0.8093 0.0
H555 H 0.02792 0.20916 0.82962 0.0
H556 H 0.02327 0.01734 0.87963 0.0
H557 H 0.05718 0.0426 0.90006 0.0
H558 H 1.00663 0.01709 0.8395 0.0
H559 H 0.97987 0.04568 0.81663 0.0
C560 C 0.89373 0.77721 0.59076 0.0
C561 C 0.86424 0.74733 0.59363 0.0
C562 C 0.82096 0.79525 0.6166 0.0
C563 C 0.85278 0.82287 0.61695 0.0
N564 N 0.90614 0.84808 0.58992 0.0
N565 N 0.79471 0.73283 0.5994 0.0
C566 C 0.88498 0.81658 0.59928 0.0
C567 C 0.82603 0.75802 0.60337 0.0
N568 N 0.9308 0.76806 0.58162 0.0
N569 N 0.78617 0.80475 0.62902 0.0
H570 H 0.79749 0.70627 0.58874 0.0
H571 H 0.76551 0.7397 0.60432 0.0
H572 H 0.78024 0.83356 0.63566 0.0
H573 H 0.76354 0.78444 0.63271 0.0
H574 H 0.95408 0.78846 0.58166 0.0
H575 H 0.93935 0.73963 0.57585 0.0
H576 H 0.92787 0.84514 0.57529 0.0
H577 H 0.89762 0.87738 0.59369 0.0
C578 C 0.03413 0.10056 0.35425 0.0
C579 C 0.0261 0.13728 0.34123 0.0
C580 C 0.96112 0.14073 0.36333 0.0
C581 C 0.97039 0.10524 0.3773 0.0
N582 N 1.00709 0.0443 0.37827 0.0
N583 N 0.97778 0.18537 0.32709 0.0
C584 C 1.00384 0.08263 0.36973 0.0
C585 C 0.98801 0.15492 0.34363 0.0
N586 N 0.07145 0.08454 0.35425 0.0
N587 N 0.92817 0.16225 0.36993 0.0
H588 H 0.99693 0.19593 0.3124 0.0
H589 H 0.94935 0.19745 0.32617 0.0
H590 H 0.90629 0.15177 0.38268 0.0
H591 H 0.92312 0.19115 0.36342 0.0
H592 H 0.07948 0.06055 0.36612 0.0
H593 H 0.09565 0.0968 0.34443 0.0
H594 H 0.02909 0.02489 0.37162 0.0
H595 H 0.98504 0.03094 0.38978 0.0
C596 C 0.60741 0.23326 0.09152 0.0
C597 C 0.64039 0.25849 0.08658 0.0
C598 C 0.68565 0.20722 0.10339 0.0
C599 C 0.65226 0.18491 0.11175 0.0
N600 N 0.58587 0.16554 0.09893 0.0
N601 N 0.71054 0.26365 0.07824 0.0
C602 C 0.61447 0.19415 0.10092 0.0
C603 C 0.67956 0.24335 0.08929 0.0
N604 N 0.56945 0.24703 0.089 0.0
N605 N 0.72288 0.19398 0.10942 0.0
H606 H 0.7063 0.28944 0.06712 0.0
H607 H 0.73967 0.25338 0.078 0.0
H608 H 0.72769 0.16566 0.1172 0.0
H609 H 0.74859 0.2107 0.1069 0.0
H610 H 0.54481 0.23114 0.09562 0.0
H611 H 0.56261 0.27527 0.08203 0.0
H612 H 0.55852 0.17035 0.08978 0.0
H613 H 0.59188 0.13568 0.10269 0.0
C614 C 0.54383 0.88471 0.87045 0.0
C615 C 0.54183 0.91587 0.88953 0.0
C616 C 0.4815 0.94119 0.86868 0.0
C617 C 0.48401 0.91095 0.84878 0.0
N618 N 0.522 0.8591 0.82757 0.0
N619 N 0.51571 0.97947 0.90266 0.0
C620 C 0.51672 0.88435 0.84864 0.0
C621 C 0.51328 0.94631 0.88694 0.0
N622 N 0.57079 0.85478 0.87374 0.0
N623 N 0.44724 0.96243 0.87202 0.0
H624 H 0.53834 0.98365 0.91659 0.0
H625 H 0.49775 1.00435 0.89998 0.0
H626 H 0.42157 0.9573 0.86101 0.0
H627 H 0.44258 0.98186 0.88791 0.0
H628 H 0.57058 0.82863 0.86257 0.0
H629 H 0.5924 0.85545 0.88864 0.0
H630 H 0.5471 0.8414 0.82515 0.0
H631 H 0.50279 0.85846 0.81127 0.0
C632 C 0.85364 0.23991 0.93781 0.0
C633 C 0.89051 0.25936 0.94281 0.0
C634 C 0.92286 0.21687 0.90948 0.0
C635 C 0.8863 0.19666 0.90499 0.0
N636 N 0.8198 0.18219 0.91948 0.0
N637 N 0.9618 0.25825 0.93928 0.0
C638 C 0.85263 0.20601 0.9207 0.0
C639 C 0.92565 0.24497 0.9306 0.0
N640 N 0.81913 0.25505 0.94789 0.0
N641 N 0.95416 0.21155 0.89251 0.0
H642 H 0.96478 0.27827 0.95509 0.0
H643 H 0.98865 0.24631 0.9328 0.0
H644 H 0.95317 0.19291 0.87593 0.0
H645 H 0.97994 0.22864 0.89329 0.0
H646 H 0.79112 0.24529 0.94196 0.0
H647 H 0.81806 0.27917 0.96085 0.0
H648 H 0.79581 0.185 0.93242 0.0
H649 H 0.81823 0.15712 0.90721 0.0
C650 C 0.52615 0.12608 0.68593 0.0
C651 C 0.48898 0.10621 0.6861 0.0
C652 C 0.50702 0.07179 0.64473 0.0
C653 C 0.54057 0.09671 0.64206 0.0
N654 N 0.58174 0.14953 0.65968 0.0
N655 N 0.44093 0.06546 0.6625 0.0
C656 C 0.55054 0.12399 0.66275 0.0
C657 C 0.47872 0.07999 0.66487 0.0
N658 N 0.53811 0.14679 0.70798 0.0
N659 N 0.50204 0.04042 0.62768 0.0
H660 H 0.41803 0.07246 0.67561 0.0
H661 H 0.43106 0.04984 0.6458 0.0
H662 H 0.52264 0.03355 0.61284 0.0
H663 H 0.48001 0.01899 0.63012 0.0
H664 H 0.56645 0.15878 0.71015 0.0
H665 H 0.52074 0.14895 0.72511 0.0
H666 H 0.58712 0.17351 0.67235 0.0
H667 H 0.60118 0.1482 0.64361 0.0
C668 C 0.68002 0.77776 0.40314 0.0
C669 C 0.65314 0.80705 0.39434 0.0
C670 C 0.60313 0.78292 0.42572 0.0
C671 C 0.62644 0.74844 0.42975 0.0
N672 N 0.68875 0.71362 0.42408 0.0
N673 N 0.59117 0.84175 0.39892 0.0
C674 C 0.66595 0.74656 0.41971 0.0
C675 C 0.6156 0.81151 0.40669 0.0
N676 N 0.7186 0.77944 0.39488 0.0
N677 N 0.56878 0.78755 0.43982 0.0
H678 H 0.60061 0.86397 0.38594 0.0
H679 H 0.5616 0.84443 0.40464 0.0
H680 H 0.55964 0.76681 0.45395 0.0
H681 H 0.55127 0.81302 0.43926 0.0
H682 H 0.74092 0.76095 0.40203 0.0
H683 H 0.72886 0.80213 0.38254 0.0
H684 H 0.71561 0.7082 0.41452 0.0
H685 H 0.68026 0.69058 0.43658 0.0
C686 C 0.02292 0.86484 0.16096 0.0
C687 C 0.02676 0.88215 0.18652 0.0
C688 C 0.96437 0.91837 0.17851 0.0
C689 C 0.96488 0.90556 0.15152 0.0
N690 N 1.00326 0.87631 0.11573 0.0
N691 N 1.00331 0.93071 0.21844 0.0
C692 C 0.99688 0.88199 0.14228 0.0
C693 C 0.99793 0.91033 0.19516 0.0
N694 N 0.04241 0.83045 0.15497 0.0
N695 N 0.93214 0.93832 0.18815 0.0
H696 H 0.02771 0.92625 0.23085 0.0
H697 H 0.98527 0.95429 0.22432 0.0
H698 H 0.90816 0.94624 0.17612 0.0
H699 H 0.92829 0.94479 0.20829 0.0
H700 H 0.03784 0.81495 0.1372 0.0
H701 H 0.05811 0.81474 0.16939 0.0
H702 H 0.02806 0.86129 0.10849 0.0
H703 H 0.98676 0.89041 0.10102 0.0
C704 C 0.682 0.75396 0.90654 0.0
C705 C 0.64753 0.73407 0.89719 0.0
C706 C 0.60551 0.77596 0.92567 0.0
C707 C 0.63961 0.7983 0.93317 0.0
N708 N 0.71038 0.79922 0.93925 0.0
N709 N 0.57977 0.7155 0.90539 0.0
C710 C 0.67794 0.78388 0.92649 0.0
C711 C 0.61039 0.74151 0.90947 0.0
N712 N 0.71808 0.74638 0.89524 0.0
N713 N 0.56835 0.78885 0.93223 0.0
H714 H 0.58304 0.6898 0.89385 0.0
H715 H 0.55288 0.7171 0.91554 0.0
H716 H 0.56297 0.8122 0.94532 0.0
H717 H 0.5426 0.77717 0.92379 0.0
H718 H 0.74319 0.76372 0.89873 0.0
H719 H 0.72266 0.7237 0.88142 0.0
H720 H 0.73898 0.78795 0.93697 0.0
H721 H 0.70778 0.82063 0.95427 0.0
C722 C 0.53831 0.41521 0.15386 0.0
C723 C 0.54942 0.37816 0.14252 0.0
C724 C 0.51558 0.34322 0.17896 0.0
C725 C 0.49822 0.3798 0.18666 0.0
N726 N 0.51226 0.44933 0.19268 0.0
N727 N 0.55585 0.30712 0.1467 0.0
C728 C 0.5159 0.41556 0.17776 0.0
C729 C 0.5408 0.34215 0.15616 0.0
N730 N 0.54628 0.44994 0.1409 0.0
N731 N 0.50927 0.31032 0.1942 0.0
H732 H 0.5769 0.30608 0.13145 0.0
H733 H 0.54748 0.27921 0.1535 0.0
H734 H 0.49456 0.31205 0.21239 0.0
H735 H 0.52195 0.28267 0.19054 0.0
H736 H 0.53441 0.47721 0.14673 0.0
H737 H 0.56247 0.45128 0.12331 0.0
H738 H 0.52687 0.47576 0.18824 0.0
H739 H 0.49885 0.44908 0.21144 0.0
C740 C 0.86718 0.23101 0.41209 0.0
C741 C 0.90382 0.23003 0.42643 0.0
C742 C 0.92332 0.2933 0.40611 0.0
C743 C 0.88774 0.293 0.39098 0.0
N744 N 0.82022 0.27062 0.38694 0.0
N745 N 0.961 0.26542 0.44285 0.0
C746 C 0.85763 0.26512 0.39673 0.0
C747 C 0.92992 0.26311 0.42539 0.0
N748 N 0.84314 0.19828 0.41086 0.0
N749 N 0.95125 0.32185 0.40134 0.0
H750 H 0.96591 0.24395 0.45742 0.0
H751 H 0.97963 0.28999 0.44454 0.0
H752 H 0.94571 0.34593 0.38884 0.0
H753 H 0.97998 0.32116 0.40899 0.0
H754 H 0.81903 0.19602 0.39793 0.0
H755 H 0.84872 0.1718 0.42074 0.0
H756 H 0.79609 0.25311 0.39242 0.0
H757 H 0.81242 0.29548 0.37582 0.0
C758 C 0.01964 0.60328 0.67065 0.0
C759 C 0.03877 0.6401 0.67554 0.0
C760 C 0.98791 0.67331 0.64881 0.0
C761 C 0.97572 0.63585 0.63863 0.0
N762 N 0.97983 0.56417 0.6401 0.0
N763 N 0.04084 0.71134 0.66915 0.0
C764 C 0.99073 0.60041 0.65007 0.0
C765 C 0.02226 0.67569 0.6652 0.0
N766 N 0.02969 0.57104 0.6856 0.0
N767 N 0.96669 0.70659 0.64254 0.0
H768 H 0.06553 0.71494 0.68139 0.0
H769 H 0.03301 0.73715 0.65905 0.0
H770 H 0.94102 0.70539 0.6309 0.0
H771 H 0.97201 0.73435 0.6511 0.0
H772 H 0.01486 0.5439 0.6845 0.0
H773 H 0.05008 0.57317 0.7012 0.0
H774 H 0.99367 0.53772 0.64549 0.0
H775 H 0.9586 0.56056 0.62521 0.0
C776 C 0.65439 0.23649 0.61482 0.0
C777 C 0.61729 0.23643 0.60107 0.0
C778 C 0.5998 0.29983 0.62235 0.0
C779 C 0.63567 0.29845 0.63711 0.0
N780 N 0.70262 0.27449 0.64038 0.0
N781 N 0.56048 0.27316 0.58579 0.0
C782 C 0.665 0.27002 0.63067 0.0
C783 C 0.59199 0.27005 0.6028 0.0
N784 N 0.67791 0.20337 0.61494 0.0
N785 N 0.57263 0.32885 0.62789 0.0
H786 H 0.55473 0.25191 0.57107 0.0
H787 H 0.54234 0.29813 0.58461 0.0
H788 H 0.57901 0.35243 0.64077 0.0
H789 H 0.54374 0.32898 0.62049 0.0
H790 H 0.70243 0.20023 0.62739 0.0
H791 H 0.67161 0.17755 0.60429 0.0
H792 H 0.72631 0.25656 0.63457 0.0
H793 H 0.71098 0.29893 0.65192 0.0
C794 C 0.02174 0.35364 0.84962 0.0
C795 C 0.03905 0.38955 0.84026 0.0
C796 C 0.99442 0.4286 0.86876 0.0
C797 C 0.98011 0.39284 0.88001 0.0
N798 N 0.96868 0.32267 0.87486 0.0
N799 N 0.03067 0.45942 0.83255 0.0
C800 C 0.98997 0.35577 0.86822 0.0
C801 C 0.0212 0.42644 0.84694 0.0
N802 N 0.03693 0.3176 0.84228 0.0
N803 N 0.98491 0.46436 0.88004 0.0
H804 H 0.04986 0.45798 0.81624 0.0
H805 H 0.0166 0.48675 0.83497 0.0
H806 H 0.96512 0.46715 0.89586 0.0
H807 H 0.99839 0.49101 0.8747 0.0
H808 H 0.03027 0.29123 0.8521 0.0
H809 H 0.05653 0.31377 0.82654 0.0
H810 H 0.97183 0.29532 0.86531 0.0
H811 H 0.94488 0.32371 0.88815 0.0
C812 C 0.84861 0.79187 0.11487 0.0
C813 C 0.88188 0.79073 0.09726 0.0
C814 C 0.8966 0.72268 0.11138 0.0
C815 C 0.86617 0.72559 0.1307 0.0
N816 N 0.80399 0.75459 0.14345 0.0
N817 N 0.92789 0.75081 0.07219 0.0
C818 C 0.83875 0.75724 0.12964 0.0
C819 C 0.90247 0.75444 0.09322 0.0
N820 N 0.82855 0.82652 0.11949 0.0
N821 N 0.92106 0.69032 0.11147 0.0
H822 H 0.9319 0.77365 0.05845 0.0
H823 H 0.94193 0.72436 0.06695 0.0
H824 H 0.9156 0.66589 0.12366 0.0
H825 H 0.94695 0.68815 0.10025 0.0
H826 H 0.80801 0.83 0.13479 0.0
H827 H 0.83374 0.85282 0.10934 0.0
H828 H 0.78112 0.77527 0.14186 0.0
H829 H 0.79634 0.72927 0.15417 0.0
C830 C 0.53579 0.62752 0.36629 0.0
C831 C 0.52555 0.60813 0.39043 0.0
C832 C 0.46013 0.59149 0.37247 0.0
C833 C 0.47038 0.60987 0.34799 0.0
N834 N 0.52009 0.63866 0.31963 0.0
N835 N 0.48376 0.56135 0.41316 0.0
C836 C 0.509 0.62573 0.34427 0.0
C837 C 0.4896 0.58663 0.39231 0.0
N838 N 0.57 0.64919 0.36479 0.0
N839 N 0.42161 0.58123 0.37768 0.0
H840 H 0.5054 0.55651 0.42768 0.0
H841 H 0.45958 0.54212 0.4144 0.0
H842 H 0.39828 0.586 0.36444 0.0
H843 H 0.41201 0.57187 0.39634 0.0
H844 H 0.57658 0.66821 0.34911 0.0
H845 H 0.59125 0.64959 0.37986 0.0
H846 H 0.54898 0.64696 0.31485 0.0
H847 H 0.50091 0.63804 0.3033 0.0
C848 C 0.4161 0.28301 0.08961 0.0
C849 C 0.37974 0.2676 0.07985 0.0
C850 C 0.34418 0.31993 0.10449 0.0
C851 C 0.37967 0.32955 0.11829 0.0
N852 N 0.44918 0.31508 0.1264 0.0
N853 N 0.30788 0.27031 0.07936 0.0
C854 C 0.4158 0.31028 0.11123 0.0
C855 C 0.34336 0.2862 0.08721 0.0
N856 N 0.45107 0.27117 0.07831 0.0
N857 N 0.31127 0.34312 0.10789 0.0
H858 H 0.30547 0.24612 0.06652 0.0
H859 H 0.28067 0.27957 0.08701 0.0
H860 H 0.31116 0.36808 0.12031 0.0
H861 H 0.28559 0.33997 0.0965 0.0
H862 H 0.47835 0.28403 0.08304 0.0
H863 H 0.45208 0.25158 0.06215 0.0
H864 H 0.47469 0.29798 0.1238 0.0
H865 H 0.45035 0.33295 0.14331 0.0
C866 C 0.52047 0.58539 0.89075 0.0
C867 C 0.48617 0.60951 0.89131 0.0
C868 C 0.50443 0.63771 0.84798 0.0
C869 C 0.54142 0.61764 0.84939 0.0
N870 N 0.58799 0.57902 0.87538 0.0
N871 N 0.446 0.66091 0.87177 0.0
C872 C 0.55025 0.59286 0.8715 0.0
C873 C 0.47798 0.63606 0.87012 0.0
N874 N 0.52469 0.55551 0.90887 0.0
N875 N 0.49457 0.65802 0.82545 0.0
H876 H 0.42541 0.65941 0.88723 0.0
H877 H 0.44103 0.68431 0.8587 0.0
H878 H 0.51355 0.65999 0.8091 0.0
H879 H 0.4666 0.67022 0.82212 0.0
H880 H 0.54739 0.53453 0.90796 0.0
H881 H 0.5031 0.5493 0.92314 0.0
H882 H 0.59686 0.56429 0.89258 0.0
H883 H 0.61169 0.58607 0.86297 0.0
C884 C 0.16069 0.70799 0.60406 0.0
C885 C 0.1871 0.71865 0.62487 0.0
C886 C 0.18417 0.78843 0.61091 0.0
C887 C 0.15261 0.77867 0.59312 0.0
N888 N 0.11186 0.7294 0.57146 0.0
N889 N 0.22363 0.76887 0.64902 0.0
C890 C 0.14155 0.73836 0.58908 0.0
C891 C 0.19967 0.75865 0.62805 0.0
N892 N 0.15404 0.66864 0.59886 0.0
N893 N 0.19859 0.82638 0.61224 0.0
H894 H 0.23656 0.74816 0.6617 0.0
H895 H 0.22896 0.79805 0.655 0.0
H896 H 0.1859 0.85038 0.60248 0.0
H897 H 0.225 0.83386 0.62182 0.0
H898 H 0.13748 0.65817 0.5828 0.0
H899 H 0.16813 0.64614 0.60955 0.0
H900 H 0.09886 0.70146 0.5697 0.0
H901 H 0.09914 0.75065 0.55902 0.0
C902 C 0.02158 0.45434 0.37675 0.0
C903 C 0.04608 0.42271 0.38511 0.0
C904 C 0.01377 0.37749 0.3535 0.0
C905 C 0.98594 0.40801 0.34751 0.0
N906 N 0.97312 0.47813 0.34472 0.0
N907 N 0.0765 0.36016 0.37449 0.0
C908 C 0.99351 0.44752 0.35611 0.0
C909 C 0.04603 0.38632 0.3709 0.0
N910 N 0.02387 0.49015 0.38956 0.0
N911 N 1.00803 0.33964 0.34437 0.0
H912 H 0.10062 0.36684 0.38674 0.0
H913 H 0.07997 0.33416 0.36341 0.0
H914 H 0.98676 0.33215 0.33021 0.0
H915 H 0.02379 0.31524 0.35143 0.0
H916 H 1.00363 0.51313 0.38674 0.0
H917 H 0.04569 0.49613 0.40382 0.0
H918 H 0.97888 0.50796 0.34877 0.0
H919 H 0.95297 0.47343 0.3292 0.0
C920 C 0.32529 0.7461 0.39339 0.0
C921 C 0.35593 0.71767 0.39111 0.0
C922 C 0.38848 0.74613 0.43065 0.0
C923 C 0.36204 0.77896 0.42967 0.0
N924 N 0.30807 0.81272 0.4071 0.0
N925 N 0.41674 0.68928 0.40741 0.0
C926 C 0.3306 0.77933 0.41062 0.0
C927 C 0.38731 0.71699 0.40996 0.0
N928 N 0.29171 0.74201 0.37836 0.0
N929 N 0.41436 0.7427 0.45148 0.0
H930 H 0.41534 0.66634 0.39337 0.0
H931 H 0.44303 0.6899 0.41832 0.0
H932 H 0.41547 0.76336 0.46702 0.0
H933 H 0.43211 0.71784 0.45461 0.0
H934 H 0.26664 0.75977 0.38085 0.0
H935 H 0.28746 0.71813 0.36535 0.0
H936 H 0.28786 0.81595 0.39156 0.0
H937 H 0.31216 0.83897 0.41779 0.0
C938 C 0.04665 0.62779 0.16274 0.0
C939 C 0.03499 0.61678 0.13659 0.0
C940 C 0.96688 0.6047 0.15189 0.0
C941 C 0.97765 0.61907 0.1776 0.0
N942 N 0.02642 0.64608 0.20769 0.0
N943 N 0.98453 0.59636 0.10537 0.0
C944 C 0.01728 0.63093 0.18313 0.0
C945 C 0.99533 0.60521 0.13101 0.0
N946 N 0.08584 0.63514 0.16794 0.0
N947 N 0.92921 0.59091 0.14731 0.0
H948 H 1.00492 0.59406 0.08983 0.0
H949 H 0.95531 0.59311 0.09901 0.0
H950 H 0.90601 0.59385 0.16087 0.0
H951 H 0.92097 0.57496 0.13039 0.0
H952 H 0.0973 0.64021 0.18688 0.0
H953 H 0.1077 0.63346 0.15328 0.0
H954 H 0.05355 0.65905 0.21249 0.0
H955 H 1.00586 0.64747 0.22319 0.0
C956 C 0.16723 0.26614 0.89439 0.0
C957 C 0.14478 0.30049 0.88898 0.0
C958 C 0.09907 0.28351 0.92524 0.0
C959 C 0.11704 0.24541 0.92696 0.0
N960 N 0.16582 0.19853 0.90986 0.0
N961 N 0.09031 0.34388 0.89948 0.0
C962 C 0.1511 0.23638 0.91114 0.0
C963 C 0.11131 0.31015 0.90483 0.0
N964 N 0.2036 0.26159 0.88277 0.0
N965 N 0.07036 0.29403 0.94313 0.0
H966 H 0.10011 0.36485 0.88576 0.0
H967 H 0.06282 0.35046 0.90786 0.0
H968 H 0.06114 0.27513 0.95834 0.0
H969 H 0.05807 0.32235 0.94436 0.0
H970 H 0.22326 0.23891 0.88777 0.0
H971 H 0.21564 0.28312 0.87023 0.0
H972 H 0.18753 0.18977 0.8963 0.0
H973 H 0.15398 0.17455 0.92014 0.0
C974 C 0.47747 0.37702 0.66213 0.0
C975 C 0.47458 0.41472 0.64988 0.0
C976 C 0.52408 0.44079 0.68095 0.0
C977 C 0.53489 0.40132 0.68756 0.0
N978 N 0.51818 0.33137 0.68743 0.0
N979 N 0.49111 0.4841 0.64934 0.0
C980 C 0.50981 0.36929 0.6797 0.0
C981 C 0.49608 0.44735 0.66027 0.0
N982 N 0.44953 0.34873 0.65665 0.0
N983 N 0.5414 0.47173 0.69427 0.0
H984 H 0.46936 0.48974 0.63501 0.0
H985 H 0.50918 0.50837 0.65376 0.0
H986 H 0.5615 0.46706 0.7098 0.0
H987 H 0.53312 0.50129 0.69178 0.0
H988 H 0.44813 0.32137 0.6662 0.0
H989 H 0.42518 0.35449 0.64442 0.0
H990 H 0.5049 0.30635 0.679 0.0
H991 H 0.53895 0.32469 0.70205 0.0
C992 C 0.24627 0.30346 0.25857 0.0
C993 C 0.28747 0.29457 0.25654 0.0
C994 C 0.27436 0.22862 0.27523 0.0
C995 C 0.23484 0.24018 0.28144 0.0
N996 N 0.18503 0.29186 0.28244 0.0
N997 N 0.34172 0.25044 0.26727 0.0
C998 C 0.22115 0.27843 0.27394 0.0
C999 C 0.30182 0.25752 0.26593 0.0
N1000 N 0.23064 0.33485 0.24494 0.0
N1001 N 0.28542 0.18968 0.27735 0.0
H1002 H 0.36304 0.27125 0.26166 0.0
H1003 H 0.35371 0.22552 0.27652 0.0
H1004 H 0.26569 0.16729 0.28287 0.0
H1005 H 0.31274 0.17903 0.27071 0.0
H1006 H 0.20023 0.34027 0.24372 0.0
H1007 H 0.24746 0.35277 0.23237 0.0
H1008 H 0.17571 0.32115 0.27998 0.0
H1009 H 0.16587 0.275 0.29408 0.0
C1010 C 0.05414 1.00474 0.50143 0.0
C1011 C 0.04076 0.97368 0.51817 0.0
C1012 C 0.97196 0.98646 0.50421 0.0
C1013 C 0.98512 0.01982 0.48928 0.0
N1014 N 0.03811 0.06424 0.4767 0.0
N1015 N 0.98678 0.93782 0.53842 0.0
C1016 C 0.02603 0.03006 0.48884 0.0
C1017 C 0.99962 0.96502 0.52019 0.0
N1018 N 0.09391 1.00902 0.49677 0.0
N1019 N 0.93288 0.97546 0.50331 0.0
H1020 H 1.00605 0.92126 0.55024 0.0
H1021 H 0.95705 0.93347 0.54322 0.0
H1022 H 0.91106 0.99224 0.49383 0.0
H1023 H 0.92228 0.94872 0.51085 0.0
H1024 H 0.10562 0.02829 0.48266 0.0
H1025 H 0.11516 0.99036 0.5052 0.0
H1026 H 0.06678 0.07561 0.47828 0.0
H1027 H 0.01876 0.08322 0.46681 0.0
C1028 C 0.22881 0.74487 0.77485 0.0
C1029 C 0.24629 0.72617 0.75237 0.0
C1030 C 0.31054 0.7562 0.76418 0.0
C1031 C 0.29207 0.77779 0.78511 0.0
N1032 N 0.23069 0.80178 0.80427 0.0
N1033 N 0.3013 0.72397 0.72149 0.0
C1034 C 0.25029 0.77492 0.7886 0.0
C1035 C 0.28645 0.73477 0.74576 0.0
N1036 N 0.19264 0.73278 0.78409 0.0
N1037 N 0.35097 0.75442 0.76245 0.0
H1038 H 0.28406 0.71039 0.70678 0.0
H1039 H 0.32927 0.73272 0.71487 0.0
H1040 H 0.36987 0.7684 0.776 0.0
H1041 H 0.36565 0.73573 0.74911 0.0
H1042 H 0.18066 0.74312 0.80194 0.0
H1043 H 0.17665 0.70936 0.77568 0.0
H1044 H 0.19982 0.80288 0.80553 0.0
H1045 H 0.24483 0.82588 0.81334 0.0
C1046 C 0.466 0.02433 1.0119 0.0
C1047 C 0.47902 0.05196 0.03152 0.0
C1048 C 0.54803 0.03066 0.02461 0.0
C1049 C 0.53527 1.00488 1.0038 0.0
N1050 N 0.48327 0.98182 0.97451 0.0
N1051 N 0.53233 0.08512 0.05474 0.0
C1052 C 0.49452 1.00282 0.99665 0.0
C1053 C 0.52008 0.05637 0.03722 0.0
N1054 N 0.42624 0.01837 1.00802 0.0
N1055 N 0.58659 0.02916 0.03315 0.0
H1056 H 0.51269 0.10329 0.06524 0.0
H1057 H 0.56193 0.09298 0.05759 0.0
H1058 H 0.60775 1.01036 0.02468 0.0
H1059 H 0.59703 0.04392 0.05001 0.0
H1060 H 0.41467 0.99529 0.99652 0.0
H1061 H 0.40453 0.03523 0.0176 0.0
H1062 H 0.45484 0.98286 0.9664 0.0
H1063 H 0.50315 0.96562 0.96285 0.0
C1064 C 0.23782 0.73756 0.2822 0.0
C1065 C 0.27477 0.72315 0.2724 0.0
C1066 C 0.2662 0.76417 0.23265 0.0
C1067 C 0.22632 0.7723 0.24012 0.0
N1068 N 0.17257 0.76298 0.27119 0.0
N1069 N 0.32135 0.71863 0.23588 0.0
C1070 C 0.2117 0.75827 0.2648 0.0
C1071 C 0.28845 0.73556 0.24705 0.0
N1072 N 0.22819 0.73262 0.30839 0.0
N1073 N 0.2834 0.78473 0.21228 0.0
H1074 H 0.33814 0.69674 0.24518 0.0
H1075 H 0.32976 0.72358 0.21621 0.0
H1076 H 0.26882 0.80737 0.20206 0.0
H1077 H 0.31349 0.78258 0.20767 0.0
H1078 H 0.20341 0.74573 0.31718 0.0
H1079 H 0.24726 0.71918 0.32201 0.0
H1080 H 0.15947 0.74946 0.28759 0.0
H1081 H 0.15234 0.77752 0.25889 0.0
C1082 C 0.46716 1.0098 0.51427 0.0
C1083 C 0.48257 0.98151 0.49591 0.0
C1084 C 0.55054 0.99967 0.50917 0.0
C1085 C 0.53508 0.02964 0.52635 0.0
N1086 N 0.47907 0.06766 0.5421 0.0
N1087 N 0.53861 0.95383 0.47251 0.0
C1088 C 0.4935 0.03614 0.52784 0.0
C1089 C 0.52421 0.97743 0.49253 0.0
N1090 N 0.42735 1.0103 0.51964 0.0
N1091 N 0.5905 0.99252 0.50872 0.0
H1092 H 0.52038 0.93704 0.45999 0.0
H1093 H 0.56833 0.95308 0.46689 0.0
H1094 H 0.6111 1.01028 0.51874 0.0
H1095 H 0.6032 0.96791 0.49943 0.0
H1096 H 0.41469 0.02693 0.53495 0.0
H1097 H 0.40712 0.99127 0.51038 0.0
H1098 H 0.44953 0.07672 0.54152 0.0
H1099 H 0.49716 0.08701 0.55284 0.0
C1100 C 0.29133 0.28857 0.78481 0.0
C1101 C 0.25482 0.30196 0.77378 0.0
C1102 C 0.26735 0.26118 0.73409 0.0
C1103 C 0.30649 0.25316 0.74324 0.0
N1104 N 0.35779 0.26439 0.77602 0.0
N1105 N 0.21141 0.30612 0.73553 0.0
C1106 C 0.31905 0.26811 0.76833 0.0
C1107 C 0.2436 0.28955 0.74779 0.0
N1108 N 0.29897 0.29405 0.81129 0.0
N1109 N 0.25206 0.24053 0.71293 0.0
H1110 H 0.19366 0.32776 0.74441 0.0
H1111 H 0.20468 0.30121 0.71553 0.0
H1112 H 0.26758 0.21802 0.70312 0.0
H1113 H 0.22242 0.24253 0.70712 0.0
H1114 H 0.32335 0.28153 0.8209 0.0
H1115 H 0.27876 0.30736 0.82427 0.0
H1116 H 0.3694 0.27846 0.79283 0.0
H1117 H 0.37925 0.25041 0.76434 0.0
C1118 C 0.98997 0.04326 0.99325 0.0
C1119 C 0.03145 0.03932 0.99762 0.0
C1120 C 0.01884 0.98707 0.03069 0.0
C1121 C 0.97743 0.99381 0.02815 0.0
N1122 N 0.92305 0.03025 1.00884 0.0
N1123 N 0.08556 0.01176 0.02303 0.0
C1124 C 0.96288 0.02254 1.00996 0.0
C1125 C 0.04597 0.01213 0.0169 0.0
N1126 N 0.9765 0.06536 0.97235 0.0
N1127 N 0.03224 0.95677 0.04636 0.0
H1128 H 0.10625 0.03019 0.01381 0.0
H1129 H 0.09756 0.99585 0.03883 0.0
H1130 H 0.01339 0.93878 0.05751 0.0
H1131 H 0.06169 0.9474 0.04678 0.0
H1132 H 0.94697 0.06593 0.96621 0.0
H1133 H 0.99538 0.08074 0.95963 0.0
H1134 H 0.9109 0.05421 0.99863 0.0
H1135 H 0.90208 0.01379 0.01934 0.0
C1136 C 0.73771 0.78596 0.74211 0.0
C1137 C 0.77564 0.79942 0.75078 0.0
C1138 C 0.76872 0.75886 0.7909 0.0
C1139 C 0.72829 0.75126 0.78444 0.0
N1140 N 0.6725 0.76316 0.75528 0.0
N1141 N 0.82425 0.80374 0.78616 0.0
C1142 C 0.71226 0.76615 0.76034 0.0
C1143 C 0.79048 0.78714 0.77588 0.0
N1144 N 0.72647 0.79074 0.71617 0.0
N1145 N 0.78695 0.738 0.81073 0.0
H1146 H 0.84056 0.82554 0.77639 0.0
H1147 H 0.83378 0.79876 0.8056 0.0
H1148 H 0.77282 0.71542 0.82126 0.0
H1149 H 0.81732 0.73985 0.81453 0.0
H1150 H 0.70073 0.77817 0.70826 0.0
H1151 H 0.74497 0.80329 0.70185 0.0
H1152 H 0.6588 0.77726 0.73929 0.0
H1153 H 0.65254 0.74993 0.76836 0.0
C1154 C 0.73666 0.2421 0.2673 0.0
C1155 C 0.7524 0.22692 0.24308 0.0
C1156 C 0.81725 0.25633 0.25414 0.0
C1157 C 0.80062 0.27387 0.2773 0.0
N1158 N 0.74132 0.29326 0.30108 0.0
N1159 N 0.80457 0.22945 0.21017 0.0
C1160 C 0.75934 0.26973 0.28243 0.0
C1161 C 0.79181 0.23701 0.2355 0.0
N1162 N 0.70105 0.22881 0.27678 0.0
N1163 N 0.85742 0.25644 0.2504 0.0
H1164 H 0.78626 0.21711 0.19555 0.0
H1165 H 0.8317 0.23952 0.20288 0.0
H1166 H 0.87723 0.26942 0.26383 0.0
H1167 H 0.87131 0.24038 0.23527 0.0
H1168 H 0.69068 0.2358 0.29577 0.0
H1169 H 0.68365 0.20777 0.267 0.0
H1170 H 0.71064 0.29402 0.30375 0.0
H1171 H 0.75634 0.31536 0.31168 0.0
C1172 C 0.74305 0.23531 0.7887 0.0
C1173 C 0.77869 0.22004 0.77748 0.0
C1174 C 0.76555 0.25802 0.73686 0.0
C1175 C 0.72705 0.26791 0.74645 0.0
N1176 N 0.6768 0.26015 0.78028 0.0
N1177 N 0.82042 0.21174 0.73876 0.0
C1178 C 0.71516 0.25513 0.77211 0.0
C1179 C 0.78915 0.2301 0.751 0.0
N1180 N 0.73638 0.23217 0.81544 0.0
N1181 N 0.78042 0.27648 0.71483 0.0
H1182 H 0.83799 0.19043 0.74805 0.0
H1183 H 0.82649 0.21487 0.71855 0.0
H1184 H 0.76507 0.29859 0.70462 0.0
H1185 H 0.80971 0.27314 0.70855 0.0
H1186 H 0.71276 0.24613 0.82504 0.0
H1187 H 0.75681 0.21941 0.82847 0.0
H1188 H 0.66561 0.24761 0.79765 0.0
H1189 H 0.65507 0.27344 0.76851 0.0
C1190 C 0.78574 0.78996 0.28937 0.0
C1191 C 0.75248 0.80979 0.27814 0.0
C1192 C 0.76571 0.77691 0.23542 0.0
C1193 C 0.80221 0.76198 0.24555 0.0
N1194 N 0.84993 0.75975 0.2814 0.0
N1195 N 0.71522 0.82778 0.23889 0.0
C1196 C 0.81302 0.76986 0.27238 0.0
C1197 C 0.74357 0.80477 0.25073 0.0
N1198 N 0.79057 0.78908 0.31638 0.0
N1199 N 0.75109 0.76318 0.21171 0.0
H1200 H 0.69892 0.84928 0.24913 0.0
H1201 H 0.71068 0.82825 0.21838 0.0
H1202 H 0.76507 0.7411 0.20053 0.0
H1203 H 0.72287 0.77033 0.2047 0.0
H1204 H 0.81204 0.7718 0.32577 0.0
H1205 H 0.77051 0.80221 0.32955 0.0
H1206 H 0.86082 0.76855 0.29993 0.0
H1207 H 0.87116 0.74588 0.26947 0.0
C1208 C 0.50042 0.47279 0.03443 0.0
C1209 C 0.54153 0.47456 0.02832 0.0
C1210 C 0.5288 0.52794 0.99615 0.0
C1211 C 0.48741 0.52365 1.00052 0.0
N1212 N 0.43296 0.48984 0.02183 0.0
N1213 N 0.59459 0.49936 1.00082 0.0
C1214 C 0.47298 0.49534 0.01905 0.0
C1215 C 0.5557 0.50113 1.00859 0.0
N1216 N 0.4878 0.45103 0.05574 0.0
N1217 N 0.54243 0.55769 0.98011 0.0
H1218 H 0.61505 0.47975 1.00916 0.0
H1219 H 0.60594 0.51472 0.98459 0.0
H1220 H 0.52364 0.57701 0.96993 0.0
H1221 H 0.57228 0.56525 0.97837 0.0
H1222 H 0.45893 0.45195 0.0631 0.0
H1223 H 0.50694 0.43434 0.06759 0.0
H1224 H 0.42051 0.4664 0.0324 0.0
H1225 H 0.41192 0.50753 1.01229 0.0
C1226 C 0.03853 0.50251 0.52511 0.0
C1227 C 0.0309 0.49538 0.49769 0.0
C1228 C 0.97072 0.53678 0.50029 0.0
C1229 C 0.97678 0.54146 0.5281 0.0
N1230 N 0.01434 0.52655 0.56773 0.0
N1231 N 0.98747 0.50109 0.45974 0.0
C1232 C 1.01001 0.52349 0.54073 0.0
C1233 C 0.99647 0.51147 0.4854 0.0
N1234 N 0.07405 0.49109 0.53588 0.0
N1235 N 0.94028 0.55654 0.4881 0.0
H1236 H 1.00543 0.48256 0.44826 0.0
H1237 H 0.9608 0.50803 0.45039 0.0
H1238 H 0.91944 0.57345 0.49847 0.0
H1239 H 0.93698 0.55839 0.46755 0.0
H1240 H 0.08355 0.49932 0.55483 0.0
H1241 H 0.0957 0.4758 0.52513 0.0
H1242 H 0.0347 0.51 0.57864 0.0
H1243 H 0.99614 0.54434 0.57961 0.0
C1244 C 0.04671 0.51813 0.99523 0.0
C1245 C 0.0391 0.52331 0.02281 0.0
C1246 C 0.97775 0.48397 0.01849 0.0
C1247 C 0.987 0.47627 0.9914 0.0
N1248 N 0.03318 0.48038 0.9549 0.0
N1249 N 1.00014 0.50762 0.06166 0.0
C1250 C 0.02222 0.49198 0.97998 0.0
C1251 C 1.00548 0.50504 0.03473 0.0
N1252 N 0.0774 0.53819 0.98361 0.0
N1253 N 0.9416 0.4729 0.02838 0.0
H1254 H 0.01832 0.52465 0.07407 0.0
H1255 H 0.97917 0.49102 0.072 0.0
H1256 H 0.9205 0.45747 0.01718 0.0
H1257 H 0.93108 0.48167 0.04697 0.0
H1258 H 0.08182 0.53938 0.96313 0.0
H1259 H 0.09706 0.55611 0.99431 0.0
H1260 H 0.06043 0.48733 0.94636 0.0
H1261 H 0.01649 0.46065 0.94336 0.0
C1262 C 0.5484 0.51544 0.52199 0.0
C1263 C 0.53171 0.54441 0.50484 0.0
C1264 C 0.46492 0.52705 0.52071 0.0
C1265 C 0.48148 0.49582 0.53613 0.0
N1266 N 0.53831 0.45654 0.54874 0.0
N1267 N 0.47396 0.57474 0.48513 0.0
C1268 C 0.52303 0.48882 0.53588 0.0
C1269 C 0.48992 0.54965 0.5036 0.0
N1270 N 0.58861 0.51459 0.52589 0.0
N1271 N 0.42518 0.53505 0.52234 0.0
H1272 H 0.49119 0.5923 0.47264 0.0
H1273 H 0.44376 0.57626 0.48082 0.0
H1274 H 0.40531 0.51732 0.53287 0.0
H1275 H 0.41208 0.56039 0.5144 0.0
H1276 H 0.60246 0.49708 0.54017 0.0
H1277 H 0.608 0.53435 0.51663 0.0
H1278 H 0.56765 0.44725 0.54679 0.0
H1279 H 0.52095 0.43698 0.55973 0.0
C1280 C 0.17918 0.04937 0.24346 0.0
C1281 C 0.17081 0.0509 0.27114 0.0
C1282 C 0.17318 0.97816 0.27225 0.0
C1283 C 0.17204 0.9769 0.244 0.0
N1284 N 0.17066 0.01278 0.20235 0.0
N1285 N 0.1562 0.0155 0.31182 0.0
C1286 C 0.17487 0.01284 0.2294 0.0
C1287 C 0.16749 0.01499 0.28571 0.0
N1288 N 0.19144 0.08292 0.23065 0.0
N1289 N 0.18008 0.94413 0.28624 0.0
H1290 H 0.15081 0.04149 0.32254 0.0
H1291 H 0.1489 0.98983 0.32226 0.0
H1292 H 0.18578 0.91694 0.27693 0.0
H1293 H 0.18464 0.94388 0.30676 0.0
H1294 H 0.2013 0.08286 0.211 0.0
H1295 H 0.19597 0.10984 0.24062 0.0
H1296 H 0.16795 0.03875 0.19127 0.0
H1297 H 0.16642 0.9871 0.19109 0.0
C1298 C 0.2417 0.95876 0.5093 0.0
C1299 C 0.22921 0.92857 0.52706 0.0
C1300 C 0.29228 0.89343 0.52069 0.0
C1301 C 0.30561 0.92447 0.50382 0.0
N1302 N 0.29633 0.98997 0.48569 0.0
N1303 N 0.24505 0.87128 0.55372 0.0
C1304 C 0.28123 0.95814 0.49913 0.0
C1305 C 0.25547 0.89743 0.53419 0.0
N1306 N 0.21544 0.98756 0.5018 0.0
N1307 N 0.31348 0.85885 0.52248 0.0
H1308 H 0.21773 0.87215 0.56333 0.0
H1309 H 0.26469 0.85089 0.56202 0.0
H1310 H 0.34013 0.85394 0.51248 0.0
H1311 H 0.30292 0.8334 0.53182 0.0
H1312 H 0.22081 1.00763 0.48651 0.0
H1313 H 0.18725 0.99018 0.51021 0.0
H1314 H 0.28159 0.017 0.48385 0.0
H1315 H 0.32514 0.99046 0.47808 0.0
C1316 C 0.3646 0.04811 0.77978 0.0
C1317 C 0.3409 0.05333 0.75667 0.0
C1318 C 0.31965 0.98364 0.75917 0.0
C1319 C 0.34212 0.97906 0.78297 0.0
N1320 N 0.37692 1.01025 0.81965 0.0
N1321 N 0.29068 0.02865 0.72675 0.0
C1322 C 0.36144 0.01241 0.79456 0.0
C1323 C 0.31688 0.02179 0.74702 0.0
N1324 N 0.39219 0.0762 0.78672 0.0
N1325 N 0.30114 0.95136 0.74814 0.0
H1326 H 0.28817 0.05616 0.71741 0.0
H1327 H 0.26941 1.00819 0.72048 0.0
H1328 H 0.29948 0.92395 0.75771 0.0
H1329 H 0.28863 0.95124 0.72918 0.0
H1330 H 0.41342 0.07185 0.80151 0.0
H1331 H 0.39686 0.10215 0.77592 0.0
H1332 H 0.38774 0.03491 0.82998 0.0
H1333 H 0.37505 0.985 0.8314 0.0
C1334 C 0.26014 0.14127 0.03669 0.0
C1335 C 0.28806 0.11086 0.031 0.0
C1336 C 0.23742 0.07491 1.00498 0.0
C1337 C 0.21109 0.10746 1.00833 0.0
N1338 N 0.20053 0.1753 0.02264 0.0
N1339 N 0.30492 0.04999 1.00822 0.0
C1340 C 0.22315 0.14152 0.02309 0.0
C1341 C 0.27715 0.07802 0.01466 0.0
N1342 N 0.26896 0.17025 0.05492 0.0
N1343 N 0.22402 0.04061 0.99337 0.0
H1344 H 0.33343 0.04995 0.01634 0.0
H1345 H 0.30045 0.028 0.99388 0.0
H1346 H 0.19514 0.0374 0.98615 0.0
H1347 H 0.24035 0.01436 0.99275 0.0
H1348 H 0.24801 0.19033 0.06216 0.0
H1349 H 0.29625 0.17232 0.06461 0.0
H1350 H 0.20994 0.20239 0.03051 0.0
H1351 H 0.17412 0.17767 1.01192 0.0
C1352 C 0.88871 0.02997 0.76447 0.0
C1353 C 0.85328 0.04724 0.77462 0.0
C1354 C 0.81616 0.98682 0.76256 0.0
C1355 C 0.85091 0.97104 0.75054 0.0
N1356 N 0.91953 0.97824 0.73789 0.0
N1357 N 0.78243 0.04471 0.78081 0.0
C1358 C 0.88693 0.99292 0.75081 0.0
C1359 C 0.81675 0.02628 0.77312 0.0
N1360 N 0.92446 0.04815 0.76901 0.0
N1361 N 0.78283 0.96376 0.76427 0.0
H1362 H 0.78189 0.07334 0.78885 0.0
H1363 H 0.75425 0.03291 0.77758 0.0
H1364 H 0.78099 0.93539 0.75588 0.0
H1365 H 0.75792 0.97157 0.77535 0.0
H1366 H 0.95178 0.035 0.76501 0.0
H1367 H 0.92726 0.07526 0.77893 0.0
H1368 H 0.94506 0.99477 0.73422 0.0
H1369 H 0.92025 0.95003 0.7293 0.0
C1370 C 0.74044 0.05606 0.52257 0.0
C1371 C 0.71802 0.09172 0.5213 0.0
C1372 C 0.77056 0.12304 0.49481 0.0
C1373 C 0.79436 0.08859 0.49791 0.0
N1374 N 0.80459 0.02394 0.51711 0.0
N1375 N 0.71496 0.16169 0.51109 0.0
C1376 C 0.78006 0.05554 0.51253 0.0
C1377 C 0.73387 0.12586 0.50862 0.0
N1378 N 0.72336 0.0224 0.53252 0.0
N1379 N 0.783 0.1532 0.47866 0.0
H1380 H 0.68873 0.16546 0.52182 0.0
H1381 H 0.72718 0.18849 0.50484 0.0
H1382 H 0.81041 0.1532 0.46904 0.0
H1383 H 0.7649 0.17683 0.47308 0.0
H1384 H 0.73647 0.99443 0.53147 0.0
H1385 H 0.69457 0.02188 0.54016 0.0
H1386 H 0.79773 1.00092 0.53009 0.0
H1387 H 0.83307 0.02189 0.50905 0.0
C1388 C 0.70656 0.03022 0.24379 0.0
C1389 C 0.6787 0.05995 0.25115 0.0
C1390 C 0.65572 0.01815 0.28793 0.0
C1391 C 0.67904 0.98622 0.27811 0.0
N1392 N 0.72593 0.96084 0.24601 0.0
N1393 N 0.62085 0.07851 0.27683 0.0
C1394 C 0.70423 0.99197 0.25578 0.0
C1395 C 0.65184 0.05305 0.27242 0.0
N1396 N 0.73626 0.03899 0.22625 0.0
N1397 N 0.63713 0.01541 0.312 0.0
H1398 H 0.61532 0.1034 0.26513 0.0
H1399 H 0.59797 0.07252 0.29016 0.0
H1400 H 0.63946 0.99074 0.32428 0.0
H1401 H 0.62301 0.0394 0.32113 0.0
H1402 H 0.7598 0.01989 0.22213 0.0
H1403 H 0.73946 0.06689 0.21754 0.0
H1404 H 0.7408 0.96164 0.22786 0.0
H1405 H 0.72761 0.93341 0.25555 0.0
C1406 C 0.72804 0.9085 0.02757 0.0
C1407 C 0.71317 0.94167 0.01334 0.0
C1408 C 0.77546 0.97772 0.0216 0.0
C1409 C 0.78923 0.94537 0.0371 0.0
N1410 N 0.77605 0.88322 0.05915 0.0
N1411 N 0.71951 1.01009 1.0001 0.0
C1412 C 0.76453 0.91192 0.04158 0.0
C1413 C 0.73599 0.977 1.01126 0.0
N1414 N 0.70854 0.87283 0.02635 0.0
N1415 N 0.80046 1.00869 0.01635 0.0
H1416 H 0.69082 1.0104 0.99224 0.0
H1417 H 0.73299 0.03794 1.00035 0.0
H1418 H 0.82863 1.01104 0.02488 0.0
H1419 H 0.79416 0.03094 1.00266 0.0
H1420 H 0.72021 0.84646 0.03378 0.0
H1421 H 0.6824 0.8685 0.01558 0.0
H1422 H 0.75745 0.86043 0.06549 0.0
H1423 H 0.80302 0.8841 0.06931 0.0
C1424 C 0.70792 0.50051 0.75035 0.0
C1425 C 0.68225 0.47002 0.75941 0.0
C1426 C 0.65941 0.51344 0.79569 0.0
C1427 C 0.68057 0.54575 0.78446 0.0
N1428 N 0.72483 0.5707 0.75074 0.0
N1429 N 0.62713 0.45052 0.78718 0.0
C1430 C 0.70483 0.53941 0.76165 0.0
C1431 C 0.65643 0.4772 0.78124 0.0
N1432 N 0.73607 0.49197 0.7316 0.0
N1433 N 0.64205 0.51704 0.82013 0.0
H1434 H 0.62229 0.4245 0.7763 0.0
H1435 H 0.60475 0.45629 0.80097 0.0
H1436 H 0.64393 0.54263 0.83171 0.0
H1437 H 0.62963 0.49311 0.83024 0.0
H1438 H 0.7584 0.51166 0.72608 0.0
H1439 H 0.73905 0.46387 0.72298 0.0
H1440 H 0.73882 0.56944 0.73229 0.0
H1441 H 0.72617 0.59865 0.75979 0.0
C1442 C 0.78434 0.43513 0.01403 0.0
C1443 C 0.79546 0.40586 0.99497 0.0
C1444 C 0.7313 0.37259 1.00072 0.0
C1445 C 0.71884 0.40354 0.01812 0.0
N1446 N 0.73089 0.46754 0.03827 0.0
N1447 N 0.77694 0.35083 0.96651 0.0
C1448 C 0.74469 0.43573 0.02401 0.0
C1449 C 0.768 0.37608 0.98703 0.0
N1450 N 0.81179 0.46219 0.02273 0.0
N1451 N 0.70931 0.33851 0.9986 0.0
H1452 H 0.80406 0.35108 0.95656 0.0
H1453 H 0.75622 0.33173 0.95786 0.0
H1454 H 0.68317 0.33376 1.00922 0.0
H1455 H 0.71908 0.31318 0.98856 0.0
H1456 H 0.80714 0.48117 0.03885 0.0
H1457 H 0.84024 0.46425 0.01466 0.0
H1458 H 0.74683 0.49378 0.04091 0.0
H1459 H 0.70206 0.46899 0.04576 0.0
C1460 C 0.85085 0.51189 0.29357 0.0
C1461 C 0.8518 0.47668 0.27794 0.0
C1462 C 0.85029 0.51644 0.23715 0.0
C1463 C 0.84855 0.5518 0.25277 0.0
N1464 N 0.83247 0.58139 0.29525 0.0
N1465 N 0.83777 0.44559 0.23566 0.0
C1466 C 0.84394 0.54888 0.28082 0.0
C1467 C 0.84657 0.47908 0.24998 0.0
N1468 N 0.85906 0.51073 0.32018 0.0
N1469 N 0.85833 0.51778 0.21052 0.0
H1470 H 0.83363 0.41797 0.24463 0.0
H1471 H 0.83013 0.44617 0.21556 0.0
H1472 H 0.86247 0.54389 0.19992 0.0
H1473 H 0.86448 0.49244 0.19925 0.0
H1474 H 0.86314 0.53627 0.33168 0.0
H1475 H 0.86521 0.48458 0.3304 0.0
H1476 H 0.82549 0.58009 0.31543 0.0
H1477 H 0.82547 0.60848 0.28637 0.0
C1478 C 0.73115 0.57065 0.51027 0.0
C1479 C 0.7126 0.60721 0.50378 0.0
C1480 C 0.76964 0.64405 0.52149 0.0
C1481 C 0.78963 0.60761 0.52603 0.0
N1482 N 0.79202 0.53628 0.52245 0.0
N1483 N 0.71668 0.67835 0.4985 0.0
C1484 C 0.77107 0.57083 0.51986 0.0
C1485 C 0.73257 0.64382 0.50808 0.0
N1486 N 0.71024 0.536 0.50788 0.0
N1487 N 0.78555 0.67888 0.53079 0.0
H1488 H 0.68962 0.67949 0.48841 0.0
H1489 H 0.73191 0.70528 0.49833 0.0
H1490 H 0.81262 0.68033 0.54086 0.0
H1491 H 0.77031 0.7058 0.53079 0.0
H1492 H 0.72033 0.50877 0.51494 0.0
H1493 H 0.68147 0.53489 0.50019 0.0
H1494 H 0.78189 0.50881 0.51566 0.0
H1495 H 0.82087 0.53545 0.53002 0.0
C1496 C 0.30662 0.52829 0.26211 0.0
C1497 C 0.34191 0.55136 0.26097 0.0
C1498 C 0.36843 0.50651 0.22669 0.0
C1499 C 0.33523 0.48107 0.2299 0.0
N1500 N 0.27541 0.46442 0.25378 0.0
N1501 N 0.41014 0.55703 0.24661 0.0
C1502 C 0.30495 0.49106 0.24843 0.0
C1503 C 0.37388 0.53896 0.24448 0.0
N1504 N 0.27416 0.54254 0.27536 0.0
N1505 N 0.39409 0.50053 0.20599 0.0
H1506 H 0.41606 0.57973 0.26026 0.0
H1507 H 0.43545 0.5466 0.23696 0.0
H1508 H 0.39006 0.47803 0.19188 0.0
H1509 H 0.41668 0.52037 0.20116 0.0
H1510 H 0.24632 0.52911 0.27443 0.0
H1511 H 0.27409 0.56968 0.28545 0.0
H1512 H 0.25515 0.46812 0.26925 0.0
H1513 H 0.273 0.43697 0.24422 0.0
C1514 C 0.28298 0.5503 0.01321 0.0
C1515 C 0.30192 0.58623 1.00571 0.0
C1516 C 0.24462 0.62457 0.02146 0.0
C1517 C 0.2241 0.58855 0.02654 0.0
N1518 N 0.22151 0.51706 0.02535 0.0
N1519 N 0.30016 0.65744 1.00027 0.0
C1520 C 0.24275 0.55131 0.02206 0.0
C1521 C 0.28252 0.62333 1.00913 0.0
N1522 N 0.30369 0.5154 1.01219 0.0
N1523 N 0.22845 0.65999 0.02943 0.0
H1524 H 0.32866 0.65819 0.99219 0.0
H1525 H 0.28564 0.68468 0.9992 0.0
H1526 H 0.20087 0.66216 0.03874 0.0
H1527 H 0.24368 0.6869 0.02913 0.0
H1528 H 0.29325 0.48877 0.01999 0.0
H1529 H 0.33266 0.51356 1.00496 0.0
H1530 H 0.23176 0.48909 0.01969 0.0
H1531 H 0.19232 0.51684 0.0323 0.0
C1532 C 0.14455 0.48535 0.75153 0.0
C1533 C 0.17677 0.47351 0.76794 0.0
C1534 C 0.20724 0.5393 0.76254 0.0
C1535 C 0.17663 0.54974 0.7444 0.0
N1536 N 0.12024 0.53015 0.71772 0.0
N1537 N 0.242 0.48653 0.78575 0.0
C1538 C 0.14676 0.52182 0.73752 0.0
C1539 C 0.20905 0.49978 0.77259 0.0
N1540 N 0.11059 0.46302 0.75068 0.0
N1541 N 0.23429 0.5673 0.77038 0.0
H1542 H 0.24438 0.45778 0.79326 0.0
H1543 H 0.26817 0.50284 0.78737 0.0
H1544 H 0.23518 0.59581 0.76233 0.0
H1545 H 0.25438 0.56305 0.78588 0.0
H1546 H 0.0846 0.47235 0.74137 0.0
H1547 H 0.10676 0.43712 0.7617 0.0
H1548 H 0.10066 0.50917 0.70987 0.0
H1549 H 0.12009 0.55695 0.70744 0.0
C1550 C 0.24015 0.46395 0.50989 0.0
C1551 C 0.21945 0.42729 0.50792 0.0
C1552 C 0.27398 0.39334 0.53093 0.0
C1553 C 0.29607 0.42924 0.53099 0.0
N1554 N 0.3029 0.49769 0.51798 0.0
N1555 N 0.22001 0.35574 0.51131 0.0
C1556 C 0.27994 0.4643 0.51969 0.0
C1557 C 0.2372 0.39162 0.51712 0.0
N1558 N 0.22131 0.4985 0.50329 0.0
N1559 N 0.28811 0.36079 0.54412 0.0
H1560 H 0.19379 0.35296 0.50039 0.0
H1561 H 0.23367 0.32853 0.5149 0.0
H1562 H 0.31558 0.36023 0.5537 0.0
H1563 H 0.27125 0.33534 0.54745 0.0
H1564 H 0.23315 0.5266 0.50689 0.0
H1565 H 0.19235 0.49922 0.49591 0.0
H1566 H 0.29468 0.52285 0.50733 0.0
H1567 H 0.33146 0.49936 0.52597 0.0
loop_
_geom_bond_atom_site_label_1
_geom_bond_atom_site_label_2
_geom_bond_distance
_geom_bond_site_symmetry_2
_ccdc_geom_bond_type
Mg0 O7 2.141 . S
Mg0 O8 2.048 . S
Mg0 O9 2.048 . S
Mg0 O12 2.141 . S
C1 O2 1.313 . S
C1 O8 1.195 . S
O2 C1 1.313 . S
C3 O4 1.245 . S
C3 O12 1.289 . S
O4 C3 1.245 . S
C5 O6 1.245 . S
C5 O7 1.289 . S
O6 C5 1.245 . S
O7 Mg0 2.141 . S
O7 C5 1.289 . S
O8 Mg0 2.048 . S
O8 C1 1.195 . S
O9 Mg0 2.048 . S
O9 C10 1.195 . S
C10 O9 1.195 . S
C10 O11 1.313 . S
O11 C10 1.313 . S
O12 Mg0 2.141 . S
O12 C3 1.289 . S
Mg13 O20 2.141 . S
Mg13 O21 2.048 . S
Mg13 O22 2.048 . S
Mg13 O25 2.141 . S
C14 O15 1.313 . S
C14 O21 1.195 . S
O15 C14 1.313 . S
C16 O17 1.245 . S
C16 O25 1.289 . S
O17 C16 1.245 . S
C18 O19 1.245 . S
C18 O20 1.289 . S
O19 C18 1.245 . S
O20 Mg13 2.141 . S
O20 C18 1.289 . S
O21 Mg13 2.048 . S
O21 C14 1.195 . S
O22 Mg13 2.048 . S
O22 C23 1.195 . S
C23 O22 1.195 . S
C23 O24 1.313 . S
O24 C23 1.313 . S
O25 Mg13 2.141 . S
O25 C16 1.289 . S
Mg26 O33 2.141 . S
Mg26 O34 2.048 . S
Mg26 O35 2.048 . S
Mg26 O38 2.141 . S
C27 O28 1.313 . S
C27 O34 1.195 . S
O28 C27 1.313 . S
C29 O30 1.245 . S
C29 O38 1.289 . S
O30 C29 1.245 . S
C31 O32 1.245 . S
C31 O33 1.289 . S
O32 C31 1.245 . S
O33 Mg26 2.141 . S
O33 C31 1.289 . S
O34 Mg26 2.048 . S
O34 C27 1.195 . S
O35 Mg26 2.048 . S
O35 C36 1.195 . S
C36 O35 1.195 . S
C36 O37 1.313 . S
O37 C36 1.313 . S
O38 Mg26 2.141 . S
O38 C29 1.289 . S
Mg39 O46 2.141 . S
Mg39 O47 2.048 . S
Mg39 O48 2.048 . S
Mg39 O51 2.141 . S
C40 O41 1.313 . S
C40 O47 1.195 . S
O41 C40 1.313 . S
C42 O43 1.245 . S
C42 O51 1.289 . S
O43 C42 1.245 . S
C44 O45 1.245 . S
C44 O46 1.289 . S
O45 C44 1.245 . S
O46 Mg39 2.141 . S
O46 C44 1.289 . S
O47 Mg39 2.048 . S
O47 C40 1.195 . S
O48 Mg39 2.048 . S
O48 C49 1.195 . S
C49 O48 1.195 . S
C49 O50 1.313 . S
O50 C49 1.313 . S
O51 Mg39 2.141 . S
O51 C42 1.289 . S
Mg52 O59 2.141 . S
Mg52 O60 2.048 . S
Mg52 O61 2.048 . S
Mg52 O64 2.141 . S
C53 O54 1.313 . S
C53 O60 1.195 . S
O54 C53 1.313 . S
C55 O56 1.245 . S
C55 O64 1.289 . S
O56 C55 1.245 . S
C57 O58 1.245 . S
C57 O59 1.289 . S
O58 C57 1.245 . S
O59 Mg52 2.141 . S
O59 C57 1.289 . S
O60 Mg52 2.048 . S
O60 C53 1.195 . S
O61 Mg52 2.048 . S
O61 C62 1.195 . S
C62 O61 1.195 . S
C62 O63 1.313 . S
O63 C62 1.313 . S
O64 Mg52 2.141 . S
O64 C55 1.289 . S
Mg65 O72 2.141 . S
Mg65 O73 2.048 . S
Mg65 O74 2.048 . S
Mg65 O77 2.141 . S
C66 O67 1.313 . S
C66 O73 1.195 . S
O67 C66 1.313 . S
C68 O69 1.245 . S
C68 O77 1.289 . S
O69 C68 1.245 . S
C70 O71 1.245 . S
C70 O72 1.289 . S
O71 C70 1.245 . S
O72 Mg65 2.141 . S
O72 C70 1.289 . S
O73 Mg65 2.048 . S
O73 C66 1.195 . S
O74 Mg65 2.048 . S
O74 C75 1.195 . S
C75 O74 1.195 . S
C75 O76 1.313 . S
O76 C75 1.313 . S
O77 Mg65 2.141 . S
O77 C68 1.289 . S
Mg78 O85 2.141 . S
Mg78 O86 2.048 . S
Mg78 O87 2.048 . S
Mg78 O90 2.141 . S
C79 O80 1.313 . S
C79 O86 1.195 . S
O80 C79 1.313 . S
C81 O82 1.245 . S
C81 O90 1.289 . S
O82 C81 1.245 . S
C83 O84 1.245 . S
C83 O85 1.289 . S
O84 C83 1.245 . S
O85 Mg78 2.141 . S
O85 C83 1.289 . S
O86 Mg78 2.048 . S
O86 C79 1.195 . S
O87 Mg78 2.048 . S
O87 C88 1.195 . S
C88 O87 1.195 . S
C88 O89 1.313 . S
O89 C88 1.313 . S
O90 Mg78 2.141 . S
O90 C81 1.289 . S
Mg91 O98 2.141 . S
Mg91 O99 2.048 . S
Mg91 O100 2.048 . S
Mg91 O103 2.141 . S
C92 O93 1.313 . S
C92 O99 1.195 . S
O93 C92 1.313 . S
C94 O95 1.245 . S
C94 O103 1.289 . S
O95 C94 1.245 . S
C96 O97 1.245 . S
C96 O98 1.289 . S
O97 C96 1.245 . S
O98 Mg91 2.141 . S
O98 C96 1.289 . S
O99 Mg91 2.048 . S
O99 C92 1.195 . S
O100 Mg91 2.048 . S
O100 C101 1.195 . S
C101 O100 1.195 . S
C101 O102 1.313 . S
O102 C101 1.313 . S
O103 Mg91 2.141 . S
O103 C94 1.289 . S
Mg104 O111 2.141 . S
Mg104 O112 2.048 . S
Mg104 O113 2.048 . S
Mg104 O116 2.141 . S
C105 O106 1.313 . S
C105 O112 1.195 . S
O106 C105 1.313 . S
C107 O108 1.245 . S
C107 O116 1.289 . S
O108 C107 1.245 . S
C109 O110 1.245 . S
C109 O111 1.289 . S
O110 C109 1.245 . S
O111 Mg104 2.141 . S
O111 C109 1.289 . S
O112 Mg104 2.048 . S
O112 C105 1.195 . S
O113 Mg104 2.048 . S
O113 C114 1.195 . S
C114 O113 1.195 . S
C114 O115 1.313 . S
O115 C114 1.313 . S
O116 Mg104 2.141 . S
O116 C107 1.289 . S
Mg117 O124 2.141 . S
Mg117 O125 2.048 . S
Mg117 O126 2.048 . S
Mg117 O129 2.141 . S
C118 O119 1.313 . S
C118 O125 1.195 . S
O119 C118 1.313 . S
C120 O121 1.245 . S
C120 O129 1.289 . S
O121 C120 1.245 . S
C122 O123 1.245 . S
C122 O124 1.289 . S
O123 C122 1.245 . S
O124 Mg117 2.141 . S
O124 C122 1.289 . S
O125 Mg117 2.048 . S
O125 C118 1.195 . S
O126 Mg117 2.048 . S
O126 C127 1.195 . S
C127 O126 1.195 . S
C127 O128 1.313 . S
O128 C127 1.313 . S
O129 Mg117 2.141 . S
O129 C120 1.289 . S
Mg130 O137 2.141 . S
Mg130 O138 2.048 . S
Mg130 O139 2.048 . S
Mg130 O142 2.141 . S
C131 O132 1.313 . S
C131 O138 1.195 . S
O132 C131 1.313 . S
C133 O134 1.245 . S
C133 O142 1.289 . S
O134 C133 1.245 . S
C135 O136 1.245 . S
C135 O137 1.289 . S
O136 C135 1.245 . S
O137 Mg130 2.141 . S
O137 C135 1.289 . S
O138 Mg130 2.048 . S
O138 C131 1.195 . S
O139 Mg130 2.048 . S
O139 C140 1.195 . S
C140 O139 1.195 . S
C140 O141 1.313 . S
O141 C140 1.313 . S
O142 Mg130 2.141 . S
O142 C133 1.289 . S
Mg143 O150 2.141 . S
Mg143 O151 2.048 . S
Mg143 O152 2.048 . S
Mg143 O155 2.141 . S
C144 O145 1.313 . S
C144 O151 1.195 . S
O145 C144 1.313 . S
C146 O147 1.245 . S
C146 O155 1.289 . S
O147 C146 1.245 . S
C148 O149 1.245 . S
C148 O150 1.289 . S
O149 C148 1.245 . S
O150 Mg143 2.141 . S
O150 C148 1.289 . S
O151 Mg143 2.048 . S
O151 C144 1.195 . S
O152 Mg143 2.048 . S
O152 C153 1.195 . S
C153 O152 1.195 . S
C153 O154 1.313 . S
O154 C153 1.313 . S
O155 Mg143 2.141 . S
O155 C146 1.289 . S
Mg156 O163 2.141 . S
Mg156 O164 2.048 . S
Mg156 O165 2.048 . S
Mg156 O168 2.141 . S
C157 O158 1.313 . S
C157 O164 1.195 . S
O158 C157 1.313 . S
C159 O160 1.245 . S
C159 O168 1.289 . S
O160 C159 1.245 . S
C161 O162 1.245 . S
C161 O163 1.289 . S
O162 C161 1.245 . S
O163 Mg156 2.141 . S
O163 C161 1.289 . S
O164 Mg156 2.048 . S
O164 C157 1.195 . S
O165 Mg156 2.048 . S
O165 C166 1.195 . S
C166 O165 1.195 . S
C166 O167 1.313 . S
O167 C166 1.313 . S
O168 Mg156 2.141 . S
O168 C159 1.289 . S
Mg169 O176 2.141 . S
Mg169 O177 2.048 . S
Mg169 O178 2.048 . S
Mg169 O181 2.141 . S
C170 O171 1.313 . S
C170 O177 1.195 . S
O171 C170 1.313 . S
C172 O173 1.245 . S
C172 O181 1.289 . S
O173 C172 1.245 . S
C174 O175 1.245 . S
C174 O176 1.289 . S
O175 C174 1.245 . S
O176 Mg169 2.141 . S
O176 C174 1.289 . S
O177 Mg169 2.048 . S
O177 C170 1.195 . S
O178 Mg169 2.048 . S
O178 C179 1.195 . S
C179 O178 1.195 . S
C179 O180 1.313 . S
O180 C179 1.313 . S
O181 Mg169 2.141 . S
O181 C172 1.289 . S
Mg182 O189 2.141 . S
Mg182 O190 2.048 . S
Mg182 O191 2.048 . S
Mg182 O194 2.141 . S
C183 O184 1.313 . S
C183 O190 1.195 . S
O184 C183 1.313 . S
C185 O186 1.245 . S
C185 O194 1.289 . S
O186 C185 1.245 . S
C187 O188 1.245 . S
C187 O189 1.289 . S
O188 C187 1.245 . S
O189 Mg182 2.141 . S
O189 C187 1.289 . S
O190 Mg182 2.048 . S
O190 C183 1.195 . S
O191 Mg182 2.048 . S
O191 C192 1.195 . S
C192 O191 1.195 . S
C192 O193 1.313 . S
O193 C192 1.313 . S
O194 Mg182 2.141 . S
O194 C185 1.289 . S
Mg195 O202 2.141 . S
Mg195 O203 2.048 . S
Mg195 O204 2.048 . S
Mg195 O207 2.141 . S
C196 O197 1.313 . S
C196 O203 1.195 . S
O197 C196 1.313 . S
C198 O199 1.245 . S
C198 O207 1.289 . S
O199 C198 1.245 . S
C200 O201 1.245 . S
C200 O202 1.289 . S
O201 C200 1.245 . S
O202 Mg195 2.141 . S
O202 C200 1.289 . S
O203 Mg195 2.048 . S
O203 C196 1.195 . S
O204 Mg195 2.048 . S
O204 C205 1.195 . S
C205 O204 1.195 . S
C205 O206 1.313 . S
O206 C205 1.313 . S
O207 Mg195 2.141 . S
O207 C198 1.289 . S
Mg208 O215 2.141 . S
Mg208 O216 2.048 . S
Mg208 O217 2.048 . S
Mg208 O220 2.141 . S
C209 O210 1.313 . S
C209 O216 1.195 . S
O210 C209 1.313 . S
C211 O212 1.245 . S
C211 O220 1.289 . S
O212 C211 1.245 . S
C213 O214 1.245 . S
C213 O215 1.289 . S
O214 C213 1.245 . S
O215 Mg208 2.141 . S
O215 C213 1.289 . S
O216 Mg208 2.048 . S
O216 C209 1.195 . S
O217 Mg208 2.048 . S
O217 C218 1.195 . S
C218 O217 1.195 . S
C218 O219 1.313 . S
O219 C218 1.313 . S
O220 Mg208 2.141 . S
O220 C211 1.289 . S
Mg221 O228 2.141 . S
Mg221 O229 2.048 . S
Mg221 O230 2.048 . S
Mg221 O233 2.141 . S
C222 O223 1.313 . S
C222 O229 1.195 . S
O223 C222 1.313 . S
C224 O225 1.245 . S
C224 O233 1.289 . S
O225 C224 1.245 . S
C226 O227 1.245 . S
C226 O228 1.289 . S
O227 C226 1.245 . S
O228 Mg221 2.141 . S
O228 C226 1.289 . S
O229 Mg221 2.048 . S
O229 C222 1.195 . S
O230 Mg221 2.048 . S
O230 C231 1.195 . S
C231 O230 1.195 . S
C231 O232 1.313 . S
O232 C231 1.313 . S
O233 Mg221 2.141 . S
O233 C224 1.289 . S
Mg234 O241 2.141 . S
Mg234 O242 2.048 . S
Mg234 O243 2.048 . S
Mg234 O246 2.141 . S
C235 O236 1.313 . S
C235 O242 1.195 . S
O236 C235 1.313 . S
C237 O238 1.245 . S
C237 O246 1.289 . S
O238 C237 1.245 . S
C239 O240 1.245 . S
C239 O241 1.289 . S
O240 C239 1.245 . S
O241 Mg234 2.141 . S
O241 C239 1.289 . S
O242 Mg234 2.048 . S
O242 C235 1.195 . S
O243 Mg234 2.048 . S
O243 C244 1.195 . S
C244 O243 1.195 . S
C244 O245 1.313 . S
O245 C244 1.313 . S
O246 Mg234 2.141 . S
O246 C237 1.289 . S
Mg247 O254 2.141 . S
Mg247 O255 2.048 . S
Mg247 O256 2.048 . S
Mg247 O259 2.141 . S
C248 O249 1.313 . S
C248 O255 1.195 . S
O249 C248 1.313 . S
C250 O251 1.245 . S
C250 O259 1.289 . S
O251 C250 1.245 . S
C252 O253 1.245 . S
C252 O254 1.289 . S
O253 C252 1.245 . S
O254 Mg247 2.141 . S
O254 C252 1.289 . S
O255 Mg247 2.048 . S
O255 C248 1.195 . S
O256 Mg247 2.048 . S
O256 C257 1.195 . S
C257 O256 1.195 . S
C257 O258 1.313 . S
O258 C257 1.313 . S
O259 Mg247 2.141 . S
O259 C250 1.289 . S
Mg260 O267 2.141 . S
Mg260 O268 2.048 . S
Mg260 O269 2.048 . S
Mg260 O272 2.141 . S
C261 O262 1.313 . S
C261 O268 1.195 . S
O262 C261 1.313 . S
C263 O264 1.245 . S
C263 O272 1.289 . S
O264 C263 1.245 . S
C265 O266 1.245 . S
C265 O267 1.289 . S
O266 C265 1.245 . S
O267 Mg260 2.141 . S
O267 C265 1.289 . S
O268 Mg260 2.048 . S
O268 C261 1.195 . S
O269 Mg260 2.048 . S
O269 C270 1.195 . S
C270 O269 1.195 . S
C270 O271 1.313 . S
O271 C270 1.313 . S
O272 Mg260 2.141 . S
O272 C263 1.289 . S
Mg273 O280 2.141 . S
Mg273 O281 2.048 . S
Mg273 O282 2.048 . S
Mg273 O285 2.141 . S
C274 O275 1.313 . S
C274 O281 1.195 . S
O275 C274 1.313 . S
C276 O277 1.245 . S
C276 O285 1.289 . S
O277 C276 1.245 . S
C278 O279 1.245 . S
C278 O280 1.289 . S
O279 C278 1.245 . S
O280 Mg273 2.141 . S
O280 C278 1.289 . S
O281 Mg273 2.048 . S
O281 C274 1.195 . S
O282 Mg273 2.048 . S
O282 C283 1.195 . S
C283 O282 1.195 . S
C283 O284 1.313 . S
O284 C283 1.313 . S
O285 Mg273 2.141 . S
O285 C276 1.289 . S
Mg286 O293 2.141 . S
Mg286 O294 2.048 . S
Mg286 O295 2.048 . S
Mg286 O298 2.141 . S
C287 O288 1.313 . S
C287 O294 1.195 . S
O288 C287 1.313 . S
C289 O290 1.245 . S
C289 O298 1.289 . S
O290 C289 1.245 . S
C291 O292 1.245 . S
C291 O293 1.289 . S
O292 C291 1.245 . S
O293 Mg286 2.141 . S
O293 C291 1.289 . S
O294 Mg286 2.048 . S
O294 C287 1.195 . S
O295 Mg286 2.048 . S
O295 C296 1.195 . S
C296 O295 1.195 . S
C296 O297 1.313 . S
O297 C296 1.313 . S
O298 Mg286 2.141 . S
O298 C289 1.289 . S
Mg299 O306 2.141 . S
Mg299 O307 2.048 . S
Mg299 O308 2.048 . S
Mg299 O311 2.141 . S
C300 O301 1.313 . S
C300 O307 1.195 . S
O301 C300 1.313 . S
C302 O303 1.245 . S
C302 O311 1.289 . S
O303 C302 1.245 . S
C304 O305 1.245 . S
C304 O306 1.289 . S
O305 C304 1.245 . S
O306 Mg299 2.141 . S
O306 C304 1.289 . S
O307 Mg299 2.048 . S
O307 C300 1.195 . S
O308 Mg299 2.048 . S
O308 C309 1.195 . S
C309 O308 1.195 . S
C309 O310 1.313 . S
O310 C309 1.313 . S
O311 Mg299 2.141 . S
O311 C302 1.289 . S
Mg312 O319 2.141 . S
Mg312 O320 2.048 . S
Mg312 O321 2.048 . S
Mg312 O324 2.141 . S
C313 O314 1.313 . S
C313 O320 1.195 . S
O314 C313 1.313 . S
C315 O316 1.245 . S
C315 O324 1.289 . S
O316 C315 1.245 . S
C317 O318 1.245 . S
C317 O319 1.289 . S
O318 C317 1.245 . S
O319 Mg312 2.141 . S
O319 C317 1.289 . S
O320 Mg312 2.048 . S
O320 C313 1.195 . S
O321 Mg312 2.048 . S
O321 C322 1.195 . S
C322 O321 1.195 . S
C322 O323 1.313 . S
O323 C322 1.313 . S
O324 Mg312 2.141 . S
O324 C315 1.289 . S
Mg325 O332 2.141 . S
Mg325 O333 2.048 . S
Mg325 O334 2.048 . S
Mg325 O337 2.141 . S
C326 O327 1.313 . S
C326 O333 1.195 . S
O327 C326 1.313 . S
C328 O329 1.245 . S
C328 O337 1.289 . S
O329 C328 1.245 . S
C330 O331 1.245 . S
C330 O332 1.289 . S
O331 C330 1.245 . S
O332 Mg325 2.141 . S
O332 C330 1.289 . S
O333 Mg325 2.048 . S
O333 C326 1.195 . S
O334 Mg325 2.048 . S
O334 C335 1.195 . S
C335 O334 1.195 . S
C335 O336 1.313 . S
O336 C335 1.313 . S
O337 Mg325 2.141 . S
O337 C328 1.289 . S
Mg338 O345 2.141 . S
Mg338 O346 2.048 . S
Mg338 O347 2.048 . S
Mg338 O350 2.141 . S
C339 O340 1.313 . S
C339 O346 1.195 . S
O340 C339 1.313 . S
C341 O342 1.245 . S
C341 O350 1.289 . S
O342 C341 1.245 . S
C343 O344 1.245 . S
C343 O345 1.289 . S
O344 C343 1.245 . S
O345 Mg338 2.141 . S
O345 C343 1.289 . S
O346 Mg338 2.048 . S
O346 C339 1.195 . S
O347 Mg338 2.048 . S
O347 C348 1.195 . S
C348 O347 1.195 . S
C348 O349 1.313 . S
O349 C348 1.313 . S
O350 Mg338 2.141 . S
O350 C341 1.289 . S
Mg351 O358 2.141 . S
Mg351 O359 2.048 . S
Mg351 O360 2.048 . S
Mg351 O363 2.141 . S
C352 O353 1.313 . S
C352 O359 1.195 . S
O353 C352 1.313 . S
C354 O355 1.245 . S
C354 O363 1.289 . S
O355 C354 1.245 . S
C356 O357 1.245 . S
C356 O358 1.289 . S
O357 C356 1.245 . S
O358 Mg351 2.141 . S
O358 C356 1.289 . S
O359 Mg351 2.048 . S
O359 C352 1.195 . S
O360 Mg351 2.048 . S
O360 C361 1.195 . S
C361 O360 1.195 . S
C361 O362 1.313 . S
O362 C361 1.313 . S
O363 Mg351 2.141 . S
O363 C354 1.289 . S
Mg364 O371 2.141 . S
Mg364 O372 2.048 . S
Mg364 O373 2.048 . S
Mg364 O376 2.141 . S
C365 O366 1.313 . S
C365 O372 1.195 . S
O366 C365 1.313 . S
C367 O368 1.245 . S
C367 O376 1.289 . S
O368 C367 1.245 . S
C369 O370 1.245 . S
C369 O371 1.289 . S
O370 C369 1.245 . S
O371 Mg364 2.141 . S
O371 C369 1.289 . S
O372 Mg364 2.048 . S
O372 C365 1.195 . S
O373 Mg364 2.048 . S
O373 C374 1.195 . S
C374 O373 1.195 . S
C374 O375 1.313 . S
O375 C374 1.313 . S
O376 Mg364 2.141 . S
O376 C367 1.289 . S
Mg377 O384 2.141 . S
Mg377 O385 2.048 . S
Mg377 O386 2.048 . S
Mg377 O389 2.141 . S
C378 O379 1.313 . S
C378 O385 1.195 . S
O379 C378 1.313 . S
C380 O381 1.245 . S
C380 O389 1.289 . S
O381 C380 1.245 . S
C382 O383 1.245 . S
C382 O384 1.289 . S
O383 C382 1.245 . S
O384 Mg377 2.141 . S
O384 C382 1.289 . S
O385 Mg377 2.048 . S
O385 C378 1.195 . S
O386 Mg377 2.048 . S
O386 C387 1.195 . S
C387 O386 1.195 . S
C387 O388 1.313 . S
O388 C387 1.313 . S
O389 Mg377 2.141 . S
O389 C380 1.289 . S
Mg390 O397 2.141 . S
Mg390 O398 2.048 . S
Mg390 O399 2.048 . S
Mg390 O402 2.141 . S
C391 O392 1.313 . S
C391 O398 1.195 . S
O392 C391 1.313 . S
C393 O394 1.245 . S
C393 O402 1.289 . S
O394 C393 1.245 . S
C395 O396 1.245 . S
C395 O397 1.289 . S
O396 C395 1.245 . S
O397 Mg390 2.141 . S
O397 C395 1.289 . S
O398 Mg390 2.048 . S
O398 C391 1.195 . S
O399 Mg390 2.048 . S
O399 C400 1.195 . S
C400 O399 1.195 . S
C400 O401 1.313 . S
O401 C400 1.313 . S
O402 Mg390 2.141 . S
O402 C393 1.289 . S
Mg403 O410 2.141 . S
Mg403 O411 2.048 . S
Mg403 O412 2.048 . S
Mg403 O415 2.141 . S
C404 O405 1.313 . S
C404 O411 1.195 . S
O405 C404 1.313 . S
C406 O407 1.245 . S
C406 O415 1.289 . S
O407 C406 1.245 . S
C408 O409 1.245 . S
C408 O410 1.289 . S
O409 C408 1.245 . S
O410 Mg403 2.141 . S
O410 C408 1.289 . S
O411 Mg403 2.048 . S
O411 C404 1.195 . S
O412 Mg403 2.048 . S
O412 C413 1.195 . S
C413 O412 1.195 . S
C413 O414 1.313 . S
O414 C413 1.313 . S
O415 Mg403 2.141 . S
O415 C406 1.289 . S
C416 C417 1.363 . S
C416 C422 1.379 . S
C416 N424 1.356 . S
C417 C416 1.363 . S
C417 C423 1.363 . S
C418 C419 1.363 . S
C418 C423 1.379 . S
C418 N425 1.356 . S
C419 C418 1.363 . S
C419 C422 1.363 . S
N420 C422 1.356 . S
N420 H432 0.984 . S
N420 H433 0.985 . S
N421 C423 1.356 . S
N421 H426 0.984 . S
N421 H427 0.985 . S
C422 C416 1.379 . S
C422 C419 1.363 . S
C422 N420 1.356 . S
C423 C417 1.363 . S
C423 C418 1.379 . S
C423 N421 1.356 . S
N424 C416 1.356 . S
N424 H430 0.984 . S
N424 H431 0.984 . S
N425 C418 1.356 . S
N425 H428 0.984 . S
N425 H429 0.985 . S
H426 N421 0.984 . S
H427 N421 0.985 . S
H428 N425 0.984 . S
H429 N425 0.985 . S
H430 N424 0.984 . S
H431 N424 0.984 . S
H432 N420 0.984 . S
H433 N420 0.985 . S
C434 C435 1.363 . S
C434 C440 1.379 . S
C434 N442 1.356 . S
C435 C434 1.363 . S
C435 C441 1.363 . S
C436 C437 1.363 . S
C436 C441 1.379 . S
C436 N443 1.356 . S
C437 C436 1.363 . S
C437 C440 1.363 . S
N438 C440 1.356 . S
N438 H450 0.984 . S
N438 H451 0.985 . S
N439 C441 1.356 1_455 S
N439 H444 0.984 . S
N439 H445 0.985 . S
C440 C434 1.379 . S
C440 C437 1.363 . S
C440 N438 1.356 . S
C441 C435 1.363 . S
C441 C436 1.379 . S
C441 N439 1.356 1_655 S
N442 C434 1.356 . S
N442 H448 0.984 . S
N442 H449 0.984 1_655 S
N443 C436 1.356 . S
N443 H446 0.984 . S
N443 H447 0.985 . S
H444 N439 0.984 . S
H445 N439 0.985 . S
H446 N443 0.984 . S
H447 N443 0.985 . S
H448 N442 0.984 . S
H449 N442 0.984 1_455 S
H450 N438 0.984 . S
H451 N438 0.985 . S
C452 C453 1.363 . S
C452 C458 1.379 . S
C452 N460 1.356 . S
C453 C452 1.363 . S
C453 C459 1.363 . S
C454 C455 1.363 . S
C454 C459 1.379 . S
C454 N461 1.356 . S
C455 C454 1.363 . S
C455 C458 1.363 . S
N456 C458 1.356 . S
N456 H468 0.984 . S
N456 H469 0.985 . S
N457 C459 1.356 . S
N457 H462 0.984 . S
N457 H463 0.985 . S
C458 C452 1.379 . S
C458 C455 1.363 . S
C458 N456 1.356 . S
C459 C453 1.363 . S
C459 C454 1.379 . S
C459 N457 1.356 . S
N460 C452 1.356 . S
N460 H466 0.984 . S
N460 H467 0.984 . S
N461 C454 1.356 . S
N461 H464 0.984 . S
N461 H465 0.985 . S
H462 N457 0.984 . S
H463 N457 0.985 . S
H464 N461 0.984 . S
H465 N461 0.985 . S
H466 N460 0.984 . S
H467 N460 0.984 . S
H468 N456 0.984 . S
H469 N456 0.985 . S
C470 C471 1.363 . S
C470 C476 1.379 . S
C470 N478 1.356 . S
C471 C470 1.363 . S
C471 C477 1.363 . S
C472 C473 1.363 . S
C472 C477 1.379 . S
C472 N479 1.356 . S
C473 C472 1.363 . S
C473 C476 1.363 . S
N474 C476 1.356 . S
N474 H486 0.984 . S
N474 H487 0.985 . S
N475 C477 1.356 . S
N475 H480 0.984 . S
N475 H481 0.985 . S
C476 C470 1.379 . S
C476 C473 1.363 . S
C476 N474 1.356 . S
C477 C471 1.363 . S
C477 C472 1.379 . S
C477 N475 1.356 . S
N478 C470 1.356 . S
N478 H484 0.984 . S
N478 H485 0.984 . S
N479 C472 1.356 . S
N479 H482 0.984 . S
N479 H483 0.985 . S
H480 N475 0.984 . S
H481 N475 0.985 . S
H482 N479 0.984 . S
H483 N479 0.985 . S
H484 N478 0.984 . S
H485 N478 0.984 . S
H486 N474 0.984 . S
H487 N474 0.985 . S
C488 C489 1.363 . S
C488 C494 1.379 . S
C488 N496 1.356 . S
C489 C488 1.363 . S
C489 C495 1.363 . S
C490 C491 1.363 . S
C490 C495 1.379 . S
C490 N497 1.356 . S
C491 C490 1.363 . S
C491 C494 1.363 . S
N492 C494 1.356 . S
N492 H504 0.984 . S
N492 H505 0.985 . S
N493 C495 1.356 . S
N493 H498 0.984 . S
N493 H499 0.985 . S
C494 C488 1.379 . S
C494 C491 1.363 . S
C494 N492 1.356 . S
C495 C489 1.363 . S
C495 C490 1.379 . S
C495 N493 1.356 . S
N496 C488 1.356 . S
N496 H502 0.984 . S
N496 H503 0.984 . S
N497 C490 1.356 . S
N497 H500 0.984 . S
N497 H501 0.985 . S
H498 N493 0.984 . S
H499 N493 0.985 . S
H500 N497 0.984 . S
H501 N497 0.985 . S
H502 N496 0.984 . S
H503 N496 0.984 . S
H504 N492 0.984 . S
H505 N492 0.985 . S
C506 C507 1.363 . S
C506 C512 1.379 . S
C506 N514 1.356 . S
C507 C506 1.363 . S
C507 C513 1.363 . S
C508 C509 1.363 . S
C508 C513 1.379 . S
C508 N515 1.356 . S
C509 C508 1.363 . S
C509 C512 1.363 . S
N510 C512 1.356 . S
N510 H522 0.984 . S
N510 H523 0.985 . S
N511 C513 1.356 . S
N511 H516 0.984 . S
N511 H517 0.985 . S
C512 C506 1.379 . S
C512 C509 1.363 . S
C512 N510 1.356 . S
C513 C507 1.363 . S
C513 C508 1.379 . S
C513 N511 1.356 . S
N514 C506 1.356 . S
N514 H520 0.984 . S
N514 H521 0.984 . S
N515 C508 1.356 . S
N515 H518 0.984 . S
N515 H519 0.985 . S
H516 N511 0.984 . S
H517 N511 0.985 . S
H518 N515 0.984 . S
H519 N515 0.985 . S
H520 N514 0.984 . S
H521 N514 0.984 . S
H522 N510 0.984 . S
H523 N510 0.985 . S
C524 C525 1.363 . S
C524 C530 1.379 . S
C524 N532 1.356 . S
C525 C524 1.363 . S
C525 C531 1.363 . S
C526 C527 1.363 . S
C526 C531 1.379 . S
C526 N533 1.356 . S
C527 C526 1.363 . S
C527 C530 1.363 . S
N528 C530 1.356 . S
N528 H540 0.984 . S
N528 H541 0.985 . S
N529 C531 1.356 . S
N529 H534 0.984 . S
N529 H535 0.985 . S
C530 C524 1.379 . S
C530 C527 1.363 . S
C530 N528 1.356 . S
C531 C525 1.363 . S
C531 C526 1.379 . S
C531 N529 1.356 . S
N532 C524 1.356 . S
N532 H538 0.984 . S
N532 H539 0.984 . S
N533 C526 1.356 . S
N533 H536 0.984 . S
N533 H537 0.985 . S
H534 N529 0.984 . S
H535 N529 0.985 . S
H536 N533 0.984 . S
H537 N533 0.985 . S
H538 N532 0.984 . S
H539 N532 0.984 . S
H540 N528 0.984 . S
H541 N528 0.985 . S
C542 C543 1.363 . S
C542 C548 1.379 . S
C542 N550 1.356 1_655 S
C543 C542 1.363 . S
C543 C549 1.363 . S
C544 C545 1.363 . S
C544 C549 1.379 . S
C544 N551 1.356 . S
C545 C544 1.363 . S
C545 C548 1.363 . S
N546 C548 1.356 . S
N546 H558 0.984 . S
N546 H559 0.985 . S
N547 C549 1.356 1_455 S
N547 H552 0.984 . S
N547 H553 0.985 1_455 S
C548 C542 1.379 . S
C548 C545 1.363 . S
C548 N546 1.356 . S
C549 C543 1.363 . S
C549 C544 1.379 . S
C549 N547 1.356 1_655 S
N550 C542 1.356 1_455 S
N550 H556 0.984 . S
N550 H557 0.984 . S
N551 C544 1.356 . S
N551 H554 0.984 . S
N551 H555 0.985 . S
H552 N547 0.984 . S
H553 N547 0.985 1_655 S
H554 N551 0.984 . S
H555 N551 0.985 . S
H556 N550 0.984 . S
H557 N550 0.984 . S
H558 N546 0.984 . S
H559 N546 0.985 . S
C560 C561 1.363 . S
C560 C566 1.379 . S
C560 N568 1.356 . S
C561 C560 1.363 . S
C561 C567 1.363 . S
C562 C563 1.363 . S
C562 C567 1.379 . S
C562 N569 1.356 . S
C563 C562 1.363 . S
C563 C566 1.363 . S
N564 C566 1.356 . S
N564 H576 0.984 . S
N564 H577 0.985 . S
N565 C567 1.356 . S
N565 H570 0.984 . S
N565 H571 0.985 . S
C566 C560 1.379 . S
C566 C563 1.363 . S
C566 N564 1.356 . S
C567 C561 1.363 . S
C567 C562 1.379 . S
C567 N565 1.356 . S
N568 C560 1.356 . S
N568 H574 0.984 . S
N568 H575 0.984 . S
N569 C562 1.356 . S
N569 H572 0.984 . S
N569 H573 0.985 . S
H570 N565 0.984 . S
H571 N565 0.985 . S
H572 N569 0.984 . S
H573 N569 0.985 . S
H574 N568 0.984 . S
H575 N568 0.984 . S
H576 N564 0.984 . S
H577 N564 0.985 . S
C578 C579 1.363 . S
C578 C584 1.379 . S
C578 N586 1.356 . S
C579 C578 1.363 . S
C579 C585 1.363 . S
C580 C581 1.363 . S
C580 C585 1.379 . S
C580 N587 1.356 1_455 S
C581 C580 1.363 . S
C581 C584 1.363 . S
N582 C584 1.356 . S
N582 H594 0.984 . S
N582 H595 0.985 1_455 S
N583 C585 1.356 . S
N583 H588 0.984 . S
N583 H589 0.985 . S
C584 C578 1.379 . S
C584 C581 1.363 . S
C584 N582 1.356 . S
C585 C579 1.363 . S
C585 C580 1.379 . S
C585 N583 1.356 . S
N586 C578 1.356 . S
N586 H592 0.984 . S
N586 H593 0.984 . S
N587 C580 1.356 1_655 S
N587 H590 0.984 . S
N587 H591 0.985 . S
H588 N583 0.984 . S
H589 N583 0.985 . S
H590 N587 0.984 . S
H591 N587 0.985 . S
H592 N586 0.984 . S
H593 N586 0.984 . S
H594 N582 0.984 . S
H595 N582 0.985 1_655 S
C596 C597 1.363 . S
C596 C602 1.379 . S
C596 N604 1.356 . S
C597 C596 1.363 . S
C597 C603 1.363 . S
C598 C599 1.363 . S
C598 C603 1.379 . S
C598 N605 1.356 . S
C599 C598 1.363 . S
C599 C602 1.363 . S
N600 C602 1.356 . S
N600 H612 0.984 . S
N600 H613 0.985 . S
N601 C603 1.356 . S
N601 H606 0.984 . S
N601 H607 0.985 . S
C602 C596 1.379 . S
C602 C599 1.363 . S
C602 N600 1.356 . S
C603 C597 1.363 . S
C603 C598 1.379 . S
C603 N601 1.356 . S
N604 C596 1.356 . S
N604 H610 0.984 . S
N604 H611 0.984 . S
N605 C598 1.356 . S
N605 H608 0.984 . S
N605 H609 0.985 . S
H606 N601 0.984 . S
H607 N601 0.985 . S
H608 N605 0.984 . S
H609 N605 0.985 . S
H610 N604 0.984 . S
H611 N604 0.984 . S
H612 N600 0.984 . S
H613 N600 0.985 . S
C614 C615 1.363 . S
C614 C620 1.379 . S
C614 N622 1.356 . S
C615 C614 1.363 . S
C615 C621 1.363 . S
C616 C617 1.363 . S
C616 C621 1.379 . S
C616 N623 1.356 . S
C617 C616 1.363 . S
C617 C620 1.363 . S
N618 C620 1.356 . S
N618 H630 0.984 . S
N618 H631 0.985 . S
N619 C621 1.356 . S
N619 H624 0.984 . S
N619 H625 0.985 . S
C620 C614 1.379 . S
C620 C617 1.363 . S
C620 N618 1.356 . S
C621 C615 1.363 . S
C621 C616 1.379 . S
C621 N619 1.356 . S
N622 C614 1.356 . S
N622 H628 0.984 . S
N622 H629 0.984 . S
N623 C616 1.356 . S
N623 H626 0.984 . S
N623 H627 0.985 . S
H624 N619 0.984 . S
H625 N619 0.985 . S
H626 N623 0.984 . S
H627 N623 0.985 . S
H628 N622 0.984 . S
H629 N622 0.984 . S
H630 N618 0.984 . S
H631 N618 0.985 . S
C632 C633 1.363 . S
C632 C638 1.379 . S
C632 N640 1.356 . S
C633 C632 1.363 . S
C633 C639 1.363 . S
C634 C635 1.363 . S
C634 C639 1.379 . S
C634 N641 1.356 . S
C635 C634 1.363 . S
C635 C638 1.363 . S
N636 C638 1.356 . S
N636 H648 0.984 . S
N636 H649 0.985 . S
N637 C639 1.356 . S
N637 H642 0.984 . S
N637 H643 0.985 . S
C638 C632 1.379 . S
C638 C635 1.363 . S
C638 N636 1.356 . S
C639 C633 1.363 . S
C639 C634 1.379 . S
C639 N637 1.356 . S
N640 C632 1.356 . S
N640 H646 0.984 . S
N640 H647 0.984 . S
N641 C634 1.356 . S
N641 H644 0.984 . S
N641 H645 0.985 . S
H642 N637 0.984 . S
H643 N637 0.985 . S
H644 N641 0.984 . S
H645 N641 0.985 . S
H646 N640 0.984 . S
H647 N640 0.984 . S
H648 N636 0.984 . S
H649 N636 0.985 . S
C650 C651 1.363 . S
C650 C656 1.379 . S
C650 N658 1.356 . S
C651 C650 1.363 . S
C651 C657 1.363 . S
C652 C653 1.363 . S
C652 C657 1.379 . S
C652 N659 1.356 . S
C653 C652 1.363 . S
C653 C656 1.363 . S
N654 C656 1.356 . S
N654 H666 0.984 . S
N654 H667 0.985 . S
N655 C657 1.356 . S
N655 H660 0.984 . S
N655 H661 0.985 . S
C656 C650 1.379 . S
C656 C653 1.363 . S
C656 N654 1.356 . S
C657 C651 1.363 . S
C657 C652 1.379 . S
C657 N655 1.356 . S
N658 C650 1.356 . S
N658 H664 0.984 . S
N658 H665 0.984 . S
N659 C652 1.356 . S
N659 H662 0.984 . S
N659 H663 0.985 1_545 S
H660 N655 0.984 . S
H661 N655 0.985 . S
H662 N659 0.984 . S
H663 N659 0.985 1_565 S
H664 N658 0.984 . S
H665 N658 0.984 . S
H666 N654 0.984 . S
H667 N654 0.985 . S
C668 C669 1.363 . S
C668 C674 1.379 . S
C668 N676 1.356 . S
C669 C668 1.363 . S
C669 C675 1.363 . S
C670 C671 1.363 . S
C670 C675 1.379 . S
C670 N677 1.356 . S
C671 C670 1.363 . S
C671 C674 1.363 . S
N672 C674 1.356 . S
N672 H684 0.984 . S
N672 H685 0.985 . S
N673 C675 1.356 . S
N673 H678 0.984 . S
N673 H679 0.985 . S
C674 C668 1.379 . S
C674 C671 1.363 . S
C674 N672 1.356 . S
C675 C669 1.363 . S
C675 C670 1.379 . S
C675 N673 1.356 . S
N676 C668 1.356 . S
N676 H682 0.984 . S
N676 H683 0.984 . S
N677 C670 1.356 . S
N677 H680 0.984 . S
N677 H681 0.985 . S
H678 N673 0.984 . S
H679 N673 0.985 . S
H680 N677 0.984 . S
H681 N677 0.985 . S
H682 N676 0.984 . S
H683 N676 0.984 . S
H684 N672 0.984 . S
H685 N672 0.985 . S
C686 C687 1.363 . S
C686 C692 1.379 . S
C686 N694 1.356 . S
C687 C686 1.363 . S
C687 C693 1.363 . S
C688 C689 1.363 . S
C688 C693 1.379 . S
C688 N695 1.356 1_455 S
C689 C688 1.363 . S
C689 C692 1.363 . S
N690 C692 1.356 . S
N690 H702 0.984 . S
N690 H703 0.985 1_455 S
N691 C693 1.356 . S
N691 H696 0.984 . S
N691 H697 0.985 . S
C692 C686 1.379 . S
C692 C689 1.363 . S
C692 N690 1.356 . S
C693 C687 1.363 . S
C693 C688 1.379 . S
C693 N691 1.356 . S
N694 C686 1.356 . S
N694 H700 0.984 . S
N694 H701 0.984 . S
N695 C688 1.356 1_655 S
N695 H698 0.984 . S
N695 H699 0.985 . S
H696 N691 0.984 . S
H697 N691 0.985 . S
H698 N695 0.984 . S
H699 N695 0.985 . S
H700 N694 0.984 . S
H701 N694 0.984 . S
H702 N690 0.984 . S
H703 N690 0.985 1_655 S
C704 C705 1.363 . S
C704 C710 1.379 . S
C704 N712 1.356 . S
C705 C704 1.363 . S
C705 C711 1.363 . S
C706 C707 1.363 . S
C706 C711 1.379 . S
C706 N713 1.356 . S
C707 C706 1.363 . S
C707 C710 1.363 . S
N708 C710 1.356 . S
N708 H720 0.984 . S
N708 H721 0.985 . S
N709 C711 1.356 . S
N709 H714 0.984 . S
N709 H715 0.985 . S
C710 C704 1.379 . S
C710 C707 1.363 . S
C710 N708 1.356 . S
C711 C705 1.363 . S
C711 C706 1.379 . S
C711 N709 1.356 . S
N712 C704 1.356 . S
N712 H718 0.984 . S
N712 H719 0.984 . S
N713 C706 1.356 . S
N713 H716 0.984 . S
N713 H717 0.985 . S
H714 N709 0.984 . S
H715 N709 0.985 . S
H716 N713 0.984 . S
H717 N713 0.985 . S
H718 N712 0.984 . S
H719 N712 0.984 . S
H720 N708 0.984 . S
H721 N708 0.985 . S
C722 C723 1.363 . S
C722 C728 1.379 . S
C722 N730 1.356 . S
C723 C722 1.363 . S
C723 C729 1.363 . S
C724 C725 1.363 . S
C724 C729 1.379 . S
C724 N731 1.356 . S
C725 C724 1.363 . S
C725 C728 1.363 . S
N726 C728 1.356 . S
N726 H738 0.984 . S
N726 H739 0.985 . S
N727 C729 1.356 . S
N727 H732 0.984 . S
N727 H733 0.985 . S
C728 C722 1.379 . S
C728 C725 1.363 . S
C728 N726 1.356 . S
C729 C723 1.363 . S
C729 C724 1.379 . S
C729 N727 1.356 . S
N730 C722 1.356 . S
N730 H736 0.984 . S
N730 H737 0.984 . S
N731 C724 1.356 . S
N731 H734 0.984 . S
N731 H735 0.985 . S
H732 N727 0.984 . S
H733 N727 0.985 . S
H734 N731 0.984 . S
H735 N731 0.985 . S
H736 N730 0.984 . S
H737 N730 0.984 . S
H738 N726 0.984 . S
H739 N726 0.985 . S
C740 C741 1.363 . S
C740 C746 1.379 . S
C740 N748 1.356 . S
C741 C740 1.363 . S
C741 C747 1.363 . S
C742 C743 1.363 . S
C742 C747 1.379 . S
C742 N749 1.356 . S
C743 C742 1.363 . S
C743 C746 1.363 . S
N744 C746 1.356 . S
N744 H756 0.984 . S
N744 H757 0.985 . S
N745 C747 1.356 . S
N745 H750 0.984 . S
N745 H751 0.985 . S
C746 C740 1.379 . S
C746 C743 1.363 . S
C746 N744 1.356 . S
C747 C741 1.363 . S
C747 C742 1.379 . S
C747 N745 1.356 . S
N748 C740 1.356 . S
N748 H754 0.984 . S
N748 H755 0.984 . S
N749 C742 1.356 . S
N749 H752 0.984 . S
N749 H753 0.985 . S
H750 N745 0.984 . S
H751 N745 0.985 . S
H752 N749 0.984 . S
H753 N749 0.985 . S
H754 N748 0.984 . S
H755 N748 0.984 . S
H756 N744 0.984 . S
H757 N744 0.985 . S
C758 C759 1.363 . S
C758 C764 1.379 . S
C758 N766 1.356 . S
C759 C758 1.363 . S
C759 C765 1.363 . S
C760 C761 1.363 . S
C760 C765 1.379 . S
C760 N767 1.356 1_455 S
C761 C760 1.363 . S
C761 C764 1.363 . S
N762 C764 1.356 . S
N762 H774 0.984 . S
N762 H775 0.985 1_455 S
N763 C765 1.356 . S
N763 H768 0.984 . S
N763 H769 0.985 . S
C764 C758 1.379 . S
C764 C761 1.363 . S
C764 N762 1.356 . S
C765 C759 1.363 . S
C765 C760 1.379 . S
C765 N763 1.356 . S
N766 C758 1.356 . S
N766 H772 0.984 . S
N766 H773 0.984 . S
N767 C760 1.356 1_655 S
N767 H770 0.984 . S
N767 H771 0.985 . S
H768 N763 0.984 . S
H769 N763 0.985 . S
H770 N767 0.984 . S
H771 N767 0.985 . S
H772 N766 0.984 . S
H773 N766 0.984 . S
H774 N762 0.984 . S
H775 N762 0.985 1_655 S
C776 C777 1.363 . S
C776 C782 1.379 . S
C776 N784 1.356 . S
C777 C776 1.363 . S
C777 C783 1.363 . S
C778 C779 1.363 . S
C778 C783 1.379 . S
C778 N785 1.356 . S
C779 C778 1.363 . S
C779 C782 1.363 . S
N780 C782 1.356 . S
N780 H792 0.984 . S
N780 H793 0.985 . S
N781 C783 1.356 . S
N781 H786 0.984 . S
N781 H787 0.985 . S
C782 C776 1.379 . S
C782 C779 1.363 . S
C782 N780 1.356 . S
C783 C777 1.363 . S
C783 C778 1.379 . S
C783 N781 1.356 . S
N784 C776 1.356 . S
N784 H790 0.984 . S
N784 H791 0.984 . S
N785 C778 1.356 . S
N785 H788 0.984 . S
N785 H789 0.985 . S
H786 N781 0.984 . S
H787 N781 0.985 . S
H788 N785 0.984 . S
H789 N785 0.985 . S
H790 N784 0.984 . S
H791 N784 0.984 . S
H792 N780 0.984 . S
H793 N780 0.985 . S
C794 C795 1.363 . S
C794 C800 1.379 . S
C794 N802 1.356 . S
C795 C794 1.363 . S
C795 C801 1.363 . S
C796 C797 1.363 . S
C796 C801 1.379 . S
C796 N803 1.356 1_455 S
C797 C796 1.363 . S
C797 C800 1.363 . S
N798 C800 1.356 1_655 S
N798 H810 0.982 1_655 S
N798 H811 0.985 . S
N799 C801 1.356 . S
N799 H804 0.984 . S
N799 H805 0.985 . S
C800 C794 1.379 . S
C800 C797 1.363 . S
C800 N798 1.356 1_455 S
C801 C795 1.363 . S
C801 C796 1.379 . S
C801 N799 1.356 . S
N802 C794 1.356 . S
N802 H808 0.984 . S
N802 H809 0.984 . S
N803 C796 1.356 1_655 S
N803 H806 0.984 . S
N803 H807 0.985 1_655 S
H804 N799 0.984 . S
H805 N799 0.985 . S
H806 N803 0.984 . S
H807 N803 0.985 1_455 S
H808 N802 0.984 . S
H809 N802 0.984 . S
H810 N798 0.982 1_455 S
H811 N798 0.985 . S
C812 C813 1.363 . S
C812 C818 1.379 . S
C812 N820 1.356 . S
C813 C812 1.363 . S
C813 C819 1.363 . S
C814 C815 1.363 . S
C814 C819 1.379 . S
C814 N821 1.356 . S
C815 C814 1.363 . S
C815 C818 1.363 . S
N816 C818 1.356 . S
N816 H828 0.984 . S
N816 H829 0.985 . S
N817 C819 1.356 . S
N817 H822 0.984 . S
N817 H823 0.985 . S
C818 C812 1.379 . S
C818 C815 1.363 . S
C818 N816 1.356 . S
C819 C813 1.363 . S
C819 C814 1.379 . S
C819 N817 1.356 . S
N820 C812 1.356 . S
N820 H826 0.984 . S
N820 H827 0.984 . S
N821 C814 1.356 . S
N821 H824 0.984 . S
N821 H825 0.985 . S
H822 N817 0.984 . S
H823 N817 0.985 . S
H824 N821 0.984 . S
H825 N821 0.985 . S
H826 N820 0.984 . S
H827 N820 0.984 . S
H828 N816 0.984 . S
H829 N816 0.985 . S
C830 C831 1.363 . S
C830 C836 1.379 . S
C830 N838 1.356 . S
C831 C830 1.363 . S
C831 C837 1.363 . S
C832 C833 1.363 . S
C832 C837 1.379 . S
C832 N839 1.356 . S
C833 C832 1.363 . S
C833 C836 1.363 . S
N834 C836 1.356 . S
N834 H846 0.984 . S
N834 H847 0.985 . S
N835 C837 1.356 . S
N835 H840 0.984 . S
N835 H841 0.985 . S
C836 C830 1.379 . S
C836 C833 1.363 . S
C836 N834 1.356 . S
C837 C831 1.363 . S
C837 C832 1.379 . S
C837 N835 1.356 . S
N838 C830 1.356 . S
N838 H844 0.984 . S
N838 H845 0.984 . S
N839 C832 1.356 . S
N839 H842 0.984 . S
N839 H843 0.985 . S
H840 N835 0.984 . S
H841 N835 0.985 . S
H842 N839 0.984 . S
H843 N839 0.985 . S
H844 N838 0.984 . S
H845 N838 0.984 . S
H846 N834 0.984 . S
H847 N834 0.985 . S
C848 C849 1.363 . S
C848 C854 1.379 . S
C848 N856 1.356 . S
C849 C848 1.363 . S
C849 C855 1.363 . S
C850 C851 1.363 . S
C850 C855 1.379 . S
C850 N857 1.356 . S
C851 C850 1.363 . S
C851 C854 1.363 . S
N852 C854 1.356 . S
N852 H864 0.984 . S
N852 H865 0.985 . S
N853 C855 1.356 . S
N853 H858 0.984 . S
N853 H859 0.985 . S
C854 C848 1.379 . S
C854 C851 1.363 . S
C854 N852 1.356 . S
C855 C849 1.363 . S
C855 C850 1.379 . S
C855 N853 1.356 . S
N856 C848 1.356 . S
N856 H862 0.984 . S
N856 H863 0.984 . S
N857 C850 1.356 . S
N857 H860 0.984 . S
N857 H861 0.985 . S
H858 N853 0.984 . S
H859 N853 0.985 . S
H860 N857 0.984 . S
H861 N857 0.985 . S
H862 N856 0.984 . S
H863 N856 0.984 . S
H864 N852 0.984 . S
H865 N852 0.985 . S
C866 C867 1.363 . S
C866 C872 1.379 . S
C866 N874 1.356 . S
C867 C866 1.363 . S
C867 C873 1.363 . S
C868 C869 1.363 . S
C868 C873 1.379 . S
C868 N875 1.356 . S
C869 C868 1.363 . S
C869 C872 1.363 . S
N870 C872 1.356 . S
N870 H882 0.984 . S
N870 H883 0.985 . S
N871 C873 1.356 . S
N871 H876 0.984 . S
N871 H877 0.985 . S
C872 C866 1.379 . S
C872 C869 1.363 . S
C872 N870 1.356 . S
C873 C867 1.363 . S
C873 C868 1.379 . S
C873 N871 1.356 . S
N874 C866 1.356 . S
N874 H880 0.984 . S
N874 H881 0.984 . S
N875 C868 1.356 . S
N875 H878 0.984 . S
N875 H879 0.985 . S
H876 N871 0.984 . S
H877 N871 0.985 . S
H878 N875 0.984 . S
H879 N875 0.985 . S
H880 N874 0.984 . S
H881 N874 0.984 . S
H882 N870 0.984 . S
H883 N870 0.985 . S
C884 C885 1.363 . S
C884 C890 1.379 . S
C884 N892 1.356 . S
C885 C884 1.363 . S
C885 C891 1.363 . S
C886 C887 1.363 . S
C886 C891 1.379 . S
C886 N893 1.356 . S
C887 C886 1.363 . S
C887 C890 1.363 . S
N888 C890 1.356 . S
N888 H900 0.984 . S
N888 H901 0.985 . S
N889 C891 1.356 . S
N889 H894 0.984 . S
N889 H895 0.985 . S
C890 C884 1.379 . S
C890 C887 1.363 . S
C890 N888 1.356 . S
C891 C885 1.363 . S
C891 C886 1.379 . S
C891 N889 1.356 . S
N892 C884 1.356 . S
N892 H898 0.984 . S
N892 H899 0.984 . S
N893 C886 1.356 . S
N893 H896 0.984 . S
N893 H897 0.985 . S
H894 N889 0.984 . S
H895 N889 0.985 . S
H896 N893 0.984 . S
H897 N893 0.985 . S
H898 N892 0.984 . S
H899 N892 0.984 . S
H900 N888 0.984 . S
H901 N888 0.985 . S
C902 C903 1.363 . S
C902 C908 1.379 . S
C902 N910 1.356 . S
C903 C902 1.363 . S
C903 C909 1.363 . S
C904 C905 1.363 . S
C904 C909 1.379 . S
C904 N911 1.356 . S
C905 C904 1.363 . S
C905 C908 1.363 . S
N906 C908 1.356 . S
N906 H918 0.984 . S
N906 H919 0.985 . S
N907 C909 1.356 1_455 S
N907 H912 0.984 . S
N907 H913 0.985 . S
C908 C902 1.379 . S
C908 C905 1.363 . S
C908 N906 1.356 . S
C909 C903 1.363 . S
C909 C904 1.379 . S
C909 N907 1.356 1_655 S
N910 C902 1.356 . S
N910 H916 0.984 . S
N910 H917 0.984 1_655 S
N911 C904 1.356 . S
N911 H914 0.984 . S
N911 H915 0.985 . S
H912 N907 0.984 . S
H913 N907 0.985 . S
H914 N911 0.984 . S
H915 N911 0.985 . S
H916 N910 0.984 . S
H917 N910 0.984 1_455 S
H918 N906 0.984 . S
H919 N906 0.985 . S
C920 C921 1.363 . S
C920 C926 1.379 . S
C920 N928 1.356 . S
C921 C920 1.363 . S
C921 C927 1.363 . S
C922 C923 1.363 . S
C922 C927 1.379 . S
C922 N929 1.356 . S
C923 C922 1.363 . S
C923 C926 1.363 . S
N924 C926 1.356 . S
N924 H936 0.984 . S
N924 H937 0.985 . S
N925 C927 1.356 . S
N925 H930 0.984 . S
N925 H931 0.985 . S
C926 C920 1.379 . S
C926 C923 1.363 . S
C926 N924 1.356 . S
C927 C921 1.363 . S
C927 C922 1.379 . S
C927 N925 1.356 . S
N928 C920 1.356 . S
N928 H934 0.984 . S
N928 H935 0.984 . S
N929 C922 1.356 . S
N929 H932 0.984 . S
N929 H933 0.985 . S
H930 N925 0.984 . S
H931 N925 0.985 . S
H932 N929 0.984 . S
H933 N929 0.985 . S
H934 N928 0.984 . S
H935 N928 0.984 . S
H936 N924 0.984 . S
H937 N924 0.985 . S
C938 C939 1.363 . S
C938 C944 1.379 . S
C938 N946 1.356 1_655 S
C939 C938 1.363 . S
C939 C945 1.363 . S
C940 C941 1.363 . S
C940 C945 1.379 . S
C940 N947 1.356 . S
C941 C940 1.363 . S
C941 C944 1.363 . S
N942 C944 1.356 . S
N942 H954 0.984 . S
N942 H955 0.985 . S
N943 C945 1.356 . S
N943 H948 0.984 1_655 S
N943 H949 0.985 . S
C944 C938 1.379 . S
C944 C941 1.363 . S
C944 N942 1.356 . S
C945 C939 1.363 . S
C945 C940 1.379 . S
C945 N943 1.356 . S
N946 C938 1.356 1_455 S
N946 H952 0.984 . S
N946 H953 0.984 . S
N947 C940 1.356 . S
N947 H950 0.984 . S
N947 H951 0.985 . S
H948 N943 0.984 1_455 S
H949 N943 0.985 . S
H950 N947 0.984 . S
H951 N947 0.985 . S
H952 N946 0.984 . S
H953 N946 0.984 . S
H954 N942 0.984 . S
H955 N942 0.985 . S
C956 C957 1.363 . S
C956 C962 1.379 . S
C956 N964 1.356 . S
C957 C956 1.363 . S
C957 C963 1.363 . S
C958 C959 1.363 . S
C958 C963 1.379 . S
C958 N965 1.356 . S
C959 C958 1.363 . S
C959 C962 1.363 . S
N960 C962 1.356 . S
N960 H972 0.984 . S
N960 H973 0.985 . S
N961 C963 1.356 . S
N961 H966 0.984 . S
N961 H967 0.985 . S
C962 C956 1.379 . S
C962 C959 1.363 . S
C962 N960 1.356 . S
C963 C957 1.363 . S
C963 C958 1.379 . S
C963 N961 1.356 . S
N964 C956 1.356 . S
N964 H970 0.984 . S
N964 H971 0.984 . S
N965 C958 1.356 . S
N965 H968 0.984 . S
N965 H969 0.985 . S
H966 N961 0.984 . S
H967 N961 0.985 . S
H968 N965 0.984 . S
H969 N965 0.985 . S
H970 N964 0.984 . S
H971 N964 0.984 . S
H972 N960 0.984 . S
H973 N960 0.985 . S
C974 C975 1.363 . S
C974 C980 1.379 . S
C974 N982 1.356 . S
C975 C974 1.363 . S
C975 C981 1.363 . S
C976 C977 1.363 . S
C976 C981 1.379 . S
C976 N983 1.356 . S
C977 C976 1.363 . S
C977 C980 1.363 . S
N978 C980 1.356 . S
N978 H990 0.984 . S
N978 H991 0.985 . S
N979 C981 1.356 . S
N979 H984 0.984 . S
N979 H985 0.985 . S
C980 C974 1.379 . S
C980 C977 1.363 . S
C980 N978 1.356 . S
C981 C975 1.363 . S
C981 C976 1.379 . S
C981 N979 1.356 . S
N982 C974 1.356 . S
N982 H988 0.984 . S
N982 H989 0.984 . S
N983 C976 1.356 . S
N983 H986 0.984 . S
N983 H987 0.985 . S
H984 N979 0.984 . S
H985 N979 0.985 . S
H986 N983 0.984 . S
H987 N983 0.985 . S
H988 N982 0.984 . S
H989 N982 0.984 . S
H990 N978 0.984 . S
H991 N978 0.985 . S
C992 C993 1.363 . S
C992 C998 1.379 . S
C992 N1000 1.356 . S
C993 C992 1.363 . S
C993 C999 1.363 . S
C994 C995 1.363 . S
C994 C999 1.379 . S
C994 N1001 1.356 . S
C995 C994 1.363 . S
C995 C998 1.363 . S
N996 C998 1.356 . S
N996 H1008 0.984 . S
N996 H1009 0.985 . S
N997 C999 1.356 . S
N997 H1002 0.984 . S
N997 H1003 0.985 . S
C998 C992 1.379 . S
C998 C995 1.363 . S
C998 N996 1.356 . S
C999 C993 1.363 . S
C999 C994 1.379 . S
C999 N997 1.356 . S
N1000 C992 1.356 . S
N1000 H1006 0.984 . S
N1000 H1007 0.984 . S
N1001 C994 1.356 . S
N1001 H1004 0.984 . S
N1001 H1005 0.985 . S
H1002 N997 0.984 . S
H1003 N997 0.985 . S
H1004 N1001 0.984 . S
H1005 N1001 0.985 . S
H1006 N1000 0.984 . S
H1007 N1000 0.984 . S
H1008 N996 0.984 . S
H1009 N996 0.985 . S
C1010 C1011 1.361 . S
C1010 C1016 1.379 1_455 S
C1010 N1018 1.356 . S
C1011 C1010 1.361 . S
C1011 C1017 1.365 1_545 S
C1012 C1013 1.361 . S
C1012 C1017 1.379 1_655 S
C1012 N1019 1.356 . S
C1013 C1012 1.361 . S
C1013 C1016 1.365 1_565 S
N1014 C1016 1.356 . S
N1014 H1026 0.984 . S
N1014 H1027 0.985 . S
N1015 C1017 1.356 . S
N1015 H1020 0.984 . S
N1015 H1021 0.985 . S
C1016 C1010 1.379 1_655 S
C1016 C1013 1.365 1_545 S
C1016 N1014 1.356 . S
C1017 C1011 1.365 1_565 S
C1017 C1012 1.379 1_455 S
C1017 N1015 1.356 . S
N1018 C1010 1.356 . S
N1018 H1024 0.984 1_455 S
N1018 H1025 0.984 . S
N1019 C1012 1.356 . S
N1019 H1022 0.984 . S
N1019 H1023 0.985 1_655 S
H1020 N1015 0.984 . S
H1021 N1015 0.985 . S
H1022 N1019 0.984 . S
H1023 N1019 0.985 1_455 S
H1024 N1018 0.984 1_655 S
H1025 N1018 0.984 . S
H1026 N1014 0.984 . S
H1027 N1014 0.985 . S
C1028 C1029 1.363 . S
C1028 C1034 1.379 . S
C1028 N1036 1.356 . S
C1029 C1028 1.363 . S
C1029 C1035 1.363 . S
C1030 C1031 1.363 . S
C1030 C1035 1.379 . S
C1030 N1037 1.356 . S
C1031 C1030 1.363 . S
C1031 C1034 1.363 . S
N1032 C1034 1.356 . S
N1032 H1044 0.984 . S
N1032 H1045 0.985 . S
N1033 C1035 1.356 . S
N1033 H1038 0.984 . S
N1033 H1039 0.985 . S
C1034 C1028 1.379 . S
C1034 C1031 1.363 . S
C1034 N1032 1.356 . S
C1035 C1029 1.363 . S
C1035 C1030 1.379 . S
C1035 N1033 1.356 . S
N1036 C1028 1.356 . S
N1036 H1042 0.984 . S
N1036 H1043 0.984 . S
N1037 C1030 1.356 . S
N1037 H1040 0.984 . S
N1037 H1041 0.985 . S
H1038 N1033 0.984 . S
H1039 N1033 0.985 . S
H1040 N1037 0.984 . S
H1041 N1037 0.985 . S
H1042 N1036 0.984 . S
H1043 N1036 0.984 . S
H1044 N1032 0.984 . S
H1045 N1032 0.985 . S
C1046 C1047 1.361 . S
C1046 C1052 1.402 . S
C1046 N1054 1.356 . S
C1047 C1046 1.361 . S
C1047 C1053 1.341 1_564 S
C1048 C1049 1.361 . S
C1048 C1053 1.402 . S
C1048 N1055 1.356 . S
C1049 C1048 1.361 . S
C1049 C1052 1.341 1_546 S
N1050 C1052 1.350 1_556 S
N1050 H1062 0.984 1_556 S
N1050 H1063 0.985 . S
N1051 C1053 1.350 1_554 S
N1051 H1056 0.984 . S
N1051 H1057 0.985 1_554 S
C1052 C1046 1.402 . S
C1052 C1049 1.341 1_564 S
C1052 N1050 1.350 1_554 S
C1053 C1047 1.341 1_546 S
C1053 C1048 1.402 . S
C1053 N1051 1.350 1_556 S
N1054 C1046 1.356 . S
N1054 H1060 0.984 . S
N1054 H1061 0.984 . S
N1055 C1048 1.356 . S
N1055 H1058 0.984 . S
N1055 H1059 0.985 . S
H1056 N1051 0.984 . S
H1057 N1051 0.985 1_556 S
H1058 N1055 0.984 . S
H1059 N1055 0.985 . S
H1060 N1054 0.984 . S
H1061 N1054 0.984 . S
H1062 N1050 0.984 1_554 S
H1063 N1050 0.985 . S
C1064 C1065 1.363 . S
C1064 C1070 1.379 . S
C1064 N1072 1.356 . S
C1065 C1064 1.363 . S
C1065 C1071 1.363 . S
C1066 C1067 1.363 . S
C1066 C1071 1.379 . S
C1066 N1073 1.356 . S
C1067 C1066 1.363 . S
C1067 C1070 1.363 . S
N1068 C1070 1.356 . S
N1068 H1080 0.984 . S
N1068 H1081 0.985 . S
N1069 C1071 1.356 . S
N1069 H1074 0.984 . S
N1069 H1075 0.985 . S
C1070 C1064 1.379 . S
C1070 C1067 1.363 . S
C1070 N1068 1.356 . S
C1071 C1065 1.363 . S
C1071 C1066 1.379 . S
C1071 N1069 1.356 . S
N1072 C1064 1.356 . S
N1072 H1078 0.984 . S
N1072 H1079 0.984 . S
N1073 C1066 1.356 . S
N1073 H1076 0.984 . S
N1073 H1077 0.985 . S
H1074 N1069 0.984 . S
H1075 N1069 0.985 . S
H1076 N1073 0.984 . S
H1077 N1073 0.985 . S
H1078 N1072 0.984 . S
H1079 N1072 0.984 . S
H1080 N1068 0.984 . S
H1081 N1068 0.985 . S
C1082 C1083 1.361 . S
C1082 C1088 1.379 . S
C1082 N1090 1.356 . S
C1083 C1082 1.361 . S
C1083 C1089 1.365 1_545 S
C1084 C1085 1.361 . S
C1084 C1089 1.379 . S
C1084 N1091 1.356 . S
C1085 C1084 1.361 . S
C1085 C1088 1.365 1_565 S
N1086 C1088 1.356 . S
N1086 H1098 0.984 . S
N1086 H1099 0.985 . S
N1087 C1089 1.356 . S
N1087 H1092 0.984 . S
N1087 H1093 0.985 . S
C1088 C1082 1.379 . S
C1088 C1085 1.365 1_545 S
C1088 N1086 1.356 . S
C1089 C1083 1.365 1_565 S
C1089 C1084 1.379 . S
C1089 N1087 1.356 . S
N1090 C1082 1.356 . S
N1090 H1096 0.984 . S
N1090 H1097 0.984 . S
N1091 C1084 1.356 . S
N1091 H1094 0.984 . S
N1091 H1095 0.985 . S
H1092 N1087 0.984 . S
H1093 N1087 0.985 . S
H1094 N1091 0.984 . S
H1095 N1091 0.985 . S
H1096 N1090 0.984 . S
H1097 N1090 0.984 . S
H1098 N1086 0.984 . S
H1099 N1086 0.985 . S
C1100 C1101 1.363 . S
C1100 C1106 1.379 . S
C1100 N1108 1.356 . S
C1101 C1100 1.363 . S
C1101 C1107 1.363 . S
C1102 C1103 1.363 . S
C1102 C1107 1.379 . S
C1102 N1109 1.356 . S
C1103 C1102 1.363 . S
C1103 C1106 1.363 . S
N1104 C1106 1.356 . S
N1104 H1116 0.984 . S
N1104 H1117 0.985 . S
N1105 C1107 1.356 . S
N1105 H1110 0.984 . S
N1105 H1111 0.985 . S
C1106 C1100 1.379 . S
C1106 C1103 1.363 . S
C1106 N1104 1.356 . S
C1107 C1101 1.363 . S
C1107 C1102 1.379 . S
C1107 N1105 1.356 . S
N1108 C1100 1.356 . S
N1108 H1114 0.984 . S
N1108 H1115 0.984 . S
N1109 C1102 1.356 . S
N1109 H1112 0.984 . S
N1109 H1113 0.985 . S
H1110 N1105 0.984 . S
H1111 N1105 0.985 . S
H1112 N1109 0.984 . S
H1113 N1109 0.985 . S
H1114 N1108 0.984 . S
H1115 N1108 0.984 . S
H1116 N1104 0.984 . S
H1117 N1104 0.985 . S
C1118 C1119 1.341 1_544 S
C1118 C1124 1.402 1_455 S
C1118 N1126 1.350 1_554 S
C1119 C1118 1.341 1_566 S
C1119 C1125 1.361 . S
C1120 C1121 1.341 1_566 S
C1120 C1125 1.402 1_655 S
C1120 N1127 1.350 1_556 S
C1121 C1120 1.341 1_544 S
C1121 C1124 1.361 . S
N1122 C1124 1.356 . S
N1122 H1134 0.984 1_655 S
N1122 H1135 0.985 . S
N1123 C1125 1.356 . S
N1123 H1128 0.984 . S
N1123 H1129 0.985 1_455 S
C1124 C1118 1.402 1_655 S
C1124 C1121 1.361 . S
C1124 N1122 1.356 . S
C1125 C1119 1.361 . S
C1125 C1120 1.402 1_455 S
C1125 N1123 1.356 . S
N1126 C1118 1.350 1_556 S
N1126 H1132 0.984 1_556 S
N1126 H1133 0.984 . S
N1127 C1120 1.350 1_554 S
N1127 H1130 0.984 . S
N1127 H1131 0.985 1_554 S
H1128 N1123 0.984 . S
H1129 N1123 0.985 1_655 S
H1130 N1127 0.984 . S
H1131 N1127 0.985 1_556 S
H1132 N1126 0.984 1_554 S
H1133 N1126 0.984 . S
H1134 N1122 0.984 1_455 S
H1135 N1122 0.985 . S
C1136 C1137 1.363 . S
C1136 C1142 1.379 . S
C1136 N1144 1.356 . S
C1137 C1136 1.363 . S
C1137 C1143 1.363 . S
C1138 C1139 1.363 . S
C1138 C1143 1.379 . S
C1138 N1145 1.356 . S
C1139 C1138 1.363 . S
C1139 C1142 1.363 . S
N1140 C1142 1.356 . S
N1140 H1152 0.984 . S
N1140 H1153 0.985 . S
N1141 C1143 1.356 . S
N1141 H1146 0.984 . S
N1141 H1147 0.985 . S
C1142 C1136 1.379 . S
C1142 C1139 1.363 . S
C1142 N1140 1.356 . S
C1143 C1137 1.363 . S
C1143 C1138 1.379 . S
C1143 N1141 1.356 . S
N1144 C1136 1.356 . S
N1144 H1150 0.984 . S
N1144 H1151 0.984 . S
N1145 C1138 1.356 . S
N1145 H1148 0.984 . S
N1145 H1149 0.985 . S
H1146 N1141 0.984 . S
H1147 N1141 0.985 . S
H1148 N1145 0.984 . S
H1149 N1145 0.985 . S
H1150 N1144 0.984 . S
H1151 N1144 0.984 . S
H1152 N1140 0.984 . S
H1153 N1140 0.985 . S
C1154 C1155 1.363 . S
C1154 C1160 1.379 . S
C1154 N1162 1.356 . S
C1155 C1154 1.363 . S
C1155 C1161 1.363 . S
C1156 C1157 1.363 . S
C1156 C1161 1.379 . S
C1156 N1163 1.356 . S
C1157 C1156 1.363 . S
C1157 C1160 1.363 . S
N1158 C1160 1.356 . S
N1158 H1170 0.984 . S
N1158 H1171 0.985 . S
N1159 C1161 1.356 . S
N1159 H1164 0.984 . S
N1159 H1165 0.985 . S
C1160 C1154 1.379 . S
C1160 C1157 1.363 . S
C1160 N1158 1.356 . S
C1161 C1155 1.363 . S
C1161 C1156 1.379 . S
C1161 N1159 1.356 . S
N1162 C1154 1.356 . S
N1162 H1168 0.984 . S
N1162 H1169 0.984 . S
N1163 C1156 1.356 . S
N1163 H1166 0.984 . S
N1163 H1167 0.985 . S
H1164 N1159 0.984 . S
H1165 N1159 0.985 . S
H1166 N1163 0.984 . S
H1167 N1163 0.985 . S
H1168 N1162 0.984 . S
H1169 N1162 0.984 . S
H1170 N1158 0.984 . S
H1171 N1158 0.985 . S
C1172 C1173 1.363 . S
C1172 C1178 1.379 . S
C1172 N1180 1.356 . S
C1173 C1172 1.363 . S
C1173 C1179 1.363 . S
C1174 C1175 1.363 . S
C1174 C1179 1.379 . S
C1174 N1181 1.356 . S
C1175 C1174 1.363 . S
C1175 C1178 1.363 . S
N1176 C1178 1.356 . S
N1176 H1188 0.984 . S
N1176 H1189 0.985 . S
N1177 C1179 1.356 . S
N1177 H1182 0.984 . S
N1177 H1183 0.985 . S
C1178 C1172 1.379 . S
C1178 C1175 1.363 . S
C1178 N1176 1.356 . S
C1179 C1173 1.363 . S
C1179 C1174 1.379 . S
C1179 N1177 1.356 . S
N1180 C1172 1.356 . S
N1180 H1186 0.984 . S
N1180 H1187 0.984 . S
N1181 C1174 1.356 . S
N1181 H1184 0.984 . S
N1181 H1185 0.985 . S
H1182 N1177 0.984 . S
H1183 N1177 0.985 . S
H1184 N1181 0.984 . S
H1185 N1181 0.985 . S
H1186 N1180 0.984 . S
H1187 N1180 0.984 . S
H1188 N1176 0.984 . S
H1189 N1176 0.985 . S
C1190 C1191 1.363 . S
C1190 C1196 1.379 . S
C1190 N1198 1.356 . S
C1191 C1190 1.363 . S
C1191 C1197 1.363 . S
C1192 C1193 1.363 . S
C1192 C1197 1.379 . S
C1192 N1199 1.356 . S
C1193 C1192 1.363 . S
C1193 C1196 1.363 . S
N1194 C1196 1.356 . S
N1194 H1206 0.984 . S
N1194 H1207 0.985 . S
N1195 C1197 1.356 . S
N1195 H1200 0.984 . S
N1195 H1201 0.985 . S
C1196 C1190 1.379 . S
C1196 C1193 1.363 . S
C1196 N1194 1.356 . S
C1197 C1191 1.363 . S
C1197 C1192 1.379 . S
C1197 N1195 1.356 . S
N1198 C1190 1.356 . S
N1198 H1204 0.984 . S
N1198 H1205 0.984 . S
N1199 C1192 1.356 . S
N1199 H1202 0.984 . S
N1199 H1203 0.985 . S
H1200 N1195 0.984 . S
H1201 N1195 0.985 . S
H1202 N1199 0.984 . S
H1203 N1199 0.985 . S
H1204 N1198 0.984 . S
H1205 N1198 0.984 . S
H1206 N1194 0.984 . S
H1207 N1194 0.985 . S
C1208 C1209 1.339 1_556 S
C1208 C1214 1.402 . S
C1208 N1216 1.350 1_556 S
C1209 C1208 1.339 1_554 S
C1209 C1215 1.363 . S
C1210 C1211 1.339 1_554 S
C1210 C1215 1.402 . S
C1210 N1217 1.350 1_554 S
C1211 C1210 1.339 1_556 S
C1211 C1214 1.363 . S
N1212 C1214 1.356 . S
N1212 H1224 0.984 . S
N1212 H1225 0.985 . S
N1213 C1215 1.356 . S
N1213 H1218 0.984 . S
N1213 H1219 0.985 . S
C1214 C1208 1.402 . S
C1214 C1211 1.363 . S
C1214 N1212 1.356 . S
C1215 C1209 1.363 . S
C1215 C1210 1.402 . S
C1215 N1213 1.356 . S
N1216 C1208 1.350 1_554 S
N1216 H1222 0.984 1_554 S
N1216 H1223 0.984 . S
N1217 C1210 1.350 1_556 S
N1217 H1220 0.984 . S
N1217 H1221 0.985 1_556 S
H1218 N1213 0.984 . S
H1219 N1213 0.985 . S
H1220 N1217 0.984 . S
H1221 N1217 0.985 1_554 S
H1222 N1216 0.984 1_556 S
H1223 N1216 0.984 . S
H1224 N1212 0.984 . S
H1225 N1212 0.985 . S
C1226 C1227 1.363 . S
C1226 C1232 1.379 1_455 S
C1226 N1234 1.356 . S
C1227 C1226 1.363 . S
C1227 C1233 1.363 . S
C1228 C1229 1.363 . S
C1228 C1233 1.379 1_655 S
C1228 N1235 1.356 . S
C1229 C1228 1.363 . S
C1229 C1232 1.363 . S
N1230 C1232 1.356 . S
N1230 H1242 0.984 . S
N1230 H1243 0.985 . S
N1231 C1233 1.356 . S
N1231 H1236 0.984 . S
N1231 H1237 0.985 . S
C1232 C1226 1.379 1_655 S
C1232 C1229 1.363 . S
C1232 N1230 1.356 . S
C1233 C1227 1.363 . S
C1233 C1228 1.379 1_455 S
C1233 N1231 1.356 . S
N1234 C1226 1.356 . S
N1234 H1240 0.984 1_455 S
N1234 H1241 0.984 . S
N1235 C1228 1.356 . S
N1235 H1238 0.984 . S
N1235 H1239 0.985 1_655 S
H1236 N1231 0.984 . S
H1237 N1231 0.985 . S
H1238 N1235 0.984 . S
H1239 N1235 0.985 1_455 S
H1240 N1234 0.984 1_655 S
H1241 N1234 0.984 . S
H1242 N1230 0.984 . S
H1243 N1230 0.985 . S
C1244 C1245 1.363 . S
C1244 C1250 1.402 1_455 S
C1244 N1252 1.356 . S
C1245 C1244 1.363 . S
C1245 C1251 1.338 1_554 S
C1246 C1247 1.363 . S
C1246 C1251 1.402 1_655 S
C1246 N1253 1.356 . S
C1247 C1246 1.363 . S
C1247 C1250 1.338 1_556 S
N1248 C1250 1.350 1_556 S
N1248 H1260 0.984 1_556 S
N1248 H1261 0.985 . S
N1249 C1251 1.350 1_554 S
N1249 H1254 0.984 . S
N1249 H1255 0.985 1_554 S
C1250 C1244 1.402 1_655 S
C1250 C1247 1.338 1_554 S
C1250 N1248 1.350 1_554 S
C1251 C1245 1.338 1_556 S
C1251 C1246 1.402 1_455 S
C1251 N1249 1.350 1_556 S
N1252 C1244 1.356 . S
N1252 H1258 0.984 1_455 S
N1252 H1259 0.984 . S
N1253 C1246 1.356 . S
N1253 H1256 0.984 . S
N1253 H1257 0.985 1_655 S
H1254 N1249 0.984 . S
H1255 N1249 0.985 1_556 S
H1256 N1253 0.984 . S
H1257 N1253 0.985 1_455 S
H1258 N1252 0.984 1_655 S
H1259 N1252 0.984 . S
H1260 N1248 0.984 1_554 S
H1261 N1248 0.985 . S
C1262 C1263 1.363 . S
C1262 C1268 1.379 . S
C1262 N1270 1.356 . S
C1263 C1262 1.363 . S
C1263 C1269 1.363 . S
C1264 C1265 1.363 . S
C1264 C1269 1.379 . S
C1264 N1271 1.356 . S
C1265 C1264 1.363 . S
C1265 C1268 1.363 . S
N1266 C1268 1.356 . S
N1266 H1278 0.984 . S
N1266 H1279 0.985 . S
N1267 C1269 1.356 . S
N1267 H1272 0.984 . S
N1267 H1273 0.985 . S
C1268 C1262 1.379 . S
C1268 C1265 1.363 . S
C1268 N1266 1.356 . S
C1269 C1263 1.363 . S
C1269 C1264 1.379 . S
C1269 N1267 1.356 . S
N1270 C1262 1.356 . S
N1270 H1276 0.984 . S
N1270 H1277 0.984 . S
N1271 C1264 1.356 . S
N1271 H1274 0.984 . S
N1271 H1275 0.985 . S
H1272 N1267 0.984 . S
H1273 N1267 0.985 . S
H1274 N1271 0.984 . S
H1275 N1271 0.985 . S
H1276 N1270 0.984 . S
H1277 N1270 0.984 . S
H1278 N1266 0.984 . S
H1279 N1266 0.985 . S
C1280 C1281 1.363 . S
C1280 C1286 1.379 . S
C1280 N1288 1.356 . S
C1281 C1280 1.363 . S
C1281 C1287 1.363 1_545 S
C1282 C1283 1.363 . S
C1282 C1287 1.379 . S
C1282 N1289 1.356 . S
C1283 C1282 1.363 . S
C1283 C1286 1.363 1_565 S
N1284 C1286 1.354 1_565 S
N1284 H1296 0.975 1_565 S
N1284 H1297 0.996 . S
N1285 C1287 1.354 1_545 S
N1285 H1290 0.996 . S
N1285 H1291 0.975 1_545 S
C1286 C1280 1.379 . S
C1286 C1283 1.363 1_545 S
C1286 N1284 1.354 1_545 S
C1287 C1281 1.363 1_565 S
C1287 C1282 1.379 . S
C1287 N1285 1.354 1_565 S
N1288 C1280 1.356 . S
N1288 H1294 0.984 . S
N1288 H1295 0.984 . S
N1289 C1282 1.356 . S
N1289 H1292 0.984 . S
N1289 H1293 0.985 . S
H1290 N1285 0.996 . S
H1291 N1285 0.975 1_565 S
H1292 N1289 0.984 . S
H1293 N1289 0.985 . S
H1294 N1288 0.984 . S
H1295 N1288 0.984 . S
H1296 N1284 0.975 1_545 S
H1297 N1284 0.996 . S
C1298 C1299 1.363 . S
C1298 C1304 1.379 . S
C1298 N1306 1.356 . S
C1299 C1298 1.363 . S
C1299 C1305 1.363 . S
C1300 C1301 1.363 . S
C1300 C1305 1.379 . S
C1300 N1307 1.356 . S
C1301 C1300 1.363 . S
C1301 C1304 1.363 . S
N1302 C1304 1.356 . S
N1302 H1314 0.984 1_565 S
N1302 H1315 0.985 . S
N1303 C1305 1.356 . S
N1303 H1308 0.984 . S
N1303 H1309 0.985 . S
C1304 C1298 1.379 . S
C1304 C1301 1.363 . S
C1304 N1302 1.356 . S
C1305 C1299 1.363 . S
C1305 C1300 1.379 . S
C1305 N1303 1.356 . S
N1306 C1298 1.356 . S
N1306 H1312 0.984 1_565 S
N1306 H1313 0.984 . S
N1307 C1300 1.356 . S
N1307 H1310 0.984 . S
N1307 H1311 0.985 . S
H1308 N1303 0.984 . S
H1309 N1303 0.985 . S
H1310 N1307 0.984 . S
H1311 N1307 0.985 . S
H1312 N1306 0.984 1_545 S
H1313 N1306 0.984 . S
H1314 N1302 0.984 1_545 S
H1315 N1302 0.985 . S
C1316 C1317 1.363 . S
C1316 C1322 1.379 1_545 S
C1316 N1324 1.356 . S
C1317 C1316 1.363 . S
C1317 C1323 1.363 . S
C1318 C1319 1.363 . S
C1318 C1323 1.379 1_565 S
C1318 N1325 1.356 . S
C1319 C1318 1.363 . S
C1319 C1322 1.363 . S
N1320 C1322 1.356 . S
N1320 H1332 0.984 1_565 S
N1320 H1333 0.985 . S
N1321 C1323 1.356 . S
N1321 H1326 0.984 . S
N1321 H1327 0.985 1_545 S
C1322 C1316 1.379 1_565 S
C1322 C1319 1.363 . S
C1322 N1320 1.356 . S
C1323 C1317 1.363 . S
C1323 C1318 1.379 1_545 S
C1323 N1321 1.356 . S
N1324 C1316 1.356 . S
N1324 H1330 0.984 . S
N1324 H1331 0.984 . S
N1325 C1318 1.356 . S
N1325 H1328 0.984 . S
N1325 H1329 0.985 . S
H1326 N1321 0.984 . S
H1327 N1321 0.985 1_565 S
H1328 N1325 0.984 . S
H1329 N1325 0.985 . S
H1330 N1324 0.984 . S
H1331 N1324 0.984 . S
H1332 N1320 0.984 1_545 S
H1333 N1320 0.985 . S
C1334 C1335 1.363 . S
C1334 C1340 1.355 1_554 S
C1334 N1342 1.356 . S
C1335 C1334 1.363 . S
C1335 C1341 1.387 . S
C1336 C1337 1.363 . S
C1336 C1341 1.355 1_556 S
C1336 N1343 1.356 . S
C1337 C1336 1.363 . S
C1337 C1340 1.387 . S
N1338 C1340 1.365 . S
N1338 H1350 0.984 1_556 S
N1338 H1351 0.985 . S
N1339 C1341 1.365 . S
N1339 H1344 0.984 . S
N1339 H1345 0.985 1_544 S
C1340 C1334 1.355 1_556 S
C1340 C1337 1.387 . S
C1340 N1338 1.365 . S
C1341 C1335 1.387 . S
C1341 C1336 1.355 1_554 S
C1341 N1339 1.365 . S
N1342 C1334 1.356 . S
N1342 H1348 0.984 . S
N1342 H1349 0.984 . S
N1343 C1336 1.356 . S
N1343 H1346 0.984 . S
N1343 H1347 0.985 1_545 S
H1344 N1339 0.984 . S
H1345 N1339 0.985 1_566 S
H1346 N1343 0.984 . S
H1347 N1343 0.985 1_565 S
H1348 N1342 0.984 . S
H1349 N1342 0.984 . S
H1350 N1338 0.984 1_554 S
H1351 N1338 0.985 . S
C1352 C1353 1.363 . S
C1352 C1358 1.379 . S
C1352 N1360 1.356 . S
C1353 C1352 1.363 . S
C1353 C1359 1.363 1_545 S
C1354 C1355 1.363 . S
C1354 C1359 1.379 . S
C1354 N1361 1.356 . S
C1355 C1354 1.363 . S
C1355 C1358 1.363 1_565 S
N1356 C1358 1.356 1_565 S
N1356 H1368 0.984 1_565 S
N1356 H1369 0.985 . S
N1357 C1359 1.356 1_545 S
N1357 H1362 0.984 . S
N1357 H1363 0.985 1_545 S
C1358 C1352 1.379 . S
C1358 C1355 1.363 1_545 S
C1358 N1356 1.356 1_545 S
C1359 C1353 1.363 1_565 S
C1359 C1354 1.379 . S
C1359 N1357 1.356 1_565 S
N1360 C1352 1.356 . S
N1360 H1366 0.984 . S
N1360 H1367 0.984 . S
N1361 C1354 1.356 . S
N1361 H1364 0.984 . S
N1361 H1365 0.985 . S
H1362 N1357 0.984 . S
H1363 N1357 0.985 1_565 S
H1364 N1361 0.984 . S
H1365 N1361 0.985 . S
H1366 N1360 0.984 . S
H1367 N1360 0.984 . S
H1368 N1356 0.984 1_545 S
H1369 N1356 0.985 . S
C1370 C1371 1.363 . S
C1370 C1376 1.379 . S
C1370 N1378 1.356 . S
C1371 C1370 1.363 . S
C1371 C1377 1.363 . S
C1372 C1373 1.363 . S
C1372 C1377 1.379 . S
C1372 N1379 1.356 . S
C1373 C1372 1.363 . S
C1373 C1376 1.363 . S
N1374 C1376 1.356 . S
N1374 H1386 0.984 1_545 S
N1374 H1387 0.985 . S
N1375 C1377 1.356 . S
N1375 H1380 0.984 . S
N1375 H1381 0.985 . S
C1376 C1370 1.379 . S
C1376 C1373 1.363 . S
C1376 N1374 1.356 . S
C1377 C1371 1.363 . S
C1377 C1372 1.379 . S
C1377 N1375 1.356 . S
N1378 C1370 1.356 . S
N1378 H1384 0.984 1_545 S
N1378 H1385 0.984 . S
N1379 C1372 1.356 . S
N1379 H1382 0.984 . S
N1379 H1383 0.985 . S
H1380 N1375 0.984 . S
H1381 N1375 0.985 . S
H1382 N1379 0.984 . S
H1383 N1379 0.985 . S
H1384 N1378 0.984 1_565 S
H1385 N1378 0.984 . S
H1386 N1374 0.984 1_565 S
H1387 N1374 0.985 . S
C1388 C1389 1.363 . S
C1388 C1394 1.379 1_545 S
C1388 N1396 1.356 . S
C1389 C1388 1.363 . S
C1389 C1395 1.363 . S
C1390 C1391 1.363 . S
C1390 C1395 1.379 1_565 S
C1390 N1397 1.356 . S
C1391 C1390 1.363 . S
C1391 C1394 1.363 . S
N1392 C1394 1.356 . S
N1392 H1404 0.984 . S
N1392 H1405 0.985 . S
N1393 C1395 1.356 . S
N1393 H1398 0.984 . S
N1393 H1399 0.985 . S
C1394 C1388 1.379 1_565 S
C1394 C1391 1.363 . S
C1394 N1392 1.356 . S
C1395 C1389 1.363 . S
C1395 C1390 1.379 1_545 S
C1395 N1393 1.356 . S
N1396 C1388 1.356 . S
N1396 H1402 0.984 1_545 S
N1396 H1403 0.984 . S
N1397 C1390 1.356 . S
N1397 H1400 0.984 . S
N1397 H1401 0.985 1_565 S
H1398 N1393 0.984 . S
H1399 N1393 0.985 . S
H1400 N1397 0.984 . S
H1401 N1397 0.985 1_545 S
H1402 N1396 0.984 1_565 S
H1403 N1396 0.984 . S
H1404 N1392 0.984 . S
H1405 N1392 0.985 . S
C1406 C1407 1.387 . S
C1406 C1412 1.355 1_556 S
C1406 N1414 1.365 . S
C1407 C1406 1.387 . S
C1407 C1413 1.363 . S
C1408 C1409 1.387 . S
C1408 C1413 1.355 1_554 S
C1408 N1415 1.365 . S
C1409 C1408 1.387 . S
C1409 C1412 1.363 . S
N1410 C1412 1.356 . S
N1410 H1422 0.984 . S
N1410 H1423 0.985 . S
N1411 C1413 1.356 . S
N1411 H1416 0.984 . S
N1411 H1417 0.985 1_565 S
C1412 C1406 1.355 1_554 S
C1412 C1409 1.363 . S
C1412 N1410 1.356 . S
C1413 C1407 1.363 . S
C1413 C1408 1.355 1_556 S
C1413 N1411 1.356 . S
N1414 C1406 1.365 . S
N1414 H1420 0.984 1_556 S
N1414 H1421 0.984 . S
N1415 C1408 1.365 . S
N1415 H1418 0.984 . S
N1415 H1419 0.985 1_564 S
H1416 N1411 0.984 . S
H1417 N1411 0.985 1_545 S
H1418 N1415 0.984 . S
H1419 N1415 0.985 1_546 S
H1420 N1414 0.984 1_554 S
H1421 N1414 0.984 . S
H1422 N1410 0.984 . S
H1423 N1410 0.985 . S
C1424 C1425 1.363 . S
C1424 C1430 1.379 . S
C1424 N1432 1.356 . S
C1425 C1424 1.363 . S
C1425 C1431 1.363 . S
C1426 C1427 1.363 . S
C1426 C1431 1.379 . S
C1426 N1433 1.356 . S
C1427 C1426 1.363 . S
C1427 C1430 1.363 . S
N1428 C1430 1.356 . S
N1428 H1440 0.984 . S
N1428 H1441 0.985 . S
N1429 C1431 1.356 . S
N1429 H1434 0.984 . S
N1429 H1435 0.985 . S
C1430 C1424 1.379 . S
C1430 C1427 1.363 . S
C1430 N1428 1.356 . S
C1431 C1425 1.363 . S
C1431 C1426 1.379 . S
C1431 N1429 1.356 . S
N1432 C1424 1.356 . S
N1432 H1438 0.984 . S
N1432 H1439 0.984 . S
N1433 C1426 1.356 . S
N1433 H1436 0.984 . S
N1433 H1437 0.985 . S
H1434 N1429 0.984 . S
H1435 N1429 0.985 . S
H1436 N1433 0.984 . S
H1437 N1433 0.985 . S
H1438 N1432 0.984 . S
H1439 N1432 0.984 . S
H1440 N1428 0.984 . S
H1441 N1428 0.985 . S
C1442 C1443 1.387 . S
C1442 C1448 1.355 1_556 S
C1442 N1450 1.365 . S
C1443 C1442 1.387 . S
C1443 C1449 1.363 . S
C1444 C1445 1.387 . S
C1444 C1449 1.355 1_554 S
C1444 N1451 1.365 . S
C1445 C1444 1.387 . S
C1445 C1448 1.363 . S
N1446 C1448 1.356 . S
N1446 H1458 0.984 . S
N1446 H1459 0.985 . S
N1447 C1449 1.356 . S
N1447 H1452 0.984 . S
N1447 H1453 0.985 . S
C1448 C1442 1.355 1_554 S
C1448 C1445 1.363 . S
C1448 N1446 1.356 . S
C1449 C1443 1.363 . S
C1449 C1444 1.355 1_556 S
C1449 N1447 1.356 . S
N1450 C1442 1.365 . S
N1450 H1456 0.984 1_556 S
N1450 H1457 0.984 . S
N1451 C1444 1.365 . S
N1451 H1454 0.984 . S
N1451 H1455 0.985 1_554 S
H1452 N1447 0.984 . S
H1453 N1447 0.985 . S
H1454 N1451 0.984 . S
H1455 N1451 0.985 1_556 S
H1456 N1450 0.984 1_554 S
H1457 N1450 0.984 . S
H1458 N1446 0.984 . S
H1459 N1446 0.985 . S
C1460 C1461 1.363 . S
C1460 C1466 1.379 . S
C1460 N1468 1.356 . S
C1461 C1460 1.363 . S
C1461 C1467 1.363 . S
C1462 C1463 1.363 . S
C1462 C1467 1.379 . S
C1462 N1469 1.356 . S
C1463 C1462 1.363 . S
C1463 C1466 1.363 . S
N1464 C1466 1.356 . S
N1464 H1476 0.984 . S
N1464 H1477 0.985 . S
N1465 C1467 1.356 . S
N1465 H1470 0.984 . S
N1465 H1471 0.985 . S
C1466 C1460 1.379 . S
C1466 C1463 1.363 . S
C1466 N1464 1.356 . S
C1467 C1461 1.363 . S
C1467 C1462 1.379 . S
C1467 N1465 1.356 . S
N1468 C1460 1.356 . S
N1468 H1474 0.984 . S
N1468 H1475 0.984 . S
N1469 C1462 1.356 . S
N1469 H1472 0.984 . S
N1469 H1473 0.985 . S
H1470 N1465 0.984 . S
H1471 N1465 0.985 . S
H1472 N1469 0.984 . S
H1473 N1469 0.985 . S
H1474 N1468 0.984 . S
H1475 N1468 0.984 . S
H1476 N1464 0.984 . S
H1477 N1464 0.985 . S
C1478 C1479 1.363 . S
C1478 C1484 1.379 . S
C1478 N1486 1.356 . S
C1479 C1478 1.363 . S
C1479 C1485 1.363 . S
C1480 C1481 1.363 . S
C1480 C1485 1.379 . S
C1480 N1487 1.356 . S
C1481 C1480 1.363 . S
C1481 C1484 1.363 . S
N1482 C1484 1.356 . S
N1482 H1494 0.984 . S
N1482 H1495 0.985 . S
N1483 C1485 1.356 . S
N1483 H1488 0.984 . S
N1483 H1489 0.985 . S
C1484 C1478 1.379 . S
C1484 C1481 1.363 . S
C1484 N1482 1.356 . S
C1485 C1479 1.363 . S
C1485 C1480 1.379 . S
C1485 N1483 1.356 . S
N1486 C1478 1.356 . S
N1486 H1492 0.984 . S
N1486 H1493 0.984 . S
N1487 C1480 1.356 . S
N1487 H1490 0.984 . S
N1487 H1491 0.985 . S
H1488 N1483 0.984 . S
H1489 N1483 0.985 . S
H1490 N1487 0.984 . S
H1491 N1487 0.985 . S
H1492 N1486 0.984 . S
H1493 N1486 0.984 . S
H1494 N1482 0.984 . S
H1495 N1482 0.985 . S
C1496 C1497 1.363 . S
C1496 C1502 1.379 . S
C1496 N1504 1.356 . S
C1497 C1496 1.363 . S
C1497 C1503 1.363 . S
C1498 C1499 1.363 . S
C1498 C1503 1.379 . S
C1498 N1505 1.356 . S
C1499 C1498 1.363 . S
C1499 C1502 1.363 . S
N1500 C1502 1.356 . S
N1500 H1512 0.984 . S
N1500 H1513 0.985 . S
N1501 C1503 1.356 . S
N1501 H1506 0.984 . S
N1501 H1507 0.985 . S
C1502 C1496 1.379 . S
C1502 C1499 1.363 . S
C1502 N1500 1.356 . S
C1503 C1497 1.363 . S
C1503 C1498 1.379 . S
C1503 N1501 1.356 . S
N1504 C1496 1.356 . S
N1504 H1510 0.984 . S
N1504 H1511 0.984 . S
N1505 C1498 1.356 . S
N1505 H1508 0.984 . S
N1505 H1509 0.985 . S
H1506 N1501 0.984 . S
H1507 N1501 0.985 . S
H1508 N1505 0.984 . S
H1509 N1505 0.985 . S
H1510 N1504 0.984 . S
H1511 N1504 0.984 . S
H1512 N1500 0.984 . S
H1513 N1500 0.985 . S
C1514 C1515 1.363 . S
C1514 C1520 1.355 1_556 S
C1514 N1522 1.356 . S
C1515 C1514 1.363 . S
C1515 C1521 1.387 . S
C1516 C1517 1.363 . S
C1516 C1521 1.355 1_554 S
C1516 N1523 1.356 . S
C1517 C1516 1.363 . S
C1517 C1520 1.387 . S
N1518 C1520 1.365 . S
N1518 H1530 0.984 1_554 S
N1518 H1531 0.985 . S
N1519 C1521 1.365 . S
N1519 H1524 0.984 . S
N1519 H1525 0.985 1_556 S
C1520 C1514 1.355 1_554 S
C1520 C1517 1.387 . S
C1520 N1518 1.365 . S
C1521 C1515 1.387 . S
C1521 C1516 1.355 1_556 S
C1521 N1519 1.365 . S
N1522 C1514 1.356 . S
N1522 H1528 0.984 . S
N1522 H1529 0.984 . S
N1523 C1516 1.356 . S
N1523 H1526 0.984 . S
N1523 H1527 0.985 . S
H1524 N1519 0.984 . S
H1525 N1519 0.985 1_554 S
H1526 N1523 0.984 . S
H1527 N1523 0.985 . S
H1528 N1522 0.984 . S
H1529 N1522 0.984 . S
H1530 N1518 0.984 1_556 S
H1531 N1518 0.985 . S
C1532 C1533 1.363 . S
C1532 C1538 1.379 . S
C1532 N1540 1.356 . S
C1533 C1532 1.363 . S
C1533 C1539 1.363 . S
C1534 C1535 1.363 . S
C1534 C1539 1.379 . S
C1534 N1541 1.356 . S
C1535 C1534 1.363 . S
C1535 C1538 1.363 . S
N1536 C1538 1.356 . S
N1536 H1548 0.984 . S
N1536 H1549 0.985 . S
N1537 C1539 1.356 . S
N1537 H1542 0.984 . S
N1537 H1543 0.985 . S
C1538 C1532 1.379 . S
C1538 C1535 1.363 . S
C1538 N1536 1.356 . S
C1539 C1533 1.363 . S
C1539 C1534 1.379 . S
C1539 N1537 1.356 . S
N1540 C1532 1.356 . S
N1540 H1546 0.984 . S
N1540 H1547 0.984 . S
N1541 C1534 1.356 . S
N1541 H1544 0.984 . S
N1541 H1545 0.985 . S
H1542 N1537 0.984 . S
H1543 N1537 0.985 . S
H1544 N1541 0.984 . S
H1545 N1541 0.985 . S
H1546 N1540 0.984 . S
H1547 N1540 0.984 . S
H1548 N1536 0.984 . S
H1549 N1536 0.985 . S
C1550 C1551 1.363 . S
C1550 C1556 1.379 . S
C1550 N1558 1.356 . S
C1551 C1550 1.363 . S
C1551 C1557 1.363 . S
C1552 C1553 1.363 . S
C1552 C1557 1.379 . S
C1552 N1559 1.356 . S
C1553 C1552 1.363 . S
C1553 C1556 1.363 . S
N1554 C1556 1.356 . S
N1554 H1566 0.984 . S
N1554 H1567 0.985 . S
N1555 C1557 1.356 . S
N1555 H1560 0.984 . S
N1555 H1561 0.985 . S
C1556 C1550 1.379 . S
C1556 C1553 1.363 . S
C1556 N1554 1.356 . S
C1557 C1551 1.363 . S
C1557 C1552 1.379 . S
C1557 N1555 1.356 . S
N1558 C1550 1.356 . S
N1558 H1564 0.984 . S
N1558 H1565 0.984 . S
N1559 C1552 1.356 . S
N1559 H1562 0.984 . S
N1559 H1563 0.985 . S
H1560 N1555 0.984 . S
H1561 N1555 0.985 . S
H1562 N1559 0.984 . S
H1563 N1559 0.985 . S
H1564 N1558 0.984 . S
H1565 N1558 0.984 . S
H1566 N1554 0.984 . S
H1567 N1554 0.985 . S
C417 C361 1.498 . S
C419 C10 1.576 . S
C435 C23 1.576 1_655 S
C437 C105 1.576 . S
C453 C335 1.498 . S
C455 C36 1.576 . S
C471 C49 1.576 . S
C473 C131 1.576 . S
C489 C62 1.576 . S
C491 C387 1.498 . S
C507 C75 1.576 . S
C509 C183 1.576 . S
C525 C88 1.576 . S
C527 C413 1.498 . S
C543 C101 1.576 1_655 S
C545 C157 1.576 . S
C561 C248 1.498 . S
C563 C114 1.607 . S
C579 C1 1.498 . S
C581 C118 1.576 1_455 S
C597 C222 1.498 . S
C599 C140 1.607 . S
C615 C144 1.576 . S
C617 C27 1.498 . S
C633 C274 1.498 . S
C635 C166 1.607 . S
C651 C79 1.498 . S
C653 C170 1.576 . S
C669 C192 1.607 . S
C671 C300 1.498 . S
C687 C53 1.498 . S
C689 C196 1.576 1_455 S
C705 C218 1.576 . S
C707 C153 1.498 . S
C723 C231 1.576 . S
C725 C313 1.576 . S
C741 C127 1.498 . S
C743 C244 1.576 . S
C759 C339 1.576 . S
C761 C257 1.576 1_455 S
C777 C179 1.498 . S
C779 C270 1.576 . S
C795 C391 1.576 . S
C797 C283 1.576 1_455 S
C813 C205 1.498 . S
C815 C296 1.576 . S
C831 C309 1.576 . S
C833 C365 1.576 . S
C849 C40 1.498 . S
C851 C322 1.607 . S
C867 C326 1.576 . S
C869 C209 1.498 . S
C885 C348 1.607 . S
C887 C14 1.498 . S
C903 C352 1.576 1_655 S
C905 C235 1.498 . S
C921 C374 1.607 . S
C923 C66 1.498 . S
C939 C378 1.576 1_655 S
C941 C287 1.498 . S
C957 C400 1.607 . S
C959 C92 1.498 . S
C975 C404 1.576 . S
C977 C261 1.498 . S
C993 C315 1.834 . S
C995 C3 1.689 . S
C1011 C16 1.690 1_545 S
C1013 C122 1.690 1_565 S
C1029 C341 1.834 . S
C1031 C29 1.689 . S
C1047 C42 1.690 1_565 S
C1049 C148 1.690 1_545 S
C1065 C367 1.834 . S
C1067 C55 1.689 . S
C1083 C68 1.690 1_545 S
C1085 C174 1.690 1_565 S
C1101 C393 1.834 . S
C1103 C81 1.689 . S
C1119 C94 1.690 1_565 S
C1121 C200 1.690 1_545 S
C1137 C107 1.834 . S
C1139 C211 1.689 . S
C1155 C133 1.834 . S
C1157 C237 1.689 . S
C1173 C159 1.834 . S
C1175 C263 1.689 . S
C1191 C185 1.834 . S
C1193 C289 1.689 . S
C1209 C224 1.689 . S
C1211 C330 1.689 . S
C1227 C356 1.689 . S
C1229 C250 1.689 . S
C1245 C382 1.689 . S
C1247 C276 1.689 . S
C1263 C302 1.689 . S
C1265 C408 1.689 . S
C1281 C5 1.842 . S
C1283 C57 1.842 . S
C1299 C18 1.843 . S
C1301 C70 1.843 . S
C1317 C83 1.842 . S
C1319 C31 1.842 . S
C1335 C44 1.843 . S
C1337 C96 1.843 . S
C1353 C161 1.891 . S
C1355 C109 1.891 . S
C1371 C172 1.842 . S
C1373 C120 1.842 . S
C1389 C135 1.891 . S
C1391 C187 1.891 . S
C1407 C146 1.842 . S
C1409 C198 1.842 . S
C1425 C265 1.842 . S
C1427 C213 1.842 . S
C1443 C278 1.843 . S
C1445 C226 1.843 . S
C1461 C239 1.842 . S
C1463 C291 1.842 . S
C1479 C304 1.843 . S
C1481 C252 1.843 . S
C1497 C369 1.891 . S
C1499 C317 1.891 . S
C1515 C328 1.842 . S
C1517 C380 1.842 . S
C1533 C395 1.891 . S
C1535 C343 1.891 . S
C1551 C354 1.842 . S
C1553 C406 1.842 . S
