# Generated by pormake.
# Topology zff, (5)-cn, num edge types: 1
# Building blocks:
#     Node 0, Type 0, BuildingBlock: XOMCOT_clean_sbu_0, # of connection points: 5
#     Node 1, Type 0, BuildingBlock: XOMCOT_clean_sbu_0, # of connection points: 5
#     Node 2, Type 0, BuildingBlock: XOMCOT_clean_sbu_0, # of connection points: 5
#     Node 3, Type 0, BuildingBlock: XOMCOT_clean_sbu_0, # of connection points: 5
#     Node 4, Type 0, BuildingBlock: XOMCOT_clean_sbu_0, # of connection points: 5
#     Node 5, Type 0, BuildingBlock: XOMCOT_clean_sbu_0, # of connection points: 5
#     Node 6, Type 0, BuildingBlock: XOMCOT_clean_sbu_0, # of connection points: 5
#     Node 7, Type 0, BuildingBlock: XOMCOT_clean_sbu_0, # of connection points: 5
#     Node 8, Type 0, BuildingBlock: XOMCOT_clean_sbu_0, # of connection points: 5
#     Node 9, Type 0, BuildingBlock: XOMCOT_clean_sbu_0, # of connection points: 5
#     Node 10, Type 0, BuildingBlock: XOMCOT_clean_sbu_0, # of connection points: 5
#     Node 11, Type 0, BuildingBlock: XOMCOT_clean_sbu_0, # of connection points: 5
#     Node 12, Type 0, BuildingBlock: XOMCOT_clean_sbu_0, # of connection points: 5
#     Node 13, Type 0, BuildingBlock: XOMCOT_clean_sbu_0, # of connection points: 5
#     Node 14, Type 0, BuildingBlock: XOMCOT_clean_sbu_0, # of connection points: 5
#     Node 15, Type 0, BuildingBlock: XOMCOT_clean_sbu_0, # of connection points: 5
#     Edge 16, Type (0, 0), None
#     Edge 17, Type (0, 0), None
#     Edge 18, Type (0, 0), None
#     Edge 19, Type (0, 0), None
#     Edge 20, Type (0, 0), None
#     Edge 21, Type (0, 0), None
#     Edge 22, Type (0, 0), None
#     Edge 23, Type (0, 0), None
#     Edge 24, Type (0, 0), None
#     Edge 25, Type (0, 0), None
#     Edge 26, Type (0, 0), None
#     Edge 27, Type (0, 0), None
#     Edge 28, Type (0, 0), None
#     Edge 29, Type (0, 0), None
#     Edge 30, Type (0, 0), None
#     Edge 31, Type (0, 0), None
#     Edge 32, Type (0, 0), None
#     Edge 33, Type (0, 0), None
#     Edge 34, Type (0, 0), None
#     Edge 35, Type (0, 0), None
#     Edge 36, Type (0, 0), None
#     Edge 37, Type (0, 0), None
#     Edge 38, Type (0, 0), None
#     Edge 39, Type (0, 0), None
#     Edge 40, Type (0, 0), None
#     Edge 41, Type (0, 0), None
#     Edge 42, Type (0, 0), None
#     Edge 43, Type (0, 0), None
#     Edge 44, Type (0, 0), None
#     Edge 45, Type (0, 0), None
#     Edge 46, Type (0, 0), None
#     Edge 47, Type (0, 0), None
#     Edge 48, Type (0, 0), None
#     Edge 49, Type (0, 0), None
#     Edge 50, Type (0, 0), None
#     Edge 51, Type (0, 0), None
#     Edge 52, Type (0, 0), None
#     Edge 53, Type (0, 0), None
#     Edge 54, Type (0, 0), None
#     Edge 55, Type (0, 0), None
# Relax obj value: 0.137
# Max RMSD: 0.211
# Mean RMSD: 0.211
data_MOF--net-zff--node1-XOMCOT_clean_sbu_0--edge1-none
_symmetry_space_group_name_H-M    P1
_symmetry_Int_Tables_number       1
_symmetry_cell_setting            triclinic
loop_
_symmetry_equiv_pos_as_xyz
'x, y, z'
_cell_length_a     18.531656
_cell_length_b     18.531673
_cell_length_c     36.308615
_cell_angle_alpha  90.014553
_cell_angle_beta   89.985428
_cell_angle_gamma 89.99912
loop_
_atom_site_label
_atom_site_type_symbol
_atom_site_fract_x
_atom_site_fract_y
_atom_site_fract_z
_atom_type_partial_charge
Co0 Co 0.00949 0.34088 0.39891 0.0
C1 C 0.05668 0.40593 0.32921 0.0
C2 C 0.96209 0.34319 0.31831 0.0
C3 C 0.98778 0.3709 0.28535 0.0
N4 N 0.00715 0.36276 0.34588 0.0
N5 N 0.04627 0.41134 0.29278 0.0
H6 H 0.10095 0.43227 0.3431 0.0
H7 H 0.91263 0.31318 0.3214 0.0
C8 C 0.91616 0.217 0.37345 0.0
O9 O 0.96408 0.19863 0.3485 0.0
N10 N 0.02228 0.3246 0.45124 0.0
C11 C 0.08913 0.32351 0.46622 0.0
C12 C 0.08409 0.31809 0.50368 0.0
C13 C 0.97665 0.32111 0.4801 0.0
N14 N 0.01373 0.31677 0.51232 0.0
C15 C 0.14173 0.27251 0.3701 0.0
C16 C 0.11144 0.14009 0.40222 0.0
C17 C 0.17113 0.14628 0.37928 0.0
C18 C 0.18754 0.21345 0.36361 0.0
C19 C 0.06778 0.19986 0.40811 0.0
N20 N 0.08094 0.26448 0.391 0.0
H21 H 0.15574 0.32411 0.35858 0.0
H22 H 0.02204 0.19363 0.42627 0.0
H23 H 0.13878 0.3284 0.45076 0.0
H24 H 0.91857 0.32408 0.47764 0.0
O25 O 0.06571 0.42828 0.40585 0.0
O26 O 0.94628 0.42086 0.40795 0.0
O27 O 0.92809 0.26867 0.39585 0.0
C28 C 0.00319 0.46053 0.40952 0.0
H29 H 0.96365 0.36432 0.25844 0.0
H30 H 0.1285 0.31726 0.52301 0.0
H31 H 0.09855 0.08935 0.41553 0.0
H32 H 0.23509 0.22012 0.34659 0.0
Co33 Co 0.65821 0.00963 0.39892 0.0
C34 C 0.59316 0.05681 0.32921 0.0
C35 C 0.65593 0.96222 0.31831 0.0
C36 C 0.62822 0.98789 0.28535 0.0
N37 N 0.63634 0.00729 0.34588 0.0
N38 N 0.58776 0.04637 0.29279 0.0
H39 H 0.56682 0.10108 0.34311 0.0
H40 H 0.68593 0.91277 0.32139 0.0
C41 C 0.7821 0.91632 0.37343 0.0
O42 O 0.80048 0.96426 0.34851 0.0
N43 N 0.67447 0.02239 0.45125 0.0
C44 C 0.67554 0.08923 0.46627 0.0
C45 C 0.68096 0.08416 0.50373 0.0
C46 C 0.67796 0.97673 0.48009 0.0
N47 N 0.68229 0.01379 0.51233 0.0
C48 C 0.72659 0.14186 0.37014 0.0
C49 C 0.85899 0.11158 0.40227 0.0
C50 C 0.85282 0.17125 0.37934 0.0
C51 C 0.78565 0.18766 0.36366 0.0
C52 C 0.79922 0.06793 0.40815 0.0
N53 N 0.7346 0.08108 0.39104 0.0
H54 H 0.67499 0.15586 0.35861 0.0
H55 H 0.80544 0.02219 0.42631 0.0
H56 H 0.67065 0.13889 0.45082 0.0
H57 H 0.67501 0.91865 0.4776 0.0
O58 O 0.5708 0.06584 0.40586 0.0
O59 O 0.57823 0.94642 0.40792 0.0
O60 O 0.73042 0.92823 0.39583 0.0
C61 C 0.53856 0.00332 0.40952 0.0
H62 H 0.6348 0.96374 0.25844 0.0
H63 H 0.68178 0.12854 0.52307 0.0
H64 H 0.90973 0.09869 0.41558 0.0
H65 H 0.779 0.2352 0.34664 0.0
Co66 Co 0.98947 0.65838 0.3989 0.0
C67 C 0.94226 0.59323 0.32921 0.0
C68 C 0.03689 0.65593 0.3183 0.0
C69 C 0.01123 0.62816 0.28535 0.0
N70 N 0.99179 0.63643 0.34587 0.0
N71 N 0.95272 0.58775 0.29279 0.0
H72 H 0.89798 0.56693 0.34311 0.0
H73 H 0.08637 0.6859 0.32138 0.0
C74 C 0.0828 0.7822 0.37338 0.0
O75 O 0.03487 0.80053 0.34844 0.0
N76 N 0.97673 0.67475 0.45123 0.0
C77 C 0.9099 0.67598 0.46625 0.0
C78 C 0.91498 0.68132 0.50371 0.0
C79 C 0.0224 0.67804 0.48008 0.0
N80 N 0.98535 0.68242 0.51232 0.0
C81 C 0.85723 0.72674 0.37013 0.0
C82 C 0.88757 0.85921 0.40221 0.0
C83 C 0.82787 0.85299 0.37931 0.0
C84 C 0.81143 0.7858 0.36366 0.0
C85 C 0.93123 0.79943 0.4081 0.0
N86 N 0.91804 0.73478 0.39101 0.0
H87 H 0.84321 0.67512 0.35862 0.0
H88 H 0.97698 0.80568 0.42624 0.0
H89 H 0.86022 0.67121 0.45081 0.0
H90 H 0.08046 0.67488 0.47758 0.0
O91 O 0.93324 0.57101 0.40586 0.0
O92 O 0.05267 0.57841 0.40792 0.0
O93 O 0.07088 0.73057 0.39579 0.0
C94 C 0.99576 0.53876 0.40951 0.0
H95 H 0.03539 0.63468 0.25843 0.0
H96 H 0.8706 0.6822 0.52306 0.0
H97 H 0.90049 0.90997 0.41551 0.0
H98 H 0.76386 0.77911 0.34666 0.0
Co99 Co 0.3407 0.9896 0.3989 0.0
C100 C 0.40587 0.94239 0.3292 0.0
C101 C 0.34319 0.03703 0.31831 0.0
C102 C 0.37096 0.01134 0.28535 0.0
N103 N 0.36268 0.99194 0.34587 0.0
N104 N 0.41136 0.95283 0.29278 0.0
H105 H 0.43215 0.89811 0.3431 0.0
H106 H 0.31321 0.0865 0.32139 0.0
C107 C 0.21691 0.08296 0.37339 0.0
O108 O 0.19858 0.03504 0.34844 0.0
N109 N 0.32433 0.97683 0.45122 0.0
C110 C 0.32309 0.90998 0.46621 0.0
C111 C 0.31775 0.91503 0.50367 0.0
C112 C 0.32103 0.02247 0.48009 0.0
N113 N 0.31665 0.98539 0.51231 0.0
C114 C 0.27237 0.85736 0.37009 0.0
C115 C 0.13989 0.8877 0.40216 0.0
C116 C 0.14612 0.82799 0.37925 0.0
C117 C 0.21332 0.81155 0.3636 0.0
C118 C 0.19965 0.93136 0.40806 0.0
N119 N 0.26431 0.91817 0.39097 0.0
H120 H 0.32399 0.84333 0.35858 0.0
H121 H 0.1934 0.97712 0.42621 0.0
H122 H 0.32786 0.86032 0.45074 0.0
H123 H 0.32419 0.08054 0.47763 0.0
O124 O 0.42808 0.93337 0.40585 0.0
O125 O 0.42067 0.0528 0.40794 0.0
O126 O 0.26851 0.07101 0.39581 0.0
C127 C 0.46033 0.99589 0.40952 0.0
H128 H 0.36444 0.03549 0.25844 0.0
H129 H 0.31686 0.87063 0.52299 0.0
H130 H 0.08912 0.90062 0.41546 0.0
H131 H 0.22001 0.76397 0.3466 0.0
Co132 Co 0.0096 0.65824 0.66169 0.0
C133 C 0.05678 0.5932 0.73139 0.0
C134 C 0.96219 0.65598 0.74229 0.0
C135 C 0.98786 0.62827 0.77525 0.0
N136 N 0.00727 0.63639 0.71472 0.0
N137 N 0.04634 0.58781 0.76782 0.0
H138 H 0.10104 0.56685 0.7175 0.0
H139 H 0.91274 0.68599 0.73922 0.0
C140 C 0.9163 0.78214 0.68716 0.0
O141 O 0.96424 0.80052 0.71209 0.0
N142 N 0.02236 0.67448 0.60935 0.0
C143 C 0.0892 0.67554 0.59434 0.0
C144 C 0.08414 0.68094 0.55688 0.0
C145 C 0.97671 0.67797 0.58051 0.0
N146 N 0.01377 0.68225 0.54827 0.0
C147 C 0.14183 0.72662 0.69046 0.0
C148 C 0.11156 0.85902 0.65832 0.0
C149 C 0.17123 0.85285 0.68126 0.0
C150 C 0.18763 0.78569 0.69694 0.0
C151 C 0.06791 0.79924 0.65244 0.0
N152 N 0.08106 0.73463 0.66956 0.0
H153 H 0.15583 0.67503 0.702 0.0
H154 H 0.02218 0.80545 0.63428 0.0
H155 H 0.13886 0.67066 0.60978 0.0
H156 H 0.91863 0.67506 0.583 0.0
O157 O 0.06581 0.57083 0.65475 0.0
O158 O 0.94639 0.57826 0.65269 0.0
O159 O 0.92821 0.73045 0.66477 0.0
C160 C 0.00329 0.53859 0.65109 0.0
H161 H 0.96371 0.63486 0.80217 0.0
H162 H 0.12852 0.68179 0.53753 0.0
H163 H 0.09868 0.90975 0.645 0.0
H164 H 0.23516 0.77903 0.71396 0.0
Co165 Co 0.34085 0.00952 0.66169 0.0
C166 C 0.40589 0.05671 0.7314 0.0
C167 C 0.34314 0.96211 0.74229 0.0
C168 C 0.37085 0.98781 0.77525 0.0
N169 N 0.36272 0.00718 0.71472 0.0
N170 N 0.4113 0.04629 0.76782 0.0
H171 H 0.43222 0.10098 0.71751 0.0
H172 H 0.31314 0.91266 0.73921 0.0
C173 C 0.21698 0.91619 0.68715 0.0
O174 O 0.19859 0.96411 0.7121 0.0
N175 N 0.32459 0.02231 0.60936 0.0
C176 C 0.32351 0.08916 0.59438 0.0
C177 C 0.31811 0.08413 0.55692 0.0
C178 C 0.32111 0.97668 0.5805 0.0
N179 N 0.31681 0.01377 0.54828 0.0
C180 C 0.27247 0.14176 0.6905 0.0
C181 C 0.14006 0.11147 0.65838 0.0
C182 C 0.14624 0.17115 0.68131 0.0
C183 C 0.21341 0.18756 0.69699 0.0
C184 C 0.19983 0.06781 0.65249 0.0
N185 N 0.26445 0.08097 0.6696 0.0
H186 H 0.32407 0.15577 0.70203 0.0
H187 H 0.19361 0.02207 0.63432 0.0
H188 H 0.32838 0.13881 0.60985 0.0
H189 H 0.32403 0.9186 0.58296 0.0
O190 O 0.42825 0.06574 0.65476 0.0
O191 O 0.42083 0.94631 0.65266 0.0
O192 O 0.26864 0.92812 0.66475 0.0
C193 C 0.4605 0.00322 0.65109 0.0
H194 H 0.36428 0.96367 0.80217 0.0
H195 H 0.31725 0.12854 0.5376 0.0
H196 H 0.08932 0.09858 0.64506 0.0
H197 H 0.22008 0.23511 0.71401 0.0
Co198 Co 0.98957 0.34073 0.66171 0.0
C199 C 0.94237 0.40589 0.7314 0.0
C200 C 0.03699 0.34319 0.7423 0.0
C201 C 0.01131 0.37096 0.77525 0.0
N202 N 0.9919 0.36269 0.71473 0.0
N203 N 0.95281 0.41137 0.76782 0.0
H204 H 0.89809 0.43218 0.71751 0.0
H205 H 0.08647 0.31321 0.73922 0.0
C206 C 0.08292 0.21692 0.6872 0.0
O207 O 0.03499 0.19859 0.71215 0.0
N208 N 0.97679 0.32438 0.60938 0.0
C209 C 0.90994 0.32316 0.59439 0.0
C210 C 0.91499 0.31783 0.55693 0.0
C211 C 0.02243 0.32108 0.58051 0.0
N212 N 0.98535 0.31675 0.54829 0.0
C213 C 0.85733 0.2724 0.69051 0.0
C214 C 0.88766 0.13992 0.65843 0.0
C215 C 0.82795 0.14615 0.68135 0.0
C216 C 0.81152 0.21334 0.697 0.0
C217 C 0.93132 0.19969 0.65253 0.0
N218 N 0.91814 0.26434 0.66963 0.0
H219 H 0.84331 0.32402 0.70203 0.0
H220 H 0.97707 0.19344 0.63438 0.0
H221 H 0.86028 0.32791 0.60986 0.0
H222 H 0.0805 0.3242 0.58298 0.0
O223 O 0.93334 0.42811 0.65476 0.0
O224 O 0.05277 0.4207 0.65267 0.0
O225 O 0.07098 0.26854 0.66479 0.0
C226 C 0.99586 0.46036 0.6511 0.0
H227 H 0.03546 0.36444 0.80217 0.0
H228 H 0.87059 0.31691 0.53761 0.0
H229 H 0.90057 0.08916 0.64512 0.0
H230 H 0.76394 0.22004 0.71401 0.0
Co231 Co 0.65836 0.9895 0.6617 0.0
C232 C 0.59322 0.94229 0.7314 0.0
C233 C 0.65591 0.03693 0.7423 0.0
C234 C 0.62815 0.01126 0.77526 0.0
N235 N 0.63641 0.99182 0.71473 0.0
N236 N 0.58773 0.95276 0.76782 0.0
H237 H 0.56692 0.89801 0.7175 0.0
H238 H 0.68589 0.0864 0.73923 0.0
C239 C 0.78217 0.08284 0.68722 0.0
O240 O 0.80051 0.0349 0.71215 0.0
N241 N 0.6747 0.97676 0.60937 0.0
C242 C 0.67592 0.90992 0.59435 0.0
C243 C 0.68124 0.915 0.55689 0.0
C244 C 0.67799 0.02242 0.58053 0.0
N245 N 0.68232 0.98537 0.54829 0.0
C246 C 0.72671 0.85726 0.69047 0.0
C247 C 0.85918 0.88761 0.65838 0.0
C248 C 0.85297 0.8279 0.68129 0.0
C249 C 0.78578 0.81146 0.69694 0.0
C250 C 0.7994 0.93126 0.6525 0.0
N251 N 0.73476 0.91807 0.66959 0.0
H252 H 0.6751 0.84324 0.70199 0.0
H253 H 0.80564 0.97701 0.63435 0.0
H254 H 0.67117 0.86025 0.6098 0.0
H255 H 0.67487 0.08049 0.58302 0.0
O256 O 0.57098 0.93327 0.65475 0.0
O257 O 0.57838 0.0527 0.65269 0.0
O258 O 0.73055 0.07091 0.66481 0.0
C259 C 0.53872 0.99579 0.6511 0.0
H260 H 0.63466 0.03543 0.80217 0.0
H261 H 0.68216 0.87062 0.53755 0.0
H262 H 0.90993 0.90052 0.64508 0.0
H263 H 0.7791 0.7639 0.71394 0.0
Co264 Co 0.50949 0.84088 0.89891 0.0
C265 C 0.55668 0.90596 0.82921 0.0
C266 C 0.4621 0.84319 0.81831 0.0
C267 C 0.48779 0.87091 0.78535 0.0
N268 N 0.50715 0.86277 0.84588 0.0
N269 N 0.54627 0.91137 0.79279 0.0
H270 H 0.60094 0.93228 0.84311 0.0
H271 H 0.41265 0.81317 0.82139 0.0
C272 C 0.41616 0.717 0.87345 0.0
O273 O 0.46408 0.69863 0.8485 0.0
N274 N 0.52228 0.82459 0.95124 0.0
C275 C 0.58913 0.8235 0.96622 0.0
C276 C 0.58409 0.81808 1.00368 0.0
C277 C 0.47664 0.8211 0.9801 0.0
N278 N 0.51373 0.81677 1.01232 0.0
C279 C 0.64173 0.77252 0.8701 0.0
C280 C 0.61145 0.64009 0.90221 0.0
C281 C 0.67113 0.64628 0.87928 0.0
C282 C 0.68754 0.71346 0.86361 0.0
C283 C 0.56778 0.69986 0.90811 0.0
N284 N 0.58094 0.76448 0.891 0.0
H285 H 0.65573 0.82412 0.85857 0.0
H286 H 0.52204 0.69363 0.92627 0.0
H287 H 0.63878 0.82839 0.95076 0.0
H288 H 0.41857 0.82408 0.97764 0.0
O289 O 0.56571 0.92828 0.90585 0.0
O290 O 0.44628 0.92086 0.90795 0.0
O291 O 0.42809 0.76867 0.89584 0.0
C292 C 0.50319 0.96053 0.90953 0.0
H293 H 0.46368 0.86431 0.75843 0.0
H294 H 0.6285 0.81725 1.023 0.0
H295 H 0.59856 0.58935 0.91553 0.0
H296 H 0.73509 0.72013 0.84659 0.0
Co297 Co 0.15821 0.50963 0.89892 0.0
C298 C 0.09314 0.55681 0.82922 0.0
C299 C 0.15592 0.46223 0.81831 0.0
C300 C 0.1282 0.4879 0.78535 0.0
N301 N 0.13633 0.50729 0.84588 0.0
N302 N 0.08773 0.54637 0.79279 0.0
H303 H 0.0668 0.60108 0.84312 0.0
H304 H 0.18594 0.41278 0.82138 0.0
C305 C 0.2821 0.41632 0.87343 0.0
O306 O 0.30048 0.46426 0.8485 0.0
N307 N 0.17448 0.52239 0.95125 0.0
C308 C 0.17555 0.58923 0.96627 0.0
C309 C 0.18097 0.58415 1.00373 0.0
C310 C 0.17797 0.47673 0.98009 0.0
N311 N 0.1823 0.51379 1.01233 0.0
C312 C 0.22658 0.64186 0.87014 0.0
C313 C 0.35899 0.61158 0.90226 0.0
C314 C 0.35282 0.67125 0.87934 0.0
C315 C 0.28565 0.68766 0.86366 0.0
C316 C 0.29922 0.56792 0.90815 0.0
N317 N 0.2346 0.58108 0.89103 0.0
H318 H 0.17499 0.65586 0.85861 0.0
H319 H 0.30544 0.52219 0.9263 0.0
H320 H 0.17066 0.63889 0.95082 0.0
H321 H 0.17501 0.41865 0.9776 0.0
O322 O 0.0708 0.56584 0.90587 0.0
O323 O 0.07823 0.44642 0.90793 0.0
O324 O 0.23042 0.42823 0.89583 0.0
C325 C 0.03856 0.50332 0.90952 0.0
H326 H 0.1348 0.46376 0.75843 0.0
H327 H 0.1818 0.62854 1.02307 0.0
H328 H 0.40973 0.59869 0.91558 0.0
H329 H 0.27899 0.7352 0.84664 0.0
Co330 Co 0.48947 0.15839 0.8989 0.0
C331 C 0.44227 0.09321 0.82921 0.0
C332 C 0.53688 0.15593 0.8183 0.0
C333 C 0.51121 0.12816 0.78535 0.0
N334 N 0.49179 0.13642 0.84587 0.0
N335 N 0.45273 0.08772 0.79279 0.0
H336 H 0.39799 0.06692 0.84312 0.0
H337 H 0.58635 0.18592 0.82137 0.0
C338 C 0.5828 0.2822 0.87338 0.0
O339 O 0.53487 0.30053 0.84844 0.0
N340 N 0.47673 0.17475 0.95123 0.0
C341 C 0.4099 0.17599 0.96625 0.0
C342 C 0.41498 0.18133 1.00371 0.0
C343 C 0.5224 0.17805 0.98008 0.0
N344 N 0.48535 0.18243 1.01232 0.0
C345 C 0.35723 0.22673 0.87013 0.0
C346 C 0.38757 0.35921 0.90221 0.0
C347 C 0.32787 0.35299 0.87931 0.0
C348 C 0.31143 0.28579 0.86365 0.0
C349 C 0.43122 0.29943 0.90809 0.0
N350 N 0.41804 0.23478 0.891 0.0
H351 H 0.34322 0.17512 0.85861 0.0
H352 H 0.47697 0.30568 0.92624 0.0
H353 H 0.36022 0.17122 0.95081 0.0
H354 H 0.58046 0.17489 0.97758 0.0
O355 O 0.43324 0.07101 0.90587 0.0
O356 O 0.55267 0.07841 0.90792 0.0
O357 O 0.57088 0.23057 0.89579 0.0
C358 C 0.49576 0.03876 0.90952 0.0
H359 H 0.53537 0.13469 0.75843 0.0
H360 H 0.3706 0.18222 1.02306 0.0
H361 H 0.40049 0.40997 0.91551 0.0
H362 H 0.26386 0.27911 0.84666 0.0
Co363 Co 0.8407 0.4896 0.8989 0.0
C364 C 0.90588 0.44239 0.82921 0.0
C365 C 0.84319 0.53702 0.8183 0.0
C366 C 0.87097 0.51133 0.78535 0.0
N367 N 0.86269 0.49194 0.84587 0.0
N368 N 0.91139 0.45284 0.79279 0.0
H369 H 0.93216 0.39811 0.8431 0.0
H370 H 0.8132 0.58649 0.82138 0.0
C371 C 0.71691 0.58296 0.87339 0.0
O372 O 0.69858 0.53504 0.84844 0.0
N373 N 0.82432 0.47683 0.95122 0.0
C374 C 0.82308 0.40998 0.96621 0.0
C375 C 0.81774 0.41503 1.00367 0.0
C376 C 0.82102 0.52247 0.98009 0.0
N377 N 0.81664 0.48539 1.01231 0.0
C378 C 0.77237 0.35736 0.87009 0.0
C379 C 0.63989 0.38771 0.90216 0.0
C380 C 0.64612 0.32799 0.87925 0.0
C381 C 0.71332 0.31155 0.8636 0.0
C382 C 0.69965 0.43137 0.90805 0.0
N383 N 0.76431 0.41818 0.89097 0.0
H384 H 0.82399 0.34334 0.85858 0.0
H385 H 0.6934 0.47712 0.92621 0.0
H386 H 0.82785 0.36032 0.95074 0.0
H387 H 0.82419 0.58054 0.97763 0.0
O388 O 0.92808 0.43337 0.90585 0.0
O389 O 0.92067 0.5528 0.90794 0.0
O390 O 0.76851 0.57102 0.89581 0.0
C391 C 0.96033 0.49589 0.90952 0.0
H392 H 0.86445 0.53547 0.75843 0.0
H393 H 0.81684 0.37063 1.02299 0.0
H394 H 0.58912 0.40062 0.91546 0.0
H395 H 0.72002 0.26397 0.8466 0.0
Co396 Co 0.5096 0.15824 0.16169 0.0
C397 C 0.55678 0.09318 0.23139 0.0
C398 C 0.4622 0.15598 0.2423 0.0
C399 C 0.48787 0.12826 0.27525 0.0
N400 N 0.50727 0.13638 0.21472 0.0
N401 N 0.54633 0.08778 0.26782 0.0
H402 H 0.60104 0.06684 0.21749 0.0
H403 H 0.41276 0.186 0.23922 0.0
C404 C 0.4163 0.28214 0.18716 0.0
O405 O 0.46424 0.30052 0.21209 0.0
N406 N 0.52236 0.17449 0.10935 0.0
C407 C 0.5892 0.17555 0.09434 0.0
C408 C 0.58413 0.18095 0.05688 0.0
C409 C 0.47671 0.17797 0.08051 0.0
N410 N 0.51377 0.18226 0.04827 0.0
C411 C 0.64183 0.22662 0.19046 0.0
C412 C 0.61156 0.35902 0.15833 0.0
C413 C 0.67123 0.35285 0.18126 0.0
C414 C 0.68763 0.28568 0.19694 0.0
C415 C 0.56791 0.29924 0.15245 0.0
N416 N 0.58106 0.23463 0.16956 0.0
H417 H 0.65583 0.17502 0.202 0.0
H418 H 0.52217 0.30546 0.13429 0.0
H419 H 0.63886 0.17068 0.10978 0.0
H420 H 0.41863 0.17506 0.083 0.0
O421 O 0.56581 0.07083 0.15474 0.0
O422 O 0.44639 0.07826 0.15268 0.0
O423 O 0.42821 0.23045 0.16477 0.0
C424 C 0.50329 0.03859 0.15109 0.0
H425 H 0.46373 0.13486 0.30217 0.0
H426 H 0.62852 0.1818 0.03753 0.0
H427 H 0.59867 0.40975 0.14501 0.0
H428 H 0.73516 0.27903 0.21397 0.0
Co429 Co 0.84085 0.50952 0.16169 0.0
C430 C 0.90591 0.55671 0.23139 0.0
C431 C 0.84314 0.46212 0.24229 0.0
C432 C 0.87086 0.48782 0.27525 0.0
N433 N 0.86273 0.50718 0.21472 0.0
N434 N 0.91132 0.54629 0.26782 0.0
H435 H 0.93224 0.60097 0.2175 0.0
H436 H 0.81313 0.41268 0.23921 0.0
C437 C 0.71698 0.41619 0.18715 0.0
O438 O 0.69859 0.46412 0.2121 0.0
N439 N 0.82458 0.52231 0.10936 0.0
C440 C 0.8235 0.58916 0.09438 0.0
C441 C 0.8181 0.58413 0.05692 0.0
C442 C 0.8211 0.47668 0.0805 0.0
N443 N 0.81681 0.51377 0.04828 0.0
C444 C 0.77248 0.64176 0.1905 0.0
C445 C 0.64006 0.61147 0.15838 0.0
C446 C 0.64625 0.67115 0.18132 0.0
C447 C 0.71341 0.68756 0.19699 0.0
C448 C 0.69984 0.56781 0.15249 0.0
N449 N 0.76445 0.58097 0.1696 0.0
H450 H 0.82407 0.65576 0.20203 0.0
H451 H 0.69361 0.52207 0.13432 0.0
H452 H 0.82837 0.63881 0.10985 0.0
H453 H 0.82403 0.4186 0.08296 0.0
O454 O 0.92825 0.56574 0.15476 0.0
O455 O 0.92083 0.44631 0.15266 0.0
O456 O 0.76864 0.42812 0.16476 0.0
C457 C 0.9605 0.50322 0.15109 0.0
H458 H 0.86427 0.4637 0.30217 0.0
H459 H 0.81724 0.62854 0.0376 0.0
H460 H 0.58932 0.59858 0.14506 0.0
H461 H 0.72008 0.73511 0.21402 0.0
Co462 Co 0.48957 0.84073 0.16171 0.0
C463 C 0.44237 0.9059 0.2314 0.0
C464 C 0.53699 0.8432 0.2423 0.0
C465 C 0.5113 0.87097 0.27525 0.0
N466 N 0.49191 0.8627 0.21473 0.0
N467 N 0.45281 0.9114 0.26782 0.0
H468 H 0.39809 0.93219 0.2175 0.0
H469 H 0.58645 0.8132 0.23922 0.0
C470 C 0.58292 0.71693 0.18721 0.0
O471 O 0.535 0.69859 0.21216 0.0
N472 N 0.4768 0.82437 0.10938 0.0
C473 C 0.40994 0.82314 0.0944 0.0
C474 C 0.41499 0.81782 0.05693 0.0
C475 C 0.52243 0.82107 0.08051 0.0
N476 N 0.48535 0.81674 0.04829 0.0
C477 C 0.35733 0.7724 0.19052 0.0
C478 C 0.38766 0.63992 0.15843 0.0
C479 C 0.32795 0.64615 0.18135 0.0
C480 C 0.31152 0.71335 0.197 0.0
C481 C 0.43132 0.69969 0.15254 0.0
N482 N 0.41814 0.76434 0.16963 0.0
H483 H 0.34331 0.82402 0.20203 0.0
H484 H 0.47707 0.69344 0.13438 0.0
H485 H 0.36028 0.8279 0.10986 0.0
H486 H 0.5805 0.8242 0.08298 0.0
O487 O 0.43334 0.92811 0.15476 0.0
O488 O 0.55277 0.9207 0.15267 0.0
O489 O 0.57098 0.76854 0.16479 0.0
C490 C 0.49586 0.96036 0.15109 0.0
H491 H 0.53544 0.86445 0.30217 0.0
H492 H 0.37059 0.8169 0.03761 0.0
H493 H 0.40057 0.58916 0.14513 0.0
H494 H 0.26395 0.72004 0.21401 0.0
Co495 Co 0.15836 0.4895 0.1617 0.0
C496 C 0.0932 0.4423 0.23139 0.0
C497 C 0.15591 0.53692 0.24231 0.0
C498 C 0.12814 0.51125 0.27526 0.0
N499 N 0.1364 0.49182 0.21473 0.0
N500 N 0.0877 0.45276 0.26782 0.0
H501 H 0.0669 0.39802 0.21749 0.0
H502 H 0.1859 0.58638 0.23923 0.0
C503 C 0.28217 0.58284 0.18722 0.0
O504 O 0.30051 0.5349 0.21215 0.0
N505 N 0.17471 0.47676 0.10937 0.0
C506 C 0.17593 0.40992 0.09435 0.0
C507 C 0.18125 0.415 0.05689 0.0
C508 C 0.17799 0.52242 0.08053 0.0
N509 N 0.18233 0.48537 0.04829 0.0
C510 C 0.22671 0.35726 0.19047 0.0
C511 C 0.35918 0.38761 0.15838 0.0
C512 C 0.35297 0.3279 0.18129 0.0
C513 C 0.28578 0.31146 0.19695 0.0
C514 C 0.2994 0.43126 0.1525 0.0
N515 N 0.23476 0.41807 0.1696 0.0
H516 H 0.1751 0.34325 0.20199 0.0
H517 H 0.30564 0.477 0.13435 0.0
H518 H 0.17118 0.36025 0.1098 0.0
H519 H 0.17487 0.58049 0.08302 0.0
O520 O 0.07098 0.43327 0.15474 0.0
O521 O 0.07838 0.5527 0.15269 0.0
O522 O 0.23054 0.57091 0.16481 0.0
C523 C 0.03873 0.49579 0.1511 0.0
H524 H 0.13467 0.53541 0.30218 0.0
H525 H 0.18217 0.37062 0.03755 0.0
H526 H 0.40993 0.40052 0.14508 0.0
H527 H 0.2791 0.2639 0.21395 0.0
loop_
_geom_bond_atom_site_label_1
_geom_bond_atom_site_label_2
_geom_bond_distance
_geom_bond_site_symmetry_2
_ccdc_geom_bond_type
Co0 N4 2.148 . S
Co0 N10 2.128 . S
Co0 N20 2.194 . S
Co0 O25 2.351 . S
Co0 O26 2.155 1_455 S
Co0 O27 2.096 1_455 S
C1 N4 1.301 . S
C1 N5 1.328 . S
C1 H6 0.930 . S
C2 C3 1.333 . S
C2 N4 1.317 1_655 S
C2 H7 0.930 . S
C3 C2 1.333 . S
C3 N5 1.350 1_655 S
C3 H29 0.931 . S
N4 Co0 2.148 . S
N4 C1 1.301 . S
N4 C2 1.317 1_455 S
N5 C1 1.328 . S
N5 C3 1.350 1_455 S
H6 C1 0.930 . S
H7 C2 0.930 . S
C8 O9 1.224 . S
C8 O27 1.247 . S
O9 C8 1.224 . S
N10 Co0 2.128 . S
N10 C11 1.355 . S
N10 C13 1.311 1_455 S
C11 N10 1.355 . S
C11 C12 1.363 . S
C11 H23 0.929 . S
C12 C11 1.363 . S
C12 N14 1.375 1_455 S
C12 H30 0.931 . S
C13 N10 1.311 1_655 S
C13 N14 1.347 . S
C13 H24 0.929 . S
N14 C12 1.375 1_655 S
N14 C13 1.347 . S
C15 C18 1.365 . S
C15 N20 1.328 . S
C15 H21 0.929 . S
C16 C17 1.362 . S
C16 C19 1.378 . S
C16 H31 0.929 . S
C17 C16 1.362 . S
C17 C18 1.366 . S
C18 C15 1.365 . S
C18 C17 1.366 . S
C18 H32 0.930 . S
C19 C16 1.378 . S
C19 N20 1.315 . S
C19 H22 0.930 . S
N20 Co0 2.194 . S
N20 C15 1.328 . S
N20 C19 1.315 . S
H21 C15 0.929 . S
H22 C19 0.930 . S
H23 C11 0.929 . S
H24 C13 0.929 . S
O25 Co0 2.351 . S
O25 C28 1.244 . S
O26 Co0 2.155 1_655 S
O26 C28 1.240 1_655 S
O27 Co0 2.096 1_655 S
O27 C8 1.247 . S
C28 O25 1.244 . S
C28 O26 1.240 1_455 S
H29 C3 0.931 . S
H30 C12 0.931 . S
H31 C16 0.929 . S
H32 C18 0.930 . S
Co33 N37 2.148 . S
Co33 N43 2.128 . S
Co33 N53 2.194 . S
Co33 O58 2.351 . S
Co33 O59 2.155 1_545 S
Co33 O60 2.096 1_545 S
C34 N37 1.301 . S
C34 N38 1.328 . S
C34 H39 0.930 . S
C35 C36 1.333 . S
C35 N37 1.317 1_565 S
C35 H40 0.930 . S
C36 C35 1.333 . S
C36 N38 1.350 1_565 S
C36 H62 0.931 . S
N37 Co33 2.148 . S
N37 C34 1.301 . S
N37 C35 1.317 1_545 S
N38 C34 1.328 . S
N38 C36 1.350 1_545 S
H39 C34 0.930 . S
H40 C35 0.930 . S
C41 O42 1.224 . S
C41 O60 1.247 . S
O42 C41 1.224 . S
N43 Co33 2.128 . S
N43 C44 1.355 . S
N43 C46 1.311 1_545 S
C44 N43 1.355 . S
C44 C45 1.363 . S
C44 H56 0.929 . S
C45 C44 1.363 . S
C45 N47 1.375 1_545 S
C45 H63 0.931 . S
C46 N43 1.311 1_565 S
C46 N47 1.347 . S
C46 H57 0.929 . S
N47 C45 1.375 1_565 S
N47 C46 1.347 . S
C48 C51 1.365 . S
C48 N53 1.328 . S
C48 H54 0.929 . S
C49 C50 1.362 . S
C49 C52 1.378 . S
C49 H64 0.929 . S
C50 C49 1.362 . S
C50 C51 1.366 . S
C51 C48 1.365 . S
C51 C50 1.366 . S
C51 H65 0.930 . S
C52 C49 1.378 . S
C52 N53 1.315 . S
C52 H55 0.930 . S
N53 Co33 2.194 . S
N53 C48 1.328 . S
N53 C52 1.315 . S
H54 C48 0.929 . S
H55 C52 0.930 . S
H56 C44 0.929 . S
H57 C46 0.929 . S
O58 Co33 2.351 . S
O58 C61 1.244 . S
O59 Co33 2.155 1_565 S
O59 C61 1.240 1_565 S
O60 Co33 2.096 1_565 S
O60 C41 1.247 . S
C61 O58 1.244 . S
C61 O59 1.240 1_545 S
H62 C36 0.931 . S
H63 C45 0.931 . S
H64 C49 0.929 . S
H65 C51 0.930 . S
Co66 N70 2.148 . S
Co66 N76 2.128 . S
Co66 N86 2.194 . S
Co66 O91 2.351 . S
Co66 O92 2.155 1_655 S
Co66 O93 2.096 1_655 S
C67 N70 1.301 . S
C67 N71 1.328 . S
C67 H72 0.930 . S
C68 C69 1.333 . S
C68 N70 1.317 1_455 S
C68 H73 0.930 . S
C69 C68 1.333 . S
C69 N71 1.350 1_455 S
C69 H95 0.931 . S
N70 Co66 2.148 . S
N70 C67 1.301 . S
N70 C68 1.317 1_655 S
N71 C67 1.328 . S
N71 C69 1.350 1_655 S
H72 C67 0.930 . S
H73 C68 0.930 . S
C74 O75 1.224 . S
C74 O93 1.247 . S
O75 C74 1.224 . S
N76 Co66 2.128 . S
N76 C77 1.355 . S
N76 C79 1.311 1_655 S
C77 N76 1.355 . S
C77 C78 1.363 . S
C77 H89 0.929 . S
C78 C77 1.363 . S
C78 N80 1.375 1_655 S
C78 H96 0.931 . S
C79 N76 1.311 1_455 S
C79 N80 1.347 . S
C79 H90 0.929 . S
N80 C78 1.375 1_455 S
N80 C79 1.347 . S
C81 C84 1.365 . S
C81 N86 1.328 . S
C81 H87 0.929 . S
C82 C83 1.362 . S
C82 C85 1.378 . S
C82 H97 0.929 . S
C83 C82 1.362 . S
C83 C84 1.366 . S
C84 C81 1.365 . S
C84 C83 1.366 . S
C84 H98 0.930 . S
C85 C82 1.378 . S
C85 N86 1.315 . S
C85 H88 0.930 . S
N86 Co66 2.194 . S
N86 C81 1.328 . S
N86 C85 1.315 . S
H87 C81 0.929 . S
H88 C85 0.930 . S
H89 C77 0.929 . S
H90 C79 0.929 . S
O91 Co66 2.351 . S
O91 C94 1.244 . S
O92 Co66 2.155 1_455 S
O92 C94 1.240 1_455 S
O93 Co66 2.096 1_455 S
O93 C74 1.247 . S
C94 O91 1.244 . S
C94 O92 1.240 1_655 S
H95 C69 0.931 . S
H96 C78 0.931 . S
H97 C82 0.929 . S
H98 C84 0.930 . S
Co99 N103 2.148 . S
Co99 N109 2.128 . S
Co99 N119 2.194 . S
Co99 O124 2.351 . S
Co99 O125 2.155 1_565 S
Co99 O126 2.096 1_565 S
C100 N103 1.301 . S
C100 N104 1.328 . S
C100 H105 0.930 . S
C101 C102 1.333 . S
C101 N103 1.317 1_545 S
C101 H106 0.930 . S
C102 C101 1.333 . S
C102 N104 1.350 1_545 S
C102 H128 0.931 . S
N103 Co99 2.148 . S
N103 C100 1.301 . S
N103 C101 1.317 1_565 S
N104 C100 1.328 . S
N104 C102 1.350 1_565 S
H105 C100 0.930 . S
H106 C101 0.930 . S
C107 O108 1.224 . S
C107 O126 1.247 . S
O108 C107 1.224 . S
N109 Co99 2.128 . S
N109 C110 1.355 . S
N109 C112 1.311 1_565 S
C110 N109 1.355 . S
C110 C111 1.363 . S
C110 H122 0.929 . S
C111 C110 1.363 . S
C111 N113 1.375 1_565 S
C111 H129 0.931 . S
C112 N109 1.311 1_545 S
C112 N113 1.347 . S
C112 H123 0.929 . S
N113 C111 1.375 1_545 S
N113 C112 1.347 . S
C114 C117 1.365 . S
C114 N119 1.328 . S
C114 H120 0.929 . S
C115 C116 1.362 . S
C115 C118 1.378 . S
C115 H130 0.929 . S
C116 C115 1.362 . S
C116 C117 1.366 . S
C117 C114 1.365 . S
C117 C116 1.366 . S
C117 H131 0.930 . S
C118 C115 1.378 . S
C118 N119 1.315 . S
C118 H121 0.930 . S
N119 Co99 2.194 . S
N119 C114 1.328 . S
N119 C118 1.315 . S
H120 C114 0.929 . S
H121 C118 0.930 . S
H122 C110 0.929 . S
H123 C112 0.929 . S
O124 Co99 2.351 . S
O124 C127 1.244 . S
O125 Co99 2.155 1_545 S
O125 C127 1.240 1_545 S
O126 Co99 2.096 1_545 S
O126 C107 1.247 . S
C127 O124 1.244 . S
C127 O125 1.240 1_565 S
H128 C102 0.931 . S
H129 C111 0.931 . S
H130 C115 0.929 . S
H131 C117 0.930 . S
Co132 N136 2.148 . S
Co132 N142 2.128 . S
Co132 N152 2.194 . S
Co132 O157 2.351 . S
Co132 O158 2.155 1_455 S
Co132 O159 2.096 1_455 S
C133 N136 1.301 . S
C133 N137 1.328 . S
C133 H138 0.930 . S
C134 C135 1.333 . S
C134 N136 1.317 1_655 S
C134 H139 0.930 . S
C135 C134 1.333 . S
C135 N137 1.350 1_655 S
C135 H161 0.931 . S
N136 Co132 2.148 . S
N136 C133 1.301 . S
N136 C134 1.317 1_455 S
N137 C133 1.328 . S
N137 C135 1.350 1_455 S
H138 C133 0.930 . S
H139 C134 0.930 . S
C140 O141 1.224 . S
C140 O159 1.247 . S
O141 C140 1.224 . S
N142 Co132 2.128 . S
N142 C143 1.355 . S
N142 C145 1.311 1_455 S
C143 N142 1.355 . S
C143 C144 1.363 . S
C143 H155 0.929 . S
C144 C143 1.363 . S
C144 N146 1.375 1_455 S
C144 H162 0.931 . S
C145 N142 1.311 1_655 S
C145 N146 1.347 . S
C145 H156 0.929 . S
N146 C144 1.375 1_655 S
N146 C145 1.347 . S
C147 C150 1.365 . S
C147 N152 1.328 . S
C147 H153 0.929 . S
C148 C149 1.362 . S
C148 C151 1.378 . S
C148 H163 0.929 . S
C149 C148 1.362 . S
C149 C150 1.366 . S
C150 C147 1.365 . S
C150 C149 1.366 . S
C150 H164 0.930 . S
C151 C148 1.378 . S
C151 N152 1.315 . S
C151 H154 0.930 . S
N152 Co132 2.194 . S
N152 C147 1.328 . S
N152 C151 1.315 . S
H153 C147 0.929 . S
H154 C151 0.930 . S
H155 C143 0.929 . S
H156 C145 0.929 . S
O157 Co132 2.351 . S
O157 C160 1.244 . S
O158 Co132 2.155 1_655 S
O158 C160 1.240 1_655 S
O159 Co132 2.096 1_655 S
O159 C140 1.247 . S
C160 O157 1.244 . S
C160 O158 1.240 1_455 S
H161 C135 0.931 . S
H162 C144 0.931 . S
H163 C148 0.929 . S
H164 C150 0.930 . S
Co165 N169 2.148 . S
Co165 N175 2.128 . S
Co165 N185 2.194 . S
Co165 O190 2.351 . S
Co165 O191 2.155 1_545 S
Co165 O192 2.096 1_545 S
C166 N169 1.301 . S
C166 N170 1.328 . S
C166 H171 0.930 . S
C167 C168 1.333 . S
C167 N169 1.317 1_565 S
C167 H172 0.930 . S
C168 C167 1.333 . S
C168 N170 1.350 1_565 S
C168 H194 0.931 . S
N169 Co165 2.148 . S
N169 C166 1.301 . S
N169 C167 1.317 1_545 S
N170 C166 1.328 . S
N170 C168 1.350 1_545 S
H171 C166 0.930 . S
H172 C167 0.930 . S
C173 O174 1.224 . S
C173 O192 1.247 . S
O174 C173 1.224 . S
N175 Co165 2.128 . S
N175 C176 1.355 . S
N175 C178 1.311 1_545 S
C176 N175 1.355 . S
C176 C177 1.363 . S
C176 H188 0.929 . S
C177 C176 1.363 . S
C177 N179 1.375 1_545 S
C177 H195 0.931 . S
C178 N175 1.311 1_565 S
C178 N179 1.347 . S
C178 H189 0.929 . S
N179 C177 1.375 1_565 S
N179 C178 1.347 . S
C180 C183 1.365 . S
C180 N185 1.328 . S
C180 H186 0.929 . S
C181 C182 1.362 . S
C181 C184 1.378 . S
C181 H196 0.929 . S
C182 C181 1.362 . S
C182 C183 1.366 . S
C183 C180 1.365 . S
C183 C182 1.366 . S
C183 H197 0.930 . S
C184 C181 1.378 . S
C184 N185 1.315 . S
C184 H187 0.930 . S
N185 Co165 2.194 . S
N185 C180 1.328 . S
N185 C184 1.315 . S
H186 C180 0.929 . S
H187 C184 0.930 . S
H188 C176 0.929 . S
H189 C178 0.929 . S
O190 Co165 2.351 . S
O190 C193 1.244 . S
O191 Co165 2.155 1_565 S
O191 C193 1.240 1_565 S
O192 Co165 2.096 1_565 S
O192 C173 1.247 . S
C193 O190 1.244 . S
C193 O191 1.240 1_545 S
H194 C168 0.931 . S
H195 C177 0.931 . S
H196 C181 0.929 . S
H197 C183 0.930 . S
Co198 N202 2.148 . S
Co198 N208 2.128 . S
Co198 N218 2.194 . S
Co198 O223 2.351 . S
Co198 O224 2.155 1_655 S
Co198 O225 2.096 1_655 S
C199 N202 1.301 . S
C199 N203 1.328 . S
C199 H204 0.930 . S
C200 C201 1.333 . S
C200 N202 1.317 1_455 S
C200 H205 0.930 . S
C201 C200 1.333 . S
C201 N203 1.350 1_455 S
C201 H227 0.931 . S
N202 Co198 2.148 . S
N202 C199 1.301 . S
N202 C200 1.317 1_655 S
N203 C199 1.328 . S
N203 C201 1.350 1_655 S
H204 C199 0.930 . S
H205 C200 0.930 . S
C206 O207 1.224 . S
C206 O225 1.247 . S
O207 C206 1.224 . S
N208 Co198 2.128 . S
N208 C209 1.355 . S
N208 C211 1.311 1_655 S
C209 N208 1.355 . S
C209 C210 1.363 . S
C209 H221 0.929 . S
C210 C209 1.363 . S
C210 N212 1.375 1_655 S
C210 H228 0.931 . S
C211 N208 1.311 1_455 S
C211 N212 1.347 . S
C211 H222 0.929 . S
N212 C210 1.375 1_455 S
N212 C211 1.347 . S
C213 C216 1.365 . S
C213 N218 1.328 . S
C213 H219 0.929 . S
C214 C215 1.362 . S
C214 C217 1.378 . S
C214 H229 0.929 . S
C215 C214 1.362 . S
C215 C216 1.366 . S
C216 C213 1.365 . S
C216 C215 1.366 . S
C216 H230 0.930 . S
C217 C214 1.378 . S
C217 N218 1.315 . S
C217 H220 0.930 . S
N218 Co198 2.194 . S
N218 C213 1.328 . S
N218 C217 1.315 . S
H219 C213 0.929 . S
H220 C217 0.930 . S
H221 C209 0.929 . S
H222 C211 0.929 . S
O223 Co198 2.351 . S
O223 C226 1.244 . S
O224 Co198 2.155 1_455 S
O224 C226 1.240 1_455 S
O225 Co198 2.096 1_455 S
O225 C206 1.247 . S
C226 O223 1.244 . S
C226 O224 1.240 1_655 S
H227 C201 0.931 . S
H228 C210 0.931 . S
H229 C214 0.929 . S
H230 C216 0.930 . S
Co231 N235 2.148 . S
Co231 N241 2.128 . S
Co231 N251 2.194 . S
Co231 O256 2.351 . S
Co231 O257 2.155 1_565 S
Co231 O258 2.096 1_565 S
C232 N235 1.301 . S
C232 N236 1.328 . S
C232 H237 0.930 . S
C233 C234 1.333 . S
C233 N235 1.317 1_545 S
C233 H238 0.930 . S
C234 C233 1.333 . S
C234 N236 1.350 1_545 S
C234 H260 0.931 . S
N235 Co231 2.148 . S
N235 C232 1.301 . S
N235 C233 1.317 1_565 S
N236 C232 1.328 . S
N236 C234 1.350 1_565 S
H237 C232 0.930 . S
H238 C233 0.930 . S
C239 O240 1.224 . S
C239 O258 1.247 . S
O240 C239 1.224 . S
N241 Co231 2.128 . S
N241 C242 1.355 . S
N241 C244 1.311 1_565 S
C242 N241 1.355 . S
C242 C243 1.363 . S
C242 H254 0.929 . S
C243 C242 1.363 . S
C243 N245 1.375 1_565 S
C243 H261 0.931 . S
C244 N241 1.311 1_545 S
C244 N245 1.347 . S
C244 H255 0.929 . S
N245 C243 1.375 1_545 S
N245 C244 1.347 . S
C246 C249 1.365 . S
C246 N251 1.328 . S
C246 H252 0.929 . S
C247 C248 1.362 . S
C247 C250 1.378 . S
C247 H262 0.929 . S
C248 C247 1.362 . S
C248 C249 1.366 . S
C249 C246 1.365 . S
C249 C248 1.366 . S
C249 H263 0.930 . S
C250 C247 1.378 . S
C250 N251 1.315 . S
C250 H253 0.930 . S
N251 Co231 2.194 . S
N251 C246 1.328 . S
N251 C250 1.315 . S
H252 C246 0.929 . S
H253 C250 0.930 . S
H254 C242 0.929 . S
H255 C244 0.929 . S
O256 Co231 2.351 . S
O256 C259 1.244 . S
O257 Co231 2.155 1_545 S
O257 C259 1.240 1_545 S
O258 Co231 2.096 1_545 S
O258 C239 1.247 . S
C259 O256 1.244 . S
C259 O257 1.240 1_565 S
H260 C234 0.931 . S
H261 C243 0.931 . S
H262 C247 0.929 . S
H263 C249 0.930 . S
Co264 N268 2.148 . S
Co264 N274 2.128 . S
Co264 N284 2.194 . S
Co264 O289 2.351 . S
Co264 O290 2.155 . S
Co264 O291 2.096 . S
C265 N268 1.301 . S
C265 N269 1.328 . S
C265 H270 0.930 . S
C266 C267 1.333 . S
C266 N268 1.317 . S
C266 H271 0.930 . S
C267 C266 1.333 . S
C267 N269 1.350 . S
C267 H293 0.931 . S
N268 Co264 2.148 . S
N268 C265 1.301 . S
N268 C266 1.317 . S
N269 C265 1.328 . S
N269 C267 1.350 . S
H270 C265 0.930 . S
H271 C266 0.930 . S
C272 O273 1.224 . S
C272 O291 1.247 . S
O273 C272 1.224 . S
N274 Co264 2.128 . S
N274 C275 1.355 . S
N274 C277 1.311 . S
C275 N274 1.355 . S
C275 C276 1.363 . S
C275 H287 0.929 . S
C276 C275 1.363 . S
C276 N278 1.375 . S
C276 H294 0.931 . S
C277 N274 1.311 . S
C277 N278 1.347 . S
C277 H288 0.929 . S
N278 C276 1.375 . S
N278 C277 1.347 . S
C279 C282 1.365 . S
C279 N284 1.328 . S
C279 H285 0.929 . S
C280 C281 1.362 . S
C280 C283 1.378 . S
C280 H295 0.929 . S
C281 C280 1.362 . S
C281 C282 1.366 . S
C282 C279 1.365 . S
C282 C281 1.366 . S
C282 H296 0.930 . S
C283 C280 1.378 . S
C283 N284 1.315 . S
C283 H286 0.930 . S
N284 Co264 2.194 . S
N284 C279 1.328 . S
N284 C283 1.315 . S
H285 C279 0.929 . S
H286 C283 0.930 . S
H287 C275 0.929 . S
H288 C277 0.929 . S
O289 Co264 2.351 . S
O289 C292 1.244 . S
O290 Co264 2.155 . S
O290 C292 1.240 . S
O291 Co264 2.096 . S
O291 C272 1.247 . S
C292 O289 1.244 . S
C292 O290 1.240 . S
H293 C267 0.931 . S
H294 C276 0.931 . S
H295 C280 0.929 . S
H296 C282 0.930 . S
Co297 N301 2.148 . S
Co297 N307 2.128 . S
Co297 N317 2.194 . S
Co297 O322 2.351 . S
Co297 O323 2.155 . S
Co297 O324 2.096 . S
C298 N301 1.301 . S
C298 N302 1.328 . S
C298 H303 0.930 . S
C299 C300 1.333 . S
C299 N301 1.317 . S
C299 H304 0.930 . S
C300 C299 1.333 . S
C300 N302 1.350 . S
C300 H326 0.931 . S
N301 Co297 2.148 . S
N301 C298 1.301 . S
N301 C299 1.317 . S
N302 C298 1.328 . S
N302 C300 1.350 . S
H303 C298 0.930 . S
H304 C299 0.930 . S
C305 O306 1.224 . S
C305 O324 1.247 . S
O306 C305 1.224 . S
N307 Co297 2.128 . S
N307 C308 1.355 . S
N307 C310 1.311 . S
C308 N307 1.355 . S
C308 C309 1.363 . S
C308 H320 0.929 . S
C309 C308 1.363 . S
C309 N311 1.375 . S
C309 H327 0.931 . S
C310 N307 1.311 . S
C310 N311 1.347 . S
C310 H321 0.929 . S
N311 C309 1.375 . S
N311 C310 1.347 . S
C312 C315 1.365 . S
C312 N317 1.328 . S
C312 H318 0.929 . S
C313 C314 1.362 . S
C313 C316 1.378 . S
C313 H328 0.929 . S
C314 C313 1.362 . S
C314 C315 1.366 . S
C315 C312 1.365 . S
C315 C314 1.366 . S
C315 H329 0.930 . S
C316 C313 1.378 . S
C316 N317 1.315 . S
C316 H319 0.930 . S
N317 Co297 2.194 . S
N317 C312 1.328 . S
N317 C316 1.315 . S
H318 C312 0.929 . S
H319 C316 0.930 . S
H320 C308 0.929 . S
H321 C310 0.929 . S
O322 Co297 2.351 . S
O322 C325 1.244 . S
O323 Co297 2.155 . S
O323 C325 1.240 . S
O324 Co297 2.096 . S
O324 C305 1.247 . S
C325 O322 1.244 . S
C325 O323 1.240 . S
H326 C300 0.931 . S
H327 C309 0.931 . S
H328 C313 0.929 . S
H329 C315 0.930 . S
Co330 N334 2.148 . S
Co330 N340 2.128 . S
Co330 N350 2.194 . S
Co330 O355 2.351 . S
Co330 O356 2.155 . S
Co330 O357 2.096 . S
C331 N334 1.301 . S
C331 N335 1.328 . S
C331 H336 0.930 . S
C332 C333 1.333 . S
C332 N334 1.317 . S
C332 H337 0.930 . S
C333 C332 1.333 . S
C333 N335 1.350 . S
C333 H359 0.931 . S
N334 Co330 2.148 . S
N334 C331 1.301 . S
N334 C332 1.317 . S
N335 C331 1.328 . S
N335 C333 1.350 . S
H336 C331 0.930 . S
H337 C332 0.930 . S
C338 O339 1.224 . S
C338 O357 1.247 . S
O339 C338 1.224 . S
N340 Co330 2.128 . S
N340 C341 1.355 . S
N340 C343 1.311 . S
C341 N340 1.355 . S
C341 C342 1.363 . S
C341 H353 0.929 . S
C342 C341 1.363 . S
C342 N344 1.375 . S
C342 H360 0.931 . S
C343 N340 1.311 . S
C343 N344 1.347 . S
C343 H354 0.929 . S
N344 C342 1.375 . S
N344 C343 1.347 . S
C345 C348 1.365 . S
C345 N350 1.328 . S
C345 H351 0.929 . S
C346 C347 1.362 . S
C346 C349 1.378 . S
C346 H361 0.929 . S
C347 C346 1.362 . S
C347 C348 1.366 . S
C348 C345 1.365 . S
C348 C347 1.366 . S
C348 H362 0.930 . S
C349 C346 1.378 . S
C349 N350 1.315 . S
C349 H352 0.930 . S
N350 Co330 2.194 . S
N350 C345 1.328 . S
N350 C349 1.315 . S
H351 C345 0.929 . S
H352 C349 0.930 . S
H353 C341 0.929 . S
H354 C343 0.929 . S
O355 Co330 2.351 . S
O355 C358 1.244 . S
O356 Co330 2.155 . S
O356 C358 1.240 . S
O357 Co330 2.096 . S
O357 C338 1.247 . S
C358 O355 1.244 . S
C358 O356 1.240 . S
H359 C333 0.931 . S
H360 C342 0.931 . S
H361 C346 0.929 . S
H362 C348 0.930 . S
Co363 N367 2.148 . S
Co363 N373 2.128 . S
Co363 N383 2.194 . S
Co363 O388 2.351 . S
Co363 O389 2.155 . S
Co363 O390 2.096 . S
C364 N367 1.301 . S
C364 N368 1.328 . S
C364 H369 0.930 . S
C365 C366 1.333 . S
C365 N367 1.317 . S
C365 H370 0.930 . S
C366 C365 1.333 . S
C366 N368 1.350 . S
C366 H392 0.931 . S
N367 Co363 2.148 . S
N367 C364 1.301 . S
N367 C365 1.317 . S
N368 C364 1.328 . S
N368 C366 1.350 . S
H369 C364 0.930 . S
H370 C365 0.930 . S
C371 O372 1.224 . S
C371 O390 1.247 . S
O372 C371 1.224 . S
N373 Co363 2.128 . S
N373 C374 1.355 . S
N373 C376 1.311 . S
C374 N373 1.355 . S
C374 C375 1.363 . S
C374 H386 0.929 . S
C375 C374 1.363 . S
C375 N377 1.375 . S
C375 H393 0.931 . S
C376 N373 1.311 . S
C376 N377 1.347 . S
C376 H387 0.929 . S
N377 C375 1.375 . S
N377 C376 1.347 . S
C378 C381 1.365 . S
C378 N383 1.328 . S
C378 H384 0.929 . S
C379 C380 1.362 . S
C379 C382 1.378 . S
C379 H394 0.929 . S
C380 C379 1.362 . S
C380 C381 1.366 . S
C381 C378 1.365 . S
C381 C380 1.366 . S
C381 H395 0.930 . S
C382 C379 1.378 . S
C382 N383 1.315 . S
C382 H385 0.930 . S
N383 Co363 2.194 . S
N383 C378 1.328 . S
N383 C382 1.315 . S
H384 C378 0.929 . S
H385 C382 0.930 . S
H386 C374 0.929 . S
H387 C376 0.929 . S
O388 Co363 2.351 . S
O388 C391 1.244 . S
O389 Co363 2.155 . S
O389 C391 1.240 . S
O390 Co363 2.096 . S
O390 C371 1.247 . S
C391 O388 1.244 . S
C391 O389 1.240 . S
H392 C366 0.931 . S
H393 C375 0.931 . S
H394 C379 0.929 . S
H395 C381 0.930 . S
Co396 N400 2.148 . S
Co396 N406 2.128 . S
Co396 N416 2.194 . S
Co396 O421 2.351 . S
Co396 O422 2.155 . S
Co396 O423 2.096 . S
C397 N400 1.301 . S
C397 N401 1.328 . S
C397 H402 0.930 . S
C398 C399 1.333 . S
C398 N400 1.317 . S
C398 H403 0.930 . S
C399 C398 1.333 . S
C399 N401 1.350 . S
C399 H425 0.931 . S
N400 Co396 2.148 . S
N400 C397 1.301 . S
N400 C398 1.317 . S
N401 C397 1.328 . S
N401 C399 1.350 . S
H402 C397 0.930 . S
H403 C398 0.930 . S
C404 O405 1.224 . S
C404 O423 1.247 . S
O405 C404 1.224 . S
N406 Co396 2.128 . S
N406 C407 1.355 . S
N406 C409 1.311 . S
C407 N406 1.355 . S
C407 C408 1.363 . S
C407 H419 0.929 . S
C408 C407 1.363 . S
C408 N410 1.375 . S
C408 H426 0.931 . S
C409 N406 1.311 . S
C409 N410 1.347 . S
C409 H420 0.929 . S
N410 C408 1.375 . S
N410 C409 1.347 . S
C411 C414 1.365 . S
C411 N416 1.328 . S
C411 H417 0.929 . S
C412 C413 1.362 . S
C412 C415 1.378 . S
C412 H427 0.929 . S
C413 C412 1.362 . S
C413 C414 1.366 . S
C414 C411 1.365 . S
C414 C413 1.366 . S
C414 H428 0.930 . S
C415 C412 1.378 . S
C415 N416 1.315 . S
C415 H418 0.930 . S
N416 Co396 2.194 . S
N416 C411 1.328 . S
N416 C415 1.315 . S
H417 C411 0.929 . S
H418 C415 0.930 . S
H419 C407 0.929 . S
H420 C409 0.929 . S
O421 Co396 2.351 . S
O421 C424 1.244 . S
O422 Co396 2.155 . S
O422 C424 1.240 . S
O423 Co396 2.096 . S
O423 C404 1.247 . S
C424 O421 1.244 . S
C424 O422 1.240 . S
H425 C399 0.931 . S
H426 C408 0.931 . S
H427 C412 0.929 . S
H428 C414 0.930 . S
Co429 N433 2.148 . S
Co429 N439 2.128 . S
Co429 N449 2.194 . S
Co429 O454 2.351 . S
Co429 O455 2.155 . S
Co429 O456 2.096 . S
C430 N433 1.301 . S
C430 N434 1.328 . S
C430 H435 0.930 . S
C431 C432 1.333 . S
C431 N433 1.317 . S
C431 H436 0.930 . S
C432 C431 1.333 . S
C432 N434 1.350 . S
C432 H458 0.931 . S
N433 Co429 2.148 . S
N433 C430 1.301 . S
N433 C431 1.317 . S
N434 C430 1.328 . S
N434 C432 1.350 . S
H435 C430 0.930 . S
H436 C431 0.930 . S
C437 O438 1.224 . S
C437 O456 1.247 . S
O438 C437 1.224 . S
N439 Co429 2.128 . S
N439 C440 1.355 . S
N439 C442 1.311 . S
C440 N439 1.355 . S
C440 C441 1.363 . S
C440 H452 0.929 . S
C441 C440 1.363 . S
C441 N443 1.375 . S
C441 H459 0.931 . S
C442 N439 1.311 . S
C442 N443 1.347 . S
C442 H453 0.929 . S
N443 C441 1.375 . S
N443 C442 1.347 . S
C444 C447 1.365 . S
C444 N449 1.328 . S
C444 H450 0.929 . S
C445 C446 1.362 . S
C445 C448 1.378 . S
C445 H460 0.929 . S
C446 C445 1.362 . S
C446 C447 1.366 . S
C447 C444 1.365 . S
C447 C446 1.366 . S
C447 H461 0.930 . S
C448 C445 1.378 . S
C448 N449 1.315 . S
C448 H451 0.930 . S
N449 Co429 2.194 . S
N449 C444 1.328 . S
N449 C448 1.315 . S
H450 C444 0.929 . S
H451 C448 0.930 . S
H452 C440 0.929 . S
H453 C442 0.929 . S
O454 Co429 2.351 . S
O454 C457 1.244 . S
O455 Co429 2.155 . S
O455 C457 1.240 . S
O456 Co429 2.096 . S
O456 C437 1.247 . S
C457 O454 1.244 . S
C457 O455 1.240 . S
H458 C432 0.931 . S
H459 C441 0.931 . S
H460 C445 0.929 . S
H461 C447 0.930 . S
Co462 N466 2.148 . S
Co462 N472 2.128 . S
Co462 N482 2.194 . S
Co462 O487 2.351 . S
Co462 O488 2.155 . S
Co462 O489 2.096 . S
C463 N466 1.301 . S
C463 N467 1.328 . S
C463 H468 0.930 . S
C464 C465 1.333 . S
C464 N466 1.317 . S
C464 H469 0.930 . S
C465 C464 1.333 . S
C465 N467 1.350 . S
C465 H491 0.931 . S
N466 Co462 2.148 . S
N466 C463 1.301 . S
N466 C464 1.317 . S
N467 C463 1.328 . S
N467 C465 1.350 . S
H468 C463 0.930 . S
H469 C464 0.930 . S
C470 O471 1.224 . S
C470 O489 1.247 . S
O471 C470 1.224 . S
N472 Co462 2.128 . S
N472 C473 1.355 . S
N472 C475 1.311 . S
C473 N472 1.355 . S
C473 C474 1.363 . S
C473 H485 0.929 . S
C474 C473 1.363 . S
C474 N476 1.375 . S
C474 H492 0.931 . S
C475 N472 1.311 . S
C475 N476 1.347 . S
C475 H486 0.929 . S
N476 C474 1.375 . S
N476 C475 1.347 . S
C477 C480 1.365 . S
C477 N482 1.328 . S
C477 H483 0.929 . S
C478 C479 1.362 . S
C478 C481 1.378 . S
C478 H493 0.929 . S
C479 C478 1.362 . S
C479 C480 1.366 . S
C480 C477 1.365 . S
C480 C479 1.366 . S
C480 H494 0.930 . S
C481 C478 1.378 . S
C481 N482 1.315 . S
C481 H484 0.930 . S
N482 Co462 2.194 . S
N482 C477 1.328 . S
N482 C481 1.315 . S
H483 C477 0.929 . S
H484 C481 0.930 . S
H485 C473 0.929 . S
H486 C475 0.929 . S
O487 Co462 2.351 . S
O487 C490 1.244 . S
O488 Co462 2.155 . S
O488 C490 1.240 . S
O489 Co462 2.096 . S
O489 C470 1.247 . S
C490 O487 1.244 . S
C490 O488 1.240 . S
H491 C465 0.931 . S
H492 C474 0.931 . S
H493 C478 0.929 . S
H494 C480 0.930 . S
Co495 N499 2.148 . S
Co495 N505 2.128 . S
Co495 N515 2.194 . S
Co495 O520 2.351 . S
Co495 O521 2.155 . S
Co495 O522 2.096 . S
C496 N499 1.301 . S
C496 N500 1.328 . S
C496 H501 0.930 . S
C497 C498 1.333 . S
C497 N499 1.317 . S
C497 H502 0.930 . S
C498 C497 1.333 . S
C498 N500 1.350 . S
C498 H524 0.931 . S
N499 Co495 2.148 . S
N499 C496 1.301 . S
N499 C497 1.317 . S
N500 C496 1.328 . S
N500 C498 1.350 . S
H501 C496 0.930 . S
H502 C497 0.930 . S
C503 O504 1.224 . S
C503 O522 1.247 . S
O504 C503 1.224 . S
N505 Co495 2.128 . S
N505 C506 1.355 . S
N505 C508 1.311 . S
C506 N505 1.355 . S
C506 C507 1.363 . S
C506 H518 0.929 . S
C507 C506 1.363 . S
C507 N509 1.375 . S
C507 H525 0.931 . S
C508 N505 1.311 . S
C508 N509 1.347 . S
C508 H519 0.929 . S
N509 C507 1.375 . S
N509 C508 1.347 . S
C510 C513 1.365 . S
C510 N515 1.328 . S
C510 H516 0.929 . S
C511 C512 1.362 . S
C511 C514 1.378 . S
C511 H526 0.929 . S
C512 C511 1.362 . S
C512 C513 1.366 . S
C513 C510 1.365 . S
C513 C512 1.366 . S
C513 H527 0.930 . S
C514 C511 1.378 . S
C514 N515 1.315 . S
C514 H517 0.930 . S
N515 Co495 2.194 . S
N515 C510 1.328 . S
N515 C514 1.315 . S
H516 C510 0.929 . S
H517 C514 0.930 . S
H518 C506 0.929 . S
H519 C508 0.929 . S
O520 Co495 2.351 . S
O520 C523 1.244 . S
O521 Co495 2.155 . S
O521 C523 1.240 . S
O522 Co495 2.096 . S
O522 C503 1.247 . S
C523 O520 1.244 . S
C523 O521 1.240 . S
H524 C498 0.931 . S
H525 C507 0.931 . S
H526 C511 0.929 . S
H527 C513 0.930 . S
C94 C28 1.541 1_655 S
C61 C127 1.541 1_545 S
C226 C160 1.541 1_655 S
C259 C193 1.541 1_565 S
C292 C358 1.541 1_565 S
C391 C325 1.541 1_655 S
C490 C424 1.541 1_565 S
C457 C523 1.541 1_655 S
N5 N500 2.436 . S
N401 N38 2.436 . S
N434 N71 2.436 . S
N467 N104 2.436 . S
N302 N137 2.436 . S
N335 N170 2.436 . S
N368 N203 2.436 . S
N269 N236 2.436 . S
C17 C107 1.895 . S
C8 C50 1.895 . S
C83 C41 1.895 . S
C74 C116 1.895 . S
C173 C149 1.895 . S
C182 C206 1.895 . S
C239 C215 1.895 . S
C140 C248 1.895 . S
C281 C371 1.895 . S
C272 C314 1.895 . S
C347 C305 1.895 . S
C380 C338 1.895 . S
C413 C437 1.895 . S
C470 C446 1.895 . S
C503 C479 1.895 . S
C512 C404 1.895 . S
N14 N212 1.522 1_655 S
N245 N47 1.522 1_545 S
N146 N80 1.522 1_655 S
N179 N113 1.522 1_565 S
N278 N476 1.522 1_556 S
N509 N311 1.522 1_554 S
N410 N344 1.522 1_554 S
N377 N443 1.522 1_556 S
