# Generated by pormake.
# Topology xfi, (7)-cn, num edge types: 1
# Building blocks:
#     Node 0, Type 0, BuildingBlock: HICVOG_clean_sbu_0, # of connection points: 7
#     Node 1, Type 0, BuildingBlock: HICVOG_clean_sbu_0, # of connection points: 7
#     Node 2, Type 0, BuildingBlock: HICVOG_clean_sbu_0, # of connection points: 7
#     Node 3, Type 0, BuildingBlock: HICVOG_clean_sbu_0, # of connection points: 7
#     Node 4, Type 0, BuildingBlock: HICVOG_clean_sbu_0, # of connection points: 7
#     Node 5, Type 0, BuildingBlock: HICVOG_clean_sbu_0, # of connection points: 7
#     Node 6, Type 0, BuildingBlock: HICVOG_clean_sbu_0, # of connection points: 7
#     Node 7, Type 0, BuildingBlock: HICVOG_clean_sbu_0, # of connection points: 7
#     Node 8, Type 0, BuildingBlock: HICVOG_clean_sbu_0, # of connection points: 7
#     Node 9, Type 0, BuildingBlock: HICVOG_clean_sbu_0, # of connection points: 7
#     Node 10, Type 0, BuildingBlock: HICVOG_clean_sbu_0, # of connection points: 7
#     Node 11, Type 0, BuildingBlock: HICVOG_clean_sbu_0, # of connection points: 7
#     Node 12, Type 0, BuildingBlock: HICVOG_clean_sbu_0, # of connection points: 7
#     Node 13, Type 0, BuildingBlock: HICVOG_clean_sbu_0, # of connection points: 7
#     Node 14, Type 0, BuildingBlock: HICVOG_clean_sbu_0, # of connection points: 7
#     Node 15, Type 0, BuildingBlock: HICVOG_clean_sbu_0, # of connection points: 7
#     Edge 16, Type (0, 0), None
#     Edge 17, Type (0, 0), None
#     Edge 18, Type (0, 0), None
#     Edge 19, Type (0, 0), None
#     Edge 20, Type (0, 0), None
#     Edge 21, Type (0, 0), None
#     Edge 22, Type (0, 0), None
#     Edge 23, Type (0, 0), None
#     Edge 24, Type (0, 0), None
#     Edge 25, Type (0, 0), None
#     Edge 26, Type (0, 0), None
#     Edge 27, Type (0, 0), None
#     Edge 28, Type (0, 0), None
#     Edge 29, Type (0, 0), None
#     Edge 30, Type (0, 0), None
#     Edge 31, Type (0, 0), None
#     Edge 32, Type (0, 0), None
#     Edge 33, Type (0, 0), None
#     Edge 34, Type (0, 0), None
#     Edge 35, Type (0, 0), None
#     Edge 36, Type (0, 0), None
#     Edge 37, Type (0, 0), None
#     Edge 38, Type (0, 0), None
#     Edge 39, Type (0, 0), None
#     Edge 40, Type (0, 0), None
#     Edge 41, Type (0, 0), None
#     Edge 42, Type (0, 0), None
#     Edge 43, Type (0, 0), None
#     Edge 44, Type (0, 0), None
#     Edge 45, Type (0, 0), None
#     Edge 46, Type (0, 0), None
#     Edge 47, Type (0, 0), None
#     Edge 48, Type (0, 0), None
#     Edge 49, Type (0, 0), None
#     Edge 50, Type (0, 0), None
#     Edge 51, Type (0, 0), None
#     Edge 52, Type (0, 0), None
#     Edge 53, Type (0, 0), None
#     Edge 54, Type (0, 0), None
#     Edge 55, Type (0, 0), None
#     Edge 56, Type (0, 0), None
#     Edge 57, Type (0, 0), None
#     Edge 58, Type (0, 0), None
#     Edge 59, Type (0, 0), None
#     Edge 60, Type (0, 0), None
#     Edge 61, Type (0, 0), None
#     Edge 62, Type (0, 0), None
#     Edge 63, Type (0, 0), None
#     Edge 64, Type (0, 0), None
#     Edge 65, Type (0, 0), None
#     Edge 66, Type (0, 0), None
#     Edge 67, Type (0, 0), None
#     Edge 68, Type (0, 0), None
#     Edge 69, Type (0, 0), None
#     Edge 70, Type (0, 0), None
#     Edge 71, Type (0, 0), None
# Relax obj value: 0.208
# Max RMSD: 0.231
# Mean RMSD: 0.231
data_MOF--net-xfi--node1-HICVOG_clean_sbu_0--edge1-none
_symmetry_space_group_name_H-M    P1
_symmetry_Int_Tables_number       1
_symmetry_cell_setting            triclinic
loop_
_symmetry_equiv_pos_as_xyz
'x, y, z'
_cell_length_a     35.612396
_cell_length_b     35.612268
_cell_length_c     7.3616769
_cell_angle_alpha  89.985137
_cell_angle_beta   90.013207
_cell_angle_gamma 90.005575
loop_
_atom_site_label
_atom_site_type_symbol
_atom_site_fract_x
_atom_site_fract_y
_atom_site_fract_z
_atom_type_partial_charge
Zn0 Zn 0.31615 0.11625 0.17212 0.0
C1 C 0.25087 0.05698 0.42478 0.0
N2 N 0.22729 0.06167 0.27429 0.0
C3 C 0.25046 0.06807 1.12465 0.0
N4 N 0.28621 0.0698 0.1901 0.0
N5 N 0.28713 0.05839 0.36163 0.0
C6 C 0.3439 0.07393 0.71758 0.0
O7 O 0.33778 0.09718 0.58479 0.0
O8 O 0.32726 0.11959 0.9233 0.0
Zn9 Zn 0.3376 0.03665 0.43224 0.0
N10 N 0.293 0.15941 0.28452 0.0
C11 C 0.28642 0.18794 0.57553 0.0
C12 C 0.28678 0.15611 0.46584 0.0
C13 C 0.29548 0.19377 0.20552 0.0
N14 N 0.28868 0.22224 0.49709 0.0
C15 C 0.29231 0.22618 0.31414 0.0
O16 O 0.38767 0.06449 0.37069 0.0
C17 C 0.39416 0.0989 0.33597 0.0
O18 O 0.368 0.11986 0.27935 0.0
H19 H 0.28252 0.12897 0.52588 0.0
H20 H 0.30184 0.19569 1.06209 0.0
C21 C 0.36501 0.96016 0.44213 0.0
C22 C 0.37217 0.92484 0.36462 0.0
C23 C 0.33715 0.94255 1.10352 0.0
C24 C 0.33016 0.97757 0.18017 0.0
N25 N 0.34409 0.98571 0.34738 0.0
N26 N 0.35773 0.91708 0.1976 0.0
H27 H 0.37595 0.96732 0.57484 0.0
C28 C 0.34408 0.08865 0.89507 0.0
O29 O 0.35336 0.06626 1.02907 0.0
O30 O 0.34145 0.03885 0.69193 0.0
H31 H 0.31427 -0.00163 1.10579 0.0
H32 H 0.28276 0.18547 0.72092 0.0
H33 H 0.32634 0.93561 0.97034 0.0
Zn34 Zn 0.03662 0.6526 0.86551 0.0
C35 C 0.06802 0.73971 0.17312 0.0
N36 N 0.06161 0.76289 1.02347 0.0
C37 C 0.05694 0.73932 0.87306 0.0
N38 N 0.05833 0.70306 0.93638 0.0
N39 N 0.06981 0.70395 1.10783 0.0
C40 C 0.08866 0.64608 0.40282 0.0
O41 O 0.06627 0.63677 0.26888 0.0
O42 O 0.03884 0.64878 0.60581 0.0
Zn43 Zn 0.11624 0.67395 1.12556 0.0
N44 N 0.98567 0.64606 0.95027 0.0
C45 C 0.94254 0.65287 0.19431 0.0
C46 C 0.97754 0.65993 1.11761 0.0
C47 C 0.96012 0.62517 0.85545 0.0
N48 N 0.91707 0.63231 1.10016 0.0
C49 C 0.92483 0.61794 0.93301 0.0
O50 O 0.11981 0.62211 1.01838 0.0
C51 C 0.09882 0.59597 0.96174 0.0
O52 O 0.06441 0.60251 0.92703 0.0
H53 H -0.00165 0.67579 0.19205 0.0
H54 H 0.96729 0.61427 0.72266 0.0
C55 C 0.19375 0.69457 1.09206 0.0
C56 C 0.22617 0.69774 0.98352 0.0
C57 C 0.18795 0.70373 0.72207 0.0
C58 C 0.15611 0.70337 0.8317 0.0
N59 N 0.1594 0.69708 1.01299 0.0
N60 N 0.22225 0.70143 0.80057 0.0
H61 H 0.19565 0.68817 0.23547 0.0
C62 C 0.07392 0.64632 0.58029 0.0
O63 O 0.09716 0.65243 0.71312 0.0
O64 O 0.11961 0.66285 0.37442 0.0
H65 H 0.12898 0.70768 0.77164 0.0
H66 H 0.93561 0.66362 0.3276 0.0
H67 H 0.1855 0.70743 0.5767 0.0
Zn68 Zn 0.67393 0.87392 0.17186 0.0
C69 C 0.73921 0.93319 0.42443 0.0
N70 N 0.76279 0.9285 0.274 0.0
C71 C 0.73961 0.9221 1.12433 0.0
N72 N 0.70386 0.92038 0.18971 0.0
N73 N 0.70294 0.9318 0.36121 0.0
C74 C 0.64618 0.91623 0.71717 0.0
O75 O 0.65232 0.89299 0.58444 0.0
O76 O 0.66281 0.87057 0.92304 0.0
Zn77 Zn 0.65248 0.95352 0.43179 0.0
N78 N 0.69708 0.83076 0.28431 0.0
C79 C 0.70367 0.8022 0.57533 0.0
C80 C 0.7033 0.83404 0.46566 0.0
C81 C 0.69463 0.79641 0.20529 0.0
N82 N 0.70143 0.7679 0.49686 0.0
C83 C 0.6978 0.76399 0.31389 0.0
O84 O 0.60241 0.92568 0.3702 0.0
C85 C 0.59592 0.89126 0.33561 0.0
O86 O 0.62208 0.87031 0.27909 0.0
H87 H 0.70756 0.86118 0.52572 0.0
H88 H 0.68827 0.7945 1.06184 0.0
C89 C 0.62509 0.03002 0.44201 0.0
C90 C 0.61784 0.06533 0.36452 0.0
C91 C 0.65267 0.04763 1.1029 0.0
C92 C 0.65974 0.01262 0.17954 0.0
N93 N 0.64594 0.00447 0.34699 0.0
N94 N 0.63215 0.07309 0.19724 0.0
H95 H 0.61424 0.02284 0.57489 0.0
C96 C 0.64598 0.9015 0.89468 0.0
O97 O 0.63669 0.92389 1.0286 0.0
O98 O 0.64864 0.95131 0.69148 0.0
H99 H 0.67558 0.99182 1.10496 0.0
H100 H 0.70733 0.80465 0.72073 0.0
H101 H 0.66337 0.05458 0.96952 0.0
Zn102 Zn 0.95352 0.33755 0.86545 0.0
C103 C 0.9221 0.25044 0.17315 0.0
N104 N 0.9285 0.22726 1.02358 0.0
C105 C 0.93319 0.25084 0.87312 0.0
N106 N 0.93181 0.28709 0.93637 0.0
N107 N 0.92033 0.28621 1.10779 0.0
C108 C 0.90148 0.34407 0.40264 0.0
O109 O 0.92388 0.35337 0.26874 0.0
O110 O 0.95129 0.34137 0.60576 0.0
Zn111 Zn 0.8739 0.3162 1.12537 0.0
N112 N 0.00448 0.34408 0.9502 0.0
C113 C 0.04764 0.33725 0.1942 0.0
C114 C 0.01263 0.3302 1.11753 0.0
C115 C 0.03001 0.36499 0.85536 0.0
N116 N 0.0731 0.35782 1.10002 0.0
C117 C 0.06532 0.37221 0.93289 0.0
O118 O 0.87034 0.36806 1.01817 0.0
C119 C 0.89133 0.39419 0.96155 0.0
O120 O 0.92574 0.38764 0.92685 0.0
H121 H 0.99183 0.31433 0.19199 0.0
H122 H 0.02283 0.3759 0.72258 0.0
C123 C 0.7964 0.29557 1.09191 0.0
C124 C 0.76397 0.29238 0.98341 0.0
C125 C 0.80215 0.28641 0.72193 0.0
C126 C 0.834 0.28679 0.83152 0.0
N127 N 0.83074 0.29307 1.01281 0.0
N128 N 0.76786 0.28869 0.80047 0.0
H129 H 0.79451 0.30196 0.23531 0.0
C130 C 0.91621 0.34385 0.58015 0.0
O131 O 0.89297 0.33775 0.71295 0.0
O132 O 0.87053 0.32729 0.37421 0.0
H133 H 0.86113 0.2825 0.77144 0.0
H134 H 0.05459 0.32648 0.32747 0.0
H135 H 0.80458 0.28271 0.57656 0.0
Zn136 Zn 0.31612 0.37391 0.37575 0.0
C137 C 0.25086 0.43321 1.12302 0.0
N138 N 0.22727 0.42852 0.27346 0.0
C139 C 0.25045 0.42211 0.42313 0.0
N140 N 0.2862 0.42037 0.35774 0.0
N141 N 0.28712 0.43179 0.18622 0.0
C142 C 0.34387 0.41624 0.83031 0.0
O143 O 0.33772 0.393 0.96309 0.0
O144 O 0.32724 0.37057 0.62457 0.0
Zn145 Zn 0.3376 0.4535 1.11564 0.0
N146 N 0.29295 0.33075 0.2634 0.0
C147 C 0.28639 0.30222 0.97238 0.0
C148 C 0.28674 0.33406 1.08206 0.0
C149 C 0.29544 0.2964 0.34241 0.0
N150 N 0.28866 0.26792 1.05083 0.0
C151 C 0.2923 0.26399 0.23379 0.0
O152 O 0.38766 0.42565 0.17718 0.0
C153 C 0.39412 0.39122 0.21185 0.0
O154 O 0.36795 0.37028 0.26848 0.0
H155 H 0.28246 0.36119 1.022 0.0
H156 H 0.30181 0.29448 0.48585 0.0
C157 C 0.36503 0.52999 1.10568 0.0
C158 C 0.37231 0.56528 0.18332 0.0
C159 C 0.33746 0.54753 0.44483 0.0
C160 C 0.33036 0.51255 0.36805 0.0
N161 N 0.34416 0.50444 0.20057 0.0
N162 N 0.358 0.57301 0.35062 0.0
H163 H 0.37588 0.52285 0.97277 0.0
C164 C 0.34408 0.4015 0.65284 0.0
O165 O 0.35338 0.42388 0.51885 0.0
O166 O 0.34144 0.45132 0.85592 0.0
H167 H 0.31451 0.49174 0.44253 0.0
H168 H 0.28274 0.30469 0.82698 0.0
H169 H 0.32675 0.55445 0.57823 0.0
Zn170 Zn 0.37392 0.67395 0.92209 0.0
C171 C 0.43316 0.73926 0.17475 0.0
N172 N 0.42846 0.76284 1.02425 0.0
C173 C 0.42207 0.73967 0.87462 0.0
N174 N 0.42036 0.70392 0.94008 0.0
N175 N 0.43177 0.703 1.11161 0.0
C176 C 0.41628 0.64623 0.46757 0.0
O177 O 0.39302 0.65233 0.33477 0.0
O178 O 0.3706 0.66284 0.67327 0.0
Zn179 Zn 0.45354 0.65255 0.18224 0.0
N180 N 0.33074 0.69706 1.03443 0.0
C181 C 0.30219 0.70362 0.3254 0.0
C182 C 0.33403 0.70327 0.21577 0.0
C183 C 0.29639 0.69457 0.95537 0.0
N184 N 0.26789 0.70136 0.24689 0.0
C185 C 0.26397 0.69773 1.06393 0.0
O186 O 0.42574 0.60247 1.12077 0.0
C187 C 0.39133 0.59596 1.08592 0.0
O188 O 0.37034 0.62209 1.02932 0.0
H189 H 0.36116 0.70755 0.27586 0.0
H190 H 0.29448 0.68822 0.81193 0.0
C191 C 0.53004 0.62515 0.19207 0.0
C192 C 0.56534 0.61796 1.11449 0.0
C193 C 0.54761 0.65294 0.85329 0.0
C194 C 0.51261 0.65997 0.93002 0.0
N195 N 0.50448 0.64606 1.09732 0.0
N196 N 0.57308 0.63237 0.94739 0.0
H197 H 0.52288 0.61423 0.32483 0.0
C198 C 0.40155 0.64603 0.64505 0.0
O199 O 0.42394 0.63677 0.77906 0.0
O200 O 0.45135 0.64871 0.44194 0.0
H201 H 0.4918 0.67584 0.85563 0.0
H202 H 0.30464 0.70727 0.4708 0.0
H203 H 0.55454 0.66373 0.72004 0.0
Zn204 Zn 0.67402 0.61625 0.37554 0.0
C205 C 0.73928 0.55696 1.12303 0.0
N206 N 0.76286 0.56165 0.27351 0.0
C207 C 0.73969 0.56806 0.42311 0.0
N208 N 0.70394 0.5698 0.35765 0.0
N209 N 0.70302 0.55838 0.18615 0.0
C210 C 0.64626 0.57394 0.83017 0.0
O211 O 0.65239 0.59718 0.96292 0.0
O212 O 0.66292 0.61959 0.62435 0.0
Zn213 Zn 0.65254 0.53665 1.11555 0.0
N214 N 0.69717 0.65942 0.26313 0.0
C215 C 0.70373 0.68798 0.97212 0.0
C216 C 0.70338 0.65614 1.08179 0.0
C217 C 0.69468 0.69377 0.34214 0.0
N218 N 0.70147 0.72228 1.05058 0.0
C219 C 0.69783 0.72619 0.23353 0.0
O220 O 0.60248 0.56449 0.177 0.0
C221 C 0.59601 0.59891 0.21179 0.0
O222 O 0.62217 0.61987 0.26833 0.0
H223 H 0.70764 0.62901 1.02174 0.0
H224 H 0.68831 0.69567 0.48556 0.0
C225 C 0.62511 0.46017 1.10556 0.0
C226 C 0.61787 0.42486 0.1831 0.0
C227 C 0.6528 0.44255 0.44451 0.0
C228 C 0.65986 0.47756 0.36782 0.0
N229 N 0.646 0.48571 0.20044 0.0
N230 N 0.63224 0.41709 0.3503 0.0
H231 H 0.61422 0.46734 0.97272 0.0
C232 C 0.64607 0.58866 0.65266 0.0
O233 O 0.63679 0.56627 0.51871 0.0
O234 O 0.6487 0.53886 0.85587 0.0
H235 H 0.67572 0.49836 0.4423 0.0
H236 H 0.70739 0.68554 0.82673 0.0
H237 H 0.66355 0.43561 0.57783 0.0
Zn238 Zn 0.61623 0.3162 0.92202 0.0
C239 C 0.55697 0.25091 0.17466 0.0
N240 N 0.56166 0.22733 1.02424 0.0
C241 C 0.56806 0.2505 0.87456 0.0
N242 N 0.56978 0.28625 0.93994 0.0
N243 N 0.55837 0.28717 1.11144 0.0
C244 C 0.57389 0.34393 0.46734 0.0
O245 O 0.59714 0.33781 0.33461 0.0
O246 O 0.61956 0.32732 0.6732 0.0
Zn247 Zn 0.53661 0.33762 0.18197 0.0
N248 N 0.65941 0.29307 1.03444 0.0
C249 C 0.68799 0.2865 0.32539 0.0
C250 C 0.65614 0.28686 0.21579 0.0
C251 C 0.69375 0.29555 0.95534 0.0
N252 N 0.72228 0.28875 0.24684 0.0
C253 C 0.72618 0.29239 1.06387 0.0
O254 O 0.56443 0.38771 1.12039 0.0
C255 C 0.59884 0.3942 1.08568 0.0
O256 O 0.61982 0.36805 1.02921 0.0
H257 H 0.62901 0.2826 0.27592 0.0
H258 H 0.69564 0.30191 0.81188 0.0
C259 C 0.46012 0.36502 0.19194 0.0
C260 C 0.42478 0.37216 1.11455 0.0
C261 C 0.44244 0.33713 0.85351 0.0
C262 C 0.47747 0.33016 0.93004 0.0
N263 N 0.48565 0.34411 1.09718 0.0
N264 N 0.41698 0.3577 0.94762 0.0
H265 H 0.46731 0.37598 0.32457 0.0
C266 C 0.58862 0.34414 0.64485 0.0
O267 O 0.56623 0.35341 0.77878 0.0
O268 O 0.53882 0.34147 0.44165 0.0
H269 H 0.49827 0.31428 0.85566 0.0
H270 H 0.68556 0.28284 0.47079 0.0
H271 H 0.43547 0.3263 0.7204 0.0
Zn272 Zn 0.81616 0.61624 0.67184 0.0
C273 C 0.75088 0.55699 0.92451 0.0
N274 N 0.7273 0.56166 0.774 0.0
C275 C 0.75048 0.56803 0.62437 0.0
N276 N 0.78622 0.56978 0.68984 0.0
N277 N 0.78714 0.55836 0.86137 0.0
C278 C 0.8439 0.5739 0.21733 0.0
O279 O 0.83778 0.59715 1.08452 0.0
O280 O 0.82726 0.61957 0.42302 0.0
Zn281 Zn 0.83761 0.53663 0.93203 0.0
N282 N 0.79302 0.6594 0.78419 0.0
C283 C 0.78647 0.68794 1.07518 0.0
C284 C 0.78681 0.6561 0.96553 0.0
C285 C 0.7955 0.69376 0.70515 0.0
N286 N 0.78873 0.72224 0.9967 0.0
C287 C 0.79236 0.72617 0.81374 0.0
O288 O 0.88767 0.56448 0.87057 0.0
C289 C 0.89416 0.59889 0.83568 0.0
O290 O 0.86801 0.61986 0.77906 0.0
H291 H 0.78253 0.62897 1.0256 0.0
H292 H 0.80186 0.69567 0.56171 0.0
C293 C 0.86503 0.46014 0.94194 0.0
C294 C 0.87231 0.42487 0.86421 0.0
C295 C 0.83747 0.44264 0.60263 0.0
C296 C 0.83036 0.47761 0.67951 0.0
N297 N 0.84416 0.4857 0.84705 0.0
N298 N 0.85802 0.41716 0.69683 0.0
H299 H 0.87587 0.46727 1.0749 0.0
C300 C 0.84409 0.58864 0.3948 0.0
O301 O 0.85339 0.56626 0.52881 0.0
O302 O 0.84145 0.53883 0.19172 0.0
H303 H 0.81451 0.49843 0.60503 0.0
H304 H 0.78282 0.68548 0.22058 0.0
H305 H 0.82678 0.43574 0.46917 0.0
Zn306 Zn 0.53664 0.1526 0.36566 0.0
C307 C 0.56803 0.23971 0.67331 0.0
N308 N 0.56166 0.26289 0.52365 0.0
C309 C 0.55699 0.23932 0.37323 0.0
N310 N 0.55834 0.20306 0.43657 0.0
N311 N 0.56982 0.20394 0.60802 0.0
C312 C 0.58868 0.14608 0.903 0.0
O313 O 0.56629 0.13677 0.76906 0.0
O314 O 0.53887 0.14879 1.10597 0.0
Zn315 Zn 0.61626 0.17396 0.62571 0.0
N316 N 0.48569 0.14607 0.45041 0.0
C317 C 0.44256 0.15289 0.6945 0.0
C318 C 0.47756 0.15994 0.61776 0.0
C319 C 0.46013 0.12517 0.35564 0.0
N320 N 0.41709 0.13232 0.60039 0.0
C321 C 0.42483 0.11795 0.43325 0.0
O322 O 0.61983 0.1221 0.51857 0.0
C323 C 0.59882 0.09598 0.46202 0.0
O324 O 0.56442 0.10251 0.4272 0.0
H325 H 0.49838 0.1758 0.69216 0.0
H326 H 0.46729 0.11427 0.22286 0.0
C327 C 0.69376 0.1946 0.59213 0.0
C328 C 0.72617 0.1978 0.48355 0.0
C329 C 0.68794 0.20379 0.22216 0.0
C330 C 0.65611 0.20341 0.33183 0.0
N331 N 0.65941 0.1971 0.51311 0.0
N332 N 0.72224 0.2015 0.30062 0.0
H333 H 0.69568 0.1882 0.73553 0.0
C334 C 0.57394 0.14632 1.08046 0.0
O335 O 0.59718 0.15243 0.21331 0.0
O336 O 0.61964 0.16286 0.87459 0.0
H337 H 0.62897 0.20771 0.2718 0.0
H338 H 0.43564 0.16365 0.82778 0.0
H339 H 0.68548 0.20749 1.07679 0.0
Zn340 Zn 0.17398 0.37393 0.67184 0.0
C341 C 0.23926 0.43318 0.92447 0.0
N342 N 0.26284 0.42851 0.77403 0.0
C343 C 0.23966 0.42214 0.62437 0.0
N344 N 0.20391 0.42039 0.68977 0.0
N345 N 0.20299 0.4318 0.86127 0.0
C346 C 0.14624 0.41625 0.21718 0.0
O347 O 0.15237 0.393 1.08444 0.0
O348 O 0.16287 0.37058 0.42303 0.0
Zn349 Zn 0.15253 0.45353 0.93183 0.0
N350 N 0.19712 0.33076 0.78428 0.0
C351 C 0.20366 0.30218 1.07528 0.0
C352 C 0.20332 0.33403 0.96564 0.0
C353 C 0.19463 0.29641 0.70522 0.0
N354 N 0.20139 0.26789 0.99678 0.0
C355 C 0.19777 0.26398 0.81381 0.0
O356 O 0.10246 0.42568 0.87031 0.0
C357 C 0.09598 0.39127 0.83552 0.0
O358 O 0.12213 0.3703 0.77901 0.0
H359 H 0.20759 0.36116 1.02573 0.0
H360 H 0.18828 0.29452 0.56177 0.0
C361 C 0.12511 0.53001 0.94189 0.0
C362 C 0.11785 0.56532 0.86433 0.0
C363 C 0.15271 0.54762 0.60282 0.0
C364 C 0.15979 0.51262 0.67952 0.0
N365 N 0.14598 0.50447 0.84696 0.0
N366 N 0.13217 0.57308 0.69707 0.0
H367 H 0.11425 0.52284 1.07476 0.0
C368 C 0.14604 0.40151 0.39468 0.0
O369 O 0.13675 0.4239 0.52861 0.0
O370 O 0.14869 0.45132 0.19151 0.0
H371 H 0.17564 0.49182 0.60501 0.0
H372 H 0.20731 0.30462 0.22069 0.0
H373 H 0.16342 0.55456 0.46945 0.0
Zn374 Zn 0.45344 0.83759 0.36563 0.0
C375 C 0.4221 0.75046 0.67334 0.0
N376 N 0.42848 0.72727 0.52376 0.0
C377 C 0.43313 0.75086 0.37329 0.0
N378 N 0.43176 0.78711 0.43654 0.0
N379 N 0.42029 0.78622 0.60797 0.0
C380 C 0.40138 0.84406 0.90286 0.0
O381 O 0.42377 0.85338 0.76896 0.0
O382 O 0.45119 0.8414 1.10597 0.0
Zn383 Zn 0.37384 0.81617 0.62557 0.0
N384 N 0.5044 0.84413 0.45033 0.0
C385 C 0.54756 0.83728 0.69434 0.0
C386 C 0.51254 0.83025 0.61769 0.0
C387 C 0.52994 0.86501 0.35546 0.0
N388 N 0.57303 0.85784 0.60012 0.0
C389 C 0.56526 0.87222 0.43297 0.0
O390 O 0.37024 0.86803 0.51846 0.0
C391 C 0.39122 0.89417 0.46194 0.0
O392 O 0.42563 0.88766 0.4271 0.0
H393 H 0.49174 0.81439 0.69217 0.0
H394 H 0.52277 0.87592 0.22266 0.0
C395 C 0.29635 0.7955 0.59194 0.0
C396 C 0.26393 0.7923 0.48339 0.0
C397 C 0.30213 0.78633 0.22199 0.0
C398 C 0.33398 0.78673 0.33164 0.0
N399 N 0.3307 0.79301 0.51291 0.0
N400 N 0.26784 0.78861 0.30046 0.0
H401 H 0.29445 0.8019 0.73534 0.0
C402 C 0.41611 0.84386 1.08037 0.0
O403 O 0.39287 0.83775 0.21318 0.0
O404 O 0.37044 0.82724 0.87442 0.0
H405 H 0.36111 0.78245 0.27159 0.0
H406 H 0.5545 0.82652 0.82762 0.0
H407 H 0.30457 0.78263 1.07662 0.0
Zn408 Zn 0.83751 0.95351 0.61544 0.0
C409 C 0.75041 0.92213 0.92308 0.0
N410 N 0.72722 0.9285 0.77342 0.0
C411 C 0.7508 0.93316 0.623 0.0
N412 N 0.78705 0.93181 0.68632 0.0
N413 N 0.78617 0.92033 0.85778 0.0
C414 C 0.84404 0.90148 0.15275 0.0
O415 O 0.85334 0.92387 1.01881 0.0
O416 O 0.84133 0.95129 0.35575 0.0
Zn417 Zn 0.81616 0.8739 0.87549 0.0
N418 N 0.84404 0.00446 0.70021 0.0
C419 C 0.8372 0.0476 0.94422 0.0
C420 C 0.83015 0.0126 0.86751 0.0
C421 C 0.86494 0.03001 0.60544 0.0
N422 N 0.85777 0.07306 0.85011 0.0
C423 C 0.87216 0.06531 0.68301 0.0
O424 O 0.86802 0.87034 0.76834 0.0
C425 C 0.89415 0.89133 0.71171 0.0
O426 O 0.88761 0.92573 0.67699 0.0
H427 H 0.81428 0.99179 0.94192 0.0
H428 H 0.87586 0.02285 0.47269 0.0
C429 C 0.79554 0.79639 0.84193 0.0
C430 C 0.79235 0.76397 0.73336 0.0
C431 C 0.78638 0.8022 0.47195 0.0
C432 C 0.78675 0.83404 0.5816 0.0
N433 N 0.79304 0.83074 0.76289 0.0
N434 N 0.78867 0.7679 0.55042 0.0
H435 H 0.80194 0.79448 0.98534 0.0
C436 C 0.8438 0.91622 0.33022 0.0
O437 O 0.8377 0.89298 0.46306 0.0
O438 O 0.82726 0.87052 1.12436 0.0
H439 H 0.78244 0.86117 0.52156 0.0
H440 H 0.82643 0.05453 1.07747 0.0
H441 H 0.78268 0.80466 0.32657 0.0
Zn442 Zn 0.8739 0.17399 0.42192 0.0
C443 C 0.93316 0.23925 0.67458 0.0
N444 N 0.9285 0.26283 0.52407 0.0
C445 C 0.92212 0.23965 0.37443 0.0
N446 N 0.92037 0.2039 0.43989 0.0
N447 N 0.93178 0.20298 0.61143 0.0
C448 C 0.91621 0.14623 0.96739 0.0
O449 O 0.89297 0.15235 0.83458 0.0
O450 O 0.87056 0.16289 0.17309 0.0
Zn451 Zn 0.95349 0.15251 0.6821 0.0
N452 N 0.83074 0.19714 0.53432 0.0
C453 C 0.80221 0.2037 0.82533 0.0
C454 C 0.83405 0.20335 0.71565 0.0
C455 C 0.79639 0.19465 0.45531 0.0
N456 N 0.76791 0.20143 0.74687 0.0
C457 C 0.76398 0.1978 0.56392 0.0
O458 O 0.92563 0.10245 0.62062 0.0
C459 C 0.89122 0.09598 0.58571 0.0
O460 O 0.87026 0.12214 0.52911 0.0
H461 H 0.86118 0.20762 0.7757 0.0
H462 H 0.79447 0.18829 0.31188 0.0
C463 C 0.02998 0.1251 0.69216 0.0
C464 C 0.06525 0.11779 0.61445 0.0
C465 C 0.04748 0.15257 0.35269 0.0
C466 C 0.01251 0.15971 0.42953 0.0
N467 N 0.00442 0.14595 0.59716 0.0
N468 N 0.07296 0.13205 0.447 0.0
H469 H 0.02285 0.11429 0.82518 0.0
C470 C 0.90148 0.14604 1.14487 0.0
O471 O 0.92386 0.13674 0.27887 0.0
O472 O 0.95129 0.14867 0.94178 0.0
H473 H 0.9917 0.17554 0.35497 0.0
H474 H 0.80467 0.20735 0.97072 0.0
H475 H 0.05438 0.16324 0.21916 0.0
Zn476 Zn 0.15257 0.03663 0.61564 0.0
C477 C 0.23967 0.06804 0.92337 0.0
N478 N 0.26286 0.06167 0.77379 0.0
C479 C 0.23928 0.057 0.62332 0.0
N480 N 0.20303 0.05835 0.68657 0.0
N481 N 0.20391 0.06983 0.85799 0.0
C482 C 0.14605 0.08868 0.15286 0.0
O483 O 0.13675 0.06628 1.01897 0.0
O484 O 0.14875 0.03888 0.35598 0.0
Zn485 Zn 0.17391 0.11626 0.87557 0.0
N486 N 0.14607 0.98567 0.7003 0.0
C487 C 0.15298 0.94246 0.94408 0.0
C488 C 0.15999 0.97749 0.86752 0.0
C489 C 0.12514 0.96014 0.60549 0.0
N490 N 0.1324 0.91701 0.84992 0.0
C491 C 0.11796 0.92481 0.68291 0.0
O492 O 0.12205 0.11981 0.76843 0.0
C493 C 0.09593 0.09879 0.71191 0.0
O494 O 0.10248 0.06439 0.67711 0.0
H495 H 0.17587 -0.00172 0.94196 0.0
H496 H 0.1142 0.96734 0.4728 0.0
C497 C 0.19455 0.19377 0.84196 0.0
C498 C 0.19776 0.22619 0.73342 0.0
C499 C 0.20371 0.18799 0.472 0.0
C500 C 0.20332 0.15614 0.58164 0.0
N501 N 0.19704 0.15942 0.76292 0.0
N502 N 0.20144 0.22228 0.55048 0.0
H503 H 0.18817 0.19566 0.98537 0.0
C504 C 0.14627 0.07395 0.33037 0.0
O505 O 0.15235 0.09719 0.46318 0.0
O506 O 0.16283 0.11964 1.12442 0.0
H507 H 0.20761 0.12901 0.5216 0.0
H508 H 0.16379 0.93549 1.07725 0.0
H509 H 0.20741 0.18555 0.32663 0.0
Zn510 Zn 0.11621 0.81616 0.42184 0.0
C511 C 0.05696 0.75091 0.67449 0.0
N512 N 0.06163 0.72732 0.52406 0.0
C513 C 0.068 0.7505 0.37437 0.0
N514 N 0.06973 0.78625 0.43974 0.0
N515 N 0.05833 0.78717 0.61126 0.0
C516 C 0.07389 0.84392 0.96718 0.0
O517 O 0.09713 0.83778 0.83444 0.0
O518 O 0.11955 0.82728 0.17302 0.0
Zn519 Zn 0.03661 0.83764 0.68182 0.0
N520 N 0.15936 0.793 0.53427 0.0
C521 C 0.18793 0.78645 0.82527 0.0
C522 C 0.15608 0.7868 0.71563 0.0
C523 C 0.19371 0.79547 0.45521 0.0
N524 N 0.22223 0.78869 0.74676 0.0
C525 C 0.22613 0.79231 0.56379 0.0
O526 O 0.06447 0.88771 0.62028 0.0
C527 C 0.09889 0.89417 0.58553 0.0
O528 O 0.11984 0.86801 0.52903 0.0
H529 H 0.12896 0.78255 0.77573 0.0
H530 H 0.19561 0.80182 0.31175 0.0
C531 C 0.96011 0.86505 0.6919 0.0
C532 C 0.92481 0.87231 0.61432 0.0
C533 C 0.94253 0.83748 0.35275 0.0
C534 C 0.97753 0.83039 0.42947 0.0
N535 N 0.98566 0.8442 0.59695 0.0
N536 N 0.91706 0.858 0.44702 0.0
H537 H 0.96728 0.8759 0.8248 0.0
C538 C 0.08863 0.84413 1.14468 0.0
O539 O 0.06625 0.85342 0.27861 0.0
O540 O 0.03882 0.84148 0.94151 0.0
H541 H -0.00166 0.81456 0.35495 0.0
H542 H 0.18549 0.7828 0.97068 0.0
H543 H 0.9356 0.82678 0.21935 0.0
loop_
_geom_bond_atom_site_label_1
_geom_bond_atom_site_label_2
_geom_bond_distance
_geom_bond_site_symmetry_2
_ccdc_geom_bond_type
Zn0 N4 2.020 1_556 S
Zn0 O8 2.019 . S
Zn0 N10 2.119 1_556 S
Zn0 O18 1.975 1_556 S
C1 N2 1.334 . S
C1 N5 1.336 . S
N2 C1 1.334 . S
N2 C3 1.334 . S
C3 N2 1.334 . S
C3 N4 1.336 . S
N4 Zn0 2.020 1_554 S
N4 C3 1.336 . S
N4 N5 1.354 . S
N5 C1 1.336 . S
N5 N4 1.354 . S
N5 Zn9 2.020 . S
C6 O7 1.244 . S
C6 O30 1.257 . S
O7 C6 1.244 . S
O8 Zn0 2.019 . S
O8 C28 1.257 . S
Zn9 N5 2.020 . S
Zn9 O16 1.975 . S
Zn9 N25 2.119 . S
Zn9 O30 2.019 . S
N10 Zn0 2.119 1_554 S
N10 C12 1.334 . S
N10 C13 1.328 1_554 S
C11 C12 1.391 . S
C11 N14 1.329 . S
C11 H32 0.930 . S
C12 N10 1.334 . S
C12 C11 1.391 . S
C12 H19 0.930 . S
C13 N10 1.328 1_556 S
C13 C15 1.392 1_556 S
C13 H20 0.930 . S
N14 C11 1.329 . S
N14 C15 1.331 . S
C15 C13 1.392 1_554 S
C15 N14 1.331 . S
O16 Zn9 1.975 . S
O16 C17 1.252 . S
C17 O16 1.252 . S
C17 O18 1.252 . S
O18 Zn0 1.975 1_554 S
O18 C17 1.252 . S
H19 C12 0.930 . S
H20 C13 0.930 . S
C21 C22 1.392 . S
C21 N25 1.328 1_565 S
C21 H27 0.930 . S
C22 C21 1.392 . S
C22 N26 1.331 . S
C23 C24 1.391 . S
C23 N26 1.329 . S
C23 H33 0.930 . S
C24 C23 1.391 . S
C24 N25 1.334 1_565 S
C24 H31 0.930 1_565 S
N25 Zn9 2.119 . S
N25 C21 1.328 1_545 S
N25 C24 1.334 1_545 S
N26 C22 1.331 . S
N26 C23 1.329 . S
H27 C21 0.930 . S
C28 O8 1.257 . S
C28 O29 1.244 . S
O29 C28 1.244 . S
O30 C6 1.257 . S
O30 Zn9 2.019 . S
H31 C24 0.930 1_545 S
H32 C11 0.930 . S
H33 C23 0.930 . S
Zn34 N38 2.020 . S
Zn34 O42 2.019 . S
Zn34 N44 2.119 . S
Zn34 O52 1.975 . S
C35 N36 1.334 . S
C35 N39 1.336 . S
N36 C35 1.334 . S
N36 C37 1.334 . S
C37 N36 1.334 . S
C37 N38 1.336 . S
N38 Zn34 2.020 . S
N38 C37 1.336 . S
N38 N39 1.354 . S
N39 C35 1.336 . S
N39 N38 1.354 . S
N39 Zn43 2.020 1_556 S
C40 O41 1.244 . S
C40 O64 1.257 . S
O41 C40 1.244 . S
O42 Zn34 2.019 . S
O42 C62 1.257 . S
Zn43 N39 2.020 1_554 S
Zn43 O50 1.975 1_554 S
Zn43 N59 2.119 1_554 S
Zn43 O64 2.019 . S
N44 Zn34 2.119 . S
N44 C46 1.334 1_455 S
N44 C47 1.328 1_455 S
C45 C46 1.391 . S
C45 N48 1.329 . S
C45 H66 0.930 . S
C46 N44 1.334 1_655 S
C46 C45 1.391 . S
C46 H53 0.930 1_655 S
C47 N44 1.328 1_655 S
C47 C49 1.392 . S
C47 H54 0.930 . S
N48 C45 1.329 . S
N48 C49 1.331 . S
C49 C47 1.392 . S
C49 N48 1.331 . S
O50 Zn43 1.975 1_556 S
O50 C51 1.252 . S
C51 O50 1.252 . S
C51 O52 1.252 . S
O52 Zn34 1.975 . S
O52 C51 1.252 . S
H53 C46 0.930 1_455 S
H54 C47 0.930 . S
C55 C56 1.392 1_554 S
C55 N59 1.328 1_554 S
C55 H61 0.930 . S
C56 C55 1.392 1_556 S
C56 N60 1.331 . S
C57 C58 1.391 . S
C57 N60 1.329 . S
C57 H67 0.930 . S
C58 C57 1.391 . S
C58 N59 1.334 . S
C58 H65 0.930 . S
N59 Zn43 2.119 1_556 S
N59 C55 1.328 1_556 S
N59 C58 1.334 . S
N60 C56 1.331 . S
N60 C57 1.329 . S
H61 C55 0.930 . S
C62 O42 1.257 . S
C62 O63 1.244 . S
O63 C62 1.244 . S
O64 C40 1.257 . S
O64 Zn43 2.019 . S
H65 C58 0.930 . S
H66 C45 0.930 . S
H67 C57 0.930 . S
Zn68 N72 2.020 1_556 S
Zn68 O76 2.019 . S
Zn68 N78 2.119 1_556 S
Zn68 O86 1.975 1_556 S
C69 N70 1.334 . S
C69 N73 1.336 . S
N70 C69 1.334 . S
N70 C71 1.334 . S
C71 N70 1.334 . S
C71 N72 1.336 . S
N72 Zn68 2.020 1_554 S
N72 C71 1.336 . S
N72 N73 1.354 . S
N73 C69 1.336 . S
N73 N72 1.354 . S
N73 Zn77 2.020 . S
C74 O75 1.244 . S
C74 O98 1.257 . S
O75 C74 1.244 . S
O76 Zn68 2.019 . S
O76 C96 1.257 . S
Zn77 N73 2.020 . S
Zn77 O84 1.975 . S
Zn77 N93 2.119 . S
Zn77 O98 2.019 . S
N78 Zn68 2.119 1_554 S
N78 C80 1.334 . S
N78 C81 1.328 1_554 S
C79 C80 1.391 . S
C79 N82 1.329 . S
C79 H100 0.930 . S
C80 N78 1.334 . S
C80 C79 1.391 . S
C80 H87 0.930 . S
C81 N78 1.328 1_556 S
C81 C83 1.392 1_556 S
C81 H88 0.930 . S
N82 C79 1.329 . S
N82 C83 1.331 . S
C83 C81 1.392 1_554 S
C83 N82 1.331 . S
O84 Zn77 1.975 . S
O84 C85 1.252 . S
C85 O84 1.252 . S
C85 O86 1.252 . S
O86 Zn68 1.975 1_554 S
O86 C85 1.252 . S
H87 C80 0.930 . S
H88 C81 0.930 . S
C89 C90 1.392 . S
C89 N93 1.328 1_545 S
C89 H95 0.930 . S
C90 C89 1.392 . S
C90 N94 1.331 . S
C91 C92 1.391 . S
C91 N94 1.329 . S
C91 H101 0.930 . S
C92 C91 1.391 . S
C92 N93 1.334 1_545 S
C92 H99 0.930 1_545 S
N93 Zn77 2.119 . S
N93 C89 1.328 1_565 S
N93 C92 1.334 1_565 S
N94 C90 1.331 . S
N94 C91 1.329 . S
H95 C89 0.930 . S
C96 O76 1.257 . S
C96 O97 1.244 . S
O97 C96 1.244 . S
O98 C74 1.257 . S
O98 Zn77 2.019 . S
H99 C92 0.930 1_565 S
H100 C79 0.930 . S
H101 C91 0.930 . S
Zn102 N106 2.020 . S
Zn102 O110 2.019 . S
Zn102 N112 2.119 . S
Zn102 O120 1.975 . S
C103 N104 1.334 . S
C103 N107 1.336 . S
N104 C103 1.334 . S
N104 C105 1.334 . S
C105 N104 1.334 . S
C105 N106 1.336 . S
N106 Zn102 2.020 . S
N106 C105 1.336 . S
N106 N107 1.354 . S
N107 C103 1.336 . S
N107 N106 1.354 . S
N107 Zn111 2.020 1_556 S
C108 O109 1.244 . S
C108 O132 1.257 . S
O109 C108 1.244 . S
O110 Zn102 2.019 . S
O110 C130 1.257 . S
Zn111 N107 2.020 1_554 S
Zn111 O118 1.975 1_554 S
Zn111 N127 2.119 1_554 S
Zn111 O132 2.019 . S
N112 Zn102 2.119 . S
N112 C114 1.334 1_655 S
N112 C115 1.328 1_655 S
C113 C114 1.391 . S
C113 N116 1.329 . S
C113 H134 0.930 . S
C114 N112 1.334 1_455 S
C114 C113 1.391 . S
C114 H121 0.930 1_455 S
C115 N112 1.328 1_455 S
C115 C117 1.392 . S
C115 H122 0.930 . S
N116 C113 1.329 . S
N116 C117 1.331 . S
C117 C115 1.392 . S
C117 N116 1.331 . S
O118 Zn111 1.975 1_556 S
O118 C119 1.252 . S
C119 O118 1.252 . S
C119 O120 1.252 . S
O120 Zn102 1.975 . S
O120 C119 1.252 . S
H121 C114 0.930 1_655 S
H122 C115 0.930 . S
C123 C124 1.392 1_554 S
C123 N127 1.328 1_554 S
C123 H129 0.930 . S
C124 C123 1.392 1_556 S
C124 N128 1.331 . S
C125 C126 1.391 . S
C125 N128 1.329 . S
C125 H135 0.930 . S
C126 C125 1.391 . S
C126 N127 1.334 . S
C126 H133 0.930 . S
N127 Zn111 2.119 1_556 S
N127 C123 1.328 1_556 S
N127 C126 1.334 . S
N128 C124 1.331 . S
N128 C125 1.329 . S
H129 C123 0.930 . S
C130 O110 1.257 . S
C130 O131 1.244 . S
O131 C130 1.244 . S
O132 C108 1.257 . S
O132 Zn111 2.019 . S
H133 C126 0.930 . S
H134 C113 0.930 . S
H135 C125 0.930 . S
Zn136 N140 2.020 . S
Zn136 O144 2.019 . S
Zn136 N146 2.119 . S
Zn136 O154 1.975 . S
C137 N138 1.334 1_556 S
C137 N141 1.336 1_556 S
N138 C137 1.334 1_554 S
N138 C139 1.334 . S
C139 N138 1.334 . S
C139 N140 1.336 . S
N140 Zn136 2.020 . S
N140 C139 1.336 . S
N140 N141 1.354 . S
N141 C137 1.336 1_554 S
N141 N140 1.354 . S
N141 Zn145 2.020 1_554 S
C142 O143 1.244 . S
C142 O166 1.257 . S
O143 C142 1.244 . S
O144 Zn136 2.019 . S
O144 C164 1.257 . S
Zn145 N141 2.020 1_556 S
Zn145 O152 1.975 . S
Zn145 N161 2.119 . S
Zn145 O166 2.019 . S
N146 Zn136 2.119 . S
N146 C148 1.334 . S
N146 C149 1.328 . S
C147 C148 1.391 1_556 S
C147 N150 1.329 1_556 S
C147 H168 0.930 . S
C148 N146 1.334 . S
C148 C147 1.391 1_554 S
C148 H155 0.930 1_554 S
C149 N146 1.328 . S
C149 C151 1.392 . S
C149 H156 0.930 . S
N150 C147 1.329 1_554 S
N150 C151 1.331 . S
C151 C149 1.392 . S
C151 N150 1.331 . S
O152 Zn145 1.975 . S
O152 C153 1.252 1_556 S
C153 O152 1.252 1_554 S
C153 O154 1.252 . S
O154 Zn136 1.975 . S
O154 C153 1.252 . S
H155 C148 0.930 1_556 S
H156 C149 0.930 . S
C157 C158 1.392 . S
C157 N161 1.328 . S
C157 H163 0.930 . S
C158 C157 1.392 . S
C158 N162 1.331 1_556 S
C159 C160 1.391 . S
C159 N162 1.329 . S
C159 H169 0.930 . S
C160 C159 1.391 . S
C160 N161 1.334 1_554 S
C160 H167 0.930 . S
N161 Zn145 2.119 . S
N161 C157 1.328 . S
N161 C160 1.334 1_556 S
N162 C158 1.331 1_554 S
N162 C159 1.329 . S
H163 C157 0.930 . S
C164 O144 1.257 . S
C164 O165 1.244 . S
O165 C164 1.244 . S
O166 C142 1.257 . S
O166 Zn145 2.019 . S
H167 C160 0.930 . S
H168 C147 0.930 . S
H169 C159 0.930 . S
Zn170 N174 2.020 . S
Zn170 O178 2.019 . S
Zn170 N180 2.119 . S
Zn170 O188 1.975 . S
C171 N172 1.334 1_554 S
C171 N175 1.336 1_554 S
N172 C171 1.334 1_556 S
N172 C173 1.334 . S
C173 N172 1.334 . S
C173 N174 1.336 . S
N174 Zn170 2.020 . S
N174 C173 1.336 . S
N174 N175 1.354 . S
N175 C171 1.336 1_556 S
N175 N174 1.354 . S
N175 Zn179 2.020 1_556 S
C176 O177 1.244 . S
C176 O200 1.257 . S
O177 C176 1.244 . S
O178 Zn170 2.019 . S
O178 C198 1.257 . S
Zn179 N175 2.020 1_554 S
Zn179 O186 1.975 . S
Zn179 N195 2.119 . S
Zn179 O200 2.019 . S
N180 Zn170 2.119 . S
N180 C182 1.334 . S
N180 C183 1.328 . S
C181 C182 1.391 1_554 S
C181 N184 1.329 1_554 S
C181 H202 0.930 . S
C182 N180 1.334 . S
C182 C181 1.391 1_556 S
C182 H189 0.930 1_556 S
C183 N180 1.328 . S
C183 C185 1.392 . S
C183 H190 0.930 . S
N184 C181 1.329 1_556 S
N184 C185 1.331 . S
C185 C183 1.392 . S
C185 N184 1.331 . S
O186 Zn179 1.975 . S
O186 C187 1.252 1_554 S
C187 O186 1.252 1_556 S
C187 O188 1.252 . S
O188 Zn170 1.975 . S
O188 C187 1.252 . S
H189 C182 0.930 1_554 S
H190 C183 0.930 . S
C191 C192 1.392 . S
C191 N195 1.328 . S
C191 H197 0.930 . S
C192 C191 1.392 . S
C192 N196 1.331 1_554 S
C193 C194 1.391 . S
C193 N196 1.329 . S
C193 H203 0.930 . S
C194 C193 1.391 . S
C194 N195 1.334 1_556 S
C194 H201 0.930 . S
N195 Zn179 2.119 . S
N195 C191 1.328 . S
N195 C194 1.334 1_554 S
N196 C192 1.331 1_556 S
N196 C193 1.329 . S
H197 C191 0.930 . S
C198 O178 1.257 . S
C198 O199 1.244 . S
O199 C198 1.244 . S
O200 C176 1.257 . S
O200 Zn179 2.019 . S
H201 C194 0.930 . S
H202 C181 0.930 . S
H203 C193 0.930 . S
Zn204 N208 2.020 . S
Zn204 O212 2.019 . S
Zn204 N214 2.119 . S
Zn204 O222 1.975 . S
C205 N206 1.334 1_556 S
C205 N209 1.336 1_556 S
N206 C205 1.334 1_554 S
N206 C207 1.334 . S
C207 N206 1.334 . S
C207 N208 1.336 . S
N208 Zn204 2.020 . S
N208 C207 1.336 . S
N208 N209 1.354 . S
N209 C205 1.336 1_554 S
N209 N208 1.354 . S
N209 Zn213 2.020 1_554 S
C210 O211 1.244 . S
C210 O234 1.257 . S
O211 C210 1.244 . S
O212 Zn204 2.019 . S
O212 C232 1.257 . S
Zn213 N209 2.020 1_556 S
Zn213 O220 1.975 . S
Zn213 N229 2.119 . S
Zn213 O234 2.019 . S
N214 Zn204 2.119 . S
N214 C216 1.334 . S
N214 C217 1.328 . S
C215 C216 1.391 1_556 S
C215 N218 1.329 1_556 S
C215 H236 0.930 . S
C216 N214 1.334 . S
C216 C215 1.391 1_554 S
C216 H223 0.930 1_554 S
C217 N214 1.328 . S
C217 C219 1.392 . S
C217 H224 0.930 . S
N218 C215 1.329 1_554 S
N218 C219 1.331 . S
C219 C217 1.392 . S
C219 N218 1.331 . S
O220 Zn213 1.975 . S
O220 C221 1.252 1_556 S
C221 O220 1.252 1_554 S
C221 O222 1.252 . S
O222 Zn204 1.975 . S
O222 C221 1.252 . S
H223 C216 0.930 1_556 S
H224 C217 0.930 . S
C225 C226 1.392 . S
C225 N229 1.328 . S
C225 H231 0.930 . S
C226 C225 1.392 . S
C226 N230 1.331 1_556 S
C227 C228 1.391 . S
C227 N230 1.329 . S
C227 H237 0.930 . S
C228 C227 1.391 . S
C228 N229 1.334 1_554 S
C228 H235 0.930 . S
N229 Zn213 2.119 . S
N229 C225 1.328 . S
N229 C228 1.334 1_556 S
N230 C226 1.331 1_554 S
N230 C227 1.329 . S
H231 C225 0.930 . S
C232 O212 1.257 . S
C232 O233 1.244 . S
O233 C232 1.244 . S
O234 C210 1.257 . S
O234 Zn213 2.019 . S
H235 C228 0.930 . S
H236 C215 0.930 . S
H237 C227 0.930 . S
Zn238 N242 2.020 . S
Zn238 O246 2.019 . S
Zn238 N248 2.119 . S
Zn238 O256 1.975 . S
C239 N240 1.334 1_554 S
C239 N243 1.336 1_554 S
N240 C239 1.334 1_556 S
N240 C241 1.334 . S
C241 N240 1.334 . S
C241 N242 1.336 . S
N242 Zn238 2.020 . S
N242 C241 1.336 . S
N242 N243 1.354 . S
N243 C239 1.336 1_556 S
N243 N242 1.354 . S
N243 Zn247 2.020 1_556 S
C244 O245 1.244 . S
C244 O268 1.257 . S
O245 C244 1.244 . S
O246 Zn238 2.019 . S
O246 C266 1.257 . S
Zn247 N243 2.020 1_554 S
Zn247 O254 1.975 . S
Zn247 N263 2.119 . S
Zn247 O268 2.019 . S
N248 Zn238 2.119 . S
N248 C250 1.334 . S
N248 C251 1.328 . S
C249 C250 1.391 1_554 S
C249 N252 1.329 1_554 S
C249 H270 0.930 . S
C250 N248 1.334 . S
C250 C249 1.391 1_556 S
C250 H257 0.930 1_556 S
C251 N248 1.328 . S
C251 C253 1.392 . S
C251 H258 0.930 . S
N252 C249 1.329 1_556 S
N252 C253 1.331 . S
C253 C251 1.392 . S
C253 N252 1.331 . S
O254 Zn247 1.975 . S
O254 C255 1.252 1_554 S
C255 O254 1.252 1_556 S
C255 O256 1.252 . S
O256 Zn238 1.975 . S
O256 C255 1.252 . S
H257 C250 0.930 1_554 S
H258 C251 0.930 . S
C259 C260 1.392 . S
C259 N263 1.328 . S
C259 H265 0.930 . S
C260 C259 1.392 . S
C260 N264 1.331 1_554 S
C261 C262 1.391 . S
C261 N264 1.329 . S
C261 H271 0.930 . S
C262 C261 1.391 . S
C262 N263 1.334 1_556 S
C262 H269 0.930 . S
N263 Zn247 2.119 . S
N263 C259 1.328 . S
N263 C262 1.334 1_554 S
N264 C260 1.331 1_556 S
N264 C261 1.329 . S
H265 C259 0.930 . S
C266 O246 1.257 . S
C266 O267 1.244 . S
O267 C266 1.244 . S
O268 C244 1.257 . S
O268 Zn247 2.019 . S
H269 C262 0.930 . S
H270 C249 0.930 . S
H271 C261 0.930 . S
Zn272 N276 2.020 . S
Zn272 O280 2.019 . S
Zn272 N282 2.119 . S
Zn272 O290 1.975 . S
C273 N274 1.334 . S
C273 N277 1.336 . S
N274 C273 1.334 . S
N274 C275 1.334 . S
C275 N274 1.334 . S
C275 N276 1.336 . S
N276 Zn272 2.020 . S
N276 C275 1.336 . S
N276 N277 1.354 . S
N277 C273 1.336 . S
N277 N276 1.354 . S
N277 Zn281 2.020 . S
C278 O279 1.244 . S
C278 O302 1.257 . S
O279 C278 1.244 . S
O280 Zn272 2.019 . S
O280 C300 1.257 . S
Zn281 N277 2.020 . S
Zn281 O288 1.975 . S
Zn281 N297 2.119 . S
Zn281 O302 2.019 1_556 S
N282 Zn272 2.119 . S
N282 C284 1.334 . S
N282 C285 1.328 . S
C283 C284 1.391 . S
C283 N286 1.329 . S
C283 H304 0.930 . S
C284 N282 1.334 . S
C284 C283 1.391 . S
C284 H291 0.930 . S
C285 N282 1.328 . S
C285 C287 1.392 . S
C285 H292 0.930 . S
N286 C283 1.329 . S
N286 C287 1.331 . S
C287 C285 1.392 . S
C287 N286 1.331 . S
O288 Zn281 1.975 . S
O288 C289 1.252 . S
C289 O288 1.252 . S
C289 O290 1.252 . S
O290 Zn272 1.975 . S
O290 C289 1.252 . S
H291 C284 0.930 . S
H292 C285 0.930 . S
C293 C294 1.392 . S
C293 N297 1.328 . S
C293 H299 0.930 . S
C294 C293 1.392 . S
C294 N298 1.331 . S
C295 C296 1.391 . S
C295 N298 1.329 . S
C295 H305 0.930 . S
C296 C295 1.391 . S
C296 N297 1.334 . S
C296 H303 0.930 . S
N297 Zn281 2.119 . S
N297 C293 1.328 . S
N297 C296 1.334 . S
N298 C294 1.331 . S
N298 C295 1.329 . S
H299 C293 0.930 . S
C300 O280 1.257 . S
C300 O301 1.244 . S
O301 C300 1.244 . S
O302 C278 1.257 . S
O302 Zn281 2.019 1_554 S
H303 C296 0.930 . S
H304 C283 0.930 . S
H305 C295 0.930 . S
Zn306 N310 2.020 . S
Zn306 O314 2.019 1_554 S
Zn306 N316 2.119 . S
Zn306 O324 1.975 . S
C307 N308 1.334 . S
C307 N311 1.336 . S
N308 C307 1.334 . S
N308 C309 1.334 . S
C309 N308 1.334 . S
C309 N310 1.336 . S
N310 Zn306 2.020 . S
N310 C309 1.336 . S
N310 N311 1.354 . S
N311 C307 1.336 . S
N311 N310 1.354 . S
N311 Zn315 2.020 . S
C312 O313 1.244 . S
C312 O336 1.257 . S
O313 C312 1.244 . S
O314 Zn306 2.019 1_556 S
O314 C334 1.257 . S
Zn315 N311 2.020 . S
Zn315 O322 1.975 . S
Zn315 N331 2.119 . S
Zn315 O336 2.019 . S
N316 Zn306 2.119 . S
N316 C318 1.334 . S
N316 C319 1.328 . S
C317 C318 1.391 . S
C317 N320 1.329 . S
C317 H338 0.930 . S
C318 N316 1.334 . S
C318 C317 1.391 . S
C318 H325 0.930 . S
C319 N316 1.328 . S
C319 C321 1.392 . S
C319 H326 0.930 . S
N320 C317 1.329 . S
N320 C321 1.331 . S
C321 C319 1.392 . S
C321 N320 1.331 . S
O322 Zn315 1.975 . S
O322 C323 1.252 . S
C323 O322 1.252 . S
C323 O324 1.252 . S
O324 Zn306 1.975 . S
O324 C323 1.252 . S
H325 C318 0.930 . S
H326 C319 0.930 . S
C327 C328 1.392 . S
C327 N331 1.328 . S
C327 H333 0.930 . S
C328 C327 1.392 . S
C328 N332 1.331 . S
C329 C330 1.391 . S
C329 N332 1.329 . S
C329 H339 0.930 . S
C330 C329 1.391 . S
C330 N331 1.334 . S
C330 H337 0.930 . S
N331 Zn315 2.119 . S
N331 C327 1.328 . S
N331 C330 1.334 . S
N332 C328 1.331 . S
N332 C329 1.329 . S
H333 C327 0.930 . S
C334 O314 1.257 . S
C334 O335 1.244 . S
O335 C334 1.244 . S
O336 C312 1.257 . S
O336 Zn315 2.019 . S
H337 C330 0.930 . S
H338 C317 0.930 . S
H339 C329 0.930 . S
Zn340 N344 2.020 . S
Zn340 O348 2.019 . S
Zn340 N350 2.119 . S
Zn340 O358 1.975 . S
C341 N342 1.334 . S
C341 N345 1.336 . S
N342 C341 1.334 . S
N342 C343 1.334 . S
C343 N342 1.334 . S
C343 N344 1.336 . S
N344 Zn340 2.020 . S
N344 C343 1.336 . S
N344 N345 1.354 . S
N345 C341 1.336 . S
N345 N344 1.354 . S
N345 Zn349 2.020 . S
C346 O347 1.244 . S
C346 O370 1.257 . S
O347 C346 1.244 . S
O348 Zn340 2.019 . S
O348 C368 1.257 . S
Zn349 N345 2.020 . S
Zn349 O356 1.975 . S
Zn349 N365 2.119 . S
Zn349 O370 2.019 1_556 S
N350 Zn340 2.119 . S
N350 C352 1.334 . S
N350 C353 1.328 . S
C351 C352 1.391 . S
C351 N354 1.329 . S
C351 H372 0.930 . S
C352 N350 1.334 . S
C352 C351 1.391 . S
C352 H359 0.930 . S
C353 N350 1.328 . S
C353 C355 1.392 . S
C353 H360 0.930 . S
N354 C351 1.329 . S
N354 C355 1.331 . S
C355 C353 1.392 . S
C355 N354 1.331 . S
O356 Zn349 1.975 . S
O356 C357 1.252 . S
C357 O356 1.252 . S
C357 O358 1.252 . S
O358 Zn340 1.975 . S
O358 C357 1.252 . S
H359 C352 0.930 . S
H360 C353 0.930 . S
C361 C362 1.392 . S
C361 N365 1.328 . S
C361 H367 0.930 . S
C362 C361 1.392 . S
C362 N366 1.331 . S
C363 C364 1.391 . S
C363 N366 1.329 . S
C363 H373 0.930 . S
C364 C363 1.391 . S
C364 N365 1.334 . S
C364 H371 0.930 . S
N365 Zn349 2.119 . S
N365 C361 1.328 . S
N365 C364 1.334 . S
N366 C362 1.331 . S
N366 C363 1.329 . S
H367 C361 0.930 . S
C368 O348 1.257 . S
C368 O369 1.244 . S
O369 C368 1.244 . S
O370 C346 1.257 . S
O370 Zn349 2.019 1_554 S
H371 C364 0.930 . S
H372 C351 0.930 . S
H373 C363 0.930 . S
Zn374 N378 2.020 . S
Zn374 O382 2.019 1_554 S
Zn374 N384 2.119 . S
Zn374 O392 1.975 . S
C375 N376 1.334 . S
C375 N379 1.336 . S
N376 C375 1.334 . S
N376 C377 1.334 . S
C377 N376 1.334 . S
C377 N378 1.336 . S
N378 Zn374 2.020 . S
N378 C377 1.336 . S
N378 N379 1.354 . S
N379 C375 1.336 . S
N379 N378 1.354 . S
N379 Zn383 2.020 . S
C380 O381 1.244 . S
C380 O404 1.257 . S
O381 C380 1.244 . S
O382 Zn374 2.019 1_556 S
O382 C402 1.257 . S
Zn383 N379 2.020 . S
Zn383 O390 1.975 . S
Zn383 N399 2.119 . S
Zn383 O404 2.019 . S
N384 Zn374 2.119 . S
N384 C386 1.334 . S
N384 C387 1.328 . S
C385 C386 1.391 . S
C385 N388 1.329 . S
C385 H406 0.930 . S
C386 N384 1.334 . S
C386 C385 1.391 . S
C386 H393 0.930 . S
C387 N384 1.328 . S
C387 C389 1.392 . S
C387 H394 0.930 . S
N388 C385 1.329 . S
N388 C389 1.331 . S
C389 C387 1.392 . S
C389 N388 1.331 . S
O390 Zn383 1.975 . S
O390 C391 1.252 . S
C391 O390 1.252 . S
C391 O392 1.252 . S
O392 Zn374 1.975 . S
O392 C391 1.252 . S
H393 C386 0.930 . S
H394 C387 0.930 . S
C395 C396 1.392 . S
C395 N399 1.328 . S
C395 H401 0.930 . S
C396 C395 1.392 . S
C396 N400 1.331 . S
C397 C398 1.391 . S
C397 N400 1.329 . S
C397 H407 0.930 . S
C398 C397 1.391 . S
C398 N399 1.334 . S
C398 H405 0.930 . S
N399 Zn383 2.119 . S
N399 C395 1.328 . S
N399 C398 1.334 . S
N400 C396 1.331 . S
N400 C397 1.329 . S
H401 C395 0.930 . S
C402 O382 1.257 . S
C402 O403 1.244 . S
O403 C402 1.244 . S
O404 C380 1.257 . S
O404 Zn383 2.019 . S
H405 C398 0.930 . S
H406 C385 0.930 . S
H407 C397 0.930 . S
Zn408 N412 2.020 . S
Zn408 O416 2.019 . S
Zn408 N418 2.119 . S
Zn408 O426 1.975 . S
C409 N410 1.334 . S
C409 N413 1.336 . S
N410 C409 1.334 . S
N410 C411 1.334 . S
C411 N410 1.334 . S
C411 N412 1.336 . S
N412 Zn408 2.020 . S
N412 C411 1.336 . S
N412 N413 1.354 . S
N413 C409 1.336 . S
N413 N412 1.354 . S
N413 Zn417 2.020 . S
C414 O415 1.244 1_554 S
C414 O438 1.257 1_554 S
O415 C414 1.244 1_556 S
O416 Zn408 2.019 . S
O416 C436 1.257 . S
Zn417 N413 2.020 . S
Zn417 O424 1.975 . S
Zn417 N433 2.119 . S
Zn417 O438 2.019 . S
N418 Zn408 2.119 . S
N418 C420 1.334 1_565 S
N418 C421 1.328 1_565 S
C419 C420 1.391 . S
C419 N422 1.329 . S
C419 H440 0.930 . S
C420 N418 1.334 1_545 S
C420 C419 1.391 . S
C420 H427 0.930 1_545 S
C421 N418 1.328 1_545 S
C421 C423 1.392 . S
C421 H428 0.930 . S
N422 C419 1.329 . S
N422 C423 1.331 . S
C423 C421 1.392 . S
C423 N422 1.331 . S
O424 Zn417 1.975 . S
O424 C425 1.252 . S
C425 O424 1.252 . S
C425 O426 1.252 . S
O426 Zn408 1.975 . S
O426 C425 1.252 . S
H427 C420 0.930 1_565 S
H428 C421 0.930 . S
C429 C430 1.392 . S
C429 N433 1.328 . S
C429 H435 0.930 . S
C430 C429 1.392 . S
C430 N434 1.331 . S
C431 C432 1.391 . S
C431 N434 1.329 . S
C431 H441 0.930 . S
C432 C431 1.391 . S
C432 N433 1.334 . S
C432 H439 0.930 . S
N433 Zn417 2.119 . S
N433 C429 1.328 . S
N433 C432 1.334 . S
N434 C430 1.331 . S
N434 C431 1.329 . S
H435 C429 0.930 . S
C436 O416 1.257 . S
C436 O437 1.244 . S
O437 C436 1.244 . S
O438 C414 1.257 1_556 S
O438 Zn417 2.019 . S
H439 C432 0.930 . S
H440 C419 0.930 . S
H441 C431 0.930 . S
Zn442 N446 2.020 . S
Zn442 O450 2.019 . S
Zn442 N452 2.119 . S
Zn442 O460 1.975 . S
C443 N444 1.334 . S
C443 N447 1.336 . S
N444 C443 1.334 . S
N444 C445 1.334 . S
C445 N444 1.334 . S
C445 N446 1.336 . S
N446 Zn442 2.020 . S
N446 C445 1.336 . S
N446 N447 1.354 . S
N447 C443 1.336 . S
N447 N446 1.354 . S
N447 Zn451 2.020 . S
C448 O449 1.244 . S
C448 O472 1.257 . S
O449 C448 1.244 . S
O450 Zn442 2.019 . S
O450 C470 1.257 1_554 S
Zn451 N447 2.020 . S
Zn451 O458 1.975 . S
Zn451 N467 2.119 . S
Zn451 O472 2.019 . S
N452 Zn442 2.119 . S
N452 C454 1.334 . S
N452 C455 1.328 . S
C453 C454 1.391 . S
C453 N456 1.329 . S
C453 H474 0.930 . S
C454 N452 1.334 . S
C454 C453 1.391 . S
C454 H461 0.930 . S
C455 N452 1.328 . S
C455 C457 1.392 . S
C455 H462 0.930 . S
N456 C453 1.329 . S
N456 C457 1.331 . S
C457 C455 1.392 . S
C457 N456 1.331 . S
O458 Zn451 1.975 . S
O458 C459 1.252 . S
C459 O458 1.252 . S
C459 O460 1.252 . S
O460 Zn442 1.975 . S
O460 C459 1.252 . S
H461 C454 0.930 . S
H462 C455 0.930 . S
C463 C464 1.392 . S
C463 N467 1.328 1_455 S
C463 H469 0.930 . S
C464 C463 1.392 . S
C464 N468 1.331 . S
C465 C466 1.391 . S
C465 N468 1.329 . S
C465 H475 0.930 . S
C466 C465 1.391 . S
C466 N467 1.334 1_455 S
C466 H473 0.930 1_455 S
N467 Zn451 2.119 . S
N467 C463 1.328 1_655 S
N467 C466 1.334 1_655 S
N468 C464 1.331 . S
N468 C465 1.329 . S
H469 C463 0.930 . S
C470 O450 1.257 1_556 S
C470 O471 1.244 1_556 S
O471 C470 1.244 1_554 S
O472 C448 1.257 . S
O472 Zn451 2.019 . S
H473 C466 0.930 1_655 S
H474 C453 0.930 . S
H475 C465 0.930 . S
Zn476 N480 2.020 . S
Zn476 O484 2.019 . S
Zn476 N486 2.119 . S
Zn476 O494 1.975 . S
C477 N478 1.334 . S
C477 N481 1.336 . S
N478 C477 1.334 . S
N478 C479 1.334 . S
C479 N478 1.334 . S
C479 N480 1.336 . S
N480 Zn476 2.020 . S
N480 C479 1.336 . S
N480 N481 1.354 . S
N481 C477 1.336 . S
N481 N480 1.354 . S
N481 Zn485 2.020 . S
C482 O483 1.244 1_554 S
C482 O506 1.257 1_554 S
O483 C482 1.244 1_556 S
O484 Zn476 2.019 . S
O484 C504 1.257 . S
Zn485 N481 2.020 . S
Zn485 O492 1.975 . S
Zn485 N501 2.119 . S
Zn485 O506 2.019 . S
N486 Zn476 2.119 . S
N486 C488 1.334 1_545 S
N486 C489 1.328 1_545 S
C487 C488 1.391 . S
C487 N490 1.329 . S
C487 H508 0.930 . S
C488 N486 1.334 1_565 S
C488 C487 1.391 . S
C488 H495 0.930 1_565 S
C489 N486 1.328 1_565 S
C489 C491 1.392 . S
C489 H496 0.930 . S
N490 C487 1.329 . S
N490 C491 1.331 . S
C491 C489 1.392 . S
C491 N490 1.331 . S
O492 Zn485 1.975 . S
O492 C493 1.252 . S
C493 O492 1.252 . S
C493 O494 1.252 . S
O494 Zn476 1.975 . S
O494 C493 1.252 . S
H495 C488 0.930 1_545 S
H496 C489 0.930 . S
C497 C498 1.392 . S
C497 N501 1.328 . S
C497 H503 0.930 . S
C498 C497 1.392 . S
C498 N502 1.331 . S
C499 C500 1.391 . S
C499 N502 1.329 . S
C499 H509 0.930 . S
C500 C499 1.391 . S
C500 N501 1.334 . S
C500 H507 0.930 . S
N501 Zn485 2.119 . S
N501 C497 1.328 . S
N501 C500 1.334 . S
N502 C498 1.331 . S
N502 C499 1.329 . S
H503 C497 0.930 . S
C504 O484 1.257 . S
C504 O505 1.244 . S
O505 C504 1.244 . S
O506 C482 1.257 1_556 S
O506 Zn485 2.019 . S
H507 C500 0.930 . S
H508 C487 0.930 . S
H509 C499 0.930 . S
Zn510 N514 2.020 . S
Zn510 O518 2.019 . S
Zn510 N520 2.119 . S
Zn510 O528 1.975 . S
C511 N512 1.334 . S
C511 N515 1.336 . S
N512 C511 1.334 . S
N512 C513 1.334 . S
C513 N512 1.334 . S
C513 N514 1.336 . S
N514 Zn510 2.020 . S
N514 C513 1.336 . S
N514 N515 1.354 . S
N515 C511 1.336 . S
N515 N514 1.354 . S
N515 Zn519 2.020 . S
C516 O517 1.244 . S
C516 O540 1.257 . S
O517 C516 1.244 . S
O518 Zn510 2.019 . S
O518 C538 1.257 1_554 S
Zn519 N515 2.020 . S
Zn519 O526 1.975 . S
Zn519 N535 2.119 . S
Zn519 O540 2.019 . S
N520 Zn510 2.119 . S
N520 C522 1.334 . S
N520 C523 1.328 . S
C521 C522 1.391 . S
C521 N524 1.329 . S
C521 H542 0.930 . S
C522 N520 1.334 . S
C522 C521 1.391 . S
C522 H529 0.930 . S
C523 N520 1.328 . S
C523 C525 1.392 . S
C523 H530 0.930 . S
N524 C521 1.329 . S
N524 C525 1.331 . S
C525 C523 1.392 . S
C525 N524 1.331 . S
O526 Zn519 1.975 . S
O526 C527 1.252 . S
C527 O526 1.252 . S
C527 O528 1.252 . S
O528 Zn510 1.975 . S
O528 C527 1.252 . S
H529 C522 0.930 . S
H530 C523 0.930 . S
C531 C532 1.392 . S
C531 N535 1.328 1_655 S
C531 H537 0.930 . S
C532 C531 1.392 . S
C532 N536 1.331 . S
C533 C534 1.391 . S
C533 N536 1.329 . S
C533 H543 0.930 . S
C534 C533 1.391 . S
C534 N535 1.334 1_655 S
C534 H541 0.930 1_655 S
N535 Zn519 2.119 . S
N535 C531 1.328 1_455 S
N535 C534 1.334 1_455 S
N536 C532 1.331 . S
N536 C533 1.329 . S
H537 C531 0.930 . S
C538 O518 1.257 1_556 S
C538 O539 1.244 1_556 S
O539 C538 1.244 1_554 S
O540 C516 1.257 . S
O540 Zn519 2.019 . S
H541 C534 0.930 1_455 S
H542 C521 0.930 . S
H543 C533 0.930 . S
C28 C6 1.515 . S
C62 C40 1.515 . S
C96 C74 1.515 . S
C130 C108 1.515 . S
C142 C164 1.514 . S
C176 C198 1.514 . S
C210 C232 1.514 . S
C266 C244 1.514 . S
C278 C300 1.515 . S
C334 C312 1.515 . S
C368 C346 1.515 . S
C380 C402 1.515 . S
C436 C414 1.515 . S
C448 C470 1.515 . S
C482 C504 1.515 . S
C516 C538 1.515 . S
C391 C22 1.922 . S
C289 C49 1.922 . S
C323 C90 1.922 . S
C357 C117 1.921 . S
C158 C187 1.922 . S
C192 C221 1.922 . S
C226 C255 1.922 . S
C260 C153 1.922 . S
C294 C119 1.922 . S
C17 C321 1.922 . S
C362 C51 1.922 . S
C389 C85 1.921 . S
C423 C459 1.922 . S
C493 C464 1.922 . S
C491 C527 1.922 . S
C532 C425 1.922 . S
C15 C151 2.342 . S
C185 C56 2.342 . S
C219 C83 2.342 . S
C253 C124 2.342 . S
C430 C287 2.343 . S
C328 C457 2.343 . S
C355 C498 2.343 . S
C396 C525 2.343 . S
C1 C479 2.307 . S
C37 C511 2.307 . S
C411 C69 2.307 . S
C105 C443 2.307 . S
C137 C341 2.307 . S
C377 C171 2.307 . S
C205 C273 2.307 . S
C239 C309 2.307 . S
C3 C477 3.668 1_554 S
C35 C513 3.668 1_556 S
C409 C71 3.668 1_556 S
C103 C445 3.668 1_556 S
C139 C343 3.668 . S
C173 C375 3.668 . S
C207 C275 3.668 . S
C241 C307 3.668 . S
