# Generated by pormake.
# Topology xft, (5)-cn, num edge types: 1
# Building blocks:
#     Node 0, Type 0, BuildingBlock: BEQFEK_clean_sbu_0, # of connection points: 5
#     Node 1, Type 0, BuildingBlock: BEQFEK_clean_sbu_0, # of connection points: 5
#     Node 2, Type 0, BuildingBlock: BEQFEK_clean_sbu_0, # of connection points: 5
#     Node 3, Type 0, BuildingBlock: BEQFEK_clean_sbu_0, # of connection points: 5
#     Node 4, Type 0, BuildingBlock: BEQFEK_clean_sbu_0, # of connection points: 5
#     Node 5, Type 0, BuildingBlock: BEQFEK_clean_sbu_0, # of connection points: 5
#     Node 6, Type 0, BuildingBlock: BEQFEK_clean_sbu_0, # of connection points: 5
#     Node 7, Type 0, BuildingBlock: BEQFEK_clean_sbu_0, # of connection points: 5
#     Edge 8, Type (0, 0), BuildingBlock: CIFDUS_clean_linker_0, # of connection points: 2
#     Edge 9, Type (0, 0), BuildingBlock: CIFDUS_clean_linker_0, # of connection points: 2
#     Edge 10, Type (0, 0), BuildingBlock: CIFDUS_clean_linker_0, # of connection points: 2
#     Edge 11, Type (0, 0), BuildingBlock: CIFDUS_clean_linker_0, # of connection points: 2
#     Edge 12, Type (0, 0), BuildingBlock: CIFDUS_clean_linker_0, # of connection points: 2
#     Edge 13, Type (0, 0), BuildingBlock: CIFDUS_clean_linker_0, # of connection points: 2
#     Edge 14, Type (0, 0), BuildingBlock: CIFDUS_clean_linker_0, # of connection points: 2
#     Edge 15, Type (0, 0), BuildingBlock: CIFDUS_clean_linker_0, # of connection points: 2
#     Edge 16, Type (0, 0), BuildingBlock: CIFDUS_clean_linker_0, # of connection points: 2
#     Edge 17, Type (0, 0), BuildingBlock: CIFDUS_clean_linker_0, # of connection points: 2
#     Edge 18, Type (0, 0), BuildingBlock: CIFDUS_clean_linker_0, # of connection points: 2
#     Edge 19, Type (0, 0), BuildingBlock: CIFDUS_clean_linker_0, # of connection points: 2
#     Edge 20, Type (0, 0), BuildingBlock: CIFDUS_clean_linker_0, # of connection points: 2
#     Edge 21, Type (0, 0), BuildingBlock: CIFDUS_clean_linker_0, # of connection points: 2
#     Edge 22, Type (0, 0), BuildingBlock: CIFDUS_clean_linker_0, # of connection points: 2
#     Edge 23, Type (0, 0), BuildingBlock: CIFDUS_clean_linker_0, # of connection points: 2
#     Edge 24, Type (0, 0), BuildingBlock: CIFDUS_clean_linker_0, # of connection points: 2
#     Edge 25, Type (0, 0), BuildingBlock: CIFDUS_clean_linker_0, # of connection points: 2
#     Edge 26, Type (0, 0), BuildingBlock: CIFDUS_clean_linker_0, # of connection points: 2
#     Edge 27, Type (0, 0), BuildingBlock: CIFDUS_clean_linker_0, # of connection points: 2
# Relax obj value: 0.421
# Max RMSD: 0.298
# Mean RMSD: 0.298
data_MOF--net-xft--node1-BEQFEK_clean_sbu_0--edge1-CIFDUS_clean_linker_0
_symmetry_space_group_name_H-M    P1
_symmetry_Int_Tables_number       1
_symmetry_cell_setting            triclinic
loop_
_symmetry_equiv_pos_as_xyz
'x, y, z'
_cell_length_a     33.961888
_cell_length_b     33.67794
_cell_length_c     32.594536
_cell_angle_alpha  89.953942
_cell_angle_beta   90.03067
_cell_angle_gamma 90.373383
loop_
_atom_site_label
_atom_site_type_symbol
_atom_site_fract_x
_atom_site_fract_y
_atom_site_fract_z
_atom_type_partial_charge
Co0 Co 0.32787 0.98437 0.70027 0.0
Co1 Co 0.33374 0.96764 0.79507 0.0
C2 C 0.32728 0.90322 0.72881 0.0
O3 O 0.32057 0.92582 0.6983 0.0
O4 O 0.33343 0.91752 0.76427 0.0
C5 C 0.35087 0.99569 0.61834 0.0
O6 O 0.37271 0.96486 0.62756 0.0
C7 C 0.29756 0.92505 0.86233 0.0
C8 C 0.31148 0.96159 0.9166 0.0
C9 C 0.28881 0.92959 0.90355 0.0
N10 N 0.32282 0.95389 0.85101 0.0
N11 N 0.33205 0.97495 0.88389 0.0
C12 C 0.28278 0.89322 0.83401 0.0
H13 H 0.30828 0.87708 0.82145 0.0
H14 H 0.26633 0.90682 0.8082 0.0
H15 H 0.26423 0.87079 0.84981 0.0
C16 C 0.26655 0.03973 0.72871 0.0
N17 N 0.29224 0.01011 0.73555 0.0
N18 N 0.29488 0.00353 0.77526 0.0
C19 C 0.27051 0.02853 0.79494 0.0
C20 C 0.25221 0.05265 0.76623 0.0
C21 C 0.25982 0.05814 0.68753 0.0
H22 H 0.28761 0.07222 0.67685 0.0
H23 H 0.25177 0.03465 0.66513 0.0
H24 H 0.23643 0.08094 0.68844 0.0
O25 O 0.382 0.99503 0.71992 0.0
O26 O 0.38709 0.9901 0.78773 0.0
H27 H 0.29256 0.04006 0.85518 0.0
H28 H 0.24046 0.04925 0.84958 0.0
C29 C 0.26497 0.02955 0.84047 0.0
H30 H 0.25817 -0.00076 0.85169 0.0
H31 H 0.35036 -3e-05 0.88349 0.0
O32 O 0.32626 0.008 0.64469 0.0
C33 C 0.40223 0.99763 0.75277 0.0
Co34 Co -0.00115 0.86987 -0.00479 0.0
Co35 Co 0.04682 0.87393 0.07696 0.0
C36 C 0.08246 0.8597 0.99156 0.0
O37 O 0.05008 0.85577 0.97239 0.0
O38 O 0.08304 0.86742 0.02972 0.0
C39 C 0.96417 0.86185 0.91435 0.0
O40 O -0.00036 0.85175 0.90237 0.0
C41 C 0.09549 0.8214 0.12281 0.0
C42 C 0.10896 0.85256 0.18062 0.0
C43 C 0.11531 0.81706 0.15986 0.0
N44 N 0.07853 0.85731 0.12191 0.0
N45 N 0.08705 0.87617 0.15629 0.0
C46 C 0.08945 0.79094 0.08982 0.0
H47 H 0.06555 0.7996 0.06865 0.0
H48 H 0.08225 0.76157 0.10342 0.0
H49 H 0.11678 0.78839 0.07142 0.0
C50 C 0.9566 0.8071 0.04115 0.0
N51 N 0.98386 0.83615 0.03831 0.0
N52 N 0.00163 0.8404 0.07381 0.0
C53 C 0.98532 0.81505 0.101 0.0
C54 C 0.9565 0.7926 0.08114 0.0
C55 C 0.93378 0.79157 0.00522 0.0
H56 H 0.95108 0.79537 0.97663 0.0
H57 H 0.92625 0.7597 0.00925 0.0
H58 H 0.90612 0.80869 0.00215 0.0
O59 O 0.00441 0.92564 0.01461 0.0
O60 O 0.03212 0.93093 0.0764 0.0
H61 H 0.97059 0.80388 0.16433 0.0
H62 H 0.0203 0.792 0.15005 0.0
C63 C -0.00386 0.81355 0.14551 0.0
H64 H 0.00643 0.84317 0.15602 0.0
H65 H 0.07718 0.9046 0.16355 0.0
O66 O 0.95807 0.8698 0.95192 0.0
C67 C 0.01631 0.94665 0.04482 0.0
Co68 Co 0.15621 0.50915 0.215 0.0
Co69 Co 0.16927 0.55178 0.30001 0.0
C70 C 0.17084 0.59592 0.2192 0.0
O71 O 0.16633 0.5653 0.1966 0.0
O72 O 0.17207 0.59292 0.25798 0.0
C73 C 0.15083 0.48052 0.12909 0.0
O74 O 0.14934 0.51772 0.11705 0.0
C75 C 0.21913 0.5987 0.35397 0.0
C76 C 0.19656 0.58366 0.41559 0.0
C77 C 0.2265 0.604 0.39547 0.0
N78 N 0.1872 0.57525 0.34985 0.0
N79 N 0.17326 0.56709 0.38675 0.0
C80 C 0.24182 0.61537 0.31841 0.0
H81 H 0.25495 0.59072 0.30057 0.0
H82 H 0.26504 0.63657 0.32827 0.0
H83 H 0.22152 0.6316 0.29789 0.0
C84 C 0.21736 0.45648 0.24988 0.0
N85 N 0.19553 0.48979 0.25116 0.0
N86 N 0.20076 0.50727 0.28683 0.0
C87 C 0.22629 0.48578 0.3093 0.0
C88 C 0.2374 0.45272 0.28679 0.0
C89 C 0.21484 0.42644 0.2162 0.0
H90 H 0.18407 0.41543 0.21397 0.0
H91 H 0.22265 0.44076 0.1866 0.0
H92 H 0.23448 0.4008 0.22161 0.0
O93 O 0.10413 0.50708 0.24354 0.0
O94 O 0.11324 0.5364 0.3042 0.0
H95 H 0.26134 0.47536 0.36408 0.0
H96 H 0.25331 0.5263 0.35122 0.0
C97 C 0.23943 0.49649 0.35176 0.0
H98 H 0.21354 0.49737 0.37243 0.0
H99 H 0.14899 0.54868 0.39229 0.0
O100 O 0.15319 0.47255 0.16716 0.0
C101 C 0.09116 0.51875 0.27825 0.0
Co102 Co 0.51925 0.62184 0.51423 0.0
Co103 Co 0.45804 0.63053 0.58532 0.0
C104 C 0.43613 0.63708 0.49537 0.0
O105 O 0.47089 0.63235 0.48182 0.0
O106 O 0.42908 0.63666 0.53358 0.0
C107 C 0.56578 0.63531 0.44133 0.0
O108 O 0.53459 0.65364 0.42713 0.0
C109 C 0.40115 0.68179 0.62105 0.0
C110 C 0.38511 0.65399 0.68007 0.0
C111 C 0.3774 0.68646 0.65509 0.0
N112 N 0.42145 0.64802 0.62517 0.0
N113 N 0.41145 0.63108 0.66027 0.0
C114 C 0.40807 0.71124 0.58725 0.0
H115 H 0.43594 0.705 0.57088 0.0
H116 H 0.40922 0.74188 0.59974 0.0
H117 H 0.38339 0.70955 0.56503 0.0
C118 C 0.55822 0.68654 0.56023 0.0
N119 N 0.52862 0.66025 0.55519 0.0
N120 N 0.50436 0.66264 0.58651 0.0
C121 C 0.51815 0.69031 0.61291 0.0
C122 C 0.5526 0.70652 0.5969 0.0
C123 C 0.5919 0.6914 0.53101 0.0
H124 H 0.6069 0.66248 0.52724 0.0
H125 H 0.58045 0.70058 0.50059 0.0
H126 H 0.61372 0.71362 0.54196 0.0
O127 O 0.51373 0.56859 0.53963 0.0
O128 O 0.47003 0.57324 0.59044 0.0
H129 H 0.51815 0.71714 0.67327 0.0
H130 H 0.47396 0.72358 0.64395 0.0
C131 C 0.49768 0.70236 0.65156 0.0
H132 H 0.48427 0.67599 0.66655 0.0
H133 H 0.42325 0.60451 0.6711 0.0
O134 O 0.56487 0.61991 0.47692 0.0
C135 C 0.49377 0.55303 0.56867 0.0
Co136 Co 0.69584 0.96179 0.70458 0.0
Co137 Co 0.71409 0.03791 0.75744 0.0
C138 C 0.71015 0.03871 0.66414 0.0
O139 O 0.70557 0.00131 0.66106 0.0
O140 O 0.71337 0.05544 0.69909 0.0
C141 C 0.66093 0.91054 0.64887 0.0
O142 O 0.6496 0.94521 0.63482 0.0
C143 C 0.75657 0.11053 0.78216 0.0
C144 C 0.74254 0.11356 0.84821 0.0
C145 C 0.76417 0.13214 0.81758 0.0
N146 N 0.73232 0.08019 0.79167 0.0
N147 N 0.72349 0.08261 0.83105 0.0
C148 C 0.76882 0.12025 0.73928 0.0
H149 H 0.74191 0.1231 0.72048 0.0
H150 H 0.78662 0.09562 0.72661 0.0
H151 H 0.78518 0.14874 0.73716 0.0
C152 C 0.76072 0.92993 0.75529 0.0
N153 N 0.73746 0.95987 0.74284 0.0
N154 N 0.74534 0.99179 0.76475 0.0
C155 C 0.77404 0.98313 0.79176 0.0
C156 C 0.78446 0.9437 0.78689 0.0
C157 C 0.75765 0.88837 0.73946 0.0
H158 H 0.72799 0.87625 0.74673 0.0
H159 H 0.76072 0.88863 0.70556 0.0
H160 H 0.78042 0.86892 0.75313 0.0
O161 O 0.64632 0.97715 0.7314 0.0
O162 O 0.659 0.02733 0.77367 0.0
H163 H 0.76875 0.01742 0.84653 0.0
H164 H 0.81801 9e-05 0.83675 0.0
C165 C 0.79087 0.01178 0.82226 0.0
H166 H 0.79805 0.04024 0.80684 0.0
H167 H 0.70522 0.06248 0.84644 0.0
O168 O 0.68401 0.90946 0.67957 0.0
C169 C 0.6353 0.00217 0.75816 0.0
Co170 Co 0.04299 0.23043 0.89594 0.0
Co171 Co 0.98375 0.24708 0.9671 0.0
C172 C 0.95929 0.23897 0.87783 0.0
O173 O -0.00597 0.23655 0.86367 0.0
O174 O 0.95325 0.24206 0.91612 0.0
C175 C 0.07743 0.19286 0.82986 0.0
O176 O 0.04043 0.18171 0.82655 0.0
C177 C 0.9282 0.30377 -0.00225 0.0
C178 C 0.91165 0.28035 0.0587 0.0
C179 C 0.90513 0.31149 0.0317 0.0
N180 N 0.94778 0.26989 0.00446 0.0
N181 N 0.93754 0.2557 0.04074 0.0
C182 C 0.93034 0.32672 0.9584 0.0
H183 H 0.91402 0.3101 0.93438 0.0
H184 H 0.96137 0.32934 0.94811 0.0
H185 H 0.91704 0.35654 0.96109 0.0
C186 C 0.08247 0.30202 0.93262 0.0
N187 N 0.05306 0.27495 0.93021 0.0
N188 N 0.02866 0.28042 0.96106 0.0
C189 C 0.04218 0.31036 0.98455 0.0
C190 C 0.07644 0.32529 0.96721 0.0
C191 C 0.11674 0.30369 0.90395 0.0
H192 H 0.13695 0.27889 0.91119 0.0
H193 H 0.10635 0.29964 0.87192 0.0
H194 H 0.13302 0.33224 0.90692 0.0
O195 O 0.03695 0.18171 0.93019 0.0
O196 O -0.00088 0.19304 0.98443 0.0
H197 H 0.01156 0.29787 0.0408 0.0
H198 H 0.0439 0.34049 0.04348 0.0
C199 C 0.02316 0.32381 0.0236 0.0
H200 H -0.00158 0.34384 0.01611 0.0
H201 H 0.94853 0.22952 0.05337 0.0
O202 O 0.08678 0.21753 0.85787 0.0
C203 C 0.0206 0.16991 0.9633 0.0
Co204 Co 0.81028 0.54341 0.19791 0.0
Co205 Co 0.77989 0.46782 0.24496 0.0
C206 C 0.79039 0.46945 0.1533 0.0
O207 O 0.8025 0.50529 0.15204 0.0
O208 O 0.7807 0.45311 0.18695 0.0
C209 C 0.81367 0.61409 0.14549 0.0
O210 O 0.78188 0.60063 0.12705 0.0
C211 C 0.71641 0.41173 0.26426 0.0
C212 C 0.73867 0.38268 0.32035 0.0
C213 C 0.70643 0.38426 0.29429 0.0
N214 N 0.75247 0.42631 0.27278 0.0
N215 N 0.76587 0.40838 0.30598 0.0
C216 C 0.69253 0.42338 0.22753 0.0
H217 H 0.71195 0.42935 0.20097 0.0
H218 H 0.6762 0.45102 0.23415 0.0
H219 H 0.67109 0.39966 0.21934 0.0
C220 C 0.74434 0.58015 0.24432 0.0
N221 N 0.76559 0.54852 0.23226 0.0
N222 N 0.75465 0.51724 0.2538 0.0
C223 C 0.72681 0.52814 0.28088 0.0
C224 C 0.71915 0.5682 0.27546 0.0
C225 C 0.75059 0.62159 0.22904 0.0
H226 H 0.78228 0.6295 0.23115 0.0
H227 H 0.74175 0.62317 0.19633 0.0
H228 H 0.73313 0.64334 0.24685 0.0
O229 O 0.85527 0.52442 0.23105 0.0
O230 O 0.83557 0.46961 0.26352 0.0
H231 H 0.73217 0.48216 0.32616 0.0
H232 H 0.69383 0.51732 0.33716 0.0
C233 C 0.709 0.50099 0.31241 0.0
H234 H 0.68681 0.48157 0.29758 0.0
H235 H 0.79315 0.41445 0.31943 0.0
O236 O 0.8282 0.59491 0.17539 0.0
C237 C 0.86201 0.49526 0.25488 0.0
Co238 Co 0.44526 0.28213 0.42742 0.0
Co239 Co 0.51071 0.25611 0.48951 0.0
C240 C 0.53047 0.2759 0.40308 0.0
O241 O 0.49508 0.28513 0.39453 0.0
O242 O 0.54004 0.26351 0.43849 0.0
C243 C 0.40355 0.30148 0.35316 0.0
O244 O 0.43788 0.29584 0.33565 0.0
C245 C 0.57641 0.21083 0.52346 0.0
C246 C 0.57635 0.23082 0.58807 0.0
C247 C 0.59635 0.20716 0.5604 0.0
N248 N 0.5461 0.23568 0.52916 0.0
N249 N 0.54622 0.2475 0.56779 0.0
C250 C 0.58808 0.19505 0.48237 0.0
H251 H 0.60353 0.21901 0.46532 0.0
H252 H 0.56141 0.18656 0.46463 0.0
H253 H 0.60833 0.16954 0.48469 0.0
C254 C 0.40997 0.20552 0.45599 0.0
N255 N 0.43944 0.23252 0.45481 0.0
N256 N 0.467 0.22191 0.48097 0.0
C257 C 0.45623 0.18773 0.49929 0.0
C258 C 0.41979 0.17602 0.48397 0.0
C259 C 0.3726 0.20902 0.43205 0.0
H260 H 0.37956 0.21585 0.39954 0.0
H261 H 0.35478 0.18132 0.43379 0.0
H262 H 0.35521 0.23411 0.44439 0.0
O263 O 0.44576 0.32557 0.46838 0.0
O264 O 0.4941 0.30842 0.51045 0.0
H265 H 0.46202 0.14457 0.54866 0.0
H266 H 0.50701 0.15792 0.52236 0.0
C267 C 0.47854 0.16926 0.53401 0.0
H268 H 0.48492 0.19211 0.55758 0.0
H269 H 0.52601 0.26745 0.58015 0.0
O270 O 0.39975 0.29439 0.3913 0.0
C271 C 0.46738 0.33246 0.4995 0.0
H272 H 0.17862 0.0658 0.73767 0.0
H273 H 0.26932 0.11601 0.81447 0.0
H274 H 0.22428 0.16784 0.83752 0.0
H275 H 0.15694 0.1938 0.84178 0.0
H276 H 0.06587 0.14254 0.76563 0.0
H277 H 0.11326 0.09696 0.73568 0.0
C278 C 0.18859 0.08868 0.75875 0.0
C279 C 0.22682 0.08706 0.77484 0.0
C280 C 0.16241 0.11805 0.77214 0.0
C281 C 0.23968 0.11661 0.80219 0.0
C282 C 0.21399 0.14617 0.81534 0.0
C283 C 0.14764 0.17322 0.81804 0.0
C284 C 0.10781 0.1712 0.80646 0.0
C285 C 0.17492 0.14648 0.80145 0.0
C286 C 0.09628 0.14443 0.77551 0.0
C287 C 0.12334 0.11822 0.7584 0.0
H288 H 0.87892 0.77439 0.06965 0.0
H289 H 0.9847 0.73273 0.12856 0.0
H290 H 0.94912 0.67543 0.15558 0.0
H291 H 0.88888 0.63595 0.16064 0.0
H292 H 0.78397 0.67349 0.09719 0.0
H293 H 0.81848 0.73319 0.07292 0.0
C294 C 0.89417 0.75258 0.08816 0.0
C295 C 0.93426 0.75812 0.09757 0.0
C296 C 0.87378 0.71885 0.10247 0.0
C297 C 0.95361 0.72982 0.12185 0.0
C298 C 0.93339 0.69677 0.13693 0.0
C299 C 0.87342 0.65727 0.14167 0.0
C300 C 0.83388 0.65044 0.13089 0.0
C301 C 0.89356 0.69093 0.12731 0.0
C302 C 0.81446 0.67809 0.10586 0.0
C303 C 0.83415 0.71222 0.09205 0.0
H304 H 0.30194 0.42148 0.25051 0.0
H305 H 0.22549 0.40813 0.3551 0.0
H306 H 0.26831 0.35669 0.38322 0.0
H307 H 0.33037 0.32 0.38086 0.0
H308 H 0.40692 0.33295 0.2759 0.0
H309 H 0.36067 0.3791 0.24456 0.0
C310 C 0.29449 0.40676 0.27911 0.0
C311 C 0.26119 0.41885 0.30117 0.0
C312 C 0.3192 0.37716 0.29497 0.0
C313 C 0.25152 0.39966 0.3381 0.0
C314 C 0.27587 0.37022 0.35407 0.0
C315 C 0.33671 0.33243 0.35085 0.0
C316 C 0.37236 0.32343 0.33109 0.0
C317 C 0.31027 0.35939 0.33323 0.0
C318 C 0.37984 0.33952 0.29199 0.0
C319 C 0.35349 0.36612 0.27409 0.0
H320 H 0.65482 0.83804 0.68558 0.0
H321 H 0.62627 0.90143 0.57444 0.0
H322 H 0.59077 0.84351 0.54843 0.0
H323 H 0.56521 0.77593 0.55845 0.0
H324 H 0.59175 0.71256 0.66974 0.0
H325 H 0.63029 0.76946 0.69493 0.0
C326 C 0.64125 0.83893 0.65546 0.0
C327 C 0.6432 0.87392 0.63193 0.0
C328 C 0.62008 0.80576 0.64105 0.0
C329 C 0.62511 0.87486 0.59316 0.0
C330 C 0.60472 0.84181 0.5783 0.0
C331 C 0.57962 0.77471 0.58814 0.0
C332 C 0.57566 0.74057 0.61246 0.0
C333 C 0.60154 0.80736 0.6022 0.0
C334 C 0.59418 0.73896 0.65088 0.0
C335 C 0.61633 0.77131 0.66509 0.0
H336 H 0.88254 0.25423 0.89338 0.0
H337 H 0.95936 0.20107 0.80371 0.0
H338 H 0.9034 0.16617 0.77325 0.0
H339 H 0.83645 0.14025 0.78213 0.0
H340 H 0.75919 0.19333 0.87136 0.0
H341 H 0.81218 0.23805 0.89304 0.0
C342 C 0.88687 0.23595 0.86639 0.0
C343 C 0.92516 0.22953 0.85143 0.0
C344 C 0.85479 0.21513 0.84979 0.0
C345 C 0.93025 0.2063 0.81606 0.0
C346 C 0.8983 0.18594 0.79891 0.0
C347 C 0.83037 0.16296 0.80472 0.0
C348 C 0.79365 0.1639 0.82463 0.0
C349 C 0.86089 0.18857 0.81691 0.0
C350 C 0.78721 0.19212 0.85556 0.0
C351 C 0.81746 0.2177 0.86792 0.0
H352 H 0.83081 0.31578 0.06025 0.0
H353 H 0.93089 0.38777 0.02609 0.0
H354 H 0.89823 0.44707 0.05192 0.0
H355 H 0.84681 0.47562 0.09522 0.0
H356 H 0.74907 0.4025 0.13429 0.0
H357 H 0.77421 0.34693 0.09427 0.0
C358 C 0.84491 0.34468 0.05771 0.0
C359 C 0.88287 0.34768 0.04111 0.0
C360 C 0.8263 0.37844 0.07349 0.0
C361 C 0.90125 0.38503 0.03805 0.0
C362 C 0.88272 0.41887 0.05309 0.0
C363 C 0.83016 0.44806 0.09357 0.0
C364 C 0.79645 0.44293 0.11798 0.0
C365 C 0.84587 0.41567 0.07222 0.0
C366 C 0.77528 0.40697 0.11587 0.0
C367 C 0.78989 0.37506 0.09341 0.0
H368 H 0.53531 0.33697 0.34907 0.0
H369 H 0.5978 0.23421 0.39266 0.0
H370 H 0.65752 0.25681 0.35789 0.0
H371 H 0.69417 0.31055 0.324 0.0
H372 H 0.63276 0.41559 0.28466 0.0
H373 H 0.5705 0.38722 0.30801 0.0
C374 C 0.5617 0.31901 0.34986 0.0
C375 C 0.56245 0.2843 0.37376 0.0
C376 C 0.59629 0.33287 0.33087 0.0
C377 C 0.59684 0.26137 0.37491 0.0
C378 C 0.63098 0.27432 0.35514 0.0
C379 C 0.66699 0.32682 0.31985 0.0
C380 C 0.66804 0.36482 0.30218 0.0
C381 C 0.63146 0.31083 0.33452 0.0
C382 C 0.63271 0.3858 0.29711 0.0
C383 C 0.59707 0.36979 0.31097 0.0
H384 H 0.60683 0.1294 0.54192 0.0
H385 H 0.66026 0.22859 0.60484 0.0
H386 H 0.70906 0.18451 0.63543 0.0
H387 H 0.728 0.11685 0.65342 0.0
H388 H 0.67154 0.01747 0.59376 0.0
H389 H 0.63471 0.0627 0.55007 0.0
C390 C 0.63032 0.14164 0.56067 0.0
C391 C 0.6303 0.18214 0.5709 0.0
C392 C 0.65775 0.11602 0.57871 0.0
C393 C 0.65983 0.1974 0.59668 0.0
C394 C 0.68769 0.17226 0.61412 0.0
C395 C 0.70824 0.10508 0.63039 0.0
C396 C 0.7013 0.06399 0.6282 0.0
C397 C 0.68571 0.13129 0.60682 0.0
C398 C 0.67698 0.04906 0.59675 0.0
C399 C 0.65545 0.07495 0.57203 0.0
H400 H 0.72294 0.58395 0.35613 0.0
H401 H 0.65374 0.60572 0.24789 0.0
H402 H 0.60094 0.63386 0.29005 0.0
H403 H 0.57127 0.64305 0.3584 0.0
H404 H 0.63947 0.61592 0.46656 0.0
H405 H 0.69586 0.59899 0.42395 0.0
C406 C 0.69648 0.59555 0.34194 0.0
C407 C 0.69156 0.59242 0.2994 0.0
C408 C 0.66594 0.61003 0.36642 0.0
C409 C 0.65771 0.60781 0.2808 0.0
C410 C 0.62754 0.62353 0.30489 0.0
C411 C 0.59868 0.63404 0.3726 0.0
C412 C 0.60103 0.63016 0.41549 0.0
C413 C 0.63074 0.62336 0.34786 0.0
C414 C 0.63674 0.61854 0.43355 0.0
C415 C 0.66904 0.60893 0.40925 0.0
H416 H 0.43702 0.09806 0.48498 0.0
H417 H 0.34801 0.18183 0.5202 0.0
H418 H 0.31455 0.13058 0.56095 0.0
H419 H 0.31697 0.0653 0.59476 0.0
H420 H 0.40789 0.98239 0.56113 0.0
H421 H 0.43388 0.02959 0.51115 0.0
C422 C 0.40971 0.1046 0.50079 0.0
C423 C 0.39498 0.14341 0.50005 0.0
C424 C 0.39135 0.07532 0.52486 0.0
C425 C 0.35966 0.15195 0.5204 0.0
C426 C 0.34079 0.12278 0.54394 0.0
C427 C 0.34197 0.0572 0.57591 0.0
C428 C 0.3609 0.02063 0.58231 0.0
C429 C 0.35729 0.08482 0.54769 0.0
C430 C 0.39299 0.01049 0.55726 0.0
C431 C 0.40801 0.03754 0.52871 0.0
H432 H 0.88774 0.8782 0.93008 0.0
H433 H 0.96935 0.86003 0.83047 0.0
H434 H 0.91878 0.8794 0.78105 0.0
H435 H 0.85345 0.90872 0.76702 0.0
H436 H 0.77378 0.92934 0.86742 0.0
H437 H 0.8213 0.90148 0.91575 0.0
C438 C 0.89443 0.87807 0.89754 0.0
C439 C 0.93243 0.86828 0.88404 0.0
C440 C 0.86553 0.88985 0.86947 0.0
C441 C 0.94039 0.86773 0.84172 0.0
C442 C 0.91152 0.87891 0.81343 0.0
C443 C 0.84644 0.90621 0.79939 0.0
C444 C 0.81056 0.92093 0.81401 0.0
C445 C 0.87432 0.89105 0.82705 0.0
C446 C 0.80146 0.91807 0.85586 0.0
C447 C 0.8286 0.90235 0.88339 0.0
H448 H 0.12225 0.3207 0.03393 0.0
H449 H 0.08249 0.40163 0.94079 0.0
H450 H 0.10657 0.45823 0.98133 0.0
H451 H 0.12953 0.48442 0.04813 0.0
H452 H 0.16445 0.40208 0.14281 0.0
H453 H 0.15182 0.34647 0.09711 0.0
C454 C 0.1202 0.35073 0.02205 0.0
C455 C 0.101 0.35733 0.98462 0.0
C456 C 0.13237 0.38289 0.04634 0.0
C457 C 0.09768 0.39613 0.96945 0.0
C458 C 0.11094 0.4284 -0.00712 0.0
C459 C 0.13494 0.45435 0.05852 0.0
C460 C 0.14738 0.44753 0.09915 0.0
C461 C 0.12683 0.42218 0.03218 0.0
C462 C 0.15438 0.40832 0.112 0.0
C463 C 0.14725 0.37637 0.08581 0.0
H464 H 0.36219 0.66169 0.51227 0.0
H465 H 0.4335 0.61281 0.4153 0.0
H466 H 0.37439 0.60066 0.37423 0.0
H467 H 0.30247 0.5954 0.37055 0.0
H468 H 0.2311 0.64537 0.46674 0.0
H469 H 0.29061 0.66461 0.50438 0.0
C470 C 0.36494 0.64913 0.4818 0.0
C471 C 0.40216 0.63778 0.46704 0.0
C472 C 0.33089 0.64175 0.4587 0.0
C473 C 0.40523 0.62182 0.42738 0.0
C474 C 0.37141 0.61453 0.40405 0.0
C475 C 0.29981 0.61213 0.39878 0.0
C476 C 0.26239 0.61996 0.41534 0.0
C477 C 0.33405 0.62327 0.41998 0.0
C478 C 0.25961 0.63942 0.45326 0.0
C479 C 0.29357 0.65042 0.47471 0.0
H480 H 0.30547 0.85714 0.66317 0.0
H481 H 0.36116 0.85191 0.78227 0.0
H482 H 0.37544 0.78223 0.77256 0.0
H483 H 0.37978 0.72484 0.72727 0.0
H484 H 0.32679 0.72911 0.60729 0.0
H485 H 0.30354 0.79658 0.62038 0.0
C486 C 0.32027 0.84059 0.68713 0.0
C487 C 0.332 0.85989 0.72339 0.0
C488 C 0.32923 0.80028 0.68112 0.0
C489 C 0.35114 0.8379 0.75423 0.0
C490 C 0.35967 0.79794 0.74867 0.0
C491 C 0.36226 0.74021 0.70447 0.0
C492 C 0.35567 0.72264 0.66616 0.0
C493 C 0.34976 0.7791 0.7119 0.0
C494 C 0.33296 0.74266 0.63673 0.0
C495 C 0.31971 0.78119 0.64417 0.0
H496 H 0.1571 0.8633 0.02213 0.0
H497 H 0.09118 0.86518 0.90866 0.0
H498 H 0.14971 0.88707 0.87183 0.0
H499 H 0.21616 0.91399 0.87353 0.0
H500 H 0.28491 0.90862 0.98458 0.0
H501 H 0.22753 0.88193 0.0216 0.0
C502 C 0.15574 0.8677 0.98919 0.0
C503 C 0.11963 0.8631 0.96829 0.0
C504 C 0.18948 0.88073 0.96815 0.0
C505 C 0.11847 0.86855 0.92557 0.0
C506 C 0.15183 0.88149 0.90451 0.0
C507 C 0.2194 0.90521 0.90534 0.0
C508 C 0.25523 0.91173 0.92593 0.0
C509 C 0.18702 0.8888 0.92573 0.0
C510 C 0.25776 0.90319 0.96799 0.0
C511 C 0.22509 0.8878 0.98901 0.0
H512 H 0.15253 0.75536 0.11974 0.0
H513 H 0.12044 0.79688 0.2404 0.0
H514 H 0.14011 0.73346 0.26967 0.0
H515 H 0.15773 0.6642 0.26015 0.0
H516 H 0.18078 0.61894 0.13865 0.0
H517 H 0.1716 0.68568 0.11014 0.0
C518 C 0.14863 0.75041 0.15221 0.0
C519 C 0.13303 0.78048 0.17742 0.0
C520 C 0.15796 0.71303 0.1686 0.0
C521 C 0.13164 0.77421 0.22003 0.0
C522 C 0.14264 0.73779 0.23682 0.0
C523 C 0.16131 0.6688 0.22742 0.0
C524 C 0.16984 0.63647 0.20152 0.0
C525 C 0.15451 0.70665 0.21122 0.0
C526 C 0.17408 0.64321 0.15922 0.0
C527 C 0.1688 0.68135 0.14296 0.0
H528 H 0.57967 0.00737 0.70139 0.0
H529 H 0.59704 0.00565 0.83224 0.0
H530 H 0.52526 0.00681 0.84291 0.0
H531 H 0.4577 0.00367 0.81386 0.0
H532 H 0.44301 0.00911 0.68212 0.0
H533 H 0.51371 0.01186 0.67304 0.0
C534 C 0.56762 0.00736 0.73225 0.0
C535 C 0.59301 0.00559 0.76601 0.0
C536 C 0.52694 0.00884 0.73792 0.0
C537 C 0.5776 0.00662 0.8059 0.0
C538 C 0.53674 0.00727 0.8119 0.0
C539 C 0.46999 0.006 0.78324 0.0
C540 C 0.44494 0.0055 0.74878 0.0
C541 C 0.51108 0.00774 0.77802 0.0
C542 C 0.46139 0.009 0.70929 0.0
C543 C 0.50194 0.01046 0.70392 0.0
H544 H 0.00578 0.13438 0.03794 0.0
H545 H 0.04355 0.10983 0.91392 0.0
H546 H 0.0455 0.03937 0.92898 0.0
H547 H 0.03445 0.98444 0.97564 0.0
H548 H 0.0007 0.006 0.101 0.0
H549 H -0.00061 0.07798 0.08731 0.0
C550 C 0.01463 0.11356 0.01437 0.0
C551 C 0.02427 0.12751 0.97477 0.0
C552 C 0.01623 0.07261 0.02337 0.0
C553 C 0.03606 0.10015 0.94467 0.0
C554 C 0.03705 0.05971 0.95314 0.0
C555 C 0.02667 0.00488 2e-05 0.0
C556 C 0.01693 0.99012 0.03901 0.0
C557 C 0.0268 0.04566 -0.00789 0.0
C558 C 0.00801 0.01685 0.07064 0.0
C559 C 0.00722 0.05787 0.06274 0.0
H560 H 0.04166 0.45735 0.26092 0.0
H561 H 0.04535 0.57516 0.31249 0.0
H562 H 0.97343 0.57702 0.31396 0.0
H563 H 0.90989 0.54834 0.29209 0.0
H564 H 0.90555 0.42889 0.24511 0.0
H565 H 0.97729 0.42397 0.25093 0.0
C566 C 0.02658 0.48302 0.27321 0.0
C567 C 0.04851 0.51625 0.2861 0.0
C568 C 0.98523 0.4836 0.27463 0.0
C569 C 0.02893 0.54924 0.30245 0.0
C570 C 0.98785 0.55041 0.30308 0.0
C571 C 0.92471 0.52091 0.28426 0.0
C572 C 0.90288 0.48908 0.26807 0.0
C573 C 0.96575 0.51825 0.28809 0.0
C574 C 0.92199 0.45359 0.25797 0.0
C575 C 0.96296 0.45095 0.26092 0.0
H576 H 0.52502 0.37347 0.53845 0.0
H577 H 0.40152 0.37757 0.50788 0.0
H578 H 0.39739 0.44491 0.53553 0.0
H579 H 0.43098 0.50552 0.55922 0.0
H580 H 0.55617 0.50427 0.58009 0.0
H581 H 0.55768 0.43273 0.56648 0.0
C582 C 0.49704 0.38885 0.53864 0.0
C583 C 0.46364 0.37076 0.52106 0.0
C584 C 0.49534 0.4281 0.55289 0.0
C585 C 0.42767 0.3911 0.521 0.0
C586 C 0.42531 0.42954 0.53681 0.0
C587 C 0.45825 0.48913 0.56214 0.0
C588 C 0.49331 0.50956 0.5713 0.0
C589 C 0.45921 0.44875 0.55164 0.0
C590 C 0.52883 0.4887 0.57368 0.0
C591 C 0.5297 0.44801 0.5655 0.0
loop_
_geom_bond_atom_site_label_1
_geom_bond_atom_site_label_2
_geom_bond_distance
_geom_bond_site_symmetry_2
_ccdc_geom_bond_type
Co0 O3 1.970 1_545 S
Co0 N17 1.989 . S
Co0 O25 1.967 . S
Co0 O32 1.920 . S
Co1 O4 1.966 . S
Co1 N10 2.022 . S
Co1 N18 1.993 1_565 S
Co1 O26 1.941 . S
C2 O3 1.258 . S
C2 O4 1.263 . S
O3 Co0 1.970 1_565 S
O3 C2 1.258 . S
O4 Co1 1.966 . S
O4 C2 1.263 . S
C5 O6 1.235 . S
C5 O32 1.289 . S
O6 C5 1.235 . S
C7 C9 1.400 . S
C7 N10 1.351 . S
C7 C12 1.501 . S
C8 C9 1.387 . S
C8 N11 1.341 . S
C9 C7 1.400 . S
C9 C8 1.387 . S
N10 Co1 2.022 . S
N10 C7 1.351 . S
N10 N11 1.365 . S
N11 C8 1.341 . S
N11 N10 1.365 . S
N11 H31 0.862 . S
C12 C7 1.501 . S
C12 H13 0.961 . S
C12 H14 0.961 . S
C12 H15 0.960 . S
H13 C12 0.961 . S
H14 C12 0.961 . S
H15 C12 0.960 . S
C16 N17 1.342 . S
C16 C20 1.401 . S
C16 C21 1.499 . S
N17 Co0 1.989 . S
N17 C16 1.342 . S
N17 N18 1.388 . S
N18 Co1 1.993 1_545 S
N18 N17 1.388 . S
N18 C19 1.346 . S
C19 N18 1.346 . S
C19 C20 1.396 . S
C19 C29 1.510 . S
C20 C16 1.401 . S
C20 C19 1.396 . S
C21 C16 1.499 . S
C21 H22 0.959 . S
C21 H23 0.960 . S
C21 H24 0.961 . S
H22 C21 0.959 . S
H23 C21 0.960 . S
H24 C21 0.961 . S
O25 Co0 1.967 . S
O25 C33 1.258 1_545 S
O26 Co1 1.941 . S
O26 C33 1.266 . S
H27 C29 0.959 . S
H28 C29 0.961 . S
C29 C19 1.510 . S
C29 H27 0.959 . S
C29 H28 0.961 . S
C29 H30 0.960 1_545 S
H30 C29 0.960 1_565 S
H31 N11 0.862 . S
O32 Co0 1.920 . S
O32 C5 1.289 . S
C33 O25 1.258 1_565 S
C33 O26 1.266 . S
Co34 O37 1.970 1_655 S
Co34 N51 1.989 1_556 S
Co34 O59 1.967 . S
Co34 O66 1.920 . S
Co35 O38 1.966 1_554 S
Co35 N44 2.022 . S
Co35 N52 1.993 1_455 S
Co35 O60 1.941 . S
C36 O37 1.258 . S
C36 O38 1.263 . S
O37 Co34 1.970 1_455 S
O37 C36 1.258 . S
O38 Co35 1.966 1_556 S
O38 C36 1.263 . S
C39 O40 1.235 . S
C39 O66 1.289 . S
O40 C39 1.235 . S
C41 C43 1.400 . S
C41 N44 1.351 . S
C41 C46 1.501 . S
C42 C43 1.387 . S
C42 N45 1.341 . S
C43 C41 1.400 . S
C43 C42 1.387 . S
N44 Co35 2.022 . S
N44 C41 1.351 . S
N44 N45 1.365 . S
N45 C42 1.341 . S
N45 N44 1.365 . S
N45 H65 0.862 . S
C46 C41 1.501 . S
C46 H47 0.961 . S
C46 H48 0.961 . S
C46 H49 0.960 . S
H47 C46 0.961 . S
H48 C46 0.961 . S
H49 C46 0.960 . S
C50 N51 1.342 . S
C50 C54 1.401 . S
C50 C55 1.499 1_554 S
N51 Co34 1.989 1_554 S
N51 C50 1.342 . S
N51 N52 1.388 . S
N52 Co35 1.993 1_655 S
N52 N51 1.388 . S
N52 C53 1.346 . S
C53 N52 1.346 . S
C53 C54 1.396 . S
C53 C63 1.510 1_655 S
C54 C50 1.401 . S
C54 C53 1.396 . S
C55 C50 1.499 1_556 S
C55 H56 0.959 . S
C55 H57 0.960 . S
C55 H58 0.961 1_556 S
H56 C55 0.959 . S
H57 C55 0.960 . S
H58 C55 0.961 1_554 S
O59 Co34 1.967 . S
O59 C67 1.258 1_656 S
O60 Co35 1.941 . S
O60 C67 1.266 . S
H61 C63 0.959 1_655 S
H62 C63 0.961 . S
C63 C53 1.510 1_455 S
C63 H61 0.959 1_455 S
C63 H62 0.961 . S
C63 H64 0.960 . S
H64 C63 0.960 . S
H65 N45 0.862 . S
O66 Co34 1.920 . S
O66 C39 1.289 . S
C67 O59 1.258 1_454 S
C67 O60 1.266 . S
Co68 O71 1.970 . S
Co68 N85 1.989 . S
Co68 O93 1.967 . S
Co68 O100 1.920 . S
Co69 O72 1.966 . S
Co69 N78 2.022 . S
Co69 N86 1.993 . S
Co69 O94 1.941 . S
C70 O71 1.258 . S
C70 O72 1.263 . S
O71 Co68 1.970 . S
O71 C70 1.258 . S
O72 Co69 1.966 . S
O72 C70 1.263 . S
C73 O74 1.235 . S
C73 O100 1.289 . S
O74 C73 1.235 . S
C75 C77 1.400 . S
C75 N78 1.351 . S
C75 C80 1.501 . S
C76 C77 1.387 . S
C76 N79 1.341 . S
C77 C75 1.400 . S
C77 C76 1.387 . S
N78 Co69 2.022 . S
N78 C75 1.351 . S
N78 N79 1.365 . S
N79 C76 1.341 . S
N79 N78 1.365 . S
N79 H99 0.862 . S
C80 C75 1.501 . S
C80 H81 0.961 . S
C80 H82 0.961 . S
C80 H83 0.960 . S
H81 C80 0.961 . S
H82 C80 0.961 . S
H83 C80 0.960 . S
C84 N85 1.342 . S
C84 C88 1.401 . S
C84 C89 1.499 . S
N85 Co68 1.989 . S
N85 C84 1.342 . S
N85 N86 1.388 . S
N86 Co69 1.993 . S
N86 N85 1.388 . S
N86 C87 1.346 . S
C87 N86 1.346 . S
C87 C88 1.396 . S
C87 C97 1.510 . S
C88 C84 1.401 . S
C88 C87 1.396 . S
C89 C84 1.499 . S
C89 H90 0.959 . S
C89 H91 0.960 . S
C89 H92 0.961 . S
H90 C89 0.959 . S
H91 C89 0.960 . S
H92 C89 0.961 . S
O93 Co68 1.967 . S
O93 C101 1.258 . S
O94 Co69 1.941 . S
O94 C101 1.266 . S
H95 C97 0.959 . S
H96 C97 0.961 . S
C97 C87 1.510 . S
C97 H95 0.959 . S
C97 H96 0.961 . S
C97 H98 0.960 . S
H98 C97 0.960 . S
H99 N79 0.862 . S
O100 Co68 1.920 . S
O100 C73 1.289 . S
C101 O93 1.258 . S
C101 O94 1.266 . S
Co102 O105 1.970 . S
Co102 N119 1.989 . S
Co102 O127 1.967 . S
Co102 O134 1.920 . S
Co103 O106 1.966 . S
Co103 N112 2.022 . S
Co103 N120 1.993 . S
Co103 O128 1.941 . S
C104 O105 1.258 . S
C104 O106 1.263 . S
O105 Co102 1.970 . S
O105 C104 1.258 . S
O106 Co103 1.966 . S
O106 C104 1.263 . S
C107 O108 1.235 . S
C107 O134 1.289 . S
O108 C107 1.235 . S
C109 C111 1.400 . S
C109 N112 1.351 . S
C109 C114 1.501 . S
C110 C111 1.387 . S
C110 N113 1.341 . S
C111 C109 1.400 . S
C111 C110 1.387 . S
N112 Co103 2.022 . S
N112 C109 1.351 . S
N112 N113 1.365 . S
N113 C110 1.341 . S
N113 N112 1.365 . S
N113 H133 0.862 . S
C114 C109 1.501 . S
C114 H115 0.961 . S
C114 H116 0.961 . S
C114 H117 0.960 . S
H115 C114 0.961 . S
H116 C114 0.961 . S
H117 C114 0.960 . S
C118 N119 1.342 . S
C118 C122 1.401 . S
C118 C123 1.499 . S
N119 Co102 1.989 . S
N119 C118 1.342 . S
N119 N120 1.388 . S
N120 Co103 1.993 . S
N120 N119 1.388 . S
N120 C121 1.346 . S
C121 N120 1.346 . S
C121 C122 1.396 . S
C121 C131 1.510 . S
C122 C118 1.401 . S
C122 C121 1.396 . S
C123 C118 1.499 . S
C123 H124 0.959 . S
C123 H125 0.960 . S
C123 H126 0.961 . S
H124 C123 0.959 . S
H125 C123 0.960 . S
H126 C123 0.961 . S
O127 Co102 1.967 . S
O127 C135 1.258 . S
O128 Co103 1.941 . S
O128 C135 1.266 . S
H129 C131 0.959 . S
H130 C131 0.961 . S
C131 C121 1.510 . S
C131 H129 0.959 . S
C131 H130 0.961 . S
C131 H132 0.960 . S
H132 C131 0.960 . S
H133 N113 0.862 . S
O134 Co102 1.920 . S
O134 C107 1.289 . S
C135 O127 1.258 . S
C135 O128 1.266 . S
Co136 O139 1.970 1_565 S
Co136 N153 1.989 . S
Co136 O161 1.967 . S
Co136 O168 1.920 . S
Co137 O140 1.966 . S
Co137 N146 2.022 . S
Co137 N154 1.993 1_545 S
Co137 O162 1.941 . S
C138 O139 1.258 . S
C138 O140 1.263 . S
O139 Co136 1.970 1_545 S
O139 C138 1.258 . S
O140 Co137 1.966 . S
O140 C138 1.263 . S
C141 O142 1.235 . S
C141 O168 1.289 . S
O142 C141 1.235 . S
C143 C145 1.400 . S
C143 N146 1.351 . S
C143 C148 1.501 . S
C144 C145 1.387 . S
C144 N147 1.341 . S
C145 C143 1.400 . S
C145 C144 1.387 . S
N146 Co137 2.022 . S
N146 C143 1.351 . S
N146 N147 1.365 . S
N147 C144 1.341 . S
N147 N146 1.365 . S
N147 H167 0.862 . S
C148 C143 1.501 . S
C148 H149 0.961 . S
C148 H150 0.961 . S
C148 H151 0.960 . S
H149 C148 0.961 . S
H150 C148 0.961 . S
H151 C148 0.960 . S
C152 N153 1.342 . S
C152 C156 1.401 . S
C152 C157 1.499 . S
N153 Co136 1.989 . S
N153 C152 1.342 . S
N153 N154 1.388 . S
N154 Co137 1.993 1_565 S
N154 N153 1.388 . S
N154 C155 1.346 . S
C155 N154 1.346 . S
C155 C156 1.396 . S
C155 C165 1.510 1_565 S
C156 C152 1.401 . S
C156 C155 1.396 . S
C157 C152 1.499 . S
C157 H158 0.959 . S
C157 H159 0.960 . S
C157 H160 0.961 . S
H158 C157 0.959 . S
H159 C157 0.960 . S
H160 C157 0.961 . S
O161 Co136 1.967 . S
O161 C169 1.258 1_565 S
O162 Co137 1.941 . S
O162 C169 1.266 . S
H163 C165 0.959 1_565 S
H164 C165 0.961 . S
C165 C155 1.510 1_545 S
C165 H163 0.959 1_545 S
C165 H164 0.961 . S
C165 H166 0.960 . S
H166 C165 0.960 . S
H167 N147 0.862 . S
O168 Co136 1.920 . S
O168 C141 1.289 . S
C169 O161 1.258 1_545 S
C169 O162 1.266 . S
Co170 O173 1.970 1_455 S
Co170 N187 1.989 1_556 S
Co170 O195 1.968 . S
Co170 O202 1.920 . S
Co171 O174 1.966 1_554 S
Co171 N180 2.022 . S
Co171 N188 1.993 1_655 S
Co171 O196 1.941 . S
C172 O173 1.258 . S
C172 O174 1.263 . S
O173 Co170 1.970 1_655 S
O173 C172 1.258 . S
O174 Co171 1.966 1_556 S
O174 C172 1.263 . S
C175 O176 1.235 . S
C175 O202 1.289 . S
O176 C175 1.235 . S
C177 C179 1.400 . S
C177 N180 1.351 . S
C177 C182 1.501 . S
C178 C179 1.387 . S
C178 N181 1.341 . S
C179 C177 1.400 . S
C179 C178 1.387 . S
N180 Co171 2.022 . S
N180 C177 1.351 . S
N180 N181 1.365 . S
N181 C178 1.341 . S
N181 N180 1.365 . S
N181 H201 0.862 . S
C182 C177 1.501 . S
C182 H183 0.961 . S
C182 H184 0.961 . S
C182 H185 0.960 . S
H183 C182 0.961 . S
H184 C182 0.961 . S
H185 C182 0.960 . S
C186 N187 1.342 . S
C186 C190 1.401 . S
C186 C191 1.499 1_554 S
N187 Co170 1.989 1_554 S
N187 C186 1.342 . S
N187 N188 1.388 . S
N188 Co171 1.993 1_455 S
N188 N187 1.388 . S
N188 C189 1.346 . S
C189 N188 1.346 . S
C189 C190 1.396 . S
C189 C199 1.510 . S
C190 C186 1.401 . S
C190 C189 1.396 . S
C191 C186 1.499 1_556 S
C191 H192 0.959 . S
C191 H193 0.960 . S
C191 H194 0.961 1_556 S
H192 C191 0.959 . S
H193 C191 0.960 . S
H194 C191 0.961 1_554 S
O195 Co170 1.968 . S
O195 C203 1.257 1_456 S
O196 Co171 1.941 . S
O196 C203 1.266 . S
H197 C199 0.959 . S
H198 C199 0.961 . S
C199 C189 1.510 . S
C199 H197 0.959 . S
C199 H198 0.961 . S
C199 H200 0.960 1_455 S
H200 C199 0.960 1_655 S
H201 N181 0.862 . S
O202 Co170 1.920 . S
O202 C175 1.289 . S
C203 O195 1.257 1_654 S
C203 O196 1.266 . S
Co204 O207 1.970 . S
Co204 N221 1.989 . S
Co204 O229 1.967 . S
Co204 O236 1.920 . S
Co205 O208 1.966 . S
Co205 N214 2.022 . S
Co205 N222 1.993 . S
Co205 O230 1.941 . S
C206 O207 1.258 . S
C206 O208 1.263 . S
O207 Co204 1.970 . S
O207 C206 1.258 . S
O208 Co205 1.966 . S
O208 C206 1.263 . S
C209 O210 1.235 . S
C209 O236 1.289 . S
O210 C209 1.235 . S
C211 C213 1.400 . S
C211 N214 1.351 . S
C211 C216 1.501 . S
C212 C213 1.387 . S
C212 N215 1.341 . S
C213 C211 1.400 . S
C213 C212 1.387 . S
N214 Co205 2.022 . S
N214 C211 1.351 . S
N214 N215 1.365 . S
N215 C212 1.341 . S
N215 N214 1.365 . S
N215 H235 0.862 . S
C216 C211 1.501 . S
C216 H217 0.961 . S
C216 H218 0.961 . S
C216 H219 0.960 . S
H217 C216 0.961 . S
H218 C216 0.961 . S
H219 C216 0.960 . S
C220 N221 1.342 . S
C220 C224 1.401 . S
C220 C225 1.499 . S
N221 Co204 1.989 . S
N221 C220 1.342 . S
N221 N222 1.388 . S
N222 Co205 1.993 . S
N222 N221 1.388 . S
N222 C223 1.346 . S
C223 N222 1.346 . S
C223 C224 1.396 . S
C223 C233 1.510 . S
C224 C220 1.401 . S
C224 C223 1.396 . S
C225 C220 1.499 . S
C225 H226 0.959 . S
C225 H227 0.960 . S
C225 H228 0.961 . S
H226 C225 0.959 . S
H227 C225 0.960 . S
H228 C225 0.961 . S
O229 Co204 1.967 . S
O229 C237 1.258 . S
O230 Co205 1.941 . S
O230 C237 1.266 . S
H231 C233 0.959 . S
H232 C233 0.961 . S
C233 C223 1.510 . S
C233 H231 0.959 . S
C233 H232 0.961 . S
C233 H234 0.960 . S
H234 C233 0.960 . S
H235 N215 0.862 . S
O236 Co204 1.920 . S
O236 C209 1.289 . S
C237 O229 1.258 . S
C237 O230 1.266 . S
Co238 O241 1.970 . S
Co238 N255 1.989 . S
Co238 O263 1.967 . S
Co238 O270 1.920 . S
Co239 O242 1.966 . S
Co239 N248 2.022 . S
Co239 N256 1.993 . S
Co239 O264 1.941 . S
C240 O241 1.258 . S
C240 O242 1.263 . S
O241 Co238 1.970 . S
O241 C240 1.258 . S
O242 Co239 1.966 . S
O242 C240 1.263 . S
C243 O244 1.235 . S
C243 O270 1.289 . S
O244 C243 1.235 . S
C245 C247 1.400 . S
C245 N248 1.351 . S
C245 C250 1.501 . S
C246 C247 1.387 . S
C246 N249 1.341 . S
C247 C245 1.400 . S
C247 C246 1.387 . S
N248 Co239 2.022 . S
N248 C245 1.351 . S
N248 N249 1.365 . S
N249 C246 1.341 . S
N249 N248 1.365 . S
N249 H269 0.862 . S
C250 C245 1.501 . S
C250 H251 0.961 . S
C250 H252 0.961 . S
C250 H253 0.960 . S
H251 C250 0.961 . S
H252 C250 0.961 . S
H253 C250 0.960 . S
C254 N255 1.342 . S
C254 C258 1.401 . S
C254 C259 1.499 . S
N255 Co238 1.989 . S
N255 C254 1.342 . S
N255 N256 1.388 . S
N256 Co239 1.993 . S
N256 N255 1.388 . S
N256 C257 1.346 . S
C257 N256 1.346 . S
C257 C258 1.396 . S
C257 C267 1.510 . S
C258 C254 1.401 . S
C258 C257 1.396 . S
C259 C254 1.499 . S
C259 H260 0.959 . S
C259 H261 0.960 . S
C259 H262 0.961 . S
H260 C259 0.959 . S
H261 C259 0.960 . S
H262 C259 0.961 . S
O263 Co238 1.967 . S
O263 C271 1.258 . S
O264 Co239 1.941 . S
O264 C271 1.266 . S
H265 C267 0.959 . S
H266 C267 0.961 . S
C267 C257 1.510 . S
C267 H265 0.959 . S
C267 H266 0.961 . S
C267 H268 0.960 . S
H268 C267 0.960 . S
H269 N249 0.862 . S
O270 Co238 1.920 . S
O270 C243 1.289 . S
C271 O263 1.258 . S
C271 O264 1.266 . S
H272 C278 0.930 . S
H273 C281 0.930 . S
H274 C282 0.930 . S
H275 C283 0.930 . S
H276 C286 0.930 . S
H277 C287 0.930 . S
C278 H272 0.930 . S
C278 C279 1.355 . S
C278 C280 1.415 . S
C279 C278 1.355 . S
C279 C281 1.419 . S
C280 C278 1.415 . S
C280 C285 1.425 . S
C280 C287 1.409 . S
C281 H273 0.930 . S
C281 C279 1.419 . S
C281 C282 1.362 . S
C282 H274 0.930 . S
C282 C281 1.362 . S
C282 C285 1.409 . S
C283 H275 0.930 . S
C283 C284 1.355 . S
C283 C285 1.415 . S
C284 C283 1.355 . S
C284 C286 1.419 . S
C285 C280 1.425 . S
C285 C282 1.409 . S
C285 C283 1.415 . S
C286 H276 0.930 . S
C286 C284 1.419 . S
C286 C287 1.362 . S
C287 H277 0.930 . S
C287 C280 1.409 . S
C287 C286 1.362 . S
H288 C294 0.930 . S
H289 C297 0.930 . S
H290 C298 0.930 . S
H291 C299 0.930 . S
H292 C302 0.930 . S
H293 C303 0.930 . S
C294 H288 0.930 . S
C294 C295 1.355 . S
C294 C296 1.415 . S
C295 C294 1.355 . S
C295 C297 1.419 . S
C296 C294 1.415 . S
C296 C301 1.425 . S
C296 C303 1.409 . S
C297 H289 0.930 . S
C297 C295 1.419 . S
C297 C298 1.362 . S
C298 H290 0.930 . S
C298 C297 1.362 . S
C298 C301 1.409 . S
C299 H291 0.930 . S
C299 C300 1.355 . S
C299 C301 1.415 . S
C300 C299 1.355 . S
C300 C302 1.419 . S
C301 C296 1.425 . S
C301 C298 1.409 . S
C301 C299 1.415 . S
C302 H292 0.930 . S
C302 C300 1.419 . S
C302 C303 1.362 . S
C303 H293 0.930 . S
C303 C296 1.409 . S
C303 C302 1.362 . S
H304 C310 0.930 . S
H305 C313 0.930 . S
H306 C314 0.930 . S
H307 C315 0.930 . S
H308 C318 0.930 . S
H309 C319 0.930 . S
C310 H304 0.930 . S
C310 C311 1.355 . S
C310 C312 1.415 . S
C311 C310 1.355 . S
C311 C313 1.419 . S
C312 C310 1.415 . S
C312 C317 1.425 . S
C312 C319 1.409 . S
C313 H305 0.930 . S
C313 C311 1.419 . S
C313 C314 1.362 . S
C314 H306 0.930 . S
C314 C313 1.362 . S
C314 C317 1.409 . S
C315 H307 0.930 . S
C315 C316 1.355 . S
C315 C317 1.415 . S
C316 C315 1.355 . S
C316 C318 1.419 . S
C317 C312 1.425 . S
C317 C314 1.409 . S
C317 C315 1.415 . S
C318 H308 0.930 . S
C318 C316 1.419 . S
C318 C319 1.362 . S
C319 H309 0.930 . S
C319 C312 1.409 . S
C319 C318 1.362 . S
H320 C326 0.930 . S
H321 C329 0.930 . S
H322 C330 0.930 . S
H323 C331 0.930 . S
H324 C334 0.930 . S
H325 C335 0.930 . S
C326 H320 0.930 . S
C326 C327 1.355 . S
C326 C328 1.415 . S
C327 C326 1.355 . S
C327 C329 1.419 . S
C328 C326 1.415 . S
C328 C333 1.425 . S
C328 C335 1.409 . S
C329 H321 0.930 . S
C329 C327 1.419 . S
C329 C330 1.362 . S
C330 H322 0.930 . S
C330 C329 1.362 . S
C330 C333 1.409 . S
C331 H323 0.930 . S
C331 C332 1.355 . S
C331 C333 1.415 . S
C332 C331 1.355 . S
C332 C334 1.419 . S
C333 C328 1.425 . S
C333 C330 1.409 . S
C333 C331 1.415 . S
C334 H324 0.930 . S
C334 C332 1.419 . S
C334 C335 1.362 . S
C335 H325 0.930 . S
C335 C328 1.409 . S
C335 C334 1.362 . S
H336 C342 0.930 . S
H337 C345 0.930 . S
H338 C346 0.930 . S
H339 C347 0.930 . S
H340 C350 0.930 . S
H341 C351 0.930 . S
C342 H336 0.930 . S
C342 C343 1.355 . S
C342 C344 1.415 . S
C343 C342 1.355 . S
C343 C345 1.419 . S
C344 C342 1.415 . S
C344 C349 1.425 . S
C344 C351 1.409 . S
C345 H337 0.930 . S
C345 C343 1.419 . S
C345 C346 1.362 . S
C346 H338 0.930 . S
C346 C345 1.362 . S
C346 C349 1.409 . S
C347 H339 0.930 . S
C347 C348 1.355 . S
C347 C349 1.415 . S
C348 C347 1.355 . S
C348 C350 1.419 . S
C349 C344 1.425 . S
C349 C346 1.409 . S
C349 C347 1.415 . S
C350 H340 0.930 . S
C350 C348 1.419 . S
C350 C351 1.362 . S
C351 H341 0.930 . S
C351 C344 1.409 . S
C351 C350 1.362 . S
H352 C358 0.930 . S
H353 C361 0.930 . S
H354 C362 0.930 . S
H355 C363 0.930 . S
H356 C366 0.930 . S
H357 C367 0.930 . S
C358 H352 0.930 . S
C358 C359 1.355 . S
C358 C360 1.415 . S
C359 C358 1.355 . S
C359 C361 1.419 . S
C360 C358 1.415 . S
C360 C365 1.425 . S
C360 C367 1.409 . S
C361 H353 0.930 . S
C361 C359 1.419 . S
C361 C362 1.362 . S
C362 H354 0.930 . S
C362 C361 1.362 . S
C362 C365 1.409 . S
C363 H355 0.930 . S
C363 C364 1.355 . S
C363 C365 1.415 . S
C364 C363 1.355 . S
C364 C366 1.419 . S
C365 C360 1.425 . S
C365 C362 1.409 . S
C365 C363 1.415 . S
C366 H356 0.930 . S
C366 C364 1.419 . S
C366 C367 1.362 . S
C367 H357 0.930 . S
C367 C360 1.409 . S
C367 C366 1.362 . S
H368 C374 0.930 . S
H369 C377 0.930 . S
H370 C378 0.930 . S
H371 C379 0.930 . S
H372 C382 0.930 . S
H373 C383 0.930 . S
C374 H368 0.930 . S
C374 C375 1.355 . S
C374 C376 1.415 . S
C375 C374 1.355 . S
C375 C377 1.419 . S
C376 C374 1.415 . S
C376 C381 1.425 . S
C376 C383 1.409 . S
C377 H369 0.930 . S
C377 C375 1.419 . S
C377 C378 1.362 . S
C378 H370 0.930 . S
C378 C377 1.362 . S
C378 C381 1.409 . S
C379 H371 0.930 . S
C379 C380 1.355 . S
C379 C381 1.415 . S
C380 C379 1.355 . S
C380 C382 1.419 . S
C381 C376 1.425 . S
C381 C378 1.409 . S
C381 C379 1.415 . S
C382 H372 0.930 . S
C382 C380 1.419 . S
C382 C383 1.362 . S
C383 H373 0.930 . S
C383 C376 1.409 . S
C383 C382 1.362 . S
H384 C390 0.930 . S
H385 C393 0.930 . S
H386 C394 0.930 . S
H387 C395 0.930 . S
H388 C398 0.930 . S
H389 C399 0.930 . S
C390 H384 0.930 . S
C390 C391 1.355 . S
C390 C392 1.415 . S
C391 C390 1.355 . S
C391 C393 1.419 . S
C392 C390 1.415 . S
C392 C397 1.425 . S
C392 C399 1.409 . S
C393 H385 0.930 . S
C393 C391 1.419 . S
C393 C394 1.362 . S
C394 H386 0.930 . S
C394 C393 1.362 . S
C394 C397 1.409 . S
C395 H387 0.930 . S
C395 C396 1.355 . S
C395 C397 1.415 . S
C396 C395 1.355 . S
C396 C398 1.419 . S
C397 C392 1.425 . S
C397 C394 1.409 . S
C397 C395 1.415 . S
C398 H388 0.930 . S
C398 C396 1.419 . S
C398 C399 1.362 . S
C399 H389 0.930 . S
C399 C392 1.409 . S
C399 C398 1.362 . S
H400 C406 0.930 . S
H401 C409 0.930 . S
H402 C410 0.930 . S
H403 C411 0.930 . S
H404 C414 0.930 . S
H405 C415 0.930 . S
C406 H400 0.930 . S
C406 C407 1.355 . S
C406 C408 1.415 . S
C407 C406 1.355 . S
C407 C409 1.419 . S
C408 C406 1.415 . S
C408 C413 1.425 . S
C408 C415 1.409 . S
C409 H401 0.930 . S
C409 C407 1.419 . S
C409 C410 1.362 . S
C410 H402 0.930 . S
C410 C409 1.362 . S
C410 C413 1.409 . S
C411 H403 0.930 . S
C411 C412 1.355 . S
C411 C413 1.415 . S
C412 C411 1.355 . S
C412 C414 1.419 . S
C413 C408 1.425 . S
C413 C410 1.409 . S
C413 C411 1.415 . S
C414 H404 0.930 . S
C414 C412 1.419 . S
C414 C415 1.362 . S
C415 H405 0.930 . S
C415 C408 1.409 . S
C415 C414 1.362 . S
H416 C422 0.930 . S
H417 C425 0.930 . S
H418 C426 0.930 . S
H419 C427 0.930 . S
H420 C430 0.930 . S
H421 C431 0.930 . S
C422 H416 0.930 . S
C422 C423 1.355 . S
C422 C424 1.415 . S
C423 C422 1.355 . S
C423 C425 1.419 . S
C424 C422 1.415 . S
C424 C429 1.425 . S
C424 C431 1.409 . S
C425 H417 0.930 . S
C425 C423 1.419 . S
C425 C426 1.362 . S
C426 H418 0.930 . S
C426 C425 1.362 . S
C426 C429 1.409 . S
C427 H419 0.930 . S
C427 C428 1.355 . S
C427 C429 1.415 . S
C428 C427 1.355 . S
C428 C430 1.419 . S
C429 C424 1.425 . S
C429 C426 1.409 . S
C429 C427 1.415 . S
C430 H420 0.930 . S
C430 C428 1.419 . S
C430 C431 1.362 . S
C431 H421 0.930 . S
C431 C424 1.409 . S
C431 C430 1.362 . S
H432 C438 0.930 . S
H433 C441 0.930 . S
H434 C442 0.930 . S
H435 C443 0.930 . S
H436 C446 0.930 . S
H437 C447 0.930 . S
C438 H432 0.930 . S
C438 C439 1.355 . S
C438 C440 1.415 . S
C439 C438 1.355 . S
C439 C441 1.419 . S
C440 C438 1.415 . S
C440 C445 1.425 . S
C440 C447 1.409 . S
C441 H433 0.930 . S
C441 C439 1.419 . S
C441 C442 1.362 . S
C442 H434 0.930 . S
C442 C441 1.362 . S
C442 C445 1.409 . S
C443 H435 0.930 . S
C443 C444 1.355 . S
C443 C445 1.415 . S
C444 C443 1.355 . S
C444 C446 1.419 . S
C445 C440 1.425 . S
C445 C442 1.409 . S
C445 C443 1.415 . S
C446 H436 0.930 . S
C446 C444 1.419 . S
C446 C447 1.362 . S
C447 H437 0.930 . S
C447 C440 1.409 . S
C447 C446 1.362 . S
H448 C454 0.930 . S
H449 C457 0.930 1_556 S
H450 C458 0.930 . S
H451 C459 0.930 . S
H452 C462 0.930 . S
H453 C463 0.930 . S
C454 H448 0.930 . S
C454 C455 1.355 . S
C454 C456 1.415 . S
C455 C454 1.355 . S
C455 C457 1.419 . S
C456 C454 1.415 . S
C456 C461 1.425 . S
C456 C463 1.409 . S
C457 H449 0.930 1_554 S
C457 C455 1.419 . S
C457 C458 1.362 . S
C458 H450 0.930 . S
C458 C457 1.362 . S
C458 C461 1.409 . S
C459 H451 0.930 . S
C459 C460 1.355 . S
C459 C461 1.415 . S
C460 C459 1.355 . S
C460 C462 1.419 . S
C461 C456 1.425 . S
C461 C458 1.409 . S
C461 C459 1.415 . S
C462 H452 0.930 . S
C462 C460 1.419 . S
C462 C463 1.362 . S
C463 H453 0.930 . S
C463 C456 1.409 . S
C463 C462 1.362 . S
H464 C470 0.930 . S
H465 C473 0.930 . S
H466 C474 0.930 . S
H467 C475 0.930 . S
H468 C478 0.930 . S
H469 C479 0.930 . S
C470 H464 0.930 . S
C470 C471 1.355 . S
C470 C472 1.415 . S
C471 C470 1.355 . S
C471 C473 1.419 . S
C472 C470 1.415 . S
C472 C477 1.425 . S
C472 C479 1.409 . S
C473 H465 0.930 . S
C473 C471 1.419 . S
C473 C474 1.362 . S
C474 H466 0.930 . S
C474 C473 1.362 . S
C474 C477 1.409 . S
C475 H467 0.930 . S
C475 C476 1.355 . S
C475 C477 1.415 . S
C476 C475 1.355 . S
C476 C478 1.419 . S
C477 C472 1.425 . S
C477 C474 1.409 . S
C477 C475 1.415 . S
C478 H468 0.930 . S
C478 C476 1.419 . S
C478 C479 1.362 . S
C479 H469 0.930 . S
C479 C472 1.409 . S
C479 C478 1.362 . S
H480 C486 0.930 . S
H481 C489 0.930 . S
H482 C490 0.930 . S
H483 C491 0.930 . S
H484 C494 0.930 . S
H485 C495 0.930 . S
C486 H480 0.930 . S
C486 C487 1.355 . S
C486 C488 1.415 . S
C487 C486 1.355 . S
C487 C489 1.419 . S
C488 C486 1.415 . S
C488 C493 1.425 . S
C488 C495 1.409 . S
C489 H481 0.930 . S
C489 C487 1.419 . S
C489 C490 1.362 . S
C490 H482 0.930 . S
C490 C489 1.362 . S
C490 C493 1.409 . S
C491 H483 0.930 . S
C491 C492 1.355 . S
C491 C493 1.415 . S
C492 C491 1.355 . S
C492 C494 1.419 . S
C493 C488 1.425 . S
C493 C490 1.409 . S
C493 C491 1.415 . S
C494 H484 0.930 . S
C494 C492 1.419 . S
C494 C495 1.362 . S
C495 H485 0.930 . S
C495 C488 1.409 . S
C495 C494 1.362 . S
H496 C502 0.930 . S
H497 C505 0.930 . S
H498 C506 0.930 . S
H499 C507 0.930 . S
H500 C510 0.930 . S
H501 C511 0.930 . S
C502 H496 0.930 . S
C502 C503 1.355 . S
C502 C504 1.415 . S
C503 C502 1.355 . S
C503 C505 1.419 . S
C504 C502 1.415 . S
C504 C509 1.425 . S
C504 C511 1.409 . S
C505 H497 0.930 . S
C505 C503 1.419 . S
C505 C506 1.362 . S
C506 H498 0.930 . S
C506 C505 1.362 . S
C506 C509 1.409 . S
C507 H499 0.930 . S
C507 C508 1.355 . S
C507 C509 1.415 . S
C508 C507 1.355 . S
C508 C510 1.419 . S
C509 C504 1.425 . S
C509 C506 1.409 . S
C509 C507 1.415 . S
C510 H500 0.930 . S
C510 C508 1.419 . S
C510 C511 1.362 . S
C511 H501 0.930 . S
C511 C504 1.409 . S
C511 C510 1.362 . S
H512 C518 0.930 . S
H513 C521 0.930 . S
H514 C522 0.930 . S
H515 C523 0.930 . S
H516 C526 0.930 . S
H517 C527 0.930 . S
C518 H512 0.930 . S
C518 C519 1.355 . S
C518 C520 1.415 . S
C519 C518 1.355 . S
C519 C521 1.419 . S
C520 C518 1.415 . S
C520 C525 1.425 . S
C520 C527 1.409 . S
C521 H513 0.930 . S
C521 C519 1.419 . S
C521 C522 1.362 . S
C522 H514 0.930 . S
C522 C521 1.362 . S
C522 C525 1.409 . S
C523 H515 0.930 . S
C523 C524 1.355 . S
C523 C525 1.415 . S
C524 C523 1.355 . S
C524 C526 1.419 . S
C525 C520 1.425 . S
C525 C522 1.409 . S
C525 C523 1.415 . S
C526 H516 0.930 . S
C526 C524 1.419 . S
C526 C527 1.362 . S
C527 H517 0.930 . S
C527 C520 1.409 . S
C527 C526 1.362 . S
H528 C534 0.930 . S
H529 C537 0.930 . S
H530 C538 0.930 . S
H531 C539 0.930 . S
H532 C542 0.930 . S
H533 C543 0.930 . S
C534 H528 0.930 . S
C534 C535 1.355 1_565 S
C534 C536 1.415 . S
C535 C534 1.355 1_545 S
C535 C537 1.419 . S
C536 C534 1.415 . S
C536 C541 1.425 1_565 S
C536 C543 1.409 . S
C537 H529 0.930 . S
C537 C535 1.419 . S
C537 C538 1.362 . S
C538 H530 0.930 . S
C538 C537 1.362 . S
C538 C541 1.409 . S
C539 H531 0.930 . S
C539 C540 1.355 1_545 S
C539 C541 1.415 . S
C540 C539 1.355 1_565 S
C540 C542 1.419 . S
C541 C536 1.425 1_545 S
C541 C538 1.409 . S
C541 C539 1.415 . S
C542 H532 0.930 . S
C542 C540 1.419 . S
C542 C543 1.362 . S
C543 H533 0.930 . S
C543 C536 1.409 . S
C543 C542 1.362 . S
H544 C550 0.930 . S
H545 C553 0.930 . S
H546 C554 0.930 . S
H547 C555 0.930 1_556 S
H548 C558 0.930 . S
H549 C559 0.930 . S
C550 H544 0.930 . S
C550 C551 1.355 1_655 S
C550 C552 1.413 1_655 S
C551 C550 1.355 1_455 S
C551 C553 1.419 1_554 S
C552 C550 1.413 1_455 S
C552 C557 1.431 1_545 S
C552 C559 1.405 1_445 S
C553 H545 0.930 . S
C553 C551 1.419 1_556 S
C553 C554 1.362 . S
C554 H546 0.930 . S
C554 C553 1.362 . S
C554 C557 1.409 1_546 S
C555 H547 0.930 1_554 S
C555 C556 1.355 . S
C555 C557 1.415 . S
C556 C555 1.355 . S
C556 C558 1.419 1_455 S
C557 C552 1.431 1_565 S
C557 C554 1.409 1_564 S
C557 C555 1.415 . S
C558 H548 0.930 . S
C558 C556 1.419 1_655 S
C558 C559 1.362 . S
C559 H549 0.930 . S
C559 C552 1.405 1_665 S
C559 C558 1.362 . S
H560 C566 0.930 . S
H561 C569 0.930 . S
H562 C570 0.930 . S
H563 C571 0.930 . S
H564 C574 0.930 . S
H565 C575 0.930 . S
C566 H560 0.930 . S
C566 C567 1.355 . S
C566 C568 1.415 . S
C567 C566 1.355 . S
C567 C569 1.419 . S
C568 C566 1.415 . S
C568 C573 1.425 1_455 S
C568 C575 1.409 1_455 S
C569 H561 0.930 . S
C569 C567 1.419 . S
C569 C570 1.362 . S
C570 H562 0.930 . S
C570 C569 1.362 . S
C570 C573 1.409 1_455 S
C571 H563 0.930 . S
C571 C572 1.355 . S
C571 C573 1.415 . S
C572 C571 1.355 . S
C572 C574 1.419 . S
C573 C568 1.425 1_655 S
C573 C570 1.409 1_655 S
C573 C571 1.415 . S
C574 H564 0.930 . S
C574 C572 1.419 . S
C574 C575 1.362 . S
C575 H565 0.930 . S
C575 C568 1.409 1_655 S
C575 C574 1.362 . S
H576 C582 0.930 . S
H577 C585 0.930 . S
H578 C586 0.930 . S
H579 C587 0.930 . S
H580 C590 0.930 . S
H581 C591 0.930 . S
C582 H576 0.930 . S
C582 C583 1.355 . S
C582 C584 1.415 . S
C583 C582 1.355 . S
C583 C585 1.419 . S
C584 C582 1.415 . S
C584 C589 1.425 . S
C584 C591 1.409 . S
C585 H577 0.930 . S
C585 C583 1.419 . S
C585 C586 1.362 . S
C586 H578 0.930 . S
C586 C585 1.362 . S
C586 C589 1.409 . S
C587 H579 0.930 . S
C587 C588 1.355 . S
C587 C589 1.415 . S
C588 C587 1.355 . S
C588 C590 1.419 . S
C589 C584 1.425 . S
C589 C586 1.409 . S
C589 C587 1.415 . S
C590 H580 0.930 . S
C590 C588 1.419 . S
C590 C591 1.362 . S
C591 H581 0.930 . S
C591 C584 1.409 . S
C591 C590 1.362 . S
C279 C20 1.017 . S
C284 C175 1.006 . S
C295 C54 0.968 . S
C300 C209 0.995 . S
C311 C88 1.020 . S
C316 C243 1.007 . S
C327 C141 1.005 . S
C332 C122 1.015 . S
C343 C172 1.122 . S
C348 C145 1.114 . S
C359 C179 1.122 . S
C364 C206 1.091 . S
C375 C240 1.127 . S
C380 C213 1.051 . S
C391 C247 1.093 . S
C396 C138 1.134 . S
C407 C224 1.013 . S
C412 C107 1.009 . S
C423 C258 1.023 . S
C428 C5 1.009 . S
C439 C39 0.996 . S
C444 C156 0.978 . S
C455 C190 1.000 . S
C460 C73 1.006 . S
C471 C104 1.091 . S
C476 C77 1.124 . S
C487 C2 1.091 . S
C492 C111 1.127 . S
C503 C36 1.127 . S
C508 C9 1.107 . S
C519 C43 1.053 . S
C524 C70 1.148 . S
C535 C169 1.281 . S
C540 C33 1.245 . S
C551 C203 1.237 1_455 S
C556 C67 1.287 . S
C567 C101 1.257 . S
C572 C237 1.270 . S
C583 C271 1.262 . S
C588 C135 1.261 . S
