# Generated by pormake.
# Topology oof, (8)-cn, num edge types: 1
# Building blocks:
#     Node 0, Type 0, BuildingBlock: TAGTUT_clean_sbu_1, # of connection points: 8
#     Node 1, Type 0, BuildingBlock: TAGTUT_clean_sbu_1, # of connection points: 8
#     Node 2, Type 0, BuildingBlock: TAGTUT_clean_sbu_1, # of connection points: 8
#     Node 3, Type 0, BuildingBlock: TAGTUT_clean_sbu_1, # of connection points: 8
#     Edge 4, Type (0, 0), BuildingBlock: TEMPAE_clean_linker_10, # of connection points: 2
#     Edge 5, Type (0, 0), BuildingBlock: TEMPAE_clean_linker_10, # of connection points: 2
#     Edge 6, Type (0, 0), BuildingBlock: TEMPAE_clean_linker_10, # of connection points: 2
#     Edge 7, Type (0, 0), BuildingBlock: TEMPAE_clean_linker_10, # of connection points: 2
#     Edge 8, Type (0, 0), BuildingBlock: TEMPAE_clean_linker_10, # of connection points: 2
#     Edge 9, Type (0, 0), BuildingBlock: TEMPAE_clean_linker_10, # of connection points: 2
#     Edge 10, Type (0, 0), BuildingBlock: TEMPAE_clean_linker_10, # of connection points: 2
#     Edge 11, Type (0, 0), BuildingBlock: TEMPAE_clean_linker_10, # of connection points: 2
#     Edge 12, Type (0, 0), BuildingBlock: TEMPAE_clean_linker_10, # of connection points: 2
#     Edge 13, Type (0, 0), BuildingBlock: TEMPAE_clean_linker_10, # of connection points: 2
#     Edge 14, Type (0, 0), BuildingBlock: TEMPAE_clean_linker_10, # of connection points: 2
#     Edge 15, Type (0, 0), BuildingBlock: TEMPAE_clean_linker_10, # of connection points: 2
#     Edge 16, Type (0, 0), BuildingBlock: TEMPAE_clean_linker_10, # of connection points: 2
#     Edge 17, Type (0, 0), BuildingBlock: TEMPAE_clean_linker_10, # of connection points: 2
#     Edge 18, Type (0, 0), BuildingBlock: TEMPAE_clean_linker_10, # of connection points: 2
#     Edge 19, Type (0, 0), BuildingBlock: TEMPAE_clean_linker_10, # of connection points: 2
# Relax obj value: 0.052
# Max RMSD: 0.155
# Mean RMSD: 0.155
data_MOF--net-oof--node1-TAGTUT_clean_sbu_1--edge1-TEMPAE_clean_linker_10
_symmetry_space_group_name_H-M    P1
_symmetry_Int_Tables_number       1
_symmetry_cell_setting            triclinic
loop_
_symmetry_equiv_pos_as_xyz
'x, y, z'
_cell_length_a     15.424547
_cell_length_b     56.169049
_cell_length_c     19.553799
_cell_angle_alpha  92.796167
_cell_angle_beta   102.46696
_cell_angle_gamma 103.32008
loop_
_atom_site_label
_atom_site_type_symbol
_atom_site_fract_x
_atom_site_fract_y
_atom_site_fract_z
_atom_type_partial_charge
C0 C 0.05017 0.10198 0.47191 0.0
C1 C 0.08221 0.06204 0.30488 0.0
C2 C 0.22293 0.15432 0.22197 0.0
Mg3 Mg 0.94169 0.08845 0.31625 0.0
O4 O 0.01638 0.11967 0.31322 0.0
Mg5 Mg 0.15157 0.12383 0.34484 0.0
Mg6 Mg 0.01272 0.13128 0.21854 0.0
O7 O 0.00516 0.14223 0.12315 0.0
Mg8 Mg 0.07538 0.17136 0.10332 0.0
Mg9 Mg 0.87052 0.13229 0.08095 0.0
C10 C 0.79687 0.11153 0.21866 0.0
C11 C 0.93923 0.08228 0.10407 0.0
O12 O 0.11956 0.11424 0.4514 0.0
O13 O 0.97546 0.09023 0.42909 0.0
O14 O 0.14486 0.08215 0.3227 0.0
O15 O 0.00135 0.06245 0.27371 0.0
O16 O 0.81367 0.09557 0.26114 0.0
O17 O 0.85985 0.12626 0.19757 0.0
C18 C 0.10677 0.17742 0.33981 0.0
O19 O 0.04826 0.17093 0.27993 0.0
O20 O 0.15161 0.16287 0.37006 0.0
O21 O 0.90658 0.13753 0.97228 0.0
O22 O 0.05609 0.15782 -0.0039 0.0
O23 O 0.85771 0.1724 0.09014 0.0
C24 C -0.01776 0.14549 0.95363 0.0
O25 O -0.00446 0.19851 0.10534 0.0
O26 O 0.20233 0.16954 0.17754 0.0
C27 C 0.90838 0.19428 0.09617 0.0
O28 O 0.16278 0.13613 0.23444 0.0
O29 O -0.01038 0.09218 0.16398 0.0
O30 O 0.88723 0.09351 0.06584 0.0
C31 C -0.00478 0.86858 0.02866 0.0
C32 C 0.0618 0.81781 0.88983 0.0
C33 C 0.19012 0.89647 0.76586 0.0
Mg34 Mg 0.90188 0.84266 0.87801 0.0
O35 O 0.97509 0.87171 0.8598 0.0
Mg36 Mg 0.11054 0.88022 0.90273 0.0
Mg37 Mg 0.97118 0.88192 0.76346 0.0
O38 O 0.97362 0.89345 0.66889 0.0
Mg39 Mg 0.05895 0.92356 0.6729 0.0
Mg40 Mg 0.84117 0.8943 0.63732 0.0
C41 C 0.76282 0.86241 0.75624 0.0
C42 C 0.85704 0.8373 0.64223 0.0
O43 O 0.06913 0.87765 0.00884 0.0
O44 O 0.92254 0.85501 0.98743 0.0
O45 O 0.1134 0.8396 0.90041 0.0
O46 O 0.97446 0.81378 0.87321 0.0
O47 O 0.78122 0.84686 0.80039 0.0
O48 O 0.82355 0.88115 0.74685 0.0
C49 C 0.05668 0.93153 0.87585 0.0
O50 O 0.0027 0.92054 0.81868 0.0
O51 O 0.10961 0.92068 0.91436 0.0
O52 O 0.87847 0.90381 0.53127 0.0
O53 O 0.02859 0.92336 0.56106 0.0
O54 O 0.86571 0.93761 0.65973 0.0
C55 C 0.95347 0.91454 0.51504 0.0
O56 O 0.00637 0.94947 0.72245 0.0
O57 O 0.18042 0.91356 0.72609 0.0
C58 C 0.93997 0.95457 0.68066 0.0
O59 O 0.12314 0.88307 0.78575 0.0
O60 O 0.91974 0.84235 0.70038 0.0
O61 O 0.82208 0.8538 0.61231 0.0
C62 C 0.54028 0.60175 0.47102 0.0
C63 C 0.57426 0.56199 0.30467 0.0
C64 C 0.71184 0.65413 0.22026 0.0
Mg65 Mg 0.43194 0.58791 0.31546 0.0
O66 O 0.50566 0.61924 0.31213 0.0
Mg67 Mg 0.64103 0.62383 0.34387 0.0
Mg68 Mg 0.50167 0.63071 0.21729 0.0
O69 O 0.49379 0.6415 0.12174 0.0
Mg70 Mg 0.56293 0.67082 0.10198 0.0
Mg71 Mg 0.35917 0.63118 0.07957 0.0
C72 C 0.28586 0.61042 0.21732 0.0
C73 C 0.43029 0.58156 0.10351 0.0
O74 O 0.60928 0.6142 0.45045 0.0
O75 O 0.4658 0.58981 0.42829 0.0
O76 O 0.63607 0.58227 0.32211 0.0
O77 O 0.49291 0.56205 0.27369 0.0
O78 O 0.30314 0.5946 0.26015 0.0
O79 O 0.3486 0.62521 0.19616 0.0
C80 C 0.59381 0.67712 0.33783 0.0
O81 O 0.53554 0.67039 0.27793 0.0
O82 O 0.63935 0.66279 0.36858 0.0
O83 O 0.39505 0.63649 0.97096 0.0
O84 O 0.54388 0.65737 -0.00529 0.0
O85 O 0.34472 0.67114 0.08832 0.0
C86 C 0.47048 0.64476 0.9523 0.0
O87 O 0.48181 0.69765 0.10431 0.0
O88 O 0.69064 0.66927 0.17573 0.0
C89 C 0.39452 0.69314 0.09469 0.0
O90 O 0.65197 0.636 0.23334 0.0
O91 O 0.48026 0.59163 0.16339 0.0
O92 O 0.37769 0.59256 0.06498 0.0
C93 C 0.50319 0.36902 0.03178 0.0
C94 C 0.57435 0.31907 0.89335 0.0
C95 C 0.69772 0.39789 0.76928 0.0
Mg96 Mg 0.41163 0.34284 0.88102 0.0
O97 O 0.48299 0.37224 0.86302 0.0
Mg98 Mg 0.61843 0.38142 0.90617 0.0
Mg99 Mg 0.47859 0.38242 0.7666 0.0
O100 O 0.48048 0.39391 0.67194 0.0
Mg101 Mg 0.56455 0.42421 0.67541 0.0
Mg102 Mg 0.34742 0.39414 0.64025 0.0
C103 C 0.27036 0.3621 0.75968 0.0
C104 C 0.36707 0.33749 0.64566 0.0
O105 O 0.57677 0.37853 0.01208 0.0
O106 O 0.4314 0.35507 0.99049 0.0
O107 O 0.62432 0.34105 0.9041 0.0
O108 O 0.48687 0.31452 0.87616 0.0
O109 O 0.28979 0.34662 0.80376 0.0
O110 O 0.33047 0.38091 0.74984 0.0
C111 C 0.56058 0.43219 0.87855 0.0
O112 O 0.50742 0.421 0.82132 0.0
O113 O 0.61437 0.42166 0.91741 0.0
O114 O 0.38412 0.40378 0.53409 0.0
O115 O 0.53375 0.42381 0.56351 0.0
O116 O 0.3694 0.43734 0.66254 0.0
C117 C 0.45871 0.41472 0.51764 0.0
O118 O 0.51032 0.44983 0.72461 0.0
O119 O 0.68716 0.41475 0.7288 0.0
C120 C 0.44295 0.45456 0.68299 0.0
O121 O 0.63109 0.38437 0.78928 0.0
O122 O 0.42969 0.34279 0.70384 0.0
O123 O 0.33085 0.35376 0.61556 0.0
C124 C 0.06002 0.125 0.88012 0.0
C125 C -0.01034 0.13654 0.88423 0.0
C126 C 0.07051 0.11624 0.81507 0.0
C127 C 0.01073 0.11983 0.7529 0.0
C128 C 0.93815 0.13102 0.75688 0.0
C129 C 0.92749 0.13893 0.82305 0.0
C130 C 0.14667 0.10366 0.81284 0.0
C131 C 0.87405 0.13545 0.69133 0.0
C132 C 0.10064 0.12654 0.58828 0.0
C133 C 0.05109 0.10454 0.54715 0.0
C134 C 0.08915 0.13154 0.65601 0.0
C135 C 0.02873 0.11376 0.68375 0.0
C136 C -0.01663 0.0908 0.64431 0.0
C137 C -0.00627 0.08664 0.57566 0.0
C138 C 0.13786 0.15638 0.69625 0.0
C139 C 0.92134 0.07103 0.67344 0.0
H140 H 0.10658 0.12268 0.9281 0.0
H141 H 0.87279 0.1477 0.82694 0.0
H142 H 0.11922 0.08578 0.77958 0.0
H143 H 0.19834 0.11517 0.78872 0.0
H144 H 0.18159 0.10031 0.86612 0.0
H145 H 0.81963 0.14372 0.70362 0.0
H146 H 0.9135 0.14797 0.66046 0.0
H147 H 0.84114 0.1179 0.65738 0.0
H148 H 0.14413 0.14054 0.56596 0.0
H149 H 0.95565 0.0696 0.54378 0.0
H150 H 0.17777 0.15413 0.7489 0.0
H151 H 0.08664 0.16655 0.70466 0.0
H152 H 0.18513 0.16775 0.66813 0.0
H153 H 0.95489 0.06846 0.72782 0.0
H154 H 0.9023 0.05312 0.64037 0.0
H155 H 0.85767 0.07668 0.67595 0.0
C156 C 0.0417 0.91348 0.4239 0.0
C157 C 0.95797 0.9137 0.44069 0.0
C158 C 0.04626 0.90834 0.35446 0.0
C159 C 0.96563 0.90417 0.30032 0.0
C160 C 0.88245 0.9065 0.3161 0.0
C161 C 0.87909 0.9108 0.38665 0.0
C162 C 0.13622 0.90588 0.33967 0.0
C163 C 0.79656 0.90352 0.25885 0.0
C164 C 0.00927 0.90272 0.11764 0.0
C165 C -0.01113 0.87735 0.09846 0.0
C166 C -0.0022 0.91185 0.18206 0.0
C167 C 0.96767 0.89508 0.22867 0.0
C168 C 0.947 0.86938 0.20928 0.0
C169 C 0.95617 0.8608 0.14342 0.0
C170 C 0.01643 0.93933 0.19949 0.0
C171 C 0.91775 0.85098 0.25883 0.0
H172 H 0.10307 0.91578 0.46552 0.0
H173 H 0.81469 0.91141 0.39959 0.0
H174 H 0.12901 0.88675 0.31755 0.0
H175 H 0.15532 0.91823 0.2999 0.0
H176 H 0.19305 0.91035 0.38773 0.0
H177 H 0.7413 0.90914 0.27883 0.0
H178 H 0.81149 0.91466 0.21551 0.0
H179 H 0.77112 0.88401 0.23627 0.0
H180 H 0.03195 0.91541 0.08129 0.0
H181 H 0.93964 0.84121 0.12757 0.0
H182 H 0.0594 0.94525 0.25358 0.0
H183 H 0.95051 0.94438 0.19731 0.0
H184 H 0.05109 0.94974 0.16194 0.0
H185 H 0.97198 0.85389 0.30824 0.0
H186 H 0.90438 0.83167 0.23555 0.0
H187 H 0.85469 0.85368 0.2732 0.0
C188 C 0.41498 0.63762 0.82183 0.0
C189 C 0.47841 0.63586 0.883 0.0
C190 C 0.42586 0.62971 0.75575 0.0
C191 C 0.50005 0.61916 0.75189 0.0
C192 C 0.56114 0.61615 0.8141 0.0
C193 C 0.55032 0.62492 0.87903 0.0
C194 C 0.36028 0.63347 0.69013 0.0
C195 C 0.63901 0.60422 0.81202 0.0
C196 C 0.48565 0.58607 0.57509 0.0
C197 C 0.54123 0.60428 0.54623 0.0
C198 C 0.47517 0.59011 0.64376 0.0
C199 C 0.51842 0.61326 0.68277 0.0
C200 C 0.57701 0.63139 0.65463 0.0
C201 C 0.58882 0.62651 0.58695 0.0
C202 C 0.41522 0.56999 0.67333 0.0
C203 C 0.62337 0.65644 0.6944 0.0
H204 H 0.35903 0.64589 0.82562 0.0
H205 H 0.59784 0.62305 0.92703 0.0
H206 H 0.39818 0.64618 0.65879 0.0
H207 H 0.32899 0.61576 0.65666 0.0
H208 H 0.30464 0.64123 0.70235 0.0
H209 H 0.67471 0.60116 0.86538 0.0
H210 H 0.61312 0.58628 0.77904 0.0
H211 H 0.68968 0.61604 0.78768 0.0
H212 H 0.44909 0.56885 0.54349 0.0
H213 H 0.63088 0.64075 0.5643 0.0
H214 H 0.35025 0.57498 0.67537 0.0
H215 H 0.4493 0.56781 0.72794 0.0
H216 H 0.39842 0.55203 0.64079 0.0
H217 H 0.57073 0.66604 0.70319 0.0
H218 H 0.66895 0.66817 0.66576 0.0
H219 H 0.66464 0.65454 0.74687 0.0
C220 C 0.51449 0.40304 0.12027 0.0
C221 C 0.49581 0.37769 0.10137 0.0
C222 C 0.50219 0.41206 0.18452 0.0
C223 C 0.47305 0.39522 0.23128 0.0
C224 C 0.454 0.36954 0.21213 0.0
C225 C 0.46393 0.36105 0.14642 0.0
C226 C 0.51904 0.4395 0.20168 0.0
C227 C 0.42581 0.35107 0.26183 0.0
C228 C 0.54691 0.41395 0.42636 0.0
C229 C 0.46297 0.41384 0.44324 0.0
C230 C 0.55151 0.40879 0.35694 0.0
C231 C 0.47066 0.40425 0.30288 0.0
C232 C 0.38712 0.40623 0.31871 0.0
C233 C 0.38378 0.41055 0.38926 0.0
C234 C 0.64185 0.4067 0.34211 0.0
C235 C 0.3009 0.40285 0.26153 0.0
H236 H 0.5365 0.41579 0.08385 0.0
H237 H 0.44871 0.34146 0.13078 0.0
H238 H 0.45258 0.44418 0.19995 0.0
H239 H 0.56241 0.44561 0.25557 0.0
H240 H 0.55249 0.45005 0.16376 0.0
H241 H 0.41343 0.33179 0.23867 0.0
H242 H 0.48018 0.35418 0.31121 0.0
H243 H 0.36244 0.35349 0.27623 0.0
H244 H 0.60851 0.41655 0.46792 0.0
H245 H 0.31919 0.4109 0.40225 0.0
H246 H 0.66018 0.41908 0.3022 0.0
H247 H 0.63565 0.38762 0.32016 0.0
H248 H 0.69874 0.41139 0.39012 0.0
H249 H 0.31502 0.41395 0.21796 0.0
H250 H 0.24522 0.40824 0.28149 0.0
H251 H 0.27646 0.38329 0.23929 0.0
C252 C 0.72947 0.13658 0.28616 0.0
C253 C 0.71947 0.12112 0.22517 0.0
C254 C 0.65733 0.14604 0.29741 0.0
C255 C 0.57372 0.13958 0.24635 0.0
C256 C 0.56415 0.1244 0.18355 0.0
C257 C 0.63811 0.11529 0.17354 0.0
C258 C 0.66976 0.16214 0.36477 0.0
C259 C 0.47535 0.1174 0.12789 0.0
C260 C 0.34458 0.13588 0.2851 0.0
C261 C 0.32015 0.15531 0.24961 0.0
C262 C 0.43132 0.13174 0.29025 0.0
C263 C 0.49417 0.14754 0.25959 0.0
C264 C 0.47451 0.16905 0.23266 0.0
C265 C 0.38723 0.17282 0.22837 0.0
C266 C 0.45149 0.10891 0.32112 0.0
C267 C 0.54193 0.18661 0.20162 0.0
H268 H 0.79387 0.14103 0.32554 0.0
H269 H 0.63211 0.10343 0.12644 0.0
H270 H 0.64144 0.17838 0.35408 0.0
H271 H 0.63186 0.15155 0.40021 0.0
H272 H 0.74299 0.16862 0.39298 0.0
H273 H 0.48056 0.10617 0.08127 0.0
H274 H 0.42004 0.10673 0.15035 0.0
H275 H 0.45479 0.13419 0.11023 0.0
H276 H 0.29379 0.12256 0.30307 0.0
H277 H 0.36944 0.18829 0.20268 0.0
H278 H 0.52146 0.11307 0.35566 0.0
H279 H 0.44824 0.09496 0.27785 0.0
H280 H 0.40151 0.10076 0.35202 0.0
H281 H 0.61038 0.1918 0.23857 0.0
H282 H 0.51941 0.20361 0.18875 0.0
H283 H 0.54982 0.17736 0.1527 0.0
C284 C 0.63868 0.87991 0.69306 0.0
C285 C 0.66648 0.8598 0.72178 0.0
C286 C 0.54789 0.88125 0.68475 0.0
C287 C 0.48545 0.86205 0.70591 0.0
C288 C 0.50959 0.83996 0.72293 0.0
C289 C 0.60059 0.839 0.73019 0.0
C290 C 0.52241 0.90462 0.66286 0.0
C291 C 0.44318 0.81874 0.74291 0.0
C292 C 0.34196 0.88797 0.80819 0.0
C293 C 0.26159 0.88481 0.75651 0.0
C294 C 0.41435 0.8792 0.7933 0.0
C295 C 0.40461 0.86736 0.72517 0.0
C296 C 0.32095 0.86288 0.67452 0.0
C297 C 0.25004 0.87176 0.69098 0.0
C298 C 0.50275 0.88378 0.84903 0.0
C299 C 0.30788 0.85034 0.60161 0.0
H300 H 0.68901 0.8957 0.68421 0.0
H301 H 0.62145 0.82292 0.7494 0.0
H302 H 0.4534 0.90043 0.62682 0.0
H303 H 0.52047 0.91602 0.71024 0.0
H304 H 0.57267 0.91562 0.63638 0.0
H305 H 0.46515 0.80133 0.7387 0.0
H306 H 0.43974 0.82276 0.79828 0.0
H307 H 0.37319 0.81607 0.70925 0.0
H308 H 0.34924 0.89802 0.85872 0.0
H309 H 0.18644 0.86939 0.6515 0.0
H310 H 0.55767 0.89692 0.83196 0.0
H311 H 0.52463 0.8664 0.85631 0.0
H312 H 0.49629 0.89148 0.9006 0.0
H313 H 0.33456 0.86414 0.56769 0.0
H314 H 0.23423 0.84211 0.57714 0.0
H315 H 0.34565 0.83574 0.60227 0.0
C316 C 0.87564 0.67188 0.22301 0.0
C317 C 0.8092 0.65499 0.24681 0.0
C318 C 0.96235 0.66778 0.2267 0.0
C319 C -0.01776 0.64658 0.25572 0.0
C320 C 0.92019 0.63146 0.28855 0.0
C321 C 0.83397 0.63592 0.28388 0.0
C322 C 0.02876 0.68459 0.19303 0.0
C323 C 0.94064 0.60901 0.32164 0.0
C324 C 0.12573 0.61321 0.17256 0.0
C325 C 0.20791 0.61986 0.22331 0.0
C326 C 0.05152 0.62234 0.18194 0.0
C327 C 0.06159 0.63831 0.24328 0.0
C328 C 0.14579 0.64546 0.29357 0.0
C329 C 0.21824 0.63602 0.28291 0.0
C330 C 0.96206 0.61458 0.12714 0.0
C331 C 0.15863 0.66237 0.35943 0.0
H332 H 0.85765 0.68707 0.19591 0.0
H333 H 0.78373 0.62308 0.30375 0.0
H334 H 0.09804 0.68994 0.22878 0.0
H335 H 0.03468 0.67467 0.14444 0.0
H336 H 0.00651 0.70153 0.17893 0.0
H337 H 0.89153 0.60147 0.35388 0.0
H338 H 0.93616 0.59449 0.27952 0.0
H339 H 0.01111 0.61336 0.3554 0.0
H340 H 0.11942 0.60079 0.12656 0.0
H341 H 0.2832 0.64106 0.32166 0.0
H342 H 0.94066 0.63103 0.1075 0.0
H343 H 0.90755 0.60432 0.15111 0.0
H344 H 0.96681 0.60271 0.08163 0.0
H345 H 0.13224 0.67878 0.34652 0.0
H346 H 0.2317 0.6686 0.38821 0.0
H347 H 0.11902 0.6526 0.39519 0.0
C348 C 0.75806 0.37256 0.69653 0.0
C349 C 0.77008 0.38646 0.7608 0.0
C350 C 0.82906 0.36352 0.68091 0.0
C351 C 0.9133 0.36869 0.73112 0.0
C352 C 0.92382 0.38156 0.79797 0.0
C353 C 0.85132 0.39048 0.81203 0.0
C354 C 0.81533 0.34993 0.60928 0.0
C355 C 0.01293 0.38693 0.85318 0.0
C356 C 0.10763 0.33939 0.73847 0.0
C357 C 0.17353 0.35959 0.7267 0.0
C358 C 0.01726 0.34082 0.7322 0.0
C359 C -0.00641 0.36274 0.71258 0.0
C360 C 0.05566 0.38121 0.68857 0.0
C361 C 0.14585 0.37943 0.69602 0.0
C362 C 0.95125 0.32037 0.75563 0.0
C363 C 0.03063 0.40436 0.66409 0.0
H364 H 0.69385 0.36957 0.65737 0.0
H365 H 0.859 0.40121 0.86156 0.0
H366 H 0.84341 0.36298 0.57406 0.0
H367 H 0.85172 0.33499 0.61216 0.0
H368 H 0.74151 0.34191 0.58491 0.0
H369 H 0.00725 0.39552 0.90391 0.0
H370 H 0.03519 0.36972 0.86287 0.0
H371 H 0.06722 0.3996 0.83414 0.0
H372 H 0.12821 0.32349 0.75941 0.0
H373 H 0.19604 0.39474 0.68465 0.0
H374 H 0.88087 0.31739 0.72238 0.0
H375 H 0.94897 0.3255 0.81065 0.0
H376 H 0.97268 0.30281 0.75399 0.0
H377 H 0.96103 0.39999 0.62889 0.0
H378 H 0.08022 0.41463 0.63579 0.0
H379 H 0.03036 0.41654 0.71045 0.0
C380 C 0.38114 0.29648 0.59734 0.0
C381 C 0.32706 0.31205 0.61188 0.0
C382 C 0.34128 0.27452 0.55197 0.0
C383 C 0.24563 0.26821 0.52091 0.0
C384 C 0.19075 0.28346 0.53822 0.0
C385 C 0.23202 0.30505 0.58351 0.0
C386 C 0.40171 0.25845 0.53554 0.0
C387 C 0.08862 0.27737 0.50731 0.0
C388 C 0.15371 0.2236 0.35287 0.0
C389 C 0.12317 0.20151 0.38043 0.0
C390 C 0.19292 0.24564 0.39792 0.0
C391 C 0.2018 0.24535 0.47176 0.0
C392 C 0.16678 0.22323 0.49891 0.0
C393 C 0.12784 0.20169 0.45296 0.0
C394 C 0.22811 0.26901 0.36697 0.0
C395 C 0.17383 0.22201 0.57691 0.0
H396 H 0.45462 0.302 0.6185 0.0
H397 H 0.18991 0.31706 0.59504 0.0
H398 H 0.3758 0.23946 0.5482 0.0
H399 H 0.39971 0.25738 0.47839 0.0
H400 H 0.47403 0.26549 0.56538 0.0
H401 H 0.05555 0.29102 0.52712 0.0
H402 H 0.07499 0.27675 0.44908 0.0
H403 H 0.05576 0.25892 0.52005 0.0
H404 H 0.15188 0.22337 0.2971 0.0
H405 H 0.10483 0.18451 0.47436 0.0
H406 H 0.3034 0.27551 0.38731 0.0
H407 H 0.19726 0.2837 0.38338 0.0
H408 H 0.21268 0.26643 0.30852 0.0
H409 H 0.247 0.22649 0.60538 0.0
H410 H 0.13974 0.20355 0.58904 0.0
H411 H 0.14242 0.23582 0.59776 0.0
C412 C 0.61122 0.27769 0.88259 0.0
C413 C 0.61906 0.29989 0.92188 0.0
C414 C 0.65797 0.26036 0.9119 0.0
C415 C 0.71087 0.26515 0.98254 0.0
C416 C 0.71587 0.28723 0.02273 0.0
C417 C 0.67114 0.30442 0.99161 0.0
C418 C 0.65159 0.23707 0.86731 0.0
C419 C 0.76846 0.29275 0.09876 0.0
C420 C 0.77027 0.2117 0.07983 0.0
C421 C 0.86221 0.21433 0.0771 0.0
C422 C 0.7201 0.22804 0.04929 0.0
C423 C 0.76254 0.24741 0.01461 0.0
C424 C 0.85584 0.25048 0.01301 0.0
C425 C 0.90473 0.23409 0.04487 0.0
C426 C 0.62184 0.22453 0.05461 0.0
C427 C 0.90333 0.27065 0.97569 0.0
H428 H 0.57066 0.27418 0.82882 0.0
H429 H 0.67588 0.32146 0.02242 0.0
H430 H 0.72121 0.23579 0.86363 0.0
H431 H 0.6219 0.22083 0.89241 0.0
H432 H 0.6088 0.23619 0.81325 0.0
H433 H 0.76228 0.31031 0.12357 0.0
H434 H 0.74307 0.27765 0.12945 0.0
H435 H 0.84209 0.29386 0.10246 0.0
H436 H 0.7368 0.19649 0.10461 0.0
H437 H 0.97513 0.23604 0.04127 0.0
H438 H 0.57766 0.22764 0.00475 0.0
H439 H 0.61865 0.23811 0.0966 0.0
H440 H 0.59309 0.20581 0.06784 0.0
H441 H 0.86562 0.26892 0.91978 0.0
H442 H 0.97536 0.27015 0.97743 0.0
H443 H 0.90322 0.28889 4e-05 0.0
C444 C 0.61185 0.70162 0.44997 0.0
C445 C 0.60934 0.70128 0.37773 0.0
C446 C 0.6508 0.72319 0.49583 0.0
C447 C 0.68817 0.74515 0.46888 0.0
C448 C 0.68143 0.74527 0.39523 0.0
C449 C 0.6421 0.72321 0.3503 0.0
C450 C 0.65552 0.72216 0.57361 0.0
C451 C 0.71923 0.76845 0.36445 0.0
C452 C 0.72087 0.8054 0.57877 0.0
C453 C 0.81568 0.81192 0.60828 0.0
C454 C 0.67882 0.78376 0.53382 0.0
C455 C 0.73266 0.76798 0.51797 0.0
C456 C 0.82794 0.77382 0.55018 0.0
C457 C 0.86859 0.79582 0.59523 0.0
C458 C 0.57709 0.77819 0.50168 0.0
C459 C 0.88723 0.75719 0.53531 0.0
H460 H 0.58733 0.68453 0.47129 0.0
H461 H 0.64205 0.72283 0.2948 0.0
H462 H 0.72819 0.72624 0.6031 0.0
H463 H 0.62488 0.73633 0.59351 0.0
H464 H 0.61944 0.70388 0.58551 0.0
H465 H 0.70508 0.76578 0.30606 0.0
H466 H 0.68921 0.78344 0.38 0.0
H467 H 0.79445 0.77458 0.38573 0.0
H468 H 0.67958 0.81778 0.58922 0.0
H469 H 0.94189 0.80094 0.61735 0.0
H470 H 0.54245 0.75989 0.51424 0.0
H471 H 0.5648 0.77749 0.44349 0.0
H472 H 0.54474 0.79216 0.52067 0.0
H473 H 0.85935 0.73834 0.5481 0.0
H474 H 0.9593 0.76389 0.56598 0.0
H475 H 0.88658 0.75589 0.47839 0.0
C476 C 0.39094 0.73351 0.04665 0.0
C477 C 0.34737 0.71302 0.07567 0.0
C478 C 0.34199 0.74989 0.01477 0.0
C479 C 0.24737 0.74599 0.01285 0.0
C480 C 0.20368 0.72585 0.0443 0.0
C481 C 0.2541 0.70962 0.0752 0.0
C482 C 0.39098 0.77096 0.98118 0.0
C483 C 0.10376 0.72137 0.04568 0.0
C484 C 0.15112 0.80222 0.99012 0.0
C485 C 0.10448 0.79839 0.91896 0.0
C486 C 0.19547 0.78502 0.02155 0.0
C487 C 0.19542 0.76362 0.9804 0.0
C488 C 0.14754 0.75947 0.90838 0.0
C489 C 0.10136 0.77683 0.87856 0.0
C490 C 0.2428 0.78984 0.09883 0.0
C491 C 0.14614 0.73686 0.86287 0.0
H492 H 0.46249 0.73612 0.04563 0.0
H493 H 0.21976 0.69387 0.09756 0.0
H494 H 0.35678 0.76969 0.92456 0.0
H495 H 0.38729 0.78873 0.00625 0.0
H496 H 0.4642 0.77116 0.98574 0.0
H497 H 0.07511 0.70219 0.05559 0.0
H498 H 0.09662 0.734 0.08843 0.0
H499 H 0.06201 0.72506 -0.00452 0.0
H500 H 0.15236 0.81881 0.02157 0.0
H501 H 0.06508 0.77389 0.82362 0.0
H502 H 0.31733 0.79156 0.10555 0.0
H503 H 0.21603 0.77411 0.12699 0.0
H504 H 0.23311 0.80688 0.12409 0.0
H505 H 0.21726 0.73631 0.86163 0.0
H506 H 0.10616 0.73631 0.80802 0.0
H507 H 0.11597 0.72008 0.88566 0.0
C508 C 0.94897 0.03822 0.10281 0.0
C509 C 0.95612 0.06014 0.07106 0.0
C510 C 0.96716 0.01753 0.0705 0.0
C511 C -0.00401 0.0192 0.00625 0.0
C512 C 0.00476 0.04156 0.97492 0.0
C513 C -0.01652 0.06161 0.00722 0.0
C514 C 0.95554 0.99395 0.10524 0.0
C515 C 0.03774 0.04446 0.90771 0.0
C516 C 0.11594 0.9711 0.95546 0.0
C517 C 0.04596 0.95545 0.90369 0.0
C518 C 0.1015 0.99227 0.98816 0.0
C519 C 0.01409 0.99742 0.97036 0.0
C520 C 0.9435 0.98175 0.91776 0.0
C521 C 0.96073 0.96122 0.88434 0.0
C522 C 0.17936 0.00893 0.04237 0.0
C523 C 0.8486 0.98613 0.89859 0.0
H524 H 0.9272 0.03706 0.15186 0.0
H525 H -0.0097 0.07877 0.98328 0.0
H526 H 0.91752 0.97797 0.0661 0.0
H527 H 0.02392 0.99095 0.12831 0.0
H528 H 0.91867 0.99443 0.14803 0.0
H529 H 0.10652 0.04068 0.91524 0.0
H530 H -0.00901 0.03094 0.8646 0.0
H531 H 0.04194 0.06321 0.89079 0.0
H532 H 0.18179 0.96668 0.97084 0.0
H533 H 0.90571 0.949 0.84529 0.0
H534 H 0.16336 0.00818 0.09497 0.0
H535 H 0.18825 0.02828 0.02982 0.0
H536 H 0.24514 1.00366 0.04544 0.0
H537 H 0.82005 0.98602 0.94609 0.0
H538 H 0.80086 0.97199 0.85737 0.0
H539 H 0.85169 1.00447 0.87928 0.0
C540 C 0.12452 0.0509 0.42667 0.0
C541 C 0.08617 0.04309 0.35489 0.0
C542 C 0.10077 0.03623 0.47891 0.0
C543 C 0.04249 0.01233 0.45916 0.0
C544 C 0.01252 1.00318 0.3869 0.0
C545 C 0.03228 0.01895 0.33543 0.0
C546 C 0.13512 0.04687 0.55515 0.0
C547 C 0.95991 0.97681 0.36413 0.0
C548 C 0.05421 0.97437 0.61412 0.0
C549 C 0.96616 0.97109 0.62721 0.0
C550 C 0.07671 0.98582 0.5562 0.0
C551 C 0.01397 0.99714 0.5147 0.0
C552 C 0.92723 0.99563 0.53062 0.0
C553 C 0.90295 0.98172 0.58482 0.0
C554 C 0.16786 0.98528 0.5401 0.0
C555 C 0.8599 0.00868 0.49084 0.0
H556 H 0.16679 0.06943 0.44258 0.0
H557 H 0.00306 0.01274 0.2801 0.0
H558 H 0.18931 0.03823 0.5816 0.0
H559 H 0.1648 0.06705 0.56069 0.0
H560 H 0.07898 0.04306 0.58337 0.0
H561 H 0.94289 0.97243 0.30604 0.0
H562 H 0.00151 0.96441 0.38863 0.0
H563 H 0.89548 0.97282 0.38256 0.0
H564 H 0.10493 0.96662 0.64654 0.0
H565 H 0.83521 0.97951 0.59477 0.0
H566 H 0.2232 0.99923 0.57681 0.0
H567 H 0.17059 0.98884 0.48522 0.0
H568 H 0.18276 0.96708 0.5489 0.0
H569 H 0.80831 0.01105 0.52072 0.0
H570 H 0.82293 0.9977 0.43993 0.0
H571 H 0.89542 0.02705 0.47931 0.0
C572 C 0.44255 0.5377 0.10279 0.0
C573 C 0.44867 0.55958 0.07086 0.0
C574 C 0.46252 0.51721 0.07097 0.0
C575 C 0.49215 0.51906 0.00707 0.0
C576 C 0.49988 0.54138 0.97555 0.0
C577 C 0.47677 0.56121 0.00734 0.0
C578 C 0.4519 0.49365 0.10582 0.0
C579 C 0.53367 0.54446 0.90873 0.0
C580 C 0.61665 0.47182 0.95802 0.0
C581 C 0.54788 0.45593 0.90598 0.0
C582 C 0.60032 0.49279 0.99027 0.0
C583 C 0.51222 0.49748 0.97171 0.0
C584 C 0.44284 0.48157 0.91884 0.0
C585 C 0.46194 0.46125 0.8859 0.0
C586 C 0.67694 0.50973 0.04479 0.0
C587 C 0.34727 0.48547 0.89885 0.0
H588 H 0.42028 0.53643 0.15163 0.0
H589 H 0.48282 0.57834 0.98328 0.0
H590 H 0.41446 0.47762 0.06668 0.0
H591 H 0.52059 0.49085 0.12892 0.0
H592 H 0.41489 0.49399 0.14857 0.0
H593 H 0.53748 0.56321 0.89188 0.0
H594 H 0.60276 0.54086 0.91669 0.0
H595 H 0.48762 0.53091 0.8654 0.0
H596 H 0.68303 0.46774 0.97396 0.0
H597 H 0.40783 0.44884 0.84662 0.0
H598 H 0.66024 0.5089 0.09714 0.0
H599 H 0.68481 0.52904 0.03202 0.0
H600 H 0.74343 0.5048 0.04852 0.0
H601 H 0.318 0.4852 0.94601 0.0
H602 H 0.30064 0.47117 0.85754 0.0
H603 H 0.34939 0.50375 0.87931 0.0
C604 C 0.55534 0.47477 0.6155 0.0
C605 C 0.46749 0.47111 0.62915 0.0
C606 C 0.57643 0.48624 0.55723 0.0
C607 C 0.51227 0.49719 0.51589 0.0
C608 C 0.42564 0.49529 0.53235 0.0
C609 C 0.40291 0.48137 0.58694 0.0
C610 C 0.66762 0.48613 0.54058 0.0
C611 C 0.35665 0.50789 0.49272 0.0
C612 C 0.61852 0.55115 0.42657 0.0
C613 C 0.57981 0.54316 0.35492 0.0
C614 C 0.59624 0.53648 0.47918 0.0
C615 C 0.53919 0.51241 0.45994 0.0
C616 C 0.50889 0.50313 0.38778 0.0
C617 C 0.52707 0.51889 0.33595 0.0
C618 C 0.63076 0.54728 0.55527 0.0
C619 C 0.45739 0.47665 0.36552 0.0
H620 H 0.60705 0.4673 0.64777 0.0
H621 H 0.33528 0.47885 0.5973 0.0
H622 H 0.66935 0.48959 0.48548 0.0
H623 H 0.72253 0.50035 0.57676 0.0
H624 H 0.68406 0.46812 0.54968 0.0
H625 H 0.3065 0.51052 0.52374 0.0
H626 H 0.39068 0.52611 0.47916 0.0
H627 H 0.31811 0.49641 0.44294 0.0
H628 H 0.65986 0.5698 0.44212 0.0
H629 H 0.49751 0.51254 0.28074 0.0
H630 H 0.68622 0.53903 0.58153 0.0
H631 H 0.57516 0.54318 0.58396 0.0
H632 H 0.65886 0.56753 0.56043 0.0
H633 H 0.49912 0.46444 0.39107 0.0
H634 H 0.44147 0.47206 0.30755 0.0
H635 H 0.39239 0.47263 0.38316 0.0
loop_
_geom_bond_atom_site_label_1
_geom_bond_atom_site_label_2
_geom_bond_distance
_geom_bond_site_symmetry_2
_ccdc_geom_bond_type
C0 O12 1.241 . S
C0 O13 1.280 1_455 S
C1 O14 1.277 . S
C1 O15 1.245 1_455 S
C2 O26 1.247 . S
C2 O28 1.289 . S
Mg3 O4 1.926 1_655 S
Mg3 O13 1.984 . S
Mg3 O15 1.988 . S
Mg3 O16 2.061 . S
O4 Mg3 1.926 1_455 S
O4 Mg5 1.986 . S
O4 Mg6 1.917 . S
Mg5 O4 1.986 . S
Mg5 O12 2.042 . S
Mg5 O14 2.041 . S
Mg5 O20 2.038 . S
Mg5 O28 2.238 . S
Mg6 O4 1.917 . S
Mg6 O7 1.917 . S
Mg6 O17 2.106 1_455 S
Mg6 O19 2.079 . S
Mg6 O28 2.106 . S
Mg6 O29 2.079 1_455 S
O7 Mg6 1.917 . S
O7 Mg8 1.926 . S
O7 Mg9 1.986 1_455 S
Mg8 O7 1.926 . S
Mg8 O22 1.984 . S
Mg8 O25 1.988 . S
Mg8 O26 2.061 . S
Mg9 O7 1.986 1_655 S
Mg9 O17 2.238 . S
Mg9 O21 2.042 . S
Mg9 O23 2.041 . S
Mg9 O30 2.038 . S
C10 O16 1.247 . S
C10 O17 1.289 . S
C11 O29 1.245 . S
C11 O30 1.274 . S
O12 C0 1.241 . S
O12 Mg5 2.042 . S
O13 C0 1.280 1_655 S
O13 Mg3 1.984 . S
O14 C1 1.277 . S
O14 Mg5 2.041 . S
O15 C1 1.245 1_655 S
O15 Mg3 1.988 . S
O16 Mg3 2.061 . S
O16 C10 1.247 . S
O17 Mg6 2.106 1_655 S
O17 Mg9 2.238 . S
O17 C10 1.289 . S
C18 O19 1.245 . S
C18 O20 1.274 . S
O19 Mg6 2.079 . S
O19 C18 1.245 . S
O20 Mg5 2.038 . S
O20 C18 1.274 . S
O21 Mg9 2.042 . S
O21 C24 1.241 1_654 S
O22 Mg8 1.984 . S
O22 C24 1.280 1_554 S
O23 Mg9 2.041 . S
O23 C27 1.277 . S
C24 O21 1.241 1_456 S
C24 O22 1.280 1_556 S
O25 Mg8 1.988 . S
O25 C27 1.245 1_455 S
O26 C2 1.247 . S
O26 Mg8 2.061 . S
C27 O23 1.277 . S
C27 O25 1.245 1_655 S
O28 C2 1.289 . S
O28 Mg5 2.238 . S
O28 Mg6 2.106 . S
O29 Mg6 2.079 1_655 S
O29 C11 1.245 . S
O30 Mg9 2.038 . S
O30 C11 1.274 . S
C31 O43 1.241 1_554 S
C31 O44 1.280 1_454 S
C32 O45 1.277 . S
C32 O46 1.245 1_455 S
C33 O57 1.247 . S
C33 O59 1.289 . S
Mg34 O35 1.926 1_655 S
Mg34 O44 1.984 . S
Mg34 O46 1.988 . S
Mg34 O47 2.061 . S
O35 Mg34 1.926 1_455 S
O35 Mg36 1.986 . S
O35 Mg37 1.917 . S
Mg36 O35 1.986 . S
Mg36 O43 2.042 . S
Mg36 O45 2.041 . S
Mg36 O51 2.038 . S
Mg36 O59 2.238 . S
Mg37 O35 1.917 . S
Mg37 O38 1.917 . S
Mg37 O48 2.106 1_455 S
Mg37 O50 2.079 . S
Mg37 O59 2.106 . S
Mg37 O60 2.079 1_455 S
O38 Mg37 1.917 . S
O38 Mg39 1.926 . S
O38 Mg40 1.986 1_455 S
Mg39 O38 1.926 . S
Mg39 O53 1.984 . S
Mg39 O56 1.988 . S
Mg39 O57 2.061 . S
Mg40 O38 1.986 1_655 S
Mg40 O48 2.238 . S
Mg40 O52 2.042 . S
Mg40 O54 2.041 . S
Mg40 O61 2.038 . S
C41 O47 1.247 . S
C41 O48 1.289 . S
C42 O60 1.245 . S
C42 O61 1.274 . S
O43 C31 1.241 1_556 S
O43 Mg36 2.042 . S
O44 C31 1.280 1_656 S
O44 Mg34 1.984 . S
O45 C32 1.277 . S
O45 Mg36 2.041 . S
O46 C32 1.245 1_655 S
O46 Mg34 1.988 . S
O47 Mg34 2.061 . S
O47 C41 1.247 . S
O48 Mg37 2.106 1_655 S
O48 Mg40 2.238 . S
O48 C41 1.289 . S
C49 O50 1.245 . S
C49 O51 1.274 . S
O50 Mg37 2.079 . S
O50 C49 1.245 . S
O51 Mg36 2.038 . S
O51 C49 1.274 . S
O52 Mg40 2.042 . S
O52 C55 1.241 1_655 S
O53 Mg39 1.984 . S
O53 C55 1.280 . S
O54 Mg40 2.041 . S
O54 C58 1.277 . S
C55 O52 1.241 1_455 S
C55 O53 1.280 . S
O56 Mg39 1.988 . S
O56 C58 1.245 1_455 S
O57 C33 1.247 . S
O57 Mg39 2.061 . S
C58 O54 1.277 . S
C58 O56 1.245 1_655 S
O59 C33 1.289 . S
O59 Mg36 2.238 . S
O59 Mg37 2.106 . S
O60 Mg37 2.079 1_655 S
O60 C42 1.245 . S
O61 Mg40 2.038 . S
O61 C42 1.274 . S
C62 O74 1.241 . S
C62 O75 1.280 . S
C63 O76 1.277 . S
C63 O77 1.245 . S
C64 O88 1.247 . S
C64 O90 1.289 . S
Mg65 O66 1.926 . S
Mg65 O75 1.984 . S
Mg65 O77 1.988 . S
Mg65 O78 2.061 . S
O66 Mg65 1.926 . S
O66 Mg67 1.986 . S
O66 Mg68 1.917 . S
Mg67 O66 1.986 . S
Mg67 O74 2.042 . S
Mg67 O76 2.041 . S
Mg67 O82 2.038 . S
Mg67 O90 2.238 . S
Mg68 O66 1.917 . S
Mg68 O69 1.917 . S
Mg68 O79 2.106 . S
Mg68 O81 2.079 . S
Mg68 O90 2.106 . S
Mg68 O91 2.079 . S
O69 Mg68 1.917 . S
O69 Mg70 1.926 . S
O69 Mg71 1.986 . S
Mg70 O69 1.926 . S
Mg70 O84 1.984 . S
Mg70 O87 1.988 . S
Mg70 O88 2.061 . S
Mg71 O69 1.986 . S
Mg71 O79 2.238 . S
Mg71 O83 2.042 . S
Mg71 O85 2.041 . S
Mg71 O92 2.038 . S
C72 O78 1.247 . S
C72 O79 1.289 . S
C73 O91 1.245 . S
C73 O92 1.274 . S
O74 C62 1.241 . S
O74 Mg67 2.042 . S
O75 C62 1.280 . S
O75 Mg65 1.984 . S
O76 C63 1.277 . S
O76 Mg67 2.041 . S
O77 C63 1.245 . S
O77 Mg65 1.988 . S
O78 Mg65 2.061 . S
O78 C72 1.247 . S
O79 Mg68 2.106 . S
O79 Mg71 2.238 . S
O79 C72 1.289 . S
C80 O81 1.245 . S
C80 O82 1.274 . S
O81 Mg68 2.079 . S
O81 C80 1.245 . S
O82 Mg67 2.038 . S
O82 C80 1.274 . S
O83 Mg71 2.042 . S
O83 C86 1.241 1_554 S
O84 Mg70 1.984 . S
O84 C86 1.280 1_554 S
O85 Mg71 2.041 . S
O85 C89 1.277 . S
C86 O83 1.241 1_556 S
C86 O84 1.280 1_556 S
O87 Mg70 1.988 . S
O87 C89 1.245 . S
O88 C64 1.247 . S
O88 Mg70 2.061 . S
C89 O85 1.277 . S
C89 O87 1.245 . S
O90 C64 1.289 . S
O90 Mg67 2.238 . S
O90 Mg68 2.106 . S
O91 Mg68 2.079 . S
O91 C73 1.245 . S
O92 Mg71 2.038 . S
O92 C73 1.274 . S
C93 O105 1.241 1_554 S
C93 O106 1.280 1_554 S
C94 O107 1.277 . S
C94 O108 1.245 . S
C95 O119 1.247 . S
C95 O121 1.289 . S
Mg96 O97 1.926 . S
Mg96 O106 1.984 . S
Mg96 O108 1.988 . S
Mg96 O109 2.061 . S
O97 Mg96 1.926 . S
O97 Mg98 1.986 . S
O97 Mg99 1.917 . S
Mg98 O97 1.986 . S
Mg98 O105 2.042 . S
Mg98 O107 2.041 . S
Mg98 O113 2.038 . S
Mg98 O121 2.238 . S
Mg99 O97 1.917 . S
Mg99 O100 1.917 . S
Mg99 O110 2.106 . S
Mg99 O112 2.079 . S
Mg99 O121 2.106 . S
Mg99 O122 2.079 . S
O100 Mg99 1.917 . S
O100 Mg101 1.926 . S
O100 Mg102 1.986 . S
Mg101 O100 1.926 . S
Mg101 O115 1.984 . S
Mg101 O118 1.988 . S
Mg101 O119 2.061 . S
Mg102 O100 1.986 . S
Mg102 O110 2.238 . S
Mg102 O114 2.042 . S
Mg102 O116 2.041 . S
Mg102 O123 2.038 . S
C103 O109 1.247 . S
C103 O110 1.289 . S
C104 O122 1.245 . S
C104 O123 1.274 . S
O105 C93 1.241 1_556 S
O105 Mg98 2.042 . S
O106 C93 1.280 1_556 S
O106 Mg96 1.984 . S
O107 C94 1.277 . S
O107 Mg98 2.041 . S
O108 C94 1.245 . S
O108 Mg96 1.988 . S
O109 Mg96 2.061 . S
O109 C103 1.247 . S
O110 Mg99 2.106 . S
O110 Mg102 2.238 . S
O110 C103 1.289 . S
C111 O112 1.245 . S
C111 O113 1.274 . S
O112 Mg99 2.079 . S
O112 C111 1.245 . S
O113 Mg98 2.038 . S
O113 C111 1.274 . S
O114 Mg102 2.042 . S
O114 C117 1.241 . S
O115 Mg101 1.984 . S
O115 C117 1.280 . S
O116 Mg102 2.041 . S
O116 C120 1.277 . S
C117 O114 1.241 . S
C117 O115 1.280 . S
O118 Mg101 1.988 . S
O118 C120 1.245 . S
O119 C95 1.247 . S
O119 Mg101 2.061 . S
C120 O116 1.277 . S
C120 O118 1.245 . S
O121 C95 1.289 . S
O121 Mg98 2.238 . S
O121 Mg99 2.106 . S
O122 Mg99 2.079 . S
O122 C104 1.245 . S
O123 Mg102 2.038 . S
O123 C104 1.274 . S
C124 C125 1.391 . S
C124 C126 1.394 . S
C124 H140 0.931 . S
C125 C124 1.391 . S
C125 C129 1.376 1_455 S
C126 C124 1.394 . S
C126 C127 1.369 1_455 S
C126 C130 1.531 . S
C127 C126 1.369 1_655 S
C127 C128 1.410 . S
C127 C135 1.503 . S
C128 C127 1.410 . S
C128 C129 1.392 . S
C128 C131 1.511 . S
C129 C125 1.376 1_655 S
C129 C128 1.392 . S
C129 H141 0.929 . S
C130 C126 1.531 . S
C130 H142 0.960 . S
C130 H143 0.962 . S
C130 H144 0.960 . S
C131 C128 1.511 . S
C131 H145 0.961 . S
C131 H146 0.961 . S
C131 H147 0.961 . S
C132 C133 1.370 1_455 S
C132 C134 1.363 . S
C132 H148 0.931 . S
C133 C132 1.370 1_655 S
C133 C137 1.408 . S
C134 C132 1.363 . S
C134 C135 1.370 1_455 S
C134 C138 1.524 . S
C135 C127 1.503 . S
C135 C134 1.370 1_655 S
C135 C136 1.403 . S
C136 C135 1.403 . S
C136 C137 1.404 . S
C136 C139 1.539 . S
C137 C133 1.408 . S
C137 C136 1.404 . S
C137 H149 0.930 . S
C138 C134 1.524 . S
C138 H150 0.956 . S
C138 H151 0.961 . S
C138 H152 0.961 . S
C139 C136 1.539 . S
C139 H153 0.958 . S
C139 H154 0.961 . S
C139 H155 0.960 . S
H140 C124 0.931 . S
H141 C129 0.929 . S
H142 C130 0.960 . S
H143 C130 0.962 . S
H144 C130 0.960 . S
H145 C131 0.961 . S
H146 C131 0.961 . S
H147 C131 0.961 . S
H148 C132 0.931 . S
H149 C137 0.930 . S
H150 C138 0.956 . S
H151 C138 0.961 . S
H152 C138 0.961 . S
H153 C139 0.958 . S
H154 C139 0.961 . S
H155 C139 0.960 . S
C156 C157 1.391 . S
C156 C158 1.394 . S
C156 H172 0.931 . S
C157 C156 1.391 . S
C157 C161 1.376 1_455 S
C158 C156 1.394 . S
C158 C159 1.369 . S
C158 C162 1.531 . S
C159 C158 1.369 . S
C159 C160 1.410 1_455 S
C159 C167 1.503 . S
C160 C159 1.410 1_655 S
C160 C161 1.392 . S
C160 C163 1.511 . S
C161 C157 1.376 1_655 S
C161 C160 1.392 . S
C161 H173 0.929 . S
C162 C158 1.531 . S
C162 H174 0.960 . S
C162 H175 0.962 . S
C162 H176 0.960 . S
C163 C160 1.511 . S
C163 H177 0.961 . S
C163 H178 0.961 . S
C163 H179 0.961 . S
C164 C165 1.369 1_455 S
C164 C166 1.363 . S
C164 H180 0.931 . S
C165 C164 1.369 1_655 S
C165 C169 1.411 . S
C166 C164 1.363 . S
C166 C167 1.370 . S
C166 C170 1.524 . S
C167 C159 1.503 . S
C167 C166 1.370 . S
C167 C168 1.403 1_455 S
C168 C167 1.403 1_655 S
C168 C169 1.404 . S
C168 C171 1.539 . S
C169 C165 1.411 . S
C169 C168 1.404 . S
C169 H181 0.930 . S
C170 C166 1.524 . S
C170 H182 0.956 . S
C170 H183 0.961 . S
C170 H184 0.961 . S
C171 C168 1.539 . S
C171 H185 0.958 . S
C171 H186 0.961 . S
C171 H187 0.960 . S
H172 C156 0.931 . S
H173 C161 0.929 . S
H174 C162 0.960 . S
H175 C162 0.962 . S
H176 C162 0.960 . S
H177 C163 0.961 . S
H178 C163 0.961 . S
H179 C163 0.961 . S
H180 C164 0.931 . S
H181 C169 0.930 . S
H182 C170 0.956 . S
H183 C170 0.961 . S
H184 C170 0.961 . S
H185 C171 0.958 . S
H186 C171 0.961 . S
H187 C171 0.960 . S
C188 C189 1.391 . S
C188 C190 1.394 . S
C188 H204 0.931 . S
C189 C188 1.391 . S
C189 C193 1.376 . S
C190 C188 1.394 . S
C190 C191 1.369 . S
C190 C194 1.531 . S
C191 C190 1.369 . S
C191 C192 1.410 . S
C191 C199 1.503 . S
C192 C191 1.410 . S
C192 C193 1.392 . S
C192 C195 1.511 . S
C193 C189 1.376 . S
C193 C192 1.392 . S
C193 H205 0.929 . S
C194 C190 1.531 . S
C194 H206 0.960 . S
C194 H207 0.962 . S
C194 H208 0.960 . S
C195 C192 1.511 . S
C195 H209 0.961 . S
C195 H210 0.961 . S
C195 H211 0.961 . S
C196 C197 1.370 . S
C196 C198 1.363 . S
C196 H212 0.931 . S
C197 C196 1.370 . S
C197 C201 1.408 . S
C198 C196 1.363 . S
C198 C199 1.370 . S
C198 C202 1.524 . S
C199 C191 1.503 . S
C199 C198 1.370 . S
C199 C200 1.403 . S
C200 C199 1.403 . S
C200 C201 1.404 . S
C200 C203 1.539 . S
C201 C197 1.408 . S
C201 C200 1.404 . S
C201 H213 0.930 . S
C202 C198 1.524 . S
C202 H214 0.956 . S
C202 H215 0.961 . S
C202 H216 0.961 . S
C203 C200 1.539 . S
C203 H217 0.958 . S
C203 H218 0.961 . S
C203 H219 0.960 . S
H204 C188 0.931 . S
H205 C193 0.929 . S
H206 C194 0.960 . S
H207 C194 0.962 . S
H208 C194 0.960 . S
H209 C195 0.961 . S
H210 C195 0.961 . S
H211 C195 0.961 . S
H212 C196 0.931 . S
H213 C201 0.930 . S
H214 C202 0.956 . S
H215 C202 0.961 . S
H216 C202 0.961 . S
H217 C203 0.958 . S
H218 C203 0.961 . S
H219 C203 0.960 . S
C220 C221 1.391 . S
C220 C222 1.394 . S
C220 H236 0.931 . S
C221 C220 1.391 . S
C221 C225 1.376 . S
C222 C220 1.394 . S
C222 C223 1.369 . S
C222 C226 1.531 . S
C223 C222 1.369 . S
C223 C224 1.410 . S
C223 C231 1.503 . S
C224 C223 1.410 . S
C224 C225 1.392 . S
C224 C227 1.511 . S
C225 C221 1.376 . S
C225 C224 1.392 . S
C225 H237 0.929 . S
C226 C222 1.531 . S
C226 H238 0.960 . S
C226 H239 0.962 . S
C226 H240 0.960 . S
C227 C224 1.511 . S
C227 H241 0.961 . S
C227 H242 0.961 . S
C227 H243 0.961 . S
C228 C229 1.370 . S
C228 C230 1.363 . S
C228 H244 0.931 . S
C229 C228 1.370 . S
C229 C233 1.408 . S
C230 C228 1.363 . S
C230 C231 1.370 . S
C230 C234 1.524 . S
C231 C223 1.503 . S
C231 C230 1.370 . S
C231 C232 1.403 . S
C232 C231 1.403 . S
C232 C233 1.404 . S
C232 C235 1.539 . S
C233 C229 1.408 . S
C233 C232 1.404 . S
C233 H245 0.930 . S
C234 C230 1.524 . S
C234 H246 0.956 . S
C234 H247 0.961 . S
C234 H248 0.961 . S
C235 C232 1.539 . S
C235 H249 0.958 . S
C235 H250 0.961 . S
C235 H251 0.960 . S
H236 C220 0.931 . S
H237 C225 0.929 . S
H238 C226 0.960 . S
H239 C226 0.962 . S
H240 C226 0.960 . S
H241 C227 0.961 . S
H242 C227 0.961 . S
H243 C227 0.961 . S
H244 C228 0.931 . S
H245 C233 0.930 . S
H246 C234 0.956 . S
H247 C234 0.961 . S
H248 C234 0.961 . S
H249 C235 0.958 . S
H250 C235 0.961 . S
H251 C235 0.960 . S
C252 C253 1.391 . S
C252 C254 1.394 . S
C252 H268 0.931 . S
C253 C252 1.391 . S
C253 C257 1.376 . S
C254 C252 1.394 . S
C254 C255 1.369 . S
C254 C258 1.531 . S
C255 C254 1.369 . S
C255 C256 1.410 . S
C255 C263 1.503 . S
C256 C255 1.410 . S
C256 C257 1.392 . S
C256 C259 1.511 . S
C257 C253 1.376 . S
C257 C256 1.392 . S
C257 H269 0.929 . S
C258 C254 1.531 . S
C258 H270 0.960 . S
C258 H271 0.962 . S
C258 H272 0.960 . S
C259 C256 1.511 . S
C259 H273 0.961 . S
C259 H274 0.961 . S
C259 H275 0.961 . S
C260 C261 1.370 . S
C260 C262 1.363 . S
C260 H276 0.931 . S
C261 C260 1.370 . S
C261 C265 1.408 . S
C262 C260 1.363 . S
C262 C263 1.370 . S
C262 C266 1.524 . S
C263 C255 1.503 . S
C263 C262 1.370 . S
C263 C264 1.403 . S
C264 C263 1.403 . S
C264 C265 1.404 . S
C264 C267 1.539 . S
C265 C261 1.408 . S
C265 C264 1.404 . S
C265 H277 0.930 . S
C266 C262 1.524 . S
C266 H278 0.956 . S
C266 H279 0.961 . S
C266 H280 0.961 . S
C267 C264 1.539 . S
C267 H281 0.958 . S
C267 H282 0.961 . S
C267 H283 0.960 . S
H268 C252 0.931 . S
H269 C257 0.929 . S
H270 C258 0.960 . S
H271 C258 0.962 . S
H272 C258 0.960 . S
H273 C259 0.961 . S
H274 C259 0.961 . S
H275 C259 0.961 . S
H276 C260 0.931 . S
H277 C265 0.930 . S
H278 C266 0.956 . S
H279 C266 0.961 . S
H280 C266 0.961 . S
H281 C267 0.958 . S
H282 C267 0.961 . S
H283 C267 0.960 . S
C284 C285 1.391 . S
C284 C286 1.394 . S
C284 H300 0.931 . S
C285 C284 1.391 . S
C285 C289 1.376 . S
C286 C284 1.394 . S
C286 C287 1.369 . S
C286 C290 1.531 . S
C287 C286 1.369 . S
C287 C288 1.410 . S
C287 C295 1.503 . S
C288 C287 1.410 . S
C288 C289 1.392 . S
C288 C291 1.511 . S
C289 C285 1.376 . S
C289 C288 1.392 . S
C289 H301 0.929 . S
C290 C286 1.531 . S
C290 H302 0.960 . S
C290 H303 0.962 . S
C290 H304 0.960 . S
C291 C288 1.511 . S
C291 H305 0.961 . S
C291 H306 0.961 . S
C291 H307 0.961 . S
C292 C293 1.370 . S
C292 C294 1.363 . S
C292 H308 0.931 . S
C293 C292 1.370 . S
C293 C297 1.408 . S
C294 C292 1.363 . S
C294 C295 1.370 . S
C294 C298 1.524 . S
C295 C287 1.503 . S
C295 C294 1.370 . S
C295 C296 1.403 . S
C296 C295 1.403 . S
C296 C297 1.404 . S
C296 C299 1.539 . S
C297 C293 1.408 . S
C297 C296 1.404 . S
C297 H309 0.930 . S
C298 C294 1.524 . S
C298 H310 0.956 . S
C298 H311 0.961 . S
C298 H312 0.961 . S
C299 C296 1.539 . S
C299 H313 0.958 . S
C299 H314 0.961 . S
C299 H315 0.960 . S
H300 C284 0.931 . S
H301 C289 0.929 . S
H302 C290 0.960 . S
H303 C290 0.962 . S
H304 C290 0.960 . S
H305 C291 0.961 . S
H306 C291 0.961 . S
H307 C291 0.961 . S
H308 C292 0.931 . S
H309 C297 0.930 . S
H310 C298 0.956 . S
H311 C298 0.961 . S
H312 C298 0.961 . S
H313 C299 0.958 . S
H314 C299 0.961 . S
H315 C299 0.960 . S
C316 C317 1.391 . S
C316 C318 1.394 . S
C316 H332 0.931 . S
C317 C316 1.391 . S
C317 C321 1.376 . S
C318 C316 1.394 . S
C318 C319 1.369 . S
C318 C322 1.531 1_655 S
C319 C318 1.369 . S
C319 C320 1.410 . S
C319 C327 1.503 1_655 S
C320 C319 1.410 . S
C320 C321 1.392 . S
C320 C323 1.511 . S
C321 C317 1.376 . S
C321 C320 1.392 . S
C321 H333 0.929 . S
C322 C318 1.531 1_455 S
C322 H334 0.960 . S
C322 H335 0.962 . S
C322 H336 0.960 1_455 S
C323 C320 1.511 . S
C323 H337 0.961 . S
C323 H338 0.961 . S
C323 H339 0.961 . S
C324 C325 1.370 . S
C324 C326 1.363 . S
C324 H340 0.931 . S
C325 C324 1.370 . S
C325 C329 1.408 . S
C326 C324 1.363 . S
C326 C327 1.370 . S
C326 C330 1.524 . S
C327 C319 1.503 1_455 S
C327 C326 1.370 . S
C327 C328 1.403 . S
C328 C327 1.403 . S
C328 C329 1.404 . S
C328 C331 1.539 . S
C329 C325 1.408 . S
C329 C328 1.404 . S
C329 H341 0.930 . S
C330 C326 1.524 . S
C330 H342 0.956 1_455 S
C330 H343 0.961 1_455 S
C330 H344 0.961 . S
C331 C328 1.539 . S
C331 H345 0.958 . S
C331 H346 0.961 . S
C331 H347 0.960 . S
H332 C316 0.931 . S
H333 C321 0.929 . S
H334 C322 0.960 . S
H335 C322 0.962 . S
H336 C322 0.960 1_655 S
H337 C323 0.961 . S
H338 C323 0.961 . S
H339 C323 0.961 . S
H340 C324 0.931 . S
H341 C329 0.930 . S
H342 C330 0.956 1_655 S
H343 C330 0.961 1_655 S
H344 C330 0.961 . S
H345 C331 0.958 . S
H346 C331 0.961 . S
H347 C331 0.960 . S
C348 C349 1.391 . S
C348 C350 1.394 . S
C348 H364 0.931 . S
C349 C348 1.391 . S
C349 C353 1.376 . S
C350 C348 1.394 . S
C350 C351 1.369 . S
C350 C354 1.531 . S
C351 C350 1.369 . S
C351 C352 1.410 . S
C351 C359 1.503 1_655 S
C352 C351 1.410 . S
C352 C353 1.392 . S
C352 C355 1.511 1_655 S
C353 C349 1.376 . S
C353 C352 1.392 . S
C353 H365 0.929 . S
C354 C350 1.531 . S
C354 H366 0.960 . S
C354 H367 0.962 . S
C354 H368 0.960 . S
C355 C352 1.511 1_455 S
C355 H369 0.961 1_455 S
C355 H370 0.961 . S
C355 H371 0.961 . S
C356 C357 1.370 . S
C356 C358 1.363 . S
C356 H372 0.931 . S
C357 C356 1.370 . S
C357 C361 1.408 . S
C358 C356 1.363 . S
C358 C359 1.370 . S
C358 C362 1.524 . S
C359 C351 1.503 1_455 S
C359 C358 1.370 . S
C359 C360 1.403 . S
C360 C359 1.403 . S
C360 C361 1.404 . S
C360 C363 1.539 . S
C361 C357 1.408 . S
C361 C360 1.404 . S
C361 H373 0.930 . S
C362 C358 1.524 . S
C362 H374 0.956 1_455 S
C362 H375 0.962 . S
C362 H376 0.961 . S
C363 C360 1.539 . S
C363 H377 0.958 . S
C363 H378 0.961 . S
C363 H379 0.960 . S
H364 C348 0.931 . S
H365 C353 0.929 . S
H366 C354 0.960 . S
H367 C354 0.962 . S
H368 C354 0.960 . S
H369 C355 0.961 1_655 S
H370 C355 0.961 . S
H371 C355 0.961 . S
H372 C356 0.931 . S
H373 C361 0.930 . S
H374 C362 0.956 1_655 S
H375 C362 0.962 . S
H376 C362 0.961 . S
H377 C363 0.958 . S
H378 C363 0.961 . S
H379 C363 0.960 . S
C380 C381 1.391 . S
C380 C382 1.394 . S
C380 H396 0.931 . S
C381 C380 1.391 . S
C381 C385 1.376 . S
C382 C380 1.394 . S
C382 C383 1.369 . S
C382 C386 1.531 . S
C383 C382 1.369 . S
C383 C384 1.410 . S
C383 C391 1.503 . S
C384 C383 1.410 . S
C384 C385 1.392 . S
C384 C387 1.511 . S
C385 C381 1.376 . S
C385 C384 1.392 . S
C385 H397 0.929 . S
C386 C382 1.531 . S
C386 H398 0.960 . S
C386 H399 0.962 . S
C386 H400 0.960 . S
C387 C384 1.511 . S
C387 H401 0.961 . S
C387 H402 0.961 . S
C387 H403 0.961 . S
C388 C389 1.370 . S
C388 C390 1.363 . S
C388 H404 0.931 . S
C389 C388 1.370 . S
C389 C393 1.408 . S
C390 C388 1.363 . S
C390 C391 1.370 . S
C390 C394 1.524 . S
C391 C383 1.503 . S
C391 C390 1.370 . S
C391 C392 1.403 . S
C392 C391 1.403 . S
C392 C393 1.404 . S
C392 C395 1.539 . S
C393 C389 1.408 . S
C393 C392 1.404 . S
C393 H405 0.930 . S
C394 C390 1.524 . S
C394 H406 0.956 . S
C394 H407 0.961 . S
C394 H408 0.961 . S
C395 C392 1.539 . S
C395 H409 0.958 . S
C395 H410 0.961 . S
C395 H411 0.960 . S
H396 C380 0.931 . S
H397 C385 0.929 . S
H398 C386 0.960 . S
H399 C386 0.962 . S
H400 C386 0.960 . S
H401 C387 0.961 . S
H402 C387 0.961 . S
H403 C387 0.961 . S
H404 C388 0.931 . S
H405 C393 0.930 . S
H406 C394 0.956 . S
H407 C394 0.961 . S
H408 C394 0.961 . S
H409 C395 0.958 . S
H410 C395 0.961 . S
H411 C395 0.960 . S
C412 C413 1.391 . S
C412 C414 1.394 . S
C412 H428 0.931 . S
C413 C412 1.391 . S
C413 C417 1.376 . S
C414 C412 1.394 . S
C414 C415 1.369 . S
C414 C418 1.531 . S
C415 C414 1.369 . S
C415 C416 1.410 1_556 S
C415 C423 1.503 1_556 S
C416 C415 1.410 1_554 S
C416 C417 1.392 1_554 S
C416 C419 1.511 . S
C417 C413 1.376 . S
C417 C416 1.392 1_556 S
C417 H429 0.929 1_556 S
C418 C414 1.531 . S
C418 H430 0.960 . S
C418 H431 0.962 . S
C418 H432 0.960 . S
C419 C416 1.511 . S
C419 H433 0.961 . S
C419 H434 0.961 . S
C419 H435 0.961 . S
C420 C421 1.370 . S
C420 C422 1.363 . S
C420 H436 0.931 . S
C421 C420 1.370 . S
C421 C425 1.408 . S
C422 C420 1.363 . S
C422 C423 1.370 . S
C422 C426 1.524 . S
C423 C415 1.503 1_554 S
C423 C422 1.370 . S
C423 C424 1.403 . S
C424 C423 1.403 . S
C424 C425 1.404 . S
C424 C427 1.539 1_554 S
C425 C421 1.408 . S
C425 C424 1.404 . S
C425 H437 0.930 1_655 S
C426 C422 1.524 . S
C426 H438 0.956 . S
C426 H439 0.961 . S
C426 H440 0.961 . S
C427 C424 1.539 1_556 S
C427 H441 0.958 . S
C427 H442 0.961 1_655 S
C427 H443 0.960 . S
H428 C412 0.931 . S
H429 C417 0.929 1_554 S
H430 C418 0.960 . S
H431 C418 0.962 . S
H432 C418 0.960 . S
H433 C419 0.961 . S
H434 C419 0.961 . S
H435 C419 0.961 . S
H436 C420 0.931 . S
H437 C425 0.930 1_455 S
H438 C426 0.956 . S
H439 C426 0.961 . S
H440 C426 0.961 . S
H441 C427 0.958 . S
H442 C427 0.961 1_455 S
H443 C427 0.960 . S
C444 C445 1.391 . S
C444 C446 1.394 . S
C444 H460 0.931 . S
C445 C444 1.391 . S
C445 C449 1.376 . S
C446 C444 1.394 . S
C446 C447 1.369 . S
C446 C450 1.531 . S
C447 C446 1.369 . S
C447 C448 1.410 . S
C447 C455 1.503 . S
C448 C447 1.410 . S
C448 C449 1.392 . S
C448 C451 1.511 . S
C449 C445 1.376 . S
C449 C448 1.392 . S
C449 H461 0.929 . S
C450 C446 1.531 . S
C450 H462 0.960 . S
C450 H463 0.962 . S
C450 H464 0.960 . S
C451 C448 1.511 . S
C451 H465 0.961 . S
C451 H466 0.961 . S
C451 H467 0.961 . S
C452 C453 1.370 . S
C452 C454 1.363 . S
C452 H468 0.931 . S
C453 C452 1.370 . S
C453 C457 1.408 . S
C454 C452 1.363 . S
C454 C455 1.370 . S
C454 C458 1.524 . S
C455 C447 1.503 . S
C455 C454 1.370 . S
C455 C456 1.403 . S
C456 C455 1.403 . S
C456 C457 1.404 . S
C456 C459 1.539 . S
C457 C453 1.408 . S
C457 C456 1.404 . S
C457 H469 0.930 1_655 S
C458 C454 1.524 . S
C458 H470 0.956 . S
C458 H471 0.961 . S
C458 H472 0.961 . S
C459 C456 1.539 . S
C459 H473 0.958 . S
C459 H474 0.961 1_655 S
C459 H475 0.960 . S
H460 C444 0.931 . S
H461 C449 0.929 . S
H462 C450 0.960 . S
H463 C450 0.962 . S
H464 C450 0.960 . S
H465 C451 0.961 . S
H466 C451 0.961 . S
H467 C451 0.961 . S
H468 C452 0.931 . S
H469 C457 0.930 1_455 S
H470 C458 0.956 . S
H471 C458 0.961 . S
H472 C458 0.961 . S
H473 C459 0.958 . S
H474 C459 0.961 1_455 S
H475 C459 0.960 . S
C476 C477 1.391 . S
C476 C478 1.394 1_554 S
C476 H492 0.931 . S
C477 C476 1.391 . S
C477 C481 1.376 . S
C478 C476 1.394 1_556 S
C478 C479 1.369 1_556 S
C478 C482 1.531 . S
C479 C478 1.369 1_554 S
C479 C480 1.410 . S
C479 C487 1.503 1_554 S
C480 C479 1.410 . S
C480 C481 1.392 . S
C480 C483 1.511 . S
C481 C477 1.376 . S
C481 C480 1.392 . S
C481 H493 0.929 . S
C482 C478 1.531 . S
C482 H494 0.960 . S
C482 H495 0.962 . S
C482 H496 0.960 . S
C483 C480 1.511 . S
C483 H497 0.961 . S
C483 H498 0.961 . S
C483 H499 0.961 . S
C484 C485 1.370 . S
C484 C486 1.363 1_556 S
C484 H500 0.931 1_556 S
C485 C484 1.370 . S
C485 C489 1.408 . S
C486 C484 1.363 1_554 S
C486 C487 1.370 1_554 S
C486 C490 1.524 . S
C487 C479 1.503 1_556 S
C487 C486 1.370 1_556 S
C487 C488 1.403 . S
C488 C487 1.403 . S
C488 C489 1.404 . S
C488 C491 1.539 . S
C489 C485 1.408 . S
C489 C488 1.404 . S
C489 H501 0.930 . S
C490 C486 1.524 . S
C490 H502 0.956 . S
C490 H503 0.961 . S
C490 H504 0.961 . S
C491 C488 1.539 . S
C491 H505 0.958 . S
C491 H506 0.961 . S
C491 H507 0.960 . S
H492 C476 0.931 . S
H493 C481 0.929 . S
H494 C482 0.960 . S
H495 C482 0.962 . S
H496 C482 0.960 . S
H497 C483 0.961 . S
H498 C483 0.961 . S
H499 C483 0.961 . S
H500 C484 0.931 1_554 S
H501 C489 0.930 . S
H502 C490 0.956 . S
H503 C490 0.961 . S
H504 C490 0.961 . S
H505 C491 0.958 . S
H506 C491 0.961 . S
H507 C491 0.960 . S
C508 C509 1.391 . S
C508 C510 1.394 . S
C508 H524 0.931 . S
C509 C508 1.391 . S
C509 C513 1.376 . S
C510 C508 1.394 . S
C510 C511 1.369 . S
C510 C514 1.531 1_545 S
C511 C510 1.369 . S
C511 C512 1.410 1_554 S
C511 C519 1.503 1_644 S
C512 C511 1.410 1_556 S
C512 C513 1.392 1_556 S
C512 C515 1.511 1_655 S
C513 C509 1.376 . S
C513 C512 1.392 1_554 S
C513 H525 0.929 . S
C514 C510 1.531 1_565 S
C514 H526 0.960 . S
C514 H527 0.962 . S
C514 H528 0.960 . S
C515 C512 1.511 1_455 S
C515 H529 0.961 . S
C515 H530 0.961 . S
C515 H531 0.961 1_455 S
C516 C517 1.370 . S
C516 C518 1.363 . S
C516 H532 0.931 . S
C517 C516 1.370 . S
C517 C521 1.408 1_455 S
C518 C516 1.363 . S
C518 C519 1.370 . S
C518 C522 1.524 1_566 S
C519 C511 1.503 1_466 S
C519 C518 1.370 . S
C519 C520 1.403 1_455 S
C520 C519 1.403 1_655 S
C520 C521 1.404 . S
C520 C523 1.539 . S
C521 C517 1.408 1_655 S
C521 C520 1.404 . S
C521 H533 0.930 . S
C522 C518 1.524 1_544 S
C522 H534 0.960 . S
C522 H535 0.961 . S
C522 H536 0.961 1_545 S
C523 C520 1.539 . S
C523 H537 0.958 . S
C523 H538 0.961 . S
C523 H539 0.960 . S
H524 C508 0.931 . S
H525 C513 0.929 . S
H526 C514 0.960 . S
H527 C514 0.962 . S
H528 C514 0.960 . S
H529 C515 0.961 . S
H530 C515 0.961 . S
H531 C515 0.961 1_655 S
H532 C516 0.931 . S
H533 C521 0.930 . S
H534 C522 0.960 . S
H535 C522 0.961 . S
H536 C522 0.961 1_565 S
H537 C523 0.958 . S
H538 C523 0.961 . S
H539 C523 0.960 . S
C540 C541 1.391 . S
C540 C542 1.394 . S
C540 H556 0.931 . S
C541 C540 1.391 . S
C541 C545 1.376 . S
C542 C540 1.394 . S
C542 C543 1.369 . S
C542 C546 1.531 1_455 S
C543 C542 1.369 . S
C543 C544 1.410 . S
C543 C551 1.503 1_445 S
C544 C543 1.410 . S
C544 C545 1.392 . S
C544 C547 1.511 1_545 S
C545 C541 1.376 . S
C545 C544 1.392 . S
C545 H557 0.929 . S
C546 C542 1.531 1_655 S
C546 H558 0.960 . S
C546 H559 0.962 1_655 S
C546 H560 0.960 . S
C547 C544 1.511 1_565 S
C547 H561 0.961 . S
C547 H562 0.961 . S
C547 H563 0.961 1_455 S
C548 C549 1.370 1_455 S
C548 C550 1.363 . S
C548 H564 0.931 . S
C549 C548 1.370 1_655 S
C549 C553 1.408 . S
C550 C548 1.363 . S
C550 C551 1.370 1_455 S
C550 C554 1.521 1_565 S
C551 C543 1.503 1_665 S
C551 C550 1.370 1_655 S
C551 C552 1.403 . S
C552 C551 1.403 . S
C552 C553 1.404 . S
C552 C555 1.539 . S
C553 C549 1.408 . S
C553 C552 1.404 . S
C553 H565 0.930 . S
C554 C550 1.521 1_545 S
C554 H566 0.965 . S
C554 H567 0.960 . S
C554 H568 0.955 1_545 S
C555 C552 1.539 . S
C555 H569 0.958 . S
C555 H570 0.961 . S
C555 H571 0.960 . S
H556 C540 0.931 . S
H557 C545 0.929 . S
H558 C546 0.960 . S
H559 C546 0.962 1_455 S
H560 C546 0.960 . S
H561 C547 0.961 . S
H562 C547 0.961 . S
H563 C547 0.961 1_655 S
H564 C548 0.931 . S
H565 C553 0.930 . S
H566 C554 0.965 . S
H567 C554 0.960 . S
H568 C554 0.955 1_565 S
H569 C555 0.958 . S
H570 C555 0.961 . S
H571 C555 0.960 . S
C572 C573 1.391 . S
C572 C574 1.394 . S
C572 H588 0.931 . S
C573 C572 1.391 . S
C573 C577 1.376 . S
C574 C572 1.394 . S
C574 C575 1.369 . S
C574 C578 1.531 . S
C575 C574 1.369 . S
C575 C576 1.410 . S
C575 C583 1.503 1_554 S
C576 C575 1.410 . S
C576 C577 1.392 . S
C576 C579 1.511 1_554 S
C577 C573 1.376 . S
C577 C576 1.392 . S
C577 H589 0.929 . S
C578 C574 1.531 . S
C578 H590 0.960 . S
C578 H591 0.962 . S
C578 H592 0.960 . S
C579 C576 1.511 1_556 S
C579 H593 0.961 . S
C579 H594 0.961 . S
C579 H595 0.961 . S
C580 C581 1.370 . S
C580 C582 1.363 1_556 S
C580 H596 0.931 . S
C581 C580 1.370 . S
C581 C585 1.408 . S
C582 C580 1.363 1_554 S
C582 C583 1.370 1_554 S
C582 C586 1.524 . S
C583 C575 1.503 1_556 S
C583 C582 1.370 1_556 S
C583 C584 1.403 . S
C584 C583 1.403 . S
C584 C585 1.404 . S
C584 C587 1.539 . S
C585 C581 1.408 . S
C585 C584 1.404 . S
C585 H597 0.930 . S
C586 C582 1.524 . S
C586 H598 0.956 . S
C586 H599 0.961 . S
C586 H600 0.961 . S
C587 C584 1.539 . S
C587 H601 0.958 . S
C587 H602 0.961 . S
C587 H603 0.960 . S
H588 C572 0.931 . S
H589 C577 0.929 . S
H590 C578 0.960 . S
H591 C578 0.962 . S
H592 C578 0.960 . S
H593 C579 0.961 . S
H594 C579 0.961 . S
H595 C579 0.961 . S
H596 C580 0.931 . S
H597 C585 0.930 . S
H598 C586 0.956 . S
H599 C586 0.961 . S
H600 C586 0.961 . S
H601 C587 0.958 . S
H602 C587 0.961 . S
H603 C587 0.960 . S
C604 C605 1.391 . S
C604 C606 1.394 . S
C604 H620 0.931 . S
C605 C604 1.391 . S
C605 C609 1.376 . S
C606 C604 1.394 . S
C606 C607 1.369 . S
C606 C610 1.531 . S
C607 C606 1.369 . S
C607 C608 1.410 . S
C607 C615 1.503 . S
C608 C607 1.410 . S
C608 C609 1.392 . S
C608 C611 1.511 . S
C609 C605 1.376 . S
C609 C608 1.392 . S
C609 H621 0.929 . S
C610 C606 1.531 . S
C610 H622 0.960 . S
C610 H623 0.962 . S
C610 H624 0.960 . S
C611 C608 1.511 . S
C611 H625 0.961 . S
C611 H626 0.961 . S
C611 H627 0.961 . S
C612 C613 1.370 . S
C612 C614 1.363 . S
C612 H628 0.931 . S
C613 C612 1.370 . S
C613 C617 1.408 . S
C614 C612 1.363 . S
C614 C615 1.370 . S
C614 C618 1.524 . S
C615 C607 1.503 . S
C615 C614 1.370 . S
C615 C616 1.403 . S
C616 C615 1.403 . S
C616 C617 1.404 . S
C616 C619 1.539 . S
C617 C613 1.408 . S
C617 C616 1.404 . S
C617 H629 0.930 . S
C618 C614 1.524 . S
C618 H630 0.956 . S
C618 H631 0.961 . S
C618 H632 0.961 . S
C619 C616 1.539 . S
C619 H633 0.958 . S
C619 H634 0.961 . S
C619 H635 0.960 . S
H620 C604 0.931 . S
H621 C609 0.929 . S
H622 C610 0.960 . S
H623 C610 0.962 . S
H624 C610 0.960 . S
H625 C611 0.961 . S
H626 C611 0.961 . S
H627 C611 0.961 . S
H628 C612 0.931 . S
H629 C617 0.930 . S
H630 C618 0.956 . S
H631 C618 0.961 . S
H632 C618 0.961 . S
H633 C619 0.958 . S
H634 C619 0.961 . S
H635 C619 0.960 . S
C125 C24 1.262 . S
C133 C0 1.270 1_655 S
C157 C55 1.285 . S
C165 C31 1.258 1_655 S
C189 C86 1.237 . S
C197 C62 1.275 . S
C221 C93 1.304 . S
C229 C117 1.250 . S
C253 C10 0.995 . S
C261 C2 0.943 . S
C285 C41 0.993 . S
C293 C33 0.948 . S
C317 C64 0.974 . S
C325 C72 0.951 . S
C349 C95 0.914 . S
C357 C103 0.978 . S
C381 C104 1.666 . S
C389 C18 1.635 . S
C413 C94 1.989 . S
C421 C27 1.991 . S
C445 C80 1.603 . S
C453 C42 1.659 . S
C477 C89 1.967 . S
C485 C32 1.999 . S
C509 C11 2.130 . S
C517 C49 2.134 . S
C541 C1 1.310 . S
C549 C58 1.343 . S
C573 C73 2.123 . S
C581 C111 2.137 . S
C605 C120 1.307 . S
C613 C63 1.344 . S
