# Generated by pormake.
# Topology ske, (6)-cn, num edge types: 1
# Building blocks:
#     Node 0, Type 0, BuildingBlock: CUWYAW_clean_sbu_0, # of connection points: 6
#     Node 1, Type 0, BuildingBlock: CUWYAW_clean_sbu_0, # of connection points: 6
#     Node 2, Type 0, BuildingBlock: CUWYAW_clean_sbu_0, # of connection points: 6
#     Node 3, Type 0, BuildingBlock: CUWYAW_clean_sbu_0, # of connection points: 6
#     Node 4, Type 0, BuildingBlock: CUWYAW_clean_sbu_0, # of connection points: 6
#     Node 5, Type 0, BuildingBlock: CUWYAW_clean_sbu_0, # of connection points: 6
#     Node 6, Type 0, BuildingBlock: CUWYAW_clean_sbu_0, # of connection points: 6
#     Node 7, Type 0, BuildingBlock: CUWYAW_clean_sbu_0, # of connection points: 6
#     Edge 8, Type (0, 0), BuildingBlock: TEMPAE_clean_linker_10, # of connection points: 2
#     Edge 9, Type (0, 0), BuildingBlock: TEMPAE_clean_linker_10, # of connection points: 2
#     Edge 10, Type (0, 0), BuildingBlock: TEMPAE_clean_linker_10, # of connection points: 2
#     Edge 11, Type (0, 0), BuildingBlock: TEMPAE_clean_linker_10, # of connection points: 2
#     Edge 12, Type (0, 0), BuildingBlock: TEMPAE_clean_linker_10, # of connection points: 2
#     Edge 13, Type (0, 0), BuildingBlock: TEMPAE_clean_linker_10, # of connection points: 2
#     Edge 14, Type (0, 0), BuildingBlock: TEMPAE_clean_linker_10, # of connection points: 2
#     Edge 15, Type (0, 0), BuildingBlock: TEMPAE_clean_linker_10, # of connection points: 2
#     Edge 16, Type (0, 0), BuildingBlock: TEMPAE_clean_linker_10, # of connection points: 2
#     Edge 17, Type (0, 0), BuildingBlock: TEMPAE_clean_linker_10, # of connection points: 2
#     Edge 18, Type (0, 0), BuildingBlock: TEMPAE_clean_linker_10, # of connection points: 2
#     Edge 19, Type (0, 0), BuildingBlock: TEMPAE_clean_linker_10, # of connection points: 2
#     Edge 20, Type (0, 0), BuildingBlock: TEMPAE_clean_linker_10, # of connection points: 2
#     Edge 21, Type (0, 0), BuildingBlock: TEMPAE_clean_linker_10, # of connection points: 2
#     Edge 22, Type (0, 0), BuildingBlock: TEMPAE_clean_linker_10, # of connection points: 2
#     Edge 23, Type (0, 0), BuildingBlock: TEMPAE_clean_linker_10, # of connection points: 2
#     Edge 24, Type (0, 0), BuildingBlock: TEMPAE_clean_linker_10, # of connection points: 2
#     Edge 25, Type (0, 0), BuildingBlock: TEMPAE_clean_linker_10, # of connection points: 2
#     Edge 26, Type (0, 0), BuildingBlock: TEMPAE_clean_linker_10, # of connection points: 2
#     Edge 27, Type (0, 0), BuildingBlock: TEMPAE_clean_linker_10, # of connection points: 2
#     Edge 28, Type (0, 0), BuildingBlock: TEMPAE_clean_linker_10, # of connection points: 2
#     Edge 29, Type (0, 0), BuildingBlock: TEMPAE_clean_linker_10, # of connection points: 2
#     Edge 30, Type (0, 0), BuildingBlock: TEMPAE_clean_linker_10, # of connection points: 2
#     Edge 31, Type (0, 0), BuildingBlock: TEMPAE_clean_linker_10, # of connection points: 2
# Relax obj value: 0.182
# Max RMSD: 0.194
# Mean RMSD: 0.187
data_MOF--net-ske--node1-CUWYAW_clean_sbu_0--edge1-TEMPAE_clean_linker_10
_symmetry_space_group_name_H-M    P1
_symmetry_Int_Tables_number       1
_symmetry_cell_setting            triclinic
loop_
_symmetry_equiv_pos_as_xyz
'x, y, z'
_cell_length_a     103.91061
_cell_length_b     29.555334
_cell_length_c     15.793406
_cell_angle_alpha  90.051408
_cell_angle_beta   89.95211
_cell_angle_gamma 97.7294
loop_
_atom_site_label
_atom_site_type_symbol
_atom_site_fract_x
_atom_site_fract_y
_atom_site_fract_z
_atom_type_partial_charge
C0 C 0.18171 0.23314 0.54067 0.0
Eu1 Eu 0.1581 0.25432 0.5314 0.0
C2 C 0.1942 0.24063 0.58765 0.0
C3 C 0.20347 0.27882 0.57069 0.0
C4 C 0.21591 0.28249 0.60626 0.0
C5 C 0.21943 0.24796 0.65931 0.0
C6 C 0.21003 0.21044 0.67816 0.0
C7 C 0.1976 0.20676 0.64254 0.0
C8 C 0.15198 0.34126 0.52145 0.0
C9 C 0.14468 0.26161 0.71618 0.0
C10 C 0.10606 0.28156 0.53387 0.0
Eu11 Eu 0.12961 0.25966 0.54045 0.0
C12 C 0.09248 0.27081 0.50446 0.0
C13 C 0.08509 0.22823 0.52057 0.0
C14 C 0.07164 0.22189 0.50704 0.0
C15 C 0.0653 0.25803 0.4775 0.0
C16 C 0.07285 0.29978 0.45725 0.0
C17 C 0.08628 0.30607 0.47076 0.0
C18 C 0.1356 0.17198 0.5435 0.0
C19 C 0.14331 0.25478 0.35676 0.0
O20 O 0.17168 0.20931 0.57714 0.0
O21 O 0.17848 0.26677 0.49506 0.0
O22 O 0.16143 0.32672 0.48063 0.0
O23 O 0.14669 0.3104 0.57028 0.0
O24 O 0.15448 0.24836 0.67369 0.0
O25 O 0.13475 0.27542 0.67667 0.0
O26 O 0.11514 0.29689 0.47975 0.0
O27 O 0.1101 0.25523 0.59162 0.0
O28 O 0.12585 0.1853 0.58271 0.0
O29 O 0.14098 0.20427 0.49866 0.0
O30 O 0.13417 0.27184 0.39998 0.0
O31 O 0.15253 0.23651 0.39632 0.0
H32 H 0.20128 0.30528 0.52772 0.0
H33 H 0.22292 0.31159 0.58946 0.0
H34 H 0.21234 0.18352 0.71969 0.0
H35 H 0.19075 0.17665 0.65615 0.0
H36 H 0.0896 0.20045 0.54707 0.0
H37 H 0.06613 0.18938 0.52373 0.0
H38 H 0.06833 0.32806 0.43297 0.0
H39 H 0.09174 0.33928 0.45831 0.0
C40 C 0.8494 0.27561 0.53164 0.0
Eu41 Eu 0.87312 0.25606 0.51752 0.0
C42 C 0.83714 0.26908 0.58091 0.0
C43 C 0.82957 0.22609 0.58821 0.0
C44 C 0.81718 0.22201 0.62508 0.0
C45 C 0.81209 0.26079 0.65537 0.0
C46 C 0.81988 0.30349 0.65037 0.0
C47 C 0.83223 0.30755 0.6134 0.0
C48 C 0.88031 0.17115 0.50195 0.0
C49 C 0.88787 0.25352 0.70141 0.0
C50 C 0.9262 0.24691 0.50336 0.0
Eu51 Eu 0.90185 0.25643 0.52152 0.0
C52 C 0.94015 0.24266 0.49196 0.0
C53 C 0.94851 0.27822 0.45391 0.0
C54 C 0.96182 0.27582 0.44717 0.0
C55 C 0.96714 0.23777 0.47823 0.0
C56 C 0.95872 0.20184 0.51523 0.0
C57 C 0.94537 0.20426 0.522 0.0
C58 C 0.89404 0.34066 0.53657 0.0
C59 C 0.88725 0.25553 0.34218 0.0
O60 O 0.8595 0.3006 0.56492 0.0
O61 O 0.85253 0.24117 0.4876 0.0
O62 O 0.87041 0.18439 0.46394 0.0
O63 O 0.88551 0.20218 0.55096 0.0
O64 O 0.87702 0.25754 0.65976 0.0
O65 O 0.89886 0.24965 0.66191 0.0
O66 O 0.91791 0.21593 0.54069 0.0
O67 O 0.92117 0.28214 0.47477 0.0
O68 O 0.9034 0.32719 0.57987 0.0
O69 O 0.8894 0.30954 0.48625 0.0
O70 O 0.89622 0.2376 0.38521 0.0
O71 O 0.87826 0.27463 0.38233 0.0
H72 H 0.83304 0.19574 0.5636 0.0
H73 H 0.81153 0.18851 0.62898 0.0
H74 H 0.81624 0.33415 0.67206 0.0
H75 H 0.83778 0.34117 0.60761 0.0
H76 H 0.94482 0.30842 0.43055 0.0
H77 H 0.968 0.30444 0.41951 0.0
H78 H 0.96245 0.17179 0.53897 0.0
H79 H 0.93918 0.1763 0.5516 0.0
C80 C 0.10548 0.78231 0.49689 0.0
Eu81 Eu 0.12896 0.75945 0.49102 0.0
C82 C 0.09195 0.775 0.52876 0.0
C83 C 0.08467 0.73135 0.53187 0.0
C84 C 0.07125 0.72635 0.54753 0.0
C85 C 0.0648 0.76487 0.55999 0.0
C86 C 0.07227 0.80832 0.56035 0.0
C87 C 0.08566 0.81325 0.54493 0.0
C88 C 0.13495 0.67183 0.48835 0.0
C89 C 0.14282 0.75437 0.67428 0.0
C90 C 0.18119 0.73138 0.48905 0.0
Eu91 Eu 0.15768 0.75348 0.49898 0.0
C92 C 0.19367 0.73712 0.44178 0.0
C93 C 0.20151 0.77971 0.43576 0.0
C94 C 0.21404 0.78304 0.40118 0.0
C95 C 0.21907 0.74388 0.37213 0.0
C96 C 0.21103 0.7016 0.37568 0.0
C97 C 0.19852 0.69829 0.41024 0.0
C98 C 0.15155 0.84038 0.50905 0.0
C99 C 0.14402 0.76052 0.31475 0.0
O100 O 0.11487 0.8005 0.5464 0.0
O101 O 0.1091 0.75198 0.44501 0.0
O102 O 0.12513 0.68491 0.44964 0.0
O103 O 0.14043 0.70432 0.53239 0.0
O104 O 0.13353 0.77082 0.63159 0.0
O105 O 0.15213 0.7365 0.63461 0.0
O106 O 0.17107 0.70725 0.45428 0.0
O107 O 0.17816 0.76612 0.53255 0.0
O108 O 0.16108 0.82597 0.54917 0.0
O109 O 0.14623 0.80938 0.46052 0.0
O110 O 0.15386 0.74738 0.35695 0.0
O111 O 0.13409 0.77441 0.35447 0.0
H112 H 0.08926 0.70121 0.51934 0.0
H113 H 0.06589 0.6923 0.54819 0.0
H114 H 0.06769 0.83885 0.56855 0.0
H115 H 0.09102 0.8473 0.54174 0.0
H116 H 0.19812 0.8103 0.46004 0.0
H117 H 0.21997 0.81611 0.40019 0.0
H118 H 0.21446 0.67083 0.35264 0.0
H119 H 0.19274 0.66499 0.41456 0.0
C120 C 0.92577 0.72849 0.49209 0.0
Eu121 Eu 0.90241 0.75233 0.48822 0.0
C122 C 0.93929 0.73603 0.52414 0.0
C123 C 0.94668 0.77952 0.52403 0.0
C124 C 0.96008 0.78446 0.54008 0.0
C125 C 0.9664 0.74604 0.55632 0.0
C126 C 0.95882 0.70284 0.55998 0.0
C127 C 0.94545 0.69795 0.54401 0.0
C128 C 0.89685 0.84023 0.48321 0.0
C129 C 0.88874 0.75902 0.67321 0.0
C130 C 0.85044 0.78423 0.48626 0.0
Eu131 Eu 0.87379 0.76063 0.49725 0.0
C132 C 0.83799 0.77758 0.43908 0.0
C133 C 0.83131 0.73382 0.42287 0.0
C134 C 0.81876 0.72864 0.38845 0.0
C135 C 0.8126 0.76705 0.36936 0.0
C136 C 0.81951 0.81076 0.38304 0.0
C137 C 0.83204 0.81591 0.41764 0.0
C138 C 0.87926 0.67293 0.50653 0.0
C139 C 0.88728 0.75177 0.31385 0.0
O140 O 0.91638 0.71044 0.54197 0.0
O141 O 0.92215 0.75882 0.44021 0.0
O142 O 0.90635 0.82592 0.44261 0.0
O143 O 0.89132 0.80865 0.52921 0.0
O144 O 0.89852 0.7456 0.63037 0.0
O145 O 0.87887 0.77394 0.6344 0.0
O146 O 0.86062 0.80707 0.44989 0.0
O147 O 0.85335 0.75016 0.5318 0.0
O148 O 0.86967 0.6878 0.54497 0.0
O149 O 0.88484 0.7037 0.45874 0.0
O150 O 0.87824 0.76977 0.35628 0.0
O151 O 0.8964 0.73334 0.35409 0.0
H152 H 0.9422 0.80953 0.5087 0.0
H153 H 0.96553 0.81835 0.53812 0.0
H154 H 0.96331 0.67239 0.57126 0.0
H155 H 0.94001 0.664 0.5434 0.0
H156 H 0.83564 0.70357 0.4387 0.0
H157 H 0.81382 0.69448 0.37756 0.0
H158 H 0.81506 0.84111 0.37001 0.0
H159 H 0.83692 0.84999 0.4303 0.0
C160 C 0.68117 0.72439 0.05081 0.0
Eu161 Eu 0.65786 0.74842 0.04051 0.0
C162 C 0.69348 0.72872 0.09932 0.0
C163 C 0.6999 0.77138 0.12545 0.0
C164 C 0.7124 0.77502 0.16053 0.0
C165 C 0.71877 0.73614 0.16995 0.0
C166 C 0.71208 0.69335 0.14665 0.0
C167 C 0.6996 0.68974 0.1117 0.0
C168 C 0.65245 0.83607 0.03057 0.0
C169 C 0.64443 0.75753 0.22392 0.0
C170 C 0.60589 0.78058 0.04647 0.0
Eu171 Eu 0.62925 0.7568 0.04965 0.0
C172 C 0.59234 0.77345 1.01501 0.0
C173 C 0.58493 0.73 1.01376 0.0
C174 C 0.57152 0.72532 0.99825 0.0
C175 C 0.56521 0.76397 0.98396 0.0
C176 C 0.5728 0.80718 0.98177 0.0
C177 C 0.58618 0.81179 0.99715 0.0
C178 C 0.63487 0.66884 0.05388 0.0
C179 C 0.64294 0.75063 0.86448 0.0
O180 O 0.67086 0.70022 0.08313 0.0
O181 O 0.67844 0.76035 1.01004 0.0
O182 O 0.66199 0.82094 0.99187 0.0
O183 O 0.64682 0.80552 0.07871 0.0
O184 O 0.65345 0.73947 0.18155 0.0
O185 O 0.6353 0.77589 0.18367 0.0
O186 O 0.61525 0.79877 0.99655 0.0
O187 O 0.60951 0.74999 0.09774 0.0
O188 O 0.6254 0.68303 0.09503 0.0
O189 O 0.6403 0.70062 1.00802 0.0
O190 O 0.63312 0.76373 0.90748 0.0
O191 O 0.65284 0.73583 0.90312 0.0
H192 H 0.69544 0.8021 0.11639 0.0
H193 H 0.71727 0.80856 0.17721 0.0
H194 H 0.71656 0.66257 0.15434 0.0
H195 H 0.69488 0.6565 0.09184 0.0
H196 H 0.58941 0.6998 0.02759 0.0
H197 H 0.56605 0.69144 0.99905 0.0
H198 H 0.56832 0.83779 0.97206 0.0
H199 H 0.59164 0.84571 0.99887 0.0
C200 C 0.35009 0.77716 0.04586 0.0
Eu201 Eu 0.37373 0.75603 0.03408 0.0
C202 C 0.33771 0.77037 0.09436 0.0
C203 C 0.32946 0.7285 0.09234 0.0
C204 C 0.31699 0.7246 0.1278 0.0
C205 C 0.31242 0.76242 0.16612 0.0
C206 C 0.32085 0.80383 0.17069 0.0
C207 C 0.33331 0.80778 0.13493 0.0
C208 C 0.37987 0.66915 0.02466 0.0
C209 C 0.38728 0.74888 0.2174 0.0
C210 C 0.42605 0.72937 0.03997 0.0
Eu211 Eu 0.40242 0.75078 0.04292 0.0
C212 C 0.43963 0.73661 1.00892 0.0
C213 C 0.44701 0.78012 1.00784 0.0
C214 C 0.46045 0.78489 0.99317 0.0
C215 C 0.46682 0.74629 0.97964 0.0
C216 C 0.45926 0.70302 0.97722 0.0
C217 C 0.44585 0.69831 0.99171 0.0
C218 C 0.39608 0.8379 0.04681 0.0
C219 C 0.38868 0.75555 0.85789 0.0
O220 O 0.36022 0.80169 0.07975 0.0
O221 O 0.35322 0.74283 1.00177 0.0
O222 O 0.3702 0.68323 0.98582 0.0
O223 O 0.38525 0.70028 0.07264 0.0
O224 O 0.37809 0.7659 0.175 0.0
O225 O 0.39658 0.73143 0.17711 0.0
O226 O 0.41677 0.70974 0.99095 0.0
O227 O 0.42224 0.76033 0.08978 0.0
O228 O 0.40563 0.82463 0.0885 0.0
O229 O 0.3909 0.80564 1.00098 0.0
O230 O 0.39863 0.74342 0.90073 0.0
O231 O 0.37865 0.76935 0.89676 0.0
H232 H 0.33248 0.69898 0.06129 0.0
H233 H 0.31085 0.69201 0.12421 0.0
H234 H 0.31764 0.83379 0.19893 0.0
H235 H 0.33935 0.84064 0.13645 0.0
H236 H 0.44248 0.8103 0.02121 0.0
H237 H 0.46589 0.81881 0.9941 0.0
H238 H 0.46378 0.67243 0.96811 0.0
H239 H 0.44041 0.66435 0.99338 0.0
C240 C 0.60548 0.262 0.02328 0.0
Eu241 Eu 0.62984 0.25244 1.00582 0.0
C242 C 0.59152 0.26628 0.03428 0.0
C243 C 0.58315 0.23085 0.07259 0.0
C244 C 0.56983 0.2332 0.07876 0.0
C245 C 0.56451 0.27108 0.04687 0.0
C246 C 0.57294 0.30688 1.0096 0.0
C247 C 0.5863 0.30451 1.00341 0.0
C248 C 0.63766 0.16822 0.99176 0.0
C249 C 0.64446 0.25367 0.18534 0.0
C250 C 0.68232 0.23368 0.99607 0.0
Eu251 Eu 0.6586 0.25316 1.00977 0.0
C252 C 0.69448 0.23826 0.94579 0.0
C253 C 0.70184 0.28094 0.93011 0.0
C254 C 0.71418 0.28359 0.89282 0.0
C255 C 0.71944 0.24365 0.87092 0.0
C256 C 0.71182 0.20115 0.88392 0.0
C257 C 0.69952 0.19853 0.92101 0.0
C258 C 0.65125 0.33782 0.02652 0.0
C259 C 0.64384 0.25534 0.82595 0.0
O260 O 0.61379 0.29292 0.98597 0.0
O261 O 0.6105 0.22687 0.05238 0.0
O262 O 0.62826 0.18148 0.94848 0.0
O263 O 0.64237 0.19958 0.0414 0.0
O264 O 0.6354 0.27109 0.14233 0.0
O265 O 0.65356 0.23507 0.14526 0.0
O266 O 0.67216 0.20745 0.96644 0.0
O267 O 0.67928 0.26962 0.03591 0.0
O268 O 0.66113 0.3245 0.06476 0.0
O269 O 0.64615 0.30695 0.97673 0.0
O270 O 0.65471 0.25169 0.86756 0.0
O271 O 0.63283 0.25886 0.8654 0.0
H272 H 0.58684 0.20077 0.09656 0.0
H273 H 0.56364 0.20467 0.10665 0.0
H274 H 0.56922 0.33679 0.98522 0.0
H275 H 0.59251 0.33236 0.97354 0.0
H276 H 0.69826 0.31221 0.94893 0.0
H277 H 0.7198 0.31687 0.88424 0.0
H278 H 0.71546 0.16975 0.86654 0.0
H279 H 0.69408 0.16519 0.93279 0.0
C280 C 0.42549 0.22925 0.99385 0.0
Eu281 Eu 0.40186 0.25035 0.99126 0.0
C282 C 0.4391 0.23959 0.02291 0.0
C283 C 0.44654 0.2821 1.00699 0.0
C284 C 0.46001 0.28813 0.01972 0.0
C285 C 0.46633 0.25175 0.04836 0.0
C286 C 0.45874 0.21005 0.06847 0.0
C287 C 0.44529 0.20404 0.05567 0.0
C288 C 0.39581 0.3378 0.98788 0.0
C289 C 0.38834 0.25521 0.17678 0.0
C290 C 0.34975 0.27663 0.99097 0.0
Eu291 Eu 0.37341 0.25575 1.00132 0.0
C292 C 0.33727 0.26872 0.94387 0.0
C293 C 0.32763 0.23278 0.96709 0.0
C294 C 0.3152 0.22901 0.9316 0.0
C295 C 0.31203 0.26119 0.87223 0.0
C296 C 0.32179 0.2963 0.84688 0.0
C297 C 0.33424 0.30015 0.88261 0.0
C298 C 0.37947 0.16863 1.01069 0.0
C299 C 0.38667 0.24809 0.8174 0.0
O300 O 0.41648 0.21204 0.04718 0.0
O301 O 0.42132 0.25697 0.93899 0.0
O302 O 0.40528 0.32411 0.94603 0.0
O303 O 0.39051 0.30578 0.03378 0.0
O304 O 0.39814 0.2423 0.13348 0.0
O305 O 0.3784 0.26973 0.13822 0.0
O306 O 0.35979 0.30057 0.95495 0.0
O307 O 0.35299 0.24311 0.03661 0.0
O308 O 0.3699 0.18299 0.05033 0.0
O309 O 0.38474 0.19958 0.96212 0.0
O310 O 0.37761 0.26565 0.86016 0.0
O311 O 0.39588 0.23025 0.85764 0.0
H312 H 0.44206 0.31011 0.98117 0.0
H313 H 0.46554 0.32061 1.00311 0.0
H314 H 0.46324 0.18157 0.09211 0.0
H315 H 0.4398 0.17086 0.0679 0.0
H316 H 0.32954 0.2082 1.01471 0.0
H317 H 0.30798 0.20118 0.95169 0.0
H318 H 0.31966 0.32191 0.8019 0.0
H319 H 0.34135 0.32867 0.86429 0.0
C320 C 0.23989 0.2916 0.71972 0.0
C321 C 0.23301 0.25014 0.69176 0.0
C322 C 0.25279 0.29416 0.7484 0.0
C323 C 0.25899 0.25431 0.74928 0.0
C324 C 0.2521 0.21237 0.7213 0.0
C325 C 0.23923 0.2108 0.69289 0.0
C326 C 0.25976 0.33952 0.77801 0.0
C327 C 0.25835 0.1691 0.72103 0.0
C328 C 0.29602 0.26712 0.75431 0.0
C329 C 0.29847 0.25924 0.84006 0.0
C330 C 0.28324 0.26566 0.72387 0.0
C331 C 0.27263 0.25632 0.78053 0.0
C332 C 0.27505 0.24854 0.86718 0.0
C333 C 0.2879 0.25005 0.89579 0.0
C334 C 0.28109 0.27391 0.63095 0.0
C335 C 0.26404 0.23873 0.92984 0.0
H336 H 0.23515 0.32209 0.71998 0.0
H337 H 0.23411 0.17875 0.67007 0.0
H338 H 0.26277 0.33694 0.84502 0.0
H339 H 0.26872 0.34888 0.74014 0.0
H340 H 0.25363 0.36741 0.77267 0.0
H341 H 0.2517 0.13925 0.69721 0.0
H342 H 0.26719 0.17369 0.68078 0.0
H343 H 0.26146 0.16146 0.78607 0.0
H344 H 0.3041 0.27388 0.71068 0.0
H345 H 0.28969 0.24471 0.9624 0.0
H346 H 0.27559 0.3033 0.62298 0.0
H347 H 0.27516 0.24366 0.60262 0.0
H348 H 0.29035 0.28095 0.59522 0.0
H349 H 0.25816 0.2674 0.93064 0.0
H350 H 0.26755 0.23358 0.99511 0.0
H351 H 0.25751 0.20766 0.91037 0.0
C352 C 0.7412 0.21534 0.86806 0.0
C353 C 0.73302 0.246 0.83828 0.0
C354 C 0.75405 0.21722 0.83911 0.0
C355 C 0.75892 0.25059 0.77872 0.0
C356 C 0.75074 0.28165 0.74829 0.0
C357 C 0.73791 0.27906 0.77852 0.0
C358 C 0.76245 0.18361 0.87358 0.0
C359 C 0.75553 0.31761 0.68363 0.0
C360 C 0.79562 0.28246 0.75983 0.0
C361 C 0.79852 0.25718 0.68864 0.0
C362 C 0.7828 0.28064 0.78977 0.0
C363 C 0.77259 0.25293 0.74755 0.0
C364 C 0.77546 0.22716 0.67596 0.0
C365 C 0.78836 0.22956 0.64747 0.0
C366 C 0.78019 0.30843 0.86663 0.0
C367 C 0.76487 0.19728 0.62897 0.0
H368 H 0.73761 0.1902 0.91532 0.0
H369 H 0.73164 0.30262 0.75456 0.0
H370 H 0.76594 0.16348 0.821 0.0
H371 H 0.77115 0.2022 0.90493 0.0
H372 H 0.7572 0.15962 0.91999 0.0
H373 H 0.74796 0.33916 0.66623 0.0
H374 H 0.7641 0.34002 0.70873 0.0
H375 H 0.75869 0.30114 0.62545 0.0
H376 H 0.8034 0.3035 0.79265 0.0
H377 H 0.79045 0.21047 0.59165 0.0
H378 H 0.77561 0.28562 0.91712 0.0
H379 H 0.77326 0.33252 0.85025 0.0
H380 H 0.78918 0.32826 0.89229 0.0
H381 H 0.75975 0.17148 0.67259 0.0
H382 H 0.7687 0.17924 0.57464 0.0
H383 H 0.75758 0.21829 0.60498 0.0
C384 C 0.28847 0.7363 0.15014 0.0
C385 C 0.29876 0.75925 0.19775 0.0
C386 C 0.27551 0.73389 0.1777 0.0
C387 C 0.2727 0.75482 0.25504 0.0
C388 C 0.28303 0.7779 0.30362 0.0
C389 C 0.2959 0.77993 0.27436 0.0
C390 C 0.26482 0.70914 0.12367 0.0
C391 C 0.28048 0.80039 0.38669 0.0
C392 C 0.23831 0.78332 0.29068 0.0
C393 C 0.23279 0.74672 0.34135 0.0
C394 C 0.25126 0.78646 0.2624 0.0
C395 C 0.25895 0.75225 0.28527 0.0
C396 C 0.25345 0.71529 0.33648 0.0
C397 C 0.24049 0.713 0.36384 0.0
C398 C 0.25671 0.82635 0.20768 0.0
C399 C 0.26129 0.67815 0.36266 0.0
H400 H 0.29052 0.72085 0.09023 0.0
H401 H 0.30377 0.79737 0.31202 0.0
H402 H 0.2593 0.68095 0.16035 0.0
H403 H 0.25788 0.73285 0.10538 0.0
H404 H 0.2686 0.69469 0.06519 0.0
H405 H 0.28955 0.81701 0.41695 0.0
H406 H 0.27391 0.82654 0.37652 0.0
H407 H 0.27551 0.77467 0.43109 0.0
H408 H 0.23245 0.80932 0.27216 0.0
H409 H 0.23644 0.685 0.40417 0.0
H410 H 0.25986 0.81381 0.14583 0.0
H411 H 0.2654 0.84543 0.23829 0.0
H412 H 0.24953 0.8503 0.196 0.0
H413 H 0.26472 0.6613 0.3057 0.0
H414 H 0.25561 0.65175 0.40277 0.0
H415 H 0.27002 0.69318 0.39833 0.0
C416 C 0.73686 0.76995 0.26707 0.0
C417 C 0.73252 0.74029 0.20042 0.0
C418 C 0.74983 0.77445 0.29513 0.0
C419 C 0.75875 0.74881 0.25556 0.0
C420 C 0.75443 0.71884 0.18832 0.0
C421 C 0.74142 0.71497 0.16165 0.0
C422 C 0.754 0.80664 0.36726 0.0
C423 C 0.7636 0.69102 0.14405 0.0
C424 C 0.79504 0.79029 0.27498 0.0
C425 C 0.79886 0.76168 0.33855 0.0
C426 C 0.78206 0.78648 0.24742 0.0
C427 C 0.77259 0.75332 0.28431 0.0
C428 C 0.77639 0.72423 0.34825 0.0
C429 C 0.78944 0.72872 0.37447 0.0
C430 C 0.77847 0.81799 0.17873 0.0
C431 C 0.76662 0.68852 0.3895 0.0
H432 H 0.73006 0.78934 0.29805 0.0
H433 H 0.73826 0.69256 0.10916 0.0
H434 H 0.7578 0.78761 0.42014 0.0
H435 H 0.762 0.83294 0.34627 0.0
H436 H 0.74591 0.82408 0.39145 0.0
H437 H 0.75872 0.66908 0.09318 0.0
H438 H 0.77179 0.71404 0.1158 0.0
H439 H 0.76779 0.66894 0.19043 0.0
H440 H 0.80225 0.81552 0.24612 0.0
H441 H 0.79221 0.70692 0.42452 0.0
H442 H 0.77095 0.83816 0.20235 0.0
H443 H 0.77426 0.79771 0.12388 0.0
H444 H 0.78696 0.84196 0.15649 0.0
H445 H 0.75883 0.70507 0.41995 0.0
H446 H 0.77111 0.66847 0.4381 0.0
H447 H 0.76195 0.66466 0.34087 0.0
C448 C 0.13945 0.90396 0.45888 0.0
C449 C 0.14883 0.8886 0.5115 0.0
C450 C 0.13709 0.94993 0.46101 0.0
C451 C 0.14423 0.9813 0.5174 0.0
C452 C 0.15366 0.96571 0.57088 0.0
C453 C 0.15584 0.91977 0.56719 0.0
C454 C 0.12697 0.96496 0.40286 0.0
C455 C 0.16144 0.99758 0.63242 0.0
C456 C 0.14707 0.11029 0.47935 0.0
C457 C 0.13783 0.12337 0.53602 0.0
C458 C 0.14909 0.0642 0.47146 0.0
C459 C 0.14177 0.03023 0.52184 0.0
C460 C 0.13243 0.04338 0.57912 0.0
C461 C 0.13057 0.08962 0.58536 0.0
C462 C 0.15912 0.05188 0.40952 0.0
C463 C 0.12447 0.0086 0.63462 0.0
H464 H 0.13398 0.8801 0.4158 0.0
H465 H 0.16307 0.9082 0.60834 0.0
H466 H 0.11928 0.97823 0.44068 0.0
H467 H 0.13144 0.99325 0.36182 0.0
H468 H 0.12237 0.93672 0.362 0.0
H469 H 0.16843 0.98025 0.66948 0.0
H470 H 0.16691 0.02668 0.59779 0.0
H471 H 0.15481 0.01195 0.67717 0.0
H472 H 0.15272 0.13612 0.44093 0.0
H473 H 0.12342 0.09941 0.62941 0.0
H474 H 0.15461 0.02549 0.36468 0.0
H475 H 0.16687 0.03708 0.44396 0.0
H476 H 0.16366 0.08188 0.37272 0.0
H477 H 0.11908 0.98139 0.595 0.0
H478 H 0.1174 0.02408 0.67446 0.0
H479 H 0.13098 0.99201 0.67673 0.0
C480 C 0.8984 0.42203 0.58499 0.0
C481 C 0.89166 0.3891 0.53142 0.0
C482 C 0.89667 0.46836 0.57937 0.0
C483 C 0.88799 0.48236 0.5186 0.0
C484 C 0.88113 0.44918 0.46441 0.0
C485 C 0.88303 0.40299 0.47159 0.0
C486 C 0.90412 0.50235 0.63882 0.0
C487 C 0.87177 0.46247 0.39888 0.0
C488 C 0.874 0.59316 0.56066 0.0
C489 C 0.88166 0.62444 0.50844 0.0
C490 C 0.87591 0.54699 0.56404 0.0
C491 C 0.88575 0.5314 0.514 0.0
C492 C 0.89354 0.56287 0.46107 0.0
C493 C 0.89141 0.60903 0.45898 0.0
C494 C 0.86742 0.5149 0.62163 0.0
C495 C 0.90414 0.54778 0.40683 0.0
H496 H 0.90509 0.41158 0.63142 0.0
H497 H 0.8778 0.37776 0.42989 0.0
H498 H 0.91003 0.52962 0.60206 0.0
H499 H 0.89725 0.51901 0.67813 0.0
H500 H 0.91066 0.48619 0.68153 0.0
H501 H 0.86743 0.43288 0.36023 0.0
H502 H 0.86382 0.4777 0.4304 0.0
H503 H 0.87682 0.48882 0.356 0.0
H504 H 0.86647 0.60481 0.59929 0.0
H505 H 0.89737 0.63303 0.41864 0.0
H506 H 0.8735 0.49993 0.66895 0.0
H507 H 0.86225 0.48623 0.58432 0.0
H508 H 0.86011 0.53223 0.65581 0.0
H509 H 0.91138 0.5339 0.44745 0.0
H510 H 0.90922 0.57616 0.36825 0.0
H511 H 0.89999 0.51993 0.36371 0.0
C512 C 0.90192 0.92183 0.43696 0.0
C513 C 0.89456 0.88881 0.48733 0.0
C514 C 0.89999 0.96807 0.4403 0.0
C515 C 0.89048 0.98189 0.49552 0.0
C516 C 0.88305 0.94864 0.54676 0.0
C517 C 0.88515 0.90255 0.54189 0.0
C518 C 0.90807 1.00212 0.38408 0.0
C519 C 0.87282 0.96172 0.60649 0.0
C520 C 0.89254 0.1085 0.5541 0.0
C521 C 0.88323 0.12321 0.50009 0.0
C522 C 0.89499 0.06267 0.55359 0.0
C523 C 0.88802 0.03079 0.49741 0.0
C524 C 0.87871 0.04574 0.44225 0.0
C525 C 0.87643 0.09159 0.44437 0.0
C526 C 0.90499 0.04828 0.6135 0.0
C527 C 0.87112 0.01324 0.38086 0.0
H528 H 0.90919 0.91148 0.39454 0.0
H529 H 0.87942 0.87725 0.58099 0.0
H530 H 0.90166 0.01823 0.34048 0.0
H531 H 0.91339 0.02979 0.42304 0.0
H532 H 0.91522 0.98614 0.34578 0.0
H533 H 0.86812 0.93215 0.64372 0.0
H534 H 0.87722 0.98849 0.651 0.0
H535 H 0.86522 0.97632 0.5702 0.0
H536 H 0.89784 0.13273 0.59731 0.0
H537 H 0.86925 0.1027 0.40217 0.0
H538 H 0.9127 0.03425 0.57722 0.0
H539 H 0.90039 0.02071 0.65566 0.0
H540 H 0.90957 0.07705 0.65325 0.0
H541 H 0.87788 0.99829 0.33789 0.0
H542 H 0.86427 0.03021 0.34188 0.0
H543 H 0.86551 0.98459 0.4159 0.0
C544 C 0.13009 0.58932 0.44659 0.0
C545 C 0.13738 0.62339 0.49515 0.0
C546 C 0.13215 0.54324 0.45237 0.0
C547 C 0.14171 0.5306 0.50838 0.0
C548 C 0.14906 0.56491 0.55793 0.0
C549 C 0.14684 0.61081 0.55051 0.0
C550 C 0.12415 0.5081 0.39782 0.0
C551 C 0.15932 0.55314 0.61857 0.0
C552 C 0.13988 0.4047 0.57238 0.0
C553 C 0.14918 0.3894 0.51889 0.0
C554 C 0.13739 0.45051 0.57018 0.0
C555 C 0.14431 0.48182 0.51277 0.0
C556 C 0.15366 0.46631 0.4584 0.0
C557 C 0.15598 0.4205 0.46223 0.0
C558 C 0.12737 0.46546 0.62939 0.0
C559 C 0.16121 0.49812 0.39574 0.0
H560 H 0.12278 0.59872 0.40355 0.0
H561 H 0.15251 0.63688 0.58834 0.0
H562 H 0.13061 0.49157 0.35514 0.0
H563 H 0.1189 0.4809 0.43812 0.0
H564 H 0.11694 0.52321 0.35864 0.0
H565 H 0.1639 0.58338 0.6546 0.0
H566 H 0.15499 0.52683 0.66414 0.0
H567 H 0.167 0.53844 0.58319 0.0
H568 H 0.13457 0.38089 0.61623 0.0
H569 H 0.16316 0.40897 0.42041 0.0
H570 H 0.11955 0.47831 0.59239 0.0
H571 H 0.13188 0.49402 0.66973 0.0
H572 H 0.12294 0.43728 0.67097 0.0
H573 H 0.15442 0.5121 0.35172 0.0
H574 H 0.16815 0.48086 0.35796 0.0
H575 H 0.16671 0.52748 0.42955 0.0
C576 C 0.64648 0.60676 0.99323 0.0
C577 C 0.63709 0.6202 0.04826 0.0
C578 C 0.64852 0.56065 0.98695 0.0
C579 C 0.64102 0.52703 0.03714 0.0
C580 C 0.63152 0.54054 0.09274 0.0
C581 C 0.62967 0.58683 0.09756 0.0
C582 C 0.65876 0.54793 0.92694 0.0
C583 C 0.62336 0.50611 0.14785 0.0
C584 C 0.63901 0.40078 0.97545 0.0
C585 C 0.64829 0.3857 0.02931 0.0
C586 C 0.63655 0.44662 0.97704 0.0
C587 C 0.64347 0.47812 0.03413 0.0
C588 C 0.65274 0.46278 0.08912 0.0
C589 C 0.65503 0.41695 0.08596 0.0
C590 C 0.6266 0.46142 0.91729 0.0
C591 C 0.66029 0.49484 0.15143 0.0
H592 H 0.65225 0.63233 0.95493 0.0
H593 H 0.6224 0.59693 0.1403 0.0
H594 H 0.66634 0.53305 0.96291 0.0
H595 H 0.65437 0.52149 0.88177 0.0
H596 H 0.66349 0.57775 0.89044 0.0
H597 H 0.61618 0.52185 0.1863 0.0
H598 H 0.61808 0.47874 0.10806 0.0
H599 H 0.62972 0.48966 0.19128 0.0
H600 H 0.63376 0.37685 0.93153 0.0
H601 H 0.66218 0.40558 0.12808 0.0
H602 H 0.63122 0.48924 0.87579 0.0
H603 H 0.61887 0.47525 0.95375 0.0
H604 H 0.62203 0.43292 0.87687 0.0
H605 H 0.66593 0.52374 0.11717 0.0
H606 H 0.66711 0.4776 0.19014 0.0
H607 H 0.6535 0.50949 0.19461 0.0
C608 C 0.40059 0.92014 0.09072 0.0
C609 C 0.39371 0.88635 0.03952 0.0
C610 C 0.39863 0.96627 0.08422 0.0
C611 C 0.38958 0.97923 0.02474 0.0
C612 C 0.38265 0.94521 0.97257 0.0
C613 C 0.38475 0.89925 0.98079 0.0
C614 C 0.40615 1.00111 0.1417 0.0
C615 C 0.37294 0.95734 0.90826 0.0
C616 C 0.37496 0.08895 0.06693 0.0
C617 C 0.3822 0.12044 1.013 0.0
C618 C 0.37722 0.04312 0.07095 0.0
C619 C 0.38701 0.028 0.01974 0.0
C620 C 0.39438 0.05968 0.96503 0.0
C621 C 0.39191 0.1055 0.9624 0.0
C622 C 0.36915 0.01087 0.13047 0.0
C623 C 0.4049 0.04514 0.90935 0.0
H624 H 0.40751 0.91047 0.13635 0.0
H625 H 0.37941 0.87338 0.94092 0.0
H626 H 0.41172 0.02854 0.10347 0.0
H627 H 0.39934 0.01738 0.18214 0.0
H628 H 0.41302 0.98578 0.18329 0.0
H629 H 0.36866 0.92729 0.87057 0.0
H630 H 0.36497 0.97198 0.94078 0.0
H631 H 0.37767 0.98381 0.86438 0.0
H632 H 0.36746 0.10019 0.10647 0.0
H633 H 0.39757 0.12963 0.92071 0.0
H634 H 0.37555 0.99669 0.17688 0.0
H635 H 0.36398 0.98168 0.09449 0.0
H636 H 0.36187 0.02782 0.1657 0.0
H637 H 0.41242 0.03221 0.94901 0.0
H638 H 0.40964 0.07357 0.86947 0.0
H639 H 0.40075 0.01674 0.8674 0.0
C640 C 0.40089 0.42016 0.94589 0.0
C641 C 0.39365 0.38645 0.99543 0.0
C642 C 0.39909 0.46644 0.95254 0.0
C643 C 0.38983 0.47963 1.01034 0.0
C644 C 0.38253 0.44569 0.06088 0.0
C645 C 0.3845 0.39959 0.05266 0.0
C646 C 0.40702 0.50121 0.89691 0.0
C647 C 0.37256 0.45805 0.12327 0.0
C648 C 0.39211 0.60575 0.07396 0.0
C649 C 0.38265 0.62103 0.02189 0.0
C650 C 0.39452 0.55986 0.07135 0.0
C651 C 0.38737 0.52852 1.015 0.0
C652 C 0.37787 0.54404 0.96205 0.0
C653 C 0.37563 0.58989 0.96625 0.0
C654 C 0.40472 0.54486 0.12899 0.0
C655 C 0.37006 0.51218 0.90059 0.0
H656 H 0.40797 0.41032 0.90145 0.0
H657 H 0.37886 0.37378 0.09121 0.0
H658 H 0.40049 0.51782 0.855 0.0
H659 H 0.41244 0.52841 0.93644 0.0
H660 H 0.41406 0.48573 0.85686 0.0
H661 H 0.36802 0.42805 0.16006 0.0
H662 H 0.37713 0.48434 0.1681 0.0
H663 H 0.3648 0.473 0.08922 0.0
H664 H 0.39759 0.62961 0.11702 0.0
H665 H 0.36834 0.60142 0.9255 0.0
H666 H 0.41237 0.53166 0.0908 0.0
H667 H 0.4003 0.51654 0.17014 0.0
H668 H 0.40935 0.57311 0.16975 0.0
H669 H 0.37667 0.49786 0.85563 0.0
H670 H 0.36304 0.5295 0.86376 0.0
H671 H 0.36462 0.48306 0.93527 0.0
C672 C 0.64879 0.10633 0.05733 0.0
C673 C 0.64001 0.11976 0.99795 0.0
C674 C 0.65067 0.06018 0.06565 0.0
C675 C 0.64365 0.02653 1.01316 0.0
C676 C 0.63481 0.04005 0.95286 0.0
C677 C 0.63311 0.08637 0.94603 0.0
C678 C 0.6602 0.04743 0.13059 0.0
C679 C 0.62718 0.00554 0.8952 0.0
C680 C 0.65752 0.91527 0.97329 0.0
C681 C 0.65002 0.88452 0.02725 0.0
C682 C 0.65558 0.96138 0.9685 0.0
C683 C 0.64587 0.97749 0.01895 0.0
C684 C 0.63823 0.94656 0.07363 0.0
C685 C 0.64038 0.90043 0.07704 0.0
C686 C 0.66392 0.99285 0.90903 0.0
C687 C 0.62778 0.96221 0.12843 0.0
H688 H 0.65414 0.13191 0.09777 0.0
H689 H 0.6263 0.09644 0.89999 0.0
H690 H 0.65525 0.02152 0.17473 0.0
H691 H 0.66805 0.03186 0.0987 0.0
H692 H 0.66466 0.07736 0.16794 0.0
H693 H 0.62054 0.02137 0.85271 0.0
H694 H 0.63393 0.98844 0.85568 0.0
H695 H 0.62136 0.97868 0.93336 0.0
H696 H 0.66496 0.90324 0.93436 0.0
H697 H 0.63453 0.87685 0.11874 0.0
H698 H 0.6692 0.02186 0.9449 0.0
H699 H 0.6577 0.0074 0.86197 0.0
H700 H 0.67111 0.97514 0.87454 0.0
H701 H 0.63205 0.99044 0.17036 0.0
H702 H 0.62279 0.93422 0.16828 0.0
H703 H 0.62044 0.97577 0.08812 0.0
C704 C 0.1394 0.29268 0.21928 0.0
C705 C 0.1432 0.25544 0.26301 0.0
C706 C 0.13997 0.29484 0.13029 0.0
C707 C 0.14397 0.25808 0.08383 0.0
C708 C 0.14752 0.2199 0.12794 0.0
C709 C 0.14733 0.21946 0.21698 0.0
C710 C 0.13648 0.3368 0.08608 0.0
C711 C 0.15139 0.17925 0.0811 0.0
C712 C 0.13312 0.24601 0.85355 0.0
C713 C 0.14467 0.26088 0.8099 0.0
C714 C 0.13283 0.2441 0.94246 0.0
C715 C 0.14424 0.2592 0.98913 0.0
C716 C 0.15589 0.27506 0.94516 0.0
C717 C 0.15603 0.2748 0.85596 0.0
C718 C 0.12033 0.22527 0.98638 0.0
C719 C 0.16816 0.29291 0.99235 0.0
H720 H 0.13635 0.32079 0.25484 0.0
H721 H 0.15021 0.1905 0.25073 0.0
H722 H 0.14467 0.35172 0.04526 0.0
H723 H 0.12797 0.32743 0.0443 0.0
H724 H 0.13416 0.3633 0.13143 0.0
H725 H 0.15337 0.15149 0.12464 0.0
H726 H 0.14355 0.16548 0.0367 0.0
H727 H 0.16022 0.18979 0.04271 0.0
H728 H 0.12436 0.23477 0.81789 0.0
H729 H 0.16494 0.28657 0.8222 0.0
H730 H 0.11696 0.25188 0.02718 0.0
H731 H 0.12201 0.19644 0.02811 0.0
H732 H 0.11248 0.21307 0.94085 0.0
H733 H 0.16628 0.32089 0.03565 0.0
H734 H 0.17623 0.30595 0.94895 0.0
H735 H 0.17131 0.26546 0.03195 0.0
C736 C 0.88249 0.28923 0.20235 0.0
C737 C 0.88735 0.2547 0.24839 0.0
C738 C 0.88263 0.2893 0.11334 0.0
C739 C 0.88737 0.25318 0.06916 0.0
C740 C 0.89209 0.21779 0.1155 0.0
C741 C 0.89221 0.21937 0.20455 0.0
C742 C 0.87786 0.32837 0.0666 0.0
C743 C 0.89689 0.17803 0.07103 0.0
C744 C 0.87654 0.23461 0.83958 0.0
C745 C 0.88771 0.2531 0.79525 0.0
C746 C 0.87638 0.2335 0.92867 0.0
C747 C 0.88751 0.25275 0.97452 0.0
C748 C 0.89875 0.2721 0.92985 0.0
C749 C 0.89878 0.27136 0.84084 0.0
C750 C 0.86433 0.21137 0.9737 0.0
C751 C 0.91068 0.29421 0.97607 0.0
H752 H 0.87881 0.31679 0.23605 0.0
H753 H 0.89587 0.19239 0.23998 0.0
H754 H 0.88563 0.34505 0.02439 0.0
H755 H 0.86948 0.31538 0.02592 0.0
H756 H 0.87485 0.3545 0.11028 0.0
H757 H 0.89973 0.15234 0.11621 0.0
H758 H 0.88921 0.16103 0.02854 0.0
H759 H 0.9054 0.19037 0.0309 0.0
H760 H 0.868 0.22014 0.80454 0.0
H761 H 0.9074 0.28607 0.80677 0.0
H762 H 0.86026 0.23692 1.01355 0.0
H763 H 0.86684 0.18412 0.01654 0.0
H764 H 0.8567 0.19623 0.9289 0.0
H765 H 0.9081 0.3219 0.01771 0.0
H766 H 0.91849 0.30883 0.93203 0.0
H767 H 0.91455 0.26884 0.01727 0.0
C768 C 0.13231 0.74881 0.17697 0.0
C769 C 0.14402 0.75995 0.22094 0.0
C770 C 0.13203 0.74706 0.08805 0.0
C771 C 0.14369 0.75838 0.04166 0.0
C772 C 0.15553 0.77044 0.08587 0.0
C773 C 0.1556 0.77021 0.17506 0.0
C774 C 0.11926 0.73243 0.04382 0.0
C775 C 0.16811 0.78417 0.03896 0.0
C776 C 0.1458 0.71735 0.8137 0.0
C777 C 0.14272 0.755 0.7679 0.0
C778 C 0.14594 0.71767 0.90275 0.0
C779 C 0.14346 0.75737 0.94698 0.0
C780 C 0.14056 0.79582 0.90064 0.0
C781 C 0.13997 0.79382 0.81167 0.0
C782 C 0.14856 0.67532 0.94948 0.0
C783 C 0.1383 0.83934 0.94495 0.0
H784 H 0.12336 0.74036 0.21234 0.0
H785 H 0.16465 0.7791 0.20893 0.0
H786 H 0.11674 0.76044 1.00303 0.0
H787 H 0.12012 0.70277 1.00202 0.0
H788 H 0.11117 0.72285 0.08914 0.0
H789 H 0.17638 0.79453 0.08254 0.0
H790 H 0.17047 0.75538 0.99938 0.0
H791 H 0.16709 0.81303 0.99567 0.0
H792 H 0.14788 0.68724 0.77975 0.0
H793 H 0.13774 0.82316 0.77611 0.0
H794 H 0.14044 0.6641 0.9936 0.0
H795 H 0.1575 0.68289 0.98814 0.0
H796 H 0.14977 0.64669 0.90583 0.0
H797 H 0.12964 0.83287 0.98649 0.0
H798 H 0.13682 0.86691 0.89965 0.0
H799 H 0.14673 0.8515 0.98601 0.0
C800 C 0.87718 0.74231 0.8103 0.0
C801 C 0.88872 0.75747 0.76688 0.0
C802 C 0.87688 0.73995 0.89918 0.0
C803 C 0.88828 0.75489 0.94607 0.0
C804 C 0.89994 0.77091 0.90232 0.0
C805 C 0.90008 0.7711 0.81313 0.0
C806 C 0.86438 0.72101 0.94284 0.0
C807 C 0.9122 0.7886 0.94973 0.0
C808 C 0.88338 0.78899 0.17573 0.0
C809 C 0.88717 0.7519 0.22003 0.0
C810 C 0.88396 0.79085 0.08675 0.0
C811 C 0.88796 0.75394 0.04077 0.0
C812 C 0.8915 0.71588 0.0854 0.0
C813 C 0.89131 0.71574 0.17449 0.0
C814 C 0.88049 0.83268 0.04202 0.0
C815 C 0.89537 0.67509 0.03904 0.0
H816 H 0.86842 0.7313 0.77447 0.0
H817 H 0.90899 0.7831 0.77953 0.0
H818 H 0.86606 0.69233 0.98493 0.0
H819 H 0.86094 0.74766 0.98324 0.0
H820 H 0.85657 0.70858 0.89714 0.0
H821 H 0.92031 0.80139 0.90648 0.0
H822 H 0.91034 0.81675 0.9927 0.0
H823 H 0.91528 0.76117 0.98971 0.0
H824 H 0.88034 0.81725 0.21086 0.0
H825 H 0.89418 0.68691 0.20862 0.0
H826 H 0.872 0.8232 1.00014 0.0
H827 H 0.88869 0.8475 1.00124 0.0
H828 H 0.87815 0.85932 0.08703 0.0
H829 H 0.88755 0.66124 0.99461 0.0
H830 H 0.89732 0.64744 0.0829 0.0
H831 H 0.90422 0.68549 1.00072 0.0
C832 C 0.64071 0.79422 0.36308 0.0
C833 C 0.64454 0.75749 0.3177 0.0
C834 C 0.64051 0.79418 0.45217 0.0
C835 C 0.64372 0.75567 0.49692 0.0
C836 C 0.6474 0.71818 0.45108 0.0
C837 C 0.648 0.71993 0.3621 0.0
C838 C 0.637 0.83556 0.49839 0.0
C839 C 0.65049 0.67586 0.49595 0.0
C840 C 0.65456 0.76637 0.72731 0.0
C841 C 0.64295 0.75229 0.7708 0.0
C842 C 0.65487 0.76868 0.63843 0.0
C843 C 0.64339 0.75483 0.59161 0.0
C844 C 0.63165 0.73996 0.6354 0.0
C845 C 0.63152 0.73976 0.7246 0.0
C846 C 0.66748 0.78636 0.59471 0.0
C847 C 0.6193 0.72347 0.58805 0.0
H848 H 0.63808 0.8234 0.32882 0.0
H849 H 0.65081 0.69124 0.32705 0.0
H850 H 0.62811 0.82608 0.53676 0.0
H851 H 0.64491 0.8487 0.54276 0.0
H852 H 0.63529 0.86347 0.45444 0.0
H853 H 0.6526 0.64885 0.45102 0.0
H854 H 0.65903 0.68452 0.53781 0.0
H855 H 0.6422 0.6619 0.53676 0.0
H856 H 0.66338 0.77655 0.76307 0.0
H857 H 0.62256 0.72859 0.75821 0.0
H858 H 0.66604 0.81525 0.55248 0.0
H859 H 0.67068 0.75921 0.55445 0.0
H860 H 0.67535 0.7981 0.64037 0.0
H861 H 0.61647 0.75128 0.54793 0.0
H862 H 0.61111 0.71157 0.63133 0.0
H863 H 0.6209 0.69496 0.54522 0.0
C864 C 0.37718 0.73846 0.72082 0.0
C865 C 0.38869 0.75402 0.76423 0.0
C866 C 0.37688 0.73629 0.63194 0.0
C867 C 0.38826 0.75177 0.58506 0.0
C868 C 0.39988 0.76817 0.62879 0.0
C869 C 0.40002 0.76822 0.71797 0.0
C870 C 0.36442 0.71696 0.58826 0.0
C871 C 0.41209 0.78642 0.58138 0.0
C872 C 0.39142 0.71301 0.35645 0.0
C873 C 0.38716 0.74896 0.31118 0.0
C874 C 0.39162 0.71309 0.44552 0.0
C875 C 0.38794 0.7509 0.49038 0.0
C876 C 0.38381 0.78763 0.44468 0.0
C877 C 0.38324 0.7858 0.3557 0.0
C878 C 0.39562 0.67248 0.4916 0.0
C879 C 0.3802 0.82922 0.48971 0.0
H880 H 0.36844 0.72703 0.75665 0.0
H881 H 0.4089 0.78055 0.75156 0.0
H882 H 0.3609 0.7435 0.54814 0.0
H883 H 0.3662 0.68846 0.5459 0.0
H884 H 0.35664 0.70418 0.63394 0.0
H885 H 0.42018 0.79946 0.62463 0.0
H886 H 0.41527 0.75923 0.5411 0.0
H887 H 0.41014 0.81452 0.5387 0.0
H888 H 0.3944 0.68437 0.3221 0.0
H889 H 0.38009 0.8139 0.32075 0.0
H890 H 0.38782 0.6583 0.53601 0.0
H891 H 0.40444 0.68319 0.5299 0.0
H892 H 0.39766 0.64499 0.44755 0.0
H893 H 0.37172 0.81937 0.53166 0.0
H894 H 0.37776 0.85574 0.44488 0.0
H895 H 0.38836 0.84432 0.53045 0.0
C896 C 0.64956 0.22065 0.32509 0.0
C897 C 0.64435 0.25447 0.27912 0.0
C898 C 0.64943 0.22052 0.41409 0.0
C899 C 0.64433 0.25587 0.45833 0.0
C900 C 0.63924 0.29055 0.41207 0.0
C901 C 0.63914 0.28903 0.32303 0.0
C902 C 0.6546 0.18221 0.46075 0.0
C903 C 0.63403 0.32949 0.45664 0.0
C904 C 0.63306 0.23631 0.6866 0.0
C905 C 0.644 0.25575 0.73216 0.0
C906 C 0.63309 0.23561 0.5976 0.0
C907 C 0.64419 0.25623 0.55294 0.0
C908 C 0.65518 0.27669 0.59879 0.0
C909 C 0.65504 0.27549 0.68785 0.0
C910 C 0.62133 0.21218 0.55137 0.0
C911 C 0.66705 0.3002 0.55375 0.0
H912 H 0.65351 0.19365 0.29136 0.0
H913 H 0.63521 0.31546 0.28767 0.0
H914 H 0.6629 0.19613 0.50142 0.0
H915 H 0.64697 0.16466 0.50295 0.0
H916 H 0.65788 0.1566 0.41701 0.0
H917 H 0.63092 0.35472 0.41152 0.0
H918 H 0.62561 0.31615 0.49676 0.0
H919 H 0.64158 0.34731 0.49914 0.0
H920 H 0.62455 0.22064 0.7207 0.0
H921 H 0.66348 0.29088 0.72293 0.0
H922 H 0.62419 0.18498 0.50967 0.0
H923 H 0.61719 0.23697 0.51024 0.0
H924 H 0.61363 0.19666 0.59541 0.0
H925 H 0.67139 0.27531 0.5138 0.0
H926 H 0.67457 0.31615 0.59856 0.0
H927 H 0.66427 0.32704 0.51101 0.0
C928 C 0.39956 0.26867 0.31683 0.0
C929 C 0.38833 0.25345 0.27039 0.0
C930 C 0.39936 0.26861 0.40603 0.0
C931 C 0.38781 0.25112 0.44956 0.0
C932 C 0.37655 0.23455 0.40245 0.0
C933 C 0.37689 0.23681 0.31357 0.0
C934 C 0.41144 0.28805 0.45368 0.0
C935 C 0.36418 0.21402 0.44585 0.0
C936 C 0.39113 0.21275 0.67816 0.0
C937 C 0.38655 0.24813 0.72354 0.0
C938 C 0.39139 0.2129 0.58908 0.0
C939 C 0.38744 0.2502 0.54427 0.0
C940 C 0.38296 0.28633 0.59004 0.0
C941 C 0.38235 0.28444 0.67904 0.0
C942 C 0.39579 0.1729 0.54294 0.0
C943 C 0.37902 0.32738 0.54509 0.0
H944 H 0.40839 0.28186 0.28338 0.0
H945 H 0.36823 0.22462 0.27754 0.0
H946 H 0.40922 0.31585 0.49633 0.0
H947 H 0.41482 0.26132 0.49401 0.0
H948 H 0.41947 0.30183 0.41058 0.0
H949 H 0.35651 0.20046 0.4 0.0
H950 H 0.36617 0.18584 0.48822 0.0
H951 H 0.36039 0.24009 0.48592 0.0
H952 H 0.39434 0.18451 0.7124 0.0
H953 H 0.37895 0.31213 0.714 0.0
H954 H 0.40458 0.1845 0.50488 0.0
H955 H 0.38812 0.15801 0.4983 0.0
H956 H 0.39803 0.14572 0.58692 0.0
H957 H 0.38712 0.34329 0.50459 0.0
H958 H 0.37631 0.3535 0.58995 0.0
H959 H 0.37063 0.31671 0.5029 0.0
C960 C 0.04424 0.28883 0.5022 0.0
C961 C 0.05083 0.25331 0.47318 0.0
C962 C 0.03062 0.28475 0.50136 0.0
C963 C 0.02332 0.24412 0.4708 0.0
C964 C 0.02988 0.20815 0.44109 0.0
C965 C 0.04355 0.21314 0.44277 0.0
C966 C 0.02403 0.32386 0.53399 0.0
C967 C 0.02246 0.16436 0.40776 0.0
C968 C 0.98807 0.22067 0.54323 0.0
C969 C 0.98145 0.23649 0.47413 0.0
C970 C 1.00165 0.2219 0.54218 0.0
C971 C 1.00883 0.23945 0.47037 0.0
C972 C 1.00218 0.2545 0.39969 0.0
C973 C 0.9886 0.25278 0.40236 0.0
C974 C 1.00835 0.20558 0.61894 0.0
C975 C 1.00945 0.27337 0.32184 0.0
H976 H 0.04975 0.31965 0.52736 0.0
H977 H 0.04854 0.18566 0.41966 0.0
H978 H 0.01778 0.33563 0.48389 0.0
H979 H 0.01764 0.31226 0.58824 0.0
H980 H 0.0311 0.35333 0.55484 0.0
H981 H 0.02899 0.13975 0.3865 0.0
H982 H 0.01591 0.14794 0.45767 0.0
H983 H 0.01627 0.17183 0.35372 0.0
H984 H 0.98268 0.20854 0.59938 0.0
H985 H 0.98358 0.26441 0.34812 0.0
H986 H 1.01478 0.23455 0.6476 0.0
H987 H 1.01457 0.17954 0.6002 0.0
H988 H 1.00134 0.19063 0.66781 0.0
H989 H 0.01607 0.30476 0.3386 0.0
H990 H 1.00283 0.28181 0.27078 0.0
H991 H 1.01556 0.24833 0.29694 0.0
C992 C 0.98889 0.77999 0.51082 0.0
C993 C 0.98088 0.75045 0.56433 0.0
C994 C 1.00251 0.78253 0.51375 0.0
C995 C 1.00835 0.75477 0.57143 0.0
C996 C 1.00036 0.72542 0.62659 0.0
C997 C 0.98676 0.72365 0.62245 0.0
C998 C 1.01064 0.8143 0.45375 0.0
C999 C 1.00617 0.69532 0.68915 0.0
C1000 C 0.04239 0.72882 0.51666 0.0
C1001 C 0.0503 0.76024 0.56741 0.0
C1002 C 0.02876 0.72611 0.5186 0.0
C1003 C 0.02281 0.75566 0.57228 0.0
C1004 C 0.0307 0.78688 0.62478 0.0
C1005 C 0.0443 0.78872 0.62187 0.0
C1006 C 0.02075 0.69226 0.46162 0.0
C1007 C 0.02477 0.81896 0.68301 0.0
H1008 H 0.98451 0.80032 0.46469 0.0
H1009 H 0.98071 0.70112 0.66485 0.0
H1010 H 0.01786 0.83788 0.48974 0.0
H1011 H 0.01613 0.79426 0.41056 0.0
H1012 H 1.00466 0.83488 0.41495 0.0
H1013 H 0.99867 0.67532 0.72926 0.0
H1014 H 1.01163 0.67122 0.65481 0.0
H1015 H 1.01318 0.71639 0.73088 0.0
H1016 H 0.04685 0.70713 0.4733 0.0
H1017 H 0.05026 0.81269 0.66226 0.0
H1018 H 1.01536 0.71072 0.41525 0.0
H1019 H 1.01344 0.67002 0.49947 0.0
H1020 H 0.0268 0.67033 0.42632 0.0
H1021 H 0.01938 0.84189 0.64525 0.0
H1022 H 0.03219 0.84026 0.72173 0.0
H1023 H 0.01767 0.79931 0.72616 0.0
C1024 C 0.54271 0.7295 0.02857 0.0
C1025 C 0.55072 0.75976 0.9763 0.0
C1026 C 0.52909 0.72705 0.02591 0.0
C1027 C 0.52325 0.75566 0.96982 0.0
C1028 C 0.53125 0.78578 0.91597 0.0
C1029 C 0.54485 0.78742 0.91974 0.0
C1030 C 0.52096 0.69443 0.08446 0.0
C1031 C 0.52545 0.81683 0.85518 0.0
C1032 C 0.48733 0.72276 0.91749 0.0
C1033 C 0.48132 0.7506 0.97312 0.0
C1034 C 0.50093 0.72442 0.91497 0.0
C1035 C 0.5088 0.75478 0.96912 0.0
C1036 C 0.50283 0.7836 0.02421 0.0
C1037 C 0.48921 0.78111 0.02566 0.0
C1038 C 0.50688 0.69312 0.85523 0.0
C1039 C 0.51082 0.8165 0.08301 0.0
H1040 H 0.54709 0.70849 0.07352 0.0
H1041 H 0.55089 0.8105 0.87827 0.0
H1042 H 0.51547 0.71384 0.12878 0.0
H1043 H 0.51374 0.67139 0.04746 0.0
H1044 H 0.52693 0.67329 0.12207 0.0
H1045 H 0.53295 0.8375 0.81609 0.0
H1046 H 0.51846 0.7964 0.8124 0.0
H1047 H 0.51996 0.84035 0.8909 0.0
H1048 H 0.48139 0.69948 0.8758 0.0
H1049 H 0.48473 0.80227 0.06993 0.0
H1050 H 0.51228 0.66975 0.89184 0.0
H1051 H 0.51397 0.71337 0.81285 0.0
H1052 H 0.49947 0.6723 0.8157 0.0
H1053 H 0.5162 0.79729 0.12821 0.0
H1054 H 0.50476 0.83782 0.11964 0.0
H1055 H 0.51813 0.83936 0.04635 0.0
C1056 C 0.48733 0.22057 0.02301 0.0
C1057 C 0.48081 0.25626 0.05205 0.0
C1058 C 0.50095 0.22445 0.0234 0.0
C1059 C 0.50832 0.26509 0.05339 0.0
C1060 C 0.50183 0.30126 0.08293 0.0
C1061 C 0.48817 0.29644 0.08185 0.0
C1062 C 0.50747 0.18511 0.99103 0.0
C1063 C 0.50933 0.34509 0.11553 0.0
C1064 C 0.54301 0.2563 0.12236 0.0
C1065 C 0.5502 0.27232 0.05054 0.0
C1066 C 0.52943 0.25464 0.12478 0.0
C1067 C 0.52282 0.26948 0.05379 0.0
C1068 C 0.53002 0.2867 0.98186 0.0
C1069 C 0.5436 0.28788 0.98106 0.0
C1070 C 0.52213 0.2361 0.20276 0.0
C1071 C 0.52335 0.30281 0.90479 0.0
H1072 H 0.48177 0.18974 0.99826 0.0
H1073 H 0.48323 0.32406 0.10499 0.0
H1074 H 0.51385 0.19646 0.93663 0.0
H1075 H 0.51371 0.17334 0.04118 0.0
H1076 H 0.50035 0.15571 0.97048 0.0
H1077 H 0.50285 0.36999 0.13627 0.0
H1078 H 0.5155 0.33775 0.16977 0.0
H1079 H 0.5159 0.36112 0.06539 0.0
H1080 H 0.54802 0.24488 0.17688 0.0
H1081 H 0.54902 0.29979 0.92487 0.0
H1082 H 0.51546 0.20481 0.18623 0.0
H1083 H 0.51609 0.26138 0.22746 0.0
H1084 H 0.52874 0.22759 0.25389 0.0
H1085 H 0.51688 0.27381 0.87651 0.0
H1086 H 0.53038 0.31744 0.85576 0.0
H1087 H 0.51717 0.32905 0.92309 0.0
loop_
_geom_bond_atom_site_label_1
_geom_bond_atom_site_label_2
_geom_bond_distance
_geom_bond_site_symmetry_2
_ccdc_geom_bond_type
C0 Eu1 2.835 . S
C0 C2 1.500 . S
C0 O20 1.257 . S
C0 O21 1.260 . S
Eu1 C0 2.835 . S
Eu1 O20 2.473 . S
Eu1 O21 2.480 . S
Eu1 O22 2.430 . S
Eu1 O23 2.670 . S
Eu1 O24 2.394 . S
Eu1 O29 2.355 . S
Eu1 O31 2.374 . S
C2 C0 1.500 . S
C2 C3 1.377 . S
C2 C7 1.377 . S
C3 C2 1.377 . S
C3 C4 1.395 . S
C3 H32 0.931 . S
C4 C3 1.395 . S
C4 C5 1.383 . S
C4 H33 0.931 . S
C5 C4 1.383 . S
C5 C6 1.394 . S
C6 C5 1.394 . S
C6 C7 1.378 . S
C6 H34 0.931 . S
C7 C2 1.377 . S
C7 C6 1.378 . S
C7 H35 0.931 . S
C8 O22 1.259 . S
C8 O23 1.270 . S
C9 O24 1.251 . S
C9 O25 1.251 . S
C10 Eu11 2.835 . S
C10 C12 1.500 . S
C10 O26 1.257 . S
C10 O27 1.260 . S
Eu11 C10 2.835 . S
Eu11 O23 2.355 . S
Eu11 O25 2.374 . S
Eu11 O26 2.473 . S
Eu11 O27 2.480 . S
Eu11 O28 2.430 . S
Eu11 O29 2.670 . S
Eu11 O30 2.394 . S
C12 C10 1.500 . S
C12 C13 1.377 . S
C12 C17 1.377 . S
C13 C12 1.377 . S
C13 C14 1.395 . S
C13 H36 0.931 . S
C14 C13 1.395 . S
C14 C15 1.383 . S
C14 H37 0.931 . S
C15 C14 1.383 . S
C15 C16 1.394 . S
C16 C15 1.394 . S
C16 C17 1.378 . S
C16 H38 0.931 . S
C17 C12 1.377 . S
C17 C16 1.378 . S
C17 H39 0.931 . S
C18 O28 1.259 . S
C18 O29 1.270 . S
C19 O30 1.251 . S
C19 O31 1.251 . S
O20 C0 1.257 . S
O20 Eu1 2.473 . S
O21 C0 1.260 . S
O21 Eu1 2.480 . S
O22 Eu1 2.430 . S
O22 C8 1.259 . S
O23 Eu1 2.670 . S
O23 C8 1.270 . S
O23 Eu11 2.355 . S
O24 Eu1 2.394 . S
O24 C9 1.251 . S
O25 C9 1.251 . S
O25 Eu11 2.374 . S
O26 C10 1.257 . S
O26 Eu11 2.473 . S
O27 C10 1.260 . S
O27 Eu11 2.480 . S
O28 Eu11 2.430 . S
O28 C18 1.259 . S
O29 Eu1 2.355 . S
O29 Eu11 2.670 . S
O29 C18 1.270 . S
O30 Eu11 2.394 . S
O30 C19 1.251 . S
O31 Eu1 2.374 . S
O31 C19 1.251 . S
H32 C3 0.931 . S
H33 C4 0.931 . S
H34 C6 0.931 . S
H35 C7 0.931 . S
H36 C13 0.931 . S
H37 C14 0.931 . S
H38 C16 0.931 . S
H39 C17 0.931 . S
C40 Eu41 2.835 . S
C40 C42 1.500 . S
C40 O60 1.257 . S
C40 O61 1.260 . S
Eu41 C40 2.835 . S
Eu41 O60 2.473 . S
Eu41 O61 2.480 . S
Eu41 O62 2.430 . S
Eu41 O63 2.670 . S
Eu41 O64 2.394 . S
Eu41 O69 2.355 . S
Eu41 O71 2.374 . S
C42 C40 1.500 . S
C42 C43 1.377 . S
C42 C47 1.377 . S
C43 C42 1.377 . S
C43 C44 1.395 . S
C43 H72 0.931 . S
C44 C43 1.395 . S
C44 C45 1.383 . S
C44 H73 0.931 . S
C45 C44 1.383 . S
C45 C46 1.394 . S
C46 C45 1.394 . S
C46 C47 1.378 . S
C46 H74 0.931 . S
C47 C42 1.377 . S
C47 C46 1.378 . S
C47 H75 0.931 . S
C48 O62 1.259 . S
C48 O63 1.270 . S
C49 O64 1.251 . S
C49 O65 1.251 . S
C50 Eu51 2.835 . S
C50 C52 1.500 . S
C50 O66 1.257 . S
C50 O67 1.260 . S
Eu51 C50 2.835 . S
Eu51 O63 2.355 . S
Eu51 O65 2.374 . S
Eu51 O66 2.473 . S
Eu51 O67 2.480 . S
Eu51 O68 2.430 . S
Eu51 O69 2.670 . S
Eu51 O70 2.394 . S
C52 C50 1.500 . S
C52 C53 1.377 . S
C52 C57 1.377 . S
C53 C52 1.377 . S
C53 C54 1.395 . S
C53 H76 0.931 . S
C54 C53 1.395 . S
C54 C55 1.383 . S
C54 H77 0.931 . S
C55 C54 1.383 . S
C55 C56 1.394 . S
C56 C55 1.394 . S
C56 C57 1.378 . S
C56 H78 0.931 . S
C57 C52 1.377 . S
C57 C56 1.378 . S
C57 H79 0.931 . S
C58 O68 1.259 . S
C58 O69 1.270 . S
C59 O70 1.251 . S
C59 O71 1.251 . S
O60 C40 1.257 . S
O60 Eu41 2.473 . S
O61 C40 1.260 . S
O61 Eu41 2.480 . S
O62 Eu41 2.430 . S
O62 C48 1.259 . S
O63 Eu41 2.670 . S
O63 C48 1.270 . S
O63 Eu51 2.355 . S
O64 Eu41 2.394 . S
O64 C49 1.251 . S
O65 C49 1.251 . S
O65 Eu51 2.374 . S
O66 C50 1.257 . S
O66 Eu51 2.473 . S
O67 C50 1.260 . S
O67 Eu51 2.480 . S
O68 Eu51 2.430 . S
O68 C58 1.259 . S
O69 Eu41 2.355 . S
O69 Eu51 2.670 . S
O69 C58 1.270 . S
O70 Eu51 2.394 . S
O70 C59 1.251 . S
O71 Eu41 2.374 . S
O71 C59 1.251 . S
H72 C43 0.931 . S
H73 C44 0.931 . S
H74 C46 0.931 . S
H75 C47 0.931 . S
H76 C53 0.931 . S
H77 C54 0.931 . S
H78 C56 0.931 . S
H79 C57 0.931 . S
C80 Eu81 2.835 . S
C80 C82 1.500 . S
C80 O100 1.257 . S
C80 O101 1.260 . S
Eu81 C80 2.835 . S
Eu81 O100 2.473 . S
Eu81 O101 2.480 . S
Eu81 O102 2.430 . S
Eu81 O103 2.670 . S
Eu81 O104 2.394 . S
Eu81 O109 2.355 . S
Eu81 O111 2.374 . S
C82 C80 1.500 . S
C82 C83 1.377 . S
C82 C87 1.377 . S
C83 C82 1.377 . S
C83 C84 1.395 . S
C83 H112 0.931 . S
C84 C83 1.395 . S
C84 C85 1.383 . S
C84 H113 0.931 . S
C85 C84 1.383 . S
C85 C86 1.394 . S
C86 C85 1.394 . S
C86 C87 1.378 . S
C86 H114 0.931 . S
C87 C82 1.377 . S
C87 C86 1.378 . S
C87 H115 0.931 . S
C88 O102 1.259 . S
C88 O103 1.270 . S
C89 O104 1.251 . S
C89 O105 1.251 . S
C90 Eu91 2.835 . S
C90 C92 1.500 . S
C90 O106 1.257 . S
C90 O107 1.260 . S
Eu91 C90 2.835 . S
Eu91 O103 2.355 . S
Eu91 O105 2.374 . S
Eu91 O106 2.473 . S
Eu91 O107 2.480 . S
Eu91 O108 2.430 . S
Eu91 O109 2.670 . S
Eu91 O110 2.394 . S
C92 C90 1.500 . S
C92 C93 1.377 . S
C92 C97 1.377 . S
C93 C92 1.377 . S
C93 C94 1.395 . S
C93 H116 0.931 . S
C94 C93 1.395 . S
C94 C95 1.383 . S
C94 H117 0.931 . S
C95 C94 1.383 . S
C95 C96 1.394 . S
C96 C95 1.394 . S
C96 C97 1.378 . S
C96 H118 0.931 . S
C97 C92 1.377 . S
C97 C96 1.378 . S
C97 H119 0.931 . S
C98 O108 1.259 . S
C98 O109 1.270 . S
C99 O110 1.251 . S
C99 O111 1.251 . S
O100 C80 1.257 . S
O100 Eu81 2.473 . S
O101 C80 1.260 . S
O101 Eu81 2.480 . S
O102 Eu81 2.430 . S
O102 C88 1.259 . S
O103 Eu81 2.670 . S
O103 C88 1.270 . S
O103 Eu91 2.355 . S
O104 Eu81 2.394 . S
O104 C89 1.251 . S
O105 C89 1.251 . S
O105 Eu91 2.374 . S
O106 C90 1.257 . S
O106 Eu91 2.473 . S
O107 C90 1.260 . S
O107 Eu91 2.480 . S
O108 Eu91 2.430 . S
O108 C98 1.259 . S
O109 Eu81 2.355 . S
O109 Eu91 2.670 . S
O109 C98 1.270 . S
O110 Eu91 2.394 . S
O110 C99 1.251 . S
O111 Eu81 2.374 . S
O111 C99 1.251 . S
H112 C83 0.931 . S
H113 C84 0.931 . S
H114 C86 0.931 . S
H115 C87 0.931 . S
H116 C93 0.931 . S
H117 C94 0.931 . S
H118 C96 0.931 . S
H119 C97 0.931 . S
C120 Eu121 2.835 . S
C120 C122 1.500 . S
C120 O140 1.257 . S
C120 O141 1.260 . S
Eu121 C120 2.835 . S
Eu121 O140 2.473 . S
Eu121 O141 2.480 . S
Eu121 O142 2.430 . S
Eu121 O143 2.670 . S
Eu121 O144 2.394 . S
Eu121 O149 2.355 . S
Eu121 O151 2.374 . S
C122 C120 1.500 . S
C122 C123 1.377 . S
C122 C127 1.377 . S
C123 C122 1.377 . S
C123 C124 1.395 . S
C123 H152 0.931 . S
C124 C123 1.395 . S
C124 C125 1.383 . S
C124 H153 0.931 . S
C125 C124 1.383 . S
C125 C126 1.394 . S
C126 C125 1.394 . S
C126 C127 1.378 . S
C126 H154 0.931 . S
C127 C122 1.377 . S
C127 C126 1.378 . S
C127 H155 0.931 . S
C128 O142 1.259 . S
C128 O143 1.270 . S
C129 O144 1.251 . S
C129 O145 1.251 . S
C130 Eu131 2.835 . S
C130 C132 1.500 . S
C130 O146 1.257 . S
C130 O147 1.260 . S
Eu131 C130 2.835 . S
Eu131 O143 2.355 . S
Eu131 O145 2.374 . S
Eu131 O146 2.473 . S
Eu131 O147 2.480 . S
Eu131 O148 2.430 . S
Eu131 O149 2.670 . S
Eu131 O150 2.394 . S
C132 C130 1.500 . S
C132 C133 1.377 . S
C132 C137 1.377 . S
C133 C132 1.377 . S
C133 C134 1.395 . S
C133 H156 0.931 . S
C134 C133 1.395 . S
C134 C135 1.383 . S
C134 H157 0.931 . S
C135 C134 1.383 . S
C135 C136 1.394 . S
C136 C135 1.394 . S
C136 C137 1.378 . S
C136 H158 0.931 . S
C137 C132 1.377 . S
C137 C136 1.378 . S
C137 H159 0.931 . S
C138 O148 1.259 . S
C138 O149 1.270 . S
C139 O150 1.251 . S
C139 O151 1.251 . S
O140 C120 1.257 . S
O140 Eu121 2.473 . S
O141 C120 1.260 . S
O141 Eu121 2.480 . S
O142 Eu121 2.430 . S
O142 C128 1.259 . S
O143 Eu121 2.670 . S
O143 C128 1.270 . S
O143 Eu131 2.355 . S
O144 Eu121 2.394 . S
O144 C129 1.251 . S
O145 C129 1.251 . S
O145 Eu131 2.374 . S
O146 C130 1.257 . S
O146 Eu131 2.473 . S
O147 C130 1.260 . S
O147 Eu131 2.480 . S
O148 Eu131 2.430 . S
O148 C138 1.259 . S
O149 Eu121 2.355 . S
O149 Eu131 2.670 . S
O149 C138 1.270 . S
O150 Eu131 2.394 . S
O150 C139 1.251 . S
O151 Eu121 2.374 . S
O151 C139 1.251 . S
H152 C123 0.931 . S
H153 C124 0.931 . S
H154 C126 0.931 . S
H155 C127 0.931 . S
H156 C133 0.931 . S
H157 C134 0.931 . S
H158 C136 0.931 . S
H159 C137 0.931 . S
C160 Eu161 2.835 1_554 S
C160 C162 1.500 . S
C160 O180 1.257 . S
C160 O181 1.260 . S
Eu161 C160 2.835 1_556 S
Eu161 O180 2.473 1_556 S
Eu161 O181 2.480 1_556 S
Eu161 O182 2.430 . S
Eu161 O183 2.670 . S
Eu161 O184 2.394 1_556 S
Eu161 O189 2.355 1_556 S
Eu161 O191 2.374 . S
C162 C160 1.500 . S
C162 C163 1.377 . S
C162 C167 1.377 . S
C163 C162 1.377 . S
C163 C164 1.395 . S
C163 H192 0.931 . S
C164 C163 1.395 . S
C164 C165 1.383 . S
C164 H193 0.931 . S
C165 C164 1.383 . S
C165 C166 1.394 . S
C166 C165 1.394 . S
C166 C167 1.378 . S
C166 H194 0.931 . S
C167 C162 1.377 . S
C167 C166 1.378 . S
C167 H195 0.931 . S
C168 O182 1.259 . S
C168 O183 1.270 . S
C169 O184 1.251 . S
C169 O185 1.251 . S
C170 Eu171 2.835 1_556 S
C170 C172 1.500 . S
C170 O186 1.257 . S
C170 O187 1.260 . S
Eu171 C170 2.835 1_554 S
Eu171 O183 2.355 1_554 S
Eu171 O185 2.374 . S
Eu171 O186 2.473 1_554 S
Eu171 O187 2.480 1_554 S
Eu171 O188 2.430 . S
Eu171 O189 2.670 . S
Eu171 O190 2.394 1_554 S
C172 C170 1.500 . S
C172 C173 1.377 . S
C172 C177 1.377 . S
C173 C172 1.377 . S
C173 C174 1.395 . S
C173 H196 0.931 . S
C174 C173 1.395 . S
C174 C175 1.383 . S
C174 H197 0.931 . S
C175 C174 1.383 . S
C175 C176 1.394 . S
C176 C175 1.394 . S
C176 C177 1.378 . S
C176 H198 0.931 . S
C177 C172 1.377 . S
C177 C176 1.378 . S
C177 H199 0.931 . S
C178 O188 1.259 . S
C178 O189 1.270 . S
C179 O190 1.251 . S
C179 O191 1.251 . S
O180 C160 1.257 . S
O180 Eu161 2.473 1_554 S
O181 C160 1.260 . S
O181 Eu161 2.480 1_554 S
O182 Eu161 2.430 . S
O182 C168 1.259 . S
O183 Eu161 2.670 . S
O183 C168 1.270 . S
O183 Eu171 2.355 1_556 S
O184 Eu161 2.394 1_554 S
O184 C169 1.251 . S
O185 C169 1.251 . S
O185 Eu171 2.374 . S
O186 C170 1.257 . S
O186 Eu171 2.473 1_556 S
O187 C170 1.260 . S
O187 Eu171 2.480 1_556 S
O188 Eu171 2.430 . S
O188 C178 1.259 . S
O189 Eu161 2.355 1_554 S
O189 Eu171 2.670 . S
O189 C178 1.270 . S
O190 Eu171 2.394 1_556 S
O190 C179 1.251 . S
O191 Eu161 2.374 . S
O191 C179 1.251 . S
H192 C163 0.931 . S
H193 C164 0.931 . S
H194 C166 0.931 . S
H195 C167 0.931 . S
H196 C173 0.931 . S
H197 C174 0.931 . S
H198 C176 0.931 . S
H199 C177 0.931 . S
C200 Eu201 2.835 1_554 S
C200 C202 1.500 . S
C200 O220 1.257 . S
C200 O221 1.260 . S
Eu201 C200 2.835 1_556 S
Eu201 O220 2.473 1_556 S
Eu201 O221 2.480 1_556 S
Eu201 O222 2.430 . S
Eu201 O223 2.670 . S
Eu201 O224 2.394 1_556 S
Eu201 O229 2.355 1_556 S
Eu201 O231 2.374 . S
C202 C200 1.500 . S
C202 C203 1.377 . S
C202 C207 1.377 . S
C203 C202 1.377 . S
C203 C204 1.395 . S
C203 H232 0.931 . S
C204 C203 1.395 . S
C204 C205 1.383 . S
C204 H233 0.931 . S
C205 C204 1.383 . S
C205 C206 1.394 . S
C206 C205 1.394 . S
C206 C207 1.378 . S
C206 H234 0.931 . S
C207 C202 1.377 . S
C207 C206 1.378 . S
C207 H235 0.931 . S
C208 O222 1.259 . S
C208 O223 1.270 . S
C209 O224 1.251 . S
C209 O225 1.251 . S
C210 Eu211 2.835 1_556 S
C210 C212 1.500 . S
C210 O226 1.257 . S
C210 O227 1.260 . S
Eu211 C210 2.835 1_554 S
Eu211 O223 2.355 1_554 S
Eu211 O225 2.374 . S
Eu211 O226 2.473 1_554 S
Eu211 O227 2.480 1_554 S
Eu211 O228 2.430 . S
Eu211 O229 2.670 . S
Eu211 O230 2.394 1_554 S
C212 C210 1.500 . S
C212 C213 1.377 . S
C212 C217 1.377 . S
C213 C212 1.377 . S
C213 C214 1.395 . S
C213 H236 0.931 . S
C214 C213 1.395 . S
C214 C215 1.383 . S
C214 H237 0.931 . S
C215 C214 1.383 . S
C215 C216 1.394 . S
C216 C215 1.394 . S
C216 C217 1.378 . S
C216 H238 0.931 . S
C217 C212 1.377 . S
C217 C216 1.378 . S
C217 H239 0.931 . S
C218 O228 1.259 . S
C218 O229 1.270 . S
C219 O230 1.251 . S
C219 O231 1.251 . S
O220 C200 1.257 . S
O220 Eu201 2.473 1_554 S
O221 C200 1.260 . S
O221 Eu201 2.480 1_554 S
O222 Eu201 2.430 . S
O222 C208 1.259 . S
O223 Eu201 2.670 . S
O223 C208 1.270 . S
O223 Eu211 2.355 1_556 S
O224 Eu201 2.394 1_554 S
O224 C209 1.251 . S
O225 C209 1.251 . S
O225 Eu211 2.374 . S
O226 C210 1.257 . S
O226 Eu211 2.473 1_556 S
O227 C210 1.260 . S
O227 Eu211 2.480 1_556 S
O228 Eu211 2.430 . S
O228 C218 1.259 . S
O229 Eu201 2.355 1_554 S
O229 Eu211 2.670 . S
O229 C218 1.270 . S
O230 Eu211 2.394 1_556 S
O230 C219 1.251 . S
O231 Eu201 2.374 . S
O231 C219 1.251 . S
H232 C203 0.931 . S
H233 C204 0.931 . S
H234 C206 0.931 . S
H235 C207 0.931 . S
H236 C213 0.931 . S
H237 C214 0.931 . S
H238 C216 0.931 . S
H239 C217 0.931 . S
C240 Eu241 2.835 1_554 S
C240 C242 1.500 . S
C240 O260 1.257 . S
C240 O261 1.260 . S
Eu241 C240 2.835 1_556 S
Eu241 O260 2.473 1_556 S
Eu241 O261 2.480 1_556 S
Eu241 O262 2.430 . S
Eu241 O263 2.670 . S
Eu241 O264 2.394 1_556 S
Eu241 O269 2.355 1_556 S
Eu241 O271 2.374 . S
C242 C240 1.500 . S
C242 C243 1.377 . S
C242 C247 1.377 . S
C243 C242 1.377 . S
C243 C244 1.395 . S
C243 H272 0.931 . S
C244 C243 1.395 . S
C244 C245 1.383 . S
C244 H273 0.931 . S
C245 C244 1.383 . S
C245 C246 1.394 . S
C246 C245 1.394 . S
C246 C247 1.378 . S
C246 H274 0.931 . S
C247 C242 1.377 . S
C247 C246 1.378 . S
C247 H275 0.931 . S
C248 O262 1.259 . S
C248 O263 1.270 . S
C249 O264 1.251 . S
C249 O265 1.251 . S
C250 Eu251 2.835 1_556 S
C250 C252 1.500 . S
C250 O266 1.257 . S
C250 O267 1.260 . S
Eu251 C250 2.835 1_554 S
Eu251 O263 2.355 1_554 S
Eu251 O265 2.374 . S
Eu251 O266 2.473 1_554 S
Eu251 O267 2.480 1_554 S
Eu251 O268 2.430 . S
Eu251 O269 2.670 . S
Eu251 O270 2.394 1_554 S
C252 C250 1.500 . S
C252 C253 1.377 . S
C252 C257 1.377 . S
C253 C252 1.377 . S
C253 C254 1.395 . S
C253 H276 0.931 . S
C254 C253 1.395 . S
C254 C255 1.383 . S
C254 H277 0.931 . S
C255 C254 1.383 . S
C255 C256 1.394 . S
C256 C255 1.394 . S
C256 C257 1.378 . S
C256 H278 0.931 . S
C257 C252 1.377 . S
C257 C256 1.378 . S
C257 H279 0.931 . S
C258 O268 1.259 . S
C258 O269 1.270 . S
C259 O270 1.251 . S
C259 O271 1.251 . S
O260 C240 1.257 . S
O260 Eu241 2.473 1_554 S
O261 C240 1.260 . S
O261 Eu241 2.480 1_554 S
O262 Eu241 2.430 . S
O262 C248 1.259 . S
O263 Eu241 2.670 . S
O263 C248 1.270 . S
O263 Eu251 2.355 1_556 S
O264 Eu241 2.394 1_554 S
O264 C249 1.251 . S
O265 C249 1.251 . S
O265 Eu251 2.374 . S
O266 C250 1.257 . S
O266 Eu251 2.473 1_556 S
O267 C250 1.260 . S
O267 Eu251 2.480 1_556 S
O268 Eu251 2.430 . S
O268 C258 1.259 . S
O269 Eu241 2.355 1_554 S
O269 Eu251 2.670 . S
O269 C258 1.270 . S
O270 Eu251 2.394 1_556 S
O270 C259 1.251 . S
O271 Eu241 2.374 . S
O271 C259 1.251 . S
H272 C243 0.931 . S
H273 C244 0.931 . S
H274 C246 0.931 . S
H275 C247 0.931 . S
H276 C253 0.931 . S
H277 C254 0.931 . S
H278 C256 0.931 . S
H279 C257 0.931 . S
C280 Eu281 2.835 1_554 S
C280 C282 1.500 . S
C280 O300 1.257 . S
C280 O301 1.260 . S
Eu281 C280 2.835 1_556 S
Eu281 O300 2.473 1_556 S
Eu281 O301 2.480 1_556 S
Eu281 O302 2.430 . S
Eu281 O303 2.670 . S
Eu281 O304 2.394 1_556 S
Eu281 O309 2.355 1_556 S
Eu281 O311 2.374 . S
C282 C280 1.500 . S
C282 C283 1.377 . S
C282 C287 1.377 . S
C283 C282 1.377 . S
C283 C284 1.395 . S
C283 H312 0.931 . S
C284 C283 1.395 . S
C284 C285 1.383 . S
C284 H313 0.931 . S
C285 C284 1.383 . S
C285 C286 1.394 . S
C286 C285 1.394 . S
C286 C287 1.378 . S
C286 H314 0.931 . S
C287 C282 1.377 . S
C287 C286 1.378 . S
C287 H315 0.931 . S
C288 O302 1.259 . S
C288 O303 1.270 . S
C289 O304 1.251 . S
C289 O305 1.251 . S
C290 Eu291 2.835 1_556 S
C290 C292 1.500 . S
C290 O306 1.257 . S
C290 O307 1.260 . S
Eu291 C290 2.835 1_554 S
Eu291 O303 2.355 1_554 S
Eu291 O305 2.374 . S
Eu291 O306 2.473 1_554 S
Eu291 O307 2.480 1_554 S
Eu291 O308 2.430 . S
Eu291 O309 2.670 . S
Eu291 O310 2.394 1_554 S
C292 C290 1.500 . S
C292 C293 1.377 . S
C292 C297 1.377 . S
C293 C292 1.377 . S
C293 C294 1.395 . S
C293 H316 0.931 . S
C294 C293 1.395 . S
C294 C295 1.383 . S
C294 H317 0.931 . S
C295 C294 1.383 . S
C295 C296 1.394 . S
C296 C295 1.394 . S
C296 C297 1.378 . S
C296 H318 0.931 . S
C297 C292 1.377 . S
C297 C296 1.378 . S
C297 H319 0.931 . S
C298 O308 1.259 . S
C298 O309 1.270 . S
C299 O310 1.251 . S
C299 O311 1.251 . S
O300 C280 1.257 . S
O300 Eu281 2.473 1_554 S
O301 C280 1.260 . S
O301 Eu281 2.480 1_554 S
O302 Eu281 2.430 . S
O302 C288 1.259 . S
O303 Eu281 2.670 . S
O303 C288 1.270 . S
O303 Eu291 2.355 1_556 S
O304 Eu281 2.394 1_554 S
O304 C289 1.251 . S
O305 C289 1.251 . S
O305 Eu291 2.374 . S
O306 C290 1.257 . S
O306 Eu291 2.473 1_556 S
O307 C290 1.260 . S
O307 Eu291 2.480 1_556 S
O308 Eu291 2.430 . S
O308 C298 1.259 . S
O309 Eu281 2.355 1_554 S
O309 Eu291 2.670 . S
O309 C298 1.270 . S
O310 Eu291 2.394 1_556 S
O310 C299 1.251 . S
O311 Eu281 2.374 . S
O311 C299 1.251 . S
H312 C283 0.931 . S
H313 C284 0.931 . S
H314 C286 0.931 . S
H315 C287 0.931 . S
H316 C293 0.931 . S
H317 C294 0.931 . S
H318 C296 0.931 . S
H319 C297 0.931 . S
C320 C321 1.391 . S
C320 C322 1.394 . S
C320 H336 0.931 . S
C321 C320 1.391 . S
C321 C325 1.376 . S
C322 C320 1.394 . S
C322 C323 1.369 . S
C322 C326 1.531 . S
C323 C322 1.369 . S
C323 C324 1.410 . S
C323 C331 1.503 . S
C324 C323 1.410 . S
C324 C325 1.392 . S
C324 C327 1.511 . S
C325 C321 1.376 . S
C325 C324 1.392 . S
C325 H337 0.929 . S
C326 C322 1.531 . S
C326 H338 0.960 . S
C326 H339 0.962 . S
C326 H340 0.960 . S
C327 C324 1.511 . S
C327 H341 0.961 . S
C327 H342 0.961 . S
C327 H343 0.961 . S
C328 C329 1.370 . S
C328 C330 1.363 . S
C328 H344 0.931 . S
C329 C328 1.370 . S
C329 C333 1.408 . S
C330 C328 1.363 . S
C330 C331 1.370 . S
C330 C334 1.524 . S
C331 C323 1.503 . S
C331 C330 1.370 . S
C331 C332 1.403 . S
C332 C331 1.403 . S
C332 C333 1.404 . S
C332 C335 1.539 . S
C333 C329 1.408 . S
C333 C332 1.404 . S
C333 H345 0.930 . S
C334 C330 1.524 . S
C334 H346 0.956 . S
C334 H347 0.961 . S
C334 H348 0.961 . S
C335 C332 1.539 . S
C335 H349 0.958 . S
C335 H350 0.961 . S
C335 H351 0.960 . S
H336 C320 0.931 . S
H337 C325 0.929 . S
H338 C326 0.960 . S
H339 C326 0.962 . S
H340 C326 0.960 . S
H341 C327 0.961 . S
H342 C327 0.961 . S
H343 C327 0.961 . S
H344 C328 0.931 . S
H345 C333 0.930 . S
H346 C334 0.956 . S
H347 C334 0.961 . S
H348 C334 0.961 . S
H349 C335 0.958 . S
H350 C335 0.961 . S
H351 C335 0.960 . S
C352 C353 1.391 . S
C352 C354 1.394 . S
C352 H368 0.931 . S
C353 C352 1.391 . S
C353 C357 1.376 . S
C354 C352 1.394 . S
C354 C355 1.369 . S
C354 C358 1.531 . S
C355 C354 1.369 . S
C355 C356 1.410 . S
C355 C363 1.503 . S
C356 C355 1.410 . S
C356 C357 1.392 . S
C356 C359 1.511 . S
C357 C353 1.376 . S
C357 C356 1.392 . S
C357 H369 0.929 . S
C358 C354 1.531 . S
C358 H370 0.960 . S
C358 H371 0.962 . S
C358 H372 0.960 . S
C359 C356 1.511 . S
C359 H373 0.961 . S
C359 H374 0.961 . S
C359 H375 0.961 . S
C360 C361 1.370 . S
C360 C362 1.363 . S
C360 H376 0.931 . S
C361 C360 1.370 . S
C361 C365 1.408 . S
C362 C360 1.363 . S
C362 C363 1.370 . S
C362 C366 1.524 . S
C363 C355 1.503 . S
C363 C362 1.370 . S
C363 C364 1.403 . S
C364 C363 1.403 . S
C364 C365 1.404 . S
C364 C367 1.539 . S
C365 C361 1.408 . S
C365 C364 1.404 . S
C365 H377 0.930 . S
C366 C362 1.524 . S
C366 H378 0.956 . S
C366 H379 0.961 . S
C366 H380 0.961 . S
C367 C364 1.539 . S
C367 H381 0.958 . S
C367 H382 0.961 . S
C367 H383 0.960 . S
H368 C352 0.931 . S
H369 C357 0.929 . S
H370 C358 0.960 . S
H371 C358 0.962 . S
H372 C358 0.960 . S
H373 C359 0.961 . S
H374 C359 0.961 . S
H375 C359 0.961 . S
H376 C360 0.931 . S
H377 C365 0.930 . S
H378 C366 0.956 . S
H379 C366 0.961 . S
H380 C366 0.961 . S
H381 C367 0.958 . S
H382 C367 0.961 . S
H383 C367 0.960 . S
C384 C385 1.391 . S
C384 C386 1.394 . S
C384 H400 0.931 . S
C385 C384 1.391 . S
C385 C389 1.376 . S
C386 C384 1.394 . S
C386 C387 1.369 . S
C386 C390 1.531 . S
C387 C386 1.369 . S
C387 C388 1.410 . S
C387 C395 1.503 . S
C388 C387 1.410 . S
C388 C389 1.392 . S
C388 C391 1.511 . S
C389 C385 1.376 . S
C389 C388 1.392 . S
C389 H401 0.929 . S
C390 C386 1.531 . S
C390 H402 0.960 . S
C390 H403 0.962 . S
C390 H404 0.960 . S
C391 C388 1.511 . S
C391 H405 0.961 . S
C391 H406 0.961 . S
C391 H407 0.961 . S
C392 C393 1.370 . S
C392 C394 1.363 . S
C392 H408 0.931 . S
C393 C392 1.370 . S
C393 C397 1.408 . S
C394 C392 1.363 . S
C394 C395 1.370 . S
C394 C398 1.524 . S
C395 C387 1.503 . S
C395 C394 1.370 . S
C395 C396 1.403 . S
C396 C395 1.403 . S
C396 C397 1.404 . S
C396 C399 1.539 . S
C397 C393 1.408 . S
C397 C396 1.404 . S
C397 H409 0.930 . S
C398 C394 1.524 . S
C398 H410 0.956 . S
C398 H411 0.961 . S
C398 H412 0.961 . S
C399 C396 1.539 . S
C399 H413 0.958 . S
C399 H414 0.961 . S
C399 H415 0.960 . S
H400 C384 0.931 . S
H401 C389 0.929 . S
H402 C390 0.960 . S
H403 C390 0.962 . S
H404 C390 0.960 . S
H405 C391 0.961 . S
H406 C391 0.961 . S
H407 C391 0.961 . S
H408 C392 0.931 . S
H409 C397 0.930 . S
H410 C398 0.956 . S
H411 C398 0.961 . S
H412 C398 0.961 . S
H413 C399 0.958 . S
H414 C399 0.961 . S
H415 C399 0.960 . S
C416 C417 1.391 . S
C416 C418 1.394 . S
C416 H432 0.931 . S
C417 C416 1.391 . S
C417 C421 1.376 . S
C418 C416 1.394 . S
C418 C419 1.369 . S
C418 C422 1.531 . S
C419 C418 1.369 . S
C419 C420 1.410 . S
C419 C427 1.503 . S
C420 C419 1.410 . S
C420 C421 1.392 . S
C420 C423 1.511 . S
C421 C417 1.376 . S
C421 C420 1.392 . S
C421 H433 0.929 . S
C422 C418 1.531 . S
C422 H434 0.960 . S
C422 H435 0.962 . S
C422 H436 0.960 . S
C423 C420 1.511 . S
C423 H437 0.961 . S
C423 H438 0.961 . S
C423 H439 0.961 . S
C424 C425 1.370 . S
C424 C426 1.363 . S
C424 H440 0.931 . S
C425 C424 1.370 . S
C425 C429 1.408 . S
C426 C424 1.363 . S
C426 C427 1.370 . S
C426 C430 1.524 . S
C427 C419 1.503 . S
C427 C426 1.370 . S
C427 C428 1.403 . S
C428 C427 1.403 . S
C428 C429 1.404 . S
C428 C431 1.539 . S
C429 C425 1.408 . S
C429 C428 1.404 . S
C429 H441 0.930 . S
C430 C426 1.524 . S
C430 H442 0.956 . S
C430 H443 0.961 . S
C430 H444 0.961 . S
C431 C428 1.539 . S
C431 H445 0.958 . S
C431 H446 0.961 . S
C431 H447 0.960 . S
H432 C416 0.931 . S
H433 C421 0.929 . S
H434 C422 0.960 . S
H435 C422 0.962 . S
H436 C422 0.960 . S
H437 C423 0.961 . S
H438 C423 0.961 . S
H439 C423 0.961 . S
H440 C424 0.931 . S
H441 C429 0.930 . S
H442 C430 0.956 . S
H443 C430 0.961 . S
H444 C430 0.961 . S
H445 C431 0.958 . S
H446 C431 0.961 . S
H447 C431 0.960 . S
C448 C449 1.391 . S
C448 C450 1.394 . S
C448 H464 0.931 . S
C449 C448 1.391 . S
C449 C453 1.376 . S
C450 C448 1.394 . S
C450 C451 1.369 . S
C450 C454 1.531 . S
C451 C450 1.369 . S
C451 C452 1.410 . S
C451 C459 1.503 1_565 S
C452 C451 1.410 . S
C452 C453 1.392 . S
C452 C455 1.525 . S
C453 C449 1.376 . S
C453 C452 1.392 . S
C453 H465 0.929 . S
C454 C450 1.531 . S
C454 H466 0.960 . S
C454 H467 0.962 . S
C454 H468 0.960 . S
C455 C452 1.525 . S
C455 H469 0.974 . S
C455 H470 0.943 1_565 S
C455 H471 0.953 1_565 S
C456 C457 1.370 . S
C456 C458 1.363 . S
C456 H472 0.931 . S
C457 C456 1.370 . S
C457 C461 1.408 . S
C458 C456 1.363 . S
C458 C459 1.370 . S
C458 C462 1.524 . S
C459 C451 1.503 1_545 S
C459 C458 1.370 . S
C459 C460 1.403 . S
C460 C459 1.403 . S
C460 C461 1.404 . S
C460 C463 1.539 . S
C461 C457 1.408 . S
C461 C460 1.404 . S
C461 H473 0.930 . S
C462 C458 1.524 . S
C462 H474 0.956 1_545 S
C462 H475 0.961 1_545 S
C462 H476 0.961 . S
C463 C460 1.539 . S
C463 H477 0.958 . S
C463 H478 0.961 . S
C463 H479 0.960 . S
H464 C448 0.931 . S
H465 C453 0.929 . S
H466 C454 0.960 . S
H467 C454 0.962 . S
H468 C454 0.960 . S
H469 C455 0.974 . S
H470 C455 0.943 1_545 S
H471 C455 0.953 1_545 S
H472 C456 0.931 . S
H473 C461 0.930 . S
H474 C462 0.956 1_565 S
H475 C462 0.961 1_565 S
H476 C462 0.961 . S
H477 C463 0.958 . S
H478 C463 0.961 . S
H479 C463 0.960 . S
C480 C481 1.391 . S
C480 C482 1.394 . S
C480 H496 0.931 . S
C481 C480 1.391 . S
C481 C485 1.376 . S
C482 C480 1.394 . S
C482 C483 1.369 . S
C482 C486 1.531 . S
C483 C482 1.369 . S
C483 C484 1.410 . S
C483 C491 1.503 . S
C484 C483 1.410 . S
C484 C485 1.392 . S
C484 C487 1.511 . S
C485 C481 1.376 . S
C485 C484 1.392 . S
C485 H497 0.929 . S
C486 C482 1.531 . S
C486 H498 0.960 . S
C486 H499 0.962 . S
C486 H500 0.960 . S
C487 C484 1.511 . S
C487 H501 0.961 . S
C487 H502 0.961 . S
C487 H503 0.961 . S
C488 C489 1.370 . S
C488 C490 1.363 . S
C488 H504 0.931 . S
C489 C488 1.370 . S
C489 C493 1.408 . S
C490 C488 1.363 . S
C490 C491 1.370 . S
C490 C494 1.524 . S
C491 C483 1.503 . S
C491 C490 1.370 . S
C491 C492 1.403 . S
C492 C491 1.403 . S
C492 C493 1.404 . S
C492 C495 1.539 . S
C493 C489 1.408 . S
C493 C492 1.404 . S
C493 H505 0.930 . S
C494 C490 1.524 . S
C494 H506 0.956 . S
C494 H507 0.961 . S
C494 H508 0.961 . S
C495 C492 1.539 . S
C495 H509 0.958 . S
C495 H510 0.961 . S
C495 H511 0.960 . S
H496 C480 0.931 . S
H497 C485 0.929 . S
H498 C486 0.960 . S
H499 C486 0.962 . S
H500 C486 0.960 . S
H501 C487 0.961 . S
H502 C487 0.961 . S
H503 C487 0.961 . S
H504 C488 0.931 . S
H505 C493 0.930 . S
H506 C494 0.956 . S
H507 C494 0.961 . S
H508 C494 0.961 . S
H509 C495 0.958 . S
H510 C495 0.961 . S
H511 C495 0.960 . S
C512 C513 1.391 . S
C512 C514 1.394 . S
C512 H528 0.931 . S
C513 C512 1.391 . S
C513 C517 1.376 . S
C514 C512 1.394 . S
C514 C515 1.369 . S
C514 C518 1.531 . S
C515 C514 1.369 . S
C515 C516 1.410 . S
C515 C523 1.503 1_565 S
C516 C515 1.410 . S
C516 C517 1.392 . S
C516 C519 1.511 . S
C517 C513 1.376 . S
C517 C516 1.392 . S
C517 H529 0.929 . S
C518 C514 1.531 . S
C518 H530 0.960 1_565 S
C518 H531 0.962 1_565 S
C518 H532 0.960 . S
C519 C516 1.511 . S
C519 H533 0.961 . S
C519 H534 0.961 . S
C519 H535 0.961 . S
C520 C521 1.370 . S
C520 C522 1.363 . S
C520 H536 0.931 . S
C521 C520 1.370 . S
C521 C525 1.408 . S
C522 C520 1.363 . S
C522 C523 1.370 . S
C522 C526 1.524 . S
C523 C515 1.503 1_545 S
C523 C522 1.370 . S
C523 C524 1.403 . S
C524 C523 1.403 . S
C524 C525 1.404 . S
C524 C527 1.539 . S
C525 C521 1.408 . S
C525 C524 1.404 . S
C525 H537 0.930 . S
C526 C522 1.524 . S
C526 H538 0.956 . S
C526 H539 0.961 . S
C526 H540 0.961 . S
C527 C524 1.539 . S
C527 H541 0.958 . S
C527 H542 0.961 . S
C527 H543 0.960 1_545 S
H528 C512 0.931 . S
H529 C517 0.929 . S
H530 C518 0.960 1_545 S
H531 C518 0.962 1_545 S
H532 C518 0.960 . S
H533 C519 0.961 . S
H534 C519 0.961 . S
H535 C519 0.961 . S
H536 C520 0.931 . S
H537 C525 0.930 . S
H538 C526 0.956 . S
H539 C526 0.961 . S
H540 C526 0.961 . S
H541 C527 0.958 . S
H542 C527 0.961 . S
H543 C527 0.960 1_565 S
C544 C545 1.391 . S
C544 C546 1.394 . S
C544 H560 0.931 . S
C545 C544 1.391 . S
C545 C549 1.376 . S
C546 C544 1.394 . S
C546 C547 1.369 . S
C546 C550 1.531 . S
C547 C546 1.369 . S
C547 C548 1.410 . S
C547 C555 1.503 . S
C548 C547 1.410 . S
C548 C549 1.392 . S
C548 C551 1.511 . S
C549 C545 1.376 . S
C549 C548 1.392 . S
C549 H561 0.929 . S
C550 C546 1.531 . S
C550 H562 0.960 . S
C550 H563 0.962 . S
C550 H564 0.960 . S
C551 C548 1.511 . S
C551 H565 0.961 . S
C551 H566 0.961 . S
C551 H567 0.961 . S
C552 C553 1.370 . S
C552 C554 1.363 . S
C552 H568 0.931 . S
C553 C552 1.370 . S
C553 C557 1.408 . S
C554 C552 1.363 . S
C554 C555 1.370 . S
C554 C558 1.524 . S
C555 C547 1.503 . S
C555 C554 1.370 . S
C555 C556 1.403 . S
C556 C555 1.403 . S
C556 C557 1.404 . S
C556 C559 1.539 . S
C557 C553 1.408 . S
C557 C556 1.404 . S
C557 H569 0.930 . S
C558 C554 1.524 . S
C558 H570 0.956 . S
C558 H571 0.961 . S
C558 H572 0.961 . S
C559 C556 1.539 . S
C559 H573 0.958 . S
C559 H574 0.961 . S
C559 H575 0.960 . S
H560 C544 0.931 . S
H561 C549 0.929 . S
H562 C550 0.960 . S
H563 C550 0.962 . S
H564 C550 0.960 . S
H565 C551 0.961 . S
H566 C551 0.961 . S
H567 C551 0.961 . S
H568 C552 0.931 . S
H569 C557 0.930 . S
H570 C558 0.956 . S
H571 C558 0.961 . S
H572 C558 0.961 . S
H573 C559 0.958 . S
H574 C559 0.961 . S
H575 C559 0.960 . S
C576 C577 1.391 . S
C576 C578 1.394 . S
C576 H592 0.931 . S
C577 C576 1.391 . S
C577 C581 1.376 1_554 S
C578 C576 1.394 . S
C578 C579 1.369 . S
C578 C582 1.531 . S
C579 C578 1.369 . S
C579 C580 1.410 1_554 S
C579 C587 1.503 . S
C580 C579 1.410 1_556 S
C580 C581 1.392 . S
C580 C583 1.511 . S
C581 C577 1.376 1_556 S
C581 C580 1.392 . S
C581 H593 0.929 . S
C582 C578 1.531 . S
C582 H594 0.960 . S
C582 H595 0.962 . S
C582 H596 0.960 . S
C583 C580 1.511 . S
C583 H597 0.961 . S
C583 H598 0.961 . S
C583 H599 0.961 . S
C584 C585 1.370 . S
C584 C586 1.363 . S
C584 H600 0.931 . S
C585 C584 1.370 . S
C585 C589 1.408 1_556 S
C586 C584 1.363 . S
C586 C587 1.370 1_556 S
C586 C590 1.524 . S
C587 C579 1.503 . S
C587 C586 1.370 1_554 S
C587 C588 1.403 . S
C588 C587 1.403 . S
C588 C589 1.404 . S
C588 C591 1.539 . S
C589 C585 1.408 1_554 S
C589 C588 1.404 . S
C589 H601 0.930 . S
C590 C586 1.524 . S
C590 H602 0.956 . S
C590 H603 0.961 . S
C590 H604 0.961 . S
C591 C588 1.539 . S
C591 H605 0.958 . S
C591 H606 0.961 . S
C591 H607 0.960 . S
H592 C576 0.931 . S
H593 C581 0.929 . S
H594 C582 0.960 . S
H595 C582 0.962 . S
H596 C582 0.960 . S
H597 C583 0.961 . S
H598 C583 0.961 . S
H599 C583 0.961 . S
H600 C584 0.931 . S
H601 C589 0.930 . S
H602 C590 0.956 . S
H603 C590 0.961 . S
H604 C590 0.961 . S
H605 C591 0.958 . S
H606 C591 0.961 . S
H607 C591 0.960 . S
C608 C609 1.391 . S
C608 C610 1.394 . S
C608 H624 0.931 . S
C609 C608 1.391 . S
C609 C613 1.376 1_554 S
C610 C608 1.394 . S
C610 C611 1.369 . S
C610 C614 1.531 . S
C611 C610 1.369 . S
C611 C612 1.410 1_554 S
C611 C619 1.503 1_565 S
C612 C611 1.410 1_556 S
C612 C613 1.392 . S
C612 C615 1.511 . S
C613 C609 1.376 1_556 S
C613 C612 1.392 . S
C613 H625 0.929 . S
C614 C610 1.531 . S
C614 H626 0.960 . S
C614 H627 0.962 . S
C614 H628 0.960 . S
C615 C612 1.511 . S
C615 H629 0.961 . S
C615 H630 0.961 1_565 S
C615 H631 0.961 . S
C616 C617 1.370 . S
C616 C618 1.363 . S
C616 H632 0.931 . S
C617 C616 1.370 . S
C617 C621 1.408 1_556 S
C618 C616 1.363 . S
C618 C619 1.370 1_556 S
C618 C622 1.524 . S
C619 C611 1.503 1_545 S
C619 C618 1.370 1_554 S
C619 C620 1.403 . S
C620 C619 1.403 . S
C620 C621 1.404 . S
C620 C623 1.539 . S
C621 C617 1.408 1_554 S
C621 C620 1.404 . S
C621 H633 0.930 . S
C622 C618 1.524 . S
C622 H634 0.956 1_545 S
C622 H635 0.961 1_545 S
C622 H636 0.961 . S
C623 C620 1.539 . S
C623 H637 0.958 . S
C623 H638 0.961 . S
C623 H639 0.960 . S
H624 C608 0.931 . S
H625 C613 0.929 . S
H626 C614 0.960 . S
H627 C614 0.962 . S
H628 C614 0.960 . S
H629 C615 0.961 . S
H630 C615 0.961 1_545 S
H631 C615 0.961 . S
H632 C616 0.931 . S
H633 C621 0.930 . S
H634 C622 0.956 1_565 S
H635 C622 0.961 1_565 S
H636 C622 0.961 . S
H637 C623 0.958 . S
H638 C623 0.961 . S
H639 C623 0.960 . S
C640 C641 1.392 . S
C640 C642 1.394 . S
C640 H656 0.931 . S
C641 C640 1.392 . S
C641 C645 1.375 1_556 S
C642 C640 1.394 . S
C642 C643 1.369 . S
C642 C646 1.531 . S
C643 C642 1.369 . S
C643 C644 1.410 1_556 S
C643 C651 1.503 . S
C644 C643 1.410 1_554 S
C644 C645 1.392 . S
C644 C647 1.511 . S
C645 C641 1.375 1_554 S
C645 C644 1.392 . S
C645 H657 0.929 . S
C646 C642 1.531 . S
C646 H658 0.960 . S
C646 H659 0.962 . S
C646 H660 0.960 . S
C647 C644 1.511 . S
C647 H661 0.961 . S
C647 H662 0.961 . S
C647 H663 0.961 . S
C648 C649 1.370 . S
C648 C650 1.363 . S
C648 H664 0.931 . S
C649 C648 1.370 . S
C649 C653 1.408 1_554 S
C650 C648 1.363 . S
C650 C651 1.370 1_554 S
C650 C654 1.524 . S
C651 C643 1.503 . S
C651 C650 1.370 1_556 S
C651 C652 1.403 . S
C652 C651 1.403 . S
C652 C653 1.404 . S
C652 C655 1.539 . S
C653 C649 1.408 1_556 S
C653 C652 1.404 . S
C653 H665 0.930 . S
C654 C650 1.524 . S
C654 H666 0.956 . S
C654 H667 0.961 . S
C654 H668 0.961 . S
C655 C652 1.539 . S
C655 H669 0.958 . S
C655 H670 0.961 . S
C655 H671 0.960 . S
H656 C640 0.931 . S
H657 C645 0.929 . S
H658 C646 0.960 . S
H659 C646 0.962 . S
H660 C646 0.960 . S
H661 C647 0.961 . S
H662 C647 0.961 . S
H663 C647 0.961 . S
H664 C648 0.931 . S
H665 C653 0.930 . S
H666 C654 0.956 . S
H667 C654 0.961 . S
H668 C654 0.961 . S
H669 C655 0.958 . S
H670 C655 0.961 . S
H671 C655 0.960 . S
C672 C673 1.391 . S
C672 C674 1.394 . S
C672 H688 0.931 . S
C673 C672 1.391 . S
C673 C677 1.376 1_554 S
C674 C672 1.394 . S
C674 C675 1.369 . S
C674 C678 1.531 . S
C675 C674 1.369 . S
C675 C676 1.410 1_554 S
C675 C683 1.503 1_545 S
C676 C675 1.410 1_556 S
C676 C677 1.392 . S
C676 C679 1.511 . S
C677 C673 1.376 1_556 S
C677 C676 1.392 . S
C677 H689 0.929 . S
C678 C674 1.531 . S
C678 H690 0.960 . S
C678 H691 0.962 . S
C678 H692 0.960 . S
C679 C676 1.511 . S
C679 H693 0.961 . S
C679 H694 0.961 1_545 S
C679 H695 0.961 1_556 S
C680 C681 1.370 1_556 S
C680 C682 1.363 . S
C680 H696 0.931 . S
C681 C680 1.370 1_554 S
C681 C685 1.408 . S
C682 C680 1.363 . S
C682 C683 1.370 1_556 S
C682 C686 1.524 . S
C683 C675 1.503 1_565 S
C683 C682 1.370 1_554 S
C683 C684 1.403 . S
C684 C683 1.403 . S
C684 C685 1.404 . S
C684 C687 1.539 . S
C685 C681 1.408 . S
C685 C684 1.404 . S
C685 H697 0.930 . S
C686 C682 1.524 . S
C686 H698 0.956 1_565 S
C686 H699 0.961 1_565 S
C686 H700 0.961 . S
C687 C684 1.539 . S
C687 H701 0.958 . S
C687 H702 0.961 . S
C687 H703 0.960 . S
H688 C672 0.931 . S
H689 C677 0.929 . S
H690 C678 0.960 . S
H691 C678 0.962 . S
H692 C678 0.960 . S
H693 C679 0.961 . S
H694 C679 0.961 1_565 S
H695 C679 0.961 1_554 S
H696 C680 0.931 . S
H697 C685 0.930 . S
H698 C686 0.956 1_545 S
H699 C686 0.961 1_545 S
H700 C686 0.961 . S
H701 C687 0.958 . S
H702 C687 0.961 . S
H703 C687 0.960 . S
C704 C705 1.391 . S
C704 C706 1.394 . S
C704 H720 0.931 . S
C705 C704 1.391 . S
C705 C709 1.376 . S
C706 C704 1.394 . S
C706 C707 1.369 1_554 S
C706 C710 1.531 1_554 S
C707 C706 1.369 1_556 S
C707 C708 1.410 1_556 S
C707 C715 1.503 . S
C708 C707 1.410 1_554 S
C708 C709 1.392 . S
C708 C711 1.517 . S
C709 C705 1.376 . S
C709 C708 1.392 . S
C709 H721 0.929 . S
C710 C706 1.531 1_556 S
C710 H722 0.960 . S
C710 H723 0.962 . S
C710 H724 0.955 1_556 S
C711 C708 1.517 . S
C711 H725 0.969 . S
C711 H726 0.948 1_554 S
C711 H727 0.961 . S
C712 C713 1.370 . S
C712 C714 1.363 . S
C712 H728 0.931 . S
C713 C712 1.370 . S
C713 C717 1.408 . S
C714 C712 1.363 . S
C714 C715 1.370 . S
C714 C718 1.524 . S
C715 C707 1.503 . S
C715 C714 1.370 . S
C715 C716 1.403 . S
C716 C715 1.403 . S
C716 C717 1.404 . S
C716 C719 1.539 . S
C717 C713 1.408 . S
C717 C716 1.404 . S
C717 H729 0.930 . S
C718 C714 1.524 . S
C718 H730 0.956 . S
C718 H731 0.961 . S
C718 H732 0.961 . S
C719 C716 1.539 . S
C719 H733 0.958 . S
C719 H734 0.961 . S
C719 H735 0.960 . S
H720 C704 0.931 . S
H721 C709 0.929 . S
H722 C710 0.960 . S
H723 C710 0.962 . S
H724 C710 0.955 1_554 S
H725 C711 0.969 . S
H726 C711 0.948 1_556 S
H727 C711 0.961 . S
H728 C712 0.931 . S
H729 C717 0.930 . S
H730 C718 0.956 . S
H731 C718 0.961 . S
H732 C718 0.961 . S
H733 C719 0.958 . S
H734 C719 0.961 . S
H735 C719 0.960 . S
C736 C737 1.391 . S
C736 C738 1.394 . S
C736 H752 0.931 . S
C737 C736 1.391 . S
C737 C741 1.376 . S
C738 C736 1.394 . S
C738 C739 1.369 1_554 S
C738 C742 1.531 1_554 S
C739 C738 1.369 1_556 S
C739 C740 1.410 1_556 S
C739 C747 1.503 . S
C740 C739 1.410 1_554 S
C740 C741 1.392 . S
C740 C743 1.511 1_554 S
C741 C737 1.376 . S
C741 C740 1.392 . S
C741 H753 0.929 . S
C742 C738 1.531 1_556 S
C742 H754 0.960 . S
C742 H755 0.962 . S
C742 H756 0.960 1_556 S
C743 C740 1.511 1_556 S
C743 H757 0.961 . S
C743 H758 0.961 . S
C743 H759 0.961 . S
C744 C745 1.370 . S
C744 C746 1.363 . S
C744 H760 0.931 . S
C745 C744 1.370 . S
C745 C749 1.408 . S
C746 C744 1.363 . S
C746 C747 1.370 . S
C746 C750 1.524 . S
C747 C739 1.503 . S
C747 C746 1.370 . S
C747 C748 1.403 . S
C748 C747 1.403 . S
C748 C749 1.404 . S
C748 C751 1.539 . S
C749 C745 1.408 . S
C749 C748 1.404 . S
C749 H761 0.930 . S
C750 C746 1.524 . S
C750 H762 0.956 . S
C750 H763 0.961 . S
C750 H764 0.961 . S
C751 C748 1.539 . S
C751 H765 0.958 . S
C751 H766 0.961 . S
C751 H767 0.960 . S
H752 C736 0.931 . S
H753 C741 0.929 . S
H754 C742 0.960 . S
H755 C742 0.962 . S
H756 C742 0.960 1_554 S
H757 C743 0.961 . S
H758 C743 0.961 . S
H759 C743 0.961 . S
H760 C744 0.931 . S
H761 C749 0.930 . S
H762 C750 0.956 . S
H763 C750 0.961 . S
H764 C750 0.961 . S
H765 C751 0.958 . S
H766 C751 0.961 . S
H767 C751 0.960 . S
C768 C769 1.391 . S
C768 C770 1.394 . S
C768 H784 0.931 . S
C769 C768 1.391 . S
C769 C773 1.376 . S
C770 C768 1.394 . S
C770 C771 1.369 . S
C770 C774 1.531 . S
C771 C770 1.369 . S
C771 C772 1.410 . S
C771 C779 1.503 . S
C772 C771 1.410 . S
C772 C773 1.392 . S
C772 C775 1.511 . S
C773 C769 1.376 . S
C773 C772 1.392 . S
C773 H785 0.929 . S
C774 C770 1.531 . S
C774 H786 0.960 . S
C774 H787 0.962 . S
C774 H788 0.960 . S
C775 C772 1.511 . S
C775 H789 0.961 . S
C775 H790 0.961 . S
C775 H791 0.961 . S
C776 C777 1.370 . S
C776 C778 1.363 . S
C776 H792 0.931 . S
C777 C776 1.370 . S
C777 C781 1.408 . S
C778 C776 1.363 . S
C778 C779 1.370 1_556 S
C778 C782 1.524 1_556 S
C779 C771 1.503 . S
C779 C778 1.370 1_554 S
C779 C780 1.403 1_554 S
C780 C779 1.403 1_556 S
C780 C781 1.404 . S
C780 C783 1.543 . S
C781 C777 1.408 . S
C781 C780 1.404 . S
C781 H793 0.930 . S
C782 C778 1.524 1_554 S
C782 H794 0.956 . S
C782 H795 0.961 . S
C782 H796 0.962 1_554 S
C783 C780 1.543 . S
C783 H797 0.956 1_556 S
C783 H798 0.969 . S
C783 H799 0.951 1_556 S
H784 C768 0.931 . S
H785 C773 0.929 . S
H786 C774 0.960 . S
H787 C774 0.962 . S
H788 C774 0.960 . S
H789 C775 0.961 . S
H790 C775 0.961 . S
H791 C775 0.961 . S
H792 C776 0.931 . S
H793 C781 0.930 . S
H794 C782 0.956 . S
H795 C782 0.961 . S
H796 C782 0.962 1_556 S
H797 C783 0.956 1_554 S
H798 C783 0.969 . S
H799 C783 0.951 1_554 S
C800 C801 1.391 . S
C800 C802 1.394 . S
C800 H816 0.931 . S
C801 C800 1.391 . S
C801 C805 1.376 . S
C802 C800 1.394 . S
C802 C803 1.369 1_556 S
C802 C806 1.527 1_556 S
C803 C802 1.369 1_554 S
C803 C804 1.410 1_554 S
C803 C811 1.503 . S
C804 C803 1.410 1_556 S
C804 C805 1.392 . S
C804 C807 1.511 1_556 S
C805 C801 1.376 . S
C805 C804 1.392 . S
C805 H817 0.929 . S
C806 C802 1.527 1_554 S
C806 H818 0.968 . S
C806 H819 0.963 . S
C806 H820 0.955 1_554 S
C807 C804 1.511 1_554 S
C807 H821 0.961 . S
C807 H822 0.961 . S
C807 H823 0.961 . S
C808 C809 1.370 . S
C808 C810 1.363 . S
C808 H824 0.931 . S
C809 C808 1.370 . S
C809 C813 1.408 . S
C810 C808 1.363 . S
C810 C811 1.370 . S
C810 C814 1.524 . S
C811 C803 1.503 . S
C811 C810 1.370 . S
C811 C812 1.403 . S
C812 C811 1.403 . S
C812 C813 1.404 . S
C812 C815 1.539 . S
C813 C809 1.408 . S
C813 C812 1.404 . S
C813 H825 0.930 . S
C814 C810 1.524 . S
C814 H826 0.956 . S
C814 H827 0.961 . S
C814 H828 0.961 . S
C815 C812 1.539 . S
C815 H829 0.958 . S
C815 H830 0.961 . S
C815 H831 0.960 . S
H816 C800 0.931 . S
H817 C805 0.929 . S
H818 C806 0.968 . S
H819 C806 0.963 . S
H820 C806 0.955 1_556 S
H821 C807 0.961 . S
H822 C807 0.961 . S
H823 C807 0.961 . S
H824 C808 0.931 . S
H825 C813 0.930 . S
H826 C814 0.956 . S
H827 C814 0.961 . S
H828 C814 0.961 . S
H829 C815 0.958 . S
H830 C815 0.961 . S
H831 C815 0.960 . S
C832 C833 1.391 . S
C832 C834 1.394 . S
C832 H848 0.931 . S
C833 C832 1.391 . S
C833 C837 1.376 . S
C834 C832 1.394 . S
C834 C835 1.369 . S
C834 C838 1.531 . S
C835 C834 1.369 . S
C835 C836 1.410 . S
C835 C843 1.503 . S
C836 C835 1.410 . S
C836 C837 1.392 . S
C836 C839 1.511 . S
C837 C833 1.376 . S
C837 C836 1.392 . S
C837 H849 0.929 . S
C838 C834 1.531 . S
C838 H850 0.960 . S
C838 H851 0.962 . S
C838 H852 0.960 . S
C839 C836 1.511 . S
C839 H853 0.961 . S
C839 H854 0.961 . S
C839 H855 0.961 . S
C840 C841 1.370 . S
C840 C842 1.363 . S
C840 H856 0.931 . S
C841 C840 1.370 . S
C841 C845 1.408 . S
C842 C840 1.363 . S
C842 C843 1.370 . S
C842 C846 1.524 . S
C843 C835 1.503 . S
C843 C842 1.370 . S
C843 C844 1.403 . S
C844 C843 1.403 . S
C844 C845 1.404 . S
C844 C847 1.539 . S
C845 C841 1.408 . S
C845 C844 1.404 . S
C845 H857 0.930 . S
C846 C842 1.524 . S
C846 H858 0.956 . S
C846 H859 0.961 . S
C846 H860 0.961 . S
C847 C844 1.539 . S
C847 H861 0.958 . S
C847 H862 0.961 . S
C847 H863 0.960 . S
H848 C832 0.931 . S
H849 C837 0.929 . S
H850 C838 0.960 . S
H851 C838 0.962 . S
H852 C838 0.960 . S
H853 C839 0.961 . S
H854 C839 0.961 . S
H855 C839 0.961 . S
H856 C840 0.931 . S
H857 C845 0.930 . S
H858 C846 0.956 . S
H859 C846 0.961 . S
H860 C846 0.961 . S
H861 C847 0.958 . S
H862 C847 0.961 . S
H863 C847 0.960 . S
C864 C865 1.391 . S
C864 C866 1.394 . S
C864 H880 0.931 . S
C865 C864 1.391 . S
C865 C869 1.376 . S
C866 C864 1.394 . S
C866 C867 1.369 . S
C866 C870 1.531 . S
C867 C866 1.369 . S
C867 C868 1.410 . S
C867 C875 1.503 . S
C868 C867 1.410 . S
C868 C869 1.392 . S
C868 C871 1.511 . S
C869 C865 1.376 . S
C869 C868 1.392 . S
C869 H881 0.929 . S
C870 C866 1.531 . S
C870 H882 0.960 . S
C870 H883 0.962 . S
C870 H884 0.960 . S
C871 C868 1.511 . S
C871 H885 0.961 . S
C871 H886 0.961 . S
C871 H887 0.961 . S
C872 C873 1.370 . S
C872 C874 1.363 . S
C872 H888 0.931 . S
C873 C872 1.370 . S
C873 C877 1.408 . S
C874 C872 1.363 . S
C874 C875 1.370 . S
C874 C878 1.524 . S
C875 C867 1.503 . S
C875 C874 1.370 . S
C875 C876 1.403 . S
C876 C875 1.403 . S
C876 C877 1.404 . S
C876 C879 1.539 . S
C877 C873 1.408 . S
C877 C876 1.404 . S
C877 H889 0.930 . S
C878 C874 1.524 . S
C878 H890 0.956 . S
C878 H891 0.961 . S
C878 H892 0.961 . S
C879 C876 1.539 . S
C879 H893 0.958 . S
C879 H894 0.961 . S
C879 H895 0.960 . S
H880 C864 0.931 . S
H881 C869 0.929 . S
H882 C870 0.960 . S
H883 C870 0.962 . S
H884 C870 0.960 . S
H885 C871 0.961 . S
H886 C871 0.961 . S
H887 C871 0.961 . S
H888 C872 0.931 . S
H889 C877 0.930 . S
H890 C878 0.956 . S
H891 C878 0.961 . S
H892 C878 0.961 . S
H893 C879 0.958 . S
H894 C879 0.961 . S
H895 C879 0.960 . S
C896 C897 1.391 . S
C896 C898 1.394 . S
C896 H912 0.931 . S
C897 C896 1.391 . S
C897 C901 1.376 . S
C898 C896 1.394 . S
C898 C899 1.369 . S
C898 C902 1.531 . S
C899 C898 1.369 . S
C899 C900 1.410 . S
C899 C907 1.503 . S
C900 C899 1.410 . S
C900 C901 1.392 . S
C900 C903 1.511 . S
C901 C897 1.376 . S
C901 C900 1.392 . S
C901 H913 0.929 . S
C902 C898 1.531 . S
C902 H914 0.960 . S
C902 H915 0.962 . S
C902 H916 0.960 . S
C903 C900 1.511 . S
C903 H917 0.961 . S
C903 H918 0.961 . S
C903 H919 0.961 . S
C904 C905 1.370 . S
C904 C906 1.363 . S
C904 H920 0.931 . S
C905 C904 1.370 . S
C905 C909 1.408 . S
C906 C904 1.363 . S
C906 C907 1.370 . S
C906 C910 1.524 . S
C907 C899 1.503 . S
C907 C906 1.370 . S
C907 C908 1.403 . S
C908 C907 1.403 . S
C908 C909 1.404 . S
C908 C911 1.539 . S
C909 C905 1.408 . S
C909 C908 1.404 . S
C909 H921 0.930 . S
C910 C906 1.524 . S
C910 H922 0.956 . S
C910 H923 0.961 . S
C910 H924 0.961 . S
C911 C908 1.539 . S
C911 H925 0.958 . S
C911 H926 0.961 . S
C911 H927 0.960 . S
H912 C896 0.931 . S
H913 C901 0.929 . S
H914 C902 0.960 . S
H915 C902 0.962 . S
H916 C902 0.960 . S
H917 C903 0.961 . S
H918 C903 0.961 . S
H919 C903 0.961 . S
H920 C904 0.931 . S
H921 C909 0.930 . S
H922 C910 0.956 . S
H923 C910 0.961 . S
H924 C910 0.961 . S
H925 C911 0.958 . S
H926 C911 0.961 . S
H927 C911 0.960 . S
C928 C929 1.391 . S
C928 C930 1.394 . S
C928 H944 0.931 . S
C929 C928 1.391 . S
C929 C933 1.376 . S
C930 C928 1.394 . S
C930 C931 1.369 . S
C930 C934 1.531 . S
C931 C930 1.369 . S
C931 C932 1.410 . S
C931 C939 1.503 . S
C932 C931 1.410 . S
C932 C933 1.392 . S
C932 C935 1.511 . S
C933 C929 1.376 . S
C933 C932 1.392 . S
C933 H945 0.929 . S
C934 C930 1.531 . S
C934 H946 0.960 . S
C934 H947 0.962 . S
C934 H948 0.960 . S
C935 C932 1.511 . S
C935 H949 0.961 . S
C935 H950 0.961 . S
C935 H951 0.961 . S
C936 C937 1.370 . S
C936 C938 1.363 . S
C936 H952 0.931 . S
C937 C936 1.370 . S
C937 C941 1.408 . S
C938 C936 1.363 . S
C938 C939 1.370 . S
C938 C942 1.524 . S
C939 C931 1.503 . S
C939 C938 1.370 . S
C939 C940 1.403 . S
C940 C939 1.403 . S
C940 C941 1.404 . S
C940 C943 1.539 . S
C941 C937 1.408 . S
C941 C940 1.404 . S
C941 H953 0.930 . S
C942 C938 1.524 . S
C942 H954 0.956 . S
C942 H955 0.961 . S
C942 H956 0.961 . S
C943 C940 1.539 . S
C943 H957 0.958 . S
C943 H958 0.961 . S
C943 H959 0.960 . S
H944 C928 0.931 . S
H945 C933 0.929 . S
H946 C934 0.960 . S
H947 C934 0.962 . S
H948 C934 0.960 . S
H949 C935 0.961 . S
H950 C935 0.961 . S
H951 C935 0.961 . S
H952 C936 0.931 . S
H953 C941 0.930 . S
H954 C942 0.956 . S
H955 C942 0.961 . S
H956 C942 0.961 . S
H957 C943 0.958 . S
H958 C943 0.961 . S
H959 C943 0.960 . S
C960 C961 1.391 . S
C960 C962 1.394 . S
C960 H976 0.931 . S
C961 C960 1.391 . S
C961 C965 1.376 . S
C962 C960 1.394 . S
C962 C963 1.369 . S
C962 C966 1.531 . S
C963 C962 1.369 . S
C963 C964 1.410 . S
C963 C971 1.503 1_455 S
C964 C963 1.410 . S
C964 C965 1.392 . S
C964 C967 1.511 . S
C965 C961 1.376 . S
C965 C964 1.392 . S
C965 H977 0.929 . S
C966 C962 1.531 . S
C966 H978 0.960 . S
C966 H979 0.962 . S
C966 H980 0.960 . S
C967 C964 1.511 . S
C967 H981 0.961 . S
C967 H982 0.961 1_455 S
C967 H983 0.961 . S
C968 C969 1.370 . S
C968 C970 1.363 . S
C968 H984 0.931 . S
C969 C968 1.370 . S
C969 C973 1.408 . S
C970 C968 1.363 . S
C970 C971 1.370 . S
C970 C974 1.524 . S
C971 C963 1.503 1_655 S
C971 C970 1.370 . S
C971 C972 1.403 . S
C972 C971 1.403 . S
C972 C973 1.404 . S
C972 C975 1.539 . S
C973 C969 1.408 . S
C973 C972 1.404 . S
C973 H985 0.930 . S
C974 C970 1.524 . S
C974 H986 0.956 . S
C974 H987 0.961 . S
C974 H988 0.961 . S
C975 C972 1.539 . S
C975 H989 0.958 . S
C975 H990 0.961 . S
C975 H991 0.892 1_655 S
H976 C960 0.931 . S
H977 C965 0.929 . S
H978 C966 0.960 . S
H979 C966 0.962 . S
H980 C966 0.960 . S
H981 C967 0.961 . S
H982 C967 0.961 1_655 S
H983 C967 0.961 . S
H984 C968 0.931 . S
H985 C973 0.930 . S
H986 C974 0.956 . S
H987 C974 0.961 . S
H988 C974 0.961 . S
H989 C975 0.958 . S
H990 C975 0.961 . S
H991 C975 0.892 1_455 S
C992 C993 1.391 . S
C992 C994 1.394 . S
C992 H1008 0.931 . S
C993 C992 1.391 . S
C993 C997 1.376 . S
C994 C992 1.394 . S
C994 C995 1.369 . S
C994 C998 1.531 . S
C995 C994 1.369 . S
C995 C996 1.410 . S
C995 C1003 1.503 1_655 S
C996 C995 1.410 . S
C996 C997 1.392 . S
C996 C999 1.511 . S
C997 C993 1.376 . S
C997 C996 1.392 . S
C997 H1009 0.929 . S
C998 C994 1.531 . S
C998 H1010 0.960 1_655 S
C998 H1011 0.962 . S
C998 H1012 0.960 . S
C999 C996 1.511 . S
C999 H1013 0.961 . S
C999 H1014 0.944 1_655 S
C999 H1015 0.961 . S
C1000 C1001 1.370 . S
C1000 C1002 1.363 . S
C1000 H1016 0.931 . S
C1001 C1000 1.370 . S
C1001 C1005 1.408 . S
C1002 C1000 1.363 . S
C1002 C1003 1.370 . S
C1002 C1006 1.524 . S
C1003 C995 1.503 1_455 S
C1003 C1002 1.370 . S
C1003 C1004 1.403 . S
C1004 C1003 1.403 . S
C1004 C1005 1.404 . S
C1004 C1007 1.539 . S
C1005 C1001 1.408 . S
C1005 C1004 1.404 . S
C1005 H1017 0.930 . S
C1006 C1002 1.524 . S
C1006 H1018 0.956 1_455 S
C1006 H1019 0.961 1_455 S
C1006 H1020 0.961 . S
C1007 C1004 1.539 . S
C1007 H1021 0.958 . S
C1007 H1022 0.961 . S
C1007 H1023 0.960 . S
H1008 C992 0.931 . S
H1009 C997 0.929 . S
H1010 C998 0.960 1_455 S
H1011 C998 0.962 . S
H1012 C998 0.960 . S
H1013 C999 0.961 . S
H1014 C999 0.944 1_455 S
H1015 C999 0.961 . S
H1016 C1000 0.931 . S
H1017 C1005 0.930 . S
H1018 C1006 0.956 1_655 S
H1019 C1006 0.961 1_655 S
H1020 C1006 0.961 . S
H1021 C1007 0.958 . S
H1022 C1007 0.961 . S
H1023 C1007 0.960 . S
C1024 C1025 1.391 . S
C1024 C1026 1.394 . S
C1024 H1040 0.931 . S
C1025 C1024 1.391 . S
C1025 C1029 1.376 . S
C1026 C1024 1.394 . S
C1026 C1027 1.369 . S
C1026 C1030 1.531 . S
C1027 C1026 1.369 . S
C1027 C1028 1.410 . S
C1027 C1035 1.503 . S
C1028 C1027 1.410 . S
C1028 C1029 1.392 . S
C1028 C1031 1.511 . S
C1029 C1025 1.376 . S
C1029 C1028 1.392 . S
C1029 H1041 0.929 . S
C1030 C1026 1.531 . S
C1030 H1042 0.960 . S
C1030 H1043 0.962 . S
C1030 H1044 0.960 . S
C1031 C1028 1.511 . S
C1031 H1045 0.961 . S
C1031 H1046 0.961 . S
C1031 H1047 0.961 . S
C1032 C1033 1.370 . S
C1032 C1034 1.363 . S
C1032 H1048 0.931 . S
C1033 C1032 1.370 . S
C1033 C1037 1.408 . S
C1034 C1032 1.363 . S
C1034 C1035 1.370 . S
C1034 C1038 1.524 . S
C1035 C1027 1.503 . S
C1035 C1034 1.370 . S
C1035 C1036 1.403 . S
C1036 C1035 1.403 . S
C1036 C1037 1.404 . S
C1036 C1039 1.539 . S
C1037 C1033 1.408 . S
C1037 C1036 1.404 . S
C1037 H1049 0.930 . S
C1038 C1034 1.524 . S
C1038 H1050 0.956 . S
C1038 H1051 0.961 . S
C1038 H1052 0.961 . S
C1039 C1036 1.539 . S
C1039 H1053 0.958 . S
C1039 H1054 0.961 . S
C1039 H1055 0.960 . S
H1040 C1024 0.931 . S
H1041 C1029 0.929 . S
H1042 C1030 0.960 . S
H1043 C1030 0.962 . S
H1044 C1030 0.960 . S
H1045 C1031 0.961 . S
H1046 C1031 0.961 . S
H1047 C1031 0.961 . S
H1048 C1032 0.931 . S
H1049 C1037 0.930 . S
H1050 C1038 0.956 . S
H1051 C1038 0.961 . S
H1052 C1038 0.961 . S
H1053 C1039 0.958 . S
H1054 C1039 0.961 . S
H1055 C1039 0.960 . S
C1056 C1057 1.391 . S
C1056 C1058 1.394 . S
C1056 H1072 0.931 . S
C1057 C1056 1.391 . S
C1057 C1061 1.376 . S
C1058 C1056 1.394 . S
C1058 C1059 1.369 . S
C1058 C1062 1.531 . S
C1059 C1058 1.369 . S
C1059 C1060 1.410 . S
C1059 C1067 1.503 . S
C1060 C1059 1.410 . S
C1060 C1061 1.392 . S
C1060 C1063 1.511 . S
C1061 C1057 1.376 . S
C1061 C1060 1.392 . S
C1061 H1073 0.929 . S
C1062 C1058 1.531 . S
C1062 H1074 0.960 . S
C1062 H1075 0.962 . S
C1062 H1076 0.960 . S
C1063 C1060 1.511 . S
C1063 H1077 0.961 . S
C1063 H1078 0.961 . S
C1063 H1079 0.961 . S
C1064 C1065 1.370 . S
C1064 C1066 1.363 . S
C1064 H1080 0.931 . S
C1065 C1064 1.370 . S
C1065 C1069 1.408 . S
C1066 C1064 1.363 . S
C1066 C1067 1.370 . S
C1066 C1070 1.524 . S
C1067 C1059 1.503 . S
C1067 C1066 1.370 . S
C1067 C1068 1.403 . S
C1068 C1067 1.403 . S
C1068 C1069 1.404 . S
C1068 C1071 1.539 . S
C1069 C1065 1.408 . S
C1069 C1068 1.404 . S
C1069 H1081 0.930 . S
C1070 C1066 1.524 . S
C1070 H1082 0.956 . S
C1070 H1083 0.961 . S
C1070 H1084 0.961 . S
C1071 C1068 1.539 . S
C1071 H1085 0.958 . S
C1071 H1086 0.961 . S
C1071 H1087 0.960 . S
H1072 C1056 0.931 . S
H1073 C1061 0.929 . S
H1074 C1062 0.960 . S
H1075 C1062 0.962 . S
H1076 C1062 0.960 . S
H1077 C1063 0.961 . S
H1078 C1063 0.961 . S
H1079 C1063 0.961 . S
H1080 C1064 0.931 . S
H1081 C1069 0.930 . S
H1082 C1070 0.956 . S
H1083 C1070 0.961 . S
H1084 C1070 0.961 . S
H1085 C1071 0.958 . S
H1086 C1071 0.961 . S
H1087 C1071 0.960 . S
C321 C5 1.662 . S
C329 C295 1.656 . S
C353 C255 1.662 . S
C361 C45 1.656 . S
C385 C205 1.655 . S
C393 C95 1.659 . S
C417 C165 1.662 . S
C425 C135 1.657 . S
C449 C98 1.566 . S
C457 C18 1.506 . S
C481 C58 1.480 . S
C489 C138 1.567 . S
C513 C128 1.484 . S
C521 C48 1.559 . S
C545 C88 1.494 . S
C553 C8 1.554 . S
C577 C178 1.409 . S
C585 C258 1.442 1_556 S
C609 C218 1.405 . S
C617 C298 1.445 1_556 S
C641 C288 1.446 . S
C649 C208 1.425 1_554 S
C673 C248 1.437 1_554 S
C681 C168 1.448 1_554 S
C705 C19 1.988 . S
C713 C9 2.004 . S
C737 C59 1.999 . S
C745 C49 1.997 . S
C769 C99 1.991 . S
C777 C89 2.000 . S
C801 C129 2.014 . S
C809 C139 1.991 . S
C833 C169 1.974 . S
C841 C179 2.008 . S
C865 C219 1.984 . S
C873 C209 2.002 . S
C897 C249 1.999 . S
C905 C259 1.996 . S
C929 C289 1.973 . S
C937 C299 2.008 . S
C961 C15 2.265 . S
C969 C55 2.261 . S
C993 C125 2.253 . S
C1001 C85 2.260 . S
C1025 C175 2.243 . S
C1033 C215 2.252 . S
C1057 C285 2.237 . S
C1065 C245 2.253 . S
