# Generated by pormake.
# Topology smm, (6)-cn, num edge types: 1
# Building blocks:
#     Node 0, Type 0, BuildingBlock: FUNLAD_clean_sbu_0, # of connection points: 6
#     Node 1, Type 0, BuildingBlock: FUNLAD_clean_sbu_0, # of connection points: 6
#     Node 2, Type 0, BuildingBlock: FUNLAD_clean_sbu_0, # of connection points: 6
#     Node 3, Type 0, BuildingBlock: FUNLAD_clean_sbu_0, # of connection points: 6
#     Node 4, Type 0, BuildingBlock: FUNLAD_clean_sbu_0, # of connection points: 6
#     Node 5, Type 0, BuildingBlock: FUNLAD_clean_sbu_0, # of connection points: 6
#     Node 6, Type 0, BuildingBlock: FUNLAD_clean_sbu_0, # of connection points: 6
#     Node 7, Type 0, BuildingBlock: FUNLAD_clean_sbu_0, # of connection points: 6
#     Node 8, Type 0, BuildingBlock: FUNLAD_clean_sbu_0, # of connection points: 6
#     Edge 9, Type (0, 0), BuildingBlock: KIFKEQ_clean_linker_1, # of connection points: 2
#     Edge 10, Type (0, 0), BuildingBlock: KIFKEQ_clean_linker_1, # of connection points: 2
#     Edge 11, Type (0, 0), BuildingBlock: KIFKEQ_clean_linker_1, # of connection points: 2
#     Edge 12, Type (0, 0), BuildingBlock: KIFKEQ_clean_linker_1, # of connection points: 2
#     Edge 13, Type (0, 0), BuildingBlock: KIFKEQ_clean_linker_1, # of connection points: 2
#     Edge 14, Type (0, 0), BuildingBlock: KIFKEQ_clean_linker_1, # of connection points: 2
#     Edge 15, Type (0, 0), BuildingBlock: KIFKEQ_clean_linker_1, # of connection points: 2
#     Edge 16, Type (0, 0), BuildingBlock: KIFKEQ_clean_linker_1, # of connection points: 2
#     Edge 17, Type (0, 0), BuildingBlock: KIFKEQ_clean_linker_1, # of connection points: 2
#     Edge 18, Type (0, 0), BuildingBlock: KIFKEQ_clean_linker_1, # of connection points: 2
#     Edge 19, Type (0, 0), BuildingBlock: KIFKEQ_clean_linker_1, # of connection points: 2
#     Edge 20, Type (0, 0), BuildingBlock: KIFKEQ_clean_linker_1, # of connection points: 2
#     Edge 21, Type (0, 0), BuildingBlock: KIFKEQ_clean_linker_1, # of connection points: 2
#     Edge 22, Type (0, 0), BuildingBlock: KIFKEQ_clean_linker_1, # of connection points: 2
#     Edge 23, Type (0, 0), BuildingBlock: KIFKEQ_clean_linker_1, # of connection points: 2
#     Edge 24, Type (0, 0), BuildingBlock: KIFKEQ_clean_linker_1, # of connection points: 2
#     Edge 25, Type (0, 0), BuildingBlock: KIFKEQ_clean_linker_1, # of connection points: 2
#     Edge 26, Type (0, 0), BuildingBlock: KIFKEQ_clean_linker_1, # of connection points: 2
#     Edge 27, Type (0, 0), BuildingBlock: KIFKEQ_clean_linker_1, # of connection points: 2
#     Edge 28, Type (0, 0), BuildingBlock: KIFKEQ_clean_linker_1, # of connection points: 2
#     Edge 29, Type (0, 0), BuildingBlock: KIFKEQ_clean_linker_1, # of connection points: 2
#     Edge 30, Type (0, 0), BuildingBlock: KIFKEQ_clean_linker_1, # of connection points: 2
#     Edge 31, Type (0, 0), BuildingBlock: KIFKEQ_clean_linker_1, # of connection points: 2
#     Edge 32, Type (0, 0), BuildingBlock: KIFKEQ_clean_linker_1, # of connection points: 2
#     Edge 33, Type (0, 0), BuildingBlock: KIFKEQ_clean_linker_1, # of connection points: 2
#     Edge 34, Type (0, 0), BuildingBlock: KIFKEQ_clean_linker_1, # of connection points: 2
#     Edge 35, Type (0, 0), BuildingBlock: KIFKEQ_clean_linker_1, # of connection points: 2
# Relax obj value: 0.418
# Max RMSD: 0.280
# Mean RMSD: 0.278
data_MOF--net-smm--node1-FUNLAD_clean_sbu_0--edge1-KIFKEQ_clean_linker_1
_symmetry_space_group_name_H-M    P1
_symmetry_Int_Tables_number       1
_symmetry_cell_setting            triclinic
loop_
_symmetry_equiv_pos_as_xyz
'x, y, z'
_cell_length_a     48.554419
_cell_length_b     48.388758
_cell_length_c     21.598004
_cell_angle_alpha  90.479192
_cell_angle_beta   90.47071
_cell_angle_gamma 119.97637
loop_
_atom_site_label
_atom_site_type_symbol
_atom_site_fract_x
_atom_site_fract_y
_atom_site_fract_z
_atom_type_partial_charge
C0 C 0.96854 0.13016 0.01978 0.0
N1 N 0.02763 0.2009 0.14947 0.0
C2 C 0.00012 0.18244 0.18012 0.0
C3 C -4e-05 0.18107 0.24417 0.0
C4 C 0.02828 0.1992 0.27766 0.0
C5 C 0.0564 0.21884 0.24568 0.0
C6 C 0.05558 0.21913 0.18074 0.0
Zn7 Zn 0.02233 0.19848 0.0554 0.0
C8 C 0.05766 0.17449 -0.00413 0.0
N9 N -0.00114 0.18512 0.86556 0.0
C10 C 0.97105 0.17587 0.83431 0.0
C11 C 0.02627 0.19358 0.83488 0.0
C12 C 0.02647 0.19232 0.77078 0.0
C13 C -0.00168 0.18276 0.73728 0.0
C14 C 0.9703 0.17476 0.76935 0.0
Zn15 Zn 0.00415 0.18885 0.95963 0.0
O16 O 0.98931 0.14679 0.06122 0.0
C17 C 0.96808 0.21087 0.02841 0.0
O18 O 0.96746 0.14313 0.96993 0.0
H19 H 0.04837 0.20175 0.86005 0.0
H20 H 0.97795 0.16867 0.15493 0.0
H21 H 0.9496 0.1695 0.85962 0.0
O22 O 0.98575 0.20799 0.06786 0.0
O23 O 0.97086 0.20632 0.97108 0.0
H24 H 0.07713 0.23378 0.15545 0.0
O25 O 0.04093 0.23493 0.94679 0.0
O26 O 0.05558 0.24923 0.04355 0.0
O27 O 0.03693 0.17003 0.95437 0.0
O28 O 0.05893 0.18922 0.04542 0.0
C29 C 0.05851 0.25597 0.98612 0.0
H30 H 0.97774 0.16614 0.26745 0.0
H31 H 0.07866 0.23325 0.2705 0.0
H32 H 0.04864 0.19927 0.74749 0.0
H33 H 0.94818 0.16743 0.74455 0.0
C34 C 0.84817 0.89169 0.99077 0.0
N35 N 0.83651 0.82269 0.85779 0.0
C36 C 0.829 0.84245 0.82672 0.0
C37 C 0.83038 0.84394 0.7627 0.0
C38 C 0.83907 0.82456 0.72976 0.0
C39 C 0.84618 0.80381 0.76224 0.0
C40 C 0.84499 0.80344 0.82707 0.0
Zn41 Zn 0.83268 0.82384 0.95145 0.0
C42 C 0.89099 0.84495 0.01455 0.0
N43 N 0.82114 0.83405 0.14092 0.0
C44 C 0.80331 0.84431 0.17111 0.0
C45 C 0.83922 0.8245 0.17255 0.0
C46 C 0.84063 0.82578 0.23667 0.0
C47 C 0.82294 0.83657 0.26908 0.0
C48 C 0.80367 0.84553 0.23601 0.0
Zn49 Zn 0.82353 0.83147 0.04717 0.0
O50 O 0.85265 0.87573 0.94876 0.0
C51 C 0.76638 0.81206 0.97522 0.0
O52 O 0.83316 0.87772 0.03887 0.0
H53 H 0.85271 0.81575 0.14808 0.0
H54 H 0.82147 0.85695 0.85151 0.0
H55 H 0.789 0.85163 0.14497 0.0
O56 O 0.78732 0.81618 0.93636 0.0
O57 O 0.77304 0.81446 0.03297 0.0
H58 H 0.85063 0.78777 0.85272 0.0
O59 O 0.8136 0.78503 0.0579 0.0
O60 O 0.81382 0.77266 0.96005 0.0
O61 O 0.87487 0.84947 0.05563 0.0
O62 O 0.87772 0.83127 0.96395 0.0
C63 C 0.80971 0.76467 0.0168 0.0
H64 H 0.82412 0.85974 0.73901 0.0
H65 H 0.85284 0.78843 0.73787 0.0
H66 H 0.85528 0.81813 0.26082 0.0
H67 H 0.78963 0.85386 0.25999 0.0
C68 C 0.17319 0.05198 0.01317 0.0
N69 N 0.18579 0.99346 0.13914 0.0
C70 C 0.19517 0.0211 0.17142 0.0
C71 C 0.194 0.02118 0.23547 0.0
C72 C 0.18347 0.99265 0.26716 0.0
C73 C 0.17474 0.96443 0.2335 0.0
C74 C 0.17586 0.96534 0.16866 0.0
Zn75 Zn 0.18788 0.99843 0.04553 0.0
C76 C 0.12782 0.96216 0.98667 0.0
N77 N 0.19559 0.02023 0.85661 0.0
C78 C 0.2145 0.04802 0.82688 0.0
C79 C 0.17616 0.99283 0.82453 0.0
C80 C 0.17469 0.99262 0.76042 0.0
C81 C 0.19379 0.02074 0.72846 0.0
C82 C 0.21415 0.04875 0.76203 0.0
Zn83 Zn 0.19484 0.01528 0.95019 0.0
O84 O 0.16932 0.03144 0.05389 0.0
C85 C 0.25384 0.05219 0.01812 0.0
O86 O 0.18651 0.05248 0.96281 0.0
H87 H 0.16196 0.97074 0.84858 0.0
H88 H 0.20362 0.04336 0.1475 0.0
H89 H 0.22995 0.06944 0.85333 0.0
O90 O 0.23386 0.03529 0.05816 0.0
O91 O 0.2457 0.04838 0.96103 0.0
H92 H 0.16865 0.94371 0.14202 0.0
O93 O 0.20338 0.97797 0.93505 0.0
O94 O 0.20541 0.96532 0.03161 0.0
O95 O 0.14328 0.98266 0.94531 0.0
O96 O 0.14209 0.96146 0.03534 0.0
C97 C 0.20783 0.96121 0.97393 0.0
H98 H 0.20144 0.04346 0.26014 0.0
H99 H 0.1666 0.94202 0.25693 0.0
H100 H 0.1592 0.97045 0.73592 0.0
H101 H 0.22931 0.07085 0.73844 0.0
C102 C 0.71754 0.50347 0.31102 0.0
N103 N 0.66247 0.5173 0.17605 0.0
C104 C 0.68994 0.52614 0.14537 0.0
C105 C 0.68999 0.52478 0.08129 0.0
C106 C 0.6616 0.51467 0.04824 0.0
C107 C 0.63358 0.50633 0.0804 0.0
C108 C 0.63451 0.50758 0.14516 0.0
Zn109 Zn 0.66659 0.51984 0.26942 0.0
C110 C 0.62744 0.45987 0.32568 0.0
N111 N 0.68449 0.5288 0.46101 0.0
C112 C 0.71273 0.54617 0.49177 0.0
C113 C 0.65687 0.51112 0.49178 0.0
C114 C 0.65692 0.50972 0.55581 0.0
C115 C 0.68559 0.52705 0.5887 0.0
C116 C 0.7138 0.54584 0.55648 0.0
Zn117 Zn 0.68028 0.52697 0.36767 0.0
O118 O 0.69991 0.50153 0.2651 0.0
C119 C 0.71979 0.58586 0.30185 0.0
O120 O 0.71546 0.5158 0.36125 0.0
H121 H 0.63457 0.49797 0.46667 0.0
H122 H 0.71206 0.53445 0.17059 0.0
H123 H 0.73434 0.56009 0.46616 0.0
O124 O 0.70318 0.566 0.26003 0.0
O125 O 0.71531 0.57757 0.35843 0.0
H126 H 0.61302 0.50078 0.17068 0.0
O127 O 0.64515 0.53831 0.37763 0.0
O128 O 0.63278 0.53704 0.27937 0.0
O129 O 0.64535 0.47562 0.37156 0.0
O130 O 0.63018 0.47399 0.27525 0.0
C131 C 0.62884 0.54177 0.33599 0.0
H132 H 0.71212 0.53192 0.05769 0.0
H133 H 0.6113 0.49853 0.05582 0.0
H134 H 0.63469 0.49544 0.5795 0.0
H135 H 0.73629 0.55956 0.58095 0.0
C136 C 0.51106 0.22024 0.31522 0.0
N137 N 0.49421 0.14869 0.18305 0.0
C138 C 0.48375 0.16599 0.1516 0.0
C139 C 0.48489 0.16712 0.08757 0.0
C140 C 0.49653 0.14998 0.05552 0.0
C141 C 0.50613 0.13128 0.0884 0.0
C142 C 0.50499 0.13117 0.15304 0.0
Zn143 Zn 0.49432 0.15238 0.27614 0.0
C144 C 0.55635 0.17415 0.32856 0.0
N145 N 0.49184 0.16505 0.46803 0.0
C146 C 0.47415 0.17556 0.49788 0.0
C147 C 0.51042 0.15614 0.49962 0.0
C148 C 0.51201 0.15782 0.56374 0.0
C149 C 0.4939 0.16827 0.59573 0.0
C150 C 0.47463 0.17711 0.56251 0.0
Zn151 Zn 0.49127 0.1607 0.37504 0.0
O152 O 0.51116 0.20381 0.26878 0.0
C153 C 0.43002 0.13991 0.31251 0.0
O154 O 0.50203 0.20687 0.3669 0.0
H155 H 0.52375 0.1472 0.47514 0.0
H156 H 0.47486 0.17939 0.17623 0.0
H157 H 0.45955 0.18246 0.47163 0.0
O158 O 0.44815 0.14199 0.26924 0.0
O159 O 0.44045 0.14525 0.36824 0.0
H160 H 0.51317 0.11763 0.17923 0.0
O161 O 0.4803 0.11437 0.38698 0.0
O162 O 0.47819 0.10159 0.28871 0.0
O163 O 0.54252 0.17677 0.37642 0.0
O164 O 0.54035 0.16261 0.27926 0.0
C165 C 0.47543 0.09385 0.34561 0.0
H166 H 0.47688 0.18139 0.06325 0.0
H167 H 0.51519 0.11776 0.06452 0.0
H168 H 0.52666 0.15028 0.58819 0.0
H169 H 0.46033 0.18522 0.58623 0.0
C170 C 0.79389 0.28729 0.31609 0.0
N171 N 0.86707 0.34907 0.19558 0.0
C172 C 0.85356 0.32117 0.16267 0.0
C173 C 0.85631 0.32116 0.09887 0.0
C174 C 0.87334 0.35015 0.06793 0.0
C175 C 0.88709 0.37879 0.1027 0.0
C176 C 0.88368 0.37768 0.16712 0.0
Zn177 Zn 0.86085 0.34406 0.28858 0.0
C178 C 0.83116 0.37762 0.33745 0.0
N179 N 0.84351 0.3238 0.47848 0.0
C180 C 0.83894 0.29707 0.50782 0.0
C181 C 0.84776 0.34991 0.51095 0.0
C182 C 0.84801 0.35007 0.57522 0.0
C183 C 0.84456 0.32339 0.60663 0.0
C184 C 0.83969 0.29645 0.57253 0.0
Zn185 Zn 0.84937 0.32897 0.38528 0.0
O186 O 0.8108 0.30607 0.27332 0.0
C187 C 0.8783 0.29523 0.32566 0.0
O188 O 0.80571 0.29079 0.36984 0.0
H189 H 0.85243 0.37134 0.48724 0.0
H190 H 0.84053 0.29863 0.18595 0.0
H191 H 0.83579 0.27665 0.48115 0.0
O192 O 0.87614 0.31173 0.28322 0.0
O193 O 0.86978 0.29743 0.38032 0.0
H194 H 0.89427 0.39955 0.19432 0.0
O195 O 0.89303 0.36739 0.40439 0.0
O196 O 0.90974 0.38216 0.31005 0.0
O197 O 0.82829 0.36015 0.38375 0.0
O198 O 0.84592 0.37654 0.29044 0.0
C199 C 0.91445 0.38619 0.36851 0.0
H200 H 0.84466 0.29855 0.07395 0.0
H201 H 0.90046 0.40166 0.08049 0.0
H202 H 0.85242 0.37146 0.60012 0.0
H203 H 0.83699 0.27548 0.59563 0.0
C204 C 0.30467 0.79831 0.69488 0.0
N205 N 0.36285 0.87386 0.81786 0.0
C206 C 0.33506 0.85855 0.84912 0.0
C207 C 0.33474 0.86112 0.91303 0.0
C208 C 0.36328 0.87979 0.94588 0.0
C209 C 0.39184 0.89537 0.91284 0.0
C210 C 0.39106 0.89211 0.84819 0.0
Zn211 Zn 0.35795 0.86726 0.72428 0.0
C212 C 0.39423 0.84118 0.67466 0.0
N213 N 0.3367 0.84815 0.53331 0.0
C214 C 0.30949 0.84174 0.50264 0.0
C215 C 0.36333 0.85415 0.50203 0.0
C216 C 0.36349 0.85428 0.43776 0.0
C217 C 0.33626 0.84897 0.40504 0.0
C218 C 0.30883 0.84233 0.43787 0.0
Zn219 Zn 0.34197 0.85477 0.627 0.0
O220 O 0.32385 0.81639 0.73725 0.0
C221 C 0.30516 0.87957 0.68647 0.0
O222 O 0.30571 0.80934 0.64154 0.0
H223 H 0.38513 0.86039 0.52674 0.0
H224 H 0.31283 0.84416 0.82445 0.0
H225 H 0.28868 0.83731 0.52832 0.0
O226 O 0.32251 0.87866 0.72915 0.0
O227 O 0.30797 0.8718 0.63136 0.0
H228 H 0.41286 0.9041 0.82233 0.0
O229 O 0.37824 0.90029 0.60962 0.0
O230 O 0.39219 0.91717 0.70556 0.0
O231 O 0.3756 0.83695 0.62897 0.0
O232 O 0.39336 0.85608 0.72231 0.0
C233 C 0.39549 0.92236 0.6475 0.0
H234 H 0.31226 0.84804 0.93652 0.0
H235 H 0.41438 0.91002 0.93657 0.0
H236 H 0.38525 0.86011 0.41395 0.0
H237 H 0.28742 0.8382 0.41377 0.0
C238 C 0.18591 0.56004 0.66957 0.0
N239 N 0.17386 0.49099 0.5348 0.0
C240 C 0.16786 0.51192 0.50409 0.0
C241 C 0.16506 0.51073 0.4401 0.0
C242 C 0.16795 0.48747 0.40653 0.0
C243 C 0.17541 0.46682 0.43866 0.0
C244 C 0.17817 0.46894 0.50347 0.0
Zn245 Zn 0.16944 0.49188 0.62882 0.0
C246 C 0.22478 0.5098 0.69659 0.0
N247 N 0.15213 0.50018 0.81645 0.0
C248 C 0.13484 0.51127 0.84604 0.0
C249 C 0.16828 0.48857 0.84872 0.0
C250 C 0.16822 0.4885 0.91286 0.0
C251 C 0.15106 0.50008 0.94475 0.0
C252 C 0.13377 0.51121 0.91097 0.0
Zn253 Zn 0.15653 0.49871 0.72273 0.0
O254 O 0.191 0.5442 0.62817 0.0
C255 C 0.10314 0.48355 0.64454 0.0
O256 O 0.16919 0.54574 0.7158 0.0
H257 H 0.18129 0.47913 0.82475 0.0
H258 H 0.16361 0.52876 0.5292 0.0
H259 H 0.12203 0.52019 0.81945 0.0
O260 O 0.1253 0.48616 0.61056 0.0
O261 O 0.107 0.48513 0.70325 0.0
H262 H 0.18253 0.45226 0.52872 0.0
O263 O 0.14323 0.4513 0.73225 0.0
O264 O 0.14914 0.44033 0.63628 0.0
O265 O 0.20751 0.5139 0.73577 0.0
O266 O 0.21328 0.49759 0.64407 0.0
C267 C 0.14115 0.43137 0.69184 0.0
H268 H 0.15999 0.52757 0.41722 0.0
H269 H 0.17784 0.44852 0.41429 0.0
H270 H 0.18131 0.47916 0.9374 0.0
H271 H 0.12015 0.52019 0.93445 0.0
C272 C 0.50953 0.71746 0.6821 0.0
N273 N 0.52237 0.65831 0.80753 0.0
C274 C 0.53371 0.68614 0.84018 0.0
C275 C 0.53253 0.68606 0.90425 0.0
C276 C 0.51995 0.65712 0.93533 0.0
C277 C 0.50945 0.62869 0.90128 0.0
C278 C 0.51066 0.62981 0.83653 0.0
Zn279 Zn 0.52288 0.66295 0.7142 0.0
C280 C 0.46084 0.62678 0.65999 0.0
N281 N 0.52669 0.6822 0.52419 0.0
C282 C 0.54603 0.70982 0.4944 0.0
C283 C 0.50647 0.65502 0.49232 0.0
C284 C 0.50489 0.65484 0.4282 0.0
C285 C 0.52467 0.68274 0.39619 0.0
C286 C 0.54558 0.71057 0.42964 0.0
Zn287 Zn 0.52716 0.67769 0.61744 0.0
O288 O 0.50723 0.69848 0.72509 0.0
C289 C 0.58848 0.71421 0.681 0.0
O290 O 0.51975 0.71503 0.62993 0.0
H291 H 0.4919 0.63306 0.51651 0.0
H292 H 0.54334 0.7086 0.8165 0.0
H293 H 0.56204 0.73108 0.52074 0.0
O294 O 0.56967 0.69795 0.72311 0.0
O295 O 0.57844 0.7105 0.62509 0.0
H296 H 0.50182 0.60802 0.80951 0.0
O297 O 0.53474 0.64004 0.60158 0.0
O298 O 0.53778 0.62774 0.69792 0.0
O299 O 0.47544 0.64562 0.61574 0.0
O300 O 0.4762 0.62754 0.70809 0.0
C301 C 0.53919 0.62314 0.64006 0.0
H302 H 0.54124 0.70844 0.92938 0.0
H303 H 0.49965 0.60597 0.92433 0.0
H304 H 0.48894 0.63279 0.40376 0.0
H305 H 0.56124 0.73249 0.40603 0.0
H306 H 0.05237 0.30865 0.98534 0.0
H307 H 0.11141 0.27133 0.92205 0.0
H308 H 0.07398 0.34928 0.90519 0.0
H309 H 0.13281 0.31148 0.84132 0.0
H310 H 0.17818 0.40765 0.73059 0.0
H311 H 0.16312 0.36769 0.81148 0.0
H312 H 0.06545 0.34529 0.7929 0.0
H313 H 0.08085 0.38554 0.71291 0.0
C314 C 0.07122 0.31025 0.95639 0.0
C315 C 0.08088 0.28744 0.96103 0.0
C316 C 0.08298 0.33291 0.90927 0.0
C317 C 0.10453 0.3331 0.86562 0.0
C318 C 0.11627 0.31206 0.8739 0.0
C319 C 0.10441 0.28937 0.92087 0.0
C320 C 0.15325 0.39287 0.74145 0.0
C321 C 0.13052 0.39901 0.71415 0.0
C322 C 0.14468 0.37041 0.78872 0.0
C323 C 0.11321 0.3539 0.81004 0.0
C324 C 0.09006 0.35819 0.77889 0.0
C325 C 0.09866 0.38056 0.73169 0.0
H326 H 0.71397 0.75326 0.97512 0.0
H327 H 0.75037 0.84885 0.90887 0.0
H328 H 0.67282 0.73311 0.89383 0.0
H329 H 0.70958 0.82897 0.82725 0.0
H330 H 0.61157 0.77549 0.71715 0.0
H331 H 0.65252 0.80199 0.79777 0.0
H332 H 0.67687 0.72781 0.78077 0.0
H333 H 0.63574 0.7014 0.70075 0.0
C334 C 0.71205 0.77013 0.94527 0.0
C335 C 0.73479 0.80268 0.94926 0.0
C336 C 0.6891 0.75857 0.89757 0.0
C337 C 0.68848 0.77936 0.85294 0.0
C338 C 0.7094 0.81229 0.86061 0.0
C339 C 0.73243 0.82377 0.90804 0.0
C340 C 0.627 0.76595 0.72817 0.0
C341 C 0.62112 0.73689 0.70148 0.0
C342 C 0.65001 0.78075 0.7753 0.0
C343 C 0.66731 0.7665 0.79706 0.0
C344 C 0.66336 0.73896 0.76629 0.0
C345 C 0.64048 0.72431 0.71909 0.0
H346 H 0.26668 0.96796 0.97573 0.0
H347 H 0.1711 0.908 0.90647 0.0
H348 H 0.28649 0.94632 0.89595 0.0
H349 H 0.19066 0.88639 0.82642 0.0
H350 H 0.24448 0.84103 0.72139 0.0
H351 H 0.21808 0.85599 0.80005 0.0
H352 H 0.29066 0.95479 0.78232 0.0
H353 H 0.31692 0.9396 0.7042 0.0
C354 C 0.24976 0.9489 0.94554 0.0
C355 C 0.2173 0.93902 0.94826 0.0
C356 C 0.26112 0.93711 0.89874 0.0
C357 C 0.2402 0.91523 0.85376 0.0
C358 C 0.2074 0.90324 0.86011 0.0
C359 C 0.19613 0.91521 0.90661 0.0
C360 C 0.25365 0.86611 0.73175 0.0
C361 C 0.28224 0.88927 0.70547 0.0
C362 C 0.23893 0.87463 0.77777 0.0
C363 C 0.25282 0.90647 0.79881 0.0
C364 C 0.27982 0.92994 0.76835 0.0
C365 C 0.29437 0.92141 0.72225 0.0
H366 H 0.37958 0.08033 0.30556 0.0
H367 H 0.40994 0.17856 0.26698 0.0
H368 H 0.33846 0.06321 0.22497 0.0
H369 H 0.36913 0.1617 0.1858 0.0
H370 H 0.27254 0.10962 0.07073 0.0
H371 H 0.31237 0.13302 0.154 0.0
H372 H 0.34402 0.0661 0.11126 0.0
H373 H 0.30389 0.04267 0.02855 0.0
C374 C 0.37619 0.09821 0.28234 0.0
C375 C 0.39744 0.13074 0.29356 0.0
C376 C 0.35331 0.08849 0.23481 0.0
C377 C 0.35124 0.11114 0.1975 0.0
C378 C 0.37019 0.14363 0.2133 0.0
C379 C 0.39315 0.15332 0.26075 0.0
C380 C 0.28929 0.10121 0.07692 0.0
C381 C 0.28575 0.07493 0.04208 0.0
C382 C 0.31169 0.11417 0.12546 0.0
C383 C 0.33073 0.10081 0.14053 0.0
C384 C 0.32911 0.0764 0.10194 0.0
C385 C 0.30681 0.06357 0.05329 0.0
H386 H 0.93911 0.30893 0.31537 0.0
H387 H 0.84217 0.23507 0.28213 0.0
H388 H 0.95679 0.28606 0.23443 0.0
H389 H 0.85949 0.21233 0.20019 0.0
H390 H 0.91265 0.17124 0.08279 0.0
H391 H 0.88959 0.18711 0.1663 0.0
H392 H 0.95206 0.28608 0.12208 0.0
H393 H 0.97537 0.26991 0.0394 0.0
C394 C 0.92179 0.28671 0.29315 0.0
C395 C 0.88938 0.27331 0.30623 0.0
C396 C 0.93174 0.27415 0.24532 0.0
C397 C 0.90943 0.24796 0.20924 0.0
C398 C 0.87734 0.23258 0.22667 0.0
C399 C 0.86743 0.2452 0.27462 0.0
C400 C 0.92015 0.1963 0.08881 0.0
C401 C 0.94516 0.21932 0.05346 0.0
C402 C 0.90736 0.20545 0.13747 0.0
C403 C 0.91957 0.23791 0.15219 0.0
C404 C 0.94268 0.26086 0.11317 0.0
C405 C 0.95541 0.25165 0.06449 0.0
H406 H 0.84709 0.74414 0.06732 0.0
H407 H 0.74953 0.71569 0.02547 0.0
H408 H 0.82978 0.70314 0.14649 0.0
H409 H 0.73194 0.67445 0.1042 0.0
H410 H 0.71116 0.63676 0.29672 0.0
H411 H 0.73494 0.67825 0.21861 0.0
H412 H 0.80036 0.64567 0.17147 0.0
H413 H 0.77657 0.60444 0.24998 0.0
C414 C 0.82186 0.72783 0.07265 0.0
C415 C 0.7996 0.73242 0.03899 0.0
C416 C 0.81193 0.70474 0.11883 0.0
C417 C 0.77951 0.68609 0.13287 0.0
C418 C 0.75715 0.68896 0.09559 0.0
C419 C 0.76712 0.71193 0.04921 0.0
C420 C 0.7318 0.63971 0.2721 0.0
C421 C 0.74264 0.61801 0.28064 0.0
C422 C 0.74485 0.66284 0.22607 0.0
C423 C 0.76898 0.66469 0.18755 0.0
C424 C 0.78178 0.64487 0.2001 0.0
C425 C 0.76857 0.62163 0.2459 0.0
H426 H 0.10143 0.51018 0.53721 0.0
H427 H 0.03987 0.44475 0.67484 0.0
H428 H 0.05665 0.49239 0.46571 0.0
H429 H 0.99436 0.42734 0.60291 0.0
H430 H 0.91711 0.41926 0.47073 0.0
H431 H 0.9622 0.44785 0.5414 0.0
H432 H 0.02302 0.43799 0.4092 0.0
H433 H 0.97725 0.40838 0.33831 0.0
C434 C 0.07805 0.49251 0.55283 0.0
C435 C 0.07416 0.47869 0.61165 0.0
C436 C 0.0525 0.4822 0.5115 0.0
C437 C 0.02219 0.45813 0.52821 0.0
C438 C 0.01761 0.44598 0.58884 0.0
C439 C 0.04349 0.4561 0.63031 0.0
C440 C 0.94031 0.4239 0.45591 0.0
C441 C 0.9437 0.41155 0.39895 0.0
C442 C 0.96599 0.43997 0.4968 0.0
C443 C 0.99592 0.4446 0.48142 0.0
C444 C 8e-05 0.43466 0.42225 0.0
C445 C 0.97407 0.41807 0.38129 0.0
H446 H 0.5979 0.62989 0.63557 0.0
H447 H 0.50065 0.56912 0.57627 0.0
H448 H 0.61565 0.60855 0.55154 0.0
H449 H 0.51813 0.54783 0.49193 0.0
H450 H 0.5691 0.50332 0.37534 0.0
H451 H 0.54485 0.51808 0.45856 0.0
H452 H 0.61683 0.61694 0.43839 0.0
H453 H 0.641 0.6019 0.35563 0.0
C454 C 0.58023 0.61067 0.60668 0.0
C455 C 0.54787 0.60054 0.61344 0.0
C456 C 0.59038 0.59909 0.55738 0.0
C457 C 0.56834 0.57713 0.51388 0.0
C458 C 0.53575 0.56476 0.52433 0.0
C459 C 0.52567 0.57652 0.57338 0.0
C460 C 0.57852 0.52838 0.38624 0.0
C461 C 0.6064 0.55157 0.35782 0.0
C462 C 0.56506 0.53679 0.43486 0.0
C463 C 0.57947 0.56857 0.45644 0.0
C464 C 0.60562 0.59211 0.42402 0.0
C465 C 0.61893 0.58368 0.37527 0.0
H466 H 0.41545 0.04608 0.36254 0.0
H467 H 0.51366 0.07249 0.38847 0.0
H468 H 0.40029 0.00652 0.44406 0.0
H469 H 0.49878 0.03312 0.47033 0.0
H470 H 0.44858 0.93768 0.584 0.0
H471 H 0.46922 0.97641 0.50062 0.0
H472 H 0.4083 0.01292 0.55789 0.0
H473 H 0.38764 0.97388 0.64104 0.0
C474 C 0.43357 0.04212 0.3833 0.0
C475 C 0.4656 0.06167 0.36787 0.0
C476 C 0.42506 0.02016 0.43131 0.0
C477 C 0.44845 0.01729 0.46498 0.0
C478 C 0.48017 0.03475 0.44558 0.0
C479 C 0.48866 0.05687 0.39778 0.0
C480 C 0.44095 0.95519 0.58076 0.0
C481 C 0.4172 0.95342 0.6201 0.0
C482 C 0.45234 0.97701 0.53228 0.0
C483 C 0.43983 0.99723 0.52153 0.0
C484 C 0.4179 0.99716 0.56402 0.0
C485 C 0.4067 0.97545 0.6128 0.0
H486 H 0.11663 0.03749 0.0649 0.0
H487 H 0.19791 0.11257 0.97295 0.0
H488 H 0.08941 0.06863 0.05717 0.0
H489 H 0.1711 0.14395 0.96686 0.0
H490 H 0.11744 0.19744 0.04184 0.0
H491 H 0.14709 0.1689 0.04986 0.0
H492 H 0.07117 0.08817 0.95246 0.0
H493 H 0.04178 0.11706 0.94286 0.0
C494 C 0.12896 0.06099 0.0447 0.0
C495 C 0.15937 0.07281 0.01986 0.0
C496 C 0.11329 0.07855 0.03957 0.0
C497 C 0.12816 0.10843 0.01087 0.0
C498 C 0.1592 0.12093 0.98904 0.0
C499 C 0.17452 0.10309 -0.00721 0.0
C500 C 0.10744 0.17386 0.021 0.0
C501 C 0.07752 0.1595 0.99123 0.0
C502 C 0.12429 0.15755 0.02587 0.0
C503 C 0.11113 0.12631 0.00247 0.0
C504 C 0.08157 0.11218 0.97137 0.0
C505 C 0.06503 0.12881 0.96515 0.0
H506 H 0.90551 0.93379 0.94188 0.0
H507 H 0.82516 0.92822 0.03744 0.0
H508 H 0.93399 0.9921 0.95446 0.0
H509 H 0.85328 0.98642 0.04848 0.0
H510 H 0.90796 0.09392 0.97748 0.0
H511 H 0.87731 0.03566 0.96871 0.0
H512 H 0.95363 0.02976 0.05968 0.0
H513 H 0.98406 0.08818 0.07004 0.0
C514 C 0.8937 0.94511 0.96412 0.0
C515 C 0.86312 0.92666 0.98833 0.0
C516 C 0.91009 0.9783 0.97203 0.0
C517 C 0.89584 0.99351 0.00298 0.0
C518 C 0.86473 0.97516 0.02463 0.0
C519 C 0.84866 0.94199 0.01805 0.0
C520 C 0.91783 0.08009 -0.00312 0.0
C521 C 0.94817 0.09538 0.02492 0.0
C522 C 0.90039 0.04688 0.99161 0.0
C523 C 0.91337 0.02845 0.01286 0.0
C524 C 0.94334 0.04362 0.04249 0.0
C525 C 0.96049 0.07688 0.04914 0.0
H526 H 0.92613 0.81954 0.97296 0.0
H527 H 0.93365 0.90242 0.06596 0.0
H528 H 0.98404 0.84673 0.96403 0.0
H529 H 0.99168 0.92997 0.05552 0.0
H530 H 0.08506 0.97707 0.93775 0.0
H531 H 0.02715 0.94719 0.95031 0.0
H532 H 0.03459 0.87231 0.04231 0.0
H533 H 0.09241 0.90243 0.03122 0.0
C534 C 0.94029 0.84335 -0.00744 0.0
C535 C 0.92561 0.85886 0.02065 0.0
C536 C 0.97329 0.85889 0.98715 0.0
C537 C 0.99207 0.89048 0.00835 0.0
C538 C 0.97753 0.90567 0.03832 0.0
C539 C 0.94451 0.88981 0.04506 0.0
C540 C 0.07419 0.95393 0.95941 0.0
C541 C 0.09302 0.94188 0.98316 0.0
C542 C 0.04124 0.93711 0.96736 0.0
C543 C 0.02668 0.90773 -0.0021 0.0
C544 C 0.04536 0.89497 0.01881 0.0
C545 C 0.07831 0.91209 0.01217 0.0
H546 H 0.72131 0.46526 0.22035 0.0
H547 H 0.75881 0.50722 0.40088 0.0
H548 H 0.7494 0.43511 0.22756 0.0
H549 H 0.78658 0.47728 0.40779 0.0
H550 H 0.79761 0.3881 0.42803 0.0
H551 H 0.77126 0.41993 0.41924 0.0
H552 H 0.80462 0.44413 0.23197 0.0
H553 H 0.83062 0.41263 0.24029 0.0
C554 C 0.73588 0.46843 0.26098 0.0
C555 C 0.7377 0.48853 0.31002 0.0
C556 C 0.75187 0.45112 0.26526 0.0
C557 C 0.7698 0.45353 0.31873 0.0
C558 C 0.77243 0.47443 0.36666 0.0
C559 C 0.7567 0.4918 0.36228 0.0
C560 C 0.7994 0.40035 0.38522 0.0
C561 C 0.81622 0.3978 0.33504 0.0
C562 C 0.7844 0.4186 0.38015 0.0
C563 C 0.78579 0.43437 0.3247 0.0
C564 C 0.80276 0.43192 0.27489 0.0
C565 C 0.81787 0.414 0.28003 0.0
H566 H 0.5869 0.42194 0.23438 0.0
H567 H 0.6198 0.41855 0.41931 0.0
H568 H 0.55638 0.36404 0.22981 0.0
H569 H 0.58902 0.3602 0.41442 0.0
H570 H 0.50747 0.25791 0.40485 0.0
H571 H 0.53302 0.31564 0.40822 0.0
H572 H 0.56888 0.31981 0.22419 0.0
H573 H 0.54306 0.26143 0.2205 0.0
C574 C 0.58741 0.40886 0.27442 0.0
C575 C 0.60592 0.42491 0.32728 0.0
C576 C 0.57006 0.37563 0.27143 0.0
C577 C 0.57057 0.3576 0.32137 0.0
C578 C 0.58809 0.37355 0.37524 0.0
C579 C 0.60568 0.40693 0.37814 0.0
C580 C 0.52058 0.27099 0.36469 0.0
C581 C 0.52344 0.25503 0.31244 0.0
C582 C 0.53538 0.30415 0.36697 0.0
C583 C 0.55328 0.32226 0.31693 0.0
C584 C 0.55512 0.30638 0.26346 0.0
C585 C 0.54035 0.27301 0.26125 0.0
H586 H 0.60076 0.20168 0.42301 0.0
H587 H 0.59056 0.1748 0.2291 0.0
H588 H 0.65855 0.22549 0.41488 0.0
H589 H 0.64778 0.19853 0.22135 0.0
H590 H 0.7531 0.28515 0.22459 0.0
H591 H 0.69485 0.25467 0.22697 0.0
H592 H 0.69915 0.20832 0.39375 0.0
H593 H 0.75689 0.23828 0.39128 0.0
C594 C 0.61074 0.20057 0.37902 0.0
C595 C 0.59103 0.18641 0.32686 0.0
C596 C 0.64376 0.21412 0.37431 0.0
C597 C 0.65759 0.21397 0.31727 0.0
C598 C 0.63782 0.19932 0.2656 0.0
C599 C 0.60497 0.18556 0.27038 0.0
C600 C 0.74157 0.26781 0.26066 0.0
C601 C 0.75957 0.26435 0.30797 0.0
C602 C 0.70828 0.25052 0.26232 0.0
C603 C 0.69258 0.22965 0.31138 0.0
C604 C 0.71063 0.22476 0.35627 0.0
C605 C 0.74371 0.24177 0.35441 0.0
H606 H 0.51911 0.76467 0.60329 0.0
H607 H 0.47273 0.72127 0.7745 0.0
H608 H 0.49319 0.79648 0.60265 0.0
H609 H 0.44671 0.75362 0.77375 0.0
H610 H 0.42862 0.83878 0.77257 0.0
H611 H 0.45893 0.81123 0.77858 0.0
H612 H 0.43605 0.78221 0.58674 0.0
H613 H 0.40545 0.80979 0.58045 0.0
C614 C 0.50363 0.76216 0.64129 0.0
C615 C 0.4977 0.74016 0.68872 0.0
C616 C 0.48865 0.78029 0.64057 0.0
C617 C 0.46756 0.77712 0.68748 0.0
C618 C 0.4629 0.75649 0.73692 0.0
C619 C 0.47782 0.73806 0.73749 0.0
C620 C 0.43021 0.82678 0.73136 0.0
C621 C 0.41465 0.82654 0.67583 0.0
C622 C 0.4474 0.81079 0.73513 0.0
C623 C 0.44974 0.79453 0.68331 0.0
C624 C 0.43479 0.7948 0.62735 0.0
C625 C 0.41727 0.81053 0.62371 0.0
H626 H 0.24523 0.60258 0.62876 0.0
H627 H 0.16142 0.59617 0.71055 0.0
H628 H 0.2731 0.66088 0.64249 0.0
H629 H 0.18895 0.65425 0.72282 0.0
H630 H 0.24469 0.7614 0.65061 0.0
H631 H 0.21465 0.70308 0.64411 0.0
H632 H 0.28938 0.69908 0.746 0.0
H633 H 0.31916 0.75762 0.75401 0.0
C634 C 0.23261 0.61371 0.6483 0.0
C635 C 0.20117 0.59505 0.66817 0.0
C636 C 0.24862 0.64688 0.65694 0.0
C637 C 0.23316 0.66182 0.68429 0.0
C638 C 0.20135 0.64322 0.70182 0.0
C639 C 0.18562 0.61011 0.69452 0.0
C640 C 0.25422 0.74798 0.67315 0.0
C641 C 0.28399 0.76382 0.70338 0.0
C642 C 0.23717 0.71473 0.6691 0.0
C643 C 0.24998 0.6968 0.69383 0.0
C644 C 0.27923 0.71254 0.72609 0.0
C645 C 0.29598 0.74587 0.73146 0.0
H646 H 0.42683 0.56916 0.71365 0.0
H647 H 0.41659 0.63941 0.60966 0.0
H648 H 0.36942 0.53929 0.72988 0.0
H649 H 0.35902 0.60973 0.62717 0.0
H650 H 0.26679 0.56857 0.74312 0.0
H651 H 0.3248 0.5962 0.73222 0.0
H652 H 0.3179 0.50997 0.65718 0.0
H653 H 0.26 0.48269 0.66656 0.0
C654 C 0.41217 0.57791 0.69348 0.0
C655 C 0.42599 0.60641 0.65997 0.0
C656 C 0.37944 0.56092 0.70307 0.0
C657 C 0.36003 0.57253 0.68054 0.0
C658 C 0.37367 0.60059 0.64564 0.0
C659 C 0.40641 0.61726 0.63485 0.0
C660 C 0.27785 0.55533 0.72625 0.0
C661 C 0.25916 0.52348 0.70632 0.0
C662 C 0.31086 0.57122 0.71906 0.0
C663 C 0.32558 0.55523 0.69313 0.0
C664 C 0.30704 0.52278 0.67718 0.0
C665 C 0.27405 0.50715 0.68298 0.0
H666 H 0.97996 0.21327 0.65532 0.0
H667 H 0.02005 0.15145 0.66668 0.0
H668 H 0.98906 0.21789 0.54326 0.0
H669 H 0.02924 0.15606 0.55534 0.0
H670 H 0.00626 0.14568 0.34535 0.0
H671 H 0.99727 0.14048 0.45671 0.0
H672 H 0.03835 0.24264 0.47444 0.0
H673 H 0.04727 0.24775 0.3623 0.0
C674 C 0.99016 0.20026 0.63353 0.0
C675 C -0.00077 0.18193 0.66912 0.0
C676 C 0.99578 0.20324 0.56985 0.0
C677 C 0.01014 0.18757 0.54095 0.0
C678 C 0.01808 0.16831 0.57642 0.0
C679 C 0.01281 0.16565 0.63994 0.0
C680 C 0.01376 0.16703 0.37332 0.0
C681 C 0.02752 0.19712 0.34571 0.0
C682 C 0.0086 0.16407 0.43686 0.0
C683 C 0.01684 0.19112 0.47394 0.0
C684 C 0.03141 0.22137 0.4466 0.0
C685 C 0.03691 0.22437 0.38287 0.0
H686 H 0.80799 0.77546 0.64683 0.0
H687 H 0.87084 0.87735 0.66021 0.0
H688 H 0.80354 0.77963 0.5344 0.0
H689 H 0.86638 0.8816 0.54845 0.0
H690 H 0.87646 0.86727 0.33942 0.0
H691 H 0.88155 0.86391 0.45125 0.0
H692 H 0.77952 0.80492 0.46372 0.0
H693 H 0.77452 0.80829 0.35117 0.0
C694 C 0.82123 0.79859 0.62544 0.0
C695 C 0.8398 0.82608 0.66167 0.0
C696 C 0.81837 0.80105 0.56154 0.0
C697 C 0.83438 0.83098 0.53309 0.0
C698 C 0.85385 0.85825 0.56924 0.0
C699 C 0.85642 0.85584 0.63298 0.0
C700 C 0.85514 0.85396 0.36633 0.0
C701 C 0.8251 0.83808 0.33718 0.0
C702 C 0.85803 0.85202 0.43011 0.0
C703 C 0.83095 0.83392 0.46583 0.0
C704 C 0.80078 0.81869 0.43692 0.0
C705 C 0.79786 0.82094 0.37295 0.0
H706 H 0.14124 0.99886 0.65537 0.0
H707 H 0.24305 0.03933 0.64882 0.0
H708 H 0.13745 0.99007 0.54342 0.0
H709 H 0.23933 0.03064 0.5362 0.0
H710 H 0.21216 0.97304 0.35114 0.0
H711 H 0.21509 0.9813 0.46393 0.0
H712 H 0.15485 0.02306 0.44738 0.0
H713 H 0.15194 0.01473 0.33536 0.0
C714 C 0.16283 0.00624 0.62961 0.0
C715 C 0.19244 0.01983 0.66027 0.0
C716 C 0.16067 0.0012 0.56575 0.0
C717 C 0.18806 0.0094 0.53146 0.0
C718 C 0.21783 0.02373 0.56188 0.0
C719 C 0.22002 0.0291 0.62589 0.0
C720 C 0.19916 0.98342 0.37207 0.0
C721 C 0.18178 0.9932 0.33514 0.0
C722 C 0.20114 0.98853 0.43618 0.0
C723 C 0.18542 0.00308 0.46403 0.0
C724 C 0.16711 0.01173 0.42707 0.0
C725 C 0.16543 0.00697 0.36318 0.0
H726 H 0.70693 0.57616 0.67206 0.0
H727 H 0.66248 0.47364 0.65691 0.0
H728 H 0.69965 0.57199 0.78461 0.0
H729 H 0.65524 0.46942 0.76893 0.0
H730 H 0.68312 0.48316 0.97788 0.0
H731 H 0.69058 0.48643 0.8659 0.0
H732 H 0.6497 0.54766 0.85433 0.0
H733 H 0.6422 0.5443 0.96683 0.0
C734 C 0.69613 0.55287 0.69312 0.0
C735 C 0.68528 0.52521 0.65652 0.0
C736 C 0.69162 0.55044 0.75703 0.0
C737 C 0.67663 0.52036 0.78491 0.0
C738 C 0.66689 0.49284 0.74838 0.0
C739 C 0.67102 0.49525 0.68459 0.0
C740 C 0.6754 0.49696 0.95111 0.0
C741 C 0.66206 0.51344 0.98033 0.0
C742 C 0.67966 0.49884 0.88734 0.0
C743 C 0.67097 0.51753 0.85199 0.0
C744 C 0.65692 0.53343 0.88101 0.0
C745 C 0.65228 0.53121 0.94487 0.0
H746 H 0.44356 0.13927 0.67252 0.0
H747 H 0.54593 0.1971 0.6708 0.0
H748 H 0.44547 0.13441 0.78518 0.0
H749 H 0.54787 0.19235 0.78318 0.0
H750 H 0.52856 0.20406 0.99035 0.0
H751 H 0.5281 0.20971 0.87805 0.0
H752 H 0.46877 0.10751 0.85704 0.0
H753 H 0.46942 0.1019 0.96987 0.0
C754 C 0.46634 0.15131 0.69655 0.0
C755 C 0.4946 0.16859 0.66367 0.0
C756 C 0.46747 0.14823 0.76051 0.0
C757 C 0.49684 0.16277 0.79223 0.0
C758 C 0.52499 0.18096 0.75951 0.0
C759 C 0.52388 0.18368 0.69557 0.0
C760 C 0.51577 0.18285 0.96146 0.0
C761 C 0.49904 0.15257 0.988 0.0
C762 C 0.51552 0.18606 0.89756 0.0
C763 C 0.49819 0.15906 0.85946 0.0
C764 C 0.482 0.12866 0.88589 0.0
C765 C 0.48262 0.12541 0.94994 0.0
H766 H 0.81361 0.33971 0.69048 0.0
H767 H 0.88525 0.31224 0.67457 0.0
H768 H 0.82407 0.34828 0.80159 0.0
H769 H 0.89685 0.32203 0.78537 0.0
H770 H 0.88292 0.30938 -0.00471 0.0
H771 H 0.87614 0.30229 0.88377 0.0
H772 H 0.86299 0.3842 0.87357 0.0
H773 H 0.86762 0.3899 0.98599 0.0
C774 C 0.83155 0.33544 0.7111 0.0
C775 C 0.84849 0.32512 0.67449 0.0
C776 C 0.83787 0.34074 0.77448 0.0
C777 C 0.86163 0.33628 0.80235 0.0
C778 C 0.87819 0.3254 0.7656 0.0
C779 C 0.87152 0.31968 0.70227 0.0
C780 C 0.87857 0.32589 0.96921 0.0
C781 C 0.87517 0.34982 -0.00046 0.0
C782 C 0.87504 0.32204 0.90512 0.0
C783 C 0.8685 0.34235 0.86972 0.0
C784 C 0.8672 0.36762 0.89967 0.0
C785 C 0.87038 0.37125 0.964 0.0
H786 H 0.35576 0.82058 0.32083 0.0
H787 H 0.32172 0.8873 0.3378 0.0
H788 H 0.36424 0.83157 0.21056 0.0
H789 H 0.33136 0.89947 0.22796 0.0
H790 H 0.3203 0.8858 0.01687 0.0
H791 H 0.31308 0.87842 0.12773 0.0
H792 H 0.39852 0.87185 0.14164 0.0
H793 H 0.4045 0.87712 0.02967 0.0
C794 C 0.35001 0.83753 0.30062 0.0
C795 C 0.33788 0.85293 0.33733 0.0
C796 C 0.35525 0.84419 0.23774 0.0
C797 C 0.34891 0.86675 0.21045 0.0
C798 C 0.33621 0.88173 0.24723 0.0
C799 C 0.33057 0.87472 0.31003 0.0
C800 C 0.33757 0.8828 0.04362 0.0
C801 C 0.36263 0.88141 0.01436 0.0
C802 C 0.33362 0.87891 0.10738 0.0
C803 C 0.35492 0.87402 0.1436 0.0
C804 C 0.3812 0.87474 0.11486 0.0
C805 C 0.38496 0.8783 0.05083 0.0
H806 H 0.20314 0.52616 0.01965 0.0
H807 H 0.10063 0.47314 0.02281 0.0
H808 H 0.20532 0.52043 0.13119 0.0
H809 H 0.10257 0.46643 0.13475 0.0
H810 H 0.12108 0.49099 0.34313 0.0
H811 H 0.11597 0.49446 0.23189 0.0
H812 H 0.19593 0.47986 0.20458 0.0
H813 H 0.20208 0.47812 0.31659 0.0
C814 C 0.18106 0.5134 0.04459 0.0
C815 C 0.15172 0.5001 0.01303 0.0
C816 C 0.18228 0.50976 0.10827 0.0
C817 C 0.15415 0.49246 0.14177 0.0
C818 C 0.12469 0.48001 0.11036 0.0
C819 C 0.1235 0.48392 0.04646 0.0
C820 C 0.13765 0.48861 0.31336 0.0
C821 C 0.16242 0.48493 0.33862 0.0
C822 C 0.13446 0.49022 0.24951 0.0
C823 C 0.1558 0.4879 0.20932 0.0
C824 C 0.17954 0.48248 0.23442 0.0
C825 C 0.18284 0.48104 0.29849 0.0
H826 H 0.47278 0.66118 0.32105 0.0
H827 H 0.57459 0.70097 0.31871 0.0
H828 H 0.47018 0.65286 0.20895 0.0
H829 H 0.57205 0.69272 0.20614 0.0
H830 H 0.54636 0.63575 0.02059 0.0
H831 H 0.54765 0.64307 0.13351 0.0
H832 H 0.48983 0.68736 0.1137 0.0
H833 H 0.48869 0.68012 0.00147 0.0
C834 C 0.49461 0.66846 0.29622 0.0
C835 C 0.52389 0.68177 0.32804 0.0
C836 C 0.49313 0.6637 0.23233 0.0
C837 C 0.52088 0.67187 0.19931 0.0
C838 C 0.55029 0.68585 0.2309 0.0
C839 C 0.55182 0.69097 0.29488 0.0
C840 C 0.53357 0.64653 0.04083 0.0
C841 C 0.51739 0.65735 0.00304 0.0
C842 C 0.53458 0.65105 0.10498 0.0
C843 C 0.51905 0.666 0.1319 0.0
C844 C 0.5019 0.67569 0.09402 0.0
C845 C 0.50125 0.67157 0.03008 0.0
loop_
_geom_bond_atom_site_label_1
_geom_bond_atom_site_label_2
_geom_bond_distance
_geom_bond_site_symmetry_2
_ccdc_geom_bond_type
C0 O16 1.251 . S
C0 O18 1.254 1_554 S
N1 C2 1.333 . S
N1 C6 1.307 . S
N1 Zn7 2.020 . S
C2 N1 1.333 . S
C2 C3 1.379 . S
C2 H20 0.952 1_455 S
C3 C2 1.379 . S
C3 C4 1.390 . S
C3 H30 0.949 1_455 S
C4 C3 1.390 . S
C4 C5 1.357 . S
C5 C4 1.357 . S
C5 C6 1.370 . S
C5 H31 0.950 . S
C6 N1 1.307 . S
C6 C5 1.370 . S
C6 H24 0.948 . S
Zn7 N1 2.020 . S
Zn7 O16 2.039 1_455 S
Zn7 O22 2.034 1_455 S
Zn7 O26 2.025 . S
Zn7 O28 2.024 . S
C8 O27 1.246 . S
C8 O28 1.249 1_556 S
N9 C10 1.307 . S
N9 C11 1.333 1_655 S
N9 Zn15 2.020 1_655 S
C10 N9 1.307 . S
C10 C14 1.370 . S
C10 H21 0.948 . S
C11 N9 1.333 1_455 S
C11 C12 1.379 . S
C11 H19 0.952 . S
C12 C11 1.379 . S
C12 C13 1.390 1_455 S
C12 H32 0.949 . S
C13 C12 1.390 1_655 S
C13 C14 1.357 . S
C14 C10 1.370 . S
C14 C13 1.357 . S
C14 H33 0.950 . S
Zn15 N9 2.020 1_455 S
Zn15 O18 2.025 1_455 S
Zn15 O23 2.024 1_455 S
Zn15 O25 2.039 . S
Zn15 O27 2.034 . S
O16 C0 1.251 . S
O16 Zn7 2.039 1_655 S
C17 O22 1.246 . S
C17 O23 1.249 1_554 S
O18 C0 1.254 1_556 S
O18 Zn15 2.025 1_655 S
H19 C11 0.952 . S
H20 C2 0.952 1_655 S
H21 C10 0.948 . S
O22 Zn7 2.034 1_655 S
O22 C17 1.246 . S
O23 Zn15 2.024 1_655 S
O23 C17 1.249 1_556 S
H24 C6 0.948 . S
O25 Zn15 2.039 . S
O25 C29 1.251 . S
O26 Zn7 2.025 . S
O26 C29 1.254 1_554 S
O27 C8 1.246 . S
O27 Zn15 2.034 . S
O28 Zn7 2.024 . S
O28 C8 1.249 1_554 S
C29 O25 1.251 . S
C29 O26 1.254 1_556 S
H30 C3 0.949 1_655 S
H31 C5 0.950 . S
H32 C12 0.949 . S
H33 C14 0.950 . S
C34 O50 1.251 . S
C34 O52 1.254 1_556 S
N35 C36 1.333 . S
N35 C40 1.307 . S
N35 Zn41 2.020 . S
C36 N35 1.333 . S
C36 C37 1.379 . S
C36 H54 0.952 . S
C37 C36 1.379 . S
C37 C38 1.390 . S
C37 H64 0.949 . S
C38 C37 1.390 . S
C38 C39 1.357 . S
C39 C38 1.357 . S
C39 C40 1.370 . S
C39 H65 0.950 . S
C40 N35 1.307 . S
C40 C39 1.370 . S
C40 H58 0.948 . S
Zn41 N35 2.020 . S
Zn41 O50 2.039 . S
Zn41 O56 2.034 . S
Zn41 O60 2.025 . S
Zn41 O62 2.024 . S
C42 O61 1.246 . S
C42 O62 1.249 1_554 S
N43 C44 1.307 . S
N43 C45 1.333 . S
N43 Zn49 2.020 . S
C44 N43 1.307 . S
C44 C48 1.370 . S
C44 H55 0.948 . S
C45 N43 1.333 . S
C45 C46 1.379 . S
C45 H53 0.952 . S
C46 C45 1.379 . S
C46 C47 1.390 . S
C46 H66 0.949 . S
C47 C46 1.390 . S
C47 C48 1.357 . S
C48 C44 1.370 . S
C48 C47 1.357 . S
C48 H67 0.950 . S
Zn49 N43 2.020 . S
Zn49 O52 2.025 . S
Zn49 O57 2.024 . S
Zn49 O59 2.039 . S
Zn49 O61 2.034 . S
O50 C34 1.251 . S
O50 Zn41 2.039 . S
C51 O56 1.246 . S
C51 O57 1.249 1_556 S
O52 C34 1.254 1_554 S
O52 Zn49 2.025 . S
H53 C45 0.952 . S
H54 C36 0.952 . S
H55 C44 0.948 . S
O56 Zn41 2.034 . S
O56 C51 1.246 . S
O57 Zn49 2.024 . S
O57 C51 1.249 1_554 S
H58 C40 0.948 . S
O59 Zn49 2.039 . S
O59 C63 1.251 . S
O60 Zn41 2.025 . S
O60 C63 1.254 1_556 S
O61 C42 1.246 . S
O61 Zn49 2.034 . S
O62 Zn41 2.024 . S
O62 C42 1.249 1_556 S
C63 O59 1.251 . S
C63 O60 1.254 1_554 S
H64 C37 0.949 . S
H65 C39 0.950 . S
H66 C46 0.949 . S
H67 C48 0.950 . S
C68 O84 1.251 . S
C68 O86 1.254 1_554 S
N69 C70 1.333 1_565 S
N69 C74 1.307 . S
N69 Zn75 2.017 1_565 S
C70 N69 1.333 1_545 S
C70 C71 1.379 . S
C70 H88 0.952 . S
C71 C70 1.379 . S
C71 C72 1.390 1_545 S
C71 H98 0.949 . S
C72 C71 1.390 1_565 S
C72 C73 1.357 . S
C73 C72 1.357 . S
C73 C74 1.370 . S
C73 H99 0.950 . S
C74 N69 1.307 . S
C74 C73 1.370 . S
C74 H92 0.948 . S
Zn75 N69 2.017 1_545 S
Zn75 O84 2.053 . S
Zn75 O90 2.038 . S
Zn75 O94 2.013 1_545 S
Zn75 O96 2.021 1_545 S
C76 O95 1.246 . S
C76 O96 1.249 1_556 S
N77 C78 1.307 . S
N77 C79 1.333 . S
N77 Zn83 2.020 . S
C78 N77 1.307 . S
C78 C82 1.370 . S
C78 H89 0.948 . S
C79 N77 1.333 . S
C79 C80 1.379 . S
C79 H87 0.952 1_545 S
C80 C79 1.379 . S
C80 C81 1.390 . S
C80 H100 0.949 1_545 S
C81 C80 1.390 . S
C81 C82 1.357 . S
C82 C78 1.370 . S
C82 C81 1.357 . S
C82 H101 0.950 . S
Zn83 N77 2.020 . S
Zn83 O86 2.025 . S
Zn83 O91 2.024 . S
Zn83 O93 2.039 1_545 S
Zn83 O95 2.034 1_545 S
O84 C68 1.251 . S
O84 Zn75 2.053 . S
C85 O90 1.246 . S
C85 O91 1.249 1_554 S
O86 C68 1.254 1_556 S
O86 Zn83 2.025 . S
H87 C79 0.952 1_565 S
H88 C70 0.952 . S
H89 C78 0.948 . S
O90 Zn75 2.038 . S
O90 C85 1.246 . S
O91 Zn83 2.024 . S
O91 C85 1.249 1_556 S
H92 C74 0.948 . S
O93 Zn83 2.039 1_565 S
O93 C97 1.251 . S
O94 Zn75 2.013 1_565 S
O94 C97 1.254 1_554 S
O95 C76 1.246 . S
O95 Zn83 2.034 1_565 S
O96 Zn75 2.021 1_565 S
O96 C76 1.249 1_554 S
C97 O93 1.251 . S
C97 O94 1.254 1_556 S
H98 C71 0.949 . S
H99 C73 0.950 . S
H100 C80 0.949 1_565 S
H101 C82 0.950 . S
C102 O118 1.251 . S
C102 O120 1.254 . S
N103 C104 1.333 . S
N103 C108 1.307 . S
N103 Zn109 2.020 . S
C104 N103 1.333 . S
C104 C105 1.379 . S
C104 H122 0.952 . S
C105 C104 1.379 . S
C105 C106 1.390 . S
C105 H132 0.949 . S
C106 C105 1.390 . S
C106 C107 1.357 . S
C107 C106 1.357 . S
C107 C108 1.370 . S
C107 H133 0.950 . S
C108 N103 1.307 . S
C108 C107 1.370 . S
C108 H126 0.948 . S
Zn109 N103 2.020 . S
Zn109 O118 2.039 . S
Zn109 O124 2.034 . S
Zn109 O128 2.025 . S
Zn109 O130 2.024 . S
C110 O129 1.246 . S
C110 O130 1.249 . S
N111 C112 1.307 . S
N111 C113 1.333 . S
N111 Zn117 2.020 . S
C112 N111 1.307 . S
C112 C116 1.370 . S
C112 H123 0.948 . S
C113 N111 1.333 . S
C113 C114 1.379 . S
C113 H121 0.952 . S
C114 C113 1.379 . S
C114 C115 1.390 . S
C114 H134 0.949 . S
C115 C114 1.390 . S
C115 C116 1.357 . S
C116 C112 1.370 . S
C116 C115 1.357 . S
C116 H135 0.950 . S
Zn117 N111 2.020 . S
Zn117 O120 2.025 . S
Zn117 O125 2.024 . S
Zn117 O127 2.039 . S
Zn117 O129 2.034 . S
O118 C102 1.251 . S
O118 Zn109 2.039 . S
C119 O124 1.246 . S
C119 O125 1.249 . S
O120 C102 1.254 . S
O120 Zn117 2.025 . S
H121 C113 0.952 . S
H122 C104 0.952 . S
H123 C112 0.948 . S
O124 Zn109 2.034 . S
O124 C119 1.246 . S
O125 Zn117 2.024 . S
O125 C119 1.249 . S
H126 C108 0.948 . S
O127 Zn117 2.039 . S
O127 C131 1.251 . S
O128 Zn109 2.025 . S
O128 C131 1.254 . S
O129 C110 1.246 . S
O129 Zn117 2.034 . S
O130 Zn109 2.024 . S
O130 C110 1.249 . S
C131 O127 1.251 . S
C131 O128 1.254 . S
H132 C105 0.949 . S
H133 C107 0.950 . S
H134 C114 0.949 . S
H135 C116 0.950 . S
C136 O152 1.251 . S
C136 O154 1.254 . S
N137 C138 1.333 . S
N137 C142 1.307 . S
N137 Zn143 2.020 . S
C138 N137 1.333 . S
C138 C139 1.379 . S
C138 H156 0.952 . S
C139 C138 1.379 . S
C139 C140 1.390 . S
C139 H166 0.949 . S
C140 C139 1.390 . S
C140 C141 1.357 . S
C141 C140 1.357 . S
C141 C142 1.370 . S
C141 H167 0.950 . S
C142 N137 1.307 . S
C142 C141 1.370 . S
C142 H160 0.948 . S
Zn143 N137 2.020 . S
Zn143 O152 2.039 . S
Zn143 O158 2.034 . S
Zn143 O162 2.025 . S
Zn143 O164 2.024 . S
C144 O163 1.246 . S
C144 O164 1.249 . S
N145 C146 1.307 . S
N145 C147 1.333 . S
N145 Zn151 2.020 . S
C146 N145 1.307 . S
C146 C150 1.370 . S
C146 H157 0.948 . S
C147 N145 1.333 . S
C147 C148 1.379 . S
C147 H155 0.952 . S
C148 C147 1.379 . S
C148 C149 1.390 . S
C148 H168 0.949 . S
C149 C148 1.390 . S
C149 C150 1.357 . S
C150 C146 1.370 . S
C150 C149 1.357 . S
C150 H169 0.950 . S
Zn151 N145 2.020 . S
Zn151 O154 2.025 . S
Zn151 O159 2.024 . S
Zn151 O161 2.039 . S
Zn151 O163 2.034 . S
O152 C136 1.251 . S
O152 Zn143 2.039 . S
C153 O158 1.246 . S
C153 O159 1.249 . S
O154 C136 1.254 . S
O154 Zn151 2.025 . S
H155 C147 0.952 . S
H156 C138 0.952 . S
H157 C146 0.948 . S
O158 Zn143 2.034 . S
O158 C153 1.246 . S
O159 Zn151 2.024 . S
O159 C153 1.249 . S
H160 C142 0.948 . S
O161 Zn151 2.039 . S
O161 C165 1.251 . S
O162 Zn143 2.025 . S
O162 C165 1.254 . S
O163 C144 1.246 . S
O163 Zn151 2.034 . S
O164 Zn143 2.024 . S
O164 C144 1.249 . S
C165 O161 1.251 . S
C165 O162 1.254 . S
H166 C139 0.949 . S
H167 C141 0.950 . S
H168 C148 0.949 . S
H169 C150 0.950 . S
C170 O186 1.251 . S
C170 O188 1.254 . S
N171 C172 1.333 . S
N171 C176 1.307 . S
N171 Zn177 2.020 . S
C172 N171 1.333 . S
C172 C173 1.379 . S
C172 H190 0.952 . S
C173 C172 1.379 . S
C173 C174 1.390 . S
C173 H200 0.949 . S
C174 C173 1.390 . S
C174 C175 1.357 . S
C175 C174 1.357 . S
C175 C176 1.370 . S
C175 H201 0.950 . S
C176 N171 1.307 . S
C176 C175 1.370 . S
C176 H194 0.948 . S
Zn177 N171 2.020 . S
Zn177 O186 2.039 . S
Zn177 O192 2.034 . S
Zn177 O196 2.025 . S
Zn177 O198 2.024 . S
C178 O197 1.246 . S
C178 O198 1.249 . S
N179 C180 1.307 . S
N179 C181 1.333 . S
N179 Zn185 2.020 . S
C180 N179 1.307 . S
C180 C184 1.370 . S
C180 H191 0.948 . S
C181 N179 1.333 . S
C181 C182 1.379 . S
C181 H189 0.952 . S
C182 C181 1.379 . S
C182 C183 1.390 . S
C182 H202 0.949 . S
C183 C182 1.390 . S
C183 C184 1.357 . S
C184 C180 1.370 . S
C184 C183 1.357 . S
C184 H203 0.950 . S
Zn185 N179 2.020 . S
Zn185 O188 2.025 . S
Zn185 O193 2.024 . S
Zn185 O195 2.039 . S
Zn185 O197 2.034 . S
O186 C170 1.251 . S
O186 Zn177 2.039 . S
C187 O192 1.246 . S
C187 O193 1.249 . S
O188 C170 1.254 . S
O188 Zn185 2.025 . S
H189 C181 0.952 . S
H190 C172 0.952 . S
H191 C180 0.948 . S
O192 Zn177 2.034 . S
O192 C187 1.246 . S
O193 Zn185 2.024 . S
O193 C187 1.249 . S
H194 C176 0.948 . S
O195 Zn185 2.039 . S
O195 C199 1.251 . S
O196 Zn177 2.025 . S
O196 C199 1.254 . S
O197 C178 1.246 . S
O197 Zn185 2.034 . S
O198 Zn177 2.024 . S
O198 C178 1.249 . S
C199 O195 1.251 . S
C199 O196 1.254 . S
H200 C173 0.949 . S
H201 C175 0.950 . S
H202 C182 0.949 . S
H203 C184 0.950 . S
C204 O220 1.251 . S
C204 O222 1.254 . S
N205 C206 1.333 . S
N205 C210 1.307 . S
N205 Zn211 2.020 . S
C206 N205 1.333 . S
C206 C207 1.379 . S
C206 H224 0.952 . S
C207 C206 1.379 . S
C207 C208 1.390 . S
C207 H234 0.949 . S
C208 C207 1.390 . S
C208 C209 1.357 . S
C209 C208 1.357 . S
C209 C210 1.370 . S
C209 H235 0.950 . S
C210 N205 1.307 . S
C210 C209 1.370 . S
C210 H228 0.948 . S
Zn211 N205 2.020 . S
Zn211 O220 2.039 . S
Zn211 O226 2.034 . S
Zn211 O230 2.025 . S
Zn211 O232 2.024 . S
C212 O231 1.246 . S
C212 O232 1.249 . S
N213 C214 1.307 . S
N213 C215 1.333 . S
N213 Zn219 2.020 . S
C214 N213 1.307 . S
C214 C218 1.370 . S
C214 H225 0.948 . S
C215 N213 1.333 . S
C215 C216 1.379 . S
C215 H223 0.952 . S
C216 C215 1.379 . S
C216 C217 1.390 . S
C216 H236 0.949 . S
C217 C216 1.390 . S
C217 C218 1.357 . S
C218 C214 1.370 . S
C218 C217 1.357 . S
C218 H237 0.950 . S
Zn219 N213 2.020 . S
Zn219 O222 2.025 . S
Zn219 O227 2.024 . S
Zn219 O229 2.039 . S
Zn219 O231 2.034 . S
O220 C204 1.251 . S
O220 Zn211 2.039 . S
C221 O226 1.246 . S
C221 O227 1.249 . S
O222 C204 1.254 . S
O222 Zn219 2.025 . S
H223 C215 0.952 . S
H224 C206 0.952 . S
H225 C214 0.948 . S
O226 Zn211 2.034 . S
O226 C221 1.246 . S
O227 Zn219 2.024 . S
O227 C221 1.249 . S
H228 C210 0.948 . S
O229 Zn219 2.039 . S
O229 C233 1.251 . S
O230 Zn211 2.025 . S
O230 C233 1.254 . S
O231 C212 1.246 . S
O231 Zn219 2.034 . S
O232 Zn211 2.024 . S
O232 C212 1.249 . S
C233 O229 1.251 . S
C233 O230 1.254 . S
H234 C207 0.949 . S
H235 C209 0.950 . S
H236 C216 0.949 . S
H237 C218 0.950 . S
C238 O254 1.251 . S
C238 O256 1.254 . S
N239 C240 1.333 . S
N239 C244 1.307 . S
N239 Zn245 2.020 . S
C240 N239 1.333 . S
C240 C241 1.379 . S
C240 H258 0.952 . S
C241 C240 1.379 . S
C241 C242 1.390 . S
C241 H268 0.949 . S
C242 C241 1.390 . S
C242 C243 1.357 . S
C243 C242 1.357 . S
C243 C244 1.370 . S
C243 H269 0.950 . S
C244 N239 1.307 . S
C244 C243 1.370 . S
C244 H262 0.948 . S
Zn245 N239 2.020 . S
Zn245 O254 2.039 . S
Zn245 O260 2.034 . S
Zn245 O264 2.025 . S
Zn245 O266 2.024 . S
C246 O265 1.246 . S
C246 O266 1.249 . S
N247 C248 1.307 . S
N247 C249 1.333 . S
N247 Zn253 2.020 . S
C248 N247 1.307 . S
C248 C252 1.370 . S
C248 H259 0.948 . S
C249 N247 1.333 . S
C249 C250 1.379 . S
C249 H257 0.952 . S
C250 C249 1.379 . S
C250 C251 1.390 . S
C250 H270 0.949 . S
C251 C250 1.390 . S
C251 C252 1.357 . S
C252 C248 1.370 . S
C252 C251 1.357 . S
C252 H271 0.950 . S
Zn253 N247 2.020 . S
Zn253 O256 2.025 . S
Zn253 O261 2.024 . S
Zn253 O263 2.039 . S
Zn253 O265 2.034 . S
O254 C238 1.251 . S
O254 Zn245 2.039 . S
C255 O260 1.246 . S
C255 O261 1.249 . S
O256 C238 1.254 . S
O256 Zn253 2.025 . S
H257 C249 0.952 . S
H258 C240 0.952 . S
H259 C248 0.948 . S
O260 Zn245 2.034 . S
O260 C255 1.246 . S
O261 Zn253 2.024 . S
O261 C255 1.249 . S
H262 C244 0.948 . S
O263 Zn253 2.039 . S
O263 C267 1.251 . S
O264 Zn245 2.025 . S
O264 C267 1.254 . S
O265 C246 1.246 . S
O265 Zn253 2.034 . S
O266 Zn245 2.024 . S
O266 C246 1.249 . S
C267 O263 1.251 . S
C267 O264 1.254 . S
H268 C241 0.949 . S
H269 C243 0.950 . S
H270 C250 0.949 . S
H271 C252 0.950 . S
C272 O288 1.251 . S
C272 O290 1.254 . S
N273 C274 1.333 . S
N273 C278 1.307 . S
N273 Zn279 2.020 . S
C274 N273 1.333 . S
C274 C275 1.379 . S
C274 H292 0.952 . S
C275 C274 1.379 . S
C275 C276 1.390 . S
C275 H302 0.949 . S
C276 C275 1.390 . S
C276 C277 1.357 . S
C277 C276 1.357 . S
C277 C278 1.370 . S
C277 H303 0.950 . S
C278 N273 1.307 . S
C278 C277 1.370 . S
C278 H296 0.948 . S
Zn279 N273 2.020 . S
Zn279 O288 2.039 . S
Zn279 O294 2.034 . S
Zn279 O298 2.025 . S
Zn279 O300 2.024 . S
C280 O299 1.246 . S
C280 O300 1.249 . S
N281 C282 1.307 . S
N281 C283 1.333 . S
N281 Zn287 2.020 . S
C282 N281 1.307 . S
C282 C286 1.370 . S
C282 H293 0.948 . S
C283 N281 1.333 . S
C283 C284 1.379 . S
C283 H291 0.952 . S
C284 C283 1.379 . S
C284 C285 1.390 . S
C284 H304 0.949 . S
C285 C284 1.390 . S
C285 C286 1.357 . S
C286 C282 1.370 . S
C286 C285 1.357 . S
C286 H305 0.950 . S
Zn287 N281 2.020 . S
Zn287 O290 2.025 . S
Zn287 O295 2.024 . S
Zn287 O297 2.039 . S
Zn287 O299 2.034 . S
O288 C272 1.251 . S
O288 Zn279 2.039 . S
C289 O294 1.246 . S
C289 O295 1.249 . S
O290 C272 1.254 . S
O290 Zn287 2.025 . S
H291 C283 0.952 . S
H292 C274 0.952 . S
H293 C282 0.948 . S
O294 Zn279 2.034 . S
O294 C289 1.246 . S
O295 Zn287 2.024 . S
O295 C289 1.249 . S
H296 C278 0.948 . S
O297 Zn287 2.039 . S
O297 C301 1.251 . S
O298 Zn279 2.025 . S
O298 C301 1.254 . S
O299 C280 1.246 . S
O299 Zn287 2.034 . S
O300 Zn279 2.024 . S
O300 C280 1.249 . S
C301 O297 1.251 . S
C301 O298 1.254 . S
H302 C275 0.949 . S
H303 C277 0.950 . S
H304 C284 0.949 . S
H305 C286 0.950 . S
H306 C314 0.950 1_554 S
H307 C319 0.950 . S
H308 C316 0.950 . S
H309 C318 0.950 . S
H310 C320 0.950 . S
H311 C322 0.950 . S
H312 C324 0.950 . S
H313 C325 0.950 . S
C314 H306 0.950 1_556 S
C314 C315 1.386 . S
C314 C316 1.391 . S
C315 C314 1.386 . S
C315 C319 1.393 . S
C316 H308 0.950 . S
C316 C314 1.391 . S
C316 C317 1.400 . S
C317 C316 1.400 . S
C317 C318 1.398 . S
C317 C323 1.491 . S
C318 H309 0.950 . S
C318 C317 1.398 . S
C318 C319 1.391 . S
C319 H307 0.950 . S
C319 C315 1.393 . S
C319 C318 1.391 . S
C320 H310 0.950 . S
C320 C321 1.386 . S
C320 C322 1.391 . S
C321 C320 1.386 . S
C321 C325 1.393 . S
C322 H311 0.950 . S
C322 C320 1.391 . S
C322 C323 1.400 . S
C323 C317 1.491 . S
C323 C322 1.400 . S
C323 C324 1.398 . S
C324 H312 0.950 . S
C324 C323 1.398 . S
C324 C325 1.391 . S
C325 H313 0.950 . S
C325 C321 1.393 . S
C325 C324 1.391 . S
H326 C334 0.950 . S
H327 C339 0.950 . S
H328 C336 0.950 . S
H329 C338 0.950 . S
H330 C340 0.950 . S
H331 C342 0.950 . S
H332 C344 0.950 . S
H333 C345 0.950 . S
C334 H326 0.950 . S
C334 C335 1.386 . S
C334 C336 1.391 . S
C335 C334 1.386 . S
C335 C339 1.393 . S
C336 H328 0.950 . S
C336 C334 1.391 . S
C336 C337 1.400 . S
C337 C336 1.400 . S
C337 C338 1.398 . S
C337 C343 1.491 . S
C338 H329 0.950 . S
C338 C337 1.398 . S
C338 C339 1.391 . S
C339 H327 0.950 . S
C339 C335 1.393 . S
C339 C338 1.391 . S
C340 H330 0.950 . S
C340 C341 1.386 . S
C340 C342 1.391 . S
C341 C340 1.386 . S
C341 C345 1.393 . S
C342 H331 0.950 . S
C342 C340 1.391 . S
C342 C343 1.400 . S
C343 C337 1.491 . S
C343 C342 1.400 . S
C343 C344 1.398 . S
C344 H332 0.950 . S
C344 C343 1.398 . S
C344 C345 1.391 . S
C345 H333 0.950 . S
C345 C341 1.393 . S
C345 C344 1.391 . S
H346 C354 0.950 . S
H347 C359 0.950 . S
H348 C356 0.950 . S
H349 C358 0.950 . S
H350 C360 0.950 . S
H351 C362 0.950 . S
H352 C364 0.950 . S
H353 C365 0.950 . S
C354 H346 0.950 . S
C354 C355 1.386 . S
C354 C356 1.391 . S
C355 C354 1.386 . S
C355 C359 1.393 . S
C356 H348 0.950 . S
C356 C354 1.391 . S
C356 C357 1.400 . S
C357 C356 1.400 . S
C357 C358 1.398 . S
C357 C363 1.491 . S
C358 H349 0.950 . S
C358 C357 1.398 . S
C358 C359 1.391 . S
C359 H347 0.950 . S
C359 C355 1.393 . S
C359 C358 1.391 . S
C360 H350 0.950 . S
C360 C361 1.386 . S
C360 C362 1.391 . S
C361 C360 1.386 . S
C361 C365 1.393 . S
C362 H351 0.950 . S
C362 C360 1.391 . S
C362 C363 1.400 . S
C363 C357 1.491 . S
C363 C362 1.400 . S
C363 C364 1.398 . S
C364 H352 0.950 . S
C364 C363 1.398 . S
C364 C365 1.391 . S
C365 H353 0.950 . S
C365 C361 1.393 . S
C365 C364 1.391 . S
H366 C374 0.950 . S
H367 C379 0.950 . S
H368 C376 0.950 . S
H369 C378 0.950 . S
H370 C380 0.950 . S
H371 C382 0.950 . S
H372 C384 0.950 . S
H373 C385 0.950 . S
C374 H366 0.950 . S
C374 C375 1.386 . S
C374 C376 1.391 . S
C375 C374 1.386 . S
C375 C379 1.393 . S
C376 H368 0.950 . S
C376 C374 1.391 . S
C376 C377 1.400 . S
C377 C376 1.400 . S
C377 C378 1.398 . S
C377 C383 1.491 . S
C378 H369 0.950 . S
C378 C377 1.398 . S
C378 C379 1.391 . S
C379 H367 0.950 . S
C379 C375 1.393 . S
C379 C378 1.391 . S
C380 H370 0.950 . S
C380 C381 1.386 . S
C380 C382 1.391 . S
C381 C380 1.386 . S
C381 C385 1.393 . S
C382 H371 0.950 . S
C382 C380 1.391 . S
C382 C383 1.400 . S
C383 C377 1.491 . S
C383 C382 1.400 . S
C383 C384 1.398 . S
C384 H372 0.950 . S
C384 C383 1.398 . S
C384 C385 1.391 . S
C385 H373 0.950 . S
C385 C381 1.393 . S
C385 C384 1.391 . S
H386 C394 0.950 . S
H387 C399 0.950 . S
H388 C396 0.950 . S
H389 C398 0.950 . S
H390 C400 0.950 . S
H391 C402 0.950 . S
H392 C404 0.950 . S
H393 C405 0.950 . S
C394 H386 0.950 . S
C394 C395 1.386 . S
C394 C396 1.391 . S
C395 C394 1.386 . S
C395 C399 1.393 . S
C396 H388 0.950 . S
C396 C394 1.391 . S
C396 C397 1.400 . S
C397 C396 1.400 . S
C397 C398 1.398 . S
C397 C403 1.491 . S
C398 H389 0.950 . S
C398 C397 1.398 . S
C398 C399 1.391 . S
C399 H387 0.950 . S
C399 C395 1.393 . S
C399 C398 1.391 . S
C400 H390 0.950 . S
C400 C401 1.386 . S
C400 C402 1.391 . S
C401 C400 1.386 . S
C401 C405 1.393 . S
C402 H391 0.950 . S
C402 C400 1.391 . S
C402 C403 1.400 . S
C403 C397 1.491 . S
C403 C402 1.400 . S
C403 C404 1.398 . S
C404 H392 0.950 . S
C404 C403 1.398 . S
C404 C405 1.391 . S
C405 H393 0.950 . S
C405 C401 1.393 . S
C405 C404 1.391 . S
H406 C414 0.950 . S
H407 C419 0.950 . S
H408 C416 0.950 . S
H409 C418 0.950 . S
H410 C420 0.950 . S
H411 C422 0.950 . S
H412 C424 0.950 . S
H413 C425 0.950 . S
C414 H406 0.950 . S
C414 C415 1.386 . S
C414 C416 1.391 . S
C415 C414 1.386 . S
C415 C419 1.393 . S
C416 H408 0.950 . S
C416 C414 1.391 . S
C416 C417 1.400 . S
C417 C416 1.400 . S
C417 C418 1.398 . S
C417 C423 1.491 . S
C418 H409 0.950 . S
C418 C417 1.398 . S
C418 C419 1.391 . S
C419 H407 0.950 . S
C419 C415 1.393 . S
C419 C418 1.391 . S
C420 H410 0.950 . S
C420 C421 1.386 . S
C420 C422 1.391 . S
C421 C420 1.386 . S
C421 C425 1.393 . S
C422 H411 0.950 . S
C422 C420 1.391 . S
C422 C423 1.400 . S
C423 C417 1.491 . S
C423 C422 1.400 . S
C423 C424 1.398 . S
C424 H412 0.950 . S
C424 C423 1.398 . S
C424 C425 1.391 . S
C425 H413 0.950 . S
C425 C421 1.393 . S
C425 C424 1.391 . S
H426 C434 0.950 . S
H427 C439 0.950 . S
H428 C436 0.950 . S
H429 C438 0.953 . S
H430 C440 0.950 . S
H431 C442 0.950 . S
H432 C444 0.950 . S
H433 C445 0.950 . S
C434 H426 0.950 . S
C434 C435 1.386 . S
C434 C436 1.391 . S
C435 C434 1.386 . S
C435 C439 1.393 . S
C436 H428 0.950 . S
C436 C434 1.391 . S
C436 C437 1.400 . S
C437 C436 1.400 . S
C437 C438 1.398 . S
C437 C443 1.472 1_455 S
C438 H429 0.953 . S
C438 C437 1.398 . S
C438 C439 1.391 . S
C439 H427 0.950 . S
C439 C435 1.393 . S
C439 C438 1.391 . S
C440 H430 0.950 . S
C440 C441 1.386 . S
C440 C442 1.391 . S
C441 C440 1.386 . S
C441 C445 1.393 . S
C442 H431 0.950 . S
C442 C440 1.391 . S
C442 C443 1.428 . S
C443 C437 1.472 1_655 S
C443 C442 1.428 . S
C443 C444 1.391 1_655 S
C444 H432 0.950 . S
C444 C443 1.391 1_455 S
C444 C445 1.391 1_455 S
C445 H433 0.950 . S
C445 C441 1.393 . S
C445 C444 1.391 1_655 S
H446 C454 0.950 . S
H447 C459 0.950 . S
H448 C456 0.950 . S
H449 C458 0.950 . S
H450 C460 0.950 . S
H451 C462 0.950 . S
H452 C464 0.950 . S
H453 C465 0.950 . S
C454 H446 0.950 . S
C454 C455 1.386 . S
C454 C456 1.391 . S
C455 C454 1.386 . S
C455 C459 1.393 . S
C456 H448 0.950 . S
C456 C454 1.391 . S
C456 C457 1.400 . S
C457 C456 1.400 . S
C457 C458 1.398 . S
C457 C463 1.491 . S
C458 H449 0.950 . S
C458 C457 1.398 . S
C458 C459 1.391 . S
C459 H447 0.950 . S
C459 C455 1.393 . S
C459 C458 1.391 . S
C460 H450 0.950 . S
C460 C461 1.386 . S
C460 C462 1.391 . S
C461 C460 1.386 . S
C461 C465 1.393 . S
C462 H451 0.950 . S
C462 C460 1.391 . S
C462 C463 1.400 . S
C463 C457 1.491 . S
C463 C462 1.400 . S
C463 C464 1.398 . S
C464 H452 0.950 . S
C464 C463 1.398 . S
C464 C465 1.391 . S
C465 H453 0.950 . S
C465 C461 1.393 . S
C465 C464 1.391 . S
H466 C474 0.950 . S
H467 C479 0.950 . S
H468 C476 0.950 . S
H469 C478 0.950 1_565 S
H470 C480 0.950 . S
H471 C482 0.950 . S
H472 C484 0.960 . S
H473 C485 0.950 . S
C474 H466 0.950 . S
C474 C475 1.386 . S
C474 C476 1.391 . S
C475 C474 1.386 . S
C475 C479 1.393 . S
C476 H468 0.950 . S
C476 C474 1.391 . S
C476 C477 1.400 . S
C477 C476 1.400 . S
C477 C478 1.398 . S
C477 C483 1.491 1_545 S
C478 H469 0.950 1_545 S
C478 C477 1.398 . S
C478 C479 1.391 . S
C479 H467 0.950 . S
C479 C475 1.393 . S
C479 C478 1.391 . S
C480 H470 0.950 . S
C480 C481 1.386 . S
C480 C482 1.391 . S
C481 C480 1.386 . S
C481 C485 1.393 . S
C482 H471 0.950 . S
C482 C480 1.391 . S
C482 C483 1.400 . S
C483 C477 1.491 1_565 S
C483 C482 1.400 . S
C483 C484 1.395 1_565 S
C484 H472 0.960 . S
C484 C483 1.395 1_545 S
C484 C485 1.384 1_545 S
C485 H473 0.950 . S
C485 C481 1.393 . S
C485 C484 1.384 1_565 S
H486 C494 0.950 . S
H487 C499 0.950 . S
H488 C496 0.950 . S
H489 C498 0.947 1_556 S
H490 C500 0.950 . S
H491 C502 0.950 . S
H492 C504 0.950 . S
H493 C505 0.950 . S
C494 H486 0.950 . S
C494 C495 1.386 . S
C494 C496 1.391 . S
C495 C494 1.386 . S
C495 C499 1.393 . S
C496 H488 0.950 . S
C496 C494 1.391 . S
C496 C497 1.400 . S
C497 C496 1.400 . S
C497 C498 1.398 . S
C497 C503 1.491 . S
C498 H489 0.947 1_554 S
C498 C497 1.398 . S
C498 C499 1.391 . S
C499 H487 0.950 . S
C499 C495 1.393 . S
C499 C498 1.391 . S
C500 H490 0.950 . S
C500 C501 1.386 . S
C500 C502 1.391 . S
C501 C500 1.386 . S
C501 C505 1.393 1_556 S
C502 H491 0.950 . S
C502 C500 1.391 . S
C502 C503 1.400 1_556 S
C503 C497 1.491 . S
C503 C502 1.400 1_554 S
C503 C504 1.398 . S
C504 H492 0.950 . S
C504 C503 1.398 . S
C504 C505 1.391 . S
C505 H493 0.950 . S
C505 C501 1.393 1_554 S
C505 C504 1.391 . S
H506 C514 0.950 . S
H507 C519 0.950 . S
H508 C516 0.950 . S
H509 C518 0.950 . S
H510 C520 0.950 . S
H511 C522 0.950 . S
H512 C524 0.950 . S
H513 C525 0.950 . S
C514 H506 0.950 . S
C514 C515 1.386 . S
C514 C516 1.391 1_556 S
C515 C514 1.386 . S
C515 C519 1.393 . S
C516 H508 0.950 . S
C516 C514 1.391 1_554 S
C516 C517 1.400 . S
C517 C516 1.400 . S
C517 C518 1.398 . S
C517 C523 1.491 1_565 S
C518 H509 0.950 . S
C518 C517 1.398 . S
C518 C519 1.391 1_554 S
C519 H507 0.950 . S
C519 C515 1.393 . S
C519 C518 1.391 1_556 S
C520 H510 0.950 . S
C520 C521 1.386 . S
C520 C522 1.391 . S
C521 C520 1.386 . S
C521 C525 1.393 . S
C522 H511 0.950 . S
C522 C520 1.391 . S
C522 C523 1.400 . S
C523 C517 1.491 1_545 S
C523 C522 1.400 . S
C523 C524 1.398 . S
C524 H512 0.950 . S
C524 C523 1.398 . S
C524 C525 1.391 . S
C525 H513 0.950 . S
C525 C521 1.393 . S
C525 C524 1.391 . S
H526 C534 0.947 1_556 S
H527 C539 0.950 . S
H528 C536 0.950 . S
H529 C538 0.950 . S
H530 C540 0.950 . S
H531 C542 0.950 . S
H532 C544 0.950 . S
H533 C545 0.950 . S
C534 H526 0.947 1_554 S
C534 C535 1.390 . S
C534 C536 1.390 1_554 S
C535 C534 1.390 . S
C535 C539 1.393 . S
C536 H528 0.950 . S
C536 C534 1.390 1_556 S
C536 C537 1.400 1_556 S
C537 C536 1.400 1_554 S
C537 C538 1.398 . S
C537 C543 1.491 1_655 S
C538 H529 0.950 . S
C538 C537 1.398 . S
C538 C539 1.391 . S
C539 H527 0.950 . S
C539 C535 1.393 . S
C539 C538 1.391 . S
C540 H530 0.950 . S
C540 C541 1.386 1_554 S
C540 C542 1.391 . S
C541 C540 1.386 1_556 S
C541 C545 1.393 . S
C542 H531 0.950 . S
C542 C540 1.391 . S
C542 C543 1.400 . S
C543 C537 1.491 1_455 S
C543 C542 1.400 . S
C543 C544 1.398 1_554 S
C544 H532 0.950 . S
C544 C543 1.398 1_556 S
C544 C545 1.391 . S
C545 H533 0.950 . S
C545 C541 1.393 . S
C545 C544 1.391 . S
H546 C554 0.950 . S
H547 C559 0.950 . S
H548 C556 0.950 . S
H549 C558 0.950 . S
H550 C560 0.950 . S
H551 C562 0.950 . S
H552 C564 0.950 . S
H553 C565 0.950 . S
C554 H546 0.950 . S
C554 C555 1.386 . S
C554 C556 1.391 . S
C555 C554 1.386 . S
C555 C559 1.393 . S
C556 H548 0.950 . S
C556 C554 1.391 . S
C556 C557 1.400 . S
C557 C556 1.400 . S
C557 C558 1.398 . S
C557 C563 1.491 . S
C558 H549 0.950 . S
C558 C557 1.398 . S
C558 C559 1.391 . S
C559 H547 0.950 . S
C559 C555 1.393 . S
C559 C558 1.391 . S
C560 H550 0.950 . S
C560 C561 1.386 . S
C560 C562 1.391 . S
C561 C560 1.386 . S
C561 C565 1.393 . S
C562 H551 0.950 . S
C562 C560 1.391 . S
C562 C563 1.400 . S
C563 C557 1.491 . S
C563 C562 1.400 . S
C563 C564 1.398 . S
C564 H552 0.950 . S
C564 C563 1.398 . S
C564 C565 1.391 . S
C565 H553 0.950 . S
C565 C561 1.393 . S
C565 C564 1.391 . S
H566 C574 0.950 . S
H567 C579 0.950 . S
H568 C576 0.950 . S
H569 C578 0.950 . S
H570 C580 0.950 . S
H571 C582 0.950 . S
H572 C584 0.950 . S
H573 C585 0.950 . S
C574 H566 0.950 . S
C574 C575 1.386 . S
C574 C576 1.391 . S
C575 C574 1.386 . S
C575 C579 1.393 . S
C576 H568 0.950 . S
C576 C574 1.391 . S
C576 C577 1.400 . S
C577 C576 1.400 . S
C577 C578 1.398 . S
C577 C583 1.491 . S
C578 H569 0.950 . S
C578 C577 1.398 . S
C578 C579 1.391 . S
C579 H567 0.950 . S
C579 C575 1.393 . S
C579 C578 1.391 . S
C580 H570 0.950 . S
C580 C581 1.386 . S
C580 C582 1.391 . S
C581 C580 1.386 . S
C581 C585 1.393 . S
C582 H571 0.950 . S
C582 C580 1.391 . S
C582 C583 1.400 . S
C583 C577 1.491 . S
C583 C582 1.400 . S
C583 C584 1.398 . S
C584 H572 0.950 . S
C584 C583 1.398 . S
C584 C585 1.391 . S
C585 H573 0.950 . S
C585 C581 1.393 . S
C585 C584 1.391 . S
H586 C594 0.950 . S
H587 C599 0.950 . S
H588 C596 0.950 . S
H589 C598 0.950 . S
H590 C600 0.950 . S
H591 C602 0.950 . S
H592 C604 0.950 . S
H593 C605 0.950 . S
C594 H586 0.950 . S
C594 C595 1.386 . S
C594 C596 1.391 . S
C595 C594 1.386 . S
C595 C599 1.393 . S
C596 H588 0.950 . S
C596 C594 1.391 . S
C596 C597 1.400 . S
C597 C596 1.400 . S
C597 C598 1.398 . S
C597 C603 1.491 . S
C598 H589 0.950 . S
C598 C597 1.398 . S
C598 C599 1.391 . S
C599 H587 0.950 . S
C599 C595 1.393 . S
C599 C598 1.391 . S
C600 H590 0.950 . S
C600 C601 1.386 . S
C600 C602 1.391 . S
C601 C600 1.386 . S
C601 C605 1.393 . S
C602 H591 0.950 . S
C602 C600 1.391 . S
C602 C603 1.400 . S
C603 C597 1.491 . S
C603 C602 1.400 . S
C603 C604 1.398 . S
C604 H592 0.950 . S
C604 C603 1.398 . S
C604 C605 1.391 . S
C605 H593 0.950 . S
C605 C601 1.393 . S
C605 C604 1.391 . S
H606 C614 0.950 . S
H607 C619 0.950 . S
H608 C616 0.950 . S
H609 C618 0.950 . S
H610 C620 0.950 . S
H611 C622 0.950 . S
H612 C624 0.950 . S
H613 C625 0.950 . S
C614 H606 0.950 . S
C614 C615 1.386 . S
C614 C616 1.391 . S
C615 C614 1.386 . S
C615 C619 1.393 . S
C616 H608 0.950 . S
C616 C614 1.391 . S
C616 C617 1.400 . S
C617 C616 1.400 . S
C617 C618 1.398 . S
C617 C623 1.491 . S
C618 H609 0.950 . S
C618 C617 1.398 . S
C618 C619 1.391 . S
C619 H607 0.950 . S
C619 C615 1.393 . S
C619 C618 1.391 . S
C620 H610 0.950 . S
C620 C621 1.386 . S
C620 C622 1.391 . S
C621 C620 1.386 . S
C621 C625 1.393 . S
C622 H611 0.950 . S
C622 C620 1.391 . S
C622 C623 1.400 . S
C623 C617 1.491 . S
C623 C622 1.400 . S
C623 C624 1.398 . S
C624 H612 0.950 . S
C624 C623 1.398 . S
C624 C625 1.391 . S
C625 H613 0.950 . S
C625 C621 1.393 . S
C625 C624 1.391 . S
H626 C634 0.950 . S
H627 C639 0.950 . S
H628 C636 0.950 . S
H629 C638 0.950 . S
H630 C640 0.950 . S
H631 C642 0.950 . S
H632 C644 0.950 . S
H633 C645 0.950 . S
C634 H626 0.950 . S
C634 C635 1.386 . S
C634 C636 1.391 . S
C635 C634 1.386 . S
C635 C639 1.393 . S
C636 H628 0.950 . S
C636 C634 1.391 . S
C636 C637 1.400 . S
C637 C636 1.400 . S
C637 C638 1.398 . S
C637 C643 1.491 . S
C638 H629 0.950 . S
C638 C637 1.398 . S
C638 C639 1.391 . S
C639 H627 0.950 . S
C639 C635 1.393 . S
C639 C638 1.391 . S
C640 H630 0.950 . S
C640 C641 1.386 . S
C640 C642 1.391 . S
C641 C640 1.386 . S
C641 C645 1.393 . S
C642 H631 0.950 . S
C642 C640 1.391 . S
C642 C643 1.400 . S
C643 C637 1.491 . S
C643 C642 1.400 . S
C643 C644 1.398 . S
C644 H632 0.950 . S
C644 C643 1.398 . S
C644 C645 1.391 . S
C645 H633 0.950 . S
C645 C641 1.393 . S
C645 C644 1.391 . S
H646 C654 0.950 . S
H647 C659 0.950 . S
H648 C656 0.950 . S
H649 C658 0.950 . S
H650 C660 0.950 . S
H651 C662 0.950 . S
H652 C664 0.950 . S
H653 C665 0.950 . S
C654 H646 0.950 . S
C654 C655 1.386 . S
C654 C656 1.391 . S
C655 C654 1.386 . S
C655 C659 1.393 . S
C656 H648 0.950 . S
C656 C654 1.391 . S
C656 C657 1.400 . S
C657 C656 1.400 . S
C657 C658 1.398 . S
C657 C663 1.491 . S
C658 H649 0.950 . S
C658 C657 1.398 . S
C658 C659 1.391 . S
C659 H647 0.950 . S
C659 C655 1.393 . S
C659 C658 1.391 . S
C660 H650 0.950 . S
C660 C661 1.386 . S
C660 C662 1.391 . S
C661 C660 1.386 . S
C661 C665 1.393 . S
C662 H651 0.950 . S
C662 C660 1.391 . S
C662 C663 1.400 . S
C663 C657 1.491 . S
C663 C662 1.400 . S
C663 C664 1.398 . S
C664 H652 0.950 . S
C664 C663 1.398 . S
C664 C665 1.391 . S
C665 H653 0.950 . S
C665 C661 1.393 . S
C665 C664 1.391 . S
H666 C674 0.950 . S
H667 C679 0.950 . S
H668 C676 0.950 . S
H669 C678 0.950 . S
H670 C680 0.950 1_655 S
H671 C682 0.947 1_655 S
H672 C684 0.950 . S
H673 C685 0.950 . S
C674 H666 0.950 . S
C674 C675 1.386 1_455 S
C674 C676 1.391 . S
C675 C674 1.386 1_655 S
C675 C679 1.393 . S
C676 H668 0.950 . S
C676 C674 1.391 . S
C676 C677 1.400 . S
C677 C676 1.400 . S
C677 C678 1.398 1_455 S
C677 C683 1.491 . S
C678 H669 0.950 . S
C678 C677 1.398 1_655 S
C678 C679 1.391 . S
C679 H667 0.950 . S
C679 C675 1.393 . S
C679 C678 1.391 . S
C680 H670 0.950 1_455 S
C680 C681 1.386 . S
C680 C682 1.393 . S
C681 C680 1.386 . S
C681 C685 1.393 . S
C682 H671 0.947 1_455 S
C682 C680 1.393 . S
C682 C683 1.402 . S
C683 C677 1.491 . S
C683 C682 1.402 . S
C683 C684 1.398 . S
C684 H672 0.950 . S
C684 C683 1.398 . S
C684 C685 1.391 . S
C685 H673 0.950 . S
C685 C681 1.393 . S
C685 C684 1.391 . S
H686 C694 0.950 . S
H687 C699 0.950 . S
H688 C696 0.950 . S
H689 C698 0.950 . S
H690 C700 0.950 . S
H691 C702 0.950 . S
H692 C704 0.950 . S
H693 C705 0.950 . S
C694 H686 0.950 . S
C694 C695 1.386 . S
C694 C696 1.391 . S
C695 C694 1.386 . S
C695 C699 1.393 . S
C696 H688 0.950 . S
C696 C694 1.391 . S
C696 C697 1.400 . S
C697 C696 1.400 . S
C697 C698 1.398 . S
C697 C703 1.491 . S
C698 H689 0.950 . S
C698 C697 1.398 . S
C698 C699 1.391 . S
C699 H687 0.950 . S
C699 C695 1.393 . S
C699 C698 1.391 . S
C700 H690 0.950 . S
C700 C701 1.386 . S
C700 C702 1.391 . S
C701 C700 1.386 . S
C701 C705 1.393 . S
C702 H691 0.950 . S
C702 C700 1.391 . S
C702 C703 1.400 . S
C703 C697 1.491 . S
C703 C702 1.400 . S
C703 C704 1.398 . S
C704 H692 0.950 . S
C704 C703 1.398 . S
C704 C705 1.391 . S
C705 H693 0.950 . S
C705 C701 1.393 . S
C705 C704 1.391 . S
H706 C714 0.950 . S
H707 C719 0.950 . S
H708 C716 0.950 1_565 S
H709 C718 0.950 . S
H710 C720 0.950 . S
H711 C722 0.950 . S
H712 C724 0.950 . S
H713 C725 0.950 . S
C714 H706 0.950 . S
C714 C715 1.386 . S
C714 C716 1.391 . S
C715 C714 1.386 . S
C715 C719 1.393 . S
C716 H708 0.950 1_545 S
C716 C714 1.391 . S
C716 C717 1.400 . S
C717 C716 1.400 . S
C717 C718 1.398 . S
C717 C723 1.491 . S
C718 H709 0.950 . S
C718 C717 1.398 . S
C718 C719 1.391 . S
C719 H707 0.950 . S
C719 C715 1.393 . S
C719 C718 1.391 . S
C720 H710 0.950 . S
C720 C721 1.386 1_545 S
C720 C722 1.391 . S
C721 C720 1.386 1_565 S
C721 C725 1.393 . S
C722 H711 0.950 . S
C722 C720 1.391 . S
C722 C723 1.400 . S
C723 C717 1.491 . S
C723 C722 1.400 . S
C723 C724 1.398 1_545 S
C724 H712 0.950 . S
C724 C723 1.398 1_565 S
C724 C725 1.391 . S
C725 H713 0.950 . S
C725 C721 1.393 . S
C725 C724 1.391 . S
H726 C734 0.950 . S
H727 C739 0.950 . S
H728 C736 0.950 . S
H729 C738 0.950 . S
H730 C740 0.945 1_554 S
H731 C742 0.950 . S
H732 C744 0.950 . S
H733 C745 0.950 . S
C734 H726 0.950 . S
C734 C735 1.386 . S
C734 C736 1.391 . S
C735 C734 1.386 . S
C735 C739 1.393 . S
C736 H728 0.950 . S
C736 C734 1.391 . S
C736 C737 1.400 . S
C737 C736 1.400 . S
C737 C738 1.398 . S
C737 C743 1.491 . S
C738 H729 0.950 . S
C738 C737 1.398 . S
C738 C739 1.391 . S
C739 H727 0.950 . S
C739 C735 1.393 . S
C739 C738 1.391 . S
C740 H730 0.945 1_556 S
C740 C741 1.386 . S
C740 C742 1.391 . S
C741 C740 1.386 . S
C741 C745 1.393 . S
C742 H731 0.950 . S
C742 C740 1.391 . S
C742 C743 1.400 . S
C743 C737 1.491 . S
C743 C742 1.400 . S
C743 C744 1.398 . S
C744 H732 0.950 . S
C744 C743 1.398 . S
C744 C745 1.391 . S
C745 H733 0.950 . S
C745 C741 1.393 . S
C745 C744 1.391 . S
H746 C754 0.950 . S
H747 C759 0.950 . S
H748 C756 0.950 . S
H749 C758 0.950 . S
H750 C760 0.950 1_554 S
H751 C762 0.950 . S
H752 C764 0.950 . S
H753 C765 0.950 . S
C754 H746 0.950 . S
C754 C755 1.386 . S
C754 C756 1.391 . S
C755 C754 1.386 . S
C755 C759 1.393 . S
C756 H748 0.950 . S
C756 C754 1.391 . S
C756 C757 1.400 . S
C757 C756 1.400 . S
C757 C758 1.398 . S
C757 C763 1.491 . S
C758 H749 0.950 . S
C758 C757 1.398 . S
C758 C759 1.391 . S
C759 H747 0.950 . S
C759 C755 1.393 . S
C759 C758 1.391 . S
C760 H750 0.950 1_556 S
C760 C761 1.386 . S
C760 C762 1.391 . S
C761 C760 1.386 . S
C761 C765 1.393 . S
C762 H751 0.950 . S
C762 C760 1.391 . S
C762 C763 1.400 . S
C763 C757 1.491 . S
C763 C762 1.400 . S
C763 C764 1.398 . S
C764 H752 0.950 . S
C764 C763 1.398 . S
C764 C765 1.391 . S
C765 H753 0.950 . S
C765 C761 1.393 . S
C765 C764 1.391 . S
H766 C774 0.950 . S
H767 C779 0.950 . S
H768 C776 0.950 . S
H769 C778 0.950 . S
H770 C780 0.950 1_554 S
H771 C782 0.950 . S
H772 C784 0.950 . S
H773 C785 0.950 . S
C774 H766 0.950 . S
C774 C775 1.386 . S
C774 C776 1.391 . S
C775 C774 1.386 . S
C775 C779 1.393 . S
C776 H768 0.950 . S
C776 C774 1.391 . S
C776 C777 1.400 . S
C777 C776 1.400 . S
C777 C778 1.398 . S
C777 C783 1.491 . S
C778 H769 0.950 . S
C778 C777 1.398 . S
C778 C779 1.391 . S
C779 H767 0.950 . S
C779 C775 1.393 . S
C779 C778 1.391 . S
C780 H770 0.950 1_556 S
C780 C781 1.386 . S
C780 C782 1.391 . S
C781 C780 1.386 . S
C781 C785 1.393 . S
C782 H771 0.950 . S
C782 C780 1.391 . S
C782 C783 1.400 . S
C783 C777 1.491 . S
C783 C782 1.400 . S
C783 C784 1.398 . S
C784 H772 0.950 . S
C784 C783 1.398 . S
C784 C785 1.391 . S
C785 H773 0.950 . S
C785 C781 1.393 . S
C785 C784 1.391 . S
H786 C794 0.950 . S
H787 C799 0.950 . S
H788 C796 0.950 . S
H789 C798 0.950 . S
H790 C800 0.950 1_556 S
H791 C802 0.950 . S
H792 C804 0.950 . S
H793 C805 0.950 . S
C794 H786 0.950 . S
C794 C795 1.386 . S
C794 C796 1.391 . S
C795 C794 1.386 . S
C795 C799 1.393 . S
C796 H788 0.950 . S
C796 C794 1.391 . S
C796 C797 1.400 . S
C797 C796 1.400 . S
C797 C798 1.398 . S
C797 C803 1.491 . S
C798 H789 0.950 . S
C798 C797 1.398 . S
C798 C799 1.391 . S
C799 H787 0.950 . S
C799 C795 1.393 . S
C799 C798 1.391 . S
C800 H790 0.950 1_554 S
C800 C801 1.386 . S
C800 C802 1.391 . S
C801 C800 1.386 . S
C801 C805 1.393 . S
C802 H791 0.950 . S
C802 C800 1.391 . S
C802 C803 1.400 . S
C803 C797 1.491 . S
C803 C802 1.400 . S
C803 C804 1.398 . S
C804 H792 0.950 . S
C804 C803 1.398 . S
C804 C805 1.391 . S
C805 H793 0.950 . S
C805 C801 1.393 . S
C805 C804 1.391 . S
H806 C814 0.950 . S
H807 C819 0.950 . S
H808 C816 0.950 . S
H809 C818 0.950 . S
H810 C820 0.950 . S
H811 C822 0.950 . S
H812 C824 0.950 . S
H813 C825 0.950 . S
C814 H806 0.950 . S
C814 C815 1.386 . S
C814 C816 1.391 . S
C815 C814 1.386 . S
C815 C819 1.393 . S
C816 H808 0.950 . S
C816 C814 1.391 . S
C816 C817 1.400 . S
C817 C816 1.400 . S
C817 C818 1.398 . S
C817 C823 1.491 . S
C818 H809 0.950 . S
C818 C817 1.398 . S
C818 C819 1.391 . S
C819 H807 0.950 . S
C819 C815 1.393 . S
C819 C818 1.391 . S
C820 H810 0.950 . S
C820 C821 1.386 . S
C820 C822 1.391 . S
C821 C820 1.386 . S
C821 C825 1.393 . S
C822 H811 0.950 . S
C822 C820 1.391 . S
C822 C823 1.400 . S
C823 C817 1.491 . S
C823 C822 1.400 . S
C823 C824 1.398 . S
C824 H812 0.950 . S
C824 C823 1.398 . S
C824 C825 1.391 . S
C825 H813 0.950 . S
C825 C821 1.393 . S
C825 C824 1.391 . S
H826 C834 0.950 . S
H827 C839 0.950 . S
H828 C836 0.950 . S
H829 C838 0.950 . S
H830 C840 0.950 . S
H831 C842 0.950 . S
H832 C844 0.950 . S
H833 C845 0.950 . S
C834 H826 0.950 . S
C834 C835 1.386 . S
C834 C836 1.391 . S
C835 C834 1.386 . S
C835 C839 1.393 . S
C836 H828 0.950 . S
C836 C834 1.391 . S
C836 C837 1.400 . S
C837 C836 1.400 . S
C837 C838 1.398 . S
C837 C843 1.491 . S
C838 H829 0.950 . S
C838 C837 1.398 . S
C838 C839 1.391 . S
C839 H827 0.950 . S
C839 C835 1.393 . S
C839 C838 1.391 . S
C840 H830 0.950 . S
C840 C841 1.386 . S
C840 C842 1.391 . S
C841 C840 1.386 . S
C841 C845 1.393 . S
C842 H831 0.950 . S
C842 C840 1.391 . S
C842 C843 1.400 . S
C843 C837 1.491 . S
C843 C842 1.400 . S
C843 C844 1.398 . S
C844 H832 0.950 . S
C844 C843 1.398 . S
C844 C845 1.391 . S
C845 H833 0.950 . S
C845 C841 1.393 . S
C845 C844 1.391 . S
C315 C29 1.752 . S
C321 C267 1.747 . S
C335 C51 1.732 . S
C341 C289 1.732 . S
C355 C97 1.735 . S
C361 C221 1.743 . S
C375 C153 1.686 . S
C381 C85 1.686 . S
C395 C187 1.712 . S
C401 C17 1.715 . S
C415 C63 1.715 . S
C421 C119 1.718 . S
C435 C255 1.743 . S
C441 C199 1.745 . S
C455 C301 1.766 . S
C461 C131 1.760 . S
C475 C165 1.793 . S
C481 C233 1.800 . S
C495 C68 1.261 . S
C501 C8 1.262 . S
C515 C34 1.272 . S
C521 C0 1.270 . S
C535 C42 1.262 . S
C541 C76 1.265 . S
C555 C102 1.275 . S
C561 C178 1.274 . S
C575 C110 1.282 . S
C581 C136 1.281 . S
C595 C144 1.265 . S
C601 C170 1.254 . S
C615 C272 1.272 . S
C621 C212 1.282 . S
C635 C238 1.275 . S
C641 C204 1.271 . S
C655 C280 1.265 . S
C661 C246 1.268 . S
C675 C13 1.064 . S
C681 C4 1.064 . S
C695 C38 1.039 . S
C701 C47 1.039 . S
C715 C81 1.051 . S
C721 C72 1.051 . S
C735 C115 1.059 . S
C741 C106 1.059 1_556 S
C755 C149 1.049 . S
C761 C140 1.049 1_556 S
C775 C183 1.049 . S
C781 C174 1.049 1_556 S
C795 C217 1.084 . S
C801 C208 1.084 1_554 S
C815 C251 1.073 1_554 S
C821 C242 1.073 . S
C835 C285 1.057 . S
C841 C276 1.057 1_554 S
