# Generated by pormake.
# Topology yfy, (5)-cn, num edge types: 1
# Building blocks:
#     Node 0, Type 0, BuildingBlock: XOMCOT_clean_sbu_0, # of connection points: 5
#     Node 1, Type 0, BuildingBlock: XOMCOT_clean_sbu_0, # of connection points: 5
#     Node 2, Type 0, BuildingBlock: XOMCOT_clean_sbu_0, # of connection points: 5
#     Node 3, Type 0, BuildingBlock: XOMCOT_clean_sbu_0, # of connection points: 5
#     Node 4, Type 0, BuildingBlock: XOMCOT_clean_sbu_0, # of connection points: 5
#     Node 5, Type 0, BuildingBlock: XOMCOT_clean_sbu_0, # of connection points: 5
#     Node 6, Type 0, BuildingBlock: XOMCOT_clean_sbu_0, # of connection points: 5
#     Node 7, Type 0, BuildingBlock: XOMCOT_clean_sbu_0, # of connection points: 5
#     Node 8, Type 0, BuildingBlock: XOMCOT_clean_sbu_0, # of connection points: 5
#     Node 9, Type 0, BuildingBlock: XOMCOT_clean_sbu_0, # of connection points: 5
#     Node 10, Type 0, BuildingBlock: XOMCOT_clean_sbu_0, # of connection points: 5
#     Node 11, Type 0, BuildingBlock: XOMCOT_clean_sbu_0, # of connection points: 5
#     Node 12, Type 0, BuildingBlock: XOMCOT_clean_sbu_0, # of connection points: 5
#     Node 13, Type 0, BuildingBlock: XOMCOT_clean_sbu_0, # of connection points: 5
#     Node 14, Type 0, BuildingBlock: XOMCOT_clean_sbu_0, # of connection points: 5
#     Node 15, Type 0, BuildingBlock: XOMCOT_clean_sbu_0, # of connection points: 5
#     Edge 16, Type (0, 0), BuildingBlock: OJICUG_clean_linker_0, # of connection points: 2
#     Edge 17, Type (0, 0), BuildingBlock: OJICUG_clean_linker_0, # of connection points: 2
#     Edge 18, Type (0, 0), BuildingBlock: OJICUG_clean_linker_0, # of connection points: 2
#     Edge 19, Type (0, 0), BuildingBlock: OJICUG_clean_linker_0, # of connection points: 2
#     Edge 20, Type (0, 0), BuildingBlock: OJICUG_clean_linker_0, # of connection points: 2
#     Edge 21, Type (0, 0), BuildingBlock: OJICUG_clean_linker_0, # of connection points: 2
#     Edge 22, Type (0, 0), BuildingBlock: OJICUG_clean_linker_0, # of connection points: 2
#     Edge 23, Type (0, 0), BuildingBlock: OJICUG_clean_linker_0, # of connection points: 2
#     Edge 24, Type (0, 0), BuildingBlock: OJICUG_clean_linker_0, # of connection points: 2
#     Edge 25, Type (0, 0), BuildingBlock: OJICUG_clean_linker_0, # of connection points: 2
#     Edge 26, Type (0, 0), BuildingBlock: OJICUG_clean_linker_0, # of connection points: 2
#     Edge 27, Type (0, 0), BuildingBlock: OJICUG_clean_linker_0, # of connection points: 2
#     Edge 28, Type (0, 0), BuildingBlock: OJICUG_clean_linker_0, # of connection points: 2
#     Edge 29, Type (0, 0), BuildingBlock: OJICUG_clean_linker_0, # of connection points: 2
#     Edge 30, Type (0, 0), BuildingBlock: OJICUG_clean_linker_0, # of connection points: 2
#     Edge 31, Type (0, 0), BuildingBlock: OJICUG_clean_linker_0, # of connection points: 2
#     Edge 32, Type (0, 0), BuildingBlock: OJICUG_clean_linker_0, # of connection points: 2
#     Edge 33, Type (0, 0), BuildingBlock: OJICUG_clean_linker_0, # of connection points: 2
#     Edge 34, Type (0, 0), BuildingBlock: OJICUG_clean_linker_0, # of connection points: 2
#     Edge 35, Type (0, 0), BuildingBlock: OJICUG_clean_linker_0, # of connection points: 2
#     Edge 36, Type (0, 0), BuildingBlock: OJICUG_clean_linker_0, # of connection points: 2
#     Edge 37, Type (0, 0), BuildingBlock: OJICUG_clean_linker_0, # of connection points: 2
#     Edge 38, Type (0, 0), BuildingBlock: OJICUG_clean_linker_0, # of connection points: 2
#     Edge 39, Type (0, 0), BuildingBlock: OJICUG_clean_linker_0, # of connection points: 2
#     Edge 40, Type (0, 0), BuildingBlock: OJICUG_clean_linker_0, # of connection points: 2
#     Edge 41, Type (0, 0), BuildingBlock: OJICUG_clean_linker_0, # of connection points: 2
#     Edge 42, Type (0, 0), BuildingBlock: OJICUG_clean_linker_0, # of connection points: 2
#     Edge 43, Type (0, 0), BuildingBlock: OJICUG_clean_linker_0, # of connection points: 2
#     Edge 44, Type (0, 0), BuildingBlock: OJICUG_clean_linker_0, # of connection points: 2
#     Edge 45, Type (0, 0), BuildingBlock: OJICUG_clean_linker_0, # of connection points: 2
#     Edge 46, Type (0, 0), BuildingBlock: OJICUG_clean_linker_0, # of connection points: 2
#     Edge 47, Type (0, 0), BuildingBlock: OJICUG_clean_linker_0, # of connection points: 2
#     Edge 48, Type (0, 0), BuildingBlock: OJICUG_clean_linker_0, # of connection points: 2
#     Edge 49, Type (0, 0), BuildingBlock: OJICUG_clean_linker_0, # of connection points: 2
#     Edge 50, Type (0, 0), BuildingBlock: OJICUG_clean_linker_0, # of connection points: 2
#     Edge 51, Type (0, 0), BuildingBlock: OJICUG_clean_linker_0, # of connection points: 2
#     Edge 52, Type (0, 0), BuildingBlock: OJICUG_clean_linker_0, # of connection points: 2
#     Edge 53, Type (0, 0), BuildingBlock: OJICUG_clean_linker_0, # of connection points: 2
#     Edge 54, Type (0, 0), BuildingBlock: OJICUG_clean_linker_0, # of connection points: 2
#     Edge 55, Type (0, 0), BuildingBlock: OJICUG_clean_linker_0, # of connection points: 2
# Relax obj value: 0.255
# Max RMSD: 0.240
# Mean RMSD: 0.240
data_MOF--net-yfy--node1-XOMCOT_clean_sbu_0--edge1-OJICUG_clean_linker_0
_symmetry_space_group_name_H-M    P1
_symmetry_Int_Tables_number       1
_symmetry_cell_setting            triclinic
loop_
_symmetry_equiv_pos_as_xyz
'x, y, z'
_cell_length_a     32.683313
_cell_length_b     32.717885
_cell_length_c     37.873171
_cell_angle_alpha  89.824199
_cell_angle_beta   89.883357
_cell_angle_gamma 89.976064
loop_
_atom_site_label
_atom_site_type_symbol
_atom_site_fract_x
_atom_site_fract_y
_atom_site_fract_z
_atom_type_partial_charge
Co0 Co 0.04892 0.32032 0.31681 0.0
C1 C 0.99529 0.24799 0.30332 0.0
C2 C 0.96091 0.30239 0.31423 0.0
C3 C 0.93394 0.27148 0.30627 0.0
N4 N 0.99945 0.28785 0.31208 0.0
N5 N 0.95562 0.23738 0.29936 0.0
H6 H 1.02048 0.22704 0.29956 0.0
H7 H 0.95285 0.33341 0.32114 0.0
C8 C 0.02392 0.40668 0.2926 0.0
O9 O 0.05777 0.42256 0.30503 0.0
N10 N 0.09879 0.35207 0.3202 0.0
C11 C 0.12434 0.35624 0.34785 0.0
C12 C 0.15874 0.37713 0.33667 0.0
C13 C 0.1189 0.36837 0.29242 0.0
N14 N 0.15511 0.38483 0.30175 0.0
C15 C 0.03035 0.30129 0.38751 0.0
C16 C 0.04252 0.3783 0.4153 0.0
C17 C 0.04504 0.34421 0.43768 0.0
C18 C 0.03637 0.30563 0.42372 0.0
C19 C 0.03669 0.37252 0.37895 0.0
N20 N 0.03372 0.33401 0.36524 0.0
H21 H 0.0272 0.27081 0.37696 0.0
H22 H 0.03879 0.39873 0.36206 0.0
H23 H 0.11898 0.34408 0.37403 0.0
H24 H 0.10638 0.3691 0.26601 0.0
O25 O 0.08051 0.27279 0.32857 0.0
O26 O 0.0718 0.29584 0.27401 0.0
O27 O 1.01681 0.36826 0.29564 0.0
C28 C 0.08935 0.26973 0.29537 0.0
H29 H 0.90088 0.27362 0.30646 0.0
H30 H 0.18466 0.38527 0.35291 0.0
H31 H 0.04854 0.40872 0.42522 0.0
H32 H 0.03696 0.27861 0.44032 0.0
Co33 Co 0.82042 0.04698 0.32041 0.0
C34 C 0.89118 0.99313 0.30172 0.0
C35 C 0.84381 0.95939 0.32787 0.0
C36 C 0.87438 0.93264 0.31841 0.0
N37 N 0.85392 0.99748 0.31715 0.0
N38 N 0.90404 0.95392 0.30195 0.0
H39 H 0.90883 1.01779 0.29036 0.0
H40 H 0.81691 0.95124 0.34264 0.0
C41 C 0.74795 0.98943 0.30922 0.0
O42 O 0.74926 0.9779 0.34236 0.0
N43 N 0.78792 0.09636 0.32186 0.0
C44 C 0.79132 0.12721 0.34516 0.0
C45 C 0.76852 0.15977 0.33319 0.0
C46 C 0.7638 0.1107 0.29581 0.0
N47 N 0.75143 0.14944 0.30204 0.0
C48 C 0.83495 0.02693 0.39194 0.0
C49 C 0.76016 0.05383 0.4172 0.0
C50 C 0.79313 0.05044 0.44051 0.0
C51 C 0.8303 0.035 0.42787 0.0
C52 C 0.76627 0.04603 0.38126 0.0
N53 N 0.80386 0.03432 0.36875 0.0
H54 H 0.86509 1.01917 0.38229 0.0
H55 H 0.74177 0.05313 0.36309 0.0
H56 H 0.81049 0.12666 0.36841 0.0
H57 H 0.75675 0.09352 0.27223 0.0
O58 O 0.86751 0.07841 0.33341 0.0
O59 O 0.84647 0.06958 0.27827 0.0
O60 O 0.77306 1.01638 0.2973 0.0
C61 C 0.87161 0.08733 0.30025 0.0
H62 H 0.87554 0.90029 0.32443 0.0
H63 H 0.76642 0.18942 0.34565 0.0
H64 H 0.73103 0.06588 0.42607 0.0
H65 H 0.85643 0.0319 0.44523 0.0
Co66 Co 0.09322 0.81988 0.3137 0.0
C67 C 0.14833 0.89074 0.29743 0.0
C68 C 0.18264 0.83926 0.31579 0.0
C69 C 0.20958 0.86985 0.3069 0.0
N70 N 0.14392 0.85188 0.3096 0.0
N71 N 0.188 0.90215 0.29528 0.0
H72 H 0.12334 0.91061 0.29008 0.0
H73 H 0.19155 0.81048 0.32692 0.0
C74 C 0.14808 0.74565 0.30372 0.0
O75 O 0.15909 0.74767 0.33693 0.0
N76 N 0.04258 0.78915 0.31559 0.0
C77 C 1.01127 0.79456 0.33834 0.0
C78 C 0.97848 0.77169 0.32708 0.0
C79 C 0.02823 0.7638 0.29051 0.0
N80 N 0.98911 0.75253 0.2969 0.0
C81 C 0.11878 0.83221 0.38502 0.0
C82 C 0.08338 0.7616 0.41122 0.0
C83 C 0.09307 0.79298 0.43504 0.0
C84 C 0.11372 0.8274 0.42146 0.0
C85 C 0.09054 0.76691 0.37511 0.0
N86 N 0.10577 0.80292 0.36208 0.0
H87 H 0.12997 0.86118 0.37525 0.0
H88 H 0.08053 0.74317 0.35731 0.0
H89 H 1.01181 0.81486 0.36082 0.0
H90 H 0.04576 0.75485 0.26754 0.0
O91 O 0.06341 0.868 0.32681 0.0
O92 O 0.07107 0.84635 0.27169 0.0
O93 O 0.12202 0.77101 0.29085 0.0
C94 C 0.0541 0.87201 0.29373 0.0
H95 H 0.24249 0.86899 0.31005 0.0
H96 H 0.94857 0.77076 0.33936 0.0
H97 H 0.06761 0.73421 0.41964 0.0
H98 H 0.12385 0.85187 0.43846 0.0
Co99 Co 0.32226 0.09256 0.31637 0.0
C100 C 0.24981 0.14563 0.30013 0.0
C101 C 0.30384 0.18024 0.31172 0.0
C102 C 0.27304 0.207 0.30278 0.0
N103 N 0.2895 0.14168 0.30979 0.0
N104 N 0.23914 0.18521 0.29542 0.0
H105 H 0.22903 0.12033 0.29636 0.0
H106 H 0.33463 0.18849 0.31926 0.0
C107 C 0.40917 0.11749 0.29349 0.0
O108 O 0.42498 0.0843 0.30736 0.0
N109 N 0.35451 0.04308 0.32161 0.0
C110 C 0.35989 1.01925 0.35034 0.0
C111 C 0.38243 0.98534 0.34067 0.0
C112 C 0.37175 0.02227 0.29471 0.0
N113 N 0.3899 0.98746 0.30565 0.0
C114 C 0.3008 0.11299 0.38615 0.0
C115 C 0.37722 0.10459 0.41622 0.0
C116 C 0.34262 0.10361 0.43831 0.0
C117 C 0.30421 0.11 0.42276 0.0
C118 C 0.37238 0.10764 0.37948 0.0
N119 N 0.33424 0.10907 0.36479 0.0
H120 H 0.27055 0.11469 0.37479 0.0
H121 H 0.39915 0.10517 0.36329 0.0
H122 H 0.34772 0.02551 0.37633 0.0
H123 H 0.3722 0.03339 0.26777 0.0
O124 O 0.27456 0.06086 0.32759 0.0
O125 O 0.29934 0.06863 0.27347 0.0
O126 O 0.3706 0.12446 0.29555 0.0
C127 C 0.27258 0.05143 0.29448 0.0
H128 H 0.27508 0.24003 0.30269 0.0
H129 H 0.39195 0.96074 0.35797 0.0
H130 H 0.40767 0.10098 0.42699 0.0
H131 H 0.27639 0.10953 0.43831 0.0
Co132 Co 0.04228 0.81807 0.70066 0.0
C133 C 0.98784 0.88956 0.71545 0.0
C134 C 0.95379 0.8344 0.7073 0.0
C135 C 0.92682 0.86522 0.71592 0.0
N136 N 0.99216 0.84955 0.70715 0.0
N137 N 0.94831 0.89985 0.7211 0.0
H138 H 1.01291 0.91087 0.71776 0.0
H139 H 0.94586 0.80306 0.70148 0.0
C140 C 1.02057 0.73218 0.72861 0.0
O141 O 0.0538 0.71638 0.71486 0.0
N142 N 0.09321 0.78778 0.69629 0.0
C143 C 0.11909 0.78629 0.66855 0.0
C144 C 0.15461 0.76694 0.67898 0.0
C145 C 0.11443 0.7718 0.72358 0.0
N146 N 0.15152 0.75766 0.71366 0.0
C147 C 1.0107 0.83048 0.63173 0.0
C148 C 0.03964 0.75835 0.6036 0.0
C149 C 0.03125 0.79104 0.58051 0.0
C150 C 1.01301 0.82605 0.59515 0.0
C151 C 0.03486 0.76335 0.6401 0.0
N152 N 0.02409 0.80036 0.65392 0.0
H153 H 1.00202 0.85999 0.64199 0.0
H154 H 0.04531 0.73906 0.65679 0.0
H155 H 0.11315 0.79946 0.64283 0.0
H156 H 0.10227 0.77004 0.75012 0.0
O157 O 0.07106 0.86534 0.68419 0.0
O158 O 0.06752 0.84652 0.74037 0.0
O159 O 1.01306 0.77057 0.72567 0.0
C160 C 0.08272 0.87123 0.71643 0.0
H161 H 0.89385 0.86256 0.71743 0.0
H162 H 0.18097 0.76112 0.66242 0.0
H163 H 0.05326 0.73024 0.59431 0.0
H164 H 1.00328 0.85142 0.57883 0.0
Co165 Co 0.31849 0.04969 0.70491 0.0
C166 C 0.24657 0.99265 0.70824 0.0
C167 C 0.29617 0.97348 0.74098 0.0
C168 C 0.26331 0.94878 0.74794 0.0
N169 N 0.28652 1.00052 0.71525 0.0
N170 N 0.23182 0.96095 0.72764 0.0
H171 H 0.2277 1.01161 0.69148 0.0
H172 H 0.324 0.97344 0.75623 0.0
C173 C 0.38516 0.98781 0.71295 0.0
O174 O 0.36772 0.96766 0.68707 0.0
N175 N 0.34988 0.09896 0.69793 0.0
C176 C 0.34506 0.12835 0.67329 0.0
C177 C 0.36763 0.16206 0.6833 0.0
C178 C 0.37465 0.11507 0.72253 0.0
N179 N 0.3858 0.15368 0.71451 0.0
C180 C 0.29784 0.02928 0.63401 0.0
C181 C 0.37421 0.0466 0.60611 0.0
C182 C 0.34025 0.0464 0.58362 0.0
C183 C 0.3021 0.03557 0.59771 0.0
C184 C 0.36854 0.04055 0.64245 0.0
N185 N 0.33031 0.03391 0.65624 0.0
H186 H 0.26748 0.02519 0.64438 0.0
H187 H 0.39426 0.04565 0.65978 0.0
H188 H 0.32484 0.12626 0.65079 0.0
H189 H 0.38263 0.09932 0.74671 0.0
O190 O 0.26951 0.07956 0.6948 0.0
O191 O 0.29717 0.07433 0.74805 0.0
O192 O 0.36957 0.02161 0.72358 0.0
C193 C 0.26882 0.0899 0.72776 0.0
H194 H 0.26252 0.92457 0.76744 0.0
H195 H 0.36859 0.19121 0.66974 0.0
H196 H 0.40419 0.055 0.59626 0.0
H197 H 0.27516 0.0347 0.5811 0.0
Co198 Co 0.09216 0.32164 0.70386 0.0
C199 C 0.14654 0.25074 0.72066 0.0
C200 C 0.18038 0.30459 0.70669 0.0
C201 C 0.20767 0.27429 0.71585 0.0
N202 N 0.142 0.28996 0.70989 0.0
N203 N 0.18632 0.24052 0.7247 0.0
H204 H 0.12151 0.22999 0.72579 0.0
H205 H 0.18809 0.33524 0.69825 0.0
C206 C 0.11525 0.40853 0.72754 0.0
O207 O 0.08087 0.4236 0.71534 0.0
N208 N 0.04185 0.35253 0.69914 0.0
C209 C 1.01689 0.35572 0.67097 0.0
C210 C 0.9814 0.37526 0.68133 0.0
C211 C 1.0204 0.36813 0.72639 0.0
N212 N 0.98378 0.38308 0.71627 0.0
C213 C 0.11344 0.30262 0.63365 0.0
C214 C 0.10205 0.37952 0.60505 0.0
C215 C 0.10264 0.34566 0.58234 0.0
C216 C 0.1105 0.30707 0.59712 0.0
C217 C 0.10515 0.37365 0.64163 0.0
N218 N 0.10824 0.33521 0.65559 0.0
H219 H 0.11618 0.27215 0.6445 0.0
H220 H 0.1013 0.39973 0.65833 0.0
H221 H 0.02332 0.34359 0.64502 0.0
H222 H 0.03212 0.36922 0.75306 0.0
O223 O 0.06157 0.2735 0.69228 0.0
O224 O 0.06876 0.29738 0.74662 0.0
O225 O 0.12322 0.37027 0.7247 0.0
C226 C 0.05197 0.2708 0.72539 0.0
H227 H 0.2407 0.27661 0.71515 0.0
H228 H 0.95557 0.38228 0.66455 0.0
H229 H 0.09713 0.41008 0.59485 0.0
H230 H 0.1112 0.27982 0.581 0.0
Co231 Co 0.81794 0.09565 0.70431 0.0
C232 C 0.89082 0.1475 0.72148 0.0
C233 C 0.8367 0.18288 0.71179 0.0
C234 C 0.86781 0.20906 0.72094 0.0
N235 N 0.8509 0.14419 0.71241 0.0
N236 N 0.90178 0.18681 0.72709 0.0
H237 H 0.91158 0.12193 0.72404 0.0
H238 H 0.80585 0.19162 0.70482 0.0
C239 C 0.73126 0.11924 0.72865 0.0
O240 O 0.71571 0.08607 0.71474 0.0
N241 N 0.78561 0.04666 0.69733 0.0
C242 C 0.77967 0.02469 0.6677 0.0
C243 C 0.75782 0.98992 0.67633 0.0
C244 C 0.76943 0.02391 0.72361 0.0
N245 N 0.75142 0.98966 0.71154 0.0
C246 C 0.83824 0.11904 0.63493 0.0
C247 C 0.7608 0.11342 0.6064 0.0
C248 C 0.79476 0.11177 0.58366 0.0
C249 C 0.83375 0.11705 0.5984 0.0
C250 C 0.76673 0.11528 0.643 0.0
N251 N 0.80531 0.11503 0.65684 0.0
H252 H 0.86881 0.11972 0.64571 0.0
H253 H 0.74034 0.11301 0.65967 0.0
H254 H 0.79107 0.03276 0.64179 0.0
H255 H 0.76959 0.03325 0.75099 0.0
O256 O 0.86535 0.06438 0.6915 0.0
O257 O 0.84122 0.06902 0.74604 0.0
O258 O 0.76975 0.1266 0.72641 0.0
C259 C 0.86747 0.05269 0.72412 0.0
H260 H 0.86595 0.24209 0.72182 0.0
H261 H 0.74804 0.96639 0.65819 0.0
H262 H 0.72997 0.11085 0.59624 0.0
H263 H 0.86112 0.11615 0.58228 0.0
Co264 Co 0.5472 0.81834 0.81302 0.0
C265 C 0.49157 0.74845 0.79658 0.0
C266 C 0.45789 0.80127 0.81296 0.0
C267 C 0.43051 0.77128 0.8036 0.0
N268 N 0.49639 0.78722 0.80842 0.0
N269 N 0.45175 0.73815 0.79322 0.0
H270 H 0.51641 0.72801 0.7901 0.0
H271 H 0.44976 0.83099 0.82285 0.0
C272 C 0.49558 0.89472 0.80041 0.0
O273 O 0.48627 0.89643 0.83404 0.0
N274 N 0.59799 0.84864 0.81518 0.0
C275 C 0.62916 0.84277 0.83791 0.0
C276 C 0.66228 0.86518 0.82647 0.0
C277 C 0.61273 0.87378 0.78997 0.0
N278 N 0.65197 0.88449 0.79621 0.0
C279 C 0.51826 0.80687 0.88364 0.0
C280 C 0.55519 0.87584 0.91092 0.0
C281 C 0.54297 0.84482 0.93437 0.0
C282 C 0.52183 0.81125 0.9202 0.0
C283 C 0.54973 0.87094 0.87459 0.0
N284 N 0.53338 0.83579 0.86104 0.0
H285 H 0.50652 0.77833 0.87366 0.0
H286 H 0.5616 0.89439 0.85721 0.0
H287 H 0.6283 0.82241 0.86046 0.0
H288 H 0.59537 0.88295 0.76698 0.0
O289 O 0.57617 0.77016 0.82736 0.0
O290 O 0.57011 0.79116 0.77179 0.0
O291 O 0.51916 0.8665 0.78857 0.0
C292 C 0.58633 0.76569 0.79449 0.0
H293 H 0.3975 0.77326 0.8053 0.0
H294 H 0.69218 0.8657 0.83869 0.0
H295 H 0.5716 0.90252 0.91996 0.0
H296 H 0.5102 0.78703 0.93694 0.0
Co297 Co 0.3174 0.54839 0.8109 0.0
C298 C 0.38971 0.49474 0.79606 0.0
C299 C 0.3352 0.46039 0.80689 0.0
C300 C 0.36614 0.43348 0.79864 0.0
N301 N 0.34976 0.49889 0.80499 0.0
N302 N 0.40034 0.45511 0.79178 0.0
H303 H 0.41072 0.51992 0.79254 0.0
H304 H 0.30418 0.45229 0.81399 0.0
C305 C 0.23038 0.52429 0.78803 0.0
O306 O 0.21505 0.55834 0.80057 0.0
N307 N 0.2859 0.59841 0.81562 0.0
C308 C 0.28287 0.62329 0.84381 0.0
C309 C 0.26249 0.65839 0.83377 0.0
C310 C 0.26934 0.61964 0.78858 0.0
N311 N 0.2539 0.65595 0.79897 0.0
C312 C 0.33763 0.52906 0.88116 0.0
C313 C 0.26088 0.54097 0.91008 0.0
C314 C 0.29531 0.5436 0.93196 0.0
C315 C 0.33376 0.535 0.91745 0.0
C316 C 0.26619 0.53524 0.87366 0.0
N317 N 0.30457 0.53249 0.85939 0.0
H318 H 0.368 0.52601 0.87015 0.0
H319 H 0.23973 0.53737 0.85714 0.0
H320 H 0.29569 0.61708 0.86957 0.0
H321 H 0.26794 0.60802 0.7619 0.0
O322 O 0.36528 0.57952 0.82206 0.0
O323 O 0.34099 0.57185 0.76786 0.0
O324 O 0.26882 0.51681 0.79045 0.0
C325 C 0.36762 0.58891 0.7889 0.0
H326 H 0.36397 0.40047 0.79869 0.0
H327 H 0.25546 0.68406 0.85067 0.0
H328 H 0.23055 0.54692 0.92044 0.0
H329 H 0.36103 0.53566 0.93366 0.0
Co330 Co 0.59135 0.32035 0.81397 0.0
C331 C 0.64572 0.39192 0.79857 0.0
C332 C 0.67945 0.33751 0.81104 0.0
C333 C 0.7068 0.36794 0.80244 0.0
N334 N 0.64108 0.35235 0.80837 0.0
N335 N 0.68556 0.40207 0.79454 0.0
H336 H 0.62073 0.41296 0.79418 0.0
H337 H 0.68712 0.30662 0.8188 0.0
C338 C 0.61527 0.23375 0.78997 0.0
O339 O 0.58101 0.21836 0.8022 0.0
N340 N 0.54125 0.28903 0.81827 0.0
C341 C 0.51671 0.28418 0.84663 0.0
C342 C 0.48212 0.26321 0.83633 0.0
C343 C 0.52024 0.27314 0.79094 0.0
N344 N 0.48457 0.2562 0.80127 0.0
C345 C 0.61155 0.33883 0.88445 0.0
C346 C 0.60138 0.26142 0.91236 0.0
C347 C 0.60102 0.29501 0.93534 0.0
C348 C 0.60831 0.33391 0.92093 0.0
C349 C 0.60479 0.26776 0.87584 0.0
N350 N 0.60717 0.30642 0.86221 0.0
H351 H 0.61389 0.36947 0.87389 0.0
H352 H 0.60176 0.24177 0.85895 0.0
H353 H 0.52298 0.29574 0.87278 0.0
H354 H 0.53182 0.27274 0.76416 0.0
O355 O 0.5603 0.36818 0.82581 0.0
O356 O 0.5681 0.34489 0.77132 0.0
O357 O 0.62287 0.27208 0.79285 0.0
C358 C 0.55093 0.37114 0.79271 0.0
H359 H 0.73983 0.36549 0.80294 0.0
H360 H 0.45693 0.25434 0.85327 0.0
H361 H 0.59696 0.23066 0.92228 0.0
H362 H 0.60833 0.36097 0.93731 0.0
Co363 Co 0.82127 0.59137 0.81731 0.0
C364 C 0.74874 0.64442 0.80293 0.0
C365 C 0.80281 0.6793 0.81378 0.0
C366 C 0.77167 0.70591 0.80526 0.0
N367 N 0.7886 0.64067 0.812 0.0
N368 N 0.7378 0.68388 0.79839 0.0
H369 H 0.72802 0.61907 0.79927 0.0
H370 H 0.83375 0.68768 0.82074 0.0
C371 C 0.908 0.61657 0.79397 0.0
O372 O 0.92366 0.58239 0.80607 0.0
N373 N 0.85299 0.54154 0.82141 0.0
C374 C 0.85521 0.51564 0.84908 0.0
C375 C 0.87474 0.4804 0.83834 0.0
C376 C 0.86927 0.52092 0.79399 0.0
N377 N 0.88361 0.48385 0.8036 0.0
C378 C 0.80123 0.60947 0.88783 0.0
C379 C 0.87797 0.59633 0.91618 0.0
C380 C 0.84359 0.59338 0.93822 0.0
C381 C 0.80516 0.60263 0.92402 0.0
C382 C 0.87261 0.60301 0.87987 0.0
N383 N 0.83422 0.60638 0.86584 0.0
H384 H 0.77085 0.61288 0.87701 0.0
H385 H 0.89901 0.60105 0.86317 0.0
H386 H 0.8421 0.52115 0.87487 0.0
H387 H 0.87086 0.53335 0.76753 0.0
O388 O 0.77359 0.5597 0.82847 0.0
O389 O 0.79762 0.56863 0.77421 0.0
O390 O 0.86952 0.62368 0.79677 0.0
C391 C 0.77115 0.55099 0.79523 0.0
H392 H 0.77351 0.73894 0.80494 0.0
H393 H 0.88079 0.4539 0.85467 0.0
H394 H 0.90829 0.58989 0.92627 0.0
H395 H 0.77792 0.60179 0.94036 0.0
Co396 Co 0.54669 0.31642 0.20056 0.0
C397 C 0.49299 0.38869 0.21511 0.0
C398 C 0.45879 0.33416 0.20447 0.0
C399 C 0.43173 0.36494 0.21265 0.0
N400 N 0.49727 0.34884 0.20629 0.0
N401 N 0.45326 0.39914 0.21939 0.0
H402 H 0.51813 0.40974 0.21854 0.0
H403 H 0.45081 0.30316 0.19749 0.0
C404 C 0.5221 0.22989 0.22474 0.0
O405 O 0.55544 0.21395 0.21125 0.0
N406 N 0.59643 0.28451 0.19613 0.0
C407 C 0.62093 0.27919 0.16782 0.0
C408 C 0.65488 0.25708 0.17817 0.0
C409 C 0.61689 0.26778 0.22346 0.0
N410 N 0.65209 0.24989 0.21321 0.0
C411 C 0.52712 0.33624 0.13037 0.0
C412 C 0.53905 0.25958 0.10174 0.0
C413 C 0.54182 0.294 0.07973 0.0
C414 C 0.53308 0.33238 0.0941 0.0
C415 C 0.53318 0.26488 0.13818 0.0
N416 N 0.53059 0.30323 0.15229 0.0
H417 H 0.52408 0.36659 0.14123 0.0
H418 H 0.53514 0.23844 0.15481 0.0
H419 H 0.61508 0.29115 0.14166 0.0
H420 H 0.6052 0.26747 0.25022 0.0
O421 O 0.57818 0.36403 0.18861 0.0
O422 O 0.57035 0.34051 0.24312 0.0
O423 O 0.51499 0.26835 0.22206 0.0
C424 C 0.58761 0.36678 0.22169 0.0
H425 H 0.39868 0.36268 0.21262 0.0
H426 H 0.67993 0.24763 0.16133 0.0
H427 H 0.54501 0.22928 0.0915 0.0
H428 H 0.53374 0.35963 0.07778 0.0
Co429 Co 0.82204 0.543 0.20313 0.0
C430 C 0.74912 0.49021 0.21868 0.0
C431 C 0.80372 0.45536 0.20959 0.0
C432 C 0.77253 0.42882 0.21808 0.0
N433 N 0.78926 0.49396 0.21025 0.0
N434 N 0.73826 0.45074 0.22385 0.0
H435 H 0.72812 0.51558 0.22112 0.0
H436 H 0.8348 0.44691 0.20309 0.0
C437 C 0.90883 0.51907 0.22687 0.0
O438 O 0.92441 0.55235 0.21295 0.0
N439 N 0.8541 0.5925 0.1972 0.0
C440 C 0.85966 0.61564 0.16805 0.0
C441 C 0.88186 0.64992 0.17718 0.0
C442 C 0.87077 0.61415 0.22379 0.0
N443 N 0.88888 0.64874 0.21227 0.0
C444 C 0.80185 0.52147 0.1334 0.0
C445 C 0.87888 0.53016 0.10428 0.0
C446 C 0.84472 0.53144 0.08186 0.0
C447 C 0.80601 0.52469 0.09685 0.0
C448 C 0.87329 0.52678 0.1409 0.0
N449 N 0.83484 0.52548 0.15512 0.0
H450 H 0.77137 0.51977 0.14441 0.0
H451 H 0.89974 0.52915 0.15739 0.0
H452 H 0.84785 0.60866 0.14212 0.0
H453 H 0.87096 0.60374 0.25094 0.0
O454 O 0.77442 0.57435 0.19109 0.0
O455 O 0.79852 0.56784 0.24547 0.0
O456 O 0.87035 0.51168 0.22465 0.0
C457 C 0.77207 0.58462 0.22401 0.0
H458 H 0.7746 0.3958 0.21885 0.0
H459 H 0.89148 0.67409 0.15946 0.0
H460 H 0.90952 0.534 0.09387 0.0
H461 H 0.77855 0.52526 0.08093 0.0
Co462 Co 0.59463 0.81754 0.20251 0.0
C463 C 0.64945 0.7463 0.21781 0.0
C464 C 0.6839 0.79922 0.20279 0.0
C465 C 0.71083 0.76852 0.21156 0.0
N466 N 0.64516 0.78563 0.2069 0.0
N467 N 0.68913 0.73532 0.22108 0.0
H468 H 0.62435 0.72589 0.22361 0.0
H469 H 0.69263 0.82904 0.19351 0.0
C470 C 0.64778 0.89292 0.21471 0.0
O471 O 0.65783 0.89373 0.18119 0.0
N472 N 0.54412 0.84853 0.20056 0.0
C473 C 0.51297 0.84363 0.17769 0.0
C474 C 0.48018 0.86652 0.18913 0.0
C475 C 0.52965 0.87354 0.22592 0.0
N476 N 0.49064 0.88514 0.21957 0.0
C477 C 0.62296 0.80603 0.13187 0.0
C478 C 0.58688 0.8757 0.10464 0.0
C479 C 0.59827 0.84447 0.08122 0.0
C480 C 0.61908 0.81056 0.09534 0.0
C481 C 0.59269 0.87064 0.14096 0.0
N482 N 0.60846 0.8351 0.15446 0.0
H483 H 0.63435 0.77727 0.14184 0.0
H484 H 0.58142 0.89422 0.1584 0.0
H485 H 0.51359 0.82365 0.15499 0.0
H486 H 0.547 0.882 0.24906 0.0
O487 O 0.56509 0.7698 0.18823 0.0
O488 O 0.57159 0.79015 0.2438 0.0
O489 O 0.62321 0.86548 0.22663 0.0
C490 C 0.55517 0.76495 0.22113 0.0
H491 H 0.74387 0.77008 0.20999 0.0
H492 H 0.45037 0.86781 0.1768 0.0
H493 H 0.57083 0.90268 0.09561 0.0
H494 H 0.63018 0.7862 0.0786 0.0
Co495 Co 0.31893 0.59165 0.19739 0.0
C496 C 0.3933 0.64247 0.21234 0.0
C497 C 0.3401 0.67858 0.20092 0.0
C498 C 0.37151 0.70445 0.20991 0.0
N499 N 0.3535 0.63963 0.20271 0.0
N500 N 0.40484 0.68173 0.21717 0.0
H501 H 0.41342 0.61664 0.21629 0.0
H502 H 0.30937 0.68766 0.19381 0.0
C503 C 0.23429 0.62275 0.22279 0.0
O504 O 0.21383 0.59195 0.20951 0.0
N505 N 0.28465 0.5437 0.19358 0.0
C506 C 0.28222 0.51722 0.1665 0.0
C507 C 0.26106 0.48306 0.17768 0.0
C508 C 0.26635 0.52477 0.22102 0.0
N509 N 0.2512 0.48786 0.21208 0.0
C510 C 0.33761 0.61365 0.12724 0.0
C511 C 0.26064 0.60194 0.09914 0.0
C512 C 0.29447 0.60247 0.07624 0.0
C513 C 0.33309 0.61052 0.09075 0.0
C514 C 0.26658 0.60521 0.13568 0.0
N515 N 0.30504 0.60859 0.14943 0.0
H516 H 0.36819 0.61608 0.13783 0.0
H517 H 0.24059 0.60096 0.1525 0.0
H518 H 0.29652 0.52149 0.14097 0.0
H519 H 0.26484 0.53784 0.24719 0.0
O520 O 0.36494 0.55851 0.18445 0.0
O521 O 0.34303 0.5668 0.23945 0.0
O522 O 0.27331 0.625 0.21993 0.0
C523 C 0.36823 0.54893 0.21752 0.0
H524 H 0.37021 0.73751 0.21038 0.0
H525 H 0.25501 0.45613 0.16203 0.0
H526 H 0.23006 0.59677 0.08917 0.0
H527 H 0.36036 0.61106 0.07447 0.0
C528 C 0.04498 0.37522 0.4986 0.0
C529 C 0.06144 0.34761 0.47409 0.0
H530 H 0.04463 0.39595 0.55221 0.0
C531 C 0.09411 0.3224 0.48448 0.0
H532 H 1.01993 0.39514 0.49118 0.0
C533 C 0.10897 0.32346 0.519 0.0
C534 C 0.09116 0.34938 0.54429 0.0
H535 H 0.1081 0.30156 0.46583 0.0
H536 H 0.13399 0.30333 0.52599 0.0
C537 C 0.05949 0.37589 0.53345 0.0
C538 C 0.76153 0.07034 0.53543 0.0
C539 C 0.7905 0.09992 0.54579 0.0
H540 H 0.73955 0.03146 0.49386 0.0
C541 C 0.81828 0.11465 0.52033 0.0
H542 H 0.73999 0.05775 0.5543 0.0
C543 C 0.81869 0.09862 0.48622 0.0
C544 C 0.79086 0.06805 0.47643 0.0
H545 H 0.84038 0.13805 0.52691 0.0
H546 H 0.84102 0.11 0.46743 0.0
C547 C 0.76148 0.05484 0.50096 0.0
C548 C 0.05507 0.82783 0.5254 0.0
C549 C 0.04565 0.79082 0.54274 0.0
H550 H 0.07506 0.85783 0.47873 0.0
C551 C 0.05297 0.75415 0.5243 0.0
H552 H 0.05151 0.857 0.53838 0.0
C553 C 0.06956 0.7546 0.4901 0.0
C554 C 0.07826 0.79176 0.47266 0.0
H555 H 0.04598 0.72482 0.53607 0.0
H556 H 0.07559 0.72555 0.47759 0.0
C557 C 0.07024 0.82831 0.49094 0.0
C558 C 0.37255 0.04765 0.52303 0.0
C559 C 0.3432 0.06241 0.54693 0.0
H560 H 0.39509 0.04852 0.46987 0.0
C561 C 0.31631 0.09336 0.53579 0.0
H562 H 0.3938 0.02398 0.53102 0.0
C563 C 0.31767 0.10826 0.5012 0.0
C564 C 0.34554 0.09215 0.47651 0.0
H565 H 0.29408 0.10611 0.55394 0.0
H566 H 0.29634 0.13207 0.49371 0.0
C567 C 0.3735 0.06211 0.4881 0.0
C568 C 0.56324 0.88227 0.99039 0.0
C569 C 0.55579 0.84536 0.9724 0.0
H570 H 0.58421 0.9113 0.03747 0.0
C571 C 0.5632 0.80848 0.99055 0.0
H572 H 0.5576 0.91147 0.97783 0.0
C573 C 0.57687 0.80841 0.02543 0.0
C574 C 0.58502 0.84519 0.0433 0.0
H575 H 0.55913 0.77922 0.97784 0.0
H576 H 0.58045 0.7791 0.03836 0.0
C577 C 0.57809 0.88218 0.0251 0.0
C578 C 0.31761 0.5928 0.97831 0.0
C579 C 0.2923 0.56012 0.96836 0.0
H580 H 0.33682 0.63306 0.01935 0.0
C581 C 0.26476 0.54394 0.9932 0.0
H582 H 0.33839 0.60659 0.9594 0.0
C583 C 0.2642 0.55878 0.02793 0.0
C584 C 0.29074 0.59054 0.03832 0.0
H585 H 0.24476 0.51889 0.98612 0.0
H586 H 0.24417 0.54415 0.04693 0.0
C587 C 0.31665 0.608 0.01271 0.0
C588 C 0.60641 0.3164 0.99891 0.0
C589 C 0.58918 0.29064 0.97329 0.0
H590 H 0.60477 0.33755 0.05228 0.0
C591 C 0.55769 0.26365 0.98371 0.0
H592 H 0.63127 0.33689 0.99221 0.0
C593 C 0.54278 0.26372 0.0185 0.0
C594 C 0.55865 0.29118 0.04335 0.0
H595 H 0.5433 0.24369 0.96468 0.0
H596 H 0.51787 0.24346 0.0256 0.0
C597 C 0.59119 0.31682 0.03337 0.0
C598 C 0.87567 0.57513 0.03357 0.0
C599 C 0.84836 0.54394 0.044 0.0
H600 H 0.89559 0.61541 0.99195 0.0
C601 C 0.82156 0.52782 0.01861 0.0
H602 H 0.8964 0.58872 0.05244 0.0
C603 C 0.82053 0.5438 0.98439 0.0
C604 C 0.8466 0.576 0.97442 0.0
H605 H 0.80075 0.50323 0.0253 0.0
H606 H 0.79909 0.531 0.96566 0.0
C607 C 0.87499 0.59079 0.99903 0.0
C608 C 0.12653 0.20414 0.30168 0.0
C609 C 0.12309 0.24243 0.28503 0.0
H610 H 0.16639 0.1555 0.31765 0.0
C611 C 0.1571 0.25854 0.26717 0.0
H612 H 0.10083 0.19145 0.31614 0.0
C613 C 0.19495 0.23847 0.26885 0.0
C614 C 0.19914 0.20167 0.28789 0.0
H615 H 0.15547 0.28843 0.25483 0.0
H616 H 0.22143 0.25275 0.25683 0.0
C617 C 0.16409 0.18368 0.30273 0.0
C618 C 0.9367 0.12509 0.30749 0.0
C619 C 0.89884 0.12124 0.29034 0.0
H620 H 0.9849 0.16537 0.32336 0.0
C621 C 0.88288 0.15485 0.27188 0.0
H622 H 0.9492 0.09969 0.32241 0.0
C623 C 0.90272 0.19274 0.27328 0.0
C624 C 0.93917 0.19733 0.29259 0.0
H625 H 0.85325 0.15286 0.25919 0.0
H626 H 0.88861 0.21894 0.26071 0.0
C627 C 0.95698 0.16268 0.30822 0.0
C628 C 0.94615 0.90027 0.27421 0.0
C629 C 0.9433 0.9382 0.29137 0.0
H630 H 0.98498 0.85016 0.25964 0.0
C631 C 0.97932 0.95779 0.30221 0.0
H632 H 0.9187 0.88469 0.26563 0.0
C633 C 1.01707 0.93785 0.29927 0.0
C634 C 1.0195 0.89863 0.2844 0.0
H635 H 0.97781 0.98686 0.31574 0.0
H636 H 0.04388 0.9517 0.31103 0.0
C637 C 0.98407 0.88085 0.27031 0.0
C638 C 0.20645 1.0147 0.29917 0.0
C639 C 0.24561 1.01758 0.28396 0.0
H640 H 0.15684 0.97533 0.31408 0.0
C641 C 0.26249 0.98314 0.26745 0.0
H642 H 0.19316 0.04075 0.31258 0.0
C643 C 0.24223 0.94546 0.26925 0.0
C644 C 0.20445 0.94188 0.2869 0.0
H645 H 0.29301 0.98437 0.25626 0.0
H646 H 0.2571 0.9186 0.25858 0.0
C647 C 0.18577 0.97727 0.3002 0.0
C648 C 0.17702 0.91942 0.75607 0.0
C649 C 0.19103 0.94374 0.72762 0.0
H650 H 0.13131 0.87765 0.77521 0.0
C651 C 0.16547 0.94861 0.69818 0.0
H652 H 0.19516 0.91577 0.7797 0.0
C653 C 0.12848 0.92742 0.69607 0.0
C654 C 0.11611 0.90067 0.72327 0.0
H655 H 0.17496 0.96701 0.67584 0.0
H656 H 0.11062 0.93034 0.67213 0.0
C657 C 0.13999 0.898 0.75386 0.0
C658 C 0.18348 0.16523 0.7213 0.0
C659 C 0.20299 0.20086 0.73317 0.0
H660 H 0.18929 0.10112 0.71107 0.0
C661 C 0.24098 0.19727 0.75038 0.0
H662 H 0.15435 0.16697 0.70784 0.0
C663 C 0.26055 0.15927 0.75304 0.0
C664 C 0.24266 0.12446 0.73804 0.0
H665 H 0.25645 0.22417 0.7602 0.0
H666 H 0.29127 0.15793 0.76371 0.0
C667 C 0.20333 0.12747 0.72339 0.0
C668 C 0.97656 0.1853 0.71792 0.0
C669 C 0.94206 0.20284 0.73401 0.0
H670 H 0.03938 0.19333 0.70315 0.0
C671 C 0.94696 0.23901 0.75363 0.0
H672 H 0.97372 0.15762 0.70254 0.0
C673 C 0.98486 0.25897 0.75471 0.0
C674 C 1.01822 0.2434 0.73566 0.0
H675 H 0.92093 0.25292 0.7666 0.0
H676 H 0.98695 0.28841 0.76761 0.0
C677 C 1.01417 0.20565 0.71842 0.0
C678 C 0.8954 0.94481 0.74755 0.0
C679 C 0.93195 0.94001 0.72822 0.0
H680 H 0.84686 0.98543 0.76286 0.0
C681 C 0.95055 0.97487 0.71355 0.0
H682 H 0.88064 0.91859 0.75953 0.0
C683 C 0.93126 1.01294 0.71548 0.0
C684 C 0.89342 1.01719 0.73275 0.0
H685 H 0.97853 0.97224 0.6984 0.0
H686 H 0.94461 0.0386 0.70145 0.0
C687 C 0.87645 0.98318 0.75005 0.0
C688 C 0.65477 0.75464 0.7678 0.0
C689 C 0.62089 0.73865 0.78597 0.0
H690 H 0.71929 0.74969 0.75806 0.0
C691 C 0.62493 0.70141 0.80417 0.0
H692 H 0.65264 0.78384 0.75433 0.0
C693 C 0.66288 0.68181 0.80615 0.0
C694 C 0.69765 0.69973 0.79074 0.0
H695 H 0.59934 0.68892 0.81889 0.0
H696 H 0.66564 0.65436 0.822 0.0
C697 C 0.69298 0.73553 0.77048 0.0
C698 C 0.39713 0.69595 0.7666 0.0
C699 C 0.43496 0.69882 0.78412 0.0
H700 H 0.34656 0.65741 0.75264 0.0
C701 C 0.45398 0.66281 0.79591 0.0
H702 H 0.38204 0.72321 0.75691 0.0
C703 C 0.43366 0.62532 0.79356 0.0
C704 C 0.39444 0.623 0.77859 0.0
H705 H 0.483 0.66408 0.8096 0.0
H706 H 0.44722 0.59867 0.80594 0.0
C707 C 0.37717 0.65822 0.76356 0.0
C708 C 0.51292 0.43626 0.7994 0.0
C709 C 0.51684 0.3982 0.78263 0.0
H710 H 0.47259 0.4846 0.81506 0.0
C711 C 0.48314 0.38206 0.76452 0.0
H712 H 0.53835 0.44897 0.81403 0.0
C713 C 0.44516 0.40192 0.76595 0.0
C714 C 0.44051 0.43858 0.78493 0.0
H715 H 0.48512 0.35234 0.75208 0.0
H716 H 0.41895 0.38766 0.75365 0.0
C717 C 0.47524 0.45653 0.80017 0.0
C718 C 0.70512 0.51442 0.80036 0.0
C719 C 0.74392 0.51747 0.78453 0.0
H720 H 0.65575 0.47507 0.81557 0.0
C721 C 0.76036 0.48329 0.76731 0.0
H722 H 0.69219 0.54026 0.81432 0.0
C723 C 0.73998 0.44564 0.76887 0.0
C724 C 0.70258 0.44184 0.78711 0.0
H725 H 0.79063 0.48464 0.75564 0.0
H726 H 0.75443 0.41903 0.75737 0.0
C727 C 0.68439 0.47706 0.80127 0.0
C728 C 0.62592 0.43172 0.21444 0.0
C729 C 0.62161 0.39391 0.23177 0.0
H730 H 0.66657 0.47985 0.19872 0.0
C731 C 0.65484 0.37812 0.25083 0.0
H732 H 0.60085 0.4442 0.19912 0.0
C733 C 0.6928 0.39805 0.24984 0.0
C734 C 0.69791 0.4344 0.23031 0.0
H735 H 0.65257 0.34862 0.26377 0.0
H736 H 0.71868 0.38403 0.26294 0.0
C737 C 0.66358 0.45203 0.21406 0.0
C738 C 0.70678 0.62246 0.21773 0.0
C739 C 0.74545 0.61916 0.23363 0.0
H740 H 0.65811 0.66229 0.20173 0.0
C741 C 0.76245 0.6536 0.24998 0.0
H742 H 0.69341 0.59643 0.20442 0.0
C743 C 0.74279 0.69158 0.24753 0.0
C744 C 0.70548 0.69548 0.22931 0.0
H745 H 0.79264 0.65205 0.2617 0.0
H746 H 0.75768 0.7183 0.25833 0.0
C747 C 0.6867 0.66018 0.216 0.0
C748 C 0.48739 0.75214 0.24863 0.0
C749 C 0.5212 0.73715 0.22983 0.0
H750 H 0.42309 0.74605 0.2589 0.0
C751 C 0.51747 0.70018 0.2113 0.0
H752 H 0.48925 0.78105 0.26242 0.0
C753 C 0.47978 0.68005 0.20948 0.0
C754 C 0.44497 0.69717 0.22538 0.0
H755 H 0.54302 0.68842 0.19615 0.0
H756 H 0.47714 0.65299 0.19326 0.0
C757 C 0.44945 0.73249 0.24613 0.0
C758 C 0.39978 0.44364 0.24506 0.0
C759 C 0.43649 0.43916 0.22593 0.0
H760 H 0.3498 0.48327 0.25868 0.0
C761 C 0.4541 0.47378 0.21008 0.0
H762 H 0.38579 0.41746 0.2578 0.0
C763 C 0.43344 0.5112 0.21044 0.0
C764 C 0.39536 0.51492 0.2274 0.0
H765 H 0.48219 0.47119 0.19506 0.0
H766 H 0.44592 0.53657 0.19544 0.0
C767 C 0.37953 0.48137 0.24607 0.0
C768 C 0.23242 0.46252 0.27177 0.0
C769 C 0.22946 0.45963 0.23477 0.0
H770 H 0.2111 0.44139 0.32199 0.0
C771 C 0.20383 0.42952 0.22038 0.0
H772 H 0.25248 0.48459 0.28397 0.0
C773 C 0.18067 0.40405 0.24234 0.0
C774 C 0.18225 0.40817 0.27929 0.0
H775 H 0.20066 0.42628 0.19211 0.0
H776 H 0.16112 0.38146 0.23019 0.0
C777 C 0.20904 0.43722 0.29373 0.0
C778 C 0.72593 0.16871 0.24264 0.0
C779 C 0.72734 0.17545 0.2793 0.0
H780 H 0.70097 0.18719 0.19283 0.0
C781 C 0.70494 0.20823 0.29345 0.0
H782 H 0.7433 0.14422 0.23071 0.0
C783 C 0.68119 0.23319 0.27166 0.0
C784 C 0.67911 0.22599 0.23513 0.0
H785 H 0.70512 0.21423 0.32153 0.0
H786 H 0.66432 0.2581 0.28352 0.0
C787 C 0.70213 0.19375 0.2208 0.0
C788 C 0.90534 0.68089 0.26949 0.0
C789 C 0.91284 0.6767 0.23312 0.0
H790 H 0.92392 0.70771 0.31827 0.0
C791 C 0.94537 0.69868 0.21789 0.0
H792 H 0.88025 0.66481 0.282 0.0
C793 C 0.97032 0.72359 0.23871 0.0
C794 C 0.96321 0.72723 0.27521 0.0
H795 H 0.95218 0.69588 0.19003 0.0
H796 H 0.99505 0.74011 0.22611 0.0
C797 C 0.93019 0.70583 0.29026 0.0
C798 C 0.40695 0.9567 0.24789 0.0
C799 C 0.41409 0.96002 0.28436 0.0
H800 H 0.42587 0.93083 0.19872 0.0
C801 C 0.4464 0.93754 0.29932 0.0
H802 H 0.38204 0.97318 0.23556 0.0
C803 C 0.47145 0.91296 0.27817 0.0
C804 C 0.46466 0.91015 0.24157 0.0
H805 H 0.45294 0.93964 0.32725 0.0
H806 H 0.49598 0.89603 0.29058 0.0
C807 C 0.43188 0.93208 0.22678 0.0
C808 C 0.23439 0.6842 0.74054 0.0
C809 C 0.23099 0.68458 0.77759 0.0
H810 H 0.21183 0.70663 0.69126 0.0
C811 C 0.20316 0.71188 0.79321 0.0
H812 H 0.25604 0.66429 0.72749 0.0
C813 C 0.17821 0.73685 0.77233 0.0
C814 C 0.18023 0.73507 0.73523 0.0
H815 H 0.19956 0.71309 0.82159 0.0
H816 H 0.15691 0.75709 0.78543 0.0
C817 C 0.20929 0.70901 0.71966 0.0
C818 C 0.43174 0.2132 0.72153 0.0
C819 C 0.40893 0.18114 0.7365 0.0
H820 H 0.47312 0.26274 0.73044 0.0
C821 C 0.40944 0.17598 0.7734 0.0
H822 H 0.43196 0.21804 0.69325 0.0
C823 C 0.43323 0.20133 0.79469 0.0
C824 C 0.45714 0.23252 0.77965 0.0
H825 H 0.39151 0.15224 0.78596 0.0
H826 H 0.4338 0.19563 0.82284 0.0
C827 C 0.45561 0.23858 0.74286 0.0
C828 C 0.92735 0.43298 0.72305 0.0
C829 C 0.95505 0.40511 0.7381 0.0
H830 H 0.88222 0.479 0.73184 0.0
C831 C 0.95601 0.40109 0.77511 0.0
H832 H 0.92563 0.43694 0.69473 0.0
C833 C 0.93168 0.42593 0.79653 0.0
C834 C 0.90547 0.45524 0.78153 0.0
H835 H 0.97614 0.37927 0.78772 0.0
H836 H 0.93462 0.42305 0.82486 0.0
C837 C 0.90278 0.45761 0.74448 0.0
C838 C 0.67055 0.91403 0.73798 0.0
C839 C 0.67809 0.9096 0.77436 0.0
H840 H 0.68805 0.94289 0.68941 0.0
C841 C 0.71154 0.93032 0.78917 0.0
H842 H 0.64554 0.89798 0.72552 0.0
C843 C 0.73622 0.95556 0.76835 0.0
C844 C 0.72806 0.96083 0.73219 0.0
H845 H 0.71819 0.92779 0.81706 0.0
H846 H 0.76159 0.97119 0.7807 0.0
C847 C 0.6953 0.93931 0.71712 0.0
C848 C 0.95062 0.71543 0.75406 0.0
C849 C 0.99133 0.7041 0.7467 0.0
H850 H 0.89197 0.69664 0.77428 0.0
C851 C 1.00401 0.66428 0.75546 0.0
H852 H 0.93977 0.7458 0.74759 0.0
C853 C 0.97693 0.63641 0.77079 0.0
C854 C 0.93607 0.64723 0.7777 0.0
H855 H 0.03509 0.65436 0.75038 0.0
H856 H 0.98816 0.60606 0.77691 0.0
C857 C 0.92318 0.68718 0.76922 0.0
C858 C 0.42802 0.98082 0.76756 0.0
C859 C 0.41845 0.96776 0.73327 0.0
H860 H 0.46009 0.96798 0.81556 0.0
C861 C 0.43841 0.93296 0.71979 0.0
H862 H 0.41332 1.0075 0.77876 0.0
C863 C 0.46567 0.9105 0.74079 0.0
C864 C 0.47307 0.92207 0.77588 0.0
H865 H 0.43194 0.92223 0.69336 0.0
H866 H 0.47916 0.8829 0.73016 0.0
C867 C 0.45479 0.95807 0.78869 0.0
C868 C 0.13347 0.47744 0.75113 0.0
C869 C 0.14541 0.43715 0.74344 0.0
H870 H 0.15049 0.53597 0.77089 0.0
C871 C 0.18611 0.42547 0.75037 0.0
H872 H 0.10245 0.48765 0.74626 0.0
C873 C 0.21415 0.45368 0.76443 0.0
C874 C 0.20189 0.49395 0.7722 0.0
H875 H 0.1964 0.39473 0.74467 0.0
H876 H 0.24524 0.44385 0.76942 0.0
C877 C 0.16117 0.50529 0.76537 0.0
C878 C 0.63426 0.16497 0.76659 0.0
C879 C 0.64577 0.2054 0.77411 0.0
H880 H 0.65185 0.1066 0.74679 0.0
C881 C 0.68635 0.21745 0.76704 0.0
H882 H 0.60336 0.15445 0.77161 0.0
C883 C 0.71467 0.18949 0.75289 0.0
C884 C 0.70277 0.14914 0.74515 0.0
H885 H 0.69631 0.24831 0.77263 0.0
H886 H 0.74562 0.19962 0.74765 0.0
C887 C 0.66222 0.13738 0.75226 0.0
C888 C 0.95338 0.42195 0.26804 0.0
C889 C 0.99363 0.43448 0.27566 0.0
H890 H 0.89457 0.43888 0.24712 0.0
C891 C 1.00509 0.47479 0.2674 0.0
H892 H 0.94347 0.39115 0.27413 0.0
C893 C 0.9774 0.50182 0.25185 0.0
C894 C 0.93715 0.4896 0.24424 0.0
H895 H 0.03575 0.48566 0.27275 0.0
H896 H 0.98773 0.53253 0.24589 0.0
C897 C 0.92531 0.44935 0.25268 0.0
C898 C 0.66672 0.91586 0.27595 0.0
C899 C 0.66974 0.92078 0.2392 0.0
H900 H 0.68876 0.93369 0.32675 0.0
C901 C 0.69648 0.9509 0.22578 0.0
H902 H 0.64645 0.89311 0.28723 0.0
C903 C 0.72083 0.97428 0.24845 0.0
C904 C 0.71916 0.96806 0.28512 0.0
H905 H 0.69946 0.95579 0.1976 0.0
H906 H 0.74183 0.99633 0.23712 0.0
C907 C 0.69116 0.93916 0.29861 0.0
C908 C 0.14948 0.69382 0.25459 0.0
C909 C 0.1698 0.71603 0.28092 0.0
H910 H 0.15379 0.64598 0.21597 0.0
C911 C 0.2115 0.70826 0.28706 0.0
H912 H 0.11731 0.69912 0.24947 0.0
C913 C 0.23248 0.6787 0.2676 0.0
C914 C 0.21202 0.65534 0.24211 0.0
H915 H 0.22801 0.72512 0.30707 0.0
H916 H 0.26456 0.67346 0.27318 0.0
C917 C 0.1703 0.66329 0.23567 0.0
C918 C 0.42471 0.18703 0.26691 0.0
C919 C 0.43713 0.14706 0.27575 0.0
H920 H 0.44185 0.24498 0.24431 0.0
C921 C 0.47745 0.13517 0.26784 0.0
H922 H 0.39391 0.19725 0.2727 0.0
C923 C 0.50457 0.16217 0.25145 0.0
C924 C 0.49247 0.20216 0.24268 0.0
H925 H 0.48821 0.10468 0.2741 0.0
H926 H 0.53529 0.15156 0.24581 0.0
C927 C 0.45222 0.21443 0.25076 0.0
loop_
_geom_bond_atom_site_label_1
_geom_bond_atom_site_label_2
_geom_bond_distance
_geom_bond_site_symmetry_2
_ccdc_geom_bond_type
Co0 N4 2.148 1_455 S
Co0 N10 2.128 . S
Co0 N20 2.194 . S
Co0 O25 2.351 . S
Co0 O26 2.155 . S
Co0 O27 2.096 . S
C1 N4 1.301 . S
C1 N5 1.328 . S
C1 H6 0.928 1_655 S
C2 C3 1.333 . S
C2 N4 1.317 . S
C2 H7 0.930 . S
C3 C2 1.333 . S
C3 N5 1.350 . S
C3 H29 0.931 . S
N4 Co0 2.148 1_655 S
N4 C1 1.301 . S
N4 C2 1.317 . S
N5 C1 1.328 . S
N5 C3 1.350 . S
H6 C1 0.928 1_455 S
H7 C2 0.930 . S
C8 O9 1.224 . S
C8 O27 1.247 1_655 S
O9 C8 1.224 . S
N10 Co0 2.128 . S
N10 C11 1.355 . S
N10 C13 1.311 . S
C11 N10 1.355 . S
C11 C12 1.363 . S
C11 H23 0.929 . S
C12 C11 1.363 . S
C12 N14 1.375 . S
C12 H30 0.931 . S
C13 N10 1.311 . S
C13 N14 1.347 . S
C13 H24 0.929 . S
N14 C12 1.375 . S
N14 C13 1.347 . S
C15 C18 1.365 . S
C15 N20 1.328 . S
C15 H21 0.929 . S
C16 C17 1.362 . S
C16 C19 1.378 . S
C16 H31 0.929 1_455 S
C17 C16 1.362 . S
C17 C18 1.366 . S
C18 C15 1.365 . S
C18 C17 1.366 . S
C18 H32 0.930 . S
C19 C16 1.378 . S
C19 N20 1.315 . S
C19 H22 0.930 1_455 S
N20 Co0 2.194 . S
N20 C15 1.328 . S
N20 C19 1.315 . S
H21 C15 0.929 . S
H22 C19 0.930 1_655 S
H23 C11 0.929 . S
H24 C13 0.929 . S
O25 Co0 2.351 . S
O25 C28 1.244 . S
O26 Co0 2.155 . S
O26 C28 1.240 . S
O27 Co0 2.096 . S
O27 C8 1.247 1_455 S
C28 O25 1.244 . S
C28 O26 1.240 . S
H29 C3 0.931 . S
H30 C12 0.931 . S
H31 C16 0.929 1_655 S
H32 C18 0.930 . S
Co33 N37 2.148 1_545 S
Co33 N43 2.128 . S
Co33 N53 2.194 . S
Co33 O58 2.351 . S
Co33 O59 2.155 . S
Co33 O60 2.096 . S
C34 N37 1.301 . S
C34 N38 1.328 . S
C34 H39 0.928 1_565 S
C35 C36 1.333 . S
C35 N37 1.317 . S
C35 H40 0.930 . S
C36 C35 1.333 . S
C36 N38 1.350 . S
C36 H62 0.931 . S
N37 Co33 2.148 1_565 S
N37 C34 1.301 . S
N37 C35 1.317 . S
N38 C34 1.328 . S
N38 C36 1.350 . S
H39 C34 0.928 1_545 S
H40 C35 0.930 . S
C41 O42 1.224 . S
C41 O60 1.247 1_565 S
O42 C41 1.224 . S
N43 Co33 2.128 . S
N43 C44 1.355 . S
N43 C46 1.311 . S
C44 N43 1.355 . S
C44 C45 1.363 . S
C44 H56 0.929 . S
C45 C44 1.363 . S
C45 N47 1.375 . S
C45 H63 0.931 . S
C46 N43 1.311 . S
C46 N47 1.347 . S
C46 H57 0.929 . S
N47 C45 1.375 . S
N47 C46 1.347 . S
C48 C51 1.365 . S
C48 N53 1.328 . S
C48 H54 0.929 . S
C49 C50 1.362 . S
C49 C52 1.378 . S
C49 H64 0.929 1_545 S
C50 C49 1.362 . S
C50 C51 1.366 . S
C51 C48 1.365 . S
C51 C50 1.366 . S
C51 H65 0.930 . S
C52 C49 1.378 . S
C52 N53 1.315 . S
C52 H55 0.930 1_545 S
N53 Co33 2.194 . S
N53 C48 1.328 . S
N53 C52 1.315 . S
H54 C48 0.929 . S
H55 C52 0.930 1_565 S
H56 C44 0.929 . S
H57 C46 0.929 . S
O58 Co33 2.351 . S
O58 C61 1.244 . S
O59 Co33 2.155 . S
O59 C61 1.240 . S
O60 Co33 2.096 . S
O60 C41 1.247 1_545 S
C61 O58 1.244 . S
C61 O59 1.240 . S
H62 C36 0.931 . S
H63 C45 0.931 . S
H64 C49 0.929 1_565 S
H65 C51 0.930 . S
Co66 N70 2.148 . S
Co66 N76 2.128 . S
Co66 N86 2.194 . S
Co66 O91 2.351 . S
Co66 O92 2.155 . S
Co66 O93 2.096 . S
C67 N70 1.301 . S
C67 N71 1.328 . S
C67 H72 0.930 . S
C68 C69 1.333 . S
C68 N70 1.317 . S
C68 H73 0.930 . S
C69 C68 1.333 . S
C69 N71 1.350 . S
C69 H95 0.931 . S
N70 Co66 2.148 . S
N70 C67 1.301 . S
N70 C68 1.317 . S
N71 C67 1.328 . S
N71 C69 1.350 . S
H72 C67 0.930 . S
H73 C68 0.930 . S
C74 O75 1.224 . S
C74 O93 1.247 . S
O75 C74 1.224 . S
N76 Co66 2.128 . S
N76 C77 1.355 1_455 S
N76 C79 1.311 . S
C77 N76 1.355 1_655 S
C77 C78 1.363 . S
C77 H89 0.929 . S
C78 C77 1.363 . S
C78 N80 1.375 . S
C78 H96 0.931 . S
C79 N76 1.311 . S
C79 N80 1.347 1_455 S
C79 H90 0.929 . S
N80 C78 1.375 . S
N80 C79 1.347 1_655 S
C81 C84 1.365 . S
C81 N86 1.328 . S
C81 H87 0.929 . S
C82 C83 1.362 . S
C82 C85 1.378 . S
C82 H97 0.929 . S
C83 C82 1.362 . S
C83 C84 1.366 . S
C84 C81 1.365 . S
C84 C83 1.366 . S
C84 H98 0.930 . S
C85 C82 1.378 . S
C85 N86 1.315 . S
C85 H88 0.930 . S
N86 Co66 2.194 . S
N86 C81 1.328 . S
N86 C85 1.315 . S
H87 C81 0.929 . S
H88 C85 0.930 . S
H89 C77 0.929 . S
H90 C79 0.929 . S
O91 Co66 2.351 . S
O91 C94 1.244 . S
O92 Co66 2.155 . S
O92 C94 1.240 . S
O93 Co66 2.096 . S
O93 C74 1.247 . S
C94 O91 1.244 . S
C94 O92 1.240 . S
H95 C69 0.931 . S
H96 C78 0.931 . S
H97 C82 0.929 . S
H98 C84 0.930 . S
Co99 N103 2.148 . S
Co99 N109 2.128 . S
Co99 N119 2.194 . S
Co99 O124 2.351 . S
Co99 O125 2.155 . S
Co99 O126 2.096 . S
C100 N103 1.301 . S
C100 N104 1.328 . S
C100 H105 0.930 . S
C101 C102 1.333 . S
C101 N103 1.317 . S
C101 H106 0.930 . S
C102 C101 1.333 . S
C102 N104 1.350 . S
C102 H128 0.931 . S
N103 Co99 2.148 . S
N103 C100 1.301 . S
N103 C101 1.317 . S
N104 C100 1.328 . S
N104 C102 1.350 . S
H105 C100 0.930 . S
H106 C101 0.930 . S
C107 O108 1.224 . S
C107 O126 1.247 . S
O108 C107 1.224 . S
N109 Co99 2.128 . S
N109 C110 1.355 1_545 S
N109 C112 1.311 . S
C110 N109 1.355 1_565 S
C110 C111 1.363 . S
C110 H122 0.929 . S
C111 C110 1.363 . S
C111 N113 1.375 . S
C111 H129 0.931 . S
C112 N109 1.311 . S
C112 N113 1.347 1_545 S
C112 H123 0.929 . S
N113 C111 1.375 . S
N113 C112 1.347 1_565 S
C114 C117 1.365 . S
C114 N119 1.328 . S
C114 H120 0.929 . S
C115 C116 1.362 . S
C115 C118 1.378 . S
C115 H130 0.929 . S
C116 C115 1.362 . S
C116 C117 1.366 . S
C117 C114 1.365 . S
C117 C116 1.366 . S
C117 H131 0.930 . S
C118 C115 1.378 . S
C118 N119 1.315 . S
C118 H121 0.930 . S
N119 Co99 2.194 . S
N119 C114 1.328 . S
N119 C118 1.315 . S
H120 C114 0.929 . S
H121 C118 0.930 . S
H122 C110 0.929 . S
H123 C112 0.929 . S
O124 Co99 2.351 . S
O124 C127 1.244 . S
O125 Co99 2.155 . S
O125 C127 1.240 . S
O126 Co99 2.096 . S
O126 C107 1.247 . S
C127 O124 1.244 . S
C127 O125 1.240 . S
H128 C102 0.931 . S
H129 C111 0.931 . S
H130 C115 0.929 . S
H131 C117 0.930 . S
Co132 N136 2.148 1_455 S
Co132 N142 2.128 . S
Co132 N152 2.194 . S
Co132 O157 2.351 . S
Co132 O158 2.155 . S
Co132 O159 2.096 . S
C133 N136 1.301 . S
C133 N137 1.328 . S
C133 H138 0.928 1_655 S
C134 C135 1.333 . S
C134 N136 1.317 . S
C134 H139 0.930 . S
C135 C134 1.333 . S
C135 N137 1.350 . S
C135 H161 0.931 . S
N136 Co132 2.148 1_655 S
N136 C133 1.301 . S
N136 C134 1.317 . S
N137 C133 1.328 . S
N137 C135 1.350 . S
H138 C133 0.928 1_455 S
H139 C134 0.930 . S
C140 O141 1.224 . S
C140 O159 1.247 1_655 S
O141 C140 1.224 . S
N142 Co132 2.128 . S
N142 C143 1.355 . S
N142 C145 1.311 . S
C143 N142 1.355 . S
C143 C144 1.363 . S
C143 H155 0.929 . S
C144 C143 1.363 . S
C144 N146 1.375 . S
C144 H162 0.931 . S
C145 N142 1.311 . S
C145 N146 1.347 . S
C145 H156 0.929 . S
N146 C144 1.375 . S
N146 C145 1.347 . S
C147 C150 1.365 . S
C147 N152 1.328 . S
C147 H153 0.929 . S
C148 C149 1.362 . S
C148 C151 1.378 . S
C148 H163 0.929 1_455 S
C149 C148 1.362 . S
C149 C150 1.366 . S
C150 C147 1.365 . S
C150 C149 1.366 . S
C150 H164 0.930 . S
C151 C148 1.378 . S
C151 N152 1.315 . S
C151 H154 0.930 1_455 S
N152 Co132 2.194 . S
N152 C147 1.328 . S
N152 C151 1.315 . S
H153 C147 0.929 . S
H154 C151 0.930 1_655 S
H155 C143 0.929 . S
H156 C145 0.929 . S
O157 Co132 2.351 . S
O157 C160 1.244 . S
O158 Co132 2.155 . S
O158 C160 1.240 . S
O159 Co132 2.096 . S
O159 C140 1.247 1_455 S
C160 O157 1.244 . S
C160 O158 1.240 . S
H161 C135 0.931 . S
H162 C144 0.931 . S
H163 C148 0.929 1_655 S
H164 C150 0.930 . S
Co165 N169 2.148 1_545 S
Co165 N175 2.128 . S
Co165 N185 2.194 . S
Co165 O190 2.351 . S
Co165 O191 2.155 . S
Co165 O192 2.096 . S
C166 N169 1.301 . S
C166 N170 1.328 . S
C166 H171 0.928 1_565 S
C167 C168 1.333 . S
C167 N169 1.317 . S
C167 H172 0.930 . S
C168 C167 1.333 . S
C168 N170 1.350 . S
C168 H194 0.931 . S
N169 Co165 2.148 1_565 S
N169 C166 1.301 . S
N169 C167 1.317 . S
N170 C166 1.328 . S
N170 C168 1.350 . S
H171 C166 0.928 1_545 S
H172 C167 0.930 . S
C173 O174 1.224 . S
C173 O192 1.247 1_565 S
O174 C173 1.224 . S
N175 Co165 2.128 . S
N175 C176 1.355 . S
N175 C178 1.311 . S
C176 N175 1.355 . S
C176 C177 1.363 . S
C176 H188 0.929 . S
C177 C176 1.363 . S
C177 N179 1.375 . S
C177 H195 0.931 . S
C178 N175 1.311 . S
C178 N179 1.347 . S
C178 H189 0.929 . S
N179 C177 1.375 . S
N179 C178 1.347 . S
C180 C183 1.365 . S
C180 N185 1.328 . S
C180 H186 0.929 . S
C181 C182 1.362 . S
C181 C184 1.378 . S
C181 H196 0.929 1_545 S
C182 C181 1.362 . S
C182 C183 1.366 . S
C183 C180 1.365 . S
C183 C182 1.366 . S
C183 H197 0.930 . S
C184 C181 1.378 . S
C184 N185 1.315 . S
C184 H187 0.930 1_545 S
N185 Co165 2.194 . S
N185 C180 1.328 . S
N185 C184 1.315 . S
H186 C180 0.929 . S
H187 C184 0.930 1_565 S
H188 C176 0.929 . S
H189 C178 0.929 . S
O190 Co165 2.351 . S
O190 C193 1.244 . S
O191 Co165 2.155 . S
O191 C193 1.240 . S
O192 Co165 2.096 . S
O192 C173 1.247 1_545 S
C193 O190 1.244 . S
C193 O191 1.240 . S
H194 C168 0.931 . S
H195 C177 0.931 . S
H196 C181 0.929 1_565 S
H197 C183 0.930 . S
Co198 N202 2.148 . S
Co198 N208 2.128 . S
Co198 N218 2.194 . S
Co198 O223 2.351 . S
Co198 O224 2.155 . S
Co198 O225 2.096 . S
C199 N202 1.301 . S
C199 N203 1.328 . S
C199 H204 0.930 . S
C200 C201 1.333 . S
C200 N202 1.317 . S
C200 H205 0.930 . S
C201 C200 1.333 . S
C201 N203 1.350 . S
C201 H227 0.931 . S
N202 Co198 2.148 . S
N202 C199 1.301 . S
N202 C200 1.317 . S
N203 C199 1.328 . S
N203 C201 1.350 . S
H204 C199 0.930 . S
H205 C200 0.930 . S
C206 O207 1.224 . S
C206 O225 1.247 . S
O207 C206 1.224 . S
N208 Co198 2.128 . S
N208 C209 1.355 1_455 S
N208 C211 1.311 . S
C209 N208 1.355 1_655 S
C209 C210 1.363 . S
C209 H221 0.929 . S
C210 C209 1.363 . S
C210 N212 1.375 . S
C210 H228 0.931 . S
C211 N208 1.311 . S
C211 N212 1.347 1_455 S
C211 H222 0.929 . S
N212 C210 1.375 . S
N212 C211 1.347 1_655 S
C213 C216 1.365 . S
C213 N218 1.328 . S
C213 H219 0.929 . S
C214 C215 1.362 . S
C214 C217 1.378 . S
C214 H229 0.929 . S
C215 C214 1.362 . S
C215 C216 1.366 . S
C216 C213 1.365 . S
C216 C215 1.366 . S
C216 H230 0.930 . S
C217 C214 1.378 . S
C217 N218 1.315 . S
C217 H220 0.930 . S
N218 Co198 2.194 . S
N218 C213 1.328 . S
N218 C217 1.315 . S
H219 C213 0.929 . S
H220 C217 0.930 . S
H221 C209 0.929 . S
H222 C211 0.929 . S
O223 Co198 2.351 . S
O223 C226 1.244 . S
O224 Co198 2.155 . S
O224 C226 1.240 . S
O225 Co198 2.096 . S
O225 C206 1.247 . S
C226 O223 1.244 . S
C226 O224 1.240 . S
H227 C201 0.931 . S
H228 C210 0.931 . S
H229 C214 0.929 . S
H230 C216 0.930 . S
Co231 N235 2.148 . S
Co231 N241 2.128 . S
Co231 N251 2.194 . S
Co231 O256 2.351 . S
Co231 O257 2.155 . S
Co231 O258 2.096 . S
C232 N235 1.301 . S
C232 N236 1.328 . S
C232 H237 0.930 . S
C233 C234 1.333 . S
C233 N235 1.317 . S
C233 H238 0.930 . S
C234 C233 1.333 . S
C234 N236 1.350 . S
C234 H260 0.931 . S
N235 Co231 2.148 . S
N235 C232 1.301 . S
N235 C233 1.317 . S
N236 C232 1.328 . S
N236 C234 1.350 . S
H237 C232 0.930 . S
H238 C233 0.930 . S
C239 O240 1.224 . S
C239 O258 1.247 . S
O240 C239 1.224 . S
N241 Co231 2.128 . S
N241 C242 1.355 1_545 S
N241 C244 1.311 . S
C242 N241 1.355 1_565 S
C242 C243 1.363 . S
C242 H254 0.929 . S
C243 C242 1.363 . S
C243 N245 1.375 . S
C243 H261 0.931 . S
C244 N241 1.311 . S
C244 N245 1.347 1_545 S
C244 H255 0.929 . S
N245 C243 1.375 . S
N245 C244 1.347 1_565 S
C246 C249 1.365 . S
C246 N251 1.328 . S
C246 H252 0.929 . S
C247 C248 1.362 . S
C247 C250 1.378 . S
C247 H262 0.929 . S
C248 C247 1.362 . S
C248 C249 1.366 . S
C249 C246 1.365 . S
C249 C248 1.366 . S
C249 H263 0.930 . S
C250 C247 1.378 . S
C250 N251 1.315 . S
C250 H253 0.930 . S
N251 Co231 2.194 . S
N251 C246 1.328 . S
N251 C250 1.315 . S
H252 C246 0.929 . S
H253 C250 0.930 . S
H254 C242 0.929 . S
H255 C244 0.929 . S
O256 Co231 2.351 . S
O256 C259 1.244 . S
O257 Co231 2.155 . S
O257 C259 1.240 . S
O258 Co231 2.096 . S
O258 C239 1.247 . S
C259 O256 1.244 . S
C259 O257 1.240 . S
H260 C234 0.931 . S
H261 C243 0.931 . S
H262 C247 0.929 . S
H263 C249 0.930 . S
Co264 N268 2.148 . S
Co264 N274 2.128 . S
Co264 N284 2.194 . S
Co264 O289 2.351 . S
Co264 O290 2.155 . S
Co264 O291 2.096 . S
C265 N268 1.301 . S
C265 N269 1.328 . S
C265 H270 0.930 . S
C266 C267 1.333 . S
C266 N268 1.317 . S
C266 H271 0.930 . S
C267 C266 1.333 . S
C267 N269 1.350 . S
C267 H293 0.931 . S
N268 Co264 2.148 . S
N268 C265 1.301 . S
N268 C266 1.317 . S
N269 C265 1.328 . S
N269 C267 1.350 . S
H270 C265 0.930 . S
H271 C266 0.930 . S
C272 O273 1.224 . S
C272 O291 1.247 . S
O273 C272 1.224 . S
N274 Co264 2.128 . S
N274 C275 1.355 . S
N274 C277 1.311 . S
C275 N274 1.355 . S
C275 C276 1.363 . S
C275 H287 0.929 . S
C276 C275 1.363 . S
C276 N278 1.375 . S
C276 H294 0.931 . S
C277 N274 1.311 . S
C277 N278 1.347 . S
C277 H288 0.929 . S
N278 C276 1.375 . S
N278 C277 1.347 . S
C279 C282 1.365 . S
C279 N284 1.328 . S
C279 H285 0.929 . S
C280 C281 1.362 . S
C280 C283 1.378 . S
C280 H295 0.929 . S
C281 C280 1.362 . S
C281 C282 1.366 . S
C282 C279 1.365 . S
C282 C281 1.366 . S
C282 H296 0.930 . S
C283 C280 1.378 . S
C283 N284 1.315 . S
C283 H286 0.930 . S
N284 Co264 2.194 . S
N284 C279 1.328 . S
N284 C283 1.315 . S
H285 C279 0.929 . S
H286 C283 0.930 . S
H287 C275 0.929 . S
H288 C277 0.929 . S
O289 Co264 2.351 . S
O289 C292 1.244 . S
O290 Co264 2.155 . S
O290 C292 1.240 . S
O291 Co264 2.096 . S
O291 C272 1.247 . S
C292 O289 1.244 . S
C292 O290 1.240 . S
H293 C267 0.931 . S
H294 C276 0.931 . S
H295 C280 0.929 . S
H296 C282 0.930 . S
Co297 N301 2.148 . S
Co297 N307 2.128 . S
Co297 N317 2.194 . S
Co297 O322 2.351 . S
Co297 O323 2.155 . S
Co297 O324 2.096 . S
C298 N301 1.301 . S
C298 N302 1.328 . S
C298 H303 0.930 . S
C299 C300 1.333 . S
C299 N301 1.317 . S
C299 H304 0.930 . S
C300 C299 1.333 . S
C300 N302 1.350 . S
C300 H326 0.931 . S
N301 Co297 2.148 . S
N301 C298 1.301 . S
N301 C299 1.317 . S
N302 C298 1.328 . S
N302 C300 1.350 . S
H303 C298 0.930 . S
H304 C299 0.930 . S
C305 O306 1.224 . S
C305 O324 1.247 . S
O306 C305 1.224 . S
N307 Co297 2.128 . S
N307 C308 1.355 . S
N307 C310 1.311 . S
C308 N307 1.355 . S
C308 C309 1.363 . S
C308 H320 0.929 . S
C309 C308 1.363 . S
C309 N311 1.375 . S
C309 H327 0.931 . S
C310 N307 1.311 . S
C310 N311 1.347 . S
C310 H321 0.929 . S
N311 C309 1.375 . S
N311 C310 1.347 . S
C312 C315 1.365 . S
C312 N317 1.328 . S
C312 H318 0.929 . S
C313 C314 1.362 . S
C313 C316 1.378 . S
C313 H328 0.929 . S
C314 C313 1.362 . S
C314 C315 1.366 . S
C315 C312 1.365 . S
C315 C314 1.366 . S
C315 H329 0.930 . S
C316 C313 1.378 . S
C316 N317 1.315 . S
C316 H319 0.930 . S
N317 Co297 2.194 . S
N317 C312 1.328 . S
N317 C316 1.315 . S
H318 C312 0.929 . S
H319 C316 0.930 . S
H320 C308 0.929 . S
H321 C310 0.929 . S
O322 Co297 2.351 . S
O322 C325 1.244 . S
O323 Co297 2.155 . S
O323 C325 1.240 . S
O324 Co297 2.096 . S
O324 C305 1.247 . S
C325 O322 1.244 . S
C325 O323 1.240 . S
H326 C300 0.931 . S
H327 C309 0.931 . S
H328 C313 0.929 . S
H329 C315 0.930 . S
Co330 N334 2.148 . S
Co330 N340 2.128 . S
Co330 N350 2.194 . S
Co330 O355 2.351 . S
Co330 O356 2.155 . S
Co330 O357 2.096 . S
C331 N334 1.301 . S
C331 N335 1.328 . S
C331 H336 0.930 . S
C332 C333 1.333 . S
C332 N334 1.317 . S
C332 H337 0.930 . S
C333 C332 1.333 . S
C333 N335 1.350 . S
C333 H359 0.931 . S
N334 Co330 2.148 . S
N334 C331 1.301 . S
N334 C332 1.317 . S
N335 C331 1.328 . S
N335 C333 1.350 . S
H336 C331 0.930 . S
H337 C332 0.930 . S
C338 O339 1.224 . S
C338 O357 1.247 . S
O339 C338 1.224 . S
N340 Co330 2.128 . S
N340 C341 1.355 . S
N340 C343 1.311 . S
C341 N340 1.355 . S
C341 C342 1.363 . S
C341 H353 0.929 . S
C342 C341 1.363 . S
C342 N344 1.375 . S
C342 H360 0.931 . S
C343 N340 1.311 . S
C343 N344 1.347 . S
C343 H354 0.929 . S
N344 C342 1.375 . S
N344 C343 1.347 . S
C345 C348 1.365 . S
C345 N350 1.328 . S
C345 H351 0.929 . S
C346 C347 1.362 . S
C346 C349 1.378 . S
C346 H361 0.929 . S
C347 C346 1.362 . S
C347 C348 1.366 . S
C348 C345 1.365 . S
C348 C347 1.366 . S
C348 H362 0.930 . S
C349 C346 1.378 . S
C349 N350 1.315 . S
C349 H352 0.930 . S
N350 Co330 2.194 . S
N350 C345 1.328 . S
N350 C349 1.315 . S
H351 C345 0.929 . S
H352 C349 0.930 . S
H353 C341 0.929 . S
H354 C343 0.929 . S
O355 Co330 2.351 . S
O355 C358 1.244 . S
O356 Co330 2.155 . S
O356 C358 1.240 . S
O357 Co330 2.096 . S
O357 C338 1.247 . S
C358 O355 1.244 . S
C358 O356 1.240 . S
H359 C333 0.931 . S
H360 C342 0.931 . S
H361 C346 0.929 . S
H362 C348 0.930 . S
Co363 N367 2.148 . S
Co363 N373 2.128 . S
Co363 N383 2.194 . S
Co363 O388 2.351 . S
Co363 O389 2.155 . S
Co363 O390 2.096 . S
C364 N367 1.301 . S
C364 N368 1.328 . S
C364 H369 0.930 . S
C365 C366 1.333 . S
C365 N367 1.317 . S
C365 H370 0.930 . S
C366 C365 1.333 . S
C366 N368 1.350 . S
C366 H392 0.931 . S
N367 Co363 2.148 . S
N367 C364 1.301 . S
N367 C365 1.317 . S
N368 C364 1.328 . S
N368 C366 1.350 . S
H369 C364 0.930 . S
H370 C365 0.930 . S
C371 O372 1.224 . S
C371 O390 1.247 . S
O372 C371 1.224 . S
N373 Co363 2.128 . S
N373 C374 1.355 . S
N373 C376 1.311 . S
C374 N373 1.355 . S
C374 C375 1.363 . S
C374 H386 0.929 . S
C375 C374 1.363 . S
C375 N377 1.375 . S
C375 H393 0.931 . S
C376 N373 1.311 . S
C376 N377 1.347 . S
C376 H387 0.929 . S
N377 C375 1.375 . S
N377 C376 1.347 . S
C378 C381 1.365 . S
C378 N383 1.328 . S
C378 H384 0.929 . S
C379 C380 1.362 . S
C379 C382 1.378 . S
C379 H394 0.929 . S
C380 C379 1.362 . S
C380 C381 1.366 . S
C381 C378 1.365 . S
C381 C380 1.366 . S
C381 H395 0.930 . S
C382 C379 1.378 . S
C382 N383 1.315 . S
C382 H385 0.930 . S
N383 Co363 2.194 . S
N383 C378 1.328 . S
N383 C382 1.315 . S
H384 C378 0.929 . S
H385 C382 0.930 . S
H386 C374 0.929 . S
H387 C376 0.929 . S
O388 Co363 2.351 . S
O388 C391 1.244 . S
O389 Co363 2.155 . S
O389 C391 1.240 . S
O390 Co363 2.096 . S
O390 C371 1.247 . S
C391 O388 1.244 . S
C391 O389 1.240 . S
H392 C366 0.931 . S
H393 C375 0.931 . S
H394 C379 0.929 . S
H395 C381 0.930 . S
Co396 N400 2.148 . S
Co396 N406 2.128 . S
Co396 N416 2.194 . S
Co396 O421 2.351 . S
Co396 O422 2.155 . S
Co396 O423 2.096 . S
C397 N400 1.301 . S
C397 N401 1.328 . S
C397 H402 0.930 . S
C398 C399 1.333 . S
C398 N400 1.317 . S
C398 H403 0.930 . S
C399 C398 1.333 . S
C399 N401 1.350 . S
C399 H425 0.931 . S
N400 Co396 2.148 . S
N400 C397 1.301 . S
N400 C398 1.317 . S
N401 C397 1.328 . S
N401 C399 1.350 . S
H402 C397 0.930 . S
H403 C398 0.930 . S
C404 O405 1.224 . S
C404 O423 1.247 . S
O405 C404 1.224 . S
N406 Co396 2.128 . S
N406 C407 1.355 . S
N406 C409 1.311 . S
C407 N406 1.355 . S
C407 C408 1.363 . S
C407 H419 0.929 . S
C408 C407 1.363 . S
C408 N410 1.375 . S
C408 H426 0.931 . S
C409 N406 1.311 . S
C409 N410 1.347 . S
C409 H420 0.929 . S
N410 C408 1.375 . S
N410 C409 1.347 . S
C411 C414 1.365 . S
C411 N416 1.328 . S
C411 H417 0.929 . S
C412 C413 1.362 . S
C412 C415 1.378 . S
C412 H427 0.929 . S
C413 C412 1.362 . S
C413 C414 1.366 . S
C414 C411 1.365 . S
C414 C413 1.366 . S
C414 H428 0.930 . S
C415 C412 1.378 . S
C415 N416 1.315 . S
C415 H418 0.930 . S
N416 Co396 2.194 . S
N416 C411 1.328 . S
N416 C415 1.315 . S
H417 C411 0.929 . S
H418 C415 0.930 . S
H419 C407 0.929 . S
H420 C409 0.929 . S
O421 Co396 2.351 . S
O421 C424 1.244 . S
O422 Co396 2.155 . S
O422 C424 1.240 . S
O423 Co396 2.096 . S
O423 C404 1.247 . S
C424 O421 1.244 . S
C424 O422 1.240 . S
H425 C399 0.931 . S
H426 C408 0.931 . S
H427 C412 0.929 . S
H428 C414 0.930 . S
Co429 N433 2.148 . S
Co429 N439 2.128 . S
Co429 N449 2.194 . S
Co429 O454 2.351 . S
Co429 O455 2.155 . S
Co429 O456 2.096 . S
C430 N433 1.301 . S
C430 N434 1.328 . S
C430 H435 0.930 . S
C431 C432 1.333 . S
C431 N433 1.317 . S
C431 H436 0.930 . S
C432 C431 1.333 . S
C432 N434 1.350 . S
C432 H458 0.931 . S
N433 Co429 2.148 . S
N433 C430 1.301 . S
N433 C431 1.317 . S
N434 C430 1.328 . S
N434 C432 1.350 . S
H435 C430 0.930 . S
H436 C431 0.930 . S
C437 O438 1.224 . S
C437 O456 1.247 . S
O438 C437 1.224 . S
N439 Co429 2.128 . S
N439 C440 1.355 . S
N439 C442 1.311 . S
C440 N439 1.355 . S
C440 C441 1.363 . S
C440 H452 0.929 . S
C441 C440 1.363 . S
C441 N443 1.375 . S
C441 H459 0.931 . S
C442 N439 1.311 . S
C442 N443 1.347 . S
C442 H453 0.929 . S
N443 C441 1.375 . S
N443 C442 1.347 . S
C444 C447 1.365 . S
C444 N449 1.328 . S
C444 H450 0.929 . S
C445 C446 1.362 . S
C445 C448 1.378 . S
C445 H460 0.929 . S
C446 C445 1.362 . S
C446 C447 1.366 . S
C447 C444 1.365 . S
C447 C446 1.366 . S
C447 H461 0.930 . S
C448 C445 1.378 . S
C448 N449 1.315 . S
C448 H451 0.930 . S
N449 Co429 2.194 . S
N449 C444 1.328 . S
N449 C448 1.315 . S
H450 C444 0.929 . S
H451 C448 0.930 . S
H452 C440 0.929 . S
H453 C442 0.929 . S
O454 Co429 2.351 . S
O454 C457 1.244 . S
O455 Co429 2.155 . S
O455 C457 1.240 . S
O456 Co429 2.096 . S
O456 C437 1.247 . S
C457 O454 1.244 . S
C457 O455 1.240 . S
H458 C432 0.931 . S
H459 C441 0.931 . S
H460 C445 0.929 . S
H461 C447 0.930 . S
Co462 N466 2.148 . S
Co462 N472 2.128 . S
Co462 N482 2.194 . S
Co462 O487 2.351 . S
Co462 O488 2.155 . S
Co462 O489 2.096 . S
C463 N466 1.301 . S
C463 N467 1.328 . S
C463 H468 0.930 . S
C464 C465 1.333 . S
C464 N466 1.317 . S
C464 H469 0.930 . S
C465 C464 1.333 . S
C465 N467 1.350 . S
C465 H491 0.931 . S
N466 Co462 2.148 . S
N466 C463 1.301 . S
N466 C464 1.317 . S
N467 C463 1.328 . S
N467 C465 1.350 . S
H468 C463 0.930 . S
H469 C464 0.930 . S
C470 O471 1.224 . S
C470 O489 1.247 . S
O471 C470 1.224 . S
N472 Co462 2.128 . S
N472 C473 1.355 . S
N472 C475 1.311 . S
C473 N472 1.355 . S
C473 C474 1.363 . S
C473 H485 0.929 . S
C474 C473 1.363 . S
C474 N476 1.375 . S
C474 H492 0.931 . S
C475 N472 1.311 . S
C475 N476 1.347 . S
C475 H486 0.929 . S
N476 C474 1.375 . S
N476 C475 1.347 . S
C477 C480 1.365 . S
C477 N482 1.328 . S
C477 H483 0.929 . S
C478 C479 1.362 . S
C478 C481 1.378 . S
C478 H493 0.929 . S
C479 C478 1.362 . S
C479 C480 1.366 . S
C480 C477 1.365 . S
C480 C479 1.366 . S
C480 H494 0.930 . S
C481 C478 1.378 . S
C481 N482 1.315 . S
C481 H484 0.930 . S
N482 Co462 2.194 . S
N482 C477 1.328 . S
N482 C481 1.315 . S
H483 C477 0.929 . S
H484 C481 0.930 . S
H485 C473 0.929 . S
H486 C475 0.929 . S
O487 Co462 2.351 . S
O487 C490 1.244 . S
O488 Co462 2.155 . S
O488 C490 1.240 . S
O489 Co462 2.096 . S
O489 C470 1.247 . S
C490 O487 1.244 . S
C490 O488 1.240 . S
H491 C465 0.931 . S
H492 C474 0.931 . S
H493 C478 0.929 . S
H494 C480 0.930 . S
Co495 N499 2.148 . S
Co495 N505 2.128 . S
Co495 N515 2.194 . S
Co495 O520 2.351 . S
Co495 O521 2.155 . S
Co495 O522 2.096 . S
C496 N499 1.301 . S
C496 N500 1.328 . S
C496 H501 0.930 . S
C497 C498 1.333 . S
C497 N499 1.317 . S
C497 H502 0.930 . S
C498 C497 1.333 . S
C498 N500 1.350 . S
C498 H524 0.931 . S
N499 Co495 2.148 . S
N499 C496 1.301 . S
N499 C497 1.317 . S
N500 C496 1.328 . S
N500 C498 1.350 . S
H501 C496 0.930 . S
H502 C497 0.930 . S
C503 O504 1.224 . S
C503 O522 1.247 . S
O504 C503 1.224 . S
N505 Co495 2.128 . S
N505 C506 1.355 . S
N505 C508 1.311 . S
C506 N505 1.355 . S
C506 C507 1.363 . S
C506 H518 0.929 . S
C507 C506 1.363 . S
C507 N509 1.375 . S
C507 H525 0.931 . S
C508 N505 1.311 . S
C508 N509 1.347 . S
C508 H519 0.929 . S
N509 C507 1.375 . S
N509 C508 1.347 . S
C510 C513 1.365 . S
C510 N515 1.328 . S
C510 H516 0.929 . S
C511 C512 1.362 . S
C511 C514 1.378 . S
C511 H526 0.929 . S
C512 C511 1.362 . S
C512 C513 1.366 . S
C513 C510 1.365 . S
C513 C512 1.366 . S
C513 H527 0.930 . S
C514 C511 1.378 . S
C514 N515 1.315 . S
C514 H517 0.930 . S
N515 Co495 2.194 . S
N515 C510 1.328 . S
N515 C514 1.315 . S
H516 C510 0.929 . S
H517 C514 0.930 . S
H518 C506 0.929 . S
H519 C508 0.929 . S
O520 Co495 2.351 . S
O520 C523 1.244 . S
O521 Co495 2.155 . S
O521 C523 1.240 . S
O522 Co495 2.096 . S
O522 C503 1.247 . S
C523 O520 1.244 . S
C523 O521 1.240 . S
H524 C498 0.931 . S
H525 C507 0.931 . S
H526 C511 0.929 . S
H527 C513 0.930 . S
C528 C529 1.387 . S
C528 H532 0.950 . S
C528 C537 1.390 . S
C529 C528 1.387 . S
C529 C531 1.387 . S
H530 C537 0.950 . S
C531 C529 1.387 . S
C531 C533 1.390 . S
C531 H535 0.950 . S
H532 C528 0.950 . S
C533 C531 1.390 . S
C533 C534 1.387 . S
C533 H536 0.950 . S
C534 C533 1.387 . S
C534 C537 1.387 . S
H535 C531 0.950 . S
H536 C533 0.950 . S
C537 C528 1.390 . S
C537 H530 0.950 . S
C537 C534 1.387 . S
C538 C539 1.387 . S
C538 H542 0.950 . S
C538 C547 1.390 . S
C539 C538 1.387 . S
C539 C541 1.387 . S
H540 C547 0.950 . S
C541 C539 1.387 . S
C541 C543 1.390 . S
C541 H545 0.950 . S
H542 C538 0.950 . S
C543 C541 1.390 . S
C543 C544 1.387 . S
C543 H546 0.950 . S
C544 C543 1.387 . S
C544 C547 1.387 . S
H545 C541 0.950 . S
H546 C543 0.950 . S
C547 C538 1.390 . S
C547 H540 0.950 . S
C547 C544 1.387 . S
C548 C549 1.387 . S
C548 H552 0.950 . S
C548 C557 1.390 . S
C549 C548 1.387 . S
C549 C551 1.387 . S
H550 C557 0.950 . S
C551 C549 1.387 . S
C551 C553 1.390 . S
C551 H555 0.950 . S
H552 C548 0.950 . S
C553 C551 1.390 . S
C553 C554 1.387 . S
C553 H556 0.950 . S
C554 C553 1.387 . S
C554 C557 1.387 . S
H555 C551 0.950 . S
H556 C553 0.950 . S
C557 C548 1.390 . S
C557 H550 0.950 . S
C557 C554 1.387 . S
C558 C559 1.387 . S
C558 H562 0.950 . S
C558 C567 1.390 . S
C559 C558 1.387 . S
C559 C561 1.387 . S
H560 C567 0.950 . S
C561 C559 1.387 . S
C561 C563 1.390 . S
C561 H565 0.950 . S
H562 C558 0.950 . S
C563 C561 1.390 . S
C563 C564 1.387 . S
C563 H566 0.950 . S
C564 C563 1.387 . S
C564 C567 1.387 . S
H565 C561 0.950 . S
H566 C563 0.950 . S
C567 C558 1.390 . S
C567 H560 0.950 . S
C567 C564 1.387 . S
C568 C569 1.387 . S
C568 H572 0.950 . S
C568 C577 1.390 1_556 S
C569 C568 1.387 . S
C569 C571 1.387 . S
H570 C577 0.950 . S
C571 C569 1.387 . S
C571 C573 1.390 1_556 S
C571 H575 0.950 . S
H572 C568 0.950 . S
C573 C571 1.390 1_554 S
C573 C574 1.387 . S
C573 H576 0.950 . S
C574 C573 1.387 . S
C574 C577 1.387 . S
H575 C571 0.950 . S
H576 C573 0.950 . S
C577 C568 1.390 1_554 S
C577 H570 0.950 . S
C577 C574 1.387 . S
C578 C579 1.387 . S
C578 H582 0.950 . S
C578 C587 1.390 1_556 S
C579 C578 1.387 . S
C579 C581 1.387 . S
H580 C587 0.950 . S
C581 C579 1.387 . S
C581 C583 1.390 1_556 S
C581 H585 0.950 . S
H582 C578 0.950 . S
C583 C581 1.390 1_554 S
C583 C584 1.387 . S
C583 H586 0.950 . S
C584 C583 1.387 . S
C584 C587 1.387 . S
H585 C581 0.950 . S
H586 C583 0.950 . S
C587 C578 1.390 1_554 S
C587 H580 0.950 . S
C587 C584 1.387 . S
C588 C589 1.387 . S
C588 H592 0.950 . S
C588 C597 1.390 1_556 S
C589 C588 1.387 . S
C589 C591 1.387 . S
H590 C597 0.950 . S
C591 C589 1.387 . S
C591 C593 1.390 1_556 S
C591 H595 0.950 . S
H592 C588 0.950 . S
C593 C591 1.390 1_554 S
C593 C594 1.387 . S
C593 H596 0.950 . S
C594 C593 1.387 . S
C594 C597 1.387 . S
H595 C591 0.950 . S
H596 C593 0.950 . S
C597 C588 1.390 1_554 S
C597 H590 0.950 . S
C597 C594 1.387 . S
C598 C599 1.387 . S
C598 H602 0.950 . S
C598 C607 1.390 1_554 S
C599 C598 1.387 . S
C599 C601 1.387 . S
H600 C607 0.950 . S
C601 C599 1.387 . S
C601 C603 1.390 1_554 S
C601 H605 0.950 . S
H602 C598 0.950 . S
C603 C601 1.390 1_556 S
C603 C604 1.387 . S
C603 H606 0.950 . S
C604 C603 1.387 . S
C604 C607 1.387 . S
H605 C601 0.950 . S
H606 C603 0.950 . S
C607 C598 1.390 1_556 S
C607 H600 0.950 . S
C607 C604 1.387 . S
C608 C609 1.387 . S
C608 H612 0.950 . S
C608 C617 1.390 . S
C609 C608 1.387 . S
C609 C611 1.387 . S
H610 C617 0.950 . S
C611 C609 1.387 . S
C611 C613 1.390 . S
C611 H615 0.950 . S
H612 C608 0.950 . S
C613 C611 1.390 . S
C613 C614 1.387 . S
C613 H616 0.950 . S
C614 C613 1.387 . S
C614 C617 1.387 . S
H615 C611 0.950 . S
H616 C613 0.950 . S
C617 C608 1.390 . S
C617 H610 0.950 . S
C617 C614 1.387 . S
C618 C619 1.387 . S
C618 H622 0.950 . S
C618 C627 1.390 . S
C619 C618 1.387 . S
C619 C621 1.387 . S
H620 C627 0.950 . S
C621 C619 1.387 . S
C621 C623 1.390 . S
C621 H625 0.950 . S
H622 C618 0.950 . S
C623 C621 1.390 . S
C623 C624 1.387 . S
C623 H626 0.950 . S
C624 C623 1.387 . S
C624 C627 1.387 . S
H625 C621 0.950 . S
H626 C623 0.950 . S
C627 C618 1.390 . S
C627 H620 0.950 . S
C627 C624 1.387 . S
C628 C629 1.387 . S
C628 H632 0.950 . S
C628 C637 1.390 . S
C629 C628 1.387 . S
C629 C631 1.387 . S
H630 C637 0.950 . S
C631 C629 1.387 . S
C631 C633 1.390 . S
C631 H635 0.950 . S
H632 C628 0.950 . S
C633 C631 1.390 . S
C633 C634 1.387 . S
C633 H636 0.950 . S
C634 C633 1.387 . S
C634 C637 1.387 . S
H635 C631 0.950 . S
H636 C633 0.950 . S
C637 C628 1.390 . S
C637 H630 0.950 . S
C637 C634 1.387 . S
C638 C639 1.387 . S
C638 H642 0.950 1_565 S
C638 C647 1.390 . S
C639 C638 1.387 . S
C639 C641 1.387 . S
H640 C647 0.950 . S
C641 C639 1.387 . S
C641 C643 1.390 . S
C641 H645 0.950 . S
H642 C638 0.950 1_545 S
C643 C641 1.390 . S
C643 C644 1.387 . S
C643 H646 0.950 . S
C644 C643 1.387 . S
C644 C647 1.387 . S
H645 C641 0.950 . S
H646 C643 0.950 . S
C647 C638 1.390 . S
C647 H640 0.950 . S
C647 C644 1.387 . S
C648 C649 1.387 . S
C648 H652 0.950 . S
C648 C657 1.390 . S
C649 C648 1.387 . S
C649 C651 1.387 . S
H650 C657 0.950 . S
C651 C649 1.387 . S
C651 C653 1.390 . S
C651 H655 0.950 . S
H652 C648 0.950 . S
C653 C651 1.390 . S
C653 C654 1.387 . S
C653 H656 0.950 . S
C654 C653 1.387 . S
C654 C657 1.387 . S
H655 C651 0.950 . S
H656 C653 0.950 . S
C657 C648 1.390 . S
C657 H650 0.950 . S
C657 C654 1.387 . S
C658 C659 1.387 . S
C658 H662 0.950 . S
C658 C667 1.390 . S
C659 C658 1.387 . S
C659 C661 1.387 . S
H660 C667 0.950 . S
C661 C659 1.387 . S
C661 C663 1.390 . S
C661 H665 0.950 . S
H662 C658 0.950 . S
C663 C661 1.390 . S
C663 C664 1.387 . S
C663 H666 0.950 . S
C664 C663 1.387 . S
C664 C667 1.387 . S
H665 C661 0.950 . S
H666 C663 0.950 . S
C667 C658 1.390 . S
C667 H660 0.950 . S
C667 C664 1.387 . S
C668 C669 1.387 . S
C668 H672 0.950 . S
C668 C677 1.390 . S
C669 C668 1.387 . S
C669 C671 1.387 . S
H670 C677 0.950 . S
C671 C669 1.387 . S
C671 C673 1.390 . S
C671 H675 0.950 . S
H672 C668 0.950 . S
C673 C671 1.390 . S
C673 C674 1.387 . S
C673 H676 0.950 . S
C674 C673 1.387 . S
C674 C677 1.387 . S
H675 C671 0.950 . S
H676 C673 0.950 . S
C677 C668 1.390 . S
C677 H670 0.950 . S
C677 C674 1.387 . S
C678 C679 1.387 . S
C678 H682 0.950 . S
C678 C687 1.390 . S
C679 C678 1.387 . S
C679 C681 1.387 . S
H680 C687 0.950 . S
C681 C679 1.387 . S
C681 C683 1.390 . S
C681 H685 0.950 . S
H682 C678 0.950 . S
C683 C681 1.390 . S
C683 C684 1.387 . S
C683 H686 0.950 1_565 S
C684 C683 1.387 . S
C684 C687 1.387 . S
H685 C681 0.950 . S
H686 C683 0.950 1_545 S
C687 C678 1.390 . S
C687 H680 0.950 . S
C687 C684 1.387 . S
C688 C689 1.387 . S
C688 H692 0.950 . S
C688 C697 1.390 . S
C689 C688 1.387 . S
C689 C691 1.387 . S
H690 C697 0.950 . S
C691 C689 1.387 . S
C691 C693 1.390 . S
C691 H695 0.950 . S
H692 C688 0.950 . S
C693 C691 1.390 . S
C693 C694 1.387 . S
C693 H696 0.950 . S
C694 C693 1.387 . S
C694 C697 1.387 . S
H695 C691 0.950 . S
H696 C693 0.950 . S
C697 C688 1.390 . S
C697 H690 0.950 . S
C697 C694 1.387 . S
C698 C699 1.387 . S
C698 H702 0.950 . S
C698 C707 1.390 . S
C699 C698 1.387 . S
C699 C701 1.387 . S
H700 C707 0.950 . S
C701 C699 1.387 . S
C701 C703 1.390 . S
C701 H705 0.950 . S
H702 C698 0.950 . S
C703 C701 1.390 . S
C703 C704 1.387 . S
C703 H706 0.950 . S
C704 C703 1.387 . S
C704 C707 1.387 . S
H705 C701 0.950 . S
H706 C703 0.950 . S
C707 C698 1.390 . S
C707 H700 0.950 . S
C707 C704 1.387 . S
C708 C709 1.387 . S
C708 H712 0.950 . S
C708 C717 1.390 . S
C709 C708 1.387 . S
C709 C711 1.387 . S
H710 C717 0.950 . S
C711 C709 1.387 . S
C711 C713 1.390 . S
C711 H715 0.950 . S
H712 C708 0.950 . S
C713 C711 1.390 . S
C713 C714 1.387 . S
C713 H716 0.950 . S
C714 C713 1.387 . S
C714 C717 1.387 . S
H715 C711 0.950 . S
H716 C713 0.950 . S
C717 C708 1.390 . S
C717 H710 0.950 . S
C717 C714 1.387 . S
C718 C719 1.387 . S
C718 H722 0.950 . S
C718 C727 1.390 . S
C719 C718 1.387 . S
C719 C721 1.387 . S
H720 C727 0.950 . S
C721 C719 1.387 . S
C721 C723 1.390 . S
C721 H725 0.950 . S
H722 C718 0.950 . S
C723 C721 1.390 . S
C723 C724 1.387 . S
C723 H726 0.950 . S
C724 C723 1.387 . S
C724 C727 1.387 . S
H725 C721 0.950 . S
H726 C723 0.950 . S
C727 C718 1.390 . S
C727 H720 0.950 . S
C727 C724 1.387 . S
C728 C729 1.387 . S
C728 H732 0.950 . S
C728 C737 1.390 . S
C729 C728 1.387 . S
C729 C731 1.387 . S
H730 C737 0.950 . S
C731 C729 1.387 . S
C731 C733 1.390 . S
C731 H735 0.950 . S
H732 C728 0.950 . S
C733 C731 1.390 . S
C733 C734 1.387 . S
C733 H736 0.950 . S
C734 C733 1.387 . S
C734 C737 1.387 . S
H735 C731 0.950 . S
H736 C733 0.950 . S
C737 C728 1.390 . S
C737 H730 0.950 . S
C737 C734 1.387 . S
C738 C739 1.387 . S
C738 H742 0.950 . S
C738 C747 1.390 . S
C739 C738 1.387 . S
C739 C741 1.387 . S
H740 C747 0.950 . S
C741 C739 1.387 . S
C741 C743 1.390 . S
C741 H745 0.950 . S
H742 C738 0.950 . S
C743 C741 1.390 . S
C743 C744 1.387 . S
C743 H746 0.950 . S
C744 C743 1.387 . S
C744 C747 1.387 . S
H745 C741 0.950 . S
H746 C743 0.950 . S
C747 C738 1.390 . S
C747 H740 0.950 . S
C747 C744 1.387 . S
C748 C749 1.387 . S
C748 H752 0.950 . S
C748 C757 1.390 . S
C749 C748 1.387 . S
C749 C751 1.387 . S
H750 C757 0.950 . S
C751 C749 1.387 . S
C751 C753 1.390 . S
C751 H755 0.950 . S
H752 C748 0.950 . S
C753 C751 1.390 . S
C753 C754 1.387 . S
C753 H756 0.950 . S
C754 C753 1.387 . S
C754 C757 1.387 . S
H755 C751 0.950 . S
H756 C753 0.950 . S
C757 C748 1.390 . S
C757 H750 0.950 . S
C757 C754 1.387 . S
C758 C759 1.387 . S
C758 H762 0.950 . S
C758 C767 1.390 . S
C759 C758 1.387 . S
C759 C761 1.387 . S
H760 C767 0.950 . S
C761 C759 1.387 . S
C761 C763 1.390 . S
C761 H765 0.950 . S
H762 C758 0.950 . S
C763 C761 1.390 . S
C763 C764 1.387 . S
C763 H766 0.950 . S
C764 C763 1.387 . S
C764 C767 1.387 . S
H765 C761 0.950 . S
H766 C763 0.950 . S
C767 C758 1.390 . S
C767 H760 0.950 . S
C767 C764 1.387 . S
C768 C769 1.387 . S
C768 H772 0.950 . S
C768 C777 1.390 . S
C769 C768 1.387 . S
C769 C771 1.387 . S
H770 C777 0.950 . S
C771 C769 1.387 . S
C771 C773 1.390 . S
C771 H775 0.950 . S
H772 C768 0.950 . S
C773 C771 1.390 . S
C773 C774 1.387 . S
C773 H776 0.950 . S
C774 C773 1.387 . S
C774 C777 1.387 . S
H775 C771 0.950 . S
H776 C773 0.950 . S
C777 C768 1.390 . S
C777 H770 0.950 . S
C777 C774 1.387 . S
C778 C779 1.387 . S
C778 H782 0.950 . S
C778 C787 1.390 . S
C779 C778 1.387 . S
C779 C781 1.387 . S
H780 C787 0.950 . S
C781 C779 1.387 . S
C781 C783 1.390 . S
C781 H785 0.950 . S
H782 C778 0.950 . S
C783 C781 1.390 . S
C783 C784 1.387 . S
C783 H786 0.950 . S
C784 C783 1.387 . S
C784 C787 1.387 . S
H785 C781 0.950 . S
H786 C783 0.950 . S
C787 C778 1.390 . S
C787 H780 0.950 . S
C787 C784 1.387 . S
C788 C789 1.387 . S
C788 H792 0.950 . S
C788 C797 1.390 . S
C789 C788 1.387 . S
C789 C791 1.387 . S
H790 C797 0.950 1_455 S
C791 C789 1.387 . S
C791 C793 1.390 . S
C791 H795 0.950 . S
H792 C788 0.950 . S
C793 C791 1.390 . S
C793 C794 1.387 . S
C793 H796 0.950 . S
C794 C793 1.387 . S
C794 C797 1.387 . S
H795 C791 0.950 . S
H796 C793 0.950 . S
C797 C788 1.390 . S
C797 H790 0.950 1_655 S
C797 C794 1.387 . S
C798 C799 1.387 . S
C798 H802 0.950 . S
C798 C807 1.390 . S
C799 C798 1.387 . S
C799 C801 1.387 . S
H800 C807 0.950 . S
C801 C799 1.387 . S
C801 C803 1.390 . S
C801 H805 0.950 . S
H802 C798 0.950 . S
C803 C801 1.390 . S
C803 C804 1.387 . S
C803 H806 0.950 . S
C804 C803 1.387 . S
C804 C807 1.387 . S
H805 C801 0.950 . S
H806 C803 0.950 . S
C807 C798 1.390 . S
C807 H800 0.950 . S
C807 C804 1.387 . S
C808 C809 1.387 . S
C808 H812 0.950 . S
C808 C817 1.390 . S
C809 C808 1.387 . S
C809 C811 1.387 . S
H810 C817 0.950 . S
C811 C809 1.387 . S
C811 C813 1.390 . S
C811 H815 0.950 . S
H812 C808 0.950 . S
C813 C811 1.390 . S
C813 C814 1.387 . S
C813 H816 0.950 . S
C814 C813 1.387 . S
C814 C817 1.387 . S
H815 C811 0.950 . S
H816 C813 0.950 . S
C817 C808 1.390 . S
C817 H810 0.950 . S
C817 C814 1.387 . S
C818 C819 1.387 . S
C818 H822 0.950 . S
C818 C827 1.390 . S
C819 C818 1.387 . S
C819 C821 1.387 . S
H820 C827 0.950 . S
C821 C819 1.387 . S
C821 C823 1.390 . S
C821 H825 0.950 . S
H822 C818 0.950 . S
C823 C821 1.390 . S
C823 C824 1.387 . S
C823 H826 0.950 . S
C824 C823 1.387 . S
C824 C827 1.387 . S
H825 C821 0.950 . S
H826 C823 0.950 . S
C827 C818 1.390 . S
C827 H820 0.950 . S
C827 C824 1.387 . S
C828 C829 1.387 . S
C828 H832 0.950 . S
C828 C837 1.390 . S
C829 C828 1.387 . S
C829 C831 1.387 . S
H830 C837 0.950 . S
C831 C829 1.387 . S
C831 C833 1.390 . S
C831 H835 0.950 . S
H832 C828 0.950 . S
C833 C831 1.390 . S
C833 C834 1.387 . S
C833 H836 0.950 . S
C834 C833 1.387 . S
C834 C837 1.387 . S
H835 C831 0.950 . S
H836 C833 0.950 . S
C837 C828 1.390 . S
C837 H830 0.950 . S
C837 C834 1.387 . S
C838 C839 1.387 . S
C838 H842 0.950 . S
C838 C847 1.390 . S
C839 C838 1.387 . S
C839 C841 1.387 . S
H840 C847 0.950 . S
C841 C839 1.387 . S
C841 C843 1.390 . S
C841 H845 0.950 . S
H842 C838 0.950 . S
C843 C841 1.390 . S
C843 C844 1.387 . S
C843 H846 0.959 . S
C844 C843 1.387 . S
C844 C847 1.387 . S
H845 C841 0.950 . S
H846 C843 0.959 . S
C847 C838 1.390 . S
C847 H840 0.950 . S
C847 C844 1.387 . S
C848 C849 1.387 . S
C848 H852 0.950 . S
C848 C857 1.390 . S
C849 C848 1.387 . S
C849 C851 1.387 . S
H850 C857 0.950 . S
C851 C849 1.387 . S
C851 C853 1.390 . S
C851 H855 0.950 . S
H852 C848 0.950 . S
C853 C851 1.390 . S
C853 C854 1.387 . S
C853 H856 0.950 . S
C854 C853 1.387 . S
C854 C857 1.387 . S
H855 C851 0.950 . S
H856 C853 0.950 . S
C857 C848 1.390 . S
C857 H850 0.950 . S
C857 C854 1.387 . S
C858 C859 1.387 . S
C858 H862 0.950 . S
C858 C867 1.390 . S
C859 C858 1.387 . S
C859 C861 1.387 . S
H860 C867 0.950 . S
C861 C859 1.387 . S
C861 C863 1.390 . S
C861 H865 0.950 . S
H862 C858 0.950 . S
C863 C861 1.390 . S
C863 C864 1.387 . S
C863 H866 0.950 . S
C864 C863 1.387 . S
C864 C867 1.387 . S
H865 C861 0.950 . S
H866 C863 0.950 . S
C867 C858 1.390 . S
C867 H860 0.950 . S
C867 C864 1.387 . S
C868 C869 1.387 . S
C868 H872 0.950 . S
C868 C877 1.390 . S
C869 C868 1.387 . S
C869 C871 1.387 . S
H870 C877 0.950 . S
C871 C869 1.387 . S
C871 C873 1.390 . S
C871 H875 0.950 . S
H872 C868 0.950 . S
C873 C871 1.390 . S
C873 C874 1.387 . S
C873 H876 0.950 . S
C874 C873 1.387 . S
C874 C877 1.387 . S
H875 C871 0.950 . S
H876 C873 0.950 . S
C877 C868 1.390 . S
C877 H870 0.950 . S
C877 C874 1.387 . S
C878 C879 1.387 . S
C878 H882 0.950 . S
C878 C887 1.390 . S
C879 C878 1.387 . S
C879 C881 1.387 . S
H880 C887 0.950 . S
C881 C879 1.387 . S
C881 C883 1.390 . S
C881 H885 0.950 . S
H882 C878 0.950 . S
C883 C881 1.390 . S
C883 C884 1.387 . S
C883 H886 0.950 . S
C884 C883 1.387 . S
C884 C887 1.387 . S
H885 C881 0.950 . S
H886 C883 0.950 . S
C887 C878 1.390 . S
C887 H880 0.950 . S
C887 C884 1.387 . S
C888 C889 1.387 . S
C888 H892 0.950 . S
C888 C897 1.390 . S
C889 C888 1.387 . S
C889 C891 1.387 . S
H890 C897 0.950 . S
C891 C889 1.387 . S
C891 C893 1.390 . S
C891 H895 0.950 . S
H892 C888 0.950 . S
C893 C891 1.390 . S
C893 C894 1.387 . S
C893 H896 0.950 . S
C894 C893 1.387 . S
C894 C897 1.387 . S
H895 C891 0.950 . S
H896 C893 0.950 . S
C897 C888 1.390 . S
C897 H890 0.950 . S
C897 C894 1.387 . S
C898 C899 1.387 . S
C898 H902 0.950 . S
C898 C907 1.390 . S
C899 C898 1.387 . S
C899 C901 1.387 . S
H900 C907 0.950 . S
C901 C899 1.387 . S
C901 C903 1.390 . S
C901 H905 0.950 . S
H902 C898 0.950 . S
C903 C901 1.390 . S
C903 C904 1.387 . S
C903 H906 0.950 . S
C904 C903 1.387 . S
C904 C907 1.387 . S
H905 C901 0.950 . S
H906 C903 0.950 . S
C907 C898 1.390 . S
C907 H900 0.950 . S
C907 C904 1.387 . S
C908 C909 1.387 . S
C908 H912 0.950 . S
C908 C917 1.390 . S
C909 C908 1.387 . S
C909 C911 1.387 . S
H910 C917 0.950 . S
C911 C909 1.387 . S
C911 C913 1.390 . S
C911 H915 0.950 . S
H912 C908 0.950 . S
C913 C911 1.390 . S
C913 C914 1.387 . S
C913 H916 0.950 . S
C914 C913 1.387 . S
C914 C917 1.387 . S
H915 C911 0.950 . S
H916 C913 0.950 . S
C917 C908 1.390 . S
C917 H910 0.950 . S
C917 C914 1.387 . S
C918 C919 1.387 . S
C918 H922 0.950 . S
C918 C927 1.390 . S
C919 C918 1.387 . S
C919 C921 1.387 . S
H920 C927 0.950 . S
C921 C919 1.387 . S
C921 C923 1.390 . S
C921 H925 0.950 . S
H922 C918 0.950 . S
C923 C921 1.390 . S
C923 C924 1.387 . S
C923 H926 0.950 . S
C924 C923 1.387 . S
C924 C927 1.387 . S
H925 C921 0.950 . S
H926 C923 0.950 . S
C927 C918 1.390 . S
C927 H920 0.950 . S
C927 C924 1.387 . S
C529 C17 1.589 . S
C534 C215 1.589 . S
C539 C248 1.589 . S
C544 C50 1.589 . S
C549 C149 1.591 . S
C554 C83 1.591 . S
C559 C182 1.589 . S
C564 C116 1.589 . S
C569 C281 1.589 . S
C574 C479 1.589 . S
C579 C314 1.591 . S
C584 C512 1.591 . S
C589 C347 1.591 . S
C594 C413 1.591 . S
C599 C446 1.589 . S
C604 C380 1.589 . S
C609 C28 1.572 . S
C614 N104 1.561 . S
C619 C61 1.572 . S
C624 N5 1.561 . S
C629 N38 1.558 . S
C634 C94 1.572 1_655 S
C639 C127 1.571 1_565 S
C644 N71 1.560 . S
C649 N170 1.558 . S
C654 C160 1.572 . S
C659 N203 1.561 . S
C664 C193 1.572 . S
C669 N236 1.561 . S
C674 C226 1.573 1_655 S
C679 N137 1.559 . S
C684 C259 1.574 1_565 S
C689 C292 1.573 . S
C694 N368 1.559 . S
C699 N269 1.560 . S
C704 C325 1.574 . S
C709 C358 1.570 . S
C714 N302 1.558 . S
C719 C391 1.572 . S
C724 N335 1.561 . S
C729 C424 1.572 . S
C734 N434 1.561 . S
C739 C457 1.570 . S
C744 N467 1.559 . S
C749 C490 1.572 . S
C754 N500 1.558 . S
C759 N401 1.561 . S
C764 C523 1.574 . S
C769 N509 1.284 . S
C774 N14 1.286 . S
C779 N47 1.283 . S
C784 N410 1.285 . S
C789 N443 1.283 . S
C794 N80 1.284 . S
C799 N113 1.283 . S
C804 N476 1.286 . S
C809 N311 1.283 . S
C814 N146 1.284 . S
C819 N179 1.286 . S
C824 N344 1.284 . S
C829 N212 1.285 . S
C834 N377 1.283 . S
C839 N278 1.283 . S
C844 N245 1.286 . S
C849 C140 1.637 . S
C854 C371 1.638 . S
C859 C173 1.638 . S
C864 C272 1.638 . S
C869 C206 1.637 . S
C874 C305 1.637 . S
C879 C338 1.637 . S
C884 C239 1.637 . S
C889 C8 1.637 . S
C894 C437 1.637 . S
C899 C470 1.637 . S
C904 C41 1.637 . S
C909 C74 1.637 . S
C914 C503 1.637 . S
C919 C107 1.637 . S
C924 C404 1.637 . S
