# Generated by pormake.
# Topology unb, (4)-cn, num edge types: 1
# Building blocks:
#     Node 0, Type 0, BuildingBlock: CEKHIL_clean_sbu_0, # of connection points: 4
#     Node 1, Type 0, BuildingBlock: CEKHIL_clean_sbu_0, # of connection points: 4
#     Node 2, Type 0, BuildingBlock: CEKHIL_clean_sbu_0, # of connection points: 4
#     Node 3, Type 0, BuildingBlock: CEKHIL_clean_sbu_0, # of connection points: 4
#     Node 4, Type 0, BuildingBlock: CEKHIL_clean_sbu_0, # of connection points: 4
#     Node 5, Type 0, BuildingBlock: CEKHIL_clean_sbu_0, # of connection points: 4
#     Node 6, Type 0, BuildingBlock: CEKHIL_clean_sbu_0, # of connection points: 4
#     Node 7, Type 0, BuildingBlock: CEKHIL_clean_sbu_0, # of connection points: 4
#     Node 8, Type 0, BuildingBlock: CEKHIL_clean_sbu_0, # of connection points: 4
#     Node 9, Type 0, BuildingBlock: CEKHIL_clean_sbu_0, # of connection points: 4
#     Node 10, Type 0, BuildingBlock: CEKHIL_clean_sbu_0, # of connection points: 4
#     Node 11, Type 0, BuildingBlock: CEKHIL_clean_sbu_0, # of connection points: 4
#     Node 12, Type 0, BuildingBlock: CEKHIL_clean_sbu_0, # of connection points: 4
#     Node 13, Type 0, BuildingBlock: CEKHIL_clean_sbu_0, # of connection points: 4
#     Node 14, Type 0, BuildingBlock: CEKHIL_clean_sbu_0, # of connection points: 4
#     Node 15, Type 0, BuildingBlock: CEKHIL_clean_sbu_0, # of connection points: 4
#     Node 16, Type 0, BuildingBlock: CEKHIL_clean_sbu_0, # of connection points: 4
#     Node 17, Type 0, BuildingBlock: CEKHIL_clean_sbu_0, # of connection points: 4
#     Edge 18, Type (0, 0), BuildingBlock: EYOCIG_clean_linker_4, # of connection points: 2
#     Edge 19, Type (0, 0), BuildingBlock: EYOCIG_clean_linker_4, # of connection points: 2
#     Edge 20, Type (0, 0), BuildingBlock: EYOCIG_clean_linker_4, # of connection points: 2
#     Edge 21, Type (0, 0), BuildingBlock: EYOCIG_clean_linker_4, # of connection points: 2
#     Edge 22, Type (0, 0), BuildingBlock: EYOCIG_clean_linker_4, # of connection points: 2
#     Edge 23, Type (0, 0), BuildingBlock: EYOCIG_clean_linker_4, # of connection points: 2
#     Edge 24, Type (0, 0), BuildingBlock: EYOCIG_clean_linker_4, # of connection points: 2
#     Edge 25, Type (0, 0), BuildingBlock: EYOCIG_clean_linker_4, # of connection points: 2
#     Edge 26, Type (0, 0), BuildingBlock: EYOCIG_clean_linker_4, # of connection points: 2
#     Edge 27, Type (0, 0), BuildingBlock: EYOCIG_clean_linker_4, # of connection points: 2
#     Edge 28, Type (0, 0), BuildingBlock: EYOCIG_clean_linker_4, # of connection points: 2
#     Edge 29, Type (0, 0), BuildingBlock: EYOCIG_clean_linker_4, # of connection points: 2
#     Edge 30, Type (0, 0), BuildingBlock: EYOCIG_clean_linker_4, # of connection points: 2
#     Edge 31, Type (0, 0), BuildingBlock: EYOCIG_clean_linker_4, # of connection points: 2
#     Edge 32, Type (0, 0), BuildingBlock: EYOCIG_clean_linker_4, # of connection points: 2
#     Edge 33, Type (0, 0), BuildingBlock: EYOCIG_clean_linker_4, # of connection points: 2
#     Edge 34, Type (0, 0), BuildingBlock: EYOCIG_clean_linker_4, # of connection points: 2
#     Edge 35, Type (0, 0), BuildingBlock: EYOCIG_clean_linker_4, # of connection points: 2
#     Edge 36, Type (0, 0), BuildingBlock: EYOCIG_clean_linker_4, # of connection points: 2
#     Edge 37, Type (0, 0), BuildingBlock: EYOCIG_clean_linker_4, # of connection points: 2
#     Edge 38, Type (0, 0), BuildingBlock: EYOCIG_clean_linker_4, # of connection points: 2
#     Edge 39, Type (0, 0), BuildingBlock: EYOCIG_clean_linker_4, # of connection points: 2
#     Edge 40, Type (0, 0), BuildingBlock: EYOCIG_clean_linker_4, # of connection points: 2
#     Edge 41, Type (0, 0), BuildingBlock: EYOCIG_clean_linker_4, # of connection points: 2
#     Edge 42, Type (0, 0), BuildingBlock: EYOCIG_clean_linker_4, # of connection points: 2
#     Edge 43, Type (0, 0), BuildingBlock: EYOCIG_clean_linker_4, # of connection points: 2
#     Edge 44, Type (0, 0), BuildingBlock: EYOCIG_clean_linker_4, # of connection points: 2
#     Edge 45, Type (0, 0), BuildingBlock: EYOCIG_clean_linker_4, # of connection points: 2
#     Edge 46, Type (0, 0), BuildingBlock: EYOCIG_clean_linker_4, # of connection points: 2
#     Edge 47, Type (0, 0), BuildingBlock: EYOCIG_clean_linker_4, # of connection points: 2
#     Edge 48, Type (0, 0), BuildingBlock: EYOCIG_clean_linker_4, # of connection points: 2
#     Edge 49, Type (0, 0), BuildingBlock: EYOCIG_clean_linker_4, # of connection points: 2
#     Edge 50, Type (0, 0), BuildingBlock: EYOCIG_clean_linker_4, # of connection points: 2
#     Edge 51, Type (0, 0), BuildingBlock: EYOCIG_clean_linker_4, # of connection points: 2
#     Edge 52, Type (0, 0), BuildingBlock: EYOCIG_clean_linker_4, # of connection points: 2
#     Edge 53, Type (0, 0), BuildingBlock: EYOCIG_clean_linker_4, # of connection points: 2
# Relax obj value: 0.112
# Max RMSD: 0.093
# Mean RMSD: 0.093
data_MOF--net-unb--node1-CEKHIL_clean_sbu_0--edge1-EYOCIG_clean_linker_4
_symmetry_space_group_name_H-M    P1
_symmetry_Int_Tables_number       1
_symmetry_cell_setting            triclinic
loop_
_symmetry_equiv_pos_as_xyz
'x, y, z'
_cell_length_a     47.502458
_cell_length_b     47.521366
_cell_length_c     20.853235
_cell_angle_alpha  90.089273
_cell_angle_beta   89.864387
_cell_angle_gamma 120.08019
loop_
_atom_site_label
_atom_site_type_symbol
_atom_site_fract_x
_atom_site_fract_y
_atom_site_fract_z
_atom_type_partial_charge
Co0 Co 0.17929 0.30369 0.07148 0.0
O1 O 0.14341 0.31234 0.06584 0.0
O2 O 0.14048 0.2658 0.03968 0.0
C3 C 0.19841 0.32737 0.17084 0.0
O4 O 0.20905 0.28425 0.0664 0.0
Co5 Co 0.2512 0.35823 0.07508 0.0
O6 O 0.25941 0.32408 0.04083 0.0
C7 C 0.21145 0.34641 0.96102 0.0
C8 C 0.12643 0.28317 0.04234 0.0
C9 C 0.23775 0.29424 0.04378 0.0
O10 O 0.1907 0.31849 0.98199 0.0
O11 O 0.23598 0.36746 -0.00741 0.0
O12 O 0.17422 0.29773 0.16534 0.0
O13 O 0.20916 0.34244 0.11697 0.0
Co14 Co 0.78022 0.89218 0.07194 0.0
O15 O 0.77162 0.8477 0.06527 0.0
O16 O 0.81834 0.89154 0.04049 0.0
C17 C 0.75601 0.88718 0.17086 0.0
O18 O 0.79938 0.94138 0.06812 0.0
Co19 Co 0.72492 0.90849 0.07469 0.0
O20 O 0.75924 0.95139 0.04271 0.0
C21 C 0.73857 0.88227 0.95999 0.0
C22 C 0.80091 0.86006 0.04217 0.0
C23 C 0.78918 0.96001 0.04632 0.0
O24 O 0.76619 0.88932 0.98216 0.0
O25 O 0.71692 0.88501 -0.00895 0.0
O26 O 0.78567 0.89269 0.16584 0.0
O27 O 0.74118 0.88284 0.11676 0.0
Co28 Co 0.19204 0.90518 0.07305 0.0
O29 O 0.23669 0.94095 0.06746 0.0
O30 O 0.19319 0.94411 0.04173 0.0
C31 C 0.19651 0.88593 0.17207 0.0
O32 O 0.14275 0.87525 0.06793 0.0
Co33 Co 0.17498 0.83338 0.076 0.0
O34 O 0.13269 0.82519 0.04142 0.0
C35 C 0.20118 0.87275 0.96077 0.0
C36 C 0.22465 0.95805 0.04425 0.0
C37 C 0.12427 0.84664 0.04468 0.0
O38 O 0.19531 0.89407 -0.01659 0.0
O39 O 0.19789 0.84814 -0.00834 0.0
O40 O 0.19104 0.91006 0.16688 0.0
O41 O 0.20093 0.87532 0.11809 0.0
Co42 Co 0.32047 0.16189 0.89202 0.0
O43 O 0.3296 0.12642 0.89977 0.0
O44 O 0.28256 0.12299 0.9237 0.0
C45 C 0.34484 0.18081 0.79335 0.0
O46 O 0.30092 0.19158 0.89479 0.0
Co47 Co 0.37535 0.23412 0.88714 0.0
O48 O 0.34075 0.24194 0.92058 0.0
C49 C 0.36188 0.19519 0.00301 0.0
C50 C 0.30031 0.1093 0.92271 0.0
C51 C 0.31088 0.22033 0.91709 0.0
O52 O 0.33436 0.17387 0.98152 0.0
O53 O 0.38344 0.21912 0.97087 0.0
O54 O 0.31528 0.15639 0.79813 0.0
O55 O 0.35941 0.19174 0.84746 0.0
Co56 Co 0.92186 0.17496 0.89292 0.0
O57 O 0.95791 0.2194 0.89945 0.0
O58 O 0.96042 0.17553 0.92502 0.0
C59 C 0.90322 0.18008 0.79349 0.0
O60 O 0.89164 0.12574 0.89717 0.0
Co61 Co 0.85027 0.15844 0.88909 0.0
O62 O 0.84151 0.11583 0.92283 0.0
C63 C 0.88969 0.18529 0.0039 0.0
C64 C 0.97464 0.207 0.923 0.0
C65 C 0.86285 0.10726 0.91969 0.0
O66 O 0.91032 0.1781 0.98243 0.0
O67 O 0.86533 0.18225 0.97245 0.0
O68 O 0.92717 0.17432 0.799 0.0
O69 O 0.89244 0.18434 0.84743 0.0
Co70 Co 0.90906 0.76383 0.89187 0.0
O71 O 0.8645 0.75506 0.89847 0.0
O72 O 0.90823 0.80177 0.92358 0.0
C73 C 0.9041 0.7399 0.79277 0.0
O74 O 0.95836 0.78317 0.8958 0.0
Co75 Co 0.92582 0.70892 0.88818 0.0
O76 O 0.96857 0.74317 0.92093 0.0
C77 C 0.90005 0.72226 0.00386 0.0
C78 C 0.87675 0.78429 0.92163 0.0
C79 C 0.97707 0.77307 0.91761 0.0
O80 O 0.90617 0.74958 0.98148 0.0
O81 O 0.90299 0.7008 0.97261 0.0
O82 O 0.90964 0.76955 0.79808 0.0
O83 O 0.89984 0.72494 0.84671 0.0
Co84 Co 0.84567 0.63716 0.40483 0.0
O85 O 0.81036 0.64656 0.39732 0.0
O86 O 0.8067 0.59953 0.37269 0.0
C87 C 0.86428 0.66116 0.50399 0.0
O88 O 0.87497 0.6171 0.40174 0.0
Co89 Co 0.9181 0.69106 0.41097 0.0
O90 O 0.92577 0.65647 0.37736 0.0
C91 C 0.87916 0.67975 0.29566 0.0
C92 C 0.79312 0.61735 0.37419 0.0
C93 C 0.9038 0.62673 0.38015 0.0
O94 O 0.858 0.65173 0.31552 0.0
O95 O 0.90327 0.70055 0.32845 0.0
O96 O 0.83986 0.63163 0.49869 0.0
O97 O 0.87561 0.67585 0.45006 0.0
Co98 Co 0.44745 0.22534 0.40598 0.0
O99 O 0.43802 0.18059 0.39876 0.0
O100 O 0.485 0.22399 0.37337 0.0
C101 C 0.42383 0.22046 0.50535 0.0
O102 O 0.46731 0.27467 0.40241 0.0
Co103 Co 0.39316 0.24332 0.41268 0.0
O104 O 0.42759 0.28538 0.37756 0.0
C105 C 0.40518 0.21679 0.29642 0.0
C106 C 0.46715 0.19255 0.37509 0.0
C107 C 0.45742 0.29347 0.38014 0.0
O108 O 0.43283 0.22288 0.31687 0.0
O109 O 0.38416 0.21974 0.32928 0.0
O110 O 0.45332 0.22553 0.49974 0.0
O111 O 0.40891 0.21666 0.45166 0.0
Co112 Co 0.8591 0.23813 0.40455 0.0
O113 O 0.90382 0.27367 0.39814 0.0
O114 O 0.86043 0.27701 0.37228 0.0
C115 C 0.86398 0.21941 0.50411 0.0
O116 O 0.80972 0.20856 0.40007 0.0
Co117 Co 0.84105 0.16611 0.40964 0.0
O118 O 0.79889 0.15811 0.37494 0.0
C119 C 0.86922 0.20539 0.29484 0.0
C120 C 0.89187 0.29079 0.37458 0.0
C121 C 0.79088 0.17987 0.37751 0.0
O122 O 0.8622 0.22632 0.31526 0.0
O123 O 0.86556 0.18097 0.32694 0.0
O124 O 0.85856 0.24358 0.49847 0.0
O125 O 0.86784 0.20832 0.45024 0.0
Co126 Co 0.98733 0.49506 0.22628 0.0
O127 O 0.99669 0.45972 0.23249 0.0
O128 O 0.94985 0.45612 0.25903 0.0
C129 C 1.01073 0.51358 0.12659 0.0
O130 O 0.96739 0.52445 0.231 0.0
Co131 Co 1.04117 0.56741 0.21899 0.0
O132 O 1.00702 0.5751 0.25518 0.0
C133 C 1.03038 0.52889 0.33488 0.0
C134 C 0.96761 0.44249 0.25632 0.0
C135 C 0.97724 0.55316 0.25338 0.0
O136 O 1.00253 0.50726 0.31522 0.0
O137 O 1.05089 0.55312 0.30188 0.0
O138 O 0.98113 0.48933 0.13251 0.0
O139 O 1.02575 0.5249 0.18015 0.0
Co140 Co 0.58885 0.50861 0.22556 0.0
O141 O 0.62437 0.55335 0.23127 0.0
O142 O 0.62788 0.51006 0.25716 0.0
C143 C 0.56961 0.51295 0.12629 0.0
O144 O 0.55931 0.4593 0.23051 0.0
Co145 Co 0.51698 0.491 0.22282 0.0
O146 O 0.50897 0.44864 0.25658 0.0
C147 C 0.55644 0.51817 0.33737 0.0
C148 C 0.6416 0.54149 0.25465 0.0
C149 C 0.53062 0.44049 0.25321 0.0
O150 O 0.57751 0.51177 0.31522 0.0
O151 O 0.5318 0.51469 0.30637 0.0
O152 O 0.59391 0.50772 0.13168 0.0
O153 O 0.55883 0.51721 0.18025 0.0
Co154 Co 0.5755 0.09673 0.22509 0.0
O155 O 0.53078 0.08748 0.23177 0.0
O156 O 0.57422 0.13453 0.25631 0.0
C157 C 0.5704 0.07249 0.12646 0.0
O158 O 0.62488 0.11649 0.22884 0.0
Co159 Co 0.59344 0.04234 0.21966 0.0
O160 O 0.63572 0.07683 0.2535 0.0
C161 C 0.56675 0.05489 0.33537 0.0
C162 C 0.54276 0.11678 0.2544 0.0
C163 C 0.64381 0.10664 0.25065 0.0
O164 O 0.57289 0.0825 0.31458 0.0
O165 O 0.56982 1.03383 0.30296 0.0
O166 O 0.57571 0.10208 0.1312 0.0
O167 O 0.56667 0.0579 0.18055 0.0
Co168 Co 0.51207 0.96985 0.73955 0.0
O169 O 0.4763 0.97859 0.73292 0.0
O170 O 0.47338 0.932 0.7072 0.0
C171 C 0.5308 0.9935 0.83876 0.0
O172 O 0.54214 0.95078 0.73526 0.0
Co173 Co 0.5841 1.0251 0.74491 0.0
O174 O 0.59222 0.99111 0.70914 0.0
C175 C 0.5455 1.01177 0.62867 0.0
C176 C 0.45943 0.94948 0.70913 0.0
C177 C 0.57079 0.96115 0.71191 0.0
O178 O 0.52394 0.9844 0.65034 0.0
O179 O 0.56956 1.03321 0.66066 0.0
O180 O 0.50659 0.96388 0.83333 0.0
O181 O 0.54166 1.00854 0.785 0.0
Co182 Co 0.11412 0.55864 0.73908 0.0
O183 O 0.10546 0.51416 0.73247 0.0
O184 O 0.15198 0.55793 0.70623 0.0
C185 C 0.0905 0.55359 0.83866 0.0
O186 O 0.13316 0.60785 0.73466 0.0
Co187 Co 0.05887 0.57506 0.7447 0.0
O188 O 0.09272 0.61743 0.7095 0.0
C189 C 0.07202 0.5497 0.62814 0.0
C190 C 0.13453 0.52645 0.70832 0.0
C191 C 0.1227 0.62611 0.71194 0.0
O192 O 0.09936 0.55559 0.64994 0.0
O193 O 1.05067 0.55261 0.65995 0.0
O194 O 0.12021 0.55931 0.83291 0.0
O195 O 0.07543 0.54932 0.78497 0.0
Co196 Co 0.52544 0.5715 0.73822 0.0
O197 O 0.57003 0.60736 0.73132 0.0
O198 O 0.52629 0.6102 0.70624 0.0
C199 C 0.53058 0.55273 0.83747 0.0
O200 O 0.47613 0.54186 0.73445 0.0
Co201 Co 0.50731 0.49939 0.74346 0.0
O202 O 0.4652 0.49147 0.70864 0.0
C203 C 0.53549 0.53869 0.62864 0.0
C204 C 0.55775 0.62427 0.70813 0.0
C205 C 0.45727 0.51328 0.71161 0.0
O206 O 0.52843 0.55964 0.64882 0.0
O207 O 0.53187 0.51434 0.66092 0.0
O208 O 0.52512 0.57688 0.8322 0.0
O209 O 0.53436 0.54171 0.78347 0.0
Co210 Co 0.654 0.82906 0.55986 0.0
O211 O 0.66273 0.79327 0.56621 0.0
O212 O 0.61606 0.79026 0.59178 0.0
C213 C 0.67786 0.84801 0.4606 0.0
O214 O 0.63449 0.85877 0.564 0.0
Co215 Co 0.70859 0.90111 0.55518 0.0
O216 O 0.67426 0.90944 0.58777 0.0
C217 C 0.69679 0.86151 0.66965 0.0
C218 C 0.63349 0.77626 0.58951 0.0
C219 C 0.64442 0.88773 0.58498 0.0
O220 O 0.66874 0.84074 0.6493 0.0
O221 O 0.7178 0.88586 0.63755 0.0
O222 O 0.64823 0.82377 0.46601 0.0
O223 O 0.69279 0.85888 0.51448 0.0
Co224 Co 0.25504 0.84166 0.55924 0.0
O225 O 0.29086 0.88625 0.56592 0.0
O226 O 0.29391 0.84258 0.59049 0.0
C227 C 0.23618 0.847 0.46047 0.0
O228 O 0.22519 0.7923 0.56301 0.0
Co229 Co 0.18281 0.82386 0.55426 0.0
O230 O 0.17459 0.7814 0.58753 0.0
C231 C 0.22226 0.85133 0.66924 0.0
C232 C 0.30792 0.87404 0.58855 0.0
C233 C 0.1963 0.77332 0.58462 0.0
O234 O 0.24332 0.84447 0.64879 0.0
O235 O 0.19802 0.848 0.63702 0.0
O236 O 0.26031 0.84148 0.46529 0.0
O237 O 0.22524 0.85072 0.5146 0.0
Co238 Co 0.24215 0.42966 0.55949 0.0
O239 O 0.19749 0.42065 0.56565 0.0
O240 O 0.24106 0.46758 0.5904 0.0
C241 C 0.23748 0.40546 0.46071 0.0
O242 O 0.29144 0.44951 0.5636 0.0
Co243 Co 0.25983 0.37545 0.5571 0.0
O244 O 0.30243 0.41011 0.58937 0.0
C245 C 0.23196 0.38776 0.67095 0.0
C246 C 0.20961 0.44998 0.58828 0.0
C247 C 0.31047 0.43988 0.58561 0.0
O248 O 0.23911 0.41553 0.64936 0.0
O249 O 0.2354 0.36656 0.6398 0.0
O250 O 0.24276 0.43503 0.46557 0.0
O251 O 0.23335 0.39072 0.5149 0.0
C252 C 0.22546 0.37437 0.34681 0.0
C253 C 0.23088 0.38828 0.39885 0.0
C254 C 0.21725 0.358 0.28521 0.0
C255 C 0.2088 0.34422 0.23305 0.0
C256 C 0.70867 0.86713 0.34646 0.0
C257 C 0.6948 0.85855 0.39853 0.0
C258 C 0.72506 0.87537 0.2849 0.0
C259 C 0.73893 0.88069 0.23281 0.0
C260 C 0.21705 0.8592 0.34721 0.0
C261 C 0.22565 0.85367 0.39887 0.0
C262 C 0.20868 0.86734 0.286 0.0
C263 C 0.20318 0.87569 0.23403 0.0
C264 C 0.39294 0.20888 0.61911 0.0
C265 C 0.40693 0.21414 0.56729 0.0
C266 C 0.37625 0.20051 0.68019 0.0
C267 C 0.36209 0.19165 0.73182 0.0
C268 C 0.87674 0.20113 0.61807 0.0
C269 C 0.87095 0.20939 0.56618 0.0
C270 C 0.88502 0.1928 0.67938 0.0
C271 C 0.89323 0.18703 0.73135 0.0
C272 C 0.89176 0.709 0.67878 0.0
C273 C 0.89735 0.72292 0.73077 0.0
C274 C 0.88334 0.69241 0.61753 0.0
C275 C 0.87475 0.67829 0.56578 0.0
C276 C 1.04237 0.53235 0.01332 0.0
C277 C 1.02779 0.52367 0.06464 0.0
C278 C 0.05946 0.541 0.95258 0.0
C279 C 0.07356 0.54672 0.90074 0.0
C280 C 0.55118 0.52536 0.01222 0.0
C281 C 0.55949 0.51974 0.06419 0.0
C282 C 0.54297 0.53382 0.95103 0.0
C283 C 0.53735 0.54237 0.89932 0.0
C284 C 0.5584 0.04096 0.01351 0.0
C285 C 0.56383 0.05519 0.06503 0.0
C286 C 0.55004 1.02427 0.95251 0.0
C287 C 0.54133 1.01033 0.90069 0.0
C288 C 0.20276 0.36241 0.8477 0.0
C289 C 0.20617 0.35446 0.8995 0.0
C290 C 0.20758 0.37224 0.7848 0.0
C291 C 0.2188 0.38006 0.73277 0.0
C292 C 0.71409 0.85398 0.78248 0.0
C293 C 0.70525 0.85656 0.73101 0.0
C294 C 0.72436 0.8593 0.84505 0.0
C295 C 0.73161 0.86988 0.89759 0.0
C296 C 0.22265 0.88018 0.84488 0.0
C297 C 0.21278 0.87748 0.89788 0.0
C298 C 0.22833 0.87519 0.78258 0.0
C299 C 0.22664 0.86421 0.73095 0.0
C300 C 0.38842 0.19645 0.18094 0.0
C301 C 0.39735 0.20583 0.2335 0.0
C302 C 0.37701 0.19086 0.11932 0.0
C303 C 0.36887 0.19171 0.06632 0.0
C304 C 0.89861 0.20894 0.11832 0.0
C305 C 0.89495 0.19806 0.06596 0.0
C306 C 0.89397 0.21365 0.1815 0.0
C307 C 0.88259 0.21033 0.23334 0.0
C308 C 0.87901 0.70835 0.12006 0.0
C309 C 0.88869 0.71549 0.06694 0.0
C310 C 0.87347 0.69776 0.18239 0.0
C311 C 0.87508 0.68846 0.234 0.0
C312 C 1.04821 0.52419 0.4489 0.0
C313 C 1.03911 0.52544 0.39691 0.0
C314 C 0.05832 0.52961 0.51147 0.0
C315 C 0.06518 0.53886 0.56484 0.0
C316 C 0.56014 0.54601 0.51543 0.0
C317 C 0.5488 0.54335 0.56713 0.0
C318 C 0.56486 0.54092 0.4525 0.0
C319 C 0.56149 0.53046 0.39982 0.0
C320 C 0.54074 1.02633 0.51211 0.0
C321 C 0.54199 1.01867 0.56532 0.0
C322 C 0.54594 0.03768 0.45046 0.0
C323 C 0.55552 0.04701 0.39815 0.0
C324 C 0.25626 0.25495 -0.00579 0.0
C325 C 0.24584 0.27111 0.01786 0.0
C326 C 0.27164 0.23932 0.96485 0.0
C327 C 0.2877 0.2286 0.94195 0.0
C328 C 0.84362 0.04929 0.96906 0.0
C329 C 0.85432 0.07592 0.94551 0.0
C330 C 0.82817 1.01832 -0.00151 0.0
C331 C 0.81217 0.99152 0.02139 0.0
C332 C 1.03545 0.8122 0.96521 0.0
C333 C 1.00862 0.79613 0.94245 0.0
C334 C 0.06647 0.82772 -0.00538 0.0
C335 C 0.09303 0.83834 0.01853 0.0
C336 C 0.84128 0.80866 0.96857 0.0
C337 C 0.85652 0.79661 0.94669 0.0
C338 C 0.82529 0.82472 -0.00541 0.0
C339 C 0.81329 0.83995 0.01673 0.0
C340 C 0.26045 1.01793 -0.00223 0.0
C341 C 0.2451 0.99062 0.01948 0.0
C342 C 0.27641 0.0499 0.97146 0.0
C343 C 0.28824 0.07699 0.94879 0.0
C344 C 1.03439 0.24238 0.97033 0.0
C345 C 1.00715 0.2271 0.9483 0.0
C346 C 0.06648 0.25856 -0.00391 0.0
C347 C 0.09381 0.27076 0.0177 0.0
C348 C 0.92246 0.58717 0.33267 0.0
C349 C 0.91182 0.60334 0.35541 0.0
C350 C 0.93801 0.57167 0.30344 0.0
C351 C 0.95408 0.56116 0.27961 0.0
C352 C 0.51204 0.38255 0.30213 0.0
C353 C 0.52252 0.4092 0.27874 0.0
C354 C 0.49665 0.35153 0.33144 0.0
C355 C 0.48061 0.32482 0.35471 0.0
C356 C 0.70209 0.14587 0.29839 0.0
C357 C 0.67528 0.12985 0.27553 0.0
C358 C 0.73311 0.16128 0.32771 0.0
C359 C 0.75969 0.17181 0.35147 0.0
C360 C 0.5068 0.14074 0.30054 0.0
C361 C 0.52225 0.12885 0.27902 0.0
C362 C 0.49076 0.15671 0.32667 0.0
C363 C 0.47898 0.17206 0.34926 0.0
C364 C 0.92786 0.3506 0.32812 0.0
C365 C 0.91241 0.32331 0.34982 0.0
C366 C 0.9439 0.3827 0.30261 0.0
C367 C 0.95569 0.40998 0.28097 0.0
C368 C 0.70144 0.57752 0.30094 0.0
C369 C 0.67414 0.56209 0.2793 0.0
C370 C 0.7335 0.59354 0.32676 0.0
C371 C 0.7607 0.60537 0.34887 0.0
C372 C 0.60514 0.90681 0.63204 0.0
C373 C 0.62124 0.89605 0.60954 0.0
C374 C 0.58973 0.9224 0.66136 0.0
C375 C 0.57919 0.93837 0.68542 0.0
C376 C 0.17704 0.71501 0.63226 0.0
C377 C 0.18793 0.74184 0.60945 0.0
C378 C 0.16136 0.684 0.66164 0.0
C379 C 0.14542 0.65741 0.68554 0.0
C380 C 0.39957 0.4951 0.66229 0.0
C381 C 0.42613 0.50543 0.68587 0.0
C382 C 0.3686 0.47964 0.63302 0.0
C383 C 0.34184 0.46334 0.61025 0.0
C384 C 0.1741 0.47454 0.6339 0.0
C385 C 0.18928 0.46232 0.61258 0.0
C386 C 0.15834 0.49082 0.65981 0.0
C387 C 0.14663 0.50623 0.68239 0.0
C388 C 0.59303 0.68419 0.66143 0.0
C389 C 0.5779 0.65687 0.68321 0.0
C390 C 0.60899 0.71631 0.63584 0.0
C391 C 0.62107 0.74365 0.61424 0.0
C392 C 0.36796 0.90954 0.6345 0.0
C393 C 0.34058 0.89429 0.61307 0.0
C394 C 0.39998 0.92549 0.66057 0.0
C395 C 0.42709 0.93734 0.68319 0.0
loop_
_geom_bond_atom_site_label_1
_geom_bond_atom_site_label_2
_geom_bond_distance
_geom_bond_site_symmetry_2
_ccdc_geom_bond_type
Co0 O1 2.216 . S
Co0 O2 2.091 . S
Co0 O4 2.004 . S
Co0 O10 2.021 1_554 S
Co0 O12 2.137 . S
Co0 O13 2.244 . S
O1 Co0 2.216 . S
O1 C8 1.247 . S
O2 Co0 2.091 . S
O2 C8 1.261 . S
C3 O12 1.247 . S
C3 O13 1.272 . S
O4 Co0 2.004 . S
O4 C9 1.259 . S
Co5 O6 2.061 . S
Co5 O11 2.052 1_554 S
Co5 O13 2.135 . S
O6 Co5 2.061 . S
O6 C9 1.235 . S
C7 O10 1.238 . S
C7 O11 1.241 . S
C8 O1 1.247 . S
C8 O2 1.261 . S
C9 O4 1.259 . S
C9 O6 1.235 . S
O10 Co0 2.021 1_556 S
O10 C7 1.238 . S
O11 Co5 2.052 1_556 S
O11 C7 1.241 . S
O12 Co0 2.137 . S
O12 C3 1.247 . S
O13 Co0 2.244 . S
O13 C3 1.272 . S
O13 Co5 2.135 . S
Co14 O15 2.216 . S
Co14 O16 2.091 . S
Co14 O18 2.004 . S
Co14 O24 2.021 1_554 S
Co14 O26 2.137 . S
Co14 O27 2.244 . S
O15 Co14 2.216 . S
O15 C22 1.247 . S
O16 Co14 2.091 . S
O16 C22 1.261 . S
C17 O26 1.247 . S
C17 O27 1.272 . S
O18 Co14 2.004 . S
O18 C23 1.259 . S
Co19 O20 2.061 . S
Co19 O25 2.052 1_554 S
Co19 O27 2.135 . S
O20 Co19 2.061 . S
O20 C23 1.235 . S
C21 O24 1.238 . S
C21 O25 1.241 . S
C22 O15 1.247 . S
C22 O16 1.261 . S
C23 O18 1.259 . S
C23 O20 1.235 . S
O24 Co14 2.021 1_556 S
O24 C21 1.238 . S
O25 Co19 2.052 1_556 S
O25 C21 1.241 . S
O26 Co14 2.137 . S
O26 C17 1.247 . S
O27 Co14 2.244 . S
O27 C17 1.272 . S
O27 Co19 2.135 . S
Co28 O29 2.216 . S
Co28 O30 2.091 . S
Co28 O32 2.004 . S
Co28 O38 2.021 1_554 S
Co28 O40 2.137 . S
Co28 O41 2.244 . S
O29 Co28 2.216 . S
O29 C36 1.247 . S
O30 Co28 2.091 . S
O30 C36 1.261 . S
C31 O40 1.247 . S
C31 O41 1.272 . S
O32 Co28 2.004 . S
O32 C37 1.259 . S
Co33 O34 2.061 . S
Co33 O39 2.052 1_554 S
Co33 O41 2.135 . S
O34 Co33 2.061 . S
O34 C37 1.235 . S
C35 O38 1.238 . S
C35 O39 1.241 . S
C36 O29 1.247 . S
C36 O30 1.261 . S
C37 O32 1.259 . S
C37 O34 1.235 . S
O38 Co28 2.021 1_556 S
O38 C35 1.238 . S
O39 Co33 2.052 1_556 S
O39 C35 1.241 . S
O40 Co28 2.137 . S
O40 C31 1.247 . S
O41 Co28 2.244 . S
O41 C31 1.272 . S
O41 Co33 2.135 . S
Co42 O43 2.216 . S
Co42 O44 2.091 . S
Co42 O46 2.004 . S
Co42 O52 2.021 1_556 S
Co42 O54 2.137 . S
Co42 O55 2.244 . S
O43 Co42 2.216 . S
O43 C50 1.247 . S
O44 Co42 2.091 . S
O44 C50 1.261 . S
C45 O54 1.247 . S
C45 O55 1.272 . S
O46 Co42 2.004 . S
O46 C51 1.259 . S
Co47 O48 2.061 . S
Co47 O53 2.052 1_556 S
Co47 O55 2.135 . S
O48 Co47 2.061 . S
O48 C51 1.235 . S
C49 O52 1.238 . S
C49 O53 1.241 . S
C50 O43 1.247 . S
C50 O44 1.261 . S
C51 O46 1.259 . S
C51 O48 1.235 . S
O52 Co42 2.021 1_554 S
O52 C49 1.238 . S
O53 Co47 2.052 1_554 S
O53 C49 1.241 . S
O54 Co42 2.137 . S
O54 C45 1.247 . S
O55 Co42 2.244 . S
O55 C45 1.272 . S
O55 Co47 2.135 . S
Co56 O57 2.216 . S
Co56 O58 2.091 . S
Co56 O60 2.004 . S
Co56 O66 2.021 1_556 S
Co56 O68 2.137 . S
Co56 O69 2.244 . S
O57 Co56 2.216 . S
O57 C64 1.247 . S
O58 Co56 2.091 . S
O58 C64 1.261 . S
C59 O68 1.247 . S
C59 O69 1.272 . S
O60 Co56 2.004 . S
O60 C65 1.259 . S
Co61 O62 2.061 . S
Co61 O67 2.052 1_556 S
Co61 O69 2.135 . S
O62 Co61 2.061 . S
O62 C65 1.235 . S
C63 O66 1.238 . S
C63 O67 1.241 . S
C64 O57 1.247 . S
C64 O58 1.261 . S
C65 O60 1.259 . S
C65 O62 1.235 . S
O66 Co56 2.021 1_554 S
O66 C63 1.238 . S
O67 Co61 2.052 1_554 S
O67 C63 1.241 . S
O68 Co56 2.137 . S
O68 C59 1.247 . S
O69 Co56 2.244 . S
O69 C59 1.272 . S
O69 Co61 2.135 . S
Co70 O71 2.216 . S
Co70 O72 2.091 . S
Co70 O74 2.004 . S
Co70 O80 2.021 1_556 S
Co70 O82 2.137 . S
Co70 O83 2.244 . S
O71 Co70 2.216 . S
O71 C78 1.247 . S
O72 Co70 2.091 . S
O72 C78 1.261 . S
C73 O82 1.247 . S
C73 O83 1.272 . S
O74 Co70 2.004 . S
O74 C79 1.259 . S
Co75 O76 2.061 . S
Co75 O81 2.052 1_556 S
Co75 O83 2.135 . S
O76 Co75 2.061 . S
O76 C79 1.235 . S
C77 O80 1.238 . S
C77 O81 1.241 . S
C78 O71 1.247 . S
C78 O72 1.261 . S
C79 O74 1.259 . S
C79 O76 1.235 . S
O80 Co70 2.021 1_554 S
O80 C77 1.238 . S
O81 Co75 2.052 1_554 S
O81 C77 1.241 . S
O82 Co70 2.137 . S
O82 C73 1.247 . S
O83 Co70 2.244 . S
O83 C73 1.272 . S
O83 Co75 2.135 . S
Co84 O85 2.216 . S
Co84 O86 2.091 . S
Co84 O88 2.004 . S
Co84 O94 2.021 . S
Co84 O96 2.137 . S
Co84 O97 2.244 . S
O85 Co84 2.216 . S
O85 C92 1.247 . S
O86 Co84 2.091 . S
O86 C92 1.261 . S
C87 O96 1.247 . S
C87 O97 1.272 . S
O88 Co84 2.004 . S
O88 C93 1.259 . S
Co89 O90 2.061 . S
Co89 O95 2.052 . S
Co89 O97 2.135 . S
O90 Co89 2.061 . S
O90 C93 1.235 . S
C91 O94 1.238 . S
C91 O95 1.241 . S
C92 O85 1.247 . S
C92 O86 1.261 . S
C93 O88 1.259 . S
C93 O90 1.235 . S
O94 Co84 2.021 . S
O94 C91 1.238 . S
O95 Co89 2.052 . S
O95 C91 1.241 . S
O96 Co84 2.137 . S
O96 C87 1.247 . S
O97 Co84 2.244 . S
O97 C87 1.272 . S
O97 Co89 2.135 . S
Co98 O99 2.216 . S
Co98 O100 2.091 . S
Co98 O102 2.004 . S
Co98 O108 2.021 . S
Co98 O110 2.137 . S
Co98 O111 2.244 . S
O99 Co98 2.216 . S
O99 C106 1.247 . S
O100 Co98 2.091 . S
O100 C106 1.261 . S
C101 O110 1.247 . S
C101 O111 1.272 . S
O102 Co98 2.004 . S
O102 C107 1.259 . S
Co103 O104 2.061 . S
Co103 O109 2.052 . S
Co103 O111 2.135 . S
O104 Co103 2.061 . S
O104 C107 1.235 . S
C105 O108 1.238 . S
C105 O109 1.241 . S
C106 O99 1.247 . S
C106 O100 1.261 . S
C107 O102 1.259 . S
C107 O104 1.235 . S
O108 Co98 2.021 . S
O108 C105 1.238 . S
O109 Co103 2.052 . S
O109 C105 1.241 . S
O110 Co98 2.137 . S
O110 C101 1.247 . S
O111 Co98 2.244 . S
O111 C101 1.272 . S
O111 Co103 2.135 . S
Co112 O113 2.216 . S
Co112 O114 2.091 . S
Co112 O116 2.004 . S
Co112 O122 2.021 . S
Co112 O124 2.137 . S
Co112 O125 2.244 . S
O113 Co112 2.216 . S
O113 C120 1.247 . S
O114 Co112 2.091 . S
O114 C120 1.261 . S
C115 O124 1.247 . S
C115 O125 1.272 . S
O116 Co112 2.004 . S
O116 C121 1.259 . S
Co117 O118 2.061 . S
Co117 O123 2.052 . S
Co117 O125 2.135 . S
O118 Co117 2.061 . S
O118 C121 1.235 . S
C119 O122 1.238 . S
C119 O123 1.241 . S
C120 O113 1.247 . S
C120 O114 1.261 . S
C121 O116 1.259 . S
C121 O118 1.235 . S
O122 Co112 2.021 . S
O122 C119 1.238 . S
O123 Co117 2.052 . S
O123 C119 1.241 . S
O124 Co112 2.137 . S
O124 C115 1.247 . S
O125 Co112 2.244 . S
O125 C115 1.272 . S
O125 Co117 2.135 . S
Co126 O127 2.216 . S
Co126 O128 2.091 . S
Co126 O130 2.004 . S
Co126 O136 2.021 . S
Co126 O138 2.137 . S
Co126 O139 2.244 . S
O127 Co126 2.216 . S
O127 C134 1.247 . S
O128 Co126 2.091 . S
O128 C134 1.261 . S
C129 O138 1.247 . S
C129 O139 1.272 . S
O130 Co126 2.004 . S
O130 C135 1.259 . S
Co131 O132 2.061 . S
Co131 O137 2.061 . S
Co131 O139 2.135 . S
O132 Co131 2.061 . S
O132 C135 1.235 . S
C133 O136 1.238 . S
C133 O137 1.250 . S
C134 O127 1.247 . S
C134 O128 1.261 . S
C135 O130 1.259 . S
C135 O132 1.235 . S
O136 Co126 2.021 . S
O136 C133 1.238 . S
O137 Co131 2.061 . S
O137 C133 1.250 . S
O138 Co126 2.137 . S
O138 C129 1.247 . S
O139 Co126 2.244 . S
O139 C129 1.272 . S
O139 Co131 2.135 . S
Co140 O141 2.216 . S
Co140 O142 2.091 . S
Co140 O144 2.004 . S
Co140 O150 2.021 . S
Co140 O152 2.137 . S
Co140 O153 2.244 . S
O141 Co140 2.216 . S
O141 C148 1.247 . S
O142 Co140 2.091 . S
O142 C148 1.261 . S
C143 O152 1.247 . S
C143 O153 1.272 . S
O144 Co140 2.004 . S
O144 C149 1.259 . S
Co145 O146 2.061 . S
Co145 O151 2.052 . S
Co145 O153 2.135 . S
O146 Co145 2.061 . S
O146 C149 1.235 . S
C147 O150 1.238 . S
C147 O151 1.241 . S
C148 O141 1.247 . S
C148 O142 1.261 . S
C149 O144 1.259 . S
C149 O146 1.235 . S
O150 Co140 2.021 . S
O150 C147 1.238 . S
O151 Co145 2.052 . S
O151 C147 1.241 . S
O152 Co140 2.137 . S
O152 C143 1.247 . S
O153 Co140 2.244 . S
O153 C143 1.272 . S
O153 Co145 2.135 . S
Co154 O155 2.216 . S
Co154 O156 2.091 . S
Co154 O158 2.004 . S
Co154 O164 2.021 . S
Co154 O166 2.137 . S
Co154 O167 2.244 . S
O155 Co154 2.216 . S
O155 C162 1.247 . S
O156 Co154 2.091 . S
O156 C162 1.261 . S
C157 O166 1.247 . S
C157 O167 1.272 . S
O158 Co154 2.004 . S
O158 C163 1.259 . S
Co159 O160 2.061 . S
Co159 O165 2.063 1_545 S
Co159 O167 2.135 . S
O160 Co159 2.061 . S
O160 C163 1.235 . S
C161 O164 1.238 . S
C161 O165 1.207 1_545 S
C162 O155 1.247 . S
C162 O156 1.261 . S
C163 O158 1.259 . S
C163 O160 1.235 . S
O164 Co154 2.021 . S
O164 C161 1.238 . S
O165 Co159 2.063 1_565 S
O165 C161 1.207 1_565 S
O166 Co154 2.137 . S
O166 C157 1.247 . S
O167 Co154 2.244 . S
O167 C157 1.272 . S
O167 Co159 2.135 . S
Co168 O169 2.216 . S
Co168 O170 2.091 . S
Co168 O172 2.004 . S
Co168 O178 2.021 . S
Co168 O180 2.137 . S
Co168 O181 2.244 . S
O169 Co168 2.216 . S
O169 C176 1.247 . S
O170 Co168 2.091 . S
O170 C176 1.261 . S
C171 O180 1.247 . S
C171 O181 1.272 . S
O172 Co168 2.004 . S
O172 C177 1.259 . S
Co173 O174 2.061 . S
Co173 O179 2.061 . S
Co173 O181 2.135 . S
O174 Co173 2.061 . S
O174 C177 1.235 . S
C175 O178 1.238 . S
C175 O179 1.250 . S
C176 O169 1.247 . S
C176 O170 1.261 . S
C177 O172 1.259 . S
C177 O174 1.235 . S
O178 Co168 2.021 . S
O178 C175 1.238 . S
O179 Co173 2.061 . S
O179 C175 1.250 . S
O180 Co168 2.137 . S
O180 C171 1.247 . S
O181 Co168 2.244 . S
O181 C171 1.272 . S
O181 Co173 2.135 . S
Co182 O183 2.216 . S
Co182 O184 2.091 . S
Co182 O186 2.004 . S
Co182 O192 2.021 . S
Co182 O194 2.137 . S
Co182 O195 2.244 . S
O183 Co182 2.216 . S
O183 C190 1.247 . S
O184 Co182 2.091 . S
O184 C190 1.261 . S
C185 O194 1.247 . S
C185 O195 1.272 . S
O186 Co182 2.004 . S
O186 C191 1.259 . S
Co187 O188 2.061 . S
Co187 O193 2.063 1_455 S
Co187 O195 2.135 . S
O188 Co187 2.061 . S
O188 C191 1.235 . S
C189 O192 1.238 . S
C189 O193 1.207 1_455 S
C190 O183 1.247 . S
C190 O184 1.261 . S
C191 O186 1.259 . S
C191 O188 1.235 . S
O192 Co182 2.021 . S
O192 C189 1.238 . S
O193 Co187 2.063 1_655 S
O193 C189 1.207 1_655 S
O194 Co182 2.137 . S
O194 C185 1.247 . S
O195 Co182 2.244 . S
O195 C185 1.272 . S
O195 Co187 2.135 . S
Co196 O197 2.216 . S
Co196 O198 2.091 . S
Co196 O200 2.004 . S
Co196 O206 2.021 . S
Co196 O208 2.137 . S
Co196 O209 2.244 . S
O197 Co196 2.216 . S
O197 C204 1.247 . S
O198 Co196 2.091 . S
O198 C204 1.261 . S
C199 O208 1.247 . S
C199 O209 1.272 . S
O200 Co196 2.004 . S
O200 C205 1.259 . S
Co201 O202 2.061 . S
Co201 O207 2.052 . S
Co201 O209 2.135 . S
O202 Co201 2.061 . S
O202 C205 1.235 . S
C203 O206 1.238 . S
C203 O207 1.241 . S
C204 O197 1.247 . S
C204 O198 1.261 . S
C205 O200 1.259 . S
C205 O202 1.235 . S
O206 Co196 2.021 . S
O206 C203 1.238 . S
O207 Co201 2.052 . S
O207 C203 1.241 . S
O208 Co196 2.137 . S
O208 C199 1.247 . S
O209 Co196 2.244 . S
O209 C199 1.272 . S
O209 Co201 2.135 . S
Co210 O211 2.216 . S
Co210 O212 2.091 . S
Co210 O214 2.004 . S
Co210 O220 2.021 . S
Co210 O222 2.137 . S
Co210 O223 2.244 . S
O211 Co210 2.216 . S
O211 C218 1.247 . S
O212 Co210 2.091 . S
O212 C218 1.261 . S
C213 O222 1.247 . S
C213 O223 1.272 . S
O214 Co210 2.004 . S
O214 C219 1.259 . S
Co215 O216 2.061 . S
Co215 O221 2.052 . S
Co215 O223 2.135 . S
O216 Co215 2.061 . S
O216 C219 1.235 . S
C217 O220 1.238 . S
C217 O221 1.241 . S
C218 O211 1.247 . S
C218 O212 1.261 . S
C219 O214 1.259 . S
C219 O216 1.235 . S
O220 Co210 2.021 . S
O220 C217 1.238 . S
O221 Co215 2.052 . S
O221 C217 1.241 . S
O222 Co210 2.137 . S
O222 C213 1.247 . S
O223 Co210 2.244 . S
O223 C213 1.272 . S
O223 Co215 2.135 . S
Co224 O225 2.216 . S
Co224 O226 2.091 . S
Co224 O228 2.004 . S
Co224 O234 2.021 . S
Co224 O236 2.137 . S
Co224 O237 2.244 . S
O225 Co224 2.216 . S
O225 C232 1.247 . S
O226 Co224 2.091 . S
O226 C232 1.261 . S
C227 O236 1.247 . S
C227 O237 1.272 . S
O228 Co224 2.004 . S
O228 C233 1.259 . S
Co229 O230 2.061 . S
Co229 O235 2.052 . S
Co229 O237 2.135 . S
O230 Co229 2.061 . S
O230 C233 1.235 . S
C231 O234 1.238 . S
C231 O235 1.241 . S
C232 O225 1.247 . S
C232 O226 1.261 . S
C233 O228 1.259 . S
C233 O230 1.235 . S
O234 Co224 2.021 . S
O234 C231 1.238 . S
O235 Co229 2.052 . S
O235 C231 1.241 . S
O236 Co224 2.137 . S
O236 C227 1.247 . S
O237 Co224 2.244 . S
O237 C227 1.272 . S
O237 Co229 2.135 . S
Co238 O239 2.216 . S
Co238 O240 2.091 . S
Co238 O242 2.004 . S
Co238 O248 2.021 . S
Co238 O250 2.137 . S
Co238 O251 2.244 . S
O239 Co238 2.216 . S
O239 C246 1.247 . S
O240 Co238 2.091 . S
O240 C246 1.261 . S
C241 O250 1.247 . S
C241 O251 1.272 . S
O242 Co238 2.004 . S
O242 C247 1.259 . S
Co243 O244 2.061 . S
Co243 O249 2.052 . S
Co243 O251 2.135 . S
O244 Co243 2.061 . S
O244 C247 1.235 . S
C245 O248 1.238 . S
C245 O249 1.241 . S
C246 O239 1.247 . S
C246 O240 1.261 . S
C247 O242 1.259 . S
C247 O244 1.235 . S
O248 Co238 2.021 . S
O248 C245 1.238 . S
O249 Co243 2.052 . S
O249 C245 1.241 . S
O250 Co238 2.137 . S
O250 C241 1.247 . S
O251 Co238 2.244 . S
O251 C241 1.272 . S
O251 Co243 2.135 . S
C252 C253 1.170 . S
C252 C254 1.380 . S
C253 C252 1.170 . S
C254 C252 1.380 . S
C254 C255 1.170 . S
C255 C254 1.170 . S
C256 C257 1.170 . S
C256 C258 1.380 . S
C257 C256 1.170 . S
C258 C256 1.380 . S
C258 C259 1.170 . S
C259 C258 1.170 . S
C260 C261 1.170 . S
C260 C262 1.380 . S
C261 C260 1.170 . S
C262 C260 1.380 . S
C262 C263 1.170 . S
C263 C262 1.170 . S
C264 C265 1.170 . S
C264 C266 1.380 . S
C265 C264 1.170 . S
C266 C264 1.380 . S
C266 C267 1.170 . S
C267 C266 1.170 . S
C268 C269 1.170 . S
C268 C270 1.380 . S
C269 C268 1.170 . S
C270 C268 1.380 . S
C270 C271 1.170 . S
C271 C270 1.170 . S
C272 C273 1.170 . S
C272 C274 1.380 . S
C273 C272 1.170 . S
C274 C272 1.380 . S
C274 C275 1.170 . S
C275 C274 1.170 . S
C276 C277 1.170 . S
C276 C278 1.380 1_654 S
C277 C276 1.170 . S
C278 C276 1.380 1_456 S
C278 C279 1.170 . S
C279 C278 1.170 . S
C280 C281 1.170 . S
C280 C282 1.380 1_554 S
C281 C280 1.170 . S
C282 C280 1.380 1_556 S
C282 C283 1.170 . S
C283 C282 1.170 . S
C284 C285 1.170 . S
C284 C286 1.380 1_544 S
C285 C284 1.170 . S
C286 C284 1.380 1_566 S
C286 C287 1.170 . S
C287 C286 1.170 . S
C288 C289 1.170 . S
C288 C290 1.380 . S
C289 C288 1.170 . S
C290 C288 1.380 . S
C290 C291 1.170 . S
C291 C290 1.170 . S
C292 C293 1.170 . S
C292 C294 1.380 . S
C293 C292 1.170 . S
C294 C292 1.380 . S
C294 C295 1.170 . S
C295 C294 1.170 . S
C296 C297 1.170 . S
C296 C298 1.380 . S
C297 C296 1.170 . S
C298 C296 1.380 . S
C298 C299 1.170 . S
C299 C298 1.170 . S
C300 C301 1.170 . S
C300 C302 1.380 . S
C301 C300 1.170 . S
C302 C300 1.380 . S
C302 C303 1.170 . S
C303 C302 1.170 . S
C304 C305 1.170 . S
C304 C306 1.380 . S
C305 C304 1.170 . S
C306 C304 1.380 . S
C306 C307 1.170 . S
C307 C306 1.170 . S
C308 C309 1.170 . S
C308 C310 1.380 . S
C309 C308 1.170 . S
C310 C308 1.380 . S
C310 C311 1.170 . S
C311 C310 1.170 . S
C312 C313 1.170 . S
C312 C314 1.380 1_655 S
C313 C312 1.170 . S
C314 C312 1.380 1_455 S
C314 C315 1.170 . S
C315 C314 1.170 . S
C316 C317 1.170 . S
C316 C318 1.380 . S
C317 C316 1.170 . S
C318 C316 1.380 . S
C318 C319 1.170 . S
C319 C318 1.170 . S
C320 C321 1.170 . S
C320 C322 1.380 1_565 S
C321 C320 1.170 . S
C322 C320 1.380 1_545 S
C322 C323 1.170 . S
C323 C322 1.170 . S
C324 C325 1.170 . S
C324 C326 1.380 1_554 S
C325 C324 1.170 . S
C326 C324 1.380 1_556 S
C326 C327 1.170 . S
C327 C326 1.170 . S
C328 C329 1.170 . S
C328 C330 1.380 1_546 S
C329 C328 1.170 . S
C330 C328 1.380 1_564 S
C330 C331 1.170 . S
C331 C330 1.170 . S
C332 C333 1.170 . S
C332 C334 1.380 1_656 S
C333 C332 1.170 . S
C334 C332 1.380 1_454 S
C334 C335 1.170 . S
C335 C334 1.170 . S
C336 C337 1.170 . S
C336 C338 1.380 1_556 S
C337 C336 1.170 . S
C338 C336 1.380 1_554 S
C338 C339 1.170 . S
C339 C338 1.170 . S
C340 C341 1.170 . S
C340 C342 1.380 1_564 S
C341 C340 1.170 . S
C342 C340 1.380 1_546 S
C342 C343 1.170 . S
C343 C342 1.170 . S
C344 C345 1.170 . S
C344 C346 1.380 1_656 S
C345 C344 1.170 . S
C346 C344 1.380 1_454 S
C346 C347 1.170 . S
C347 C346 1.170 . S
C348 C349 1.170 . S
C348 C350 1.380 . S
C349 C348 1.170 . S
C350 C348 1.380 . S
C350 C351 1.170 . S
C351 C350 1.170 . S
C352 C353 1.170 . S
C352 C354 1.380 . S
C353 C352 1.170 . S
C354 C352 1.380 . S
C354 C355 1.170 . S
C355 C354 1.170 . S
C356 C357 1.170 . S
C356 C358 1.380 . S
C357 C356 1.170 . S
C358 C356 1.380 . S
C358 C359 1.170 . S
C359 C358 1.170 . S
C360 C361 1.170 . S
C360 C362 1.380 . S
C361 C360 1.170 . S
C362 C360 1.380 . S
C362 C363 1.170 . S
C363 C362 1.170 . S
C364 C365 1.170 . S
C364 C366 1.380 . S
C365 C364 1.170 . S
C366 C364 1.380 . S
C366 C367 1.170 . S
C367 C366 1.170 . S
C368 C369 1.170 . S
C368 C370 1.380 . S
C369 C368 1.170 . S
C370 C368 1.380 . S
C370 C371 1.170 . S
C371 C370 1.170 . S
C372 C373 1.170 . S
C372 C374 1.380 . S
C373 C372 1.170 . S
C374 C372 1.380 . S
C374 C375 1.170 . S
C375 C374 1.170 . S
C376 C377 1.170 . S
C376 C378 1.380 . S
C377 C376 1.170 . S
C378 C376 1.380 . S
C378 C379 1.170 . S
C379 C378 1.170 . S
C380 C381 1.170 . S
C380 C382 1.380 . S
C381 C380 1.170 . S
C382 C380 1.380 . S
C382 C383 1.170 . S
C383 C382 1.170 . S
C384 C385 1.170 . S
C384 C386 1.380 . S
C385 C384 1.170 . S
C386 C384 1.380 . S
C386 C387 1.170 . S
C387 C386 1.170 . S
C388 C389 1.170 . S
C388 C390 1.380 . S
C389 C388 1.170 . S
C390 C388 1.380 . S
C390 C391 1.170 . S
C391 C390 1.170 . S
C392 C393 1.170 . S
C392 C394 1.380 . S
C393 C392 1.170 . S
C394 C392 1.380 . S
C394 C395 1.170 . S
C395 C394 1.170 . S
C253 C241 1.780 . S
C255 C3 1.780 . S
C257 C213 1.780 . S
C259 C17 1.780 . S
C261 C227 1.779 . S
C263 C31 1.779 . S
C265 C101 1.780 . S
C267 C45 1.779 . S
C269 C115 1.777 . S
C271 C59 1.777 . S
C273 C73 1.778 . S
C275 C87 1.778 . S
C277 C129 1.777 . S
C279 C185 1.777 . S
C281 C143 1.778 . S
C283 C199 1.778 . S
C285 C157 1.779 . S
C287 C171 1.779 . S
C289 C7 0.670 . S
C291 C245 0.674 . S
C293 C217 0.655 . S
C295 C21 0.672 . S
C297 C35 0.662 . S
C299 C231 0.639 . S
C301 C105 0.623 . S
C303 C49 0.630 . S
C305 C63 0.675 . S
C307 C119 0.665 . S
C309 C77 0.659 . S
C311 C91 0.636 . S
C313 C133 0.631 . S
C315 C189 0.653 . S
C317 C203 0.654 . S
C319 C147 0.672 . S
C321 C175 0.635 . S
C323 C161 0.623 . S
C325 C9 1.699 . S
C327 C51 1.715 . S
C329 C65 1.701 . S
C331 C23 1.708 . S
C333 C79 1.716 . S
C335 C37 1.700 . S
C337 C78 1.688 . S
C339 C22 1.681 . S
C341 C36 1.695 . S
C343 C50 1.680 . S
C345 C64 1.682 . S
C347 C8 1.686 . S
C349 C93 1.715 . S
C351 C135 1.702 . S
C353 C149 1.705 . S
C355 C107 1.713 . S
C357 C163 1.715 . S
C359 C121 1.698 . S
C361 C162 1.696 . S
C363 C106 1.682 . S
C365 C120 1.690 . S
C367 C134 1.693 . S
C369 C148 1.696 . S
C371 C92 1.684 . S
C373 C219 1.714 . S
C375 C177 1.698 . S
C377 C233 1.712 . S
C379 C191 1.698 . S
C381 C205 1.705 . S
C383 C247 1.713 . S
C385 C246 1.693 . S
C387 C190 1.680 . S
C389 C204 1.683 . S
C391 C218 1.685 . S
C393 C232 1.692 . S
C395 C176 1.680 . S
