# Generated by pormake.
# Topology whw, (6)-cn, num edge types: 1
# Building blocks:
#     Node 0, Type 0, BuildingBlock: CUWYAW_clean_sbu_0, # of connection points: 6
#     Node 1, Type 0, BuildingBlock: CUWYAW_clean_sbu_0, # of connection points: 6
#     Node 2, Type 0, BuildingBlock: CUWYAW_clean_sbu_0, # of connection points: 6
#     Node 3, Type 0, BuildingBlock: CUWYAW_clean_sbu_0, # of connection points: 6
#     Node 4, Type 0, BuildingBlock: CUWYAW_clean_sbu_0, # of connection points: 6
#     Node 5, Type 0, BuildingBlock: CUWYAW_clean_sbu_0, # of connection points: 6
#     Node 6, Type 0, BuildingBlock: CUWYAW_clean_sbu_0, # of connection points: 6
#     Node 7, Type 0, BuildingBlock: CUWYAW_clean_sbu_0, # of connection points: 6
#     Node 8, Type 0, BuildingBlock: CUWYAW_clean_sbu_0, # of connection points: 6
#     Node 9, Type 0, BuildingBlock: CUWYAW_clean_sbu_0, # of connection points: 6
#     Node 10, Type 0, BuildingBlock: CUWYAW_clean_sbu_0, # of connection points: 6
#     Node 11, Type 0, BuildingBlock: CUWYAW_clean_sbu_0, # of connection points: 6
#     Node 12, Type 0, BuildingBlock: CUWYAW_clean_sbu_0, # of connection points: 6
#     Node 13, Type 0, BuildingBlock: CUWYAW_clean_sbu_0, # of connection points: 6
#     Node 14, Type 0, BuildingBlock: CUWYAW_clean_sbu_0, # of connection points: 6
#     Node 15, Type 0, BuildingBlock: CUWYAW_clean_sbu_0, # of connection points: 6
#     Edge 16, Type (0, 0), BuildingBlock: KIFKEQ_clean_linker_1, # of connection points: 2
#     Edge 17, Type (0, 0), BuildingBlock: KIFKEQ_clean_linker_1, # of connection points: 2
#     Edge 18, Type (0, 0), BuildingBlock: KIFKEQ_clean_linker_1, # of connection points: 2
#     Edge 19, Type (0, 0), BuildingBlock: KIFKEQ_clean_linker_1, # of connection points: 2
#     Edge 20, Type (0, 0), BuildingBlock: KIFKEQ_clean_linker_1, # of connection points: 2
#     Edge 21, Type (0, 0), BuildingBlock: KIFKEQ_clean_linker_1, # of connection points: 2
#     Edge 22, Type (0, 0), BuildingBlock: KIFKEQ_clean_linker_1, # of connection points: 2
#     Edge 23, Type (0, 0), BuildingBlock: KIFKEQ_clean_linker_1, # of connection points: 2
#     Edge 24, Type (0, 0), BuildingBlock: KIFKEQ_clean_linker_1, # of connection points: 2
#     Edge 25, Type (0, 0), BuildingBlock: KIFKEQ_clean_linker_1, # of connection points: 2
#     Edge 26, Type (0, 0), BuildingBlock: KIFKEQ_clean_linker_1, # of connection points: 2
#     Edge 27, Type (0, 0), BuildingBlock: KIFKEQ_clean_linker_1, # of connection points: 2
#     Edge 28, Type (0, 0), BuildingBlock: KIFKEQ_clean_linker_1, # of connection points: 2
#     Edge 29, Type (0, 0), BuildingBlock: KIFKEQ_clean_linker_1, # of connection points: 2
#     Edge 30, Type (0, 0), BuildingBlock: KIFKEQ_clean_linker_1, # of connection points: 2
#     Edge 31, Type (0, 0), BuildingBlock: KIFKEQ_clean_linker_1, # of connection points: 2
#     Edge 32, Type (0, 0), BuildingBlock: KIFKEQ_clean_linker_1, # of connection points: 2
#     Edge 33, Type (0, 0), BuildingBlock: KIFKEQ_clean_linker_1, # of connection points: 2
#     Edge 34, Type (0, 0), BuildingBlock: KIFKEQ_clean_linker_1, # of connection points: 2
#     Edge 35, Type (0, 0), BuildingBlock: KIFKEQ_clean_linker_1, # of connection points: 2
#     Edge 36, Type (0, 0), BuildingBlock: KIFKEQ_clean_linker_1, # of connection points: 2
#     Edge 37, Type (0, 0), BuildingBlock: KIFKEQ_clean_linker_1, # of connection points: 2
#     Edge 38, Type (0, 0), BuildingBlock: KIFKEQ_clean_linker_1, # of connection points: 2
#     Edge 39, Type (0, 0), BuildingBlock: KIFKEQ_clean_linker_1, # of connection points: 2
#     Edge 40, Type (0, 0), BuildingBlock: KIFKEQ_clean_linker_1, # of connection points: 2
#     Edge 41, Type (0, 0), BuildingBlock: KIFKEQ_clean_linker_1, # of connection points: 2
#     Edge 42, Type (0, 0), BuildingBlock: KIFKEQ_clean_linker_1, # of connection points: 2
#     Edge 43, Type (0, 0), BuildingBlock: KIFKEQ_clean_linker_1, # of connection points: 2
#     Edge 44, Type (0, 0), BuildingBlock: KIFKEQ_clean_linker_1, # of connection points: 2
#     Edge 45, Type (0, 0), BuildingBlock: KIFKEQ_clean_linker_1, # of connection points: 2
#     Edge 46, Type (0, 0), BuildingBlock: KIFKEQ_clean_linker_1, # of connection points: 2
#     Edge 47, Type (0, 0), BuildingBlock: KIFKEQ_clean_linker_1, # of connection points: 2
#     Edge 48, Type (0, 0), BuildingBlock: KIFKEQ_clean_linker_1, # of connection points: 2
#     Edge 49, Type (0, 0), BuildingBlock: KIFKEQ_clean_linker_1, # of connection points: 2
#     Edge 50, Type (0, 0), BuildingBlock: KIFKEQ_clean_linker_1, # of connection points: 2
#     Edge 51, Type (0, 0), BuildingBlock: KIFKEQ_clean_linker_1, # of connection points: 2
#     Edge 52, Type (0, 0), BuildingBlock: KIFKEQ_clean_linker_1, # of connection points: 2
#     Edge 53, Type (0, 0), BuildingBlock: KIFKEQ_clean_linker_1, # of connection points: 2
#     Edge 54, Type (0, 0), BuildingBlock: KIFKEQ_clean_linker_1, # of connection points: 2
#     Edge 55, Type (0, 0), BuildingBlock: KIFKEQ_clean_linker_1, # of connection points: 2
#     Edge 56, Type (0, 0), BuildingBlock: KIFKEQ_clean_linker_1, # of connection points: 2
#     Edge 57, Type (0, 0), BuildingBlock: KIFKEQ_clean_linker_1, # of connection points: 2
#     Edge 58, Type (0, 0), BuildingBlock: KIFKEQ_clean_linker_1, # of connection points: 2
#     Edge 59, Type (0, 0), BuildingBlock: KIFKEQ_clean_linker_1, # of connection points: 2
#     Edge 60, Type (0, 0), BuildingBlock: KIFKEQ_clean_linker_1, # of connection points: 2
#     Edge 61, Type (0, 0), BuildingBlock: KIFKEQ_clean_linker_1, # of connection points: 2
#     Edge 62, Type (0, 0), BuildingBlock: KIFKEQ_clean_linker_1, # of connection points: 2
#     Edge 63, Type (0, 0), BuildingBlock: KIFKEQ_clean_linker_1, # of connection points: 2
# Relax obj value: 0.467
# Max RMSD: 0.258
# Mean RMSD: 0.228
data_MOF--net-whw--node1-CUWYAW_clean_sbu_0--edge1-KIFKEQ_clean_linker_1
_symmetry_space_group_name_H-M    P1
_symmetry_Int_Tables_number       1
_symmetry_cell_setting            triclinic
loop_
_symmetry_equiv_pos_as_xyz
'x, y, z'
_cell_length_a     46.730079
_cell_length_b     46.589656
_cell_length_c     34.158157
_cell_angle_alpha  96.703528
_cell_angle_beta   84.390743
_cell_angle_gamma 91.675968
loop_
_atom_site_label
_atom_site_type_symbol
_atom_site_fract_x
_atom_site_fract_y
_atom_site_fract_z
_atom_type_partial_charge
C0 C 0.92952 0.12467 0.19219 0.0
Eu1 Eu 0.97783 0.13994 0.22097 0.0
C2 C 0.92197 0.10706 0.15627 0.0
C3 C 0.94297 0.10071 0.12458 0.0
C4 C 0.93578 0.08439 0.09003 0.0
C5 C 0.90744 0.07383 0.08662 0.0
C6 C 0.88681 0.07907 0.11941 0.0
C7 C 0.89405 0.09565 0.15398 0.0
C8 C -0.00338 0.19031 0.25836 0.0
C9 C 0.03064 0.15953 0.15595 0.0
C10 C 0.08752 0.13578 0.26966 0.0
Eu11 Eu 0.0386 0.13752 0.23993 0.0
C12 C 0.09597 0.13438 0.30977 0.0
C13 C 0.08257 0.11463 0.3342 0.0
C14 C 0.09056 0.11376 0.37236 0.0
C15 C 0.11185 0.13285 0.38705 0.0
C16 C 0.12514 0.15263 0.36243 0.0
C17 C 0.11736 0.15326 0.32412 0.0
C18 C 0.02113 0.09144 0.19148 0.0
C19 C 0.98637 0.14057 0.31379 0.0
O20 O 0.94118 0.11036 0.21709 0.0
O21 O 0.94275 0.14938 0.1872 0.0
O22 O 0.9697 0.18215 0.26049 0.0
O23 O 0.01097 0.17331 0.23302 0.0
O24 O 0.00365 0.14936 0.1617 0.0
O25 O 0.04797 0.1606 0.18474 0.0
O26 O 0.07622 0.15997 0.26313 0.0
O27 O 0.07412 0.1129 0.25398 0.0
O28 O 0.04585 0.10436 0.18704 0.0
O29 O 0.00639 0.10301 0.22221 0.0
O30 O 0.01433 0.14073 0.30236 0.0
O31 O 0.96738 0.1377 0.2872 0.0
H32 H 0.96479 0.10895 0.1262 0.0
H33 H 0.95223 0.08136 0.06538 0.0
H34 H 0.86494 0.07095 0.11807 0.0
H35 H 0.87778 0.09989 0.17869 0.0
H36 H 0.06579 0.09991 0.32397 0.0
H37 H 0.08003 0.09813 0.3903 0.0
H38 H 0.14109 0.16819 0.37302 0.0
H39 H 0.1278 0.16878 0.30586 0.0
C40 C 0.17254 0.64259 0.40585 0.0
Eu41 Eu 0.161 0.69085 0.45048 0.0
C42 C 0.18993 0.63494 0.36818 0.0
C43 C 0.18325 0.61011 0.34334 0.0
C44 C 0.19901 0.60378 0.30654 0.0
C45 C 0.22177 0.62218 0.29423 0.0
C46 C 0.22903 0.64641 0.32009 0.0
C47 C 0.21304 0.65283 0.35648 0.0
C48 C 0.1124 0.70852 0.4952 0.0
C49 C 0.14162 0.74464 0.40182 0.0
C50 C 0.16598 0.79951 0.53695 0.0
Eu51 Eu 0.16505 0.75245 0.48776 0.0
C52 C 0.15764 0.8051 0.57993 0.0
C53 C 0.17184 0.8267 0.60331 0.0
C54 C 0.1655 0.83041 0.64456 0.0
C55 C 0.14503 0.81236 0.66314 0.0
C56 C 0.13071 0.79094 0.63944 0.0
C57 C 0.13694 0.78739 0.59835 0.0
C58 C 0.2109 0.73504 0.43584 0.0
C59 C 0.16285 0.69918 0.54467 0.0
O60 O 0.18706 0.65266 0.43549 0.0
O61 O 0.14937 0.65735 0.40415 0.0
O62 O 0.11964 0.68154 0.48831 0.0
O63 O 0.1289 0.72335 0.47382 0.0
O64 O 0.15121 0.7176 0.39958 0.0
O65 O 0.14205 0.76223 0.43533 0.0
O66 O 0.1451 0.79277 0.51435 0.0
O67 O 0.18831 0.78299 0.52705 0.0
O68 O 0.19962 0.76033 0.43892 0.0
O69 O 0.19832 0.7202 0.46145 0.0
O70 O 0.15913 0.72683 0.54147 0.0
O71 O 0.1679 0.68053 0.51259 0.0
H72 H 0.16541 0.59606 0.35193 0.0
H73 H 0.19249 0.58522 0.28706 0.0
H74 H 0.24657 0.66087 0.31175 0.0
H75 H 0.21832 0.67207 0.37526 0.0
H76 H 0.18813 0.8404 0.58973 0.0
H77 H 0.17701 0.84703 0.66197 0.0
H78 H 0.11446 0.777 0.65263 0.0
H79 H 0.1258 0.7705 0.58103 0.0
C80 C 0.64919 0.90693 0.54045 0.0
Eu81 Eu 0.60353 0.87802 0.56436 0.0
C82 C 0.65537 0.92345 0.50655 0.0
C83 C 0.6367 0.92098 0.47668 0.0
C84 C 0.644 0.93364 0.44202 0.0
C85 C 0.67006 0.9494 0.43664 0.0
C86 C 0.68734 0.95406 0.4685 0.0
C87 C 0.68015 0.94094 0.50308 0.0
C88 C 0.59254 0.82267 0.57457 0.0
C89 C 0.55505 0.84789 0.50816 0.0
C90 C 0.49413 0.85665 0.6401 0.0
Eu91 Eu 0.54263 0.86759 0.60032 0.0
C92 C 0.48495 0.84965 0.68007 0.0
C93 C 0.4566 0.85499 0.69595 0.0
C94 C 0.44856 0.85268 0.73591 0.0
C95 C 0.46893 0.8453 0.76051 0.0
C96 C 0.49704 0.83869 0.74403 0.0
C97 C 0.50498 0.84076 0.70398 0.0
C98 C 0.55167 0.91643 0.56316 0.0
C99 C 0.59389 0.87576 0.66167 0.0
O100 O 0.62941 0.91773 0.56731 0.0
O101 O 0.64592 0.879 0.53168 0.0
O102 O 0.61185 0.83025 0.54744 0.0
O103 O 0.58318 0.84443 0.59686 0.0
O104 O 0.57722 0.86684 0.50942 0.0
O105 O 0.54148 0.84057 0.54142 0.0
O106 O 0.50872 0.83688 0.61641 0.0
O107 O 0.50499 0.88278 0.63847 0.0
O108 O 0.52928 0.89968 0.55989 0.0
O109 O 0.5676 0.9068 0.58593 0.0
O110 O 0.56591 0.87347 0.65719 0.0
O111 O 0.61294 0.8774 0.63006 0.0
H112 H 0.61713 0.908 0.4793 0.0
H113 H 0.63005 0.92907 0.41849 0.0
H114 H 0.70713 0.96667 0.46607 0.0
H115 H 0.69444 0.9436 0.52644 0.0
H116 H 0.44097 0.86203 0.67782 0.0
H117 H 0.42681 0.85803 0.74796 0.0
H118 H 0.51302 0.83254 0.7623 0.0
H119 H 0.52693 0.83634 0.69199 0.0
C120 C 0.38994 0.35149 0.82596 0.0
Eu121 Eu 0.42283 0.30813 0.8315 0.0
C122 C 0.37236 0.36131 0.79676 0.0
C123 C 0.37752 0.38892 0.78502 0.0
C124 C 0.36414 0.39732 0.75357 0.0
C125 C 0.34511 0.37827 0.73331 0.0
C126 C 0.33803 0.35157 0.74755 0.0
C127 C 0.35172 0.34309 0.7788 0.0
C128 C 0.47868 0.30579 0.84128 0.0
C129 C 0.45728 0.26609 0.75969 0.0
C130 C 0.46042 0.2031 0.86999 0.0
Eu131 Eu 0.44108 0.24907 0.84664 0.0
C132 C 0.47022 0.1969 0.90735 0.0
C133 C 0.46839 0.16861 0.9173 0.0
C134 C 0.47351 0.1631 0.95523 0.0
C135 C 0.48048 0.18591 0.98367 0.0
C136 C 0.48364 0.2141 0.97286 0.0
C137 C 0.47839 0.21958 0.93499 0.0
C138 C 0.3918 0.25007 0.81012 0.0
C139 C 0.42546 0.29603 0.92525 0.0
O140 O 0.38096 0.3283 0.84197 0.0
O141 O 0.41778 0.35196 0.8169 0.0
O142 O 0.46919 0.32319 0.8186 0.0
O143 O 0.45842 0.29308 0.85952 0.0
O144 O 0.43582 0.28501 0.76789 0.0
O145 O 0.46702 0.25379 0.78858 0.0
O146 O 0.47677 0.22093 0.85024 0.0
O147 O 0.43294 0.20861 0.87178 0.0
O148 O 0.41136 0.23083 0.80022 0.0
O149 O 0.399 0.26729 0.83872 0.0
O150 O 0.43124 0.26884 0.91113 0.0
O151 O 0.42202 0.31548 0.90031 0.0
H152 H 0.39314 0.40343 0.79877 0.0
H153 H 0.37057 0.41788 0.74332 0.0
H154 H 0.32316 0.33655 0.73313 0.0
H155 H 0.34705 0.32183 0.78768 0.0
H156 H 0.46181 0.15097 0.89631 0.0
H157 H 0.47055 0.14122 0.96285 0.0
H158 H 0.48939 0.23201 0.99399 0.0
H159 H 0.47993 0.24162 0.92766 0.0
C160 C 0.96218 0.884 0.84854 0.0
Eu161 Eu 0.97928 0.88601 0.92059 0.0
C162 C 0.96207 0.87049 0.80575 0.0
C163 C 0.98107 0.88045 0.77529 0.0
C164 C 0.97834 0.87111 0.73481 0.0
C165 C 0.95633 0.85147 0.72277 0.0
C166 C 0.93769 0.84107 0.75343 0.0
C167 C 0.94044 0.85044 0.79392 0.0
C168 C 0.00044 0.93154 0.96779 0.0
C169 C 0.04013 0.85294 0.92293 0.0
C170 C 0.01911 0.8678 0.0758 0.0
Eu171 Eu 0.00157 0.87081 1.00481 0.0
C172 C 0.03287 0.85084 0.10433 0.0
C173 C 0.01727 0.83013 0.1254 0.0
C174 C 0.02918 0.81736 0.15573 0.0
C175 C 0.05711 0.82486 0.16661 0.0
C176 C 0.07281 0.84523 0.14497 0.0
C177 C 0.06094 0.85794 0.11466 0.0
C178 C 0.97242 0.82839 0.9624 0.0
C179 C 0.94058 0.90373 1.00183 0.0
O180 O 0.94823 0.8714 0.87736 0.0
O181 O 0.98494 0.89857 0.86011 0.0
O182 O 0.98338 0.93394 0.94044 0.0
O183 O 0.00881 0.9056 0.96496 0.0
O184 O 0.01809 0.85808 0.90348 0.0
O185 O 0.04071 0.85942 0.96167 0.0
O186 O 0.0351 0.87782 0.04645 0.0
O187 O 0.99304 0.86091 0.06639 0.0
O188 O 0.99108 0.82339 0.98646 0.0
O189 O 0.9692 0.85499 0.9639 0.0
O190 O 0.96328 0.90035 1.02158 0.0
O191 O 0.9399 0.89553 0.96332 0.0
H192 H -0.0022 0.89617 0.78264 0.0
H193 H 0.99362 0.87952 0.71291 0.0
H194 H 0.92015 0.82632 0.74628 0.0
H195 H 0.92492 0.84254 0.81601 0.0
H196 H 0.99543 0.82427 0.11926 0.0
H197 H 0.01598 0.80231 0.17169 0.0
H198 H 0.09444 0.85159 0.15152 0.0
H199 H 0.07366 0.87401 0.09985 0.0
C200 C 0.44534 0.65272 0.2287 0.0
Eu201 Eu 0.4406 0.70205 0.20184 0.0
C202 C 0.43031 0.63942 0.26214 0.0
C203 C 0.44621 0.628 0.28912 0.0
C204 C 0.43219 0.6166 0.322 0.0
C205 C 0.40192 0.6161 0.32826 0.0
C206 C 0.38605 0.62708 0.30063 0.0
C207 C 0.40008 0.63882 0.26809 0.0
C208 C 0.4774 0.73481 0.15917 0.0
C209 C 0.45304 0.75899 0.26584 0.0
C210 C 0.39797 0.80414 0.16306 0.0
Eu211 Eu 0.4165 0.75872 0.19004 0.0
C212 C 0.40532 0.81544 0.12492 0.0
C213 C 0.39165 0.83962 0.11501 0.0
C214 C 0.39858 0.84929 0.07779 0.0
C215 C 0.41939 0.83492 0.0504 0.0
C216 C 0.43291 0.81078 0.06076 0.0
C217 C 0.4259 0.80119 0.09749 0.0
C218 C 0.38297 0.72901 0.24193 0.0
C219 C 0.42873 0.70761 0.11257 0.0
O220 O 0.42971 0.65645 0.20005 0.0
O221 O 0.46226 0.67494 0.2376 0.0
O222 O 0.47919 0.70681 0.1557 0.0
O223 O 0.45993 0.74324 0.18789 0.0
O224 O 0.44981 0.73032 0.25973 0.0
O225 O 0.44437 0.77538 0.23998 0.0
O226 O 0.4188 0.80519 0.18614 0.0
O227 O 0.38435 0.77915 0.16093 0.0
O228 O 0.38725 0.75662 0.24592 0.0
O229 O 0.39534 0.71789 0.20915 0.0
O230 O 0.42369 0.73519 0.12577 0.0
O231 O 0.43236 0.689 0.1379 0.0
H232 H 0.46951 0.62845 0.28522 0.0
H233 H 0.44519 0.60902 0.34312 0.0
H234 H 0.36276 0.62684 0.30426 0.0
H235 H 0.38719 0.64769 0.24786 0.0
H236 H 0.37557 0.85081 0.1358 0.0
H237 H 0.38779 0.86794 0.07046 0.0
H238 H 0.44848 0.79876 1.04004 0.0
H239 H 0.43642 0.78235 0.10415 0.0
C240 C 0.65101 0.15508 0.4348 0.0
Eu241 Eu 0.59745 0.15729 0.42116 0.0
C242 C 0.66536 0.14415 0.46613 0.0
C243 C 0.65024 0.12589 0.49108 0.0
C244 C 0.66391 0.11468 0.52028 0.0
C245 C 0.69288 0.12174 0.52524 0.0
C246 C 0.70796 0.14013 0.50022 0.0
C247 C 0.69429 0.15116 0.47069 0.0
C248 C 0.56472 0.19887 0.40117 0.0
C249 C 0.54538 0.16923 0.48856 0.0
C250 C 0.48818 0.12768 0.37987 0.0
Eu251 Eu 0.54083 0.13664 0.39727 0.0
C252 C 0.47647 0.12769 0.34134 0.0
C253 C 0.48466 0.10636 0.30995 0.0
C254 C 0.48075 0.11063 0.2712 0.0
C255 C 0.46856 0.13621 0.26316 0.0
C256 C 0.45757 0.15608 0.29476 0.0
C257 C 0.46138 0.15176 0.33367 0.0
C258 C 0.57269 0.09424 0.41962 0.0
C259 C 0.59011 0.14316 0.32417 0.0
O260 O 0.63809 0.13513 0.41218 0.0
O261 O 0.63541 0.17813 0.44533 0.0
O262 O 0.5822 0.20381 0.42874 0.0
O263 O 0.56773 0.17374 0.38452 0.0
O264 O 0.5736 0.16598 0.48247 0.0
O265 O 0.52881 0.16075 0.45967 0.0
O266 O 0.49771 0.15273 0.39526 0.0
O267 O 0.50568 0.1068 0.38276 0.0
O268 O 0.5591 0.09185 0.38811 0.0
O269 O 0.56989 0.11958 0.43721 0.0
O270 O 0.56214 0.13939 0.33409 0.0
O271 O 0.6077 0.14877 0.35271 0.0
H272 H 0.62783 0.12035 0.48797 0.0
H273 H 0.65156 0.10107 0.53964 0.0
H274 H 0.73029 0.14592 0.5035 0.0
H275 H 0.70623 0.16516 0.45149 0.0
H276 H 0.49592 0.08729 0.31483 0.0
H277 H 0.48876 0.09466 0.24731 0.0
H278 H 0.44796 0.17594 0.28932 0.0
H279 H 0.45452 0.16831 0.35743 0.0
C280 C 0.16858 0.30678 0.54746 0.0
Eu281 Eu 0.17787 0.29367 0.61834 0.0
C282 C 0.16259 0.31345 0.5066 0.0
C283 C 0.17413 0.33831 0.49048 0.0
C284 C 0.16663 0.34551 0.45364 0.0
C285 C 0.14726 0.32813 0.43126 0.0
C286 C 0.13615 0.30298 0.44735 0.0
C287 C 0.14355 0.2959 0.48419 0.0
C288 C 0.22346 0.27772 0.65392 0.0
C289 C 0.15971 0.22754 0.62965 0.0
C290 C 0.1518 0.25112 0.77416 0.0
Eu291 Eu 0.16249 0.27573 0.70813 0.0
C292 C 0.13781 0.24852 0.81567 0.0
C293 C 0.10788 0.2436 0.82308 0.0
C294 C 0.09551 0.23619 0.86013 0.0
C295 C 0.11249 0.23332 0.89146 0.0
C296 C 0.14231 0.23919 0.88438 0.0
C297 C 0.1547 0.24647 0.84722 0.0
C298 C 0.12601 0.31135 0.6806 0.0
C299 C 0.18998 0.33772 0.69469 0.0
O300 O 0.15596 0.28516 0.56392 0.0
O301 O 0.18741 0.3208 0.56898 0.0
O302 O 0.22585 0.29287 0.62385 0.0
O303 O 0.19792 0.26815 0.65951 0.0
O304 O 0.17019 0.24606 0.60521 0.0
O305 O 0.15473 0.23393 0.66852 0.0
O306 O 0.17477 0.26746 0.7672 0.0
O307 O 0.13551 0.24846 0.74482 0.0
O308 O 0.12863 0.31098 0.718 0.0
O309 O 0.13981 0.2909 0.66119 0.0
O310 O 0.19076 0.31561 0.71595 0.0
O311 O 0.17964 0.33535 0.65952 0.0
H312 H 0.18859 0.35265 0.50676 0.0
H313 H 0.1756 0.36524 0.44329 0.0
H314 H 0.1217 0.28843 0.43143 0.0
H315 H 0.13404 0.2766 0.49528 0.0
H316 H 0.09393 0.24462 0.79978 0.0
H317 H 0.07248 0.23246 0.86404 0.0
H318 H 0.15644 0.23706 0.90713 0.0
H319 H 0.17781 0.24948 0.84276 0.0
C320 C 0.95504 0.14757 0.72158 0.0
Eu321 Eu 0.94266 0.1968 0.69906 0.0
C322 C 0.94668 0.13212 0.756 0.0
C323 C 0.94221 0.14707 0.79404 0.0
C324 C 0.93098 0.13256 0.82572 0.0
C325 C 0.92354 0.10295 0.81983 0.0
C326 C 0.92856 0.08796 0.78172 0.0
C327 C 0.94008 0.10247 0.75008 0.0
C328 C 0.97486 0.23379 0.65658 0.0
C329 C 0.94878 0.25334 0.76569 0.0
C330 C 0.88936 0.29393 0.66313 0.0
Eu331 Eu 0.91242 0.25055 0.68921 0.0
C332 C 0.89388 0.30427 0.624 0.0
C333 C 0.87524 0.32412 0.61251 0.0
C334 C 0.87848 0.33163 0.57372 0.0
C335 C 0.90005 0.3189 0.54609 0.0
C336 C 0.91901 0.29962 0.55811 0.0
C337 C 0.91604 0.29253 0.59673 0.0
C338 C 0.88251 0.21758 0.74038 0.0
C339 C 0.9275 0.20082 0.611 0.0
O340 O 0.93407 0.15088 0.69995 0.0
O341 O 0.97127 0.17086 0.72691 0.0
O342 O 0.97902 0.2061 0.65156 0.0
O343 O 0.95742 0.24007 0.6862 0.0
O344 O 0.94943 0.22464 0.75799 0.0
O345 O 0.93769 0.26911 0.74096 0.0
O346 O 0.91149 0.29674 0.68399 0.0
O347 O 0.877 0.26838 0.66335 0.0
O348 O 0.88419 0.24543 0.74486 0.0
O349 O 0.89572 0.20776 0.70739 0.0
O350 O 0.92038 0.22788 0.62447 0.0
O351 O 0.93346 0.18284 0.63598 0.0
H352 H 0.94684 0.17005 0.79919 0.0
H353 H 0.92807 0.14463 0.85486 0.0
H354 H 0.92292 0.06525 0.77613 0.0
H355 H 0.94303 0.09072 0.7207 0.0
H356 H 0.85796 0.33332 0.63319 0.0
H357 H 0.86366 0.34661 0.56498 0.0
H358 H 0.93607 0.28986 0.5375 0.0
H359 H 0.93079 0.2774 0.60499 0.0
C360 C 0.68582 0.82124 0.04968 0.0
Eu361 Eu 0.68624 0.802 0.11961 0.0
C362 C 0.67277 0.82332 1.01095 0.0
C363 C 0.68171 0.80548 0.97582 0.0
C364 C 0.67266 0.81033 0.93869 0.0
C365 C 0.65449 0.83347 0.93482 0.0
C366 C 0.64523 0.85095 0.97029 0.0
C367 C 0.65415 0.846 1.00734 0.0
C368 C 0.72937 0.78898 0.16217 0.0
C369 C 0.66744 0.73472 0.12382 0.0
C370 C 0.65247 0.75208 0.26965 0.0
Eu371 Eu 0.66609 0.7786 0.20558 0.0
C372 C 0.63764 0.7492 0.31085 0.0
C373 C 0.60792 0.74262 0.31698 0.0
C374 C 0.595 0.73557 0.35405 0.0
C375 C 0.61119 0.73459 0.3868 0.0
C376 C 0.64081 0.74186 0.3808 0.0
C377 C 0.65372 0.74886 0.34369 0.0
C378 C 0.6294 0.81024 0.17132 0.0
C379 C 0.69131 0.84295 0.20207 0.0
O380 O 0.67323 0.83413 0.08289 0.0
O381 O 0.69967 0.7981 0.0553 0.0
O382 O 0.73215 0.80707 0.13564 0.0
O383 O 0.70517 0.77608 0.16171 0.0
O384 O 0.6715 0.75646 0.10208 0.0
O385 O 0.66729 0.73738 0.16289 0.0
O386 O 0.67615 0.76772 0.2643 0.0
O387 O 0.63698 0.75085 0.23947 0.0
O388 O 0.62923 0.81062 0.20942 0.0
O389 O 0.6465 0.79171 0.15454 0.0
O390 O 0.69005 0.81999 0.22189 0.0
O391 O 0.68488 0.84201 0.16485 0.0
H392 H 0.69632 0.78802 0.97678 0.0
H393 H 0.68017 0.7958 0.91292 0.0
H394 H 0.63175 0.86932 0.96956 0.0
H395 H 0.6471 0.86073 1.03317 0.0
H396 H 0.59457 0.74219 0.29272 0.0
H397 H 0.57215 0.73071 0.35685 0.0
H398 H 0.65448 0.74117 0.40447 0.0
H399 H 0.67669 0.75312 0.34038 0.0
C400 C 0.67371 0.12783 0.91322 0.0
Eu401 Eu 0.65743 0.17924 0.94405 0.0
C402 C 0.68931 0.11731 0.87524 0.0
C403 C 0.68748 0.0881 0.86023 0.0
C404 C 0.69909 0.07895 0.82165 0.0
C405 C 0.71272 0.09895 0.79776 0.0
C406 C 0.71584 0.12791 0.8139 0.0
C407 C 0.70403 0.13703 0.85219 0.0
C408 C 0.60543 0.20192 0.96591 0.0
C409 C 0.64111 0.23153 0.89233 0.0
C410 C 0.66791 0.2892 1.02596 0.0
Eu411 Eu 0.6623 0.24152 0.9795 0.0
C412 C 0.66202 0.29719 0.06902 0.0
C413 C 0.68252 0.31348 0.08989 0.0
C414 C 0.67826 0.31966 0.1311 0.0
C415 C 0.65327 0.30977 0.15235 0.0
C416 C 0.63279 0.29335 0.13118 0.0
C417 C 0.63721 0.28697 0.09003 0.0
C418 C 0.70697 0.22265 0.92593 0.0
C419 C 0.65416 0.18999 1.04038 0.0
O420 O 0.6885 0.14467 0.9375 0.0
O421 O 0.64815 0.13775 0.91082 0.0
O422 O 0.61014 0.17972 0.93945 0.0
O423 O 0.62787 0.20832 0.98338 0.0
O424 O 0.65214 0.20503 0.89046 0.0
O425 O 0.6393 0.24892 0.92616 0.0
O426 O 0.64567 0.28349 1.00543 0.0
O427 O 0.68878 0.27089 1.01561 0.0
O428 O 0.69562 0.24779 0.92816 0.0
O429 O 0.69476 0.2088 0.95278 0.0
O430 O 0.65897 0.2177 1.03561 0.0
O431 O 0.65227 0.17051 1.00908 0.0
H432 H 0.67607 0.07266 0.8777 0.0
H433 H 0.69643 0.0565 0.80994 0.0
H434 H 0.72568 0.14399 0.79609 0.0
H435 H 0.70515 0.15975 0.86312 0.0
H436 H 0.70206 0.32113 0.07431 0.0
H437 H 0.69473 0.33193 0.14629 0.0
H438 H 0.61306 0.28573 0.14625 0.0
H439 H 0.62126 0.27393 0.07471 0.0
C440 C 0.91785 0.84903 0.31001 0.0
Eu441 Eu 0.93908 0.803 0.33145 0.0
C442 C 0.8983 0.85547 0.28117 0.0
C443 C 0.89966 0.84026 0.24319 0.0
C444 C 0.88209 0.84792 0.21549 0.0
C445 C 0.86255 0.87076 0.22533 0.0
C446 C 0.85977 0.88437 0.26447 0.0
C447 C 0.87761 0.87686 0.29206 0.0
C448 C 0.98899 0.79362 0.36051 0.0
C449 C 0.96862 0.75451 0.25995 0.0
C450 C 0.95291 0.69108 0.37157 0.0
Eu451 Eu 0.94556 0.74074 0.34688 0.0
C452 C 0.95225 0.6819 0.41117 0.0
C453 C 0.93353 0.69502 0.44234 0.0
C454 C 0.93345 0.68687 0.48026 0.0
C455 C 0.95221 0.66559 0.48767 0.0
C456 C 0.97108 0.65259 0.45647 0.0
C457 C 0.97107 0.66071 0.4184 0.0
C458 C 0.89748 0.75192 0.31275 0.0
C459 C 0.93408 0.79015 0.42428 0.0
O460 O 0.90594 0.83542 0.3389 0.0
O461 O 0.94339 0.8393 0.29624 0.0
O462 O 0.97679 0.81867 0.36549 0.0
O463 O 0.97608 0.77659 0.33643 0.0
O464 O 0.95357 0.77891 0.26854 0.0
O465 O 0.97173 0.7377 0.28781 0.0
O466 O 0.97426 0.70836 0.36175 0.0
O467 O 0.92831 0.69918 0.36165 0.0
O468 O 0.91263 0.72893 0.30299 0.0
O469 O 0.90785 0.76764 0.34076 0.0
O470 O 0.94044 0.76308 0.41049 0.0
O471 O 0.93019 0.80945 0.39954 0.0
H472 H 0.91498 0.82313 0.23447 0.0
H473 H 0.88527 0.83705 0.18566 0.0
H474 H 0.84464 0.90162 0.27336 0.0
H475 H 0.87576 0.88829 0.32167 0.0
H476 H 0.91908 0.71175 0.4375 0.0
H477 H 0.91912 0.69763 0.50395 0.0
H478 H 0.98574 0.63609 0.46149 0.0
H479 H 0.98582 0.65059 0.39469 0.0
C480 C 0.42314 0.62937 0.70744 0.0
Eu481 Eu 0.47568 0.64551 0.72028 0.0
C482 C 0.40767 0.61741 0.67377 0.0
C483 C 0.37921 0.62548 0.67205 0.0
C484 C 0.36527 0.61714 0.63807 0.0
C485 C 0.3796 0.60034 0.60561 0.0
C486 C 0.4076 0.59103 0.60832 0.0
C487 C 0.42165 0.59976 0.642 0.0
C488 C 0.49706 0.69883 0.73914 0.0
C489 C 0.52625 0.66536 0.65429 0.0
C490 C 0.58519 0.63702 0.76593 0.0
Eu491 Eu 0.53638 0.64352 0.73775 0.0
C492 C 0.59677 0.63862 0.80487 0.0
C493 C 0.59516 0.61426 0.82588 0.0
C494 C 0.60601 0.61554 0.86266 0.0
C495 C 0.619 0.64108 0.87902 0.0
C496 C 0.62107 0.66529 0.85776 0.0
C497 C 0.61012 0.66405 0.82099 0.0
C498 C 0.52039 0.59865 0.68564 0.0
C499 C 0.48585 0.64763 0.814 0.0
O500 O 0.44169 0.61253 0.71916 0.0
O501 O 0.43289 0.65582 0.70636 0.0
O502 O 0.47716 0.69282 0.71525 0.0
O503 O 0.50325 0.6766 0.75448 0.0
O504 O 0.50031 0.65245 0.65926 0.0
O505 O 0.54311 0.66836 0.68376 0.0
O506 O 0.57822 0.66122 0.75334 0.0
O507 O 0.56668 0.61595 0.75838 0.0
O508 O 0.54418 0.61315 0.68211 0.0
O509 O 0.50525 0.60853 0.71698 0.0
O510 O 0.51353 0.64421 0.8014 0.0
O511 O 0.46687 0.64896 0.78791 0.0
H512 H 0.36819 0.63921 0.69634 0.0
H513 H 0.34376 0.62471 0.63649 0.0
H514 H 0.41935 0.57861 0.58338 0.0
H515 H 0.44379 0.59375 0.64248 0.0
H516 H 0.58546 0.59412 0.81399 0.0
H517 H 0.6044 0.59648 0.87819 0.0
H518 H 0.63067 0.68541 0.8699 0.0
H519 H 0.61197 0.68305 0.80534 0.0
C520 C 0.14095 0.38939 1.03018 0.0
Eu521 Eu 0.09334 0.37275 0.06751 0.0
C522 C 0.14916 0.40527 0.99615 0.0
C523 C 0.1773 0.40364 0.97814 0.0
C524 C 0.18504 0.41743 0.94445 0.0
C525 C 0.16478 0.43342 0.9284 0.0
C526 C 0.13696 0.43635 0.94818 0.0
C527 C 0.12911 0.42198 0.98137 0.0
C528 C 0.07748 0.32374 0.09898 0.0
C529 C 0.04034 0.35037 1.01149 0.0
C530 C 0.98164 0.36817 0.14539 0.0
Eu531 Eu 0.03126 0.37268 0.10453 0.0
C532 C 0.97137 0.36115 0.18507 0.0
C533 C 0.94222 0.36411 0.19851 0.0
C534 C 0.93248 0.35906 0.23712 0.0
C535 C 0.95189 0.3513 0.26284 0.0
C536 C 0.98104 0.34783 0.24897 0.0
C537 C 0.99066 0.35254 0.21023 0.0
C538 C 0.04827 0.42012 0.06805 0.0
C539 C 0.08391 0.37659 0.16382 0.0
O540 O 0.12768 0.40457 0.06091 0.0
O541 O 0.12942 0.36359 1.02256 0.0
O542 O 0.10396 0.33329 0.09562 0.0
O543 O 0.06198 0.33863 0.08119 0.0
O544 O 0.06753 0.3601 1.01265 0.0
O545 O 0.02267 0.35065 0.04426 0.0
O546 O 0.99326 0.347 0.12102 0.0
O547 O -0.00382 0.39254 0.14408 0.0
O548 O 0.02309 0.40793 0.06678 0.0
O549 O 0.06291 0.40755 0.08987 0.0
O550 O 0.05608 0.37294 0.15941 0.0
O551 O 0.1028 0.37963 0.13277 0.0
H552 H 0.19305 0.39088 0.98932 0.0
H553 H 0.20647 0.41401 0.92978 0.0
H554 H 0.12086 0.44872 0.93709 0.0
H555 H 0.1072 0.42325 0.99485 0.0
H556 H 0.92709 0.37074 0.17935 0.0
H557 H 0.90994 0.36199 0.24722 0.0
H558 H -0.00365 0.34144 0.26805 0.0
H559 H 0.01314 0.34973 0.20005 0.0
C560 C 0.46372 0.38761 0.34698 0.0
Eu561 Eu 0.48462 0.38874 0.41641 0.0
C562 C 0.46325 0.37504 0.30391 0.0
C563 C 0.44232 0.35407 0.29249 0.0
C564 C 0.43886 0.34509 0.25218 0.0
C565 C 0.45612 0.35671 0.22122 0.0
C566 C 0.47749 0.37732 0.23277 0.0
C567 C 0.48088 0.38636 0.27317 0.0
C568 C 0.49906 0.43293 0.47087 0.0
C569 C 0.55117 0.36975 0.40933 0.0
C570 C 0.54027 0.35664 0.55214 0.0
Eu571 Eu 0.51107 0.36986 0.49417 0.0
C572 C 0.54464 0.34262 0.58917 0.0
C573 C 0.54518 0.31227 0.58905 0.0
C574 C 0.55377 0.29947 0.62164 0.0
C575 C 0.56238 0.31638 0.65581 0.0
C576 C 0.56111 0.34675 0.65616 0.0
C577 C 0.55255 0.35953 0.62358 0.0
C578 C 0.47375 0.33332 0.45653 0.0
C579 C 0.44671 0.39392 0.50107 0.0
O580 O 0.45314 0.37226 0.3751 0.0
O581 O 0.48505 0.40471 0.35807 0.0
O582 O 0.47967 0.43446 0.44629 0.0
O583 O 0.51243 0.40931 0.46252 0.0
O584 O 0.52906 0.37678 0.3915 0.0
O585 O 0.5499 0.36687 0.44768 0.0
O586 O 0.52669 0.38117 0.55365 0.0
O587 O 0.53791 0.34013 0.51877 0.0
O588 O 0.47582 0.33525 0.49434 0.0
O589 O 0.49312 0.34843 0.4404 0.0
O590 O 0.47041 0.39296 0.51955 0.0
O591 O 0.44616 0.38791 0.46214 0.0
H592 H 0.42783 0.34513 0.31487 0.0
H593 H 0.42181 0.32962 0.24549 0.0
H594 H 0.49172 0.3867 0.21057 0.0
H595 H 0.49702 0.40279 0.28027 0.0
H596 H 0.53961 0.29823 0.56325 0.0
H597 H 0.55378 0.27613 0.61979 0.0
H598 H 0.56779 0.36093 0.68115 0.0
H599 H 0.55308 0.38287 0.62484 0.0
C600 C 0.16765 0.64768 0.92854 0.0
Eu601 Eu 0.11398 0.65402 0.91786 0.0
C602 C 0.18334 0.63801 0.95938 0.0
C603 C 0.16826 0.62758 0.9924 0.0
C604 C 0.18317 0.61811 1.0217 0.0
C605 C 0.21345 0.61886 1.0184 0.0
C606 C 0.22848 0.62901 0.98489 0.0
C607 C 0.21346 0.63848 0.95549 0.0
C608 C 0.08643 0.6987 0.8964 0.0
C609 C 0.06292 0.66987 0.98637 0.0
C610 C 0.00185 0.6369 0.88056 0.0
Eu611 Eu 0.05545 0.63911 0.89558 0.0
C612 C 0.98934 0.64053 0.84392 0.0
C613 C 0.96146 0.63034 0.83748 0.0
C614 C 0.95155 0.63041 0.80008 0.0
C615 C 0.96974 0.6403 0.76908 0.0
C616 C -0.0029 0.65154 0.77621 0.0
C617 C 0.00678 0.65169 0.81334 0.0
C618 C 0.08281 0.5938 0.91894 0.0
C619 C 0.10442 0.63976 0.82147 0.0
O620 O 0.15198 0.62758 0.91026 0.0
O621 O 0.1543 0.67225 0.93767 0.0
O622 O 0.10364 0.70198 0.92439 0.0
O623 O 0.08629 0.6731 0.88095 0.0
O624 O 0.0908 0.66416 0.97996 0.0
O625 O 0.04595 0.66381 0.95747 0.0
O626 O 0.01416 0.66005 0.89744 0.0
O627 O 0.0177 0.61403 0.87846 0.0
O628 O 0.06821 0.59228 0.88843 0.0
O629 O 0.08282 0.61951 0.93549 0.0
O630 O 0.07646 0.64006 0.83256 0.0
O631 O 0.12285 0.64265 0.84921 0.0
H632 H 0.14494 0.62701 0.99566 0.0
H633 H 0.17092 0.61105 0.04754 0.0
H634 H 0.25176 0.62977 0.98153 0.0
H635 H 0.22533 0.64628 0.92986 0.0
H636 H 0.94784 0.62148 0.86083 0.0
H637 H 0.93034 0.62168 0.79489 0.0
H638 H 0.01132 0.65948 0.75267 0.0
H639 H 0.02832 0.65954 0.81776 0.0
H640 H 0.00207 0.16402 0.08916 0.0
H641 H 0.08493 0.18031 0.13354 0.0
H642 H 0.02043 0.18252 1.0272 0.0
H643 H 0.10361 0.19779 0.07155 0.0
H644 H 0.12688 0.25025 0.968 0.0
H645 H 0.10679 0.23364 1.03011 0.0
H646 H 0.04834 0.17643 0.96672 0.0
H647 H 0.0681 0.19357 0.90479 0.0
C648 C 0.02428 0.17139 0.08579 0.0
C649 C 0.0418 0.17052 0.117 0.0
C650 C 0.03502 0.18193 0.0498 0.0
C651 C 0.06382 0.19201 0.04337 0.0
C652 C 0.08125 0.19098 0.07475 0.0
C653 C 0.07049 0.18057 0.11066 0.0
C654 C 0.10983 0.23402 0.96707 0.0
C655 C 0.09943 0.22343 0.93057 0.0
C656 C 0.09819 0.22427 1.00312 0.0
C657 C 0.07573 0.20323 1.00445 0.0
C658 C 0.06518 0.19286 0.9679 0.0
C659 C 0.07668 0.20278 0.93189 0.0
H660 H 0.12285 0.79932 0.39495 0.0
H661 H 0.13173 0.71511 0.32826 0.0
H662 H 0.10247 0.81742 0.33983 0.0
H663 H 0.11139 0.73337 0.27254 0.0
H664 H 0.04965 0.76977 0.19109 0.0
H665 H 0.06907 0.75024 0.24636 0.0
H666 H 0.11298 0.83154 0.27526 0.0
H667 H 0.09299 0.85117 0.22102 0.0
C668 C 0.12066 0.78453 0.36846 0.0
C669 C 0.12937 0.75558 0.36662 0.0
C670 C 0.10895 0.79508 0.33638 0.0
C671 C 0.10516 0.77718 0.30084 0.0
C672 C 0.11358 0.74807 0.2991 0.0
C673 C 0.12554 0.73753 0.33122 0.0
C674 C 0.06324 0.78366 0.20934 0.0
C675 C 0.06949 0.8123 0.20079 0.0
C676 C 0.07477 0.77225 0.24109 0.0
C677 C 0.09288 0.78905 0.26607 0.0
C678 C 0.09901 0.81769 0.25752 0.0
C679 C 0.08769 0.82898 0.22567 0.0
H680 H 0.46684 0.81677 0.28766 0.0
H681 H 0.47606 0.7319 0.32294 0.0
H682 H 0.49322 0.8379 0.343 0.0
H683 H 0.50287 0.75271 0.37731 0.0
H684 H 0.52144 0.79932 0.49725 0.0
H685 H 0.49814 0.77914 0.43977 0.0
H686 H 0.53814 0.84529 0.37323 0.0
H687 H 0.56137 0.86614 0.43213 0.0
C688 C 0.47441 0.80251 0.30714 0.0
C689 C 0.46877 0.77245 0.30056 0.0
C690 C 0.48992 0.81469 0.33891 0.0
C691 C 0.50038 0.79732 0.3655 0.0
C692 C 0.49491 0.76723 0.3585 0.0
C693 C 0.47945 0.75511 0.32686 0.0
C694 C 0.52557 0.80971 0.47045 0.0
C695 C 0.54351 0.83463 0.46996 0.0
C696 C 0.51218 0.79782 0.43694 0.0
C697 C 0.51592 0.81024 0.40102 0.0
C698 C 0.53425 0.83503 0.40014 0.0
C699 C 0.54793 0.84693 0.43395 0.0
H700 H 0.43605 0.26857 0.68594 0.0
H701 H 0.50896 0.24023 0.73847 0.0
H702 H 0.457 0.24715 0.62049 0.0
H703 H 0.5291 0.21822 0.67467 0.0
H704 H 0.57284 0.19453 0.5522 0.0
H705 H 0.5525 0.22074 0.6138 0.0
H706 H 0.46715 0.20514 0.5766 0.0
H707 H 0.48791 0.17973 0.514 0.0
C708 C 0.45663 0.25809 0.68365 0.0
C709 C 0.47057 0.25631 0.71807 0.0
C710 C 0.46861 0.24534 0.64596 0.0
C711 C 0.49503 0.23043 0.64128 0.0
C712 C 0.50911 0.22956 0.67583 0.0
C713 C 0.49724 0.24218 0.71309 0.0
C714 C 0.5497 0.19648 0.55704 0.0
C715 C 0.53223 0.18438 0.52772 0.0
C716 C 0.5378 0.21162 0.5929 0.0
C717 C 0.50777 0.21528 0.60141 0.0
C718 C 0.49029 0.20337 0.57178 0.0
C719 C 0.50227 0.18833 0.5357 0.0
H720 H 0.85328 0.92805 0.21929 0.0
H721 H 0.84208 0.84256 0.15792 0.0
H722 H 0.85332 0.9486 0.15748 0.0
H723 H 0.84486 0.86284 0.09571 0.0
H724 H 0.88506 0.88754 0.99016 0.0
H725 H 0.84503 0.89019 1.04204 0.0
H726 H 0.8975 0.9447 0.1192 0.0
H727 H 0.93657 0.9424 0.06749 0.0
C728 C 0.84971 0.91359 0.19298 0.0
C729 C 0.84963 0.88338 0.19317 0.0
C730 C 0.84999 0.92547 0.15726 0.0
C731 C 0.85132 0.9073 0.12127 0.0
C732 C 0.84496 0.87766 0.12257 0.0
C733 C 0.84387 0.86583 0.1584 0.0
C734 C 0.88738 0.90116 1.01767 0.0
C735 C 0.91412 0.91387 1.02563 0.0
C736 C 0.86451 0.90258 0.04749 0.0
C737 C 0.86829 0.91658 0.08551 0.0
C738 C 0.89356 0.93333 0.09071 0.0
C739 C 0.91631 0.9318 0.0611 0.0
H740 H 0.93382 0.048 0.83629 0.0
H741 H 0.88401 0.1238 0.87953 0.0
H742 H 0.91856 0.02691 0.89703 0.0
H743 H 0.87089 0.10424 0.9411 0.0
H744 H 0.85676 0.08049 0.05435 0.0
H745 H 0.85011 0.07426 0.98448 0.0
H746 H 0.93374 0.03516 0.95925 0.0
H747 H 0.93864 0.03828 1.02934 0.0
C748 C 0.91928 0.06 0.8585 0.0
C749 C 0.91088 0.08801 0.85365 0.0
C750 C 0.91072 0.04802 0.89356 0.0
C751 C 0.89405 0.06403 0.92472 0.0
C752 C 0.8836 0.09093 0.91811 0.0
C753 C 0.8917 0.10261 0.88293 0.0
C754 C 0.8731 0.06921 1.03416 0.0
C755 C 0.89904 0.06127 0.04727 0.0
C756 C 0.86948 0.06606 0.99381 0.0
C757 C 0.89212 0.05593 0.96584 0.0
C758 C 0.91596 0.04374 0.9795 0.0
C759 C 0.91912 0.04601 1.01991 0.0
H760 H 0.76055 0.11396 0.75086 0.0
H761 H 0.67943 0.06732 0.74713 0.0
H762 H 0.76484 0.11224 0.67876 0.0
H763 H 0.68338 0.06596 0.67579 0.0
H764 H 0.72479 0.15342 0.5778 0.0
H765 H 0.73831 0.13967 0.63977 0.0
H766 H 0.7049 0.05318 0.60991 0.0
H767 H 0.69081 0.06731 0.54798 0.0
C768 C 0.74403 0.10271 0.73454 0.0
C769 C 0.71946 0.09116 0.75463 0.0
C770 C 0.74643 0.10179 0.69332 0.0
C771 C 0.7242 0.08947 0.67154 0.0
C772 C 0.70106 0.07542 0.69144 0.0
C773 C 0.69875 0.07621 0.73254 0.0
C774 C 0.72112 0.13124 0.58392 0.0
C775 C 0.70633 0.11157 0.55846 0.0
C776 C 0.72901 0.12326 0.61942 0.0
C777 C 0.72238 0.09537 0.63008 0.0
C778 C 0.7098 0.07498 0.60292 0.0
C779 C 0.70173 0.08305 0.56752 0.0
H780 H 0.72637 0.95021 0.40374 0.0
H781 H 0.63967 0.96317 0.37601 0.0
H782 H 0.74153 0.93956 0.33412 0.0
H783 H 0.65419 0.94895 0.30676 0.0
H784 H 0.67251 0.89712 0.1945 0.0
H785 H 0.67679 0.94019 0.24227 0.0
H786 H 0.73165 0.89303 0.30645 0.0
H787 H 0.72792 0.8512 0.25867 0.0
C788 C 0.71055 0.95172 0.383 0.0
C789 C 0.68123 0.95558 0.39594 0.0
C790 C 0.71929 0.94518 0.34277 0.0
C791 C 0.69874 0.9412 0.31508 0.0
C792 C 0.67062 0.95075 0.32719 0.0
C793 C 0.66209 0.95839 0.3673 0.0
C794 C 0.68624 0.89655 0.21817 0.0
C795 C 0.69917 0.87072 0.22381 0.0
C796 C 0.68862 0.92113 0.24562 0.0
C797 C 0.70399 0.9201 0.27894 0.0
C798 C 0.71964 0.89508 0.28142 0.0
C799 C 0.71718 0.87072 0.25425 0.0
H800 H 0.62453 0.75285 0.46378 0.0
H801 H 0.56644 0.69501 0.40103 0.0
H802 H 0.60397 0.73723 0.52616 0.0
H803 H 0.54589 0.6792 0.46342 0.0
H804 H 0.49847 0.66816 0.58601 0.0
H805 H 0.51749 0.68553 0.52345 0.0
H806 H 0.59969 0.70311 0.56983 0.0
H807 H 0.58033 0.68693 0.6323 0.0
C808 C 0.60751 0.7366 0.46294 0.0
C809 C 0.59757 0.72538 0.42631 0.0
C810 C 0.59551 0.72747 0.49927 0.0
C811 C 0.57292 0.70655 0.50103 0.0
C812 C 0.56278 0.69558 0.46439 0.0
C813 C 0.57475 0.70478 0.42804 0.0
C814 C 0.5206 0.67579 0.58294 0.0
C815 C 0.53761 0.6759 0.61492 0.0
C816 C 0.53176 0.68569 0.54659 0.0
C817 C 0.56052 0.69603 0.5404 0.0
C818 C 0.57743 0.69597 0.57257 0.0
C819 C 0.56623 0.68632 0.60887 0.0
H820 H 0.63017 0.28766 0.88183 0.0
H821 H 0.62777 0.20163 0.82029 0.0
H822 H 0.61265 0.30696 0.82591 0.0
H823 H 0.60855 0.22071 0.76446 0.0
H824 H 0.5929 0.26552 0.65455 0.0
H825 H 0.61197 0.24503 0.70889 0.0
H826 H 0.57569 0.31517 0.79074 0.0
H827 H 0.55693 0.33559 0.73651 0.0
C828 C 0.62578 0.27265 0.85636 0.0
C829 C 0.63069 0.24286 0.85619 0.0
C830 C 0.61533 0.28384 0.82388 0.0
C831 C 0.60851 0.26577 0.78968 0.0
C832 C 0.61361 0.23585 0.78943 0.0
C833 C 0.62461 0.22468 0.82185 0.0
C834 C 0.58865 0.27657 0.68414 0.0
C835 C 0.57328 0.30269 0.69022 0.0
C836 C 0.59975 0.26463 0.71581 0.0
C837 C 0.59597 0.27815 0.75526 0.0
C838 C 0.58009 0.304 0.76129 0.0
C839 C 0.56908 0.31592 0.72968 0.0
H840 H 0.9851 0.35183 0.99197 0.0
H841 H 0.06854 0.32025 0.94403 0.0
H842 H 0.96418 0.32941 0.93282 0.0
H843 H 0.04733 0.29699 0.88474 0.0
H844 H 0.98819 0.23151 0.80931 0.0
H845 H 0.01172 0.25573 0.86561 0.0
H846 H 0.96448 0.33297 0.85975 0.0
H847 H 0.94146 0.309 0.80288 0.0
C848 C -0.00088 0.34022 0.96867 0.0
C849 C 0.02868 0.33816 0.97307 0.0
C850 C 0.98704 0.32735 0.93449 0.0
C851 C 0.00385 0.31121 0.90355 0.0
C852 C 0.03352 0.30909 0.90781 0.0
C853 C 0.0458 0.32267 0.94176 0.0
C854 C 0.98272 0.25367 0.81995 0.0
C855 C 0.9626 0.26808 0.80126 0.0
C856 C -0.00352 0.2677 0.85222 0.0
C857 C 0.99018 0.29648 0.86766 0.0
C858 C 0.96991 0.3108 0.84913 0.0
C859 C 0.95664 0.297 0.8163 0.0
H860 H 0.01096 0.71473 0.24002 0.0
H861 H 0.95983 0.77212 0.18631 0.0
H862 H 0.0335 0.69625 0.17547 0.0
H863 H 0.98306 0.75372 0.12072 0.0
H864 H 0.00801 0.69027 1.0067 0.0
H865 H 0.98636 0.71249 0.07054 0.0
H866 H 0.06657 0.70486 0.12092 0.0
H867 H 0.08811 0.68217 0.057 0.0
C868 C 0.00447 0.72363 0.21441 0.0
C869 C 0.98321 0.74503 0.21901 0.0
C870 C 0.01778 0.71305 0.17697 0.0
C871 C 0.01044 0.72323 0.14207 0.0
C872 C 0.98928 0.74488 0.14651 0.0
C873 C 0.97599 0.75569 0.18434 0.0
C874 C 0.02115 0.69318 1.03134 0.0
C875 C 0.04995 0.68389 1.02623 0.0
C876 C 0.00867 0.70632 0.06819 0.0
C877 C 0.02438 0.71063 0.1017 0.0
C878 C 0.05334 0.70166 0.09641 0.0
C879 C 0.06588 0.68865 0.05944 0.0
H880 H 0.39346 0.37131 0.48871 0.0
H881 H 0.43906 0.43044 0.56871 0.0
H882 H 0.35126 0.37321 0.53749 0.0
H883 H 0.39719 0.43267 0.61694 0.0
H884 H 0.34245 0.3391 0.66755 0.0
H885 H 0.35316 0.35014 0.60051 0.0
H886 H 0.3445 0.44119 0.63987 0.0
H887 H 0.33265 0.4301 0.70769 0.0
C888 C 0.39404 0.38552 0.51611 0.0
C889 C 0.41956 0.40021 0.52559 0.0
C890 C 0.36991 0.38668 0.54387 0.0
C891 C 0.37095 0.40294 0.58106 0.0
C892 C 0.39552 0.42015 0.58844 0.0
C893 C 0.41971 0.41856 0.56109 0.0
C894 C 0.34103 0.3614 0.66201 0.0
C895 C 0.33813 0.38387 0.69337 0.0
C896 C 0.3472 0.36775 0.62318 0.0
C897 C 0.35079 0.39662 0.61527 0.0
C898 C 0.34257 0.41877 0.64545 0.0
C899 C 0.33604 0.41239 0.68431 0.0
H900 H 0.37519 0.55066 0.55507 0.0
H901 H 0.35863 0.64207 0.56827 0.0
H902 H 0.36837 0.54779 0.48471 0.0
H903 H 0.35333 0.63982 0.49835 0.0
H904 H 0.35362 0.63804 0.37275 0.0
H905 H 0.33489 0.62701 0.43818 0.0
H906 H 0.39994 0.56218 0.43362 0.0
H907 H 0.41678 0.5713 0.36698 0.0
C908 C 0.36937 0.56996 0.54301 0.0
C909 C 0.36781 0.59664 0.56678 0.0
C910 C 0.36568 0.56842 0.50272 0.0
C911 C 0.3611 0.59369 0.48543 0.0
C912 C 0.35663 0.61978 0.51031 0.0
C913 C 0.35978 0.62118 0.55061 0.0
C914 C 0.36323 0.62064 0.38504 0.0
C915 C 0.38728 0.60608 0.36495 0.0
C916 C 0.35267 0.61455 0.4229 0.0
C917 C 0.36633 0.59427 0.44186 0.0
C918 C 0.3887 0.57794 0.42025 0.0
C919 C 0.39885 0.5836 0.38214 0.0
H920 H 0.23611 0.66396 0.246 0.0
H921 H 0.23747 0.57147 0.24862 0.0
H922 H 0.24755 0.65751 0.17527 0.0
H923 H 0.24917 0.56491 0.17686 0.0
H924 H 0.2593 0.64743 0.05004 0.0
H925 H 0.27569 0.64301 0.11453 0.0
H926 H 0.21718 0.57039 0.12761 0.0
H927 H 0.20212 0.57382 0.0624 0.0
C928 C 0.23994 0.64224 0.23169 0.0
C929 C 0.23527 0.61817 0.25289 0.0
C930 C 0.24668 0.63851 0.19086 0.0
C931 C 0.24887 0.61062 0.17019 0.0
C932 C 0.24705 0.58665 0.19187 0.0
C933 C 0.24024 0.59039 0.23289 0.0
C934 C 0.25086 0.62976 0.06596 0.0
C935 C 0.22877 0.61151 0.05177 0.0
C936 C 0.2601 0.62737 0.10308 0.0
C937 C 0.24715 0.60692 0.12675 0.0
C938 C 0.22762 0.58648 0.11037 0.0
C939 C 0.21861 0.5887 0.07316 0.0
H940 H 0.2293 0.35137 0.74743 0.0
H941 H 0.16585 0.38894 0.68601 0.0
H942 H 0.22931 0.39433 0.7948 0.0
H943 H 0.16572 0.43231 0.73378 0.0
H944 H 0.12813 0.43241 0.87044 0.0
H945 H 0.14224 0.42635 0.80055 0.0
H946 H 0.23052 0.44623 0.82234 0.0
H947 H 0.21615 0.45347 0.89336 0.0
C948 C 0.21618 0.36938 0.74324 0.0
C949 C 0.19689 0.36659 0.71405 0.0
C950 C 0.21644 0.39426 0.77009 0.0
C951 C 0.19695 0.41649 0.76859 0.0
C952 C 0.18068 0.41535 0.73589 0.0
C953 C 0.18071 0.3905 0.70864 0.0
C954 C 0.15032 0.43721 0.86072 0.0
C955 C 0.17126 0.44196 0.88777 0.0
C956 C 0.15847 0.43379 0.82015 0.0
C957 C 0.18771 0.43464 0.80601 0.0
C958 C 0.2079 0.44465 0.83258 0.0
C959 C 0.19968 0.44845 0.87328 0.0
H960 H 0.02448 0.29924 0.10977 0.0
H961 H 0.10438 0.31392 0.16303 0.0
H962 H 0.0033 0.27843 0.16804 0.0
H963 H 0.08268 0.29571 0.22304 0.0
H964 H 0.05008 0.2096 0.27025 0.0
H965 H 0.07057 0.25146 0.24224 0.0
H966 H 0.98502 0.28233 0.23457 0.0
H967 H 0.96468 0.23888 0.26062 0.0
C968 C 0.03731 0.29834 0.13434 0.0
C969 C 0.06589 0.30821 0.13212 0.0
C970 C 0.02506 0.28703 0.16819 0.0
C971 C 0.04105 0.28585 0.20088 0.0
C972 C 0.06971 0.29604 0.19851 0.0
C973 C 0.08221 0.30636 0.16405 0.0
C974 C 0.0357 0.22604 0.26435 0.0
C975 C 0.00606 0.22049 0.26537 0.0
C976 C 0.04742 0.25027 0.24823 0.0
C977 C 0.02939 0.26938 0.23371 0.0
C978 C -0.00052 0.26709 0.2435 0.0
C979 C 0.98776 0.24245 0.25906 0.0
H980 H 0.01843 0.74422 0.35466 0.0
H981 H 0.99376 0.81952 0.43554 0.0
H982 H 0.03496 0.7216 0.40869 0.0
H983 H 0.0098 0.79672 0.49028 0.0
H984 H 0.09698 0.76165 0.52791 0.0
H985 H 0.05585 0.78438 0.5083 0.0
H986 H 0.01996 0.70034 0.47038 0.0
H987 H 0.06209 0.6776 0.48927 0.0
C988 C 0.01643 0.75578 0.38419 0.0
C989 C 0.00433 0.78316 0.39124 0.0
C990 C 0.02527 0.74266 0.41534 0.0
C991 C 0.02243 0.75686 0.4542 0.0
C992 C 0.01163 0.785 0.46085 0.0
C993 C 0.00293 0.79819 0.42947 0.0
C994 C 0.07945 0.74797 0.51789 0.0
C995 C 0.08319 0.71819 0.50801 0.0
C996 C 0.05572 0.76102 0.50651 0.0
C997 C 0.03576 0.74409 0.48541 0.0
C998 C 0.03594 0.71384 0.48501 0.0
C999 C 0.05991 0.70078 0.49615 0.0
H1000 H 0.48185 0.74953 0.71764 0.0
H1001 H 0.55398 0.70644 0.75232 0.0
H1002 H 0.5142 0.77727 0.6759 0.0
H1003 H 0.58676 0.73282 0.70796 0.0
H1004 H 0.62556 0.80905 0.62937 0.0
H1005 H 0.60568 0.78149 0.68268 0.0
H1006 H 0.53738 0.74939 0.61184 0.0
H1007 H 0.55682 0.77761 0.55936 0.0
C1008 C 0.50482 0.74675 0.71741 0.0
C1009 C 0.51562 0.72438 0.73541 0.0
C1010 C 0.52326 0.76222 0.69302 0.0
C1011 C 0.55252 0.7554 0.68674 0.0
C1012 C 0.56401 0.73745 0.71124 0.0
C1013 C 0.54539 0.72242 0.73654 0.0
C1014 C 0.60739 0.79454 0.62435 0.0
C1015 C 0.59243 0.79532 0.59075 0.0
C1016 C 0.59579 0.77925 0.65506 0.0
C1017 C 0.56947 0.76453 0.65173 0.0
C1018 C 0.55726 0.76156 0.61539 0.0
C1019 C 0.5687 0.77702 0.58498 0.0
H1020 H 0.55995 0.19011 0.92406 0.0
H1021 H 0.59872 0.2587 0.99829 0.0
H1022 H 0.53575 0.22519 0.89295 0.0
H1023 H 0.57466 0.29465 0.96598 0.0
H1024 H 0.49214 0.33307 0.91087 0.0
H1025 H 0.52498 0.31172 0.95022 0.0
H1026 H 0.55897 0.25799 0.84539 0.0
H1027 H 0.5261 0.27923 0.80642 0.0
C1028 C 0.56287 0.21282 0.93431 0.0
C1029 C 0.58269 0.22201 0.96157 0.0
C1030 C 0.54937 0.23291 0.91603 0.0
C1031 C 0.55494 0.26252 0.92537 0.0
C1032 C 0.57105 0.27183 0.95726 0.0
C1033 C 0.58465 0.25143 0.97576 0.0
C1034 C 0.5082 0.31825 0.89586 0.0
C1035 C 0.50685 0.3076 0.85585 0.0
C1036 C 0.52671 0.30582 0.91845 0.0
C1037 C 0.54385 0.28281 0.90086 0.0
C1038 C 0.54569 0.27562 0.85954 0.0
C1039 C 0.52722 0.28803 0.83706 0.0
H1040 H 0.944 0.77892 0.97661 0.0
H1041 H 0.97811 0.82683 0.8815 0.0
H1042 H 0.9597 0.73436 0.93764 0.0
H1043 H 0.99592 0.78255 0.84408 0.0
H1044 H 0.05906 0.70159 0.83095 0.0
H1045 H 0.01214 0.72365 0.82867 0.0
H1046 H 0.01435 0.75934 0.95099 0.0
H1047 H 0.06043 0.73703 0.95333 0.0
C1048 C 0.95307 0.77977 0.94632 0.0
C1049 C 0.96207 0.8062 0.93306 0.0
C1050 C 0.96189 0.75418 0.92375 0.0
C1051 C 0.98145 0.7559 0.89016 0.0
C1052 C 0.98229 0.78113 0.87137 0.0
C1053 C 0.97249 0.80671 0.89324 0.0
C1054 C 0.04935 0.71441 0.85712 0.0
C1055 C 0.06287 0.71759 0.89247 0.0
C1056 C 0.02256 0.72658 0.85586 0.0
C1057 C 0.00911 0.74172 0.89014 0.0
C1058 C 0.02372 0.74646 0.92464 0.0
C1059 C 0.05041 0.73447 0.92579 0.0
H1060 H 0.62669 0.80555 0.09193 0.0
H1061 H 0.58178 0.84021 0.20306 0.0
H1062 H 0.58236 0.80318 0.06075 0.0
H1063 H 0.53721 0.83677 0.17248 0.0
H1064 H 0.46692 0.79105 0.15847 0.0
H1065 H 0.49866 0.82744 0.13221 0.0
H1066 H 0.55837 0.76043 0.08303 0.0
H1067 H 0.52473 0.72388 0.10603 0.0
C1068 C 0.60765 0.81433 0.10919 0.0
C1069 C 0.60717 0.82168 0.15038 0.0
C1070 C 0.58214 0.81294 0.09117 0.0
C1071 C 0.55609 0.81742 0.11482 0.0
C1072 C 0.5568 0.83175 0.15356 0.0
C1073 C 0.58239 0.8335 0.17153 0.0
C1074 C 0.48606 0.78401 0.14017 0.0
C1075 C 0.49385 0.75488 0.13526 0.0
C1076 C 0.50424 0.8049 0.12491 0.0
C1077 C 0.53168 0.79715 0.10748 0.0
C1078 C 0.53758 0.76746 0.09708 0.0
C1079 C 0.51861 0.74636 0.11093 0.0
H1080 H 0.53169 0.19702 0.34026 0.0
H1081 H 0.53601 0.23143 0.46252 0.0
H1082 H 0.48385 0.21747 0.34143 0.0
H1083 H 0.4887 0.2513 0.46426 0.0
H1084 H 0.43457 0.29475 0.4864 0.0
H1085 H 0.4332 0.2449 0.45619 0.0
H1086 H 0.47351 0.27076 0.34691 0.0
H1087 H 0.47525 0.3203 0.37645 0.0
C1088 C 0.5223 0.20904 0.36732 0.0
C1089 C 0.53759 0.21354 0.40104 0.0
C1090 C 0.49475 0.22001 0.36822 0.0
C1091 C 0.482 0.23533 0.40302 0.0
C1092 C 0.49727 0.2389 0.43708 0.0
C1093 C 0.52486 0.22835 0.43594 0.0
C1094 C 0.4416 0.29005 0.45518 0.0
C1095 C 0.45747 0.31056 0.43462 0.0
C1096 C 0.44026 0.26151 0.43751 0.0
C1097 C 0.45725 0.25416 0.40163 0.0
C1098 C 0.46293 0.27586 0.37648 0.0
C1099 C 0.46433 0.30442 0.39363 0.0
H1100 H 0.07708 0.33446 0.72011 0.0
H1101 H 0.1232 0.32101 0.60437 0.0
H1102 H 0.03209 0.33169 0.69041 0.0
H1103 H 0.07798 0.31646 0.57399 0.0
H1104 H 0.02446 0.22781 0.60662 0.0
H1105 H 0.05754 0.2673 0.59179 0.0
H1106 H 0.99376 0.3293 0.64401 0.0
H1107 H 0.96174 0.28991 0.66059 0.0
C1108 C 0.07765 0.33246 0.68812 0.0
C1109 C 0.10311 0.32562 0.6643 0.0
C1110 C 0.05179 0.33098 0.6708 0.0
C1111 C 0.0516 0.32187 0.62994 0.0
C1112 C 0.07755 0.32236 0.60568 0.0
C1113 C 0.10338 0.32442 0.62306 0.0
C1114 C 0.0172 0.24985 0.61346 0.0
C1115 C 0.99103 0.25596 0.63599 0.0
C1116 C 0.0359 0.2726 0.60438 0.0
C1117 C 0.02843 0.30148 0.61796 0.0
C1118 C 0.00019 0.30732 0.6338 0.0
C1119 C 0.98192 0.28468 0.64362 0.0
H1120 H 0.99108 0.03987 0.19923 0.0
H1121 H 0.03137 0.09257 0.113 0.0
H1122 H 0.98485 1.00028 0.14583 0.0
H1123 H 0.02507 0.05381 0.0603 0.0
H1124 H 0.98796 0.98806 0.96958 0.0
H1125 H 0.98879 0.02643 1.0243 0.0
H1126 H 0.01787 0.9662 0.09808 0.0
H1127 H 0.01756 0.92768 0.04246 0.0
C1128 C -0.0021 0.04324 0.16886 0.0
C1129 C 0.01158 0.06934 0.16025 0.0
C1130 C 0.99473 0.02049 0.13836 0.0
C1131 C 0.00467 0.02372 0.09868 0.0
C1132 C 0.01701 0.05045 0.09027 0.0
C1133 C 0.02062 0.07275 0.12057 0.0
C1134 C 0.99475 0.98293 0.99736 0.0
C1135 C 0.00302 0.95472 1.00142 0.0
C1136 C 0.99504 0.00498 1.0289 0.0
C1137 C 0.0031 0.99948 0.06589 0.0
C1138 C 0.01118 0.97118 0.0702 0.0
C1139 C 0.01139 0.94913 1.03819 0.0
H1140 H 0.22079 0.75076 0.36203 0.0
H1141 H 0.25598 0.69912 0.44194 0.0
H1142 H 0.26187 0.73983 0.31334 0.0
H1143 H 0.2978 0.6884 0.39309 0.0
H1144 H 0.33084 0.70658 0.22151 0.0
H1145 H 0.28784 0.70083 0.26764 0.0
H1146 H 0.33922 0.71909 0.36626 0.0
H1147 H 0.38181 0.72509 0.32017 0.0
C1148 C 0.23728 0.73682 0.36903 0.0
C1149 C 0.23518 0.72589 0.40587 0.0
C1150 C 0.26075 0.7303 0.34091 0.0
C1151 C 0.28322 0.71313 0.34907 0.0
C1152 C 0.28092 0.70173 0.3858 0.0
C1153 C 0.257 0.70782 0.41378 0.0
C1154 C 0.33308 0.7081 0.25295 0.0
C1155 C 0.35974 0.7159 0.26725 0.0
C1156 C 0.3084 0.70523 0.27946 0.0
C1157 C 0.30994 0.70985 0.32081 0.0
C1158 C 0.33715 0.71519 0.33477 0.0
C1159 C 0.36163 0.71853 0.30833 0.0
H1160 H 0.57477 0.03825 0.38683 0.0
H1161 H 0.57964 0.09144 0.49829 0.0
H1162 H 0.57323 0.99491 0.42073 0.0
H1163 H 0.57785 0.0479 0.53248 0.0
H1164 H 0.59135 0.95998 0.57789 0.0
H1165 H 0.60154 1.00243 0.54229 0.0
H1166 H 0.53621 0.97353 0.46477 0.0
H1167 H 0.52651 0.93105 0.49987 0.0
C1168 C 0.57594 0.04068 0.41857 0.0
C1169 C 0.57707 0.06834 0.43987 0.0
C1170 C 0.57482 0.0158 0.43806 0.0
C1171 C 0.57484 0.01785 0.47947 0.0
C1172 C 0.57781 0.04548 0.50057 0.0
C1173 C 0.57887 0.07047 0.48098 0.0
C1174 C 0.57946 0.96257 0.55292 0.0
C1175 C 0.55824 0.94208 0.54154 0.0
C1176 C 0.58511 0.98702 0.53274 0.0
C1177 C 0.5698 0.99144 0.50051 0.0
C1178 C 0.54875 0.9707 0.48904 0.0
C1179 C 0.54299 0.94643 0.50937 0.0
H1180 H 0.33918 0.27155 0.83915 0.0
H1181 H 0.38758 0.23569 0.73145 0.0
H1182 H 0.29753 0.27703 0.80208 0.0
H1183 H 0.3464 0.24197 0.69422 0.0
H1184 H 0.27953 0.29388 0.63969 0.0
H1185 H 0.31962 0.28648 0.67805 0.0
H1186 H 0.26214 0.2437 0.7604 0.0
H1187 H 0.22198 0.25043 0.72121 0.0
C1188 C 0.34085 0.26484 0.80757 0.0
C1189 C 0.36652 0.25321 0.78811 0.0
C1190 C 0.31702 0.26783 0.78642 0.0
C1191 C 0.31873 0.26 0.74523 0.0
C1192 C 0.3445 0.24838 0.72587 0.0
C1193 C 0.368 0.24467 0.74717 0.0
C1194 C 0.27543 0.28275 0.66586 0.0
C1195 C 0.24756 0.27273 0.67745 0.0
C1196 C 0.29842 0.27848 0.68778 0.0
C1197 C 0.29405 0.26449 0.72221 0.0
C1198 C 0.26612 0.25472 0.73412 0.0
C1199 C 0.24315 0.25853 0.71171 0.0
H1200 H 0.71982 0.24103 0.85402 0.0
H1201 H 0.74896 0.18266 0.93024 0.0
H1202 H 0.76153 0.22997 0.80663 0.0
H1203 H 0.7915 0.17182 0.88269 0.0
H1204 H 0.87942 0.20868 0.81743 0.0
H1205 H 0.83543 0.20218 0.8608 0.0
H1206 H 0.7866 0.19147 0.75902 0.0
H1207 H 0.83088 0.19776 0.7157 0.0
C1208 C 0.73507 0.22554 0.86046 0.0
C1209 C 0.73116 0.2129 0.89605 0.0
C1210 C 0.75892 0.21899 0.83305 0.0
C1211 C 0.78 0.19995 0.84065 0.0
C1212 C 0.77574 0.18663 0.87589 0.0
C1213 C 0.75139 0.19278 0.90309 0.0
C1214 C 0.85949 0.2035 0.80419 0.0
C1215 C 0.85871 0.20313 0.76309 0.0
C1216 C 0.83419 0.19993 0.82909 0.0
C1217 C 0.80732 0.19662 0.81357 0.0
C1218 C 0.80687 0.1942 0.77206 0.0
C1219 C 0.83229 0.19734 0.7471 0.0
H1220 H 0.86472 0.80087 0.32447 0.0
H1221 H 0.87076 0.71608 0.25861 0.0
H1222 H 0.82298 0.81076 0.29026 0.0
H1223 H 0.8284 0.72543 0.2258 0.0
H1224 H 0.73444 0.74364 0.20538 0.0
H1225 H 0.77405 0.73506 0.24463 0.0
H1226 H 0.81443 0.81578 0.2173 0.0
H1227 H 0.7753 0.82403 0.17761 0.0
C1228 C 0.85721 0.7844 0.30272 0.0
C1229 C 0.87133 0.75789 0.29387 0.0
C1230 C 0.83321 0.78998 0.28329 0.0
C1231 C 0.82234 0.7688 0.25549 0.0
C1232 C 0.83608 0.74206 0.24737 0.0
C1233 C 0.86043 0.73678 0.26605 0.0
C1234 C 0.75172 0.75956 0.20799 0.0
C1235 C 0.75195 0.78434 0.1882 0.0
C1236 C 0.7744 0.75464 0.23029 0.0
C1237 C 0.79737 0.77473 0.23391 0.0
C1238 C 0.79699 0.8 0.21523 0.0
C1239 C 0.77466 0.80462 0.19234 0.0
H1240 H 0.55916 0.57212 0.63054 0.0
H1241 H 0.47128 0.56348 0.68049 0.0
H1242 H 0.55305 0.52967 0.58375 0.0
H1243 H 0.46485 0.52068 0.63214 0.0
H1244 H 0.46089 0.47458 0.50079 0.0
H1245 H 0.46429 0.51137 0.55723 0.0
H1246 H 0.54493 0.4762 0.57899 0.0
H1247 H 0.54138 0.43905 0.52229 0.0
C1248 C 0.53843 0.56105 0.63172 0.0
C1249 C 0.51559 0.57148 0.6592 0.0
C1250 C 0.53504 0.53647 0.6049 0.0
C1251 C 0.50854 0.52159 0.60412 0.0
C1252 C 0.48558 0.5317 0.63187 0.0
C1253 C 0.48919 0.55621 0.65952 0.0
C1254 C 0.47932 0.47456 0.51772 0.0
C1255 C 0.50112 0.45413 0.50669 0.0
C1256 C 0.48107 0.49551 0.5504 0.0
C1257 C 0.50489 0.49688 0.57268 0.0
C1258 C 0.52637 0.47591 0.56228 0.0
C1259 C 0.52439 0.45463 0.52983 0.0
H1260 H 0.07992 0.53746 0.88822 0.0
H1261 H 0.09224 0.59147 0.997 0.0
H1262 H 0.07628 0.49486 0.92371 0.0
H1263 H 0.08809 0.54863 1.03292 0.0
H1264 H 0.09363 0.4586 0.07999 0.0
H1265 H 0.10755 0.50013 0.0433 0.0
H1266 H 0.03774 0.47892 0.97039 0.0
H1267 H 0.02413 0.43794 1.00659 0.0
C1268 C 0.08225 0.5402 0.91969 0.0
C1269 C 0.08595 0.56792 0.93984 0.0
C1270 C 0.07998 0.51576 0.94012 0.0
C1271 C 0.08125 0.51831 0.98137 0.0
C1272 C 0.08698 0.54584 1.00118 0.0
C1273 C 0.0893 0.57041 0.98062 0.0
C1274 C 0.08143 0.46288 0.05601 0.0
C1275 C 0.05779 0.445 0.04615 0.0
C1276 C 0.08931 0.48668 1.03509 0.0
C1277 C 0.07391 0.49281 1.00364 0.0
C1278 C 0.05044 0.47467 0.9939 0.0
C1279 C 0.04245 0.45125 1.01492 0.0
H1280 H 0.07575 0.12473 0.45353 0.0
H1281 H 0.16476 0.1419 0.41462 0.0
H1282 H 0.08666 0.13325 0.52204 0.0
H1283 H 0.17513 0.15301 0.48259 0.0
H1284 H 0.10596 0.21106 0.61572 0.0
H1285 H 0.09357 0.17585 0.56183 0.0
H1286 H 0.18109 0.14542 0.54654 0.0
H1287 H 0.19362 0.18259 0.59893 0.0
C1288 C 0.09777 0.12984 0.45948 0.0
C1289 C 0.11924 0.1334 0.42848 0.0
C1290 C 0.10397 0.13507 0.49892 0.0
C1291 C 0.13162 0.14456 0.50823 0.0
C1292 C 0.15357 0.14565 0.47706 0.0
C1293 C 0.14749 0.13989 0.43776 0.0
C1294 C 0.12214 0.1959 0.60194 0.0
C1295 C 0.15066 0.19939 0.61103 0.0
C1296 C 0.11511 0.17558 0.57089 0.0
C1297 C 0.13656 0.15824 0.54874 0.0
C1298 C 0.16425 0.1591 0.56194 0.0
C1299 C 0.17141 0.18001 0.59234 0.0
H1300 H 0.13728 0.86286 0.71228 0.0
H1301 H 0.13661 0.77023 0.71304 0.0
H1302 H 0.11998 0.86877 0.78223 0.0
H1303 H 0.11959 0.77609 0.78332 0.0
H1304 H 0.04181 0.8016 0.87782 0.0
H1305 H 0.07439 0.78928 0.81871 0.0
H1306 H 0.12671 0.86494 0.85048 0.0
H1307 H 0.09327 0.87739 0.90953 0.0
C1308 C 0.13411 0.84378 0.72762 0.0
C1309 C 0.13794 0.81608 0.7069 0.0
C1310 C 0.12431 0.84715 0.7679 0.0
C1311 C 0.11821 0.82289 0.78856 0.0
C1312 C 0.1236 0.79523 0.76827 0.0
C1313 C 0.13328 0.79187 0.72795 0.0
C1314 C 0.06095 0.81486 0.87295 0.0
C1315 C 0.06514 0.84034 0.89809 0.0
C1316 C 0.0797 0.80787 0.83899 0.0
C1317 C 0.10296 0.82644 0.82927 0.0
C1318 C 0.1087 0.85047 0.85667 0.0
C1319 C 0.08989 0.85737 0.89085 0.0
H1320 H 0.4725 0.83957 1.011 0.0
H1321 H 0.38226 0.84941 0.99901 0.0
H1322 H 0.48386 0.84447 0.94122 0.0
H1323 H 0.39376 0.85589 0.92921 0.0
H1324 H 0.42139 0.82209 0.79897 0.0
H1325 H 0.40881 0.82458 0.87032 0.0
H1326 H 0.48628 0.87503 0.8903 0.0
H1327 H 0.49914 0.8717 0.81908 0.0
C1328 C 0.45513 0.84335 0.9935 0.0
C1329 C 0.42645 0.84368 1.01026 0.0
C1330 C 0.46167 0.84644 0.95355 0.0
C1331 C 0.43968 0.85025 0.92946 0.0
C1332 C 0.41113 0.85241 0.94681 0.0
C1333 C 0.40456 0.84914 0.98688 0.0
C1334 C 0.43563 0.83372 0.81874 0.0
C1335 C 0.46135 0.84643 0.80366 0.0
C1336 C 0.42834 0.83539 0.85956 0.0
C1337 C 0.4465 0.85008 0.88607 0.0
C1338 C 0.47202 0.86317 0.87078 0.0
C1339 C 0.47944 0.86122 0.83002 0.0
H1340 H 0.42684 0.15846 0.22512 0.0
H1341 H 0.51533 0.1316 0.20941 0.0
H1342 H 0.4314 0.1719 0.15764 0.0
H1343 H 0.52004 0.1453 0.1425 0.0
H1344 H 0.5057 0.1409 1.01086 0.0
H1345 H 0.50275 0.12919 0.07883 0.0
H1346 H 0.45585 0.20752 0.11837 0.0
H1347 H 0.45767 0.21857 0.05021 0.0
C1348 C 0.44721 0.15549 0.20722 0.0
C1349 C 0.47057 0.14362 0.22214 0.0
C1350 C 0.44991 0.16331 0.16878 0.0
C1351 C 0.47608 0.15958 0.14481 0.0
C1352 C 0.49947 0.14793 0.15999 0.0
C1353 C 0.49674 0.14001 0.19823 0.0
C1354 C 0.4948 0.15561 1.03411 0.0
C1355 C 0.48183 0.18056 1.02523 0.0
C1356 C 0.49331 0.14904 0.07304 0.0
C1357 C 0.47889 0.16736 0.10385 0.0
C1358 C 0.46672 0.19279 0.09514 0.0
C1359 C 0.46815 0.19933 0.05619 0.0
H1360 H 0.94316 0.7565 0.48321 0.0
H1361 H 0.92753 0.84481 0.46678 0.0
H1362 H 0.94852 0.77093 0.55286 0.0
H1363 H 0.93214 0.85936 0.53714 0.0
H1364 H 0.96821 0.88278 0.65798 0.0
H1365 H 0.96235 0.8684 0.58831 0.0
H1366 H 0.9283 0.78551 0.6168 0.0
H1367 H 0.93543 0.79937 0.68614 0.0
C1368 C 0.94028 0.77903 0.49445 0.0
C1369 C 0.93454 0.79928 0.46857 0.0
C1370 C 0.94335 0.78743 0.53499 0.0
C1371 C 0.9408 0.81655 0.55186 0.0
C1372 C 0.93473 0.83679 0.52599 0.0
C1373 C 0.93169 0.82835 0.4853 0.0
C1374 C 0.95981 0.86128 0.64964 0.0
C1375 C 0.9525 0.84244 0.67886 0.0
C1376 C 0.95599 0.85308 0.60918 0.0
C1377 C 0.94469 0.82559 0.59574 0.0
C1378 C 0.93739 0.80674 0.62497 0.0
C1379 C 0.94118 0.81495 0.66543 0.0
H1380 H 0.91536 0.22842 0.54623 0.0
H1381 H 0.95419 0.15156 0.57475 0.0
H1382 H 0.9284 0.21337 0.47539 0.0
H1383 H 0.96751 0.13697 0.50468 0.0
H1384 H 0.01647 0.13728 0.37903 0.0
H1385 H 0.00125 0.15154 0.44911 0.0
H1386 H 0.91848 0.17519 0.41845 0.0
H1387 H 0.93352 0.16042 0.34836 0.0
C1388 C 0.92642 0.20823 0.53762 0.0
C1389 C 0.93336 0.19125 0.56691 0.0
C1390 C 0.93395 0.19953 0.49676 0.0
C1391 C 0.94927 0.17385 0.48371 0.0
C1392 C 0.95606 0.15697 0.51307 0.0
C1393 C 0.94811 0.16534 0.55362 0.0
C1394 C 0.99488 0.14517 0.3871 0.0
C1395 C 0.97625 0.14723 0.35745 0.0
C1396 C 0.98607 0.15343 0.42757 0.0
C1397 C 0.95849 0.16472 0.44008 0.0
C1398 C 0.93991 0.16688 0.4104 0.0
C1399 C 0.9485 0.15805 0.36998 0.0
H1400 H 0.6292 0.13916 0.06319 0.0
H1401 H 0.66165 0.2218 0.11247 0.0
H1402 H 0.61429 0.12689 0.13008 0.0
H1403 H 0.6471 0.20934 0.17932 0.0
H1404 H 0.64219 0.16593 0.29554 0.0
H1405 H 0.6581 0.17646 0.22827 0.0
H1406 H 0.57845 0.1407 0.18834 0.0
H1407 H 0.56231 0.1305 0.2559 0.0
C1408 C 0.63352 0.15466 0.08819 0.0
C1409 C 0.64699 0.18147 0.08183 0.0
C1410 C 0.62468 0.14766 0.1268 0.0
C1411 C 0.62938 0.16699 0.1607 0.0
C1412 C 0.64328 0.19362 0.15434 0.0
C1413 C 0.65165 0.20083 0.11572 0.0
C1414 C 0.62806 0.15999 0.27248 0.0
C1415 C 0.6009 0.14708 0.28172 0.0
C1416 C 0.63717 0.16632 0.23369 0.0
C1417 C 0.61971 0.15959 0.20228 0.0
C1418 C 0.59278 0.14607 0.2113 0.0
C1419 C 0.58345 0.14018 0.2503 0.0
H1420 H 0.64937 0.87282 0.68481 0.0
H1421 H 0.56043 0.86867 0.73119 0.0
H1422 H 0.66394 0.86333 0.74895 0.0
H1423 H 0.5746 0.85784 0.79419 0.0
H1424 H 0.60498 0.85955 0.91685 0.0
H1425 H 0.59197 0.8713 0.85371 0.0
H1426 H 0.66974 0.83214 0.79546 0.0
H1427 H 0.68371 0.82207 0.85918 0.0
C1428 C 0.63281 0.86999 0.70859 0.0
C1429 C 0.60357 0.87183 0.70208 0.0
C1430 C 0.64119 0.86411 0.7457 0.0
C1431 C 0.62071 0.8596 0.778 0.0
C1432 C 0.59147 0.86159 0.77124 0.0
C1433 C 0.58318 0.86767 0.73439 0.0
C1434 C 0.61973 0.85368 0.89091 0.0
C1435 C 0.64572 0.83975 0.89442 0.0
C1436 C 0.61191 0.86012 0.85391 0.0
C1437 C 0.6295 0.85281 0.81817 0.0
C1438 C 0.65543 0.83872 0.8216 0.0
C1439 C 0.66334 0.83242 0.8587 0.0
H1440 H 0.66936 0.66521 0.90189 0.0
H1441 H 0.59228 0.62122 0.9458 0.0
H1442 H 0.68291 0.67576 0.96888 0.0
H1443 H 0.6064 0.63082 1.01315 0.0
H1444 H 0.70646 0.69729 0.08524 0.0
H1445 H 0.69701 0.66155 1.02945 0.0
H1446 H 0.60582 0.67633 0.0552 0.0
H1447 H 0.6155 0.71105 0.11149 0.0
C1448 C 0.65562 0.65729 0.92587 0.0
C1449 C 0.6295 0.64297 0.91876 0.0
C1450 C 0.6636 0.66288 0.9643 0.0
C1451 C 0.64564 0.65423 0.99651 0.0
C1452 C 0.62055 0.63798 0.98901 0.0
C1453 C 0.61254 0.63238 0.95045 0.0
C1454 C 0.68439 0.69155 0.08007 0.0
C1455 C 0.66164 0.70656 0.10235 0.0
C1456 C 0.67896 0.6714 0.04797 0.0
C1457 C 0.65073 0.66664 1.03729 0.0
C1458 C 0.6278 0.6793 0.06262 0.0
C1459 C 0.63326 0.69921 0.09493 0.0
H1460 H 0.58576 0.32255 0.40214 0.0
H1461 H 0.57509 0.40341 0.35594 0.0
H1462 H 0.61981 0.30726 0.34459 0.0
H1463 H 0.60817 0.38837 0.29868 0.0
H1464 H 0.66725 0.36045 0.19656 0.0
H1465 H 0.65345 0.37513 0.26624 0.0
H1466 H 0.61164 0.29206 0.27678 0.0
H1467 H 0.62726 0.27658 0.20776 0.0
C1468 C 0.59163 0.33747 0.3805 0.0
C1469 C 0.5779 0.36411 0.38329 0.0
C1470 C 0.61076 0.32861 0.34727 0.0
C1471 C 0.61647 0.34637 0.31656 0.0
C1472 C 0.60467 0.37413 0.32164 0.0
C1473 C 0.58558 0.38281 0.35452 0.0
C1474 C 0.6559 0.34492 0.2139 0.0
C1475 C 0.64789 0.31747 0.19609 0.0
C1476 C 0.64771 0.35349 0.25393 0.0
C1477 C 0.63094 0.33504 0.27713 0.0
C1478 C 0.62462 0.30689 0.26004 0.0
C1479 C 0.63311 0.29818 0.2201 0.0
H1480 H 0.90559 0.31971 0.28985 0.0
H1481 H 0.97565 0.37467 0.32919 0.0
H1482 H 0.88935 0.31341 0.35875 0.0
H1483 H 0.95943 0.36838 0.39798 0.0
H1484 H 0.90528 0.37146 0.51796 0.0
H1485 H 0.91545 0.38067 0.4486 0.0
H1486 H 0.91165 0.28887 0.4117 0.0
H1487 H 0.90169 0.27974 0.48074 0.0
C1488 C 0.91735 0.33056 0.31328 0.0
C1489 C 0.9419 0.34757 0.30435 0.0
C1490 C 0.90814 0.3269 0.35256 0.0
C1491 C 0.92308 0.34054 0.38354 0.0
C1492 C 0.94736 0.35791 0.37462 0.0
C1493 C 0.9568 0.36124 0.33534 0.0
C1494 C 0.90619 0.35339 0.49485 0.0
C1495 C 0.90286 0.32494 0.50444 0.0
C1496 C 0.91217 0.3586 0.45537 0.0
C1497 C 0.9144 0.33545 0.42496 0.0
C1498 C 0.90984 0.30709 0.43455 0.0
C1499 C 0.9043 0.30187 0.47396 0.0
H1500 H -0.00388 0.60831 0.70592 0.0
H1501 H 0.92591 0.66672 0.74116 0.0
H1502 H 0.98915 0.61015 0.63645 0.0
H1503 H 0.91925 0.66938 0.67135 0.0
H1504 H 0.90615 0.65449 0.53957 0.0
H1505 H 0.90681 0.64372 0.60784 0.0
H1506 H -0.00029 0.64888 0.59513 0.0
H1507 H -0.001 0.6594 0.52712 0.0
C1508 C 0.97886 0.62115 0.69856 0.0
C1509 C 0.9616 0.63751 0.7284 0.0
C1510 C 0.975 0.6224 0.65895 0.0
C1511 C 0.95402 0.64032 0.64852 0.0
C1512 C 0.93551 0.65528 0.67856 0.0
C1513 C 0.93926 0.65382 0.71838 0.0
C1514 C 0.92666 0.65322 0.55149 0.0
C1515 C 0.95254 0.65766 0.52817 0.0
C1516 C 0.92702 0.64708 0.59045 0.0
C1517 C 0.95328 0.64529 0.60669 0.0
C1518 C 0.97914 0.64948 0.58315 0.0
C1519 C 0.97878 0.65555 0.54425 0.0
H1520 H 0.43612 0.30417 0.18487 0.0
H1521 H 0.46517 0.38876 0.15672 0.0
H1522 H 0.42702 0.29062 0.11633 0.0
H1523 H 0.45764 0.37461 0.08756 0.0
H1524 H 0.42013 0.35073 0.96798 0.0
H1525 H 0.42683 0.36518 1.03776 0.0
H1526 H 0.44455 0.27672 0.05187 0.0
H1527 H 0.43668 0.26236 0.98308 0.0
C1528 C 0.44064 0.32008 0.16432 0.0
C1529 C 0.45144 0.34783 0.17758 0.0
C1530 C 0.43575 0.31204 0.12424 0.0
C1531 C 0.44149 0.33126 0.09515 0.0
C1532 C 0.4524 0.35899 0.10835 0.0
C1533 C 0.45723 0.36706 0.14851 0.0
C1534 C 0.42508 0.33426 0.98606 0.0
C1535 C 0.42755 0.30521 0.96917 0.0
C1536 C 0.42932 0.34264 1.0264 0.0
C1537 C 0.43639 0.32236 0.05166 0.0
C1538 C 0.43867 0.29327 1.03456 0.0
C1539 C 0.43427 0.28493 0.99444 0.0
H1540 H 0.45312 0.657 0.07601 0.0
H1541 H 0.41946 0.73655 0.04799 0.0
H1542 H 0.46651 0.64242 1.00576 0.0
H1543 H 0.43249 0.72162 0.97725 0.0
H1544 H 0.43495 0.67129 0.84985 0.0
H1545 H 0.42079 0.68567 0.9201 0.0
H1546 H 0.50109 0.65462 0.9495 0.0
H1547 H 0.51554 0.64066 0.87896 0.0
C1548 C 0.44819 0.67137 0.05495 0.0
C1549 C 0.4348 0.69801 0.06843 0.0
C1550 C 0.4562 0.66302 1.01431 0.0
C1551 C 0.45079 0.68067 0.98507 0.0
C1552 C 0.43694 0.70714 0.99841 0.0
C1553 C 0.42939 0.71578 1.03927 0.0
C1554 C 0.44964 0.66726 0.87114 0.0
C1555 C 0.47646 0.65445 0.85801 0.0
C1556 C 0.44153 0.67583 0.91175 0.0
C1557 C 0.45963 0.67151 0.94122 0.0
C1558 C 0.48627 0.65823 0.92817 0.0
C1559 C 0.49465 0.65017 0.88742 0.0
H1560 H 0.18021 0.64881 0.57179 0.0
H1561 H 0.13117 0.72573 0.60961 0.0
H1562 H 0.16791 0.63227 0.63753 0.0
H1563 H 0.11865 0.70916 0.67418 0.0
H1564 H 0.07184 0.65283 0.76363 0.0
H1565 H 0.08754 0.66578 0.69779 0.0
H1566 H 0.1754 0.64955 0.71545 0.0
H1567 H 0.15975 0.63724 0.78259 0.0
C1568 C 0.167 0.66231 0.59401 0.0
C1569 C 0.15701 0.68888 0.58509 0.0
C1570 C 0.15999 0.65284 0.6318 0.0
C1571 C 0.14214 0.66928 0.66136 0.0
C1572 C 0.13228 0.69577 0.65232 0.0
C1573 C 0.13975 0.70545 0.61513 0.0
C1574 C 0.09453 0.6516 0.75366 0.0
C1575 C 0.11442 0.64382 0.77899 0.0
C1576 C 0.10357 0.65926 0.71571 0.0
C1577 C 0.1328 0.65891 0.70107 0.0
C1578 C 0.1527 0.65 0.72556 0.0
C1579 C 0.1437 0.64291 0.76414 0.0
H1580 H 0.13942 0.37004 0.1839 0.0
H1581 H 0.05154 0.37415 0.23556 0.0
H1582 H 0.15469 0.35863 0.24668 0.0
H1583 H 0.06663 0.36341 0.29833 0.0
H1584 H 0.0956 0.31679 0.39735 0.0
H1585 H 0.08169 0.32877 0.33467 0.0
H1586 H 0.16378 0.37168 0.31255 0.0
H1587 H 0.17838 0.35819 0.37435 0.0
C1588 C 0.12331 0.36908 0.20876 0.0
C1589 C 0.0941 0.37319 0.20397 0.0
C1590 C 0.13211 0.36244 0.24519 0.0
C1591 C 0.1121 0.35969 0.27852 0.0
C1592 C 0.08296 0.36454 0.2738 0.0
C1593 C 0.0742 0.37109 0.23745 0.0
C1594 C 0.11106 0.32842 0.37914 0.0
C1595 C 0.13841 0.33621 0.39194 0.0
C1596 C 0.10277 0.33583 0.34292 0.0
C1597 C 0.12131 0.35157 0.31761 0.0
C1598 C 0.14868 0.35936 0.33034 0.0
C1599 C 0.15702 0.35187 0.36657 0.0
loop_
_geom_bond_atom_site_label_1
_geom_bond_atom_site_label_2
_geom_bond_distance
_geom_bond_site_symmetry_2
_ccdc_geom_bond_type
C0 Eu1 2.835 . S
C0 C2 1.500 1_455 S
C0 O20 1.257 . S
C0 O21 1.260 . S
Eu1 C0 2.835 . S
Eu1 O20 2.473 . S
Eu1 O21 2.480 . S
Eu1 O22 2.430 . S
Eu1 O23 2.670 . S
Eu1 O24 2.394 . S
Eu1 O29 2.355 . S
Eu1 O31 2.374 . S
C2 C0 1.500 1_655 S
C2 C3 1.377 . S
C2 C7 1.378 . S
C3 C2 1.377 . S
C3 C4 1.395 1_554 S
C3 H32 0.931 . S
C4 C3 1.395 1_556 S
C4 C5 1.383 . S
C4 H33 0.931 . S
C5 C4 1.383 . S
C5 C6 1.394 . S
C6 C5 1.394 . S
C6 C7 1.386 1_556 S
C6 H34 0.931 . S
C7 C2 1.378 . S
C7 C6 1.386 1_554 S
C7 H35 0.922 1_655 S
C8 O22 1.259 . S
C8 O23 1.270 . S
C9 O24 1.251 . S
C9 O25 1.251 . S
C10 Eu11 2.835 . S
C10 C12 1.500 . S
C10 O26 1.257 . S
C10 O27 1.260 . S
Eu11 C10 2.835 . S
Eu11 O23 2.355 . S
Eu11 O25 2.374 . S
Eu11 O26 2.473 . S
Eu11 O27 2.480 . S
Eu11 O28 2.430 . S
Eu11 O29 2.670 . S
Eu11 O30 2.394 . S
C12 C10 1.500 . S
C12 C13 1.377 . S
C12 C17 1.377 . S
C13 C12 1.377 . S
C13 C14 1.395 . S
C13 H36 0.931 . S
C14 C13 1.395 . S
C14 C15 1.383 . S
C14 H37 0.931 . S
C15 C14 1.383 . S
C15 C16 1.394 . S
C16 C15 1.394 . S
C16 C17 1.378 . S
C16 H38 0.931 . S
C17 C12 1.377 . S
C17 C16 1.378 . S
C17 H39 0.931 . S
C18 O28 1.259 . S
C18 O29 1.270 . S
C19 O30 1.251 . S
C19 O31 1.251 . S
O20 C0 1.257 . S
O20 Eu1 2.473 . S
O21 C0 1.260 . S
O21 Eu1 2.480 . S
O22 Eu1 2.430 . S
O22 C8 1.259 . S
O23 Eu1 2.670 . S
O23 C8 1.270 . S
O23 Eu11 2.355 . S
O24 Eu1 2.394 . S
O24 C9 1.251 . S
O25 C9 1.251 . S
O25 Eu11 2.374 . S
O26 C10 1.257 . S
O26 Eu11 2.473 . S
O27 C10 1.260 . S
O27 Eu11 2.480 . S
O28 Eu11 2.430 . S
O28 C18 1.259 . S
O29 Eu1 2.355 . S
O29 Eu11 2.670 . S
O29 C18 1.270 . S
O30 Eu11 2.394 . S
O30 C19 1.251 . S
O31 Eu1 2.374 . S
O31 C19 1.251 . S
H32 C3 0.931 . S
H33 C4 0.931 . S
H34 C6 0.931 . S
H35 C7 0.922 1_455 S
H36 C13 0.931 . S
H37 C14 0.931 . S
H38 C16 0.931 . S
H39 C17 0.931 . S
C40 Eu41 2.835 . S
C40 C42 1.500 . S
C40 O60 1.257 . S
C40 O61 1.260 . S
Eu41 C40 2.835 . S
Eu41 O60 2.473 . S
Eu41 O61 2.480 . S
Eu41 O62 2.430 . S
Eu41 O63 2.670 . S
Eu41 O64 2.394 . S
Eu41 O69 2.355 . S
Eu41 O71 2.374 . S
C42 C40 1.500 . S
C42 C43 1.377 . S
C42 C47 1.377 . S
C43 C42 1.377 . S
C43 C44 1.395 . S
C43 H72 0.931 . S
C44 C43 1.395 . S
C44 C45 1.383 . S
C44 H73 0.931 . S
C45 C44 1.383 . S
C45 C46 1.394 . S
C46 C45 1.394 . S
C46 C47 1.378 . S
C46 H74 0.931 . S
C47 C42 1.377 . S
C47 C46 1.378 . S
C47 H75 0.931 . S
C48 O62 1.259 . S
C48 O63 1.270 . S
C49 O64 1.251 . S
C49 O65 1.251 . S
C50 Eu51 2.835 . S
C50 C52 1.500 . S
C50 O66 1.257 . S
C50 O67 1.260 . S
Eu51 C50 2.835 . S
Eu51 O63 2.355 . S
Eu51 O65 2.374 . S
Eu51 O66 2.473 . S
Eu51 O67 2.480 . S
Eu51 O68 2.430 . S
Eu51 O69 2.670 . S
Eu51 O70 2.394 . S
C52 C50 1.500 . S
C52 C53 1.377 . S
C52 C57 1.377 . S
C53 C52 1.377 . S
C53 C54 1.395 . S
C53 H76 0.931 . S
C54 C53 1.395 . S
C54 C55 1.383 . S
C54 H77 0.931 . S
C55 C54 1.383 . S
C55 C56 1.394 . S
C56 C55 1.394 . S
C56 C57 1.378 . S
C56 H78 0.931 . S
C57 C52 1.377 . S
C57 C56 1.378 . S
C57 H79 0.931 . S
C58 O68 1.259 . S
C58 O69 1.270 . S
C59 O70 1.251 . S
C59 O71 1.251 . S
O60 C40 1.257 . S
O60 Eu41 2.473 . S
O61 C40 1.260 . S
O61 Eu41 2.480 . S
O62 Eu41 2.430 . S
O62 C48 1.259 . S
O63 Eu41 2.670 . S
O63 C48 1.270 . S
O63 Eu51 2.355 . S
O64 Eu41 2.394 . S
O64 C49 1.251 . S
O65 C49 1.251 . S
O65 Eu51 2.374 . S
O66 C50 1.257 . S
O66 Eu51 2.473 . S
O67 C50 1.260 . S
O67 Eu51 2.480 . S
O68 Eu51 2.430 . S
O68 C58 1.259 . S
O69 Eu41 2.355 . S
O69 Eu51 2.670 . S
O69 C58 1.270 . S
O70 Eu51 2.394 . S
O70 C59 1.251 . S
O71 Eu41 2.374 . S
O71 C59 1.251 . S
H72 C43 0.931 . S
H73 C44 0.931 . S
H74 C46 0.931 . S
H75 C47 0.931 . S
H76 C53 0.931 . S
H77 C54 0.931 . S
H78 C56 0.931 . S
H79 C57 0.931 . S
C80 Eu81 2.835 . S
C80 C82 1.500 . S
C80 O100 1.257 . S
C80 O101 1.260 . S
Eu81 C80 2.835 . S
Eu81 O100 2.473 . S
Eu81 O101 2.480 . S
Eu81 O102 2.430 . S
Eu81 O103 2.670 . S
Eu81 O104 2.394 . S
Eu81 O109 2.355 . S
Eu81 O111 2.374 . S
C82 C80 1.500 . S
C82 C83 1.377 . S
C82 C87 1.377 . S
C83 C82 1.377 . S
C83 C84 1.395 . S
C83 H112 0.931 . S
C84 C83 1.395 . S
C84 C85 1.383 . S
C84 H113 0.931 . S
C85 C84 1.383 . S
C85 C86 1.394 . S
C86 C85 1.394 . S
C86 C87 1.378 . S
C86 H114 0.931 . S
C87 C82 1.377 . S
C87 C86 1.378 . S
C87 H115 0.931 . S
C88 O102 1.259 . S
C88 O103 1.270 . S
C89 O104 1.251 . S
C89 O105 1.251 . S
C90 Eu91 2.835 . S
C90 C92 1.500 . S
C90 O106 1.257 . S
C90 O107 1.260 . S
Eu91 C90 2.835 . S
Eu91 O103 2.355 . S
Eu91 O105 2.374 . S
Eu91 O106 2.473 . S
Eu91 O107 2.480 . S
Eu91 O108 2.430 . S
Eu91 O109 2.670 . S
Eu91 O110 2.394 . S
C92 C90 1.500 . S
C92 C93 1.377 . S
C92 C97 1.377 . S
C93 C92 1.377 . S
C93 C94 1.395 . S
C93 H116 0.931 . S
C94 C93 1.395 . S
C94 C95 1.383 . S
C94 H117 0.931 . S
C95 C94 1.383 . S
C95 C96 1.394 . S
C96 C95 1.394 . S
C96 C97 1.378 . S
C96 H118 0.931 . S
C97 C92 1.377 . S
C97 C96 1.378 . S
C97 H119 0.931 . S
C98 O108 1.259 . S
C98 O109 1.270 . S
C99 O110 1.251 . S
C99 O111 1.251 . S
O100 C80 1.257 . S
O100 Eu81 2.473 . S
O101 C80 1.260 . S
O101 Eu81 2.480 . S
O102 Eu81 2.430 . S
O102 C88 1.259 . S
O103 Eu81 2.670 . S
O103 C88 1.270 . S
O103 Eu91 2.355 . S
O104 Eu81 2.394 . S
O104 C89 1.251 . S
O105 C89 1.251 . S
O105 Eu91 2.374 . S
O106 C90 1.257 . S
O106 Eu91 2.473 . S
O107 C90 1.260 . S
O107 Eu91 2.480 . S
O108 Eu91 2.430 . S
O108 C98 1.259 . S
O109 Eu81 2.355 . S
O109 Eu91 2.670 . S
O109 C98 1.270 . S
O110 Eu91 2.394 . S
O110 C99 1.251 . S
O111 Eu81 2.374 . S
O111 C99 1.251 . S
H112 C83 0.931 . S
H113 C84 0.931 . S
H114 C86 0.931 . S
H115 C87 0.931 . S
H116 C93 0.931 . S
H117 C94 0.931 . S
H118 C96 0.931 . S
H119 C97 0.931 . S
C120 Eu121 2.835 . S
C120 C122 1.500 . S
C120 O140 1.257 . S
C120 O141 1.260 . S
Eu121 C120 2.835 . S
Eu121 O140 2.473 . S
Eu121 O141 2.480 . S
Eu121 O142 2.430 . S
Eu121 O143 2.670 . S
Eu121 O144 2.394 . S
Eu121 O149 2.355 . S
Eu121 O151 2.374 . S
C122 C120 1.500 . S
C122 C123 1.377 . S
C122 C127 1.377 . S
C123 C122 1.377 . S
C123 C124 1.395 . S
C123 H152 0.931 . S
C124 C123 1.395 . S
C124 C125 1.383 . S
C124 H153 0.931 . S
C125 C124 1.383 . S
C125 C126 1.394 . S
C126 C125 1.394 . S
C126 C127 1.378 . S
C126 H154 0.931 . S
C127 C122 1.377 . S
C127 C126 1.378 . S
C127 H155 0.931 . S
C128 O142 1.259 . S
C128 O143 1.270 . S
C129 O144 1.251 . S
C129 O145 1.251 . S
C130 Eu131 2.835 . S
C130 C132 1.500 . S
C130 O146 1.257 . S
C130 O147 1.260 . S
Eu131 C130 2.835 . S
Eu131 O143 2.355 . S
Eu131 O145 2.374 . S
Eu131 O146 2.473 . S
Eu131 O147 2.480 . S
Eu131 O148 2.430 . S
Eu131 O149 2.670 . S
Eu131 O150 2.394 . S
C132 C130 1.500 . S
C132 C133 1.377 . S
C132 C137 1.377 . S
C133 C132 1.377 . S
C133 C134 1.395 . S
C133 H156 0.931 . S
C134 C133 1.395 . S
C134 C135 1.383 1_556 S
C134 H157 0.931 . S
C135 C134 1.383 1_554 S
C135 C136 1.394 1_554 S
C136 C135 1.394 1_556 S
C136 C137 1.378 . S
C136 H158 0.931 1_556 S
C137 C132 1.377 . S
C137 C136 1.378 . S
C137 H159 0.931 . S
C138 O148 1.259 . S
C138 O149 1.270 . S
C139 O150 1.251 . S
C139 O151 1.251 . S
O140 C120 1.257 . S
O140 Eu121 2.473 . S
O141 C120 1.260 . S
O141 Eu121 2.480 . S
O142 Eu121 2.430 . S
O142 C128 1.259 . S
O143 Eu121 2.670 . S
O143 C128 1.270 . S
O143 Eu131 2.355 . S
O144 Eu121 2.394 . S
O144 C129 1.251 . S
O145 C129 1.251 . S
O145 Eu131 2.374 . S
O146 C130 1.257 . S
O146 Eu131 2.473 . S
O147 C130 1.260 . S
O147 Eu131 2.480 . S
O148 Eu131 2.430 . S
O148 C138 1.259 . S
O149 Eu121 2.355 . S
O149 Eu131 2.670 . S
O149 C138 1.270 . S
O150 Eu131 2.394 . S
O150 C139 1.251 . S
O151 Eu121 2.374 . S
O151 C139 1.251 . S
H152 C123 0.931 . S
H153 C124 0.931 . S
H154 C126 0.931 . S
H155 C127 0.931 . S
H156 C133 0.931 . S
H157 C134 0.931 . S
H158 C136 0.931 1_554 S
H159 C137 0.931 . S
C160 Eu161 2.835 . S
C160 C162 1.500 . S
C160 O180 1.257 . S
C160 O181 1.260 . S
Eu161 C160 2.835 . S
Eu161 O180 2.473 . S
Eu161 O181 2.480 . S
Eu161 O182 2.430 . S
Eu161 O183 2.670 1_655 S
Eu161 O184 2.394 1_655 S
Eu161 O189 2.355 1_655 S
Eu161 O191 2.374 . S
C162 C160 1.500 . S
C162 C163 1.377 . S
C162 C167 1.377 . S
C163 C162 1.377 . S
C163 C164 1.395 . S
C163 H192 0.931 . S
C164 C163 1.395 . S
C164 C165 1.383 . S
C164 H193 0.931 . S
C165 C164 1.383 . S
C165 C166 1.394 . S
C166 C165 1.394 . S
C166 C167 1.378 . S
C166 H194 0.931 . S
C167 C162 1.377 . S
C167 C166 1.378 . S
C167 H195 0.931 . S
C168 O182 1.259 . S
C168 O183 1.270 1_655 S
C169 O184 1.251 . S
C169 O185 1.251 . S
C170 Eu171 2.835 1_554 S
C170 C172 1.500 . S
C170 O186 1.257 1_554 S
C170 O187 1.260 1_554 S
Eu171 C170 2.835 1_556 S
Eu171 O183 2.355 . S
Eu171 O185 2.374 . S
Eu171 O186 2.473 . S
Eu171 O187 2.480 . S
Eu171 O188 2.430 . S
Eu171 O189 2.670 . S
Eu171 O190 2.396 1_455 S
C172 C170 1.500 . S
C172 C173 1.377 . S
C172 C177 1.377 . S
C173 C172 1.377 . S
C173 C174 1.395 . S
C173 H196 0.931 . S
C174 C173 1.395 . S
C174 C175 1.383 . S
C174 H197 0.931 . S
C175 C174 1.383 . S
C175 C176 1.394 . S
C176 C175 1.394 . S
C176 C177 1.378 . S
C176 H198 0.931 . S
C177 C172 1.377 . S
C177 C176 1.378 . S
C177 H199 0.931 . S
C178 O188 1.259 . S
C178 O189 1.270 . S
C179 O190 1.248 . S
C179 O191 1.251 . S
O180 C160 1.257 . S
O180 Eu161 2.473 . S
O181 C160 1.260 . S
O181 Eu161 2.480 . S
O182 Eu161 2.430 . S
O182 C168 1.259 . S
O183 Eu161 2.670 1_455 S
O183 C168 1.270 1_455 S
O183 Eu171 2.355 . S
O184 Eu161 2.394 1_455 S
O184 C169 1.251 . S
O185 C169 1.251 . S
O185 Eu171 2.374 . S
O186 C170 1.257 1_556 S
O186 Eu171 2.473 . S
O187 C170 1.260 1_556 S
O187 Eu171 2.480 . S
O188 Eu171 2.430 . S
O188 C178 1.259 . S
O189 Eu161 2.355 1_455 S
O189 Eu171 2.670 . S
O189 C178 1.270 . S
O190 Eu171 2.396 1_655 S
O190 C179 1.248 . S
O191 Eu161 2.374 . S
O191 C179 1.251 . S
H192 C163 0.931 . S
H193 C164 0.931 . S
H194 C166 0.931 . S
H195 C167 0.931 . S
H196 C173 0.931 . S
H197 C174 0.931 . S
H198 C176 0.931 . S
H199 C177 0.931 . S
C200 Eu201 2.835 . S
C200 C202 1.500 . S
C200 O220 1.257 . S
C200 O221 1.260 . S
Eu201 C200 2.835 . S
Eu201 O220 2.473 . S
Eu201 O221 2.480 . S
Eu201 O222 2.430 . S
Eu201 O223 2.670 . S
Eu201 O224 2.394 . S
Eu201 O229 2.355 . S
Eu201 O231 2.374 . S
C202 C200 1.500 . S
C202 C203 1.377 . S
C202 C207 1.377 . S
C203 C202 1.377 . S
C203 C204 1.395 . S
C203 H232 0.931 . S
C204 C203 1.395 . S
C204 C205 1.383 . S
C204 H233 0.931 . S
C205 C204 1.383 . S
C205 C206 1.394 . S
C206 C205 1.394 . S
C206 C207 1.378 . S
C206 H234 0.931 . S
C207 C202 1.377 . S
C207 C206 1.378 . S
C207 H235 0.931 . S
C208 O222 1.259 . S
C208 O223 1.270 . S
C209 O224 1.251 . S
C209 O225 1.251 . S
C210 Eu211 2.835 . S
C210 C212 1.500 . S
C210 O226 1.257 . S
C210 O227 1.260 . S
Eu211 C210 2.835 . S
Eu211 O223 2.355 . S
Eu211 O225 2.374 . S
Eu211 O226 2.473 . S
Eu211 O227 2.480 . S
Eu211 O228 2.430 . S
Eu211 O229 2.670 . S
Eu211 O230 2.394 . S
C212 C210 1.500 . S
C212 C213 1.377 . S
C212 C217 1.377 1_554 S
C213 C212 1.377 . S
C213 C214 1.395 1_554 S
C213 H236 0.931 . S
C214 C213 1.395 1_556 S
C214 C215 1.383 . S
C214 H237 0.931 . S
C215 C214 1.383 . S
C215 C216 1.394 . S
C216 C215 1.394 . S
C216 C217 1.378 . S
C216 H238 0.931 . S
C217 C212 1.377 1_556 S
C217 C216 1.378 . S
C217 H239 0.931 1_556 S
C218 O228 1.259 . S
C218 O229 1.270 . S
C219 O230 1.251 . S
C219 O231 1.251 . S
O220 C200 1.257 . S
O220 Eu201 2.473 . S
O221 C200 1.260 . S
O221 Eu201 2.480 . S
O222 Eu201 2.430 . S
O222 C208 1.259 . S
O223 Eu201 2.670 . S
O223 C208 1.270 . S
O223 Eu211 2.355 . S
O224 Eu201 2.394 . S
O224 C209 1.251 . S
O225 C209 1.251 . S
O225 Eu211 2.374 . S
O226 C210 1.257 . S
O226 Eu211 2.473 . S
O227 C210 1.260 . S
O227 Eu211 2.480 . S
O228 Eu211 2.430 . S
O228 C218 1.259 . S
O229 Eu201 2.355 . S
O229 Eu211 2.670 . S
O229 C218 1.270 . S
O230 Eu211 2.394 . S
O230 C219 1.251 . S
O231 Eu201 2.374 . S
O231 C219 1.251 . S
H232 C203 0.931 . S
H233 C204 0.931 . S
H234 C206 0.931 . S
H235 C207 0.931 . S
H236 C213 0.931 . S
H237 C214 0.931 . S
H238 C216 0.931 . S
H239 C217 0.931 1_554 S
C240 Eu241 2.835 . S
C240 C242 1.500 . S
C240 O260 1.257 . S
C240 O261 1.260 . S
Eu241 C240 2.835 . S
Eu241 O260 2.473 . S
Eu241 O261 2.480 . S
Eu241 O262 2.430 . S
Eu241 O263 2.670 . S
Eu241 O264 2.394 . S
Eu241 O269 2.355 . S
Eu241 O271 2.374 . S
C242 C240 1.500 . S
C242 C243 1.377 . S
C242 C247 1.377 . S
C243 C242 1.377 . S
C243 C244 1.395 . S
C243 H272 0.931 . S
C244 C243 1.395 . S
C244 C245 1.383 . S
C244 H273 0.931 . S
C245 C244 1.383 . S
C245 C246 1.394 . S
C246 C245 1.394 . S
C246 C247 1.378 . S
C246 H274 0.931 . S
C247 C242 1.377 . S
C247 C246 1.378 . S
C247 H275 0.931 . S
C248 O262 1.259 . S
C248 O263 1.270 . S
C249 O264 1.251 . S
C249 O265 1.251 . S
C250 Eu251 2.835 . S
C250 C252 1.500 . S
C250 O266 1.257 . S
C250 O267 1.260 . S
Eu251 C250 2.835 . S
Eu251 O263 2.355 . S
Eu251 O265 2.374 . S
Eu251 O266 2.473 . S
Eu251 O267 2.480 . S
Eu251 O268 2.430 . S
Eu251 O269 2.670 . S
Eu251 O270 2.394 . S
C252 C250 1.500 . S
C252 C253 1.377 . S
C252 C257 1.377 . S
C253 C252 1.377 . S
C253 C254 1.395 . S
C253 H276 0.931 . S
C254 C253 1.395 . S
C254 C255 1.383 . S
C254 H277 0.931 . S
C255 C254 1.383 . S
C255 C256 1.394 . S
C256 C255 1.394 . S
C256 C257 1.378 . S
C256 H278 0.931 . S
C257 C252 1.377 . S
C257 C256 1.378 . S
C257 H279 0.931 . S
C258 O268 1.259 . S
C258 O269 1.270 . S
C259 O270 1.251 . S
C259 O271 1.251 . S
O260 C240 1.257 . S
O260 Eu241 2.473 . S
O261 C240 1.260 . S
O261 Eu241 2.480 . S
O262 Eu241 2.430 . S
O262 C248 1.259 . S
O263 Eu241 2.670 . S
O263 C248 1.270 . S
O263 Eu251 2.355 . S
O264 Eu241 2.394 . S
O264 C249 1.251 . S
O265 C249 1.251 . S
O265 Eu251 2.374 . S
O266 C250 1.257 . S
O266 Eu251 2.473 . S
O267 C250 1.260 . S
O267 Eu251 2.480 . S
O268 Eu251 2.430 . S
O268 C258 1.259 . S
O269 Eu241 2.355 . S
O269 Eu251 2.670 . S
O269 C258 1.270 . S
O270 Eu251 2.394 . S
O270 C259 1.251 . S
O271 Eu241 2.374 . S
O271 C259 1.251 . S
H272 C243 0.931 . S
H273 C244 0.931 . S
H274 C246 0.931 . S
H275 C247 0.931 . S
H276 C253 0.931 . S
H277 C254 0.931 . S
H278 C256 0.931 . S
H279 C257 0.931 . S
C280 Eu281 2.835 . S
C280 C282 1.500 . S
C280 O300 1.257 . S
C280 O301 1.260 . S
Eu281 C280 2.835 . S
Eu281 O300 2.473 . S
Eu281 O301 2.480 . S
Eu281 O302 2.430 . S
Eu281 O303 2.670 . S
Eu281 O304 2.394 . S
Eu281 O309 2.355 . S
Eu281 O311 2.374 . S
C282 C280 1.500 . S
C282 C283 1.377 . S
C282 C287 1.377 . S
C283 C282 1.377 . S
C283 C284 1.395 . S
C283 H312 0.931 . S
C284 C283 1.395 . S
C284 C285 1.383 . S
C284 H313 0.931 . S
C285 C284 1.383 . S
C285 C286 1.394 . S
C286 C285 1.394 . S
C286 C287 1.378 . S
C286 H314 0.931 . S
C287 C282 1.377 . S
C287 C286 1.378 . S
C287 H315 0.931 . S
C288 O302 1.259 . S
C288 O303 1.270 . S
C289 O304 1.251 . S
C289 O305 1.251 . S
C290 Eu291 2.835 . S
C290 C292 1.500 . S
C290 O306 1.257 . S
C290 O307 1.260 . S
Eu291 C290 2.835 . S
Eu291 O303 2.355 . S
Eu291 O305 2.374 . S
Eu291 O306 2.473 . S
Eu291 O307 2.480 . S
Eu291 O308 2.430 . S
Eu291 O309 2.670 . S
Eu291 O310 2.394 . S
C292 C290 1.500 . S
C292 C293 1.377 . S
C292 C297 1.377 . S
C293 C292 1.377 . S
C293 C294 1.395 . S
C293 H316 0.931 . S
C294 C293 1.395 . S
C294 C295 1.383 . S
C294 H317 0.931 . S
C295 C294 1.383 . S
C295 C296 1.394 . S
C296 C295 1.394 . S
C296 C297 1.378 . S
C296 H318 0.931 . S
C297 C292 1.377 . S
C297 C296 1.378 . S
C297 H319 0.931 . S
C298 O308 1.259 . S
C298 O309 1.270 . S
C299 O310 1.251 . S
C299 O311 1.251 . S
O300 C280 1.257 . S
O300 Eu281 2.473 . S
O301 C280 1.260 . S
O301 Eu281 2.480 . S
O302 Eu281 2.430 . S
O302 C288 1.259 . S
O303 Eu281 2.670 . S
O303 C288 1.270 . S
O303 Eu291 2.355 . S
O304 Eu281 2.394 . S
O304 C289 1.251 . S
O305 C289 1.251 . S
O305 Eu291 2.374 . S
O306 C290 1.257 . S
O306 Eu291 2.473 . S
O307 C290 1.260 . S
O307 Eu291 2.480 . S
O308 Eu291 2.430 . S
O308 C298 1.259 . S
O309 Eu281 2.355 . S
O309 Eu291 2.670 . S
O309 C298 1.270 . S
O310 Eu291 2.394 . S
O310 C299 1.251 . S
O311 Eu281 2.374 . S
O311 C299 1.251 . S
H312 C283 0.931 . S
H313 C284 0.931 . S
H314 C286 0.931 . S
H315 C287 0.931 . S
H316 C293 0.931 . S
H317 C294 0.931 . S
H318 C296 0.931 . S
H319 C297 0.931 . S
C320 Eu321 2.835 . S
C320 C322 1.500 . S
C320 O340 1.257 . S
C320 O341 1.260 . S
Eu321 C320 2.835 . S
Eu321 O340 2.473 . S
Eu321 O341 2.480 . S
Eu321 O342 2.430 . S
Eu321 O343 2.670 . S
Eu321 O344 2.394 . S
Eu321 O349 2.355 . S
Eu321 O351 2.374 . S
C322 C320 1.500 . S
C322 C323 1.377 . S
C322 C327 1.377 . S
C323 C322 1.377 . S
C323 C324 1.395 . S
C323 H352 0.931 . S
C324 C323 1.395 . S
C324 C325 1.383 . S
C324 H353 0.931 . S
C325 C324 1.383 . S
C325 C326 1.394 . S
C326 C325 1.394 . S
C326 C327 1.378 . S
C326 H354 0.931 . S
C327 C322 1.377 . S
C327 C326 1.378 . S
C327 H355 0.931 . S
C328 O342 1.259 . S
C328 O343 1.270 . S
C329 O344 1.251 . S
C329 O345 1.251 . S
C330 Eu331 2.835 . S
C330 C332 1.500 . S
C330 O346 1.257 . S
C330 O347 1.260 . S
Eu331 C330 2.835 . S
Eu331 O343 2.355 . S
Eu331 O345 2.374 . S
Eu331 O346 2.473 . S
Eu331 O347 2.480 . S
Eu331 O348 2.430 . S
Eu331 O349 2.670 . S
Eu331 O350 2.394 . S
C332 C330 1.500 . S
C332 C333 1.377 . S
C332 C337 1.377 . S
C333 C332 1.377 . S
C333 C334 1.395 . S
C333 H356 0.931 . S
C334 C333 1.395 . S
C334 C335 1.383 . S
C334 H357 0.931 . S
C335 C334 1.383 . S
C335 C336 1.394 . S
C336 C335 1.394 . S
C336 C337 1.378 . S
C336 H358 0.931 . S
C337 C332 1.377 . S
C337 C336 1.378 . S
C337 H359 0.931 . S
C338 O348 1.259 . S
C338 O349 1.270 . S
C339 O350 1.251 . S
C339 O351 1.251 . S
O340 C320 1.257 . S
O340 Eu321 2.473 . S
O341 C320 1.260 . S
O341 Eu321 2.480 . S
O342 Eu321 2.430 . S
O342 C328 1.259 . S
O343 Eu321 2.670 . S
O343 C328 1.270 . S
O343 Eu331 2.355 . S
O344 Eu321 2.394 . S
O344 C329 1.251 . S
O345 C329 1.251 . S
O345 Eu331 2.374 . S
O346 C330 1.257 . S
O346 Eu331 2.473 . S
O347 C330 1.260 . S
O347 Eu331 2.480 . S
O348 Eu331 2.430 . S
O348 C338 1.259 . S
O349 Eu321 2.355 . S
O349 Eu331 2.670 . S
O349 C338 1.270 . S
O350 Eu331 2.394 . S
O350 C339 1.251 . S
O351 Eu321 2.374 . S
O351 C339 1.251 . S
H352 C323 0.931 . S
H353 C324 0.931 . S
H354 C326 0.931 . S
H355 C327 0.931 . S
H356 C333 0.931 . S
H357 C334 0.931 . S
H358 C336 0.931 . S
H359 C337 0.931 . S
C360 Eu361 2.835 . S
C360 C362 1.500 1_554 S
C360 O380 1.257 . S
C360 O381 1.260 . S
Eu361 C360 2.835 . S
Eu361 O380 2.473 . S
Eu361 O381 2.480 . S
Eu361 O382 2.430 . S
Eu361 O383 2.670 . S
Eu361 O384 2.394 . S
Eu361 O389 2.355 . S
Eu361 O391 2.374 . S
C362 C360 1.500 1_556 S
C362 C363 1.377 . S
C362 C367 1.377 . S
C363 C362 1.377 . S
C363 C364 1.395 . S
C363 H392 0.931 . S
C364 C363 1.395 . S
C364 C365 1.383 . S
C364 H393 0.931 . S
C365 C364 1.383 . S
C365 C366 1.394 . S
C366 C365 1.394 . S
C366 C367 1.378 . S
C366 H394 0.931 . S
C367 C362 1.377 . S
C367 C366 1.378 . S
C367 H395 0.931 . S
C368 O382 1.259 . S
C368 O383 1.270 . S
C369 O384 1.251 . S
C369 O385 1.251 . S
C370 Eu371 2.835 . S
C370 C372 1.500 . S
C370 O386 1.257 . S
C370 O387 1.260 . S
Eu371 C370 2.835 . S
Eu371 O383 2.355 . S
Eu371 O385 2.374 . S
Eu371 O386 2.473 . S
Eu371 O387 2.480 . S
Eu371 O388 2.430 . S
Eu371 O389 2.670 . S
Eu371 O390 2.394 . S
C372 C370 1.500 . S
C372 C373 1.377 . S
C372 C377 1.377 . S
C373 C372 1.377 . S
C373 C374 1.395 . S
C373 H396 0.931 . S
C374 C373 1.395 . S
C374 C375 1.383 . S
C374 H397 0.931 . S
C375 C374 1.383 . S
C375 C376 1.394 . S
C376 C375 1.394 . S
C376 C377 1.378 . S
C376 H398 0.931 . S
C377 C372 1.377 . S
C377 C376 1.378 . S
C377 H399 0.931 . S
C378 O388 1.259 . S
C378 O389 1.270 . S
C379 O390 1.251 . S
C379 O391 1.251 . S
O380 C360 1.257 . S
O380 Eu361 2.473 . S
O381 C360 1.260 . S
O381 Eu361 2.480 . S
O382 Eu361 2.430 . S
O382 C368 1.259 . S
O383 Eu361 2.670 . S
O383 C368 1.270 . S
O383 Eu371 2.355 . S
O384 Eu361 2.394 . S
O384 C369 1.251 . S
O385 C369 1.251 . S
O385 Eu371 2.374 . S
O386 C370 1.257 . S
O386 Eu371 2.473 . S
O387 C370 1.260 . S
O387 Eu371 2.480 . S
O388 Eu371 2.430 . S
O388 C378 1.259 . S
O389 Eu361 2.355 . S
O389 Eu371 2.670 . S
O389 C378 1.270 . S
O390 Eu371 2.394 . S
O390 C379 1.251 . S
O391 Eu361 2.374 . S
O391 C379 1.251 . S
H392 C363 0.931 . S
H393 C364 0.931 . S
H394 C366 0.931 . S
H395 C367 0.931 . S
H396 C373 0.931 . S
H397 C374 0.931 . S
H398 C376 0.931 . S
H399 C377 0.931 . S
C400 Eu401 2.835 . S
C400 C402 1.500 . S
C400 O420 1.257 . S
C400 O421 1.260 . S
Eu401 C400 2.835 . S
Eu401 O420 2.473 . S
Eu401 O421 2.480 . S
Eu401 O422 2.430 . S
Eu401 O423 2.670 . S
Eu401 O424 2.394 . S
Eu401 O429 2.355 . S
Eu401 O431 2.374 . S
C402 C400 1.500 . S
C402 C403 1.377 . S
C402 C407 1.377 . S
C403 C402 1.377 . S
C403 C404 1.395 . S
C403 H432 0.931 . S
C404 C403 1.395 . S
C404 C405 1.383 . S
C404 H433 0.931 . S
C405 C404 1.383 . S
C405 C406 1.394 . S
C406 C405 1.394 . S
C406 C407 1.378 . S
C406 H434 0.931 . S
C407 C402 1.377 . S
C407 C406 1.378 . S
C407 H435 0.931 . S
C408 O422 1.259 . S
C408 O423 1.270 . S
C409 O424 1.251 . S
C409 O425 1.251 . S
C410 Eu411 2.835 1_554 S
C410 C412 1.500 . S
C410 O426 1.257 . S
C410 O427 1.260 . S
Eu411 C410 2.835 1_556 S
Eu411 O423 2.355 . S
Eu411 O425 2.374 . S
Eu411 O426 2.473 1_556 S
Eu411 O427 2.480 1_556 S
Eu411 O428 2.430 . S
Eu411 O429 2.670 . S
Eu411 O430 2.394 . S
C412 C410 1.500 . S
C412 C413 1.377 . S
C412 C417 1.377 . S
C413 C412 1.377 . S
C413 C414 1.395 . S
C413 H436 0.931 . S
C414 C413 1.395 . S
C414 C415 1.383 . S
C414 H437 0.931 . S
C415 C414 1.383 . S
C415 C416 1.394 . S
C416 C415 1.394 . S
C416 C417 1.378 . S
C416 H438 0.931 . S
C417 C412 1.377 . S
C417 C416 1.378 . S
C417 H439 0.931 . S
C418 O428 1.259 . S
C418 O429 1.270 . S
C419 O430 1.251 . S
C419 O431 1.251 . S
O420 C400 1.257 . S
O420 Eu401 2.473 . S
O421 C400 1.260 . S
O421 Eu401 2.480 . S
O422 Eu401 2.430 . S
O422 C408 1.259 . S
O423 Eu401 2.670 . S
O423 C408 1.270 . S
O423 Eu411 2.355 . S
O424 Eu401 2.394 . S
O424 C409 1.251 . S
O425 C409 1.251 . S
O425 Eu411 2.374 . S
O426 C410 1.257 . S
O426 Eu411 2.473 1_554 S
O427 C410 1.260 . S
O427 Eu411 2.480 1_554 S
O428 Eu411 2.430 . S
O428 C418 1.259 . S
O429 Eu401 2.355 . S
O429 Eu411 2.670 . S
O429 C418 1.270 . S
O430 Eu411 2.394 . S
O430 C419 1.251 . S
O431 Eu401 2.374 . S
O431 C419 1.251 . S
H432 C403 0.931 . S
H433 C404 0.931 . S
H434 C406 0.931 . S
H435 C407 0.931 . S
H436 C413 0.931 . S
H437 C414 0.931 . S
H438 C416 0.931 . S
H439 C417 0.931 . S
C440 Eu441 2.835 . S
C440 C442 1.500 . S
C440 O460 1.257 . S
C440 O461 1.260 . S
Eu441 C440 2.835 . S
Eu441 O460 2.473 . S
Eu441 O461 2.480 . S
Eu441 O462 2.430 . S
Eu441 O463 2.670 . S
Eu441 O464 2.394 . S
Eu441 O469 2.355 . S
Eu441 O471 2.374 . S
C442 C440 1.500 . S
C442 C443 1.377 . S
C442 C447 1.377 . S
C443 C442 1.377 . S
C443 C444 1.395 . S
C443 H472 0.931 . S
C444 C443 1.395 . S
C444 C445 1.383 . S
C444 H473 0.931 . S
C445 C444 1.383 . S
C445 C446 1.394 . S
C446 C445 1.394 . S
C446 C447 1.378 . S
C446 H474 0.931 . S
C447 C442 1.377 . S
C447 C446 1.378 . S
C447 H475 0.931 . S
C448 O462 1.259 . S
C448 O463 1.270 . S
C449 O464 1.251 . S
C449 O465 1.251 . S
C450 Eu451 2.835 . S
C450 C452 1.500 . S
C450 O466 1.257 . S
C450 O467 1.260 . S
Eu451 C450 2.835 . S
Eu451 O463 2.355 . S
Eu451 O465 2.374 . S
Eu451 O466 2.473 . S
Eu451 O467 2.480 . S
Eu451 O468 2.430 . S
Eu451 O469 2.670 . S
Eu451 O470 2.394 . S
C452 C450 1.500 . S
C452 C453 1.377 . S
C452 C457 1.377 . S
C453 C452 1.377 . S
C453 C454 1.395 . S
C453 H476 0.931 . S
C454 C453 1.395 . S
C454 C455 1.383 . S
C454 H477 0.931 . S
C455 C454 1.383 . S
C455 C456 1.394 . S
C456 C455 1.394 . S
C456 C457 1.378 . S
C456 H478 0.931 . S
C457 C452 1.377 . S
C457 C456 1.378 . S
C457 H479 0.931 . S
C458 O468 1.259 . S
C458 O469 1.270 . S
C459 O470 1.251 . S
C459 O471 1.251 . S
O460 C440 1.257 . S
O460 Eu441 2.473 . S
O461 C440 1.260 . S
O461 Eu441 2.480 . S
O462 Eu441 2.430 . S
O462 C448 1.259 . S
O463 Eu441 2.670 . S
O463 C448 1.270 . S
O463 Eu451 2.355 . S
O464 Eu441 2.394 . S
O464 C449 1.251 . S
O465 C449 1.251 . S
O465 Eu451 2.374 . S
O466 C450 1.257 . S
O466 Eu451 2.473 . S
O467 C450 1.260 . S
O467 Eu451 2.480 . S
O468 Eu451 2.430 . S
O468 C458 1.259 . S
O469 Eu441 2.355 . S
O469 Eu451 2.670 . S
O469 C458 1.270 . S
O470 Eu451 2.394 . S
O470 C459 1.251 . S
O471 Eu441 2.374 . S
O471 C459 1.251 . S
H472 C443 0.931 . S
H473 C444 0.931 . S
H474 C446 0.931 . S
H475 C447 0.931 . S
H476 C453 0.931 . S
H477 C454 0.931 . S
H478 C456 0.931 . S
H479 C457 0.931 . S
C480 Eu481 2.835 . S
C480 C482 1.500 . S
C480 O500 1.257 . S
C480 O501 1.260 . S
Eu481 C480 2.835 . S
Eu481 O500 2.473 . S
Eu481 O501 2.480 . S
Eu481 O502 2.430 . S
Eu481 O503 2.670 . S
Eu481 O504 2.394 . S
Eu481 O509 2.355 . S
Eu481 O511 2.374 . S
C482 C480 1.500 . S
C482 C483 1.377 . S
C482 C487 1.377 . S
C483 C482 1.377 . S
C483 C484 1.395 . S
C483 H512 0.931 . S
C484 C483 1.395 . S
C484 C485 1.383 . S
C484 H513 0.931 . S
C485 C484 1.383 . S
C485 C486 1.394 . S
C486 C485 1.394 . S
C486 C487 1.378 . S
C486 H514 0.931 . S
C487 C482 1.377 . S
C487 C486 1.378 . S
C487 H515 0.931 . S
C488 O502 1.259 . S
C488 O503 1.270 . S
C489 O504 1.251 . S
C489 O505 1.251 . S
C490 Eu491 2.835 . S
C490 C492 1.500 . S
C490 O506 1.257 . S
C490 O507 1.260 . S
Eu491 C490 2.835 . S
Eu491 O503 2.355 . S
Eu491 O505 2.374 . S
Eu491 O506 2.473 . S
Eu491 O507 2.480 . S
Eu491 O508 2.430 . S
Eu491 O509 2.670 . S
Eu491 O510 2.394 . S
C492 C490 1.500 . S
C492 C493 1.377 . S
C492 C497 1.377 . S
C493 C492 1.377 . S
C493 C494 1.395 . S
C493 H516 0.931 . S
C494 C493 1.395 . S
C494 C495 1.383 . S
C494 H517 0.931 . S
C495 C494 1.383 . S
C495 C496 1.394 . S
C496 C495 1.394 . S
C496 C497 1.378 . S
C496 H518 0.931 . S
C497 C492 1.377 . S
C497 C496 1.378 . S
C497 H519 0.931 . S
C498 O508 1.259 . S
C498 O509 1.270 . S
C499 O510 1.251 . S
C499 O511 1.251 . S
O500 C480 1.257 . S
O500 Eu481 2.473 . S
O501 C480 1.260 . S
O501 Eu481 2.480 . S
O502 Eu481 2.430 . S
O502 C488 1.259 . S
O503 Eu481 2.670 . S
O503 C488 1.270 . S
O503 Eu491 2.355 . S
O504 Eu481 2.394 . S
O504 C489 1.251 . S
O505 C489 1.251 . S
O505 Eu491 2.374 . S
O506 C490 1.257 . S
O506 Eu491 2.473 . S
O507 C490 1.260 . S
O507 Eu491 2.480 . S
O508 Eu491 2.430 . S
O508 C498 1.259 . S
O509 Eu481 2.355 . S
O509 Eu491 2.670 . S
O509 C498 1.270 . S
O510 Eu491 2.394 . S
O510 C499 1.251 . S
O511 Eu481 2.374 . S
O511 C499 1.251 . S
H512 C483 0.931 . S
H513 C484 0.931 . S
H514 C486 0.931 . S
H515 C487 0.931 . S
H516 C493 0.931 . S
H517 C494 0.931 . S
H518 C496 0.931 . S
H519 C497 0.931 . S
C520 Eu521 2.835 1_556 S
C520 C522 1.500 . S
C520 O540 1.257 . S
C520 O541 1.260 . S
Eu521 C520 2.835 1_554 S
Eu521 O540 2.473 1_554 S
Eu521 O541 2.480 1_554 S
Eu521 O542 2.430 . S
Eu521 O543 2.670 . S
Eu521 O544 2.394 . S
Eu521 O549 2.355 . S
Eu521 O551 2.374 . S
C522 C520 1.500 . S
C522 C523 1.377 . S
C522 C527 1.377 . S
C523 C522 1.377 . S
C523 C524 1.395 . S
C523 H552 0.931 . S
C524 C523 1.395 . S
C524 C525 1.383 . S
C524 H553 0.931 . S
C525 C524 1.383 . S
C525 C526 1.394 . S
C526 C525 1.394 . S
C526 C527 1.378 . S
C526 H554 0.931 . S
C527 C522 1.377 . S
C527 C526 1.378 . S
C527 H555 0.931 . S
C528 O542 1.259 . S
C528 O543 1.270 . S
C529 O544 1.251 . S
C529 O545 1.251 . S
C530 Eu531 2.835 1_655 S
C530 C532 1.500 . S
C530 O546 1.257 1_655 S
C530 O547 1.260 . S
Eu531 C530 2.835 1_455 S
Eu531 O543 2.355 . S
Eu531 O545 2.374 . S
Eu531 O546 2.473 . S
Eu531 O547 2.480 1_455 S
Eu531 O548 2.430 . S
Eu531 O549 2.670 . S
Eu531 O550 2.394 . S
C532 C530 1.500 . S
C532 C533 1.377 . S
C532 C537 1.377 . S
C533 C532 1.377 . S
C533 C534 1.395 . S
C533 H556 0.931 . S
C534 C533 1.395 . S
C534 C535 1.383 . S
C534 H557 0.931 . S
C535 C534 1.383 . S
C535 C536 1.394 . S
C536 C535 1.394 . S
C536 C537 1.378 . S
C536 H558 0.931 . S
C537 C532 1.377 . S
C537 C536 1.378 . S
C537 H559 0.931 1_655 S
C538 O548 1.259 . S
C538 O549 1.270 . S
C539 O550 1.251 . S
C539 O551 1.251 . S
O540 C520 1.257 . S
O540 Eu521 2.473 1_556 S
O541 C520 1.260 . S
O541 Eu521 2.480 1_556 S
O542 Eu521 2.430 . S
O542 C528 1.259 . S
O543 Eu521 2.670 . S
O543 C528 1.270 . S
O543 Eu531 2.355 . S
O544 Eu521 2.394 . S
O544 C529 1.251 . S
O545 C529 1.251 . S
O545 Eu531 2.374 . S
O546 C530 1.257 1_455 S
O546 Eu531 2.473 . S
O547 C530 1.260 . S
O547 Eu531 2.480 1_655 S
O548 Eu531 2.430 . S
O548 C538 1.259 . S
O549 Eu521 2.355 . S
O549 Eu531 2.670 . S
O549 C538 1.270 . S
O550 Eu531 2.394 . S
O550 C539 1.251 . S
O551 Eu521 2.374 . S
O551 C539 1.251 . S
H552 C523 0.931 . S
H553 C524 0.931 . S
H554 C526 0.931 . S
H555 C527 0.931 . S
H556 C533 0.931 . S
H557 C534 0.931 . S
H558 C536 0.931 . S
H559 C537 0.931 1_455 S
C560 Eu561 2.835 . S
C560 C562 1.500 . S
C560 O580 1.257 . S
C560 O581 1.260 . S
Eu561 C560 2.835 . S
Eu561 O580 2.473 . S
Eu561 O581 2.480 . S
Eu561 O582 2.430 . S
Eu561 O583 2.670 . S
Eu561 O584 2.394 . S
Eu561 O589 2.355 . S
Eu561 O591 2.374 . S
C562 C560 1.500 . S
C562 C563 1.377 . S
C562 C567 1.377 . S
C563 C562 1.377 . S
C563 C564 1.395 . S
C563 H592 0.931 . S
C564 C563 1.395 . S
C564 C565 1.383 . S
C564 H593 0.931 . S
C565 C564 1.383 . S
C565 C566 1.394 . S
C566 C565 1.394 . S
C566 C567 1.378 . S
C566 H594 0.931 . S
C567 C562 1.377 . S
C567 C566 1.378 . S
C567 H595 0.931 . S
C568 O582 1.259 . S
C568 O583 1.270 . S
C569 O584 1.251 . S
C569 O585 1.251 . S
C570 Eu571 2.835 . S
C570 C572 1.500 . S
C570 O586 1.257 . S
C570 O587 1.260 . S
Eu571 C570 2.835 . S
Eu571 O583 2.355 . S
Eu571 O585 2.374 . S
Eu571 O586 2.473 . S
Eu571 O587 2.480 . S
Eu571 O588 2.430 . S
Eu571 O589 2.670 . S
Eu571 O590 2.394 . S
C572 C570 1.500 . S
C572 C573 1.377 . S
C572 C577 1.377 . S
C573 C572 1.377 . S
C573 C574 1.395 . S
C573 H596 0.931 . S
C574 C573 1.395 . S
C574 C575 1.383 . S
C574 H597 0.931 . S
C575 C574 1.383 . S
C575 C576 1.394 . S
C576 C575 1.394 . S
C576 C577 1.378 . S
C576 H598 0.931 . S
C577 C572 1.377 . S
C577 C576 1.378 . S
C577 H599 0.931 . S
C578 O588 1.259 . S
C578 O589 1.270 . S
C579 O590 1.251 . S
C579 O591 1.251 . S
O580 C560 1.257 . S
O580 Eu561 2.473 . S
O581 C560 1.260 . S
O581 Eu561 2.480 . S
O582 Eu561 2.430 . S
O582 C568 1.259 . S
O583 Eu561 2.670 . S
O583 C568 1.270 . S
O583 Eu571 2.355 . S
O584 Eu561 2.394 . S
O584 C569 1.251 . S
O585 C569 1.251 . S
O585 Eu571 2.374 . S
O586 C570 1.257 . S
O586 Eu571 2.473 . S
O587 C570 1.260 . S
O587 Eu571 2.480 . S
O588 Eu571 2.430 . S
O588 C578 1.259 . S
O589 Eu561 2.355 . S
O589 Eu571 2.670 . S
O589 C578 1.270 . S
O590 Eu571 2.394 . S
O590 C579 1.251 . S
O591 Eu561 2.374 . S
O591 C579 1.251 . S
H592 C563 0.931 . S
H593 C564 0.931 . S
H594 C566 0.931 . S
H595 C567 0.931 . S
H596 C573 0.931 . S
H597 C574 0.931 . S
H598 C576 0.931 . S
H599 C577 0.931 . S
C600 Eu601 2.835 . S
C600 C602 1.500 . S
C600 O620 1.257 . S
C600 O621 1.260 . S
Eu601 C600 2.835 . S
Eu601 O620 2.473 . S
Eu601 O621 2.480 . S
Eu601 O622 2.430 . S
Eu601 O623 2.670 . S
Eu601 O624 2.394 . S
Eu601 O629 2.355 . S
Eu601 O631 2.374 . S
C602 C600 1.500 . S
C602 C603 1.377 1_556 S
C602 C607 1.377 1_556 S
C603 C602 1.377 1_554 S
C603 C604 1.395 . S
C603 H632 0.931 . S
C604 C603 1.395 . S
C604 C605 1.383 . S
C604 H633 0.931 . S
C605 C604 1.383 . S
C605 C606 1.394 . S
C606 C605 1.394 . S
C606 C607 1.378 . S
C606 H634 0.931 . S
C607 C602 1.377 1_554 S
C607 C606 1.378 . S
C607 H635 0.931 . S
C608 O622 1.259 . S
C608 O623 1.270 . S
C609 O624 1.251 . S
C609 O625 1.251 . S
C610 Eu611 2.835 . S
C610 C612 1.500 . S
C610 O626 1.257 . S
C610 O627 1.260 . S
Eu611 C610 2.835 . S
Eu611 O623 2.355 . S
Eu611 O625 2.374 . S
Eu611 O626 2.473 . S
Eu611 O627 2.480 . S
Eu611 O628 2.430 . S
Eu611 O629 2.670 . S
Eu611 O630 2.394 . S
C612 C610 1.500 . S
C612 C613 1.377 1_455 S
C612 C617 1.377 . S
C613 C612 1.377 1_655 S
C613 C614 1.395 . S
C613 H636 0.931 . S
C614 C613 1.395 . S
C614 C615 1.383 . S
C614 H637 0.931 . S
C615 C614 1.383 . S
C615 C616 1.394 . S
C616 C615 1.394 . S
C616 C617 1.378 1_655 S
C616 H638 0.931 . S
C617 C612 1.377 . S
C617 C616 1.378 1_455 S
C617 H639 0.931 . S
C618 O628 1.259 . S
C618 O629 1.270 . S
C619 O630 1.251 . S
C619 O631 1.251 . S
O620 C600 1.257 . S
O620 Eu601 2.473 . S
O621 C600 1.260 . S
O621 Eu601 2.480 . S
O622 Eu601 2.430 . S
O622 C608 1.259 . S
O623 Eu601 2.670 . S
O623 C608 1.270 . S
O623 Eu611 2.355 . S
O624 Eu601 2.394 . S
O624 C609 1.251 . S
O625 C609 1.251 . S
O625 Eu611 2.374 . S
O626 C610 1.257 . S
O626 Eu611 2.473 . S
O627 C610 1.260 . S
O627 Eu611 2.480 . S
O628 Eu611 2.430 . S
O628 C618 1.259 . S
O629 Eu601 2.355 . S
O629 Eu611 2.670 . S
O629 C618 1.270 . S
O630 Eu611 2.394 . S
O630 C619 1.251 . S
O631 Eu601 2.374 . S
O631 C619 1.251 . S
H632 C603 0.931 . S
H633 C604 0.931 . S
H634 C606 0.931 . S
H635 C607 0.931 . S
H636 C613 0.931 . S
H637 C614 0.931 . S
H638 C616 0.931 . S
H639 C617 0.931 . S
H640 C648 0.950 . S
H641 C653 0.950 . S
H642 C650 0.950 . S
H643 C652 0.950 . S
H644 C654 0.950 . S
H645 C656 0.950 . S
H646 C658 0.950 . S
H647 C659 0.950 . S
C648 H640 0.950 . S
C648 C649 1.386 . S
C648 C650 1.391 1_554 S
C649 C648 1.386 . S
C649 C653 1.393 . S
C650 H642 0.950 . S
C650 C648 1.391 1_556 S
C650 C651 1.400 . S
C651 C650 1.400 . S
C651 C652 1.398 1_556 S
C651 C657 1.491 . S
C652 H643 0.950 . S
C652 C651 1.398 1_554 S
C652 C653 1.391 . S
C653 H641 0.950 . S
C653 C649 1.393 . S
C653 C652 1.391 . S
C654 H644 0.950 . S
C654 C655 1.386 . S
C654 C656 1.391 . S
C655 C654 1.386 . S
C655 C659 1.393 . S
C656 H645 0.950 . S
C656 C654 1.391 . S
C656 C657 1.400 . S
C657 C651 1.491 . S
C657 C656 1.400 . S
C657 C658 1.398 . S
C658 H646 0.950 . S
C658 C657 1.398 . S
C658 C659 1.391 . S
C659 H647 0.950 . S
C659 C655 1.393 . S
C659 C658 1.391 . S
H660 C668 0.950 . S
H661 C673 0.950 . S
H662 C670 0.950 . S
H663 C672 0.950 . S
H664 C674 0.950 . S
H665 C676 0.950 . S
H666 C678 0.950 . S
H667 C679 0.950 . S
C668 H660 0.950 . S
C668 C669 1.386 . S
C668 C670 1.391 . S
C669 C668 1.386 . S
C669 C673 1.393 . S
C670 H662 0.950 . S
C670 C668 1.391 . S
C670 C671 1.400 . S
C671 C670 1.400 . S
C671 C672 1.398 . S
C671 C677 1.491 . S
C672 H663 0.950 . S
C672 C671 1.398 . S
C672 C673 1.391 . S
C673 H661 0.950 . S
C673 C669 1.393 . S
C673 C672 1.391 . S
C674 H664 0.950 . S
C674 C675 1.386 . S
C674 C676 1.391 . S
C675 C674 1.386 . S
C675 C679 1.393 . S
C676 H665 0.950 . S
C676 C674 1.391 . S
C676 C677 1.400 . S
C677 C671 1.491 . S
C677 C676 1.400 . S
C677 C678 1.398 . S
C678 H666 0.950 . S
C678 C677 1.398 . S
C678 C679 1.391 . S
C679 H667 0.950 . S
C679 C675 1.393 . S
C679 C678 1.391 . S
H680 C688 0.950 . S
H681 C693 0.950 . S
H682 C690 0.950 . S
H683 C692 0.950 . S
H684 C694 0.950 . S
H685 C696 0.950 . S
H686 C698 0.950 . S
H687 C699 0.950 . S
C688 H680 0.950 . S
C688 C689 1.386 . S
C688 C690 1.391 . S
C689 C688 1.386 . S
C689 C693 1.393 . S
C690 H682 0.950 . S
C690 C688 1.391 . S
C690 C691 1.400 . S
C691 C690 1.400 . S
C691 C692 1.398 . S
C691 C697 1.491 . S
C692 H683 0.950 . S
C692 C691 1.398 . S
C692 C693 1.391 . S
C693 H681 0.950 . S
C693 C689 1.393 . S
C693 C692 1.391 . S
C694 H684 0.950 . S
C694 C695 1.386 . S
C694 C696 1.391 . S
C695 C694 1.386 . S
C695 C699 1.393 . S
C696 H685 0.950 . S
C696 C694 1.391 . S
C696 C697 1.400 . S
C697 C691 1.491 . S
C697 C696 1.400 . S
C697 C698 1.398 . S
C698 H686 0.950 . S
C698 C697 1.398 . S
C698 C699 1.391 . S
C699 H687 0.950 . S
C699 C695 1.393 . S
C699 C698 1.391 . S
H700 C708 0.950 . S
H701 C713 0.950 . S
H702 C710 0.950 . S
H703 C712 0.950 . S
H704 C714 0.950 . S
H705 C716 0.950 . S
H706 C718 0.950 . S
H707 C719 0.950 . S
C708 H700 0.950 . S
C708 C709 1.386 . S
C708 C710 1.391 . S
C709 C708 1.386 . S
C709 C713 1.393 . S
C710 H702 0.950 . S
C710 C708 1.391 . S
C710 C711 1.400 . S
C711 C710 1.400 . S
C711 C712 1.398 . S
C711 C717 1.491 . S
C712 H703 0.950 . S
C712 C711 1.398 . S
C712 C713 1.391 . S
C713 H701 0.950 . S
C713 C709 1.393 . S
C713 C712 1.391 . S
C714 H704 0.950 . S
C714 C715 1.386 . S
C714 C716 1.391 . S
C715 C714 1.386 . S
C715 C719 1.393 . S
C716 H705 0.950 . S
C716 C714 1.391 . S
C716 C717 1.400 . S
C717 C711 1.491 . S
C717 C716 1.400 . S
C717 C718 1.398 . S
C718 H706 0.950 . S
C718 C717 1.398 . S
C718 C719 1.391 . S
C719 H707 0.950 . S
C719 C715 1.393 . S
C719 C718 1.391 . S
H720 C728 0.950 . S
H721 C733 0.950 . S
H722 C730 0.950 . S
H723 C732 0.950 . S
H724 C734 0.950 . S
H725 C736 0.950 . S
H726 C738 0.950 . S
H727 C739 0.950 . S
C728 H720 0.950 . S
C728 C729 1.386 . S
C728 C730 1.391 . S
C729 C728 1.386 . S
C729 C733 1.393 . S
C730 H722 0.950 . S
C730 C728 1.391 . S
C730 C731 1.400 . S
C731 C730 1.400 . S
C731 C732 1.398 . S
C731 C737 1.491 . S
C732 H723 0.950 . S
C732 C731 1.398 . S
C732 C733 1.391 . S
C733 H721 0.950 . S
C733 C729 1.393 . S
C733 C732 1.391 . S
C734 H724 0.950 . S
C734 C735 1.386 . S
C734 C736 1.391 1_556 S
C735 C734 1.386 . S
C735 C739 1.393 . S
C736 H725 0.950 . S
C736 C734 1.391 1_554 S
C736 C737 1.400 . S
C737 C731 1.491 . S
C737 C736 1.400 . S
C737 C738 1.398 . S
C738 H726 0.950 . S
C738 C737 1.398 . S
C738 C739 1.391 1_554 S
C739 H727 0.950 . S
C739 C735 1.393 . S
C739 C738 1.391 1_556 S
H740 C748 0.950 . S
H741 C753 0.950 . S
H742 C750 0.950 . S
H743 C752 0.950 . S
H744 C754 0.950 1_554 S
H745 C756 0.950 . S
H746 C758 0.950 . S
H747 C759 0.950 . S
C748 H740 0.950 . S
C748 C749 1.386 . S
C748 C750 1.391 . S
C749 C748 1.386 . S
C749 C753 1.393 . S
C750 H742 0.950 . S
C750 C748 1.391 . S
C750 C751 1.400 . S
C751 C750 1.400 . S
C751 C752 1.398 . S
C751 C757 1.491 . S
C752 H743 0.950 . S
C752 C751 1.398 . S
C752 C753 1.391 . S
C753 H741 0.950 . S
C753 C749 1.393 . S
C753 C752 1.391 . S
C754 H744 0.950 1_556 S
C754 C755 1.386 . S
C754 C756 1.391 . S
C755 C754 1.386 . S
C755 C759 1.393 . S
C756 H745 0.950 . S
C756 C754 1.391 . S
C756 C757 1.400 . S
C757 C751 1.491 . S
C757 C756 1.400 . S
C757 C758 1.398 . S
C758 H746 0.950 . S
C758 C757 1.398 . S
C758 C759 1.391 . S
C759 H747 0.950 . S
C759 C755 1.393 . S
C759 C758 1.391 . S
H760 C768 0.950 . S
H761 C773 0.950 . S
H762 C770 0.950 . S
H763 C772 0.950 . S
H764 C774 0.950 . S
H765 C776 0.950 . S
H766 C778 0.950 . S
H767 C779 0.950 . S
C768 H760 0.950 . S
C768 C769 1.386 . S
C768 C770 1.391 . S
C769 C768 1.386 . S
C769 C773 1.393 . S
C770 H762 0.950 . S
C770 C768 1.391 . S
C770 C771 1.400 . S
C771 C770 1.400 . S
C771 C772 1.398 . S
C771 C777 1.491 . S
C772 H763 0.950 . S
C772 C771 1.398 . S
C772 C773 1.391 . S
C773 H761 0.950 . S
C773 C769 1.393 . S
C773 C772 1.391 . S
C774 H764 0.950 . S
C774 C775 1.386 . S
C774 C776 1.391 . S
C775 C774 1.386 . S
C775 C779 1.393 . S
C776 H765 0.950 . S
C776 C774 1.391 . S
C776 C777 1.400 . S
C777 C771 1.491 . S
C777 C776 1.400 . S
C777 C778 1.398 . S
C778 H766 0.950 . S
C778 C777 1.398 . S
C778 C779 1.391 . S
C779 H767 0.950 . S
C779 C775 1.393 . S
C779 C778 1.391 . S
H780 C788 0.950 . S
H781 C793 0.950 . S
H782 C790 0.950 . S
H783 C792 0.950 . S
H784 C794 0.950 . S
H785 C796 0.950 . S
H786 C798 0.950 . S
H787 C799 0.950 . S
C788 H780 0.950 . S
C788 C789 1.386 . S
C788 C790 1.391 . S
C789 C788 1.386 . S
C789 C793 1.393 . S
C790 H782 0.950 . S
C790 C788 1.391 . S
C790 C791 1.400 . S
C791 C790 1.400 . S
C791 C792 1.398 . S
C791 C797 1.491 . S
C792 H783 0.950 . S
C792 C791 1.398 . S
C792 C793 1.391 . S
C793 H781 0.950 . S
C793 C789 1.393 . S
C793 C792 1.391 . S
C794 H784 0.950 . S
C794 C795 1.386 . S
C794 C796 1.391 . S
C795 C794 1.386 . S
C795 C799 1.393 . S
C796 H785 0.950 . S
C796 C794 1.391 . S
C796 C797 1.400 . S
C797 C791 1.491 . S
C797 C796 1.400 . S
C797 C798 1.398 . S
C798 H786 0.950 . S
C798 C797 1.398 . S
C798 C799 1.391 . S
C799 H787 0.950 . S
C799 C795 1.393 . S
C799 C798 1.391 . S
H800 C808 0.950 . S
H801 C813 0.950 . S
H802 C810 0.950 . S
H803 C812 0.950 . S
H804 C814 0.950 . S
H805 C816 0.950 . S
H806 C818 0.950 . S
H807 C819 0.950 . S
C808 H800 0.950 . S
C808 C809 1.386 . S
C808 C810 1.391 . S
C809 C808 1.386 . S
C809 C813 1.393 . S
C810 H802 0.950 . S
C810 C808 1.391 . S
C810 C811 1.400 . S
C811 C810 1.400 . S
C811 C812 1.398 . S
C811 C817 1.491 . S
C812 H803 0.950 . S
C812 C811 1.398 . S
C812 C813 1.391 . S
C813 H801 0.950 . S
C813 C809 1.393 . S
C813 C812 1.391 . S
C814 H804 0.950 . S
C814 C815 1.386 . S
C814 C816 1.391 . S
C815 C814 1.386 . S
C815 C819 1.393 . S
C816 H805 0.950 . S
C816 C814 1.391 . S
C816 C817 1.400 . S
C817 C811 1.491 . S
C817 C816 1.400 . S
C817 C818 1.398 . S
C818 H806 0.950 . S
C818 C817 1.398 . S
C818 C819 1.391 . S
C819 H807 0.950 . S
C819 C815 1.393 . S
C819 C818 1.391 . S
H820 C828 0.950 . S
H821 C833 0.950 . S
H822 C830 0.950 . S
H823 C832 0.950 . S
H824 C834 0.950 . S
H825 C836 0.950 . S
H826 C838 0.950 . S
H827 C839 0.950 . S
C828 H820 0.950 . S
C828 C829 1.386 . S
C828 C830 1.391 . S
C829 C828 1.386 . S
C829 C833 1.393 . S
C830 H822 0.950 . S
C830 C828 1.391 . S
C830 C831 1.400 . S
C831 C830 1.400 . S
C831 C832 1.398 . S
C831 C837 1.491 . S
C832 H823 0.950 . S
C832 C831 1.398 . S
C832 C833 1.391 . S
C833 H821 0.950 . S
C833 C829 1.393 . S
C833 C832 1.391 . S
C834 H824 0.950 . S
C834 C835 1.386 . S
C834 C836 1.391 . S
C835 C834 1.386 . S
C835 C839 1.393 . S
C836 H825 0.950 . S
C836 C834 1.391 . S
C836 C837 1.400 . S
C837 C831 1.491 . S
C837 C836 1.400 . S
C837 C838 1.398 . S
C838 H826 0.950 . S
C838 C837 1.398 . S
C838 C839 1.391 . S
C839 H827 0.950 . S
C839 C835 1.393 . S
C839 C838 1.391 . S
H840 C848 0.950 . S
H841 C853 0.950 . S
H842 C850 0.950 . S
H843 C852 0.950 . S
H844 C854 0.950 . S
H845 C856 0.940 1_455 S
H846 C858 0.950 . S
H847 C859 0.950 . S
C848 H840 0.950 . S
C848 C849 1.378 1_655 S
C848 C850 1.391 . S
C849 C848 1.378 1_455 S
C849 C853 1.397 . S
C850 H842 0.950 . S
C850 C848 1.391 . S
C850 C851 1.400 . S
C851 C850 1.400 . S
C851 C852 1.398 1_655 S
C851 C857 1.491 . S
C852 H843 0.950 . S
C852 C851 1.398 1_455 S
C852 C853 1.391 . S
C853 H841 0.950 . S
C853 C849 1.397 . S
C853 C852 1.391 . S
C854 H844 0.950 . S
C854 C855 1.386 . S
C854 C856 1.391 . S
C855 C854 1.386 . S
C855 C859 1.393 . S
C856 H845 0.940 1_655 S
C856 C854 1.391 . S
C856 C857 1.400 . S
C857 C851 1.491 . S
C857 C856 1.400 . S
C857 C858 1.398 . S
C858 H846 0.950 . S
C858 C857 1.398 . S
C858 C859 1.391 . S
C859 H847 0.950 . S
C859 C855 1.393 . S
C859 C858 1.391 . S
H860 C868 0.950 . S
H861 C873 0.950 . S
H862 C870 0.950 1_455 S
H863 C872 0.950 . S
H864 C874 0.950 1_556 S
H865 C876 0.950 . S
H866 C878 0.950 . S
H867 C879 0.950 . S
C868 H860 0.950 . S
C868 C869 1.386 . S
C868 C870 1.391 . S
C869 C868 1.386 . S
C869 C873 1.393 . S
C870 H862 0.950 1_655 S
C870 C868 1.391 . S
C870 C871 1.400 . S
C871 C870 1.400 . S
C871 C872 1.398 . S
C871 C877 1.491 . S
C872 H863 0.950 . S
C872 C871 1.398 . S
C872 C873 1.391 . S
C873 H861 0.950 . S
C873 C869 1.393 . S
C873 C872 1.391 . S
C874 H864 0.950 1_554 S
C874 C875 1.386 1_654 S
C874 C876 1.391 . S
C875 C874 1.386 1_456 S
C875 C879 1.393 1_556 S
C876 H865 0.950 . S
C876 C874 1.391 . S
C876 C877 1.400 . S
C877 C871 1.491 . S
C877 C876 1.400 . S
C877 C878 1.398 1_655 S
C878 H866 0.950 . S
C878 C877 1.398 1_455 S
C878 C879 1.391 . S
C879 H867 0.950 . S
C879 C875 1.393 1_554 S
C879 C878 1.391 . S
H880 C888 0.950 . S
H881 C893 0.950 . S
H882 C890 0.950 . S
H883 C892 0.950 . S
H884 C894 0.950 . S
H885 C896 0.950 . S
H886 C898 0.950 . S
H887 C899 0.950 . S
C888 H880 0.950 . S
C888 C889 1.386 . S
C888 C890 1.391 . S
C889 C888 1.386 . S
C889 C893 1.393 . S
C890 H882 0.950 . S
C890 C888 1.391 . S
C890 C891 1.400 . S
C891 C890 1.400 . S
C891 C892 1.398 . S
C891 C897 1.491 . S
C892 H883 0.950 . S
C892 C891 1.398 . S
C892 C893 1.391 . S
C893 H881 0.950 . S
C893 C889 1.393 . S
C893 C892 1.391 . S
C894 H884 0.950 . S
C894 C895 1.386 . S
C894 C896 1.391 . S
C895 C894 1.386 . S
C895 C899 1.393 . S
C896 H885 0.950 . S
C896 C894 1.391 . S
C896 C897 1.400 . S
C897 C891 1.491 . S
C897 C896 1.400 . S
C897 C898 1.398 . S
C898 H886 0.950 . S
C898 C897 1.398 . S
C898 C899 1.391 . S
C899 H887 0.950 . S
C899 C895 1.393 . S
C899 C898 1.391 . S
H900 C908 0.950 . S
H901 C913 0.950 . S
H902 C910 0.950 . S
H903 C912 0.950 . S
H904 C914 0.950 . S
H905 C916 0.950 . S
H906 C918 0.950 . S
H907 C919 0.950 . S
C908 H900 0.950 . S
C908 C909 1.386 . S
C908 C910 1.391 . S
C909 C908 1.386 . S
C909 C913 1.393 . S
C910 H902 0.950 . S
C910 C908 1.391 . S
C910 C911 1.400 . S
C911 C910 1.400 . S
C911 C912 1.398 . S
C911 C917 1.491 . S
C912 H903 0.950 . S
C912 C911 1.398 . S
C912 C913 1.391 . S
C913 H901 0.950 . S
C913 C909 1.393 . S
C913 C912 1.391 . S
C914 H904 0.950 . S
C914 C915 1.386 . S
C914 C916 1.391 . S
C915 C914 1.386 . S
C915 C919 1.393 . S
C916 H905 0.950 . S
C916 C914 1.391 . S
C916 C917 1.400 . S
C917 C911 1.491 . S
C917 C916 1.400 . S
C917 C918 1.398 . S
C918 H906 0.950 . S
C918 C917 1.398 . S
C918 C919 1.391 . S
C919 H907 0.950 . S
C919 C915 1.393 . S
C919 C918 1.391 . S
H920 C928 0.950 . S
H921 C933 0.950 . S
H922 C930 0.950 . S
H923 C932 0.950 . S
H924 C934 0.950 . S
H925 C936 0.950 . S
H926 C938 0.950 . S
H927 C939 0.950 . S
C928 H920 0.950 . S
C928 C929 1.386 . S
C928 C930 1.391 . S
C929 C928 1.386 . S
C929 C933 1.393 . S
C930 H922 0.950 . S
C930 C928 1.391 . S
C930 C931 1.400 . S
C931 C930 1.400 . S
C931 C932 1.398 . S
C931 C937 1.491 . S
C932 H923 0.950 . S
C932 C931 1.398 . S
C932 C933 1.391 . S
C933 H921 0.950 . S
C933 C929 1.393 . S
C933 C932 1.391 . S
C934 H924 0.950 . S
C934 C935 1.386 . S
C934 C936 1.391 . S
C935 C934 1.386 . S
C935 C939 1.393 . S
C936 H925 0.950 . S
C936 C934 1.391 . S
C936 C937 1.400 . S
C937 C931 1.491 . S
C937 C936 1.400 . S
C937 C938 1.398 . S
C938 H926 0.950 . S
C938 C937 1.398 . S
C938 C939 1.391 . S
C939 H927 0.950 . S
C939 C935 1.393 . S
C939 C938 1.391 . S
H940 C948 0.950 . S
H941 C953 0.950 . S
H942 C950 0.950 . S
H943 C952 0.950 . S
H944 C954 0.950 . S
H945 C956 0.950 . S
H946 C958 0.950 . S
H947 C959 0.950 . S
C948 H940 0.950 . S
C948 C949 1.386 . S
C948 C950 1.391 . S
C949 C948 1.386 . S
C949 C953 1.393 . S
C950 H942 0.950 . S
C950 C948 1.391 . S
C950 C951 1.400 . S
C951 C950 1.400 . S
C951 C952 1.398 . S
C951 C957 1.491 . S
C952 H943 0.950 . S
C952 C951 1.398 . S
C952 C953 1.391 . S
C953 H941 0.950 . S
C953 C949 1.393 . S
C953 C952 1.391 . S
C954 H944 0.950 . S
C954 C955 1.386 . S
C954 C956 1.391 . S
C955 C954 1.386 . S
C955 C959 1.393 . S
C956 H945 0.950 . S
C956 C954 1.391 . S
C956 C957 1.400 . S
C957 C951 1.491 . S
C957 C956 1.400 . S
C957 C958 1.398 . S
C958 H946 0.950 . S
C958 C957 1.398 . S
C958 C959 1.391 . S
C959 H947 0.950 . S
C959 C955 1.393 . S
C959 C958 1.391 . S
H960 C968 0.950 . S
H961 C973 0.950 . S
H962 C970 0.950 . S
H963 C972 0.950 . S
H964 C974 0.950 . S
H965 C976 0.950 . S
H966 C978 0.950 . S
H967 C979 0.950 . S
C968 H960 0.950 . S
C968 C969 1.386 . S
C968 C970 1.391 . S
C969 C968 1.386 . S
C969 C973 1.393 . S
C970 H962 0.950 . S
C970 C968 1.391 . S
C970 C971 1.400 . S
C971 C970 1.400 . S
C971 C972 1.398 . S
C971 C977 1.491 . S
C972 H963 0.950 . S
C972 C971 1.398 . S
C972 C973 1.391 . S
C973 H961 0.950 . S
C973 C969 1.393 . S
C973 C972 1.391 . S
C974 H964 0.950 . S
C974 C975 1.386 . S
C974 C976 1.391 . S
C975 C974 1.386 . S
C975 C979 1.393 . S
C976 H965 0.950 . S
C976 C974 1.391 . S
C976 C977 1.400 . S
C977 C971 1.491 . S
C977 C976 1.400 . S
C977 C978 1.398 . S
C978 H966 0.950 . S
C978 C977 1.398 . S
C978 C979 1.391 . S
C979 H967 0.950 . S
C979 C975 1.393 . S
C979 C978 1.391 . S
H980 C988 0.950 . S
H981 C993 0.950 . S
H982 C990 0.953 . S
H983 C992 0.950 . S
H984 C994 0.950 . S
H985 C996 0.950 . S
H986 C998 0.950 . S
H987 C999 0.950 . S
C988 H980 0.950 . S
C988 C989 1.386 . S
C988 C990 1.423 . S
C989 C988 1.386 . S
C989 C993 1.393 1_655 S
C990 H982 0.953 . S
C990 C988 1.423 . S
C990 C991 1.366 1_655 S
C991 C990 1.366 1_455 S
C991 C992 1.398 . S
C991 C997 1.491 . S
C992 H983 0.950 . S
C992 C991 1.398 . S
C992 C993 1.391 . S
C993 H981 0.950 . S
C993 C989 1.393 1_455 S
C993 C992 1.391 . S
C994 H984 0.950 . S
C994 C995 1.386 . S
C994 C996 1.391 . S
C995 C994 1.386 . S
C995 C999 1.393 . S
C996 H985 0.950 . S
C996 C994 1.391 . S
C996 C997 1.400 . S
C997 C991 1.491 . S
C997 C996 1.400 . S
C997 C998 1.398 . S
C998 H986 0.950 . S
C998 C997 1.398 . S
C998 C999 1.391 . S
C999 H987 0.950 . S
C999 C995 1.393 . S
C999 C998 1.391 . S
H1000 C1008 0.950 . S
H1001 C1013 0.950 . S
H1002 C1010 0.950 . S
H1003 C1012 0.950 . S
H1004 C1014 0.950 . S
H1005 C1016 0.950 . S
H1006 C1018 0.950 . S
H1007 C1019 0.950 . S
C1008 H1000 0.950 . S
C1008 C1009 1.386 . S
C1008 C1010 1.391 . S
C1009 C1008 1.386 . S
C1009 C1013 1.393 . S
C1010 H1002 0.950 . S
C1010 C1008 1.391 . S
C1010 C1011 1.400 . S
C1011 C1010 1.400 . S
C1011 C1012 1.398 . S
C1011 C1017 1.491 . S
C1012 H1003 0.950 . S
C1012 C1011 1.398 . S
C1012 C1013 1.391 . S
C1013 H1001 0.950 . S
C1013 C1009 1.393 . S
C1013 C1012 1.391 . S
C1014 H1004 0.950 . S
C1014 C1015 1.386 . S
C1014 C1016 1.391 . S
C1015 C1014 1.386 . S
C1015 C1019 1.393 . S
C1016 H1005 0.950 . S
C1016 C1014 1.391 . S
C1016 C1017 1.400 . S
C1017 C1011 1.491 . S
C1017 C1016 1.400 . S
C1017 C1018 1.398 . S
C1018 H1006 0.950 . S
C1018 C1017 1.398 . S
C1018 C1019 1.391 . S
C1019 H1007 0.950 . S
C1019 C1015 1.393 . S
C1019 C1018 1.391 . S
H1020 C1028 0.950 . S
H1021 C1033 0.950 . S
H1022 C1030 0.950 . S
H1023 C1032 0.950 . S
H1024 C1034 0.950 . S
H1025 C1036 0.950 . S
H1026 C1038 0.950 . S
H1027 C1039 0.950 . S
C1028 H1020 0.950 . S
C1028 C1029 1.386 . S
C1028 C1030 1.391 . S
C1029 C1028 1.386 . S
C1029 C1033 1.393 . S
C1030 H1022 0.950 . S
C1030 C1028 1.391 . S
C1030 C1031 1.400 . S
C1031 C1030 1.400 . S
C1031 C1032 1.398 . S
C1031 C1037 1.491 . S
C1032 H1023 0.950 . S
C1032 C1031 1.398 . S
C1032 C1033 1.391 . S
C1033 H1021 0.950 . S
C1033 C1029 1.393 . S
C1033 C1032 1.391 . S
C1034 H1024 0.950 . S
C1034 C1035 1.386 . S
C1034 C1036 1.391 . S
C1035 C1034 1.386 . S
C1035 C1039 1.393 . S
C1036 H1025 0.950 . S
C1036 C1034 1.391 . S
C1036 C1037 1.400 . S
C1037 C1031 1.491 . S
C1037 C1036 1.400 . S
C1037 C1038 1.398 . S
C1038 H1026 0.950 . S
C1038 C1037 1.398 . S
C1038 C1039 1.391 . S
C1039 H1027 0.950 . S
C1039 C1035 1.393 . S
C1039 C1038 1.391 . S
H1040 C1048 0.950 . S
H1041 C1053 0.950 . S
H1042 C1050 0.950 . S
H1043 C1052 0.950 . S
H1044 C1054 0.950 . S
H1045 C1056 0.950 1_655 S
H1046 C1058 0.950 . S
H1047 C1059 0.950 . S
C1048 H1040 0.950 . S
C1048 C1049 1.386 . S
C1048 C1050 1.391 . S
C1049 C1048 1.386 . S
C1049 C1053 1.393 1_455 S
C1050 H1042 0.950 . S
C1050 C1048 1.391 . S
C1050 C1051 1.400 . S
C1051 C1050 1.400 . S
C1051 C1052 1.398 1_455 S
C1051 C1057 1.491 . S
C1052 H1043 0.950 . S
C1052 C1051 1.398 1_655 S
C1052 C1053 1.391 . S
C1053 H1041 0.950 . S
C1053 C1049 1.393 1_655 S
C1053 C1052 1.391 . S
C1054 H1044 0.950 . S
C1054 C1055 1.386 . S
C1054 C1056 1.391 . S
C1055 C1054 1.386 . S
C1055 C1059 1.393 . S
C1056 H1045 0.950 1_455 S
C1056 C1054 1.391 . S
C1056 C1057 1.400 . S
C1057 C1051 1.491 . S
C1057 C1056 1.400 . S
C1057 C1058 1.398 . S
C1058 H1046 0.950 . S
C1058 C1057 1.398 . S
C1058 C1059 1.391 . S
C1059 H1047 0.950 . S
C1059 C1055 1.393 . S
C1059 C1058 1.391 . S
H1060 C1068 0.950 . S
H1061 C1073 0.950 . S
H1062 C1070 0.950 . S
H1063 C1072 0.950 . S
H1064 C1074 0.950 . S
H1065 C1076 0.950 . S
H1066 C1078 0.950 . S
H1067 C1079 0.950 . S
C1068 H1060 0.950 . S
C1068 C1069 1.386 . S
C1068 C1070 1.391 . S
C1069 C1068 1.386 . S
C1069 C1073 1.393 . S
C1070 H1062 0.950 . S
C1070 C1068 1.391 . S
C1070 C1071 1.400 . S
C1071 C1070 1.400 . S
C1071 C1072 1.398 . S
C1071 C1077 1.491 . S
C1072 H1063 0.950 . S
C1072 C1071 1.398 . S
C1072 C1073 1.391 . S
C1073 H1061 0.950 . S
C1073 C1069 1.393 . S
C1073 C1072 1.391 . S
C1074 H1064 0.950 . S
C1074 C1075 1.386 . S
C1074 C1076 1.391 . S
C1075 C1074 1.386 . S
C1075 C1079 1.393 . S
C1076 H1065 0.950 . S
C1076 C1074 1.391 . S
C1076 C1077 1.400 . S
C1077 C1071 1.491 . S
C1077 C1076 1.400 . S
C1077 C1078 1.398 . S
C1078 H1066 0.950 . S
C1078 C1077 1.398 . S
C1078 C1079 1.391 . S
C1079 H1067 0.950 . S
C1079 C1075 1.393 . S
C1079 C1078 1.391 . S
H1080 C1088 0.950 . S
H1081 C1093 0.950 . S
H1082 C1090 0.950 . S
H1083 C1092 0.950 . S
H1084 C1094 0.950 . S
H1085 C1096 0.950 . S
H1086 C1098 0.950 . S
H1087 C1099 0.950 . S
C1088 H1080 0.950 . S
C1088 C1089 1.386 . S
C1088 C1090 1.391 . S
C1089 C1088 1.386 . S
C1089 C1093 1.393 . S
C1090 H1082 0.950 . S
C1090 C1088 1.391 . S
C1090 C1091 1.400 . S
C1091 C1090 1.400 . S
C1091 C1092 1.398 . S
C1091 C1097 1.491 . S
C1092 H1083 0.950 . S
C1092 C1091 1.398 . S
C1092 C1093 1.391 . S
C1093 H1081 0.950 . S
C1093 C1089 1.393 . S
C1093 C1092 1.391 . S
C1094 H1084 0.950 . S
C1094 C1095 1.386 . S
C1094 C1096 1.391 . S
C1095 C1094 1.386 . S
C1095 C1099 1.393 . S
C1096 H1085 0.950 . S
C1096 C1094 1.391 . S
C1096 C1097 1.400 . S
C1097 C1091 1.491 . S
C1097 C1096 1.400 . S
C1097 C1098 1.398 . S
C1098 H1086 0.950 . S
C1098 C1097 1.398 . S
C1098 C1099 1.391 . S
C1099 H1087 0.950 . S
C1099 C1095 1.393 . S
C1099 C1098 1.391 . S
H1100 C1108 0.950 . S
H1101 C1113 0.950 . S
H1102 C1110 0.950 . S
H1103 C1112 0.950 . S
H1104 C1114 0.950 . S
H1105 C1116 0.950 . S
H1106 C1118 0.950 . S
H1107 C1119 0.950 . S
C1108 H1100 0.950 . S
C1108 C1109 1.386 . S
C1108 C1110 1.391 . S
C1109 C1108 1.386 . S
C1109 C1113 1.393 . S
C1110 H1102 0.950 . S
C1110 C1108 1.391 . S
C1110 C1111 1.400 . S
C1111 C1110 1.400 . S
C1111 C1112 1.398 . S
C1111 C1117 1.491 . S
C1112 H1103 0.950 . S
C1112 C1111 1.398 . S
C1112 C1113 1.391 . S
C1113 H1101 0.950 . S
C1113 C1109 1.393 . S
C1113 C1112 1.391 . S
C1114 H1104 0.950 . S
C1114 C1115 1.386 . S
C1114 C1116 1.391 1_655 S
C1115 C1114 1.386 . S
C1115 C1119 1.393 . S
C1116 H1105 0.950 . S
C1116 C1114 1.391 1_455 S
C1116 C1117 1.400 . S
C1117 C1111 1.491 . S
C1117 C1116 1.400 . S
C1117 C1118 1.398 . S
C1118 H1106 0.950 . S
C1118 C1117 1.398 . S
C1118 C1119 1.391 1_455 S
C1119 H1107 0.950 . S
C1119 C1115 1.393 . S
C1119 C1118 1.391 1_655 S
H1120 C1128 0.950 . S
H1121 C1133 0.950 . S
H1122 C1130 0.950 . S
H1123 C1132 0.950 . S
H1124 C1134 0.950 . S
H1125 C1136 0.927 1_545 S
H1126 C1138 0.950 . S
H1127 C1139 0.950 . S
C1128 H1120 0.950 . S
C1128 C1129 1.386 . S
C1128 C1130 1.391 1_545 S
C1129 C1128 1.386 . S
C1129 C1133 1.393 . S
C1130 H1122 0.950 . S
C1130 C1128 1.391 1_565 S
C1130 C1131 1.400 1_565 S
C1131 C1130 1.400 1_545 S
C1131 C1132 1.398 . S
C1131 C1137 1.491 1_545 S
C1132 H1123 0.950 . S
C1132 C1131 1.398 . S
C1132 C1133 1.391 . S
C1133 H1121 0.950 . S
C1133 C1129 1.393 . S
C1133 C1132 1.391 . S
C1134 H1124 0.950 . S
C1134 C1135 1.386 . S
C1134 C1136 1.403 . S
C1135 C1134 1.386 . S
C1135 C1139 1.393 . S
C1136 H1125 0.927 1_565 S
C1136 C1134 1.403 . S
C1136 C1137 1.411 1_556 S
C1137 C1131 1.491 1_565 S
C1137 C1136 1.411 1_554 S
C1137 C1138 1.398 . S
C1138 H1126 0.950 . S
C1138 C1137 1.398 . S
C1138 C1139 1.391 1_554 S
C1139 H1127 0.950 . S
C1139 C1135 1.393 . S
C1139 C1138 1.391 1_556 S
H1140 C1148 0.950 . S
H1141 C1153 0.950 . S
H1142 C1150 0.950 . S
H1143 C1152 0.950 . S
H1144 C1154 0.950 . S
H1145 C1156 0.950 . S
H1146 C1158 0.950 . S
H1147 C1159 0.950 . S
C1148 H1140 0.950 . S
C1148 C1149 1.386 . S
C1148 C1150 1.391 . S
C1149 C1148 1.386 . S
C1149 C1153 1.393 . S
C1150 H1142 0.950 . S
C1150 C1148 1.391 . S
C1150 C1151 1.400 . S
C1151 C1150 1.400 . S
C1151 C1152 1.398 . S
C1151 C1157 1.491 . S
C1152 H1143 0.950 . S
C1152 C1151 1.398 . S
C1152 C1153 1.391 . S
C1153 H1141 0.950 . S
C1153 C1149 1.393 . S
C1153 C1152 1.391 . S
C1154 H1144 0.950 . S
C1154 C1155 1.386 . S
C1154 C1156 1.391 . S
C1155 C1154 1.386 . S
C1155 C1159 1.393 . S
C1156 H1145 0.950 . S
C1156 C1154 1.391 . S
C1156 C1157 1.400 . S
C1157 C1151 1.491 . S
C1157 C1156 1.400 . S
C1157 C1158 1.398 . S
C1158 H1146 0.950 . S
C1158 C1157 1.398 . S
C1158 C1159 1.391 . S
C1159 H1147 0.950 . S
C1159 C1155 1.393 . S
C1159 C1158 1.391 . S
H1160 C1168 0.950 . S
H1161 C1173 0.950 . S
H1162 C1170 0.950 . S
H1163 C1172 0.950 1_565 S
H1164 C1174 0.950 . S
H1165 C1176 0.950 . S
H1166 C1178 0.950 . S
H1167 C1179 0.950 . S
C1168 H1160 0.950 . S
C1168 C1169 1.386 . S
C1168 C1170 1.391 . S
C1169 C1168 1.386 . S
C1169 C1173 1.393 . S
C1170 H1162 0.950 . S
C1170 C1168 1.391 . S
C1170 C1171 1.400 . S
C1171 C1170 1.400 . S
C1171 C1172 1.398 . S
C1171 C1177 1.491 1_545 S
C1172 H1163 0.950 1_545 S
C1172 C1171 1.398 . S
C1172 C1173 1.391 . S
C1173 H1161 0.950 . S
C1173 C1169 1.393 . S
C1173 C1172 1.391 . S
C1174 H1164 0.950 . S
C1174 C1175 1.386 . S
C1174 C1176 1.391 . S
C1175 C1174 1.386 . S
C1175 C1179 1.393 . S
C1176 H1165 0.950 . S
C1176 C1174 1.391 . S
C1176 C1177 1.400 . S
C1177 C1171 1.491 1_565 S
C1177 C1176 1.400 . S
C1177 C1178 1.398 . S
C1178 H1166 0.950 . S
C1178 C1177 1.398 . S
C1178 C1179 1.391 . S
C1179 H1167 0.950 . S
C1179 C1175 1.393 . S
C1179 C1178 1.391 . S
H1180 C1188 0.950 . S
H1181 C1193 0.950 . S
H1182 C1190 0.950 . S
H1183 C1192 0.950 . S
H1184 C1194 0.950 . S
H1185 C1196 0.950 . S
H1186 C1198 0.950 . S
H1187 C1199 0.950 . S
C1188 H1180 0.950 . S
C1188 C1189 1.386 . S
C1188 C1190 1.391 . S
C1189 C1188 1.386 . S
C1189 C1193 1.393 . S
C1190 H1182 0.950 . S
C1190 C1188 1.391 . S
C1190 C1191 1.400 . S
C1191 C1190 1.400 . S
C1191 C1192 1.398 . S
C1191 C1197 1.491 . S
C1192 H1183 0.950 . S
C1192 C1191 1.398 . S
C1192 C1193 1.391 . S
C1193 H1181 0.950 . S
C1193 C1189 1.393 . S
C1193 C1192 1.391 . S
C1194 H1184 0.950 . S
C1194 C1195 1.386 . S
C1194 C1196 1.391 . S
C1195 C1194 1.386 . S
C1195 C1199 1.393 . S
C1196 H1185 0.950 . S
C1196 C1194 1.391 . S
C1196 C1197 1.400 . S
C1197 C1191 1.491 . S
C1197 C1196 1.400 . S
C1197 C1198 1.398 . S
C1198 H1186 0.950 . S
C1198 C1197 1.398 . S
C1198 C1199 1.391 . S
C1199 H1187 0.950 . S
C1199 C1195 1.393 . S
C1199 C1198 1.391 . S
H1200 C1208 0.950 . S
H1201 C1213 0.950 . S
H1202 C1210 0.950 . S
H1203 C1212 0.950 . S
H1204 C1214 0.950 . S
H1205 C1216 0.950 . S
H1206 C1218 0.950 . S
H1207 C1219 0.950 . S
C1208 H1200 0.950 . S
C1208 C1209 1.386 . S
C1208 C1210 1.391 . S
C1209 C1208 1.386 . S
C1209 C1213 1.393 . S
C1210 H1202 0.950 . S
C1210 C1208 1.391 . S
C1210 C1211 1.400 . S
C1211 C1210 1.400 . S
C1211 C1212 1.398 . S
C1211 C1217 1.491 . S
C1212 H1203 0.950 . S
C1212 C1211 1.398 . S
C1212 C1213 1.391 . S
C1213 H1201 0.950 . S
C1213 C1209 1.393 . S
C1213 C1212 1.391 . S
C1214 H1204 0.950 . S
C1214 C1215 1.386 . S
C1214 C1216 1.391 . S
C1215 C1214 1.386 . S
C1215 C1219 1.393 . S
C1216 H1205 0.950 . S
C1216 C1214 1.391 . S
C1216 C1217 1.400 . S
C1217 C1211 1.491 . S
C1217 C1216 1.400 . S
C1217 C1218 1.398 . S
C1218 H1206 0.950 . S
C1218 C1217 1.398 . S
C1218 C1219 1.391 . S
C1219 H1207 0.950 . S
C1219 C1215 1.393 . S
C1219 C1218 1.391 . S
H1220 C1228 0.950 . S
H1221 C1233 0.950 . S
H1222 C1230 0.950 . S
H1223 C1232 0.950 . S
H1224 C1234 0.950 . S
H1225 C1236 0.950 . S
H1226 C1238 0.950 . S
H1227 C1239 0.950 . S
C1228 H1220 0.950 . S
C1228 C1229 1.386 . S
C1228 C1230 1.391 . S
C1229 C1228 1.386 . S
C1229 C1233 1.393 . S
C1230 H1222 0.950 . S
C1230 C1228 1.391 . S
C1230 C1231 1.400 . S
C1231 C1230 1.400 . S
C1231 C1232 1.398 . S
C1231 C1237 1.491 . S
C1232 H1223 0.950 . S
C1232 C1231 1.398 . S
C1232 C1233 1.391 . S
C1233 H1221 0.950 . S
C1233 C1229 1.393 . S
C1233 C1232 1.391 . S
C1234 H1224 0.950 . S
C1234 C1235 1.386 . S
C1234 C1236 1.391 . S
C1235 C1234 1.386 . S
C1235 C1239 1.393 . S
C1236 H1225 0.950 . S
C1236 C1234 1.391 . S
C1236 C1237 1.400 . S
C1237 C1231 1.491 . S
C1237 C1236 1.400 . S
C1237 C1238 1.398 . S
C1238 H1226 0.950 . S
C1238 C1237 1.398 . S
C1238 C1239 1.391 . S
C1239 H1227 0.950 . S
C1239 C1235 1.393 . S
C1239 C1238 1.391 . S
H1240 C1248 0.950 . S
H1241 C1253 0.950 . S
H1242 C1250 0.950 . S
H1243 C1252 0.950 . S
H1244 C1254 0.950 . S
H1245 C1256 0.950 . S
H1246 C1258 0.950 . S
H1247 C1259 0.950 . S
C1248 H1240 0.950 . S
C1248 C1249 1.386 . S
C1248 C1250 1.391 . S
C1249 C1248 1.386 . S
C1249 C1253 1.393 . S
C1250 H1242 0.950 . S
C1250 C1248 1.391 . S
C1250 C1251 1.400 . S
C1251 C1250 1.400 . S
C1251 C1252 1.398 . S
C1251 C1257 1.491 . S
C1252 H1243 0.950 . S
C1252 C1251 1.398 . S
C1252 C1253 1.391 . S
C1253 H1241 0.950 . S
C1253 C1249 1.393 . S
C1253 C1252 1.391 . S
C1254 H1244 0.950 . S
C1254 C1255 1.386 . S
C1254 C1256 1.391 . S
C1255 C1254 1.386 . S
C1255 C1259 1.393 . S
C1256 H1245 0.950 . S
C1256 C1254 1.391 . S
C1256 C1257 1.400 . S
C1257 C1251 1.491 . S
C1257 C1256 1.400 . S
C1257 C1258 1.398 . S
C1258 H1246 0.950 . S
C1258 C1257 1.398 . S
C1258 C1259 1.391 . S
C1259 H1247 0.950 . S
C1259 C1255 1.393 . S
C1259 C1258 1.391 . S
H1260 C1268 0.950 . S
H1261 C1273 0.950 . S
H1262 C1270 0.950 . S
H1263 C1272 0.950 . S
H1264 C1274 0.950 . S
H1265 C1276 0.950 . S
H1266 C1278 0.950 . S
H1267 C1279 0.950 . S
C1268 H1260 0.950 . S
C1268 C1269 1.386 . S
C1268 C1270 1.391 . S
C1269 C1268 1.386 . S
C1269 C1273 1.393 . S
C1270 H1262 0.950 . S
C1270 C1268 1.391 . S
C1270 C1271 1.400 . S
C1271 C1270 1.400 . S
C1271 C1272 1.398 . S
C1271 C1277 1.491 . S
C1272 H1263 0.950 . S
C1272 C1271 1.398 . S
C1272 C1273 1.391 . S
C1273 H1261 0.950 . S
C1273 C1269 1.393 . S
C1273 C1272 1.391 . S
C1274 H1264 0.950 . S
C1274 C1275 1.386 . S
C1274 C1276 1.391 1_554 S
C1275 C1274 1.386 . S
C1275 C1279 1.393 . S
C1276 H1265 0.950 . S
C1276 C1274 1.391 1_556 S
C1276 C1277 1.400 . S
C1277 C1271 1.491 . S
C1277 C1276 1.400 . S
C1277 C1278 1.398 . S
C1278 H1266 0.950 . S
C1278 C1277 1.398 . S
C1278 C1279 1.391 1_556 S
C1279 H1267 0.950 . S
C1279 C1275 1.393 . S
C1279 C1278 1.391 1_554 S
H1280 C1288 0.950 . S
H1281 C1293 0.950 . S
H1282 C1290 0.950 . S
H1283 C1292 0.950 . S
H1284 C1294 0.950 . S
H1285 C1296 0.950 . S
H1286 C1298 0.950 . S
H1287 C1299 0.950 . S
C1288 H1280 0.950 . S
C1288 C1289 1.386 . S
C1288 C1290 1.391 . S
C1289 C1288 1.386 . S
C1289 C1293 1.393 . S
C1290 H1282 0.950 . S
C1290 C1288 1.391 . S
C1290 C1291 1.400 . S
C1291 C1290 1.400 . S
C1291 C1292 1.398 . S
C1291 C1297 1.491 . S
C1292 H1283 0.950 . S
C1292 C1291 1.398 . S
C1292 C1293 1.391 . S
C1293 H1281 0.950 . S
C1293 C1289 1.393 . S
C1293 C1292 1.391 . S
C1294 H1284 0.950 . S
C1294 C1295 1.386 . S
C1294 C1296 1.391 . S
C1295 C1294 1.386 . S
C1295 C1299 1.393 . S
C1296 H1285 0.950 . S
C1296 C1294 1.391 . S
C1296 C1297 1.400 . S
C1297 C1291 1.491 . S
C1297 C1296 1.400 . S
C1297 C1298 1.398 . S
C1298 H1286 0.950 . S
C1298 C1297 1.398 . S
C1298 C1299 1.391 . S
C1299 H1287 0.950 . S
C1299 C1295 1.393 . S
C1299 C1298 1.391 . S
H1300 C1308 0.950 . S
H1301 C1313 0.950 . S
H1302 C1310 0.950 . S
H1303 C1312 0.950 . S
H1304 C1314 0.950 . S
H1305 C1316 0.950 . S
H1306 C1318 0.950 . S
H1307 C1319 0.950 . S
C1308 H1300 0.950 . S
C1308 C1309 1.386 . S
C1308 C1310 1.391 . S
C1309 C1308 1.386 . S
C1309 C1313 1.393 . S
C1310 H1302 0.950 . S
C1310 C1308 1.391 . S
C1310 C1311 1.400 . S
C1311 C1310 1.400 . S
C1311 C1312 1.398 . S
C1311 C1317 1.491 . S
C1312 H1303 0.950 . S
C1312 C1311 1.398 . S
C1312 C1313 1.391 . S
C1313 H1301 0.950 . S
C1313 C1309 1.393 . S
C1313 C1312 1.391 . S
C1314 H1304 0.950 . S
C1314 C1315 1.386 . S
C1314 C1316 1.391 . S
C1315 C1314 1.386 . S
C1315 C1319 1.393 . S
C1316 H1305 0.950 . S
C1316 C1314 1.391 . S
C1316 C1317 1.400 . S
C1317 C1311 1.491 . S
C1317 C1316 1.400 . S
C1317 C1318 1.398 . S
C1318 H1306 0.950 . S
C1318 C1317 1.398 . S
C1318 C1319 1.391 . S
C1319 H1307 0.950 . S
C1319 C1315 1.393 . S
C1319 C1318 1.391 . S
H1320 C1328 0.950 . S
H1321 C1333 0.950 . S
H1322 C1330 0.950 . S
H1323 C1332 0.950 . S
H1324 C1334 0.950 . S
H1325 C1336 0.950 . S
H1326 C1338 0.950 . S
H1327 C1339 0.950 . S
C1328 H1320 0.950 . S
C1328 C1329 1.386 . S
C1328 C1330 1.391 . S
C1329 C1328 1.386 . S
C1329 C1333 1.393 . S
C1330 H1322 0.950 . S
C1330 C1328 1.391 . S
C1330 C1331 1.400 . S
C1331 C1330 1.400 . S
C1331 C1332 1.398 . S
C1331 C1337 1.491 . S
C1332 H1323 0.950 . S
C1332 C1331 1.398 . S
C1332 C1333 1.391 . S
C1333 H1321 0.950 . S
C1333 C1329 1.393 . S
C1333 C1332 1.391 . S
C1334 H1324 0.950 . S
C1334 C1335 1.386 . S
C1334 C1336 1.391 . S
C1335 C1334 1.386 . S
C1335 C1339 1.393 . S
C1336 H1325 0.950 . S
C1336 C1334 1.391 . S
C1336 C1337 1.400 . S
C1337 C1331 1.491 . S
C1337 C1336 1.400 . S
C1337 C1338 1.398 . S
C1338 H1326 0.950 . S
C1338 C1337 1.398 . S
C1338 C1339 1.391 . S
C1339 H1327 0.950 . S
C1339 C1335 1.393 . S
C1339 C1338 1.391 . S
H1340 C1348 0.950 . S
H1341 C1353 0.950 . S
H1342 C1350 0.950 . S
H1343 C1352 0.950 . S
H1344 C1354 0.950 1_556 S
H1345 C1356 0.950 . S
H1346 C1358 0.950 . S
H1347 C1359 0.950 . S
C1348 H1340 0.950 . S
C1348 C1349 1.386 . S
C1348 C1350 1.391 . S
C1349 C1348 1.386 . S
C1349 C1353 1.393 . S
C1350 H1342 0.950 . S
C1350 C1348 1.391 . S
C1350 C1351 1.400 . S
C1351 C1350 1.400 . S
C1351 C1352 1.398 . S
C1351 C1357 1.491 . S
C1352 H1343 0.950 . S
C1352 C1351 1.398 . S
C1352 C1353 1.391 . S
C1353 H1341 0.950 . S
C1353 C1349 1.393 . S
C1353 C1352 1.391 . S
C1354 H1344 0.950 1_554 S
C1354 C1355 1.386 . S
C1354 C1356 1.391 . S
C1355 C1354 1.386 . S
C1355 C1359 1.393 . S
C1356 H1345 0.950 . S
C1356 C1354 1.391 . S
C1356 C1357 1.400 . S
C1357 C1351 1.491 . S
C1357 C1356 1.400 . S
C1357 C1358 1.398 . S
C1358 H1346 0.950 . S
C1358 C1357 1.398 . S
C1358 C1359 1.391 . S
C1359 H1347 0.950 . S
C1359 C1355 1.393 . S
C1359 C1358 1.391 . S
H1360 C1368 0.950 . S
H1361 C1373 0.950 . S
H1362 C1370 0.950 . S
H1363 C1372 0.950 . S
H1364 C1374 0.950 . S
H1365 C1376 0.950 . S
H1366 C1378 0.950 . S
H1367 C1379 0.950 . S
C1368 H1360 0.950 . S
C1368 C1369 1.386 . S
C1368 C1370 1.391 . S
C1369 C1368 1.386 . S
C1369 C1373 1.393 . S
C1370 H1362 0.950 . S
C1370 C1368 1.391 . S
C1370 C1371 1.400 . S
C1371 C1370 1.400 . S
C1371 C1372 1.398 . S
C1371 C1377 1.491 . S
C1372 H1363 0.950 . S
C1372 C1371 1.398 . S
C1372 C1373 1.391 . S
C1373 H1361 0.950 . S
C1373 C1369 1.393 . S
C1373 C1372 1.391 . S
C1374 H1364 0.950 . S
C1374 C1375 1.386 . S
C1374 C1376 1.391 . S
C1375 C1374 1.386 . S
C1375 C1379 1.393 . S
C1376 H1365 0.950 . S
C1376 C1374 1.391 . S
C1376 C1377 1.400 . S
C1377 C1371 1.491 . S
C1377 C1376 1.400 . S
C1377 C1378 1.398 . S
C1378 H1366 0.950 . S
C1378 C1377 1.398 . S
C1378 C1379 1.391 . S
C1379 H1367 0.950 . S
C1379 C1375 1.393 . S
C1379 C1378 1.391 . S
H1380 C1388 0.950 . S
H1381 C1393 0.950 . S
H1382 C1390 0.950 . S
H1383 C1392 0.950 . S
H1384 C1394 0.950 . S
H1385 C1396 0.950 . S
H1386 C1398 0.950 . S
H1387 C1399 0.950 . S
C1388 H1380 0.950 . S
C1388 C1389 1.386 . S
C1388 C1390 1.391 . S
C1389 C1388 1.386 . S
C1389 C1393 1.393 . S
C1390 H1382 0.950 . S
C1390 C1388 1.391 . S
C1390 C1391 1.400 . S
C1391 C1390 1.400 . S
C1391 C1392 1.398 . S
C1391 C1397 1.491 . S
C1392 H1383 0.950 . S
C1392 C1391 1.398 . S
C1392 C1393 1.391 . S
C1393 H1381 0.950 . S
C1393 C1389 1.393 . S
C1393 C1392 1.391 . S
C1394 H1384 0.950 . S
C1394 C1395 1.373 1_455 S
C1394 C1396 1.391 . S
C1395 C1394 1.373 1_655 S
C1395 C1399 1.413 . S
C1396 H1385 0.950 . S
C1396 C1394 1.391 . S
C1396 C1397 1.400 1_455 S
C1397 C1391 1.491 . S
C1397 C1396 1.400 1_655 S
C1397 C1398 1.398 . S
C1398 H1386 0.950 . S
C1398 C1397 1.398 . S
C1398 C1399 1.391 . S
C1399 H1387 0.950 . S
C1399 C1395 1.413 . S
C1399 C1398 1.391 . S
H1400 C1408 0.950 . S
H1401 C1413 0.950 . S
H1402 C1410 0.950 . S
H1403 C1412 0.950 . S
H1404 C1414 0.950 . S
H1405 C1416 0.950 . S
H1406 C1418 0.950 . S
H1407 C1419 0.950 . S
C1408 H1400 0.950 . S
C1408 C1409 1.386 . S
C1408 C1410 1.391 . S
C1409 C1408 1.386 . S
C1409 C1413 1.393 . S
C1410 H1402 0.950 . S
C1410 C1408 1.391 . S
C1410 C1411 1.400 . S
C1411 C1410 1.400 . S
C1411 C1412 1.398 . S
C1411 C1417 1.491 . S
C1412 H1403 0.950 . S
C1412 C1411 1.398 . S
C1412 C1413 1.391 . S
C1413 H1401 0.950 . S
C1413 C1409 1.393 . S
C1413 C1412 1.391 . S
C1414 H1404 0.950 . S
C1414 C1415 1.386 . S
C1414 C1416 1.391 . S
C1415 C1414 1.386 . S
C1415 C1419 1.393 . S
C1416 H1405 0.950 . S
C1416 C1414 1.391 . S
C1416 C1417 1.400 . S
C1417 C1411 1.491 . S
C1417 C1416 1.400 . S
C1417 C1418 1.398 . S
C1418 H1406 0.950 . S
C1418 C1417 1.398 . S
C1418 C1419 1.391 . S
C1419 H1407 0.950 . S
C1419 C1415 1.393 . S
C1419 C1418 1.391 . S
H1420 C1428 0.950 . S
H1421 C1433 0.950 . S
H1422 C1430 0.950 . S
H1423 C1432 0.950 . S
H1424 C1434 0.950 . S
H1425 C1436 0.950 . S
H1426 C1438 0.950 . S
H1427 C1439 0.950 . S
C1428 H1420 0.950 . S
C1428 C1429 1.386 . S
C1428 C1430 1.391 . S
C1429 C1428 1.386 . S
C1429 C1433 1.393 . S
C1430 H1422 0.950 . S
C1430 C1428 1.391 . S
C1430 C1431 1.400 . S
C1431 C1430 1.400 . S
C1431 C1432 1.398 . S
C1431 C1437 1.491 . S
C1432 H1423 0.950 . S
C1432 C1431 1.398 . S
C1432 C1433 1.391 . S
C1433 H1421 0.950 . S
C1433 C1429 1.393 . S
C1433 C1432 1.391 . S
C1434 H1424 0.950 . S
C1434 C1435 1.386 . S
C1434 C1436 1.391 . S
C1435 C1434 1.386 . S
C1435 C1439 1.393 . S
C1436 H1425 0.950 . S
C1436 C1434 1.391 . S
C1436 C1437 1.400 . S
C1437 C1431 1.491 . S
C1437 C1436 1.400 . S
C1437 C1438 1.398 . S
C1438 H1426 0.950 . S
C1438 C1437 1.398 . S
C1438 C1439 1.391 . S
C1439 H1427 0.950 . S
C1439 C1435 1.393 . S
C1439 C1438 1.391 . S
H1440 C1448 0.950 . S
H1441 C1453 0.950 . S
H1442 C1450 0.950 . S
H1443 C1452 0.950 . S
H1444 C1454 0.950 . S
H1445 C1456 0.951 1_556 S
H1446 C1458 0.950 . S
H1447 C1459 0.950 . S
C1448 H1440 0.950 . S
C1448 C1449 1.386 . S
C1448 C1450 1.391 . S
C1449 C1448 1.386 . S
C1449 C1453 1.393 . S
C1450 H1442 0.950 . S
C1450 C1448 1.391 . S
C1450 C1451 1.400 . S
C1451 C1450 1.400 . S
C1451 C1452 1.398 . S
C1451 C1457 1.491 . S
C1452 H1443 0.950 . S
C1452 C1451 1.398 . S
C1452 C1453 1.391 . S
C1453 H1441 0.950 . S
C1453 C1449 1.393 . S
C1453 C1452 1.391 . S
C1454 H1444 0.950 . S
C1454 C1455 1.386 . S
C1454 C1456 1.394 . S
C1455 C1454 1.386 . S
C1455 C1459 1.393 . S
C1456 H1445 0.951 1_554 S
C1456 C1454 1.394 . S
C1456 C1457 1.398 1_554 S
C1457 C1451 1.491 . S
C1457 C1456 1.398 1_556 S
C1457 C1458 1.398 . S
C1458 H1446 0.950 . S
C1458 C1457 1.398 . S
C1458 C1459 1.391 1_556 S
C1459 H1447 0.950 . S
C1459 C1455 1.393 . S
C1459 C1458 1.391 1_554 S
H1460 C1468 0.950 . S
H1461 C1473 0.950 . S
H1462 C1470 0.950 . S
H1463 C1472 0.950 . S
H1464 C1474 0.950 . S
H1465 C1476 0.950 . S
H1466 C1478 0.950 . S
H1467 C1479 0.950 . S
C1468 H1460 0.950 . S
C1468 C1469 1.386 . S
C1468 C1470 1.391 . S
C1469 C1468 1.386 . S
C1469 C1473 1.393 . S
C1470 H1462 0.950 . S
C1470 C1468 1.391 . S
C1470 C1471 1.400 . S
C1471 C1470 1.400 . S
C1471 C1472 1.398 . S
C1471 C1477 1.491 . S
C1472 H1463 0.950 . S
C1472 C1471 1.398 . S
C1472 C1473 1.391 . S
C1473 H1461 0.950 . S
C1473 C1469 1.393 . S
C1473 C1472 1.391 . S
C1474 H1464 0.950 . S
C1474 C1475 1.386 . S
C1474 C1476 1.391 . S
C1475 C1474 1.386 . S
C1475 C1479 1.393 . S
C1476 H1465 0.950 . S
C1476 C1474 1.391 . S
C1476 C1477 1.400 . S
C1477 C1471 1.491 . S
C1477 C1476 1.400 . S
C1477 C1478 1.398 . S
C1478 H1466 0.950 . S
C1478 C1477 1.398 . S
C1478 C1479 1.391 . S
C1479 H1467 0.950 . S
C1479 C1475 1.393 . S
C1479 C1478 1.391 . S
H1480 C1488 0.950 . S
H1481 C1493 0.950 . S
H1482 C1490 0.950 . S
H1483 C1492 0.950 . S
H1484 C1494 0.950 . S
H1485 C1496 0.950 . S
H1486 C1498 0.950 . S
H1487 C1499 0.950 . S
C1488 H1480 0.950 . S
C1488 C1489 1.386 . S
C1488 C1490 1.391 . S
C1489 C1488 1.386 . S
C1489 C1493 1.393 . S
C1490 H1482 0.950 . S
C1490 C1488 1.391 . S
C1490 C1491 1.400 . S
C1491 C1490 1.400 . S
C1491 C1492 1.398 . S
C1491 C1497 1.491 . S
C1492 H1483 0.950 . S
C1492 C1491 1.398 . S
C1492 C1493 1.391 . S
C1493 H1481 0.950 . S
C1493 C1489 1.393 . S
C1493 C1492 1.391 . S
C1494 H1484 0.950 . S
C1494 C1495 1.386 . S
C1494 C1496 1.391 . S
C1495 C1494 1.386 . S
C1495 C1499 1.393 . S
C1496 H1485 0.950 . S
C1496 C1494 1.391 . S
C1496 C1497 1.400 . S
C1497 C1491 1.491 . S
C1497 C1496 1.400 . S
C1497 C1498 1.398 . S
C1498 H1486 0.950 . S
C1498 C1497 1.398 . S
C1498 C1499 1.391 . S
C1499 H1487 0.950 . S
C1499 C1495 1.393 . S
C1499 C1498 1.391 . S
H1500 C1508 0.968 . S
H1501 C1513 0.950 . S
H1502 C1510 0.950 . S
H1503 C1512 0.950 . S
H1504 C1514 0.950 . S
H1505 C1516 0.950 . S
H1506 C1518 0.950 . S
H1507 C1519 0.950 . S
C1508 H1500 0.968 . S
C1508 C1509 1.386 . S
C1508 C1510 1.391 . S
C1509 C1508 1.386 . S
C1509 C1513 1.393 . S
C1510 H1502 0.950 . S
C1510 C1508 1.391 . S
C1510 C1511 1.400 . S
C1511 C1510 1.400 . S
C1511 C1512 1.398 . S
C1511 C1517 1.491 . S
C1512 H1503 0.950 . S
C1512 C1511 1.398 . S
C1512 C1513 1.391 . S
C1513 H1501 0.950 . S
C1513 C1509 1.393 . S
C1513 C1512 1.391 . S
C1514 H1504 0.950 . S
C1514 C1515 1.386 . S
C1514 C1516 1.391 . S
C1515 C1514 1.386 . S
C1515 C1519 1.393 . S
C1516 H1505 0.950 . S
C1516 C1514 1.391 . S
C1516 C1517 1.400 . S
C1517 C1511 1.491 . S
C1517 C1516 1.400 . S
C1517 C1518 1.398 . S
C1518 H1506 0.950 . S
C1518 C1517 1.398 . S
C1518 C1519 1.391 . S
C1519 H1507 0.950 . S
C1519 C1515 1.393 . S
C1519 C1518 1.391 . S
H1520 C1528 0.950 . S
H1521 C1533 0.950 . S
H1522 C1530 0.950 . S
H1523 C1532 0.950 . S
H1524 C1534 0.950 . S
H1525 C1536 0.957 . S
H1526 C1538 0.950 . S
H1527 C1539 0.950 . S
C1528 H1520 0.950 . S
C1528 C1529 1.386 . S
C1528 C1530 1.391 . S
C1529 C1528 1.386 . S
C1529 C1533 1.393 . S
C1530 H1522 0.950 . S
C1530 C1528 1.391 . S
C1530 C1531 1.400 . S
C1531 C1530 1.400 . S
C1531 C1532 1.398 . S
C1531 C1537 1.491 . S
C1532 H1523 0.950 . S
C1532 C1531 1.398 . S
C1532 C1533 1.391 . S
C1533 H1521 0.950 . S
C1533 C1529 1.393 . S
C1533 C1532 1.391 . S
C1534 H1524 0.950 . S
C1534 C1535 1.386 . S
C1534 C1536 1.374 1_556 S
C1535 C1534 1.386 . S
C1535 C1539 1.393 . S
C1536 H1525 0.957 . S
C1536 C1534 1.374 1_554 S
C1536 C1537 1.411 . S
C1537 C1531 1.491 . S
C1537 C1536 1.411 . S
C1537 C1538 1.398 . S
C1538 H1526 0.950 . S
C1538 C1537 1.398 . S
C1538 C1539 1.391 1_554 S
C1539 H1527 0.950 . S
C1539 C1535 1.393 . S
C1539 C1538 1.391 1_556 S
H1540 C1548 0.950 1_554 S
H1541 C1553 0.950 . S
H1542 C1550 0.950 . S
H1543 C1552 0.950 . S
H1544 C1554 0.950 . S
H1545 C1556 0.950 . S
H1546 C1558 0.950 . S
H1547 C1559 0.950 . S
C1548 H1540 0.950 1_556 S
C1548 C1549 1.386 . S
C1548 C1550 1.391 . S
C1549 C1548 1.386 . S
C1549 C1553 1.393 . S
C1550 H1542 0.950 . S
C1550 C1548 1.391 . S
C1550 C1551 1.400 . S
C1551 C1550 1.400 . S
C1551 C1552 1.398 . S
C1551 C1557 1.491 . S
C1552 H1543 0.950 . S
C1552 C1551 1.398 . S
C1552 C1553 1.391 . S
C1553 H1541 0.950 . S
C1553 C1549 1.393 . S
C1553 C1552 1.391 . S
C1554 H1544 0.950 . S
C1554 C1555 1.386 . S
C1554 C1556 1.391 . S
C1555 C1554 1.386 . S
C1555 C1559 1.393 . S
C1556 H1545 0.950 . S
C1556 C1554 1.391 . S
C1556 C1557 1.400 . S
C1557 C1551 1.491 . S
C1557 C1556 1.400 . S
C1557 C1558 1.398 . S
C1558 H1546 0.950 . S
C1558 C1557 1.398 . S
C1558 C1559 1.391 . S
C1559 H1547 0.950 . S
C1559 C1555 1.393 . S
C1559 C1558 1.391 . S
H1560 C1568 0.950 . S
H1561 C1573 0.950 . S
H1562 C1570 0.950 . S
H1563 C1572 0.950 . S
H1564 C1574 0.950 . S
H1565 C1576 0.950 . S
H1566 C1578 0.950 . S
H1567 C1579 0.950 . S
C1568 H1560 0.950 . S
C1568 C1569 1.386 . S
C1568 C1570 1.391 . S
C1569 C1568 1.386 . S
C1569 C1573 1.393 . S
C1570 H1562 0.950 . S
C1570 C1568 1.391 . S
C1570 C1571 1.400 . S
C1571 C1570 1.400 . S
C1571 C1572 1.398 . S
C1571 C1577 1.491 . S
C1572 H1563 0.950 . S
C1572 C1571 1.398 . S
C1572 C1573 1.391 . S
C1573 H1561 0.950 . S
C1573 C1569 1.393 . S
C1573 C1572 1.391 . S
C1574 H1564 0.950 . S
C1574 C1575 1.386 . S
C1574 C1576 1.391 . S
C1575 C1574 1.386 . S
C1575 C1579 1.393 . S
C1576 H1565 0.950 . S
C1576 C1574 1.391 . S
C1576 C1577 1.400 . S
C1577 C1571 1.491 . S
C1577 C1576 1.400 . S
C1577 C1578 1.398 . S
C1578 H1566 0.950 . S
C1578 C1577 1.398 . S
C1578 C1579 1.391 . S
C1579 H1567 0.950 . S
C1579 C1575 1.393 . S
C1579 C1578 1.391 . S
H1580 C1588 0.950 . S
H1581 C1593 0.950 . S
H1582 C1590 0.950 . S
H1583 C1592 0.950 . S
H1584 C1594 0.950 . S
H1585 C1596 0.950 . S
H1586 C1598 0.950 . S
H1587 C1599 0.950 . S
C1588 H1580 0.950 . S
C1588 C1589 1.386 . S
C1588 C1590 1.391 . S
C1589 C1588 1.386 . S
C1589 C1593 1.393 . S
C1590 H1582 0.950 . S
C1590 C1588 1.391 . S
C1590 C1591 1.400 . S
C1591 C1590 1.400 . S
C1591 C1592 1.398 . S
C1591 C1597 1.491 . S
C1592 H1583 0.950 . S
C1592 C1591 1.398 . S
C1592 C1593 1.391 . S
C1593 H1581 0.950 . S
C1593 C1589 1.393 . S
C1593 C1592 1.391 . S
C1594 H1584 0.950 . S
C1594 C1595 1.386 . S
C1594 C1596 1.391 . S
C1595 C1594 1.386 . S
C1595 C1599 1.393 . S
C1596 H1585 0.950 . S
C1596 C1594 1.391 . S
C1596 C1597 1.400 . S
C1597 C1591 1.491 . S
C1597 C1596 1.400 . S
C1597 C1598 1.398 . S
C1598 H1586 0.950 . S
C1598 C1597 1.398 . S
C1598 C1599 1.391 . S
C1599 H1587 0.950 . S
C1599 C1595 1.393 . S
C1599 C1598 1.391 . S
C649 C9 2.018 . S
C655 C295 2.046 . S
C669 C49 2.030 . S
C675 C175 2.030 . S
C689 C209 2.670 . S
C695 C89 2.699 . S
C709 C129 2.667 . S
C715 C249 2.653 . S
C729 C445 0.577 . S
C735 C179 0.592 . S
C749 C325 0.865 . S
C755 C5 0.899 . S
C769 C405 0.900 . S
C775 C245 0.872 . S
C789 C85 0.611 . S
C795 C379 0.554 . S
C809 C375 2.035 . S
C815 C489 2.029 . S
C829 C409 2.026 . S
C835 C575 2.030 . S
C849 C529 2.711 1_556 S
C855 C329 2.668 . S
C869 C449 2.672 . S
C875 C609 2.641 . S
C889 C579 0.573 . S
C895 C125 0.608 . S
C909 C485 0.866 . S
C915 C205 0.874 . S
C929 C45 0.907 . S
C935 C605 0.872 . S
C949 C299 0.521 . S
C955 C525 0.605 . S
C969 C528 0.762 . S
C975 C8 0.767 . S
C989 C448 0.792 . S
C995 C48 0.779 . S
C1009 C488 0.774 . S
C1015 C88 0.746 . S
C1029 C408 0.792 . S
C1035 C128 0.775 . S
C1049 C178 0.601 . S
C1055 C608 0.453 . S
C1069 C378 0.546 . S
C1075 C208 0.454 . S
C1089 C248 0.483 . S
C1095 C578 0.537 . S
C1109 C298 0.627 . S
C1115 C328 0.416 . S
C1129 C18 1.867 . S
C1135 C168 1.895 1_455 S
C1149 C58 1.791 . S
C1155 C218 1.706 . S
C1169 C258 1.266 . S
C1175 C98 1.336 . S
C1189 C138 1.492 . S
C1195 C288 1.482 . S
C1209 C418 1.774 . S
C1215 C338 1.727 . S
C1229 C458 1.470 . S
C1235 C368 1.459 . S
C1249 C498 1.872 . S
C1255 C568 1.900 . S
C1269 C618 1.271 . S
C1275 C538 1.335 . S
C1289 C15 1.061 . S
C1295 C289 1.085 . S
C1309 C55 1.034 . S
C1315 C169 1.077 . S
C1329 C215 0.454 . S
C1335 C95 0.508 . S
C1349 C255 0.501 . S
C1355 C135 0.568 . S
C1369 C459 2.870 . S
C1375 C165 2.810 . S
C1389 C339 3.588 . S
C1395 C19 3.614 1_655 S
C1409 C419 3.665 1_554 S
C1415 C259 3.637 . S
C1429 C99 2.870 . S
C1435 C365 2.806 . S
C1449 C495 1.054 . S
C1455 C369 1.097 . S
C1469 C569 1.096 . S
C1475 C415 1.073 . S
C1489 C535 0.453 . S
C1495 C335 0.460 . S
C1509 C615 0.519 . S
C1515 C455 0.555 . S
C1529 C565 2.808 . S
C1535 C139 2.870 . S
C1549 C219 3.593 1_556 S
C1555 C499 3.619 . S
C1569 C59 3.665 . S
C1575 C619 3.638 . S
C1589 C539 2.870 . S
C1595 C285 2.806 . S
