# Generated by pormake.
# Topology yfz, (5)-cn, num edge types: 1
# Building blocks:
#     Node 0, Type 0, BuildingBlock: XOMCOT_clean_sbu_1, # of connection points: 5
#     Node 1, Type 0, BuildingBlock: XOMCOT_clean_sbu_1, # of connection points: 5
#     Node 2, Type 0, BuildingBlock: XOMCOT_clean_sbu_1, # of connection points: 5
#     Node 3, Type 0, BuildingBlock: XOMCOT_clean_sbu_1, # of connection points: 5
#     Node 4, Type 0, BuildingBlock: XOMCOT_clean_sbu_1, # of connection points: 5
#     Node 5, Type 0, BuildingBlock: XOMCOT_clean_sbu_1, # of connection points: 5
#     Node 6, Type 0, BuildingBlock: XOMCOT_clean_sbu_1, # of connection points: 5
#     Node 7, Type 0, BuildingBlock: XOMCOT_clean_sbu_1, # of connection points: 5
#     Edge 8, Type (0, 0), BuildingBlock: KIFKEQ_clean_linker_1, # of connection points: 2
#     Edge 9, Type (0, 0), BuildingBlock: KIFKEQ_clean_linker_1, # of connection points: 2
#     Edge 10, Type (0, 0), BuildingBlock: KIFKEQ_clean_linker_1, # of connection points: 2
#     Edge 11, Type (0, 0), BuildingBlock: KIFKEQ_clean_linker_1, # of connection points: 2
#     Edge 12, Type (0, 0), BuildingBlock: KIFKEQ_clean_linker_1, # of connection points: 2
#     Edge 13, Type (0, 0), BuildingBlock: KIFKEQ_clean_linker_1, # of connection points: 2
#     Edge 14, Type (0, 0), BuildingBlock: KIFKEQ_clean_linker_1, # of connection points: 2
#     Edge 15, Type (0, 0), BuildingBlock: KIFKEQ_clean_linker_1, # of connection points: 2
#     Edge 16, Type (0, 0), BuildingBlock: KIFKEQ_clean_linker_1, # of connection points: 2
#     Edge 17, Type (0, 0), BuildingBlock: KIFKEQ_clean_linker_1, # of connection points: 2
#     Edge 18, Type (0, 0), BuildingBlock: KIFKEQ_clean_linker_1, # of connection points: 2
#     Edge 19, Type (0, 0), BuildingBlock: KIFKEQ_clean_linker_1, # of connection points: 2
#     Edge 20, Type (0, 0), BuildingBlock: KIFKEQ_clean_linker_1, # of connection points: 2
#     Edge 21, Type (0, 0), BuildingBlock: KIFKEQ_clean_linker_1, # of connection points: 2
#     Edge 22, Type (0, 0), BuildingBlock: KIFKEQ_clean_linker_1, # of connection points: 2
#     Edge 23, Type (0, 0), BuildingBlock: KIFKEQ_clean_linker_1, # of connection points: 2
#     Edge 24, Type (0, 0), BuildingBlock: KIFKEQ_clean_linker_1, # of connection points: 2
#     Edge 25, Type (0, 0), BuildingBlock: KIFKEQ_clean_linker_1, # of connection points: 2
#     Edge 26, Type (0, 0), BuildingBlock: KIFKEQ_clean_linker_1, # of connection points: 2
#     Edge 27, Type (0, 0), BuildingBlock: KIFKEQ_clean_linker_1, # of connection points: 2
# Relax obj value: 0.148
# Max RMSD: 0.137
# Mean RMSD: 0.137
data_MOF--net-yfz--node1-XOMCOT_clean_sbu_1--edge1-KIFKEQ_clean_linker_1
_symmetry_space_group_name_H-M    P1
_symmetry_Int_Tables_number       1
_symmetry_cell_setting            triclinic
loop_
_symmetry_equiv_pos_as_xyz
'x, y, z'
_cell_length_a     53.33477
_cell_length_b     53.316707
_cell_length_c     17.648473
_cell_angle_alpha  90.003298
_cell_angle_beta   90.060073
_cell_angle_gamma 89.716067
loop_
_atom_site_label
_atom_site_type_symbol
_atom_site_fract_x
_atom_site_fract_y
_atom_site_fract_z
_atom_type_partial_charge
C0 C 0.56242 0.06363 0.25523 0.0
C1 C 0.5614 0.05937 0.17859 0.0
N2 N 0.54983 0.07906 0.14539 0.0
N3 N 0.55135 0.08578 0.2709 0.0
C4 C 0.54374 0.09473 0.20293 0.0
H5 H 0.57142 0.05173 0.29687 0.0
Co6 Co 0.55148 0.10009 0.36727 0.0
C7 C 0.52531 0.14805 0.34091 0.0
O8 O 0.50849 0.14238 0.39239 0.0
N9 N 0.55192 0.11397 0.46412 0.0
C10 C 0.55857 0.1389 0.56273 0.0
C11 C 0.56053 0.13665 0.48537 0.0
C12 C 0.5451 0.10266 0.52928 0.0
N13 N 0.54888 0.11747 0.59041 0.0
O14 O 0.51678 0.0919 0.37997 0.0
H15 H 0.56836 0.15043 0.44724 0.0
H16 H 0.53776 0.0838 0.53167 0.0
O17 O 0.54286 0.13253 0.32552 0.0
C18 C 0.51165 0.06878 0.38794 0.0
O19 O 0.52986 0.05215 0.38563 0.0
N20 N 0.58574 0.10675 0.35627 0.0
C21 C 0.63743 0.11024 0.33776 0.0
C22 C 0.62111 0.12177 0.28604 0.0
C23 C 0.59523 0.11996 0.29659 0.0
C24 C 0.60139 0.09541 0.40706 0.0
C25 C 0.62737 0.09728 0.39957 0.0
H26 H 0.58289 0.12833 0.25508 0.0
H27 H 0.59365 0.08438 0.45276 0.0
H28 H 0.53514 0.11297 0.19534 0.0
H29 H 0.56909 0.04319 0.14967 0.0
H30 H 0.56474 0.15473 0.59617 0.0
H31 H 0.62831 0.13179 0.23736 0.0
H32 H 0.63948 0.08784 0.43993 0.0
C33 C 0.41985 0.55694 0.72908 0.0
C34 C 0.42414 0.5553 0.65258 0.0
N35 N 0.40379 0.54519 0.61951 0.0
N36 N 0.39684 0.54798 0.74475 0.0
C37 C 0.38764 0.54045 0.67683 0.0
H38 H 0.43204 0.56569 0.77022 0.0
Co39 Co 0.38217 0.55189 0.84083 0.0
C40 C 0.32909 0.55514 0.7783 0.0
O41 O 0.328 0.57969 0.77899 0.0
N42 N 0.36803 0.55523 0.93821 0.0
C43 C 0.34391 0.56596 0.03585 0.0
C44 C 0.34619 0.56629 0.95836 0.0
C45 C 0.37857 0.54811 1.00476 0.0
N46 N 0.36429 0.55453 0.06506 0.0
O47 O 0.38744 0.5169 0.86096 0.0
H48 H 0.3331 0.57505 0.92 0.0
H49 H 0.39685 0.53932 1.0091 0.0
O50 O 0.34871 0.54348 0.80105 0.0
C51 C 0.41009 0.51026 0.87224 0.0
O52 O 0.42784 0.52717 0.86855 0.0
N53 N 0.37895 0.58728 0.82274 0.0
C54 C 0.3785 0.63936 0.80122 0.0
C55 C 0.37329 0.62309 0.74109 0.0
C56 C 0.37393 0.59721 0.75271 0.0
C57 C 0.38575 0.60299 0.88044 0.0
C58 C 0.385 0.62903 0.87152 0.0
H59 H 0.36942 0.58528 0.70538 0.0
H60 H 0.39214 0.59547 0.93393 0.0
H61 H 0.36867 0.53389 0.66847 0.0
H62 H 0.44045 0.56229 0.62299 0.0
H63 H 0.32862 0.57392 0.06837 0.0
H64 H 0.36836 0.63029 0.68561 0.0
H65 H 0.39006 0.64097 0.91873 0.0
C66 C 0.92015 0.41613 0.23684 0.0
C67 C 0.92306 0.41919 0.16006 0.0
N68 N 0.93301 0.39796 0.13136 0.0
N69 N 0.92845 0.39316 0.25696 0.0
C70 C 0.93626 0.38254 0.19147 0.0
H71 H 0.91123 0.42927 0.27509 0.0
Co72 Co 0.92398 0.37959 0.35343 0.0
C73 C 0.94654 0.3294 0.33922 0.0
O74 O 0.96044 0.33341 0.39948 0.0
N75 N 0.91908 0.36638 0.45016 0.0
C76 C 0.90706 0.34227 0.54581 0.0
C77 C 0.90693 0.3451 0.46845 0.0
C78 C 0.9262 0.3763 0.51718 0.0
N79 N 0.91918 0.36193 0.57663 0.0
O80 O 0.95862 0.38503 0.37704 0.0
H81 H 0.89846 0.33245 0.42801 0.0
H82 H 0.93591 0.39399 0.52214 0.0
O83 O 0.93156 0.3464 0.31557 0.0
C84 C 0.96542 0.40767 0.38604 0.0
O85 O 0.94896 0.42577 0.37649 0.0
N86 N 0.88993 0.37562 0.3318 0.0
C87 C 0.83868 0.37532 0.30117 0.0
C88 C 0.85533 0.361 0.25723 0.0
C89 C 0.88097 0.36137 0.27353 0.0
C90 C 0.87407 0.38983 0.3746 0.0
C91 C 0.84831 0.38974 0.36083 0.0
H92 H 0.89361 0.35069 0.23808 0.0
H93 H 0.88156 0.40154 0.41919 0.0
H94 H 0.94318 0.3635 0.18727 0.0
H95 H 0.91672 0.43518 0.12729 0.0
H96 H 0.899 0.32675 0.5767 0.0
H97 H 0.84861 0.34964 0.21063 0.0
H98 H 0.83613 0.40138 0.39525 0.0
C99 C 0.06059 0.91291 0.75072 0.0
C100 C 0.05742 0.91596 0.67401 0.0
N101 N 0.07835 0.92641 0.6456 0.0
N102 N 0.0833 0.9216 0.77101 0.0
C103 C 0.09369 0.92976 0.70575 0.0
H104 H 0.04768 0.90372 0.78879 0.0
Co105 Co 0.09671 0.91781 0.86777 0.0
C106 C 0.14534 0.9427 0.86039 0.0
O107 O 0.13981 0.95489 0.92292 0.0
N108 N 0.10978 0.91348 0.96515 0.0
C109 C 0.13421 0.90196 0.06102 0.0
C110 C 0.13137 0.90167 0.98373 0.0
C111 C 0.09967 0.92051 0.03202 0.0
N112 N 0.11423 0.91378 0.09155 0.0
O113 O 0.08875 0.95214 0.89043 0.0
H114 H 0.14427 0.89342 0.94348 0.0
H115 H 0.08174 0.92992 0.03688 0.0
O116 O 0.12966 0.92743 0.83157 0.0
C117 C 0.06561 0.95679 0.90117 0.0
O118 O 0.04937 0.93841 0.89722 0.0
N119 N 0.10296 0.88407 0.8465 0.0
C120 C 0.107 0.83278 0.81897 0.0
C121 C 0.12067 0.84998 0.77548 0.0
C122 C 0.11842 0.87566 0.79023 0.0
C123 C 0.08923 0.86768 0.88836 0.0
C124 C 0.09118 0.84191 0.87617 0.0
H125 H 0.12871 0.88873 0.75548 0.0
H126 H 0.07655 0.87473 0.93125 0.0
H127 H 0.1125 0.93711 0.70178 0.0
H128 H 0.0416 0.90946 0.64109 0.0
H129 H 0.14994 0.89422 0.09206 0.0
H130 H 0.13302 0.84363 0.73063 0.0
H131 H 0.07994 0.82929 0.90998 0.0
C132 C 0.56666 0.41467 0.2629 0.0
C133 C 0.56431 0.41924 0.33904 0.0
N134 N 0.55618 0.39817 0.37291 0.0
N135 N 0.56006 0.3908 0.24814 0.0
C136 C 0.55327 0.38127 0.31631 0.0
H137 H 0.57425 0.42747 0.22138 0.0
Co138 Co 0.56542 0.37633 0.15236 0.0
C139 C 0.57493 0.3235 0.20951 0.0
O140 O 0.59923 0.32514 0.19957 0.0
N141 N 0.57013 0.36267 0.05424 0.0
C142 C 0.58274 0.34057 0.95404 0.0
C143 C 0.58312 0.34215 0.03159 0.0
C144 C 0.5619 0.37311 0.98862 0.0
N145 N 0.5694 0.36004 0.92695 0.0
O146 O 0.53008 0.37818 0.13202 0.0
H147 H 0.59329 0.32951 0.06762 0.0
H148 H 0.55152 0.39058 0.98589 0.0
O149 O 0.56061 0.34217 0.1938 0.0
C150 C 0.5218 0.40023 0.11961 0.0
O151 O 0.53739 0.41918 0.12203 0.0
N152 N 0.60078 0.37657 0.17096 0.0
C153 C 0.65251 0.38048 0.19481 0.0
C154 C 0.63654 0.37349 0.2539 0.0
C155 C 0.6108 0.37192 0.24111 0.0
C156 C 0.61601 0.38501 0.11424 0.0
C157 C 0.64197 0.38649 0.12436 0.0
H158 H 0.59913 0.36581 0.28732 0.0
H159 H 0.60814 0.39085 0.06062 0.0
H160 H 0.54856 0.36178 0.32539 0.0
H161 H 0.56948 0.43638 0.36787 0.0
H162 H 0.592 0.3264 0.92 0.0
H163 H 0.64391 0.36871 0.30929 0.0
H164 H 0.65364 0.39273 0.0779 0.0
C165 C 0.06232 0.56286 0.80894 0.0
C166 C 0.05871 0.55909 0.88522 0.0
N167 N 0.0796 0.54845 0.91393 0.0
N168 N 0.08532 0.5545 0.78938 0.0
C169 C 0.09534 0.54559 0.85455 0.0
H170 H 0.04944 0.57215 0.77061 0.0
Co171 Co 0.09928 0.55824 0.69273 0.0
C172 C 0.15267 0.56074 0.75288 0.0
O173 O 0.15401 0.58526 0.75129 0.0
N174 N 0.11275 0.56114 0.59492 0.0
C175 C 0.13764 0.56667 0.49535 0.0
C176 C 0.13558 0.56913 0.5726 0.0
C177 C 0.10116 0.5543 0.52998 0.0
N178 N 0.11598 0.55733 0.46867 0.0
O179 O 0.09387 0.52333 0.67304 0.0
H180 H 0.1499 0.57653 0.60928 0.0
H181 H 0.08233 0.54686 0.52788 0.0
O182 O 0.13288 0.54941 0.7309 0.0
C183 C 0.07128 0.51627 0.66472 0.0
O184 O 0.05308 0.53272 0.6724 0.0
N185 N 0.10281 0.59352 0.71021 0.0
C186 C 0.10409 0.64571 0.73048 0.0
C187 C 0.10921 0.62938 0.79086 0.0
C188 C 0.10814 0.60348 0.77988 0.0
C189 C 0.09612 0.60923 0.65231 0.0
C190 C 0.09718 0.63526 0.66065 0.0
H191 H 0.11245 0.59152 0.82746 0.0
H192 H 0.08964 0.60177 0.59895 0.0
H193 H 0.1142 0.53821 0.85929 0.0
H194 H 0.04262 0.56514 0.91789 0.0
H195 H 0.15368 0.57178 0.46123 0.0
H196 H 0.11379 0.63648 0.84664 0.0
H197 H 0.0927 0.64702 0.61246 0.0
C198 C 0.91443 0.06955 0.2707 0.0
C199 C 0.91988 0.06883 0.34658 0.0
N200 N 0.92434 0.09239 0.37059 0.0
N201 N 0.91559 0.0934 0.24598 0.0
C202 C 0.92164 0.10698 0.30817 0.0
H203 H 0.90854 0.0538 0.23668 0.0
Co204 Co 0.90592 0.10228 0.14806 0.0
C205 C 0.90367 0.1577 0.14545 0.0
O206 O 0.88282 0.15654 0.10613 0.0
N207 N 0.8959 0.11037 0.04605 0.0
C208 C 0.87362 0.11842 0.94151 0.0
C209 C 0.87253 0.11427 0.01796 0.0
C210 C 0.9108 0.11243 0.9839 0.0
N211 N 0.89771 0.11723 0.91971 0.0
O212 O 0.93955 0.09634 0.11431 0.0
H213 H 0.85539 0.11487 0.05014 0.0
H214 H 0.93096 0.11057 0.98525 0.0
O215 O 0.91449 0.13747 0.16709 0.0
C216 C 0.94411 0.0735 0.09833 0.0
O217 O 0.92593 0.05706 0.10277 0.0
N218 N 0.87297 0.10587 0.18429 0.0
C219 C 0.82326 0.10534 0.23456 0.0
C220 C 0.84005 0.12381 0.25979 0.0
C221 C 0.86489 0.12358 0.23467 0.0
C222 C 0.85774 0.08641 0.16527 0.0
C223 C 0.83265 0.08618 0.1876 0.0
H224 H 0.8776 0.13741 0.25704 0.0
H225 H 0.86489 0.07157 0.12936 0.0
H226 H 0.92303 0.12721 0.3083 0.0
H227 H 0.91894 0.05233 0.38215 0.0
H228 H 0.85766 0.1215 0.90468 0.0
H229 H 0.83423 0.13819 0.29939 0.0
H230 H 0.82074 0.07138 0.16649 0.0
C231 C 0.40854 0.90784 0.76161 0.0
C232 C 0.4122 0.90873 0.83851 0.0
N233 N 0.39081 0.91674 0.87114 0.0
N234 N 0.38499 0.91537 0.74528 0.0
C235 C 0.37461 0.92084 0.81338 0.0
H236 H 0.42166 0.90042 0.72057 0.0
Co237 Co 0.37119 0.91098 0.649 0.0
C238 C 0.32188 0.93432 0.65687 0.0
O239 O 0.3269 0.94593 0.59307 0.0
N240 N 0.35794 0.90586 0.5519 0.0
C241 C 0.33475 0.89151 0.4568 0.0
C242 C 0.33743 0.89231 0.53419 0.0
C243 C 0.36742 0.91312 0.48439 0.0
N244 N 0.35361 0.90463 0.42557 0.0
O245 O 0.37718 0.94553 0.62532 0.0
H246 H 0.32538 0.88325 0.57506 0.0
H247 H 0.38457 0.92368 0.47831 0.0
O248 O 0.33797 0.91951 0.68664 0.0
C249 C 0.39979 0.95155 0.61218 0.0
O250 O 0.41737 0.93427 0.6153 0.0
N251 N 0.36693 0.87705 0.67107 0.0
C252 C 0.36813 0.82584 0.70358 0.0
C253 C 0.35233 0.84216 0.74428 0.0
C254 C 0.35201 0.86779 0.72718 0.0
C255 C 0.38226 0.86156 0.63074 0.0
C256 C 0.38294 0.83589 0.64537 0.0
H257 H 0.34042 0.88021 0.76065 0.0
H258 H 0.3943 0.86932 0.58746 0.0
H259 H 0.35505 0.92564 0.82123 0.0
H260 H 0.42889 0.90268 0.86847 0.0
H261 H 0.32014 0.8819 0.42582 0.0
H262 H 0.34089 0.83538 0.79051 0.0
H263 H 0.39511 0.82409 0.61148 0.0
H264 H 0.38192 0.97659 0.48911 0.0
H265 H 0.43408 0.98206 0.67513 0.0
H266 H 0.40181 0.01288 0.42822 0.0
H267 H 0.4533 0.01869 0.61622 0.0
H268 H 0.48566 0.03077 0.3256 0.0
H269 H 0.44963 0.00945 0.3809 0.0
H270 H 0.44645 0.06496 0.55871 0.0
H271 H 0.48215 0.08688 0.50133 0.0
C272 C 0.39686 0.9863 0.51844 0.0
C273 C 0.40655 0.97679 0.5866 0.0
C274 C 0.40823 0.00694 0.48368 0.0
C275 C 0.42898 0.01859 0.51781 0.0
C276 C 0.43711 0.01031 0.5893 0.0
C277 C 0.42622 0.98933 0.62286 0.0
C278 C 0.47653 0.03897 0.3746 0.0
C279 C 0.48647 0.06039 0.40931 0.0
C280 C 0.45589 0.02687 0.40605 0.0
C281 C 0.44531 0.0356 0.474 0.0
C282 C 0.4542 0.05802 0.50597 0.0
C283 C 0.4745 0.07055 0.47316 0.0
H284 H 0.4989 0.38055 0.99549 0.0
H285 H 0.48829 0.43227 0.18058 0.0
H286 H 0.46299 0.39944 0.92918 0.0
H287 H 0.45223 0.4507 0.11592 0.0
H288 H 0.447 0.48099 0.81651 0.0
H289 H 0.46601 0.44469 0.87819 0.0
H290 H 0.40884 0.44721 0.0512 0.0
H291 H 0.38939 0.48342 0.98764 0.0
C292 C 0.48806 0.39505 0.02359 0.0
C293 C 0.49614 0.40501 0.09297 0.0
C294 C 0.46764 0.40594 0.9856 0.0
C295 C 0.45488 0.42659 0.0173 0.0
C296 C 0.46146 0.43464 0.09044 0.0
C297 C 0.48213 0.42416 0.12745 0.0
C298 C 0.43792 0.47308 0.86589 0.0
C299 C 0.41681 0.48483 0.89745 0.0
C300 C 0.4487 0.45223 0.90106 0.0
C301 C 0.43893 0.44314 0.96962 0.0
C302 C 0.41667 0.45379 0.99823 0.0
C303 C 0.4055 0.47439 0.96184 0.0
H304 H 0.99667 0.44398 0.33837 0.0
H305 H 0.98831 0.38661 0.50863 0.0
H306 H 0.03112 0.46232 0.41019 0.0
H307 H 0.02243 0.40551 0.58237 0.0
H308 H 0.09358 0.4916 0.54746 0.0
H309 H 0.07534 0.45662 0.47599 0.0
H310 H 0.01645 0.45059 0.64256 0.0
H311 H 0.0342 0.48584 0.71217 0.0
C312 C 0.00289 0.4348 0.3899 0.0
C313 C 0.99001 0.41396 0.41815 0.0
C314 C 0.02266 0.4452 0.43086 0.0
C315 C 0.0294 0.43533 0.50184 0.0
C316 C 0.01767 0.41335 0.52756 0.0
C317 C 0.99826 0.40252 0.4854 0.0
C318 C 0.07734 0.48207 0.57014 0.0
C319 C 0.06517 0.4913 0.63495 0.0
C320 C 0.06689 0.46217 0.52925 0.0
C321 C 0.04452 0.45094 0.55385 0.0
C322 C 0.03386 0.45867 0.62281 0.0
C323 C 0.04392 0.4789 0.66246 0.0
H324 H 0.97099 0.03714 0.16629 0.0
H325 H 0.97292 0.08938 0.97989 0.0
H326 H 0.00821 0.01593 0.11684 0.0
H327 H 0.00988 0.06752 0.9284 0.0
H328 H 0.07936 0.98479 0.02307 0.0
H329 H 0.05594 0.02074 0.07489 0.0
H330 H 0.00753 0.02022 0.87868 0.0
H331 H 0.03035 0.98399 0.82866 0.0
C332 C 0.9799 0.04447 0.11581 0.0
C333 C 0.96927 0.0648 0.07676 0.0
C334 C 0.00124 0.03245 0.08774 0.0
C335 C 0.01192 0.04014 0.01892 0.0
C336 C 0.00206 0.06138 0.98185 0.0
C337 C 0.98101 0.07386 0.01122 0.0
C338 C 0.0643 0.99306 0.99003 0.0
C339 C 0.05656 0.98188 0.92203 0.0
C340 C 0.0509 0.01349 0.01963 0.0
C341 C 0.03001 0.02325 0.98058 0.0
C342 C 0.02376 0.01331 0.90939 0.0
C343 C 0.03671 0.99256 0.88091 0.0
H344 H 0.55423 0.16454 0.22425 0.0
H345 H 0.50039 0.19017 0.39031 0.0
H346 H 0.56298 0.20779 0.18988 0.0
H347 H 0.50934 0.2337 0.35569 0.0
H348 H 0.60111 0.28138 0.24505 0.0
H349 H 0.58525 0.23977 0.26969 0.0
H350 H 0.50927 0.26713 0.24784 0.0
H351 H 0.52527 0.30951 0.22254 0.0
C352 C 0.54401 0.17938 0.25279 0.0
C353 C 0.52698 0.17392 0.31105 0.0
C354 C 0.54906 0.20417 0.23313 0.0
C355 C 0.53719 0.22409 0.27119 0.0
C356 C 0.51876 0.21869 0.32552 0.0
C357 C 0.5137 0.19377 0.34536 0.0
C358 C 0.58098 0.27875 0.24549 0.0
C359 C 0.56446 0.29882 0.23099 0.0
C360 C 0.57191 0.25477 0.25917 0.0
C361 C 0.54606 0.25011 0.25914 0.0
C362 C 0.52933 0.27024 0.24769 0.0
C363 C 0.53847 0.29443 0.23331 0.0
H364 H 0.17431 0.52604 0.6606 0.0
H365 H 0.18415 0.56555 0.87167 0.0
H366 H 0.21851 0.51291 0.66415 0.0
H367 H 0.22787 0.55183 0.87673 0.0
H368 H 0.30562 0.524 0.87663 0.0
H369 H 0.26074 0.514 0.87458 0.0
H370 H 0.25434 0.54751 0.65271 0.0
H371 H 0.29881 0.55816 0.6561 0.0
C372 C 0.18563 0.53085 0.70945 0.0
C373 C 0.17604 0.54674 0.76596 0.0
C374 C 0.21085 0.52343 0.71135 0.0
C375 C 0.22652 0.53133 0.77076 0.0
C376 C 0.21613 0.54518 0.83084 0.0
C377 C 0.19118 0.55312 0.8279 0.0
C378 C 0.29478 0.52813 0.82613 0.0
C379 C 0.30547 0.54173 0.76633 0.0
C380 C 0.26916 0.52254 0.82512 0.0
C381 C 0.25414 0.53 0.76352 0.0
C382 C 0.26554 0.54125 0.70043 0.0
C383 C 0.29094 0.54739 0.70232 0.0
H384 H 0.88057 0.20276 0.12633 0.0
H385 H 0.94737 0.16891 0.22116 0.0
H386 H 0.89411 0.24352 0.16939 0.0
H387 H 0.9616 0.21035 0.26225 0.0
H388 H 0.92991 0.31722 0.19818 0.0
H389 H 0.92321 0.27554 0.14645 0.0
H390 H 0.95243 0.24269 0.35261 0.0
H391 H 0.96021 0.28458 0.40287 0.0
C392 C 0.89837 0.20405 0.1556 0.0
C393 C 0.9129 0.18253 0.17018 0.0
C394 C 0.90629 0.22757 0.17982 0.0
C395 C 0.92913 0.23039 0.21862 0.0
C396 C 0.94382 0.20887 0.23297 0.0
C397 C 0.93574 0.18515 0.20913 0.0
C398 C 0.93525 0.3011 0.232 0.0
C399 C 0.94538 0.30417 0.30483 0.0
C400 C 0.93124 0.27716 0.20261 0.0
C401 C 0.93681 0.25566 0.24589 0.0
C402 C 0.94806 0.25876 0.31742 0.0
C403 C 0.95243 0.28279 0.34641 0.0
H404 H 0.27899 0.92178 0.58586 0.0
H405 H 0.30784 0.95009 0.79704 0.0
H406 H 0.23656 0.92356 0.63561 0.0
H407 H 0.26525 0.95446 0.84557 0.0
H408 H 0.18828 0.93907 0.94132 0.0
H409 H 0.23089 0.93629 0.89347 0.0
H410 H 0.20283 0.94674 0.66498 0.0
H411 H 0.16015 0.94692 0.71358 0.0
C412 C 0.27602 0.92878 0.64283 0.0
C413 C 0.29642 0.93579 0.6879 0.0
C414 C 0.25164 0.93013 0.67136 0.0
C415 C 0.247 0.93942 0.74489 0.0
C416 C 0.26775 0.94668 0.78948 0.0
C417 C 0.29223 0.94444 0.76167 0.0
C418 C 0.19142 0.94084 0.8809 0.0
C419 C 0.17111 0.94327 0.83099 0.0
C420 C 0.21591 0.93943 0.85316 0.0
C421 C 0.22076 0.94127 0.77482 0.0
C422 C 0.20016 0.94449 0.72533 0.0
C423 C 0.17561 0.94495 0.75303 0.0
H424 H 0.40987 0.79565 0.70315 0.0
H425 H 0.33018 0.79429 0.74776 0.0
H426 H 0.41242 0.75085 0.72851 0.0
H427 H 0.33304 0.74946 0.77547 0.0
H428 H 0.35605 0.67438 0.892 0.0
H429 H 0.35352 0.71979 0.87168 0.0
H430 H 0.39594 0.71169 0.66477 0.0
H431 H 0.39853 0.66643 0.68518 0.0
C432 C 0.39284 0.78583 0.71787 0.0
C433 C 0.36974 0.79863 0.72245 0.0
C434 C 0.39437 0.76015 0.73278 0.0
C435 C 0.37292 0.74667 0.75359 0.0
C436 C 0.34992 0.75946 0.76012 0.0
C437 C 0.34832 0.78515 0.74438 0.0
C438 C 0.36495 0.68238 0.8425 0.0
C439 C 0.37747 0.66691 0.79011 0.0
C440 C 0.36333 0.70828 0.83058 0.0
C441 C 0.37453 0.71923 0.76666 0.0
C442 C 0.38729 0.70378 0.71481 0.0
C443 C 0.38862 0.67788 0.72619 0.0
H444 H 0.7998 0.37099 0.40047 0.0
H445 H 0.81624 0.38089 0.16298 0.0
H446 H 0.75505 0.37262 0.37285 0.0
H447 H 0.77147 0.38332 0.13517 0.0
H448 H 0.68916 0.36088 0.10431 0.0
H449 H 0.73417 0.35937 0.12891 0.0
H450 H 0.72279 0.40076 0.3369 0.0
H451 H 0.67779 0.40148 0.31312 0.0
C452 C 0.79379 0.37371 0.34239 0.0
C453 C 0.81147 0.3758 0.28389 0.0
C454 C 0.76814 0.37479 0.32649 0.0
C455 C 0.75956 0.37827 0.25175 0.0
C456 C 0.77733 0.38025 0.1932 0.0
C457 C 0.803 0.37891 0.20907 0.0
C458 C 0.69638 0.36983 0.15487 0.0
C459 C 0.68 0.38118 0.20699 0.0
C460 C 0.72218 0.36902 0.169 0.0
C461 C 0.73219 0.37979 0.23522 0.0
C462 C 0.71576 0.39174 0.28624 0.0
C463 C 0.68997 0.3923 0.27249 0.0
H464 H 0.10461 0.8089 0.68214 0.0
H465 H 0.1127 0.79506 0.92201 0.0
H466 H 0.10505 0.76367 0.65832 0.0
H467 H 0.11296 0.74991 0.89831 0.0
H468 H 0.13819 0.67209 0.81479 0.0
H469 H 0.14008 0.71729 0.8346 0.0
H470 H 0.07605 0.72745 0.68783 0.0
H471 H 0.07359 0.6822 0.6695 0.0
C472 C 0.10672 0.79619 0.72961 0.0
C473 C 0.10859 0.80546 0.80392 0.0
C474 C 0.10675 0.77034 0.71607 0.0
C475 C 0.10898 0.7533 0.77649 0.0
C476 C 0.1114 0.76261 0.85061 0.0
C477 C 0.11107 0.78842 0.86421 0.0
C478 C 0.12431 0.68388 0.78732 0.0
C479 C 0.10565 0.67339 0.74078 0.0
C480 C 0.1255 0.70979 0.79846 0.0
C481 C 0.10822 0.72587 0.76273 0.0
C482 C 0.08981 0.71552 0.7153 0.0
C483 C 0.08846 0.68957 0.70472 0.0
H484 H 0.79367 0.14693 0.26083 0.0
H485 H 0.79092 0.06577 0.25708 0.0
H486 H 0.74907 0.1483 0.29098 0.0
H487 H 0.746 0.06762 0.28192 0.0
H488 H 0.66229 0.09315 0.21394 0.0
H489 H 0.70778 0.09174 0.19356 0.0
H490 H 0.71952 0.12661 0.41123 0.0
H491 H 0.67395 0.1273 0.43277 0.0
C492 C 0.7838 0.12937 0.26708 0.0
C493 C 0.79617 0.10622 0.25603 0.0
C494 C 0.75819 0.13025 0.2838 0.0
C495 C 0.74428 0.10808 0.28821 0.0
C496 C 0.75642 0.08496 0.27803 0.0
C497 C 0.78214 0.084 0.26309 0.0
C498 C 0.67463 0.10055 0.25722 0.0
C499 C 0.66478 0.11038 0.32478 0.0
C500 C 0.70053 0.09963 0.24576 0.0
C501 C 0.71694 0.10905 0.30094 0.0
C502 C 0.70712 0.11929 0.36798 0.0
C503 C 0.6812 0.11965 0.38027 0.0
H504 H 0.54959 0.07104 0.6537 0.0
H505 H 0.54025 0.14963 0.70656 0.0
H506 H 0.54671 0.06084 0.78797 0.0
H507 H 0.53825 0.1395 0.84106 0.0
H508 H 0.51645 0.11016 0.07535 0.0
H509 H 0.51329 0.11878 0.93972 0.0
H510 H 0.57405 0.06683 0.89732 0.0
H511 H 0.57738 0.0584 0.03181 0.0
C512 C 0.54665 0.08613 0.69375 0.0
C513 C 0.54537 0.11119 0.66923 0.0
C514 C 0.54526 0.0803 0.77087 0.0
C515 C 0.54247 0.09937 0.82533 0.0
C516 C 0.54025 0.12434 0.80063 0.0
C517 C 0.54171 0.13018 0.72354 0.0
C518 C 0.52916 0.10062 0.03717 0.0
C519 C 0.54713 0.08353 0.06499 0.0
C520 C 0.52732 0.10554 0.95938 0.0
C521 C 0.54335 0.09341 0.90764 0.0
C522 C 0.56107 0.07613 0.93537 0.0
C523 C 0.56296 0.07129 0.01288 0.0
H524 H 0.37844 0.50985 0.53987 0.0
H525 H 0.41693 0.58044 0.51782 0.0
H526 H 0.36925 0.51042 0.40287 0.0
H527 H 0.40758 0.58116 0.38258 0.0
H528 H 0.35449 0.58804 0.17549 0.0
H529 H 0.36412 0.58413 0.31024 0.0
H530 H 0.39694 0.5112 0.27039 0.0
H531 H 0.38752 0.51531 0.13418 0.0
C532 C 0.38495 0.52538 0.50574 0.0
C533 C 0.39855 0.54499 0.53931 0.0
C534 C 0.37985 0.52564 0.4276 0.0
C535 C 0.38776 0.54583 0.38234 0.0
C536 C 0.40126 0.56539 0.41614 0.0
C537 C 0.40674 0.56489 0.49346 0.0
C538 C 0.36364 0.57111 0.19545 0.0
C539 C 0.37024 0.55197 0.14441 0.0
C540 C 0.36924 0.56893 0.27246 0.0
C541 C 0.38121 0.54735 0.30065 0.0
C542 C 0.38756 0.52796 0.25004 0.0
C543 C 0.38237 0.53038 0.17233 0.0
H544 H 0.94223 0.43005 0.01598 0.0
H545 H 0.92867 0.35203 0.06627 0.0
H546 H 0.94086 0.42075 0.88064 0.0
H547 H 0.92804 0.3426 0.93118 0.0
H548 H 0.89196 0.34403 0.6944 0.0
H549 H 0.89856 0.35177 0.82841 0.0
H550 H 0.96197 0.39866 0.77566 0.0
H551 H 0.95554 0.3907 0.64074 0.0
C552 C 0.93925 0.41087 0.99814 0.0
C553 C 0.93537 0.39185 0.05201 0.0
C554 C 0.93869 0.4055 0.92059 0.0
C555 C 0.93413 0.38097 0.89508 0.0
C556 C 0.93125 0.36176 0.94898 0.0
C557 C 0.93191 0.36712 0.02652 0.0
C558 C 0.90755 0.35571 0.71102 0.0
C559 C 0.92323 0.36666 0.65633 0.0
C560 C 0.91135 0.36013 0.78813 0.0
C561 C 0.93089 0.3757 0.81285 0.0
C562 C 0.94661 0.38672 0.75841 0.0
C563 C 0.94286 0.38222 0.68103 0.0
H564 H 0.08472 0.94985 0.15524 0.0
H565 H 0.1327 0.88678 0.20935 0.0
H566 H 0.07673 0.95629 0.29018 0.0
H567 H 0.12495 0.89339 0.34328 0.0
H568 H 0.12434 0.92341 0.58044 0.0
H569 H 0.13367 0.92334 0.44534 0.0
H570 H 0.05513 0.93459 0.39528 0.0
H571 H 0.0459 0.93543 0.53067 0.0
C572 C 0.09349 0.9373 0.19564 0.0
C573 C 0.10942 0.91782 0.17114 0.0
C574 C 0.08897 0.94105 0.27298 0.0
C575 C 0.10037 0.92548 0.32746 0.0
C576 C 0.1163 0.90607 0.30291 0.0
C577 C 0.12074 0.90226 0.22587 0.0
C578 C 0.10913 0.92644 0.54081 0.0
C579 C 0.08432 0.92924 0.56639 0.0
C580 C 0.11444 0.92611 0.46329 0.0
C581 C 0.0951 0.92866 0.40958 0.0
C582 C 0.07047 0.93267 0.43517 0.0
C583 C 0.06514 0.93291 0.51271 0.0
H584 H 0.52391 0.36904 0.4526 0.0
H585 H 0.58891 0.41632 0.4754 0.0
H586 H 0.52515 0.36057 0.58996 0.0
H587 H 0.59026 0.40776 0.61091 0.0
H588 H 0.6038 0.35516 0.81655 0.0
H589 H 0.59866 0.36472 0.6822 0.0
H590 H 0.52243 0.3885 0.72319 0.0
H591 H 0.52777 0.37917 0.85919 0.0
C592 C 0.53832 0.37765 0.48695 0.0
C593 C 0.55619 0.39345 0.45341 0.0
C594 C 0.53894 0.37298 0.5653 0.0
C595 C 0.55779 0.38358 0.61081 0.0
C596 C 0.57554 0.39937 0.57714 0.0
C597 C 0.57465 0.40437 0.49961 0.0
C598 C 0.58592 0.36236 0.79694 0.0
C599 C 0.56617 0.3664 0.84816 0.0
C600 C 0.58301 0.36791 0.72017 0.0
C601 C 0.56014 0.37726 0.69241 0.0
C602 C 0.5402 0.38115 0.74326 0.0
C603 C 0.5433 0.37604 0.82082 0.0
H604 H 0.12404 0.55672 0.98287 0.0
H605 H 0.04786 0.53386 0.02439 0.0
H606 H 0.13244 0.55634 0.11828 0.0
H607 H 0.05634 0.53237 0.16035 0.0
H608 H 0.07134 0.56409 0.39865 0.0
H609 H 0.0625 0.55912 0.26381 0.0
H610 H 0.13847 0.53292 0.22807 0.0
H611 H 0.14734 0.53907 0.36221 0.0
C612 C 0.10927 0.55096 0.02105 0.0
C613 C 0.0853 0.54532 0.99317 0.0
C614 C 0.11406 0.55069 0.09894 0.0
C615 C 0.09507 0.54439 0.15095 0.0
C616 C 0.07131 0.53783 0.12249 0.0
C617 C 0.06645 0.53849 0.04458 0.0
C618 C 0.08599 0.55704 0.36183 0.0
C619 C 0.11007 0.55222 0.39057 0.0
C620 C 0.08096 0.55406 0.28448 0.0
C621 C 0.09982 0.54578 0.23431 0.0
C622 C 0.12363 0.53996 0.26419 0.0
C623 C 0.12873 0.54335 0.34117 0.0
H624 H 0.942 0.06422 0.48698 0.0
H625 H 0.91339 0.138 0.43276 0.0
H626 H 0.93966 0.07394 0.62078 0.0
H627 H 0.91266 0.14843 0.56704 0.0
H628 H 0.87543 0.14099 0.80156 0.0
H629 H 0.88671 0.13812 0.66913 0.0
H630 H 0.95303 0.09556 0.72908 0.0
H631 H 0.94071 0.09708 0.86197 0.0
C632 C 0.93555 0.08269 0.50348 0.0
C633 C 0.92726 0.10004 0.44873 0.0
C634 C 0.93459 0.08845 0.58063 0.0
C635 C 0.92562 0.1119 0.60539 0.0
C636 C 0.9191 0.12995 0.55036 0.0
C637 C 0.91982 0.12408 0.473 0.0
C638 C 0.89241 0.13097 0.78676 0.0
C639 C 0.9068 0.11878 0.84268 0.0
C640 C 0.89916 0.12967 0.71045 0.0
C641 C 0.92071 0.11638 0.68768 0.0
C642 C 0.93602 0.10553 0.74412 0.0
C643 C 0.92911 0.10665 0.82067 0.0
H644 H 0.37245 0.94543 0.35434 0.0
H645 H 0.34618 0.87005 0.31656 0.0
H646 H 0.38081 0.94983 0.21788 0.0
H647 H 0.35476 0.8743 0.18125 0.0
H648 H 0.40658 0.88216 0.97198 0.0
H649 H 0.39722 0.88049 0.10714 0.0
H650 H 0.35309 0.94823 0.08738 0.0
H651 H 0.3623 0.94972 0.95062 0.0
C652 C 0.36854 0.92985 0.31687 0.0
C653 C 0.35866 0.90741 0.34585 0.0
C654 C 0.37311 0.93242 0.23902 0.0
C655 C 0.36839 0.9124 0.18929 0.0
C656 C 0.35859 0.89 0.21843 0.0
C657 C 0.35359 0.88761 0.29571 0.0
C658 C 0.39505 0.89681 0.99648 0.0
C659 C 0.38526 0.91616 0.95098 0.0
C660 C 0.38957 0.89576 0.07368 0.0
C661 C 0.37448 0.91424 0.10754 0.0
C662 C 0.36489 0.93384 0.06253 0.0
C663 C 0.37 0.93462 0.98457 0.0
loop_
_geom_bond_atom_site_label_1
_geom_bond_atom_site_label_2
_geom_bond_distance
_geom_bond_site_symmetry_2
_ccdc_geom_bond_type
C0 C1 1.351 . S
C0 N3 1.368 . S
C0 H5 0.931 . S
C1 C0 1.351 . S
C1 N2 1.373 . S
C1 H29 0.930 . S
N2 C1 1.373 . S
N2 C4 1.340 . S
N3 C0 1.368 . S
N3 C4 1.321 . S
N3 Co6 2.135 . S
C4 N2 1.340 . S
C4 N3 1.321 . S
C4 H28 0.930 . S
H5 C0 0.931 . S
Co6 N3 2.135 . S
Co6 N9 2.121 . S
Co6 O14 2.055 . S
Co6 O17 2.039 . S
Co6 N20 2.140 . S
C7 O8 1.227 . S
C7 O17 1.265 . S
O8 C7 1.227 . S
N9 Co6 2.121 . S
N9 C11 1.375 . S
N9 C12 1.313 . S
C10 C11 1.338 . S
C10 N13 1.377 . S
C10 H30 0.930 . S
C11 N9 1.375 . S
C11 C10 1.338 . S
C11 H15 0.931 . S
C12 N9 1.313 . S
C12 N13 1.344 . S
C12 H16 0.930 . S
N13 C10 1.377 . S
N13 C12 1.344 . S
O14 Co6 2.055 . S
O14 C18 1.253 . S
H15 C11 0.931 . S
H16 C12 0.930 . S
O17 Co6 2.039 . S
O17 C7 1.265 . S
C18 O14 1.253 . S
C18 O19 1.227 . S
O19 C18 1.227 . S
N20 Co6 2.140 . S
N20 C23 1.346 . S
N20 C24 1.345 . S
C21 C22 1.387 . S
C21 C25 1.391 . S
C22 C21 1.387 . S
C22 C23 1.369 . S
C22 H31 0.929 . S
C23 N20 1.346 . S
C23 C22 1.369 . S
C23 H26 0.928 . S
C24 N20 1.345 . S
C24 C25 1.371 . S
C24 H27 0.931 . S
C25 C21 1.391 . S
C25 C24 1.371 . S
C25 H32 0.930 . S
H26 C23 0.928 . S
H27 C24 0.931 . S
H28 C4 0.930 . S
H29 C1 0.930 . S
H30 C10 0.930 . S
H31 C22 0.929 . S
H32 C25 0.930 . S
C33 C34 1.351 . S
C33 N36 1.368 . S
C33 H38 0.931 . S
C34 C33 1.351 . S
C34 N35 1.373 . S
C34 H62 0.930 . S
N35 C34 1.373 . S
N35 C37 1.340 . S
N36 C33 1.368 . S
N36 C37 1.321 . S
N36 Co39 2.135 . S
C37 N35 1.340 . S
C37 N36 1.321 . S
C37 H61 0.930 . S
H38 C33 0.931 . S
Co39 N36 2.135 . S
Co39 N42 2.121 . S
Co39 O47 2.055 . S
Co39 O50 2.039 . S
Co39 N53 2.140 . S
C40 O41 1.227 . S
C40 O50 1.265 . S
O41 C40 1.227 . S
N42 Co39 2.121 . S
N42 C44 1.375 . S
N42 C45 1.313 . S
C43 C44 1.338 1_554 S
C43 N46 1.377 . S
C43 H63 0.930 . S
C44 N42 1.375 . S
C44 C43 1.338 1_556 S
C44 H48 0.931 . S
C45 N42 1.313 . S
C45 N46 1.344 1_556 S
C45 H49 0.930 . S
N46 C43 1.377 . S
N46 C45 1.344 1_554 S
O47 Co39 2.055 . S
O47 C51 1.253 . S
H48 C44 0.931 . S
H49 C45 0.930 . S
O50 Co39 2.039 . S
O50 C40 1.265 . S
C51 O47 1.253 . S
C51 O52 1.227 . S
O52 C51 1.227 . S
N53 Co39 2.140 . S
N53 C56 1.346 . S
N53 C57 1.345 . S
C54 C55 1.387 . S
C54 C58 1.391 . S
C55 C54 1.387 . S
C55 C56 1.369 . S
C55 H64 0.929 . S
C56 N53 1.346 . S
C56 C55 1.369 . S
C56 H59 0.928 . S
C57 N53 1.345 . S
C57 C58 1.371 . S
C57 H60 0.931 . S
C58 C54 1.391 . S
C58 C57 1.371 . S
C58 H65 0.930 . S
H59 C56 0.928 . S
H60 C57 0.931 . S
H61 C37 0.930 . S
H62 C34 0.930 . S
H63 C43 0.930 . S
H64 C55 0.929 . S
H65 C58 0.930 . S
C66 C67 1.351 . S
C66 N69 1.368 . S
C66 H71 0.931 . S
C67 C66 1.351 . S
C67 N68 1.373 . S
C67 H95 0.930 . S
N68 C67 1.373 . S
N68 C70 1.340 . S
N69 C66 1.368 . S
N69 C70 1.321 . S
N69 Co72 2.135 . S
C70 N68 1.340 . S
C70 N69 1.321 . S
C70 H94 0.930 . S
H71 C66 0.931 . S
Co72 N69 2.135 . S
Co72 N75 2.121 . S
Co72 O80 2.055 . S
Co72 O83 2.039 . S
Co72 N86 2.140 . S
C73 O74 1.227 . S
C73 O83 1.265 . S
O74 C73 1.227 . S
N75 Co72 2.121 . S
N75 C77 1.375 . S
N75 C78 1.313 . S
C76 C77 1.338 . S
C76 N79 1.377 . S
C76 H96 0.930 . S
C77 N75 1.375 . S
C77 C76 1.338 . S
C77 H81 0.931 . S
C78 N75 1.313 . S
C78 N79 1.344 . S
C78 H82 0.930 . S
N79 C76 1.377 . S
N79 C78 1.344 . S
O80 Co72 2.055 . S
O80 C84 1.253 . S
H81 C77 0.931 . S
H82 C78 0.930 . S
O83 Co72 2.039 . S
O83 C73 1.265 . S
C84 O80 1.253 . S
C84 O85 1.227 . S
O85 C84 1.227 . S
N86 Co72 2.140 . S
N86 C89 1.346 . S
N86 C90 1.345 . S
C87 C88 1.387 . S
C87 C91 1.391 . S
C88 C87 1.387 . S
C88 C89 1.369 . S
C88 H97 0.929 . S
C89 N86 1.346 . S
C89 C88 1.369 . S
C89 H92 0.928 . S
C90 N86 1.345 . S
C90 C91 1.371 . S
C90 H93 0.931 . S
C91 C87 1.391 . S
C91 C90 1.371 . S
C91 H98 0.930 . S
H92 C89 0.928 . S
H93 C90 0.931 . S
H94 C70 0.930 . S
H95 C67 0.930 . S
H96 C76 0.930 . S
H97 C88 0.929 . S
H98 C91 0.930 . S
C99 C100 1.351 . S
C99 N102 1.368 . S
C99 H104 0.931 . S
C100 C99 1.351 . S
C100 N101 1.373 . S
C100 H128 0.930 . S
N101 C100 1.373 . S
N101 C103 1.340 . S
N102 C99 1.368 . S
N102 C103 1.321 . S
N102 Co105 2.135 . S
C103 N101 1.340 . S
C103 N102 1.321 . S
C103 H127 0.930 . S
H104 C99 0.931 . S
Co105 N102 2.135 . S
Co105 N108 2.121 . S
Co105 O113 2.055 . S
Co105 O116 2.039 . S
Co105 N119 2.140 . S
C106 O107 1.227 . S
C106 O116 1.265 . S
O107 C106 1.227 . S
N108 Co105 2.121 . S
N108 C110 1.375 . S
N108 C111 1.313 . S
C109 C110 1.338 1_554 S
C109 N112 1.377 . S
C109 H129 0.930 . S
C110 N108 1.375 . S
C110 C109 1.338 1_556 S
C110 H114 0.931 . S
C111 N108 1.313 . S
C111 N112 1.344 1_556 S
C111 H115 0.930 . S
N112 C109 1.377 . S
N112 C111 1.344 1_554 S
O113 Co105 2.055 . S
O113 C117 1.253 . S
H114 C110 0.931 . S
H115 C111 0.930 . S
O116 Co105 2.039 . S
O116 C106 1.265 . S
C117 O113 1.253 . S
C117 O118 1.227 . S
O118 C117 1.227 . S
N119 Co105 2.140 . S
N119 C122 1.346 . S
N119 C123 1.345 . S
C120 C121 1.387 . S
C120 C124 1.391 . S
C121 C120 1.387 . S
C121 C122 1.369 . S
C121 H130 0.929 . S
C122 N119 1.346 . S
C122 C121 1.369 . S
C122 H125 0.928 . S
C123 N119 1.345 . S
C123 C124 1.371 . S
C123 H126 0.931 . S
C124 C120 1.391 . S
C124 C123 1.371 . S
C124 H131 0.930 . S
H125 C122 0.928 . S
H126 C123 0.931 . S
H127 C103 0.930 . S
H128 C100 0.930 . S
H129 C109 0.930 . S
H130 C121 0.929 . S
H131 C124 0.930 . S
C132 C133 1.351 . S
C132 N135 1.368 . S
C132 H137 0.931 . S
C133 C132 1.351 . S
C133 N134 1.373 . S
C133 H161 0.930 . S
N134 C133 1.373 . S
N134 C136 1.340 . S
N135 C132 1.368 . S
N135 C136 1.321 . S
N135 Co138 2.135 . S
C136 N134 1.340 . S
C136 N135 1.321 . S
C136 H160 0.930 . S
H137 C132 0.931 . S
Co138 N135 2.135 . S
Co138 N141 2.121 . S
Co138 O146 2.055 . S
Co138 O149 2.039 . S
Co138 N152 2.140 . S
C139 O140 1.227 . S
C139 O149 1.265 . S
O140 C139 1.227 . S
N141 Co138 2.121 . S
N141 C143 1.375 . S
N141 C144 1.313 . S
C142 C143 1.338 1_556 S
C142 N145 1.377 . S
C142 H162 0.930 . S
C143 N141 1.375 . S
C143 C142 1.338 1_554 S
C143 H147 0.931 . S
C144 N141 1.313 . S
C144 N145 1.344 1_554 S
C144 H148 0.930 . S
N145 C142 1.377 . S
N145 C144 1.344 1_556 S
O146 Co138 2.055 . S
O146 C150 1.253 . S
H147 C143 0.931 . S
H148 C144 0.930 . S
O149 Co138 2.039 . S
O149 C139 1.265 . S
C150 O146 1.253 . S
C150 O151 1.227 . S
O151 C150 1.227 . S
N152 Co138 2.140 . S
N152 C155 1.346 . S
N152 C156 1.345 . S
C153 C154 1.387 . S
C153 C157 1.391 . S
C154 C153 1.387 . S
C154 C155 1.369 . S
C154 H163 0.929 . S
C155 N152 1.346 . S
C155 C154 1.369 . S
C155 H158 0.928 . S
C156 N152 1.345 . S
C156 C157 1.371 . S
C156 H159 0.931 . S
C157 C153 1.391 . S
C157 C156 1.371 . S
C157 H164 0.930 . S
H158 C155 0.928 . S
H159 C156 0.931 . S
H160 C136 0.930 . S
H161 C133 0.930 . S
H162 C142 0.930 . S
H163 C154 0.929 . S
H164 C157 0.930 . S
C165 C166 1.351 . S
C165 N168 1.368 . S
C165 H170 0.931 . S
C166 C165 1.351 . S
C166 N167 1.373 . S
C166 H194 0.930 . S
N167 C166 1.373 . S
N167 C169 1.340 . S
N168 C165 1.368 . S
N168 C169 1.321 . S
N168 Co171 2.135 . S
C169 N167 1.340 . S
C169 N168 1.321 . S
C169 H193 0.930 . S
H170 C165 0.931 . S
Co171 N168 2.135 . S
Co171 N174 2.121 . S
Co171 O179 2.055 . S
Co171 O182 2.039 . S
Co171 N185 2.140 . S
C172 O173 1.227 . S
C172 O182 1.265 . S
O173 C172 1.227 . S
N174 Co171 2.121 . S
N174 C176 1.375 . S
N174 C177 1.313 . S
C175 C176 1.338 . S
C175 N178 1.377 . S
C175 H195 0.930 . S
C176 N174 1.375 . S
C176 C175 1.338 . S
C176 H180 0.931 . S
C177 N174 1.313 . S
C177 N178 1.344 . S
C177 H181 0.930 . S
N178 C175 1.377 . S
N178 C177 1.344 . S
O179 Co171 2.055 . S
O179 C183 1.253 . S
H180 C176 0.931 . S
H181 C177 0.930 . S
O182 Co171 2.039 . S
O182 C172 1.265 . S
C183 O179 1.253 . S
C183 O184 1.227 . S
O184 C183 1.227 . S
N185 Co171 2.140 . S
N185 C188 1.346 . S
N185 C189 1.345 . S
C186 C187 1.387 . S
C186 C190 1.391 . S
C187 C186 1.387 . S
C187 C188 1.369 . S
C187 H196 0.929 . S
C188 N185 1.346 . S
C188 C187 1.369 . S
C188 H191 0.928 . S
C189 N185 1.345 . S
C189 C190 1.371 . S
C189 H192 0.931 . S
C190 C186 1.391 . S
C190 C189 1.371 . S
C190 H197 0.930 . S
H191 C188 0.928 . S
H192 C189 0.931 . S
H193 C169 0.930 . S
H194 C166 0.930 . S
H195 C175 0.930 . S
H196 C187 0.929 . S
H197 C190 0.930 . S
C198 C199 1.351 . S
C198 N201 1.368 . S
C198 H203 0.931 . S
C199 C198 1.351 . S
C199 N200 1.373 . S
C199 H227 0.930 . S
N200 C199 1.373 . S
N200 C202 1.340 . S
N201 C198 1.368 . S
N201 C202 1.321 . S
N201 Co204 2.135 . S
C202 N200 1.340 . S
C202 N201 1.321 . S
C202 H226 0.930 . S
H203 C198 0.931 . S
Co204 N201 2.135 . S
Co204 N207 2.121 . S
Co204 O212 2.055 . S
Co204 O215 2.039 . S
Co204 N218 2.140 . S
C205 O206 1.227 . S
C205 O215 1.265 . S
O206 C205 1.227 . S
N207 Co204 2.121 . S
N207 C209 1.375 . S
N207 C210 1.313 . S
C208 C209 1.338 1_556 S
C208 N211 1.377 . S
C208 H228 0.930 . S
C209 N207 1.375 . S
C209 C208 1.338 1_554 S
C209 H213 0.931 . S
C210 N207 1.313 . S
C210 N211 1.344 1_554 S
C210 H214 0.930 . S
N211 C208 1.377 . S
N211 C210 1.344 1_556 S
O212 Co204 2.055 . S
O212 C216 1.253 . S
H213 C209 0.931 . S
H214 C210 0.930 . S
O215 Co204 2.039 . S
O215 C205 1.265 . S
C216 O212 1.253 . S
C216 O217 1.227 . S
O217 C216 1.227 . S
N218 Co204 2.140 . S
N218 C221 1.346 . S
N218 C222 1.345 . S
C219 C220 1.387 . S
C219 C223 1.391 . S
C220 C219 1.387 . S
C220 C221 1.369 . S
C220 H229 0.929 . S
C221 N218 1.346 . S
C221 C220 1.369 . S
C221 H224 0.928 . S
C222 N218 1.345 . S
C222 C223 1.371 . S
C222 H225 0.931 . S
C223 C219 1.391 . S
C223 C222 1.371 . S
C223 H230 0.930 . S
H224 C221 0.928 . S
H225 C222 0.931 . S
H226 C202 0.930 . S
H227 C199 0.930 . S
H228 C208 0.930 . S
H229 C220 0.929 . S
H230 C223 0.930 . S
C231 C232 1.351 . S
C231 N234 1.368 . S
C231 H236 0.931 . S
C232 C231 1.351 . S
C232 N233 1.373 . S
C232 H260 0.930 . S
N233 C232 1.373 . S
N233 C235 1.340 . S
N234 C231 1.368 . S
N234 C235 1.321 . S
N234 Co237 2.135 . S
C235 N233 1.340 . S
C235 N234 1.321 . S
C235 H259 0.930 . S
H236 C231 0.931 . S
Co237 N234 2.135 . S
Co237 N240 2.121 . S
Co237 O245 2.055 . S
Co237 O248 2.039 . S
Co237 N251 2.140 . S
C238 O239 1.227 . S
C238 O248 1.265 . S
O239 C238 1.227 . S
N240 Co237 2.121 . S
N240 C242 1.375 . S
N240 C243 1.313 . S
C241 C242 1.338 . S
C241 N244 1.377 . S
C241 H261 0.930 . S
C242 N240 1.375 . S
C242 C241 1.338 . S
C242 H246 0.931 . S
C243 N240 1.313 . S
C243 N244 1.344 . S
C243 H247 0.930 . S
N244 C241 1.377 . S
N244 C243 1.344 . S
O245 Co237 2.055 . S
O245 C249 1.253 . S
H246 C242 0.931 . S
H247 C243 0.930 . S
O248 Co237 2.039 . S
O248 C238 1.265 . S
C249 O245 1.253 . S
C249 O250 1.227 . S
O250 C249 1.227 . S
N251 Co237 2.140 . S
N251 C254 1.346 . S
N251 C255 1.345 . S
C252 C253 1.387 . S
C252 C256 1.391 . S
C253 C252 1.387 . S
C253 C254 1.369 . S
C253 H262 0.929 . S
C254 N251 1.346 . S
C254 C253 1.369 . S
C254 H257 0.928 . S
C255 N251 1.345 . S
C255 C256 1.371 . S
C255 H258 0.931 . S
C256 C252 1.391 . S
C256 C255 1.371 . S
C256 H263 0.930 . S
H257 C254 0.928 . S
H258 C255 0.931 . S
H259 C235 0.930 . S
H260 C232 0.930 . S
H261 C241 0.930 . S
H262 C253 0.929 . S
H263 C256 0.930 . S
H264 C272 0.950 . S
H265 C277 0.950 . S
H266 C274 0.950 . S
H267 C276 0.950 . S
H268 C278 0.950 . S
H269 C280 0.950 . S
H270 C282 0.950 . S
H271 C283 0.950 . S
C272 H264 0.950 . S
C272 C273 1.386 . S
C272 C274 1.391 . S
C273 C272 1.386 . S
C273 C277 1.393 . S
C274 H266 0.950 . S
C274 C272 1.391 . S
C274 C275 1.400 . S
C275 C274 1.400 . S
C275 C276 1.398 . S
C275 C281 1.491 1_565 S
C276 H267 0.950 . S
C276 C275 1.398 . S
C276 C277 1.391 . S
C277 H265 0.950 . S
C277 C273 1.393 . S
C277 C276 1.391 . S
C278 H268 0.950 . S
C278 C279 1.386 . S
C278 C280 1.391 . S
C279 C278 1.386 . S
C279 C283 1.393 . S
C280 H269 0.950 . S
C280 C278 1.391 . S
C280 C281 1.400 . S
C281 C275 1.491 1_545 S
C281 C280 1.400 . S
C281 C282 1.398 . S
C282 H270 0.950 . S
C282 C281 1.398 . S
C282 C283 1.391 . S
C283 H271 0.950 . S
C283 C279 1.393 . S
C283 C282 1.391 . S
H284 C292 0.950 . S
H285 C297 0.950 . S
H286 C294 0.950 . S
H287 C296 0.950 . S
H288 C298 0.950 . S
H289 C300 0.950 . S
H290 C302 0.950 . S
H291 C303 0.950 . S
C292 H284 0.950 . S
C292 C293 1.386 . S
C292 C294 1.391 . S
C293 C292 1.386 . S
C293 C297 1.393 . S
C294 H286 0.950 . S
C294 C292 1.391 . S
C294 C295 1.400 . S
C295 C294 1.400 . S
C295 C296 1.398 . S
C295 C301 1.491 1_554 S
C296 H287 0.950 . S
C296 C295 1.398 . S
C296 C297 1.391 . S
C297 H285 0.950 . S
C297 C293 1.393 . S
C297 C296 1.391 . S
C298 H288 0.950 . S
C298 C299 1.386 . S
C298 C300 1.391 . S
C299 C298 1.386 . S
C299 C303 1.393 . S
C300 H289 0.950 . S
C300 C298 1.391 . S
C300 C301 1.400 . S
C301 C295 1.491 1_556 S
C301 C300 1.400 . S
C301 C302 1.398 . S
C302 H290 0.950 . S
C302 C301 1.398 . S
C302 C303 1.391 . S
C303 H291 0.950 . S
C303 C299 1.393 . S
C303 C302 1.391 . S
H304 C312 0.950 . S
H305 C317 0.950 . S
H306 C314 0.950 . S
H307 C316 0.950 . S
H308 C318 0.950 . S
H309 C320 0.950 . S
H310 C322 0.950 . S
H311 C323 0.950 . S
C312 H304 0.950 . S
C312 C313 1.386 . S
C312 C314 1.391 . S
C313 C312 1.386 . S
C313 C317 1.393 . S
C314 H306 0.950 . S
C314 C312 1.391 . S
C314 C315 1.400 . S
C315 C314 1.400 . S
C315 C316 1.398 1_655 S
C315 C321 1.491 1_655 S
C316 H307 0.950 . S
C316 C315 1.398 1_455 S
C316 C317 1.391 1_455 S
C317 H305 0.950 . S
C317 C313 1.393 . S
C317 C316 1.391 1_655 S
C318 H308 0.950 . S
C318 C319 1.386 . S
C318 C320 1.391 . S
C319 C318 1.386 . S
C319 C323 1.393 . S
C320 H309 0.950 . S
C320 C318 1.391 . S
C320 C321 1.400 . S
C321 C315 1.491 1_455 S
C321 C320 1.400 . S
C321 C322 1.398 1_455 S
C322 H310 0.950 . S
C322 C321 1.398 1_655 S
C322 C323 1.391 1_655 S
C323 H311 0.950 . S
C323 C319 1.393 . S
C323 C322 1.391 1_455 S
H324 C332 0.950 . S
H325 C337 0.950 . S
H326 C334 0.944 1_566 S
H327 C336 0.950 . S
H328 C338 0.950 . S
H329 C340 0.950 1_554 S
H330 C342 0.950 . S
H331 C343 0.950 . S
C332 H324 0.950 . S
C332 C333 1.386 . S
C332 C334 1.391 . S
C333 C332 1.386 . S
C333 C337 1.393 . S
C334 H326 0.944 1_544 S
C334 C332 1.391 . S
C334 C335 1.400 . S
C335 C334 1.400 . S
C335 C336 1.398 1_655 S
C335 C341 1.491 1_644 S
C336 H327 0.950 . S
C336 C335 1.398 1_455 S
C336 C337 1.391 1_455 S
C337 H325 0.950 . S
C337 C333 1.393 . S
C337 C336 1.391 1_655 S
C338 H328 0.950 . S
C338 C339 1.386 . S
C338 C340 1.391 . S
C339 C338 1.386 . S
C339 C343 1.393 . S
C340 H329 0.950 1_556 S
C340 C338 1.391 . S
C340 C341 1.400 . S
C341 C335 1.491 1_466 S
C341 C340 1.400 . S
C341 C342 1.398 1_455 S
C342 H330 0.950 . S
C342 C341 1.398 1_655 S
C342 C343 1.391 1_655 S
C343 H331 0.950 . S
C343 C339 1.393 . S
C343 C342 1.391 1_455 S
H344 C352 0.950 . S
H345 C357 0.950 . S
H346 C354 0.950 . S
H347 C356 0.950 . S
H348 C358 0.950 . S
H349 C360 0.950 . S
H350 C362 0.950 . S
H351 C363 0.950 . S
C352 H344 0.950 . S
C352 C353 1.386 . S
C352 C354 1.391 . S
C353 C352 1.386 . S
C353 C357 1.393 . S
C354 H346 0.950 . S
C354 C352 1.391 . S
C354 C355 1.400 . S
C355 C354 1.400 . S
C355 C356 1.398 . S
C355 C361 1.491 . S
C356 H347 0.950 . S
C356 C355 1.398 . S
C356 C357 1.391 . S
C357 H345 0.950 . S
C357 C353 1.393 . S
C357 C356 1.391 . S
C358 H348 0.950 . S
C358 C359 1.386 . S
C358 C360 1.391 . S
C359 C358 1.386 . S
C359 C363 1.393 . S
C360 H349 0.950 . S
C360 C358 1.391 . S
C360 C361 1.400 . S
C361 C355 1.491 . S
C361 C360 1.400 . S
C361 C362 1.398 . S
C362 H350 0.950 . S
C362 C361 1.398 . S
C362 C363 1.391 . S
C363 H351 0.950 . S
C363 C359 1.393 . S
C363 C362 1.391 . S
H364 C372 0.950 . S
H365 C377 0.950 . S
H366 C374 0.950 . S
H367 C376 0.950 . S
H368 C378 0.950 . S
H369 C380 0.950 . S
H370 C382 0.950 . S
H371 C383 0.950 . S
C372 H364 0.950 . S
C372 C373 1.386 . S
C372 C374 1.391 . S
C373 C372 1.386 . S
C373 C377 1.393 . S
C374 H366 0.950 . S
C374 C372 1.391 . S
C374 C375 1.400 . S
C375 C374 1.400 . S
C375 C376 1.398 . S
C375 C381 1.491 . S
C376 H367 0.950 . S
C376 C375 1.398 . S
C376 C377 1.391 . S
C377 H365 0.950 . S
C377 C373 1.393 . S
C377 C376 1.391 . S
C378 H368 0.950 . S
C378 C379 1.386 . S
C378 C380 1.391 . S
C379 C378 1.386 . S
C379 C383 1.393 . S
C380 H369 0.950 . S
C380 C378 1.391 . S
C380 C381 1.400 . S
C381 C375 1.491 . S
C381 C380 1.400 . S
C381 C382 1.398 . S
C382 H370 0.950 . S
C382 C381 1.398 . S
C382 C383 1.391 . S
C383 H371 0.950 . S
C383 C379 1.393 . S
C383 C382 1.391 . S
H384 C392 0.950 . S
H385 C397 0.950 . S
H386 C394 0.950 . S
H387 C396 0.950 . S
H388 C398 0.950 . S
H389 C400 0.950 . S
H390 C402 0.950 . S
H391 C403 0.950 . S
C392 H384 0.950 . S
C392 C393 1.386 . S
C392 C394 1.391 . S
C393 C392 1.386 . S
C393 C397 1.393 . S
C394 H386 0.950 . S
C394 C392 1.391 . S
C394 C395 1.400 . S
C395 C394 1.400 . S
C395 C396 1.398 . S
C395 C401 1.491 . S
C396 H387 0.950 . S
C396 C395 1.398 . S
C396 C397 1.391 . S
C397 H385 0.950 . S
C397 C393 1.393 . S
C397 C396 1.391 . S
C398 H388 0.950 . S
C398 C399 1.386 . S
C398 C400 1.391 . S
C399 C398 1.386 . S
C399 C403 1.393 . S
C400 H389 0.950 . S
C400 C398 1.391 . S
C400 C401 1.400 . S
C401 C395 1.491 . S
C401 C400 1.400 . S
C401 C402 1.398 . S
C402 H390 0.950 . S
C402 C401 1.398 . S
C402 C403 1.391 . S
C403 H391 0.950 . S
C403 C399 1.393 . S
C403 C402 1.391 . S
H404 C412 0.950 . S
H405 C417 0.950 . S
H406 C414 0.950 . S
H407 C416 0.950 . S
H408 C418 0.950 . S
H409 C420 0.950 . S
H410 C422 0.950 . S
H411 C423 0.950 . S
C412 H404 0.950 . S
C412 C413 1.386 . S
C412 C414 1.391 . S
C413 C412 1.386 . S
C413 C417 1.393 . S
C414 H406 0.950 . S
C414 C412 1.391 . S
C414 C415 1.400 . S
C415 C414 1.400 . S
C415 C416 1.398 . S
C415 C421 1.491 . S
C416 H407 0.950 . S
C416 C415 1.398 . S
C416 C417 1.391 . S
C417 H405 0.950 . S
C417 C413 1.393 . S
C417 C416 1.391 . S
C418 H408 0.950 . S
C418 C419 1.386 . S
C418 C420 1.391 . S
C419 C418 1.386 . S
C419 C423 1.393 . S
C420 H409 0.950 . S
C420 C418 1.391 . S
C420 C421 1.400 . S
C421 C415 1.491 . S
C421 C420 1.400 . S
C421 C422 1.398 . S
C422 H410 0.950 . S
C422 C421 1.398 . S
C422 C423 1.391 . S
C423 H411 0.950 . S
C423 C419 1.393 . S
C423 C422 1.391 . S
H424 C432 0.950 . S
H425 C437 0.950 . S
H426 C434 0.950 . S
H427 C436 0.950 . S
H428 C438 0.950 . S
H429 C440 0.950 . S
H430 C442 0.950 . S
H431 C443 0.950 . S
C432 H424 0.950 . S
C432 C433 1.386 . S
C432 C434 1.391 . S
C433 C432 1.386 . S
C433 C437 1.393 . S
C434 H426 0.950 . S
C434 C432 1.391 . S
C434 C435 1.400 . S
C435 C434 1.400 . S
C435 C436 1.398 . S
C435 C441 1.491 . S
C436 H427 0.950 . S
C436 C435 1.398 . S
C436 C437 1.391 . S
C437 H425 0.950 . S
C437 C433 1.393 . S
C437 C436 1.391 . S
C438 H428 0.950 . S
C438 C439 1.386 . S
C438 C440 1.391 . S
C439 C438 1.386 . S
C439 C443 1.393 . S
C440 H429 0.950 . S
C440 C438 1.391 . S
C440 C441 1.400 . S
C441 C435 1.491 . S
C441 C440 1.400 . S
C441 C442 1.398 . S
C442 H430 0.950 . S
C442 C441 1.398 . S
C442 C443 1.391 . S
C443 H431 0.950 . S
C443 C439 1.393 . S
C443 C442 1.391 . S
H444 C452 0.950 . S
H445 C457 0.950 . S
H446 C454 0.950 . S
H447 C456 0.950 . S
H448 C458 0.950 . S
H449 C460 0.950 . S
H450 C462 0.950 . S
H451 C463 0.950 . S
C452 H444 0.950 . S
C452 C453 1.386 . S
C452 C454 1.391 . S
C453 C452 1.386 . S
C453 C457 1.393 . S
C454 H446 0.950 . S
C454 C452 1.391 . S
C454 C455 1.400 . S
C455 C454 1.400 . S
C455 C456 1.398 . S
C455 C461 1.491 . S
C456 H447 0.950 . S
C456 C455 1.398 . S
C456 C457 1.391 . S
C457 H445 0.950 . S
C457 C453 1.393 . S
C457 C456 1.391 . S
C458 H448 0.950 . S
C458 C459 1.386 . S
C458 C460 1.391 . S
C459 C458 1.386 . S
C459 C463 1.393 . S
C460 H449 0.950 . S
C460 C458 1.391 . S
C460 C461 1.400 . S
C461 C455 1.491 . S
C461 C460 1.400 . S
C461 C462 1.398 . S
C462 H450 0.950 . S
C462 C461 1.398 . S
C462 C463 1.391 . S
C463 H451 0.950 . S
C463 C459 1.393 . S
C463 C462 1.391 . S
H464 C472 0.950 . S
H465 C477 0.950 . S
H466 C474 0.950 . S
H467 C476 0.950 . S
H468 C478 0.950 . S
H469 C480 0.950 . S
H470 C482 0.950 . S
H471 C483 0.950 . S
C472 H464 0.950 . S
C472 C473 1.386 . S
C472 C474 1.391 . S
C473 C472 1.386 . S
C473 C477 1.393 . S
C474 H466 0.950 . S
C474 C472 1.391 . S
C474 C475 1.400 . S
C475 C474 1.400 . S
C475 C476 1.398 . S
C475 C481 1.491 . S
C476 H467 0.950 . S
C476 C475 1.398 . S
C476 C477 1.391 . S
C477 H465 0.950 . S
C477 C473 1.393 . S
C477 C476 1.391 . S
C478 H468 0.950 . S
C478 C479 1.386 . S
C478 C480 1.391 . S
C479 C478 1.386 . S
C479 C483 1.393 . S
C480 H469 0.950 . S
C480 C478 1.391 . S
C480 C481 1.400 . S
C481 C475 1.491 . S
C481 C480 1.400 . S
C481 C482 1.398 . S
C482 H470 0.950 . S
C482 C481 1.398 . S
C482 C483 1.391 . S
C483 H471 0.950 . S
C483 C479 1.393 . S
C483 C482 1.391 . S
H484 C492 0.950 . S
H485 C497 0.950 . S
H486 C494 0.950 . S
H487 C496 0.950 . S
H488 C498 0.950 . S
H489 C500 0.950 . S
H490 C502 0.950 . S
H491 C503 0.950 . S
C492 H484 0.950 . S
C492 C493 1.386 . S
C492 C494 1.391 . S
C493 C492 1.386 . S
C493 C497 1.393 . S
C494 H486 0.950 . S
C494 C492 1.391 . S
C494 C495 1.400 . S
C495 C494 1.400 . S
C495 C496 1.398 . S
C495 C501 1.491 . S
C496 H487 0.950 . S
C496 C495 1.398 . S
C496 C497 1.391 . S
C497 H485 0.950 . S
C497 C493 1.393 . S
C497 C496 1.391 . S
C498 H488 0.950 . S
C498 C499 1.386 . S
C498 C500 1.391 . S
C499 C498 1.386 . S
C499 C503 1.393 . S
C500 H489 0.950 . S
C500 C498 1.391 . S
C500 C501 1.400 . S
C501 C495 1.491 . S
C501 C500 1.400 . S
C501 C502 1.398 . S
C502 H490 0.950 . S
C502 C501 1.398 . S
C502 C503 1.391 . S
C503 H491 0.950 . S
C503 C499 1.393 . S
C503 C502 1.391 . S
H504 C512 0.950 . S
H505 C517 0.950 . S
H506 C514 0.950 . S
H507 C516 0.950 . S
H508 C518 0.950 1_554 S
H509 C520 0.950 . S
H510 C522 0.950 . S
H511 C523 0.950 . S
C512 H504 0.950 . S
C512 C513 1.386 . S
C512 C514 1.391 . S
C513 C512 1.386 . S
C513 C517 1.393 . S
C514 H506 0.950 . S
C514 C512 1.391 . S
C514 C515 1.400 . S
C515 C514 1.400 . S
C515 C516 1.398 . S
C515 C521 1.491 . S
C516 H507 0.950 . S
C516 C515 1.398 . S
C516 C517 1.391 . S
C517 H505 0.950 . S
C517 C513 1.393 . S
C517 C516 1.391 . S
C518 H508 0.950 1_556 S
C518 C519 1.386 1_556 S
C518 C520 1.391 . S
C519 C518 1.386 1_554 S
C519 C523 1.393 1_554 S
C520 H509 0.950 . S
C520 C518 1.391 . S
C520 C521 1.400 . S
C521 C515 1.491 . S
C521 C520 1.400 . S
C521 C522 1.398 . S
C522 H510 0.950 . S
C522 C521 1.398 . S
C522 C523 1.391 . S
C523 H511 0.950 . S
C523 C519 1.393 1_556 S
C523 C522 1.391 . S
H524 C532 0.950 . S
H525 C537 0.950 . S
H526 C534 0.950 . S
H527 C536 0.950 . S
H528 C538 0.950 . S
H529 C540 0.950 . S
H530 C542 0.950 . S
H531 C543 0.950 . S
C532 H524 0.950 . S
C532 C533 1.386 . S
C532 C534 1.391 . S
C533 C532 1.386 . S
C533 C537 1.393 . S
C534 H526 0.950 . S
C534 C532 1.391 . S
C534 C535 1.400 . S
C535 C534 1.400 . S
C535 C536 1.398 . S
C535 C541 1.491 . S
C536 H527 0.950 . S
C536 C535 1.398 . S
C536 C537 1.391 . S
C537 H525 0.950 . S
C537 C533 1.393 . S
C537 C536 1.391 . S
C538 H528 0.950 . S
C538 C539 1.386 . S
C538 C540 1.391 . S
C539 C538 1.386 . S
C539 C543 1.393 . S
C540 H529 0.950 . S
C540 C538 1.391 . S
C540 C541 1.400 . S
C541 C535 1.491 . S
C541 C540 1.400 . S
C541 C542 1.398 . S
C542 H530 0.950 . S
C542 C541 1.398 . S
C542 C543 1.391 . S
C543 H531 0.950 . S
C543 C539 1.393 . S
C543 C542 1.391 . S
H544 C552 0.950 . S
H545 C557 0.950 1_554 S
H546 C554 0.950 . S
H547 C556 0.950 . S
H548 C558 0.950 . S
H549 C560 0.950 . S
H550 C562 0.950 . S
H551 C563 0.950 . S
C552 H544 0.950 . S
C552 C553 1.386 1_556 S
C552 C554 1.391 . S
C553 C552 1.386 1_554 S
C553 C557 1.393 1_554 S
C554 H546 0.950 . S
C554 C552 1.391 . S
C554 C555 1.400 . S
C555 C554 1.400 . S
C555 C556 1.398 . S
C555 C561 1.491 . S
C556 H547 0.950 . S
C556 C555 1.398 . S
C556 C557 1.391 . S
C557 H545 0.950 1_556 S
C557 C553 1.393 1_556 S
C557 C556 1.391 . S
C558 H548 0.950 . S
C558 C559 1.386 . S
C558 C560 1.391 . S
C559 C558 1.386 . S
C559 C563 1.393 . S
C560 H549 0.950 . S
C560 C558 1.391 . S
C560 C561 1.400 . S
C561 C555 1.491 . S
C561 C560 1.400 . S
C561 C562 1.398 . S
C562 H550 0.950 . S
C562 C561 1.398 . S
C562 C563 1.391 . S
C563 H551 0.950 . S
C563 C559 1.393 . S
C563 C562 1.391 . S
H564 C572 0.950 . S
H565 C577 0.950 . S
H566 C574 0.950 . S
H567 C576 0.950 . S
H568 C578 0.950 . S
H569 C580 0.950 . S
H570 C582 0.950 . S
H571 C583 0.950 . S
C572 H564 0.950 . S
C572 C573 1.386 . S
C572 C574 1.391 . S
C573 C572 1.386 . S
C573 C577 1.393 . S
C574 H566 0.950 . S
C574 C572 1.391 . S
C574 C575 1.400 . S
C575 C574 1.400 . S
C575 C576 1.398 . S
C575 C581 1.491 . S
C576 H567 0.950 . S
C576 C575 1.398 . S
C576 C577 1.391 . S
C577 H565 0.950 . S
C577 C573 1.393 . S
C577 C576 1.391 . S
C578 H568 0.950 . S
C578 C579 1.386 . S
C578 C580 1.391 . S
C579 C578 1.386 . S
C579 C583 1.393 . S
C580 H569 0.950 . S
C580 C578 1.391 . S
C580 C581 1.400 . S
C581 C575 1.491 . S
C581 C580 1.400 . S
C581 C582 1.398 . S
C582 H570 0.950 . S
C582 C581 1.398 . S
C582 C583 1.391 . S
C583 H571 0.950 . S
C583 C579 1.393 . S
C583 C582 1.391 . S
H584 C592 0.950 . S
H585 C597 0.950 . S
H586 C594 0.950 . S
H587 C596 0.950 . S
H588 C598 0.950 . S
H589 C600 0.950 . S
H590 C602 0.950 . S
H591 C603 0.950 . S
C592 H584 0.950 . S
C592 C593 1.386 . S
C592 C594 1.391 . S
C593 C592 1.386 . S
C593 C597 1.393 . S
C594 H586 0.950 . S
C594 C592 1.391 . S
C594 C595 1.400 . S
C595 C594 1.400 . S
C595 C596 1.398 . S
C595 C601 1.491 . S
C596 H587 0.950 . S
C596 C595 1.398 . S
C596 C597 1.391 . S
C597 H585 0.950 . S
C597 C593 1.393 . S
C597 C596 1.391 . S
C598 H588 0.950 . S
C598 C599 1.386 . S
C598 C600 1.391 . S
C599 C598 1.386 . S
C599 C603 1.393 . S
C600 H589 0.950 . S
C600 C598 1.391 . S
C600 C601 1.400 . S
C601 C595 1.491 . S
C601 C600 1.400 . S
C601 C602 1.398 . S
C602 H590 0.950 . S
C602 C601 1.398 . S
C602 C603 1.391 . S
C603 H591 0.950 . S
C603 C599 1.393 . S
C603 C602 1.391 . S
H604 C612 0.950 1_556 S
H605 C617 0.950 . S
H606 C614 0.950 . S
H607 C616 0.950 . S
H608 C618 0.950 . S
H609 C620 0.950 . S
H610 C622 0.950 . S
H611 C623 0.950 . S
C612 H604 0.950 1_554 S
C612 C613 1.386 1_554 S
C612 C614 1.391 . S
C613 C612 1.386 1_556 S
C613 C617 1.393 1_556 S
C614 H606 0.950 . S
C614 C612 1.391 . S
C614 C615 1.400 . S
C615 C614 1.400 . S
C615 C616 1.398 . S
C615 C621 1.491 . S
C616 H607 0.950 . S
C616 C615 1.398 . S
C616 C617 1.391 . S
C617 H605 0.950 . S
C617 C613 1.393 1_554 S
C617 C616 1.391 . S
C618 H608 0.950 . S
C618 C619 1.386 . S
C618 C620 1.391 . S
C619 C618 1.386 . S
C619 C623 1.393 . S
C620 H609 0.950 . S
C620 C618 1.391 . S
C620 C621 1.400 . S
C621 C615 1.491 . S
C621 C620 1.400 . S
C621 C622 1.398 . S
C622 H610 0.950 . S
C622 C621 1.398 . S
C622 C623 1.391 . S
C623 H611 0.950 . S
C623 C619 1.393 . S
C623 C622 1.391 . S
H624 C632 0.950 . S
H625 C637 0.950 . S
H626 C634 0.950 . S
H627 C636 0.950 . S
H628 C638 0.950 . S
H629 C640 0.950 . S
H630 C642 0.950 . S
H631 C643 0.950 . S
C632 H624 0.950 . S
C632 C633 1.386 . S
C632 C634 1.391 . S
C633 C632 1.386 . S
C633 C637 1.393 . S
C634 H626 0.950 . S
C634 C632 1.391 . S
C634 C635 1.400 . S
C635 C634 1.400 . S
C635 C636 1.398 . S
C635 C641 1.491 . S
C636 H627 0.950 . S
C636 C635 1.398 . S
C636 C637 1.391 . S
C637 H625 0.950 . S
C637 C633 1.393 . S
C637 C636 1.391 . S
C638 H628 0.950 . S
C638 C639 1.386 . S
C638 C640 1.391 . S
C639 C638 1.386 . S
C639 C643 1.393 . S
C640 H629 0.950 . S
C640 C638 1.391 . S
C640 C641 1.400 . S
C641 C635 1.491 . S
C641 C640 1.400 . S
C641 C642 1.398 . S
C642 H630 0.950 . S
C642 C641 1.398 . S
C642 C643 1.391 . S
C643 H631 0.950 . S
C643 C639 1.393 . S
C643 C642 1.391 . S
H644 C652 0.950 . S
H645 C657 0.950 . S
H646 C654 0.950 . S
H647 C656 0.950 . S
H648 C658 0.950 1_556 S
H649 C660 0.950 . S
H650 C662 0.950 . S
H651 C663 0.950 . S
C652 H644 0.950 . S
C652 C653 1.386 . S
C652 C654 1.391 . S
C653 C652 1.386 . S
C653 C657 1.393 . S
C654 H646 0.950 . S
C654 C652 1.391 . S
C654 C655 1.400 . S
C655 C654 1.400 . S
C655 C656 1.398 . S
C655 C661 1.491 . S
C656 H647 0.950 . S
C656 C655 1.398 . S
C656 C657 1.391 . S
C657 H645 0.950 . S
C657 C653 1.393 . S
C657 C656 1.391 . S
C658 H648 0.950 1_554 S
C658 C659 1.386 1_554 S
C658 C660 1.391 . S
C659 C658 1.386 1_556 S
C659 C663 1.393 1_556 S
C660 H649 0.950 . S
C660 C658 1.391 . S
C660 C661 1.400 . S
C661 C655 1.491 . S
C661 C660 1.400 . S
C661 C662 1.398 . S
C662 H650 0.950 . S
C662 C661 1.398 . S
C662 C663 1.391 . S
C663 H651 0.950 . S
C663 C659 1.393 1_554 S
C663 C662 1.391 . S
C273 C249 1.191 . S
C279 C18 1.191 . S
C293 C150 1.194 . S
C299 C51 1.194 . S
C313 C84 1.170 . S
C319 C183 1.171 . S
C333 C216 1.172 . S
C339 C117 1.173 . S
C353 C7 1.455 . S
C359 C139 1.454 . S
C373 C172 1.449 . S
C379 C40 1.458 . S
C393 C205 1.448 . S
C399 C73 1.447 . S
C413 C238 1.442 . S
C419 C106 1.457 . S
C433 C252 1.487 . S
C439 C54 1.482 . S
C453 C87 1.492 . S
C459 C153 1.481 . S
C473 C120 1.483 . S
C479 C186 1.486 . S
C493 C219 1.484 . S
C499 C21 1.492 . S
C513 N13 1.232 . S
C519 N2 1.231 . S
C533 N35 1.242 . S
C539 N46 1.243 . S
C553 N68 1.240 . S
C559 N79 1.241 . S
C573 N112 1.232 . S
C579 N101 1.231 . S
C593 N134 1.242 . S
C599 N145 1.243 . S
C613 N167 1.230 . S
C619 N178 1.232 . S
C633 N200 1.230 . S
C639 N211 1.232 . S
C653 N244 1.243 . S
C659 N233 1.242 . S
