# Generated by pormake.
# Topology wme, (6)-cn, num edge types: 1
# Building blocks:
#     Node 0, Type 0, BuildingBlock: JUFBIX_clean_sbu_0, # of connection points: 6
#     Node 1, Type 0, BuildingBlock: JUFBIX_clean_sbu_0, # of connection points: 6
#     Node 2, Type 0, BuildingBlock: JUFBIX_clean_sbu_0, # of connection points: 6
#     Node 3, Type 0, BuildingBlock: JUFBIX_clean_sbu_0, # of connection points: 6
#     Node 4, Type 0, BuildingBlock: JUFBIX_clean_sbu_0, # of connection points: 6
#     Node 5, Type 0, BuildingBlock: JUFBIX_clean_sbu_0, # of connection points: 6
#     Node 6, Type 0, BuildingBlock: JUFBIX_clean_sbu_0, # of connection points: 6
#     Node 7, Type 0, BuildingBlock: JUFBIX_clean_sbu_0, # of connection points: 6
#     Node 8, Type 0, BuildingBlock: JUFBIX_clean_sbu_0, # of connection points: 6
#     Node 9, Type 0, BuildingBlock: JUFBIX_clean_sbu_0, # of connection points: 6
#     Node 10, Type 0, BuildingBlock: JUFBIX_clean_sbu_0, # of connection points: 6
#     Node 11, Type 0, BuildingBlock: JUFBIX_clean_sbu_0, # of connection points: 6
#     Edge 12, Type (0, 0), BuildingBlock: ZUJKAS_clean_linker_0, # of connection points: 2
#     Edge 13, Type (0, 0), BuildingBlock: ZUJKAS_clean_linker_0, # of connection points: 2
#     Edge 14, Type (0, 0), BuildingBlock: ZUJKAS_clean_linker_0, # of connection points: 2
#     Edge 15, Type (0, 0), BuildingBlock: ZUJKAS_clean_linker_0, # of connection points: 2
#     Edge 16, Type (0, 0), BuildingBlock: ZUJKAS_clean_linker_0, # of connection points: 2
#     Edge 17, Type (0, 0), BuildingBlock: ZUJKAS_clean_linker_0, # of connection points: 2
#     Edge 18, Type (0, 0), BuildingBlock: ZUJKAS_clean_linker_0, # of connection points: 2
#     Edge 19, Type (0, 0), BuildingBlock: ZUJKAS_clean_linker_0, # of connection points: 2
#     Edge 20, Type (0, 0), BuildingBlock: ZUJKAS_clean_linker_0, # of connection points: 2
#     Edge 21, Type (0, 0), BuildingBlock: ZUJKAS_clean_linker_0, # of connection points: 2
#     Edge 22, Type (0, 0), BuildingBlock: ZUJKAS_clean_linker_0, # of connection points: 2
#     Edge 23, Type (0, 0), BuildingBlock: ZUJKAS_clean_linker_0, # of connection points: 2
#     Edge 24, Type (0, 0), BuildingBlock: ZUJKAS_clean_linker_0, # of connection points: 2
#     Edge 25, Type (0, 0), BuildingBlock: ZUJKAS_clean_linker_0, # of connection points: 2
#     Edge 26, Type (0, 0), BuildingBlock: ZUJKAS_clean_linker_0, # of connection points: 2
#     Edge 27, Type (0, 0), BuildingBlock: ZUJKAS_clean_linker_0, # of connection points: 2
#     Edge 28, Type (0, 0), BuildingBlock: ZUJKAS_clean_linker_0, # of connection points: 2
#     Edge 29, Type (0, 0), BuildingBlock: ZUJKAS_clean_linker_0, # of connection points: 2
#     Edge 30, Type (0, 0), BuildingBlock: ZUJKAS_clean_linker_0, # of connection points: 2
#     Edge 31, Type (0, 0), BuildingBlock: ZUJKAS_clean_linker_0, # of connection points: 2
#     Edge 32, Type (0, 0), BuildingBlock: ZUJKAS_clean_linker_0, # of connection points: 2
#     Edge 33, Type (0, 0), BuildingBlock: ZUJKAS_clean_linker_0, # of connection points: 2
#     Edge 34, Type (0, 0), BuildingBlock: ZUJKAS_clean_linker_0, # of connection points: 2
#     Edge 35, Type (0, 0), BuildingBlock: ZUJKAS_clean_linker_0, # of connection points: 2
#     Edge 36, Type (0, 0), BuildingBlock: ZUJKAS_clean_linker_0, # of connection points: 2
#     Edge 37, Type (0, 0), BuildingBlock: ZUJKAS_clean_linker_0, # of connection points: 2
#     Edge 38, Type (0, 0), BuildingBlock: ZUJKAS_clean_linker_0, # of connection points: 2
#     Edge 39, Type (0, 0), BuildingBlock: ZUJKAS_clean_linker_0, # of connection points: 2
#     Edge 40, Type (0, 0), BuildingBlock: ZUJKAS_clean_linker_0, # of connection points: 2
#     Edge 41, Type (0, 0), BuildingBlock: ZUJKAS_clean_linker_0, # of connection points: 2
#     Edge 42, Type (0, 0), BuildingBlock: ZUJKAS_clean_linker_0, # of connection points: 2
#     Edge 43, Type (0, 0), BuildingBlock: ZUJKAS_clean_linker_0, # of connection points: 2
#     Edge 44, Type (0, 0), BuildingBlock: ZUJKAS_clean_linker_0, # of connection points: 2
#     Edge 45, Type (0, 0), BuildingBlock: ZUJKAS_clean_linker_0, # of connection points: 2
#     Edge 46, Type (0, 0), BuildingBlock: ZUJKAS_clean_linker_0, # of connection points: 2
#     Edge 47, Type (0, 0), BuildingBlock: ZUJKAS_clean_linker_0, # of connection points: 2
# Relax obj value: 0.294
# Max RMSD: 0.227
# Mean RMSD: 0.227
data_MOF--net-wme--node1-JUFBIX_clean_sbu_0--edge1-ZUJKAS_clean_linker_0
_symmetry_space_group_name_H-M    P1
_symmetry_Int_Tables_number       1
_symmetry_cell_setting            triclinic
loop_
_symmetry_equiv_pos_as_xyz
'x, y, z'
_cell_length_a     41.725196
_cell_length_b     41.717604
_cell_length_c     72.456047
_cell_angle_alpha  89.975997
_cell_angle_beta   90.0328
_cell_angle_gamma 120.02156
loop_
_atom_site_label
_atom_site_type_symbol
_atom_site_fract_x
_atom_site_fract_y
_atom_site_fract_z
_atom_type_partial_charge
Co0 Co 0.19711 0.34485 0.12371 0.0
C1 C 0.21958 0.31243 0.09681 0.0
Co2 Co 0.2217 0.31312 0.13518 0.0
C3 C 0.17187 0.3984 0.12212 0.0
C4 C 0.15537 0.36245 0.09866 0.0
N5 N 0.17566 0.37109 0.11428 0.0
N6 N 0.14959 0.40664 0.11212 0.0
C7 C 0.13941 0.38421 0.09729 0.0
H8 H 0.1836 0.41065 0.13537 0.0
H9 H 0.15099 0.3405 0.08925 0.0
C10 C 0.20027 0.34427 0.16243 0.0
N11 N 0.2409 0.28476 0.14414 0.0
C12 C 0.22863 0.24956 0.13887 0.0
C13 C 0.26624 0.29146 0.15736 0.0
N14 N 0.24479 0.23356 0.14827 0.0
C15 C 0.26863 0.25989 0.15998 0.0
C16 C 0.27289 0.38699 0.12858 0.0
O17 O 0.18887 0.35543 0.14887 0.0
O18 O 0.21612 0.32568 0.1592 0.0
O19 O 0.27015 0.35656 0.13395 0.0
O20 O 0.24391 0.38756 0.12371 0.0
O21 O 0.22759 0.30026 0.11105 0.0
H22 H 0.28123 0.3172 0.1649 0.0
H23 H 0.20691 0.23547 0.12876 0.0
O24 O 0.20601 0.33358 0.09888 0.0
O25 O 0.15029 0.30246 0.1237 0.0
O26 O 0.17268 0.27044 0.13652 0.0
C27 C 0.14509 0.27225 0.13042 0.0
H28 H 0.12111 0.38308 0.08639 0.0
H29 H 0.28619 0.25655 0.16986 0.0
Co30 Co 0.85372 0.17841 0.62375 0.0
C31 C 0.8484 0.2004 0.65966 0.0
Co32 Co 0.88222 0.23857 0.62791 0.0
C33 C 0.84025 0.10342 0.61882 0.0
C34 C 0.79089 0.10582 0.62359 0.0
N35 N 0.82782 0.1274 0.62133 0.0
N36 N 0.81244 0.06788 0.6194 0.0
C37 C 0.78139 0.06941 0.62231 0.0
H38 H 0.86917 0.11179 0.61714 0.0
H39 H 0.77205 0.11572 0.62686 0.0
C40 C 0.88938 0.21694 0.59229 0.0
N41 N 0.90574 0.28932 0.63056 0.0
C42 C 0.88896 0.30729 0.63722 0.0
C43 C 0.93706 0.31575 0.62258 0.0
N44 N 0.9072 0.34352 0.63286 0.0
C45 C 0.93801 0.34922 0.62396 0.0
C46 C 0.92616 0.20766 0.63469 0.0
O47 O 0.87112 0.18432 0.59887 0.0
O48 O 0.89529 0.24426 0.60243 0.0
O49 O 0.92676 0.23843 0.63355 0.0
O50 O 0.89613 0.17772 0.63169 0.0
O51 O 0.86952 0.23265 0.65331 0.0
H52 H 0.95596 0.31047 0.61471 0.0
H53 H 0.86201 0.29326 0.64372 0.0
O54 O 0.8371 0.17281 0.64885 0.0
O55 O 0.81159 0.1795 0.61566 0.0
O56 O 0.83704 0.23814 0.62224 0.0
C57 C 0.80917 0.2084 0.61679 0.0
H58 H 0.75402 0.04585 0.62452 0.0
H59 H 0.95773 0.37474 0.61723 0.0
Co60 Co 0.65317 0.85623 0.1245 0.0
C61 C 0.68357 0.91222 0.09794 0.0
Co62 Co 0.68308 0.91251 0.13629 0.0
C63 C 0.59834 0.77809 0.12164 0.0
C64 C 0.63764 0.7971 0.09956 0.0
N65 N 0.62777 0.8088 0.11473 0.0
N66 N 0.58972 0.74765 0.11147 0.0
C67 C 0.61435 0.75966 0.09751 0.0
H68 H 0.58438 0.77788 0.13427 0.0
H69 H 0.66095 0.8145 0.0908 0.0
C70 C 0.6535 0.85844 0.16316 0.0
N71 N 0.70999 0.9597 0.14588 0.0
C72 C 0.7445 0.98463 0.14043 0.0
C73 C 0.70353 0.97502 0.16078 0.0
N74 N 0.76031 0.01465 0.15142 0.0
C75 C 0.73465 0.00884 0.1643 0.0
C76 C 0.6091 0.88768 0.13007 0.0
O77 O 0.64223 0.83636 0.14942 0.0
O78 O 0.67181 0.893 0.1602 0.0
O79 O 0.6388 0.91549 0.13596 0.0
O80 O 0.6098 0.8592 0.12441 0.0
O81 O 0.69436 0.93242 0.11224 0.0
H82 H 0.67867 0.96165 0.16907 0.0
H83 H 0.75876 0.97959 0.12932 0.0
O84 O 0.66477 0.87719 0.09987 0.0
O85 O 0.69624 0.85312 0.12465 0.0
O86 O 0.72696 0.90842 0.13678 0.0
C87 C 0.72621 0.87932 0.13098 0.0
H88 H 0.61564 0.74262 0.0866 0.0
H89 H 0.73854 0.02705 0.17577 0.0
Co90 Co 0.81373 0.67467 0.6254 0.0
C91 C 0.79127 0.64554 0.661 0.0
Co92 Co 0.75344 0.64371 0.62954 0.0
C93 C 0.88924 0.73503 0.61972 0.0
C94 C 0.88565 0.68311 0.62577 0.0
N95 N 0.86472 0.69898 0.62295 0.0
N96 N 0.92456 0.74205 0.62037 0.0
C97 C 0.92226 0.70935 0.62412 0.0
H98 H 0.88139 0.7558 0.61736 0.0
H99 H 0.87511 0.65447 0.62955 0.0
C100 C 0.77531 0.67423 0.59426 0.0
N101 N 0.70262 0.61752 0.63228 0.0
C102 C 0.68295 0.58206 0.63792 0.0
C103 C 0.67718 0.62616 0.62647 0.0
N104 N 0.64628 0.56759 0.63536 0.0
C105 C 0.64245 0.5954 0.62827 0.0
C106 C 0.78621 0.7184 0.63759 0.0
O107 O 0.80798 0.68753 0.60068 0.0
O108 O 0.74789 0.65301 0.60439 0.0
O109 O 0.75506 0.68873 0.63624 0.0
O110 O 0.81569 0.71786 0.634 0.0
O111 O 0.75912 0.63494 0.65467 0.0
H112 H 0.6836 0.65227 0.62022 0.0
H113 H 0.69559 0.5662 0.6424 0.0
O114 O 0.81898 0.66225 0.65029 0.0
O115 O 0.81153 0.63131 0.61669 0.0
O116 O 0.75256 0.59889 0.62282 0.0
C117 C 0.78205 0.60032 0.61729 0.0
H118 H 0.94545 0.70503 0.62648 0.0
H119 H 0.61667 0.5932 0.6238 0.0
Co120 Co 0.13721 0.79071 0.1255 0.0
C121 C 0.08135 0.77176 0.0992 0.0
Co122 Co 0.08171 0.76979 0.13742 0.0
C123 C 0.21384 0.80932 0.12292 0.0
C124 C 0.19608 0.82707 0.09929 0.0
N125 N 0.18387 0.80854 0.11537 0.0
N126 N 0.2442 0.82771 0.11223 0.0
C127 C 0.23305 0.83871 0.09728 0.0
H128 H 0.21357 0.79714 0.13615 0.0
H129 H 0.17958 0.83305 0.08991 0.0
C130 C 0.13544 0.78768 0.16406 0.0
N131 N 0.03546 0.75354 0.14734 0.0
C132 C 0.01297 0.76653 0.14242 0.0
C133 C 0.01857 0.73097 0.16181 0.0
N134 N 0.98294 0.75357 0.15333 0.0
C135 C 0.98623 0.73113 0.16563 0.0
C136 C 0.09878 0.7148 0.13018 0.0
O137 O 0.15725 0.79695 0.15027 0.0
O138 O 0.10122 0.77496 0.16121 0.0
O139 O 0.07308 0.71997 0.13633 0.0
O140 O 0.12896 0.7424 0.12481 0.0
O141 O 0.06162 0.76428 0.11358 0.0
H142 H 0.02981 0.71665 0.16955 0.0
H143 H 0.0197 0.78697 0.13168 0.0
O144 O 0.1159 0.78391 0.10101 0.0
O145 O 0.14596 0.83904 0.12629 0.0
O146 O 0.0915 0.82019 0.13856 0.0
C147 C 0.12246 0.8465 0.133 0.0
H148 H 0.25069 0.85538 0.08608 0.0
H149 H 0.96721 0.71669 0.17681 0.0
Co150 Co 0.31987 0.14003 0.62462 0.0
C151 C 0.34723 0.14553 0.66058 0.0
Co152 Co 0.35114 0.11108 0.62911 0.0
C153 C 0.25992 0.15555 0.61848 0.0
C154 C 0.31177 0.20377 0.62477 0.0
N155 N 0.29586 0.16696 0.6219 0.0
N156 N 0.253 0.18391 0.61907 0.0
C157 C 0.28565 0.21424 0.62296 0.0
H158 H 0.23911 0.12695 0.61609 0.0
H159 H 0.34028 0.22181 0.62877 0.0
C160 C 0.32241 0.10351 0.59342 0.0
N161 N 0.37684 0.08605 0.63207 0.0
C162 C 0.41219 0.10135 0.63783 0.0
C163 C 0.36761 0.05167 0.62647 0.0
N164 N 0.42601 0.07854 0.63554 0.0
C165 C 0.39789 0.04702 0.62852 0.0
C166 C 0.27554 0.06827 0.63581 0.0
O167 O 0.30907 0.12301 0.59959 0.0
O168 O 0.34287 0.09684 0.60389 0.0
O169 O 0.30561 0.06741 0.63523 0.0
O170 O 0.27596 0.09822 0.63216 0.0
O171 O 0.35897 0.12493 0.65427 0.0
H172 H 0.34142 0.0322 0.62023 0.0
H173 H 0.42845 0.12989 0.6422 0.0
O174 O 0.33018 0.15611 0.64984 0.0
O175 O 0.36392 0.18173 0.61692 0.0
O176 O 0.39647 0.15529 0.62297 0.0
C177 C 0.39501 0.18353 0.61774 0.0
H178 H 0.28996 0.24173 0.62539 0.0
H179 H 0.39959 0.02306 0.62425 0.0
Co180 Co 0.67469 0.81453 0.39245 0.0
C181 C 0.64642 0.78847 0.35699 0.0
Co182 Co 0.64354 0.75402 0.38978 0.0
C183 C 0.73498 0.89057 0.39704 0.0
C184 C 0.68331 0.88621 0.38953 0.0
N185 N 0.69917 0.86567 0.39354 0.0
N186 N 0.74176 0.92571 0.3955 0.0
C187 C 0.70927 0.92296 0.39083 0.0
H188 H 0.75574 0.88312 0.40029 0.0
H189 H 0.65487 0.87526 0.38528 0.0
C190 C 0.67289 0.77932 0.42499 0.0
N191 N 0.61662 0.70302 0.3884 0.0
C192 C 0.58187 0.68436 0.38176 0.0
C193 C 0.62142 0.67748 0.39744 0.0
N194 N 0.56378 0.64868 0.38713 0.0
C195 C 0.58883 0.64393 0.3967 0.0
C196 C 0.71848 0.78524 0.38282 0.0
O197 O 0.68702 0.81132 0.41765 0.0
O198 O 0.6515 0.75106 0.4154 0.0
O199 O 0.68861 0.75433 0.3846 0.0
O200 O 0.71791 0.81518 0.38488 0.0
O201 O 0.63606 0.75708 0.36422 0.0
H202 H 0.64556 0.68362 0.4056 0.0
H203 H 0.56893 0.69768 0.37456 0.0
O204 O 0.6627 0.81724 0.36707 0.0
O205 O 0.63144 0.8137 0.40023 0.0
O206 O 0.59856 0.75446 0.39503 0.0
C207 C 0.60024 0.78452 0.39969 0.0
H208 H 0.70497 0.94589 0.38765 0.0
H209 H 0.58292 0.61918 0.40426 0.0
Co210 Co 0.85459 0.67356 0.89293 0.0
C211 C 0.85015 0.64717 0.85683 0.0
Co212 Co 0.88431 0.64308 0.88846 0.0
C213 C 0.83891 0.73352 0.89877 0.0
C214 C 0.79068 0.68146 0.89283 0.0
N215 N 0.82753 0.69748 0.8956 0.0
N216 N 0.81052 0.74039 0.89812 0.0
C217 C 0.78018 0.7076 0.89446 0.0
H218 H 0.86754 0.75443 0.90101 0.0
H219 H 0.77263 0.65284 0.88901 0.0
C220 C 0.89055 0.67054 0.92431 0.0
N221 N 0.90942 0.61742 0.88551 0.0
C222 C 0.89412 0.58226 0.87949 0.0
C223 C 0.94323 0.62597 0.89173 0.0
N224 N 0.91626 0.5678 0.88226 0.0
C225 C 0.94746 0.59539 0.88983 0.0
C226 C 0.92666 0.71858 0.88205 0.0
O227 O 0.8715 0.68428 0.918 0.0
O228 O 0.89753 0.65033 0.91383 0.0
O229 O 0.92809 0.68882 0.88285 0.0
O230 O 0.89634 0.7176 0.88539 0.0
O231 O 0.87147 0.63629 0.86315 0.0
H232 H 0.9624 0.65175 0.89842 0.0
H233 H 0.86581 0.56643 0.87469 0.0
O234 O 0.8385 0.66311 0.86767 0.0
O235 O 0.81304 0.62942 0.90058 0.0
O236 O 0.83989 0.59747 0.89407 0.0
C237 C 0.81151 0.59849 0.89943 0.0
H238 H 0.75264 0.70317 0.89205 0.0
H239 H 0.97073 0.59303 0.89467 0.0
Co240 Co 0.18367 0.85943 0.39256 0.0
C241 C 0.20858 0.85531 0.35704 0.0
Co242 Co 0.24414 0.88888 0.38921 0.0
C243 C 0.10732 0.84278 0.39758 0.0
C244 C 0.11226 0.79557 0.39062 0.0
N245 N 0.13251 0.83219 0.39419 0.0
N246 N 0.07228 0.81403 0.39638 0.0
C247 C 0.07544 0.78436 0.39205 0.0
H248 H 0.1145 0.87105 0.40048 0.0
H249 H 0.12344 0.77819 0.38655 0.0
C250 C 0.22027 0.89503 0.42444 0.0
N251 N 0.29512 0.91383 0.38729 0.0
C252 C 0.31504 0.8985 0.38142 0.0
C253 C 0.32022 0.9471 0.39416 0.0
N254 N 0.35148 0.92007 0.38488 0.0
C255 C 0.35497 0.95094 0.39278 0.0
C256 C 0.2117 0.93168 0.38187 0.0
O257 O 0.18788 0.87619 0.41761 0.0
O258 O 0.24807 0.9016 0.41454 0.0
O259 O 0.24275 0.93293 0.38332 0.0
O260 O 0.182 0.90126 0.38459 0.0
O261 O 0.24022 0.87664 0.36394 0.0
H262 H 0.31346 0.96609 0.4009 0.0
H263 H 0.30258 0.87048 0.37621 0.0
O264 O 0.18013 0.84354 0.3673 0.0
O265 O 0.18553 0.81781 0.40075 0.0
O266 O 0.24467 0.84418 0.39515 0.0
C267 C 0.21481 0.81598 0.40023 0.0
H268 H 0.0527 0.75683 0.38918 0.0
H269 H 0.3804 0.97371 0.39816 0.0
Co270 Co 0.32078 0.18029 0.89268 0.0
C271 C 0.34822 0.2006 0.85666 0.0
Co272 Co 0.35257 0.24042 0.88766 0.0
C273 C 0.2596 0.10516 0.89843 0.0
C274 C 0.31163 0.10787 0.89414 0.0
N275 N 0.29601 0.12931 0.8959 0.0
N276 N 0.25211 0.06966 0.89832 0.0
C277 C 0.28488 0.07142 0.89572 0.0
H278 H 0.23887 0.11336 0.89976 0.0
H279 H 0.34042 0.11783 0.89098 0.0
C280 C 0.324 0.22091 0.92342 0.0
N281 N 0.37889 0.29106 0.88422 0.0
C282 C 0.41433 0.31058 0.87854 0.0
C283 C 0.37003 0.31669 0.88939 0.0
N284 N 0.42855 0.34736 0.88048 0.0
C285 C 0.40061 0.35139 0.88718 0.0
C286 C 0.27713 0.20806 0.88075 0.0
O287 O 0.31015 0.18777 0.91756 0.0
O288 O 0.34458 0.24754 0.91273 0.0
O289 O 0.3073 0.23893 0.88124 0.0
O290 O 0.27729 0.17856 0.8848 0.0
O291 O 0.36019 0.23322 0.86266 0.0
H292 H 0.34387 0.31049 0.89547 0.0
H293 H 0.43036 0.29786 0.87448 0.0
O294 O 0.331 0.17337 0.86761 0.0
O295 O 0.36456 0.1824 0.90068 0.0
O296 O 0.39756 0.24113 0.89409 0.0
C297 C 0.3958 0.21151 0.89968 0.0
H298 H 0.28898 0.04796 0.89393 0.0
H299 H 0.40261 0.37736 0.89111 0.0
Co300 Co 0.13598 0.32232 0.39207 0.0
C301 C 0.14043 0.35225 0.35678 0.0
Co302 Co 0.10708 0.35396 0.38913 0.0
C303 C 0.15185 0.26192 0.39667 0.0
C304 C 0.19927 0.31395 0.38972 0.0
N305 N 0.16274 0.29785 0.39343 0.0
N306 N 0.18034 0.25529 0.39524 0.0
C307 C 0.21013 0.28804 0.39091 0.0
H308 H 0.12356 0.241 0.39966 0.0
H309 H 0.21681 0.34255 0.38572 0.0
C310 C 0.10068 0.32304 0.42415 0.0
N311 N 0.08259 0.38045 0.38744 0.0
C312 C 0.09815 0.41584 0.38172 0.0
C313 C 0.04918 0.37223 0.39411 0.0
N314 N 0.07653 0.43068 0.38504 0.0
C315 C 0.04543 0.40318 0.39273 0.0
C316 C 0.06394 0.27913 0.3811 0.0
O317 O 0.11897 0.30912 0.41707 0.0
O318 O 0.09431 0.34468 0.41446 0.0
O319 O 0.06288 0.30897 0.38295 0.0
O320 O 0.09412 0.27941 0.38383 0.0
O321 O 0.11947 0.36285 0.36383 0.0
H322 H 0.0299 0.34628 0.40063 0.0
H323 H 0.12623 0.43139 0.3766 0.0
O324 O 0.152 0.3352 0.36691 0.0
O325 O 0.17782 0.36539 0.40051 0.0
O326 O 0.15179 0.39864 0.39535 0.0
C327 C 0.17983 0.39661 0.40032 0.0
H328 H 0.23753 0.29263 0.38791 0.0
H329 H 0.02247 0.40573 0.39787 0.0
Co330 Co 0.81537 0.14019 0.89158 0.0
C331 C 0.79181 0.14359 0.85571 0.0
Co332 Co 0.75494 0.11121 0.88794 0.0
C333 C 0.89118 0.15548 0.89651 0.0
C334 C 0.88743 0.20371 0.89047 0.0
N335 N 0.86653 0.16696 0.89359 0.0
N336 N 0.92648 0.18371 0.89539 0.0
C337 C 0.92408 0.21405 0.89167 0.0
H338 H 0.88342 0.12688 0.89891 0.0
H339 H 0.87685 0.22177 0.88672 0.0
C340 C 0.77791 0.10598 0.92355 0.0
N341 N 0.70399 0.08637 0.88566 0.0
C342 C 0.68375 0.10158 0.88009 0.0
C343 C 0.67906 0.05235 0.89179 0.0
N344 N 0.64723 0.07908 0.883 0.0
C345 C 0.64409 0.04783 0.89024 0.0
C346 C 0.78685 0.06761 0.88154 0.0
O347 O 0.81036 0.1241 0.91673 0.0
O348 O 0.75021 0.09924 0.9135 0.0
O349 O 0.75603 0.06687 0.88267 0.0
O350 O 0.81672 0.09786 0.88423 0.0
O351 O 0.7598 0.12286 0.86242 0.0
H352 H 0.686 0.03307 0.89807 0.0
H353 H 0.69588 0.12989 0.87536 0.0
O354 O 0.81985 0.15534 0.86627 0.0
O355 O 0.81369 0.1824 0.89911 0.0
O356 O 0.75464 0.15605 0.89324 0.0
C357 C 0.7845 0.18438 0.8982 0.0
H358 H 0.94718 0.24144 0.88893 0.0
H359 H 0.61864 0.02415 0.89496 0.0
H360 H 0.19195 0.90495 0.13451 0.0
H361 H 0.21131 0.96989 0.13855 0.0
H362 H 0.097 0.94265 0.14038 0.0
H363 H 0.07724 0.8766 0.13715 0.0
H364 H 0.20158 0.01338 0.11669 0.0
H365 H 0.13739 0.00981 0.18426 0.0
H366 H 0.13963 0.97062 0.17534 0.0
H367 H 0.10471 0.98045 0.16718 0.0
C368 C 0.1708 0.91263 0.13584 0.0
C369 C 0.13302 0.8857 0.13543 0.0
C370 C 0.18196 0.94985 0.13818 0.0
C371 C 0.1557 0.96125 0.13994 0.0
C372 C 0.11781 0.93446 0.13948 0.0
H373 H 0.214 0.18806 0.11886 0.0
H374 H 0.19213 0.1222 0.1174 0.0
C375 C 0.10652 0.89682 0.13748 0.0
C376 C 0.1687 0.00142 0.14137 0.0
H377 H 0.1653 0.06708 0.16808 0.0
C378 C 0.19369 0.02508 0.12798 0.0
C379 C 0.1589 0.01679 0.15625 0.0
C380 C 0.13399 0.99318 0.17168 0.0
C381 C 0.20923 0.06355 0.12904 0.0
C382 C 0.19835 0.07884 0.1435 0.0
C383 C 0.17345 0.05529 0.15695 0.0
C384 C 0.21183 0.11911 0.14461 0.0
C385 C 0.23786 0.08738 0.11488 0.0
C386 C 0.22941 0.13929 0.16061 0.0
C387 C 0.24119 0.17711 0.16171 0.0
C388 C 0.23548 0.19535 0.14682 0.0
C389 C 0.21839 0.175 0.13073 0.0
C390 C 0.20628 0.13729 0.12975 0.0
H391 H 0.25188 0.07305 0.10894 0.0
H392 H 0.22406 0.09335 0.10338 0.0
H393 H 0.25925 0.11406 0.12092 0.0
H394 H 0.23384 0.12574 0.17228 0.0
H395 H 0.25385 0.19173 0.17437 0.0
H396 H 0.23999 0.23794 0.60776 0.0
H397 H 0.18258 0.23934 0.6114 0.0
H398 H 0.12835 0.12747 0.63223 0.0
H399 H 0.18628 0.12638 0.62927 0.0
H400 H 0.11238 0.19607 0.59737 0.0
H401 H 0.11343 0.18496 0.67384 0.0
H402 H 0.15283 0.19429 0.65975 0.0
H403 H 0.11414 0.14801 0.66147 0.0
C404 C 0.21584 0.21362 0.6131 0.0
C405 C 0.21779 0.18229 0.61852 0.0
C406 C 0.18304 0.21439 0.61508 0.0
C407 C 0.15158 0.18384 0.62249 0.0
C408 C 0.15268 0.15163 0.62688 0.0
H409 H 0.93227 0.14732 0.64295 0.0
H410 H 0.98818 0.14248 0.6414 0.0
C411 C 0.18561 0.15088 0.62495 0.0
C412 C 0.11815 0.18648 0.62607 0.0
H413 H 0.06226 0.18625 0.66055 0.0
C414 C 0.1014 0.19393 0.61117 0.0
C415 C 0.10417 0.1839 0.64414 0.0
C416 C 0.12219 0.17768 0.66076 0.0
C417 C 0.07077 0.19863 0.61384 0.0
C418 C 0.0569 0.19613 0.63188 0.0
C419 C 0.07331 0.18832 0.64677 0.0
C420 C 0.02452 0.20047 0.63534 0.0
C421 C 0.05313 0.20585 0.59736 0.0
C422 C 0.02699 0.23504 0.63317 0.0
C423 C 0.99516 0.23802 0.63416 0.0
C424 C 0.9605 0.20635 0.63722 0.0
C425 C 0.95859 0.17218 0.64047 0.0
C426 C 0.99042 0.16932 0.6396 0.0
H427 H 0.06331 0.20086 0.5841 0.0
H428 H 0.02255 0.18799 0.59787 0.0
H429 H 0.05968 0.23511 0.5976 0.0
H430 H 0.05332 0.2594 0.63003 0.0
H431 H -0.00256 0.26466 0.63157 0.0
H432 H 0.80495 0.0509 0.18047 0.0
H433 H 0.872 0.09359 0.17935 0.0
H434 H 0.86937 0.08484 0.11999 0.0
H435 H 0.80259 0.04238 0.12103 0.0
H436 H 0.92332 0.07263 0.13714 0.0
H437 H 0.9294 0.20207 0.16156 0.0
H438 H 0.9044 0.16196 0.17598 0.0
H439 H 0.88711 0.16273 0.15339 0.0
C440 C 0.81858 0.05875 0.16718 0.0
C441 C 0.79859 0.04327 0.15083 0.0
C442 C 0.85686 0.08297 0.16656 0.0
C443 C 0.87556 0.09229 0.14958 0.0
C444 C 0.85546 0.07776 0.13324 0.0
H445 H 0.08364 0.2654 0.11389 0.0
H446 H 0.01944 0.21883 0.11974 0.0
C447 C 0.81735 0.05357 0.13385 0.0
C448 C 0.91624 0.11628 0.14867 0.0
H449 H 0.98612 0.20505 0.15509 0.0
C450 C 0.93718 0.10153 0.14119 0.0
C451 C 0.93405 0.15391 0.15393 0.0
C452 C 0.91269 0.17135 0.16155 0.0
C453 C 0.97546 0.12375 0.1384 0.0
C454 C 0.99315 0.1615 0.14341 0.0
C455 C 0.97237 0.17598 0.15134 0.0
C456 C 0.03247 0.18742 0.13903 0.0
C457 C -0.00356 0.10714 0.12943 0.0
C458 C 0.06114 0.18465 0.14766 0.0
C459 C 0.09817 0.21128 0.14425 0.0
C460 C 0.10682 0.2411 0.1323 0.0
C461 C 0.07794 0.2429 0.12326 0.0
C462 C 0.04119 0.21637 0.12661 0.0
H463 H 0.97762 0.07918 0.12367 0.0
H464 H 0.01435 0.12533 0.11816 0.0
H465 H 0.01459 0.10464 0.13984 0.0
H466 H 0.05489 0.16264 0.15744 0.0
H467 H 0.11985 0.20933 0.15149 0.0
H468 H 0.84696 0.78228 0.64838 0.0
H469 H 0.85416 0.84403 0.64895 0.0
H470 H 0.73895 0.7976 0.6346 0.0
H471 H 0.73128 0.73554 0.63445 0.0
H472 H 0.84482 0.87539 0.61842 0.0
H473 H 0.75162 0.87213 0.67371 0.0
H474 H 0.76558 0.83768 0.67187 0.0
H475 H 0.72858 0.83448 0.65776 0.0
C476 C 0.82291 0.78512 0.64582 0.0
C477 C 0.78856 0.75418 0.6413 0.0
C478 C 0.82711 0.8204 0.64613 0.0
C479 C 0.79708 0.82534 0.64191 0.0
C480 C 0.76229 0.7943 0.63828 0.0
H481 H 0.76078 -8e-05 0.60796 0.0
H482 H 0.7606 0.94201 0.61336 0.0
C483 C 0.75796 0.75887 0.63814 0.0
C484 C 0.80318 0.86305 0.63917 0.0
H485 H 0.77124 0.92096 0.65138 0.0
C486 C 0.82915 0.88561 0.62582 0.0
C487 C 0.78264 0.87618 0.64884 0.0
C488 C 0.75582 0.85398 0.66398 0.0
C489 C 0.83417 0.92052 0.62142 0.0
C490 C 0.81274 0.93302 0.63065 0.0
C491 C 0.78743 0.91095 0.64429 0.0
C492 C 0.81495 0.96833 0.62585 0.0
C493 C 0.86131 0.94329 0.60651 0.0
C494 C 0.846 0.00215 0.63074 0.0
C495 C 0.84612 0.03529 0.62774 0.0
C496 C 0.81507 0.03486 0.6199 0.0
C497 C 0.78481 0.00097 0.61427 0.0
C498 C 0.78468 0.96796 0.6173 0.0
H499 H 0.87219 0.92752 0.59901 0.0
H500 H 0.84799 0.95305 0.59642 0.0
H501 H 0.88499 0.9681 0.61279 0.0
H502 H 0.86948 0.00276 0.63749 0.0
H503 H 0.86964 0.06094 0.6324 0.0
H504 H 0.95837 0.77291 0.12333 0.0
H505 H 0.91856 0.80026 0.12283 0.0
H506 H 0.90734 0.78964 0.18203 0.0
H507 H 0.94738 0.76215 0.1826 0.0
H508 H 0.84111 0.76759 0.16393 0.0
H509 H 0.94883 0.90544 0.13918 0.0
H510 H 0.94478 0.86868 0.12473 0.0
H511 H 0.95967 0.87166 0.1483 0.0
C512 C 0.94748 0.77648 0.13624 0.0
C513 C 0.95625 0.76576 0.15302 0.0
C514 C 0.92495 0.79228 0.13595 0.0
C515 C 0.91097 0.79795 0.15245 0.0
C516 C 0.91833 0.78591 0.16918 0.0
H517 H 0.78882 0.91995 0.15182 0.0
H518 H 0.83648 0.90356 0.15893 0.0
C519 C 0.94088 0.76994 0.16947 0.0
C520 C 0.88773 0.81545 0.15196 0.0
H521 H 0.88556 0.89102 0.13543 0.0
C522 C 0.85097 0.79481 0.15798 0.0
C523 C 0.90089 0.85128 0.14452 0.0
C524 C 0.94083 0.87572 0.139 0.0
C525 C 0.82634 0.80811 0.15568 0.0
C526 C 0.83876 0.84262 0.14688 0.0
C527 C 0.87607 0.86432 0.14192 0.0
C528 C 0.81259 0.85499 0.14146 0.0
C529 C 0.78697 0.78474 0.16231 0.0
C530 C 0.78461 0.83401 0.1287 0.0
C531 C 0.75764 0.84323 0.12461 0.0
C532 C 0.75826 0.8738 0.13313 0.0
C533 C 0.78765 0.89621 0.14507 0.0
C534 C 0.81473 0.88684 0.1492 0.0
H535 H 0.78472 0.76505 0.17326 0.0
H536 H 0.77606 0.80229 0.16776 0.0
H537 H 0.76924 0.76834 0.15057 0.0
H538 H 0.78309 0.80985 0.12226 0.0
H539 H 0.7356 0.82566 0.11518 0.0
H540 H 0.93395 0.8088 0.6306 0.0
H541 H 0.99295 0.86702 0.63299 0.0
H542 H 0.05025 0.81258 0.61207 0.0
H543 H 0.99152 0.75497 0.60901 0.0
H544 H 0.05121 0.8776 0.65496 0.0
H545 H 0.09617 0.90682 0.58201 0.0
H546 H 0.04917 0.87393 0.58851 0.0
H547 H 0.08424 0.86083 0.58881 0.0
C548 C 0.959 0.80955 0.62603 0.0
C549 C 0.95816 0.7773 0.61968 0.0
C550 C 0.99268 0.84271 0.62754 0.0
C551 C 0.02588 0.84413 0.62256 0.0
C552 C 0.02491 0.81227 0.61568 0.0
H553 H 0.26026 0.99664 0.63297 0.0
H554 H 0.19872 0.94114 0.63181 0.0
C555 C 0.99137 0.77926 0.61413 0.0
C556 C 0.06189 0.87795 0.62584 0.0
H557 H 0.14308 0.93887 0.60485 0.0
C558 C 0.07116 0.89129 0.64399 0.0
C559 C 0.08784 0.89561 0.61148 0.0
C560 C 0.07874 0.88379 0.59159 0.0
C561 C 0.10619 0.9213 0.64823 0.0
C562 C 0.13235 0.93824 0.63395 0.0
C563 C 0.12296 0.9253 0.61579 0.0
C564 C 0.16927 0.97051 0.63734 0.0
C565 C 0.11537 0.93429 0.66795 0.0
C566 C 0.17278 0.005 0.6412 0.0
C567 C 0.2077 0.03664 0.64178 0.0
C568 C 0.23966 0.03421 0.63853 0.0
C569 C 0.23615 -0.00071 0.63565 0.0
C570 C 0.2011 0.96765 0.6349 0.0
H571 H 0.09462 0.91421 0.6778 0.0
H572 H 0.14315 0.93883 0.67172 0.0
H573 H 0.11608 0.96111 0.66946 0.0
H574 H 0.14843 0.00768 0.64291 0.0
H575 H 0.20956 0.06319 0.64403 0.0
H576 H 0.00592 0.75856 0.40752 0.0
H577 H 0.94623 0.75562 0.40429 0.0
H578 H 0.00118 0.86763 0.38373 0.0
H579 H 0.06124 0.87063 0.38668 0.0
H580 H 0.94059 0.84638 0.41146 0.0
H581 H 0.90207 0.75116 0.35138 0.0
H582 H 0.91826 0.7381 0.37145 0.0
H583 H 0.94934 0.77948 0.35908 0.0
C584 C 0.00532 0.78262 0.40238 0.0
C585 C 0.03816 0.81463 0.3971 0.0
C586 C 0.97127 0.78089 0.40056 0.0
C587 C 0.96944 0.81113 0.39343 0.0
C588 C 0.00221 0.84394 0.38913 0.0
H589 H 0.78392 0.84539 0.37308 0.0
H590 H 0.84526 0.8517 0.37428 0.0
C591 C 0.03643 0.8457 0.39094 0.0
C592 C 0.93308 0.80776 0.38993 0.0
H593 H 0.85521 0.76131 0.3636 0.0
C594 C 0.92196 0.82806 0.40092 0.0
C595 C 0.90899 0.78363 0.37621 0.0
C596 C 0.92023 0.762 0.36372 0.0
C597 C 0.88676 0.82413 0.39886 0.0
C598 C 0.86258 0.79991 0.38515 0.0
C599 C 0.87387 0.77984 0.37406 0.0
C600 C 0.82529 0.79485 0.38229 0.0
C601 C 0.87534 0.84509 0.41173 0.0
C602 C 0.79369 0.76019 0.38535 0.0
C603 C 0.75845 0.7563 0.38444 0.0
C604 C 0.75447 0.78711 0.38049 0.0
C605 C 0.78612 0.82122 0.37634 0.0
C606 C 0.82121 0.82498 0.37714 0.0
H607 H 0.89309 0.85487 0.42425 0.0
H608 H 0.87799 0.86972 0.40447 0.0
H609 H 0.84607 0.8276 0.41611 0.0
H610 H 0.79639 0.73653 0.38917 0.0
H611 H 0.73457 0.72972 0.38773 0.0
H612 H 0.93025 0.78353 0.87297 0.0
H613 H 0.98507 0.84512 0.87284 0.0
H614 H 0.05344 0.79738 0.88544 0.0
H615 H -0.00126 0.73546 0.88513 0.0
H616 H 0.02763 0.87652 0.90272 0.0
H617 H 0.11386 0.87144 0.84595 0.0
H618 H 0.06547 0.83735 0.84844 0.0
H619 H 0.09985 0.83404 0.86201 0.0
C620 C 0.95708 0.78606 0.8753 0.0
C621 C 0.96027 0.75471 0.87908 0.0
C622 C 0.98833 0.82127 0.87525 0.0
C623 C 0.02331 0.8258 0.87901 0.0
C624 C 0.0268 0.79444 0.88211 0.0
H625 H 0.23657 0.00206 0.91014 0.0
H626 H 0.17879 0.9438 0.90555 0.0
C627 C 0.99552 0.75909 0.88198 0.0
C628 C 0.05544 0.86342 0.88148 0.0
H629 H 0.1445 0.92087 0.86777 0.0
C630 C 0.05303 0.88643 0.89491 0.0
C631 C 0.08847 0.87622 0.87126 0.0
C632 C 0.09201 0.85361 0.85598 0.0
C633 C 0.08327 0.92149 0.8988 0.0
C634 C 0.11655 0.93371 0.88898 0.0
C635 C 0.11882 0.91112 0.87532 0.0
C636 C 0.14996 0.96933 0.89313 0.0
C637 C 0.07995 0.94483 0.91375 0.0
C638 C 0.15238 0.00287 0.88797 0.0
C639 C 0.18548 0.03625 0.89047 0.0
C640 C 0.21655 0.03638 0.8981 0.0
C641 C 0.21331 0.00275 0.90396 0.0
C642 C 0.18036 0.96951 0.90141 0.0
H643 H 0.05374 0.92939 0.92165 0.0
H644 H 0.10362 0.95481 0.92347 0.0
H645 H 0.08082 0.96949 0.90743 0.0
H646 H 0.12912 0.00308 0.88144 0.0
H647 H 0.18722 0.06162 0.88564 0.0
H648 H 0.2358 0.24398 0.4059 0.0
H649 H 0.23812 0.18698 0.40274 0.0
H650 H 0.12508 0.13 0.38354 0.0
H651 H 0.12303 0.18759 0.38607 0.0
H652 H 0.19674 0.11768 0.41799 0.0
H653 H 0.18071 0.11304 0.34167 0.0
H654 H 0.19025 0.15324 0.35513 0.0
H655 H 0.14425 0.11389 0.35443 0.0
C656 C 0.21142 0.21933 0.401 0.0
C657 C 0.17944 0.22039 0.39594 0.0
C658 C 0.21273 0.18675 0.3993 0.0
C659 C 0.18208 0.15456 0.39251 0.0
C660 C 0.14932 0.15485 0.38841 0.0
H661 H 0.15077 0.93641 0.3731 0.0
H662 H 0.14438 0.99143 0.37448 0.0
C663 C 0.14801 0.18759 0.39009 0.0
C664 C 0.18521 0.12122 0.38933 0.0
H665 H 0.18474 0.06388 0.35556 0.0
C666 C 0.19409 0.10588 0.40435 0.0
C667 C 0.18194 0.10611 0.37147 0.0
C668 C 0.17408 0.12253 0.3547 0.0
C669 C 0.19963 0.07566 0.40203 0.0
C670 C 0.1966 0.06075 0.38418 0.0
C671 C 0.18726 0.07569 0.36918 0.0
C672 C 0.20191 0.02878 0.38103 0.0
C673 C 0.20825 0.05957 0.41869 0.0
C674 C 0.23677 0.03203 0.38354 0.0
C675 C 0.24065 0.00067 0.38265 0.0
C676 C 0.2096 0.96567 0.37933 0.0
C677 C 0.17518 0.96298 0.37578 0.0
C678 C 0.17143 0.99434 0.37656 0.0
H679 H 0.20274 0.06969 0.43182 0.0
H680 H 0.19165 0.02886 0.41849 0.0
H681 H 0.23795 0.06762 0.41843 0.0
H682 H 0.26068 0.05862 0.3868 0.0
H683 H 0.26747 0.00357 0.38548 0.0
H684 H 0.21194 0.1472 0.87156 0.0
H685 H 0.15073 0.14126 0.87123 0.0
H686 H 0.19981 0.25779 0.88323 0.0
H687 H 0.26139 0.26415 0.88314 0.0
H688 H 0.1203 0.15381 0.90123 0.0
H689 H 0.12541 0.24384 0.8437 0.0
H690 H 0.15907 0.229 0.84626 0.0
H691 H 0.1631 0.2672 0.85962 0.0
C692 C 0.20979 0.17176 0.8737 0.0
C693 C 0.2414 0.20616 0.87741 0.0
C694 C 0.1748 0.16829 0.87353 0.0
C695 C 0.17075 0.19908 0.87711 0.0
C696 C 0.20239 0.23381 0.88006 0.0
H697 H 0.99421 0.2378 0.90586 0.0
H698 H 0.05273 0.23868 0.90167 0.0
C699 C 0.23754 0.23741 0.88005 0.0
C700 C 0.13333 0.19402 0.87961 0.0
H701 H 0.07597 0.22537 0.86539 0.0
C702 C 0.11041 0.16911 0.89324 0.0
C703 C 0.12058 0.21406 0.86918 0.0
C704 C 0.14318 0.23975 0.85375 0.0
C705 C 0.07543 0.1645 0.89708 0.0
C706 C 0.06315 0.18522 0.88696 0.0
C707 C 0.08573 0.20967 0.87315 0.0
C708 C 0.02742 0.18296 0.89089 0.0
C709 C 0.05227 0.13842 0.91226 0.0
C710 C 0.99391 0.151 0.88652 0.0
C711 C 0.96037 0.15046 0.88882 0.0
C712 C 0.96005 0.18199 0.89542 0.0
C713 C 0.99367 0.21333 0.90048 0.0
C714 C 0.02706 0.21387 0.89814 0.0
H715 H 0.06819 0.12891 0.92069 0.0
H716 H 0.04136 0.152 0.92148 0.0
H717 H 0.02825 0.11375 0.90609 0.0
H718 H 0.9938 0.127 0.88075 0.0
H719 H 0.93498 0.12608 0.88462 0.0
H720 H 0.05946 0.21482 0.37003 0.0
H721 H 0.00459 0.1533 0.37005 0.0
H722 H 0.93738 0.2006 0.38586 0.0
H723 H 0.99216 0.26252 0.38553 0.0
H724 H 0.96436 0.12211 0.40129 0.0
H725 H 0.87442 0.12681 0.34623 0.0
H726 H 0.92311 0.16053 0.34788 0.0
H727 H 0.89017 0.16432 0.36238 0.0
C728 C 0.03284 0.21225 0.37308 0.0
C729 C 0.03004 0.24342 0.37784 0.0
C730 C 0.00158 0.17708 0.37311 0.0
C731 C 0.96699 0.17246 0.37789 0.0
C732 C 0.96375 0.20369 0.3818 0.0
H733 H 0.75362 0.99231 0.40664 0.0
H734 H 0.81068 0.05167 0.40305 0.0
C735 C 0.99506 0.23902 0.38164 0.0
C736 C 0.93522 0.13481 0.3806 0.0
H737 H 0.84595 0.07652 0.36755 0.0
C738 C 0.93857 0.11194 0.39378 0.0
C739 C 0.90171 0.12178 0.37079 0.0
C740 C 0.89716 0.14449 0.3559 0.0
C741 C 0.90884 0.07665 0.39779 0.0
C742 C 0.87515 0.06398 0.38825 0.0
C743 C 0.87193 0.08657 0.37488 0.0
C744 C 0.84235 0.02776 0.39224 0.0
C745 C 0.91325 0.0536 0.41254 0.0
C746 C 0.84174 0.99474 0.38775 0.0
C747 C 0.80911 0.96075 0.38978 0.0
C748 C 0.77673 0.95952 0.39617 0.0
C749 C 0.77807 0.99258 0.40144 0.0
C750 C 0.81057 0.02641 0.39943 0.0
H751 H 0.93862 0.07008 0.42094 0.0
H752 H 0.88886 0.04124 0.42187 0.0
H753 H 0.91514 0.03061 0.40595 0.0
H754 H 0.866 0.99539 0.38198 0.0
H755 H 0.80871 0.93573 0.38543 0.0
H756 H 0.75648 0.75354 0.90921 0.0
H757 H 0.75511 0.81095 0.9054 0.0
H758 H 0.86689 0.86494 0.88453 0.0
H759 H 0.86795 0.80702 0.88767 0.0
H760 H 0.79838 0.88108 0.9194 0.0
H761 H 0.80967 0.88032 0.84295 0.0
H762 H 0.80026 0.84084 0.85701 0.0
H763 H 0.84656 0.8795 0.85533 0.0
C764 C 0.78078 0.77763 0.90382 0.0
C765 C 0.81209 0.7756 0.89846 0.0
C766 C 0.78002 0.81044 0.90174 0.0
C767 C 0.81057 0.84186 0.89429 0.0
C768 C 0.84272 0.84066 0.88991 0.0
H769 H 0.84736 0.06151 0.87367 0.0
H770 H 0.85229 0.00565 0.87545 0.0
C771 C 0.84347 0.80772 0.89195 0.0
C772 C 0.80803 0.87537 0.89071 0.0
H773 H 0.80856 0.93156 0.85626 0.0
C774 C 0.8006 0.89213 0.9056 0.0
C775 C 0.81071 0.88948 0.87265 0.0
C776 C 0.81691 0.87148 0.85602 0.0
C777 C 0.79603 0.92286 0.90295 0.0
C778 C 0.79863 0.93685 0.88492 0.0
C779 C 0.80642 0.92044 0.87003 0.0
C780 C 0.79431 0.96927 0.88146 0.0
C781 C 0.78882 0.94046 0.91943 0.0
C782 C 0.75973 0.96678 0.88357 0.0
C783 C 0.75669 -0.00141 0.88245 0.0
C784 C 0.78832 0.03326 0.87933 0.0
C785 C 0.82253 0.0352 0.8762 0.0
C786 C 0.82544 0.00339 0.87719 0.0
H787 H 0.79375 0.93021 0.93268 0.0
H788 H 0.80674 0.97105 0.91894 0.0
H789 H 0.75958 0.93398 0.91916 0.0
H790 H 0.73538 0.94046 0.88672 0.0
H791 H 0.73002 0.99627 0.88495 0.0
H792 H 0.14503 0.69611 0.11325 0.0
H793 H 0.14116 0.63611 0.11237 0.0
H794 H 0.04035 0.58857 0.14416 0.0
H795 H 0.04401 0.64937 0.14521 0.0
H796 H 0.09724 0.57144 0.1567 0.0
H797 H 0.06616 0.54453 0.08216 0.0
H798 H 0.10411 0.59013 0.08678 0.0
H799 H 0.0585 0.57735 0.09489 0.0
C800 C 0.12182 0.673 0.12001 0.0
C801 C 0.09472 0.67752 0.12927 0.0
C802 C 0.11961 0.63863 0.11941 0.0
C803 C 0.09026 0.60789 0.12798 0.0
C804 C 0.06309 0.61204 0.13734 0.0
H805 H 0.08303 0.39936 0.10395 0.0
H806 H 0.06263 0.44388 0.11018 0.0
C807 C 0.06515 0.64666 0.13788 0.0
C808 C 0.08933 0.57201 0.12736 0.0
H809 H 0.09326 0.51204 0.09678 0.0
C810 C 0.09561 0.55788 0.14368 0.0
C811 C 0.08677 0.55422 0.11039 0.0
C812 C 0.07814 0.5671 0.09258 0.0
C813 C 0.10166 0.52763 0.14329 0.0
C814 C 0.10204 0.51172 0.1261 0.0
C815 C 0.09346 0.5245 0.10995 0.0
C816 C 0.11294 0.48304 0.12425 0.0
C817 C 0.10807 0.51339 0.16124 0.0
C818 C 0.14798 0.49012 0.13016 0.0
C819 C 0.15971 0.46463 0.12662 0.0
C820 C 0.13685 0.43193 0.11682 0.0
C821 C 0.10153 0.42462 0.11124 0.0
C822 C 0.08972 0.4499 0.11491 0.0
H823 H 0.09496 0.51965 0.17298 0.0
H824 H 0.097 0.48304 0.16071 0.0
H825 H 0.13825 0.52723 0.164 0.0
H826 H 0.1668 0.51595 0.13695 0.0
H827 H 0.18715 0.47111 0.13093 0.0
H828 H 0.78314 0.24942 0.63371 0.0
H829 H 0.71768 0.23133 0.63713 0.0
H830 H 0.68718 0.14108 0.59909 0.0
H831 H 0.75214 0.15844 0.59591 0.0
H832 H 0.65643 0.21588 0.61286 0.0
H833 H 0.63945 0.09071 0.64869 0.0
H834 H 0.68424 0.13025 0.64375 0.0
H835 H 0.65887 0.09699 0.62598 0.0
C836 C 0.76254 0.22649 0.62563 0.0
C837 C 0.77251 0.20498 0.61474 0.0
C838 C 0.72522 0.21607 0.62768 0.0
C839 C 0.69772 0.18427 0.61876 0.0
C840 C 0.70804 0.16518 0.60642 0.0
H841 H 0.46186 0.05221 0.61469 0.0
H842 H 0.52881 0.0785 0.6124 0.0
C843 C 0.74512 0.17528 0.60452 0.0
C844 C 0.6583 0.16874 0.62358 0.0
H845 H 0.58416 0.09135 0.64136 0.0
C846 C 0.64063 0.18884 0.61924 0.0
C847 C 0.63801 0.13359 0.63209 0.0
C848 C 0.65614 0.11174 0.63808 0.0
C849 C 0.60262 0.17391 0.6225 0.0
C850 C 0.58215 0.13825 0.63044 0.0
C851 C 0.60003 0.11859 0.63518 0.0
C852 C 0.54181 0.12031 0.63326 0.0
C853 C 0.5843 0.19579 0.61693 0.0
C854 C 0.52715 0.13418 0.64633 0.0
C855 C 0.4889 0.11891 0.64785 0.0
C856 C 0.4647 0.08965 0.63626 0.0
C857 C 0.47957 0.0745 0.62391 0.0
C858 C 0.51784 0.08969 0.62246 0.0
H859 H 0.60266 0.22008 0.60823 0.0
H860 H 0.5583 0.17797 0.60923 0.0
H861 H 0.57701 0.20594 0.62951 0.0
H862 H 0.54531 0.15733 0.65505 0.0
H863 H 0.47828 0.13071 0.65775 0.0
H864 H 0.59007 0.68517 0.10153 0.0
H865 H 0.54059 0.62134 0.10606 0.0
H866 H 0.47549 0.66012 0.13429 0.0
H867 H 0.52492 0.72429 0.12971 0.0
H868 H 0.47542 0.5977 0.1514 0.0
H869 H 0.44312 0.57673 0.07638 0.0
H870 H 0.49055 0.59272 0.08238 0.0
H871 H 0.47116 0.62205 0.08639 0.0
C872 C 0.56517 0.68023 0.1086 0.0
C873 C 0.56126 0.70993 0.11502 0.0
C874 C 0.53699 0.64368 0.11125 0.0
C875 C 0.50421 0.63605 0.12027 0.0
C876 C 0.50062 0.66547 0.12726 0.0
H877 H 0.28578 0.45383 0.11613 0.0
H878 H 0.34411 0.51192 0.11504 0.0
C879 C 0.52888 0.70211 0.12466 0.0
C880 C 0.47305 0.5975 0.12172 0.0
H881 H 0.40922 0.52536 0.09581 0.0
C882 C 0.46104 0.58171 0.13927 0.0
C883 C 0.45431 0.57688 0.10584 0.0
C884 C 0.46513 0.59293 0.08667 0.0
C885 C 0.4304 0.54591 0.14136 0.0
C886 C 0.41158 0.52545 0.12548 0.0
C887 C 0.424 0.54103 0.10795 0.0
C888 C 0.37656 0.48958 0.12669 0.0
C889 C 0.41745 0.53072 0.16051 0.0
C890 C 0.37546 0.45754 0.13355 0.0
C891 C 0.34185 0.42387 0.13419 0.0
C892 C 0.30897 0.42191 0.12795 0.0
C893 C 0.31047 0.45419 0.12107 0.0
C894 C 0.34384 0.48753 0.12041 0.0
H895 H 0.43187 0.55204 0.17135 0.0
H896 H 0.38717 0.51957 0.16181 0.0
H897 H 0.42284 0.50761 0.16304 0.0
H898 H 0.40058 0.45851 0.13826 0.0
H899 H 0.34161 0.39951 0.13955 0.0
H900 H 0.7365 0.53107 0.63119 0.0
H901 H 0.75048 0.48053 0.63272 0.0
H902 H 0.84712 0.54367 0.59886 0.0
H903 H 0.83356 0.59413 0.59732 0.0
H904 H 0.80262 0.46191 0.59202 0.0
H905 H 0.84599 0.50526 0.66481 0.0
H906 H 0.80046 0.49557 0.65807 0.0
H907 H 0.84046 0.53471 0.6484 0.0
C908 C 0.76001 0.53361 0.62358 0.0
C909 C 0.78421 0.56659 0.61429 0.0
C910 C 0.76808 0.5049 0.62458 0.0
C911 C 0.80011 0.50884 0.61613 0.0
C912 C 0.82238 0.54032 0.60552 0.0
H913 H 0.94403 0.41853 0.63403 0.0
H914 H 0.91691 0.45871 0.63048 0.0
C915 C 0.81458 0.56907 0.60465 0.0
C916 C 0.81302 0.48244 0.61988 0.0
H917 H 0.85512 0.45793 0.65294 0.0
C918 C 0.81373 0.46065 0.60536 0.0
C919 C 0.82814 0.48166 0.63724 0.0
C920 C 0.82907 0.50565 0.65306 0.0
C921 C 0.82924 0.43789 0.60777 0.0
C922 C 0.84426 0.43705 0.62514 0.0
C923 C 0.84351 0.45879 0.63967 0.0
C924 C 0.86054 0.41334 0.62845 0.0
C925 C 0.8302 0.41547 0.59167 0.0
C926 C 0.83763 0.37489 0.62888 0.0
C927 C 0.8529 0.35211 0.63091 0.0
C928 C 0.89148 0.36738 0.63262 0.0
C929 C 0.91432 0.40607 0.63268 0.0
C930 C 0.8989 0.42894 0.63071 0.0
H931 H 0.82372 0.42437 0.5784 0.0
H932 H 0.85783 0.41779 0.59055 0.0
H933 H 0.80944 0.38586 0.59389 0.0
H934 H 0.80794 0.36247 0.62727 0.0
H935 H 0.83441 0.32249 0.63039 0.0
H936 H 0.54423 0.83538 0.11503 0.0
H937 H 0.48455 0.83233 0.11577 0.0
H938 H 0.53255 0.93504 0.14607 0.0
H939 H 0.5932 0.93869 0.14518 0.0
H940 H 0.44438 0.82964 0.14717 0.0
H941 H 0.47789 0.95154 0.10278 0.0
H942 H 0.50702 0.931 0.1037 0.0
H943 H 0.50729 0.95927 0.12242 0.0
C944 C 0.54234 0.85753 0.12179 0.0
C945 C 0.57352 0.88735 0.13004 0.0
C946 C 0.50812 0.85566 0.12223 0.0
C947 C 0.50418 0.88348 0.13091 0.0
C948 C 0.53518 0.91351 0.1391 0.0
H949 H 0.27578 0.8388 0.14608 0.0
H950 H 0.3398 0.85559 0.15295 0.0
C951 C 0.56972 0.91551 0.13861 0.0
C952 C 0.46716 0.88004 0.13139 0.0
H953 H 0.4163 0.91545 0.11275 0.0
C954 C 0.43821 0.84863 0.13987 0.0
C955 C 0.45938 0.90482 0.12174 0.0
C956 C 0.48937 0.93848 0.11201 0.0
C957 C 0.40137 0.84039 0.1383 0.0
C958 C 0.39345 0.8647 0.12828 0.0
C959 C 0.42257 0.89694 0.12044 0.0
C960 C 0.35496 0.85555 0.1244 0.0
C961 C 0.37114 0.80475 0.14651 0.0
C962 C 0.34253 0.85064 0.10607 0.0
C963 C 0.30613 0.84122 0.10212 0.0
C964 C 0.28143 0.83648 0.11642 0.0
C965 C 0.29398 0.84155 0.13479 0.0
C966 C 0.33054 0.85125 0.13874 0.0
H967 H 0.3813 0.7856 0.15036 0.0
H968 H 0.3604 0.81108 0.15917 0.0
H969 H 0.34777 0.79032 0.13668 0.0
H970 H 0.36093 0.85371 0.09481 0.0
H971 H 0.29718 0.83723 0.08786 0.0
H972 H 0.6468 0.51572 0.65764 0.0
H973 H 0.60715 0.44856 0.65496 0.0
H974 H 0.54469 0.46377 0.61189 0.0
H975 H 0.5846 0.53086 0.61417 0.0
H976 H 0.50212 0.40879 0.64063 0.0
H977 H 0.61352 0.39046 0.60895 0.0
H978 H 0.6245 0.41629 0.63015 0.0
H979 H 0.61562 0.43476 0.60967 0.0
C980 C 0.62455 0.50479 0.64764 0.0
C981 C 0.6192 0.52869 0.63596 0.0
C982 C 0.602 0.46646 0.64612 0.0
C983 C 0.57362 0.45138 0.63296 0.0
C984 C 0.56674 0.47503 0.62203 0.0
H985 H 0.40292 0.23976 0.596 0.0
H986 H 0.45053 0.3048 0.59888 0.0
C987 C 0.58938 0.51339 0.62347 0.0
C988 C 0.55145 0.41093 0.63028 0.0
H989 H 0.55568 0.33647 0.61368 0.0
C990 C 0.51378 0.39292 0.63478 0.0
C991 C 0.567 0.39044 0.62278 0.0
C992 C 0.60733 0.40885 0.61747 0.0
C993 C 0.49104 0.35482 0.63189 0.0
C994 C 0.50627 0.33448 0.62382 0.0
C995 C 0.54415 0.35229 0.61972 0.0
C996 C 0.48261 0.29489 0.61918 0.0
C997 C 0.4509 0.33661 0.63759 0.0
C998 C 0.48661 0.26765 0.62858 0.0
C999 C 0.4597 0.23024 0.6267 0.0
C1000 C 0.42853 0.21995 0.61549 0.0
C1001 C 0.42657 0.24703 0.60482 0.0
C1002 C 0.45356 0.28418 0.60655 0.0
H1003 H 0.44617 0.35351 0.64791 0.0
H1004 H 0.43367 0.33341 0.6253 0.0
H1005 H 0.44133 0.30871 0.64351 0.0
H1006 H 0.5091 0.27548 0.63827 0.0
H1007 H 0.46171 0.20988 0.63514 0.0
H1008 H 0.35271 0.87027 0.36141 0.0
H1009 H 0.38999 0.84033 0.36456 0.0
H1010 H 0.44859 0.91219 0.41027 0.0
H1011 H 0.4104 0.94119 0.40771 0.0
H1012 H 0.4642 0.8654 0.36334 0.0
H1013 H 0.40876 0.80984 0.43284 0.0
H1014 H 0.38855 0.82986 0.41806 0.0
H1015 H 0.42925 0.8592 0.43143 0.0
C1016 C 0.3736 0.87977 0.3721 0.0
C1017 C 0.37811 0.90769 0.3845 0.0
C1018 C 0.39493 0.8627 0.37385 0.0
C1019 C 0.42122 0.87329 0.38801 0.0
C1020 C 0.42764 0.90288 0.39959 0.0
H1021 H 0.5941 0.83629 0.4194 0.0
H1022 H 0.54449 0.85101 0.4173 0.0
C1023 C 0.40619 0.91986 0.39791 0.0
C1024 C 0.44155 0.85305 0.39081 0.0
H1025 H 0.46142 0.8058 0.42309 0.0
C1026 C 0.46323 0.85194 0.3763 0.0
C1027 C 0.43981 0.8351 0.40769 0.0
C1028 C 0.41504 0.83317 0.42333 0.0
C1029 C 0.48468 0.83492 0.37854 0.0
C1030 C 0.48411 0.81838 0.39566 0.0
C1031 C 0.4616 0.81845 0.40998 0.0
C1032 C 0.50998 0.8048 0.3995 0.0
C1033 C 0.50908 0.83608 0.36288 0.0
C1034 C 0.50601 0.77288 0.39087 0.0
C1035 C 0.53423 0.76412 0.39221 0.0
C1036 C 0.56679 0.78751 0.40202 0.0
C1037 C 0.56934 0.81789 0.4117 0.0
C1038 C 0.54107 0.82634 0.41051 0.0
H1039 H 0.5092 0.85335 0.35117 0.0
H1040 H 0.53795 0.84721 0.36779 0.0
H1041 H 0.49906 0.80757 0.35773 0.0
H1042 H 0.48198 0.75586 0.3824 0.0
H1043 H 0.53172 0.74071 0.38453 0.0
H1044 H 0.75468 0.58978 0.92088 0.0
H1045 H 0.68997 0.54154 0.91787 0.0
H1046 H 0.7209 0.48412 0.87857 0.0
H1047 H 0.7861 0.53213 0.88186 0.0
H1048 H 0.65733 0.53235 0.88338 0.0
H1049 H 0.64037 0.39929 0.90947 0.0
H1050 H 0.67915 0.44367 0.91589 0.0
H1051 H 0.67791 0.42434 0.89359 0.0
C1052 C 0.74784 0.56617 0.91211 0.0
C1053 C 0.77526 0.56469 0.90154 0.0
C1054 C 0.71088 0.53873 0.91035 0.0
C1055 C 0.70066 0.50941 0.89794 0.0
C1056 C 0.72828 0.50628 0.88841 0.0
H1057 H 0.48063 0.3461 0.8587 0.0
H1058 H 0.54771 0.38655 0.86118 0.0
C1059 C 0.7655 0.53366 0.89032 0.0
C1060 C 0.66112 0.48558 0.89321 0.0
H1061 H 0.58878 0.39688 0.89443 0.0
C1062 C 0.64232 0.50272 0.88582 0.0
C1063 C 0.64185 0.44693 0.89616 0.0
C1064 C 0.66066 0.42736 0.90434 0.0
C1065 C 0.60456 0.48232 0.88155 0.0
C1066 C 0.58503 0.44386 0.88497 0.0
C1067 C 0.60396 0.42646 0.89187 0.0
C1068 C 0.54456 0.42146 0.8823 0.0
C1069 C 0.58589 0.50206 0.87337 0.0
C1070 C 0.5207 0.42819 0.89313 0.0
C1071 C 0.48241 0.40509 0.89182 0.0
C1072 C 0.46734 0.37467 0.87971 0.0
C1073 C 0.49139 0.369 0.86833 0.0
C1074 C 0.52968 0.39205 0.8697 0.0
H1075 H 0.60625 0.52895 0.86706 0.0
H1076 H 0.56536 0.48474 0.8627 0.0
H1077 H 0.57105 0.50775 0.88444 0.0
H1078 H 0.53174 0.45049 0.90313 0.0
H1079 H 0.46483 0.40996 0.90098 0.0
H1080 H 0.25341 0.78818 0.38247 0.0
H1081 H 0.23411 0.72221 0.37988 0.0
H1082 H 0.1492 0.69584 0.42066 0.0
H1083 H 0.16768 0.76124 0.42297 0.0
H1084 H 0.22059 0.66206 0.40464 0.0
H1085 H 0.09217 0.64549 0.3728 0.0
H1086 H 0.13277 0.69018 0.37649 0.0
H1087 H 0.10163 0.6664 0.39527 0.0
C1088 C 0.23151 0.76839 0.39133 0.0
C1089 C 0.21171 0.77957 0.40277 0.0
C1090 C 0.22037 0.73077 0.38975 0.0
C1091 C 0.18959 0.70424 0.3997 0.0
C1092 C 0.17246 0.71589 0.41256 0.0
H1093 H 0.05416 0.46836 0.40715 0.0
H1094 H 0.0821 0.53559 0.40918 0.0
C1095 C 0.18322 0.75323 0.41397 0.0
C1096 C 0.17277 0.66439 0.39543 0.0
H1097 H 0.09252 0.59006 0.38012 0.0
C1098 C 0.19275 0.64631 0.39914 0.0
C1099 C 0.13654 0.64411 0.38805 0.0
C1100 C 0.11462 0.66255 0.38273 0.0
C1101 C 0.17677 0.608 0.39635 0.0
C1102 C 0.14012 0.58762 0.38955 0.0
C1103 C 0.12051 0.60586 0.38545 0.0
C1104 C 0.12127 0.54708 0.38711 0.0
C1105 C 0.19867 0.58933 0.40119 0.0
C1106 C 0.13308 0.53147 0.3735 0.0
C1107 C 0.11684 0.49308 0.37213 0.0
C1108 C 0.08863 0.46964 0.38442 0.0
C1109 C 0.07557 0.48547 0.39739 0.0
C1110 C 0.09173 0.5239 0.39869 0.0
H1111 H 0.22408 0.60782 0.40917 0.0
H1112 H 0.18147 0.56383 0.40936 0.0
H1113 H 0.20706 0.58112 0.38831 0.0
H1114 H 0.15534 0.54901 0.36419 0.0
H1115 H 0.12702 0.48175 0.36175 0.0
H1116 H 0.58619 0.05381 0.90464 0.0
H1117 H 0.54524 0.07967 0.90693 0.0
H1118 H 0.60548 0.15679 0.86327 0.0
H1119 H 0.64625 0.13061 0.86062 0.0
H1120 H 0.59673 0.18927 0.89674 0.0
H1121 H 0.46416 0.07224 0.87116 0.0
H1122 H 0.48704 0.05984 0.88839 0.0
H1123 H 0.50848 0.07628 0.86626 0.0
C1124 C 0.59017 0.07553 0.89516 0.0
C1125 C 0.61966 0.09023 0.88249 0.0
C1126 C 0.56683 0.09042 0.89656 0.0
C1127 C 0.57242 0.1201 0.88527 0.0
C1128 C 0.60089 0.13398 0.87215 0.0
H1129 H 0.46277 0.25145 0.88257 0.0
H1130 H 0.51029 0.23348 0.88014 0.0
C1131 C 0.62415 0.11901 0.87069 0.0
C1132 C 0.54978 0.1379 0.88789 0.0
H1133 H 0.46107 0.12101 0.88631 0.0
C1134 C 0.56708 0.17454 0.89436 0.0
C1135 C 0.51124 0.11852 0.88472 0.0
C1136 C 0.49158 0.07965 0.87709 0.0
C1137 C 0.5465 0.19195 0.89835 0.0
C1138 C 0.50781 0.17227 0.89552 0.0
C1139 C 0.49073 0.13591 0.88866 0.0
C1140 C 0.48395 0.18825 0.89965 0.0
C1141 C 0.56609 0.23074 0.90607 0.0
C1142 C 0.4541 0.16952 0.91181 0.0
C1143 C 0.42689 0.17946 0.91306 0.0
C1144 C 0.42916 0.20845 0.90223 0.0
C1145 C 0.46064 0.22929 0.89123 0.0
C1146 C 0.48776 0.21901 0.88982 0.0
H1147 H 0.59382 0.2384 0.91167 0.0
H1148 H 0.56997 0.25057 0.8949 0.0
H1149 H 0.54948 0.23378 0.91717 0.0
H1150 H 0.45074 0.14581 0.91956 0.0
H1151 H 0.4029 0.16298 0.92166 0.0
H1152 H 0.20538 0.46609 0.38627 0.0
H1153 H 0.27044 0.51574 0.38519 0.0
H1154 H 0.30092 0.45093 0.41966 0.0
H1155 H 0.23641 0.40137 0.42071 0.0
H1156 H 0.33908 0.53328 0.42658 0.0
H1157 H 0.34142 0.48888 0.35424 0.0
H1158 H 0.30565 0.49906 0.36045 0.0
H1159 H 0.3057 0.45974 0.37042 0.0
C1160 C 0.22582 0.46302 0.39409 0.0
C1161 C 0.21607 0.42986 0.40343 0.0
C1162 C 0.26289 0.4912 0.39336 0.0
C1163 C 0.29028 0.48654 0.40214 0.0
C1164 C 0.28008 0.45484 0.41276 0.0
H1165 H 0.52513 0.57364 0.38733 0.0
H1166 H 0.45764 0.53406 0.39062 0.0
C1167 C 0.24327 0.42662 0.41334 0.0
C1168 C 0.32989 0.5124 0.39878 0.0
H1169 H 0.39781 0.53534 0.36666 0.0
C1170 C 0.35196 0.53413 0.41345 0.0
C1171 C 0.34642 0.51264 0.38171 0.0
C1172 C 0.32379 0.48874 0.36577 0.0
C1173 C 0.39041 0.5563 0.41145 0.0
C1174 C 0.40691 0.55656 0.39437 0.0
C1175 C 0.38486 0.53488 0.37971 0.0
C1176 C 0.4471 0.57983 0.39146 0.0
C1177 C 0.4133 0.57879 0.42767 0.0
C1178 C 0.46298 0.61828 0.3905 0.0
C1179 C 0.50111 0.64069 0.38859 0.0
C1180 C 0.52418 0.62506 0.38754 0.0
C1181 C 0.50804 0.58636 0.38813 0.0
C1182 C 0.46966 0.56384 0.38997 0.0
H1183 H 0.39726 0.57051 0.44075 0.0
H1184 H 0.43812 0.57577 0.42934 0.0
H1185 H 0.42299 0.6085 0.42514 0.0
H1186 H 0.44588 0.63099 0.39154 0.0
H1187 H 0.51249 0.67036 0.38862 0.0
H1188 H 0.86533 0.51634 0.85932 0.0
H1189 H 0.83598 0.44915 0.86259 0.0
H1190 H 0.91084 0.46351 0.90702 0.0
H1191 H 0.9393 0.53062 0.90435 0.0
H1192 H 0.86169 0.40021 0.86077 0.0
H1193 H 0.80962 0.40122 0.93101 0.0
H1194 H 0.82849 0.44108 0.91599 0.0
H1195 H 0.85883 0.43044 0.92892 0.0
C1196 C 0.87563 0.50518 0.86974 0.0
C1197 C 0.90424 0.52887 0.88177 0.0
C1198 C 0.8589 0.46682 0.87156 0.0
C1199 C 0.87052 0.45146 0.88542 0.0
C1200 C 0.90078 0.47491 0.89658 0.0
H1201 H 0.83671 0.24309 0.9174 0.0
H1202 H 0.85074 0.30719 0.91506 0.0
C1203 C 0.91744 0.5133 0.89483 0.0
C1204 C 0.85061 0.41095 0.88841 0.0
H1205 H 0.8055 0.34449 0.92124 0.0
C1206 C 0.84896 0.38793 0.8739 0.0
C1207 C 0.83363 0.39507 0.9055 0.0
C1208 C 0.83234 0.41818 0.92119 0.0
C1209 C 0.83238 0.34953 0.87632 0.0
C1210 C 0.81683 0.3339 0.89365 0.0
C1211 C 0.8174 0.35671 0.90798 0.0
C1212 C 0.80379 0.29461 0.89764 0.0
C1213 C 0.83299 0.32606 0.86063 0.0
C1214 C 0.77171 0.26626 0.88931 0.0
C1215 C 0.76336 0.22942 0.89078 0.0
C1216 C 0.78731 0.22078 0.90041 0.0
C1217 C 0.81788 0.24902 0.90981 0.0
C1218 C 0.82594 0.28562 0.9085 0.0
H1219 H 0.8497 0.34304 0.84875 0.0
H1220 H 0.84446 0.30852 0.8654 0.0
H1221 H 0.80429 0.30735 0.85578 0.0
H1222 H 0.7542 0.27284 0.88098 0.0
H1223 H 0.73972 0.20819 0.88333 0.0
H1224 H 0.18016 0.32861 0.33656 0.0
H1225 H 0.19 0.33321 0.30313 0.0
H1226 H 0.12954 0.39165 0.2982 0.0
H1227 H 0.11988 0.38757 0.3316 0.0
H1228 H 0.13329 0.30352 0.27662 0.0
H1229 H 0.22278 0.45553 0.26731 0.0
H1230 H 0.21614 0.43325 0.28948 0.0
H1231 H 0.18079 0.44104 0.28006 0.0
C1232 C 0.16939 0.34291 0.32841 0.0
C1233 C 0.14923 0.35771 0.33678 0.0
C1234 C 0.17498 0.34545 0.3093 0.0
C1235 C 0.16081 0.36308 0.29818 0.0
C1236 C 0.1413 0.37852 0.30652 0.0
H1237 H 0.16078 0.37607 0.17618 0.0
H1238 H 0.1488 0.38244 0.20892 0.0
C1239 C 0.13565 0.37596 0.32563 0.0
C1240 C 0.16441 0.36305 0.27778 0.0
H1241 H 0.20269 0.41909 0.24017 0.0
C1242 C 0.1484 0.32881 0.26866 0.0
C1243 C 0.18373 0.39609 0.26738 0.0
C1244 C 0.20213 0.43361 0.27651 0.0
C1245 C 0.15167 0.32665 0.2495 0.0
C1246 C 0.17196 0.35958 0.23916 0.0
C1247 C 0.18706 0.39392 0.24814 0.0
C1248 C 0.18063 0.35838 0.21941 0.0
C1249 C 0.13364 0.28903 0.24044 0.0
C1250 C 0.20319 0.34371 0.21458 0.0
C1251 C 0.21004 0.3401 0.1961 0.0
C1252 C 0.19458 0.35119 0.18192 0.0
C1253 C 0.17297 0.36716 0.18676 0.0
C1254 C 0.16612 0.37081 0.20542 0.0
H1255 H 0.11119 0.26765 0.24914 0.0
H1256 H 0.12196 0.28971 0.22676 0.0
H1257 H 0.15473 0.28061 0.2383 0.0
H1258 H 0.21514 0.33452 0.22516 0.0
H1259 H 0.22713 0.32802 0.19297 0.0
H1260 H 0.80716 0.13498 0.67818 0.0
H1261 H 0.79451 0.12618 0.71135 0.0
H1262 H 0.85571 0.24442 0.71943 0.0
H1263 H 0.86815 0.25353 0.68631 0.0
H1264 H 0.84636 0.14805 0.73953 0.0
H1265 H 0.75979 0.21361 0.74774 0.0
H1266 H 0.7691 0.20044 0.72552 0.0
H1267 H 0.80325 0.24248 0.73644 0.0
C1268 C 0.81757 0.15915 0.68697 0.0
C1269 C 0.83862 0.19497 0.67956 0.0
C1270 C 0.81037 0.15406 0.70594 0.0
C1271 C 0.8238 0.18464 0.71785 0.0
C1272 C 0.84445 0.22043 0.71047 0.0
H1273 H 0.85651 0.18379 0.83649 0.0
H1274 H 0.86405 0.19443 0.80315 0.0
C1275 C 0.85171 0.22556 0.69152 0.0
C1276 C 0.81786 0.17904 0.7381 0.0
H1277 H 0.78099 0.19932 0.77538 0.0
C1278 C 0.83195 0.15914 0.74735 0.0
C1279 C 0.79875 0.19323 0.74828 0.0
C1280 C 0.78153 0.21334 0.739 0.0
C1281 C 0.828 0.15356 0.76653 0.0
C1282 C 0.80993 0.16876 0.7768 0.0
C1283 C 0.79523 0.18808 0.76752 0.0
C1284 C 0.80538 0.16416 0.79715 0.0
C1285 C 0.84271 0.13094 0.7756 0.0
C1286 C 0.76987 0.14471 0.80492 0.0
C1287 C 0.76543 0.13871 0.82399 0.0
C1288 C 0.79648 0.15226 0.83568 0.0
C1289 C 0.83201 0.17279 0.8279 0.0
C1290 C 0.83639 0.17872 0.80882 0.0
H1291 H 0.84745 0.11384 0.76542 0.0
H1292 H 0.86954 0.14984 0.78236 0.0
H1293 H 0.8233 0.1124 0.78635 0.0
H1294 H 0.74555 0.13342 0.79618 0.0
H1295 H 0.73766 0.12292 0.82951 0.0
H1296 H 0.67171 0.90051 0.19418 0.0
H1297 H 0.66264 0.88043 0.22617 0.0
H1298 H 0.60974 0.76645 0.20866 0.0
H1299 H 0.61916 0.78648 0.17618 0.0
H1300 H 0.59692 0.83447 0.24514 0.0
H1301 H 0.69145 0.77634 0.24429 0.0
H1302 H 0.69146 0.80605 0.22616 0.0
H1303 H 0.65505 0.75863 0.22735 0.0
C1304 C 0.65812 0.87108 0.197 0.0
C1305 C 0.64635 0.84508 0.18254 0.0
C1306 C 0.65288 0.85968 0.21537 0.0
C1307 C 0.63587 0.82201 0.21984 0.0
C1308 C 0.62346 0.79573 0.20551 0.0
H1309 H 0.61486 0.7324 0.33167 0.0
H1310 H 0.6081 0.73748 0.29842 0.0
C1311 C 0.62868 0.80719 0.18698 0.0
C1312 C 0.63169 0.81107 0.2396 0.0
H1313 H 0.66431 0.77632 0.27271 0.0
C1314 C 0.61135 0.82141 0.25115 0.0
C1315 C 0.65052 0.79403 0.24742 0.0
C1316 C 0.6736 0.78327 0.23576 0.0
C1317 C 0.60998 0.81591 0.27033 0.0
C1318 C 0.62996 0.80018 0.27823 0.0
C1319 C 0.64915 0.78853 0.26663 0.0
C1320 C 0.63264 0.79703 0.29854 0.0
C1321 C 0.58724 0.82714 0.28197 0.0
C1322 C 0.64883 0.82887 0.30967 0.0
C1323 C 0.65277 0.82611 0.3287 0.0
C1324 C 0.64076 0.79143 0.33697 0.0
C1325 C 0.62435 0.75956 0.32578 0.0
C1326 C 0.6205 0.76237 0.30675 0.0
H1327 H 0.56553 0.82845 0.27366 0.0
H1328 H 0.57378 0.80755 0.29359 0.0
H1329 H 0.60562 0.85508 0.28781 0.0
H1330 H 0.65909 0.856 0.30359 0.0
H1331 H 0.6657 0.85122 0.33688 0.0
H1332 H 0.85649 0.66921 0.67963 0.0
H1333 H 0.86496 0.66541 0.71284 0.0
H1334 H 0.74667 0.60831 0.72062 0.0
H1335 H 0.73787 0.61158 0.68746 0.0
H1336 H 0.84262 0.69577 0.74067 0.0
H1337 H 0.77739 0.54371 0.74953 0.0
H1338 H 0.79075 0.5659 0.72723 0.0
H1339 H 0.74861 0.55811 0.73796 0.0
C1340 C 0.83223 0.65538 0.68836 0.0
C1341 C 0.79649 0.64064 0.68086 0.0
C1342 C 0.83714 0.65333 0.70735 0.0
C1343 C 0.80645 0.63626 0.7192 0.0
C1344 C 0.77073 0.621 0.71172 0.0
H1345 H 0.80921 0.6715 0.83806 0.0
H1346 H 0.79736 0.66796 0.80479 0.0
C1347 C 0.76578 0.62307 0.69274 0.0
C1348 C 0.81187 0.63623 0.73947 0.0
H1349 H 0.79184 0.57962 0.77698 0.0
C1350 C 0.83161 0.67038 0.7486 0.0
C1351 C 0.79774 0.60307 0.74979 0.0
C1352 C 0.77773 0.56559 0.74064 0.0
C1353 C 0.83723 0.6723 0.76779 0.0
C1354 C 0.82222 0.63917 0.77818 0.0
C1355 C 0.80293 0.60499 0.76902 0.0
C1356 C 0.82741 0.63948 0.79848 0.0
C1357 C 0.85979 0.70979 0.77672 0.0
C1358 C 0.84714 0.62355 0.80606 0.0
C1359 C 0.85381 0.62536 0.82505 0.0
C1360 C 0.84068 0.64299 0.8369 0.0
C1361 C 0.81988 0.65789 0.82933 0.0
C1362 C 0.81326 0.65609 0.81031 0.0
H1363 H 0.87656 0.7316 0.76644 0.0
H1364 H 0.84087 0.71758 0.78355 0.0
H1365 H 0.87863 0.70922 0.78737 0.0
H1366 H 0.85814 0.61042 0.7972 0.0
H1367 H 0.86979 0.61344 0.8304 0.0
H1368 H 0.20735 0.82423 0.17705 0.0
H1369 H 0.22734 0.83355 0.20956 0.0
H1370 H 0.11339 0.7707 0.22691 0.0
H1371 H 0.09338 0.76109 0.19492 0.0
H1372 H 0.20728 0.86838 0.23709 0.0
H1373 H 0.16204 0.72384 0.25697 0.0
H1374 H 0.1675 0.73869 0.23319 0.0
H1375 H 0.1261 0.72817 0.24569 0.0
C1376 C 0.18668 0.81204 0.18783 0.0
C1377 C 0.1488 0.79192 0.18337 0.0
C1378 C 0.1981 0.81741 0.20636 0.0
C1379 C 0.17185 0.80229 0.22065 0.0
C1380 C 0.13418 0.78192 0.21615 0.0
H1381 H 0.14515 0.8125 0.33721 0.0
H1382 H 0.13978 0.79989 0.30398 0.0
C1383 C 0.12279 0.77671 0.19778 0.0
C1384 C 0.18297 0.80947 0.24037 0.0
H1385 H 0.17108 0.76579 0.28182 0.0
C1386 C 0.20005 0.84606 0.24685 0.0
C1387 C 0.17332 0.78027 0.25309 0.0
C1388 C 0.15656 0.74057 0.24686 0.0
C1389 C 0.20601 0.85405 0.26581 0.0
C1390 C 0.19508 0.82468 0.27858 0.0
C1391 C 0.17918 0.78823 0.27203 0.0
C1392 C 0.19873 0.83116 0.29882 0.0
C1393 C 0.22237 0.89368 0.27209 0.0
C1394 C 0.23368 0.85225 0.30699 0.0
C1395 C 0.23685 0.85951 0.32594 0.0
C1396 C 0.20509 0.84567 0.33714 0.0
C1397 C 0.17014 0.82367 0.32899 0.0
C1398 C 0.16703 0.81642 0.31001 0.0
H1399 H 0.22187 0.91181 0.26098 0.0
H1400 H 0.20714 0.89554 0.28423 0.0
H1401 H 0.25161 0.90449 0.27623 0.0
H1402 H 0.25854 0.8633 0.29867 0.0
H1403 H 0.26422 0.87633 0.33177 0.0
H1404 H 0.30607 0.13855 0.83607 0.0
H1405 H 0.30979 0.13093 0.80283 0.0
H1406 H 0.40456 0.24108 0.79948 0.0
H1407 H 0.39967 0.24947 0.83255 0.0
H1408 H 0.36017 0.23251 0.77302 0.0
H1409 H 0.37572 0.10859 0.7732 0.0
H1410 H 0.33432 0.09965 0.78499 0.0
H1411 H 0.37883 0.13357 0.79405 0.0
C1412 C 0.32799 0.16094 0.82827 0.0
C1413 C 0.35265 0.19456 0.83692 0.0
C1414 C 0.33026 0.15648 0.80926 0.0
C1415 C 0.35792 0.18514 0.79859 0.0
C1416 C 0.38301 0.21849 0.80734 0.0
H1417 H 0.3979 0.14612 0.68462 0.0
H1418 H 0.40311 0.15897 0.71776 0.0
C1419 C 0.38026 0.22324 0.82627 0.0
C1420 C 0.35946 0.18127 0.7782 0.0
H1421 H 0.35852 0.12384 0.74435 0.0
C1422 C 0.36021 0.2089 0.76678 0.0
C1423 C 0.36016 0.15086 0.76993 0.0
C1424 C 0.36264 0.12174 0.7812 0.0
C1425 C 0.36089 0.20665 0.74745 0.0
C1426 C 0.35923 0.17509 0.73919 0.0
C1427 C 0.35928 0.14784 0.7506 0.0
C1428 C 0.35737 0.1696 0.7188 0.0
C1429 C 0.3642 0.23861 0.73618 0.0
C1430 C 0.33006 0.1714 0.70821 0.0
C1431 C 0.3276 0.16491 0.68917 0.0
C1432 C 0.35173 0.15539 0.68041 0.0
C1433 C 0.37892 0.1534 0.69099 0.0
C1434 C 0.38185 0.16064 0.70995 0.0
H1435 H 0.37792 0.26486 0.74417 0.0
H1436 H 0.3802 0.24254 0.72331 0.0
H1437 H 0.33611 0.23311 0.73243 0.0
H1438 H 0.31003 0.17702 0.71471 0.0
H1439 H 0.306 0.1661 0.68143 0.0
H1440 H 0.27436 0.17223 0.94879 0.0
H1441 H 0.25501 0.18749 0.97791 0.0
H1442 H 0.33108 0.30348 0.96846 0.0
H1443 H 0.35089 0.28859 0.93964 0.0
H1444 H 0.3338 0.28282 1.00403 0.0
H1445 H 0.18843 0.23315 0.98304 0.0
H1446 H 0.20261 0.19912 0.981 0.0
H1447 H 0.22398 0.23983 0.96674 0.0
C1448 C 0.28718 0.20095 0.953 0.0
C1449 C 0.31415 0.22915 0.94184 0.0
C1450 C 0.2758 0.20967 0.96955 0.0
C1451 C 0.29106 0.24672 0.9752 0.0
C1452 C 0.31871 0.27474 0.96434 0.0
H1453 H 0.2127 0.33733 0.06249 0.0
H1454 H 0.22941 0.32219 0.03245 0.0
C1455 C 0.33005 0.26611 0.94785 0.0
C1456 C 0.27886 0.25657 0.99253 0.0
H1457 H 0.20373 0.25143 0.01438 0.0
C1458 C 0.30537 0.27599 1.00626 0.0
C1459 C 0.24189 0.24829 0.99533 0.0
C1460 C 0.21259 0.22926 0.9807 0.0
C1461 C 0.29581 0.28662 0.02282 0.0
C1462 C 0.25859 0.27713 0.02591 0.0
C1463 C 0.23219 0.25847 0.01204 0.0
C1464 C 0.24656 0.28512 0.04379 0.0
C1465 C 0.32577 0.3082 0.03684 0.0
C1466 C 0.24979 0.26864 0.06 0.0
C1467 C 0.24036 0.27718 0.07704 0.0
C1468 C 0.22724 0.30233 0.07833 0.0
C1469 C 0.22285 0.318 0.06199 0.0
C1470 C 0.23236 0.30936 0.04484 0.0
H1471 H 0.35374 0.32178 0.03047 0.0
H1472 H 0.32156 0.32974 0.04356 0.0
H1473 H 0.32494 0.28903 0.04769 0.0
H1474 H 0.25996 0.24932 0.0595 0.0
H1475 H 0.24377 0.26421 0.08926 0.0
H1476 H 0.07421 0.35844 0.4454 0.0
H1477 H 0.03915 0.33695 0.47407 0.0
H1478 H 0.05123 0.24014 0.47322 0.0
H1479 H 0.08744 0.26215 0.44467 0.0
H1480 H 0.97386 0.27555 0.47856 0.0
H1481 H 0.07544 0.2709 0.52639 0.0
H1482 H 0.08875 0.29414 0.50436 0.0
H1483 H 0.06786 0.24461 0.50562 0.0
C1484 C 0.07006 0.3329 0.45148 0.0
C1485 C 0.08378 0.31208 0.44277 0.0
C1486 C 0.04984 0.32056 0.46787 0.0
C1487 C 0.04263 0.287 0.47595 0.0
C1488 C 0.05703 0.2665 0.46752 0.0
H1489 H 0.89965 0.16888 0.57059 0.0
H1490 H 0.93493 0.18305 0.54169 0.0
C1491 C 0.07769 0.27908 0.45116 0.0
C1492 C 0.01809 0.27278 0.49247 0.0
H1493 H 0.01399 0.24588 0.53744 0.0
C1494 C 0.98274 0.26909 0.49142 0.0
C1495 C 0.02946 0.26412 0.50927 0.0
C1496 C 0.06755 0.26893 0.5116 0.0
C1497 C 0.95873 0.25744 0.50667 0.0
C1498 C 0.97027 0.24926 0.52347 0.0
C1499 C 0.00519 0.25204 0.52448 0.0
C1500 C 0.94732 0.23991 0.54044 0.0
C1501 C 0.92114 0.25403 0.50475 0.0
C1502 C 0.94243 0.26712 0.54923 0.0
C1503 C 0.92251 0.25922 0.56573 0.0
C1504 C 0.90683 0.22381 0.57376 0.0
C1505 C 0.91102 0.1963 0.56468 0.0
C1506 C 0.93136 0.20439 0.54824 0.0
H1507 H 0.91336 0.25377 0.49007 0.0
H1508 H 0.89959 0.22838 0.51155 0.0
H1509 H 0.92149 0.27796 0.51165 0.0
H1510 H 0.95478 0.29479 0.54352 0.0
H1511 H 0.92 0.28111 0.57238 0.0
H1512 H 0.70468 0.98372 0.09001 0.0
H1513 H 0.72109 0.0147 0.06019 0.0
H1514 H 0.70201 0.91352 0.03427 0.0
H1515 H 0.6838 0.8817 0.06422 0.0
H1516 H 0.77528 0.02964 0.03793 0.0
H1517 H 0.64451 0.94075 1.00023 0.0
H1518 H 0.64863 0.93712 0.02481 0.0
H1519 H 0.66562 0.91559 1.00911 0.0
C1520 C 0.70366 0.96786 0.07796 0.0
C1521 C 0.69274 0.93013 0.07949 0.0
C1522 C 0.71317 0.98571 0.06087 0.0
C1523 C 0.71245 0.96651 0.04483 0.0
C1524 C 0.7019 0.92882 0.04631 0.0
H1525 H 0.82368 0.09022 0.94392 0.0
H1526 H 0.80938 0.05621 0.97312 0.0
C1527 C 0.6917 0.91067 0.06345 0.0
C1528 C 0.72362 0.98664 0.02682 0.0
H1529 H 0.69446 0.98622 0.98268 0.0
C1530 C 0.75753 0.02012 0.02586 0.0
C1531 C 0.7004 0.9746 0.01106 0.0
C1532 C 0.66261 0.94026 0.01135 0.0
C1533 C 0.7686 0.04201 1.0098 0.0
C1534 C 0.74581 0.02951 0.9939 0.0
C1535 C 0.71211 0.99582 0.99478 0.0
C1536 C 0.75553 0.05141 0.97642 0.0
C1537 C 0.80395 0.07897 0.01036 0.0
C1538 C 0.7299 0.05957 0.96823 0.0
C1539 C 0.73774 0.07833 0.95137 0.0
C1540 C 0.7716 0.0898 0.94234 0.0
C1541 C 0.79764 0.08239 0.95069 0.0
C1542 C 0.7895 0.06298 0.96744 0.0
H1543 H 0.81179 0.08926 0.02473 0.0
H1544 H 0.8268 0.0759 1.00445 0.0
H1545 H 0.80137 0.10013 1.00223 0.0
H1546 H 0.70353 0.05104 0.97481 0.0
H1547 H 0.71701 0.08347 0.94527 0.0
H1548 H 0.8241 0.73208 0.57238 0.0
H1549 H 0.80978 0.75515 0.54419 0.0
H1550 H 0.69694 0.66526 0.54652 0.0
H1551 H 0.71069 0.64268 0.57479 0.0
H1552 H 0.78381 0.7257 0.51008 0.0
H1553 H 0.68185 0.75343 0.54453 0.0
H1554 H 0.71263 0.74293 0.55727 0.0
H1555 H 0.67071 0.70626 0.5473 0.0
C1556 C 0.79633 0.71705 0.56678 0.0
C1557 C 0.76847 0.68571 0.57594 0.0
C1558 C 0.78814 0.73035 0.5507 0.0
C1559 C 0.752 0.71256 0.54349 0.0
C1560 C 0.72472 0.68019 0.55211 0.0
H1561 H 0.63845 0.71737 0.44639 0.0
H1562 H 0.65985 0.70539 0.47562 0.0
C1563 C 0.73275 0.66709 0.56821 0.0
C1564 C 0.74251 0.72769 0.52705 0.0
H1565 H 0.68106 0.7532 0.51144 0.0
C1566 C 0.76171 0.7322 0.51045 0.0
C1567 C 0.71383 0.73654 0.52753 0.0
C1568 C 0.69384 0.73493 0.54517 0.0
C1569 C 0.75188 0.74368 0.49418 0.0
C1570 C 0.7222 0.75092 0.49454 0.0
C1571 C 0.7037 0.74745 0.51121 0.0
C1572 C 0.70846 0.75974 0.47747 0.0
C1573 C 0.77232 0.74677 0.47651 0.0
C1574 C 0.72825 0.79468 0.46906 0.0
C1575 C 0.71583 0.80184 0.4524 0.0
C1576 C 0.6836 0.77401 0.4438 0.0
C1577 C 0.66338 0.73943 0.45261 0.0
C1578 C 0.67558 0.73247 0.46931 0.0
H1579 H 0.79275 0.7373 0.47818 0.0
H1580 H 0.75239 0.73011 0.46549 0.0
H1581 H 0.78719 0.77605 0.47186 0.0
H1582 H 0.75361 0.81615 0.47524 0.0
H1583 H 0.73218 0.82865 0.44592 0.0
H1584 H 0.92908 0.64247 0.94183 0.0
H1585 H 0.96095 0.66114 0.97147 0.0
H1586 H 0.92266 0.73896 0.97898 0.0
H1587 H 0.89072 0.7206 0.94908 0.0
H1588 H -0.00033 0.76882 0.98594 0.0
H1589 H 0.91492 0.63639 0.02326 0.0
H1590 H 0.93289 0.63157 1.00157 0.0
H1591 H 0.89987 0.64728 1.00199 0.0
C1592 C 0.927 0.66328 0.94983 0.0
C1593 C 0.90708 0.67987 0.94309 0.0
C1594 C 0.94523 0.67386 0.96683 0.0
C1595 C 0.94392 0.70118 0.97755 0.0
C1596 C 0.92393 0.71771 0.97095 0.0
H1597 H 0.00923 0.74989 0.09194 0.0
H1598 H 0.97783 0.73516 0.0622 0.0
C1599 C 0.90551 0.70704 0.95392 0.0
C1600 C 0.96425 0.71297 0.99538 0.0
H1601 H 0.97051 0.68094 0.03786 0.0
C1602 C 0.99323 0.74968 0.99734 0.0
C1603 C 0.9557 0.68803 0.01027 0.0
C1604 C 0.92395 0.6487 1.00931 0.0
C1605 C 0.01418 0.76196 0.01369 0.0
C1606 C 0.00619 0.73675 0.02841 0.0
C1607 C 0.97691 0.70018 0.02651 0.0
C1608 C 0.02659 0.74793 0.04626 0.0
C1609 C 0.04425 0.80195 0.01522 0.0
C1610 C 0.0647 0.76025 0.04726 0.0
C1611 C 0.08296 0.76883 0.06437 0.0
C1612 C 0.06334 0.765 0.08079 0.0
C1613 C 0.0253 0.7531 0.07963 0.0
C1614 C 0.0072 0.74461 0.0626 0.0
H1615 H 0.04135 0.81946 1.00455 0.0
H1616 H 0.04394 0.81323 0.02906 0.0
H1617 H 0.07158 0.80394 0.01334 0.0
H1618 H 0.08014 0.76246 0.03485 0.0
H1619 H 0.1122 0.77774 0.06478 0.0
H1620 H 0.28638 0.93738 0.44175 0.0
H1621 H 0.29829 0.972 0.47043 0.0
H1622 H 0.18122 0.9286 0.47777 0.0
H1623 H 0.16882 0.89359 0.44883 0.0
H1624 H 0.27587 0.02668 0.4777 0.0
H1625 H 0.21951 0.9106 0.5283 0.0
H1626 H 0.23234 0.90566 0.50511 0.0
H1627 H 0.19053 0.90688 0.50904 0.0
C1628 C 0.26298 0.9347 0.44951 0.0
C1629 C 0.22656 0.91254 0.44295 0.0
C1630 C 0.26993 0.95471 0.4659 0.0
C1631 C 0.2407 0.95289 0.47625 0.0
C1632 C 0.20418 0.93016 0.47006 0.0
H1633 H 0.27538 0.10682 0.56776 0.0
H1634 H 0.25339 0.07146 0.5389 0.0
C1635 C 0.19714 0.91013 0.45353 0.0
C1636 C 0.24905 0.97583 0.49317 0.0
H1637 H 0.24533 0.971 0.54025 0.0
C1638 C 0.26887 0.01456 0.49139 0.0
C1639 C 0.24011 0.9599 0.51098 0.0
C1640 C 0.21964 0.91849 0.51364 0.0
C1641 C 0.28053 0.03779 0.50697 0.0
C1642 C 0.27201 0.02186 0.52479 0.0
C1643 C 0.25166 0.98314 0.52656 0.0
C1644 C 0.28616 0.04473 0.54177 0.0
C1645 C 0.30306 0.07916 0.5043 0.0
C1646 C 0.31197 0.04158 0.55288 0.0
C1647 C 0.32469 0.0618 0.56925 0.0
C1648 C 0.31166 0.08548 0.575 0.0
C1649 C 0.28621 0.08908 0.56368 0.0
C1650 C 0.27358 0.06887 0.5472 0.0
H1651 H 0.31224 0.08677 0.48977 0.0
H1652 H 0.28608 0.09179 0.50816 0.0
H1653 H 0.32783 0.09124 0.51338 0.0
H1654 H 0.32209 0.02318 0.54894 0.0
H1655 H 0.34416 0.05814 0.57761 0.0
loop_
_geom_bond_atom_site_label_1
_geom_bond_atom_site_label_2
_geom_bond_distance
_geom_bond_site_symmetry_2
_ccdc_geom_bond_type
Co0 N5 2.057 . S
Co0 O17 2.021 . S
Co0 O20 2.062 . S
Co0 O24 2.117 . S
Co0 O25 2.020 . S
C1 O21 1.259 . S
C1 O24 1.258 . S
Co2 N11 2.057 . S
Co2 O18 2.117 . S
Co2 O19 2.020 . S
Co2 O21 2.021 . S
Co2 O26 2.062 . S
C3 N5 1.316 . S
C3 N6 1.347 . S
C3 H8 0.931 . S
C4 N5 1.375 . S
C4 C7 1.350 . S
C4 H9 0.930 . S
N5 Co0 2.057 . S
N5 C3 1.316 . S
N5 C4 1.375 . S
N6 C3 1.347 . S
N6 C7 1.373 . S
C7 C4 1.350 . S
C7 N6 1.373 . S
C7 H28 0.931 . S
H8 C3 0.931 . S
H9 C4 0.930 . S
C10 O17 1.259 . S
C10 O18 1.258 . S
N11 Co2 2.057 . S
N11 C12 1.316 . S
N11 C13 1.375 . S
C12 N11 1.316 . S
C12 N14 1.347 . S
C12 H23 0.931 . S
C13 N11 1.375 . S
C13 C15 1.350 . S
C13 H22 0.930 . S
N14 C12 1.347 . S
N14 C15 1.373 . S
C15 C13 1.350 . S
C15 N14 1.373 . S
C15 H29 0.931 . S
C16 O19 1.256 . S
C16 O20 1.255 . S
O17 Co0 2.021 . S
O17 C10 1.259 . S
O18 Co2 2.117 . S
O18 C10 1.258 . S
O19 Co2 2.020 . S
O19 C16 1.256 . S
O20 Co0 2.062 . S
O20 C16 1.255 . S
O21 C1 1.259 . S
O21 Co2 2.021 . S
H22 C13 0.930 . S
H23 C12 0.931 . S
O24 Co0 2.117 . S
O24 C1 1.258 . S
O25 Co0 2.020 . S
O25 C27 1.256 . S
O26 Co2 2.062 . S
O26 C27 1.255 . S
C27 O25 1.256 . S
C27 O26 1.255 . S
H28 C7 0.931 . S
H29 C15 0.931 . S
Co30 N35 2.057 . S
Co30 O47 2.021 . S
Co30 O50 2.062 . S
Co30 O54 2.117 . S
Co30 O55 2.020 . S
C31 O51 1.259 . S
C31 O54 1.258 . S
Co32 N41 2.057 . S
Co32 O48 2.117 . S
Co32 O49 2.020 . S
Co32 O51 2.021 . S
Co32 O56 2.062 . S
C33 N35 1.316 . S
C33 N36 1.347 . S
C33 H38 0.931 . S
C34 N35 1.375 . S
C34 C37 1.350 . S
C34 H39 0.930 . S
N35 Co30 2.057 . S
N35 C33 1.316 . S
N35 C34 1.375 . S
N36 C33 1.347 . S
N36 C37 1.373 . S
C37 C34 1.350 . S
C37 N36 1.373 . S
C37 H58 0.931 . S
H38 C33 0.931 . S
H39 C34 0.930 . S
C40 O47 1.259 . S
C40 O48 1.258 . S
N41 Co32 2.057 . S
N41 C42 1.316 . S
N41 C43 1.375 . S
C42 N41 1.316 . S
C42 N44 1.347 . S
C42 H53 0.931 . S
C43 N41 1.375 . S
C43 C45 1.350 . S
C43 H52 0.930 . S
N44 C42 1.347 . S
N44 C45 1.373 . S
C45 C43 1.350 . S
C45 N44 1.373 . S
C45 H59 0.931 . S
C46 O49 1.256 . S
C46 O50 1.255 . S
O47 Co30 2.021 . S
O47 C40 1.259 . S
O48 Co32 2.117 . S
O48 C40 1.258 . S
O49 Co32 2.020 . S
O49 C46 1.256 . S
O50 Co30 2.062 . S
O50 C46 1.255 . S
O51 C31 1.259 . S
O51 Co32 2.021 . S
H52 C43 0.930 . S
H53 C42 0.931 . S
O54 Co30 2.117 . S
O54 C31 1.258 . S
O55 Co30 2.020 . S
O55 C57 1.256 . S
O56 Co32 2.062 . S
O56 C57 1.255 . S
C57 O55 1.256 . S
C57 O56 1.255 . S
H58 C37 0.931 . S
H59 C45 0.931 . S
Co60 N65 2.057 . S
Co60 O77 2.021 . S
Co60 O80 2.062 . S
Co60 O84 2.117 . S
Co60 O85 2.020 . S
C61 O81 1.259 . S
C61 O84 1.258 . S
Co62 N71 2.057 . S
Co62 O78 2.117 . S
Co62 O79 2.020 . S
Co62 O81 2.021 . S
Co62 O86 2.062 . S
C63 N65 1.316 . S
C63 N66 1.347 . S
C63 H68 0.931 . S
C64 N65 1.375 . S
C64 C67 1.350 . S
C64 H69 0.930 . S
N65 Co60 2.057 . S
N65 C63 1.316 . S
N65 C64 1.375 . S
N66 C63 1.347 . S
N66 C67 1.373 . S
C67 C64 1.350 . S
C67 N66 1.373 . S
C67 H88 0.931 . S
H68 C63 0.931 . S
H69 C64 0.930 . S
C70 O77 1.259 . S
C70 O78 1.258 . S
N71 Co62 2.057 . S
N71 C72 1.316 . S
N71 C73 1.375 . S
C72 N71 1.316 . S
C72 N74 1.347 1_565 S
C72 H83 0.931 . S
C73 N71 1.375 . S
C73 C75 1.350 . S
C73 H82 0.930 . S
N74 C72 1.347 1_545 S
N74 C75 1.373 1_545 S
C75 C73 1.350 . S
C75 N74 1.373 1_565 S
C75 H89 0.931 1_565 S
C76 O79 1.256 . S
C76 O80 1.255 . S
O77 Co60 2.021 . S
O77 C70 1.259 . S
O78 Co62 2.117 . S
O78 C70 1.258 . S
O79 Co62 2.020 . S
O79 C76 1.256 . S
O80 Co60 2.062 . S
O80 C76 1.255 . S
O81 C61 1.259 . S
O81 Co62 2.021 . S
H82 C73 0.930 . S
H83 C72 0.931 . S
O84 Co60 2.117 . S
O84 C61 1.258 . S
O85 Co60 2.020 . S
O85 C87 1.256 . S
O86 Co62 2.062 . S
O86 C87 1.255 . S
C87 O85 1.256 . S
C87 O86 1.255 . S
H88 C67 0.931 . S
H89 C75 0.931 1_545 S
Co90 N95 2.057 . S
Co90 O107 2.021 . S
Co90 O110 2.062 . S
Co90 O114 2.117 . S
Co90 O115 2.020 . S
C91 O111 1.259 . S
C91 O114 1.258 . S
Co92 N101 2.057 . S
Co92 O108 2.117 . S
Co92 O109 2.020 . S
Co92 O111 2.021 . S
Co92 O116 2.062 . S
C93 N95 1.316 . S
C93 N96 1.347 . S
C93 H98 0.931 . S
C94 N95 1.375 . S
C94 C97 1.350 . S
C94 H99 0.930 . S
N95 Co90 2.057 . S
N95 C93 1.316 . S
N95 C94 1.375 . S
N96 C93 1.347 . S
N96 C97 1.373 . S
C97 C94 1.350 . S
C97 N96 1.373 . S
C97 H118 0.931 . S
H98 C93 0.931 . S
H99 C94 0.930 . S
C100 O107 1.259 . S
C100 O108 1.258 . S
N101 Co92 2.057 . S
N101 C102 1.316 . S
N101 C103 1.375 . S
C102 N101 1.316 . S
C102 N104 1.347 . S
C102 H113 0.931 . S
C103 N101 1.375 . S
C103 C105 1.350 . S
C103 H112 0.930 . S
N104 C102 1.347 . S
N104 C105 1.373 . S
C105 C103 1.350 . S
C105 N104 1.373 . S
C105 H119 0.931 . S
C106 O109 1.256 . S
C106 O110 1.255 . S
O107 Co90 2.021 . S
O107 C100 1.259 . S
O108 Co92 2.117 . S
O108 C100 1.258 . S
O109 Co92 2.020 . S
O109 C106 1.256 . S
O110 Co90 2.062 . S
O110 C106 1.255 . S
O111 C91 1.259 . S
O111 Co92 2.021 . S
H112 C103 0.930 . S
H113 C102 0.931 . S
O114 Co90 2.117 . S
O114 C91 1.258 . S
O115 Co90 2.020 . S
O115 C117 1.256 . S
O116 Co92 2.062 . S
O116 C117 1.255 . S
C117 O115 1.256 . S
C117 O116 1.255 . S
H118 C97 0.931 . S
H119 C105 0.931 . S
Co120 N125 2.057 . S
Co120 O137 2.021 . S
Co120 O140 2.062 . S
Co120 O144 2.117 . S
Co120 O145 2.020 . S
C121 O141 1.259 . S
C121 O144 1.258 . S
Co122 N131 2.057 . S
Co122 O138 2.117 . S
Co122 O139 2.020 . S
Co122 O141 2.021 . S
Co122 O146 2.062 . S
C123 N125 1.316 . S
C123 N126 1.347 . S
C123 H128 0.931 . S
C124 N125 1.375 . S
C124 C127 1.350 . S
C124 H129 0.930 . S
N125 Co120 2.057 . S
N125 C123 1.316 . S
N125 C124 1.375 . S
N126 C123 1.347 . S
N126 C127 1.373 . S
C127 C124 1.350 . S
C127 N126 1.373 . S
C127 H148 0.931 . S
H128 C123 0.931 . S
H129 C124 0.930 . S
C130 O137 1.259 . S
C130 O138 1.258 . S
N131 Co122 2.057 . S
N131 C132 1.316 . S
N131 C133 1.375 . S
C132 N131 1.316 . S
C132 N134 1.347 1_455 S
C132 H143 0.931 . S
C133 N131 1.375 . S
C133 C135 1.350 . S
C133 H142 0.930 . S
N134 C132 1.347 1_655 S
N134 C135 1.373 1_655 S
C135 C133 1.350 . S
C135 N134 1.373 1_455 S
C135 H149 0.931 1_455 S
C136 O139 1.256 . S
C136 O140 1.255 . S
O137 Co120 2.021 . S
O137 C130 1.259 . S
O138 Co122 2.117 . S
O138 C130 1.258 . S
O139 Co122 2.020 . S
O139 C136 1.256 . S
O140 Co120 2.062 . S
O140 C136 1.255 . S
O141 C121 1.259 . S
O141 Co122 2.021 . S
H142 C133 0.930 . S
H143 C132 0.931 . S
O144 Co120 2.117 . S
O144 C121 1.258 . S
O145 Co120 2.020 . S
O145 C147 1.256 . S
O146 Co122 2.062 . S
O146 C147 1.255 . S
C147 O145 1.256 . S
C147 O146 1.255 . S
H148 C127 0.931 . S
H149 C135 0.931 1_655 S
Co150 N155 2.057 . S
Co150 O167 2.021 . S
Co150 O170 2.062 . S
Co150 O174 2.117 . S
Co150 O175 2.020 . S
C151 O171 1.259 . S
C151 O174 1.258 . S
Co152 N161 2.057 . S
Co152 O168 2.117 . S
Co152 O169 2.020 . S
Co152 O171 2.021 . S
Co152 O176 2.062 . S
C153 N155 1.316 . S
C153 N156 1.347 . S
C153 H158 0.931 . S
C154 N155 1.375 . S
C154 C157 1.350 . S
C154 H159 0.930 . S
N155 Co150 2.057 . S
N155 C153 1.316 . S
N155 C154 1.375 . S
N156 C153 1.347 . S
N156 C157 1.373 . S
C157 C154 1.350 . S
C157 N156 1.373 . S
C157 H178 0.931 . S
H158 C153 0.931 . S
H159 C154 0.930 . S
C160 O167 1.259 . S
C160 O168 1.258 . S
N161 Co152 2.057 . S
N161 C162 1.316 . S
N161 C163 1.375 . S
C162 N161 1.316 . S
C162 N164 1.347 . S
C162 H173 0.931 . S
C163 N161 1.375 . S
C163 C165 1.350 . S
C163 H172 0.930 . S
N164 C162 1.347 . S
N164 C165 1.373 . S
C165 C163 1.350 . S
C165 N164 1.373 . S
C165 H179 0.931 . S
C166 O169 1.256 . S
C166 O170 1.255 . S
O167 Co150 2.021 . S
O167 C160 1.259 . S
O168 Co152 2.117 . S
O168 C160 1.258 . S
O169 Co152 2.020 . S
O169 C166 1.256 . S
O170 Co150 2.062 . S
O170 C166 1.255 . S
O171 C151 1.259 . S
O171 Co152 2.021 . S
H172 C163 0.930 . S
H173 C162 0.931 . S
O174 Co150 2.117 . S
O174 C151 1.258 . S
O175 Co150 2.020 . S
O175 C177 1.256 . S
O176 Co152 2.062 . S
O176 C177 1.255 . S
C177 O175 1.256 . S
C177 O176 1.255 . S
H178 C157 0.931 . S
H179 C165 0.931 . S
Co180 N185 2.057 . S
Co180 O197 2.021 . S
Co180 O200 2.062 . S
Co180 O204 2.117 . S
Co180 O205 2.020 . S
C181 O201 1.259 . S
C181 O204 1.258 . S
Co182 N191 2.057 . S
Co182 O198 2.117 . S
Co182 O199 2.020 . S
Co182 O201 2.021 . S
Co182 O206 2.062 . S
C183 N185 1.316 . S
C183 N186 1.347 . S
C183 H188 0.931 . S
C184 N185 1.375 . S
C184 C187 1.350 . S
C184 H189 0.930 . S
N185 Co180 2.057 . S
N185 C183 1.316 . S
N185 C184 1.375 . S
N186 C183 1.347 . S
N186 C187 1.373 . S
C187 C184 1.350 . S
C187 N186 1.373 . S
C187 H208 0.931 . S
H188 C183 0.931 . S
H189 C184 0.930 . S
C190 O197 1.259 . S
C190 O198 1.258 . S
N191 Co182 2.057 . S
N191 C192 1.316 . S
N191 C193 1.375 . S
C192 N191 1.316 . S
C192 N194 1.347 . S
C192 H203 0.931 . S
C193 N191 1.375 . S
C193 C195 1.350 . S
C193 H202 0.930 . S
N194 C192 1.347 . S
N194 C195 1.373 . S
C195 C193 1.350 . S
C195 N194 1.373 . S
C195 H209 0.931 . S
C196 O199 1.256 . S
C196 O200 1.255 . S
O197 Co180 2.021 . S
O197 C190 1.259 . S
O198 Co182 2.117 . S
O198 C190 1.258 . S
O199 Co182 2.020 . S
O199 C196 1.256 . S
O200 Co180 2.062 . S
O200 C196 1.255 . S
O201 C181 1.259 . S
O201 Co182 2.021 . S
H202 C193 0.930 . S
H203 C192 0.931 . S
O204 Co180 2.117 . S
O204 C181 1.258 . S
O205 Co180 2.020 . S
O205 C207 1.256 . S
O206 Co182 2.062 . S
O206 C207 1.255 . S
C207 O205 1.256 . S
C207 O206 1.255 . S
H208 C187 0.931 . S
H209 C195 0.931 . S
Co210 N215 2.057 . S
Co210 O227 2.021 . S
Co210 O230 2.062 . S
Co210 O234 2.117 . S
Co210 O235 2.020 . S
C211 O231 1.259 . S
C211 O234 1.258 . S
Co212 N221 2.057 . S
Co212 O228 2.117 . S
Co212 O229 2.020 . S
Co212 O231 2.021 . S
Co212 O236 2.062 . S
C213 N215 1.316 . S
C213 N216 1.347 . S
C213 H218 0.931 . S
C214 N215 1.375 . S
C214 C217 1.350 . S
C214 H219 0.930 . S
N215 Co210 2.057 . S
N215 C213 1.316 . S
N215 C214 1.375 . S
N216 C213 1.347 . S
N216 C217 1.373 . S
C217 C214 1.350 . S
C217 N216 1.373 . S
C217 H238 0.931 . S
H218 C213 0.931 . S
H219 C214 0.930 . S
C220 O227 1.259 . S
C220 O228 1.258 . S
N221 Co212 2.057 . S
N221 C222 1.316 . S
N221 C223 1.375 . S
C222 N221 1.316 . S
C222 N224 1.347 . S
C222 H233 0.931 . S
C223 N221 1.375 . S
C223 C225 1.350 . S
C223 H232 0.930 . S
N224 C222 1.347 . S
N224 C225 1.373 . S
C225 C223 1.350 . S
C225 N224 1.373 . S
C225 H239 0.931 . S
C226 O229 1.256 . S
C226 O230 1.255 . S
O227 Co210 2.021 . S
O227 C220 1.259 . S
O228 Co212 2.117 . S
O228 C220 1.258 . S
O229 Co212 2.020 . S
O229 C226 1.256 . S
O230 Co210 2.062 . S
O230 C226 1.255 . S
O231 C211 1.259 . S
O231 Co212 2.021 . S
H232 C223 0.930 . S
H233 C222 0.931 . S
O234 Co210 2.117 . S
O234 C211 1.258 . S
O235 Co210 2.020 . S
O235 C237 1.256 . S
O236 Co212 2.062 . S
O236 C237 1.255 . S
C237 O235 1.256 . S
C237 O236 1.255 . S
H238 C217 0.931 . S
H239 C225 0.931 . S
Co240 N245 2.057 . S
Co240 O257 2.021 . S
Co240 O260 2.062 . S
Co240 O264 2.117 . S
Co240 O265 2.020 . S
C241 O261 1.259 . S
C241 O264 1.258 . S
Co242 N251 2.057 . S
Co242 O258 2.117 . S
Co242 O259 2.020 . S
Co242 O261 2.021 . S
Co242 O266 2.062 . S
C243 N245 1.316 . S
C243 N246 1.347 . S
C243 H248 0.931 . S
C244 N245 1.375 . S
C244 C247 1.350 . S
C244 H249 0.930 . S
N245 Co240 2.057 . S
N245 C243 1.316 . S
N245 C244 1.375 . S
N246 C243 1.347 . S
N246 C247 1.373 . S
C247 C244 1.350 . S
C247 N246 1.373 . S
C247 H268 0.931 . S
H248 C243 0.931 . S
H249 C244 0.930 . S
C250 O257 1.259 . S
C250 O258 1.258 . S
N251 Co242 2.057 . S
N251 C252 1.316 . S
N251 C253 1.375 . S
C252 N251 1.316 . S
C252 N254 1.347 . S
C252 H263 0.931 . S
C253 N251 1.375 . S
C253 C255 1.350 . S
C253 H262 0.930 . S
N254 C252 1.347 . S
N254 C255 1.373 . S
C255 C253 1.350 . S
C255 N254 1.373 . S
C255 H269 0.931 . S
C256 O259 1.256 . S
C256 O260 1.255 . S
O257 Co240 2.021 . S
O257 C250 1.259 . S
O258 Co242 2.117 . S
O258 C250 1.258 . S
O259 Co242 2.020 . S
O259 C256 1.256 . S
O260 Co240 2.062 . S
O260 C256 1.255 . S
O261 C241 1.259 . S
O261 Co242 2.021 . S
H262 C253 0.930 . S
H263 C252 0.931 . S
O264 Co240 2.117 . S
O264 C241 1.258 . S
O265 Co240 2.020 . S
O265 C267 1.256 . S
O266 Co242 2.062 . S
O266 C267 1.255 . S
C267 O265 1.256 . S
C267 O266 1.255 . S
H268 C247 0.931 . S
H269 C255 0.931 . S
Co270 N275 2.057 . S
Co270 O287 2.021 . S
Co270 O290 2.062 . S
Co270 O294 2.117 . S
Co270 O295 2.020 . S
C271 O291 1.259 . S
C271 O294 1.258 . S
Co272 N281 2.057 . S
Co272 O288 2.117 . S
Co272 O289 2.020 . S
Co272 O291 2.021 . S
Co272 O296 2.062 . S
C273 N275 1.316 . S
C273 N276 1.347 . S
C273 H278 0.931 . S
C274 N275 1.375 . S
C274 C277 1.350 . S
C274 H279 0.930 . S
N275 Co270 2.057 . S
N275 C273 1.316 . S
N275 C274 1.375 . S
N276 C273 1.347 . S
N276 C277 1.373 . S
C277 C274 1.350 . S
C277 N276 1.373 . S
C277 H298 0.931 . S
H278 C273 0.931 . S
H279 C274 0.930 . S
C280 O287 1.259 . S
C280 O288 1.258 . S
N281 Co272 2.057 . S
N281 C282 1.316 . S
N281 C283 1.375 . S
C282 N281 1.316 . S
C282 N284 1.347 . S
C282 H293 0.931 . S
C283 N281 1.375 . S
C283 C285 1.350 . S
C283 H292 0.930 . S
N284 C282 1.347 . S
N284 C285 1.373 . S
C285 C283 1.350 . S
C285 N284 1.373 . S
C285 H299 0.931 . S
C286 O289 1.256 . S
C286 O290 1.255 . S
O287 Co270 2.021 . S
O287 C280 1.259 . S
O288 Co272 2.117 . S
O288 C280 1.258 . S
O289 Co272 2.020 . S
O289 C286 1.256 . S
O290 Co270 2.062 . S
O290 C286 1.255 . S
O291 C271 1.259 . S
O291 Co272 2.021 . S
H292 C283 0.930 . S
H293 C282 0.931 . S
O294 Co270 2.117 . S
O294 C271 1.258 . S
O295 Co270 2.020 . S
O295 C297 1.256 . S
O296 Co272 2.062 . S
O296 C297 1.255 . S
C297 O295 1.256 . S
C297 O296 1.255 . S
H298 C277 0.931 . S
H299 C285 0.931 . S
Co300 N305 2.057 . S
Co300 O317 2.021 . S
Co300 O320 2.062 . S
Co300 O324 2.117 . S
Co300 O325 2.020 . S
C301 O321 1.259 . S
C301 O324 1.258 . S
Co302 N311 2.057 . S
Co302 O318 2.117 . S
Co302 O319 2.020 . S
Co302 O321 2.021 . S
Co302 O326 2.062 . S
C303 N305 1.316 . S
C303 N306 1.347 . S
C303 H308 0.931 . S
C304 N305 1.375 . S
C304 C307 1.350 . S
C304 H309 0.930 . S
N305 Co300 2.057 . S
N305 C303 1.316 . S
N305 C304 1.375 . S
N306 C303 1.347 . S
N306 C307 1.373 . S
C307 C304 1.350 . S
C307 N306 1.373 . S
C307 H328 0.931 . S
H308 C303 0.931 . S
H309 C304 0.930 . S
C310 O317 1.259 . S
C310 O318 1.258 . S
N311 Co302 2.057 . S
N311 C312 1.316 . S
N311 C313 1.375 . S
C312 N311 1.316 . S
C312 N314 1.347 . S
C312 H323 0.931 . S
C313 N311 1.375 . S
C313 C315 1.350 . S
C313 H322 0.930 . S
N314 C312 1.347 . S
N314 C315 1.373 . S
C315 C313 1.350 . S
C315 N314 1.373 . S
C315 H329 0.931 . S
C316 O319 1.256 . S
C316 O320 1.255 . S
O317 Co300 2.021 . S
O317 C310 1.259 . S
O318 Co302 2.117 . S
O318 C310 1.258 . S
O319 Co302 2.020 . S
O319 C316 1.256 . S
O320 Co300 2.062 . S
O320 C316 1.255 . S
O321 C301 1.259 . S
O321 Co302 2.021 . S
H322 C313 0.930 . S
H323 C312 0.931 . S
O324 Co300 2.117 . S
O324 C301 1.258 . S
O325 Co300 2.020 . S
O325 C327 1.256 . S
O326 Co302 2.062 . S
O326 C327 1.255 . S
C327 O325 1.256 . S
C327 O326 1.255 . S
H328 C307 0.931 . S
H329 C315 0.931 . S
Co330 N335 2.057 . S
Co330 O347 2.021 . S
Co330 O350 2.062 . S
Co330 O354 2.117 . S
Co330 O355 2.020 . S
C331 O351 1.259 . S
C331 O354 1.258 . S
Co332 N341 2.057 . S
Co332 O348 2.117 . S
Co332 O349 2.020 . S
Co332 O351 2.021 . S
Co332 O356 2.062 . S
C333 N335 1.316 . S
C333 N336 1.347 . S
C333 H338 0.931 . S
C334 N335 1.375 . S
C334 C337 1.350 . S
C334 H339 0.930 . S
N335 Co330 2.057 . S
N335 C333 1.316 . S
N335 C334 1.375 . S
N336 C333 1.347 . S
N336 C337 1.373 . S
C337 C334 1.350 . S
C337 N336 1.373 . S
C337 H358 0.931 . S
H338 C333 0.931 . S
H339 C334 0.930 . S
C340 O347 1.259 . S
C340 O348 1.258 . S
N341 Co332 2.057 . S
N341 C342 1.316 . S
N341 C343 1.375 . S
C342 N341 1.316 . S
C342 N344 1.347 . S
C342 H353 0.931 . S
C343 N341 1.375 . S
C343 C345 1.350 . S
C343 H352 0.930 . S
N344 C342 1.347 . S
N344 C345 1.373 . S
C345 C343 1.350 . S
C345 N344 1.373 . S
C345 H359 0.931 . S
C346 O349 1.256 . S
C346 O350 1.255 . S
O347 Co330 2.021 . S
O347 C340 1.259 . S
O348 Co332 2.117 . S
O348 C340 1.258 . S
O349 Co332 2.020 . S
O349 C346 1.256 . S
O350 Co330 2.062 . S
O350 C346 1.255 . S
O351 C331 1.259 . S
O351 Co332 2.021 . S
H352 C343 0.930 . S
H353 C342 0.931 . S
O354 Co330 2.117 . S
O354 C331 1.258 . S
O355 Co330 2.020 . S
O355 C357 1.256 . S
O356 Co332 2.062 . S
O356 C357 1.255 . S
C357 O355 1.256 . S
C357 O356 1.255 . S
H358 C337 0.931 . S
H359 C345 0.931 . S
H360 C368 0.929 . S
H361 C370 0.930 . S
H362 C372 0.930 . S
H363 C375 0.929 . S
H364 C378 0.930 . S
H365 C380 0.960 1_545 S
H366 C380 0.960 . S
H367 C380 0.960 . S
C368 H360 0.929 . S
C368 C369 1.377 . S
C368 C370 1.384 . S
C369 C368 1.377 . S
C369 C375 1.390 . S
C370 H361 0.930 . S
C370 C368 1.384 . S
C370 C371 1.372 . S
C371 C370 1.372 . S
C371 C372 1.400 . S
C371 C376 1.490 1_565 S
C372 H362 0.930 . S
C372 C371 1.400 . S
C372 C375 1.386 . S
H373 C389 0.930 . S
H374 C390 0.931 . S
C375 H363 0.929 . S
C375 C369 1.390 . S
C375 C372 1.386 . S
C376 C371 1.490 1_545 S
C376 C378 1.395 . S
C376 C379 1.403 . S
H377 C383 0.930 . S
C378 H364 0.930 . S
C378 C376 1.395 . S
C378 C381 1.403 . S
C379 C376 1.403 . S
C379 C380 1.524 1_545 S
C379 C383 1.400 . S
C380 H365 0.960 1_565 S
C380 H366 0.960 . S
C380 H367 0.960 . S
C380 C379 1.524 1_565 S
C381 C378 1.403 . S
C381 C382 1.392 . S
C381 C385 1.495 . S
C382 C381 1.392 . S
C382 C383 1.385 . S
C382 C384 1.478 . S
C383 H377 0.930 . S
C383 C379 1.400 . S
C383 C382 1.385 . S
C384 C382 1.478 . S
C384 C386 1.381 . S
C384 C390 1.383 . S
C385 C381 1.495 . S
C385 H391 0.959 . S
C385 H392 0.961 . S
C385 H393 0.960 . S
C386 C384 1.381 . S
C386 C387 1.394 . S
C386 H394 0.930 . S
C387 C386 1.394 . S
C387 C388 1.383 . S
C387 H395 0.929 . S
C388 C387 1.383 . S
C388 C389 1.377 . S
C389 H373 0.930 . S
C389 C388 1.377 . S
C389 C390 1.379 . S
C390 H374 0.931 . S
C390 C384 1.383 . S
C390 C389 1.379 . S
H391 C385 0.959 . S
H392 C385 0.961 . S
H393 C385 0.960 . S
H394 C386 0.930 . S
H395 C387 0.929 . S
H396 C404 0.929 . S
H397 C406 0.930 . S
H398 C408 0.930 . S
H399 C411 0.929 . S
H400 C414 0.930 . S
H401 C416 0.960 . S
H402 C416 0.960 . S
H403 C416 0.960 . S
C404 H396 0.929 . S
C404 C405 1.377 . S
C404 C406 1.384 . S
C405 C404 1.377 . S
C405 C411 1.390 . S
C406 H397 0.930 . S
C406 C404 1.384 . S
C406 C407 1.372 . S
C407 C406 1.372 . S
C407 C408 1.400 . S
C407 C412 1.490 . S
C408 H398 0.930 . S
C408 C407 1.400 . S
C408 C411 1.386 . S
H409 C425 0.930 . S
H410 C426 0.931 . S
C411 H399 0.929 . S
C411 C405 1.390 . S
C411 C408 1.386 . S
C412 C407 1.490 . S
C412 C414 1.395 . S
C412 C415 1.403 . S
H413 C419 0.930 . S
C414 H400 0.930 . S
C414 C412 1.395 . S
C414 C417 1.403 . S
C415 C412 1.403 . S
C415 C416 1.524 . S
C415 C419 1.400 . S
C416 H401 0.960 . S
C416 H402 0.960 . S
C416 H403 0.960 . S
C416 C415 1.524 . S
C417 C414 1.403 . S
C417 C418 1.392 . S
C417 C421 1.495 . S
C418 C417 1.392 . S
C418 C419 1.385 . S
C418 C420 1.478 . S
C419 H413 0.930 . S
C419 C415 1.400 . S
C419 C418 1.385 . S
C420 C418 1.478 . S
C420 C422 1.381 . S
C420 C426 1.383 1_455 S
C421 C417 1.495 . S
C421 H427 0.959 . S
C421 H428 0.961 . S
C421 H429 0.960 . S
C422 C420 1.381 . S
C422 C423 1.394 1_455 S
C422 H430 0.930 . S
C423 C422 1.394 1_655 S
C423 C424 1.383 . S
C423 H431 0.929 . S
C424 C423 1.383 . S
C424 C425 1.377 . S
C425 H409 0.930 . S
C425 C424 1.377 . S
C425 C426 1.379 . S
C426 H410 0.931 . S
C426 C420 1.383 1_655 S
C426 C425 1.379 . S
H427 C421 0.959 . S
H428 C421 0.961 . S
H429 C421 0.960 . S
H430 C422 0.930 . S
H431 C423 0.929 . S
H432 C440 0.929 . S
H433 C442 0.930 . S
H434 C444 0.930 . S
H435 C447 0.929 . S
H436 C450 0.930 . S
H437 C452 0.960 . S
H438 C452 0.960 . S
H439 C452 0.960 . S
C440 H432 0.929 . S
C440 C441 1.377 . S
C440 C442 1.384 . S
C441 C440 1.377 . S
C441 C447 1.390 . S
C442 H433 0.930 . S
C442 C440 1.384 . S
C442 C443 1.372 . S
C443 C442 1.372 . S
C443 C444 1.400 . S
C443 C448 1.490 . S
C444 H434 0.930 . S
C444 C443 1.400 . S
C444 C447 1.386 . S
H445 C461 0.930 . S
H446 C462 0.931 . S
C447 H435 0.929 . S
C447 C441 1.390 . S
C447 C444 1.386 . S
C448 C443 1.490 . S
C448 C450 1.395 . S
C448 C451 1.403 . S
H449 C455 0.930 . S
C450 H436 0.930 . S
C450 C448 1.395 . S
C450 C453 1.403 . S
C451 C448 1.403 . S
C451 C452 1.524 . S
C451 C455 1.400 . S
C452 H437 0.960 . S
C452 H438 0.960 . S
C452 H439 0.960 . S
C452 C451 1.524 . S
C453 C450 1.403 . S
C453 C454 1.392 . S
C453 C457 1.495 1_655 S
C454 C453 1.392 . S
C454 C455 1.385 . S
C454 C456 1.478 1_655 S
C455 H449 0.930 . S
C455 C451 1.400 . S
C455 C454 1.385 . S
C456 C454 1.478 1_455 S
C456 C458 1.381 . S
C456 C462 1.383 . S
C457 C453 1.495 1_455 S
C457 H463 0.959 1_455 S
C457 H464 0.961 . S
C457 H465 0.960 . S
C458 C456 1.381 . S
C458 C459 1.394 . S
C458 H466 0.930 . S
C459 C458 1.394 . S
C459 C460 1.383 . S
C459 H467 0.929 . S
C460 C459 1.383 . S
C460 C461 1.377 . S
C461 H445 0.930 . S
C461 C460 1.377 . S
C461 C462 1.379 . S
C462 H446 0.931 . S
C462 C456 1.383 . S
C462 C461 1.379 . S
H463 C457 0.959 1_655 S
H464 C457 0.961 . S
H465 C457 0.960 . S
H466 C458 0.930 . S
H467 C459 0.929 . S
H468 C476 0.929 . S
H469 C478 0.930 . S
H470 C480 0.930 . S
H471 C483 0.929 . S
H472 C486 0.930 . S
H473 C488 0.960 . S
H474 C488 0.960 . S
H475 C488 0.960 . S
C476 H468 0.929 . S
C476 C477 1.377 . S
C476 C478 1.384 . S
C477 C476 1.377 . S
C477 C483 1.390 . S
C478 H469 0.930 . S
C478 C476 1.384 . S
C478 C479 1.372 . S
C479 C478 1.372 . S
C479 C480 1.400 . S
C479 C484 1.490 . S
C480 H470 0.930 . S
C480 C479 1.400 . S
C480 C483 1.386 . S
H481 C497 0.930 . S
H482 C498 0.931 . S
C483 H471 0.929 . S
C483 C477 1.390 . S
C483 C480 1.386 . S
C484 C479 1.490 . S
C484 C486 1.395 . S
C484 C487 1.403 . S
H485 C491 0.930 . S
C486 H472 0.930 . S
C486 C484 1.395 . S
C486 C489 1.403 . S
C487 C484 1.403 . S
C487 C488 1.524 . S
C487 C491 1.400 . S
C488 H473 0.960 . S
C488 H474 0.960 . S
C488 H475 0.960 . S
C488 C487 1.524 . S
C489 C486 1.403 . S
C489 C490 1.392 . S
C489 C493 1.495 . S
C490 C489 1.392 . S
C490 C491 1.385 . S
C490 C492 1.478 . S
C491 H485 0.930 . S
C491 C487 1.400 . S
C491 C490 1.385 . S
C492 C490 1.478 . S
C492 C494 1.381 . S
C492 C498 1.383 . S
C493 C489 1.495 . S
C493 H499 0.959 . S
C493 H500 0.961 . S
C493 H501 0.960 . S
C494 C492 1.381 . S
C494 C495 1.394 1_565 S
C494 H502 0.930 . S
C495 C494 1.394 1_545 S
C495 C496 1.383 . S
C495 H503 0.929 . S
C496 C495 1.383 . S
C496 C497 1.377 . S
C497 H481 0.930 . S
C497 C496 1.377 . S
C497 C498 1.379 1_545 S
C498 H482 0.931 . S
C498 C492 1.383 . S
C498 C497 1.379 1_565 S
H499 C493 0.959 . S
H500 C493 0.961 . S
H501 C493 0.960 . S
H502 C494 0.930 . S
H503 C495 0.929 . S
H504 C512 0.929 . S
H505 C514 0.930 . S
H506 C516 0.930 . S
H507 C519 0.929 . S
H508 C522 0.930 . S
H509 C524 0.960 . S
H510 C524 0.960 . S
H511 C524 0.960 . S
C512 H504 0.929 . S
C512 C513 1.377 . S
C512 C514 1.384 . S
C513 C512 1.377 . S
C513 C519 1.390 . S
C514 H505 0.930 . S
C514 C512 1.384 . S
C514 C515 1.372 . S
C515 C514 1.372 . S
C515 C516 1.400 . S
C515 C520 1.490 . S
C516 H506 0.930 . S
C516 C515 1.400 . S
C516 C519 1.386 . S
H517 C533 0.930 . S
H518 C534 0.931 . S
C519 H507 0.929 . S
C519 C513 1.390 . S
C519 C516 1.386 . S
C520 C515 1.490 . S
C520 C522 1.395 . S
C520 C523 1.403 . S
H521 C527 0.930 . S
C522 H508 0.930 . S
C522 C520 1.395 . S
C522 C525 1.403 . S
C523 C520 1.403 . S
C523 C524 1.524 . S
C523 C527 1.400 . S
C524 H509 0.960 . S
C524 H510 0.960 . S
C524 H511 0.960 . S
C524 C523 1.524 . S
C525 C522 1.403 . S
C525 C526 1.392 . S
C525 C529 1.495 . S
C526 C525 1.392 . S
C526 C527 1.385 . S
C526 C528 1.478 . S
C527 H521 0.930 . S
C527 C523 1.400 . S
C527 C526 1.385 . S
C528 C526 1.478 . S
C528 C530 1.381 . S
C528 C534 1.383 . S
C529 C525 1.495 . S
C529 H535 0.959 . S
C529 H536 0.961 . S
C529 H537 0.960 . S
C530 C528 1.381 . S
C530 C531 1.394 . S
C530 H538 0.930 . S
C531 C530 1.394 . S
C531 C532 1.383 . S
C531 H539 0.929 . S
C532 C531 1.383 . S
C532 C533 1.377 . S
C533 H517 0.930 . S
C533 C532 1.377 . S
C533 C534 1.379 . S
C534 H518 0.931 . S
C534 C528 1.383 . S
C534 C533 1.379 . S
H535 C529 0.959 . S
H536 C529 0.961 . S
H537 C529 0.960 . S
H538 C530 0.930 . S
H539 C531 0.929 . S
H540 C548 0.929 . S
H541 C550 0.930 . S
H542 C552 0.930 . S
H543 C555 0.929 . S
H544 C558 0.930 . S
H545 C560 0.960 . S
H546 C560 0.960 . S
H547 C560 0.960 . S
C548 H540 0.929 . S
C548 C549 1.377 . S
C548 C550 1.384 1_655 S
C549 C548 1.377 . S
C549 C555 1.390 . S
C550 H541 0.930 . S
C550 C548 1.384 1_455 S
C550 C551 1.372 . S
C551 C550 1.372 . S
C551 C552 1.400 . S
C551 C556 1.490 . S
C552 H542 0.930 . S
C552 C551 1.400 . S
C552 C555 1.386 1_455 S
H553 C569 0.930 . S
H554 C570 0.931 . S
C555 H543 0.929 . S
C555 C549 1.390 . S
C555 C552 1.386 1_655 S
C556 C551 1.490 . S
C556 C558 1.395 . S
C556 C559 1.403 . S
H557 C563 0.930 . S
C558 H544 0.930 . S
C558 C556 1.395 . S
C558 C561 1.403 . S
C559 C556 1.403 . S
C559 C560 1.524 . S
C559 C563 1.400 . S
C560 H545 0.960 . S
C560 H546 0.960 . S
C560 H547 0.960 . S
C560 C559 1.524 . S
C561 C558 1.403 . S
C561 C562 1.392 . S
C561 C565 1.495 . S
C562 C561 1.392 . S
C562 C563 1.385 . S
C562 C564 1.478 . S
C563 H557 0.930 . S
C563 C559 1.400 . S
C563 C562 1.385 . S
C564 C562 1.478 . S
C564 C566 1.381 1_565 S
C564 C570 1.383 . S
C565 C561 1.495 . S
C565 H571 0.959 . S
C565 H572 0.961 . S
C565 H573 0.960 1_565 S
C566 C564 1.381 1_545 S
C566 C567 1.394 . S
C566 H574 0.930 . S
C567 C566 1.394 . S
C567 C568 1.383 . S
C567 H575 0.929 . S
C568 C567 1.383 . S
C568 C569 1.377 . S
C569 H553 0.930 . S
C569 C568 1.377 . S
C569 C570 1.379 1_545 S
C570 H554 0.931 . S
C570 C564 1.383 . S
C570 C569 1.379 1_565 S
H571 C565 0.959 . S
H572 C565 0.961 . S
H573 C565 0.960 1_545 S
H574 C566 0.930 . S
H575 C567 0.929 . S
H576 C584 0.929 . S
H577 C586 0.930 . S
H578 C588 0.930 . S
H579 C591 0.929 . S
H580 C594 0.930 . S
H581 C596 0.960 . S
H582 C596 0.960 . S
H583 C596 0.960 . S
C584 H576 0.929 . S
C584 C585 1.377 . S
C584 C586 1.384 1_455 S
C585 C584 1.377 . S
C585 C591 1.390 . S
C586 H577 0.930 . S
C586 C584 1.384 1_655 S
C586 C587 1.372 . S
C587 C586 1.372 . S
C587 C588 1.400 . S
C587 C592 1.490 . S
C588 H578 0.930 . S
C588 C587 1.400 . S
C588 C591 1.386 1_655 S
H589 C605 0.930 . S
H590 C606 0.931 . S
C591 H579 0.929 . S
C591 C585 1.390 . S
C591 C588 1.386 1_455 S
C592 C587 1.490 . S
C592 C594 1.395 . S
C592 C595 1.403 . S
H593 C599 0.930 . S
C594 H580 0.930 . S
C594 C592 1.395 . S
C594 C597 1.403 . S
C595 C592 1.403 . S
C595 C596 1.524 . S
C595 C599 1.400 . S
C596 H581 0.960 . S
C596 H582 0.960 . S
C596 H583 0.960 . S
C596 C595 1.524 . S
C597 C594 1.403 . S
C597 C598 1.392 . S
C597 C601 1.495 . S
C598 C597 1.392 . S
C598 C599 1.385 . S
C598 C600 1.478 . S
C599 H593 0.930 . S
C599 C595 1.400 . S
C599 C598 1.385 . S
C600 C598 1.478 . S
C600 C602 1.381 . S
C600 C606 1.383 . S
C601 C597 1.495 . S
C601 H607 0.959 . S
C601 H608 0.961 . S
C601 H609 0.960 . S
C602 C600 1.381 . S
C602 C603 1.394 . S
C602 H610 0.930 . S
C603 C602 1.394 . S
C603 C604 1.383 . S
C603 H611 0.929 . S
C604 C603 1.383 . S
C604 C605 1.377 . S
C605 H589 0.930 . S
C605 C604 1.377 . S
C605 C606 1.379 . S
C606 H590 0.931 . S
C606 C600 1.383 . S
C606 C605 1.379 . S
H607 C601 0.959 . S
H608 C601 0.961 . S
H609 C601 0.960 . S
H610 C602 0.930 . S
H611 C603 0.929 . S
H612 C620 0.929 . S
H613 C622 0.930 . S
H614 C624 0.930 1_455 S
H615 C627 0.929 . S
H616 C630 0.930 . S
H617 C632 0.960 . S
H618 C632 0.960 . S
H619 C632 0.960 . S
C620 H612 0.929 . S
C620 C621 1.377 . S
C620 C622 1.384 . S
C621 C620 1.377 . S
C621 C627 1.390 . S
C622 H613 0.930 . S
C622 C620 1.384 . S
C622 C623 1.372 1_655 S
C623 C622 1.372 1_455 S
C623 C624 1.400 1_455 S
C623 C628 1.490 . S
C624 H614 0.930 1_655 S
C624 C623 1.400 1_655 S
C624 C627 1.386 . S
H625 C641 0.930 . S
H626 C642 0.931 . S
C627 H615 0.929 . S
C627 C621 1.390 . S
C627 C624 1.386 . S
C628 C623 1.490 . S
C628 C630 1.395 . S
C628 C631 1.403 . S
H629 C635 0.930 . S
C630 H616 0.930 . S
C630 C628 1.395 . S
C630 C633 1.403 . S
C631 C628 1.403 . S
C631 C632 1.524 . S
C631 C635 1.400 . S
C632 H617 0.960 . S
C632 H618 0.960 . S
C632 H619 0.960 . S
C632 C631 1.524 . S
C633 C630 1.403 . S
C633 C634 1.392 . S
C633 C637 1.495 . S
C634 C633 1.392 . S
C634 C635 1.385 . S
C634 C636 1.478 . S
C635 H629 0.930 . S
C635 C631 1.400 . S
C635 C634 1.385 . S
C636 C634 1.478 . S
C636 C638 1.381 . S
C636 C642 1.383 . S
C637 C633 1.495 . S
C637 H643 0.959 . S
C637 H644 0.961 . S
C637 H645 0.960 . S
C638 C636 1.381 . S
C638 C639 1.394 1_565 S
C638 H646 0.930 . S
C639 C638 1.394 1_545 S
C639 C640 1.383 . S
C639 H647 0.929 . S
C640 C639 1.383 . S
C640 C641 1.377 . S
C641 H625 0.930 . S
C641 C640 1.377 . S
C641 C642 1.379 1_545 S
C642 H626 0.931 . S
C642 C636 1.383 . S
C642 C641 1.379 1_565 S
H643 C637 0.959 . S
H644 C637 0.961 . S
H645 C637 0.960 . S
H646 C638 0.930 . S
H647 C639 0.929 . S
H648 C656 0.929 . S
H649 C658 0.930 . S
H650 C660 0.930 . S
H651 C663 0.929 . S
H652 C666 0.930 . S
H653 C668 0.960 . S
H654 C668 0.960 . S
H655 C668 0.960 . S
C656 H648 0.929 . S
C656 C657 1.377 . S
C656 C658 1.384 . S
C657 C656 1.377 . S
C657 C663 1.390 . S
C658 H649 0.930 . S
C658 C656 1.384 . S
C658 C659 1.372 . S
C659 C658 1.372 . S
C659 C660 1.400 . S
C659 C664 1.490 . S
C660 H650 0.930 . S
C660 C659 1.400 . S
C660 C663 1.386 . S
H661 C677 0.930 . S
H662 C678 0.931 . S
C663 H651 0.929 . S
C663 C657 1.390 . S
C663 C660 1.386 . S
C664 C659 1.490 . S
C664 C666 1.395 . S
C664 C667 1.403 . S
H665 C671 0.930 . S
C666 H652 0.930 . S
C666 C664 1.395 . S
C666 C669 1.403 . S
C667 C664 1.403 . S
C667 C668 1.524 . S
C667 C671 1.400 . S
C668 H653 0.960 . S
C668 H654 0.960 . S
C668 H655 0.960 . S
C668 C667 1.524 . S
C669 C666 1.403 . S
C669 C670 1.392 . S
C669 C673 1.495 . S
C670 C669 1.392 . S
C670 C671 1.385 . S
C670 C672 1.478 . S
C671 H665 0.930 . S
C671 C667 1.400 . S
C671 C670 1.385 . S
C672 C670 1.478 . S
C672 C674 1.381 . S
C672 C678 1.383 1_545 S
C673 C669 1.495 . S
C673 H679 0.959 . S
C673 H680 0.961 . S
C673 H681 0.960 . S
C674 C672 1.381 . S
C674 C675 1.394 1_545 S
C674 H682 0.930 . S
C675 C674 1.394 1_565 S
C675 C676 1.383 . S
C675 H683 0.929 . S
C676 C675 1.383 . S
C676 C677 1.377 . S
C677 H661 0.930 . S
C677 C676 1.377 . S
C677 C678 1.379 . S
C678 H662 0.931 . S
C678 C672 1.383 1_565 S
C678 C677 1.379 . S
H679 C673 0.959 . S
H680 C673 0.961 . S
H681 C673 0.960 . S
H682 C674 0.930 . S
H683 C675 0.929 . S
H684 C692 0.929 . S
H685 C694 0.930 . S
H686 C696 0.930 . S
H687 C699 0.929 . S
H688 C702 0.930 . S
H689 C704 0.960 . S
H690 C704 0.960 . S
H691 C704 0.960 . S
C692 H684 0.929 . S
C692 C693 1.377 . S
C692 C694 1.384 . S
C693 C692 1.377 . S
C693 C699 1.390 . S
C694 H685 0.930 . S
C694 C692 1.384 . S
C694 C695 1.372 . S
C695 C694 1.372 . S
C695 C696 1.400 . S
C695 C700 1.490 . S
C696 H686 0.930 . S
C696 C695 1.400 . S
C696 C699 1.386 . S
H697 C713 0.930 . S
H698 C714 0.931 . S
C699 H687 0.929 . S
C699 C693 1.390 . S
C699 C696 1.386 . S
C700 C695 1.490 . S
C700 C702 1.395 . S
C700 C703 1.403 . S
H701 C707 0.930 . S
C702 H688 0.930 . S
C702 C700 1.395 . S
C702 C705 1.403 . S
C703 C700 1.403 . S
C703 C704 1.524 . S
C703 C707 1.400 . S
C704 H689 0.960 . S
C704 H690 0.960 . S
C704 H691 0.960 . S
C704 C703 1.524 . S
C705 C702 1.403 . S
C705 C706 1.392 . S
C705 C709 1.495 . S
C706 C705 1.392 . S
C706 C707 1.385 . S
C706 C708 1.478 . S
C707 H701 0.930 . S
C707 C703 1.400 . S
C707 C706 1.385 . S
C708 C706 1.478 . S
C708 C710 1.381 . S
C708 C714 1.383 . S
C709 C705 1.495 . S
C709 H715 0.959 . S
C709 H716 0.961 . S
C709 H717 0.960 . S
C710 C708 1.381 . S
C710 C711 1.394 1_455 S
C710 H718 0.930 . S
C711 C710 1.394 1_655 S
C711 C712 1.383 . S
C711 H719 0.929 . S
C712 C711 1.383 . S
C712 C713 1.377 . S
C713 H697 0.930 . S
C713 C712 1.377 . S
C713 C714 1.379 1_655 S
C714 H698 0.931 . S
C714 C708 1.383 . S
C714 C713 1.379 1_455 S
H715 C709 0.959 . S
H716 C709 0.961 . S
H717 C709 0.960 . S
H718 C710 0.930 . S
H719 C711 0.929 . S
H720 C728 0.929 . S
H721 C730 0.930 . S
H722 C732 0.930 . S
H723 C735 0.929 . S
H724 C738 0.930 . S
H725 C740 0.960 . S
H726 C740 0.960 . S
H727 C740 0.960 . S
C728 H720 0.929 . S
C728 C729 1.377 . S
C728 C730 1.384 . S
C729 C728 1.377 . S
C729 C735 1.390 . S
C730 H721 0.930 . S
C730 C728 1.384 . S
C730 C731 1.372 1_455 S
C731 C730 1.372 1_655 S
C731 C732 1.400 . S
C731 C736 1.490 . S
C732 H722 0.930 . S
C732 C731 1.400 . S
C732 C735 1.386 1_655 S
H733 C749 0.942 1_565 S
H734 C750 0.931 . S
C735 H723 0.929 . S
C735 C729 1.390 . S
C735 C732 1.386 1_455 S
C736 C731 1.490 . S
C736 C738 1.395 . S
C736 C739 1.403 . S
H737 C743 0.930 . S
C738 H724 0.930 . S
C738 C736 1.395 . S
C738 C741 1.403 . S
C739 C736 1.403 . S
C739 C740 1.524 . S
C739 C743 1.400 . S
C740 H725 0.960 . S
C740 H726 0.960 . S
C740 H727 0.960 . S
C740 C739 1.524 . S
C741 C738 1.403 . S
C741 C742 1.392 . S
C741 C745 1.495 . S
C742 C741 1.392 . S
C742 C743 1.385 . S
C742 C744 1.478 . S
C743 H737 0.930 . S
C743 C739 1.400 . S
C743 C742 1.385 . S
C744 C742 1.478 . S
C744 C746 1.381 . S
C744 C750 1.383 . S
C745 C741 1.495 . S
C745 H751 0.959 . S
C745 H752 0.961 . S
C745 H753 0.960 . S
C746 C744 1.381 . S
C746 C747 1.394 1_545 S
C746 H754 0.930 . S
C747 C746 1.394 1_565 S
C747 C748 1.383 . S
C747 H755 0.929 . S
C748 C747 1.383 . S
C748 C749 1.377 1_565 S
C749 H733 0.942 1_545 S
C749 C748 1.377 1_545 S
C749 C750 1.379 . S
C750 H734 0.931 . S
C750 C744 1.383 . S
C750 C749 1.379 . S
H751 C745 0.959 . S
H752 C745 0.961 . S
H753 C745 0.960 . S
H754 C746 0.930 . S
H755 C747 0.929 . S
H756 C764 0.929 . S
H757 C766 0.930 . S
H758 C768 0.930 . S
H759 C771 0.929 . S
H760 C774 0.930 . S
H761 C776 0.960 . S
H762 C776 0.960 . S
H763 C776 0.960 . S
C764 H756 0.929 . S
C764 C765 1.377 . S
C764 C766 1.384 . S
C765 C764 1.377 . S
C765 C771 1.390 . S
C766 H757 0.930 . S
C766 C764 1.384 . S
C766 C767 1.372 . S
C767 C766 1.372 . S
C767 C768 1.400 . S
C767 C772 1.490 . S
C768 H758 0.930 . S
C768 C767 1.400 . S
C768 C771 1.386 . S
H769 C785 0.930 . S
H770 C786 0.931 . S
C771 H759 0.929 . S
C771 C765 1.390 . S
C771 C768 1.386 . S
C772 C767 1.490 . S
C772 C774 1.395 . S
C772 C775 1.403 . S
H773 C779 0.930 . S
C774 H760 0.930 . S
C774 C772 1.395 . S
C774 C777 1.403 . S
C775 C772 1.403 . S
C775 C776 1.524 . S
C775 C779 1.400 . S
C776 H761 0.960 . S
C776 H762 0.960 . S
C776 H763 0.960 . S
C776 C775 1.524 . S
C777 C774 1.403 . S
C777 C778 1.392 . S
C777 C781 1.495 . S
C778 C777 1.392 . S
C778 C779 1.385 . S
C778 C780 1.478 . S
C779 H773 0.930 . S
C779 C775 1.400 . S
C779 C778 1.385 . S
C780 C778 1.478 . S
C780 C782 1.381 . S
C780 C786 1.383 1_565 S
C781 C777 1.495 . S
C781 H787 0.959 . S
C781 H788 0.961 . S
C781 H789 0.960 . S
C782 C780 1.381 . S
C782 C783 1.394 1_565 S
C782 H790 0.930 . S
C783 C782 1.394 1_545 S
C783 C784 1.383 . S
C783 H791 0.929 . S
C784 C783 1.383 . S
C784 C785 1.377 . S
C785 H769 0.930 . S
C785 C784 1.377 . S
C785 C786 1.379 . S
C786 H770 0.931 . S
C786 C780 1.383 1_545 S
C786 C785 1.379 . S
H787 C781 0.959 . S
H788 C781 0.961 . S
H789 C781 0.960 . S
H790 C782 0.930 . S
H791 C783 0.929 . S
H792 C800 0.929 . S
H793 C802 0.930 . S
H794 C804 0.930 . S
H795 C807 0.929 . S
H796 C810 0.930 . S
H797 C812 0.960 . S
H798 C812 0.960 . S
H799 C812 0.960 . S
C800 H792 0.929 . S
C800 C801 1.377 . S
C800 C802 1.384 . S
C801 C800 1.377 . S
C801 C807 1.390 . S
C802 H793 0.930 . S
C802 C800 1.384 . S
C802 C803 1.372 . S
C803 C802 1.372 . S
C803 C804 1.400 . S
C803 C808 1.490 . S
C804 H794 0.930 . S
C804 C803 1.400 . S
C804 C807 1.386 . S
H805 C821 0.930 . S
H806 C822 0.931 . S
C807 H795 0.929 . S
C807 C801 1.390 . S
C807 C804 1.386 . S
C808 C803 1.490 . S
C808 C810 1.395 . S
C808 C811 1.403 . S
H809 C815 0.930 . S
C810 H796 0.930 . S
C810 C808 1.395 . S
C810 C813 1.403 . S
C811 C808 1.403 . S
C811 C812 1.524 . S
C811 C815 1.400 . S
C812 H797 0.960 . S
C812 H798 0.960 . S
C812 H799 0.960 . S
C812 C811 1.524 . S
C813 C810 1.403 . S
C813 C814 1.392 . S
C813 C817 1.495 . S
C814 C813 1.392 . S
C814 C815 1.385 . S
C814 C816 1.478 . S
C815 H809 0.930 . S
C815 C811 1.400 . S
C815 C814 1.385 . S
C816 C814 1.478 . S
C816 C818 1.381 . S
C816 C822 1.383 . S
C817 C813 1.495 . S
C817 H823 0.959 . S
C817 H824 0.961 . S
C817 H825 0.960 . S
C818 C816 1.381 . S
C818 C819 1.394 . S
C818 H826 0.930 . S
C819 C818 1.394 . S
C819 C820 1.383 . S
C819 H827 0.929 . S
C820 C819 1.383 . S
C820 C821 1.377 . S
C821 H805 0.930 . S
C821 C820 1.377 . S
C821 C822 1.379 . S
C822 H806 0.931 . S
C822 C816 1.383 . S
C822 C821 1.379 . S
H823 C817 0.959 . S
H824 C817 0.961 . S
H825 C817 0.960 . S
H826 C818 0.930 . S
H827 C819 0.929 . S
H828 C836 0.929 . S
H829 C838 0.930 . S
H830 C840 0.930 . S
H831 C843 0.929 . S
H832 C846 0.930 . S
H833 C848 0.960 . S
H834 C848 0.960 . S
H835 C848 0.960 . S
C836 H828 0.929 . S
C836 C837 1.377 . S
C836 C838 1.384 . S
C837 C836 1.377 . S
C837 C843 1.390 . S
C838 H829 0.930 . S
C838 C836 1.384 . S
C838 C839 1.372 . S
C839 C838 1.372 . S
C839 C840 1.400 . S
C839 C844 1.490 . S
C840 H830 0.930 . S
C840 C839 1.400 . S
C840 C843 1.386 . S
H841 C857 0.930 . S
H842 C858 0.931 . S
C843 H831 0.929 . S
C843 C837 1.390 . S
C843 C840 1.386 . S
C844 C839 1.490 . S
C844 C846 1.395 . S
C844 C847 1.403 . S
H845 C851 0.930 . S
C846 H832 0.930 . S
C846 C844 1.395 . S
C846 C849 1.403 . S
C847 C844 1.403 . S
C847 C848 1.524 . S
C847 C851 1.400 . S
C848 H833 0.960 . S
C848 H834 0.960 . S
C848 H835 0.960 . S
C848 C847 1.524 . S
C849 C846 1.403 . S
C849 C850 1.392 . S
C849 C853 1.495 . S
C850 C849 1.392 . S
C850 C851 1.385 . S
C850 C852 1.478 . S
C851 H845 0.930 . S
C851 C847 1.400 . S
C851 C850 1.385 . S
C852 C850 1.478 . S
C852 C854 1.381 . S
C852 C858 1.383 . S
C853 C849 1.495 . S
C853 H859 0.959 . S
C853 H860 0.961 . S
C853 H861 0.960 . S
C854 C852 1.381 . S
C854 C855 1.394 . S
C854 H862 0.930 . S
C855 C854 1.394 . S
C855 C856 1.383 . S
C855 H863 0.929 . S
C856 C855 1.383 . S
C856 C857 1.377 . S
C857 H841 0.930 . S
C857 C856 1.377 . S
C857 C858 1.379 . S
C858 H842 0.931 . S
C858 C852 1.383 . S
C858 C857 1.379 . S
H859 C853 0.959 . S
H860 C853 0.961 . S
H861 C853 0.960 . S
H862 C854 0.930 . S
H863 C855 0.929 . S
H864 C872 0.929 . S
H865 C874 0.930 . S
H866 C876 0.930 . S
H867 C879 0.929 . S
H868 C882 0.930 . S
H869 C884 0.960 . S
H870 C884 0.960 . S
H871 C884 0.960 . S
C872 H864 0.929 . S
C872 C873 1.377 . S
C872 C874 1.384 . S
C873 C872 1.377 . S
C873 C879 1.390 . S
C874 H865 0.930 . S
C874 C872 1.384 . S
C874 C875 1.372 . S
C875 C874 1.372 . S
C875 C876 1.400 . S
C875 C880 1.490 . S
C876 H866 0.930 . S
C876 C875 1.400 . S
C876 C879 1.386 . S
H877 C893 0.930 . S
H878 C894 0.931 . S
C879 H867 0.929 . S
C879 C873 1.390 . S
C879 C876 1.386 . S
C880 C875 1.490 . S
C880 C882 1.395 . S
C880 C883 1.403 . S
H881 C887 0.930 . S
C882 H868 0.930 . S
C882 C880 1.395 . S
C882 C885 1.403 . S
C883 C880 1.403 . S
C883 C884 1.524 . S
C883 C887 1.400 . S
C884 H869 0.960 . S
C884 H870 0.960 . S
C884 H871 0.960 . S
C884 C883 1.524 . S
C885 C882 1.403 . S
C885 C886 1.392 . S
C885 C889 1.495 . S
C886 C885 1.392 . S
C886 C887 1.385 . S
C886 C888 1.478 . S
C887 H881 0.930 . S
C887 C883 1.400 . S
C887 C886 1.385 . S
C888 C886 1.478 . S
C888 C890 1.381 . S
C888 C894 1.383 . S
C889 C885 1.495 . S
C889 H895 0.959 . S
C889 H896 0.961 . S
C889 H897 0.960 . S
C890 C888 1.381 . S
C890 C891 1.394 . S
C890 H898 0.930 . S
C891 C890 1.394 . S
C891 C892 1.383 . S
C891 H899 0.929 . S
C892 C891 1.383 . S
C892 C893 1.377 . S
C893 H877 0.930 . S
C893 C892 1.377 . S
C893 C894 1.379 . S
C894 H878 0.931 . S
C894 C888 1.383 . S
C894 C893 1.379 . S
H895 C889 0.959 . S
H896 C889 0.961 . S
H897 C889 0.960 . S
H898 C890 0.930 . S
H899 C891 0.929 . S
H900 C908 0.929 . S
H901 C910 0.930 . S
H902 C912 0.930 . S
H903 C915 0.929 . S
H904 C918 0.930 . S
H905 C920 0.960 . S
H906 C920 0.960 . S
H907 C920 0.960 . S
C908 H900 0.929 . S
C908 C909 1.377 . S
C908 C910 1.384 . S
C909 C908 1.377 . S
C909 C915 1.390 . S
C910 H901 0.930 . S
C910 C908 1.384 . S
C910 C911 1.372 . S
C911 C910 1.372 . S
C911 C912 1.400 . S
C911 C916 1.490 . S
C912 H902 0.930 . S
C912 C911 1.400 . S
C912 C915 1.386 . S
H913 C929 0.930 . S
H914 C930 0.931 . S
C915 H903 0.929 . S
C915 C909 1.390 . S
C915 C912 1.386 . S
C916 C911 1.490 . S
C916 C918 1.395 . S
C916 C919 1.403 . S
H917 C923 0.930 . S
C918 H904 0.930 . S
C918 C916 1.395 . S
C918 C921 1.403 . S
C919 C916 1.403 . S
C919 C920 1.524 . S
C919 C923 1.400 . S
C920 H905 0.960 . S
C920 H906 0.960 . S
C920 H907 0.960 . S
C920 C919 1.524 . S
C921 C918 1.403 . S
C921 C922 1.392 . S
C921 C925 1.495 . S
C922 C921 1.392 . S
C922 C923 1.385 . S
C922 C924 1.478 . S
C923 H917 0.930 . S
C923 C919 1.400 . S
C923 C922 1.385 . S
C924 C922 1.478 . S
C924 C926 1.381 . S
C924 C930 1.383 . S
C925 C921 1.495 . S
C925 H931 0.959 . S
C925 H932 0.961 . S
C925 H933 0.960 . S
C926 C924 1.381 . S
C926 C927 1.394 . S
C926 H934 0.930 . S
C927 C926 1.394 . S
C927 C928 1.383 . S
C927 H935 0.929 . S
C928 C927 1.383 . S
C928 C929 1.377 . S
C929 H913 0.930 . S
C929 C928 1.377 . S
C929 C930 1.379 . S
C930 H914 0.931 . S
C930 C924 1.383 . S
C930 C929 1.379 . S
H931 C925 0.959 . S
H932 C925 0.961 . S
H933 C925 0.960 . S
H934 C926 0.930 . S
H935 C927 0.929 . S
H936 C944 0.929 . S
H937 C946 0.930 . S
H938 C948 0.930 . S
H939 C951 0.929 . S
H940 C954 0.930 . S
H941 C956 0.960 . S
H942 C956 0.960 . S
H943 C956 0.960 . S
C944 H936 0.929 . S
C944 C945 1.377 . S
C944 C946 1.384 . S
C945 C944 1.377 . S
C945 C951 1.390 . S
C946 H937 0.930 . S
C946 C944 1.384 . S
C946 C947 1.372 . S
C947 C946 1.372 . S
C947 C948 1.400 . S
C947 C952 1.490 . S
C948 H938 0.930 . S
C948 C947 1.400 . S
C948 C951 1.386 . S
H949 C965 0.930 . S
H950 C966 0.931 . S
C951 H939 0.929 . S
C951 C945 1.390 . S
C951 C948 1.386 . S
C952 C947 1.490 . S
C952 C954 1.395 . S
C952 C955 1.403 . S
H953 C959 0.930 . S
C954 H940 0.930 . S
C954 C952 1.395 . S
C954 C957 1.403 . S
C955 C952 1.403 . S
C955 C956 1.524 . S
C955 C959 1.400 . S
C956 H941 0.960 . S
C956 H942 0.960 . S
C956 H943 0.960 . S
C956 C955 1.524 . S
C957 C954 1.403 . S
C957 C958 1.392 . S
C957 C961 1.495 . S
C958 C957 1.392 . S
C958 C959 1.385 . S
C958 C960 1.478 . S
C959 H953 0.930 . S
C959 C955 1.400 . S
C959 C958 1.385 . S
C960 C958 1.478 . S
C960 C962 1.381 . S
C960 C966 1.383 . S
C961 C957 1.495 . S
C961 H967 0.959 . S
C961 H968 0.961 . S
C961 H969 0.960 . S
C962 C960 1.381 . S
C962 C963 1.394 . S
C962 H970 0.930 . S
C963 C962 1.394 . S
C963 C964 1.383 . S
C963 H971 0.929 . S
C964 C963 1.383 . S
C964 C965 1.377 . S
C965 H949 0.930 . S
C965 C964 1.377 . S
C965 C966 1.379 . S
C966 H950 0.931 . S
C966 C960 1.383 . S
C966 C965 1.379 . S
H967 C961 0.959 . S
H968 C961 0.961 . S
H969 C961 0.960 . S
H970 C962 0.930 . S
H971 C963 0.929 . S
H972 C980 0.929 . S
H973 C982 0.930 . S
H974 C984 0.930 . S
H975 C987 0.929 . S
H976 C990 0.930 . S
H977 C992 0.960 . S
H978 C992 0.960 . S
H979 C992 0.960 . S
C980 H972 0.929 . S
C980 C981 1.377 . S
C980 C982 1.384 . S
C981 C980 1.377 . S
C981 C987 1.390 . S
C982 H973 0.930 . S
C982 C980 1.384 . S
C982 C983 1.372 . S
C983 C982 1.372 . S
C983 C984 1.400 . S
C983 C988 1.490 . S
C984 H974 0.930 . S
C984 C983 1.400 . S
C984 C987 1.386 . S
H985 C1001 0.930 . S
H986 C1002 0.931 . S
C987 H975 0.929 . S
C987 C981 1.390 . S
C987 C984 1.386 . S
C988 C983 1.490 . S
C988 C990 1.395 . S
C988 C991 1.403 . S
H989 C995 0.930 . S
C990 H976 0.930 . S
C990 C988 1.395 . S
C990 C993 1.403 . S
C991 C988 1.403 . S
C991 C992 1.524 . S
C991 C995 1.400 . S
C992 H977 0.960 . S
C992 H978 0.960 . S
C992 H979 0.960 . S
C992 C991 1.524 . S
C993 C990 1.403 . S
C993 C994 1.392 . S
C993 C997 1.495 . S
C994 C993 1.392 . S
C994 C995 1.385 . S
C994 C996 1.478 . S
C995 H989 0.930 . S
C995 C991 1.400 . S
C995 C994 1.385 . S
C996 C994 1.478 . S
C996 C998 1.381 . S
C996 C1002 1.383 . S
C997 C993 1.495 . S
C997 H1003 0.959 . S
C997 H1004 0.961 . S
C997 H1005 0.960 . S
C998 C996 1.381 . S
C998 C999 1.394 . S
C998 H1006 0.930 . S
C999 C998 1.394 . S
C999 C1000 1.383 . S
C999 H1007 0.929 . S
C1000 C999 1.383 . S
C1000 C1001 1.377 . S
C1001 H985 0.930 . S
C1001 C1000 1.377 . S
C1001 C1002 1.379 . S
C1002 H986 0.931 . S
C1002 C996 1.383 . S
C1002 C1001 1.379 . S
H1003 C997 0.959 . S
H1004 C997 0.961 . S
H1005 C997 0.960 . S
H1006 C998 0.930 . S
H1007 C999 0.929 . S
H1008 C1016 0.929 . S
H1009 C1018 0.930 . S
H1010 C1020 0.930 . S
H1011 C1023 0.929 . S
H1012 C1026 0.930 . S
H1013 C1028 0.960 . S
H1014 C1028 0.960 . S
H1015 C1028 0.960 . S
C1016 H1008 0.929 . S
C1016 C1017 1.377 . S
C1016 C1018 1.384 . S
C1017 C1016 1.377 . S
C1017 C1023 1.390 . S
C1018 H1009 0.930 . S
C1018 C1016 1.384 . S
C1018 C1019 1.372 . S
C1019 C1018 1.372 . S
C1019 C1020 1.400 . S
C1019 C1024 1.490 . S
C1020 H1010 0.930 . S
C1020 C1019 1.400 . S
C1020 C1023 1.386 . S
H1021 C1037 0.930 . S
H1022 C1038 0.931 . S
C1023 H1011 0.929 . S
C1023 C1017 1.390 . S
C1023 C1020 1.386 . S
C1024 C1019 1.490 . S
C1024 C1026 1.395 . S
C1024 C1027 1.403 . S
H1025 C1031 0.930 . S
C1026 H1012 0.930 . S
C1026 C1024 1.395 . S
C1026 C1029 1.403 . S
C1027 C1024 1.403 . S
C1027 C1028 1.524 . S
C1027 C1031 1.400 . S
C1028 H1013 0.960 . S
C1028 H1014 0.960 . S
C1028 H1015 0.960 . S
C1028 C1027 1.524 . S
C1029 C1026 1.403 . S
C1029 C1030 1.392 . S
C1029 C1033 1.495 . S
C1030 C1029 1.392 . S
C1030 C1031 1.385 . S
C1030 C1032 1.478 . S
C1031 H1025 0.930 . S
C1031 C1027 1.400 . S
C1031 C1030 1.385 . S
C1032 C1030 1.478 . S
C1032 C1034 1.381 . S
C1032 C1038 1.383 . S
C1033 C1029 1.495 . S
C1033 H1039 0.959 . S
C1033 H1040 0.961 . S
C1033 H1041 0.960 . S
C1034 C1032 1.381 . S
C1034 C1035 1.394 . S
C1034 H1042 0.930 . S
C1035 C1034 1.394 . S
C1035 C1036 1.383 . S
C1035 H1043 0.929 . S
C1036 C1035 1.383 . S
C1036 C1037 1.377 . S
C1037 H1021 0.930 . S
C1037 C1036 1.377 . S
C1037 C1038 1.379 . S
C1038 H1022 0.931 . S
C1038 C1032 1.383 . S
C1038 C1037 1.379 . S
H1039 C1033 0.959 . S
H1040 C1033 0.961 . S
H1041 C1033 0.960 . S
H1042 C1034 0.930 . S
H1043 C1035 0.929 . S
H1044 C1052 0.929 . S
H1045 C1054 0.930 . S
H1046 C1056 0.930 . S
H1047 C1059 0.929 . S
H1048 C1062 0.930 . S
H1049 C1064 0.960 . S
H1050 C1064 0.960 . S
H1051 C1064 0.960 . S
C1052 H1044 0.929 . S
C1052 C1053 1.377 . S
C1052 C1054 1.384 . S
C1053 C1052 1.377 . S
C1053 C1059 1.390 . S
C1054 H1045 0.930 . S
C1054 C1052 1.384 . S
C1054 C1055 1.372 . S
C1055 C1054 1.372 . S
C1055 C1056 1.400 . S
C1055 C1060 1.490 . S
C1056 H1046 0.930 . S
C1056 C1055 1.400 . S
C1056 C1059 1.386 . S
H1057 C1073 0.930 . S
H1058 C1074 0.931 . S
C1059 H1047 0.929 . S
C1059 C1053 1.390 . S
C1059 C1056 1.386 . S
C1060 C1055 1.490 . S
C1060 C1062 1.395 . S
C1060 C1063 1.403 . S
H1061 C1067 0.930 . S
C1062 H1048 0.930 . S
C1062 C1060 1.395 . S
C1062 C1065 1.403 . S
C1063 C1060 1.403 . S
C1063 C1064 1.524 . S
C1063 C1067 1.400 . S
C1064 H1049 0.960 . S
C1064 H1050 0.960 . S
C1064 H1051 0.960 . S
C1064 C1063 1.524 . S
C1065 C1062 1.403 . S
C1065 C1066 1.392 . S
C1065 C1069 1.495 . S
C1066 C1065 1.392 . S
C1066 C1067 1.385 . S
C1066 C1068 1.478 . S
C1067 H1061 0.930 . S
C1067 C1063 1.400 . S
C1067 C1066 1.385 . S
C1068 C1066 1.478 . S
C1068 C1070 1.381 . S
C1068 C1074 1.383 . S
C1069 C1065 1.495 . S
C1069 H1075 0.959 . S
C1069 H1076 0.961 . S
C1069 H1077 0.960 . S
C1070 C1068 1.381 . S
C1070 C1071 1.394 . S
C1070 H1078 0.930 . S
C1071 C1070 1.394 . S
C1071 C1072 1.383 . S
C1071 H1079 0.929 . S
C1072 C1071 1.383 . S
C1072 C1073 1.377 . S
C1073 H1057 0.930 . S
C1073 C1072 1.377 . S
C1073 C1074 1.379 . S
C1074 H1058 0.931 . S
C1074 C1068 1.383 . S
C1074 C1073 1.379 . S
H1075 C1069 0.959 . S
H1076 C1069 0.961 . S
H1077 C1069 0.960 . S
H1078 C1070 0.930 . S
H1079 C1071 0.929 . S
H1080 C1088 0.929 . S
H1081 C1090 0.930 . S
H1082 C1092 0.930 . S
H1083 C1095 0.929 . S
H1084 C1098 0.930 . S
H1085 C1100 0.960 . S
H1086 C1100 0.960 . S
H1087 C1100 0.960 . S
C1088 H1080 0.929 . S
C1088 C1089 1.377 . S
C1088 C1090 1.384 . S
C1089 C1088 1.377 . S
C1089 C1095 1.390 . S
C1090 H1081 0.930 . S
C1090 C1088 1.384 . S
C1090 C1091 1.372 . S
C1091 C1090 1.372 . S
C1091 C1092 1.400 . S
C1091 C1096 1.490 . S
C1092 H1082 0.930 . S
C1092 C1091 1.400 . S
C1092 C1095 1.386 . S
H1093 C1109 0.930 . S
H1094 C1110 0.931 . S
C1095 H1083 0.929 . S
C1095 C1089 1.390 . S
C1095 C1092 1.386 . S
C1096 C1091 1.490 . S
C1096 C1098 1.395 . S
C1096 C1099 1.403 . S
H1097 C1103 0.930 . S
C1098 H1084 0.930 . S
C1098 C1096 1.395 . S
C1098 C1101 1.403 . S
C1099 C1096 1.403 . S
C1099 C1100 1.524 . S
C1099 C1103 1.400 . S
C1100 H1085 0.960 . S
C1100 H1086 0.960 . S
C1100 H1087 0.960 . S
C1100 C1099 1.524 . S
C1101 C1098 1.403 . S
C1101 C1102 1.392 . S
C1101 C1105 1.495 . S
C1102 C1101 1.392 . S
C1102 C1103 1.385 . S
C1102 C1104 1.478 . S
C1103 H1097 0.930 . S
C1103 C1099 1.400 . S
C1103 C1102 1.385 . S
C1104 C1102 1.478 . S
C1104 C1106 1.381 . S
C1104 C1110 1.383 . S
C1105 C1101 1.495 . S
C1105 H1111 0.959 . S
C1105 H1112 0.961 . S
C1105 H1113 0.960 . S
C1106 C1104 1.381 . S
C1106 C1107 1.394 . S
C1106 H1114 0.930 . S
C1107 C1106 1.394 . S
C1107 C1108 1.383 . S
C1107 H1115 0.929 . S
C1108 C1107 1.383 . S
C1108 C1109 1.377 . S
C1109 H1093 0.930 . S
C1109 C1108 1.377 . S
C1109 C1110 1.379 . S
C1110 H1094 0.931 . S
C1110 C1104 1.383 . S
C1110 C1109 1.379 . S
H1111 C1105 0.959 . S
H1112 C1105 0.961 . S
H1113 C1105 0.960 . S
H1114 C1106 0.930 . S
H1115 C1107 0.929 . S
H1116 C1124 0.929 . S
H1117 C1126 0.930 . S
H1118 C1128 0.930 . S
H1119 C1131 0.929 . S
H1120 C1134 0.930 . S
H1121 C1136 0.960 . S
H1122 C1136 0.960 . S
H1123 C1136 0.960 . S
C1124 H1116 0.929 . S
C1124 C1125 1.377 . S
C1124 C1126 1.384 . S
C1125 C1124 1.377 . S
C1125 C1131 1.390 . S
C1126 H1117 0.930 . S
C1126 C1124 1.384 . S
C1126 C1127 1.372 . S
C1127 C1126 1.372 . S
C1127 C1128 1.400 . S
C1127 C1132 1.490 . S
C1128 H1118 0.930 . S
C1128 C1127 1.400 . S
C1128 C1131 1.386 . S
H1129 C1145 0.930 . S
H1130 C1146 0.931 . S
C1131 H1119 0.929 . S
C1131 C1125 1.390 . S
C1131 C1128 1.386 . S
C1132 C1127 1.490 . S
C1132 C1134 1.395 . S
C1132 C1135 1.403 . S
H1133 C1139 0.930 . S
C1134 H1120 0.930 . S
C1134 C1132 1.395 . S
C1134 C1137 1.403 . S
C1135 C1132 1.403 . S
C1135 C1136 1.524 . S
C1135 C1139 1.400 . S
C1136 H1121 0.960 . S
C1136 H1122 0.960 . S
C1136 H1123 0.960 . S
C1136 C1135 1.524 . S
C1137 C1134 1.403 . S
C1137 C1138 1.392 . S
C1137 C1141 1.495 . S
C1138 C1137 1.392 . S
C1138 C1139 1.385 . S
C1138 C1140 1.478 . S
C1139 H1133 0.930 . S
C1139 C1135 1.400 . S
C1139 C1138 1.385 . S
C1140 C1138 1.478 . S
C1140 C1142 1.381 . S
C1140 C1146 1.383 . S
C1141 C1137 1.495 . S
C1141 H1147 0.959 . S
C1141 H1148 0.961 . S
C1141 H1149 0.960 . S
C1142 C1140 1.381 . S
C1142 C1143 1.394 . S
C1142 H1150 0.930 . S
C1143 C1142 1.394 . S
C1143 C1144 1.383 . S
C1143 H1151 0.929 . S
C1144 C1143 1.383 . S
C1144 C1145 1.377 . S
C1145 H1129 0.930 . S
C1145 C1144 1.377 . S
C1145 C1146 1.379 . S
C1146 H1130 0.931 . S
C1146 C1140 1.383 . S
C1146 C1145 1.379 . S
H1147 C1141 0.959 . S
H1148 C1141 0.961 . S
H1149 C1141 0.960 . S
H1150 C1142 0.930 . S
H1151 C1143 0.929 . S
H1152 C1160 0.929 . S
H1153 C1162 0.930 . S
H1154 C1164 0.930 . S
H1155 C1167 0.929 . S
H1156 C1170 0.930 . S
H1157 C1172 0.960 . S
H1158 C1172 0.960 . S
H1159 C1172 0.960 . S
C1160 H1152 0.929 . S
C1160 C1161 1.377 . S
C1160 C1162 1.384 . S
C1161 C1160 1.377 . S
C1161 C1167 1.390 . S
C1162 H1153 0.930 . S
C1162 C1160 1.384 . S
C1162 C1163 1.372 . S
C1163 C1162 1.372 . S
C1163 C1164 1.400 . S
C1163 C1168 1.490 . S
C1164 H1154 0.930 . S
C1164 C1163 1.400 . S
C1164 C1167 1.386 . S
H1165 C1181 0.930 . S
H1166 C1182 0.931 . S
C1167 H1155 0.929 . S
C1167 C1161 1.390 . S
C1167 C1164 1.386 . S
C1168 C1163 1.490 . S
C1168 C1170 1.395 . S
C1168 C1171 1.403 . S
H1169 C1175 0.930 . S
C1170 H1156 0.930 . S
C1170 C1168 1.395 . S
C1170 C1173 1.403 . S
C1171 C1168 1.403 . S
C1171 C1172 1.524 . S
C1171 C1175 1.400 . S
C1172 H1157 0.960 . S
C1172 H1158 0.960 . S
C1172 H1159 0.960 . S
C1172 C1171 1.524 . S
C1173 C1170 1.403 . S
C1173 C1174 1.392 . S
C1173 C1177 1.495 . S
C1174 C1173 1.392 . S
C1174 C1175 1.385 . S
C1174 C1176 1.478 . S
C1175 H1169 0.930 . S
C1175 C1171 1.400 . S
C1175 C1174 1.385 . S
C1176 C1174 1.478 . S
C1176 C1178 1.381 . S
C1176 C1182 1.383 . S
C1177 C1173 1.495 . S
C1177 H1183 0.959 . S
C1177 H1184 0.961 . S
C1177 H1185 0.960 . S
C1178 C1176 1.381 . S
C1178 C1179 1.394 . S
C1178 H1186 0.930 . S
C1179 C1178 1.394 . S
C1179 C1180 1.383 . S
C1179 H1187 0.929 . S
C1180 C1179 1.383 . S
C1180 C1181 1.377 . S
C1181 H1165 0.930 . S
C1181 C1180 1.377 . S
C1181 C1182 1.379 . S
C1182 H1166 0.931 . S
C1182 C1176 1.383 . S
C1182 C1181 1.379 . S
H1183 C1177 0.959 . S
H1184 C1177 0.961 . S
H1185 C1177 0.960 . S
H1186 C1178 0.930 . S
H1187 C1179 0.929 . S
H1188 C1196 0.929 . S
H1189 C1198 0.930 . S
H1190 C1200 0.930 . S
H1191 C1203 0.929 . S
H1192 C1206 0.930 . S
H1193 C1208 0.960 . S
H1194 C1208 0.960 . S
H1195 C1208 0.960 . S
C1196 H1188 0.929 . S
C1196 C1197 1.377 . S
C1196 C1198 1.384 . S
C1197 C1196 1.377 . S
C1197 C1203 1.390 . S
C1198 H1189 0.930 . S
C1198 C1196 1.384 . S
C1198 C1199 1.372 . S
C1199 C1198 1.372 . S
C1199 C1200 1.400 . S
C1199 C1204 1.490 . S
C1200 H1190 0.930 . S
C1200 C1199 1.400 . S
C1200 C1203 1.386 . S
H1201 C1217 0.930 . S
H1202 C1218 0.931 . S
C1203 H1191 0.929 . S
C1203 C1197 1.390 . S
C1203 C1200 1.386 . S
C1204 C1199 1.490 . S
C1204 C1206 1.395 . S
C1204 C1207 1.403 . S
H1205 C1211 0.930 . S
C1206 H1192 0.930 . S
C1206 C1204 1.395 . S
C1206 C1209 1.403 . S
C1207 C1204 1.403 . S
C1207 C1208 1.524 . S
C1207 C1211 1.400 . S
C1208 H1193 0.960 . S
C1208 H1194 0.960 . S
C1208 H1195 0.960 . S
C1208 C1207 1.524 . S
C1209 C1206 1.403 . S
C1209 C1210 1.392 . S
C1209 C1213 1.495 . S
C1210 C1209 1.392 . S
C1210 C1211 1.385 . S
C1210 C1212 1.478 . S
C1211 H1205 0.930 . S
C1211 C1207 1.400 . S
C1211 C1210 1.385 . S
C1212 C1210 1.478 . S
C1212 C1214 1.381 . S
C1212 C1218 1.383 . S
C1213 C1209 1.495 . S
C1213 H1219 0.959 . S
C1213 H1220 0.961 . S
C1213 H1221 0.960 . S
C1214 C1212 1.381 . S
C1214 C1215 1.394 . S
C1214 H1222 0.930 . S
C1215 C1214 1.394 . S
C1215 C1216 1.383 . S
C1215 H1223 0.929 . S
C1216 C1215 1.383 . S
C1216 C1217 1.377 . S
C1217 H1201 0.930 . S
C1217 C1216 1.377 . S
C1217 C1218 1.379 . S
C1218 H1202 0.931 . S
C1218 C1212 1.383 . S
C1218 C1217 1.379 . S
H1219 C1213 0.959 . S
H1220 C1213 0.961 . S
H1221 C1213 0.960 . S
H1222 C1214 0.930 . S
H1223 C1215 0.929 . S
H1224 C1232 0.929 . S
H1225 C1234 0.930 . S
H1226 C1236 0.930 . S
H1227 C1239 0.929 . S
H1228 C1242 0.930 . S
H1229 C1244 0.960 . S
H1230 C1244 0.960 . S
H1231 C1244 0.960 . S
C1232 H1224 0.929 . S
C1232 C1233 1.377 . S
C1232 C1234 1.384 . S
C1233 C1232 1.377 . S
C1233 C1239 1.390 . S
C1234 H1225 0.930 . S
C1234 C1232 1.384 . S
C1234 C1235 1.372 . S
C1235 C1234 1.372 . S
C1235 C1236 1.400 . S
C1235 C1240 1.490 . S
C1236 H1226 0.930 . S
C1236 C1235 1.400 . S
C1236 C1239 1.386 . S
H1237 C1253 0.930 . S
H1238 C1254 0.931 . S
C1239 H1227 0.929 . S
C1239 C1233 1.390 . S
C1239 C1236 1.386 . S
C1240 C1235 1.490 . S
C1240 C1242 1.395 . S
C1240 C1243 1.403 . S
H1241 C1247 0.930 . S
C1242 H1228 0.930 . S
C1242 C1240 1.395 . S
C1242 C1245 1.403 . S
C1243 C1240 1.403 . S
C1243 C1244 1.524 . S
C1243 C1247 1.400 . S
C1244 H1229 0.960 . S
C1244 H1230 0.960 . S
C1244 H1231 0.960 . S
C1244 C1243 1.524 . S
C1245 C1242 1.403 . S
C1245 C1246 1.392 . S
C1245 C1249 1.495 . S
C1246 C1245 1.392 . S
C1246 C1247 1.385 . S
C1246 C1248 1.478 . S
C1247 H1241 0.930 . S
C1247 C1243 1.400 . S
C1247 C1246 1.385 . S
C1248 C1246 1.478 . S
C1248 C1250 1.381 . S
C1248 C1254 1.383 . S
C1249 C1245 1.495 . S
C1249 H1255 0.959 . S
C1249 H1256 0.961 . S
C1249 H1257 0.960 . S
C1250 C1248 1.381 . S
C1250 C1251 1.394 . S
C1250 H1258 0.930 . S
C1251 C1250 1.394 . S
C1251 C1252 1.383 . S
C1251 H1259 0.929 . S
C1252 C1251 1.383 . S
C1252 C1253 1.377 . S
C1253 H1237 0.930 . S
C1253 C1252 1.377 . S
C1253 C1254 1.379 . S
C1254 H1238 0.931 . S
C1254 C1248 1.383 . S
C1254 C1253 1.379 . S
H1255 C1249 0.959 . S
H1256 C1249 0.961 . S
H1257 C1249 0.960 . S
H1258 C1250 0.930 . S
H1259 C1251 0.929 . S
H1260 C1268 0.929 . S
H1261 C1270 0.930 . S
H1262 C1272 0.930 . S
H1263 C1275 0.929 . S
H1264 C1278 0.930 . S
H1265 C1280 0.960 . S
H1266 C1280 0.960 . S
H1267 C1280 0.960 . S
C1268 H1260 0.929 . S
C1268 C1269 1.377 . S
C1268 C1270 1.384 . S
C1269 C1268 1.377 . S
C1269 C1275 1.390 . S
C1270 H1261 0.930 . S
C1270 C1268 1.384 . S
C1270 C1271 1.372 . S
C1271 C1270 1.372 . S
C1271 C1272 1.400 . S
C1271 C1276 1.490 . S
C1272 H1262 0.930 . S
C1272 C1271 1.400 . S
C1272 C1275 1.386 . S
H1273 C1289 0.930 . S
H1274 C1290 0.931 . S
C1275 H1263 0.929 . S
C1275 C1269 1.390 . S
C1275 C1272 1.386 . S
C1276 C1271 1.490 . S
C1276 C1278 1.395 . S
C1276 C1279 1.403 . S
H1277 C1283 0.930 . S
C1278 H1264 0.930 . S
C1278 C1276 1.395 . S
C1278 C1281 1.403 . S
C1279 C1276 1.403 . S
C1279 C1280 1.524 . S
C1279 C1283 1.400 . S
C1280 H1265 0.960 . S
C1280 H1266 0.960 . S
C1280 H1267 0.960 . S
C1280 C1279 1.524 . S
C1281 C1278 1.403 . S
C1281 C1282 1.392 . S
C1281 C1285 1.495 . S
C1282 C1281 1.392 . S
C1282 C1283 1.385 . S
C1282 C1284 1.478 . S
C1283 H1277 0.930 . S
C1283 C1279 1.400 . S
C1283 C1282 1.385 . S
C1284 C1282 1.478 . S
C1284 C1286 1.381 . S
C1284 C1290 1.383 . S
C1285 C1281 1.495 . S
C1285 H1291 0.959 . S
C1285 H1292 0.961 . S
C1285 H1293 0.960 . S
C1286 C1284 1.381 . S
C1286 C1287 1.394 . S
C1286 H1294 0.930 . S
C1287 C1286 1.394 . S
C1287 C1288 1.383 . S
C1287 H1295 0.929 . S
C1288 C1287 1.383 . S
C1288 C1289 1.377 . S
C1289 H1273 0.930 . S
C1289 C1288 1.377 . S
C1289 C1290 1.379 . S
C1290 H1274 0.931 . S
C1290 C1284 1.383 . S
C1290 C1289 1.379 . S
H1291 C1285 0.959 . S
H1292 C1285 0.961 . S
H1293 C1285 0.960 . S
H1294 C1286 0.930 . S
H1295 C1287 0.929 . S
H1296 C1304 0.929 . S
H1297 C1306 0.930 . S
H1298 C1308 0.930 . S
H1299 C1311 0.929 . S
H1300 C1314 0.930 . S
H1301 C1316 0.960 . S
H1302 C1316 0.960 . S
H1303 C1316 0.960 . S
C1304 H1296 0.929 . S
C1304 C1305 1.377 . S
C1304 C1306 1.384 . S
C1305 C1304 1.377 . S
C1305 C1311 1.390 . S
C1306 H1297 0.930 . S
C1306 C1304 1.384 . S
C1306 C1307 1.372 . S
C1307 C1306 1.372 . S
C1307 C1308 1.400 . S
C1307 C1312 1.490 . S
C1308 H1298 0.930 . S
C1308 C1307 1.400 . S
C1308 C1311 1.386 . S
H1309 C1325 0.930 . S
H1310 C1326 0.931 . S
C1311 H1299 0.929 . S
C1311 C1305 1.390 . S
C1311 C1308 1.386 . S
C1312 C1307 1.490 . S
C1312 C1314 1.395 . S
C1312 C1315 1.403 . S
H1313 C1319 0.930 . S
C1314 H1300 0.930 . S
C1314 C1312 1.395 . S
C1314 C1317 1.403 . S
C1315 C1312 1.403 . S
C1315 C1316 1.524 . S
C1315 C1319 1.400 . S
C1316 H1301 0.960 . S
C1316 H1302 0.960 . S
C1316 H1303 0.960 . S
C1316 C1315 1.524 . S
C1317 C1314 1.403 . S
C1317 C1318 1.392 . S
C1317 C1321 1.495 . S
C1318 C1317 1.392 . S
C1318 C1319 1.385 . S
C1318 C1320 1.478 . S
C1319 H1313 0.930 . S
C1319 C1315 1.400 . S
C1319 C1318 1.385 . S
C1320 C1318 1.478 . S
C1320 C1322 1.381 . S
C1320 C1326 1.383 . S
C1321 C1317 1.495 . S
C1321 H1327 0.959 . S
C1321 H1328 0.961 . S
C1321 H1329 0.960 . S
C1322 C1320 1.381 . S
C1322 C1323 1.394 . S
C1322 H1330 0.930 . S
C1323 C1322 1.394 . S
C1323 C1324 1.383 . S
C1323 H1331 0.929 . S
C1324 C1323 1.383 . S
C1324 C1325 1.377 . S
C1325 H1309 0.930 . S
C1325 C1324 1.377 . S
C1325 C1326 1.379 . S
C1326 H1310 0.931 . S
C1326 C1320 1.383 . S
C1326 C1325 1.379 . S
H1327 C1321 0.959 . S
H1328 C1321 0.961 . S
H1329 C1321 0.960 . S
H1330 C1322 0.930 . S
H1331 C1323 0.929 . S
H1332 C1340 0.929 . S
H1333 C1342 0.930 . S
H1334 C1344 0.930 . S
H1335 C1347 0.929 . S
H1336 C1350 0.930 . S
H1337 C1352 0.960 . S
H1338 C1352 0.960 . S
H1339 C1352 0.960 . S
C1340 H1332 0.929 . S
C1340 C1341 1.377 . S
C1340 C1342 1.384 . S
C1341 C1340 1.377 . S
C1341 C1347 1.390 . S
C1342 H1333 0.930 . S
C1342 C1340 1.384 . S
C1342 C1343 1.372 . S
C1343 C1342 1.372 . S
C1343 C1344 1.400 . S
C1343 C1348 1.490 . S
C1344 H1334 0.930 . S
C1344 C1343 1.400 . S
C1344 C1347 1.386 . S
H1345 C1361 0.930 . S
H1346 C1362 0.931 . S
C1347 H1335 0.929 . S
C1347 C1341 1.390 . S
C1347 C1344 1.386 . S
C1348 C1343 1.490 . S
C1348 C1350 1.395 . S
C1348 C1351 1.403 . S
H1349 C1355 0.930 . S
C1350 H1336 0.930 . S
C1350 C1348 1.395 . S
C1350 C1353 1.403 . S
C1351 C1348 1.403 . S
C1351 C1352 1.524 . S
C1351 C1355 1.400 . S
C1352 H1337 0.960 . S
C1352 H1338 0.960 . S
C1352 H1339 0.960 . S
C1352 C1351 1.524 . S
C1353 C1350 1.403 . S
C1353 C1354 1.392 . S
C1353 C1357 1.495 . S
C1354 C1353 1.392 . S
C1354 C1355 1.385 . S
C1354 C1356 1.478 . S
C1355 H1349 0.930 . S
C1355 C1351 1.400 . S
C1355 C1354 1.385 . S
C1356 C1354 1.478 . S
C1356 C1358 1.381 . S
C1356 C1362 1.383 . S
C1357 C1353 1.495 . S
C1357 H1363 0.959 . S
C1357 H1364 0.961 . S
C1357 H1365 0.960 . S
C1358 C1356 1.381 . S
C1358 C1359 1.394 . S
C1358 H1366 0.930 . S
C1359 C1358 1.394 . S
C1359 C1360 1.383 . S
C1359 H1367 0.929 . S
C1360 C1359 1.383 . S
C1360 C1361 1.377 . S
C1361 H1345 0.930 . S
C1361 C1360 1.377 . S
C1361 C1362 1.379 . S
C1362 H1346 0.931 . S
C1362 C1356 1.383 . S
C1362 C1361 1.379 . S
H1363 C1357 0.959 . S
H1364 C1357 0.961 . S
H1365 C1357 0.960 . S
H1366 C1358 0.930 . S
H1367 C1359 0.929 . S
H1368 C1376 0.929 . S
H1369 C1378 0.930 . S
H1370 C1380 0.930 . S
H1371 C1383 0.929 . S
H1372 C1386 0.930 . S
H1373 C1388 0.960 . S
H1374 C1388 0.960 . S
H1375 C1388 0.960 . S
C1376 H1368 0.929 . S
C1376 C1377 1.377 . S
C1376 C1378 1.384 . S
C1377 C1376 1.377 . S
C1377 C1383 1.390 . S
C1378 H1369 0.930 . S
C1378 C1376 1.384 . S
C1378 C1379 1.372 . S
C1379 C1378 1.372 . S
C1379 C1380 1.400 . S
C1379 C1384 1.490 . S
C1380 H1370 0.930 . S
C1380 C1379 1.400 . S
C1380 C1383 1.386 . S
H1381 C1397 0.930 . S
H1382 C1398 0.931 . S
C1383 H1371 0.929 . S
C1383 C1377 1.390 . S
C1383 C1380 1.386 . S
C1384 C1379 1.490 . S
C1384 C1386 1.395 . S
C1384 C1387 1.403 . S
H1385 C1391 0.930 . S
C1386 H1372 0.930 . S
C1386 C1384 1.395 . S
C1386 C1389 1.403 . S
C1387 C1384 1.403 . S
C1387 C1388 1.524 . S
C1387 C1391 1.400 . S
C1388 H1373 0.960 . S
C1388 H1374 0.960 . S
C1388 H1375 0.960 . S
C1388 C1387 1.524 . S
C1389 C1386 1.403 . S
C1389 C1390 1.392 . S
C1389 C1393 1.495 . S
C1390 C1389 1.392 . S
C1390 C1391 1.385 . S
C1390 C1392 1.478 . S
C1391 H1385 0.930 . S
C1391 C1387 1.400 . S
C1391 C1390 1.385 . S
C1392 C1390 1.478 . S
C1392 C1394 1.381 . S
C1392 C1398 1.383 . S
C1393 C1389 1.495 . S
C1393 H1399 0.959 . S
C1393 H1400 0.961 . S
C1393 H1401 0.960 . S
C1394 C1392 1.381 . S
C1394 C1395 1.394 . S
C1394 H1402 0.930 . S
C1395 C1394 1.394 . S
C1395 C1396 1.383 . S
C1395 H1403 0.929 . S
C1396 C1395 1.383 . S
C1396 C1397 1.377 . S
C1397 H1381 0.930 . S
C1397 C1396 1.377 . S
C1397 C1398 1.379 . S
C1398 H1382 0.931 . S
C1398 C1392 1.383 . S
C1398 C1397 1.379 . S
H1399 C1393 0.959 . S
H1400 C1393 0.961 . S
H1401 C1393 0.960 . S
H1402 C1394 0.930 . S
H1403 C1395 0.929 . S
H1404 C1412 0.929 . S
H1405 C1414 0.930 . S
H1406 C1416 0.930 . S
H1407 C1419 0.929 . S
H1408 C1422 0.930 . S
H1409 C1424 0.960 . S
H1410 C1424 0.960 . S
H1411 C1424 0.960 . S
C1412 H1404 0.929 . S
C1412 C1413 1.377 . S
C1412 C1414 1.384 . S
C1413 C1412 1.377 . S
C1413 C1419 1.390 . S
C1414 H1405 0.930 . S
C1414 C1412 1.384 . S
C1414 C1415 1.372 . S
C1415 C1414 1.372 . S
C1415 C1416 1.400 . S
C1415 C1420 1.490 . S
C1416 H1406 0.930 . S
C1416 C1415 1.400 . S
C1416 C1419 1.386 . S
H1417 C1433 0.930 . S
H1418 C1434 0.931 . S
C1419 H1407 0.929 . S
C1419 C1413 1.390 . S
C1419 C1416 1.386 . S
C1420 C1415 1.490 . S
C1420 C1422 1.395 . S
C1420 C1423 1.403 . S
H1421 C1427 0.930 . S
C1422 H1408 0.930 . S
C1422 C1420 1.395 . S
C1422 C1425 1.403 . S
C1423 C1420 1.403 . S
C1423 C1424 1.524 . S
C1423 C1427 1.400 . S
C1424 H1409 0.960 . S
C1424 H1410 0.960 . S
C1424 H1411 0.960 . S
C1424 C1423 1.524 . S
C1425 C1422 1.403 . S
C1425 C1426 1.392 . S
C1425 C1429 1.495 . S
C1426 C1425 1.392 . S
C1426 C1427 1.385 . S
C1426 C1428 1.478 . S
C1427 H1421 0.930 . S
C1427 C1423 1.400 . S
C1427 C1426 1.385 . S
C1428 C1426 1.478 . S
C1428 C1430 1.381 . S
C1428 C1434 1.383 . S
C1429 C1425 1.495 . S
C1429 H1435 0.959 . S
C1429 H1436 0.961 . S
C1429 H1437 0.960 . S
C1430 C1428 1.381 . S
C1430 C1431 1.394 . S
C1430 H1438 0.930 . S
C1431 C1430 1.394 . S
C1431 C1432 1.383 . S
C1431 H1439 0.929 . S
C1432 C1431 1.383 . S
C1432 C1433 1.377 . S
C1433 H1417 0.930 . S
C1433 C1432 1.377 . S
C1433 C1434 1.379 . S
C1434 H1418 0.931 . S
C1434 C1428 1.383 . S
C1434 C1433 1.379 . S
H1435 C1429 0.959 . S
H1436 C1429 0.961 . S
H1437 C1429 0.960 . S
H1438 C1430 0.930 . S
H1439 C1431 0.929 . S
H1440 C1448 0.929 . S
H1441 C1450 0.930 . S
H1442 C1452 0.930 . S
H1443 C1455 0.929 . S
H1444 C1458 0.930 . S
H1445 C1460 0.960 . S
H1446 C1460 0.960 . S
H1447 C1460 0.960 . S
C1448 H1440 0.929 . S
C1448 C1449 1.377 . S
C1448 C1450 1.384 . S
C1449 C1448 1.377 . S
C1449 C1455 1.390 . S
C1450 H1441 0.930 . S
C1450 C1448 1.384 . S
C1450 C1451 1.372 . S
C1451 C1450 1.372 . S
C1451 C1452 1.400 . S
C1451 C1456 1.490 . S
C1452 H1442 0.930 . S
C1452 C1451 1.400 . S
C1452 C1455 1.386 . S
H1453 C1469 0.930 . S
H1454 C1470 0.931 . S
C1455 H1443 0.929 . S
C1455 C1449 1.390 . S
C1455 C1452 1.386 . S
C1456 C1451 1.490 . S
C1456 C1458 1.395 . S
C1456 C1459 1.403 . S
H1457 C1463 0.930 . S
C1458 H1444 0.930 . S
C1458 C1456 1.395 . S
C1458 C1461 1.403 1_556 S
C1459 C1456 1.403 . S
C1459 C1460 1.524 . S
C1459 C1463 1.400 1_556 S
C1460 H1445 0.960 . S
C1460 H1446 0.960 . S
C1460 H1447 0.960 . S
C1460 C1459 1.524 . S
C1461 C1458 1.403 1_554 S
C1461 C1462 1.392 . S
C1461 C1465 1.495 . S
C1462 C1461 1.392 . S
C1462 C1463 1.385 . S
C1462 C1464 1.478 . S
C1463 H1457 0.930 . S
C1463 C1459 1.400 1_554 S
C1463 C1462 1.385 . S
C1464 C1462 1.478 . S
C1464 C1466 1.381 . S
C1464 C1470 1.383 . S
C1465 C1461 1.495 . S
C1465 H1471 0.959 . S
C1465 H1472 0.961 . S
C1465 H1473 0.960 . S
C1466 C1464 1.381 . S
C1466 C1467 1.394 . S
C1466 H1474 0.930 . S
C1467 C1466 1.394 . S
C1467 C1468 1.383 . S
C1467 H1475 0.929 . S
C1468 C1467 1.383 . S
C1468 C1469 1.377 . S
C1469 H1453 0.930 . S
C1469 C1468 1.377 . S
C1469 C1470 1.379 . S
C1470 H1454 0.931 . S
C1470 C1464 1.383 . S
C1470 C1469 1.379 . S
H1471 C1465 0.959 . S
H1472 C1465 0.961 . S
H1473 C1465 0.960 . S
H1474 C1466 0.930 . S
H1475 C1467 0.929 . S
H1476 C1484 0.929 . S
H1477 C1486 0.930 . S
H1478 C1488 0.930 . S
H1479 C1491 0.929 . S
H1480 C1494 0.930 . S
H1481 C1496 0.960 . S
H1482 C1496 0.960 . S
H1483 C1496 0.960 . S
C1484 H1476 0.929 . S
C1484 C1485 1.377 . S
C1484 C1486 1.384 . S
C1485 C1484 1.377 . S
C1485 C1491 1.390 . S
C1486 H1477 0.930 . S
C1486 C1484 1.384 . S
C1486 C1487 1.372 . S
C1487 C1486 1.372 . S
C1487 C1488 1.400 . S
C1487 C1492 1.490 . S
C1488 H1478 0.930 . S
C1488 C1487 1.400 . S
C1488 C1491 1.386 . S
H1489 C1505 0.930 . S
H1490 C1506 0.931 . S
C1491 H1479 0.929 . S
C1491 C1485 1.390 . S
C1491 C1488 1.386 . S
C1492 C1487 1.490 . S
C1492 C1494 1.395 1_455 S
C1492 C1495 1.403 . S
H1493 C1499 0.930 . S
C1494 H1480 0.930 . S
C1494 C1492 1.395 1_655 S
C1494 C1497 1.403 . S
C1495 C1492 1.403 . S
C1495 C1496 1.524 . S
C1495 C1499 1.400 . S
C1496 H1481 0.960 . S
C1496 H1482 0.960 . S
C1496 H1483 0.960 . S
C1496 C1495 1.524 . S
C1497 C1494 1.403 . S
C1497 C1498 1.392 . S
C1497 C1501 1.495 . S
C1498 C1497 1.392 . S
C1498 C1499 1.385 1_655 S
C1498 C1500 1.478 . S
C1499 H1493 0.930 . S
C1499 C1495 1.400 . S
C1499 C1498 1.385 1_455 S
C1500 C1498 1.478 . S
C1500 C1502 1.381 . S
C1500 C1506 1.383 . S
C1501 C1497 1.495 . S
C1501 H1507 0.959 . S
C1501 H1508 0.961 . S
C1501 H1509 0.960 . S
C1502 C1500 1.381 . S
C1502 C1503 1.394 . S
C1502 H1510 0.930 . S
C1503 C1502 1.394 . S
C1503 C1504 1.383 . S
C1503 H1511 0.929 . S
C1504 C1503 1.383 . S
C1504 C1505 1.377 . S
C1505 H1489 0.930 . S
C1505 C1504 1.377 . S
C1505 C1506 1.379 . S
C1506 H1490 0.931 . S
C1506 C1500 1.383 . S
C1506 C1505 1.379 . S
H1507 C1501 0.959 . S
H1508 C1501 0.961 . S
H1509 C1501 0.960 . S
H1510 C1502 0.930 . S
H1511 C1503 0.929 . S
H1512 C1520 0.929 . S
H1513 C1522 0.930 . S
H1514 C1524 0.930 . S
H1515 C1527 0.929 . S
H1516 C1530 0.930 . S
H1517 C1532 0.960 . S
H1518 C1532 0.960 . S
H1519 C1532 0.960 . S
C1520 H1512 0.929 . S
C1520 C1521 1.377 . S
C1520 C1522 1.384 . S
C1521 C1520 1.377 . S
C1521 C1527 1.390 . S
C1522 H1513 0.930 . S
C1522 C1520 1.384 . S
C1522 C1523 1.372 . S
C1523 C1522 1.372 . S
C1523 C1524 1.400 . S
C1523 C1528 1.490 . S
C1524 H1514 0.930 . S
C1524 C1523 1.400 . S
C1524 C1527 1.386 . S
H1525 C1541 0.930 . S
H1526 C1542 0.931 . S
C1527 H1515 0.929 . S
C1527 C1521 1.390 . S
C1527 C1524 1.386 . S
C1528 C1523 1.490 . S
C1528 C1530 1.395 1_565 S
C1528 C1531 1.403 1_554 S
H1529 C1535 0.930 . S
C1530 H1516 0.930 . S
C1530 C1528 1.395 1_545 S
C1530 C1533 1.403 . S
C1531 C1528 1.403 1_556 S
C1531 C1532 1.524 . S
C1531 C1535 1.400 . S
C1532 H1517 0.960 . S
C1532 H1518 0.960 . S
C1532 H1519 0.960 . S
C1532 C1531 1.524 . S
C1533 C1530 1.403 . S
C1533 C1534 1.392 1_554 S
C1533 C1537 1.495 . S
C1534 C1533 1.392 1_556 S
C1534 C1535 1.385 1_545 S
C1534 C1536 1.478 . S
C1535 H1529 0.930 . S
C1535 C1531 1.400 . S
C1535 C1534 1.385 1_565 S
C1536 C1534 1.478 . S
C1536 C1538 1.381 . S
C1536 C1542 1.383 . S
C1537 C1533 1.495 . S
C1537 H1543 0.959 . S
C1537 H1544 0.961 . S
C1537 H1545 0.960 . S
C1538 C1536 1.381 . S
C1538 C1539 1.394 . S
C1538 H1546 0.930 . S
C1539 C1538 1.394 . S
C1539 C1540 1.383 . S
C1539 H1547 0.929 . S
C1540 C1539 1.383 . S
C1540 C1541 1.377 . S
C1541 H1525 0.930 . S
C1541 C1540 1.377 . S
C1541 C1542 1.379 . S
C1542 H1526 0.931 . S
C1542 C1536 1.383 . S
C1542 C1541 1.379 . S
H1543 C1537 0.959 . S
H1544 C1537 0.961 . S
H1545 C1537 0.960 . S
H1546 C1538 0.930 . S
H1547 C1539 0.929 . S
H1548 C1556 0.929 . S
H1549 C1558 0.930 . S
H1550 C1560 0.930 . S
H1551 C1563 0.929 . S
H1552 C1566 0.930 . S
H1553 C1568 0.960 . S
H1554 C1568 0.960 . S
H1555 C1568 0.960 . S
C1556 H1548 0.929 . S
C1556 C1557 1.377 . S
C1556 C1558 1.384 . S
C1557 C1556 1.377 . S
C1557 C1563 1.390 . S
C1558 H1549 0.930 . S
C1558 C1556 1.384 . S
C1558 C1559 1.372 . S
C1559 C1558 1.372 . S
C1559 C1560 1.400 . S
C1559 C1564 1.490 . S
C1560 H1550 0.930 . S
C1560 C1559 1.400 . S
C1560 C1563 1.386 . S
H1561 C1577 0.930 . S
H1562 C1578 0.931 . S
C1563 H1551 0.929 . S
C1563 C1557 1.390 . S
C1563 C1560 1.386 . S
C1564 C1559 1.490 . S
C1564 C1566 1.395 . S
C1564 C1567 1.403 . S
H1565 C1571 0.930 . S
C1566 H1552 0.930 . S
C1566 C1564 1.395 . S
C1566 C1569 1.403 . S
C1567 C1564 1.403 . S
C1567 C1568 1.524 . S
C1567 C1571 1.400 . S
C1568 H1553 0.960 . S
C1568 H1554 0.960 . S
C1568 H1555 0.960 . S
C1568 C1567 1.524 . S
C1569 C1566 1.403 . S
C1569 C1570 1.392 . S
C1569 C1573 1.495 . S
C1570 C1569 1.392 . S
C1570 C1571 1.385 . S
C1570 C1572 1.478 . S
C1571 H1565 0.930 . S
C1571 C1567 1.400 . S
C1571 C1570 1.385 . S
C1572 C1570 1.478 . S
C1572 C1574 1.381 . S
C1572 C1578 1.383 . S
C1573 C1569 1.495 . S
C1573 H1579 0.959 . S
C1573 H1580 0.961 . S
C1573 H1581 0.960 . S
C1574 C1572 1.381 . S
C1574 C1575 1.394 . S
C1574 H1582 0.930 . S
C1575 C1574 1.394 . S
C1575 C1576 1.383 . S
C1575 H1583 0.929 . S
C1576 C1575 1.383 . S
C1576 C1577 1.377 . S
C1577 H1561 0.930 . S
C1577 C1576 1.377 . S
C1577 C1578 1.379 . S
C1578 H1562 0.931 . S
C1578 C1572 1.383 . S
C1578 C1577 1.379 . S
H1579 C1573 0.959 . S
H1580 C1573 0.961 . S
H1581 C1573 0.960 . S
H1582 C1574 0.930 . S
H1583 C1575 0.929 . S
H1584 C1592 0.929 . S
H1585 C1594 0.930 . S
H1586 C1596 0.930 . S
H1587 C1599 0.929 . S
H1588 C1602 0.930 . S
H1589 C1604 0.960 . S
H1590 C1604 0.960 . S
H1591 C1604 0.960 . S
C1592 H1584 0.929 . S
C1592 C1593 1.377 . S
C1592 C1594 1.384 . S
C1593 C1592 1.377 . S
C1593 C1599 1.390 . S
C1594 H1585 0.930 . S
C1594 C1592 1.384 . S
C1594 C1595 1.372 . S
C1595 C1594 1.372 . S
C1595 C1596 1.400 . S
C1595 C1600 1.490 . S
C1596 H1586 0.930 . S
C1596 C1595 1.400 . S
C1596 C1599 1.386 . S
H1597 C1613 0.930 . S
H1598 C1614 0.931 . S
C1599 H1587 0.929 . S
C1599 C1593 1.390 . S
C1599 C1596 1.386 . S
C1600 C1595 1.490 . S
C1600 C1602 1.395 1_655 S
C1600 C1603 1.403 1_556 S
H1601 C1607 0.930 . S
C1602 H1588 0.930 . S
C1602 C1600 1.395 1_455 S
C1602 C1605 1.403 . S
C1603 C1600 1.403 1_554 S
C1603 C1604 1.524 . S
C1603 C1607 1.400 . S
C1604 H1589 0.960 . S
C1604 H1590 0.960 . S
C1604 H1591 0.960 . S
C1604 C1603 1.524 . S
C1605 C1602 1.403 . S
C1605 C1606 1.392 1_556 S
C1605 C1609 1.495 . S
C1606 C1605 1.392 1_554 S
C1606 C1607 1.385 1_455 S
C1606 C1608 1.478 . S
C1607 H1601 0.930 . S
C1607 C1603 1.400 . S
C1607 C1606 1.385 1_655 S
C1608 C1606 1.478 . S
C1608 C1610 1.381 . S
C1608 C1614 1.383 . S
C1609 C1605 1.495 . S
C1609 H1615 0.959 . S
C1609 H1616 0.961 . S
C1609 H1617 0.960 . S
C1610 C1608 1.381 . S
C1610 C1611 1.394 . S
C1610 H1618 0.930 . S
C1611 C1610 1.394 . S
C1611 C1612 1.383 . S
C1611 H1619 0.929 . S
C1612 C1611 1.383 . S
C1612 C1613 1.377 . S
C1613 H1597 0.930 . S
C1613 C1612 1.377 . S
C1613 C1614 1.379 . S
C1614 H1598 0.931 . S
C1614 C1608 1.383 . S
C1614 C1613 1.379 . S
H1615 C1609 0.959 . S
H1616 C1609 0.961 . S
H1617 C1609 0.960 . S
H1618 C1610 0.930 . S
H1619 C1611 0.929 . S
H1620 C1628 0.929 . S
H1621 C1630 0.930 . S
H1622 C1632 0.930 . S
H1623 C1635 0.929 . S
H1624 C1638 0.930 . S
H1625 C1640 0.960 . S
H1626 C1640 0.960 . S
H1627 C1640 0.960 . S
C1628 H1620 0.929 . S
C1628 C1629 1.377 . S
C1628 C1630 1.384 . S
C1629 C1628 1.377 . S
C1629 C1635 1.390 . S
C1630 H1621 0.930 . S
C1630 C1628 1.384 . S
C1630 C1631 1.372 . S
C1631 C1630 1.372 . S
C1631 C1632 1.400 . S
C1631 C1636 1.490 . S
C1632 H1622 0.930 . S
C1632 C1631 1.400 . S
C1632 C1635 1.386 . S
H1633 C1649 0.930 . S
H1634 C1650 0.931 . S
C1635 H1623 0.929 . S
C1635 C1629 1.390 . S
C1635 C1632 1.386 . S
C1636 C1631 1.490 . S
C1636 C1638 1.395 1_565 S
C1636 C1639 1.403 . S
H1637 C1643 0.930 . S
C1638 H1624 0.930 . S
C1638 C1636 1.395 1_545 S
C1638 C1641 1.403 . S
C1639 C1636 1.403 . S
C1639 C1640 1.524 . S
C1639 C1643 1.400 . S
C1640 H1625 0.960 . S
C1640 H1626 0.960 . S
C1640 H1627 0.960 . S
C1640 C1639 1.524 . S
C1641 C1638 1.403 . S
C1641 C1642 1.392 . S
C1641 C1645 1.495 . S
C1642 C1641 1.392 . S
C1642 C1643 1.385 1_545 S
C1642 C1644 1.478 . S
C1643 H1637 0.930 . S
C1643 C1639 1.400 . S
C1643 C1642 1.385 1_565 S
C1644 C1642 1.478 . S
C1644 C1646 1.381 . S
C1644 C1650 1.383 . S
C1645 C1641 1.495 . S
C1645 H1651 0.959 . S
C1645 H1652 0.961 . S
C1645 H1653 0.960 . S
C1646 C1644 1.381 . S
C1646 C1647 1.394 . S
C1646 H1654 0.930 . S
C1647 C1646 1.394 . S
C1647 C1648 1.383 . S
C1647 H1655 0.929 . S
C1648 C1647 1.383 . S
C1648 C1649 1.377 . S
C1649 H1633 0.930 . S
C1649 C1648 1.377 . S
C1649 C1650 1.379 . S
C1650 H1634 0.931 . S
C1650 C1644 1.383 . S
C1650 C1649 1.379 . S
H1651 C1645 0.959 . S
H1652 C1645 0.961 . S
H1653 C1645 0.960 . S
H1654 C1646 0.930 . S
H1655 C1647 0.929 . S
C369 C147 0.694 . S
C388 N14 0.724 . S
C405 N156 0.615 . S
C424 C46 0.580 . S
C441 N74 0.702 . S
C460 C27 0.688 . S
C477 C106 0.620 . S
C496 N36 0.642 . S
C513 N134 0.696 . S
C532 C87 0.704 . S
C549 N96 0.637 . S
C568 C166 0.600 . S
C585 N246 0.631 . S
C604 C196 0.572 . S
C621 C226 0.619 . S
C640 N276 0.653 . S
C657 N306 0.612 . S
C676 C256 0.626 . S
C693 C286 0.619 . S
C712 N336 0.636 . S
C729 C316 0.613 . S
C748 N186 0.686 . S
C765 N216 0.614 . S
C784 C346 0.580 . S
C801 C136 1.014 . S
C820 N6 1.023 . S
C837 C57 1.092 . S
C856 N164 1.084 . S
C873 N66 1.021 . S
C892 C16 1.029 . S
C909 C117 1.092 . S
C928 N44 1.035 . S
C945 C76 1.020 . S
C964 N126 1.022 . S
C981 N104 1.077 . S
C1000 C177 1.089 . S
C1017 N254 1.065 . S
C1036 C207 1.075 . S
C1053 C237 1.099 . S
C1072 N284 1.096 . S
C1089 C267 1.090 . S
C1108 N314 1.061 . S
C1125 N344 1.068 . S
C1144 C297 1.100 . S
C1161 C327 1.093 . S
C1180 N194 1.036 . S
C1197 N224 1.066 . S
C1216 C357 1.091 . S
C1233 C301 1.644 . S
C1252 C10 1.645 . S
C1269 C31 1.644 . S
C1288 C331 1.638 . S
C1305 C70 1.650 . S
C1324 C181 1.643 . S
C1341 C91 1.644 . S
C1360 C211 1.642 . S
C1377 C130 1.651 . S
C1396 C241 1.633 . S
C1413 C271 1.643 . S
C1432 C151 1.648 . S
C1449 C280 1.895 . S
C1468 C1 1.826 . S
C1485 C310 1.896 . S
C1504 C40 1.905 . S
C1521 C61 1.841 . S
C1540 C340 1.903 . S
C1557 C100 1.891 . S
C1576 C190 1.884 . S
C1593 C220 1.897 . S
C1612 C121 1.861 . S
C1629 C250 1.895 . S
C1648 C160 1.902 . S
