# Generated by pormake.
# Topology wke, (5)-cn, num edge types: 1
# Building blocks:
#     Node 0, Type 0, BuildingBlock: BEQFEK_clean_sbu_0, # of connection points: 5
#     Node 1, Type 0, BuildingBlock: BEQFEK_clean_sbu_0, # of connection points: 5
#     Node 2, Type 0, BuildingBlock: BEQFEK_clean_sbu_0, # of connection points: 5
#     Node 3, Type 0, BuildingBlock: BEQFEK_clean_sbu_0, # of connection points: 5
#     Node 4, Type 0, BuildingBlock: BEQFEK_clean_sbu_0, # of connection points: 5
#     Node 5, Type 0, BuildingBlock: BEQFEK_clean_sbu_0, # of connection points: 5
#     Node 6, Type 0, BuildingBlock: BEQFEK_clean_sbu_0, # of connection points: 5
#     Node 7, Type 0, BuildingBlock: BEQFEK_clean_sbu_0, # of connection points: 5
#     Node 8, Type 0, BuildingBlock: BEQFEK_clean_sbu_0, # of connection points: 5
#     Node 9, Type 0, BuildingBlock: BEQFEK_clean_sbu_0, # of connection points: 5
#     Node 10, Type 0, BuildingBlock: BEQFEK_clean_sbu_0, # of connection points: 5
#     Node 11, Type 0, BuildingBlock: BEQFEK_clean_sbu_0, # of connection points: 5
#     Edge 12, Type (0, 0), BuildingBlock: AJUNOK_clean_linker_0, # of connection points: 2
#     Edge 13, Type (0, 0), BuildingBlock: AJUNOK_clean_linker_0, # of connection points: 2
#     Edge 14, Type (0, 0), BuildingBlock: AJUNOK_clean_linker_0, # of connection points: 2
#     Edge 15, Type (0, 0), BuildingBlock: AJUNOK_clean_linker_0, # of connection points: 2
#     Edge 16, Type (0, 0), BuildingBlock: AJUNOK_clean_linker_0, # of connection points: 2
#     Edge 17, Type (0, 0), BuildingBlock: AJUNOK_clean_linker_0, # of connection points: 2
#     Edge 18, Type (0, 0), BuildingBlock: AJUNOK_clean_linker_0, # of connection points: 2
#     Edge 19, Type (0, 0), BuildingBlock: AJUNOK_clean_linker_0, # of connection points: 2
#     Edge 20, Type (0, 0), BuildingBlock: AJUNOK_clean_linker_0, # of connection points: 2
#     Edge 21, Type (0, 0), BuildingBlock: AJUNOK_clean_linker_0, # of connection points: 2
#     Edge 22, Type (0, 0), BuildingBlock: AJUNOK_clean_linker_0, # of connection points: 2
#     Edge 23, Type (0, 0), BuildingBlock: AJUNOK_clean_linker_0, # of connection points: 2
#     Edge 24, Type (0, 0), BuildingBlock: AJUNOK_clean_linker_0, # of connection points: 2
#     Edge 25, Type (0, 0), BuildingBlock: AJUNOK_clean_linker_0, # of connection points: 2
#     Edge 26, Type (0, 0), BuildingBlock: AJUNOK_clean_linker_0, # of connection points: 2
#     Edge 27, Type (0, 0), BuildingBlock: AJUNOK_clean_linker_0, # of connection points: 2
#     Edge 28, Type (0, 0), BuildingBlock: AJUNOK_clean_linker_0, # of connection points: 2
#     Edge 29, Type (0, 0), BuildingBlock: AJUNOK_clean_linker_0, # of connection points: 2
#     Edge 30, Type (0, 0), BuildingBlock: AJUNOK_clean_linker_0, # of connection points: 2
#     Edge 31, Type (0, 0), BuildingBlock: AJUNOK_clean_linker_0, # of connection points: 2
#     Edge 32, Type (0, 0), BuildingBlock: AJUNOK_clean_linker_0, # of connection points: 2
#     Edge 33, Type (0, 0), BuildingBlock: AJUNOK_clean_linker_0, # of connection points: 2
#     Edge 34, Type (0, 0), BuildingBlock: AJUNOK_clean_linker_0, # of connection points: 2
#     Edge 35, Type (0, 0), BuildingBlock: AJUNOK_clean_linker_0, # of connection points: 2
#     Edge 36, Type (0, 0), BuildingBlock: AJUNOK_clean_linker_0, # of connection points: 2
#     Edge 37, Type (0, 0), BuildingBlock: AJUNOK_clean_linker_0, # of connection points: 2
#     Edge 38, Type (0, 0), BuildingBlock: AJUNOK_clean_linker_0, # of connection points: 2
#     Edge 39, Type (0, 0), BuildingBlock: AJUNOK_clean_linker_0, # of connection points: 2
#     Edge 40, Type (0, 0), BuildingBlock: AJUNOK_clean_linker_0, # of connection points: 2
#     Edge 41, Type (0, 0), BuildingBlock: AJUNOK_clean_linker_0, # of connection points: 2
# Relax obj value: 0.243
# Max RMSD: 0.190
# Mean RMSD: 0.190
data_MOF--net-wke--node1-BEQFEK_clean_sbu_0--edge1-AJUNOK_clean_linker_0
_symmetry_space_group_name_H-M    P1
_symmetry_Int_Tables_number       1
_symmetry_cell_setting            triclinic
loop_
_symmetry_equiv_pos_as_xyz
'x, y, z'
_cell_length_a     53.600713
_cell_length_b     53.594856
_cell_length_c     14.801419
_cell_angle_alpha  89.969647
_cell_angle_beta   90.006069
_cell_angle_gamma 120.01329
loop_
_atom_site_label
_atom_site_type_symbol
_atom_site_fract_x
_atom_site_fract_y
_atom_site_fract_z
_atom_type_partial_charge
Co0 Co 0.10284 0.44902 0.24897 0.0
Co1 Co 0.12613 0.47205 0.44184 0.0
C2 C 0.06339 0.42641 0.40459 0.0
O3 O 0.06688 0.42435 0.32015 0.0
O4 O 0.08428 0.4441 0.45344 0.0
C5 C 0.09088 0.42202 0.06226 0.0
O6 O 0.08293 0.39599 0.0919 0.0
C7 C 0.13116 0.45767 0.62602 0.0
C8 C 0.14908 0.49965 0.69477 0.0
C9 C 0.13675 0.4703 0.71082 0.0
N10 N 0.13942 0.47849 0.56327 0.0
N11 N 0.15082 0.50364 0.60466 0.0
C12 C 0.11498 0.42611 0.60489 0.0
H13 H 0.10969 0.42226 0.53209 0.0
H14 H 0.12865 0.41662 0.62148 0.0
H15 H 0.09513 0.41501 0.64647 0.0
C16 C 0.1546 0.44155 0.24794 0.0
N17 N 0.13567 0.44723 0.29036 0.0
N18 N 0.14566 0.45739 0.37148 0.0
C19 C 0.17115 0.45848 0.38312 0.0
C20 C 0.17756 0.44831 0.30532 0.0
C21 C 0.15292 0.43367 0.15032 0.0
H22 H 0.14938 0.44884 0.10886 0.0
H23 H 0.13463 0.41155 0.1406 0.0
H24 H 0.17287 0.43432 0.12662 0.0
O25 O 0.11194 0.48948 0.25419 0.0
O26 O 0.13103 0.50833 0.3871 0.0
H27 H 0.19342 0.49268 0.47814 0.0
H28 H 0.21067 0.47145 0.45721 0.0
C29 C 0.18971 0.47069 0.46504 0.0
H30 H 0.17829 0.45714 0.52443 0.0
H31 H 0.15749 0.52322 0.57184 0.0
O32 O 0.09796 0.44257 0.11752 0.0
C33 C 0.12332 0.51086 0.30768 0.0
Co34 Co 0.65834 0.10038 0.74913 0.0
Co35 Co 0.66032 0.12416 0.94179 0.0
C36 C 0.64289 0.06134 0.90588 0.0
O37 O 0.64764 0.06465 0.821 0.0
O38 O 0.64667 0.0824 0.95497 0.0
C39 C 0.67199 0.08755 0.56122 0.0
O40 O 0.69088 0.08037 0.58839 0.0
C41 C 0.67854 0.12889 0.12673 0.0
C42 C 0.65481 0.14777 0.19182 0.0
C43 C 0.67049 0.13414 0.21028 0.0
N44 N 0.66738 0.13807 0.06222 0.0
N45 N 0.65392 0.15013 0.1015 0.0
C46 C 0.69365 0.11231 0.10817 0.0
H47 H 0.69489 0.10917 0.03464 0.0
H48 H 0.71594 0.12449 0.13483 0.0
H49 H 0.68258 0.09126 0.14363 0.0
C50 C 0.71764 0.15218 0.74346 0.0
N51 N 0.69331 0.13345 0.78761 0.0
N52 N 0.69394 0.14354 0.86916 0.0
C53 C 0.71861 0.16888 0.87948 0.0
C54 C 0.73456 0.17508 0.80032 0.0
C55 C 0.72292 0.15041 0.64503 0.0
H56 H 0.70361 0.14624 0.60577 0.0
H57 H 0.72726 0.13249 0.63408 0.0
H58 H 0.74163 0.17059 0.6197 0.0
O59 O 0.62667 0.10913 0.75596 0.0
O60 O 0.62848 0.12857 0.88944 0.0
H61 H 0.70833 0.19209 0.97576 0.0
H62 H 0.74663 0.2078 0.95426 0.0
C63 C 0.72589 0.18735 0.96194 0.0
H64 H 0.72736 0.17534 0.02082 0.0
H65 H 0.64191 0.15754 0.06689 0.0
O66 O 0.6591 0.0948 0.61818 0.0
C67 C 0.61716 0.12047 0.81152 0.0
Co68 Co 0.56437 0.65637 0.25536 0.0
Co69 Co 0.5394 0.65651 0.44606 0.0
C70 C 0.58598 0.64 0.41408 0.0
O71 O 0.58911 0.64545 0.32942 0.0
O72 O 0.56748 0.64305 0.45887 0.0
C73 C 0.59094 0.67098 0.06616 0.0
O74 O 0.61725 0.68893 0.09378 0.0
C75 C 0.55339 0.67621 0.63047 0.0
C76 C 0.51196 0.6491 0.69966 0.0
C77 C 0.5411 0.66759 0.71563 0.0
N78 N 0.53261 0.663 0.56786 0.0
N79 N 0.50775 0.64742 0.6097 0.0
C80 C 0.58477 0.69418 0.60809 0.0
H81 H 0.58902 0.69106 0.53699 0.0
H82 H 0.59136 0.71724 0.61608 0.0
H83 H 0.59806 0.68941 0.65466 0.0
C84 C 0.57146 0.71554 0.25259 0.0
N85 N 0.56545 0.69091 0.29562 0.0
N86 N 0.55425 0.69054 0.37517 0.0
C87 C 0.55271 0.71476 0.38499 0.0
C88 C 0.56373 0.73148 0.30773 0.0
C89 C 0.58078 0.72207 0.15612 0.0
H90 H 0.6026 0.72486 0.14935 0.0
H91 H 0.58144 0.74199 0.13209 0.0
H92 H 0.5656 0.7039 0.11291 0.0
O93 O 0.52389 0.62463 0.25987 0.0
O94 O 0.50366 0.62496 0.39008 0.0
H95 H 0.53803 0.7406 0.45489 0.0
H96 H 0.55244 0.72338 0.5256 0.0
C97 C 0.53934 0.72076 0.46461 0.0
H98 H 0.51748 0.70208 0.47644 0.0
H99 H 0.48841 0.6336 0.57701 0.0
O100 O 0.57077 0.6579 0.12308 0.0
C101 C 0.50199 0.61456 0.31139 0.0
Co102 Co 0.91388 0.56237 0.75557 0.0
Co103 Co 0.88908 0.53868 0.94746 0.0
C104 C 0.95211 0.58484 0.91391 0.0
O105 O 0.94968 0.58735 0.82895 0.0
O106 O 0.9306 0.56677 0.95982 0.0
C107 C 0.92601 0.58943 0.56776 0.0
O108 O 0.93401 0.61549 0.59717 0.0
C109 C 0.88322 0.55279 0.13158 0.0
C110 C 0.86932 0.51146 0.20087 0.0
C111 C 0.8798 0.54057 0.2167 0.0
N112 N 0.87573 0.53201 0.06906 0.0
N113 N 0.86666 0.50719 0.11097 0.0
C114 C 0.89634 0.58414 0.10913 0.0
H115 H 0.9142 0.59761 0.15608 0.0
H116 H 0.90391 0.58846 0.03818 0.0
H117 H 0.87963 0.59043 0.11657 0.0
C118 C 0.86181 0.56967 0.75217 0.0
N119 N 0.88049 0.56379 0.79541 0.0
N120 N 0.86988 0.55318 0.87572 0.0
C121 C 0.84423 0.55183 0.88572 0.0
C122 C 0.83842 0.5625 0.80801 0.0
C123 C 0.86426 0.57852 0.6553 0.0
H124 H 0.88299 0.60049 0.64768 0.0
H125 H 0.84473 0.57869 0.63141 0.0
H126 H 0.86753 0.56339 0.61272 0.0
O127 O 0.90525 0.52179 0.76171 0.0
O128 O 0.88488 0.50283 0.89329 0.0
H129 H 0.8227 0.51728 0.98031 0.0
H130 H 0.8032 0.53597 0.95349 0.0
C131 C 0.82481 0.53855 0.96534 0.0
H132 H 0.83463 0.5525 0.02525 0.0
H133 H 0.86129 0.48789 0.07833 0.0
O134 O 0.91896 0.56891 0.62332 0.0
C135 C 0.89361 0.50041 0.81545 0.0
Co136 Co 0.35809 0.91134 0.25565 0.0
Co137 Co 0.35634 0.88548 0.44597 0.0
C138 C 0.37388 0.94884 0.4155 0.0
O139 O 0.36898 0.94688 0.33053 0.0
O140 O 0.37007 0.92697 0.46006 0.0
C141 C 0.34492 0.92431 0.06493 0.0
O142 O 0.32638 0.93223 0.08975 0.0
C143 C 0.33806 0.88059 0.63123 0.0
C144 C 0.36445 0.86479 0.69685 0.0
C145 C 0.3476 0.87718 0.71502 0.0
N146 N 0.34964 0.87172 0.567 0.0
N147 N 0.3647 0.86148 0.6068 0.0
C148 C 0.32058 0.89469 0.61148 0.0
H149 H 0.32095 0.89944 0.53843 0.0
H150 H 0.29788 0.87973 0.63106 0.0
H151 H 0.32825 0.9146 0.65199 0.0
C152 C 0.29854 0.8597 0.24973 0.0
N153 N 0.32309 0.87792 0.29383 0.0
N154 N 0.32275 0.86686 0.37361 0.0
C155 C 0.29819 0.84137 0.38257 0.0
C156 C 0.28193 0.83609 0.30455 0.0
C157 C 0.29261 0.86281 0.15288 0.0
H158 H 0.31104 0.86595 0.1107 0.0
H159 H 0.28986 0.88186 0.1459 0.0
H160 H 0.27282 0.8436 0.12783 0.0
O161 O 0.38987 0.90249 0.26114 0.0
O162 O 0.38794 0.88133 0.3916 0.0
H163 H 0.30955 0.818 0.47503 0.0
H164 H 0.27117 0.80108 0.45241 0.0
C165 C 0.29137 0.8219 0.46243 0.0
H166 H 0.28905 0.83273 0.52307 0.0
H167 H 0.37742 0.8549 0.5724 0.0
O168 O 0.35721 0.9169 0.12377 0.0
C169 C 0.39934 0.89047 0.31428 0.0
Co170 Co 0.45152 0.35437 0.74757 0.0
Co171 Co 0.47467 0.35409 0.9403 0.0
C172 C 0.42885 0.37099 0.9034 0.0
O173 O 0.42673 0.36546 0.81893 0.0
O174 O 0.44667 0.36788 0.95193 0.0
C175 C 0.42462 0.33943 0.56057 0.0
O176 O 0.39852 0.32148 0.58997 0.0
C177 C 0.46028 0.33465 0.12446 0.0
C178 C 0.50226 0.35872 0.19326 0.0
C179 C 0.47291 0.34171 0.20929 0.0
N180 N 0.4811 0.3472 0.06173 0.0
N181 N 0.50626 0.36096 0.10316 0.0
C182 C 0.42873 0.3193 0.10325 0.0
H183 H 0.4249 0.32061 0.03035 0.0
H184 H 0.41918 0.29616 0.1203 0.0
H185 H 0.41767 0.32818 0.1444 0.0
C186 C 0.44395 0.29508 0.74656 0.0
N187 N 0.44979 0.31975 0.78884 0.0
N188 N 0.46006 0.31995 0.86982 0.0
C189 C 0.46111 0.29553 0.88143 0.0
C190 C 0.45076 0.27889 0.80384 0.0
C191 C 0.43571 0.2887 0.64924 0.0
H192 H 0.45092 0.30722 0.60717 0.0
H193 H 0.41368 0.2852 0.6401 0.0
H194 H 0.43594 0.26916 0.62584 0.0
O195 O 0.49198 0.38587 0.75298 0.0
O196 O 0.51089 0.38553 0.8857 0.0
H197 H 0.49536 0.30765 0.97642 0.0
H198 H 0.4745 0.26918 0.95474 0.0
C199 C 0.47348 0.28922 0.96308 0.0
H200 H 0.45985 0.2868 0.02254 0.0
H201 H 0.52584 0.37386 0.07036 0.0
O202 O 0.44514 0.3528 0.61602 0.0
C203 C 0.51338 0.39586 0.80643 0.0
Co204 Co 0.56469 0.91119 0.24648 0.0
Co205 Co 0.54005 0.8862 0.05544 0.0
C206 C 0.58647 0.9493 0.08791 0.0
O207 O 0.58943 0.94693 0.17263 0.0
O208 O 0.56812 0.92776 0.04272 0.0
C209 C 0.59136 0.92321 0.43525 0.0
O210 O 0.61759 0.93142 0.40712 0.0
C211 C 0.55404 0.88041 0.87109 0.0
C212 C 0.51263 0.86618 0.80199 0.0
C213 C 0.54176 0.87678 0.78598 0.0
N214 N 0.53327 0.87287 0.93374 0.0
N215 N 0.50842 0.86363 0.89195 0.0
C216 C 0.58541 0.89369 0.89342 0.0
H217 H 0.58971 0.90124 0.96436 0.0
H218 H 0.59184 0.87709 0.88597 0.0
H219 H 0.59879 0.91161 0.84648 0.0
C220 C 0.57169 0.85906 0.24962 0.0
N221 N 0.56584 0.87775 0.20635 0.0
N222 N 0.5548 0.86698 0.1266 0.0
C223 C 0.55321 0.8412 0.11688 0.0
C224 C 0.56403 0.83541 0.19442 0.0
C225 C 0.58071 0.86171 0.34637 0.0
H226 H 0.56555 0.8649 0.38904 0.0
H227 H 0.60262 0.88056 0.35359 0.0
H228 H 0.58103 0.84229 0.37067 0.0
O229 O 0.5242 0.90237 0.2416 0.0
O230 O 0.50426 0.88198 0.11092 0.0
H231 H 0.51807 0.81865 0.02518 0.0
H232 H 0.53863 0.80071 0.04682 0.0
C233 C 0.53992 0.82186 0.03714 0.0
H234 H 0.55307 0.83238 0.97625 0.0
H235 H 0.4891 0.85816 0.92468 0.0
O236 O 0.57111 0.91615 0.37871 0.0
C237 C 0.50243 0.8906 0.18961 0.0
Co238 Co 0.65814 0.56083 0.7525 0.0
Co239 Co 0.65999 0.5395 0.55843 0.0
C240 C 0.64257 0.58472 0.5965 0.0
O241 O 0.64741 0.58605 0.68133 0.0
O242 O 0.64625 0.56748 0.54695 0.0
C243 C 0.67346 0.58829 0.93733 0.0
O244 O 0.69199 0.61382 0.90518 0.0
C245 C 0.67964 0.55423 0.37453 0.0
C246 C 0.65598 0.51221 0.30579 0.0
C247 C 0.67268 0.54159 0.28977 0.0
N248 N 0.66731 0.53338 0.43728 0.0
N249 N 0.65382 0.50821 0.39588 0.0
C250 C 0.69464 0.58579 0.39554 0.0
H251 H 0.68517 0.5965 0.35538 0.0
H252 H 0.69368 0.5896 0.46866 0.0
H253 H 0.71768 0.59571 0.37683 0.0
C254 C 0.71733 0.56786 0.75672 0.0
N255 N 0.69306 0.56269 0.713 0.0
N256 N 0.69366 0.55362 0.63079 0.0
C257 C 0.71828 0.55292 0.61955 0.0
C258 C 0.73416 0.56208 0.69892 0.0
C259 C 0.72266 0.57428 0.85543 0.0
H260 H 0.70308 0.55949 0.89422 0.0
H261 H 0.72797 0.5968 0.86744 0.0
H262 H 0.74084 0.57183 0.88027 0.0
O263 O 0.6265 0.52038 0.74481 0.0
O264 O 0.62818 0.50307 0.61046 0.0
H265 H 0.70795 0.52001 0.52093 0.0
H266 H 0.74624 0.54232 0.54316 0.0
C267 C 0.72557 0.54218 0.53603 0.0
H268 H 0.72726 0.55611 0.4782 0.0
H269 H 0.64108 0.48859 0.42869 0.0
O270 O 0.65926 0.56735 0.88392 0.0
C271 C 0.61695 0.49966 0.68867 0.0
Co272 Co 0.10365 0.65595 0.25019 0.0
Co273 Co 0.12688 0.65721 0.05655 0.0
C274 C 0.06426 0.64032 0.09456 0.0
O275 O 0.06777 0.64533 0.1793 0.0
O276 O 0.08513 0.64368 0.04526 0.0
C277 C 0.09136 0.67087 0.43603 0.0
O278 O 0.08332 0.68874 0.4051 0.0
C279 C 0.13189 0.67685 0.87263 0.0
C280 C 0.15006 0.65303 0.80379 0.0
C281 C 0.13752 0.66986 0.78782 0.0
N282 N 0.14029 0.66441 0.93532 0.0
N283 N 0.15187 0.65083 0.89387 0.0
C284 C 0.11538 0.69188 0.89377 0.0
H285 H 0.1109 0.69118 0.96705 0.0
H286 H 0.12836 0.71485 0.87413 0.0
H287 H 0.09502 0.68219 0.85449 0.0
C288 C 0.15529 0.71544 0.25236 0.0
N289 N 0.13658 0.69078 0.20977 0.0
N290 N 0.14657 0.69096 0.12834 0.0
C291 C 0.17189 0.71559 0.11686 0.0
C292 C 0.17808 0.73201 0.19483 0.0
C293 C 0.15338 0.72173 0.34973 0.0
H294 H 0.13501 0.72548 0.3587 0.0
H295 H 0.17324 0.74114 0.37341 0.0
H296 H 0.14984 0.70309 0.39161 0.0
O297 O 0.11234 0.62417 0.243 0.0
O298 O 0.13137 0.62545 0.10907 0.0
H299 H 0.21165 0.74217 0.04411 0.0
H300 H 0.17928 0.72552 0.97641 0.0
C301 C 0.19043 0.72238 0.03472 0.0
H302 H 0.19357 0.7039 0.01885 0.0
H303 H 0.15866 0.63801 0.92663 0.0
O304 O 0.09866 0.65733 0.38176 0.0
C305 C 0.12346 0.6144 0.18746 0.0
Co306 Co 0.45172 0.10006 0.75406 0.0
Co307 Co 0.47451 0.12329 0.5609 0.0
C308 C 0.42892 0.06056 0.59873 0.0
O309 O 0.42703 0.06405 0.68326 0.0
O310 O 0.44648 0.08145 0.54954 0.0
C311 C 0.42477 0.08805 0.94075 0.0
O312 O 0.39871 0.07993 0.91109 0.0
C313 C 0.46019 0.12846 0.37676 0.0
C314 C 0.50221 0.14635 0.30815 0.0
C315 C 0.47287 0.13407 0.292 0.0
N316 N 0.48097 0.13665 0.43957 0.0
N317 N 0.50615 0.14804 0.39826 0.0
C318 C 0.42863 0.11236 0.3978 0.0
H319 H 0.42472 0.10685 0.47047 0.0
H320 H 0.41928 0.12619 0.38185 0.0
H321 H 0.41745 0.09264 0.35568 0.0
C322 C 0.44404 0.15171 0.75498 0.0
N323 N 0.44983 0.13285 0.71266 0.0
N324 N 0.45998 0.14285 0.6315 0.0
C325 C 0.46099 0.16831 0.61981 0.0
C326 C 0.45073 0.17464 0.69753 0.0
C327 C 0.43598 0.14995 0.85246 0.0
H328 H 0.45121 0.14661 0.89425 0.0
H329 H 0.41393 0.13149 0.86198 0.0
H330 H 0.43635 0.16979 0.87587 0.0
O331 O 0.49219 0.10914 0.74834 0.0
O332 O 0.51079 0.1281 0.61502 0.0
H333 H 0.49511 0.19039 0.52435 0.0
H334 H 0.47428 0.20801 0.54633 0.0
C335 C 0.47324 0.18693 0.53799 0.0
H336 H 0.45954 0.17568 0.47873 0.0
H337 H 0.5257 0.15467 0.43114 0.0
O338 O 0.44535 0.09524 0.88552 0.0
C339 C 0.51346 0.12045 0.69436 0.0
Co340 Co 0.35768 0.44946 0.2459 0.0
Co341 Co 0.3562 0.47315 0.05414 0.0
C342 C 0.37334 0.42716 0.08686 0.0
O343 O 0.3685 0.42455 0.1719 0.0
O344 O 0.36973 0.44521 0.04148 0.0
C345 C 0.34309 0.42248 0.43395 0.0
O346 O 0.32516 0.39637 0.4047 0.0
C347 C 0.33623 0.45888 0.87 0.0
C348 C 0.36322 0.50034 0.80078 0.0
C349 C 0.34491 0.47117 0.78486 0.0
N350 N 0.3493 0.4797 0.93257 0.0
N351 N 0.36478 0.50458 0.89069 0.0
C352 C 0.31832 0.4275 0.89241 0.0
H353 H 0.32147 0.42327 0.96354 0.0
H354 H 0.29525 0.42086 0.8843 0.0
H355 H 0.32311 0.41422 0.84587 0.0
C356 C 0.29826 0.44198 0.25039 0.0
N357 N 0.32277 0.44795 0.20668 0.0
N358 N 0.32259 0.45853 0.12646 0.0
C359 C 0.29819 0.45972 0.11693 0.0
C360 C 0.28187 0.44906 0.19498 0.0
C361 C 0.29212 0.43321 0.34739 0.0
H362 H 0.28891 0.41125 0.355 0.0
H363 H 0.27248 0.43304 0.37193 0.0
H364 H 0.31062 0.4484 0.38952 0.0
O365 O 0.38949 0.49009 0.23962 0.0
O366 O 0.38791 0.50902 0.10806 0.0
H367 H 0.31038 0.49428 0.02299 0.0
H368 H 0.27206 0.47419 0.04771 0.0
C369 C 0.2917 0.47259 0.03696 0.0
H370 H 0.28846 0.45896 0.97684 0.0
H371 H 0.37853 0.52394 0.92336 0.0
O372 O 0.35642 0.44299 0.37822 0.0
C373 C 0.39913 0.51145 0.18581 0.0
Co374 Co 0.91359 0.35515 0.74645 0.0
Co375 Co 0.88849 0.35516 0.55591 0.0
C376 C 0.95151 0.37154 0.58715 0.0
O377 O 0.94928 0.36632 0.67195 0.0
O378 O 0.92989 0.36828 0.54232 0.0
C379 C 0.92582 0.34081 0.937 0.0
O380 O 0.93304 0.32177 0.91191 0.0
C381 C 0.88315 0.33677 0.3705 0.0
C382 C 0.86993 0.36515 0.30403 0.0
C383 C 0.88069 0.34686 0.28654 0.0
N384 N 0.87519 0.34928 0.43434 0.0
N385 N 0.86649 0.36558 0.39399 0.0
C386 C 0.89576 0.31797 0.39068 0.0
H387 H 0.90089 0.31862 0.4635 0.0
H388 H 0.87971 0.29542 0.37286 0.0
H389 H 0.9152 0.32428 0.34895 0.0
C390 C 0.86182 0.29567 0.74779 0.0
N391 N 0.88019 0.3206 0.70574 0.0
N392 N 0.86928 0.3211 0.62642 0.0
C393 C 0.84369 0.29674 0.61599 0.0
C394 C 0.83826 0.27972 0.69229 0.0
C395 C 0.86494 0.28853 0.84327 0.0
H396 H 0.86793 0.30634 0.88823 0.0
H397 H 0.88408 0.28586 0.84819 0.0
H398 H 0.8458 0.26832 0.86639 0.0
O399 O 0.90472 0.38691 0.74329 0.0
O400 O 0.88465 0.38678 0.61223 0.0
H401 H 0.8221 0.31 0.52248 0.0
H402 H 0.80262 0.27172 0.54843 0.0
C403 C 0.82422 0.2908 0.5367 0.0
H404 H 0.83402 0.28684 0.47637 0.0
H405 H 0.86093 0.37915 0.42803 0.0
O406 O 0.91889 0.3536 0.87849 0.0
C407 C 0.8931 0.39705 0.69115 0.0
C408 C 0.03231 0.40601 0.54277 0.0
C409 C 0.03451 0.40944 0.44795 0.0
C410 C 1.0055 0.3928 0.58706 0.0
C411 C 0.97965 0.38286 0.53865 0.0
H412 H 0.05156 0.4141 0.5837 0.0
H413 H 1.00517 0.39125 0.66006 0.0
S414 S 0.97344 0.38602 0.28853 0.0
N415 N 0.00836 0.40082 0.30691 0.0
N416 N 0.9582 0.37691 0.38907 0.0
C417 C 0.98156 0.38563 0.44334 0.0
C418 C 0.00885 0.39863 0.39834 0.0
C419 C 0.63117 0.03025 0.04463 0.0
C420 C 0.63114 0.03246 0.94949 0.0
C421 C 0.6178 1.00342 0.0888 0.0
C422 C 0.6033 0.97752 0.03994 0.0
H423 H 0.64107 0.04946 0.08594 0.0
H424 H 0.618 1.00309 0.16197 0.0
S425 S 0.59754 0.97113 0.78911 0.0
N426 N 0.61629 0.00614 0.80783 0.0
N427 N 0.59054 0.95593 0.88986 0.0
C428 C 0.60366 0.9794 0.94447 0.0
C429 C 0.61771 0.00673 0.89958 0.0
C430 C 0.6317 0.60492 0.45825 0.0
C431 C 0.6309 0.60193 0.55324 0.0
C432 C 0.6182 0.61821 0.41395 0.0
C433 C 0.60286 0.62875 0.46249 0.0
H434 H 0.64235 0.59633 0.41713 0.0
H435 H 0.619 0.61932 0.34085 0.0
S436 S 0.59513 0.62744 0.71301 0.0
N437 N 0.61457 0.6119 0.69457 0.0
N438 N 0.58864 0.63612 0.6123 0.0
C439 C 0.60254 0.62658 0.55791 0.0
C440 C 0.61669 0.61343 0.60296 0.0
C441 C 0.03317 0.62867 0.95597 0.0
C442 C 0.03542 0.62896 0.05117 0.0
C443 C 1.0063 0.61555 0.91208 0.0
C444 C 0.98042 0.6017 0.96132 0.0
H445 H 0.05236 0.63814 0.91444 0.0
H446 H 1.0059 0.61537 0.83891 0.0
S447 S 0.97419 0.59752 0.21234 0.0
N448 N 0.00921 0.61544 0.19319 0.0
N449 N 0.95893 0.59025 0.11171 0.0
C450 C 0.98237 0.60257 0.05679 0.0
C451 C 0.00974 0.61632 0.10137 0.0
C452 C 0.40752 0.0295 0.46125 0.0
C453 C 0.41194 0.03168 0.55565 0.0
C454 C 0.39433 1.00272 0.4168 0.0
C455 C 0.38541 0.97691 0.46455 0.0
H456 H 0.41478 0.04873 0.42078 0.0
H457 H 0.39193 1.00241 0.34408 0.0
S458 S 0.39186 0.97076 0.71344 0.0
N459 N 0.4056 0.00559 0.69569 0.0
N460 N 0.38183 0.95553 0.61315 0.0
C461 C 0.3893 0.97881 0.55953 0.0
C462 C 0.40224 0.00606 0.60476 0.0
C463 C 0.40932 0.38225 0.04249 0.0
C464 C 0.41171 0.38262 0.94734 0.0
C465 C 0.3959 0.3956 0.08704 0.0
C466 C 0.38466 0.41032 0.03855 0.0
H467 H 0.41842 0.37205 0.08345 0.0
H468 H 0.39526 0.39517 0.16019 0.0
S469 S 0.38433 0.41675 0.78779 0.0
N470 N 0.40048 0.39788 0.80607 0.0
N471 N 0.37606 0.42352 0.88869 0.0
C472 C 0.38626 0.4102 0.94303 0.0
C473 C 0.39953 0.39621 0.89779 0.0
C474 C 0.12567 0.58289 0.30867 0.0
C475 C 0.1264 0.58938 0.21592 0.0
C476 C 0.12597 0.55815 0.3382 0.0
C477 C 0.12656 0.53865 0.27613 0.0
H478 H 0.12442 0.59683 0.35924 0.0
H479 H 0.12463 0.55376 0.41003 0.0
S480 S 0.13083 0.54654 0.02611 0.0
N481 N 0.12955 0.57499 0.06249 0.0
N482 N 0.12981 0.52841 0.11758 0.0
C483 C 0.12833 0.54535 0.18328 0.0
C484 C 0.12837 0.57073 0.15329 0.0
C485 C 0.56057 0.12287 0.66244 0.0
C486 C 0.54128 0.12362 0.72511 0.0
C487 C 0.58535 0.12255 0.69122 0.0
C488 C 0.5921 0.12342 0.78378 0.0
H489 H 0.55597 0.12143 0.59074 0.0
H490 H 0.59911 0.12115 0.64024 0.0
S491 S 0.54985 0.12816 0.97487 0.0
N492 N 0.53149 0.12708 0.88395 0.0
N493 N 0.57817 0.12678 0.93764 0.0
C494 C 0.57366 0.12551 0.84696 0.0
C495 C 0.54823 0.12548 0.81775 0.0
C496 C 0.45459 0.56974 0.33936 0.0
C497 C 0.47455 0.58991 0.27826 0.0
C498 C 0.43001 0.54478 0.30861 0.0
C499 C 0.42412 0.53922 0.21555 0.0
H500 H 0.45847 0.57271 0.41144 0.0
H501 H 0.41566 0.52952 0.35841 0.0
S502 S 0.46846 0.58656 0.02779 0.0
N503 N 0.48598 0.60352 0.12017 0.0
N504 N 0.43965 0.55686 0.06278 0.0
C505 C 0.44328 0.55984 0.15381 0.0
C506 C 0.46852 0.58508 0.18505 0.0
C507 C 0.89341 0.46803 0.69287 0.0
C508 C 0.89084 0.47262 0.7855 0.0
C509 C 0.89292 0.44301 0.66236 0.0
C510 C 0.89035 0.42177 0.72335 0.0
H511 H 0.89617 0.48408 0.64322 0.0
H512 H 0.89563 0.4408 0.59081 0.0
S513 S 0.88045 0.42189 0.97169 0.0
N514 N 0.8836 0.45263 0.93713 0.0
N515 N 0.8832 0.40588 0.88002 0.0
C516 C 0.88684 0.42557 0.81577 0.0
C517 C 0.88691 0.45087 0.84674 0.0
C518 C 0.45528 0.88846 0.16095 0.0
C519 C 0.47491 0.88771 0.22222 0.0
C520 C 0.43065 0.88877 0.1915 0.0
C521 C 0.42438 0.88781 0.28448 0.0
H522 H 0.45947 0.88986 0.08898 0.0
H523 H 0.41657 0.89013 0.14164 0.0
S524 S 0.46783 0.88334 0.47239 0.0
N525 N 0.48568 0.88443 0.3802 0.0
N526 N 0.43924 0.8846 0.43723 0.0
C527 C 0.44323 0.88584 0.34628 0.0
C528 C 0.46852 0.88593 0.31527 0.0
C529 C 0.56078 0.44027 0.83775 0.0
C530 C 0.54114 0.42052 0.77518 0.0
C531 C 0.58555 0.46539 0.80886 0.0
C532 C 0.59195 0.47157 0.71624 0.0
H533 H 0.55649 0.43689 0.90956 0.0
H534 H 0.59959 0.48031 0.85983 0.0
S535 S 0.54875 0.42536 0.52509 0.0
N536 N 0.53068 0.40784 0.61616 0.0
N537 N 0.57734 0.45484 0.56227 0.0
C538 C 0.57317 0.45131 0.65303 0.0
C539 C 0.54775 0.42589 0.68238 0.0
C540 C 0.10789 0.46535 0.84794 0.0
C541 C 0.12387 0.45593 0.79767 0.0
C542 C 0.09558 0.45274 0.93093 0.0
C543 C 0.09857 0.43007 0.96673 0.0
H544 H 0.10507 0.48283 0.82335 0.0
H545 H 0.08432 0.46141 0.9688 0.0
S546 S 0.13935 0.39828 0.86354 0.0
N547 N 0.14286 0.42323 0.79083 0.0
N548 N 0.11896 0.39889 0.9462 0.0
C549 C 0.11392 0.41994 0.91631 0.0
C550 C 0.12681 0.43308 0.83196 0.0
C551 C 0.6955 0.10855 0.41279 0.0
C552 C 0.67042 0.09471 0.46591 0.0
C553 C 0.6955 0.12124 0.32969 0.0
C554 C 0.6704 0.12038 0.29713 0.0
H555 H 0.71561 0.111 0.43777 0.0
H556 H 0.7155 0.1327 0.29252 0.0
S557 S 0.59844 0.0839 0.40652 0.0
N558 N 0.61944 0.079 0.47718 0.0
N559 N 0.61931 0.10246 0.3211 0.0
C560 C 0.64494 0.1055 0.34799 0.0
C561 C 0.64497 0.09267 0.43217 0.0
C562 C 0.54674 0.64412 0.85323 0.0
C563 C 0.5559 0.66938 0.80218 0.0
C564 C 0.55957 0.64464 0.93605 0.0
C565 C 0.5823 0.67039 0.971 0.0
H566 H 0.52928 0.6237 0.82936 0.0
H567 H 0.55109 0.62479 0.97432 0.0
S568 S 0.61347 0.74277 0.86645 0.0
N569 N 0.58837 0.72114 0.79452 0.0
N570 N 0.6132 0.72195 0.9492 0.0
C571 C 0.59216 0.69576 0.92003 0.0
C572 C 0.57875 0.69531 0.83595 0.0
C573 C 0.92195 0.55926 0.43548 0.0
C574 C 0.91832 0.58142 0.47208 0.0
C575 C 0.9097 0.54663 0.35244 0.0
C576 C 0.89306 0.55545 0.30284 0.0
H577 H 0.93369 0.55099 0.47276 0.0
H578 H 0.91305 0.52954 0.3274 0.0
S579 S 0.87615 0.61197 0.37051 0.0
N580 N 0.89692 0.61175 0.45261 0.0
N581 N 0.87306 0.58732 0.29734 0.0
C582 C 0.88959 0.57791 0.3378 0.0
C583 C 0.90247 0.59111 0.42216 0.0
C584 C 0.32222 0.89035 0.83302 0.0
C585 C 0.3474 0.89112 0.80152 0.0
C586 C 0.32194 0.90305 0.91586 0.0
C587 C 0.34679 0.91679 0.97007 0.0
H588 H 0.30235 0.87898 0.79517 0.0
H589 H 0.30178 0.90072 0.93976 0.0
S590 S 0.41892 0.92746 0.91404 0.0
N591 N 0.39839 0.90899 0.82799 0.0
N592 N 0.39765 0.93231 0.98359 0.0
C593 C 0.3723 0.91869 0.93762 0.0
C594 C 0.37264 0.90591 0.8536 0.0
C595 C 0.45544 0.36541 0.42934 0.0
C596 C 0.43271 0.33977 0.46511 0.0
C597 C 0.46802 0.36567 0.34637 0.0
C598 C 0.45855 0.34025 0.29612 0.0
H599 H 0.46414 0.38534 0.46719 0.0
H600 H 0.48554 0.38595 0.32179 0.0
S601 S 0.40078 0.26716 0.36206 0.0
N602 N 0.40144 0.2882 0.44464 0.0
N603 N 0.42576 0.28856 0.28937 0.0
C604 C 0.43566 0.31448 0.33043 0.0
C605 C 0.42253 0.31427 0.41473 0.0
C606 C 0.56024 0.91836 0.56587 0.0
C607 C 0.58286 0.91523 0.53055 0.0
C608 C 0.54745 0.90605 0.64875 0.0
C609 C 0.55657 0.88985 0.69948 0.0
H610 H 0.55179 0.92979 0.52781 0.0
H611 H 0.53006 0.90907 0.67287 0.0
S612 S 0.61395 0.87387 0.63444 0.0
N613 N 0.61368 0.89446 0.55183 0.0
N614 N 0.58893 0.87045 0.70665 0.0
C615 C 0.57934 0.88671 0.66543 0.0
C616 C 0.5927 0.89967 0.58128 0.0
C617 C 0.64806 0.54642 0.15441 0.0
C618 C 0.67373 0.55586 0.20319 0.0
C619 C 0.64798 0.55868 0.07112 0.0
C620 C 0.67352 0.58099 0.03348 0.0
H621 H 0.62786 0.52913 0.18028 0.0
H622 H 0.62785 0.54994 0.03432 0.0
S623 S 0.74657 0.61319 0.13368 0.0
N624 N 0.72545 0.58855 0.20768 0.0
N625 N 0.72521 0.61225 0.05168 0.0
C626 C 0.69925 0.59134 0.08287 0.0
C627 C 0.69937 0.57856 0.16756 0.0
C628 C 0.09568 0.64531 0.56921 0.0
C629 C 0.09889 0.67088 0.5319 0.0
C630 C 0.10805 0.64534 0.65238 0.0
C631 C 0.12433 0.67098 0.70125 0.0
H632 H 0.08424 0.6252 0.53232 0.0
H633 H 0.10511 0.62511 0.67811 0.0
S634 S 0.1401 0.74392 0.63178 0.0
N635 N 0.11954 0.72259 0.54998 0.0
N636 N 0.14357 0.72274 0.70568 0.0
C637 C 0.12736 0.69667 0.6657 0.0
C638 C 0.11439 0.69659 0.58118 0.0
C639 C 0.45547 0.09286 0.07213 0.0
C640 C 0.43277 0.09577 0.03625 0.0
C641 C 0.46804 0.10521 0.15506 0.0
C642 C 0.45855 0.12116 0.20518 0.0
H643 H 0.46419 0.08163 0.03436 0.0
H644 H 0.48554 0.10245 0.17972 0.0
S645 S 0.40076 0.1364 0.13908 0.0
N646 N 0.40146 0.11602 0.05654 0.0
N647 N 0.42573 0.14001 0.21183 0.0
C648 C 0.43566 0.12402 0.17081 0.0
C649 C 0.42256 0.11107 0.08652 0.0
C650 C 0.36903 0.46566 0.64886 0.0
C651 C 0.34352 0.4564 0.69865 0.0
C652 C 0.36888 0.45309 0.56592 0.0
C653 C 0.34328 0.43056 0.52954 0.0
H654 H 0.38934 0.48304 0.67373 0.0
H655 H 0.3889 0.46168 0.52857 0.0
S656 S 0.27049 0.39883 0.63143 0.0
N657 N 0.29179 0.42375 0.70436 0.0
N658 N 0.29166 0.39943 0.54934 0.0
C659 C 0.3177 0.42045 0.57958 0.0
C660 C 0.31778 0.43359 0.66384 0.0
C661 C 0.89067 0.31937 0.16759 0.0
C662 C 0.89425 0.34561 0.20053 0.0
C663 C 0.90279 0.31811 0.08461 0.0
C664 C 0.9188 0.34304 0.03204 0.0
H665 H 0.87758 0.29956 0.20446 0.0
H666 H 0.89828 0.2973 0.05928 0.0
S667 S 0.93792 0.41751 0.09406 0.0
N668 N 0.91755 0.39747 0.17828 0.0
N669 N 0.93985 0.39494 0.02244 0.0
C670 C 0.92363 0.36951 0.0663 0.0
C671 C 0.91141 0.37083 0.15036 0.0
C672 C 0.20448 0.42315 0.26304 0.0
C673 C 0.20469 0.449 0.2811 0.0
C674 C 0.22954 0.42335 0.23427 0.0
C675 C 0.25539 0.44942 0.22092 0.0
H676 H 0.18478 0.40268 0.27111 0.0
H677 H 0.22872 0.40302 0.2221 0.0
S678 S 0.26707 0.52285 0.2579 0.0
N679 N 0.23276 0.50127 0.28315 0.0
N680 N 0.27986 0.50163 0.2287 0.0
C681 C 0.25585 0.47537 0.23849 0.0
C682 C 0.23046 0.47517 0.26866 0.0
C683 C 0.7866 0.25331 0.74051 0.0
C684 C 0.81168 0.25275 0.71649 0.0
C685 C 0.76182 0.22819 0.76991 0.0
C686 C 0.76141 0.20179 0.7756 0.0
H687 H 0.78627 0.27334 0.73749 0.0
H688 H 0.74277 0.22931 0.78717 0.0
S689 S 0.82162 0.18919 0.72046 0.0
N690 N 0.83478 0.22393 0.7011 0.0
N691 N 0.78808 0.17661 0.75469 0.0
C692 C 0.78634 0.20103 0.75145 0.0
C693 C 0.81156 0.22658 0.72243 0.0
C694 C 0.5893 0.8086 0.23674 0.0
C695 C 0.56338 0.8084 0.22035 0.0
C696 C 0.58923 0.78366 0.2663 0.0
C697 C 0.56323 0.75792 0.28194 0.0
H698 H 0.60975 0.82817 0.22659 0.0
H699 H 0.60962 0.78447 0.277 0.0
S700 S 0.48964 0.74638 0.25017 0.0
N701 N 0.51111 0.78053 0.22275 0.0
N702 N 0.51098 0.73361 0.27816 0.0
C703 C 0.53719 0.7575 0.26619 0.0
C704 C 0.53727 0.78279 0.23542 0.0
C705 C 0.81078 0.58763 0.77547 0.0
C706 C 0.8114 0.56181 0.78249 0.0
C707 C 0.78574 0.58757 0.74713 0.0
C708 C 0.7608 0.56175 0.72315 0.0
H709 H 0.82975 0.60795 0.79221 0.0
H710 H 0.78585 0.60781 0.7439 0.0
S711 S 0.7517 0.48855 0.72919 0.0
N712 N 0.78523 0.5099 0.76292 0.0
N713 N 0.73818 0.50977 0.70913 0.0
C714 C 0.76127 0.53585 0.72938 0.0
C715 C 0.78662 0.53589 0.75915 0.0
C716 C 0.25531 0.78369 0.26452 0.0
C717 C 0.25515 0.80956 0.2785 0.0
C718 C 0.23046 0.75876 0.23459 0.0
C719 C 0.20473 0.75899 0.21836 0.0
H720 H 0.27483 0.78283 0.276 0.0
H721 H 0.23121 0.73909 0.22539 0.0
S722 S 0.19325 0.8212 0.24511 0.0
N723 N 0.22735 0.83397 0.27325 0.0
N724 N 0.1805 0.78697 0.21882 0.0
C725 C 0.20433 0.78466 0.23235 0.0
C726 C 0.22963 0.81004 0.26185 0.0
C727 C 0.4253 0.22656 0.7647 0.0
C728 C 0.45128 0.25236 0.77981 0.0
C729 C 0.42529 0.20151 0.73689 0.0
C730 C 0.45126 0.2017 0.7215 0.0
H731 H 0.4049 0.22578 0.77456 0.0
H732 H 0.40488 0.18186 0.72725 0.0
S733 S 0.52493 0.26389 0.75027 0.0
N734 N 0.50353 0.27671 0.77678 0.0
N735 N 0.50352 0.22964 0.72398 0.0
C736 C 0.47734 0.22739 0.73589 0.0
C737 C 0.47734 0.25276 0.76515 0.0
loop_
_geom_bond_atom_site_label_1
_geom_bond_atom_site_label_2
_geom_bond_distance
_geom_bond_site_symmetry_2
_ccdc_geom_bond_type
Co0 O3 1.970 . S
Co0 N17 1.989 . S
Co0 O25 1.967 . S
Co0 O32 1.920 . S
Co1 O4 1.966 . S
Co1 N10 2.022 . S
Co1 N18 1.993 . S
Co1 O26 1.941 . S
C2 O3 1.258 . S
C2 O4 1.263 . S
O3 Co0 1.970 . S
O3 C2 1.258 . S
O4 Co1 1.966 . S
O4 C2 1.263 . S
C5 O6 1.235 . S
C5 O32 1.289 . S
O6 C5 1.235 . S
C7 C9 1.400 . S
C7 N10 1.351 . S
C7 C12 1.501 . S
C8 C9 1.387 . S
C8 N11 1.341 . S
C9 C7 1.400 . S
C9 C8 1.387 . S
N10 Co1 2.022 . S
N10 C7 1.351 . S
N10 N11 1.365 . S
N11 C8 1.341 . S
N11 N10 1.365 . S
N11 H31 0.862 . S
C12 C7 1.501 . S
C12 H13 0.961 . S
C12 H14 0.961 . S
C12 H15 0.960 . S
H13 C12 0.961 . S
H14 C12 0.961 . S
H15 C12 0.960 . S
C16 N17 1.342 . S
C16 C20 1.401 . S
C16 C21 1.499 . S
N17 Co0 1.989 . S
N17 C16 1.342 . S
N17 N18 1.388 . S
N18 Co1 1.993 . S
N18 N17 1.388 . S
N18 C19 1.346 . S
C19 N18 1.346 . S
C19 C20 1.396 . S
C19 C29 1.510 . S
C20 C16 1.401 . S
C20 C19 1.396 . S
C21 C16 1.499 . S
C21 H22 0.959 . S
C21 H23 0.960 . S
C21 H24 0.961 . S
H22 C21 0.959 . S
H23 C21 0.960 . S
H24 C21 0.961 . S
O25 Co0 1.967 . S
O25 C33 1.258 . S
O26 Co1 1.941 . S
O26 C33 1.266 . S
H27 C29 0.959 . S
H28 C29 0.961 . S
C29 C19 1.510 . S
C29 H27 0.959 . S
C29 H28 0.961 . S
C29 H30 0.960 . S
H30 C29 0.960 . S
H31 N11 0.862 . S
O32 Co0 1.920 . S
O32 C5 1.289 . S
C33 O25 1.258 . S
C33 O26 1.266 . S
Co34 O37 1.970 . S
Co34 N51 1.989 . S
Co34 O59 1.967 . S
Co34 O66 1.920 . S
Co35 O38 1.966 . S
Co35 N44 2.022 1_556 S
Co35 N52 1.993 . S
Co35 O60 1.941 . S
C36 O37 1.258 . S
C36 O38 1.263 . S
O37 Co34 1.970 . S
O37 C36 1.258 . S
O38 Co35 1.966 . S
O38 C36 1.263 . S
C39 O40 1.235 . S
C39 O66 1.289 . S
O40 C39 1.235 . S
C41 C43 1.400 . S
C41 N44 1.351 . S
C41 C46 1.501 . S
C42 C43 1.387 . S
C42 N45 1.341 . S
C43 C41 1.400 . S
C43 C42 1.387 . S
N44 Co35 2.022 1_554 S
N44 C41 1.351 . S
N44 N45 1.365 . S
N45 C42 1.341 . S
N45 N44 1.365 . S
N45 H65 0.862 . S
C46 C41 1.501 . S
C46 H47 0.961 . S
C46 H48 0.961 . S
C46 H49 0.960 . S
H47 C46 0.961 . S
H48 C46 0.961 . S
H49 C46 0.960 . S
C50 N51 1.342 . S
C50 C54 1.401 . S
C50 C55 1.499 . S
N51 Co34 1.989 . S
N51 C50 1.342 . S
N51 N52 1.388 . S
N52 Co35 1.993 . S
N52 N51 1.388 . S
N52 C53 1.346 . S
C53 N52 1.346 . S
C53 C54 1.396 . S
C53 C63 1.510 . S
C54 C50 1.401 . S
C54 C53 1.396 . S
C55 C50 1.499 . S
C55 H56 0.959 . S
C55 H57 0.960 . S
C55 H58 0.961 . S
H56 C55 0.959 . S
H57 C55 0.960 . S
H58 C55 0.961 . S
O59 Co34 1.967 . S
O59 C67 1.258 . S
O60 Co35 1.941 . S
O60 C67 1.266 . S
H61 C63 0.959 1_554 S
H62 C63 0.961 1_554 S
C63 C53 1.510 . S
C63 H61 0.959 1_556 S
C63 H62 0.961 1_556 S
C63 H64 0.960 1_556 S
H64 C63 0.960 1_554 S
H65 N45 0.862 . S
O66 Co34 1.920 . S
O66 C39 1.289 . S
C67 O59 1.258 . S
C67 O60 1.266 . S
Co68 O71 1.970 . S
Co68 N85 1.989 . S
Co68 O93 1.967 . S
Co68 O100 1.920 . S
Co69 O72 1.966 . S
Co69 N78 2.022 . S
Co69 N86 1.993 . S
Co69 O94 1.941 . S
C70 O71 1.258 . S
C70 O72 1.263 . S
O71 Co68 1.970 . S
O71 C70 1.258 . S
O72 Co69 1.966 . S
O72 C70 1.263 . S
C73 O74 1.235 . S
C73 O100 1.289 . S
O74 C73 1.235 . S
C75 C77 1.400 . S
C75 N78 1.351 . S
C75 C80 1.501 . S
C76 C77 1.387 . S
C76 N79 1.341 . S
C77 C75 1.400 . S
C77 C76 1.387 . S
N78 Co69 2.022 . S
N78 C75 1.351 . S
N78 N79 1.365 . S
N79 C76 1.341 . S
N79 N78 1.365 . S
N79 H99 0.862 . S
C80 C75 1.501 . S
C80 H81 0.961 . S
C80 H82 0.961 . S
C80 H83 0.960 . S
H81 C80 0.961 . S
H82 C80 0.961 . S
H83 C80 0.960 . S
C84 N85 1.342 . S
C84 C88 1.401 . S
C84 C89 1.499 . S
N85 Co68 1.989 . S
N85 C84 1.342 . S
N85 N86 1.388 . S
N86 Co69 1.993 . S
N86 N85 1.388 . S
N86 C87 1.346 . S
C87 N86 1.346 . S
C87 C88 1.396 . S
C87 C97 1.510 . S
C88 C84 1.401 . S
C88 C87 1.396 . S
C89 C84 1.499 . S
C89 H90 0.959 . S
C89 H91 0.960 . S
C89 H92 0.961 . S
H90 C89 0.959 . S
H91 C89 0.960 . S
H92 C89 0.961 . S
O93 Co68 1.967 . S
O93 C101 1.258 . S
O94 Co69 1.941 . S
O94 C101 1.266 . S
H95 C97 0.959 . S
H96 C97 0.961 . S
C97 C87 1.510 . S
C97 H95 0.959 . S
C97 H96 0.961 . S
C97 H98 0.960 . S
H98 C97 0.960 . S
H99 N79 0.862 . S
O100 Co68 1.920 . S
O100 C73 1.289 . S
C101 O93 1.258 . S
C101 O94 1.266 . S
Co102 O105 1.970 . S
Co102 N119 1.989 . S
Co102 O127 1.967 . S
Co102 O134 1.920 . S
Co103 O106 1.966 . S
Co103 N112 2.022 1_556 S
Co103 N120 1.993 . S
Co103 O128 1.941 . S
C104 O105 1.258 . S
C104 O106 1.263 . S
O105 Co102 1.970 . S
O105 C104 1.258 . S
O106 Co103 1.966 . S
O106 C104 1.263 . S
C107 O108 1.235 . S
C107 O134 1.289 . S
O108 C107 1.235 . S
C109 C111 1.400 . S
C109 N112 1.351 . S
C109 C114 1.501 . S
C110 C111 1.387 . S
C110 N113 1.341 . S
C111 C109 1.400 . S
C111 C110 1.387 . S
N112 Co103 2.022 1_554 S
N112 C109 1.351 . S
N112 N113 1.365 . S
N113 C110 1.341 . S
N113 N112 1.365 . S
N113 H133 0.862 . S
C114 C109 1.501 . S
C114 H115 0.961 . S
C114 H116 0.961 . S
C114 H117 0.960 . S
H115 C114 0.961 . S
H116 C114 0.961 . S
H117 C114 0.960 . S
C118 N119 1.342 . S
C118 C122 1.401 . S
C118 C123 1.499 . S
N119 Co102 1.989 . S
N119 C118 1.342 . S
N119 N120 1.388 . S
N120 Co103 1.993 . S
N120 N119 1.388 . S
N120 C121 1.346 . S
C121 N120 1.346 . S
C121 C122 1.396 . S
C121 C131 1.510 . S
C122 C118 1.401 . S
C122 C121 1.396 . S
C123 C118 1.499 . S
C123 H124 0.959 . S
C123 H125 0.960 . S
C123 H126 0.961 . S
H124 C123 0.959 . S
H125 C123 0.960 . S
H126 C123 0.961 . S
O127 Co102 1.967 . S
O127 C135 1.258 . S
O128 Co103 1.941 . S
O128 C135 1.266 . S
H129 C131 0.959 1_554 S
H130 C131 0.961 1_554 S
C131 C121 1.510 . S
C131 H129 0.959 1_556 S
C131 H130 0.961 1_556 S
C131 H132 0.960 1_556 S
H132 C131 0.960 1_554 S
H133 N113 0.862 . S
O134 Co102 1.920 . S
O134 C107 1.289 . S
C135 O127 1.258 . S
C135 O128 1.266 . S
Co136 O139 1.970 . S
Co136 N153 1.989 . S
Co136 O161 1.967 . S
Co136 O168 1.920 . S
Co137 O140 1.966 . S
Co137 N146 2.022 . S
Co137 N154 1.993 . S
Co137 O162 1.941 . S
C138 O139 1.258 . S
C138 O140 1.263 . S
O139 Co136 1.970 . S
O139 C138 1.258 . S
O140 Co137 1.966 . S
O140 C138 1.263 . S
C141 O142 1.235 . S
C141 O168 1.289 . S
O142 C141 1.235 . S
C143 C145 1.400 . S
C143 N146 1.351 . S
C143 C148 1.501 . S
C144 C145 1.387 . S
C144 N147 1.341 . S
C145 C143 1.400 . S
C145 C144 1.387 . S
N146 Co137 2.022 . S
N146 C143 1.351 . S
N146 N147 1.365 . S
N147 C144 1.341 . S
N147 N146 1.365 . S
N147 H167 0.862 . S
C148 C143 1.501 . S
C148 H149 0.961 . S
C148 H150 0.961 . S
C148 H151 0.960 . S
H149 C148 0.961 . S
H150 C148 0.961 . S
H151 C148 0.960 . S
C152 N153 1.342 . S
C152 C156 1.401 . S
C152 C157 1.499 . S
N153 Co136 1.989 . S
N153 C152 1.342 . S
N153 N154 1.388 . S
N154 Co137 1.993 . S
N154 N153 1.388 . S
N154 C155 1.346 . S
C155 N154 1.346 . S
C155 C156 1.396 . S
C155 C165 1.510 . S
C156 C152 1.401 . S
C156 C155 1.396 . S
C157 C152 1.499 . S
C157 H158 0.959 . S
C157 H159 0.960 . S
C157 H160 0.961 . S
H158 C157 0.959 . S
H159 C157 0.960 . S
H160 C157 0.961 . S
O161 Co136 1.967 . S
O161 C169 1.258 . S
O162 Co137 1.941 . S
O162 C169 1.266 . S
H163 C165 0.959 . S
H164 C165 0.961 . S
C165 C155 1.510 . S
C165 H163 0.959 . S
C165 H164 0.961 . S
C165 H166 0.960 . S
H166 C165 0.960 . S
H167 N147 0.862 . S
O168 Co136 1.920 . S
O168 C141 1.289 . S
C169 O161 1.258 . S
C169 O162 1.266 . S
Co170 O173 1.970 . S
Co170 N187 1.989 . S
Co170 O195 1.967 . S
Co170 O202 1.920 . S
Co171 O174 1.966 . S
Co171 N180 2.022 1_556 S
Co171 N188 1.993 . S
Co171 O196 1.941 . S
C172 O173 1.258 . S
C172 O174 1.263 . S
O173 Co170 1.970 . S
O173 C172 1.258 . S
O174 Co171 1.966 . S
O174 C172 1.263 . S
C175 O176 1.235 . S
C175 O202 1.289 . S
O176 C175 1.235 . S
C177 C179 1.400 . S
C177 N180 1.351 . S
C177 C182 1.501 . S
C178 C179 1.387 . S
C178 N181 1.341 . S
C179 C177 1.400 . S
C179 C178 1.387 . S
N180 Co171 2.022 1_554 S
N180 C177 1.351 . S
N180 N181 1.365 . S
N181 C178 1.341 . S
N181 N180 1.365 . S
N181 H201 0.862 . S
C182 C177 1.501 . S
C182 H183 0.961 . S
C182 H184 0.961 . S
C182 H185 0.960 . S
H183 C182 0.961 . S
H184 C182 0.961 . S
H185 C182 0.960 . S
C186 N187 1.342 . S
C186 C190 1.401 . S
C186 C191 1.499 . S
N187 Co170 1.989 . S
N187 C186 1.342 . S
N187 N188 1.388 . S
N188 Co171 1.993 . S
N188 N187 1.388 . S
N188 C189 1.346 . S
C189 N188 1.346 . S
C189 C190 1.396 . S
C189 C199 1.510 . S
C190 C186 1.401 . S
C190 C189 1.396 . S
C191 C186 1.499 . S
C191 H192 0.959 . S
C191 H193 0.960 . S
C191 H194 0.961 . S
H192 C191 0.959 . S
H193 C191 0.960 . S
H194 C191 0.961 . S
O195 Co170 1.967 . S
O195 C203 1.258 . S
O196 Co171 1.941 . S
O196 C203 1.266 . S
H197 C199 0.959 1_554 S
H198 C199 0.961 1_554 S
C199 C189 1.510 . S
C199 H197 0.959 1_556 S
C199 H198 0.961 1_556 S
C199 H200 0.960 1_556 S
H200 C199 0.960 1_554 S
H201 N181 0.862 . S
O202 Co170 1.920 . S
O202 C175 1.289 . S
C203 O195 1.258 . S
C203 O196 1.266 . S
Co204 O207 1.970 . S
Co204 N221 1.989 . S
Co204 O229 1.967 . S
Co204 O236 1.920 . S
Co205 O208 1.966 . S
Co205 N214 2.022 1_554 S
Co205 N222 1.993 . S
Co205 O230 1.941 . S
C206 O207 1.258 . S
C206 O208 1.263 . S
O207 Co204 1.970 . S
O207 C206 1.258 . S
O208 Co205 1.966 . S
O208 C206 1.263 . S
C209 O210 1.235 . S
C209 O236 1.289 . S
O210 C209 1.235 . S
C211 C213 1.400 . S
C211 N214 1.351 . S
C211 C216 1.501 . S
C212 C213 1.387 . S
C212 N215 1.341 . S
C213 C211 1.400 . S
C213 C212 1.387 . S
N214 Co205 2.022 1_556 S
N214 C211 1.351 . S
N214 N215 1.365 . S
N215 C212 1.341 . S
N215 N214 1.365 . S
N215 H235 0.862 . S
C216 C211 1.501 . S
C216 H217 0.961 . S
C216 H218 0.961 . S
C216 H219 0.960 . S
H217 C216 0.961 . S
H218 C216 0.961 . S
H219 C216 0.960 . S
C220 N221 1.342 . S
C220 C224 1.401 . S
C220 C225 1.499 . S
N221 Co204 1.989 . S
N221 C220 1.342 . S
N221 N222 1.388 . S
N222 Co205 1.993 . S
N222 N221 1.388 . S
N222 C223 1.346 . S
C223 N222 1.346 . S
C223 C224 1.396 . S
C223 C233 1.510 . S
C224 C220 1.401 . S
C224 C223 1.396 . S
C225 C220 1.499 . S
C225 H226 0.959 . S
C225 H227 0.960 . S
C225 H228 0.961 . S
H226 C225 0.959 . S
H227 C225 0.960 . S
H228 C225 0.961 . S
O229 Co204 1.967 . S
O229 C237 1.258 . S
O230 Co205 1.941 . S
O230 C237 1.266 . S
H231 C233 0.959 1_556 S
H232 C233 0.961 1_556 S
C233 C223 1.510 . S
C233 H231 0.959 1_554 S
C233 H232 0.961 1_554 S
C233 H234 0.960 1_554 S
H234 C233 0.960 1_556 S
H235 N215 0.862 . S
O236 Co204 1.920 . S
O236 C209 1.289 . S
C237 O229 1.258 . S
C237 O230 1.266 . S
Co238 O241 1.970 . S
Co238 N255 1.989 . S
Co238 O263 1.967 . S
Co238 O270 1.920 . S
Co239 O242 1.966 . S
Co239 N248 2.022 . S
Co239 N256 1.993 . S
Co239 O264 1.941 . S
C240 O241 1.258 . S
C240 O242 1.263 . S
O241 Co238 1.970 . S
O241 C240 1.258 . S
O242 Co239 1.966 . S
O242 C240 1.263 . S
C243 O244 1.235 . S
C243 O270 1.289 . S
O244 C243 1.235 . S
C245 C247 1.400 . S
C245 N248 1.351 . S
C245 C250 1.501 . S
C246 C247 1.387 . S
C246 N249 1.341 . S
C247 C245 1.400 . S
C247 C246 1.387 . S
N248 Co239 2.022 . S
N248 C245 1.351 . S
N248 N249 1.365 . S
N249 C246 1.341 . S
N249 N248 1.365 . S
N249 H269 0.862 . S
C250 C245 1.501 . S
C250 H251 0.961 . S
C250 H252 0.961 . S
C250 H253 0.960 . S
H251 C250 0.961 . S
H252 C250 0.961 . S
H253 C250 0.960 . S
C254 N255 1.342 . S
C254 C258 1.401 . S
C254 C259 1.499 . S
N255 Co238 1.989 . S
N255 C254 1.342 . S
N255 N256 1.388 . S
N256 Co239 1.993 . S
N256 N255 1.388 . S
N256 C257 1.346 . S
C257 N256 1.346 . S
C257 C258 1.396 . S
C257 C267 1.510 . S
C258 C254 1.401 . S
C258 C257 1.396 . S
C259 C254 1.499 . S
C259 H260 0.959 . S
C259 H261 0.960 . S
C259 H262 0.961 . S
H260 C259 0.959 . S
H261 C259 0.960 . S
H262 C259 0.961 . S
O263 Co238 1.967 . S
O263 C271 1.258 . S
O264 Co239 1.941 . S
O264 C271 1.266 . S
H265 C267 0.959 . S
H266 C267 0.961 . S
C267 C257 1.510 . S
C267 H265 0.959 . S
C267 H266 0.961 . S
C267 H268 0.960 . S
H268 C267 0.960 . S
H269 N249 0.862 . S
O270 Co238 1.920 . S
O270 C243 1.289 . S
C271 O263 1.258 . S
C271 O264 1.266 . S
Co272 O275 1.970 . S
Co272 N289 1.989 . S
Co272 O297 1.967 . S
Co272 O304 1.920 . S
Co273 O276 1.966 . S
Co273 N282 2.022 1_554 S
Co273 N290 1.993 . S
Co273 O298 1.941 . S
C274 O275 1.258 . S
C274 O276 1.263 . S
O275 Co272 1.970 . S
O275 C274 1.258 . S
O276 Co273 1.966 . S
O276 C274 1.263 . S
C277 O278 1.235 . S
C277 O304 1.289 . S
O278 C277 1.235 . S
C279 C281 1.400 . S
C279 N282 1.351 . S
C279 C284 1.501 . S
C280 C281 1.387 . S
C280 N283 1.341 . S
C281 C279 1.400 . S
C281 C280 1.387 . S
N282 Co273 2.022 1_556 S
N282 C279 1.351 . S
N282 N283 1.365 . S
N283 C280 1.341 . S
N283 N282 1.365 . S
N283 H303 0.862 . S
C284 C279 1.501 . S
C284 H285 0.961 . S
C284 H286 0.961 . S
C284 H287 0.960 . S
H285 C284 0.961 . S
H286 C284 0.961 . S
H287 C284 0.960 . S
C288 N289 1.342 . S
C288 C292 1.401 . S
C288 C293 1.499 . S
N289 Co272 1.989 . S
N289 C288 1.342 . S
N289 N290 1.388 . S
N290 Co273 1.993 . S
N290 N289 1.388 . S
N290 C291 1.346 . S
C291 N290 1.346 . S
C291 C292 1.396 . S
C291 C301 1.510 . S
C292 C288 1.401 . S
C292 C291 1.396 . S
C293 C288 1.499 . S
C293 H294 0.959 . S
C293 H295 0.960 . S
C293 H296 0.961 . S
H294 C293 0.959 . S
H295 C293 0.960 . S
H296 C293 0.961 . S
O297 Co272 1.967 . S
O297 C305 1.258 . S
O298 Co273 1.941 . S
O298 C305 1.266 . S
H299 C301 0.959 1_556 S
H300 C301 0.961 1_556 S
C301 C291 1.510 . S
C301 H299 0.959 1_554 S
C301 H300 0.961 1_554 S
C301 H302 0.960 1_554 S
H302 C301 0.960 1_556 S
H303 N283 0.862 . S
O304 Co272 1.920 . S
O304 C277 1.289 . S
C305 O297 1.258 . S
C305 O298 1.266 . S
Co306 O309 1.970 . S
Co306 N323 1.989 . S
Co306 O331 1.967 . S
Co306 O338 1.920 . S
Co307 O310 1.966 . S
Co307 N316 2.022 . S
Co307 N324 1.993 . S
Co307 O332 1.941 . S
C308 O309 1.258 . S
C308 O310 1.263 . S
O309 Co306 1.970 . S
O309 C308 1.258 . S
O310 Co307 1.966 . S
O310 C308 1.263 . S
C311 O312 1.235 . S
C311 O338 1.289 . S
O312 C311 1.235 . S
C313 C315 1.400 . S
C313 N316 1.351 . S
C313 C318 1.501 . S
C314 C315 1.387 . S
C314 N317 1.341 . S
C315 C313 1.400 . S
C315 C314 1.387 . S
N316 Co307 2.022 . S
N316 C313 1.351 . S
N316 N317 1.365 . S
N317 C314 1.341 . S
N317 N316 1.365 . S
N317 H337 0.862 . S
C318 C313 1.501 . S
C318 H319 0.961 . S
C318 H320 0.961 . S
C318 H321 0.960 . S
H319 C318 0.961 . S
H320 C318 0.961 . S
H321 C318 0.960 . S
C322 N323 1.342 . S
C322 C326 1.401 . S
C322 C327 1.499 . S
N323 Co306 1.989 . S
N323 C322 1.342 . S
N323 N324 1.388 . S
N324 Co307 1.993 . S
N324 N323 1.388 . S
N324 C325 1.346 . S
C325 N324 1.346 . S
C325 C326 1.396 . S
C325 C335 1.510 . S
C326 C322 1.401 . S
C326 C325 1.396 . S
C327 C322 1.499 . S
C327 H328 0.959 . S
C327 H329 0.960 . S
C327 H330 0.961 . S
H328 C327 0.959 . S
H329 C327 0.960 . S
H330 C327 0.961 . S
O331 Co306 1.967 . S
O331 C339 1.258 . S
O332 Co307 1.941 . S
O332 C339 1.266 . S
H333 C335 0.959 . S
H334 C335 0.961 . S
C335 C325 1.510 . S
C335 H333 0.959 . S
C335 H334 0.961 . S
C335 H336 0.960 . S
H336 C335 0.960 . S
H337 N317 0.862 . S
O338 Co306 1.920 . S
O338 C311 1.289 . S
C339 O331 1.258 . S
C339 O332 1.266 . S
Co340 O343 1.970 . S
Co340 N357 1.989 . S
Co340 O365 1.967 . S
Co340 O372 1.920 . S
Co341 O344 1.966 . S
Co341 N350 2.022 1_554 S
Co341 N358 1.993 . S
Co341 O366 1.941 . S
C342 O343 1.258 . S
C342 O344 1.263 . S
O343 Co340 1.970 . S
O343 C342 1.258 . S
O344 Co341 1.966 . S
O344 C342 1.263 . S
C345 O346 1.235 . S
C345 O372 1.289 . S
O346 C345 1.235 . S
C347 C349 1.400 . S
C347 N350 1.351 . S
C347 C352 1.501 . S
C348 C349 1.387 . S
C348 N351 1.341 . S
C349 C347 1.400 . S
C349 C348 1.387 . S
N350 Co341 2.022 1_556 S
N350 C347 1.351 . S
N350 N351 1.365 . S
N351 C348 1.341 . S
N351 N350 1.365 . S
N351 H371 0.862 . S
C352 C347 1.501 . S
C352 H353 0.961 . S
C352 H354 0.961 . S
C352 H355 0.960 . S
H353 C352 0.961 . S
H354 C352 0.961 . S
H355 C352 0.960 . S
C356 N357 1.342 . S
C356 C360 1.401 . S
C356 C361 1.499 . S
N357 Co340 1.989 . S
N357 C356 1.342 . S
N357 N358 1.388 . S
N358 Co341 1.993 . S
N358 N357 1.388 . S
N358 C359 1.346 . S
C359 N358 1.346 . S
C359 C360 1.396 . S
C359 C369 1.510 . S
C360 C356 1.401 . S
C360 C359 1.396 . S
C361 C356 1.499 . S
C361 H362 0.959 . S
C361 H363 0.960 . S
C361 H364 0.961 . S
H362 C361 0.959 . S
H363 C361 0.960 . S
H364 C361 0.961 . S
O365 Co340 1.967 . S
O365 C373 1.258 . S
O366 Co341 1.941 . S
O366 C373 1.266 . S
H367 C369 0.959 1_556 S
H368 C369 0.961 1_556 S
C369 C359 1.510 . S
C369 H367 0.959 1_554 S
C369 H368 0.961 1_554 S
C369 H370 0.960 1_554 S
H370 C369 0.960 1_556 S
H371 N351 0.862 . S
O372 Co340 1.920 . S
O372 C345 1.289 . S
C373 O365 1.258 . S
C373 O366 1.266 . S
Co374 O377 1.970 . S
Co374 N391 1.989 . S
Co374 O399 1.967 . S
Co374 O406 1.920 . S
Co375 O378 1.966 . S
Co375 N384 2.022 . S
Co375 N392 1.993 . S
Co375 O400 1.941 . S
C376 O377 1.258 . S
C376 O378 1.263 . S
O377 Co374 1.970 . S
O377 C376 1.258 . S
O378 Co375 1.966 . S
O378 C376 1.263 . S
C379 O380 1.235 . S
C379 O406 1.289 . S
O380 C379 1.235 . S
C381 C383 1.400 . S
C381 N384 1.351 . S
C381 C386 1.501 . S
C382 C383 1.387 . S
C382 N385 1.341 . S
C383 C381 1.400 . S
C383 C382 1.387 . S
N384 Co375 2.022 . S
N384 C381 1.351 . S
N384 N385 1.365 . S
N385 C382 1.341 . S
N385 N384 1.365 . S
N385 H405 0.862 . S
C386 C381 1.501 . S
C386 H387 0.961 . S
C386 H388 0.961 . S
C386 H389 0.960 . S
H387 C386 0.961 . S
H388 C386 0.961 . S
H389 C386 0.960 . S
C390 N391 1.342 . S
C390 C394 1.401 . S
C390 C395 1.499 . S
N391 Co374 1.989 . S
N391 C390 1.342 . S
N391 N392 1.388 . S
N392 Co375 1.993 . S
N392 N391 1.388 . S
N392 C393 1.346 . S
C393 N392 1.346 . S
C393 C394 1.396 . S
C393 C403 1.510 . S
C394 C390 1.401 . S
C394 C393 1.396 . S
C395 C390 1.499 . S
C395 H396 0.959 . S
C395 H397 0.960 . S
C395 H398 0.961 . S
H396 C395 0.959 . S
H397 C395 0.960 . S
H398 C395 0.961 . S
O399 Co374 1.967 . S
O399 C407 1.258 . S
O400 Co375 1.941 . S
O400 C407 1.266 . S
H401 C403 0.959 . S
H402 C403 0.961 . S
C403 C393 1.510 . S
C403 H401 0.959 . S
C403 H402 0.961 . S
C403 H404 0.960 . S
H404 C403 0.960 . S
H405 N385 0.862 . S
O406 Co374 1.920 . S
O406 C379 1.289 . S
C407 O399 1.258 . S
C407 O400 1.266 . S
C408 C409 1.369 . S
C408 C410 1.419 1_455 S
C408 H412 0.930 . S
C409 C408 1.369 . S
C409 C418 1.429 . S
C410 C408 1.419 1_655 S
C410 C411 1.363 . S
C410 H413 0.929 . S
C411 C410 1.363 . S
C411 C417 1.428 . S
H412 C408 0.930 . S
H413 C410 0.929 . S
S414 N415 1.613 1_655 S
S414 N416 1.610 . S
N415 S414 1.613 1_455 S
N415 C418 1.350 . S
N416 S414 1.610 . S
N416 C417 1.351 . S
C417 C411 1.428 . S
C417 N416 1.351 . S
C417 C418 1.434 1_655 S
C418 C409 1.429 . S
C418 N415 1.350 . S
C418 C417 1.434 1_455 S
C419 C420 1.369 1_554 S
C419 C421 1.419 . S
C419 H423 0.930 . S
C420 C419 1.369 1_556 S
C420 C429 1.429 1_545 S
C421 C419 1.419 . S
C421 C422 1.363 1_545 S
C421 H424 0.929 . S
C422 C421 1.363 1_565 S
C422 C428 1.428 1_554 S
H423 C419 0.930 . S
H424 C421 0.929 . S
S425 N426 1.613 . S
S425 N427 1.610 . S
N426 S425 1.613 . S
N426 C429 1.350 . S
N427 S425 1.610 . S
N427 C428 1.351 . S
C428 C422 1.428 1_556 S
C428 N427 1.351 . S
C428 C429 1.434 . S
C429 C420 1.429 1_565 S
C429 N426 1.350 . S
C429 C428 1.434 . S
C430 C431 1.369 . S
C430 C432 1.419 . S
C430 H434 0.930 . S
C431 C430 1.369 . S
C431 C440 1.429 . S
C432 C430 1.419 . S
C432 C433 1.363 . S
C432 H435 0.929 . S
C433 C432 1.363 . S
C433 C439 1.428 . S
H434 C430 0.930 . S
H435 C432 0.929 . S
S436 N437 1.613 . S
S436 N438 1.610 . S
N437 S436 1.613 . S
N437 C440 1.350 . S
N438 S436 1.610 . S
N438 C439 1.351 . S
C439 C433 1.428 . S
C439 N438 1.351 . S
C439 C440 1.434 . S
C440 C431 1.429 . S
C440 N437 1.350 . S
C440 C439 1.434 . S
C441 C442 1.369 . S
C441 C443 1.419 1_454 S
C441 H445 0.930 . S
C442 C441 1.369 . S
C442 C451 1.429 . S
C443 C441 1.419 1_656 S
C443 C444 1.363 . S
C443 H446 0.929 . S
C444 C443 1.363 . S
C444 C450 1.428 . S
H445 C441 0.930 . S
H446 C443 0.929 . S
S447 N448 1.613 1_655 S
S447 N449 1.610 . S
N448 S447 1.613 1_455 S
N448 C451 1.350 . S
N449 S447 1.610 . S
N449 C450 1.351 1_554 S
C450 C444 1.428 . S
C450 N449 1.351 1_556 S
C450 C451 1.434 1_656 S
C451 C442 1.429 . S
C451 N448 1.350 . S
C451 C450 1.434 1_454 S
C452 C453 1.369 . S
C452 C454 1.419 . S
C452 H456 0.930 . S
C453 C452 1.369 . S
C453 C462 1.429 1_545 S
C454 C452 1.419 . S
C454 C455 1.363 1_545 S
C454 H457 0.929 . S
C455 C454 1.363 1_565 S
C455 C461 1.428 . S
H456 C452 0.930 . S
H457 C454 0.929 . S
S458 N459 1.613 . S
S458 N460 1.610 . S
N459 S458 1.613 . S
N459 C462 1.350 . S
N460 S458 1.610 . S
N460 C461 1.351 . S
C461 C455 1.428 . S
C461 N460 1.351 . S
C461 C462 1.434 . S
C462 C453 1.429 1_565 S
C462 N459 1.350 . S
C462 C461 1.434 . S
C463 C464 1.369 1_554 S
C463 C465 1.419 . S
C463 H467 0.930 . S
C464 C463 1.369 1_556 S
C464 C473 1.429 . S
C465 C463 1.419 . S
C465 C466 1.363 . S
C465 H468 0.929 . S
C466 C465 1.363 . S
C466 C472 1.428 1_554 S
H467 C463 0.930 . S
H468 C465 0.929 . S
S469 N470 1.613 . S
S469 N471 1.610 . S
N470 S469 1.613 . S
N470 C473 1.350 . S
N471 S469 1.610 . S
N471 C472 1.351 . S
C472 C466 1.428 1_556 S
C472 N471 1.351 . S
C472 C473 1.434 . S
C473 C464 1.429 . S
C473 N470 1.350 . S
C473 C472 1.434 . S
C474 C475 1.369 . S
C474 C476 1.419 . S
C474 H478 0.930 . S
C475 C474 1.369 . S
C475 C484 1.429 . S
C476 C474 1.419 . S
C476 C477 1.363 . S
C476 H479 0.929 . S
C477 C476 1.363 . S
C477 C483 1.428 . S
H478 C474 0.930 . S
H479 C476 0.929 . S
S480 N481 1.613 . S
S480 N482 1.610 . S
N481 S480 1.613 . S
N481 C484 1.350 . S
N482 S480 1.610 . S
N482 C483 1.351 . S
C483 C477 1.428 . S
C483 N482 1.351 . S
C483 C484 1.434 . S
C484 C475 1.429 . S
C484 N481 1.350 . S
C484 C483 1.434 . S
C485 C486 1.369 . S
C485 C487 1.419 . S
C485 H489 0.930 . S
C486 C485 1.369 . S
C486 C495 1.429 . S
C487 C485 1.419 . S
C487 C488 1.363 . S
C487 H490 0.929 . S
C488 C487 1.363 . S
C488 C494 1.428 . S
H489 C485 0.930 . S
H490 C487 0.929 . S
S491 N492 1.613 . S
S491 N493 1.610 . S
N492 S491 1.613 . S
N492 C495 1.350 . S
N493 S491 1.610 . S
N493 C494 1.351 . S
C494 C488 1.428 . S
C494 N493 1.351 . S
C494 C495 1.434 . S
C495 C486 1.429 . S
C495 N492 1.350 . S
C495 C494 1.434 . S
C496 C497 1.369 . S
C496 C498 1.419 . S
C496 H500 0.930 . S
C497 C496 1.369 . S
C497 C506 1.429 . S
C498 C496 1.419 . S
C498 C499 1.363 . S
C498 H501 0.929 . S
C499 C498 1.363 . S
C499 C505 1.428 . S
H500 C496 0.930 . S
H501 C498 0.929 . S
S502 N503 1.613 . S
S502 N504 1.610 . S
N503 S502 1.613 . S
N503 C506 1.350 . S
N504 S502 1.610 . S
N504 C505 1.351 . S
C505 C499 1.428 . S
C505 N504 1.351 . S
C505 C506 1.434 . S
C506 C497 1.429 . S
C506 N503 1.350 . S
C506 C505 1.434 . S
C507 C508 1.369 . S
C507 C509 1.419 . S
C507 H511 0.930 . S
C508 C507 1.369 . S
C508 C517 1.429 . S
C509 C507 1.419 . S
C509 C510 1.363 . S
C509 H512 0.929 . S
C510 C509 1.363 . S
C510 C516 1.428 . S
H511 C507 0.930 . S
H512 C509 0.929 . S
S513 N514 1.613 . S
S513 N515 1.610 . S
N514 S513 1.613 . S
N514 C517 1.350 . S
N515 S513 1.610 . S
N515 C516 1.351 . S
C516 C510 1.428 . S
C516 N515 1.351 . S
C516 C517 1.434 . S
C517 C508 1.429 . S
C517 N514 1.350 . S
C517 C516 1.434 . S
C518 C519 1.369 . S
C518 C520 1.419 . S
C518 H522 0.930 . S
C519 C518 1.369 . S
C519 C528 1.429 . S
C520 C518 1.419 . S
C520 C521 1.363 . S
C520 H523 0.929 . S
C521 C520 1.363 . S
C521 C527 1.428 . S
H522 C518 0.930 . S
H523 C520 0.929 . S
S524 N525 1.613 . S
S524 N526 1.610 . S
N525 S524 1.613 . S
N525 C528 1.350 . S
N526 S524 1.610 . S
N526 C527 1.351 . S
C527 C521 1.428 . S
C527 N526 1.351 . S
C527 C528 1.434 . S
C528 C519 1.429 . S
C528 N525 1.350 . S
C528 C527 1.434 . S
C529 C530 1.369 . S
C529 C531 1.419 . S
C529 H533 0.930 . S
C530 C529 1.369 . S
C530 C539 1.429 . S
C531 C529 1.419 . S
C531 C532 1.363 . S
C531 H534 0.929 . S
C532 C531 1.363 . S
C532 C538 1.428 . S
H533 C529 0.930 . S
H534 C531 0.929 . S
S535 N536 1.613 . S
S535 N537 1.610 . S
N536 S535 1.613 . S
N536 C539 1.350 . S
N537 S535 1.610 . S
N537 C538 1.351 . S
C538 C532 1.428 . S
C538 N537 1.351 . S
C538 C539 1.434 . S
C539 C530 1.429 . S
C539 N536 1.350 . S
C539 C538 1.434 . S
C540 C541 1.369 . S
C540 C542 1.419 . S
C540 H544 0.930 . S
C541 C540 1.369 . S
C541 C550 1.429 . S
C542 C540 1.419 . S
C542 C543 1.363 . S
C542 H545 0.929 . S
C543 C542 1.363 . S
C543 C549 1.428 . S
H544 C540 0.930 . S
H545 C542 0.929 . S
S546 N547 1.613 . S
S546 N548 1.610 1_556 S
N547 S546 1.613 . S
N547 C550 1.350 . S
N548 S546 1.610 1_554 S
N548 C549 1.351 1_554 S
C549 C543 1.428 . S
C549 N548 1.351 1_556 S
C549 C550 1.434 . S
C550 C541 1.429 . S
C550 N547 1.350 . S
C550 C549 1.434 . S
C551 C552 1.369 . S
C551 C553 1.419 . S
C551 H555 0.930 . S
C552 C551 1.369 . S
C552 C561 1.429 . S
C553 C551 1.419 . S
C553 C554 1.363 . S
C553 H556 0.929 . S
C554 C553 1.363 . S
C554 C560 1.428 . S
H555 C551 0.930 . S
H556 C553 0.929 . S
S557 N558 1.613 . S
S557 N559 1.610 . S
N558 S557 1.613 . S
N558 C561 1.350 . S
N559 S557 1.610 . S
N559 C560 1.351 . S
C560 C554 1.428 . S
C560 N559 1.351 . S
C560 C561 1.434 . S
C561 C552 1.429 . S
C561 N558 1.350 . S
C561 C560 1.434 . S
C562 C563 1.369 . S
C562 C564 1.419 . S
C562 H566 0.930 . S
C563 C562 1.369 . S
C563 C572 1.429 . S
C564 C562 1.419 . S
C564 C565 1.363 . S
C564 H567 0.929 . S
C565 C564 1.363 . S
C565 C571 1.428 . S
H566 C562 0.930 . S
H567 C564 0.929 . S
S568 N569 1.613 . S
S568 N570 1.610 . S
N569 S568 1.613 . S
N569 C572 1.350 . S
N570 S568 1.610 . S
N570 C571 1.351 . S
C571 C565 1.428 . S
C571 N570 1.351 . S
C571 C572 1.434 . S
C572 C563 1.429 . S
C572 N569 1.350 . S
C572 C571 1.434 . S
C573 C574 1.369 . S
C573 C575 1.419 . S
C573 H577 0.930 . S
C574 C573 1.369 . S
C574 C583 1.429 . S
C575 C573 1.419 . S
C575 C576 1.363 . S
C575 H578 0.929 . S
C576 C575 1.363 . S
C576 C582 1.428 . S
H577 C573 0.930 . S
H578 C575 0.929 . S
S579 N580 1.613 . S
S579 N581 1.610 . S
N580 S579 1.613 . S
N580 C583 1.350 . S
N581 S579 1.610 . S
N581 C582 1.351 . S
C582 C576 1.428 . S
C582 N581 1.351 . S
C582 C583 1.434 . S
C583 C574 1.429 . S
C583 N580 1.350 . S
C583 C582 1.434 . S
C584 C585 1.369 . S
C584 C586 1.419 . S
C584 H588 0.930 . S
C585 C584 1.369 . S
C585 C594 1.429 . S
C586 C584 1.419 . S
C586 C587 1.363 . S
C586 H589 0.929 . S
C587 C586 1.363 . S
C587 C593 1.428 . S
H588 C584 0.930 . S
H589 C586 0.929 . S
S590 N591 1.613 . S
S590 N592 1.610 . S
N591 S590 1.613 . S
N591 C594 1.350 . S
N592 S590 1.610 . S
N592 C593 1.351 . S
C593 C587 1.428 . S
C593 N592 1.351 . S
C593 C594 1.434 . S
C594 C585 1.429 . S
C594 N591 1.350 . S
C594 C593 1.434 . S
C595 C596 1.369 . S
C595 C597 1.419 . S
C595 H599 0.930 . S
C596 C595 1.369 . S
C596 C605 1.429 . S
C597 C595 1.419 . S
C597 C598 1.363 . S
C597 H600 0.929 . S
C598 C597 1.363 . S
C598 C604 1.428 . S
H599 C595 0.930 . S
H600 C597 0.929 . S
S601 N602 1.613 . S
S601 N603 1.610 . S
N602 S601 1.613 . S
N602 C605 1.350 . S
N603 S601 1.610 . S
N603 C604 1.351 . S
C604 C598 1.428 . S
C604 N603 1.351 . S
C604 C605 1.434 . S
C605 C596 1.429 . S
C605 N602 1.350 . S
C605 C604 1.434 . S
C606 C607 1.369 . S
C606 C608 1.419 . S
C606 H610 0.930 . S
C607 C606 1.369 . S
C607 C616 1.429 . S
C608 C606 1.419 . S
C608 C609 1.363 . S
C608 H611 0.929 . S
C609 C608 1.363 . S
C609 C615 1.428 . S
H610 C606 0.930 . S
H611 C608 0.929 . S
S612 N613 1.613 . S
S612 N614 1.610 . S
N613 S612 1.613 . S
N613 C616 1.350 . S
N614 S612 1.610 . S
N614 C615 1.351 . S
C615 C609 1.428 . S
C615 N614 1.351 . S
C615 C616 1.434 . S
C616 C607 1.429 . S
C616 N613 1.350 . S
C616 C615 1.434 . S
C617 C618 1.369 . S
C617 C619 1.419 . S
C617 H621 0.930 . S
C618 C617 1.369 . S
C618 C627 1.429 . S
C619 C617 1.419 . S
C619 C620 1.363 . S
C619 H622 0.929 . S
C620 C619 1.363 . S
C620 C626 1.428 . S
H621 C617 0.930 . S
H622 C619 0.929 . S
S623 N624 1.613 . S
S623 N625 1.610 . S
N624 S623 1.613 . S
N624 C627 1.350 . S
N625 S623 1.610 . S
N625 C626 1.351 . S
C626 C620 1.428 . S
C626 N625 1.351 . S
C626 C627 1.434 . S
C627 C618 1.429 . S
C627 N624 1.350 . S
C627 C626 1.434 . S
C628 C629 1.369 . S
C628 C630 1.419 . S
C628 H632 0.930 . S
C629 C628 1.369 . S
C629 C638 1.429 . S
C630 C628 1.419 . S
C630 C631 1.363 . S
C630 H633 0.929 . S
C631 C630 1.363 . S
C631 C637 1.428 . S
H632 C628 0.930 . S
H633 C630 0.929 . S
S634 N635 1.613 . S
S634 N636 1.610 . S
N635 S634 1.613 . S
N635 C638 1.350 . S
N636 S634 1.610 . S
N636 C637 1.351 . S
C637 C631 1.428 . S
C637 N636 1.351 . S
C637 C638 1.434 . S
C638 C629 1.429 . S
C638 N635 1.350 . S
C638 C637 1.434 . S
C639 C640 1.369 . S
C639 C641 1.419 . S
C639 H643 0.930 . S
C640 C639 1.369 . S
C640 C649 1.429 . S
C641 C639 1.419 . S
C641 C642 1.363 . S
C641 H644 0.929 . S
C642 C641 1.363 . S
C642 C648 1.428 . S
H643 C639 0.930 . S
H644 C641 0.929 . S
S645 N646 1.613 . S
S645 N647 1.610 . S
N646 S645 1.613 . S
N646 C649 1.350 . S
N647 S645 1.610 . S
N647 C648 1.351 . S
C648 C642 1.428 . S
C648 N647 1.351 . S
C648 C649 1.434 . S
C649 C640 1.429 . S
C649 N646 1.350 . S
C649 C648 1.434 . S
C650 C651 1.369 . S
C650 C652 1.419 . S
C650 H654 0.930 . S
C651 C650 1.369 . S
C651 C660 1.429 . S
C652 C650 1.419 . S
C652 C653 1.363 . S
C652 H655 0.929 . S
C653 C652 1.363 . S
C653 C659 1.428 . S
H654 C650 0.930 . S
H655 C652 0.929 . S
S656 N657 1.613 . S
S656 N658 1.610 . S
N657 S656 1.613 . S
N657 C660 1.350 . S
N658 S656 1.610 . S
N658 C659 1.351 . S
C659 C653 1.428 . S
C659 N658 1.351 . S
C659 C660 1.434 . S
C660 C651 1.429 . S
C660 N657 1.350 . S
C660 C659 1.434 . S
C661 C662 1.369 . S
C661 C663 1.419 . S
C661 H665 0.930 . S
C662 C661 1.369 . S
C662 C671 1.429 . S
C663 C661 1.419 . S
C663 C664 1.363 . S
C663 H666 0.929 . S
C664 C663 1.363 . S
C664 C670 1.428 . S
H665 C661 0.930 . S
H666 C663 0.929 . S
S667 N668 1.613 . S
S667 N669 1.610 . S
N668 S667 1.613 . S
N668 C671 1.350 . S
N669 S667 1.610 . S
N669 C670 1.351 . S
C670 C664 1.428 . S
C670 N669 1.351 . S
C670 C671 1.434 . S
C671 C662 1.429 . S
C671 N668 1.350 . S
C671 C670 1.434 . S
C672 C673 1.369 . S
C672 C674 1.419 . S
C672 H676 0.930 . S
C673 C672 1.369 . S
C673 C682 1.429 . S
C674 C672 1.419 . S
C674 C675 1.363 . S
C674 H677 0.929 . S
C675 C674 1.363 . S
C675 C681 1.428 . S
H676 C672 0.930 . S
H677 C674 0.929 . S
S678 N679 1.613 . S
S678 N680 1.610 . S
N679 S678 1.613 . S
N679 C682 1.350 . S
N680 S678 1.610 . S
N680 C681 1.351 . S
C681 C675 1.428 . S
C681 N680 1.351 . S
C681 C682 1.434 . S
C682 C673 1.429 . S
C682 N679 1.350 . S
C682 C681 1.434 . S
C683 C684 1.369 . S
C683 C685 1.419 . S
C683 H687 0.930 . S
C684 C683 1.369 . S
C684 C693 1.429 . S
C685 C683 1.419 . S
C685 C686 1.363 . S
C685 H688 0.929 . S
C686 C685 1.363 . S
C686 C692 1.428 . S
H687 C683 0.930 . S
H688 C685 0.929 . S
S689 N690 1.613 . S
S689 N691 1.610 . S
N690 S689 1.613 . S
N690 C693 1.350 . S
N691 S689 1.610 . S
N691 C692 1.351 . S
C692 C686 1.428 . S
C692 N691 1.351 . S
C692 C693 1.434 . S
C693 C684 1.429 . S
C693 N690 1.350 . S
C693 C692 1.434 . S
C694 C695 1.369 . S
C694 C696 1.419 . S
C694 H698 0.930 . S
C695 C694 1.369 . S
C695 C704 1.429 . S
C696 C694 1.419 . S
C696 C697 1.363 . S
C696 H699 0.929 . S
C697 C696 1.363 . S
C697 C703 1.428 . S
H698 C694 0.930 . S
H699 C696 0.929 . S
S700 N701 1.613 . S
S700 N702 1.610 . S
N701 S700 1.613 . S
N701 C704 1.350 . S
N702 S700 1.610 . S
N702 C703 1.351 . S
C703 C697 1.428 . S
C703 N702 1.351 . S
C703 C704 1.434 . S
C704 C695 1.429 . S
C704 N701 1.350 . S
C704 C703 1.434 . S
C705 C706 1.369 . S
C705 C707 1.419 . S
C705 H709 0.930 . S
C706 C705 1.369 . S
C706 C715 1.429 . S
C707 C705 1.419 . S
C707 C708 1.363 . S
C707 H710 0.929 . S
C708 C707 1.363 . S
C708 C714 1.428 . S
H709 C705 0.930 . S
H710 C707 0.929 . S
S711 N712 1.613 . S
S711 N713 1.610 . S
N712 S711 1.613 . S
N712 C715 1.350 . S
N713 S711 1.610 . S
N713 C714 1.351 . S
C714 C708 1.428 . S
C714 N713 1.351 . S
C714 C715 1.434 . S
C715 C706 1.429 . S
C715 N712 1.350 . S
C715 C714 1.434 . S
C716 C717 1.369 . S
C716 C718 1.419 . S
C716 H720 0.930 . S
C717 C716 1.369 . S
C717 C726 1.429 . S
C718 C716 1.419 . S
C718 C719 1.363 . S
C718 H721 0.929 . S
C719 C718 1.363 . S
C719 C725 1.428 . S
H720 C716 0.930 . S
H721 C718 0.929 . S
S722 N723 1.613 . S
S722 N724 1.610 . S
N723 S722 1.613 . S
N723 C726 1.350 . S
N724 S722 1.610 . S
N724 C725 1.351 . S
C725 C719 1.428 . S
C725 N724 1.351 . S
C725 C726 1.434 . S
C726 C717 1.429 . S
C726 N723 1.350 . S
C726 C725 1.434 . S
C727 C728 1.369 . S
C727 C729 1.419 . S
C727 H731 0.930 . S
C728 C727 1.369 . S
C728 C737 1.429 . S
C729 C727 1.419 . S
C729 C730 1.363 . S
C729 H732 0.929 . S
C730 C729 1.363 . S
C730 C736 1.428 . S
H731 C727 0.930 . S
H732 C729 0.929 . S
S733 N734 1.613 . S
S733 N735 1.610 . S
N734 S733 1.613 . S
N734 C737 1.350 . S
N735 S733 1.610 . S
N735 C736 1.351 . S
C736 C730 1.428 . S
C736 N735 1.351 . S
C736 C737 1.434 . S
C737 C728 1.429 . S
C737 N734 1.350 . S
C737 C736 1.434 . S
C409 C2 1.684 . S
C411 C376 1.687 . S
C420 C36 1.690 . S
C422 C206 1.683 . S
C431 C240 1.689 . S
C433 C70 1.684 . S
C442 C274 1.690 . S
C444 C104 1.685 . S
C453 C308 1.689 . S
C455 C138 1.683 . S
C464 C172 1.690 . S
C466 C342 1.683 . S
C475 C305 1.607 . S
C477 C33 1.606 . S
C486 C339 1.604 . S
C488 C67 1.607 . S
C497 C101 1.606 . S
C499 C373 1.607 . S
C508 C135 1.607 . S
C510 C407 1.605 . S
C519 C237 1.605 . S
C521 C169 1.607 . S
C530 C203 1.605 . S
C532 C271 1.606 . S
C541 C9 1.392 . S
C543 C5 1.383 1_556 S
C552 C39 1.390 . S
C554 C43 1.384 . S
C563 C77 1.391 . S
C565 C73 1.387 1_556 S
C574 C107 1.390 . S
C576 C111 1.388 . S
C585 C145 1.384 . S
C587 C141 1.386 1_556 S
C596 C175 1.389 . S
C598 C179 1.389 . S
C607 C209 1.389 . S
C609 C213 1.389 . S
C618 C247 1.389 . S
C620 C243 1.389 1_554 S
C629 C277 1.381 . S
C631 C281 1.389 . S
C640 C311 1.383 1_554 S
C642 C315 1.391 . S
C651 C349 1.389 . S
C653 C345 1.389 . S
C662 C383 1.385 . S
C664 C379 1.385 1_554 S
C673 C20 1.571 . S
C675 C360 1.567 . S
C684 C394 1.571 . S
C686 C54 1.567 . S
C695 C224 1.571 . S
C697 C88 1.567 . S
C706 C122 1.567 . S
C708 C258 1.570 . S
C717 C156 1.566 . S
C719 C292 1.571 . S
C728 C190 1.569 . S
C730 C326 1.569 . S
