# Generated by pormake.
# Topology msp, (4)-cn, num edge types: 1
# Building blocks:
#     Node 0, Type 0, BuildingBlock: ESEHIV_clean_sbu_0, # of connection points: 4
#     Node 1, Type 0, BuildingBlock: ESEHIV_clean_sbu_0, # of connection points: 4
#     Node 2, Type 0, BuildingBlock: ESEHIV_clean_sbu_0, # of connection points: 4
#     Node 3, Type 0, BuildingBlock: ESEHIV_clean_sbu_0, # of connection points: 4
#     Node 4, Type 0, BuildingBlock: ESEHIV_clean_sbu_0, # of connection points: 4
#     Node 5, Type 0, BuildingBlock: ESEHIV_clean_sbu_0, # of connection points: 4
#     Node 6, Type 0, BuildingBlock: ESEHIV_clean_sbu_0, # of connection points: 4
#     Node 7, Type 0, BuildingBlock: ESEHIV_clean_sbu_0, # of connection points: 4
#     Edge 8, Type (0, 0), BuildingBlock: XUDNAN_clean_linker_2, # of connection points: 2
#     Edge 9, Type (0, 0), BuildingBlock: XUDNAN_clean_linker_2, # of connection points: 2
#     Edge 10, Type (0, 0), BuildingBlock: XUDNAN_clean_linker_2, # of connection points: 2
#     Edge 11, Type (0, 0), BuildingBlock: XUDNAN_clean_linker_2, # of connection points: 2
#     Edge 12, Type (0, 0), BuildingBlock: XUDNAN_clean_linker_2, # of connection points: 2
#     Edge 13, Type (0, 0), BuildingBlock: XUDNAN_clean_linker_2, # of connection points: 2
#     Edge 14, Type (0, 0), BuildingBlock: XUDNAN_clean_linker_2, # of connection points: 2
#     Edge 15, Type (0, 0), BuildingBlock: XUDNAN_clean_linker_2, # of connection points: 2
#     Edge 16, Type (0, 0), BuildingBlock: XUDNAN_clean_linker_2, # of connection points: 2
#     Edge 17, Type (0, 0), BuildingBlock: XUDNAN_clean_linker_2, # of connection points: 2
#     Edge 18, Type (0, 0), BuildingBlock: XUDNAN_clean_linker_2, # of connection points: 2
#     Edge 19, Type (0, 0), BuildingBlock: XUDNAN_clean_linker_2, # of connection points: 2
#     Edge 20, Type (0, 0), BuildingBlock: XUDNAN_clean_linker_2, # of connection points: 2
#     Edge 21, Type (0, 0), BuildingBlock: XUDNAN_clean_linker_2, # of connection points: 2
#     Edge 22, Type (0, 0), BuildingBlock: XUDNAN_clean_linker_2, # of connection points: 2
#     Edge 23, Type (0, 0), BuildingBlock: XUDNAN_clean_linker_2, # of connection points: 2
# Relax obj value: 0.063
# Max RMSD: 0.175
# Mean RMSD: 0.157
data_MOF--net-msp--node1-ESEHIV_clean_sbu_0--edge1-XUDNAN_clean_linker_2
_symmetry_space_group_name_H-M    P1
_symmetry_Int_Tables_number       1
_symmetry_cell_setting            triclinic
loop_
_symmetry_equiv_pos_as_xyz
'x, y, z'
_cell_length_a     22.838062
_cell_length_b     22.308299
_cell_length_c     50.0425
_cell_angle_alpha  90.047151
_cell_angle_beta   99.131764
_cell_angle_gamma 90.066577
loop_
_atom_site_label
_atom_site_type_symbol
_atom_site_fract_x
_atom_site_fract_y
_atom_site_fract_z
_atom_type_partial_charge
Cu0 Cu 0.06737 0.30071 0.36543 0.0
N1 N 0.0958 0.24073 0.39022 0.0
N2 N 0.14687 0.19933 0.42757 0.0
C3 C 0.13808 0.24895 0.41199 0.0
C4 C 0.10841 0.1583 0.41496 0.0
C5 C 0.07686 0.18402 0.39203 0.0
O6 O 0.07262 0.37192 0.38894 0.0
C7 C 0.13912 0.25678 0.32847 0.0
O8 O 0.12744 0.20541 0.33929 0.0
H9 H 0.16163 0.29082 0.41631 0.0
H10 H 0.04188 0.16322 0.37795 0.0
N11 N 0.98906 0.28329 0.3489 0.0
N12 N 0.9069 0.27215 0.31799 0.0
C13 C 0.96393 0.29149 0.32279 0.0
C14 C 0.94676 0.25716 0.36081 0.0
C15 C 0.89622 0.2506 0.34196 0.0
C16 C 0.03132 0.3874 0.40202 0.0
O17 O 0.97829 0.36404 0.39525 0.0
H18 H 0.987 0.31131 0.30768 0.0
H19 H 0.95249 0.24339 0.38178 0.0
O20 O 0.11807 0.30488 0.33708 0.0
H21 H 0.10215 0.11336 0.42213 0.0
H22 H 0.85518 0.23012 0.34553 0.0
Cu23 Cu 0.48992 0.33534 0.66151 0.0
N24 N 0.44802 0.27533 0.6399 0.0
N25 N 0.39726 0.2248 0.60497 0.0
C26 C 0.42804 0.27518 0.61299 0.0
C27 C 0.39882 0.19155 0.62758 0.0
C28 C 0.43009 0.22274 0.64901 0.0
O29 O 0.50487 0.40402 0.63876 0.0
C30 C 0.39534 0.34128 0.69423 0.0
O31 O 0.35973 0.32179 0.67277 0.0
H32 H 0.43634 0.31067 0.5994 0.0
H33 H 0.43831 0.20864 0.66994 0.0
N34 N 0.56374 0.30412 0.67739 0.0
N35 N 0.64967 0.29305 0.70572 0.0
C36 C 0.60305 0.32951 0.69718 0.0
C37 C 0.58628 0.24981 0.67323 0.0
C38 C 0.63913 0.24283 0.69065 0.0
C39 C 0.46642 0.42731 0.62041 0.0
O40 O 0.41079 0.41022 0.61806 0.0
H41 H 0.5966 0.37319 0.70567 0.0
H42 H 0.56529 0.21711 0.65883 0.0
O43 O 0.44907 0.35411 0.69231 0.0
H44 H 0.37746 0.14849 0.62871 0.0
H45 H 0.66767 0.2039 0.69198 0.0
Cu46 Cu 0.97129 0.67453 0.63066 0.0
N47 N 0.91607 0.65891 0.654 0.0
N48 N 0.86364 0.67216 0.68793 0.0
C49 C 0.90972 0.69134 0.67615 0.0
C50 C 0.84024 0.62561 0.67251 0.0
C51 C 0.87267 0.61751 0.65167 0.0
O52 O 0.03948 0.71347 0.65318 0.0
C53 C 0.87941 0.73744 0.59538 0.0
O54 O 0.85065 0.73797 0.61611 0.0
H55 H 0.93741 0.72951 0.68295 0.0
H56 H 0.86455 0.58448 0.63566 0.0
N57 N 0.99805 0.60395 0.61605 0.0
N58 N 0.02831 0.5441 0.58487 0.0
C59 C 0.99522 0.59216 0.58937 0.0
C60 C 0.03378 0.56153 0.62888 0.0
C61 C 0.05259 0.52465 0.60972 0.0
C62 C 0.09208 0.71359 0.64763 0.0
O63 O 0.10109 0.6931 0.624 0.0
H64 H 0.97276 0.62074 0.57352 0.0
H65 H 0.04794 0.55972 0.65054 0.0
O66 O 0.93291 0.71887 0.59869 0.0
H67 H 0.80251 0.59908 0.67603 0.0
H68 H 0.08334 0.48765 0.61374 0.0
Cu69 Cu 0.56759 0.73533 0.39313 0.0
N70 N 0.6306 0.73012 0.3728 0.0
N71 N 0.68535 0.74543 0.33973 0.0
C72 C 0.63621 0.76112 0.35014 0.0
C73 C 0.7118 0.70294 0.3567 0.0
C74 C 0.67797 0.69348 0.37691 0.0
O75 O 0.49247 0.72991 0.36756 0.0
C76 C 0.59353 0.83688 0.43319 0.0
O77 O 0.57823 0.89186 0.43849 0.0
H78 H 0.60478 0.79457 0.34142 0.0
H79 H 0.68692 0.66156 0.3933 0.0
N80 N 0.56847 0.67183 0.41813 0.0
N81 N 0.55703 0.61764 0.45475 0.0
C82 C 0.5616 0.67332 0.44451 0.0
C83 C 0.5681 0.61322 0.41166 0.0
C84 C 0.56096 0.5798 0.43411 0.0
C85 C 0.47289 0.77279 0.35172 0.0
O86 O 0.50318 0.82304 0.35276 0.0
H87 H 0.55717 0.71414 0.45567 0.0
H88 H 0.57106 0.59607 0.39169 0.0
O89 O 0.56849 0.81325 0.411 0.0
H90 H 0.75184 0.67901 0.35431 0.0
H91 H 0.55852 0.5314 0.43517 0.0
Cu92 Cu 0.55284 0.79135 0.8604 0.0
N93 N 0.58049 0.73247 0.88593 0.0
N94 N 0.63306 0.69168 0.92317 0.0
C95 C 0.62118 0.74194 0.90822 0.0
C96 C 0.59803 0.64899 0.90962 0.0
C97 C 0.56573 0.67426 0.88672 0.0
O98 O 0.55769 0.8644 0.88258 0.0
C99 C 0.66075 0.80021 0.83811 0.0
O100 O 0.68434 0.81551 0.86285 0.0
H101 H 0.64229 0.78487 0.91307 0.0
H102 H 0.53374 0.65185 0.87175 0.0
N103 N 0.47504 0.77455 0.84261 0.0
N104 N 0.39661 0.76377 0.80938 0.0
C105 C 0.45283 0.78481 0.8163 0.0
C106 C 0.43153 0.74574 0.85265 0.0
C107 C 0.3833 0.73932 0.83238 0.0
C108 C 0.51958 0.87433 0.8982 0.0
O109 O 0.47099 0.84191 0.89531 0.0
H110 H 0.47789 0.80675 0.80249 0.0
H111 H 0.43513 0.72923 0.87316 0.0
O112 O 0.60508 0.79093 0.83284 0.0
H113 H 0.59525 0.6028 0.91586 0.0
H114 H 0.3424 0.71641 0.83431 0.0
Cu115 Cu 0.97695 0.83175 0.15574 0.0
N116 N 0.94445 0.7683 0.13323 0.0
N117 N 0.89615 0.71704 0.09782 0.0
C118 C 0.92449 0.76853 0.10628 0.0
C119 C 0.89949 0.68265 0.12019 0.0
C120 C 0.92902 0.71436 0.14191 0.0
O121 O 0.98291 0.90332 0.13318 0.0
C122 C 0.87256 0.83987 0.18034 0.0
O123 O 0.84557 0.83775 0.15514 0.0
H124 H 0.93001 0.80562 0.09305 0.0
H125 H 0.93654 0.70013 0.16283 0.0
N126 N 0.05533 0.81328 0.17165 0.0
N127 N 0.138 0.79786 0.20173 0.0
C128 C 0.07786 0.79993 0.19766 0.0
C129 C 0.10277 0.81929 0.159 0.0
C130 C 0.15356 0.80996 0.1774 0.0
C131 C 0.9438 0.92252 0.11402 0.0
O132 O 0.89025 0.89935 0.1105 0.0
H133 H 0.05101 0.79448 0.21348 0.0
H134 H 0.10055 0.83163 0.13796 0.0
O135 O 0.9291 0.84101 0.18495 0.0
H136 H 0.87954 0.6388 0.12105 0.0
H137 H 0.19861 0.81245 0.17326 0.0
Cu138 Cu 0.48539 0.17304 0.12928 0.0
N139 N 0.43381 0.15224 0.15389 0.0
N140 N 0.37232 0.16044 0.18469 0.0
C141 C 0.39965 0.18936 0.16626 0.0
C142 C 0.38923 0.10259 0.18331 0.0
C143 C 0.42695 0.09777 0.16444 0.0
O144 O 0.5586 0.21 0.14926 0.0
C145 C 0.38824 0.21239 0.09169 0.0
O146 O 0.35977 0.17438 0.10499 0.0
H147 H 0.39744 0.23717 0.16266 0.0
H148 H 0.44897 0.05753 0.15922 0.0
N149 N 0.50991 0.1047 0.11205 0.0
N150 N 0.536 0.04702 0.07914 0.0
C151 C 0.503 0.09403 0.0851 0.0
C152 C 0.54823 0.06276 0.12342 0.0
C153 C 0.56445 0.02726 0.10321 0.0
C154 C 0.56431 0.22617 0.17408 0.0
O155 O 0.51786 0.22453 0.18644 0.0
H156 H 0.47764 0.12262 0.07006 0.0
H157 H 0.56572 0.06035 0.14478 0.0
O158 O 0.44337 0.22181 0.09972 0.0
H159 H 0.37599 0.06607 0.19525 0.0
H160 H 0.59635 0.99104 0.10593 0.0
Cu161 Cu 0.07093 0.24163 0.89365 0.0
N162 N 0.14233 0.23293 0.87969 0.0
N163 N 0.21447 0.24576 0.85456 0.0
C164 C 0.15838 0.25992 0.85772 0.0
C165 C 0.23418 0.2082 0.87514 0.0
C166 C 0.18953 0.19993 0.8904 0.0
O167 O 1.00561 0.24845 0.86305 0.0
C168 C 0.09738 0.33709 0.93679 0.0
O169 O 0.08014 0.38939 0.94475 0.0
H170 H 0.13028 0.29069 0.84481 0.0
H171 H 0.19179 0.17297 0.90849 0.0
N172 N 0.05581 0.17552 0.91506 0.0
N173 N 0.03481 0.11942 0.94963 0.0
C174 C 0.05159 0.17407 0.94171 0.0
C175 C 0.04118 0.11989 0.9059 0.0
C176 C 0.02822 0.0853 0.92708 0.0
C177 C 0.99536 0.29905 0.85139 0.0
O178 O 0.02998 0.34452 0.85992 0.0
H179 H 0.05872 0.21273 0.95485 0.0
H180 H 0.0391 0.10577 0.88508 0.0
O181 O 0.07062 0.31596 0.91441 0.0
H182 H 0.27794 0.18835 0.87897 0.0
H183 H 1.01533 0.03855 0.92598 0.0
H184 H 0.95416 0.44674 0.42975 0.0
H185 H 0.13959 0.39891 0.43441 0.0
H186 H 0.15957 0.43677 0.48139 0.0
H187 H 0.98092 0.58559 0.47112 0.0
H188 H 0.91581 0.57408 0.48667 0.0
H189 H 0.91728 0.54751 0.45276 0.0
H190 H 0.89112 0.44068 0.46733 0.0
H191 H 0.89029 0.46668 0.50132 0.0
H192 H 0.93761 0.40513 0.49533 0.0
H193 H 0.15663 0.46839 0.52981 0.0
H194 H 0.13384 0.50359 0.57391 0.0
H195 H 0.95174 0.53649 0.53735 0.0
C196 C 0.99926 0.44553 0.44043 0.0
C197 C 0.04537 0.42006 0.42824 0.0
C198 C 0.10365 0.41885 0.44307 0.0
C199 C 0.11535 0.43989 0.4699 0.0
C200 C 0.06856 0.46309 0.48155 0.0
C201 C 1.0119 0.46732 0.46708 0.0
C202 C 0.96928 0.49332 0.48447 0.0
C203 C 0.94436 0.55371 0.47308 0.0
C204 C 0.91913 0.44878 0.48727 0.0
C205 C 1.01041 0.5016 0.51118 0.0
C206 C 0.06743 0.48356 0.5091 0.0
C207 C 0.11237 0.48357 0.53151 0.0
C208 C 0.09891 0.50316 0.55654 0.0
C209 C 0.04112 0.52305 0.55907 0.0
C210 C 0.99649 0.52238 0.53595 0.0
H211 H 0.48069 0.53436 0.46888 0.0
H212 H 0.61488 0.66322 0.50171 0.0
H213 H 0.60567 0.63019 0.54832 0.0
H214 H 0.38769 0.55445 0.52137 0.0
H215 H 0.36677 0.4765 0.52131 0.0
H216 H 0.3842 0.51053 0.4909 0.0
H217 H 0.46326 0.42878 0.48802 0.0
H218 H 0.44644 0.39475 0.51852 0.0
H219 H 0.52141 0.41715 0.5164 0.0
H220 H 0.58717 0.57603 0.59125 0.0
H221 H 0.5534 0.51355 0.62692 0.0
H222 H 0.42447 0.42716 0.5661 0.0
C223 C 0.50782 0.55575 0.48595 0.0
C224 C 0.5487 0.60124 0.48182 0.0
C225 C 0.58311 0.62868 0.50457 0.0
C226 C 0.57829 0.60998 0.53102 0.0
C227 C 0.53785 0.56465 0.53442 0.0
C228 C 0.50243 0.53866 0.51247 0.0
C229 C 0.46162 0.4917 0.52157 0.0
C230 C 0.3962 0.50938 0.5133 0.0
C231 C 0.47395 0.42942 0.51047 0.0
C232 C 0.48011 0.49465 0.55204 0.0
C233 C 0.52468 0.53642 0.55908 0.0
C234 C 0.55153 0.54407 0.58596 0.0
C235 C 0.5322 0.50837 0.60609 0.0
C236 C 0.48556 0.46649 0.59937 0.0
C237 C 0.45916 0.45997 0.57195 0.0
H238 H 0.45254 0.02934 0.03453 0.0
H239 H 0.64103 0.01861 0.06403 0.0
H240 H 0.65836 0.98251 0.01918 0.0
H241 H 0.44541 0.89374 0.99639 0.0
H242 H 0.39015 0.92042 0.96926 0.0
H243 H 0.39348 0.95075 1.00281 0.0
H244 H 0.40302 0.05784 0.98395 0.0
H245 H 0.40011 0.0277 0.95034 0.0
H246 H 0.46167 0.07418 0.96482 0.0
H247 H 0.65505 0.94603 0.9711 0.0
H248 H 0.6303 0.90085 0.92557 0.0
H249 H 0.44324 0.92841 0.928 0.0
C250 C 0.49743 0.02013 0.03132 0.0
C251 C 0.54556 0.02718 0.05267 0.0
C252 C 0.60361 0.0134 0.04796 0.0
C253 C 0.61388 0.9933 0.0225 0.0
C254 C 0.56553 0.98651 1.00188 0.0
C255 C 0.50832 -0.00122 1.0061 0.0
C256 C 0.46376 0.98294 0.98123 0.0
C257 C 0.42068 0.93405 0.98782 0.0
C258 C 0.43016 0.03901 0.96939 0.0
C259 C 0.50474 0.95944 0.96249 0.0
C260 C 0.56338 0.963 0.9746 0.0
C261 C 0.60927 0.94332 0.96138 0.0
C262 C 0.59482 0.91806 0.9354 0.0
C263 C 0.53488 0.91146 0.92306 0.0
C264 C 0.4895 0.9333 0.93677 0.0
H265 H 0.90074 0.92444 0.05963 0.0
H266 H 0.02905 0.01027 0.12098 0.0
H267 H 0.06296 0.0734 0.08567 0.0
H268 H 0.99765 0.91616 1.0101 0.0
H269 H 0.93942 0.928 0.98178 0.0
H270 H 0.92277 0.89364 1.01225 0.0
H271 H 0.84308 0.97514 0.01519 0.0
H272 H 0.86039 0.00994 0.98492 0.0
H273 H 0.86394 0.05316 0.01559 0.0
H274 H 0.0835 0.12636 0.04335 0.0
H275 H 0.0941 0.16031 0.99713 0.0
H276 H 0.95684 0.03566 0.96309 0.0
C277 C 0.93516 0.95741 0.0657 0.0
C278 C 0.96149 0.96336 0.09319 0.0
C279 C 1.00782 0.00549 0.10014 0.0
C280 C 0.02732 0.04152 0.0802 0.0
C281 C 1.00079 0.0342 0.05327 0.0
C282 C 0.95608 0.99274 0.04596 0.0
C283 C 0.93791 0.99064 0.01542 0.0
C284 C 0.95017 0.92842 1.00423 0.0
C285 C 0.87244 0.00829 1.00731 0.0
C286 C 0.97902 0.03776 1.00665 0.0
C287 C 1.01453 0.06271 0.02882 0.0
C288 C 0.05594 0.10722 0.02585 0.0
C289 C 0.0615 0.12646 0.9996 0.0
C290 C 0.02654 0.10085 0.97652 0.0
C291 C 0.98464 0.05589 0.98026 0.0
H292 H 0.58852 0.25379 0.22795 0.0
H293 H 0.67431 0.22923 0.15733 0.0
H294 H 0.77226 0.24466 0.186 0.0
H295 H 0.68971 0.36745 0.26168 0.0
H296 H 0.68611 0.33745 0.29481 0.0
H297 H 0.62351 0.32978 0.26816 0.0
H298 H 0.62499 0.21471 0.27522 0.0
H299 H 0.68771 0.22193 0.30176 0.0
H300 H 0.69209 0.17356 0.27328 0.0
H301 H 0.86223 0.25794 0.224 0.0
H302 H 0.93343 0.26488 0.26679 0.0
H303 H 0.78659 0.27869 0.31171 0.0
C304 C 0.62767 0.2525 0.21827 0.0
C305 C 0.6234 0.2406 0.19022 0.0
C306 C 0.67619 0.23867 0.17867 0.0
C307 C 0.73207 0.24736 0.19485 0.0
C308 C 0.73453 0.25798 0.22256 0.0
C309 C 0.68345 0.26068 0.23406 0.0
C310 C 0.69751 0.26956 0.26443 0.0
C311 C 0.67274 0.32964 0.27275 0.0
C312 C 0.6742 0.21679 0.27955 0.0
C313 C 0.76461 0.27039 0.26845 0.0
C314 C 0.7854 0.26437 0.24411 0.0
C315 C 0.84617 0.26299 0.24309 0.0
C316 C 0.88639 0.26723 0.26751 0.0
C317 C 0.86583 0.27212 0.29273 0.0
C318 C 0.80397 0.27433 0.29291 0.0
H319 H 0.71655 0.21166 0.73823 0.0
H320 H 0.69753 0.40172 0.72064 0.0
H321 H 0.78365 0.42294 0.75581 0.0
H322 H 0.75852 0.22728 0.81054 0.0
H323 H 0.811 0.16642 0.81361 0.0
H324 H 0.74805 0.16574 0.78688 0.0
H325 H 0.81829 0.15471 0.75133 0.0
H326 H 0.88147 0.15537 0.77795 0.0
H327 H 0.87683 0.20871 0.75066 0.0
H328 H 0.87263 0.42382 0.79205 0.0
H329 H 0.95658 0.40534 0.82836 0.0
H330 H 0.91867 0.21442 0.82382 0.0
C331 C 0.73071 0.25771 0.74165 0.0
C332 C 0.7 0.30509 0.72655 0.0
C333 C 0.71966 0.36476 0.73203 0.0
C334 C 0.76883 0.37722 0.7519 0.0
C335 C 0.79798 0.32959 0.76633 0.0
C336 C 0.77958 0.27102 0.76161 0.0
C337 C 0.81843 0.22831 0.78037 0.0
C338 C 0.7818 0.19498 0.79895 0.0
C339 C 0.85067 0.18417 0.7641 0.0
C340 C 0.86166 0.27207 0.79631 0.0
C341 C 0.84903 0.33018 0.78771 0.0
C342 C 0.88281 0.37853 0.799 0.0
C343 C 0.93063 0.36743 0.81966 0.0
C344 C 0.94449 0.3084 0.82913 0.0
C345 C 0.90927 0.26008 0.81718 0.0
H346 H 0.09707 0.72462 0.70315 0.0
H347 H 0.20516 0.73868 0.6395 0.0
H348 H 0.29349 0.75772 0.67378 0.0
H349 H 0.17563 0.83919 0.74832 0.0
H350 H 0.16905 0.79764 0.77858 0.0
H351 H 0.11334 0.78978 0.74895 0.0
H352 H 0.12971 0.67495 0.74981 0.0
H353 H 0.18566 0.68245 0.77932 0.0
H354 H 0.20316 0.64571 0.74948 0.0
H355 H 0.37165 0.77032 0.71519 0.0
H356 H 0.43329 0.77442 0.76026 0.0
H357 H 0.27552 0.75166 0.79757 0.0
C358 C 0.1391 0.73284 0.69638 0.0
C359 C 0.14382 0.73062 0.66846 0.0
C360 C 0.20009 0.74036 0.66064 0.0
C361 C 0.25067 0.75126 0.68002 0.0
C362 C 0.24472 0.75215 0.70732 0.0
C363 C 0.19036 0.7433 0.71554 0.0
C364 C 0.1968 0.74361 0.74626 0.0
C365 C 0.16162 0.79566 0.7561 0.0
C366 C 0.1777 0.68308 0.75683 0.0
C367 C 0.26326 0.75338 0.754 0.0
C368 C 0.28996 0.75863 0.73121 0.0
C369 C 0.35107 0.76674 0.73316 0.0
C370 C 0.38584 0.76933 0.759 0.0
C371 C 0.35983 0.76358 0.78281 0.0
C372 C 0.29737 0.75581 0.78 0.0
H373 H 0.43788 0.83889 0.30577 0.0
H374 H 0.38103 0.69302 0.35287 0.0
H375 H 0.28698 0.68574 0.32057 0.0
H376 H 0.29543 0.90894 0.28639 0.0
H377 H 0.30848 0.92705 0.25274 0.0
H378 H 0.36994 0.92188 0.28006 0.0
H379 H 0.42008 0.84321 0.25302 0.0
H380 H 0.3589 0.84833 0.22558 0.0
H381 H 0.37972 0.77662 0.24073 0.0
H382 H 0.19655 0.69727 0.28305 0.0
H383 H 0.12404 0.71937 0.24177 0.0
H384 H 0.24358 0.85323 0.21829 0.0
C385 C 0.40558 0.80553 0.30941 0.0
C386 C 0.41676 0.76682 0.33206 0.0
C387 C 0.37357 0.72321 0.33573 0.0
C388 C 0.31987 0.71894 0.31752 0.0
C389 C 0.31017 0.75808 0.29548 0.0
C390 C 0.35231 0.80005 0.29122 0.0
C391 C 0.33256 0.83515 0.2654 0.0
C392 C 0.32622 0.90222 0.27153 0.0
C393 C 0.37535 0.8252 0.24498 0.0
C394 C 0.27264 0.80656 0.25575 0.0
C395 C 0.25998 0.76275 0.2735 0.0
C396 C 0.20636 0.73125 0.26898 0.0
C397 C 0.16525 0.74424 0.24558 0.0
C398 C 0.17827 0.78762 0.22671 0.0
C399 C 0.23265 0.81926 0.23213 0.0
H400 H 0.34583 0.11095 0.23148 0.0
H401 H 0.31627 0.26921 0.18066 0.0
H402 H 0.25704 0.31363 0.21278 0.0
H403 H 0.20042 0.10394 0.2491 0.0
H404 H 0.22597 0.07904 0.28322 0.0
H405 H 0.26791 0.06109 0.25672 0.0
H406 H 0.36112 0.11021 0.28435 0.0
H407 H 0.31946 0.12863 0.31093 0.0
H408 H 0.35765 0.18677 0.29554 0.0
H409 H 0.19994 0.34106 0.2513 0.0
H410 H 0.1466 0.34556 0.29075 0.0
H411 H 0.21097 0.16764 0.31472 0.0
C412 C 0.32673 0.15472 0.22678 0.0
C413 C 0.33637 0.18631 0.20328 0.0
C414 C 0.31064 0.24403 0.19853 0.0
C415 C 0.27659 0.26971 0.21669 0.0
C416 C 0.26828 0.23728 0.23962 0.0
C417 C 0.29246 0.18086 0.24459 0.0
C418 C 0.27621 0.15458 0.27037 0.0
C419 C 0.24049 0.09623 0.26448 0.0
C420 C 0.33193 0.14447 0.29154 0.0
C421 C 0.23827 0.20458 0.27895 0.0
C422 C 0.23474 0.25232 0.26121 0.0
C423 C 0.20242 0.3038 0.26526 0.0
C424 C 0.17242 0.30611 0.28779 0.0
C425 C 0.17433 0.25697 0.30583 0.0
C426 C 0.20822 0.20591 0.30128 0.0
H427 H 0.2837 0.316 0.70619 0.0
H428 H 0.46305 0.36035 0.74391 0.0
H429 H 0.43439 0.34549 0.78893 0.0
H430 H 0.20837 0.3878 0.75811 0.0
H431 H 0.15227 0.33033 0.75598 0.0
H432 H 0.18564 0.34848 0.72668 0.0
H433 H 0.21532 0.23729 0.72254 0.0
H434 H 0.18243 0.21885 0.75188 0.0
H435 H 0.259 0.20069 0.75106 0.0
H436 H 0.3894 0.3158 0.82972 0.0
H437 H 0.32894 0.28105 0.86356 0.0
H438 H 0.17709 0.26026 0.80034 0.0
C439 C 0.31674 0.32368 0.72391 0.0
C440 C 0.37578 0.33958 0.72133 0.0
C441 C 0.41755 0.34859 0.74517 0.0
C442 C 0.40169 0.34007 0.77091 0.0
C443 C 0.34362 0.32317 0.77269 0.0
C444 C 0.30149 0.31589 0.74985 0.0
C445 C 0.24251 0.29607 0.75745 0.0
C446 C 0.19435 0.34351 0.74905 0.0
C447 C 0.22374 0.23458 0.74499 0.0
C448 C 0.2584 0.29217 0.78806 0.0
C449 C 0.31707 0.30785 0.79637 0.0
C450 C 0.34321 0.3043 0.82347 0.0
C451 C 0.30866 0.28423 0.84253 0.0
C452 C 0.2483 0.26844 0.83463 0.0
C453 C 0.2228 0.2731 0.80701 0.0
H454 H 0.63233 0.74469 0.78822 0.0
H455 H 0.77756 0.83088 0.84088 0.0
H456 H 0.84421 0.80906 0.80784 0.0
H457 H 0.7182 0.62531 0.76671 0.0
H458 H 0.67929 0.62369 0.73243 0.0
H459 H 0.64178 0.64868 0.75948 0.0
H460 H 0.61543 0.7489 0.73437 0.0
H461 H 0.6526 0.72409 0.70717 0.0
H462 H 0.67374 0.79387 0.72422 0.0
H463 H 0.8962 0.77578 0.76963 0.0
H464 H 0.92974 0.73311 0.72919 0.0
H465 H 0.75167 0.66726 0.7011 0.0
C466 C 0.67797 0.75961 0.79267 0.0
C467 C 0.6995 0.78988 0.8172 0.0
C468 C 0.75982 0.8078 0.8223 0.0
C469 C 0.79813 0.79559 0.80362 0.0
C470 C 0.77574 0.76513 0.77984 0.0
C471 C 0.71708 0.74735 0.77428 0.0
C472 C 0.70486 0.71369 0.74754 0.0
C473 C 0.68486 0.64901 0.75181 0.0
C474 C 0.65894 0.74714 0.72712 0.0
C475 C 0.76584 0.71509 0.73905 0.0
C476 C 0.80596 0.74526 0.75793 0.0
C477 C 0.86505 0.75232 0.75464 0.0
C478 C 0.88367 0.72811 0.73147 0.0
C479 C 0.84355 0.69683 0.71173 0.0
C480 C 0.78377 0.69034 0.71579 0.0
H481 H 0.90801 0.80296 0.23341 0.0
H482 H 0.7554 0.86644 0.17782 0.0
H483 H 0.69252 0.85303 0.21313 0.0
H484 H 0.83116 0.68831 0.26311 0.0
H485 H 0.87135 0.69767 0.29688 0.0
H486 H 0.90604 0.71673 0.26812 0.0
H487 H 0.92705 0.82397 0.28707 0.0
H488 H 0.8927 0.80514 0.316 0.0
H489 H 0.86668 0.86875 0.29529 0.0
H490 H 0.6447 0.8288 0.25361 0.0
H491 H 0.61499 0.79434 0.29621 0.0
H492 H 0.79735 0.74465 0.32621 0.0
C493 C 0.86159 0.81507 0.22885 0.0
C494 C 0.83683 0.83632 0.2028 0.0
C495 C 0.77556 0.85033 0.19755 0.0
C496 C 0.73939 0.84289 0.21753 0.0
C497 C 0.76481 0.82099 0.24279 0.0
C498 C 0.82449 0.80725 0.24858 0.0
C499 C 0.83974 0.78164 0.277 0.0
C500 C 0.86347 0.71727 0.27622 0.0
C501 C 0.88418 0.82231 0.2949 0.0
C502 C 0.77928 0.78269 0.28612 0.0
C503 C 0.73687 0.80603 0.2661 0.0
C504 C 0.67766 0.81089 0.26952 0.0
C505 C 0.66122 0.7914 0.29397 0.0
C506 C 0.7036 0.76689 0.3149 0.0
C507 C 0.76357 0.76274 0.31073 0.0
H508 H 0.34305 0.3025 0.56676 0.0
H509 H 0.38053 0.11424 0.5828 0.0
H510 H 0.32302 0.08799 0.53831 0.0
H511 H 0.19383 0.28201 0.53438 0.0
H512 H 0.19578 0.34023 0.5096 0.0
H513 H 0.24289 0.34527 0.54197 0.0
H514 H 0.3352 0.3549 0.51832 0.0
H515 H 0.28852 0.35037 0.48579 0.0
H516 H 0.34927 0.2987 0.49423 0.0
H517 H 0.25929 0.08151 0.49294 0.0
H518 H 0.19265 0.09488 0.4496 0.0
H519 H 0.19356 0.28731 0.46298 0.0
C520 C 0.33993 0.25588 0.56069 0.0
C521 C 0.36648 0.21033 0.57826 0.0
C522 C 0.36029 0.14974 0.56979 0.0
C523 C 0.32793 0.13445 0.5445 0.0
C524 C 0.30169 0.18023 0.52784 0.0
C525 C 0.30721 0.23975 0.53553 0.0
C526 C 0.27237 0.27989 0.51419 0.0
C527 C 0.22332 0.31383 0.52573 0.0
C528 C 0.31383 0.32352 0.50243 0.0
C529 C 0.24637 0.2335 0.49339 0.0
C530 C 0.2641 0.17639 0.50167 0.0
C531 C 0.2451 0.12602 0.48621 0.0
C532 C 0.20681 0.13408 0.46166 0.0
C533 C 0.18744 0.19207 0.45269 0.0
C534 C 0.20795 0.24239 0.46889 0.0
H535 H 0.77353 0.7962 0.58159 0.0
H536 H 0.90921 0.70224 0.5465 0.0
H537 H 0.84781 0.71011 0.5012 0.0
H538 H 0.64856 0.73208 0.54081 0.0
H539 H 0.60505 0.79975 0.53692 0.0
H540 H 0.65928 0.78861 0.56681 0.0
H541 H 0.7129 0.88715 0.55863 0.0
H542 H 0.65766 0.90105 0.52944 0.0
H543 H 0.73513 0.90051 0.52616 0.0
H544 H 0.76814 0.72673 0.45916 0.0
H545 H 0.68518 0.76221 0.42461 0.0
H546 H 0.60442 0.8463 0.48768 0.0
C547 C 0.79066 0.77768 0.56437 0.0
C548 C 0.8463 0.74857 0.5677 0.0
C549 C 0.86697 0.72514 0.54453 0.0
C550 C 0.83211 0.72895 0.5187 0.0
C551 C 0.77684 0.75687 0.51625 0.0
C552 C 0.75688 0.78178 0.53847 0.0
C553 C 0.69704 0.81136 0.53049 0.0
C554 C 0.64966 0.78115 0.54459 0.0
C555 C 0.70094 0.87902 0.53653 0.0
C556 C 0.6862 0.79922 0.50031 0.0
C557 C 0.73222 0.76712 0.49239 0.0
C558 C 0.73188 0.75174 0.46525 0.0
C559 C 0.68429 0.77137 0.44573 0.0
C560 C 0.63808 0.80626 0.45345 0.0
C561 C 0.63897 0.81931 0.48116 0.0
H562 H 0.83541 0.79486 0.06129 0.0
H563 H 0.8826 0.60772 0.0743 0.0
H564 H 0.82232 0.58181 0.03037 0.0
H565 H 0.68479 0.76889 0.03119 0.0
H566 H 0.68204 0.82921 1.00707 0.0
H567 H 0.73148 0.83387 0.03884 0.0
H568 H 0.81979 0.85055 0.01329 0.0
H569 H 0.77097 0.84553 0.98135 0.0
H570 H 0.83452 0.79684 0.98825 0.0
H571 H 0.75491 0.57528 0.98593 0.0
H572 H 0.68469 0.58815 0.94369 0.0
H573 H 0.67784 0.7794 0.95935 0.0
C574 C 0.83382 0.74862 0.05465 0.0
C575 C 0.86402 0.70322 0.07124 0.0
C576 C 0.8597 0.64307 0.06205 0.0
C577 C 0.82571 0.628 0.03707 0.0
C578 C 0.79586 0.67351 0.02142 0.0
C579 C 0.79945 0.73265 0.02979 0.0
C580 C 0.76093 0.77241 1.00946 0.0
C581 C 0.7119 0.80287 0.02242 0.0
C582 C 0.79884 0.81907 0.99736 0.0
C583 C 0.73518 0.72625 0.98844 0.0
C584 C 0.75612 0.66959 0.99578 0.0
C585 C 0.73818 0.61945 0.97996 0.0
C586 C 0.69774 0.62721 0.95601 0.0
C587 C 0.6751 0.68472 0.94794 0.0
C588 C 0.69451 0.73486 0.96455 0.0
H589 H 0.27498 0.25307 0.08123 0.0
H590 H 0.43045 0.22279 0.04351 0.0
H591 H 0.37144 0.24524 0.99855 0.0
H592 H 0.17168 0.18887 0.0331 0.0
H593 H 0.11287 0.24302 0.03329 0.0
H594 H 0.16677 0.23144 0.0632 0.0
H595 H 0.19792 0.34207 0.06587 0.0
H596 H 0.14118 0.35699 0.03734 0.0
H597 H 0.21681 0.37883 0.03631 0.0
H598 H 0.29181 0.26691 0.95708 0.0
H599 H 0.20383 0.29873 0.92449 0.0
H600 H 0.10215 0.31389 0.99007 0.0
C601 C 0.29687 0.25244 0.06354 0.0
C602 C 0.3572 0.23655 0.06575 0.0
C603 C 0.3844 0.23579 0.04222 0.0
C604 C 0.35106 0.2479 0.01661 0.0
C605 C 0.29094 0.26174 0.01503 0.0
C606 C 0.26472 0.26573 0.03805 0.0
C607 C 0.19988 0.2823 0.03123 0.0
C608 C 0.16041 0.2335 0.04074 0.0
C609 C 0.18829 0.3437 0.0434 0.0
C610 C 0.19285 0.28519 1.00066 0.0
C611 C 0.24576 0.27329 0.99157 0.0
C612 C 0.2501 0.27559 0.96403 0.0
C613 C 0.19966 0.29237 0.94552 0.0
C614 C 0.14569 0.30599 0.95462 0.0
C615 C 0.14246 0.30186 0.9825 0.0
loop_
_geom_bond_atom_site_label_1
_geom_bond_atom_site_label_2
_geom_bond_distance
_geom_bond_site_symmetry_2
_ccdc_geom_bond_type
Cu0 N1 1.999 . S
Cu0 O6 1.974 1_455 S
Cu0 N11 1.985 1_455 S
Cu0 O20 1.959 . S
N1 Cu0 1.999 . S
N1 C3 1.263 . S
N1 C5 1.389 . S
N2 C3 1.358 . S
N2 C4 1.400 . S
C3 N1 1.263 . S
C3 N2 1.358 . S
C3 H9 0.930 . S
C4 N2 1.400 . S
C4 C5 1.351 . S
C4 H21 0.930 . S
C5 N1 1.389 . S
C5 C4 1.351 . S
C5 H10 0.930 . S
O6 Cu0 1.974 1_655 S
O6 C16 1.282 . S
C7 O8 1.261 . S
C7 O20 1.251 . S
O8 C7 1.261 . S
H9 C3 0.930 . S
H10 C5 0.930 . S
N11 Cu0 1.985 1_655 S
N11 C13 1.335 . S
N11 C14 1.390 . S
N12 C13 1.345 . S
N12 C15 1.336 . S
C13 N11 1.335 . S
C13 N12 1.345 . S
C13 H18 0.930 . S
C14 N11 1.390 . S
C14 C15 1.346 . S
C14 H19 0.930 . S
C15 N12 1.336 . S
C15 C14 1.346 . S
C15 H22 0.929 . S
C16 O6 1.282 . S
C16 O17 1.216 . S
O17 C16 1.216 . S
H18 C13 0.930 . S
H19 C14 0.930 . S
O20 Cu0 1.959 . S
O20 C7 1.251 . S
H21 C4 0.930 . S
H22 C15 0.929 . S
Cu23 N24 1.999 . S
Cu23 O29 1.974 . S
Cu23 N34 1.985 . S
Cu23 O43 1.959 . S
N24 Cu23 1.999 . S
N24 C26 1.263 . S
N24 C28 1.389 . S
N25 C26 1.358 . S
N25 C27 1.400 . S
C26 N24 1.263 . S
C26 N25 1.358 . S
C26 H32 0.930 . S
C27 N25 1.400 . S
C27 C28 1.351 . S
C27 H44 0.930 . S
C28 N24 1.389 . S
C28 C27 1.351 . S
C28 H33 0.930 . S
O29 Cu23 1.974 . S
O29 C39 1.282 . S
C30 O31 1.261 . S
C30 O43 1.251 . S
O31 C30 1.261 . S
H32 C26 0.930 . S
H33 C28 0.930 . S
N34 Cu23 1.985 . S
N34 C36 1.335 . S
N34 C37 1.390 . S
N35 C36 1.345 . S
N35 C38 1.336 . S
C36 N34 1.335 . S
C36 N35 1.345 . S
C36 H41 0.930 . S
C37 N34 1.390 . S
C37 C38 1.346 . S
C37 H42 0.930 . S
C38 N35 1.336 . S
C38 C37 1.346 . S
C38 H45 0.929 . S
C39 O29 1.282 . S
C39 O40 1.216 . S
O40 C39 1.216 . S
H41 C36 0.930 . S
H42 C37 0.930 . S
O43 Cu23 1.959 . S
O43 C30 1.251 . S
H44 C27 0.930 . S
H45 C38 0.929 . S
Cu46 N47 1.999 . S
Cu46 O52 1.974 . S
Cu46 N57 1.985 . S
Cu46 O66 1.959 . S
N47 Cu46 1.999 . S
N47 C49 1.263 . S
N47 C51 1.389 . S
N48 C49 1.358 . S
N48 C50 1.400 . S
C49 N47 1.263 . S
C49 N48 1.358 . S
C49 H55 0.930 . S
C50 N48 1.400 . S
C50 C51 1.351 . S
C50 H67 0.930 . S
C51 N47 1.389 . S
C51 C50 1.351 . S
C51 H56 0.930 . S
O52 Cu46 1.974 . S
O52 C62 1.282 1_655 S
C53 O54 1.261 . S
C53 O66 1.251 . S
O54 C53 1.261 . S
H55 C49 0.930 . S
H56 C51 0.930 . S
N57 Cu46 1.985 . S
N57 C59 1.335 . S
N57 C60 1.390 1_655 S
N58 C59 1.345 . S
N58 C61 1.336 1_655 S
C59 N57 1.335 . S
C59 N58 1.345 . S
C59 H64 0.930 . S
C60 N57 1.390 1_455 S
C60 C61 1.346 . S
C60 H65 0.930 . S
C61 N58 1.336 1_455 S
C61 C60 1.346 . S
C61 H68 0.929 . S
C62 O52 1.282 1_455 S
C62 O63 1.216 . S
O63 C62 1.216 . S
H64 C59 0.930 . S
H65 C60 0.930 . S
O66 Cu46 1.959 . S
O66 C53 1.251 . S
H67 C50 0.930 . S
H68 C61 0.929 . S
Cu69 N70 1.999 . S
Cu69 O75 1.974 . S
Cu69 N80 1.985 . S
Cu69 O89 1.959 . S
N70 Cu69 1.999 . S
N70 C72 1.263 . S
N70 C74 1.389 . S
N71 C72 1.358 . S
N71 C73 1.400 . S
C72 N70 1.263 . S
C72 N71 1.358 . S
C72 H78 0.930 . S
C73 N71 1.400 . S
C73 C74 1.351 . S
C73 H90 0.930 . S
C74 N70 1.389 . S
C74 C73 1.351 . S
C74 H79 0.930 . S
O75 Cu69 1.974 . S
O75 C85 1.282 . S
C76 O77 1.261 . S
C76 O89 1.251 . S
O77 C76 1.261 . S
H78 C72 0.930 . S
H79 C74 0.930 . S
N80 Cu69 1.985 . S
N80 C82 1.335 . S
N80 C83 1.390 . S
N81 C82 1.345 . S
N81 C84 1.336 . S
C82 N80 1.335 . S
C82 N81 1.345 . S
C82 H87 0.930 . S
C83 N80 1.390 . S
C83 C84 1.346 . S
C83 H88 0.930 . S
C84 N81 1.336 . S
C84 C83 1.346 . S
C84 H91 0.929 . S
C85 O75 1.282 . S
C85 O86 1.216 . S
O86 C85 1.216 . S
H87 C82 0.930 . S
H88 C83 0.930 . S
O89 Cu69 1.959 . S
O89 C76 1.251 . S
H90 C73 0.930 . S
H91 C84 0.929 . S
Cu92 N93 1.999 . S
Cu92 O98 1.974 . S
Cu92 N103 1.985 . S
Cu92 O112 1.959 . S
N93 Cu92 1.999 . S
N93 C95 1.263 . S
N93 C97 1.389 . S
N94 C95 1.358 . S
N94 C96 1.400 . S
C95 N93 1.263 . S
C95 N94 1.358 . S
C95 H101 0.930 . S
C96 N94 1.400 . S
C96 C97 1.351 . S
C96 H113 0.930 . S
C97 N93 1.389 . S
C97 C96 1.351 . S
C97 H102 0.930 . S
O98 Cu92 1.974 . S
O98 C108 1.282 . S
C99 O100 1.261 . S
C99 O112 1.251 . S
O100 C99 1.261 . S
H101 C95 0.930 . S
H102 C97 0.930 . S
N103 Cu92 1.985 . S
N103 C105 1.335 . S
N103 C106 1.390 . S
N104 C105 1.345 . S
N104 C107 1.336 . S
C105 N103 1.335 . S
C105 N104 1.345 . S
C105 H110 0.930 . S
C106 N103 1.390 . S
C106 C107 1.346 . S
C106 H111 0.930 . S
C107 N104 1.336 . S
C107 C106 1.346 . S
C107 H114 0.929 . S
C108 O98 1.282 . S
C108 O109 1.216 . S
O109 C108 1.216 . S
H110 C105 0.930 . S
H111 C106 0.930 . S
O112 Cu92 1.959 . S
O112 C99 1.251 . S
H113 C96 0.930 . S
H114 C107 0.929 . S
Cu115 N116 1.999 . S
Cu115 O121 1.974 1_655 S
Cu115 N126 1.985 1_655 S
Cu115 O135 1.959 . S
N116 Cu115 1.999 . S
N116 C118 1.263 . S
N116 C120 1.389 . S
N117 C118 1.358 . S
N117 C119 1.400 . S
C118 N116 1.263 . S
C118 N117 1.358 . S
C118 H124 0.930 . S
C119 N117 1.400 . S
C119 C120 1.351 . S
C119 H136 0.930 . S
C120 N116 1.389 . S
C120 C119 1.351 . S
C120 H125 0.930 . S
O121 Cu115 1.974 1_455 S
O121 C131 1.282 . S
C122 O123 1.261 . S
C122 O135 1.251 . S
O123 C122 1.261 . S
H124 C118 0.930 . S
H125 C120 0.930 . S
N126 Cu115 1.985 1_455 S
N126 C128 1.335 . S
N126 C129 1.390 . S
N127 C128 1.345 . S
N127 C130 1.336 . S
C128 N126 1.335 . S
C128 N127 1.345 . S
C128 H133 0.930 . S
C129 N126 1.390 . S
C129 C130 1.346 . S
C129 H134 0.930 . S
C130 N127 1.336 . S
C130 C129 1.346 . S
C130 H137 0.929 . S
C131 O121 1.282 . S
C131 O132 1.216 . S
O132 C131 1.216 . S
H133 C128 0.930 . S
H134 C129 0.930 . S
O135 Cu115 1.959 . S
O135 C122 1.251 . S
H136 C119 0.930 . S
H137 C130 0.929 . S
Cu138 N139 1.999 . S
Cu138 O144 1.974 . S
Cu138 N149 1.985 . S
Cu138 O158 1.959 . S
N139 Cu138 1.999 . S
N139 C141 1.263 . S
N139 C143 1.389 . S
N140 C141 1.358 . S
N140 C142 1.400 . S
C141 N139 1.263 . S
C141 N140 1.358 . S
C141 H147 0.930 . S
C142 N140 1.400 . S
C142 C143 1.351 . S
C142 H159 0.930 . S
C143 N139 1.389 . S
C143 C142 1.351 . S
C143 H148 0.930 . S
O144 Cu138 1.974 . S
O144 C154 1.282 . S
C145 O146 1.261 . S
C145 O158 1.251 . S
O146 C145 1.261 . S
H147 C141 0.930 . S
H148 C143 0.930 . S
N149 Cu138 1.985 . S
N149 C151 1.335 . S
N149 C152 1.390 . S
N150 C151 1.345 . S
N150 C153 1.336 . S
C151 N149 1.335 . S
C151 N150 1.345 . S
C151 H156 0.930 . S
C152 N149 1.390 . S
C152 C153 1.346 . S
C152 H157 0.930 . S
C153 N150 1.336 . S
C153 C152 1.346 . S
C153 H160 0.929 . S
C154 O144 1.282 . S
C154 O155 1.216 . S
O155 C154 1.216 . S
H156 C151 0.930 . S
H157 C152 0.930 . S
O158 Cu138 1.959 . S
O158 C145 1.251 . S
H159 C142 0.930 . S
H160 C153 0.929 . S
Cu161 N162 1.999 . S
Cu161 O167 1.974 . S
Cu161 N172 1.985 . S
Cu161 O181 1.959 . S
N162 Cu161 1.999 . S
N162 C164 1.263 . S
N162 C166 1.389 . S
N163 C164 1.358 . S
N163 C165 1.400 . S
C164 N162 1.263 . S
C164 N163 1.358 . S
C164 H170 0.930 . S
C165 N163 1.400 . S
C165 C166 1.351 . S
C165 H182 0.930 . S
C166 N162 1.389 . S
C166 C165 1.351 . S
C166 H171 0.930 . S
O167 Cu161 1.974 . S
O167 C177 1.282 1_455 S
C168 O169 1.261 . S
C168 O181 1.251 . S
O169 C168 1.261 . S
H170 C164 0.930 . S
H171 C166 0.930 . S
N172 Cu161 1.985 . S
N172 C174 1.335 . S
N172 C175 1.390 1_455 S
N173 C174 1.345 . S
N173 C176 1.336 1_455 S
C174 N172 1.335 . S
C174 N173 1.345 . S
C174 H179 0.930 . S
C175 N172 1.390 1_655 S
C175 C176 1.346 . S
C175 H180 0.930 . S
C176 N173 1.336 1_655 S
C176 C175 1.346 . S
C176 H183 0.929 . S
C177 O167 1.282 1_655 S
C177 O178 1.216 . S
O178 C177 1.216 . S
H179 C174 0.930 . S
H180 C175 0.930 . S
O181 Cu161 1.959 . S
O181 C168 1.251 . S
H182 C165 0.930 . S
H183 C176 0.929 . S
H184 C196 0.930 . S
H185 C198 0.930 . S
H186 C199 0.930 . S
H187 C203 0.959 . S
H188 C203 0.959 . S
H189 C203 0.961 . S
H190 C204 0.960 . S
H191 C204 0.961 . S
H192 C204 0.959 . S
H193 C207 0.929 . S
H194 C208 0.931 . S
H195 C210 0.930 . S
C196 H184 0.930 . S
C196 C197 1.399 . S
C196 C201 1.399 . S
C197 C196 1.399 . S
C197 C198 1.376 . S
C198 H185 0.930 . S
C198 C197 1.376 . S
C198 C199 1.388 . S
C199 H186 0.930 . S
C199 C198 1.388 . S
C199 C200 1.390 . S
C200 C199 1.390 . S
C200 C201 1.394 . S
C200 C206 1.465 . S
C201 C196 1.399 . S
C201 C200 1.394 . S
C201 C202 1.516 . S
C202 C201 1.516 . S
C202 C203 1.502 1_655 S
C202 C204 1.561 . S
C202 C205 1.526 . S
C203 H187 0.959 . S
C203 H188 0.959 . S
C203 H189 0.961 . S
C203 C202 1.502 1_455 S
C204 H190 0.960 . S
C204 H191 0.961 . S
C204 H192 0.959 . S
C204 C202 1.561 . S
C205 C202 1.526 . S
C205 C206 1.396 . S
C205 C210 1.390 . S
C206 C200 1.465 . S
C206 C205 1.396 . S
C206 C207 1.399 . S
C207 H193 0.929 . S
C207 C206 1.399 . S
C207 C208 1.385 . S
C208 H194 0.931 . S
C208 C207 1.385 . S
C208 C209 1.389 . S
C209 C208 1.389 . S
C209 C210 1.387 . S
C210 H195 0.930 . S
C210 C205 1.390 . S
C210 C209 1.387 . S
H211 C223 0.930 . S
H212 C225 0.930 . S
H213 C226 0.930 . S
H214 C230 0.959 . S
H215 C230 0.959 . S
H216 C230 0.961 . S
H217 C231 0.960 . S
H218 C231 0.961 . S
H219 C231 0.959 . S
H220 C234 0.929 . S
H221 C235 0.931 . S
H222 C237 0.930 . S
C223 H211 0.930 . S
C223 C224 1.399 . S
C223 C228 1.399 . S
C224 C223 1.399 . S
C224 C225 1.376 . S
C225 H212 0.930 . S
C225 C224 1.376 . S
C225 C226 1.388 . S
C226 H213 0.930 . S
C226 C225 1.388 . S
C226 C227 1.390 . S
C227 C226 1.390 . S
C227 C228 1.394 . S
C227 C233 1.465 . S
C228 C223 1.399 . S
C228 C227 1.394 . S
C228 C229 1.516 . S
C229 C228 1.516 . S
C229 C230 1.502 . S
C229 C231 1.561 . S
C229 C232 1.526 . S
C230 H214 0.959 . S
C230 H215 0.959 . S
C230 H216 0.961 . S
C230 C229 1.502 . S
C231 H217 0.960 . S
C231 H218 0.961 . S
C231 H219 0.959 . S
C231 C229 1.561 . S
C232 C229 1.526 . S
C232 C233 1.396 . S
C232 C237 1.390 . S
C233 C227 1.465 . S
C233 C232 1.396 . S
C233 C234 1.399 . S
C234 H220 0.929 . S
C234 C233 1.399 . S
C234 C235 1.385 . S
C235 H221 0.931 . S
C235 C234 1.385 . S
C235 C236 1.389 . S
C236 C235 1.389 . S
C236 C237 1.387 . S
C237 H222 0.930 . S
C237 C232 1.390 . S
C237 C236 1.387 . S
H238 C250 0.930 1_556 S
H239 C252 0.930 . S
H240 C253 0.930 . S
H241 C257 0.959 . S
H242 C257 0.959 . S
H243 C257 0.961 . S
H244 C258 0.960 . S
H245 C258 0.961 . S
H246 C258 0.959 . S
H247 C261 0.929 . S
H248 C262 0.931 . S
H249 C264 0.930 . S
C250 H238 0.930 1_554 S
C250 C251 1.399 . S
C250 C255 1.399 1_554 S
C251 C250 1.399 . S
C251 C252 1.376 . S
C252 H239 0.930 . S
C252 C251 1.376 . S
C252 C253 1.388 1_545 S
C253 H240 0.930 . S
C253 C252 1.388 1_565 S
C253 C254 1.390 1_554 S
C254 C253 1.390 1_556 S
C254 C255 1.394 1_565 S
C254 C260 1.465 . S
C255 C250 1.399 1_556 S
C255 C254 1.394 1_545 S
C255 C256 1.516 . S
C256 C255 1.516 . S
C256 C257 1.502 . S
C256 C258 1.561 . S
C256 C259 1.526 1_545 S
C257 H241 0.959 . S
C257 H242 0.959 . S
C257 H243 0.961 . S
C257 C256 1.502 . S
C258 H244 0.960 . S
C258 H245 0.961 . S
C258 H246 0.959 . S
C258 C256 1.561 . S
C259 C256 1.526 1_565 S
C259 C260 1.396 . S
C259 C264 1.390 . S
C260 C254 1.465 . S
C260 C259 1.396 . S
C260 C261 1.399 . S
C261 H247 0.929 . S
C261 C260 1.399 . S
C261 C262 1.385 . S
C262 H248 0.931 . S
C262 C261 1.385 . S
C262 C263 1.389 . S
C263 C262 1.389 . S
C263 C264 1.387 . S
C264 H249 0.930 . S
C264 C259 1.390 . S
C264 C263 1.387 . S
H265 C277 0.930 . S
H266 C279 0.930 . S
H267 C280 0.930 1_545 S
H268 C284 0.959 . S
H269 C284 0.959 . S
H270 C284 0.961 . S
H271 C285 0.960 1_554 S
H272 C285 0.961 . S
H273 C285 0.959 1_554 S
H274 C288 0.929 . S
H275 C289 0.931 . S
H276 C291 0.930 . S
C277 H265 0.930 . S
C277 C278 1.399 . S
C277 C282 1.399 . S
C278 C277 1.399 . S
C278 C279 1.376 . S
C279 H266 0.930 . S
C279 C278 1.376 . S
C279 C280 1.388 . S
C280 H267 0.930 1_565 S
C280 C279 1.388 . S
C280 C281 1.390 . S
C281 C280 1.390 . S
C281 C282 1.394 . S
C281 C287 1.465 1_565 S
C282 C277 1.399 . S
C282 C281 1.394 . S
C282 C283 1.516 1_455 S
C283 C282 1.516 1_655 S
C283 C284 1.502 1_654 S
C283 C285 1.561 1_554 S
C283 C286 1.521 1_664 S
C284 H268 0.959 . S
C284 H269 0.959 . S
C284 H270 0.961 . S
C284 C283 1.502 1_456 S
C285 H271 0.960 1_556 S
C285 H272 0.961 . S
C285 H273 0.959 1_556 S
C285 C283 1.561 1_556 S
C286 C283 1.521 1_446 S
C286 C287 1.400 1_556 S
C286 C291 1.390 1_455 S
C287 C281 1.465 1_545 S
C287 C286 1.400 1_554 S
C287 C288 1.399 . S
C288 H274 0.929 . S
C288 C287 1.399 . S
C288 C289 1.385 1_554 S
C289 H275 0.931 . S
C289 C288 1.385 1_556 S
C289 C290 1.389 . S
C290 C289 1.389 . S
C290 C291 1.387 1_455 S
C291 H276 0.930 . S
C291 C286 1.390 1_655 S
C291 C290 1.387 1_655 S
H292 C304 0.930 . S
H293 C306 0.930 . S
H294 C307 0.930 . S
H295 C311 0.959 . S
H296 C311 0.959 . S
H297 C311 0.961 . S
H298 C312 0.960 . S
H299 C312 0.961 . S
H300 C312 0.959 . S
H301 C315 0.929 . S
H302 C316 0.931 . S
H303 C318 0.930 . S
C304 H292 0.930 . S
C304 C305 1.399 . S
C304 C309 1.399 . S
C305 C304 1.399 . S
C305 C306 1.376 . S
C306 H293 0.930 . S
C306 C305 1.376 . S
C306 C307 1.388 . S
C307 H294 0.930 . S
C307 C306 1.388 . S
C307 C308 1.390 . S
C308 C307 1.390 . S
C308 C309 1.394 . S
C308 C314 1.465 . S
C309 C304 1.399 . S
C309 C308 1.394 . S
C309 C310 1.516 . S
C310 C309 1.516 . S
C310 C311 1.502 . S
C310 C312 1.561 . S
C310 C313 1.526 . S
C311 H295 0.959 . S
C311 H296 0.959 . S
C311 H297 0.961 . S
C311 C310 1.502 . S
C312 H298 0.960 . S
C312 H299 0.961 . S
C312 H300 0.959 . S
C312 C310 1.561 . S
C313 C310 1.526 . S
C313 C314 1.396 . S
C313 C318 1.390 . S
C314 C308 1.465 . S
C314 C313 1.396 . S
C314 C315 1.399 . S
C315 H301 0.929 . S
C315 C314 1.399 . S
C315 C316 1.385 . S
C316 H302 0.931 . S
C316 C315 1.385 . S
C316 C317 1.389 . S
C317 C316 1.389 . S
C317 C318 1.387 . S
C318 H303 0.930 . S
C318 C313 1.390 . S
C318 C317 1.387 . S
H319 C331 0.930 . S
H320 C333 0.930 . S
H321 C334 0.930 . S
H322 C338 0.959 . S
H323 C338 0.959 . S
H324 C338 0.961 . S
H325 C339 0.960 . S
H326 C339 0.961 . S
H327 C339 0.959 . S
H328 C342 0.929 . S
H329 C343 0.931 . S
H330 C345 0.930 . S
C331 H319 0.930 . S
C331 C332 1.399 . S
C331 C336 1.399 . S
C332 C331 1.399 . S
C332 C333 1.376 . S
C333 H320 0.930 . S
C333 C332 1.376 . S
C333 C334 1.388 . S
C334 H321 0.930 . S
C334 C333 1.388 . S
C334 C335 1.390 . S
C335 C334 1.390 . S
C335 C336 1.394 . S
C335 C341 1.465 . S
C336 C331 1.399 . S
C336 C335 1.394 . S
C336 C337 1.516 . S
C337 C336 1.516 . S
C337 C338 1.502 . S
C337 C339 1.561 . S
C337 C340 1.526 . S
C338 H322 0.959 . S
C338 H323 0.959 . S
C338 H324 0.961 . S
C338 C337 1.502 . S
C339 H325 0.960 . S
C339 H326 0.961 . S
C339 H327 0.959 . S
C339 C337 1.561 . S
C340 C337 1.526 . S
C340 C341 1.396 . S
C340 C345 1.390 . S
C341 C335 1.465 . S
C341 C340 1.396 . S
C341 C342 1.399 . S
C342 H328 0.929 . S
C342 C341 1.399 . S
C342 C343 1.385 . S
C343 H329 0.931 . S
C343 C342 1.385 . S
C343 C344 1.389 . S
C344 C343 1.389 . S
C344 C345 1.387 . S
C345 H330 0.930 . S
C345 C340 1.390 . S
C345 C344 1.387 . S
H346 C358 0.930 . S
H347 C360 0.930 . S
H348 C361 0.930 . S
H349 C365 0.959 . S
H350 C365 0.959 . S
H351 C365 0.961 . S
H352 C366 0.960 . S
H353 C366 0.961 . S
H354 C366 0.959 . S
H355 C369 0.929 . S
H356 C370 0.931 . S
H357 C372 0.930 . S
C358 H346 0.930 . S
C358 C359 1.399 . S
C358 C363 1.399 . S
C359 C358 1.399 . S
C359 C360 1.376 . S
C360 H347 0.930 . S
C360 C359 1.376 . S
C360 C361 1.388 . S
C361 H348 0.930 . S
C361 C360 1.388 . S
C361 C362 1.390 . S
C362 C361 1.390 . S
C362 C363 1.394 . S
C362 C368 1.465 . S
C363 C358 1.399 . S
C363 C362 1.394 . S
C363 C364 1.516 . S
C364 C363 1.516 . S
C364 C365 1.502 . S
C364 C366 1.561 . S
C364 C367 1.526 . S
C365 H349 0.959 . S
C365 H350 0.959 . S
C365 H351 0.961 . S
C365 C364 1.502 . S
C366 H352 0.960 . S
C366 H353 0.961 . S
C366 H354 0.959 . S
C366 C364 1.561 . S
C367 C364 1.526 . S
C367 C368 1.396 . S
C367 C372 1.390 . S
C368 C362 1.465 . S
C368 C367 1.396 . S
C368 C369 1.399 . S
C369 H355 0.929 . S
C369 C368 1.399 . S
C369 C370 1.385 . S
C370 H356 0.931 . S
C370 C369 1.385 . S
C370 C371 1.389 . S
C371 C370 1.389 . S
C371 C372 1.387 . S
C372 H357 0.930 . S
C372 C367 1.390 . S
C372 C371 1.387 . S
H373 C385 0.930 . S
H374 C387 0.930 . S
H375 C388 0.930 . S
H376 C392 0.959 . S
H377 C392 0.959 . S
H378 C392 0.961 . S
H379 C393 0.960 . S
H380 C393 0.961 . S
H381 C393 0.959 . S
H382 C396 0.929 . S
H383 C397 0.931 . S
H384 C399 0.930 . S
C385 H373 0.930 . S
C385 C386 1.399 . S
C385 C390 1.399 . S
C386 C385 1.399 . S
C386 C387 1.376 . S
C387 H374 0.930 . S
C387 C386 1.376 . S
C387 C388 1.388 . S
C388 H375 0.930 . S
C388 C387 1.388 . S
C388 C389 1.390 . S
C389 C388 1.390 . S
C389 C390 1.394 . S
C389 C395 1.465 . S
C390 C385 1.399 . S
C390 C389 1.394 . S
C390 C391 1.516 . S
C391 C390 1.516 . S
C391 C392 1.502 . S
C391 C393 1.561 . S
C391 C394 1.526 . S
C392 H376 0.959 . S
C392 H377 0.959 . S
C392 H378 0.961 . S
C392 C391 1.502 . S
C393 H379 0.960 . S
C393 H380 0.961 . S
C393 H381 0.959 . S
C393 C391 1.561 . S
C394 C391 1.526 . S
C394 C395 1.396 . S
C394 C399 1.390 . S
C395 C389 1.465 . S
C395 C394 1.396 . S
C395 C396 1.399 . S
C396 H382 0.929 . S
C396 C395 1.399 . S
C396 C397 1.385 . S
C397 H383 0.931 . S
C397 C396 1.385 . S
C397 C398 1.389 . S
C398 C397 1.389 . S
C398 C399 1.387 . S
C399 H384 0.930 . S
C399 C394 1.390 . S
C399 C398 1.387 . S
H400 C412 0.930 . S
H401 C414 0.930 . S
H402 C415 0.930 . S
H403 C419 0.959 . S
H404 C419 0.959 . S
H405 C419 0.961 . S
H406 C420 0.960 . S
H407 C420 0.961 . S
H408 C420 0.959 . S
H409 C423 0.929 . S
H410 C424 0.931 . S
H411 C426 0.930 . S
C412 H400 0.930 . S
C412 C413 1.399 . S
C412 C417 1.399 . S
C413 C412 1.399 . S
C413 C414 1.376 . S
C414 H401 0.930 . S
C414 C413 1.376 . S
C414 C415 1.388 . S
C415 H402 0.930 . S
C415 C414 1.388 . S
C415 C416 1.390 . S
C416 C415 1.390 . S
C416 C417 1.394 . S
C416 C422 1.465 . S
C417 C412 1.399 . S
C417 C416 1.394 . S
C417 C418 1.516 . S
C418 C417 1.516 . S
C418 C419 1.502 . S
C418 C420 1.561 . S
C418 C421 1.526 . S
C419 H403 0.959 . S
C419 H404 0.959 . S
C419 H405 0.961 . S
C419 C418 1.502 . S
C420 H406 0.960 . S
C420 H407 0.961 . S
C420 H408 0.959 . S
C420 C418 1.561 . S
C421 C418 1.526 . S
C421 C422 1.396 . S
C421 C426 1.390 . S
C422 C416 1.465 . S
C422 C421 1.396 . S
C422 C423 1.399 . S
C423 H409 0.929 . S
C423 C422 1.399 . S
C423 C424 1.385 . S
C424 H410 0.931 . S
C424 C423 1.385 . S
C424 C425 1.389 . S
C425 C424 1.389 . S
C425 C426 1.387 . S
C426 H411 0.930 . S
C426 C421 1.390 . S
C426 C425 1.387 . S
H427 C439 0.930 . S
H428 C441 0.930 . S
H429 C442 0.930 . S
H430 C446 0.959 . S
H431 C446 0.959 . S
H432 C446 0.961 . S
H433 C447 0.960 . S
H434 C447 0.961 . S
H435 C447 0.959 . S
H436 C450 0.929 . S
H437 C451 0.931 . S
H438 C453 0.930 . S
C439 H427 0.930 . S
C439 C440 1.399 . S
C439 C444 1.399 . S
C440 C439 1.399 . S
C440 C441 1.376 . S
C441 H428 0.930 . S
C441 C440 1.376 . S
C441 C442 1.388 . S
C442 H429 0.930 . S
C442 C441 1.388 . S
C442 C443 1.390 . S
C443 C442 1.390 . S
C443 C444 1.394 . S
C443 C449 1.465 . S
C444 C439 1.399 . S
C444 C443 1.394 . S
C444 C445 1.516 . S
C445 C444 1.516 . S
C445 C446 1.502 . S
C445 C447 1.561 . S
C445 C448 1.526 . S
C446 H430 0.959 . S
C446 H431 0.959 . S
C446 H432 0.961 . S
C446 C445 1.502 . S
C447 H433 0.960 . S
C447 H434 0.961 . S
C447 H435 0.959 . S
C447 C445 1.561 . S
C448 C445 1.526 . S
C448 C449 1.396 . S
C448 C453 1.390 . S
C449 C443 1.465 . S
C449 C448 1.396 . S
C449 C450 1.399 . S
C450 H436 0.929 . S
C450 C449 1.399 . S
C450 C451 1.385 . S
C451 H437 0.931 . S
C451 C450 1.385 . S
C451 C452 1.389 . S
C452 C451 1.389 . S
C452 C453 1.387 . S
C453 H438 0.930 . S
C453 C448 1.390 . S
C453 C452 1.387 . S
H454 C466 0.930 . S
H455 C468 0.930 . S
H456 C469 0.930 . S
H457 C473 0.959 . S
H458 C473 0.959 . S
H459 C473 0.961 . S
H460 C474 0.960 . S
H461 C474 0.961 . S
H462 C474 0.959 . S
H463 C477 0.929 . S
H464 C478 0.931 . S
H465 C480 0.930 . S
C466 H454 0.930 . S
C466 C467 1.399 . S
C466 C471 1.399 . S
C467 C466 1.399 . S
C467 C468 1.376 . S
C468 H455 0.930 . S
C468 C467 1.376 . S
C468 C469 1.388 . S
C469 H456 0.930 . S
C469 C468 1.388 . S
C469 C470 1.390 . S
C470 C469 1.390 . S
C470 C471 1.394 . S
C470 C476 1.465 . S
C471 C466 1.399 . S
C471 C470 1.394 . S
C471 C472 1.516 . S
C472 C471 1.516 . S
C472 C473 1.502 . S
C472 C474 1.561 . S
C472 C475 1.526 . S
C473 H457 0.959 . S
C473 H458 0.959 . S
C473 H459 0.961 . S
C473 C472 1.502 . S
C474 H460 0.960 . S
C474 H461 0.961 . S
C474 H462 0.959 . S
C474 C472 1.561 . S
C475 C472 1.526 . S
C475 C476 1.396 . S
C475 C480 1.390 . S
C476 C470 1.465 . S
C476 C475 1.396 . S
C476 C477 1.399 . S
C477 H463 0.929 . S
C477 C476 1.399 . S
C477 C478 1.385 . S
C478 H464 0.931 . S
C478 C477 1.385 . S
C478 C479 1.389 . S
C479 C478 1.389 . S
C479 C480 1.387 . S
C480 H465 0.930 . S
C480 C475 1.390 . S
C480 C479 1.387 . S
H481 C493 0.930 . S
H482 C495 0.930 . S
H483 C496 0.930 . S
H484 C500 0.959 . S
H485 C500 0.959 . S
H486 C500 0.961 . S
H487 C501 0.960 . S
H488 C501 0.961 . S
H489 C501 0.959 . S
H490 C504 0.929 . S
H491 C505 0.931 . S
H492 C507 0.930 . S
C493 H481 0.930 . S
C493 C494 1.399 . S
C493 C498 1.399 . S
C494 C493 1.399 . S
C494 C495 1.376 . S
C495 H482 0.930 . S
C495 C494 1.376 . S
C495 C496 1.388 . S
C496 H483 0.930 . S
C496 C495 1.388 . S
C496 C497 1.390 . S
C497 C496 1.390 . S
C497 C498 1.394 . S
C497 C503 1.465 . S
C498 C493 1.399 . S
C498 C497 1.394 . S
C498 C499 1.516 . S
C499 C498 1.516 . S
C499 C500 1.502 . S
C499 C501 1.561 . S
C499 C502 1.526 . S
C500 H484 0.959 . S
C500 H485 0.959 . S
C500 H486 0.961 . S
C500 C499 1.502 . S
C501 H487 0.960 . S
C501 H488 0.961 . S
C501 H489 0.959 . S
C501 C499 1.561 . S
C502 C499 1.526 . S
C502 C503 1.396 . S
C502 C507 1.390 . S
C503 C497 1.465 . S
C503 C502 1.396 . S
C503 C504 1.399 . S
C504 H490 0.929 . S
C504 C503 1.399 . S
C504 C505 1.385 . S
C505 H491 0.931 . S
C505 C504 1.385 . S
C505 C506 1.389 . S
C506 C505 1.389 . S
C506 C507 1.387 . S
C507 H492 0.930 . S
C507 C502 1.390 . S
C507 C506 1.387 . S
H508 C520 0.930 . S
H509 C522 0.930 . S
H510 C523 0.930 . S
H511 C527 0.959 . S
H512 C527 0.959 . S
H513 C527 0.961 . S
H514 C528 0.960 . S
H515 C528 0.961 . S
H516 C528 0.959 . S
H517 C531 0.929 . S
H518 C532 0.931 . S
H519 C534 0.930 . S
C520 H508 0.930 . S
C520 C521 1.399 . S
C520 C525 1.399 . S
C521 C520 1.399 . S
C521 C522 1.376 . S
C522 H509 0.930 . S
C522 C521 1.376 . S
C522 C523 1.388 . S
C523 H510 0.930 . S
C523 C522 1.388 . S
C523 C524 1.390 . S
C524 C523 1.390 . S
C524 C525 1.394 . S
C524 C530 1.465 . S
C525 C520 1.399 . S
C525 C524 1.394 . S
C525 C526 1.516 . S
C526 C525 1.516 . S
C526 C527 1.502 . S
C526 C528 1.561 . S
C526 C529 1.526 . S
C527 H511 0.959 . S
C527 H512 0.959 . S
C527 H513 0.961 . S
C527 C526 1.502 . S
C528 H514 0.960 . S
C528 H515 0.961 . S
C528 H516 0.959 . S
C528 C526 1.561 . S
C529 C526 1.526 . S
C529 C530 1.396 . S
C529 C534 1.390 . S
C530 C524 1.465 . S
C530 C529 1.396 . S
C530 C531 1.399 . S
C531 H517 0.929 . S
C531 C530 1.399 . S
C531 C532 1.385 . S
C532 H518 0.931 . S
C532 C531 1.385 . S
C532 C533 1.389 . S
C533 C532 1.389 . S
C533 C534 1.387 . S
C534 H519 0.930 . S
C534 C529 1.390 . S
C534 C533 1.387 . S
H535 C547 0.930 . S
H536 C549 0.930 . S
H537 C550 0.930 . S
H538 C554 0.959 . S
H539 C554 0.959 . S
H540 C554 0.961 . S
H541 C555 0.960 . S
H542 C555 0.961 . S
H543 C555 0.959 . S
H544 C558 0.929 . S
H545 C559 0.931 . S
H546 C561 0.930 . S
C547 H535 0.930 . S
C547 C548 1.399 . S
C547 C552 1.399 . S
C548 C547 1.399 . S
C548 C549 1.376 . S
C549 H536 0.930 . S
C549 C548 1.376 . S
C549 C550 1.388 . S
C550 H537 0.930 . S
C550 C549 1.388 . S
C550 C551 1.390 . S
C551 C550 1.390 . S
C551 C552 1.394 . S
C551 C557 1.465 . S
C552 C547 1.399 . S
C552 C551 1.394 . S
C552 C553 1.516 . S
C553 C552 1.516 . S
C553 C554 1.502 . S
C553 C555 1.561 . S
C553 C556 1.526 . S
C554 H538 0.959 . S
C554 H539 0.959 . S
C554 H540 0.961 . S
C554 C553 1.502 . S
C555 H541 0.960 . S
C555 H542 0.961 . S
C555 H543 0.959 . S
C555 C553 1.561 . S
C556 C553 1.526 . S
C556 C557 1.396 . S
C556 C561 1.390 . S
C557 C551 1.465 . S
C557 C556 1.396 . S
C557 C558 1.399 . S
C558 H544 0.929 . S
C558 C557 1.399 . S
C558 C559 1.385 . S
C559 H545 0.931 . S
C559 C558 1.385 . S
C559 C560 1.389 . S
C560 C559 1.389 . S
C560 C561 1.387 . S
C561 H546 0.930 . S
C561 C556 1.390 . S
C561 C560 1.387 . S
H562 C574 0.930 . S
H563 C576 0.930 . S
H564 C577 0.930 . S
H565 C581 0.959 . S
H566 C581 0.959 1_556 S
H567 C581 0.961 . S
H568 C582 0.960 1_554 S
H569 C582 0.961 . S
H570 C582 0.959 . S
H571 C585 0.929 . S
H572 C586 0.931 . S
H573 C588 0.930 . S
C574 H562 0.930 . S
C574 C575 1.399 . S
C574 C579 1.399 . S
C575 C574 1.399 . S
C575 C576 1.376 . S
C576 H563 0.930 . S
C576 C575 1.376 . S
C576 C577 1.388 . S
C577 H564 0.930 . S
C577 C576 1.388 . S
C577 C578 1.390 . S
C578 C577 1.390 . S
C578 C579 1.394 . S
C578 C584 1.465 1_554 S
C579 C574 1.399 . S
C579 C578 1.394 . S
C579 C580 1.516 . S
C580 C579 1.516 . S
C580 C581 1.502 . S
C580 C582 1.561 1_554 S
C580 C583 1.526 1_554 S
C581 H565 0.959 . S
C581 H566 0.959 1_554 S
C581 H567 0.961 . S
C581 C580 1.502 . S
C582 H568 0.960 1_556 S
C582 H569 0.961 . S
C582 H570 0.959 . S
C582 C580 1.561 1_556 S
C583 C580 1.526 1_556 S
C583 C584 1.396 . S
C583 C588 1.390 . S
C584 C578 1.465 1_556 S
C584 C583 1.396 . S
C584 C585 1.399 . S
C585 H571 0.929 . S
C585 C584 1.399 . S
C585 C586 1.385 . S
C586 H572 0.931 . S
C586 C585 1.385 . S
C586 C587 1.389 . S
C587 C586 1.389 . S
C587 C588 1.387 . S
C588 H573 0.930 . S
C588 C583 1.390 . S
C588 C587 1.387 . S
H589 C601 0.930 . S
H590 C603 0.930 . S
H591 C604 0.930 . S
H592 C608 0.959 . S
H593 C608 0.959 1_556 S
H594 C608 0.961 . S
H595 C609 0.960 1_554 S
H596 C609 0.961 . S
H597 C609 0.959 . S
H598 C612 0.929 . S
H599 C613 0.931 . S
H600 C615 0.930 . S
C601 H589 0.930 . S
C601 C602 1.399 . S
C601 C606 1.399 . S
C602 C601 1.399 . S
C602 C603 1.376 . S
C603 H590 0.930 . S
C603 C602 1.376 . S
C603 C604 1.388 . S
C604 H591 0.930 . S
C604 C603 1.388 . S
C604 C605 1.390 . S
C605 C604 1.390 . S
C605 C606 1.394 . S
C605 C611 1.465 1_554 S
C606 C601 1.399 . S
C606 C605 1.394 . S
C606 C607 1.516 . S
C607 C606 1.516 . S
C607 C608 1.502 . S
C607 C609 1.561 1_554 S
C607 C610 1.526 1_554 S
C608 H592 0.959 . S
C608 H593 0.959 1_554 S
C608 H594 0.961 . S
C608 C607 1.502 . S
C609 H595 0.960 1_556 S
C609 H596 0.961 . S
C609 H597 0.959 . S
C609 C607 1.561 1_556 S
C610 C607 1.526 1_556 S
C610 C611 1.396 . S
C610 C615 1.390 . S
C611 C605 1.465 1_556 S
C611 C610 1.396 . S
C611 C612 1.399 . S
C612 H598 0.929 . S
C612 C611 1.399 . S
C612 C613 1.385 . S
C613 H599 0.931 . S
C613 C612 1.385 . S
C613 C614 1.389 . S
C614 C613 1.389 . S
C614 C615 1.387 . S
C615 H600 0.930 . S
C615 C610 1.390 . S
C615 C614 1.387 . S
C197 C16 1.721 . S
C209 N58 1.741 . S
C224 N81 1.765 . S
C236 C39 1.678 . S
C251 N150 1.751 . S
C263 C108 1.694 . S
C278 C131 1.646 . S
C290 N173 1.778 . S
C305 C154 1.869 . S
C317 N12 1.833 . S
C332 N35 1.800 . S
C344 C177 1.844 . S
C359 C62 1.828 . S
C371 N104 1.837 . S
C386 C85 1.866 . S
C398 N127 1.838 . S
C413 N140 1.844 . S
C425 C7 1.976 . S
C440 C30 1.994 . S
C452 N163 1.797 . S
C467 C99 1.981 . S
C479 N48 1.816 . S
C494 C122 1.983 . S
C506 N71 1.812 . S
C521 N25 0.751 . S
C533 N2 0.760 . S
C548 C53 0.515 . S
C560 C76 0.590 . S
C575 N117 0.746 . S
C587 N94 0.753 . S
C602 C145 0.522 . S
C614 C168 0.583 . S
