# Generated by pormake.
# Topology une, (4)-cn, num edge types: 1
# Building blocks:
#     Node 0, Type 0, BuildingBlock: KUFVIS_clean_sbu_0, # of connection points: 4
#     Node 1, Type 0, BuildingBlock: KUFVIS_clean_sbu_0, # of connection points: 4
#     Node 2, Type 0, BuildingBlock: KUFVIS_clean_sbu_0, # of connection points: 4
#     Node 3, Type 0, BuildingBlock: KUFVIS_clean_sbu_0, # of connection points: 4
#     Node 4, Type 0, BuildingBlock: KUFVIS_clean_sbu_0, # of connection points: 4
#     Node 5, Type 0, BuildingBlock: KUFVIS_clean_sbu_0, # of connection points: 4
#     Node 6, Type 0, BuildingBlock: KUFVIS_clean_sbu_0, # of connection points: 4
#     Node 7, Type 0, BuildingBlock: KUFVIS_clean_sbu_0, # of connection points: 4
#     Node 8, Type 0, BuildingBlock: KUFVIS_clean_sbu_0, # of connection points: 4
#     Node 9, Type 0, BuildingBlock: KUFVIS_clean_sbu_0, # of connection points: 4
#     Node 10, Type 0, BuildingBlock: KUFVIS_clean_sbu_0, # of connection points: 4
#     Node 11, Type 0, BuildingBlock: KUFVIS_clean_sbu_0, # of connection points: 4
#     Node 12, Type 0, BuildingBlock: KUFVIS_clean_sbu_0, # of connection points: 4
#     Node 13, Type 0, BuildingBlock: KUFVIS_clean_sbu_0, # of connection points: 4
#     Node 14, Type 0, BuildingBlock: KUFVIS_clean_sbu_0, # of connection points: 4
#     Node 15, Type 0, BuildingBlock: KUFVIS_clean_sbu_0, # of connection points: 4
#     Node 16, Type 0, BuildingBlock: KUFVIS_clean_sbu_0, # of connection points: 4
#     Node 17, Type 0, BuildingBlock: KUFVIS_clean_sbu_0, # of connection points: 4
#     Edge 18, Type (0, 0), BuildingBlock: EZIPEK_clean_linker_0, # of connection points: 2
#     Edge 19, Type (0, 0), BuildingBlock: EZIPEK_clean_linker_0, # of connection points: 2
#     Edge 20, Type (0, 0), BuildingBlock: EZIPEK_clean_linker_0, # of connection points: 2
#     Edge 21, Type (0, 0), BuildingBlock: EZIPEK_clean_linker_0, # of connection points: 2
#     Edge 22, Type (0, 0), BuildingBlock: EZIPEK_clean_linker_0, # of connection points: 2
#     Edge 23, Type (0, 0), BuildingBlock: EZIPEK_clean_linker_0, # of connection points: 2
#     Edge 24, Type (0, 0), BuildingBlock: EZIPEK_clean_linker_0, # of connection points: 2
#     Edge 25, Type (0, 0), BuildingBlock: EZIPEK_clean_linker_0, # of connection points: 2
#     Edge 26, Type (0, 0), BuildingBlock: EZIPEK_clean_linker_0, # of connection points: 2
#     Edge 27, Type (0, 0), BuildingBlock: EZIPEK_clean_linker_0, # of connection points: 2
#     Edge 28, Type (0, 0), BuildingBlock: EZIPEK_clean_linker_0, # of connection points: 2
#     Edge 29, Type (0, 0), BuildingBlock: EZIPEK_clean_linker_0, # of connection points: 2
#     Edge 30, Type (0, 0), BuildingBlock: EZIPEK_clean_linker_0, # of connection points: 2
#     Edge 31, Type (0, 0), BuildingBlock: EZIPEK_clean_linker_0, # of connection points: 2
#     Edge 32, Type (0, 0), BuildingBlock: EZIPEK_clean_linker_0, # of connection points: 2
#     Edge 33, Type (0, 0), BuildingBlock: EZIPEK_clean_linker_0, # of connection points: 2
#     Edge 34, Type (0, 0), BuildingBlock: EZIPEK_clean_linker_0, # of connection points: 2
#     Edge 35, Type (0, 0), BuildingBlock: EZIPEK_clean_linker_0, # of connection points: 2
#     Edge 36, Type (0, 0), BuildingBlock: EZIPEK_clean_linker_0, # of connection points: 2
#     Edge 37, Type (0, 0), BuildingBlock: EZIPEK_clean_linker_0, # of connection points: 2
#     Edge 38, Type (0, 0), BuildingBlock: EZIPEK_clean_linker_0, # of connection points: 2
#     Edge 39, Type (0, 0), BuildingBlock: EZIPEK_clean_linker_0, # of connection points: 2
#     Edge 40, Type (0, 0), BuildingBlock: EZIPEK_clean_linker_0, # of connection points: 2
#     Edge 41, Type (0, 0), BuildingBlock: EZIPEK_clean_linker_0, # of connection points: 2
#     Edge 42, Type (0, 0), BuildingBlock: EZIPEK_clean_linker_0, # of connection points: 2
#     Edge 43, Type (0, 0), BuildingBlock: EZIPEK_clean_linker_0, # of connection points: 2
#     Edge 44, Type (0, 0), BuildingBlock: EZIPEK_clean_linker_0, # of connection points: 2
#     Edge 45, Type (0, 0), BuildingBlock: EZIPEK_clean_linker_0, # of connection points: 2
#     Edge 46, Type (0, 0), BuildingBlock: EZIPEK_clean_linker_0, # of connection points: 2
#     Edge 47, Type (0, 0), BuildingBlock: EZIPEK_clean_linker_0, # of connection points: 2
#     Edge 48, Type (0, 0), BuildingBlock: EZIPEK_clean_linker_0, # of connection points: 2
#     Edge 49, Type (0, 0), BuildingBlock: EZIPEK_clean_linker_0, # of connection points: 2
#     Edge 50, Type (0, 0), BuildingBlock: EZIPEK_clean_linker_0, # of connection points: 2
#     Edge 51, Type (0, 0), BuildingBlock: EZIPEK_clean_linker_0, # of connection points: 2
#     Edge 52, Type (0, 0), BuildingBlock: EZIPEK_clean_linker_0, # of connection points: 2
#     Edge 53, Type (0, 0), BuildingBlock: EZIPEK_clean_linker_0, # of connection points: 2
# Relax obj value: 0.247
# Max RMSD: 0.169
# Mean RMSD: 0.158
data_MOF--net-une--node1-KUFVIS_clean_sbu_0--edge1-EZIPEK_clean_linker_0
_symmetry_space_group_name_H-M    P1
_symmetry_Int_Tables_number       1
_symmetry_cell_setting            triclinic
loop_
_symmetry_equiv_pos_as_xyz
'x, y, z'
_cell_length_a     27.58377
_cell_length_b     28.238329
_cell_length_c     38.578738
_cell_angle_alpha  89.431968
_cell_angle_beta   89.262855
_cell_angle_gamma 119.4831
loop_
_atom_site_label
_atom_site_type_symbol
_atom_site_fract_x
_atom_site_fract_y
_atom_site_fract_z
_atom_type_partial_charge
Mn0 Mn 0.37697 0.08717 0.11092 0.0
Mn1 Mn 0.41536 0.10768 0.02571 0.0
C2 C 0.34642 0.13076 0.07352 0.0
C3 C 0.37269 0.11793 0.16691 0.0
C4 C 0.32466 0.00241 0.05471 0.0
O5 O 0.44329 0.07112 0.11053 0.0
O6 O 0.45618 0.0783 0.05214 0.0
C7 C 0.52859 0.20004 0.03667 0.0
N8 N 0.47868 0.17896 0.02078 0.0
C9 C 0.50855 0.26215 0.98809 0.0
C10 C 0.56069 0.28436 1.00369 0.0
C11 C 0.57061 0.25327 0.02829 0.0
C12 C 0.46821 0.20906 0.99777 0.0
H13 H 0.5359 0.17641 0.05567 0.0
C14 C 0.46464 0.06434 0.08214 0.0
O15 O 0.35258 0.06636 0.16107 0.0
O16 O 0.4069 0.15026 0.14306 0.0
N17 N 0.37891 0.13454 0.99595 0.0
C18 C 0.32697 0.10657 0.98252 0.0
C19 C 0.30984 0.13229 0.95812 0.0
C20 C 0.34694 0.18579 0.94684 0.0
C21 C 0.40106 0.21284 0.95978 0.0
C22 C 0.41553 0.18532 0.98435 0.0
H23 H 0.29864 0.06507 0.9906 0.0
O24 O 0.31809 0.10619 0.10118 0.0
O25 O 0.39198 0.129 0.06778 0.0
O26 O 0.33355 0.01481 0.08655 0.0
O27 O 0.34955 0.03542 0.02935 0.0
C28 C 0.4413 0.26594 0.94917 0.0
C29 C 0.49496 0.29066 0.96341 0.0
H30 H 0.59324 0.32531 0.99713 0.0
H31 H 0.61055 0.27026 0.04071 0.0
H32 H 0.26827 0.1108 0.94787 0.0
H33 H 0.33361 0.20549 0.92799 0.0
H34 H 0.43126 0.2883 0.9303 0.0
H35 H 0.52536 0.33173 0.95535 0.0
Mn36 Mn 0.90819 0.30436 0.03235 0.0
Mn37 Mn 0.88738 0.30175 0.94549 0.0
C38 C 0.85563 0.22359 1.0034 0.0
C39 C 0.87765 0.28679 0.09063 0.0
C40 C 0.99006 0.30954 0.97805 0.0
O41 O 0.93862 0.38771 0.02041 0.0
O42 O 0.92171 0.37611 0.96334 0.0
C43 C 0.80063 0.33443 0.95019 0.0
N44 N 0.81678 0.29816 0.93997 0.0
C45 C 0.72488 0.23664 0.9197 0.0
C46 C 0.70745 0.27355 0.92974 0.0
C47 C 0.74553 0.3227 0.94494 0.0
C48 C 0.78033 0.25061 0.92547 0.0
H49 H 0.82949 0.3718 0.96246 0.0
C50 C 0.94406 0.40711 0.98893 0.0
O51 O 0.93026 0.30906 0.08223 0.0
O52 O 0.84649 0.28989 0.06672 0.0
N53 N 0.85403 0.23268 0.92336 0.0
C54 C 0.87983 0.20643 0.90958 0.0
C55 C 0.84817 0.15705 0.89255 0.0
C56 C 0.7909 0.13681 0.88813 0.0
C57 C 0.76643 0.16739 0.89945 0.0
C58 C 0.8002 0.2162 0.91634 0.0
H59 H 0.9242 0.22282 0.91198 0.0
O60 O 0.87845 0.22447 0.03239 0.0
O61 O 0.86302 0.26992 0.99167 0.0
O62 O 0.97739 0.31461 1.00886 0.0
O63 O 0.95973 0.30284 0.9515 0.0
C64 C 0.71029 0.15211 0.89383 0.0
C65 C 0.68944 0.18661 0.90411 0.0
H66 H 0.66497 0.26463 0.92584 0.0
H67 H 0.73227 0.35134 0.95259 0.0
H68 H 0.86796 0.13488 0.88265 0.0
H69 H 0.76656 0.09876 0.87495 0.0
H70 H 0.68298 0.11427 0.88122 0.0
H71 H 0.64629 0.1746 0.89948 0.0
Mn72 Mn 0.72606 0.628 0.06757 0.0
Mn73 Mn 0.71407 0.58377 0.98474 0.0
C74 C 0.80358 0.65064 0.0334 0.0
C75 C 0.7517 0.63026 0.1259 0.0
C76 C 0.70685 0.6837 1.00461 0.0
O77 O 0.63951 0.56982 0.06498 0.0
O78 O 0.64244 0.55179 1.00865 0.0
C79 C 0.68815 0.47523 1.01179 0.0
N80 N 0.71977 0.51931 0.99081 0.0
C81 C 0.783 0.48601 0.97742 0.0
C82 C 0.75136 0.44054 0.99907 0.0
C83 C 0.7036 0.43504 0.01623 0.0
C84 C 0.76653 0.52557 0.97494 0.0
H85 H 0.652 0.47123 0.02559 0.0
C86 C 0.61514 0.54769 0.03617 0.0
O87 O 0.72602 0.65598 0.11566 0.0
O88 O 0.74851 0.59301 0.10508 0.0
N89 N 0.77821 0.60857 0.95496 0.0
C90 C 0.79142 0.64409 0.92769 0.0
C91 C 0.83128 0.64899 0.90277 0.0
C92 C 0.85671 0.61661 0.90584 0.0
C93 C 0.83834 0.57645 0.932 0.0
C94 C 0.79632 0.57186 0.95488 0.0
H95 H 0.76977 0.6667 0.92424 0.0
O96 O 0.80709 0.67845 0.0603 0.0
O97 O 0.75551 0.60858 0.02757 0.0
O98 O 0.7107 0.67742 0.03707 0.0
O99 O 0.7106 0.65325 0.98096 0.0
C100 C 0.85662 0.53792 0.93444 0.0
C101 C 0.82973 0.49333 0.95781 0.0
H102 H 0.76317 0.40951 1.0026 0.0
H103 H 0.67895 0.40008 0.03301 0.0
H104 H 0.84257 0.67782 0.88138 0.0
H105 H 0.88806 0.62101 0.8869 0.0
H106 H 0.89019 0.54133 0.91781 0.0
H107 H 0.84389 0.46381 0.95938 0.0
Mn108 Mn 0.60569 0.89758 0.97037 0.0
Mn109 Mn 0.65983 0.91485 0.04996 0.0
C110 C 0.65973 0.8599 0.98581 0.0
C111 C 0.55599 0.84407 0.92433 0.0
C112 C 0.70412 1.00175 0.99386 0.0
O113 O 0.55574 0.92175 0.99846 0.0
O114 O 0.60074 0.93585 0.04948 0.0
C115 C 0.56022 0.82883 0.08708 0.0
N116 N 0.61451 0.85007 0.07679 0.0
C117 C 0.61971 0.77526 0.10336 0.0
C118 C 0.56393 0.75272 0.11435 0.0
C119 C 0.53408 0.77964 0.10617 0.0
C120 C 0.64362 0.82452 0.08456 0.0
H121 H 0.53694 0.8491 0.08059 0.0
C122 C 0.5651 0.93931 0.03008 0.0
O123 O 0.57898 0.89691 0.92258 0.0
O124 O 0.54667 0.82431 0.95575 0.0
N125 N 0.7169 0.89511 0.05359 0.0
C126 C 0.77039 0.92228 0.04122 0.0
C127 C 0.80549 0.90001 0.04638 0.0
C128 C 0.7855 0.85051 0.06476 0.0
C129 C 0.73084 0.82419 0.07827 0.0
C130 C 0.69783 0.84835 0.07227 0.0
H131 H 0.78603 0.96052 0.02747 0.0
O132 O 0.65904 0.87424 0.95412 0.0
O133 O 0.63283 0.87276 1.00823 0.0
O134 O 0.66749 0.97478 0.9719 0.0
O135 O 0.70871 0.9826 0.02313 0.0
C136 C 0.70772 0.77477 0.09727 0.0
C137 C 0.65223 0.75035 0.10986 0.0
H138 H 0.54352 0.71461 0.1289 0.0
H139 H 0.49094 0.76237 0.11442 0.0
H140 H 0.8478 0.92091 0.03617 0.0
H141 H 0.81255 0.83327 0.06853 0.0
H142 H 0.73218 0.7551 0.1022 0.0
H143 H 0.63482 0.71212 0.12422 0.0
Mn144 Mn 0.09447 0.72695 0.94527 0.0
Mn145 Mn 0.0725 0.83445 0.94965 0.0
C146 C 0.01672 0.71882 0.97379 0.0
C147 C 0.07421 0.63651 0.93816 0.0
C148 C 0.15767 0.82406 0.99032 0.0
O149 O 0.14009 0.77193 0.90122 0.0
O150 O 0.12735 0.84322 0.91325 0.0
C151 C 0.02621 0.83439 0.88064 0.0
N152 N 0.02328 0.83596 0.91585 0.0
C153 C 0.95039 0.85936 0.91316 0.0
C154 C 0.95225 0.85746 0.87687 0.0
C155 C 0.99005 0.84455 0.86057 0.0
C156 C 0.98689 0.84816 0.93179 0.0
H157 H 0.05604 0.8257 0.868 0.0
C158 C 0.15041 0.8215 0.89534 0.0
O159 O 0.12265 0.67355 0.94829 0.0
O160 O 0.04391 0.65458 0.92373 0.0
N161 N 0.01957 0.83165 0.9832 0.0
C162 C 0.01826 0.82482 0.01824 0.0
C163 C 0.98027 0.83275 0.03852 0.0
C164 C 0.94498 0.84883 0.02259 0.0
C165 C 0.94712 0.85556 0.98643 0.0
C166 C 0.98497 0.84589 0.96755 0.0
H167 H 0.04614 0.81363 0.03051 0.0
O168 O 0.0447 0.69719 0.98612 0.0
O169 O 0.04045 0.7542 0.94844 0.0
O170 O 0.15396 0.7837 0.97456 0.0
O171 O 0.12441 0.8423 0.98602 0.0
C172 C 0.91196 0.86973 0.96824 0.0
C173 C 0.91338 0.87132 0.93162 0.0
H174 H 0.92467 0.86555 0.86128 0.0
H175 H 0.99177 0.8431 0.83258 0.0
H176 H 0.97863 0.82713 0.06639 0.0
H177 H 0.91587 0.8551 0.03831 0.0
H178 H 0.88251 0.87776 0.98217 0.0
H179 H 0.88516 0.88087 0.91789 0.0
Mn180 Mn 0.28853 0.34312 0.94433 0.0
Mn181 Mn 0.26553 0.36927 0.02662 0.0
C182 C 0.20094 0.31952 0.96428 0.0
C183 C 0.2829 0.3537 0.88405 0.0
C184 C 0.28889 0.27847 1.00754 0.0
O185 O 0.369 0.39982 0.96066 0.0
O186 O 0.34531 0.41505 1.01434 0.0
C187 C 0.28748 0.48168 1.01387 0.0
N188 N 0.2525 0.42977 0.02516 0.0
C189 C 0.17973 0.45089 0.03809 0.0
C190 C 0.21508 0.50468 0.02679 0.0
C191 C 0.26913 0.52008 1.01453 0.0
C192 C 0.20019 0.41434 0.03657 0.0
H193 H 0.32892 0.49356 1.00424 0.0
C194 C 0.3818 0.42121 0.9913 0.0
O195 O 0.30407 0.32499 0.89651 0.0
O196 O 0.28123 0.38749 0.90584 0.0
N197 N 0.18959 0.32763 0.04227 0.0
C198 C 0.16127 0.27452 0.05296 0.0
C199 C 0.10691 0.25284 0.06667 0.0
C200 C 0.0825 0.28614 0.06964 0.0
C201 C 0.11288 0.34097 0.05913 0.0
C202 C 0.16716 0.36044 0.04612 0.0
H203 H 0.18015 0.24901 0.05122 0.0
O204 O 0.20755 0.29364 0.93904 0.0
O205 O 0.24568 0.35682 0.97827 0.0
O206 O 0.29404 0.28715 0.97491 0.0
O207 O 0.27744 0.30567 0.02929 0.0
C208 C 0.09157 0.37712 0.06121 0.0
C209 C 0.12484 0.43196 0.05049 0.0
H210 H 0.20107 0.5344 0.02724 0.0
H211 H 0.29655 0.56145 1.00559 0.0
H212 H 0.08385 0.21056 0.07491 0.0
H213 H 0.0404 0.26918 0.07998 0.0
H214 H 0.04958 0.36312 0.07091 0.0
H215 H 0.1078 0.45924 0.05187 0.0
Mn216 Mn 0.0131 0.40766 0.44003 0.0
Mn217 Mn 0.0443 0.41783 0.35359 0.0
C218 C 0.98752 0.45536 0.40238 0.0
C219 C 0.02211 0.44444 0.4964 0.0
C220 C 0.95036 0.31777 0.38808 0.0
O221 O 0.07408 0.38382 0.43796 0.0
O222 O 0.08906 0.39324 0.37969 0.0
C223 C 0.15807 0.51205 0.3574 0.0
N224 N 0.10657 0.48805 0.34345 0.0
C225 C 0.13179 0.56573 0.30601 0.0
C226 C 0.18567 0.59068 0.31936 0.0
C227 C 0.19862 0.56397 0.34552 0.0
C228 C 0.093 0.51422 0.31924 0.0
H229 H 0.16759 0.49195 0.37776 0.0
C230 C 0.09721 0.37914 0.4097 0.0
O231 O 0.99287 0.39256 0.49084 0.0
O232 O 0.05411 0.47248 0.47042 0.0
N233 N 0.00342 0.44027 0.32437 0.0
C234 C 0.9492 0.41109 0.31486 0.0
C235 C 0.92844 0.43328 0.29032 0.0
C236 C 0.96403 0.4845 0.27504 0.0
C237 C 0.02022 0.51279 0.2842 0.0
C238 C 0.03841 0.48874 0.30897 0.0
H239 H 0.92187 0.37138 0.32613 0.0
O240 O 0.96102 0.43608 0.43149 0.0
O241 O 0.02803 0.44585 0.39554 0.0
O242 O 0.95809 0.33464 0.41911 0.0
O243 O 0.97926 0.34575 0.36184 0.0
C244 C 0.0589 0.56394 0.26976 0.0
C245 C 0.11467 0.5904 0.28066 0.0
H246 H 0.21707 0.63068 0.31017 0.0
H247 H 0.23959 0.58337 0.35666 0.0
H248 H 0.88516 0.41086 0.28311 0.0
H249 H 0.94786 0.50153 0.25616 0.0
H250 H 0.04605 0.58359 0.25058 0.0
H251 H 0.14378 0.63014 0.26985 0.0
Mn252 Mn 0.57622 0.65493 0.38907 0.0
Mn253 Mn 0.53032 0.63628 0.30706 0.0
C254 C 0.51411 0.56927 0.37048 0.0
C255 C 0.55806 0.64991 0.44914 0.0
C256 C 0.63897 0.6432 0.32673 0.0
O257 O 0.60548 0.73598 0.37198 0.0
O258 O 0.57779 0.7147 0.31703 0.0
C259 C 0.45783 0.68446 0.31981 0.0
N260 N 0.4636 0.64113 0.31025 0.0
C261 C 0.36447 0.58493 0.30481 0.0
C262 C 0.35763 0.62918 0.31415 0.0
C263 C 0.4045 0.67903 0.32191 0.0
C264 C 0.41869 0.59271 0.30335 0.0
H265 H 0.49358 0.72289 0.32595 0.0
C266 C 0.60542 0.75001 0.33982 0.0
O267 O 0.60838 0.66784 0.43685 0.0
O268 O 0.52436 0.65153 0.42675 0.0
N269 N 0.48243 0.5628 0.29303 0.0
C270 C 0.49654 0.5275 0.27842 0.0
C271 C 0.45461 0.47552 0.26905 0.0
C272 C 0.39842 0.46149 0.27291 0.0
C273 C 0.38491 0.50042 0.28473 0.0
C274 C 0.42863 0.55123 0.29417 0.0
H275 H 0.53926 0.53944 0.27318 0.0
O276 O 0.5444 0.57604 0.39688 0.0
O277 O 0.51927 0.6133 0.35561 0.0
O278 O 0.63619 0.65482 0.35833 0.0
O279 O 0.59995 0.63081 0.30461 0.0
C280 C 0.32996 0.49144 0.28639 0.0
C281 C 0.31969 0.53357 0.29662 0.0
H282 H 0.31669 0.62548 0.31529 0.0
H283 H 0.39959 0.71322 0.32953 0.0
H284 H 0.4656 0.44671 0.25832 0.0
H285 H 0.36614 0.42153 0.26542 0.0
H286 H 0.29535 0.45251 0.27933 0.0
H287 H 0.27728 0.52627 0.29764 0.0
Mn288 Mn 0.38031 0.94181 0.41319 0.0
Mn289 Mn 0.36346 0.92913 0.32597 0.0
C290 C 0.45728 0.97431 0.37571 0.0
C291 C 0.40632 0.92664 0.46887 0.0
C292 C 0.3648 0.0208 0.36566 0.0
O293 O 0.29336 0.88802 0.40987 0.0
O294 O 0.29371 0.89263 0.35203 0.0
C295 C 0.32448 0.81076 0.32892 0.0
N296 N 0.35838 0.86104 0.31468 0.0
C297 C 0.39248 0.82379 0.27117 0.0
C298 C 0.35758 0.77153 0.28512 0.0
C299 C 0.3239 0.76507 0.31439 0.0
C300 C 0.39232 0.86784 0.2874 0.0
H301 H 0.29787 0.80552 0.35108 0.0
C302 C 0.2674 0.87819 0.38072 0.0
O303 O 0.38149 0.95497 0.46406 0.0
O304 O 0.40296 0.89651 0.44266 0.0
N305 N 0.42507 0.96047 0.29421 0.0
C306 C 0.45369 0.01297 0.28283 0.0
C307 C 0.48808 0.02611 0.25335 0.0
C308 C 0.49171 0.98551 0.23481 0.0
C309 C 0.46009 0.93129 0.24608 0.0
C310 C 0.42668 0.92043 0.27598 0.0
H311 H 0.44889 0.04426 0.29546 0.0
O312 O 0.46109 0.99046 0.40709 0.0
O313 O 0.40818 0.93548 0.36683 0.0
O314 O 0.36577 1.00155 0.39544 0.0
O315 O 0.3683 1.0001 0.33684 0.0
C316 C 0.46013 0.88759 0.22874 0.0
C317 C 0.42694 0.8339 0.2416 0.0
H318 H 0.35632 0.73613 0.27359 0.0
H319 H 0.29712 0.72494 0.32548 0.0
H320 H 0.51011 0.06725 0.24452 0.0
H321 H 0.51825 0.99634 0.21182 0.0
H322 H 0.48591 0.89491 0.20571 0.0
H323 H 0.42773 0.80065 0.22834 0.0
Mn324 Mn 0.28968 0.24625 0.32003 0.0
Mn325 Mn 0.28753 0.23901 0.40767 0.0
C326 C 0.33162 0.20512 0.34928 0.0
C327 C 0.27389 0.2105 0.26362 0.0
C328 C 0.35928 0.34155 0.36698 0.0
O329 O 0.22271 0.25853 0.33234 0.0
O330 O 0.23161 0.2586 0.39099 0.0
C331 C 0.17602 0.1423 0.41845 0.0
N332 N 0.23218 0.16727 0.42222 0.0
C333 C 0.22501 0.08871 0.45207 0.0
C334 C 0.16706 0.06216 0.44841 0.0
C335 C 0.14248 0.08908 0.43149 0.0
C336 C 0.25626 0.14171 0.43848 0.0
H337 H 0.15714 0.1629 0.40561 0.0
C338 C 0.20989 0.26584 0.3636 0.0
O339 O 0.29546 0.26223 0.26903 0.0
O340 O 0.24972 0.17977 0.29077 0.0
N341 N 0.34015 0.22034 0.42619 0.0
C342 C 0.39662 0.25148 0.42733 0.0
C343 C 0.42777 0.23007 0.44271 0.0
C344 C 0.40049 0.17716 0.4571 0.0
C345 C 0.34225 0.1463 0.45624 0.0
C346 C 0.31344 0.1698 0.44055 0.0
H347 H 0.41778 0.29214 0.41622 0.0
O348 O 0.35133 0.22902 0.3196 0.0
O349 O 0.29142 0.21068 0.36262 0.0
O350 O 0.34021 0.32202 0.33759 0.0
O351 O 0.34628 0.31361 0.39516 0.0
C352 C 0.31165 0.0931 0.47023 0.0
C353 C 0.25305 0.0644 0.46827 0.0
H354 H 0.14108 0.02105 0.45835 0.0
H355 H 0.09778 0.06888 0.42852 0.0
H356 H 0.4727 0.25424 0.44337 0.0
H357 H 0.42466 0.16072 0.46884 0.0
H358 H 0.33278 0.07381 0.48247 0.0
H359 H 0.22999 0.0234 0.47895 0.0
Mn360 Mn 0.73597 0.06066 0.26756 0.0
Mn361 Mn 0.70221 0.15728 0.2503 0.0
C362 C 0.66354 0.06312 0.29756 0.0
C363 C 0.72142 0.97053 0.27421 0.0
C364 C 0.78915 0.17169 0.29982 0.0
O365 O 0.77376 0.08697 0.21847 0.0
O366 O 0.76216 0.16033 0.22025 0.0
C367 C 0.65282 0.10712 0.18346 0.0
N368 N 0.65148 0.13259 0.2129 0.0
C369 C 0.57016 0.13539 0.19443 0.0
C370 C 0.57133 0.11027 0.16357 0.0
C371 C 0.61236 0.09523 0.15828 0.0
C372 C 0.60979 0.14327 0.21935 0.0
H373 H 0.68371 0.09498 0.17968 0.0
C374 C 0.78457 0.13446 0.20699 0.0
O375 O 0.76908 0.01277 0.28085 0.0
O376 O 0.68757 0.98095 0.25713 0.0
N377 N 0.64611 0.16575 0.2748 0.0
C378 C 0.6528 0.19324 0.30484 0.0
C379 C 0.61538 0.21134 0.31408 0.0
C380 C 0.57346 0.20453 0.29123 0.0
C381 C 0.56912 0.17935 0.25953 0.0
C382 C 0.60739 0.16164 0.25191 0.0
H383 H 0.68807 0.20379 0.32103 0.0
O384 O 0.69348 0.04505 0.31149 0.0
O385 O 0.6766 0.08182 0.26575 0.0
O386 O 0.79543 0.13436 0.28595 0.0
O387 O 0.75141 0.18197 0.29014 0.0
C388 C 0.53003 0.17375 0.23445 0.0
C389 C 0.53003 0.15107 0.20202 0.0
H390 H 0.53993 0.10102 0.14436 0.0
H391 H 0.6129 0.07453 0.13496 0.0
H392 H 0.62048 0.23278 0.33804 0.0
H393 H 0.54656 0.22119 0.29749 0.0
H394 H 0.49961 0.18639 0.24008 0.0
H395 H 0.49893 0.14551 0.18322 0.0
Mn396 Mn 0.94267 0.69107 0.28583 0.0
Mn397 Mn 0.91665 0.69607 0.3711 0.0
C398 C 0.85353 0.6598 0.30721 0.0
C399 C 0.93492 0.70846 0.22729 0.0
C400 C 0.94298 0.6135 0.34085 0.0
O401 O 0.02203 0.74847 0.30359 0.0
O402 O 0.99722 0.74129 0.36057 0.0
C403 C 0.94584 0.81188 0.37261 0.0
N404 N 0.90787 0.75834 0.37805 0.0
C405 C 0.83864 0.78055 0.39799 0.0
C406 C 0.87703 0.83593 0.39276 0.0
C407 C 0.93082 0.85163 0.3799 0.0
C408 C 0.85586 0.74277 0.39005 0.0
H409 H 0.98724 0.82416 0.36276 0.0
C410 C 0.03421 0.75818 0.33624 0.0
O411 O 0.96155 0.68313 0.23636 0.0
O412 O 0.93001 0.73751 0.25148 0.0
N413 N 0.8398 0.65419 0.38471 0.0
C414 C 0.80759 0.59917 0.38807 0.0
C415 C 0.75196 0.57667 0.39959 0.0
C416 C 0.73047 0.61103 0.40827 0.0
C417 C 0.76498 0.6676 0.40557 0.0
C418 C 0.81985 0.68763 0.39365 0.0
H419 H 0.82419 0.57272 0.38185 0.0
O420 O 0.86236 0.63877 0.28005 0.0
O421 O 0.89741 0.69568 0.32289 0.0
O422 O 0.95331 0.63299 0.31014 0.0
O423 O 0.92461 0.6308 0.36544 0.0
C424 C 0.7471 0.70492 0.41426 0.0
C425 C 0.7838 0.76133 0.41049 0.0
H426 H 0.86559 0.8667 0.39837 0.0
H427 H 0.96065 0.89428 0.37566 0.0
H428 H 0.72577 0.53297 0.40185 0.0
H429 H 0.68754 0.59358 0.41713 0.0
H430 H 0.70521 0.69063 0.42382 0.0
H431 H 0.76924 0.78953 0.41695 0.0
Mn432 Mn 0.6846 0.74545 0.77123 0.0
Mn433 Mn 0.73363 0.77379 0.68805 0.0
C434 C 0.66111 0.79481 0.73329 0.0
C435 C 0.67249 0.7716 0.82758 0.0
C436 C 0.64036 0.66586 0.71146 0.0
O437 O 0.74997 0.7277 0.77321 0.0
O438 O 0.7709 0.74227 0.71561 0.0
C439 C 0.84496 0.86424 0.70519 0.0
N440 N 0.79702 0.84522 0.68722 0.0
C441 C 0.83013 0.9318 0.6582 0.0
C442 C 0.88024 0.95203 0.67601 0.0
C443 C 0.88746 0.91827 0.6999 0.0
C444 C 0.78885 0.87799 0.66515 0.0
H445 H 0.85036 0.83842 0.72355 0.0
C446 C 0.77547 0.72478 0.74541 0.0
O447 O 0.65044 0.72061 0.81937 0.0
O448 O 0.71211 0.80492 0.80668 0.0
N449 N 0.70075 0.80365 0.6577 0.0
C450 C 0.65154 0.77683 0.6409 0.0
C451 C 0.63727 0.80516 0.61667 0.0
C452 C 0.67462 0.86022 0.60904 0.0
C453 C 0.72638 0.8861 0.62518 0.0
C454 C 0.73796 0.85594 0.64943 0.0
H455 H 0.62318 0.7342 0.64615 0.0
O456 O 0.62844 0.76716 0.75875 0.0
O457 O 0.70619 0.79176 0.72959 0.0
O458 O 0.64431 0.67628 0.74366 0.0
O459 O 0.66787 0.70083 0.68746 0.0
C460 C 0.76761 0.9401 0.61739 0.0
C461 C 0.81957 0.96285 0.63377 0.0
H462 H 0.9132 0.9935 0.67173 0.0
H463 H 0.92578 0.93376 0.71406 0.0
H464 H 0.59772 0.78451 0.60377 0.0
H465 H 0.66361 0.88188 0.5902 0.0
H466 H 0.75991 0.96443 0.59872 0.0
H467 H 0.85089 0.0045 0.62767 0.0
Mn468 Mn 0.25588 0.98119 0.71763 0.0
Mn469 Mn 0.20795 0.96886 0.63621 0.0
C470 C 0.19482 0.89655 0.69505 0.0
C471 C 0.24896 0.97266 0.77855 0.0
C472 C 0.31819 0.97926 0.65243 0.0
O473 O 0.27723 0.0623 0.7059 0.0
O474 O 0.25328 0.04645 0.64963 0.0
C475 C 0.12999 0.00755 0.65711 0.0
N476 N 0.13895 0.96888 0.64233 0.0
C477 C 0.04027 0.90662 0.64008 0.0
C478 C 0.03015 0.94613 0.65486 0.0
C479 C 0.07525 0.99654 0.66379 0.0
C480 C 0.09578 0.91951 0.63473 0.0
H481 H 0.16433 0.04605 0.6644 0.0
C482 C 0.27691 0.07915 0.6745 0.0
O483 O 0.2969 0.99442 0.76246 0.0
O484 O 0.20762 0.96785 0.76021 0.0
N485 N 0.16336 0.89707 0.61885 0.0
C486 C 0.18034 0.86658 0.60065 0.0
C487 C 0.14052 0.81497 0.5892 0.0
C488 C 0.08358 0.79641 0.59523 0.0
C489 C 0.06702 0.83071 0.61121 0.0
C490 C 0.10873 0.88178 0.6218 0.0
H491 H 0.22409 0.88127 0.59547 0.0
O492 O 0.22819 0.90178 0.71934 0.0
O493 O 0.19755 0.9414 0.68384 0.0
O494 O 0.31666 0.99161 0.68381 0.0
O495 O 0.27822 0.96567 0.63114 0.0
C496 C 0.01086 0.81685 0.61626 0.0
C497 C 0.99748 0.85465 0.63096 0.0
H498 H 0.988 0.93798 0.65981 0.0
H499 H 0.06792 0.02665 0.6762 0.0
H500 H 0.15368 0.7896 0.57579 0.0
H501 H 0.05294 0.75651 0.58654 0.0
H502 H 0.97766 0.77738 0.60876 0.0
H503 H 0.95416 0.84346 0.63493 0.0
Mn504 Mn 0.05288 0.28297 0.73654 0.0
Mn505 Mn 0.03071 0.25576 0.65052 0.0
C506 C 0.12668 0.31711 0.69659 0.0
C507 C 0.09026 0.27859 0.79096 0.0
C508 C 0.0217 0.34627 0.68489 0.0
O509 O 0.96936 0.21961 0.73761 0.0
O510 O 0.96343 0.2155 0.67949 0.0
C511 C 0.0135 0.1446 0.66151 0.0
N512 N 0.03987 0.19343 0.64435 0.0
C513 C 0.09678 0.16604 0.61188 0.0
C514 C 0.0695 0.11518 0.6288 0.0
C515 C 0.02799 0.10459 0.65396 0.0
C516 C 0.08171 0.20491 0.6213 0.0
H517 H 0.98214 0.13655 0.68105 0.0
C518 C 0.94101 0.20217 0.70954 0.0
O519 O 0.05981 0.30177 0.78768 0.0
O520 O 0.08615 0.24692 0.76577 0.0
N521 N 0.08868 0.29011 0.61606 0.0
C522 C 0.09591 0.33194 0.5946 0.0
C523 C 0.13136 0.34584 0.56532 0.0
C524 C 0.1555 0.31379 0.55666 0.0
C525 C 0.14226 0.26716 0.57669 0.0
C526 C 0.1066 0.25563 0.60562 0.0
H527 H 0.07507 0.35499 0.60014 0.0
O528 O 0.13047 0.33972 0.7259 0.0
O529 O 0.07957 0.27371 0.69064 0.0
O530 O 0.02564 0.33223 0.71584 0.0
O531 O 0.02536 0.32263 0.65748 0.0
C532 C 0.15931 0.22941 0.56737 0.0
C533 C 0.13717 0.17912 0.58534 0.0
H534 H 0.07978 0.0839 0.62237 0.0
H535 H 0.00714 0.06568 0.66745 0.0
H536 H 0.13915 0.38048 0.54912 0.0
H537 H 0.18222 0.32408 0.53379 0.0
H538 H 0.18784 0.2378 0.54564 0.0
H539 H 0.1498 0.14994 0.57761 0.0
Mn540 Mn 0.95204 0.57981 0.64717 0.0
Mn541 Mn 0.9529 0.56717 0.73421 0.0
C542 C 0.99183 0.53348 0.67289 0.0
C543 C 0.92857 0.54209 0.59131 0.0
C544 C 0.02906 0.67078 0.69499 0.0
O545 O 0.88963 0.59756 0.66244 0.0
O546 O 0.89952 0.59224 0.72056 0.0
C547 C 0.83917 0.4728 0.7424 0.0
N548 N 0.89511 0.49504 0.74613 0.0
C549 C 0.88439 0.4093 0.76623 0.0
C550 C 0.82664 0.3855 0.7624 0.0
C551 C 0.80393 0.41747 0.75054 0.0
C552 C 0.91735 0.46467 0.75773 0.0
H553 H 0.82178 0.49709 0.73309 0.0
C554 C 0.87854 0.60361 0.69437 0.0
O555 O 0.95528 0.59449 0.59575 0.0
O556 O 0.90455 0.51409 0.61928 0.0
N557 N 0.00295 0.54339 0.75035 0.0
C558 C 0.05906 0.57333 0.75441 0.0
C559 C 0.08813 0.54804 0.7675 0.0
C560 C 0.05917 0.49237 0.77641 0.0
C561 C 0.0012 0.46279 0.77293 0.0
C562 C 0.9744 0.49049 0.76044 0.0
H563 H 0.08152 0.61605 0.74736 0.0
O564 O 0.00995 0.55757 0.64321 0.0
O565 O 0.95405 0.54108 0.68804 0.0
O566 O 0.00836 0.65354 0.6654 0.0
O567 O 0.01452 0.64142 0.72275 0.0
C568 C 0.96893 0.40698 0.78143 0.0
C569 C 0.91058 0.38017 0.77791 0.0
H570 H 0.79938 0.34277 0.7685 0.0
H571 H 0.7594 0.39944 0.7475 0.0
H572 H 0.13282 0.57127 0.77035 0.0
H573 H 0.08182 0.47282 0.78602 0.0
H574 H 0.98857 0.3843 0.79073 0.0
H575 H 0.8862 0.33722 0.78444 0.0
Mn576 Mn 0.41401 0.38423 0.60582 0.0
Mn577 Mn 0.39905 0.49654 0.61129 0.0
C578 C 0.34473 0.38507 0.63989 0.0
C579 C 0.38292 0.29064 0.5994 0.0
C580 C 0.48556 0.48259 0.64914 0.0
O581 O 0.45539 0.42696 0.55976 0.0
O582 O 0.44906 0.50226 0.5723 0.0
C583 C 0.34086 0.48708 0.54541 0.0
N584 N 0.34382 0.49333 0.58038 0.0
C585 C 0.26428 0.50705 0.58137 0.0
C586 C 0.26051 0.50082 0.54532 0.0
C587 C 0.29878 0.49043 0.5273 0.0
C588 C 0.3068 0.50273 0.59802 0.0
H589 H 0.37013 0.47927 0.53155 0.0
C590 C 0.46716 0.47696 0.55348 0.0
O591 O 0.43397 0.3246 0.60753 0.0
O592 O 0.35702 0.31346 0.58503 0.0
N593 N 0.35093 0.49677 0.64748 0.0
C594 C 0.35625 0.49549 0.68245 0.0
C595 C 0.31913 0.50203 0.70449 0.0
C596 C 0.27765 0.51105 0.69032 0.0
C597 C 0.27317 0.51259 0.65422 0.0
C598 C 0.31076 0.50483 0.6336 0.0
H599 H 0.3884 0.48932 0.69333 0.0
O600 O 0.36741 0.35623 0.64825 0.0
O601 O 0.3663 0.41719 0.61302 0.0
O602 O 0.47823 0.44017 0.63384 0.0
O603 O 0.45571 0.5049 0.64439 0.0
C604 C 0.23181 0.51986 0.63789 0.0
C605 C 0.22702 0.51656 0.6015 0.0
H606 H 0.22812 0.50342 0.53128 0.0
H607 H 0.29601 0.48527 0.4995 0.0
H608 H 0.32277 0.50054 0.73233 0.0
H609 H 0.24911 0.51612 0.70739 0.0
H610 H 0.20226 0.52607 0.65313 0.0
H611 H 0.19396 0.52047 0.58933 0.0
Mn612 Mn 0.6208 0.02352 0.61298 0.0
Mn613 Mn 0.60359 0.05608 0.69443 0.0
C614 C 0.53388 1.00118 0.63475 0.0
C615 C 0.60949 0.02919 0.55257 0.0
C616 C 0.62012 0.96111 0.67809 0.0
O617 O 0.7031 0.08146 0.62494 0.0
O618 O 0.68411 0.09397 0.68043 0.0
C619 C 0.63632 0.17085 0.67835 0.0
N620 N 0.59794 0.12083 0.69081 0.0
C621 C 0.53164 0.15129 0.7017 0.0
C622 C 0.57066 0.20323 0.68909 0.0
C623 C 0.62322 0.213 0.67728 0.0
C624 C 0.54689 0.11077 0.70168 0.0
H625 H 0.67639 0.17827 0.66921 0.0
C626 C 0.71871 0.10134 0.65562 0.0
O627 O 0.63059 1.00036 0.56506 0.0
O628 O 0.61066 0.06466 0.57401 0.0
N629 N 0.52849 0.02215 0.7119 0.0
C630 C 0.49787 0.97149 0.72643 0.0
C631 C 0.44499 0.95571 0.74086 0.0
C632 C 0.42454 0.99245 0.74072 0.0
C633 C 0.45777 0.04514 0.72696 0.0
C634 C 0.51038 0.05869 0.71328 0.0
H635 H 0.51364 0.94326 0.72694 0.0
O636 O 0.53958 0.97306 0.61073 0.0
O637 O 0.57942 0.04065 0.64682 0.0
O638 O 0.62894 0.97088 0.64559 0.0
O639 O 0.60663 0.98794 0.69885 0.0
C640 C 0.44148 0.08523 0.72722 0.0
C641 C 0.47835 0.13824 0.71451 0.0
H642 H 0.56075 0.23589 0.6884 0.0
H643 H 0.65358 0.25293 0.66741 0.0
H644 H 0.42001 0.9153 0.75203 0.0
H645 H 0.38373 0.98004 0.7518 0.0
H646 H 0.40093 0.07592 0.73743 0.0
H647 H 0.46547 0.1688 0.71498 0.0
C648 C 0.46069 0.97385 0.0759 0.0
C649 C 0.49373 0.03101 0.08043 0.0
C650 C 0.57435 0.02621 0.05617 0.0
C651 C 0.53916 0.97109 0.04576 0.0
N652 N 0.44756 0.89253 0.04626 0.0
N653 N 0.58242 0.11191 0.0739 0.0
C654 C 0.48187 0.94494 0.05587 0.0
C655 C 0.55071 0.05695 0.07046 0.0
N656 N 0.40882 0.94723 0.09101 0.0
N657 N 0.63094 0.04945 0.05339 0.0
H658 H 0.56844 0.13426 0.08804 0.0
H659 H 0.62155 0.13519 0.06214 0.0
H660 H 0.65109 0.03088 0.04168 0.0
H661 H 0.65837 0.08609 0.06485 0.0
H662 H 0.3834 0.90516 0.09119 0.0
H663 H 0.39342 0.96732 0.1063 0.0
H664 H 0.40444 0.87265 0.04952 0.0
H665 H 0.46199 0.86988 0.03282 0.0
C666 C -0.00052 0.51162 1.00052 0.0
C667 C 0.98273 0.46701 0.97786 0.0
C668 C 0.02605 0.5344 0.92898 0.0
C669 C 0.04784 0.57826 0.95198 0.0
N670 N 0.06692 0.60535 1.01213 0.0
N671 N 0.00608 0.44258 0.9215 0.0
C672 C 0.03904 0.56577 0.98851 0.0
C673 C 0.00329 0.48016 0.94232 0.0
N674 N 0.97568 0.50379 0.03283 0.0
N675 N 0.02854 0.54396 0.89404 0.0
H676 H -0.00133 0.40456 0.93001 0.0
H677 H 0.02463 0.45231 0.89682 0.0
H678 H 0.0482 0.58297 0.88292 0.0
H679 H 0.00756 0.51283 0.87646 0.0
H680 H 0.98283 0.5358 0.04904 0.0
H681 H 0.9437 0.46646 0.04188 0.0
H682 H 0.06579 0.59686 0.03858 0.0
H683 H 0.09531 0.64546 1.00547 0.0
C684 C 0.48099 0.49995 0.98441 0.0
C685 C 0.44159 0.4535 1.00337 0.0
C686 C 0.51432 0.47175 0.0476 0.0
C687 C 0.55274 0.51991 0.02961 0.0
N688 N 0.56726 0.58454 0.98317 0.0
N689 N 0.41916 0.40098 0.05757 0.0
C690 C 0.53423 0.53507 0.99874 0.0
C691 C 0.4577 0.44145 0.03638 0.0
N692 N 0.46794 0.5113 0.95242 0.0
N693 N 0.53253 0.45253 0.07417 0.0
H694 H 0.37915 0.37302 0.05018 0.0
H695 H 0.42634 0.39636 0.08351 0.0
H696 H 0.57284 0.47385 0.08357 0.0
H697 H 0.50906 0.4137 0.08513 0.0
H698 H 0.49753 0.53879 0.93475 0.0
H699 H 0.42808 0.49126 0.94235 0.0
H700 H 0.55357 0.602 0.96455 0.0
H701 H 0.60724 0.61061 0.99086 0.0
C702 C 0.10395 0.29328 0.40983 0.0
C703 C 0.13138 0.35097 0.40797 0.0
C704 C 0.20344 0.35092 0.36934 0.0
C705 C 0.1759 0.29321 0.3707 0.0
N706 N 0.09476 0.2092 0.38667 0.0
N707 N 0.21514 0.43399 0.39542 0.0
C708 C 0.12484 0.26434 0.38977 0.0
C709 C 0.18363 0.37941 0.39043 0.0
N710 N 0.0588 0.26646 0.43159 0.0
N711 N 0.248 0.37851 0.34721 0.0
H712 H 0.20303 0.45355 0.41359 0.0
H713 H 0.25478 0.45833 0.38475 0.0
H714 H 0.26278 0.35887 0.33102 0.0
H715 H 0.26744 0.42033 0.34283 0.0
H716 H 0.03891 0.22478 0.43668 0.0
H717 H 0.04388 0.287 0.44684 0.0
H718 H 0.05525 0.18492 0.39757 0.0
H719 H 0.10757 0.18852 0.36987 0.0
C720 C 0.66513 0.81667 0.2906 0.0
C721 C 0.64177 0.80831 0.32529 0.0
C722 C 0.68623 0.90883 0.32871 0.0
C723 C 0.70023 0.91555 0.29246 0.0
N724 N 0.6949 0.87279 0.23807 0.0
N725 N 0.62302 0.84989 0.37425 0.0
C726 C 0.68687 0.86847 0.27324 0.0
C727 C 0.6508 0.85544 0.34361 0.0
N728 N 0.66969 0.77617 0.27435 0.0
N729 N 0.70685 0.95331 0.34933 0.0
H730 H 0.59484 0.81231 0.38531 0.0
H731 H 0.62331 0.88258 0.38674 0.0
H732 H 0.73411 0.99248 0.34013 0.0
H733 H 0.70216 0.95049 0.37624 0.0
H734 H 0.69147 0.78227 0.25096 0.0
H735 H 0.65832 0.73856 0.28569 0.0
H736 H 0.67932 0.83907 0.22209 0.0
H737 H 0.71368 0.91005 0.22466 0.0
C738 C 0.11252 0.76859 0.37637 0.0
C739 C 0.09363 0.79015 0.34891 0.0
C740 C 0.1842 0.87451 0.34975 0.0
C741 C 0.20451 0.85232 0.37613 0.0
N742 N 0.18211 0.7827 0.41958 0.0
N743 N 0.10621 0.86999 0.31835 0.0
C744 C 0.16668 0.80086 0.39109 0.0
C745 C 0.12809 0.84483 0.33812 0.0
N746 N 0.0792 0.71627 0.38798 0.0
N747 N 0.21908 0.92417 0.33479 0.0
H748 H 0.06559 0.8501 0.30932 0.0
H749 H 0.12621 0.91182 0.31362 0.0
H750 H 0.25785 0.95104 0.34438 0.0
H751 H 0.21067 0.93798 0.31173 0.0
H752 H 0.0925 0.69523 0.40398 0.0
H753 H 0.03874 0.6916 0.37984 0.0
H754 H 0.15496 0.74884 0.43455 0.0
H755 H 0.22116 0.80421 0.43053 0.0
C756 C 0.79417 0.60495 0.7206 0.0
C757 C 0.84735 0.63337 0.70375 0.0
C758 C 0.85954 0.71883 0.72848 0.0
C759 C 0.80481 0.69174 0.74296 0.0
N760 N 0.71902 0.60815 0.75271 0.0
N761 N 0.92472 0.71925 0.68537 0.0
C762 C 0.7722 0.63424 0.73946 0.0
C763 C 0.87816 0.69094 0.70584 0.0
N764 N 0.76417 0.54978 0.71767 0.0
N765 N 0.89397 0.77168 0.73702 0.0
H766 H 0.9388 0.7002 0.66817 0.0
H767 H 0.94633 0.76151 0.68315 0.0
H768 H 0.88188 0.79078 0.75553 0.0
H769 H 0.93544 0.79425 0.72886 0.0
H770 H 0.72823 0.52471 0.73212 0.0
H771 H 0.776 0.52912 0.70022 0.0
H772 H 0.68995 0.56789 0.74784 0.0
H773 H 0.70346 0.62767 0.76837 0.0
C774 C 0.29988 0.21443 0.6361 0.0
C775 C 0.35249 0.23421 0.61762 0.0
C776 C 0.36098 0.15869 0.64563 0.0
C777 C 0.30861 0.13866 0.66297 0.0
N778 N 0.23541 0.15473 0.6817 0.0
N779 N 0.42611 0.21642 0.60033 0.0
C780 C 0.28025 0.16876 0.66007 0.0
C781 C 0.38125 0.20408 0.6216 0.0
N782 N 0.26668 0.23692 0.63001 0.0
N783 N 0.39246 0.13501 0.65324 0.0
H784 H 0.43997 0.24666 0.58104 0.0
H785 H 0.44592 0.19322 0.59904 0.0
H786 H 0.37864 0.10224 0.67067 0.0
H787 H 0.43378 0.15075 0.64517 0.0
H788 H 0.22619 0.22079 0.63974 0.0
H789 H 0.2757 0.26843 0.61264 0.0
H790 H 0.2154 0.17754 0.68465 0.0
H791 H 0.22199 0.12285 0.69984 0.0
C792 C 0.80195 0.09429 0.67715 0.0
C793 C 0.77899 0.12775 0.66694 0.0
C794 C 0.85173 0.2024 0.70107 0.0
C795 C 0.87824 0.17121 0.70792 0.0
N796 N 0.87641 0.08593 0.70531 0.0
N797 N 0.78849 0.2167 0.66462 0.0
C798 C 0.8521 0.11641 0.69698 0.0
C799 C 0.80559 0.1826 0.67799 0.0
N800 N 0.77497 0.04078 0.66845 0.0
N801 N 0.87155 0.25159 0.71656 0.0
H802 H 0.75971 0.20454 0.64474 0.0
H803 H 0.8067 0.25785 0.67016 0.0
H804 H 0.90506 0.26629 0.73338 0.0
H805 H 0.85202 0.27508 0.71541 0.0
H806 H 0.78396 0.01208 0.67901 0.0
H807 H 0.74129 0.02434 0.65185 0.0
H808 H 0.86473 0.04777 0.69541 0.0
H809 H 0.90948 0.10005 0.72246 0.0
C810 C 0.28651 0.11101 0.19997 0.0
C811 C 0.34546 0.13942 0.19252 0.0
C812 C 0.34847 0.22028 0.21906 0.0
C813 C 0.2935 0.18877 0.23346 0.0
N814 N 0.20974 0.10144 0.23652 0.0
N815 N 0.43331 0.22068 0.2021 0.0
C816 C 0.26283 0.13313 0.22396 0.0
C817 C 0.37653 0.19375 0.20443 0.0
N818 N 0.25151 0.06564 0.18203 0.0
N819 N 0.37345 0.27569 0.21711 0.0
H820 H 0.45589 0.20295 0.19241 0.0
H821 H 0.45785 0.25831 0.21344 0.0
H822 H 0.35206 0.29685 0.22158 0.0
H823 H 0.41218 0.29975 0.205 0.0
H824 H 0.20828 0.04708 0.18422 0.0
H825 H 0.26392 0.05023 0.16156 0.0
H826 H 0.18855 0.05914 0.23499 0.0
H827 H 0.18747 0.11743 0.24913 0.0
C828 C 0.87927 0.25884 0.15371 0.0
C829 C 0.85372 0.24505 0.12069 0.0
C830 C 0.79708 0.14864 0.14226 0.0
C831 C 0.82047 0.16369 0.17546 0.0
N832 N 0.89279 0.22875 0.21062 0.0
N833 N 0.78868 0.17335 0.08334 0.0
C834 C 0.86478 0.21753 0.18017 0.0
C835 C 0.81279 0.18894 0.11494 0.0
N836 N 0.9151 0.31229 0.1605 0.0
N837 N 0.75731 0.09567 0.13755 0.0
H838 H 0.78816 0.19992 0.0649 0.0
H839 H 0.76815 0.13335 0.07505 0.0
H840 H 0.74897 0.06537 0.15613 0.0
H841 H 0.73168 0.08145 0.11621 0.0
H842 H 0.93172 0.32654 0.18471 0.0
H843 H 0.92471 0.34362 0.14249 0.0
H844 H 0.92843 0.26535 0.2157 0.0
H845 H 0.88277 0.19883 0.22982 0.0
C846 C 0.88394 0.72645 0.17829 0.0
C847 C 0.89222 0.68832 0.1982 0.0
C848 C 0.80176 0.61512 0.17611 0.0
C849 C 0.79646 0.65225 0.1536 0.0
N850 N 0.84072 0.74423 0.12941 0.0
N851 N 0.86131 0.59214 0.20902 0.0
C852 C 0.83956 0.70823 0.15381 0.0
C853 C 0.85208 0.63154 0.19492 0.0
N854 N 0.91892 0.78086 0.18256 0.0
N855 N 0.75728 0.56398 0.18081 0.0
H856 H 0.89582 0.59928 0.22318 0.0
H857 H 0.83683 0.55103 0.20352 0.0
H858 H 0.71963 0.55095 0.16824 0.0
H859 H 0.75535 0.53686 0.2 0.0
H860 H 0.91051 0.81075 0.1732 0.0
H861 H 0.95515 0.79614 0.19695 0.0
H862 H 0.875 0.78275 0.12508 0.0
H863 H 0.80985 0.73513 0.11145 0.0
C864 C 0.59018 0.84178 0.86288 0.0
C865 C 0.57082 0.81561 0.89574 0.0
C866 C 0.62016 0.76337 0.88467 0.0
C867 C 0.6418 0.79086 0.85226 0.0
N868 N 0.6398 0.85301 0.80873 0.0
N869 N 0.5472 0.734 0.92891 0.0
C870 C 0.62482 0.82929 0.84096 0.0
C871 C 0.5798 0.77114 0.90398 0.0
N872 N 0.5753 0.87926 0.8526 0.0
N873 N 0.63966 0.73101 0.89787 0.0
H874 H 0.51256 0.73406 0.93999 0.0
H875 H 0.54905 0.6988 0.93464 0.0
H876 H 0.67023 0.72566 0.8852 0.0
H877 H 0.62998 0.7143 0.92289 0.0
H878 H 0.59487 0.90764 0.83255 0.0
H879 H 0.54277 0.88201 0.86477 0.0
H880 H 0.62017 0.8716 0.79624 0.0
H881 H 0.67161 0.85429 0.79365 0.0
C882 C 0.21548 0.91724 0.87267 0.0
C883 C 0.18988 0.85969 0.86711 0.0
C884 C 0.22902 0.88337 0.8078 0.0
C885 C 0.23779 0.93735 0.81074 0.0
N886 N 0.2392 0.00569 0.84792 0.0
N887 N 0.17067 0.78922 0.82528 0.0
C888 C 0.2309 0.95432 0.8438 0.0
C889 C 0.19644 0.84289 0.83358 0.0
N890 N 0.22707 0.93671 0.90555 0.0
N891 N 0.25466 0.87127 0.78175 0.0
H892 H 0.14605 0.75781 0.84262 0.0
H893 H 0.17048 0.77649 0.79996 0.0
H894 H 0.28523 0.90153 0.76583 0.0
H895 H 0.25206 0.83329 0.77969 0.0
H896 H 0.24902 0.97813 0.91082 0.0
H897 H 0.22101 0.91149 0.92702 0.0
H898 H 0.22942 0.01839 0.87098 0.0
H899 H 0.25276 0.03426 0.82758 0.0
C900 C 0.23045 0.37336 0.83708 0.0
C901 C 0.24151 0.33485 0.85412 0.0
C902 C 0.1521 0.26085 0.83185 0.0
C903 C 0.13991 0.299 0.81537 0.0
N904 N 0.16952 0.39394 0.80276 0.0
N905 N 0.22197 0.24137 0.85467 0.0
C906 C 0.17976 0.35594 0.81809 0.0
C907 C 0.20501 0.27844 0.84779 0.0
N908 N 0.2712 0.42685 0.83691 0.0
N909 N 0.11177 0.20733 0.83375 0.0
H910 H 0.26246 0.25235 0.86139 0.0
H911 H 0.19906 0.20053 0.84819 0.0
H912 H 0.07237 0.19302 0.82332 0.0
H913 H 0.11503 0.17835 0.84892 0.0
H914 H 0.27004 0.45792 0.82296 0.0
H915 H 0.30969 0.43972 0.84834 0.0
H916 H 0.19154 0.4353 0.80777 0.0
H917 H 0.13763 0.38496 0.78561 0.0
C918 C 0.02244 0.52802 0.52278 0.0
C919 C 0.00481 0.4713 0.5247 0.0
C920 C 0.92798 0.45919 0.56441 0.0
C921 C 0.94542 0.51584 0.56238 0.0
N922 N 0.9962 0.59803 0.52803 0.0
N923 N 0.95441 0.38933 0.55925 0.0
C924 C 0.98903 0.54854 0.53825 0.0
C925 C 0.96128 0.43866 0.54888 0.0
N926 N 0.07359 0.5634 0.50876 0.0
N927 N 0.87724 0.42398 0.57901 0.0
H928 H 0.98214 0.37608 0.55173 0.0
H929 H 0.92679 0.36567 0.57907 0.0
H930 H 0.84882 0.43641 0.58648 0.0
H931 H 0.8602 0.38185 0.5789 0.0
H932 H 0.09057 0.6055 0.50906 0.0
H933 H 0.10257 0.55134 0.50206 0.0
H934 H 0.02408 0.62181 0.50834 0.0
H935 H 0.96843 0.61129 0.53543 0.0
C936 C 0.57108 0.6055 0.50467 0.0
C937 C 0.53543 0.6066 0.47845 0.0
C938 C 0.46934 0.50971 0.49316 0.0
C939 C 0.5002 0.51078 0.52225 0.0
N940 N 0.5811 0.56078 0.55643 0.0
N941 N 0.43911 0.56247 0.4599 0.0
C942 C 0.55179 0.55898 0.5278 0.0
C943 C 0.48138 0.55938 0.47585 0.0
N944 N 0.62264 0.6497 0.50846 0.0
N945 N 0.42628 0.46121 0.48312 0.0
H946 H 0.44107 0.59926 0.45351 0.0
H947 H 0.39872 0.52962 0.45902 0.0
H948 H 0.41651 0.42474 0.49595 0.0
H949 H 0.40456 0.45713 0.46042 0.0
H950 H 0.65346 0.64923 0.52352 0.0
H951 H 0.63473 0.68707 0.49623 0.0
H952 H 0.61525 0.59594 0.56526 0.0
H953 H 0.56932 0.52622 0.57193 0.0
C954 C 0.52678 0.02829 0.52298 0.0
C955 C 0.5633 0.00629 0.52545 0.0
C956 C 0.49162 0.92455 0.49502 0.0
C957 C 0.45434 0.94611 0.49467 0.0
N958 N 0.43091 0.00762 0.52381 0.0
N959 N 0.58616 0.94043 0.50303 0.0
C960 C 0.47033 0.99477 0.51319 0.0
C961 C 0.54711 0.95602 0.50857 0.0
N962 N 0.5467 0.08252 0.52788 0.0
N963 N 0.47245 0.87216 0.48504 0.0
H964 H 0.62792 0.96536 0.509 0.0
H965 H 0.57933 0.90692 0.48851 0.0
H966 H 0.43083 0.84651 0.47908 0.0
H967 H 0.49514 0.85182 0.48712 0.0
H968 H 0.52264 0.10122 0.52404 0.0
H969 H 0.58911 0.10978 0.53042 0.0
H970 H 0.4402 0.04107 0.53915 0.0
H971 H 0.38837 0.98041 0.52204 0.0
C972 C 0.23037 0.91862 0.05999 0.0
C973 C 0.28541 0.94605 0.04585 0.0
C974 C 0.2599 0.87927 1.00035 0.0
C975 C 0.20433 0.85392 1.01344 0.0
N976 N 0.14326 0.83356 0.06293 0.0
N977 N 0.35672 0.94026 1.0121 0.0
C978 C 0.1921 0.86804 0.04605 0.0
C979 C 0.30162 0.92182 0.01941 0.0
N980 N 0.21288 0.94229 0.08418 0.0
N981 N 0.27252 0.86648 0.96864 0.0
H982 H 0.3885 0.97211 0.02539 0.0
H983 H 0.37062 0.92049 0.99539 0.0
H984 H 0.24406 0.83508 0.9535 0.0
H985 H 0.31112 0.88958 0.95621 0.0
H986 H 0.17131 0.92559 0.09209 0.0
H987 H 0.23826 0.98061 0.09426 0.0
H988 H 0.13363 0.8401 0.08802 0.0
H989 H 0.11565 0.79549 0.05302 0.0
C990 C 0.09145 0.3627 0.96596 0.0
C991 C 0.04388 0.31217 0.97407 0.0
C992 C 0.09976 0.26737 0.97727 0.0
C993 C 0.14738 0.31749 0.96831 0.0
N994 N 0.1875 0.41073 0.94702 0.0
N995 N 0.00884 0.22544 1.00401 0.0
C996 C 0.14311 0.36471 0.9607 0.0
C997 C 0.04923 0.26658 0.98409 0.0
N998 N 0.08837 0.40955 0.96703 0.0
N999 N 0.1026 0.22046 0.97951 0.0
H1000 H 0.97496 0.22728 1.0146 0.0
H1001 H 0.01292 0.19345 1.01446 0.0
H1002 H 0.13952 0.21932 0.97646 0.0
H1003 H 0.0674 0.18204 0.9818 0.0
H1004 H 0.12286 0.4484 0.96504 0.0
H1005 H 0.05228 0.40999 0.9747 0.0
H1006 H 0.18428 0.44325 0.93667 0.0
H1007 H 0.22695 0.41538 0.94333 0.0
C1008 C 0.64443 0.7238 1.01363 0.0
C1009 C 0.6911 0.72562 0.99595 0.0
C1010 C 0.72016 0.8185 0.97591 0.0
C1011 C 0.67164 0.81495 0.99155 0.0
N1012 N 0.57897 0.75447 0.01684 0.0
N1013 N 0.7634 0.7696 0.95193 0.0
C1014 C 0.63136 0.76527 1.00765 0.0
C1015 C 0.72594 0.77134 0.97446 0.0
N1016 N 0.6106 0.68174 0.03572 0.0
N1017 N 0.76158 0.86733 0.96316 0.0
H1018 H 0.76712 0.73515 0.94904 0.0
H1019 H 0.78559 0.79968 0.93317 0.0
H1020 H 0.75967 0.90322 0.96449 0.0
H1021 H 0.80012 0.87335 0.95446 0.0
H1022 H 0.57692 0.68053 0.04921 0.0
H1023 H 0.61606 0.64878 0.04172 0.0
H1024 H 0.56224 0.77976 1.01192 0.0
H1025 H 0.56224 0.77976 1.01192 0.0
C1026 C 0.72157 0.09644 0.98439 0.0
C1027 C 0.74212 0.05922 0.98542 0.0
C1028 C 0.83715 0.13411 0.98186 0.0
C1029 C 0.81685 0.17045 0.98906 0.0
N1030 N 0.73919 0.18611 0.99941 0.0
N1031 N 0.81763 0.04072 0.97768 0.0
C1032 C 0.75891 0.15198 0.99015 0.0
C1033 C 0.79957 0.07757 0.98171 0.0
N1034 N 0.66668 0.0791 0.97833 0.0
N1035 N 0.89231 0.15439 0.97432 0.0
H1036 H 0.79019 0.99972 0.97318 0.0
H1037 H 0.85907 0.05016 0.97895 0.0
H1038 H 0.91867 0.196 0.97109 0.0
H1039 H 0.91054 0.13117 0.9673 0.0
H1040 H 0.65148 0.10575 0.97354 0.0
H1041 H 0.63693 0.0385 0.97518 0.0
H1042 H 0.69735 0.17262 1.00517 0.0
H1043 H 0.76478 0.22744 1.00369 0.0
C1044 C 0.87574 0.70376 0.98863 0.0
C1045 C 0.85432 0.66262 1.01457 0.0
C1046 C 0.92963 0.64362 1.00293 0.0
C1047 C 0.95569 0.69129 0.98164 0.0
N1048 N 0.92874 0.73216 0.93631 0.0
N1049 N 0.86034 0.59248 0.04744 0.0
C1050 C 0.92234 0.71204 0.96906 0.0
C1051 C 0.88088 0.63192 0.02199 0.0
N1052 N 0.85028 0.7333 0.98131 0.0
N1053 N 0.94585 0.60541 1.00033 0.0
H1054 H 0.82346 0.58149 0.06127 0.0
H1055 H 0.88198 0.57334 0.05635 0.0
H1056 H 0.97236 0.60758 0.98024 0.0
H1057 H 0.92529 0.56758 1.0129 0.0
H1058 H 0.8624 0.75982 0.95995 0.0
H1059 H 0.81889 0.73223 0.99714 0.0
H1060 H 0.95511 0.72936 0.91782 0.0
H1061 H 0.95511 0.72936 0.91782 0.0
C1062 C 0.35972 0.25672 0.02954 0.0
C1063 C 0.30351 0.23875 0.02143 0.0
C1064 C 0.27701 0.1475 0.04292 0.0
C1065 C 0.33222 0.16728 0.05442 0.0
N1066 N 0.42192 0.24476 0.06722 0.0
N1067 N 0.20812 0.16506 0.01903 0.0
C1068 C 0.37255 0.22306 0.05019 0.0
C1069 C 0.26207 0.18405 0.02787 0.0
N1070 N 0.40122 0.30496 0.0163 0.0
N1071 N 0.23849 0.09344 0.0458 0.0
H1072 H 0.19363 0.18891 1.00714 0.0
H1073 H 0.19363 0.18891 1.00714 0.0
H1074 H 0.24804 0.06407 0.05474 0.0
H1075 H 0.19753 0.07785 0.0377 0.0
H1076 H 0.4434 0.31819 0.01951 0.0
H1077 H 0.39368 0.32907 0.99905 0.0
H1078 H 0.45001 0.28639 0.06748 0.0
H1079 H 0.43246 0.22242 0.08411 0.0
C1080 C 0.85212 0.26978 0.37441 0.0
C1081 C 0.9004 0.26652 0.38019 0.0
C1082 C 0.86138 0.18579 0.34502 0.0
C1083 C 0.82548 0.20263 0.32916 0.0
N1084 N 0.80137 0.27563 0.32669 0.0
N1085 N 0.95233 0.22002 0.36986 0.0
C1086 C 0.82373 0.24831 0.3435 0.0
C1087 C 0.90554 0.22387 0.36522 0.0
N1088 N 0.83572 0.29617 0.39691 0.0
N1089 N 0.85208 0.13374 0.34313 0.0
H1090 H 0.9845 0.24718 0.38534 0.0
H1091 H 0.95968 0.19193 0.35678 0.0
H1092 H 0.81483 0.10153 0.33466 0.0
H1093 H 0.8772 0.12112 0.35564 0.0
H1094 H 0.79883 0.29743 0.39377 0.0
H1095 H 0.85656 0.31178 0.42001 0.0
H1096 H 0.80217 0.30995 0.33716 0.0
H1097 H 0.7916 0.27113 0.30056 0.0
C1098 C 0.74984 0.60482 0.3096 0.0
C1099 C 0.79869 0.65629 0.31126 0.0
C1100 C 0.74218 0.70004 0.31927 0.0
C1101 C 0.69311 0.64882 0.31581 0.0
N1102 N 0.65189 0.55541 0.2981 0.0
N1103 N 0.83957 0.75426 0.30448 0.0
C1104 C 0.69744 0.60217 0.3078 0.0
C1105 C 0.79454 0.70443 0.31209 0.0
N1106 N 0.75314 0.55814 0.31095 0.0
N1107 N 0.7394 0.74459 0.33015 0.0
H1108 H 0.87875 0.76024 0.29765 0.0
H1109 H 0.83658 0.78939 0.30113 0.0
H1110 H 0.70231 0.74424 0.33573 0.0
H1111 H 0.77439 0.78116 0.33637 0.0
H1112 H 0.71852 0.51955 0.31427 0.0
H1113 H 0.79075 0.55819 0.31205 0.0
H1114 H 0.65372 0.52202 0.28838 0.0
H1115 H 0.6131 0.55224 0.29642 0.0
C1116 C 0.29468 0.10624 0.36499 0.0
C1117 C 0.3407 0.15944 0.35906 0.0
C1118 C 0.40298 0.12103 0.35611 0.0
C1119 C 0.3576 0.06918 0.36501 0.0
N1120 N 0.2652 0.01816 0.39096 0.0
N1121 N 0.44028 0.21879 0.35632 0.0
C1122 C 0.30519 0.0637 0.37402 0.0
C1123 C 0.39556 0.16729 0.35719 0.0
N1124 N 0.24108 0.0945 0.35937 0.0
N1125 N 0.4528 0.12593 0.34613 0.0
H1126 H 0.43607 0.2535 0.35715 0.0
H1127 H 0.48135 0.2272 0.35832 0.0
H1128 H 0.45872 0.09255 0.34356 0.0
H1129 H 0.48696 0.16237 0.33818 0.0
H1130 H 0.20761 0.05487 0.36042 0.0
H1131 H 0.22999 0.12222 0.34972 0.0
H1132 H 0.22754 0.01442 0.39971 0.0
H1133 H 0.27145 0.98638 0.3992 0.0
C1134 C 0.49171 0.47586 0.35438 0.0
C1135 C 0.47261 0.5129 0.3628 0.0
C1136 C 0.38247 0.43647 0.38086 0.0
C1137 C 0.39932 0.40001 0.36772 0.0
N1138 N 0.46752 0.38491 0.33739 0.0
N1139 N 0.39765 0.52849 0.38087 0.0
C1140 C 0.45299 0.41973 0.3527 0.0
C1141 C 0.41704 0.49314 0.37468 0.0
N1142 N 0.54733 0.49378 0.35002 0.0
N1143 N 0.33484 0.41727 0.40061 0.0
H1144 H 0.42232 0.57052 0.37783 0.0
H1145 H 0.35592 0.51585 0.38628 0.0
H1146 H 0.3082 0.37597 0.40566 0.0
H1147 H 0.32442 0.44249 0.41456 0.0
H1148 H 0.56383 0.46771 0.34784 0.0
H1149 H 0.57753 0.53457 0.35156 0.0
H1150 H 0.5038 0.39834 0.32241 0.0
H1151 H 0.44179 0.34278 0.33775 0.0
C1152 C 0.56671 0.98966 0.30879 0.0
C1153 C 0.6084 0.04448 0.31371 0.0
C1154 C 0.54991 0.05392 0.35747 0.0
C1155 C 0.50856 0.99821 0.35364 0.0
N1156 N 0.49298 0.90934 0.33748 0.0
N1157 N 0.64895 0.11404 0.35677 0.0
C1158 C 0.5214 0.96457 0.33286 0.0
C1159 C 0.60303 0.07267 0.34212 0.0
N1160 N 0.57151 0.96112 0.28193 0.0
N1161 N 0.53984 0.08926 0.37601 0.0
H1162 H 0.68936 0.12727 0.34748 0.0
H1163 H 0.64689 0.13178 0.37994 0.0
H1164 H 0.5018 0.07907 0.38785 0.0
H1165 H 0.56845 0.1308 0.37661 0.0
H1166 H 0.54365 0.92022 0.27785 0.0
H1167 H 0.5999 0.98031 0.26156 0.0
H1168 H 0.50436 0.88353 0.32512 0.0
H1169 H 0.46176 0.88968 0.35636 0.0
C1170 C 0.91103 0.51672 0.35642 0.0
C1171 C 0.95515 0.56974 0.34914 0.0
C1172 C 0.02147 0.54719 0.37495 0.0
C1173 C 0.97728 0.49365 0.38199 0.0
N1174 N 0.8801 0.4261 0.37724 0.0
N1175 N 0.05385 0.62847 0.33946 0.0
C1176 C 0.92223 0.47815 0.37205 0.0
C1177 C 0.01096 0.58278 0.35445 0.0
N1178 N 0.8578 0.50112 0.3475 0.0
N1179 N 0.07233 0.56546 0.38966 0.0
H1180 H 0.04769 0.65487 0.32342 0.0
H1181 H 0.09534 0.63788 0.34068 0.0
H1182 H 0.08146 0.54184 0.40637 0.0
H1183 H 0.10391 0.60591 0.38802 0.0
H1184 H 0.84645 0.52626 0.33409 0.0
H1185 H 0.84645 0.52626 0.33409 0.0
H1186 H 0.83896 0.4133 0.37055 0.0
H1187 H 0.8872 0.39565 0.38683 0.0
C1188 C 0.51668 0.52449 0.7051 0.0
C1189 C 0.5309 0.50903 0.67381 0.0
C1190 C 0.62511 0.58486 0.67763 0.0
C1191 C 0.60437 0.60919 0.70145 0.0
N1192 N 0.52726 0.60139 0.7371 0.0
N1193 N 0.60217 0.5158 0.63425 0.0
C1194 C 0.54972 0.57838 0.7159 0.0
C1195 C 0.58669 0.53585 0.66166 0.0
N1196 N 0.47004 0.48813 0.7231 0.0
N1197 N 0.68102 0.60789 0.67087 0.0
H1198 H 0.57593 0.47755 0.62423 0.0
H1199 H 0.64038 0.5373 0.62117 0.0
H1200 H 0.71049 0.64307 0.68285 0.0
H1201 H 0.69869 0.58936 0.65614 0.0
H1202 H 0.45915 0.49606 0.74746 0.0
H1203 H 0.44574 0.44835 0.71454 0.0
H1204 H 0.4857 0.58079 0.74545 0.0
H1205 H 0.54772 0.64241 0.74336 0.0
C1206 C 0.46731 0.03596 0.62536 0.0
C1207 C 0.47862 0.99585 0.63968 0.0
C1208 C 0.38195 0.941 0.65837 0.0
C1209 C 0.36946 0.97907 0.64218 0.0
N1210 N 0.39703 0.05619 0.60385 0.0
N1211 N 0.44357 0.90354 0.66069 0.0
C1212 C 0.41116 0.02437 0.6234 0.0
C1213 C 0.43472 0.94589 0.65268 0.0
N1214 N 0.50983 0.08504 0.61385 0.0
N1215 N 0.34535 0.9026 0.68142 0.0
H1216 H 0.48292 0.907 0.66033 0.0
H1217 H 0.41122 0.86421 0.66601 0.0
H1218 H 0.30803 0.90012 0.68909 0.0
H1219 H 0.35483 0.87716 0.6961 0.0
H1220 H 0.50434 0.11781 0.60694 0.0
H1221 H 0.55146 0.09488 0.61364 0.0
H1222 H 0.42488 0.0876 0.58743 0.0
H1223 H 0.35611 0.04849 0.60199 0.0
C1224 C 0.05884 0.44654 0.69 0.0
C1225 C 0.01471 0.39449 0.68115 0.0
C1226 C 0.95256 0.43231 0.6745 0.0
C1227 C 0.99818 0.48541 0.68001 0.0
N1228 N 0.09753 0.54392 0.68471 0.0
N1229 N 0.92371 0.3403 0.65715 0.0
C1230 C 0.05223 0.49279 0.68515 0.0
C1231 C 0.96283 0.3881 0.67101 0.0
N1232 N 0.10689 0.45203 0.70346 0.0
N1233 N 0.89926 0.42341 0.67263 0.0
H1234 H 0.92874 0.30621 0.65499 0.0
H1235 H 0.88851 0.33622 0.64481 0.0
H1236 H 0.88853 0.45379 0.67396 0.0
H1237 H 0.86452 0.38458 0.67295 0.0
H1238 H 0.13751 0.48811 0.71397 0.0
H1239 H 0.11446 0.41965 0.70668 0.0
H1240 H 0.13842 0.55126 0.68432 0.0
H1241 H 0.09444 0.57919 0.68278 0.0
C1242 C 0.09775 0.82271 0.70718 0.0
C1243 C 0.14891 0.84099 0.6887 0.0
C1244 C 0.12252 0.74617 0.67629 0.0
C1245 C 0.07289 0.72834 0.69628 0.0
N1246 N 0.01623 0.74947 0.7345 0.0
N1247 N 0.21357 0.81972 0.65979 0.0
C1248 C 0.06166 0.76647 0.71294 0.0
C1249 C 0.16216 0.80245 0.67441 0.0
N1250 N 0.08266 0.85806 0.72069 0.0
N1251 N 0.13159 0.70927 0.65877 0.0
H1252 H 0.24045 0.8605 0.65373 0.0
H1253 H 0.22957 0.7941 0.65394 0.0
H1254 H 0.10622 0.66731 0.66192 0.0
H1255 H 0.16281 0.72014 0.63991 0.0
H1256 H 0.10565 0.90024 0.7174 0.0
H1257 H 0.10565 0.90024 0.7174 0.0
H1258 H 0.00788 0.77663 0.74795 0.0
H1259 H 0.98795 0.70863 0.73978 0.0
C1260 C 0.20072 0.36752 0.65149 0.0
C1261 C 0.17902 0.32964 0.67914 0.0
C1262 C 0.27139 0.341 0.68673 0.0
C1263 C 0.28855 0.36865 0.65409 0.0
N1264 N 0.25192 0.38255 0.59965 0.0
N1265 N 0.19263 0.26982 0.71809 0.0
C1266 C 0.24867 0.37472 0.63453 0.0
C1267 C 0.21391 0.31263 0.69516 0.0
N1268 N 0.17737 0.39743 0.64081 0.0
N1269 N 0.30909 0.34349 0.71025 0.0
H1270 H 0.1499 0.24544 0.72224 0.0
H1271 H 0.21686 0.25472 0.72895 0.0
H1272 H 0.35188 0.36889 0.70681 0.0
H1273 H 0.29721 0.32609 0.73504 0.0
H1274 H 0.14283 0.39616 0.65309 0.0
H1275 H 0.14283 0.39616 0.65309 0.0
H1276 H 0.28058 0.37926 0.58343 0.0
H1277 H 0.28058 0.37926 0.58343 0.0
C1278 C 0.60284 0.82199 0.69861 0.0
C1279 C 0.65286 0.83718 0.71648 0.0
C1280 C 0.67491 0.93221 0.71478 0.0
C1281 C 0.62926 0.91797 0.69271 0.0
N1282 N 0.55398 0.85018 0.65929 0.0
N1283 N 0.74096 0.90842 0.73776 0.0
C1284 C 0.59444 0.8631 0.68327 0.0
C1285 C 0.69049 0.89277 0.72314 0.0
N1286 N 0.56337 0.76834 0.69619 0.0
N1287 N 0.70268 0.9829 0.72873 0.0
H1288 H 0.75328 0.88153 0.74734 0.0
H1289 H 0.77261 0.94887 0.73827 0.0
H1290 H 0.69519 0.01457 0.72226 0.0
H1291 H 0.7312 0.99272 0.74856 0.0
H1292 H 0.5234 0.75545 0.68722 0.0
H1293 H 0.56955 0.73657 0.70472 0.0
H1294 H 0.5317 0.8117 0.64864 0.0
H1295 H 0.54559 0.87884 0.64786 0.0
loop_
_geom_bond_atom_site_label_1
_geom_bond_atom_site_label_2
_geom_bond_distance
_geom_bond_site_symmetry_2
_ccdc_geom_bond_type
Mn0 O5 2.095 . S
Mn0 O15 2.162 . S
Mn0 O16 2.297 . S
Mn0 O24 2.385 . S
Mn0 O25 2.209 . S
Mn0 O26 2.094 1_545 S
Mn1 O6 2.121 1_556 S
Mn1 N8 2.257 . S
Mn1 N17 2.282 . S
Mn1 O25 2.215 1_556 S
Mn1 O27 2.105 1_546 S
C2 O24 1.234 . S
C2 O25 1.283 . S
C3 O15 1.281 . S
C3 O16 1.236 . S
C4 O26 1.240 . S
C4 O27 1.292 . S
O5 Mn0 2.095 . S
O5 C14 1.250 . S
O6 Mn1 2.121 1_554 S
O6 C14 1.258 . S
C7 N8 1.326 . S
C7 C11 1.460 . S
C7 H13 0.929 . S
N8 Mn1 2.257 . S
N8 C7 1.326 . S
N8 C12 1.362 . S
C9 C10 1.258 . S
C9 C12 1.431 . S
C9 C29 1.449 . S
C10 C9 1.258 . S
C10 C11 1.477 . S
C10 H30 0.931 . S
C11 C7 1.460 . S
C11 C10 1.477 . S
C11 H31 0.930 . S
C12 N8 1.362 . S
C12 C9 1.431 . S
C12 C22 1.476 . S
H13 C7 0.929 . S
C14 O5 1.250 . S
C14 O6 1.258 . S
O15 Mn0 2.162 . S
O15 C3 1.281 . S
O16 Mn0 2.297 . S
O16 C3 1.236 . S
N17 Mn1 2.282 . S
N17 C18 1.328 . S
N17 C22 1.318 . S
C18 N17 1.328 . S
C18 C19 1.457 . S
C18 H23 0.929 . S
C19 C18 1.457 . S
C19 C20 1.291 . S
C19 H32 0.931 . S
C20 C19 1.291 . S
C20 C21 1.373 . S
C20 H33 0.929 . S
C21 C20 1.373 . S
C21 C22 1.396 . S
C21 C28 1.403 . S
C22 C12 1.476 . S
C22 N17 1.318 . S
C22 C21 1.396 . S
H23 C18 0.929 . S
O24 Mn0 2.385 . S
O24 C2 1.234 . S
O25 Mn0 2.209 . S
O25 Mn1 2.215 1_554 S
O25 C2 1.283 . S
O26 Mn0 2.094 1_565 S
O26 C4 1.240 . S
O27 Mn1 2.105 1_564 S
O27 C4 1.292 . S
C28 C21 1.403 . S
C28 C29 1.399 . S
C28 H34 0.929 . S
C29 C9 1.449 . S
C29 C28 1.399 . S
C29 H35 0.930 . S
H30 C10 0.931 . S
H31 C11 0.930 . S
H32 C19 0.931 . S
H33 C20 0.929 . S
H34 C28 0.929 . S
H35 C29 0.930 . S
Mn36 O41 2.095 . S
Mn36 O51 2.162 . S
Mn36 O52 2.297 . S
Mn36 O60 2.385 . S
Mn36 O61 2.209 . S
Mn36 O62 2.094 1_655 S
Mn37 O42 2.121 1_556 S
Mn37 N44 2.257 . S
Mn37 N53 2.282 . S
Mn37 O61 2.215 1_556 S
Mn37 O63 2.117 1_655 S
C38 O60 1.234 . S
C38 O61 1.283 . S
C39 O51 1.281 . S
C39 O52 1.236 . S
C40 O62 1.240 . S
C40 O63 1.264 1_554 S
O41 Mn36 2.095 . S
O41 C50 1.250 . S
O42 Mn37 2.121 1_554 S
O42 C50 1.258 . S
C43 N44 1.326 . S
C43 C47 1.460 . S
C43 H49 0.929 . S
N44 Mn37 2.257 . S
N44 C43 1.326 . S
N44 C48 1.362 . S
C45 C46 1.258 . S
C45 C48 1.431 . S
C45 C65 1.449 . S
C46 C45 1.258 . S
C46 C47 1.477 . S
C46 H66 0.931 . S
C47 C43 1.460 . S
C47 C46 1.477 . S
C47 H67 0.930 . S
C48 N44 1.362 . S
C48 C45 1.431 . S
C48 C58 1.476 . S
H49 C43 0.929 . S
C50 O41 1.250 . S
C50 O42 1.258 . S
O51 Mn36 2.162 . S
O51 C39 1.281 . S
O52 Mn36 2.297 . S
O52 C39 1.236 . S
N53 Mn37 2.282 . S
N53 C54 1.328 . S
N53 C58 1.318 . S
C54 N53 1.328 . S
C54 C55 1.457 . S
C54 H59 0.929 . S
C55 C54 1.457 . S
C55 C56 1.291 . S
C55 H68 0.931 . S
C56 C55 1.291 . S
C56 C57 1.373 . S
C56 H69 0.929 . S
C57 C56 1.373 . S
C57 C58 1.396 . S
C57 C64 1.403 . S
C58 C48 1.476 . S
C58 N53 1.318 . S
C58 C57 1.396 . S
H59 C54 0.929 . S
O60 Mn36 2.385 . S
O60 C38 1.234 . S
O61 Mn36 2.209 . S
O61 Mn37 2.215 1_554 S
O61 C38 1.283 . S
O62 Mn36 2.094 1_455 S
O62 C40 1.240 . S
O63 Mn37 2.117 1_455 S
O63 C40 1.264 1_556 S
C64 C57 1.403 . S
C64 C65 1.399 . S
C64 H70 0.929 . S
C65 C45 1.449 . S
C65 C64 1.399 . S
C65 H71 0.930 . S
H66 C46 0.931 . S
H67 C47 0.930 . S
H68 C55 0.931 . S
H69 C56 0.929 . S
H70 C64 0.929 . S
H71 C65 0.930 . S
Mn72 O77 2.095 . S
Mn72 O87 2.162 . S
Mn72 O88 2.297 . S
Mn72 O96 2.385 . S
Mn72 O97 2.209 . S
Mn72 O98 2.094 . S
Mn73 O78 2.121 1_556 S
Mn73 N80 2.257 . S
Mn73 N89 2.282 . S
Mn73 O97 2.215 1_556 S
Mn73 O99 2.117 . S
C74 O96 1.234 . S
C74 O97 1.283 . S
C75 O87 1.281 . S
C75 O88 1.236 . S
C76 O98 1.240 . S
C76 O99 1.264 1_554 S
O77 Mn72 2.095 . S
O77 C86 1.250 . S
O78 Mn73 2.121 1_554 S
O78 C86 1.258 . S
C79 N80 1.326 . S
C79 C83 1.460 . S
C79 H85 0.929 . S
N80 Mn73 2.257 . S
N80 C79 1.326 . S
N80 C84 1.362 . S
C81 C82 1.258 . S
C81 C84 1.431 . S
C81 C101 1.449 . S
C82 C81 1.258 . S
C82 C83 1.477 . S
C82 H102 0.931 . S
C83 C79 1.460 . S
C83 C82 1.477 . S
C83 H103 0.930 . S
C84 N80 1.362 . S
C84 C81 1.431 . S
C84 C94 1.476 . S
H85 C79 0.929 . S
C86 O77 1.250 . S
C86 O78 1.258 . S
O87 Mn72 2.162 . S
O87 C75 1.281 . S
O88 Mn72 2.297 . S
O88 C75 1.236 . S
N89 Mn73 2.282 . S
N89 C90 1.328 . S
N89 C94 1.318 . S
C90 N89 1.328 . S
C90 C91 1.457 . S
C90 H95 0.929 . S
C91 C90 1.457 . S
C91 C92 1.291 . S
C91 H104 0.931 . S
C92 C91 1.291 . S
C92 C93 1.373 . S
C92 H105 0.929 . S
C93 C92 1.373 . S
C93 C94 1.396 . S
C93 C100 1.403 . S
C94 C84 1.476 . S
C94 N89 1.318 . S
C94 C93 1.396 . S
H95 C90 0.929 . S
O96 Mn72 2.385 . S
O96 C74 1.234 . S
O97 Mn72 2.209 . S
O97 Mn73 2.215 1_554 S
O97 C74 1.283 . S
O98 Mn72 2.094 . S
O98 C76 1.240 . S
O99 Mn73 2.117 . S
O99 C76 1.264 1_556 S
C100 C93 1.403 . S
C100 C101 1.399 . S
C100 H106 0.929 . S
C101 C81 1.449 . S
C101 C100 1.399 . S
C101 H107 0.930 . S
H102 C82 0.931 . S
H103 C83 0.930 . S
H104 C91 0.931 . S
H105 C92 0.929 . S
H106 C100 0.929 . S
H107 C101 0.930 . S
Mn108 O113 2.095 . S
Mn108 O123 2.162 . S
Mn108 O124 2.297 . S
Mn108 O132 2.385 . S
Mn108 O133 2.209 . S
Mn108 O134 2.094 1_565 S
Mn109 O114 2.121 1_554 S
Mn109 N116 2.257 . S
Mn109 N125 2.282 . S
Mn109 O133 2.215 1_554 S
Mn109 O135 2.117 1_565 S
C110 O132 1.234 . S
C110 O133 1.283 . S
C111 O123 1.281 . S
C111 O124 1.236 . S
C112 O134 1.240 . S
C112 O135 1.264 1_556 S
O113 Mn108 2.095 . S
O113 C122 1.250 . S
O114 Mn109 2.121 1_556 S
O114 C122 1.258 . S
C115 N116 1.326 . S
C115 C119 1.460 . S
C115 H121 0.929 . S
N116 Mn109 2.257 . S
N116 C115 1.326 . S
N116 C120 1.362 . S
C117 C118 1.258 . S
C117 C120 1.431 . S
C117 C137 1.449 . S
C118 C117 1.258 . S
C118 C119 1.477 . S
C118 H138 0.931 . S
C119 C115 1.460 . S
C119 C118 1.477 . S
C119 H139 0.930 . S
C120 N116 1.362 . S
C120 C117 1.431 . S
C120 C130 1.476 . S
H121 C115 0.929 . S
C122 O113 1.250 . S
C122 O114 1.258 . S
O123 Mn108 2.162 . S
O123 C111 1.281 . S
O124 Mn108 2.297 . S
O124 C111 1.236 . S
N125 Mn109 2.282 . S
N125 C126 1.328 . S
N125 C130 1.318 . S
C126 N125 1.328 . S
C126 C127 1.457 . S
C126 H131 0.929 . S
C127 C126 1.457 . S
C127 C128 1.291 . S
C127 H140 0.931 . S
C128 C127 1.291 . S
C128 C129 1.373 . S
C128 H141 0.929 . S
C129 C128 1.373 . S
C129 C130 1.396 . S
C129 C136 1.403 . S
C130 C120 1.476 . S
C130 N125 1.318 . S
C130 C129 1.396 . S
H131 C126 0.929 . S
O132 Mn108 2.385 . S
O132 C110 1.234 . S
O133 Mn108 2.209 . S
O133 Mn109 2.215 1_556 S
O133 C110 1.283 . S
O134 Mn108 2.094 1_545 S
O134 C112 1.240 . S
O135 Mn109 2.117 1_545 S
O135 C112 1.264 1_554 S
C136 C129 1.403 . S
C136 C137 1.399 . S
C136 H142 0.929 . S
C137 C117 1.449 . S
C137 C136 1.399 . S
C137 H143 0.930 . S
H138 C118 0.931 . S
H139 C119 0.930 . S
H140 C127 0.931 . S
H141 C128 0.929 . S
H142 C136 0.929 . S
H143 C137 0.930 . S
Mn144 O149 2.095 . S
Mn144 O159 2.162 . S
Mn144 O160 2.297 1_455 S
Mn144 O168 2.385 1_455 S
Mn144 O169 2.209 1_455 S
Mn144 O170 2.094 . S
Mn145 O150 2.121 . S
Mn145 N152 2.257 1_455 S
Mn145 N161 2.282 1_455 S
Mn145 O169 2.215 1_455 S
Mn145 O171 2.117 . S
C146 O168 1.234 . S
C146 O169 1.283 . S
C147 O159 1.281 . S
C147 O160 1.236 1_455 S
C148 O170 1.240 . S
C148 O171 1.264 . S
O149 Mn144 2.095 . S
O149 C158 1.250 . S
O150 Mn145 2.121 . S
O150 C158 1.258 . S
C151 N152 1.326 . S
C151 C155 1.460 . S
C151 H157 0.929 . S
N152 Mn145 2.257 1_655 S
N152 C151 1.326 . S
N152 C156 1.362 . S
C153 C154 1.258 . S
C153 C156 1.431 . S
C153 C173 1.449 . S
C154 C153 1.258 . S
C154 C155 1.477 . S
C154 H174 0.931 . S
C155 C151 1.460 . S
C155 C154 1.477 . S
C155 H175 0.930 . S
C156 N152 1.362 . S
C156 C153 1.431 . S
C156 C166 1.476 . S
H157 C151 0.929 . S
C158 O149 1.250 . S
C158 O150 1.258 . S
O159 Mn144 2.162 . S
O159 C147 1.281 . S
O160 Mn144 2.297 1_655 S
O160 C147 1.236 1_655 S
N161 Mn145 2.282 1_655 S
N161 C162 1.328 . S
N161 C166 1.318 . S
C162 N161 1.328 . S
C162 C163 1.457 1_556 S
C162 H167 0.929 1_656 S
C163 C162 1.457 1_554 S
C163 C164 1.291 . S
C163 H176 0.931 . S
C164 C163 1.291 . S
C164 C165 1.373 1_554 S
C164 H177 0.929 . S
C165 C164 1.373 1_556 S
C165 C166 1.396 . S
C165 C172 1.403 . S
C166 C156 1.476 . S
C166 N161 1.318 . S
C166 C165 1.396 . S
H167 C162 0.929 1_454 S
O168 Mn144 2.385 1_655 S
O168 C146 1.234 . S
O169 Mn144 2.209 1_655 S
O169 Mn145 2.215 1_655 S
O169 C146 1.283 . S
O170 Mn144 2.094 . S
O170 C148 1.240 . S
O171 Mn145 2.117 . S
O171 C148 1.264 . S
C172 C165 1.403 . S
C172 C173 1.399 . S
C172 H178 0.929 . S
C173 C153 1.449 . S
C173 C172 1.399 . S
C173 H179 0.930 . S
H174 C154 0.931 . S
H175 C155 0.930 . S
H176 C163 0.931 . S
H177 C164 0.929 . S
H178 C172 0.929 . S
H179 C173 0.930 . S
Mn180 O185 2.095 . S
Mn180 O195 2.162 . S
Mn180 O196 2.297 . S
Mn180 O204 2.385 . S
Mn180 O205 2.209 . S
Mn180 O206 2.094 . S
Mn181 O186 2.121 1_554 S
Mn181 N188 2.257 . S
Mn181 N197 2.282 . S
Mn181 O205 2.215 1_554 S
Mn181 O207 2.108 1_554 S
C182 O204 1.234 . S
C182 O205 1.283 . S
C183 O195 1.281 . S
C183 O196 1.236 . S
C184 O206 1.240 . S
C184 O207 1.283 . S
O185 Mn180 2.095 . S
O185 C194 1.250 . S
O186 Mn181 2.121 1_556 S
O186 C194 1.258 . S
C187 N188 1.326 . S
C187 C191 1.460 . S
C187 H193 0.929 . S
N188 Mn181 2.257 . S
N188 C187 1.326 . S
N188 C192 1.362 . S
C189 C190 1.258 . S
C189 C192 1.431 . S
C189 C209 1.449 . S
C190 C189 1.258 . S
C190 C191 1.477 . S
C190 H210 0.931 . S
C191 C187 1.460 . S
C191 C190 1.477 . S
C191 H211 0.930 . S
C192 N188 1.362 . S
C192 C189 1.431 . S
C192 C202 1.476 . S
H193 C187 0.929 . S
C194 O185 1.250 . S
C194 O186 1.258 . S
O195 Mn180 2.162 . S
O195 C183 1.281 . S
O196 Mn180 2.297 . S
O196 C183 1.236 . S
N197 Mn181 2.282 . S
N197 C198 1.328 . S
N197 C202 1.318 . S
C198 N197 1.328 . S
C198 C199 1.457 . S
C198 H203 0.929 . S
C199 C198 1.457 . S
C199 C200 1.291 . S
C199 H212 0.931 . S
C200 C199 1.291 . S
C200 C201 1.373 . S
C200 H213 0.929 . S
C201 C200 1.373 . S
C201 C202 1.396 . S
C201 C208 1.403 . S
C202 C192 1.476 . S
C202 N197 1.318 . S
C202 C201 1.396 . S
H203 C198 0.929 . S
O204 Mn180 2.385 . S
O204 C182 1.234 . S
O205 Mn180 2.209 . S
O205 Mn181 2.215 1_556 S
O205 C182 1.283 . S
O206 Mn180 2.094 . S
O206 C184 1.240 . S
O207 Mn181 2.108 1_556 S
O207 C184 1.283 . S
C208 C201 1.403 . S
C208 C209 1.399 . S
C208 H214 0.929 . S
C209 C189 1.449 . S
C209 C208 1.399 . S
C209 H215 0.930 . S
H210 C190 0.931 . S
H211 C191 0.930 . S
H212 C199 0.931 . S
H213 C200 0.929 . S
H214 C208 0.929 . S
H215 C209 0.930 . S
Mn216 O221 2.095 1_655 S
Mn216 O231 2.162 . S
Mn216 O232 2.297 1_655 S
Mn216 O240 2.385 . S
Mn216 O241 2.209 1_655 S
Mn216 O242 2.094 . S
Mn217 O222 2.121 . S
Mn217 N224 2.257 . S
Mn217 N233 2.282 1_455 S
Mn217 O241 2.215 . S
Mn217 O243 2.117 1_455 S
C218 O240 1.234 . S
C218 O241 1.283 1_655 S
C219 O231 1.281 1_455 S
C219 O232 1.236 . S
C220 O242 1.240 . S
C220 O243 1.264 . S
O221 Mn216 2.095 1_455 S
O221 C230 1.250 . S
O222 Mn217 2.121 . S
O222 C230 1.258 . S
C223 N224 1.326 . S
C223 C227 1.460 . S
C223 H229 0.929 . S
N224 Mn217 2.257 . S
N224 C223 1.326 . S
N224 C228 1.362 . S
C225 C226 1.258 . S
C225 C228 1.431 . S
C225 C245 1.449 . S
C226 C225 1.258 . S
C226 C227 1.477 . S
C226 H246 0.931 . S
C227 C223 1.460 . S
C227 C226 1.477 . S
C227 H247 0.930 . S
C228 N224 1.362 . S
C228 C225 1.431 . S
C228 C238 1.476 1_455 S
H229 C223 0.929 . S
C230 O221 1.250 . S
C230 O222 1.258 . S
O231 Mn216 2.162 . S
O231 C219 1.281 1_655 S
O232 Mn216 2.297 1_455 S
O232 C219 1.236 . S
N233 Mn217 2.282 1_655 S
N233 C234 1.328 . S
N233 C238 1.318 . S
C234 N233 1.328 . S
C234 C235 1.457 . S
C234 H239 0.929 . S
C235 C234 1.457 . S
C235 C236 1.291 . S
C235 H248 0.931 . S
C236 C235 1.291 . S
C236 C237 1.373 . S
C236 H249 0.929 . S
C237 C236 1.373 . S
C237 C238 1.396 . S
C237 C244 1.403 . S
C238 C228 1.476 1_655 S
C238 N233 1.318 . S
C238 C237 1.396 . S
H239 C234 0.929 . S
O240 Mn216 2.385 . S
O240 C218 1.234 . S
O241 Mn216 2.209 1_455 S
O241 Mn217 2.215 . S
O241 C218 1.283 1_455 S
O242 Mn216 2.094 . S
O242 C220 1.240 . S
O243 Mn217 2.117 1_655 S
O243 C220 1.264 . S
C244 C237 1.403 . S
C244 C245 1.399 1_655 S
C244 H250 0.929 . S
C245 C225 1.449 . S
C245 C244 1.399 1_455 S
C245 H251 0.930 . S
H246 C226 0.931 . S
H247 C227 0.930 . S
H248 C235 0.931 . S
H249 C236 0.929 . S
H250 C244 0.929 . S
H251 C245 0.930 . S
Mn252 O257 2.095 . S
Mn252 O267 2.162 . S
Mn252 O268 2.297 . S
Mn252 O276 2.385 . S
Mn252 O277 2.209 . S
Mn252 O278 2.094 . S
Mn253 O258 2.121 . S
Mn253 N260 2.257 . S
Mn253 N269 2.282 . S
Mn253 O277 2.215 . S
Mn253 O279 2.117 . S
C254 O276 1.234 . S
C254 O277 1.283 . S
C255 O267 1.281 . S
C255 O268 1.236 . S
C256 O278 1.240 . S
C256 O279 1.264 . S
O257 Mn252 2.095 . S
O257 C266 1.250 . S
O258 Mn253 2.121 . S
O258 C266 1.258 . S
C259 N260 1.326 . S
C259 C263 1.460 . S
C259 H265 0.929 . S
N260 Mn253 2.257 . S
N260 C259 1.326 . S
N260 C264 1.362 . S
C261 C262 1.258 . S
C261 C264 1.431 . S
C261 C281 1.449 . S
C262 C261 1.258 . S
C262 C263 1.477 . S
C262 H282 0.931 . S
C263 C259 1.460 . S
C263 C262 1.477 . S
C263 H283 0.930 . S
C264 N260 1.362 . S
C264 C261 1.431 . S
C264 C274 1.476 . S
H265 C259 0.929 . S
C266 O257 1.250 . S
C266 O258 1.258 . S
O267 Mn252 2.162 . S
O267 C255 1.281 . S
O268 Mn252 2.297 . S
O268 C255 1.236 . S
N269 Mn253 2.282 . S
N269 C270 1.328 . S
N269 C274 1.318 . S
C270 N269 1.328 . S
C270 C271 1.457 . S
C270 H275 0.929 . S
C271 C270 1.457 . S
C271 C272 1.291 . S
C271 H284 0.931 . S
C272 C271 1.291 . S
C272 C273 1.373 . S
C272 H285 0.929 . S
C273 C272 1.373 . S
C273 C274 1.396 . S
C273 C280 1.403 . S
C274 C264 1.476 . S
C274 N269 1.318 . S
C274 C273 1.396 . S
H275 C270 0.929 . S
O276 Mn252 2.385 . S
O276 C254 1.234 . S
O277 Mn252 2.209 . S
O277 Mn253 2.215 . S
O277 C254 1.283 . S
O278 Mn252 2.094 . S
O278 C256 1.240 . S
O279 Mn253 2.117 . S
O279 C256 1.264 . S
C280 C273 1.403 . S
C280 C281 1.399 . S
C280 H286 0.929 . S
C281 C261 1.449 . S
C281 C280 1.399 . S
C281 H287 0.930 . S
H282 C262 0.931 . S
H283 C263 0.930 . S
H284 C271 0.931 . S
H285 C272 0.929 . S
H286 C280 0.929 . S
H287 C281 0.930 . S
Mn288 O293 2.095 1_545 S
Mn288 O303 2.162 . S
Mn288 O304 2.297 1_545 S
Mn288 O312 2.385 . S
Mn288 O313 2.209 1_545 S
Mn288 O314 2.094 . S
Mn289 O294 2.121 . S
Mn289 N296 2.257 . S
Mn289 N305 2.282 1_565 S
Mn289 O313 2.215 . S
Mn289 O315 2.117 1_565 S
C290 O312 1.234 . S
C290 O313 1.283 1_545 S
C291 O303 1.281 1_565 S
C291 O304 1.236 . S
C292 O314 1.240 . S
C292 O315 1.264 . S
O293 Mn288 2.095 1_565 S
O293 C302 1.250 . S
O294 Mn289 2.121 . S
O294 C302 1.258 . S
C295 N296 1.326 . S
C295 C299 1.460 . S
C295 H301 0.929 . S
N296 Mn289 2.257 . S
N296 C295 1.326 . S
N296 C300 1.362 . S
C297 C298 1.258 . S
C297 C300 1.431 . S
C297 C317 1.449 . S
C298 C297 1.258 . S
C298 C299 1.477 . S
C298 H318 0.931 . S
C299 C295 1.460 . S
C299 C298 1.477 . S
C299 H319 0.930 . S
C300 N296 1.362 . S
C300 C297 1.431 . S
C300 C310 1.476 1_565 S
H301 C295 0.929 . S
C302 O293 1.250 . S
C302 O294 1.258 . S
O303 Mn288 2.162 . S
O303 C291 1.281 1_545 S
O304 Mn288 2.297 1_565 S
O304 C291 1.236 . S
N305 Mn289 2.282 1_545 S
N305 C306 1.328 . S
N305 C310 1.318 . S
C306 N305 1.328 . S
C306 C307 1.457 . S
C306 H311 0.929 . S
C307 C306 1.457 . S
C307 C308 1.291 . S
C307 H320 0.931 . S
C308 C307 1.291 . S
C308 C309 1.373 . S
C308 H321 0.929 . S
C309 C308 1.373 . S
C309 C310 1.396 . S
C309 C316 1.403 . S
C310 C300 1.476 1_545 S
C310 N305 1.318 . S
C310 C309 1.396 . S
H311 C306 0.929 . S
O312 Mn288 2.385 . S
O312 C290 1.234 . S
O313 Mn288 2.209 1_565 S
O313 Mn289 2.215 . S
O313 C290 1.283 1_565 S
O314 Mn288 2.094 . S
O314 C292 1.240 . S
O315 Mn289 2.117 1_545 S
O315 C292 1.264 . S
C316 C309 1.403 . S
C316 C317 1.399 1_545 S
C316 H322 0.929 . S
C317 C297 1.449 . S
C317 C316 1.399 1_565 S
C317 H323 0.930 . S
H318 C298 0.931 . S
H319 C299 0.930 . S
H320 C307 0.931 . S
H321 C308 0.929 . S
H322 C316 0.929 . S
H323 C317 0.930 . S
Mn324 O329 2.095 . S
Mn324 O339 2.162 . S
Mn324 O340 2.297 . S
Mn324 O348 2.385 . S
Mn324 O349 2.209 . S
Mn324 O350 2.094 . S
Mn325 O330 2.121 . S
Mn325 N332 2.257 . S
Mn325 N341 2.282 . S
Mn325 O349 2.215 . S
Mn325 O351 2.117 . S
C326 O348 1.234 . S
C326 O349 1.283 . S
C327 O339 1.281 . S
C327 O340 1.236 . S
C328 O350 1.240 . S
C328 O351 1.264 . S
O329 Mn324 2.095 . S
O329 C338 1.250 . S
O330 Mn325 2.121 . S
O330 C338 1.258 . S
C331 N332 1.326 . S
C331 C335 1.460 . S
C331 H337 0.929 . S
N332 Mn325 2.257 . S
N332 C331 1.326 . S
N332 C336 1.362 . S
C333 C334 1.258 . S
C333 C336 1.431 . S
C333 C353 1.449 . S
C334 C333 1.258 . S
C334 C335 1.477 . S
C334 H354 0.931 . S
C335 C331 1.460 . S
C335 C334 1.477 . S
C335 H355 0.930 . S
C336 N332 1.362 . S
C336 C333 1.431 . S
C336 C346 1.476 . S
H337 C331 0.929 . S
C338 O329 1.250 . S
C338 O330 1.258 . S
O339 Mn324 2.162 . S
O339 C327 1.281 . S
O340 Mn324 2.297 . S
O340 C327 1.236 . S
N341 Mn325 2.282 . S
N341 C342 1.328 . S
N341 C346 1.318 . S
C342 N341 1.328 . S
C342 C343 1.457 . S
C342 H347 0.929 . S
C343 C342 1.457 . S
C343 C344 1.291 . S
C343 H356 0.931 . S
C344 C343 1.291 . S
C344 C345 1.373 . S
C344 H357 0.929 . S
C345 C344 1.373 . S
C345 C346 1.396 . S
C345 C352 1.403 . S
C346 C336 1.476 . S
C346 N341 1.318 . S
C346 C345 1.396 . S
H347 C342 0.929 . S
O348 Mn324 2.385 . S
O348 C326 1.234 . S
O349 Mn324 2.209 . S
O349 Mn325 2.215 . S
O349 C326 1.283 . S
O350 Mn324 2.094 . S
O350 C328 1.240 . S
O351 Mn325 2.117 . S
O351 C328 1.264 . S
C352 C345 1.403 . S
C352 C353 1.399 . S
C352 H358 0.929 . S
C353 C333 1.449 . S
C353 C352 1.399 . S
C353 H359 0.930 . S
H354 C334 0.931 . S
H355 C335 0.930 . S
H356 C343 0.931 . S
H357 C344 0.929 . S
H358 C352 0.929 . S
H359 C353 0.930 . S
Mn360 O365 2.095 . S
Mn360 O375 2.162 1_545 S
Mn360 O376 2.297 1_545 S
Mn360 O384 2.385 . S
Mn360 O385 2.209 . S
Mn360 O386 2.094 . S
Mn361 O366 2.121 . S
Mn361 N368 2.257 . S
Mn361 N377 2.282 . S
Mn361 O385 2.215 . S
Mn361 O387 2.117 . S
C362 O384 1.234 . S
C362 O385 1.283 . S
C363 O375 1.281 . S
C363 O376 1.236 . S
C364 O386 1.240 . S
C364 O387 1.264 . S
O365 Mn360 2.095 . S
O365 C374 1.250 . S
O366 Mn361 2.121 . S
O366 C374 1.258 . S
C367 N368 1.326 . S
C367 C371 1.460 . S
C367 H373 0.929 . S
N368 Mn361 2.257 . S
N368 C367 1.326 . S
N368 C372 1.362 . S
C369 C370 1.258 . S
C369 C372 1.431 . S
C369 C389 1.449 . S
C370 C369 1.258 . S
C370 C371 1.477 . S
C370 H390 0.931 . S
C371 C367 1.460 . S
C371 C370 1.477 . S
C371 H391 0.930 . S
C372 N368 1.362 . S
C372 C369 1.431 . S
C372 C382 1.476 . S
H373 C367 0.929 . S
C374 O365 1.250 . S
C374 O366 1.258 . S
O375 Mn360 2.162 1_565 S
O375 C363 1.281 . S
O376 Mn360 2.297 1_565 S
O376 C363 1.236 . S
N377 Mn361 2.282 . S
N377 C378 1.328 . S
N377 C382 1.318 . S
C378 N377 1.328 . S
C378 C379 1.457 . S
C378 H383 0.929 . S
C379 C378 1.457 . S
C379 C380 1.291 . S
C379 H392 0.931 . S
C380 C379 1.291 . S
C380 C381 1.373 . S
C380 H393 0.929 . S
C381 C380 1.373 . S
C381 C382 1.396 . S
C381 C388 1.403 . S
C382 C372 1.476 . S
C382 N377 1.318 . S
C382 C381 1.396 . S
H383 C378 0.929 . S
O384 Mn360 2.385 . S
O384 C362 1.234 . S
O385 Mn360 2.209 . S
O385 Mn361 2.215 . S
O385 C362 1.283 . S
O386 Mn360 2.094 . S
O386 C364 1.240 . S
O387 Mn361 2.117 . S
O387 C364 1.264 . S
C388 C381 1.403 . S
C388 C389 1.399 . S
C388 H394 0.929 . S
C389 C369 1.449 . S
C389 C388 1.399 . S
C389 H395 0.930 . S
H390 C370 0.931 . S
H391 C371 0.930 . S
H392 C379 0.931 . S
H393 C380 0.929 . S
H394 C388 0.929 . S
H395 C389 0.930 . S
Mn396 O401 2.095 1_655 S
Mn396 O411 2.162 . S
Mn396 O412 2.297 . S
Mn396 O420 2.385 . S
Mn396 O421 2.209 . S
Mn396 O422 2.094 . S
Mn397 O402 2.121 1_655 S
Mn397 N404 2.257 . S
Mn397 N413 2.282 . S
Mn397 O421 2.215 . S
Mn397 O423 2.117 . S
C398 O420 1.234 . S
C398 O421 1.283 . S
C399 O411 1.281 . S
C399 O412 1.236 . S
C400 O422 1.240 . S
C400 O423 1.264 . S
O401 Mn396 2.095 1_455 S
O401 C410 1.250 . S
O402 Mn397 2.121 1_455 S
O402 C410 1.258 . S
C403 N404 1.326 . S
C403 C407 1.460 . S
C403 H409 0.929 1_655 S
N404 Mn397 2.257 . S
N404 C403 1.326 . S
N404 C408 1.362 . S
C405 C406 1.258 . S
C405 C408 1.431 . S
C405 C425 1.449 . S
C406 C405 1.258 . S
C406 C407 1.477 . S
C406 H426 0.931 . S
C407 C403 1.460 . S
C407 C406 1.477 . S
C407 H427 0.930 . S
C408 N404 1.362 . S
C408 C405 1.431 . S
C408 C418 1.476 . S
H409 C403 0.929 1_455 S
C410 O401 1.250 . S
C410 O402 1.258 . S
O411 Mn396 2.162 . S
O411 C399 1.281 . S
O412 Mn396 2.297 . S
O412 C399 1.236 . S
N413 Mn397 2.282 . S
N413 C414 1.328 . S
N413 C418 1.318 . S
C414 N413 1.328 . S
C414 C415 1.457 . S
C414 H419 0.929 . S
C415 C414 1.457 . S
C415 C416 1.291 . S
C415 H428 0.931 . S
C416 C415 1.291 . S
C416 C417 1.373 . S
C416 H429 0.929 . S
C417 C416 1.373 . S
C417 C418 1.396 . S
C417 C424 1.403 . S
C418 C408 1.476 . S
C418 N413 1.318 . S
C418 C417 1.396 . S
H419 C414 0.929 . S
O420 Mn396 2.385 . S
O420 C398 1.234 . S
O421 Mn396 2.209 . S
O421 Mn397 2.215 . S
O421 C398 1.283 . S
O422 Mn396 2.094 . S
O422 C400 1.240 . S
O423 Mn397 2.117 . S
O423 C400 1.264 . S
C424 C417 1.403 . S
C424 C425 1.399 . S
C424 H430 0.929 . S
C425 C405 1.449 . S
C425 C424 1.399 . S
C425 H431 0.930 . S
H426 C406 0.931 . S
H427 C407 0.930 . S
H428 C415 0.931 . S
H429 C416 0.929 . S
H430 C424 0.929 . S
H431 C425 0.930 . S
Mn432 O437 2.095 . S
Mn432 O447 2.162 . S
Mn432 O448 2.297 . S
Mn432 O456 2.385 . S
Mn432 O457 2.209 . S
Mn432 O458 2.094 . S
Mn433 O438 2.121 . S
Mn433 N440 2.257 . S
Mn433 N449 2.282 . S
Mn433 O457 2.215 . S
Mn433 O459 2.117 . S
C434 O456 1.234 . S
C434 O457 1.283 . S
C435 O447 1.281 . S
C435 O448 1.236 . S
C436 O458 1.240 . S
C436 O459 1.264 . S
O437 Mn432 2.095 . S
O437 C446 1.250 . S
O438 Mn433 2.121 . S
O438 C446 1.258 . S
C439 N440 1.326 . S
C439 C443 1.460 . S
C439 H445 0.929 . S
N440 Mn433 2.257 . S
N440 C439 1.326 . S
N440 C444 1.362 . S
C441 C442 1.258 . S
C441 C444 1.431 . S
C441 C461 1.449 . S
C442 C441 1.258 . S
C442 C443 1.477 . S
C442 H462 0.931 . S
C443 C439 1.460 . S
C443 C442 1.477 . S
C443 H463 0.930 . S
C444 N440 1.362 . S
C444 C441 1.431 . S
C444 C454 1.476 . S
H445 C439 0.929 . S
C446 O437 1.250 . S
C446 O438 1.258 . S
O447 Mn432 2.162 . S
O447 C435 1.281 . S
O448 Mn432 2.297 . S
O448 C435 1.236 . S
N449 Mn433 2.282 . S
N449 C450 1.328 . S
N449 C454 1.318 . S
C450 N449 1.328 . S
C450 C451 1.457 . S
C450 H455 0.929 . S
C451 C450 1.457 . S
C451 C452 1.291 . S
C451 H464 0.931 . S
C452 C451 1.291 . S
C452 C453 1.373 . S
C452 H465 0.929 . S
C453 C452 1.373 . S
C453 C454 1.396 . S
C453 C460 1.403 . S
C454 C444 1.476 . S
C454 N449 1.318 . S
C454 C453 1.396 . S
H455 C450 0.929 . S
O456 Mn432 2.385 . S
O456 C434 1.234 . S
O457 Mn432 2.209 . S
O457 Mn433 2.215 . S
O457 C434 1.283 . S
O458 Mn432 2.094 . S
O458 C436 1.240 . S
O459 Mn433 2.117 . S
O459 C436 1.264 . S
C460 C453 1.403 . S
C460 C461 1.399 . S
C460 H466 0.929 . S
C461 C441 1.449 . S
C461 C460 1.399 . S
C461 H467 0.930 . S
H462 C442 0.931 . S
H463 C443 0.930 . S
H464 C451 0.931 . S
H465 C452 0.929 . S
H466 C460 0.929 . S
H467 C461 0.930 . S
Mn468 O473 2.095 1_565 S
Mn468 O483 2.162 . S
Mn468 O484 2.297 . S
Mn468 O492 2.385 . S
Mn468 O493 2.209 . S
Mn468 O494 2.094 . S
Mn469 O474 2.121 1_565 S
Mn469 N476 2.257 . S
Mn469 N485 2.282 . S
Mn469 O493 2.215 . S
Mn469 O495 2.117 . S
C470 O492 1.234 . S
C470 O493 1.283 . S
C471 O483 1.281 . S
C471 O484 1.236 . S
C472 O494 1.240 . S
C472 O495 1.264 . S
O473 Mn468 2.095 1_545 S
O473 C482 1.250 . S
O474 Mn469 2.121 1_545 S
O474 C482 1.258 . S
C475 N476 1.326 . S
C475 C479 1.460 . S
C475 H481 0.929 1_565 S
N476 Mn469 2.257 . S
N476 C475 1.326 . S
N476 C480 1.362 . S
C477 C478 1.258 . S
C477 C480 1.431 . S
C477 C497 1.449 . S
C478 C477 1.258 . S
C478 C479 1.477 . S
C478 H498 0.931 . S
C479 C475 1.460 . S
C479 C478 1.477 . S
C479 H499 0.930 . S
C480 N476 1.362 . S
C480 C477 1.431 . S
C480 C490 1.476 . S
H481 C475 0.929 1_545 S
C482 O473 1.250 . S
C482 O474 1.258 . S
O483 Mn468 2.162 . S
O483 C471 1.281 . S
O484 Mn468 2.297 . S
O484 C471 1.236 . S
N485 Mn469 2.282 . S
N485 C486 1.328 . S
N485 C490 1.318 . S
C486 N485 1.328 . S
C486 C487 1.457 . S
C486 H491 0.929 . S
C487 C486 1.457 . S
C487 C488 1.291 . S
C487 H500 0.931 . S
C488 C487 1.291 . S
C488 C489 1.373 . S
C488 H501 0.929 . S
C489 C488 1.373 . S
C489 C490 1.396 . S
C489 C496 1.403 . S
C490 C480 1.476 . S
C490 N485 1.318 . S
C490 C489 1.396 . S
H491 C486 0.929 . S
O492 Mn468 2.385 . S
O492 C470 1.234 . S
O493 Mn468 2.209 . S
O493 Mn469 2.215 . S
O493 C470 1.283 . S
O494 Mn468 2.094 . S
O494 C472 1.240 . S
O495 Mn469 2.117 . S
O495 C472 1.264 . S
C496 C489 1.403 . S
C496 C497 1.399 . S
C496 H502 0.929 . S
C497 C477 1.449 . S
C497 C496 1.399 . S
C497 H503 0.930 . S
H498 C478 0.931 . S
H499 C479 0.930 . S
H500 C487 0.931 . S
H501 C488 0.929 . S
H502 C496 0.929 . S
H503 C497 0.930 . S
Mn504 O509 2.095 1_455 S
Mn504 O519 2.162 . S
Mn504 O520 2.297 . S
Mn504 O528 2.385 . S
Mn504 O529 2.209 . S
Mn504 O530 2.094 . S
Mn505 O510 2.121 1_455 S
Mn505 N512 2.257 . S
Mn505 N521 2.282 . S
Mn505 O529 2.215 . S
Mn505 O531 2.117 . S
C506 O528 1.234 . S
C506 O529 1.283 . S
C507 O519 1.281 . S
C507 O520 1.236 . S
C508 O530 1.240 . S
C508 O531 1.264 . S
O509 Mn504 2.095 1_655 S
O509 C518 1.250 . S
O510 Mn505 2.121 1_655 S
O510 C518 1.258 . S
C511 N512 1.326 . S
C511 C515 1.460 . S
C511 H517 0.929 1_455 S
N512 Mn505 2.257 . S
N512 C511 1.326 . S
N512 C516 1.362 . S
C513 C514 1.258 . S
C513 C516 1.431 . S
C513 C533 1.449 . S
C514 C513 1.258 . S
C514 C515 1.477 . S
C514 H534 0.931 . S
C515 C511 1.460 . S
C515 C514 1.477 . S
C515 H535 0.932 . S
C516 N512 1.362 . S
C516 C513 1.431 . S
C516 C526 1.476 . S
H517 C511 0.929 1_655 S
C518 O509 1.250 . S
C518 O510 1.258 . S
O519 Mn504 2.162 . S
O519 C507 1.281 . S
O520 Mn504 2.297 . S
O520 C507 1.236 . S
N521 Mn505 2.282 . S
N521 C522 1.328 . S
N521 C526 1.318 . S
C522 N521 1.328 . S
C522 C523 1.457 . S
C522 H527 0.929 . S
C523 C522 1.457 . S
C523 C524 1.291 . S
C523 H536 0.931 . S
C524 C523 1.291 . S
C524 C525 1.373 . S
C524 H537 0.929 . S
C525 C524 1.373 . S
C525 C526 1.396 . S
C525 C532 1.403 . S
C526 C516 1.476 . S
C526 N521 1.318 . S
C526 C525 1.396 . S
H527 C522 0.929 . S
O528 Mn504 2.385 . S
O528 C506 1.234 . S
O529 Mn504 2.209 . S
O529 Mn505 2.215 . S
O529 C506 1.283 . S
O530 Mn504 2.094 . S
O530 C508 1.240 . S
O531 Mn505 2.117 . S
O531 C508 1.264 . S
C532 C525 1.403 . S
C532 C533 1.399 . S
C532 H538 0.929 . S
C533 C513 1.449 . S
C533 C532 1.399 . S
C533 H539 0.930 . S
H534 C514 0.931 . S
H535 C515 0.932 . S
H536 C523 0.931 . S
H537 C524 0.929 . S
H538 C532 0.929 . S
H539 C533 0.930 . S
Mn540 O545 2.095 1_455 S
Mn540 O555 2.162 . S
Mn540 O556 2.297 1_455 S
Mn540 O564 2.385 . S
Mn540 O565 2.209 1_455 S
Mn540 O566 2.094 . S
Mn541 O546 2.121 . S
Mn541 N548 2.257 . S
Mn541 N557 2.282 1_655 S
Mn541 O565 2.215 . S
Mn541 O567 2.117 1_655 S
C542 O564 1.234 . S
C542 O565 1.283 1_455 S
C543 O555 1.281 1_655 S
C543 O556 1.236 . S
C544 O566 1.240 . S
C544 O567 1.264 . S
O545 Mn540 2.095 1_655 S
O545 C554 1.250 . S
O546 Mn541 2.121 . S
O546 C554 1.258 . S
C547 N548 1.326 . S
C547 C551 1.460 . S
C547 H553 0.929 . S
N548 Mn541 2.257 . S
N548 C547 1.326 . S
N548 C552 1.362 . S
C549 C550 1.258 . S
C549 C552 1.431 . S
C549 C569 1.449 . S
C550 C549 1.258 . S
C550 C551 1.477 . S
C550 H570 0.931 . S
C551 C547 1.460 . S
C551 C550 1.477 . S
C551 H571 0.930 . S
C552 N548 1.362 . S
C552 C549 1.431 . S
C552 C562 1.476 1_655 S
H553 C547 0.929 . S
C554 O545 1.250 . S
C554 O546 1.258 . S
O555 Mn540 2.162 . S
O555 C543 1.281 1_455 S
O556 Mn540 2.297 1_655 S
O556 C543 1.236 . S
N557 Mn541 2.282 1_455 S
N557 C558 1.328 . S
N557 C562 1.318 . S
C558 N557 1.328 . S
C558 C559 1.457 . S
C558 H563 0.929 . S
C559 C558 1.457 . S
C559 C560 1.291 . S
C559 H572 0.931 . S
C560 C559 1.291 . S
C560 C561 1.373 . S
C560 H573 0.929 . S
C561 C560 1.373 . S
C561 C562 1.396 . S
C561 C568 1.403 . S
C562 C552 1.476 1_455 S
C562 N557 1.318 . S
C562 C561 1.396 . S
H563 C558 0.929 . S
O564 Mn540 2.385 . S
O564 C542 1.234 . S
O565 Mn540 2.209 1_655 S
O565 Mn541 2.215 . S
O565 C542 1.283 1_655 S
O566 Mn540 2.094 . S
O566 C544 1.240 . S
O567 Mn541 2.117 1_455 S
O567 C544 1.264 . S
C568 C561 1.403 . S
C568 C569 1.399 1_455 S
C568 H574 0.929 . S
C569 C549 1.449 . S
C569 C568 1.399 1_655 S
C569 H575 0.930 . S
H570 C550 0.931 . S
H571 C551 0.930 . S
H572 C559 0.931 . S
H573 C560 0.929 . S
H574 C568 0.929 . S
H575 C569 0.930 . S
Mn576 O581 2.095 . S
Mn576 O591 2.162 . S
Mn576 O592 2.297 . S
Mn576 O600 2.385 . S
Mn576 O601 2.209 . S
Mn576 O602 2.094 . S
Mn577 O582 2.121 . S
Mn577 N584 2.257 . S
Mn577 N593 2.282 . S
Mn577 O601 2.215 . S
Mn577 O603 2.117 . S
C578 O600 1.234 . S
C578 O601 1.283 . S
C579 O591 1.281 . S
C579 O592 1.236 . S
C580 O602 1.240 . S
C580 O603 1.264 . S
O581 Mn576 2.095 . S
O581 C590 1.250 . S
O582 Mn577 2.121 . S
O582 C590 1.258 . S
C583 N584 1.326 . S
C583 C587 1.460 . S
C583 H589 0.929 . S
N584 Mn577 2.257 . S
N584 C583 1.326 . S
N584 C588 1.362 . S
C585 C586 1.258 . S
C585 C588 1.431 . S
C585 C605 1.449 . S
C586 C585 1.258 . S
C586 C587 1.477 . S
C586 H606 0.931 . S
C587 C583 1.460 . S
C587 C586 1.477 . S
C587 H607 0.930 . S
C588 N584 1.362 . S
C588 C585 1.431 . S
C588 C598 1.476 . S
H589 C583 0.929 . S
C590 O581 1.250 . S
C590 O582 1.258 . S
O591 Mn576 2.162 . S
O591 C579 1.281 . S
O592 Mn576 2.297 . S
O592 C579 1.236 . S
N593 Mn577 2.282 . S
N593 C594 1.328 . S
N593 C598 1.318 . S
C594 N593 1.328 . S
C594 C595 1.457 . S
C594 H599 0.929 . S
C595 C594 1.457 . S
C595 C596 1.291 . S
C595 H608 0.931 . S
C596 C595 1.291 . S
C596 C597 1.373 . S
C596 H609 0.929 . S
C597 C596 1.373 . S
C597 C598 1.396 . S
C597 C604 1.403 . S
C598 C588 1.476 . S
C598 N593 1.318 . S
C598 C597 1.396 . S
H599 C594 0.929 . S
O600 Mn576 2.385 . S
O600 C578 1.234 . S
O601 Mn576 2.209 . S
O601 Mn577 2.215 . S
O601 C578 1.283 . S
O602 Mn576 2.094 . S
O602 C580 1.240 . S
O603 Mn577 2.117 . S
O603 C580 1.264 . S
C604 C597 1.403 . S
C604 C605 1.399 . S
C604 H610 0.929 . S
C605 C585 1.449 . S
C605 C604 1.399 . S
C605 H611 0.930 . S
H606 C586 0.931 . S
H607 C587 0.930 . S
H608 C595 0.931 . S
H609 C596 0.929 . S
H610 C604 0.929 . S
H611 C605 0.930 . S
Mn612 O617 2.095 1_565 S
Mn612 O627 2.162 . S
Mn612 O628 2.297 1_565 S
Mn612 O636 2.385 . S
Mn612 O637 2.209 1_565 S
Mn612 O638 2.094 . S
Mn613 O618 2.121 . S
Mn613 N620 2.257 . S
Mn613 N629 2.282 1_545 S
Mn613 O637 2.215 . S
Mn613 O639 2.117 1_545 S
C614 O636 1.234 . S
C614 O637 1.283 1_565 S
C615 O627 1.281 1_545 S
C615 O628 1.236 . S
C616 O638 1.240 . S
C616 O639 1.264 . S
O617 Mn612 2.095 1_545 S
O617 C626 1.250 . S
O618 Mn613 2.121 . S
O618 C626 1.258 . S
C619 N620 1.326 . S
C619 C623 1.460 . S
C619 H625 0.929 . S
N620 Mn613 2.257 . S
N620 C619 1.326 . S
N620 C624 1.362 . S
C621 C622 1.258 . S
C621 C624 1.431 . S
C621 C641 1.449 . S
C622 C621 1.258 . S
C622 C623 1.477 . S
C622 H642 0.931 . S
C623 C619 1.460 . S
C623 C622 1.477 . S
C623 H643 0.930 . S
C624 N620 1.362 . S
C624 C621 1.431 . S
C624 C634 1.476 1_545 S
H625 C619 0.929 . S
C626 O617 1.250 . S
C626 O618 1.258 . S
O627 Mn612 2.162 . S
O627 C615 1.281 1_565 S
O628 Mn612 2.297 1_545 S
O628 C615 1.236 . S
N629 Mn613 2.282 1_565 S
N629 C630 1.328 . S
N629 C634 1.318 . S
C630 N629 1.328 . S
C630 C631 1.457 . S
C630 H635 0.929 . S
C631 C630 1.457 . S
C631 C632 1.291 . S
C631 H644 0.931 . S
C632 C631 1.291 . S
C632 C633 1.373 . S
C632 H645 0.929 . S
C633 C632 1.373 . S
C633 C634 1.396 . S
C633 C640 1.403 . S
C634 C624 1.476 1_565 S
C634 N629 1.318 . S
C634 C633 1.396 . S
H635 C630 0.929 . S
O636 Mn612 2.385 . S
O636 C614 1.234 . S
O637 Mn612 2.209 1_545 S
O637 Mn613 2.215 . S
O637 C614 1.283 1_545 S
O638 Mn612 2.094 . S
O638 C616 1.240 . S
O639 Mn613 2.117 1_565 S
O639 C616 1.264 . S
C640 C633 1.403 . S
C640 C641 1.399 1_565 S
C640 H646 0.929 . S
C641 C621 1.449 . S
C641 C640 1.399 1_545 S
C641 H647 0.930 . S
H642 C622 0.931 . S
H643 C623 0.930 . S
H644 C631 0.931 . S
H645 C632 0.929 . S
H646 C640 0.929 . S
H647 C641 0.930 . S
C648 C649 1.363 1_565 S
C648 C654 1.379 . S
C648 N656 1.356 . S
C649 C648 1.363 1_545 S
C649 C655 1.363 1_554 S
C650 C651 1.363 1_545 S
C650 C655 1.379 . S
C650 N657 1.356 . S
C651 C650 1.363 1_565 S
C651 C654 1.363 1_556 S
N652 C654 1.356 . S
N652 H664 0.984 . S
N652 H665 0.985 1_554 S
N653 C655 1.356 . S
N653 H658 0.984 1_556 S
N653 H659 0.985 . S
C654 C648 1.379 . S
C654 C651 1.363 1_554 S
C654 N652 1.356 . S
C655 C649 1.363 1_556 S
C655 C650 1.379 . S
C655 N653 1.356 . S
N656 C648 1.356 . S
N656 H662 0.984 . S
N656 H663 0.984 . S
N657 C650 1.356 . S
N657 H660 0.984 . S
N657 H661 0.985 . S
H658 N653 0.984 1_554 S
H659 N653 0.985 . S
H660 N657 0.984 . S
H661 N657 0.985 . S
H662 N656 0.984 . S
H663 N656 0.984 . S
H664 N652 0.984 . S
H665 N652 0.985 1_556 S
C666 C667 1.363 . S
C666 C672 1.379 . S
C666 N674 1.356 . S
C667 C666 1.363 . S
C667 C673 1.363 1_554 S
C668 C669 1.363 . S
C668 C673 1.379 . S
C668 N675 1.356 . S
C669 C668 1.363 . S
C669 C672 1.363 1_556 S
N670 C672 1.356 . S
N670 H682 0.984 . S
N670 H683 0.985 1_654 S
N671 C673 1.356 . S
N671 H676 0.984 1_556 S
N671 H677 0.985 . S
C672 C666 1.379 . S
C672 C669 1.363 1_554 S
C672 N670 1.356 . S
C673 C667 1.363 1_556 S
C673 C668 1.379 . S
C673 N671 1.356 . S
N674 C666 1.356 . S
N674 H680 0.984 . S
N674 H681 0.984 . S
N675 C668 1.356 . S
N675 H678 0.984 . S
N675 H679 0.985 . S
H676 N671 0.984 1_554 S
H677 N671 0.985 . S
H678 N675 0.984 . S
H679 N675 0.985 . S
H680 N674 0.984 . S
H681 N674 0.984 . S
H682 N670 0.984 . S
H683 N670 0.985 1_456 S
C684 C685 1.363 . S
C684 C690 1.379 . S
C684 N692 1.356 . S
C685 C684 1.363 . S
C685 C691 1.363 1_556 S
C686 C687 1.363 . S
C686 C691 1.379 . S
C686 N693 1.356 . S
C687 C686 1.363 . S
C687 C690 1.363 1_554 S
N688 C690 1.356 . S
N688 H700 0.984 . S
N688 H701 0.968 1_556 S
N689 C691 1.356 . S
N689 H694 0.984 1_554 S
N689 H695 0.985 . S
C690 C684 1.379 . S
C690 C687 1.363 1_556 S
C690 N688 1.356 . S
C691 C685 1.363 1_554 S
C691 C686 1.379 . S
C691 N689 1.356 . S
N692 C684 1.356 . S
N692 H698 0.984 . S
N692 H699 0.984 . S
N693 C686 1.356 . S
N693 H696 0.984 . S
N693 H697 0.985 . S
H694 N689 0.984 1_556 S
H695 N689 0.985 . S
H696 N693 0.984 . S
H697 N693 0.985 . S
H698 N692 0.984 . S
H699 N692 0.984 . S
H700 N688 0.984 . S
H701 N688 0.968 1_554 S
C702 C703 1.363 . S
C702 C708 1.379 . S
C702 N710 1.356 . S
C703 C702 1.363 . S
C703 C709 1.363 . S
C704 C705 1.363 . S
C704 C709 1.379 . S
C704 N711 1.356 . S
C705 C704 1.363 . S
C705 C708 1.363 . S
N706 C708 1.356 . S
N706 H718 0.984 . S
N706 H719 0.985 . S
N707 C709 1.356 . S
N707 H712 0.984 . S
N707 H713 0.985 . S
C708 C702 1.379 . S
C708 C705 1.363 . S
C708 N706 1.356 . S
C709 C703 1.363 . S
C709 C704 1.379 . S
C709 N707 1.356 . S
N710 C702 1.356 . S
N710 H716 0.984 . S
N710 H717 0.984 . S
N711 C704 1.356 . S
N711 H714 0.984 . S
N711 H715 0.985 . S
H712 N707 0.984 . S
H713 N707 0.985 . S
H714 N711 0.984 . S
H715 N711 0.985 . S
H716 N710 0.984 . S
H717 N710 0.984 . S
H718 N706 0.984 . S
H719 N706 0.985 . S
C720 C721 1.363 . S
C720 C726 1.379 . S
C720 N728 1.356 . S
C721 C720 1.363 . S
C721 C727 1.363 . S
C722 C723 1.363 . S
C722 C727 1.379 . S
C722 N729 1.356 . S
C723 C722 1.363 . S
C723 C726 1.363 . S
N724 C726 1.356 . S
N724 H736 0.984 . S
N724 H737 0.985 . S
N725 C727 1.356 . S
N725 H730 0.984 . S
N725 H731 0.985 . S
C726 C720 1.379 . S
C726 C723 1.363 . S
C726 N724 1.356 . S
C727 C721 1.363 . S
C727 C722 1.379 . S
C727 N725 1.356 . S
N728 C720 1.356 . S
N728 H734 0.984 . S
N728 H735 0.984 . S
N729 C722 1.356 . S
N729 H732 0.984 . S
N729 H733 0.985 . S
H730 N725 0.984 . S
H731 N725 0.985 . S
H732 N729 0.984 . S
H733 N729 0.985 . S
H734 N728 0.984 . S
H735 N728 0.984 . S
H736 N724 0.984 . S
H737 N724 0.985 . S
C738 C739 1.363 . S
C738 C744 1.379 . S
C738 N746 1.356 . S
C739 C738 1.363 . S
C739 C745 1.363 . S
C740 C741 1.363 . S
C740 C745 1.379 . S
C740 N747 1.356 . S
C741 C740 1.363 . S
C741 C744 1.363 . S
N742 C744 1.356 . S
N742 H754 0.984 . S
N742 H755 0.985 . S
N743 C745 1.356 . S
N743 H748 0.984 . S
N743 H749 0.985 . S
C744 C738 1.379 . S
C744 C741 1.363 . S
C744 N742 1.356 . S
C745 C739 1.363 . S
C745 C740 1.379 . S
C745 N743 1.356 . S
N746 C738 1.356 . S
N746 H752 0.984 . S
N746 H753 0.984 . S
N747 C740 1.356 . S
N747 H750 0.984 . S
N747 H751 0.985 . S
H748 N743 0.984 . S
H749 N743 0.985 . S
H750 N747 0.984 . S
H751 N747 0.985 . S
H752 N746 0.984 . S
H753 N746 0.984 . S
H754 N742 0.984 . S
H755 N742 0.985 . S
C756 C757 1.363 . S
C756 C762 1.379 . S
C756 N764 1.356 . S
C757 C756 1.363 . S
C757 C763 1.363 . S
C758 C759 1.363 . S
C758 C763 1.379 . S
C758 N765 1.356 . S
C759 C758 1.363 . S
C759 C762 1.363 . S
N760 C762 1.356 . S
N760 H772 0.984 . S
N760 H773 0.985 . S
N761 C763 1.356 . S
N761 H766 0.984 . S
N761 H767 0.985 . S
C762 C756 1.379 . S
C762 C759 1.363 . S
C762 N760 1.356 . S
C763 C757 1.363 . S
C763 C758 1.379 . S
C763 N761 1.356 . S
N764 C756 1.356 . S
N764 H770 0.984 . S
N764 H771 0.984 . S
N765 C758 1.356 . S
N765 H768 0.984 . S
N765 H769 0.985 . S
H766 N761 0.984 . S
H767 N761 0.985 . S
H768 N765 0.984 . S
H769 N765 0.985 . S
H770 N764 0.984 . S
H771 N764 0.984 . S
H772 N760 0.984 . S
H773 N760 0.985 . S
C774 C775 1.363 . S
C774 C780 1.379 . S
C774 N782 1.356 . S
C775 C774 1.363 . S
C775 C781 1.363 . S
C776 C777 1.363 . S
C776 C781 1.379 . S
C776 N783 1.356 . S
C777 C776 1.363 . S
C777 C780 1.363 . S
N778 C780 1.356 . S
N778 H790 0.984 . S
N778 H791 0.985 . S
N779 C781 1.356 . S
N779 H784 0.984 . S
N779 H785 0.985 . S
C780 C774 1.379 . S
C780 C777 1.363 . S
C780 N778 1.356 . S
C781 C775 1.363 . S
C781 C776 1.379 . S
C781 N779 1.356 . S
N782 C774 1.356 . S
N782 H788 0.984 . S
N782 H789 0.984 . S
N783 C776 1.356 . S
N783 H786 0.984 . S
N783 H787 0.985 . S
H784 N779 0.984 . S
H785 N779 0.985 . S
H786 N783 0.984 . S
H787 N783 0.985 . S
H788 N782 0.984 . S
H789 N782 0.984 . S
H790 N778 0.984 . S
H791 N778 0.985 . S
C792 C793 1.363 . S
C792 C798 1.379 . S
C792 N800 1.356 . S
C793 C792 1.363 . S
C793 C799 1.363 . S
C794 C795 1.363 . S
C794 C799 1.379 . S
C794 N801 1.356 . S
C795 C794 1.363 . S
C795 C798 1.363 . S
N796 C798 1.356 . S
N796 H808 0.984 . S
N796 H809 0.985 . S
N797 C799 1.356 . S
N797 H802 0.984 . S
N797 H803 0.985 . S
C798 C792 1.379 . S
C798 C795 1.363 . S
C798 N796 1.356 . S
C799 C793 1.363 . S
C799 C794 1.379 . S
C799 N797 1.356 . S
N800 C792 1.356 . S
N800 H806 0.984 . S
N800 H807 0.984 . S
N801 C794 1.356 . S
N801 H804 0.984 . S
N801 H805 0.985 . S
H802 N797 0.984 . S
H803 N797 0.985 . S
H804 N801 0.984 . S
H805 N801 0.985 . S
H806 N800 0.984 . S
H807 N800 0.984 . S
H808 N796 0.984 . S
H809 N796 0.985 . S
C810 C811 1.363 . S
C810 C816 1.379 . S
C810 N818 1.356 . S
C811 C810 1.363 . S
C811 C817 1.363 . S
C812 C813 1.363 . S
C812 C817 1.379 . S
C812 N819 1.356 . S
C813 C812 1.363 . S
C813 C816 1.363 . S
N814 C816 1.356 . S
N814 H826 0.984 . S
N814 H827 0.985 . S
N815 C817 1.356 . S
N815 H820 0.984 . S
N815 H821 0.985 . S
C816 C810 1.379 . S
C816 C813 1.363 . S
C816 N814 1.356 . S
C817 C811 1.363 . S
C817 C812 1.379 . S
C817 N815 1.356 . S
N818 C810 1.356 . S
N818 H824 0.984 . S
N818 H825 0.984 . S
N819 C812 1.356 . S
N819 H822 0.984 . S
N819 H823 0.985 . S
H820 N815 0.984 . S
H821 N815 0.985 . S
H822 N819 0.984 . S
H823 N819 0.985 . S
H824 N818 0.984 . S
H825 N818 0.984 . S
H826 N814 0.984 . S
H827 N814 0.985 . S
C828 C829 1.363 . S
C828 C834 1.379 . S
C828 N836 1.356 . S
C829 C828 1.363 . S
C829 C835 1.363 . S
C830 C831 1.363 . S
C830 C835 1.379 . S
C830 N837 1.356 . S
C831 C830 1.363 . S
C831 C834 1.363 . S
N832 C834 1.356 . S
N832 H844 0.984 . S
N832 H845 0.985 . S
N833 C835 1.356 . S
N833 H838 0.984 . S
N833 H839 0.985 . S
C834 C828 1.379 . S
C834 C831 1.363 . S
C834 N832 1.356 . S
C835 C829 1.363 . S
C835 C830 1.379 . S
C835 N833 1.356 . S
N836 C828 1.356 . S
N836 H842 0.984 . S
N836 H843 0.984 . S
N837 C830 1.356 . S
N837 H840 0.984 . S
N837 H841 0.985 . S
H838 N833 0.984 . S
H839 N833 0.985 . S
H840 N837 0.984 . S
H841 N837 0.985 . S
H842 N836 0.984 . S
H843 N836 0.984 . S
H844 N832 0.984 . S
H845 N832 0.985 . S
C846 C847 1.363 . S
C846 C852 1.379 . S
C846 N854 1.356 . S
C847 C846 1.363 . S
C847 C853 1.363 . S
C848 C849 1.363 . S
C848 C853 1.379 . S
C848 N855 1.356 . S
C849 C848 1.363 . S
C849 C852 1.363 . S
N850 C852 1.356 . S
N850 H862 0.984 . S
N850 H863 0.985 . S
N851 C853 1.356 . S
N851 H856 0.984 . S
N851 H857 0.985 . S
C852 C846 1.379 . S
C852 C849 1.363 . S
C852 N850 1.356 . S
C853 C847 1.363 . S
C853 C848 1.379 . S
C853 N851 1.356 . S
N854 C846 1.356 . S
N854 H860 0.984 . S
N854 H861 0.984 . S
N855 C848 1.356 . S
N855 H858 0.984 . S
N855 H859 0.985 . S
H856 N851 0.984 . S
H857 N851 0.985 . S
H858 N855 0.984 . S
H859 N855 0.985 . S
H860 N854 0.984 . S
H861 N854 0.984 . S
H862 N850 0.984 . S
H863 N850 0.985 . S
C864 C865 1.363 . S
C864 C870 1.379 . S
C864 N872 1.356 . S
C865 C864 1.363 . S
C865 C871 1.363 . S
C866 C867 1.363 . S
C866 C871 1.379 . S
C866 N873 1.356 . S
C867 C866 1.363 . S
C867 C870 1.363 . S
N868 C870 1.356 . S
N868 H880 0.984 . S
N868 H881 0.985 . S
N869 C871 1.356 . S
N869 H874 0.984 . S
N869 H875 0.985 . S
C870 C864 1.379 . S
C870 C867 1.363 . S
C870 N868 1.356 . S
C871 C865 1.363 . S
C871 C866 1.379 . S
C871 N869 1.356 . S
N872 C864 1.356 . S
N872 H878 0.984 . S
N872 H879 0.984 . S
N873 C866 1.356 . S
N873 H876 0.984 . S
N873 H877 0.985 . S
H874 N869 0.984 . S
H875 N869 0.985 . S
H876 N873 0.984 . S
H877 N873 0.985 . S
H878 N872 0.984 . S
H879 N872 0.984 . S
H880 N868 0.984 . S
H881 N868 0.985 . S
C882 C883 1.363 . S
C882 C888 1.379 . S
C882 N890 1.356 . S
C883 C882 1.363 . S
C883 C889 1.363 . S
C884 C885 1.363 . S
C884 C889 1.379 . S
C884 N891 1.356 . S
C885 C884 1.363 . S
C885 C888 1.363 . S
N886 C888 1.356 . S
N886 H898 0.984 . S
N886 H899 0.985 . S
N887 C889 1.356 . S
N887 H892 0.984 . S
N887 H893 0.985 . S
C888 C882 1.379 . S
C888 C885 1.363 . S
C888 N886 1.356 . S
C889 C883 1.363 . S
C889 C884 1.379 . S
C889 N887 1.356 . S
N890 C882 1.356 . S
N890 H896 0.984 . S
N890 H897 0.984 . S
N891 C884 1.356 . S
N891 H894 0.984 . S
N891 H895 0.985 . S
H892 N887 0.984 . S
H893 N887 0.985 . S
H894 N891 0.984 . S
H895 N891 0.985 . S
H896 N890 0.984 . S
H897 N890 0.984 . S
H898 N886 0.984 . S
H899 N886 0.985 . S
C900 C901 1.363 . S
C900 C906 1.379 . S
C900 N908 1.356 . S
C901 C900 1.363 . S
C901 C907 1.363 . S
C902 C903 1.363 . S
C902 C907 1.379 . S
C902 N909 1.356 . S
C903 C902 1.363 . S
C903 C906 1.363 . S
N904 C906 1.356 . S
N904 H916 0.984 . S
N904 H917 0.985 . S
N905 C907 1.356 . S
N905 H910 0.984 . S
N905 H911 0.985 . S
C906 C900 1.379 . S
C906 C903 1.363 . S
C906 N904 1.356 . S
C907 C901 1.363 . S
C907 C902 1.379 . S
C907 N905 1.356 . S
N908 C900 1.356 . S
N908 H914 0.984 . S
N908 H915 0.984 . S
N909 C902 1.356 . S
N909 H912 0.984 . S
N909 H913 0.985 . S
H910 N905 0.984 . S
H911 N905 0.985 . S
H912 N909 0.984 . S
H913 N909 0.985 . S
H914 N908 0.984 . S
H915 N908 0.984 . S
H916 N904 0.984 . S
H917 N904 0.985 . S
C918 C919 1.363 . S
C918 C924 1.379 . S
C918 N926 1.356 . S
C919 C918 1.363 . S
C919 C925 1.363 1_455 S
C920 C921 1.363 . S
C920 C925 1.379 . S
C920 N927 1.356 . S
C921 C920 1.363 . S
C921 C924 1.363 1_655 S
N922 C924 1.356 . S
N922 H934 0.984 . S
N922 H935 0.985 . S
N923 C925 1.356 . S
N923 H928 0.984 . S
N923 H929 0.985 . S
C924 C918 1.379 . S
C924 C921 1.363 1_455 S
C924 N922 1.356 . S
C925 C919 1.363 1_655 S
C925 C920 1.379 . S
C925 N923 1.356 . S
N926 C918 1.356 . S
N926 H932 0.984 . S
N926 H933 0.984 . S
N927 C920 1.356 . S
N927 H930 0.984 . S
N927 H931 0.985 . S
H928 N923 0.984 . S
H929 N923 0.985 . S
H930 N927 0.984 . S
H931 N927 0.985 . S
H932 N926 0.984 . S
H933 N926 0.984 . S
H934 N922 0.984 . S
H935 N922 0.985 . S
C936 C937 1.363 . S
C936 C942 1.379 . S
C936 N944 1.356 . S
C937 C936 1.363 . S
C937 C943 1.363 . S
C938 C939 1.363 . S
C938 C943 1.379 . S
C938 N945 1.356 . S
C939 C938 1.363 . S
C939 C942 1.363 . S
N940 C942 1.356 . S
N940 H952 0.984 . S
N940 H953 0.985 . S
N941 C943 1.356 . S
N941 H946 0.984 . S
N941 H947 0.985 . S
C942 C936 1.379 . S
C942 C939 1.363 . S
C942 N940 1.356 . S
C943 C937 1.363 . S
C943 C938 1.379 . S
C943 N941 1.356 . S
N944 C936 1.356 . S
N944 H950 0.984 . S
N944 H951 0.984 . S
N945 C938 1.356 . S
N945 H948 0.984 . S
N945 H949 0.985 . S
H946 N941 0.984 . S
H947 N941 0.985 . S
H948 N945 0.984 . S
H949 N945 0.985 . S
H950 N944 0.984 . S
H951 N944 0.984 . S
H952 N940 0.984 . S
H953 N940 0.985 . S
C954 C955 1.363 . S
C954 C960 1.379 . S
C954 N962 1.356 . S
C955 C954 1.363 . S
C955 C961 1.363 1_545 S
C956 C957 1.363 . S
C956 C961 1.379 . S
C956 N963 1.356 . S
C957 C956 1.363 . S
C957 C960 1.363 1_565 S
N958 C960 1.356 . S
N958 H970 0.984 . S
N958 H971 0.985 . S
N959 C961 1.356 . S
N959 H964 0.984 . S
N959 H965 0.985 . S
C960 C954 1.379 . S
C960 C957 1.363 1_545 S
C960 N958 1.356 . S
C961 C955 1.363 1_565 S
C961 C956 1.379 . S
C961 N959 1.356 . S
N962 C954 1.356 . S
N962 H968 0.984 . S
N962 H969 0.984 . S
N963 C956 1.356 . S
N963 H966 0.984 . S
N963 H967 0.985 . S
H964 N959 0.984 . S
H965 N959 0.985 . S
H966 N963 0.984 . S
H967 N963 0.985 . S
H968 N962 0.984 . S
H969 N962 0.984 . S
H970 N958 0.984 . S
H971 N958 0.985 . S
C972 C973 1.363 . S
C972 C978 1.379 1_554 S
C972 N980 1.356 . S
C973 C972 1.363 . S
C973 C979 1.363 . S
C974 C975 1.363 1_554 S
C974 C979 1.379 . S
C974 N981 1.356 . S
C975 C974 1.363 1_556 S
C975 C978 1.363 . S
N976 C978 1.356 . S
N976 H988 0.984 . S
N976 H989 0.985 . S
N977 C979 1.356 . S
N977 H982 0.984 . S
N977 H983 0.985 . S
C978 C972 1.379 1_556 S
C978 C975 1.363 . S
C978 N976 1.356 . S
C979 C973 1.363 . S
C979 C974 1.379 . S
C979 N977 1.356 . S
N980 C972 1.356 . S
N980 H986 0.984 . S
N980 H987 0.984 . S
N981 C974 1.356 . S
N981 H984 0.984 1_554 S
N981 H985 0.985 . S
H982 N977 0.984 . S
H983 N977 0.985 . S
H984 N981 0.984 1_556 S
H985 N981 0.985 . S
H986 N980 0.984 . S
H987 N980 0.984 . S
H988 N976 0.984 . S
H989 N976 0.985 . S
C990 C991 1.356 1_556 S
C990 C996 1.384 . S
C990 N998 1.355 1_556 S
C991 C990 1.356 1_554 S
C991 C997 1.363 . S
C992 C993 1.363 1_554 S
C992 C997 1.379 . S
C992 N999 1.356 . S
C993 C992 1.363 1_556 S
C993 C996 1.363 . S
N994 C996 1.356 . S
N994 H1006 0.984 . S
N994 H1007 0.985 . S
N995 C997 1.356 . S
N995 H1000 0.984 . S
N995 H1001 0.985 . S
C996 C990 1.384 . S
C996 C993 1.363 . S
C996 N994 1.356 . S
C997 C991 1.363 . S
C997 C992 1.379 . S
C997 N995 1.356 . S
N998 C990 1.355 1_554 S
N998 H1004 0.984 1_554 S
N998 H1005 0.984 . S
N999 C992 1.356 . S
N999 H1002 0.984 1_554 S
N999 H1003 0.985 . S
H1000 N995 0.984 . S
H1001 N995 0.985 . S
H1002 N999 0.984 1_556 S
H1003 N999 0.985 . S
H1004 N998 0.984 1_556 S
H1005 N998 0.984 . S
H1006 N994 0.984 . S
H1007 N994 0.985 . S
C1008 C1009 1.363 . S
C1008 C1014 1.379 . S
C1008 N1016 1.356 . S
C1009 C1008 1.363 . S
C1009 C1015 1.363 1_554 S
C1010 C1011 1.363 . S
C1010 C1015 1.379 . S
C1010 N1017 1.356 . S
C1011 C1010 1.363 . S
C1011 C1014 1.363 1_556 S
N1012 C1014 1.356 . S
N1012 H1024 0.984 . S
N1012 H1025 0.985 . S
N1013 C1015 1.356 . S
N1013 H1018 0.984 . S
N1013 H1019 0.985 . S
C1014 C1008 1.379 . S
C1014 C1011 1.363 1_554 S
C1014 N1012 1.356 . S
C1015 C1009 1.363 1_556 S
C1015 C1010 1.379 . S
C1015 N1013 1.356 . S
N1016 C1008 1.356 . S
N1016 H1022 0.984 . S
N1016 H1023 0.984 . S
N1017 C1010 1.356 . S
N1017 H1020 0.984 . S
N1017 H1021 0.985 . S
H1018 N1013 0.984 . S
H1019 N1013 0.985 . S
H1020 N1017 0.984 . S
H1021 N1017 0.985 . S
H1022 N1016 0.984 . S
H1023 N1016 0.984 . S
H1024 N1012 0.984 . S
H1025 N1012 0.985 . S
C1026 C1027 1.365 1_554 S
C1026 C1032 1.377 . S
C1026 N1034 1.357 1_554 S
C1027 C1026 1.365 1_556 S
C1027 C1033 1.363 . S
C1028 C1029 1.363 1_556 S
C1028 C1033 1.379 . S
C1028 N1035 1.356 . S
C1029 C1028 1.363 1_554 S
C1029 C1032 1.363 . S
N1030 C1032 1.356 . S
N1030 H1042 0.984 . S
N1030 H1043 0.985 . S
N1031 C1033 1.356 . S
N1031 H1036 0.984 . S
N1031 H1037 0.985 . S
C1032 C1026 1.377 . S
C1032 C1029 1.363 . S
C1032 N1030 1.356 . S
C1033 C1027 1.363 . S
C1033 C1028 1.379 . S
C1033 N1031 1.356 . S
N1034 C1026 1.357 1_556 S
N1034 H1040 0.984 1_556 S
N1034 H1041 0.984 . S
N1035 C1028 1.356 . S
N1035 H1038 0.984 1_556 S
N1035 H1039 0.985 . S
H1036 N1031 0.984 . S
H1037 N1031 0.985 . S
H1038 N1035 0.984 1_554 S
H1039 N1035 0.985 . S
H1040 N1034 0.984 1_554 S
H1041 N1034 0.984 . S
H1042 N1030 0.984 . S
H1043 N1030 0.985 . S
C1044 C1045 1.363 1_556 S
C1044 C1050 1.379 . S
C1044 N1052 1.356 . S
C1045 C1044 1.363 1_554 S
C1045 C1051 1.363 . S
C1046 C1047 1.379 . S
C1046 C1051 1.368 1_556 S
C1046 N1053 1.356 . S
C1047 C1046 1.379 . S
C1047 C1050 1.363 . S
N1048 C1050 1.356 . S
N1048 H1060 0.984 . S
N1048 H1061 0.985 . S
N1049 C1051 1.356 . S
N1049 H1054 0.984 . S
N1049 H1055 0.985 . S
C1050 C1044 1.379 . S
C1050 C1047 1.363 . S
C1050 N1048 1.356 . S
C1051 C1045 1.363 . S
C1051 C1046 1.368 1_554 S
C1051 N1049 1.356 . S
N1052 C1044 1.356 . S
N1052 H1058 0.984 . S
N1052 H1059 0.984 1_556 S
N1053 C1046 1.356 . S
N1053 H1056 0.996 . S
N1053 H1057 0.973 1_556 S
H1054 N1049 0.984 . S
H1055 N1049 0.985 . S
H1056 N1053 0.996 . S
H1057 N1053 0.973 1_554 S
H1058 N1052 0.984 . S
H1059 N1052 0.984 1_554 S
H1060 N1048 0.984 . S
H1061 N1048 0.985 . S
C1062 C1063 1.363 . S
C1062 C1068 1.379 . S
C1062 N1070 1.356 . S
C1063 C1062 1.363 . S
C1063 C1069 1.363 1_556 S
C1064 C1065 1.363 . S
C1064 C1069 1.379 . S
C1064 N1071 1.356 . S
C1065 C1064 1.363 . S
C1065 C1068 1.363 1_554 S
N1066 C1068 1.356 . S
N1066 H1078 0.984 . S
N1066 H1079 0.985 . S
N1067 C1069 1.356 . S
N1067 H1072 0.984 1_554 S
N1067 H1073 0.985 . S
C1068 C1062 1.379 . S
C1068 C1065 1.363 1_556 S
C1068 N1066 1.356 . S
C1069 C1063 1.363 1_554 S
C1069 C1064 1.379 . S
C1069 N1067 1.356 . S
N1070 C1062 1.356 . S
N1070 H1076 0.984 . S
N1070 H1077 0.984 . S
N1071 C1064 1.356 . S
N1071 H1074 0.984 . S
N1071 H1075 0.985 . S
H1072 N1067 0.984 1_556 S
H1073 N1067 0.985 . S
H1074 N1071 0.984 . S
H1075 N1071 0.985 . S
H1076 N1070 0.984 . S
H1077 N1070 0.984 . S
H1078 N1066 0.984 . S
H1079 N1066 0.985 . S
C1080 C1081 1.363 . S
C1080 C1086 1.379 . S
C1080 N1088 1.356 . S
C1081 C1080 1.363 . S
C1081 C1087 1.363 . S
C1082 C1083 1.363 . S
C1082 C1087 1.379 . S
C1082 N1089 1.356 . S
C1083 C1082 1.363 . S
C1083 C1086 1.363 . S
N1084 C1086 1.356 . S
N1084 H1096 0.984 . S
N1084 H1097 0.985 . S
N1085 C1087 1.356 . S
N1085 H1090 0.984 . S
N1085 H1091 0.985 . S
C1086 C1080 1.379 . S
C1086 C1083 1.363 . S
C1086 N1084 1.356 . S
C1087 C1081 1.363 . S
C1087 C1082 1.379 . S
C1087 N1085 1.356 . S
N1088 C1080 1.356 . S
N1088 H1094 0.984 . S
N1088 H1095 0.984 . S
N1089 C1082 1.356 . S
N1089 H1092 0.984 . S
N1089 H1093 0.985 . S
H1090 N1085 0.984 . S
H1091 N1085 0.985 . S
H1092 N1089 0.984 . S
H1093 N1089 0.985 . S
H1094 N1088 0.984 . S
H1095 N1088 0.984 . S
H1096 N1084 0.984 . S
H1097 N1084 0.985 . S
C1098 C1099 1.363 . S
C1098 C1104 1.379 . S
C1098 N1106 1.356 . S
C1099 C1098 1.363 . S
C1099 C1105 1.363 . S
C1100 C1101 1.363 . S
C1100 C1105 1.379 . S
C1100 N1107 1.356 . S
C1101 C1100 1.363 . S
C1101 C1104 1.363 . S
N1102 C1104 1.356 . S
N1102 H1114 0.984 . S
N1102 H1115 0.985 . S
N1103 C1105 1.356 . S
N1103 H1108 0.984 . S
N1103 H1109 0.985 . S
C1104 C1098 1.379 . S
C1104 C1101 1.363 . S
C1104 N1102 1.356 . S
C1105 C1099 1.363 . S
C1105 C1100 1.379 . S
C1105 N1103 1.356 . S
N1106 C1098 1.356 . S
N1106 H1112 0.984 . S
N1106 H1113 0.984 . S
N1107 C1100 1.356 . S
N1107 H1110 0.984 . S
N1107 H1111 0.985 . S
H1108 N1103 0.984 . S
H1109 N1103 0.985 . S
H1110 N1107 0.984 . S
H1111 N1107 0.985 . S
H1112 N1106 0.984 . S
H1113 N1106 0.984 . S
H1114 N1102 0.984 . S
H1115 N1102 0.985 . S
C1116 C1117 1.363 . S
C1116 C1122 1.379 . S
C1116 N1124 1.356 . S
C1117 C1116 1.363 . S
C1117 C1123 1.363 . S
C1118 C1119 1.363 . S
C1118 C1123 1.379 . S
C1118 N1125 1.356 . S
C1119 C1118 1.363 . S
C1119 C1122 1.363 . S
N1120 C1122 1.356 . S
N1120 H1132 0.984 . S
N1120 H1133 0.985 . S
N1121 C1123 1.356 . S
N1121 H1126 0.984 . S
N1121 H1127 0.985 . S
C1122 C1116 1.379 . S
C1122 C1119 1.363 . S
C1122 N1120 1.356 . S
C1123 C1117 1.363 . S
C1123 C1118 1.379 . S
C1123 N1121 1.356 . S
N1124 C1116 1.356 . S
N1124 H1130 0.984 . S
N1124 H1131 0.984 . S
N1125 C1118 1.356 . S
N1125 H1128 0.984 . S
N1125 H1129 0.985 . S
H1126 N1121 0.984 . S
H1127 N1121 0.985 . S
H1128 N1125 0.984 . S
H1129 N1125 0.985 . S
H1130 N1124 0.984 . S
H1131 N1124 0.984 . S
H1132 N1120 0.984 . S
H1133 N1120 0.985 . S
C1134 C1135 1.363 . S
C1134 C1140 1.379 . S
C1134 N1142 1.356 . S
C1135 C1134 1.363 . S
C1135 C1141 1.363 . S
C1136 C1137 1.363 . S
C1136 C1141 1.379 . S
C1136 N1143 1.356 . S
C1137 C1136 1.363 . S
C1137 C1140 1.363 . S
N1138 C1140 1.356 . S
N1138 H1150 0.984 . S
N1138 H1151 0.985 . S
N1139 C1141 1.356 . S
N1139 H1144 0.984 . S
N1139 H1145 0.985 . S
C1140 C1134 1.379 . S
C1140 C1137 1.363 . S
C1140 N1138 1.356 . S
C1141 C1135 1.363 . S
C1141 C1136 1.379 . S
C1141 N1139 1.356 . S
N1142 C1134 1.356 . S
N1142 H1148 0.984 . S
N1142 H1149 0.984 . S
N1143 C1136 1.356 . S
N1143 H1146 0.984 . S
N1143 H1147 0.985 . S
H1144 N1139 0.984 . S
H1145 N1139 0.985 . S
H1146 N1143 0.984 . S
H1147 N1143 0.985 . S
H1148 N1142 0.984 . S
H1149 N1142 0.984 . S
H1150 N1138 0.984 . S
H1151 N1138 0.985 . S
C1152 C1153 1.363 1_565 S
C1152 C1158 1.379 . S
C1152 N1160 1.356 . S
C1153 C1152 1.363 1_545 S
C1153 C1159 1.363 . S
C1154 C1155 1.363 . S
C1154 C1159 1.379 . S
C1154 N1161 1.356 . S
C1155 C1154 1.363 . S
C1155 C1158 1.363 1_545 S
N1156 C1158 1.356 . S
N1156 H1168 0.984 . S
N1156 H1169 0.985 . S
N1157 C1159 1.356 . S
N1157 H1162 0.984 . S
N1157 H1163 0.985 . S
C1158 C1152 1.379 . S
C1158 C1155 1.363 1_565 S
C1158 N1156 1.356 . S
C1159 C1153 1.363 . S
C1159 C1154 1.379 . S
C1159 N1157 1.356 . S
N1160 C1152 1.356 . S
N1160 H1166 0.984 . S
N1160 H1167 0.984 . S
N1161 C1154 1.356 . S
N1161 H1164 0.984 . S
N1161 H1165 0.985 . S
H1162 N1157 0.984 . S
H1163 N1157 0.985 . S
H1164 N1161 0.984 . S
H1165 N1161 0.985 . S
H1166 N1160 0.984 . S
H1167 N1160 0.984 . S
H1168 N1156 0.984 . S
H1169 N1156 0.985 . S
C1170 C1171 1.363 . S
C1170 C1176 1.379 . S
C1170 N1178 1.356 . S
C1171 C1170 1.363 . S
C1171 C1177 1.363 . S
C1172 C1173 1.363 . S
C1172 C1177 1.379 . S
C1172 N1179 1.356 . S
C1173 C1172 1.363 . S
C1173 C1176 1.363 . S
N1174 C1176 1.356 . S
N1174 H1186 0.984 . S
N1174 H1187 0.985 . S
N1175 C1177 1.356 . S
N1175 H1180 0.984 . S
N1175 H1181 0.985 1_655 S
C1176 C1170 1.379 . S
C1176 C1173 1.363 . S
C1176 N1174 1.356 . S
C1177 C1171 1.363 . S
C1177 C1172 1.379 . S
C1177 N1175 1.356 . S
N1178 C1170 1.356 . S
N1178 H1184 0.984 . S
N1178 H1185 0.984 . S
N1179 C1172 1.356 . S
N1179 H1182 0.984 . S
N1179 H1183 0.985 1_655 S
H1180 N1175 0.984 . S
H1181 N1175 0.985 1_455 S
H1182 N1179 0.984 . S
H1183 N1179 0.985 1_455 S
H1184 N1178 0.984 . S
H1185 N1178 0.984 . S
H1186 N1174 0.984 . S
H1187 N1174 0.985 . S
C1188 C1189 1.363 . S
C1188 C1194 1.379 . S
C1188 N1196 1.356 . S
C1189 C1188 1.363 . S
C1189 C1195 1.363 . S
C1190 C1191 1.363 . S
C1190 C1195 1.379 . S
C1190 N1197 1.356 . S
C1191 C1190 1.363 . S
C1191 C1194 1.363 . S
N1192 C1194 1.356 . S
N1192 H1204 0.984 . S
N1192 H1205 0.985 . S
N1193 C1195 1.356 . S
N1193 H1198 0.984 . S
N1193 H1199 0.985 . S
C1194 C1188 1.379 . S
C1194 C1191 1.363 . S
C1194 N1192 1.356 . S
C1195 C1189 1.363 . S
C1195 C1190 1.379 . S
C1195 N1193 1.356 . S
N1196 C1188 1.356 . S
N1196 H1202 0.984 . S
N1196 H1203 0.984 . S
N1197 C1190 1.356 . S
N1197 H1200 0.984 . S
N1197 H1201 0.985 . S
H1198 N1193 0.984 . S
H1199 N1193 0.985 . S
H1200 N1197 0.984 . S
H1201 N1197 0.985 . S
H1202 N1196 0.984 . S
H1203 N1196 0.984 . S
H1204 N1192 0.984 . S
H1205 N1192 0.985 . S
C1206 C1207 1.363 1_545 S
C1206 C1212 1.379 . S
C1206 N1214 1.356 . S
C1207 C1206 1.363 1_565 S
C1207 C1213 1.363 . S
C1208 C1209 1.363 . S
C1208 C1213 1.379 . S
C1208 N1215 1.356 . S
C1209 C1208 1.363 . S
C1209 C1212 1.363 1_565 S
N1210 C1212 1.356 . S
N1210 H1222 0.984 . S
N1210 H1223 0.985 . S
N1211 C1213 1.356 . S
N1211 H1216 0.984 . S
N1211 H1217 0.985 . S
C1212 C1206 1.379 . S
C1212 C1209 1.363 1_545 S
C1212 N1210 1.356 . S
C1213 C1207 1.363 . S
C1213 C1208 1.379 . S
C1213 N1211 1.356 . S
N1214 C1206 1.356 . S
N1214 H1220 0.984 . S
N1214 H1221 0.984 . S
N1215 C1208 1.356 . S
N1215 H1218 0.984 . S
N1215 H1219 0.985 . S
H1216 N1211 0.984 . S
H1217 N1211 0.985 . S
H1218 N1215 0.984 . S
H1219 N1215 0.985 . S
H1220 N1214 0.984 . S
H1221 N1214 0.984 . S
H1222 N1210 0.984 . S
H1223 N1210 0.985 . S
C1224 C1225 1.363 . S
C1224 C1230 1.379 . S
C1224 N1232 1.356 . S
C1225 C1224 1.363 . S
C1225 C1231 1.363 1_455 S
C1226 C1227 1.363 1_655 S
C1226 C1231 1.379 . S
C1226 N1233 1.356 . S
C1227 C1226 1.363 1_455 S
C1227 C1230 1.363 . S
N1228 C1230 1.356 . S
N1228 H1240 0.984 . S
N1228 H1241 0.985 . S
N1229 C1231 1.356 . S
N1229 H1234 0.984 . S
N1229 H1235 0.985 . S
C1230 C1224 1.379 . S
C1230 C1227 1.363 . S
C1230 N1228 1.356 . S
C1231 C1225 1.363 1_655 S
C1231 C1226 1.379 . S
C1231 N1229 1.356 . S
N1232 C1224 1.356 . S
N1232 H1238 0.984 . S
N1232 H1239 0.984 . S
N1233 C1226 1.356 . S
N1233 H1236 0.984 . S
N1233 H1237 0.985 . S
H1234 N1229 0.984 . S
H1235 N1229 0.985 . S
H1236 N1233 0.984 . S
H1237 N1233 0.985 . S
H1238 N1232 0.984 . S
H1239 N1232 0.984 . S
H1240 N1228 0.984 . S
H1241 N1228 0.985 . S
C1242 C1243 1.363 . S
C1242 C1248 1.379 . S
C1242 N1250 1.356 . S
C1243 C1242 1.363 . S
C1243 C1249 1.363 . S
C1244 C1245 1.363 . S
C1244 C1249 1.379 . S
C1244 N1251 1.356 . S
C1245 C1244 1.363 . S
C1245 C1248 1.363 . S
N1246 C1248 1.356 . S
N1246 H1258 0.984 . S
N1246 H1259 0.985 . S
N1247 C1249 1.356 . S
N1247 H1252 0.984 . S
N1247 H1253 0.985 . S
C1248 C1242 1.379 . S
C1248 C1245 1.363 . S
C1248 N1246 1.356 . S
C1249 C1243 1.363 . S
C1249 C1244 1.379 . S
C1249 N1247 1.356 . S
N1250 C1242 1.356 . S
N1250 H1256 0.984 . S
N1250 H1257 0.984 . S
N1251 C1244 1.356 . S
N1251 H1254 0.984 . S
N1251 H1255 0.985 . S
H1252 N1247 0.984 . S
H1253 N1247 0.985 . S
H1254 N1251 0.984 . S
H1255 N1251 0.985 . S
H1256 N1250 0.984 . S
H1257 N1250 0.984 . S
H1258 N1246 0.984 . S
H1259 N1246 0.985 . S
C1260 C1261 1.363 . S
C1260 C1266 1.379 . S
C1260 N1268 1.356 . S
C1261 C1260 1.363 . S
C1261 C1267 1.363 . S
C1262 C1263 1.363 . S
C1262 C1267 1.379 . S
C1262 N1269 1.356 . S
C1263 C1262 1.363 . S
C1263 C1266 1.363 . S
N1264 C1266 1.356 . S
N1264 H1276 0.984 . S
N1264 H1277 0.985 . S
N1265 C1267 1.356 . S
N1265 H1270 0.984 . S
N1265 H1271 0.985 . S
C1266 C1260 1.379 . S
C1266 C1263 1.363 . S
C1266 N1264 1.356 . S
C1267 C1261 1.363 . S
C1267 C1262 1.379 . S
C1267 N1265 1.356 . S
N1268 C1260 1.356 . S
N1268 H1274 0.984 . S
N1268 H1275 0.984 . S
N1269 C1262 1.356 . S
N1269 H1272 0.984 . S
N1269 H1273 0.985 . S
H1270 N1265 0.984 . S
H1271 N1265 0.985 . S
H1272 N1269 0.984 . S
H1273 N1269 0.985 . S
H1274 N1268 0.984 . S
H1275 N1268 0.984 . S
H1276 N1264 0.984 . S
H1277 N1264 0.985 . S
C1278 C1279 1.363 . S
C1278 C1284 1.379 . S
C1278 N1286 1.356 . S
C1279 C1278 1.363 . S
C1279 C1285 1.363 . S
C1280 C1281 1.363 . S
C1280 C1285 1.379 . S
C1280 N1287 1.356 . S
C1281 C1280 1.363 . S
C1281 C1284 1.363 . S
N1282 C1284 1.356 . S
N1282 H1294 0.984 . S
N1282 H1295 0.985 . S
N1283 C1285 1.356 . S
N1283 H1288 0.984 . S
N1283 H1289 0.985 . S
C1284 C1278 1.379 . S
C1284 C1281 1.363 . S
C1284 N1282 1.356 . S
C1285 C1279 1.363 . S
C1285 C1280 1.379 . S
C1285 N1283 1.356 . S
N1286 C1278 1.356 . S
N1286 H1292 0.984 . S
N1286 H1293 0.984 . S
N1287 C1280 1.356 . S
N1287 H1290 0.984 . S
N1287 H1291 0.985 . S
H1288 N1283 0.984 . S
H1289 N1283 0.985 . S
H1290 N1287 0.984 . S
H1291 N1287 0.985 . S
H1292 N1286 0.984 . S
H1293 N1286 0.984 . S
H1294 N1282 0.984 . S
H1295 N1282 0.985 . S
C649 C14 1.691 . S
C651 C122 1.691 . S
C667 C50 1.761 . S
C669 C147 1.933 1_655 S
C685 C194 1.793 . S
C687 C86 1.795 . S
C703 C230 1.682 . S
C705 C338 1.682 . S
C721 C266 1.758 . S
C723 C363 1.928 . S
C739 C410 1.779 . S
C741 C302 1.780 . S
C757 C554 1.682 . S
C759 C446 1.682 . S
C775 C579 1.929 . S
C777 C482 1.757 . S
C793 C626 1.779 . S
C795 C518 1.780 . S
C811 C3 1.734 . S
C813 C327 1.729 . S
C829 C39 1.780 . S
C831 C374 1.568 . S
C847 C399 1.823 . S
C849 C75 1.821 . S
C865 C111 1.730 . S
C867 C435 1.733 . S
C883 C158 1.568 . S
C885 C471 1.780 . S
C901 C183 1.822 . S
C903 C507 1.821 . S
C919 C219 1.753 . S
C921 C543 1.752 . S
C937 C255 1.781 . S
C939 C590 1.570 . S
C955 C615 1.817 . S
C957 C291 1.814 . S
C973 C4 0.796 . S
C975 C148 0.799 . S
C991 C40 0.807 . S
C993 C182 0.809 . S
C1009 C76 0.803 . S
C1011 C110 0.804 . S
C1027 C112 0.717 . S
C1029 C38 0.715 . S
C1045 C74 0.756 . S
C1047 C146 0.756 . S
C1063 C184 0.770 . S
C1065 C2 0.772 . S
C1081 C220 0.814 . S
C1083 C364 0.818 . S
C1099 C398 0.811 . S
C1101 C256 0.809 . S
C1117 C326 0.821 . S
C1119 C292 0.823 . S
C1135 C254 0.716 . S
C1137 C328 0.718 . S
C1153 C362 0.759 . S
C1155 C290 0.759 . S
C1171 C400 0.760 . S
C1173 C218 0.761 . S
C1189 C580 0.799 . S
C1191 C436 0.797 . S
C1207 C614 0.814 . S
C1209 C472 0.811 . S
C1225 C508 0.791 . S
C1227 C542 0.793 . S
C1243 C470 0.734 . S
C1245 C544 0.736 . S
C1261 C506 0.760 . S
C1263 C578 0.759 . S
C1279 C434 0.786 . S
C1281 C616 0.787 . S
