# Generated by pormake.
# Topology est, (5)-cn, num edge types: 1
# Building blocks:
#     Node 0, Type 0, BuildingBlock: XOMCOT_clean_sbu_0, # of connection points: 5
#     Node 1, Type 0, BuildingBlock: XOMCOT_clean_sbu_0, # of connection points: 5
#     Node 2, Type 0, BuildingBlock: XOMCOT_clean_sbu_0, # of connection points: 5
#     Node 3, Type 0, BuildingBlock: XOMCOT_clean_sbu_0, # of connection points: 5
#     Edge 4, Type (0, 0), BuildingBlock: EZIPEK_clean_linker_0, # of connection points: 2
#     Edge 5, Type (0, 0), BuildingBlock: EZIPEK_clean_linker_0, # of connection points: 2
#     Edge 6, Type (0, 0), BuildingBlock: EZIPEK_clean_linker_0, # of connection points: 2
#     Edge 7, Type (0, 0), BuildingBlock: EZIPEK_clean_linker_0, # of connection points: 2
#     Edge 8, Type (0, 0), BuildingBlock: EZIPEK_clean_linker_0, # of connection points: 2
#     Edge 9, Type (0, 0), BuildingBlock: EZIPEK_clean_linker_0, # of connection points: 2
#     Edge 10, Type (0, 0), BuildingBlock: EZIPEK_clean_linker_0, # of connection points: 2
#     Edge 11, Type (0, 0), BuildingBlock: EZIPEK_clean_linker_0, # of connection points: 2
#     Edge 12, Type (0, 0), BuildingBlock: EZIPEK_clean_linker_0, # of connection points: 2
#     Edge 13, Type (0, 0), BuildingBlock: EZIPEK_clean_linker_0, # of connection points: 2
# Relax obj value: 0.183
# Max RMSD: 0.236
# Mean RMSD: 0.236
data_MOF--net-est--node1-XOMCOT_clean_sbu_0--edge1-EZIPEK_clean_linker_0
_symmetry_space_group_name_H-M    P1
_symmetry_Int_Tables_number       1
_symmetry_cell_setting            triclinic
loop_
_symmetry_equiv_pos_as_xyz
'x, y, z'
_cell_length_a     13.008031
_cell_length_b     13.247385
_cell_length_c     40.552044
_cell_angle_alpha  89.504976
_cell_angle_beta   91.703592
_cell_angle_gamma 89.784334
loop_
_atom_site_label
_atom_site_type_symbol
_atom_site_fract_x
_atom_site_fract_y
_atom_site_fract_z
_atom_type_partial_charge
Co0 Co 0.24618 0.21624 0.57469 0.0
C1 C 0.0276 0.25573 0.58369 0.0
C2 C 0.08865 0.35935 0.54872 0.0
C3 C 0.9829 0.36896 0.54785 0.0
N4 N 0.11694 0.28947 0.57166 0.0
N5 N 0.94534 0.30175 0.56942 0.0
H6 H 0.02094 0.19042 0.59954 0.0
H7 H 0.13915 0.39103 0.53086 0.0
C8 C 0.3333 0.43343 0.55816 0.0
O9 O 0.27006 0.4889 0.57506 0.0
N10 N 0.37465 0.14272 0.57756 0.0
C11 C 0.40254 0.07281 0.60056 0.0
C12 C 0.50869 0.06584 0.60206 0.0
C13 C 0.46348 0.17496 0.56488 0.0
N14 N 0.54589 0.13188 0.57998 0.0
C15 C 0.20153 0.19356 0.64319 0.0
C16 C 0.35264 0.31801 0.66907 0.0
C17 C 0.29086 0.26386 0.69083 0.0
C18 C 0.21437 0.20163 0.6774 0.0
C19 C 0.33686 0.30783 0.6347 0.0
N20 N 0.26141 0.24673 0.622 0.0
H21 H 0.14554 0.14049 0.63402 0.0
H22 H 0.38797 0.34549 0.6185 0.0
H23 H 0.35047 0.03757 0.61743 0.0
H24 H 0.46959 0.23526 0.54695 0.0
O25 O 0.16988 0.09114 0.57778 0.0
O26 O 0.21495 0.16122 0.53133 0.0
O27 O 0.32719 0.33725 0.55846 0.0
C28 C 0.1659 0.0886 0.54576 0.0
H29 H 0.93714 0.41225 0.53002 0.0
H30 H 0.55483 0.02365 0.62009 0.0
H31 H 0.41404 0.36559 0.67855 0.0
H32 H 0.16627 0.15731 0.69334 0.0
Co33 Co 0.7758 0.71504 0.07228 0.0
C34 C 0.75864 0.49295 0.07134 0.0
C35 C 0.61443 0.55979 0.05642 0.0
C36 C 0.60574 0.45596 0.05423 0.0
N37 N 0.71075 0.58317 0.06721 0.0
N38 N 0.69696 0.41533 0.06362 0.0
H39 H 0.83757 0.48265 0.07979 0.0
H40 H 0.55429 0.61314 0.05017 0.0
C41 C 0.55828 0.81499 0.05978 0.0
O42 O 0.51236 0.77693 0.08545 0.0
N43 N 0.84073 0.84575 0.07681 0.0
C44 C 0.9122 0.87306 0.09979 0.0
C45 C 0.91815 0.97728 0.10012 0.0
C46 C 0.80604 0.93317 0.0631 0.0
N47 N 0.85005 0.0141 0.07731 0.0
C48 C 0.76529 0.64328 0.1388 0.0
C49 C 0.67423 0.81106 0.16571 0.0
C50 C 0.70645 0.73164 0.18679 0.0
C51 C 0.75158 0.6468 0.17286 0.0
C52 C 0.68964 0.80451 0.13155 0.0
N53 N 0.73425 0.72096 0.11838 0.0
H54 H 0.80531 0.57927 0.12908 0.0
H55 H 0.66912 0.86806 0.11591 0.0
H56 H 0.95059 0.82155 0.11699 0.0
H57 H 0.74441 0.93915 0.04472 0.0
O58 O 0.90905 0.64901 0.07899 0.0
O59 O 0.84252 0.69428 0.03081 0.0
O60 O 0.64992 0.78861 0.05305 0.0
C61 C 0.91841 0.65072 0.04708 0.0
H62 H 0.5385 0.41377 0.04625 0.0
H63 H 0.96218 0.02247 0.11754 0.0
H64 H 0.64057 0.87875 0.17567 0.0
H65 H 0.77897 0.58477 0.18837 0.0
Co66 Co 0.73351 0.77588 0.44703 0.0
C67 C 0.94805 0.74074 0.43245 0.0
C68 C 0.89523 0.62708 0.46559 0.0
C69 C 1.00106 0.62187 0.46499 0.0
N70 N 0.86179 0.70148 0.44504 0.0
N71 N 0.03384 0.6967 0.44524 0.0
H72 H 0.94916 0.80887 0.41754 0.0
H73 H 0.84884 0.58977 0.48344 0.0
C74 C 0.64197 0.55948 0.46507 0.0
O75 O 0.70465 0.49859 0.45 0.0
N76 N 0.60539 0.84972 0.44895 0.0
C77 C 0.58352 0.94462 0.45845 0.0
C78 C 0.4775 0.95663 0.45789 0.0
C79 C 0.51384 0.80711 0.44201 0.0
N80 N 0.43494 0.86878 0.44803 0.0
C81 C 0.68571 0.83764 0.38092 0.0
C82 C 0.71332 0.65408 0.35051 0.0
C83 C 0.69398 0.74023 0.3308 0.0
C84 C 0.67877 0.83246 0.34648 0.0
C85 C 0.7195 0.66254 0.38512 0.0
N86 N 0.70599 0.75372 0.39992 0.0
H87 H 0.67834 0.91051 0.39241 0.0
H88 H 0.73984 0.59691 0.39975 0.0
H89 H 0.63977 0.00052 0.46571 0.0
H90 H 0.50466 0.73153 0.43289 0.0
O91 O 0.81145 0.90022 0.44402 0.0
O92 O 0.77708 0.82241 0.49031 0.0
O93 O 0.6521 0.6553 0.46342 0.0
C94 C 0.82422 0.8965 0.47598 0.0
H95 H 0.05007 0.57731 0.48155 0.0
H96 H 0.43514 0.02273 0.46531 0.0
H97 H 0.72695 0.58169 0.3392 0.0
H98 H 0.66482 0.90074 0.33212 0.0
Co99 Co 0.291 0.2724 0.95127 0.0
C100 C 0.30185 0.48872 0.9361 0.0
C101 C 0.44223 0.43504 0.95942 0.0
C102 C 0.44619 0.53846 0.9573 0.0
N103 N 0.35126 0.40406 0.94633 0.0
N104 N 0.35732 0.57153 0.94307 0.0
H105 H 0.22305 0.49112 0.9268 0.0
H106 H 0.49817 0.38756 0.97232 0.0
C107 C 0.4982 0.15295 0.97435 0.0
O108 O 0.59644 0.16756 0.96946 0.0
N109 N 0.23075 0.14062 0.95625 0.0
C110 C 0.14169 0.11457 0.97033 0.0
C111 C 0.13058 0.01144 0.96865 0.0
C112 C 0.27136 0.05374 0.9458 0.0
N113 N 0.21327 0.9739 0.9537 0.0
C114 C 0.21677 0.23327 0.88525 0.0
C115 C 0.40085 0.26629 0.85439 0.0
C116 C 0.31162 0.25099 0.83483 0.0
C117 C 0.21903 0.23282 0.85067 0.0
C118 C 0.39532 0.26616 0.88893 0.0
N119 N 0.30381 0.25096 0.90395 0.0
H120 H 0.14422 0.22249 0.89711 0.0
H121 H 0.46402 0.28248 0.90352 0.0
H122 H 0.08882 0.16576 0.98159 0.0
H123 H 0.34219 0.04893 0.93277 0.0
O124 O 0.15572 0.33399 0.95075 0.0
O125 O 0.25135 0.31107 0.99554 0.0
O126 O 0.43477 0.21632 0.96069 0.0
C127 C 0.16635 0.34786 0.98234 0.0
H128 H 0.50533 0.58568 0.96817 0.0
H129 H 0.0693 0.96696 0.97885 0.0
H130 H 0.47365 0.28095 0.84302 0.0
H131 H 0.14855 0.22078 0.83638 0.0
C132 C 0.78705 0.27938 0.60048 0.0
C133 C 0.84173 0.26482 0.57119 0.0
C134 C 0.70425 0.15676 0.54942 0.0
C135 C 0.6486 0.17116 0.57839 0.0
N136 N 0.62685 0.26073 0.62917 0.0
N137 N 0.851 0.18395 0.51767 0.0
C138 C 0.68764 0.23585 0.60354 0.0
C139 C 0.79985 0.20333 0.54571 0.0
N140 N 0.83145 0.33419 0.62543 0.0
N141 N 0.66774 0.09729 0.52458 0.0
H142 H 0.92423 0.21095 0.51282 0.0
H143 H 0.92423 0.21095 0.51282 0.0
H144 H 0.5987 0.05755 0.52547 0.0
H145 H 0.5987 0.05755 0.52547 0.0
H146 H 0.80232 0.3388 0.64899 0.0
H147 H 0.90113 0.37185 0.62289 0.0
H148 H 0.64561 0.31549 0.64654 0.0
H149 H 0.55313 0.23206 0.6318 0.0
C150 C 0.78384 0.26847 0.04006 0.0
C151 C 0.72631 0.31078 0.06565 0.0
C152 C 0.74695 0.15565 0.09839 0.0
C153 C 0.81162 0.11597 0.07402 0.0
N154 N 0.89521 0.13224 0.02236 0.0
N155 N 0.66101 0.30244 0.12028 0.0
C156 C 0.83063 0.17178 0.04489 0.0
C157 C 0.70947 0.25613 0.09505 0.0
N158 N 0.79322 0.32184 1.01133 0.0
N159 N 0.71852 0.09581 0.12412 0.0
H160 H 0.6306 0.37527 0.11811 0.0
H161 H 0.65652 0.2717 0.1439 0.0
H162 H 0.74642 0.02279 0.12782 0.0
H163 H 0.66199 0.11564 0.14053 0.0
H164 H 0.82889 0.29479 0.99056 0.0
H165 H 0.75969 0.39291 1.00764 0.0
H166 H 0.9169 0.16952 1.00104 0.0
H167 H 0.93136 0.06233 0.02586 0.0
C168 C 0.28287 0.80781 0.41664 0.0
C169 C 0.32898 0.83774 0.44711 0.0
C170 C 0.17649 0.783 0.4759 0.0
C171 C 0.13393 0.74344 0.44602 0.0
N172 N 0.15092 0.70847 0.38844 0.0
N173 N 0.31888 0.84588 0.50684 0.0
C174 C 0.18822 0.75387 0.4164 0.0
C175 C 0.27615 0.82309 0.47679 0.0
N176 N 0.32947 0.83296 0.388 0.0
N177 N 0.12378 0.78516 0.50436 0.0
H178 H 0.39329 0.87346 0.51049 0.0
H179 H 0.39329 0.87346 0.51049 0.0
H180 H 0.04703 0.76426 0.5063 0.0
H181 H 0.04703 0.76426 0.5063 0.0
H182 H 0.29662 0.82123 0.36464 0.0
H183 H 0.3979 0.87384 0.38776 0.0
H184 H 0.19092 0.70473 0.36663 0.0
H185 H 0.08267 0.66731 0.38786 0.0
C186 C 0.26075 0.82994 0.91918 0.0
C187 C 0.24248 0.8699 0.95077 0.0
C188 C 0.28417 0.70678 0.97631 0.0
C189 C 0.31562 0.6713 0.94537 0.0
N190 N 0.34162 0.69795 0.88766 0.0
N191 N 0.25694 0.85309 1.01005 0.0
C192 C 0.30582 0.7326 0.91679 0.0
C193 C 0.25869 0.80997 0.97959 0.0
N194 N 0.23213 0.8843 0.89163 0.0
N195 N 0.2779 0.64151 1.00241 0.0
H196 H 0.24613 0.9302 0.01347 0.0
H197 H 0.27811 0.81465 0.03173 0.0
H198 H 0.29553 0.56493 1.00074 0.0
H199 H 0.24596 0.66132 0.02472 0.0
H200 H 0.2356 0.85635 0.86778 0.0
H201 H 0.1962 0.95467 0.89288 0.0
H202 H 0.34606 0.74235 0.86645 0.0
H203 H 0.37342 0.62594 0.88545 0.0
C204 C 0.3531 0.1764 0.77938 0.0
C205 C 0.31394 0.25791 0.79785 0.0
C206 C 0.26449 0.3469 0.74605 0.0
C207 C 0.30732 0.26719 0.72762 0.0
N208 N 0.40993 0.1157 0.72649 0.0
N209 N 0.25082 0.42905 0.79911 0.0
C210 C 0.35713 0.18491 0.74428 0.0
C211 C 0.27518 0.34572 0.78124 0.0
N212 N 0.38271 0.08915 0.79528 0.0
N213 N 0.21014 0.42192 0.72999 0.0
H214 H 0.2572 0.43086 0.82481 0.0
H215 H 0.23262 0.49894 0.78851 0.0
H216 H 0.20297 0.42676 0.70433 0.0
H217 H 0.16644 0.47552 0.74199 0.0
H218 H 0.40087 0.02286 0.78311 0.0
H219 H 0.38177 0.08045 0.82086 0.0
H220 H 0.4567 0.05971 0.73717 0.0
H221 H 0.4143 0.11965 0.70085 0.0
C222 C 0.61301 0.69971 0.23986 0.0
C223 C 0.69997 0.73852 0.22361 0.0
C224 C 0.78599 0.76929 0.27755 0.0
C225 C 0.69653 0.73654 0.29382 0.0
N226 N 0.51973 0.68346 0.29076 0.0
N227 N 0.8633 0.82357 0.22656 0.0
C228 C 0.60856 0.70519 0.27502 0.0
C229 C 0.78468 0.77732 0.24239 0.0
N230 N 0.53561 0.65549 0.22168 0.0
N231 N 0.87357 0.78962 0.29576 0.0
H232 H 0.86624 0.82888 0.20093 0.0
H233 H 0.92161 0.86361 0.23867 0.0
H234 H 0.87746 0.78521 0.32147 0.0
H235 H 0.94467 0.80297 0.28549 0.0
H236 H 0.47578 0.61524 0.23198 0.0
H237 H 0.53448 0.65362 0.19595 0.0
H238 H 0.44951 0.67101 0.27853 0.0
H239 H 0.51439 0.68473 0.31638 0.0
C240 C 0.38194 0.51684 0.50417 0.0
C241 C 0.41142 0.48019 0.53616 0.0
C242 C 0.59271 0.48429 0.52015 0.0
C243 C 0.5631 0.51888 0.48792 0.0
N244 N 0.42625 0.55636 0.44827 0.0
N245 N 0.5484 0.446 0.57599 0.0
C246 C 0.45694 0.53192 0.47982 0.0
C247 C 0.51763 0.46867 0.54436 0.0
N248 N 0.28229 0.53936 0.49603 0.0
N249 N 0.69275 0.46513 0.52884 0.0
H250 H 0.49721 0.44463 0.5952 0.0
H251 H 0.62562 0.43763 0.58324 0.0
H252 H 0.75332 0.47042 0.51268 0.0
H253 H 0.75332 0.47042 0.51268 0.0
H254 H 0.22287 0.53668 0.5127 0.0
H255 H 0.22287 0.53668 0.5127 0.0
H256 H 0.3492 0.56817 0.44128 0.0
H257 H 0.47768 0.55968 0.42902 0.0
C258 C 0.49923 0.96559 0.98167 0.0
C259 C 0.47183 0.06159 0.99422 0.0
C260 C 0.47912 0.99034 0.05067 0.0
C261 C 0.50778 0.89448 0.03797 0.0
N262 N 0.51696 0.7855 0.99112 0.0
N263 N 0.41676 0.16131 0.03958 0.0
C264 C 0.50801 0.88066 1.00333 0.0
C265 C 0.45374 0.07182 0.02835 0.0
N266 N 0.52352 0.9569 0.94921 0.0
N267 N 0.48487 0.00655 0.08391 0.0
H268 H 0.40369 0.22331 0.02402 0.0
H269 H 0.39181 0.17172 0.06347 0.0
H270 H 0.50204 0.94994 0.10116 0.0
H271 H 0.47898 0.07759 0.09447 0.0
H272 H 0.55733 0.89295 0.93938 0.0
H273 H 0.51569 0.01637 0.93228 0.0
H274 H 0.51003 0.76883 0.96613 0.0
H275 H 0.52004 0.72187 1.00639 0.0
C276 C 0.98016 0.01272 0.47684 0.0
C277 C 0.90456 0.95821 0.49433 0.0
C278 C 0.01538 0.96728 0.5445 0.0
C279 C 0.0897 0.02317 0.52714 0.0
N280 N 0.16013 0.05606 0.47391 0.0
N281 N 0.8366 0.92168 0.54792 0.0
C282 C 0.0772 0.03353 0.49243 0.0
C283 C 0.9183 0.9461 0.52907 0.0
N284 N 0.95654 0.05385 0.44657 0.0
N285 N 0.04059 0.92575 0.5746 0.0
H286 H 0.76172 0.91699 0.53822 0.0
H287 H 0.84047 0.92139 0.57363 0.0
H288 H 0.1157 0.92567 0.58432 0.0
H289 H 0.99194 0.87742 0.58715 0.0
H290 H 0.0069 0.10022 0.43394 0.0
H291 H 0.88168 0.0568 0.43677 0.0
H292 H 0.15756 0.05516 0.4482 0.0
H293 H 0.23453 0.05972 0.48415 0.0
C294 C 0.06933 0.52637 0.04867 0.0
C295 C 0.99673 0.58589 0.03006 0.0
C296 C 0.01935 0.47482 0.98273 0.0
C297 C 0.09398 0.41599 1.00069 0.0
N298 N 0.15718 0.36526 0.05485 0.0
N299 N 0.94712 0.6413 0.97502 0.0
C300 C 0.1105 0.43628 0.03486 0.0
C301 C 0.98482 0.56755 0.99578 0.0
N302 N 0.10594 0.56041 0.07843 0.0
N303 N 0.97359 0.43865 0.95453 0.0
H304 H 0.93532 0.71512 0.98284 0.0
H305 H 0.94413 0.63341 0.94944 0.0
H306 H 0.98176 0.36393 0.94719 0.0
H307 H 0.91389 0.47675 0.94193 0.0
H308 H 0.16551 0.5252 0.09191 0.0
H309 H 0.08794 0.63198 0.08713 0.0
H310 H 0.16369 0.37185 0.08039 0.0
H311 H 0.17492 0.29313 0.04662 0.0
loop_
_geom_bond_atom_site_label_1
_geom_bond_atom_site_label_2
_geom_bond_distance
_geom_bond_site_symmetry_2
_ccdc_geom_bond_type
Co0 N4 2.148 . S
Co0 N10 2.128 . S
Co0 N20 2.194 . S
Co0 O25 2.351 . S
Co0 O26 2.155 . S
Co0 O27 2.096 . S
C1 N4 1.301 . S
C1 N5 1.328 1_455 S
C1 H6 0.930 . S
C2 C3 1.333 1_455 S
C2 N4 1.317 . S
C2 H7 0.930 . S
C3 C2 1.333 1_655 S
C3 N5 1.350 . S
C3 H29 0.931 . S
N4 Co0 2.148 . S
N4 C1 1.301 . S
N4 C2 1.317 . S
N5 C1 1.328 1_655 S
N5 C3 1.350 . S
H6 C1 0.930 . S
H7 C2 0.930 . S
C8 O9 1.224 . S
C8 O27 1.247 . S
O9 C8 1.224 . S
N10 Co0 2.128 . S
N10 C11 1.355 . S
N10 C13 1.311 . S
C11 N10 1.355 . S
C11 C12 1.363 . S
C11 H23 0.929 . S
C12 C11 1.363 . S
C12 N14 1.375 . S
C12 H30 0.931 . S
C13 N10 1.311 . S
C13 N14 1.347 . S
C13 H24 0.929 . S
N14 C12 1.375 . S
N14 C13 1.347 . S
C15 C18 1.365 . S
C15 N20 1.328 . S
C15 H21 0.929 . S
C16 C17 1.362 . S
C16 C19 1.378 . S
C16 H31 0.929 . S
C17 C16 1.362 . S
C17 C18 1.366 . S
C18 C15 1.365 . S
C18 C17 1.366 . S
C18 H32 0.930 . S
C19 C16 1.378 . S
C19 N20 1.315 . S
C19 H22 0.930 . S
N20 Co0 2.194 . S
N20 C15 1.328 . S
N20 C19 1.315 . S
H21 C15 0.929 . S
H22 C19 0.930 . S
H23 C11 0.929 . S
H24 C13 0.929 . S
O25 Co0 2.351 . S
O25 C28 1.244 . S
O26 Co0 2.155 . S
O26 C28 1.240 . S
O27 Co0 2.096 . S
O27 C8 1.247 . S
C28 O25 1.244 . S
C28 O26 1.240 . S
H29 C3 0.931 . S
H30 C12 0.931 . S
H31 C16 0.929 . S
H32 C18 0.930 . S
Co33 N37 2.148 . S
Co33 N43 2.128 . S
Co33 N53 2.194 . S
Co33 O58 2.351 . S
Co33 O59 2.155 . S
Co33 O60 2.096 . S
C34 N37 1.301 . S
C34 N38 1.328 . S
C34 H39 0.930 . S
C35 C36 1.333 . S
C35 N37 1.317 . S
C35 H40 0.930 . S
C36 C35 1.333 . S
C36 N38 1.350 . S
C36 H62 0.931 . S
N37 Co33 2.148 . S
N37 C34 1.301 . S
N37 C35 1.317 . S
N38 C34 1.328 . S
N38 C36 1.350 . S
H39 C34 0.930 . S
H40 C35 0.930 . S
C41 O42 1.224 . S
C41 O60 1.247 . S
O42 C41 1.224 . S
N43 Co33 2.128 . S
N43 C44 1.355 . S
N43 C46 1.311 . S
C44 N43 1.355 . S
C44 C45 1.363 1_565 S
C44 H56 0.929 . S
C45 C44 1.363 1_545 S
C45 N47 1.375 . S
C45 H63 0.931 . S
C46 N43 1.311 . S
C46 N47 1.347 1_565 S
C46 H57 0.929 . S
N47 C45 1.375 . S
N47 C46 1.347 1_545 S
C48 C51 1.365 . S
C48 N53 1.328 . S
C48 H54 0.929 . S
C49 C50 1.362 . S
C49 C52 1.378 . S
C49 H64 0.929 . S
C50 C49 1.362 . S
C50 C51 1.366 . S
C51 C48 1.365 . S
C51 C50 1.366 . S
C51 H65 0.930 . S
C52 C49 1.378 . S
C52 N53 1.315 . S
C52 H55 0.930 . S
N53 Co33 2.194 . S
N53 C48 1.328 . S
N53 C52 1.315 . S
H54 C48 0.929 . S
H55 C52 0.930 . S
H56 C44 0.929 . S
H57 C46 0.929 . S
O58 Co33 2.351 . S
O58 C61 1.244 . S
O59 Co33 2.155 . S
O59 C61 1.240 . S
O60 Co33 2.096 . S
O60 C41 1.247 . S
C61 O58 1.244 . S
C61 O59 1.240 . S
H62 C36 0.931 . S
H63 C45 0.931 . S
H64 C49 0.929 . S
H65 C51 0.930 . S
Co66 N70 2.148 . S
Co66 N76 2.128 . S
Co66 N86 2.194 . S
Co66 O91 2.351 . S
Co66 O92 2.155 . S
Co66 O93 2.096 . S
C67 N70 1.301 . S
C67 N71 1.328 1_655 S
C67 H72 0.930 . S
C68 C69 1.333 1_655 S
C68 N70 1.317 . S
C68 H73 0.930 . S
C69 C68 1.333 1_455 S
C69 N71 1.350 . S
C69 H95 0.931 . S
N70 Co66 2.148 . S
N70 C67 1.301 . S
N70 C68 1.317 . S
N71 C67 1.328 1_455 S
N71 C69 1.350 . S
H72 C67 0.930 . S
H73 C68 0.930 . S
C74 O75 1.224 . S
C74 O93 1.247 . S
O75 C74 1.224 . S
N76 Co66 2.128 . S
N76 C77 1.355 . S
N76 C79 1.311 . S
C77 N76 1.355 . S
C77 C78 1.363 . S
C77 H89 0.929 . S
C78 C77 1.363 . S
C78 N80 1.375 . S
C78 H96 0.931 . S
C79 N76 1.311 . S
C79 N80 1.347 . S
C79 H90 0.929 . S
N80 C78 1.375 . S
N80 C79 1.347 . S
C81 C84 1.365 . S
C81 N86 1.328 . S
C81 H87 0.929 . S
C82 C83 1.362 . S
C82 C85 1.378 . S
C82 H97 0.929 . S
C83 C82 1.362 . S
C83 C84 1.366 . S
C84 C81 1.365 . S
C84 C83 1.366 . S
C84 H98 0.930 . S
C85 C82 1.378 . S
C85 N86 1.315 . S
C85 H88 0.930 . S
N86 Co66 2.194 . S
N86 C81 1.328 . S
N86 C85 1.315 . S
H87 C81 0.929 . S
H88 C85 0.930 . S
H89 C77 0.929 . S
H90 C79 0.929 . S
O91 Co66 2.351 . S
O91 C94 1.244 . S
O92 Co66 2.155 . S
O92 C94 1.240 . S
O93 Co66 2.096 . S
O93 C74 1.247 . S
C94 O91 1.244 . S
C94 O92 1.240 . S
H95 C69 0.931 . S
H96 C78 0.931 . S
H97 C82 0.929 . S
H98 C84 0.930 . S
Co99 N103 2.148 . S
Co99 N109 2.128 . S
Co99 N119 2.194 . S
Co99 O124 2.351 . S
Co99 O125 2.155 . S
Co99 O126 2.096 . S
C100 N103 1.301 . S
C100 N104 1.328 . S
C100 H105 0.930 . S
C101 C102 1.333 . S
C101 N103 1.317 . S
C101 H106 0.930 . S
C102 C101 1.333 . S
C102 N104 1.350 . S
C102 H128 0.931 . S
N103 Co99 2.148 . S
N103 C100 1.301 . S
N103 C101 1.317 . S
N104 C100 1.328 . S
N104 C102 1.350 . S
H105 C100 0.930 . S
H106 C101 0.930 . S
C107 O108 1.224 . S
C107 O126 1.247 . S
O108 C107 1.224 . S
N109 Co99 2.128 . S
N109 C110 1.355 . S
N109 C112 1.311 . S
C110 N109 1.355 . S
C110 C111 1.363 1_545 S
C110 H122 0.929 . S
C111 C110 1.363 1_565 S
C111 N113 1.375 . S
C111 H129 0.931 . S
C112 N109 1.311 . S
C112 N113 1.347 1_545 S
C112 H123 0.929 . S
N113 C111 1.375 . S
N113 C112 1.347 1_565 S
C114 C117 1.365 . S
C114 N119 1.328 . S
C114 H120 0.929 . S
C115 C116 1.362 . S
C115 C118 1.378 . S
C115 H130 0.929 . S
C116 C115 1.362 . S
C116 C117 1.366 . S
C117 C114 1.365 . S
C117 C116 1.366 . S
C117 H131 0.930 . S
C118 C115 1.378 . S
C118 N119 1.315 . S
C118 H121 0.930 . S
N119 Co99 2.194 . S
N119 C114 1.328 . S
N119 C118 1.315 . S
H120 C114 0.929 . S
H121 C118 0.930 . S
H122 C110 0.929 . S
H123 C112 0.929 . S
O124 Co99 2.351 . S
O124 C127 1.244 . S
O125 Co99 2.155 . S
O125 C127 1.240 . S
O126 Co99 2.096 . S
O126 C107 1.247 . S
C127 O124 1.244 . S
C127 O125 1.240 . S
H128 C102 0.931 . S
H129 C111 0.931 . S
H130 C115 0.929 . S
H131 C117 0.930 . S
C132 C133 1.363 . S
C132 C138 1.379 . S
C132 N140 1.356 . S
C133 C132 1.363 . S
C133 C139 1.363 . S
C134 C135 1.363 . S
C134 C139 1.379 . S
C134 N141 1.356 . S
C135 C134 1.363 . S
C135 C138 1.363 . S
N136 C138 1.356 . S
N136 H148 0.984 . S
N136 H149 0.985 . S
N137 C139 1.356 . S
N137 H142 0.984 . S
N137 H143 0.985 . S
C138 C132 1.379 . S
C138 C135 1.363 . S
C138 N136 1.356 . S
C139 C133 1.363 . S
C139 C134 1.379 . S
C139 N137 1.356 . S
N140 C132 1.356 . S
N140 H146 0.984 . S
N140 H147 0.984 . S
N141 C134 1.356 . S
N141 H144 0.984 . S
N141 H145 0.985 . S
H142 N137 0.984 . S
H143 N137 0.985 . S
H144 N141 0.984 . S
H145 N141 0.985 . S
H146 N140 0.984 . S
H147 N140 0.984 . S
H148 N136 0.984 . S
H149 N136 0.985 . S
C150 C151 1.363 . S
C150 C156 1.379 . S
C150 N158 1.356 . S
C151 C150 1.363 . S
C151 C157 1.363 . S
C152 C153 1.363 . S
C152 C157 1.379 . S
C152 N159 1.356 . S
C153 C152 1.363 . S
C153 C156 1.363 . S
N154 C156 1.356 . S
N154 H166 0.984 . S
N154 H167 0.985 . S
N155 C157 1.356 . S
N155 H160 0.984 . S
N155 H161 0.985 . S
C156 C150 1.379 . S
C156 C153 1.363 . S
C156 N154 1.356 . S
C157 C151 1.363 . S
C157 C152 1.379 . S
C157 N155 1.356 . S
N158 C150 1.356 . S
N158 H164 0.984 . S
N158 H165 0.984 . S
N159 C152 1.356 . S
N159 H162 0.984 . S
N159 H163 0.985 . S
H160 N155 0.984 . S
H161 N155 0.985 . S
H162 N159 0.984 . S
H163 N159 0.985 . S
H164 N158 0.984 . S
H165 N158 0.984 . S
H166 N154 0.984 . S
H167 N154 0.985 . S
C168 C169 1.363 . S
C168 C174 1.379 . S
C168 N176 1.356 . S
C169 C168 1.363 . S
C169 C175 1.363 . S
C170 C171 1.363 . S
C170 C175 1.379 . S
C170 N177 1.356 . S
C171 C170 1.363 . S
C171 C174 1.363 . S
N172 C174 1.356 . S
N172 H184 0.984 . S
N172 H185 0.985 . S
N173 C175 1.356 . S
N173 H178 0.984 . S
N173 H179 0.985 . S
C174 C168 1.379 . S
C174 C171 1.363 . S
C174 N172 1.356 . S
C175 C169 1.363 . S
C175 C170 1.379 . S
C175 N173 1.356 . S
N176 C168 1.356 . S
N176 H182 0.984 . S
N176 H183 0.984 . S
N177 C170 1.356 . S
N177 H180 0.984 . S
N177 H181 0.985 . S
H178 N173 0.984 . S
H179 N173 0.985 . S
H180 N177 0.984 . S
H181 N177 0.985 . S
H182 N176 0.984 . S
H183 N176 0.984 . S
H184 N172 0.984 . S
H185 N172 0.985 . S
C186 C187 1.363 . S
C186 C192 1.379 . S
C186 N194 1.356 . S
C187 C186 1.363 . S
C187 C193 1.363 . S
C188 C189 1.363 . S
C188 C193 1.379 . S
C188 N195 1.356 . S
C189 C188 1.363 . S
C189 C192 1.363 . S
N190 C192 1.356 . S
N190 H202 0.984 . S
N190 H203 0.985 . S
N191 C193 1.356 . S
N191 H196 0.984 . S
N191 H197 0.985 . S
C192 C186 1.379 . S
C192 C189 1.363 . S
C192 N190 1.356 . S
C193 C187 1.363 . S
C193 C188 1.379 . S
C193 N191 1.356 . S
N194 C186 1.356 . S
N194 H200 0.984 . S
N194 H201 0.984 . S
N195 C188 1.356 . S
N195 H198 0.984 . S
N195 H199 0.985 . S
H196 N191 0.984 . S
H197 N191 0.985 . S
H198 N195 0.984 . S
H199 N195 0.985 . S
H200 N194 0.984 . S
H201 N194 0.984 . S
H202 N190 0.984 . S
H203 N190 0.985 . S
C204 C205 1.363 . S
C204 C210 1.379 . S
C204 N212 1.356 . S
C205 C204 1.363 . S
C205 C211 1.363 . S
C206 C207 1.363 . S
C206 C211 1.379 . S
C206 N213 1.356 . S
C207 C206 1.363 . S
C207 C210 1.363 . S
N208 C210 1.356 . S
N208 H220 0.984 . S
N208 H221 0.985 . S
N209 C211 1.356 . S
N209 H214 0.984 . S
N209 H215 0.985 . S
C210 C204 1.379 . S
C210 C207 1.363 . S
C210 N208 1.356 . S
C211 C205 1.363 . S
C211 C206 1.379 . S
C211 N209 1.356 . S
N212 C204 1.356 . S
N212 H218 0.984 . S
N212 H219 0.984 . S
N213 C206 1.356 . S
N213 H216 0.984 . S
N213 H217 0.985 . S
H214 N209 0.984 . S
H215 N209 0.985 . S
H216 N213 0.984 . S
H217 N213 0.985 . S
H218 N212 0.984 . S
H219 N212 0.984 . S
H220 N208 0.984 . S
H221 N208 0.985 . S
C222 C223 1.363 . S
C222 C228 1.379 . S
C222 N230 1.356 . S
C223 C222 1.363 . S
C223 C229 1.363 . S
C224 C225 1.363 . S
C224 C229 1.379 . S
C224 N231 1.356 . S
C225 C224 1.363 . S
C225 C228 1.363 . S
N226 C228 1.356 . S
N226 H238 0.984 . S
N226 H239 0.985 . S
N227 C229 1.356 . S
N227 H232 0.984 . S
N227 H233 0.985 . S
C228 C222 1.379 . S
C228 C225 1.363 . S
C228 N226 1.356 . S
C229 C223 1.363 . S
C229 C224 1.379 . S
C229 N227 1.356 . S
N230 C222 1.356 . S
N230 H236 0.984 . S
N230 H237 0.984 . S
N231 C224 1.356 . S
N231 H234 0.984 . S
N231 H235 0.985 . S
H232 N227 0.984 . S
H233 N227 0.985 . S
H234 N231 0.984 . S
H235 N231 0.985 . S
H236 N230 0.984 . S
H237 N230 0.984 . S
H238 N226 0.984 . S
H239 N226 0.985 . S
C240 C241 1.363 . S
C240 C246 1.379 . S
C240 N248 1.356 . S
C241 C240 1.363 . S
C241 C247 1.363 . S
C242 C243 1.363 . S
C242 C247 1.379 . S
C242 N249 1.356 . S
C243 C242 1.363 . S
C243 C246 1.363 . S
N244 C246 1.356 . S
N244 H256 0.984 . S
N244 H257 0.985 . S
N245 C247 1.356 . S
N245 H250 0.984 . S
N245 H251 0.985 . S
C246 C240 1.379 . S
C246 C243 1.363 . S
C246 N244 1.356 . S
C247 C241 1.363 . S
C247 C242 1.379 . S
C247 N245 1.356 . S
N248 C240 1.356 . S
N248 H254 0.984 . S
N248 H255 0.984 . S
N249 C242 1.356 . S
N249 H252 0.984 . S
N249 H253 0.985 . S
H250 N245 0.984 . S
H251 N245 0.985 . S
H252 N249 0.984 . S
H253 N249 0.985 . S
H254 N248 0.984 . S
H255 N248 0.984 . S
H256 N244 0.984 . S
H257 N244 0.985 . S
C258 C259 1.361 1_565 S
C258 C264 1.381 . S
C258 N266 1.355 1_565 S
C259 C258 1.361 1_545 S
C259 C265 1.363 1_556 S
C260 C261 1.361 1_545 S
C260 C265 1.381 . S
C260 N267 1.355 1_545 S
C261 C260 1.361 1_565 S
C261 C264 1.363 1_554 S
N262 C264 1.356 . S
N262 H274 0.984 . S
N262 H275 0.985 . S
N263 C265 1.356 . S
N263 H268 0.984 . S
N263 H269 0.985 . S
C264 C258 1.381 . S
C264 C261 1.363 1_556 S
C264 N262 1.356 . S
C265 C259 1.363 1_554 S
C265 C260 1.381 . S
C265 N263 1.356 . S
N266 C258 1.355 1_545 S
N266 H272 0.984 1_545 S
N266 H273 0.984 . S
N267 C260 1.355 1_565 S
N267 H270 0.984 . S
N267 H271 0.985 1_565 S
H268 N263 0.984 . S
H269 N263 0.985 . S
H270 N267 0.984 . S
H271 N267 0.985 1_545 S
H272 N266 0.984 1_565 S
H273 N266 0.984 . S
H274 N262 0.984 . S
H275 N262 0.985 . S
C276 C277 1.363 1_455 S
C276 C282 1.379 1_565 S
C276 N284 1.356 1_455 S
C277 C276 1.363 1_655 S
C277 C283 1.363 . S
C278 C279 1.363 1_655 S
C278 C283 1.379 1_545 S
C278 N285 1.356 1_655 S
C279 C278 1.363 1_455 S
C279 C282 1.363 . S
N280 C282 1.356 . S
N280 H292 0.983 1_545 S
N280 H293 0.985 . S
N281 C283 1.356 . S
N281 H286 0.984 . S
N281 H287 0.983 1_565 S
C282 C276 1.379 1_545 S
C282 C279 1.363 . S
C282 N280 1.356 . S
C283 C277 1.363 . S
C283 C278 1.379 1_565 S
C283 N281 1.356 . S
N284 C276 1.356 1_655 S
N284 H290 0.984 1_655 S
N284 H291 0.984 . S
N285 C278 1.356 1_455 S
N285 H288 0.984 . S
N285 H289 0.985 1_455 S
H286 N281 0.984 . S
H287 N281 0.983 1_545 S
H288 N285 0.984 . S
H289 N285 0.985 1_655 S
H290 N284 0.984 1_455 S
H291 N284 0.984 . S
H292 N280 0.983 1_565 S
H293 N280 0.985 . S
C294 C295 1.363 1_455 S
C294 C300 1.379 . S
C294 N302 1.356 . S
C295 C294 1.363 1_655 S
C295 C301 1.363 1_554 S
C296 C297 1.363 1_655 S
C296 C301 1.379 . S
C296 N303 1.356 . S
C297 C296 1.363 1_455 S
C297 C300 1.363 1_556 S
N298 C300 1.356 . S
N298 H310 0.984 . S
N298 H311 0.985 1_554 S
N299 C301 1.356 . S
N299 H304 0.984 1_556 S
N299 H305 0.985 . S
C300 C294 1.379 . S
C300 C297 1.363 1_554 S
C300 N298 1.356 . S
C301 C295 1.363 1_556 S
C301 C296 1.379 . S
C301 N299 1.356 . S
N302 C294 1.356 . S
N302 H308 0.984 . S
N302 H309 0.984 . S
N303 C296 1.356 . S
N303 H306 0.984 . S
N303 H307 0.985 . S
H304 N299 0.984 1_554 S
H305 N299 0.985 . S
H306 N303 0.984 . S
H307 N303 0.985 . S
H308 N302 0.984 . S
H309 N302 0.984 . S
H310 N298 0.984 . S
H311 N298 0.985 1_556 S
C133 N5 1.372 . S
C135 N14 1.371 . S
C151 N38 1.372 . S
C153 N47 1.371 . S
C169 N80 1.371 . S
C171 N71 1.372 . S
C187 N113 1.371 . S
C189 N104 1.372 . S
C205 C116 1.480 . S
C207 C17 1.481 . S
C223 C50 1.480 . S
C225 C83 1.481 . S
C241 C8 1.568 . S
C243 C74 1.568 . S
C259 C107 1.556 . S
C261 C41 1.556 . S
C277 C94 1.508 . S
C279 C28 1.508 . S
C295 C61 1.515 . S
C297 C127 1.515 . S
