# Generated by pormake.
# Topology ncb, (9)-cn, num edge types: 1
# Building blocks:
#     Node 0, Type 0, BuildingBlock: BELTOD_clean_sbu_0, # of connection points: 9
#     Node 1, Type 0, BuildingBlock: BELTOD_clean_sbu_0, # of connection points: 9
#     Node 2, Type 0, BuildingBlock: BELTOD_clean_sbu_0, # of connection points: 9
#     Node 3, Type 0, BuildingBlock: BELTOD_clean_sbu_0, # of connection points: 9
#     Node 4, Type 0, BuildingBlock: BELTOD_clean_sbu_0, # of connection points: 9
#     Node 5, Type 0, BuildingBlock: BELTOD_clean_sbu_0, # of connection points: 9
#     Node 6, Type 0, BuildingBlock: BELTOD_clean_sbu_0, # of connection points: 9
#     Node 7, Type 0, BuildingBlock: BELTOD_clean_sbu_0, # of connection points: 9
#     Edge 8, Type (0, 0), BuildingBlock: XUDNAN_clean_linker_2, # of connection points: 2
#     Edge 9, Type (0, 0), BuildingBlock: XUDNAN_clean_linker_2, # of connection points: 2
#     Edge 10, Type (0, 0), BuildingBlock: XUDNAN_clean_linker_2, # of connection points: 2
#     Edge 11, Type (0, 0), BuildingBlock: XUDNAN_clean_linker_2, # of connection points: 2
#     Edge 12, Type (0, 0), BuildingBlock: XUDNAN_clean_linker_2, # of connection points: 2
#     Edge 13, Type (0, 0), BuildingBlock: XUDNAN_clean_linker_2, # of connection points: 2
#     Edge 14, Type (0, 0), BuildingBlock: XUDNAN_clean_linker_2, # of connection points: 2
#     Edge 15, Type (0, 0), BuildingBlock: XUDNAN_clean_linker_2, # of connection points: 2
#     Edge 16, Type (0, 0), BuildingBlock: XUDNAN_clean_linker_2, # of connection points: 2
#     Edge 17, Type (0, 0), BuildingBlock: XUDNAN_clean_linker_2, # of connection points: 2
#     Edge 18, Type (0, 0), BuildingBlock: XUDNAN_clean_linker_2, # of connection points: 2
#     Edge 19, Type (0, 0), BuildingBlock: XUDNAN_clean_linker_2, # of connection points: 2
#     Edge 20, Type (0, 0), BuildingBlock: XUDNAN_clean_linker_2, # of connection points: 2
#     Edge 21, Type (0, 0), BuildingBlock: XUDNAN_clean_linker_2, # of connection points: 2
#     Edge 22, Type (0, 0), BuildingBlock: XUDNAN_clean_linker_2, # of connection points: 2
#     Edge 23, Type (0, 0), BuildingBlock: XUDNAN_clean_linker_2, # of connection points: 2
#     Edge 24, Type (0, 0), BuildingBlock: XUDNAN_clean_linker_2, # of connection points: 2
#     Edge 25, Type (0, 0), BuildingBlock: XUDNAN_clean_linker_2, # of connection points: 2
#     Edge 26, Type (0, 0), BuildingBlock: XUDNAN_clean_linker_2, # of connection points: 2
#     Edge 27, Type (0, 0), BuildingBlock: XUDNAN_clean_linker_2, # of connection points: 2
#     Edge 28, Type (0, 0), BuildingBlock: XUDNAN_clean_linker_2, # of connection points: 2
#     Edge 29, Type (0, 0), BuildingBlock: XUDNAN_clean_linker_2, # of connection points: 2
#     Edge 30, Type (0, 0), BuildingBlock: XUDNAN_clean_linker_2, # of connection points: 2
#     Edge 31, Type (0, 0), BuildingBlock: XUDNAN_clean_linker_2, # of connection points: 2
#     Edge 32, Type (0, 0), BuildingBlock: XUDNAN_clean_linker_2, # of connection points: 2
#     Edge 33, Type (0, 0), BuildingBlock: XUDNAN_clean_linker_2, # of connection points: 2
#     Edge 34, Type (0, 0), BuildingBlock: XUDNAN_clean_linker_2, # of connection points: 2
#     Edge 35, Type (0, 0), BuildingBlock: XUDNAN_clean_linker_2, # of connection points: 2
#     Edge 36, Type (0, 0), BuildingBlock: XUDNAN_clean_linker_2, # of connection points: 2
#     Edge 37, Type (0, 0), BuildingBlock: XUDNAN_clean_linker_2, # of connection points: 2
#     Edge 38, Type (0, 0), BuildingBlock: XUDNAN_clean_linker_2, # of connection points: 2
#     Edge 39, Type (0, 0), BuildingBlock: XUDNAN_clean_linker_2, # of connection points: 2
#     Edge 40, Type (0, 0), BuildingBlock: XUDNAN_clean_linker_2, # of connection points: 2
#     Edge 41, Type (0, 0), BuildingBlock: XUDNAN_clean_linker_2, # of connection points: 2
#     Edge 42, Type (0, 0), BuildingBlock: XUDNAN_clean_linker_2, # of connection points: 2
#     Edge 43, Type (0, 0), BuildingBlock: XUDNAN_clean_linker_2, # of connection points: 2
# Relax obj value: 0.218
# Max RMSD: 0.275
# Mean RMSD: 0.271
data_MOF--net-ncb--node1-BELTOD_clean_sbu_0--edge1-XUDNAN_clean_linker_2
_symmetry_space_group_name_H-M    P1
_symmetry_Int_Tables_number       1
_symmetry_cell_setting            triclinic
loop_
_symmetry_equiv_pos_as_xyz
'x, y, z'
_cell_length_a     29.497449
_cell_length_b     29.702299
_cell_length_c     29.83195
_cell_angle_alpha  90.676194
_cell_angle_beta   89.988208
_cell_angle_gamma 88.316038
loop_
_atom_site_label
_atom_site_type_symbol
_atom_site_fract_x
_atom_site_fract_y
_atom_site_fract_z
_atom_type_partial_charge
Mn0 Mn 0.28529 0.28701 0.2641 0.0
Mn1 Mn 0.22473 0.22872 0.19528 0.0
O2 O 0.18065 0.275 0.16372 0.0
O3 O 0.19839 0.27174 0.09119 0.0
Mn4 Mn 0.21211 0.21077 0.09307 0.0
C5 C 0.27491 0.1854 0.27078 0.0
O6 O 0.27715 0.22397 0.2918 0.0
O7 O 0.26443 0.18358 0.2292 0.0
P8 P 0.33339 0.35276 0.34091 0.0
C9 C 0.15476 0.16917 0.15483 0.0
C10 C 0.27957 0.1856 0.11446 0.0
O11 O 0.22014 0.30702 0.27664 0.0
O12 O 0.18985 0.24396 0.2536 0.0
O13 O 0.29937 0.30881 0.32747 0.0
C14 C 0.2825 0.30953 0.18718 0.0
O15 O 0.1793 0.18296 0.18641 0.0
O16 O 0.16248 0.17694 0.11342 0.0
C17 C 0.18633 0.28098 0.27496 0.0
O18 O 0.26556 0.18087 0.07367 0.0
O19 O 0.25221 0.2107 0.13736 0.0
C20 C 0.17487 0.28863 0.12345 0.0
O21 O 0.27284 0.27204 0.2047 0.0
O22 O 0.29457 0.33738 0.21905 0.0
Mn23 Mn 0.26987 0.83963 0.83912 0.0
Mn24 Mn 0.2229 0.91752 0.88749 0.0
O25 O 0.20016 0.96303 0.83724 0.0
O26 O 0.13487 0.99491 0.86319 0.0
Mn27 Mn 0.15016 0.97955 0.92035 0.0
C28 C 0.25753 0.83259 0.93776 0.0
O29 O 0.26418 0.80941 0.90066 0.0
O30 O 0.24323 0.87345 0.93658 0.0
P31 P 0.35295 0.78103 0.77727 0.0
C32 C 0.23483 0.99954 0.94757 0.0
C33 C 0.1354 0.91466 0.94811 0.0
O34 O 0.28242 0.88964 0.79405 0.0
O35 O 0.28696 0.91845 0.86063 0.0
O36 O 0.32466 0.79679 0.82611 0.0
C37 C 0.18952 0.83669 0.82488 0.0
O38 O 0.24715 0.96291 0.93028 0.0
O39 O 0.19466 1.01428 0.94415 0.0
C40 C 0.29041 0.92499 0.8187 0.0
O41 O 0.12193 0.95248 0.96615 0.0
O42 O 0.15864 0.91938 0.91178 0.0
C43 C 0.16352 0.98712 0.83179 0.0
O44 O 0.21031 0.86686 0.84692 0.0
O45 O 0.21854 0.8076 0.8091 0.0
Mn46 Mn 0.81155 0.84393 0.28528 0.0
Mn47 Mn 0.87659 0.90292 0.22334 0.0
O48 O 0.89188 0.88535 0.16012 0.0
O49 O 0.91521 0.95465 0.14366 0.0
Mn50 Mn 0.88428 0.98496 0.19172 0.0
C51 C 0.83122 0.93725 0.31098 0.0
O52 O 0.80388 0.90501 0.31674 0.0
O53 O 0.86694 0.92942 0.28785 0.0
P54 P 0.75914 0.7797 0.35761 0.0
C55 C 0.9459 0.96636 0.24746 0.0
C56 C 0.8133 0.9898 0.18625 0.0
O57 O 0.87897 0.83476 0.30308 0.0
O58 O 0.91663 0.85115 0.24231 0.0
O59 O 0.80381 0.81327 0.3458 0.0
C60 C 0.81876 0.82638 0.2078 0.0
O61 O 0.93885 0.93125 0.22534 0.0
O62 O 0.9171 0.99714 0.24296 0.0
C63 C 0.91606 0.8343 0.28042 0.0
O64 O 0.83818 1.0247 0.18401 0.0
O65 O 0.83433 0.95277 0.19857 0.0
C66 C 0.91307 0.91214 0.13498 0.0
O67 O 0.82061 0.86618 0.22548 0.0
O68 O 0.81577 0.7952 0.23833 0.0
Mn69 Mn 0.83062 0.27533 0.85432 0.0
Mn70 Mn 0.8977 0.20159 0.90575 0.0
O71 O 0.85514 0.18047 0.95405 0.0
O72 O 0.83964 0.11146 0.93613 0.0
Mn73 Mn 0.89985 0.10093 0.92035 0.0
C74 C 0.93605 0.26532 0.84096 0.0
O75 O 0.8979 0.28814 0.83983 0.0
O76 O 0.93933 0.22768 0.86012 0.0
P77 P 0.77422 0.35984 0.79821 0.0
C78 C 0.96672 0.1512 0.9622 0.0
C79 C 0.92404 0.10679 0.85304 0.0
O80 O 0.83225 0.29993 0.91834 0.0
O81 O 0.89305 0.26134 0.94179 0.0
O82 O 0.81718 0.33945 0.83253 0.0
C83 C 0.83273 0.20075 0.82888 0.0
O84 O 0.95235 0.1866 0.94264 0.0
O85 O 0.94619 0.11381 0.96168 0.0
C86 C 0.85927 0.28768 0.95016 0.0
O87 O 0.91722 0.06788 0.87057 0.0
O88 O 0.90885 0.14023 0.87743 0.0
C89 C 0.82769 0.14871 0.95404 0.0
O90 O 0.84153 0.2145 0.86897 0.0
O91 O 0.82558 0.23417 0.80124 0.0
Mn92 Mn 0.79093 0.79532 0.77626 0.0
Mn93 Mn 0.73388 0.71797 0.72543 0.0
O94 O 0.67565 0.74927 0.70079 0.0
O95 O 0.65519 0.70013 0.64756 0.0
Mn96 Mn 0.70705 0.6648 0.64874 0.0
C97 C 0.80207 0.69515 0.79113 0.0
O98 O 0.79688 0.73467 0.81063 0.0
O99 O 0.78824 0.68842 0.75153 0.0
P100 P 0.84592 0.85328 0.86032 0.0
C101 C 0.69156 0.62332 0.72379 0.0
C102 C 0.76891 0.68319 0.62404 0.0
O103 O 0.72424 0.80793 0.78754 0.0
O104 O 0.71009 0.73687 0.78738 0.0
O105 O 0.7988 0.8321 0.83414 0.0
C106 C 0.77607 0.80908 0.7011 0.0
O107 O 0.69585 0.66289 0.7393 0.0
O108 O 0.70355 0.61434 0.68396 0.0
C109 C 0.69637 0.77695 0.79386 0.0
O110 O 0.74052 0.66124 0.59932 0.0
O111 O 0.75511 0.69674 0.66362 0.0
C112 C 0.64733 0.73462 0.67213 0.0
O113 O 0.77611 0.77046 0.72012 0.0
O114 O 0.78655 0.84172 0.72861 0.0
Mn115 Mn 0.76124 0.34308 0.3592 0.0
Mn116 Mn 0.70083 0.41922 0.41614 0.0
O117 O 0.66107 0.45128 0.36924 0.0
O118 O 0.6018 0.47788 0.41022 0.0
Mn119 Mn 0.6159 0.45108 0.46583 0.0
C120 C 0.775 0.36304 0.45868 0.0
O121 O 0.79291 0.35051 0.4205 0.0
O122 O 0.73914 0.38743 0.4611 0.0
P123 P 0.84026 0.28216 0.29739 0.0
C124 C 0.69138 0.49358 0.48944 0.0
C125 C 0.61944 0.37845 0.47429 0.0
O126 O 0.77536 0.40377 0.33246 0.0
O127 O 0.75616 0.44621 0.38978 0.0
O128 O 0.82383 0.32593 0.33278 0.0
C129 C 0.68481 0.35093 0.33843 0.0
O130 O 0.70678 0.47752 0.4528 0.0
O131 O 0.65289 0.48333 0.50435 0.0
C132 C 0.77444 0.4419 0.35235 0.0
O133 O 0.5863 0.40305 0.49054 0.0
O134 O 0.64764 0.40088 0.45145 0.0
C135 C 0.62347 0.47321 0.37304 0.0
O136 O 0.70095 0.36091 0.37787 0.0
O137 O 0.71639 0.33574 0.31083 0.0
Mn138 Mn 0.32994 0.34052 0.75691 0.0
Mn139 Mn 0.38325 0.40295 0.6797 0.0
O140 O 0.41176 0.35756 0.63302 0.0
O141 O 0.39294 0.37938 0.56354 0.0
Mn142 Mn 0.37662 0.43752 0.58188 0.0
C143 C 0.34634 0.44123 0.76746 0.0
O144 O 0.34133 0.40222 0.78641 0.0
O145 O 0.35611 0.44571 0.72611 0.0
P146 P 0.27916 0.27497 0.83761 0.0
C147 C 0.44484 0.47168 0.63425 0.0
C148 C 0.31509 0.4604 0.61482 0.0
O149 O 0.39708 0.32297 0.76319 0.0
O150 O 0.42876 0.37817 0.72575 0.0
O151 O 0.32165 0.31021 0.81914 0.0
C152 C 0.32496 0.32166 0.68046 0.0
O153 O 0.432 0.44718 0.66617 0.0
O154 O 0.42552 0.47347 0.59614 0.0
C155 C 0.43209 0.34537 0.7524 0.0
O156 O 0.32206 0.46771 0.57269 0.0
O157 O 0.34495 0.43324 0.63243 0.0
C158 C 0.41188 0.35146 0.5903 0.0
O159 O 0.33539 0.35991 0.69728 0.0
O160 O 0.31793 0.29199 0.71135 0.0
Mn161 Mn 0.32042 0.76096 0.33898 0.0
Mn162 Mn 0.37727 0.68984 0.40179 0.0
O163 O 0.32537 0.67302 0.44635 0.0
O164 O 0.32087 0.59901 0.44951 0.0
Mn165 Mn 0.3789 0.59265 0.42775 0.0
C166 C 0.42416 0.75836 0.34852 0.0
O167 O 0.38606 0.78202 0.34645 0.0
O168 O 0.42548 0.71657 0.36029 0.0
P169 P 0.25829 0.84307 0.28491 0.0
C170 C 0.43802 0.64607 0.47507 0.0
C171 C 0.3935 0.58547 0.35902 0.0
O172 O 0.30306 0.77383 0.40418 0.0
O173 O 0.36983 0.753 0.42953 0.0
O174 O 0.29884 0.82553 0.32368 0.0
C175 C 0.29298 0.68872 0.34318 0.0
O176 O 0.42449 0.67915 0.45116 0.0
O177 O 0.42335 0.60643 0.4698 0.0
C178 C 0.33134 0.77143 0.43672 0.0
O179 O 0.38982 0.55074 0.38457 0.0
O180 O 0.38641 0.625 0.37803 0.0
C181 C 0.30558 0.63794 0.45956 0.0
O182 O 0.33346 0.70111 0.35157 0.0
O183 O 0.2667 0.72273 0.33116 0.0
H184 H 0.2536 0.36568 0.11146 0.0
H185 H 0.34442 0.2544 0.14713 0.0
H186 H 0.35642 0.23657 0.06707 0.0
H187 H 0.20165 0.32882 1.01228 0.0
H188 H 0.20989 0.37758 0.97858 0.0
H189 H 0.20966 0.38401 1.03859 0.0
H190 H 0.28816 0.41905 1.03418 0.0
H191 H 0.28813 0.41101 0.97412 0.0
H192 H 0.33397 0.3877 1.00722 0.0
H193 H 0.34565 0.21868 0.98345 0.0
H194 H 0.33131 0.21698 0.90239 0.0
H195 H 0.25725 0.34467 0.91354 0.0
C196 C 0.27674 0.33808 0.10255 0.0
C197 C 0.29665 0.31033 0.13718 0.0
C198 C 0.3276 0.27565 0.12255 0.0
C199 C 0.3345 0.26484 0.07669 0.0
C200 C 0.31156 0.28965 1.04394 0.0
C201 C 0.28571 0.32752 0.05579 0.0
C202 C 0.27064 0.35119 1.01205 0.0
C203 C 0.21971 0.36099 1.01048 0.0
C204 C 0.29675 0.39484 1.00656 0.0
C205 C 0.28476 0.31672 0.97536 0.0
C206 C 0.30953 0.28204 0.99471 0.0
C207 C 0.32589 0.24579 0.96838 0.0
C208 C 0.31639 0.24455 0.92179 0.0
C209 C 0.28883 0.27815 0.9005 0.0
C210 C 0.27498 0.31607 0.92816 0.0
H211 H 0.19998 0.8293 1.0097 0.0
H212 H 0.34096 0.80866 0.97684 0.0
H213 H 0.35914 0.8071 0.05841 0.0
H214 H 0.20884 0.89981 0.09972 0.0
H215 H 0.16422 0.87681 0.13286 0.0
H216 H 0.16291 0.87137 0.07274 0.0
H217 H 0.15874 0.7849 0.0784 0.0
H218 H 0.15904 0.78983 0.1387 0.0
H219 H 0.20079 0.75412 0.11058 0.0
H220 H 0.3604 0.81573 0.14956 0.0
H221 H 0.34429 0.82657 0.23109 0.0
H222 H 0.20095 0.83873 0.20171 0.0
C223 C 0.23409 0.82129 1.01913 0.0
C224 C 0.26803 0.81611 0.98533 0.0
C225 C 0.31342 0.8101 1.00088 0.0
C226 C 0.32413 0.80996 1.04771 0.0
C227 C 0.28923 0.81547 0.07978 0.0
C228 C 0.24482 0.81998 0.0655 0.0
C229 C 0.21275 0.8264 0.10546 0.0
C230 C 0.18557 0.87126 0.10249 0.0
C231 C 0.18094 0.78645 0.10846 0.0
C232 C 0.24569 0.82665 0.14492 0.0
C233 C 0.28983 0.82002 0.12986 0.0
C234 C 0.32571 0.82007 0.16097 0.0
C235 C 0.31628 0.82625 0.20766 0.0
C236 C 0.27121 0.83232 0.22394 0.0
C237 C 0.23581 0.83302 0.19134 0.0
H238 H 0.815 0.90334 0.94704 0.0
H239 H 0.84108 0.76524 0.90542 0.0
H240 H 0.83495 0.74107 0.98443 0.0
H241 H 0.8689 0.90612 1.01804 0.0
H242 H 0.85279 0.92049 0.07292 0.0
H243 H 0.82578 0.94872 1.02594 0.0
H244 H 0.74891 0.92478 1.01228 0.0
H245 H 0.74967 0.92232 0.07263 0.0
H246 H 0.72902 0.87568 1.04024 0.0
H247 H 0.83511 0.73504 0.07509 0.0
H248 H 0.83451 0.74678 0.15781 0.0
H249 H 0.8011 0.88806 0.13827 0.0
C250 C 0.81695 0.86769 0.95347 0.0
C251 C 0.82999 0.83682 0.91898 0.0
C252 C 0.83249 0.79035 0.93088 0.0
C253 C 0.82875 0.77607 0.97611 0.0
C254 C 0.81844 0.80794 1.00985 0.0
C255 C 0.80962 0.85222 0.99803 0.0
C256 C 0.80297 0.88099 1.03984 0.0
C257 C 0.83939 0.91643 1.03925 0.0
C258 C 0.7548 0.90223 1.04132 0.0
C259 C 0.80988 0.84702 0.07792 0.0
C260 C 0.81865 0.80464 0.05998 0.0
C261 C 0.8276 0.76829 0.08887 0.0
C262 C 0.82721 0.77527 0.13641 0.0
C263 C 0.81822 0.81846 0.15618 0.0
C264 C 0.80865 0.85445 0.12548 0.0
H265 H 0.83451 0.23163 1.01902 0.0
H266 H 0.86559 0.37063 0.99496 0.0
H267 H 0.85909 0.38652 0.07695 0.0
H268 H 0.75055 0.25475 0.10568 0.0
H269 H 0.76548 0.20566 0.13802 0.0
H270 H 0.77403 0.20497 0.07823 0.0
H271 H 0.86745 0.18954 0.08733 0.0
H272 H 0.84532 0.17785 0.14211 0.0
H273 H 0.89028 0.21624 0.13623 0.0
H274 H 0.85588 0.38431 0.16594 0.0
H275 H 0.85125 0.36605 0.24665 0.0
H276 H 0.81153 0.231 0.21119 0.0
C277 C 0.83978 0.26552 1.03068 0.0
C278 C 0.85039 0.29986 0.99946 0.0
C279 C 0.85682 0.34372 1.01724 0.0
C280 C 0.8535 0.35289 0.06417 0.0
C281 C 0.8432 0.3181 0.09381 0.0
C282 C 0.836 0.27523 0.07739 0.0
C283 C 0.82366 0.24383 0.11573 0.0
C284 C 0.77558 0.22627 0.10901 0.0
C285 C 0.85862 0.20459 0.12041 0.0
C286 C 0.82581 0.27527 0.15654 0.0
C287 C 0.83788 0.31781 0.14343 0.0
C288 C 0.84581 0.35115 0.1759 0.0
C289 C 0.84275 0.34051 0.22211 0.0
C290 C 0.83154 0.29685 0.23678 0.0
C291 C 0.82152 0.26442 0.20272 0.0
H292 H 0.92152 0.28418 0.23722 0.0
H293 H 0.89715 0.28397 0.38006 0.0
H294 H 0.97989 0.29224 0.39379 0.0
H295 H 1.01527 0.21812 0.2525 0.0
H296 H 0.0512 0.23842 0.21064 0.0
H297 H 0.99 0.23942 0.20204 0.0
H298 H 0.97783 0.32699 0.19408 0.0
H299 H 1.03846 0.32671 0.18632 0.0
H300 H 1.01202 0.36279 0.22815 0.0
H301 H 0.07316 0.29713 0.38782 0.0
H302 H 0.15427 0.29268 0.36333 0.0
H303 H 0.11104 0.29368 0.22539 0.0
C304 C 0.93278 0.28737 0.27155 0.0
C305 C 0.90202 0.28441 0.30737 0.0
C306 C 0.91983 0.28633 0.3517 0.0
C307 C 0.96697 0.29161 0.35986 0.0
C308 C 0.99641 0.2957 0.32331 0.0
C309 C 0.97908 0.29383 0.28028 0.0
C310 C 1.01657 0.29167 0.24647 0.0
C311 C 1.01799 0.24421 0.22621 0.0
C312 C 1.01091 0.32911 0.21158 0.0
C313 C 0.05807 0.29785 0.27524 0.0
C314 C 1.04676 0.29837 0.32012 0.0
C315 C 0.08147 0.29771 0.35251 0.0
C316 C 0.12779 0.29559 0.33832 0.0
C317 C 0.13946 0.29425 0.29205 0.0
C318 C 0.10359 0.29611 0.26077 0.0
H319 H 0.28164 0.99981 0.87222 0.0
H320 H 0.30869 0.96783 0.73341 0.0
H321 H 0.31306 1.05077 0.71911 0.0
H322 H 0.2 0.11289 0.85927 0.0
H323 H 0.22147 0.10495 0.91469 0.0
H324 H 0.21199 1.05745 0.87811 0.0
H325 H 0.31102 0.06388 0.91588 0.0
H326 H 0.29945 0.12305 0.9243 0.0
H327 H 0.34281 0.10312 0.88564 0.0
H328 H 0.32398 0.14669 0.72949 0.0
H329 H 0.32003 0.22668 0.75496 0.0
H330 H 0.25736 0.18759 0.87835 0.0
C331 C 0.28639 1.00901 0.83826 0.0
C332 C 0.29334 0.97512 0.80438 0.0
C333 C 0.3026 0.99154 0.76072 0.0
C334 C 0.30511 1.03921 0.75237 0.0
C335 C 0.2962 0.07102 0.78737 0.0
C336 C 0.28504 1.05548 0.82905 0.0
C337 C 0.27323 0.09418 0.86155 0.0
C338 C 0.22417 0.09221 0.87959 0.0
C339 C 0.30858 0.09633 0.8992 0.0
C340 C 0.2783 0.13442 0.83234 0.0
C341 C 0.29437 0.12172 0.79033 0.0
C342 C 0.30933 0.15554 0.76178 0.0
C343 C 0.30682 0.20163 0.77651 0.0
C344 C 0.28802 0.21481 0.81885 0.0
C345 C 0.27246 0.17991 0.84599 0.0
H346 H 0.17395 0.89016 0.32106 0.0
H347 H 0.21051 0.75763 0.26853 0.0
H348 H 0.12962 0.737 0.27206 0.0
H349 H 0.08115 0.85422 0.39663 0.0
H350 H 1.04772 0.90462 0.38553 0.0
H351 H 0.10877 0.90602 0.38435 0.0
H352 H 0.1078 0.93586 0.30222 0.0
H353 H 1.04753 0.93695 0.30804 0.0
H354 H 0.07383 0.9071 0.26114 0.0
H355 H 1.04089 0.73448 0.27467 0.0
H356 H 0.95813 0.75139 0.27149 0.0
H357 H 0.98044 0.88639 0.32077 0.0
C358 C 0.16578 0.85617 0.31181 0.0
C359 C 0.19973 0.82511 0.29584 0.0
C360 C 0.18586 0.78167 0.28235 0.0
C361 C 0.13966 0.76977 0.28399 0.0
C362 C 0.10706 0.80152 0.29957 0.0
C363 C 0.11995 0.84373 0.31355 0.0
C364 C 0.07872 0.87317 0.32583 0.0
C365 C 0.07913 0.8852 0.37608 0.0
C366 C 0.07697 0.91576 0.29735 0.0
C367 C 1.03994 0.8421 0.31458 0.0
C368 C 0.05697 0.80036 0.30054 0.0
C369 C 1.02756 0.76682 0.28647 0.0
C370 C 0.98022 0.77649 0.28535 0.0
C371 C 0.96189 0.81945 0.29807 0.0
C372 C 0.99267 0.8524 0.31325 0.0
H373 H 0.78733 0.93737 0.88597 0.0
H374 H 0.89864 0.9074 0.79481 0.0
H375 H 0.8947 0.98426 0.76782 0.0
H376 H 0.73196 1.02901 0.81086 0.0
H377 H 0.71497 0.06225 0.85927 0.0
H378 H 0.71807 1.00161 0.86242 0.0
H379 H 0.76919 1.00706 0.9294 0.0
H380 H 0.76993 0.06715 0.92733 0.0
H381 H 0.82273 1.03329 0.92501 0.0
H382 H 0.87611 0.06888 0.74766 0.0
H383 H 0.87008 0.15184 0.75773 0.0
H384 H 0.78199 0.13438 0.87188 0.0
C385 C 0.81191 0.94699 0.86133 0.0
C386 C 0.84478 0.91466 0.84455 0.0
C387 C 0.8738 0.92974 0.81002 0.0
C388 C 0.87155 0.9743 0.79375 0.0
C389 C 0.84011 1.0054 0.81204 0.0
C390 C 0.81108 0.99239 0.84553 0.0
C391 C 0.78405 1.03373 0.86307 0.0
C392 C 0.73432 1.03149 0.84801 0.0
C393 C 0.78676 1.0358 0.9143 0.0
C394 C 0.80739 0.07274 0.83901 0.0
C395 C 0.83574 1.05488 0.80609 0.0
C396 C 0.85592 0.08316 0.77487 0.0
C397 C 0.85187 0.13068 0.78044 0.0
C398 C 0.82822 0.15048 0.81737 0.0
C399 C 0.80334 0.12063 0.8453 0.0
H400 H 0.91516 0.83624 0.78184 0.0
H401 H 0.91339 0.81809 0.92643 0.0
H402 H 0.99177 0.79631 0.92536 0.0
H403 H 1.0222 0.75456 0.76131 0.0
H404 H 1.04467 0.79202 0.72031 0.0
H405 H 0.98413 0.787 0.72627 0.0
H406 H 0.98009 0.87061 0.73267 0.0
H407 H 1.03972 0.88112 0.7384 0.0
H408 H 0.99985 0.89793 0.7821 0.0
H409 H 0.0733 0.78322 0.91332 0.0
H410 H 0.15311 0.80037 0.8976 0.0
H411 H 0.11436 0.84604 0.7652 0.0
C412 C 0.931 0.82763 0.81337 0.0
C413 C 0.90499 0.82821 0.85404 0.0
C414 C 0.92884 0.81598 0.89383 0.0
C415 C 0.97504 0.80417 0.89408 0.0
C416 C 0.99969 0.80694 0.85479 0.0
C417 C 0.979 0.81863 0.81493 0.0
C418 C 1.01604 0.82622 0.77968 0.0
C419 C 1.01679 0.78767 0.74481 0.0
C420 C 1.00874 0.87174 0.75681 0.0
C421 C 0.05963 0.82369 0.80824 0.0
C422 C 0.04888 0.80817 0.85013 0.0
C423 C 0.08223 0.79797 0.88172 0.0
C424 C 0.12757 0.80755 0.87235 0.0
C425 C 0.1401 0.82668 0.83128 0.0
C426 C 0.10568 0.83333 0.79785 0.0
H427 H 0.84317 1.00883 0.26087 0.0
H428 H 0.79532 0.98039 0.39207 0.0
H429 H 0.78782 0.06374 0.40727 0.0
H430 H 0.91067 0.09171 0.2773 0.0
H431 H 0.89629 0.13031 0.23309 0.0
H432 H 0.88926 0.07218 0.22423 0.0
H433 H 0.78706 0.07522 0.22131 0.0
H434 H 0.81537 0.12387 0.20035 0.0
H435 H 0.77128 0.12911 0.24157 0.0
H436 H 0.78672 0.16047 0.40197 0.0
H437 H 0.79766 0.24071 0.38013 0.0
H438 H 0.85755 0.1947 0.25553 0.0
C439 C 0.83091 1.01958 0.29218 0.0
C440 C 0.82068 0.98685 0.32413 0.0
C441 C 0.80371 1.00374 0.36597 0.0
C442 C 0.79938 1.05153 0.3748 0.0
C443 C 0.8112 0.08251 0.34124 0.0
C444 C 0.82602 0.06604 0.30027 0.0
C445 C 0.83727 0.1036 0.26826 0.0
C446 C 0.88613 0.09902 0.24986 0.0
C447 C 0.80119 0.10805 0.23064 0.0
C448 C 0.83234 0.14389 0.29869 0.0
C449 C 0.81397 0.13289 0.33969 0.0
C450 C 0.80129 0.16801 0.36972 0.0
C451 C 0.80731 0.21383 0.35693 0.0
C452 C 0.82639 0.22452 0.31463 0.0
C453 C 0.84028 0.18847 0.28662 0.0
H454 H 1.00171 0.31107 0.8866 0.0
H455 H 0.97465 0.24942 0.75801 0.0
H456 H 0.05572 0.25569 0.73725 0.0
H457 H 0.09591 0.3882 0.85416 0.0
H458 H 0.12677 0.3747 0.90467 0.0
H459 H 0.06565 0.37432 0.90444 0.0
H460 H 0.06982 0.29288 0.93279 0.0
H461 H 0.13131 0.29007 0.93017 0.0
H462 H 0.09881 0.24999 0.89919 0.0
H463 H 0.14549 0.26136 0.73498 0.0
H464 H 0.22747 0.26108 0.75329 0.0
H465 H 0.1949 0.3134 0.88567 0.0
C466 C 1.01214 0.30172 0.85286 0.0
C467 C 0.98039 0.28237 0.82295 0.0
C468 C 0.99708 0.26675 0.78069 0.0
C469 C 1.04357 0.26987 0.76876 0.0
C470 C 0.07405 0.2887 0.79933 0.0
C471 C 0.0585 0.30479 0.84041 0.0
C472 C 0.09846 0.31644 0.87027 0.0
C473 C 0.09658 0.3664 0.88422 0.0
C474 C 0.09961 0.28568 0.91079 0.0
C475 C 0.13901 0.3054 0.84017 0.0
C476 C 0.12451 0.28961 0.79904 0.0
C477 C 0.15648 0.27429 0.76713 0.0
C478 C 0.20346 0.2743 0.77789 0.0
C479 C 0.21916 0.28817 0.82082 0.0
C480 C 0.18573 0.30426 0.85195 0.0
H481 H 0.2775 0.92457 0.23139 0.0
H482 H 0.24721 0.89751 0.36976 0.0
H483 H 0.2547 0.97897 0.3889 0.0
H484 H 0.35661 1.00472 0.23625 0.0
H485 H 0.33138 1.04006 0.19453 0.0
H486 H 0.32144 0.98046 0.19393 0.0
H487 H 0.22804 0.99197 0.20803 0.0
H488 H 0.23995 1.05087 0.19668 0.0
H489 H 0.21097 1.03538 0.2459 0.0
H490 H 0.25729 0.07517 0.38537 0.0
H491 H 0.25979 0.15552 0.36068 0.0
H492 H 0.30338 0.10893 0.22987 0.0
C493 C 0.2732 0.9352 0.26597 0.0
C494 C 0.26109 0.90414 0.29854 0.0
C495 C 0.2555 0.92068 0.34345 0.0
C496 C 0.26017 0.96717 0.35482 0.0
C497 C 0.27201 0.99732 0.32124 0.0
C498 C 0.27878 0.98082 0.27811 0.0
C499 C 0.28415 1.01868 0.24641 0.0
C500 C 0.32557 1.01052 0.21574 0.0
C501 C 0.23851 1.02463 0.22219 0.0
C502 C 0.28946 1.05829 0.27749 0.0
C503 C 0.27764 1.04746 0.32063 0.0
C504 C 0.26821 0.08276 0.35174 0.0
C505 C 0.27001 0.12878 0.33753 0.0
C506 C 0.28208 0.13952 0.29271 0.0
C507 C 0.29388 0.10293 0.26398 0.0
H508 H 0.82392 0.80724 0.43145 0.0
H509 H 0.68962 0.75226 0.42081 0.0
H510 H 0.68068 0.75968 0.50259 0.0
H511 H 0.86003 0.75374 0.52906 0.0
H512 H 0.88505 0.7992 0.55956 0.0
H513 H 0.88433 0.79863 0.49917 0.0
H514 H 0.84411 0.87363 0.49206 0.0
H515 H 0.8482 0.8803 0.55207 0.0
H516 H 0.79401 0.88693 0.52468 0.0
H517 H 0.67833 0.79227 0.58074 0.0
H518 H 0.69398 0.81305 0.65973 0.0
H519 H 0.83624 0.82259 0.6288 0.0
C520 C 0.79256 0.79684 0.44642 0.0
C521 C 0.75656 0.78069 0.41919 0.0
C522 C 0.71687 0.76616 0.44043 0.0
C523 C 0.71124 0.77073 0.48696 0.0
C524 C 0.74595 0.78888 0.51253 0.0
C525 C 0.78668 0.80014 0.49357 0.0
C526 C 0.81893 0.81683 0.53016 0.0
C527 C 0.8646 0.79045 0.52961 0.0
C528 C 0.82677 0.86741 0.52439 0.0
C529 C 0.79095 0.80935 0.57273 0.0
C530 C 0.74785 0.79687 0.56073 0.0
C531 C 0.71251 0.79813 0.59159 0.0
C532 C 0.72182 0.80876 0.63656 0.0
C533 C 0.76663 0.81385 0.65173 0.0
C534 C 0.80171 0.81625 0.61883 0.0
H535 H 0.71894 0.35084 0.71517 0.0
H536 H 0.86155 0.34923 0.7489 0.0
H537 H 0.88099 0.34398 0.66776 0.0
H538 H 0.73024 0.26792 0.62491 0.0
H539 H 0.68697 0.29421 0.59113 0.0
H540 H 0.6838 0.2986 0.65126 0.0
H541 H 0.67815 0.38351 0.6485 0.0
H542 H 0.68432 0.38674 0.58863 0.0
H543 H 0.72342 0.41474 0.62456 0.0
H544 H 0.88207 0.34672 0.57691 0.0
H545 H 0.86378 0.35388 0.49531 0.0
H546 H 0.72146 0.34172 0.52722 0.0
C547 C 0.75432 0.34744 0.70611 0.0
C548 C 0.7886 0.34883 0.73899 0.0
C549 C 0.83451 0.34705 0.7245 0.0
C550 C 0.84588 0.34424 0.6783 0.0
C551 C 0.81096 0.34244 0.64659 0.0
C552 C 0.76615 0.3431 0.66057 0.0
C553 C 0.73425 0.34139 0.62117 0.0
C554 C 0.70715 0.29803 0.62215 0.0
C555 C 0.70314 0.38398 0.62064 0.0
C556 C 0.76745 0.34046 0.58246 0.0
C557 C 0.8118 0.34156 0.59695 0.0
C558 C 0.8473 0.34488 0.56563 0.0
C559 C 0.83681 0.34839 0.51907 0.0
C560 C 0.79117 0.34795 0.5042 0.0
C561 C 0.75686 0.34199 0.53685 0.0
H562 H 0.3337 0.27714 0.40892 0.0
H563 H 0.33323 0.42305 0.41347 0.0
H564 H 0.30974 0.4221 0.49226 0.0
H565 H 0.24474 0.26575 0.50156 0.0
H566 H 0.27258 0.21786 0.52722 0.0
H567 H 0.27719 0.22605 0.46752 0.0
H568 H 0.3527 0.20343 0.50185 0.0
H569 H 0.3813 0.24104 0.53783 0.0
H570 H 0.38377 0.2474 0.4777 0.0
H571 H 0.26523 0.40221 0.56344 0.0
H572 H 0.27033 0.38292 0.64326 0.0
H573 H 0.33572 0.25473 0.60793 0.0
C574 C 0.32841 0.30889 0.42659 0.0
C575 C 0.3298 0.35067 0.40298 0.0
C576 C 0.32671 0.39099 0.42852 0.0
C577 C 0.3138 0.39072 0.47372 0.0
C578 C 0.30822 0.34955 0.49471 0.0
C579 C 0.31938 0.30927 0.47355 0.0
C580 C 0.31876 0.2709 0.50822 0.0
C581 C 0.27576 0.24354 0.50067 0.0
C582 C 0.36148 0.23935 0.50631 0.0
C583 C 0.31361 0.29809 0.55253 0.0
C584 C 0.30028 0.34152 0.54183 0.0
C585 C 0.2811 0.37065 0.57346 0.0
C586 C 0.28388 0.35904 0.61861 0.0
C587 C 0.30834 0.31999 0.63249 0.0
C588 C 0.32008 0.28671 0.5988 0.0
H589 H 0.39092 0.79031 0.50378 0.0
H590 H 0.24697 0.77837 0.4804 0.0
H591 H 0.23305 0.78752 0.56253 0.0
H592 H 0.39464 0.72571 0.60363 0.0
H593 H 0.43977 0.75931 0.62537 0.0
H594 H 0.43128 0.75364 0.56564 0.0
H595 H 0.42532 0.84482 0.56294 0.0
H596 H 0.43417 0.84436 0.62287 0.0
H597 H 0.38467 0.87232 0.59955 0.0
H598 H 0.23842 0.79222 0.65329 0.0
H599 H 0.26197 0.79039 0.73339 0.0
H600 H 0.40203 0.79491 0.69245 0.0
C601 C 0.35615 0.79067 0.5155 0.0
C602 C 0.32006 0.78434 0.48485 0.0
C603 C 0.27533 0.7842 0.50254 0.0
C604 C 0.26719 0.7891 0.54948 0.0
C605 C 0.30402 0.79456 0.57876 0.0
C606 C 0.34753 0.79557 0.56179 0.0
C607 C 0.38213 0.79863 0.5991 0.0
C608 C 0.41393 0.75685 0.59847 0.0
C609 C 0.40821 0.84256 0.59595 0.0
C610 C 0.3522 0.79912 0.64022 0.0
C611 C 0.30697 0.79713 0.62847 0.0
C612 C 0.27383 0.79491 0.66208 0.0
C613 C 0.28747 0.79442 0.70785 0.0
C614 C 0.33387 0.79616 0.7203 0.0
C615 C 0.36622 0.79771 0.68535 0.0
H616 H 0.43236 0.84052 0.74407 0.0
H617 H 0.40408 0.74859 0.85196 0.0
H618 H 0.48465 0.74394 0.87095 0.0
H619 H 0.52201 0.79959 0.70292 0.0
H620 H 0.56437 0.84237 0.69865 0.0
H621 H 0.5048 0.8572 0.69756 0.0
H622 H 0.50109 0.90815 0.76415 0.0
H623 H 0.56229 0.90546 0.76404 0.0
H624 H 0.53149 0.89393 0.81462 0.0
H625 H 0.56712 0.73658 0.87052 0.0
H626 H 0.64945 0.73518 0.85743 0.0
H627 H 0.63132 0.83478 0.75326 0.0
C628 C 0.44307 0.81958 0.77169 0.0
C629 C 0.41165 0.79252 0.79473 0.0
C630 C 0.42727 0.76839 0.83274 0.0
C631 C 0.47323 0.7655 0.84397 0.0
C632 C 0.50379 0.78925 0.81871 0.0
C633 C 0.48954 0.81767 0.78482 0.0
C634 C 0.53084 0.83965 0.76408 0.0
C635 C 0.53079 0.83426 0.7128 0.0
C636 C 0.53146 0.88977 0.77752 0.0
C637 C 0.57018 0.81377 0.78714 0.0
C638 C 0.55308 0.78651 0.81992 0.0
C639 C 0.58116 0.75861 0.8458 0.0
C640 C 0.62806 0.75812 0.83824 0.0
C641 C 0.64732 0.78557 0.80532 0.0
C642 C 0.61783 0.81436 0.77966 0.0
H643 H 0.71071 0.69603 0.32259 0.0
H644 H 0.84419 0.72892 0.37066 0.0
H645 H 0.8679 0.6485 0.36427 0.0
H646 H 0.6966 0.59481 0.36966 0.0
H647 H 0.67325 0.56674 0.32142 0.0
H648 H 0.6666 0.62674 0.32728 0.0
H649 H 0.70325 0.63571 0.24925 0.0
H650 H 0.70853 0.57525 0.24351 0.0
H651 H 0.75782 0.60914 0.23774 0.0
H652 H 0.87199 0.56089 0.36397 0.0
H653 H 0.85702 0.47928 0.36556 0.0
H654 H 0.72543 0.50496 0.3063 0.0
C655 C 0.74564 0.68749 0.3292 0.0
C656 C 0.77603 0.72029 0.3451 0.0
C657 C 0.82047 0.70521 0.35703 0.0
C658 C 0.83434 0.65934 0.35348 0.0
C659 C 0.80382 0.62814 0.33684 0.0
C660 C 0.76075 0.64202 0.32378 0.0
C661 C 0.73435 0.60197 0.307 0.0
C662 C 0.69003 0.59752 0.33308 0.0
C663 C 0.72544 0.60575 0.25637 0.0
C664 C 0.76732 0.56284 0.31657 0.0
C665 C 0.80768 0.57858 0.33318 0.0
C666 C 0.84121 0.54848 0.34916 0.0
C667 C 0.83272 0.50179 0.34936 0.0
C668 C 0.79117 0.48485 0.33341 0.0
C669 C 0.75868 0.5162 0.31593 0.0
H670 H 0.70303 0.29125 0.77095 0.0
H671 H 0.70428 0.41312 0.85266 0.0
H672 H 0.62282 0.41474 0.85655 0.0
H673 H 0.61592 0.32306 0.70668 0.0
H674 H 0.58379 0.27232 0.70301 0.0
H675 H 0.64386 0.26856 0.71303 0.0
H676 H 0.6355 0.22557 0.78514 0.0
H677 H 0.57543 0.22326 0.77429 0.0
H678 H 0.59537 0.24532 0.82702 0.0
H679 H 0.53904 0.41047 0.84526 0.0
H680 H 0.46128 0.40079 0.81731 0.0
H681 H 0.50725 0.28459 0.73889 0.0
C682 C 0.6864 0.31743 0.79105 0.0
C683 C 0.71252 0.35202 0.81136 0.0
C684 C 0.68787 0.38572 0.83646 0.0
C685 C 0.64023 0.38714 0.8391 0.0
C686 C 0.61583 0.35422 0.81711 0.0
C687 C 0.63794 0.31943 0.79416 0.0
C688 C 0.60268 0.29083 0.77035 0.0
C689 C 0.61224 0.28862 0.7201 0.0
C690 C 0.60223 0.24342 0.79038 0.0
C691 C 0.55798 0.31682 0.78073 0.0
C692 C 0.56666 0.35238 0.80936 0.0
C693 C 0.53187 0.38217 0.82348 0.0
C694 C 0.48741 0.37621 0.80756 0.0
C695 C 0.47697 0.34105 0.77705 0.0
C696 C 0.51321 0.31074 0.76358 0.0
H697 H 0.2498 0.61677 0.38597 0.0
H698 H 0.3236 0.65098 0.26622 0.0
H699 H 0.32787 0.57083 0.24358 0.0
H700 H 0.30961 0.51826 0.41336 0.0
H701 H 0.26267 0.4846 0.42916 0.0
H702 H 0.25738 0.54455 0.43399 0.0
H703 H 0.18648 0.54599 0.38438 0.0
H704 H 0.19053 0.48537 0.38015 0.0
H705 H 0.18831 0.51871 0.33007 0.0
H706 H 0.33802 0.48564 0.2409 0.0
H707 H 0.35339 0.40606 0.26049 0.0
H708 H 0.26292 0.4218 0.37423 0.0
C709 C 0.26596 0.60739 0.35458 0.0
C710 C 0.28607 0.64079 0.32767 0.0
C711 C 0.30719 0.6266 0.28701 0.0
C712 C 0.30987 0.58088 0.27386 0.0
C713 C 0.29129 0.54867 0.30158 0.0
C714 C 0.26903 0.56124 0.34088 0.0
C715 C 0.25361 0.5191 0.36509 0.0
C716 C 0.27205 0.51663 0.41321 0.0
C717 C 0.20164 0.51718 0.36489 0.0
C718 C 0.27463 0.4815 0.33577 0.0
C719 C 0.29534 0.49923 0.29874 0.0
C720 C 0.32135 0.47157 0.26963 0.0
C721 C 0.33005 0.4261 0.28103 0.0
C722 C 0.31133 0.40768 0.32019 0.0
C723 C 0.27993 0.43507 0.34539 0.0
H724 H 0.41501 0.38327 0.38542 0.0
H725 H 0.38643 0.30748 0.26487 0.0
H726 H 0.46959 0.30101 0.24852 0.0
H727 H 0.511 0.44566 0.35215 0.0
H728 H 0.53399 0.43684 0.40778 0.0
H729 H 0.47438 0.43698 0.39903 0.0
H730 H 0.47605 0.35922 0.43767 0.0
H731 H 0.53625 0.35913 0.44168 0.0
H732 H 0.50922 0.31365 0.41267 0.0
H733 H 0.56128 0.30464 0.24805 0.0
H734 H 0.64317 0.31258 0.26432 0.0
H735 H 0.60787 0.38313 0.38712 0.0
C736 C 0.42598 0.36529 0.35542 0.0
C737 C 0.39401 0.34532 0.32697 0.0
C738 C 0.41024 0.32255 0.28778 0.0
C739 C 0.45759 0.31902 0.27816 0.0
C740 C 0.48851 0.33867 0.30791 0.0
C741 C 0.47257 0.36125 0.34569 0.0
C742 C 0.51091 0.37588 0.37534 0.0
C743 C 0.50758 0.42691 0.38379 0.0
C744 C 0.50806 0.35043 0.4195 0.0
C745 C 0.55241 0.36072 0.34755 0.0
C746 C 0.53893 0.33892 0.30877 0.0
C747 C 0.57164 0.32169 0.27846 0.0
C748 C 0.61858 0.32653 0.288 0.0
C749 C 0.63374 0.34841 0.32776 0.0
C750 C 0.59915 0.36561 0.35731 0.0
H751 H 0.28162 0.50714 0.79471 0.0
H752 H 0.42586 0.47556 0.7884 0.0
H753 H 0.44137 0.55623 0.78605 0.0
H754 H 0.27309 0.59392 0.72941 0.0
H755 H 0.23862 0.63516 0.75977 0.0
H756 H 0.23355 0.57596 0.77071 0.0
H757 H 0.2524 0.58247 0.85355 0.0
H758 H 0.25194 0.64278 0.84709 0.0
H759 H 0.3005 0.6141 0.87146 0.0
H760 H 0.43925 0.63615 0.76126 0.0
H761 H 0.42584 0.71677 0.74963 0.0
H762 H 0.2865 0.70547 0.79386 0.0
C763 C 0.31655 0.51724 0.79634 0.0
C764 C 0.35261 0.4843 0.79266 0.0
C765 C 0.39774 0.49954 0.79269 0.0
C766 C 0.40688 0.54554 0.79024 0.0
C767 C 0.37069 0.57675 0.79068 0.0
C768 C 0.32665 0.56377 0.79715 0.0
C769 C 0.29478 0.60554 0.79863 0.0
C770 C 0.25783 0.60255 0.76248 0.0
C771 C 0.27365 0.61158 0.84547 0.0
C772 C 0.32761 0.64333 0.78903 0.0
C773 C 0.37089 0.62514 0.78328 0.0
C774 C 0.40616 0.65115 0.76826 0.0
C775 C 0.39812 0.69736 0.76207 0.0
C776 C 0.35623 0.7187 0.77448 0.0
C777 C 0.31969 0.69078 0.78635 0.0
H778 H 0.68856 0.75615 0.28899 0.0
H779 H 0.70382 0.85775 0.39203 0.0
H780 H 0.62091 0.87329 0.39155 0.0
H781 H 0.58206 0.7887 0.23203 0.0
H782 H 0.56154 0.7324 0.23571 0.0
H783 H 0.62157 0.74121 0.23162 0.0
H784 H 0.63228 0.69443 0.29978 0.0
H785 H 0.57432 0.69206 0.3179 0.0
H786 H 0.6145 0.71568 0.35428 0.0
H787 H 0.53103 0.86751 0.38771 0.0
H788 H 0.45304 0.83788 0.38673 0.0
H789 H 0.49931 0.72795 0.30038 0.0
C790 C 0.67484 0.7822 0.31098 0.0
C791 C 0.70297 0.80407 0.34189 0.0
C792 C 0.68314 0.83967 0.3683 0.0
C793 C 0.63568 0.84881 0.36825 0.0
C794 C 0.60795 0.82251 0.34108 0.0
C795 C 0.62741 0.79029 0.31258 0.0
C796 C 0.59228 0.75756 0.29754 0.0
C797 C 0.5892 0.75477 0.24617 0.0
C798 C 0.60442 0.71211 0.31848 0.0
C799 C 0.549 0.7775 0.31827 0.0
C800 C 0.5584 0.81549 0.34326 0.0
C801 C 0.52378 0.83798 0.36769 0.0
C802 C 0.47924 0.82094 0.36684 0.0
C803 C 0.46934 0.78074 0.34296 0.0
C804 C 0.50515 0.75913 0.31832 0.0
H805 H 0.80075 0.43948 0.74159 0.0
H806 H 0.7778 0.41248 0.88199 0.0
H807 H 0.78808 0.49289 0.90057 0.0
H808 H 0.89551 0.51389 0.7666 0.0
H809 H 0.88302 0.5495 0.71937 0.0
H810 H 0.86965 0.49071 0.717 0.0
H811 H 0.7864 0.5124 0.69815 0.0
H812 H 0.79837 0.5715 0.70152 0.0
H813 H 0.75499 0.54918 0.73614 0.0
H814 H 0.78548 0.58268 0.89874 0.0
H815 H 0.7883 0.66392 0.87893 0.0
H816 H 0.84237 0.62462 0.74875 0.0
C817 C 0.79768 0.4502 0.77624 0.0
C818 C 0.7848 0.41984 0.80987 0.0
C819 C 0.78449 0.43556 0.85509 0.0
C820 C 0.79071 0.48123 0.86613 0.0
C821 C 0.8015 0.51072 0.83205 0.0
C822 C 0.80741 0.49504 0.78841 0.0
C823 C 0.8235 0.53233 0.75871 0.0
C824 C 0.87075 0.52091 0.73929 0.0
C825 C 0.78884 0.54183 0.72128 0.0
C826 C 0.82475 0.57144 0.79206 0.0
C827 C 0.81002 0.55925 0.83386 0.0
C828 C 0.79913 0.59228 0.86669 0.0
C829 C 0.80155 0.63862 0.85559 0.0
C830 C 0.8165 0.65144 0.81259 0.0
C831 C 0.83159 0.61661 0.78235 0.0
H832 H 0.25075 0.12075 0.16381 0.0
H833 H 0.37203 0.16858 0.10515 0.0
H834 H 0.39024 0.09378 0.07424 0.0
H835 H 0.27008 0.98701 0.13827 0.0
H836 H 0.23351 0.97612 0.09236 0.0
H837 H 0.20921 0.99993 0.14032 0.0
H838 H 0.19269 0.08306 0.13753 0.0
H839 H 0.17615 1.05888 0.08554 0.0
H840 H 0.20823 0.10946 0.08523 0.0
H841 H 0.37354 1.02944 1.01683 0.0
H842 H 0.32931 0.99839 0.95264 0.0
H843 H 0.20477 1.03061 1.02293 0.0
C844 C 0.28266 0.11331 0.14707 0.0
C845 C 0.30815 0.14977 0.13393 0.0
C846 C 0.35077 0.14102 0.11406 0.0
C847 C 0.36117 0.09815 0.09619 0.0
C848 C 0.32736 0.06611 0.09655 0.0
C849 C 0.28836 0.07261 0.12324 0.0
C850 C 0.24821 1.04876 0.10246 0.0
C851 C 0.24032 1.00065 0.11984 0.0
C852 C 0.20372 0.07703 0.10252 0.0
C853 C 0.26641 1.04283 0.05705 0.0
C854 C 0.31282 1.04384 0.05586 0.0
C855 C 0.33687 1.02937 1.01784 0.0
C856 C 0.31169 1.01301 0.98141 0.0
C857 C 0.26363 1.01762 0.98189 0.0
C858 C 0.24131 1.03186 1.02031 0.0
H859 H 0.9338 0.95352 0.05782 0.0
H860 H 0.94975 0.82732 0.12783 0.0
H861 H 0.9989 0.79739 0.06686 0.0
H862 H 0.92784 0.89585 0.94236 0.0
H863 H 0.95735 0.94013 0.91497 0.0
H864 H 0.91907 0.95308 0.96084 0.0
H865 H 0.97872 0.99241 1.0074 0.0
H866 H 1.01754 0.98516 0.96181 0.0
H867 H 1.0332 0.965 1.01664 0.0
H868 H 0.06811 0.80052 1.02106 0.0
H869 H 0.13527 0.82842 0.98336 0.0
H870 H 0.05317 0.9295 0.91706 0.0
C871 C 0.946 0.91894 0.05912 0.0
C872 C 0.93791 0.89265 0.09681 0.0
C873 C 0.95522 0.84781 0.09862 0.0
C874 C 0.98259 0.83035 0.06401 0.0
C875 C 0.98947 0.85715 1.02678 0.0
C876 C 0.96951 0.89961 1.02302 0.0
C877 C 0.98433 0.92273 0.98109 0.0
C878 C 0.94486 0.92821 0.9478 0.0
C879 C 1.0047 0.96893 0.99246 0.0
C880 C 1.01986 0.88865 0.96438 0.0
C881 C 1.02352 0.85173 0.99245 0.0
C882 C 0.06445 0.82736 0.99698 0.0
C883 C 0.10296 0.84373 0.97603 0.0
C884 C 0.09937 0.88184 0.94866 0.0
C885 C 0.05612 0.89946 0.9373 0.0
H886 H 0.84084 0.97779 0.10975 0.0
H887 H 0.71962 1.01219 0.18246 0.0
H888 H 0.69569 0.06316 0.12069 0.0
H889 H 0.85646 0.08622 0.13242 0.0
H890 H 0.89833 0.09074 0.08951 0.0
H891 H 0.89106 1.03748 0.11515 0.0
H892 H 0.8797 1.00418 1.03552 0.0
H893 H 0.88479 1.05802 1.01062 0.0
H894 H 0.83486 1.02592 1.00039 0.0
H895 H 0.69888 0.10347 1.02671 0.0
H896 H 0.73318 0.14696 0.9648 0.0
H897 H 0.8636 0.13417 1.02898 0.0
C898 C 0.80639 0.99057 0.10954 0.0
C899 C 0.78126 0.9883 0.14905 0.0
C900 C 0.73903 1.01207 0.15165 0.0
C901 C 0.72595 1.04194 0.11704 0.0
C902 C 0.75757 1.05019 0.08316 0.0
C903 C 0.79927 1.0277 0.08332 0.0
C904 C 0.83699 1.05673 0.06749 0.0
C905 C 0.87258 0.06819 0.10347 0.0
C906 C 0.86034 1.03503 1.02598 0.0
C907 C 0.80984 0.09807 0.05621 0.0
C908 C 0.7636 0.09198 0.05945 0.0
C909 C 0.7342 0.11225 1.02822 0.0
C910 C 0.75355 0.13736 0.99353 0.0
C911 C 0.80062 0.14506 0.99414 0.0
C912 C 0.827 0.13093 1.02999 0.0
H913 H 0.09132 0.2657 0.15747 0.0
H914 H 0.14668 0.35175 0.05942 0.0
H915 H 0.10884 0.30878 0.99926 0.0
H916 H 1.04516 0.16044 0.10997 0.0
H917 H 0.99575 0.18066 0.13975 0.0
H918 H 0.05134 0.19922 0.15379 0.0
H919 H 0.98166 0.27479 0.13629 0.0
H920 H 0.95042 0.2395 0.09861 0.0
H921 H 0.97837 0.28769 0.07793 0.0
H922 H 0.10209 0.21655 0.96615 0.0
H923 H 0.05344 0.15796 0.93273 0.0
H924 H 0.96883 0.16497 1.05117 0.0
C925 C 0.09263 0.27834 0.12403 0.0
C926 C 0.129 0.30525 0.11057 0.0
C927 C 0.12591 0.32407 0.06768 0.0
C928 C 0.10447 0.29983 1.03369 0.0
C929 C 0.07744 0.26454 1.04652 0.0
C930 C 0.06504 0.25981 0.09063 0.0
C931 C 1.02401 0.2302 0.09373 0.0
C932 C 1.02907 0.19066 0.12631 0.0
C933 C 0.98112 0.25971 0.10236 0.0
C934 C 1.02282 0.21187 1.04694 0.0
C935 C 0.05542 0.23041 1.02041 0.0
C936 C 0.07092 0.20763 0.98214 0.0
C937 C 1.0455 0.17192 0.96563 0.0
C938 C 1.00646 0.15846 0.98898 0.0
C939 C 0.99754 0.17592 1.03181 0.0
H940 H 1.01246 0.95414 0.18864 0.0
H941 H 0.97683 1.01425 0.31735 0.0
H942 H 1.03641 0.06937 0.3083 0.0
H943 H 0.13737 0.99227 0.17979 0.0
H944 H 0.12705 1.00379 0.12128 0.0
H945 H 0.09996 0.9575 0.14766 0.0
H946 H 1.02335 0.99144 0.11942 0.0
H947 H 0.04949 1.04019 0.09718 0.0
H948 H 1.00509 1.04693 0.13841 0.0
H949 H 0.07217 0.13053 0.27567 0.0
H950 H 0.10961 0.18617 0.23086 0.0
H951 H 0.11348 0.09443 0.11648 0.0
C952 C 1.0199 0.9768 0.21624 0.0
C953 C 0.99139 0.98029 0.25391 0.0
C954 C 0.99957 1.01122 0.28885 0.0
C955 C 1.03295 1.04266 0.28367 0.0
C956 C 0.0561 1.04274 0.24299 0.0
C957 C 0.05099 1.01006 0.2101 0.0
C958 C 0.0709 1.02383 0.16572 0.0
C959 C 0.1113 0.99254 0.15287 0.0
C960 C 1.03504 1.02569 0.12804 0.0
C961 C 0.08574 0.07033 0.17829 0.0
C962 C 0.07673 0.08009 0.22295 0.0
C963 C 0.08194 0.12243 0.24149 0.0
C964 C 0.1022 0.15405 0.21529 0.0
C965 C 0.11756 0.14289 0.17125 0.0
C966 C 0.1055 0.10213 0.15108 0.0
H967 H 0.10448 0.95615 0.77252 0.0
H968 H 0.19368 0.06558 0.79577 0.0
H969 H 0.13297 0.12021 0.77574 0.0
H970 H 1.02716 0.95802 0.71628 0.0
H971 H 1.01335 1.01228 0.69308 0.0
H972 H 0.97195 0.98398 0.72615 0.0
H973 H 1.03862 0.95385 0.80871 0.0
H974 H 0.9815 0.97604 0.80993 0.0
H975 H 1.02602 1.00483 0.83869 0.0
H976 H 0.06055 0.15678 0.79798 0.0
H977 H 0.99056 0.16962 0.8402 0.0
H978 H 0.94092 1.04319 0.79223 0.0
C979 C 0.11188 0.99152 0.76964 0.0
C980 C 0.15204 1.00736 0.78849 0.0
C981 C 0.16185 1.05322 0.78378 0.0
C982 C 0.12722 0.08449 0.77258 0.0
C983 C 0.08389 0.06856 0.76417 0.0
C984 C 0.07651 1.02269 0.76103 0.0
C985 C 1.0267 1.01323 0.76528 0.0
C986 C 1.00868 0.99051 0.72269 0.0
C987 C 1.01766 0.98529 0.80788 0.0
C988 C 1.00698 0.06037 0.77122 0.0
C989 C 1.04048 0.09207 0.77195 0.0
C990 C 1.03318 0.1336 0.79385 0.0
C991 C 0.99225 0.14153 0.81724 0.0
C992 C 0.95803 0.10922 0.81665 0.0
C993 C 0.96476 0.06999 0.79042 0.0
H994 H 0.72894 0.56948 0.46058 0.0
H995 H 0.72487 0.47919 0.57299 0.0
H996 H 0.78894 0.51838 0.60825 0.0
H997 H 0.85993 0.59158 0.47165 0.0
H998 H 0.84916 0.64873 0.45398 0.0
H999 H 0.8159 0.60361 0.43149 0.0
H1000 H 0.74317 0.64705 0.45494 0.0
H1001 H 0.77622 0.69121 0.47742 0.0
H1002 H 0.73534 0.66427 0.5125 0.0
H1003 H 0.84505 0.57198 0.63591 0.0
H1004 H 0.84183 0.64707 0.67116 0.0
H1005 H 0.80761 0.70635 0.54582 0.0
C1006 C 0.74185 0.55823 0.49268 0.0
C1007 C 0.72204 0.52209 0.51469 0.0
C1008 C 0.73931 0.50761 0.55633 0.0
C1009 C 0.77662 0.52871 0.57567 0.0
C1010 C 0.79641 0.56396 0.5527 0.0
C1011 C 0.7784 0.5795 0.51271 0.0
C1012 C 0.79814 0.62386 0.4999 0.0
C1013 C 0.83291 0.61651 0.46203 0.0
C1014 C 0.76096 0.6586 0.48562 0.0
C1015 C 0.82215 0.6355 0.54348 0.0
C1016 C 0.82657 0.59757 0.57053 0.0
C1017 C 0.84016 0.60146 0.61532 0.0
C1018 C 0.83897 0.6446 0.63506 0.0
C1019 C 0.81702 0.67959 0.61126 0.0
C1020 C 0.82185 0.6783 0.56425 0.0
H1021 H 0.63356 0.34275 0.55416 0.0
H1022 H 0.61099 0.30453 0.41732 0.0
H1023 H 0.55294 0.25257 0.44101 0.0
H1024 H 0.58233 0.21325 0.5912 0.0
H1025 H 0.55959 0.23646 0.6422 0.0
H1026 H 0.61768 0.24696 0.6264 0.0
H1027 H 0.60961 0.33278 0.62617 0.0
H1028 H 0.55456 0.32767 0.65003 0.0
H1029 H 0.56111 0.35959 0.59973 0.0
H1030 H 0.4752 0.27259 0.46907 0.0
H1031 H 0.41408 0.31825 0.50416 0.0
H1032 H 0.48286 0.31063 0.63144 0.0
C1033 C 0.62013 0.31952 0.52993 0.0
C1034 C 0.62341 0.33002 0.48429 0.0
C1035 C 0.60615 0.2995 0.45263 0.0
C1036 C 0.57314 0.26945 0.46599 0.0
C1037 C 0.56151 0.2683 0.51133 0.0
C1038 C 0.58902 0.28751 0.54361 0.0
C1039 C 0.56632 0.28605 0.58912 0.0
C1040 C 0.58255 0.24333 0.61377 0.0
C1041 C 0.57327 0.32905 0.61787 0.0
C1042 C 0.5177 0.28099 0.57457 0.0
C1043 C 0.51549 0.26893 0.5295 0.0
C1044 C 0.47633 0.27917 0.50474 0.0
C1045 C 0.44125 0.305 0.525 0.0
C1046 C 0.44262 0.31594 0.5711 0.0
C1047 C 0.47999 0.30064 0.59659 0.0
H1048 H 0.33784 0.53517 0.65983 0.0
H1049 H 0.22361 0.45862 0.61778 0.0
H1050 H 0.18495 0.52707 0.59173 0.0
H1051 H 0.25873 0.65808 0.66466 0.0
H1052 H 0.30716 0.68706 0.64396 0.0
H1053 H 0.31441 0.64607 0.68735 0.0
H1054 H 0.37252 0.60155 0.64361 0.0
H1055 H 0.37009 0.64188 0.60025 0.0
H1056 H 0.36176 0.58318 0.58658 0.0
H1057 H 0.18539 0.57938 0.53182 0.0
H1058 H 0.21777 0.61144 0.46396 0.0
H1059 H 0.32714 0.66528 0.54163 0.0
C1060 C 0.30274 0.53416 0.64936 0.0
C1061 C 0.28424 0.49191 0.63911 0.0
C1062 C 0.23864 0.49068 0.62534 0.0
C1063 C 0.21654 0.52983 0.60985 0.0
C1064 C 0.23982 0.57017 0.61055 0.0
C1065 C 0.28078 0.5737 0.63333 0.0
C1066 C 0.30368 0.61711 0.62042 0.0
C1067 C 0.29537 0.65418 0.65624 0.0
C1068 C 0.35501 0.6103 0.61191 0.0
C1069 C 0.27722 0.62887 0.57836 0.0
C1070 C 0.23823 0.60393 0.57534 0.0
C1071 C 0.21445 0.60059 0.53484 0.0
C1072 C 0.23305 0.61892 0.49609 0.0
C1073 C 0.27462 0.64098 0.49815 0.0
C1074 C 0.29445 0.64967 0.54018 0.0
H1075 H 0.4999 0.71174 0.48034 0.0
H1076 H 0.4393 0.60597 0.5571 0.0
H1077 H 0.47355 0.63665 0.62638 0.0
H1078 H 0.6065 0.7094 0.54109 0.0
H1079 H 0.61182 0.76929 0.53427 0.0
H1080 H 0.58158 0.73734 0.49321 0.0
H1081 H 0.51102 0.79359 0.50684 0.0
H1082 H 0.54629 0.82284 0.54631 0.0
H1083 H 0.49251 0.80312 0.5639 0.0
H1084 H 0.51529 0.67821 0.68663 0.0
H1085 H 0.57969 0.71088 0.72685 0.0
H1086 H 0.60943 0.79186 0.61211 0.0
C1087 C 0.4944 0.69464 0.51167 0.0
C1088 C 0.46665 0.65687 0.51373 0.0
C1089 C 0.46053 0.63499 0.55504 0.0
C1090 C 0.47937 0.65243 0.59451 0.0
C1091 C 0.50477 0.69114 0.59164 0.0
C1092 C 0.51343 0.71112 0.55105 0.0
C1093 C 0.54483 0.75004 0.55627 0.0
C1094 C 0.58881 0.74078 0.52963 0.0
C1095 C 0.52222 0.79498 0.54238 0.0
C1096 C 0.5528 0.74883 0.60626 0.0
C1097 C 0.52848 0.7153 0.62628 0.0
C1098 C 0.53457 0.70431 0.67119 0.0
C1099 C 0.57059 0.72382 0.69419 0.0
C1100 C 0.60073 0.75161 0.67106 0.0
C1101 C 0.58741 0.76966 0.62968 0.0
H1102 H 0.68228 0.53222 0.71779 0.0
H1103 H 0.61927 0.65467 0.772 0.0
H1104 H 0.54449 0.6235 0.76028 0.0
H1105 H 0.63054 0.51001 0.63932 0.0
H1106 H 0.6165 0.45138 0.64115 0.0
H1107 H 0.6641 0.47088 0.67237 0.0
H1108 H 0.63228 0.44212 0.74695 0.0
H1109 H 0.58576 0.41898 0.71594 0.0
H1110 H 0.57468 0.45649 0.76281 0.0
H1111 H 0.48606 0.59814 0.70857 0.0
H1112 H 0.43502 0.55882 0.65664 0.0
H1113 H 0.5327 0.44797 0.64469 0.0
C1114 C 0.65307 0.55065 0.73109 0.0
C1115 C 0.65613 0.59627 0.74364 0.0
C1116 C 0.61743 0.61992 0.76087 0.0
C1117 C 0.57459 0.60248 0.75449 0.0
C1118 C 0.57208 0.55998 0.73483 0.0
C1119 C 0.61016 0.53234 0.72752 0.0
C1120 C 0.59801 0.48997 0.70198 0.0
C1121 C 0.62913 0.48011 0.66129 0.0
C1122 C 0.59763 0.44952 0.73379 0.0
C1123 C 0.55048 0.50322 0.68781 0.0
C1124 C 0.53578 0.54317 0.70792 0.0
C1125 C 0.49581 0.56544 0.6949 0.0
C1126 C 0.468 0.54403 0.66394 0.0
C1127 C 0.48077 0.50137 0.64622 0.0
C1128 C 0.52296 0.48127 0.65724 0.0
H1129 H 0.45058 0.63986 0.31838 0.0
H1130 H 0.3888 0.51174 0.30615 0.0
H1131 H 0.45135 0.48217 0.26093 0.0
H1132 H 0.55631 0.60939 0.22997 0.0
H1133 H 0.59429 0.63187 0.27038 0.0
H1134 H 0.53938 0.65973 0.25954 0.0
H1135 H 0.51753 0.65459 0.34745 0.0
H1136 H 0.57163 0.62832 0.35827 0.0
H1137 H 0.52073 0.59986 0.37231 0.0
H1138 H 0.53049 0.45408 0.25159 0.0
H1139 H 0.59508 0.42784 0.29733 0.0
H1140 H 0.60385 0.55949 0.35735 0.0
C1141 C 0.44962 0.60673 0.30315 0.0
C1142 C 0.41474 0.57844 0.31476 0.0
C1143 C 0.41388 0.53488 0.29542 0.0
C1144 C 0.4505 0.51751 0.27029 0.0
C1145 C 0.48967 0.5426 0.26841 0.0
C1146 C 0.48929 0.58677 0.28509 0.0
C1147 C 0.53617 0.59905 0.30001 0.0
C1148 C 0.55789 0.62692 0.26309 0.0
C1149 C 0.53652 0.62183 0.34711 0.0
C1150 C 0.559 0.5533 0.30039 0.0
C1151 C 0.53511 0.52313 0.27478 0.0
C1152 C 0.549 0.47786 0.27175 0.0
C1153 C 0.58489 0.4628 0.29905 0.0
C1154 C 0.60225 0.49162 0.33244 0.0
C1155 C 0.59088 0.53752 0.33154 0.0
loop_
_geom_bond_atom_site_label_1
_geom_bond_atom_site_label_2
_geom_bond_distance
_geom_bond_site_symmetry_2
_ccdc_geom_bond_type
Mn0 O6 2.111 . S
Mn0 O11 2.150 . S
Mn0 O13 2.130 . S
Mn0 O21 2.281 . S
Mn0 O22 2.374 . S
Mn1 O2 2.126 . S
Mn1 O7 2.116 . S
Mn1 O12 2.129 . S
Mn1 O15 2.147 . S
Mn1 O19 2.267 . S
Mn1 O21 2.247 . S
O2 Mn1 2.126 . S
O2 C20 1.255 . S
O3 Mn4 2.113 . S
O3 C20 1.238 . S
Mn4 O3 2.113 . S
Mn4 O16 2.101 . S
Mn4 O18 2.372 . S
Mn4 O19 2.265 . S
C5 O6 1.258 . S
C5 O7 1.263 . S
O6 Mn0 2.111 . S
O6 C5 1.258 . S
O7 Mn1 2.116 . S
O7 C5 1.263 . S
P8 O13 1.496 . S
C9 O15 1.252 . S
C9 O16 1.259 . S
C10 O18 1.252 . S
C10 O19 1.273 . S
O11 Mn0 2.150 . S
O11 C17 1.271 . S
O12 Mn1 2.129 . S
O12 C17 1.250 . S
O13 Mn0 2.130 . S
O13 P8 1.496 . S
C14 O21 1.283 . S
C14 O22 1.263 . S
O15 Mn1 2.147 . S
O15 C9 1.252 . S
O16 Mn4 2.101 . S
O16 C9 1.259 . S
C17 O11 1.271 . S
C17 O12 1.250 . S
O18 Mn4 2.372 . S
O18 C10 1.252 . S
O19 Mn1 2.267 . S
O19 Mn4 2.265 . S
O19 C10 1.273 . S
C20 O2 1.255 . S
C20 O3 1.238 . S
O21 Mn0 2.281 . S
O21 Mn1 2.247 . S
O21 C14 1.283 . S
O22 Mn0 2.374 . S
O22 C14 1.263 . S
Mn23 O29 2.111 . S
Mn23 O34 2.150 . S
Mn23 O36 2.130 . S
Mn23 O44 2.281 . S
Mn23 O45 2.374 . S
Mn24 O25 2.126 . S
Mn24 O30 2.116 . S
Mn24 O35 2.129 . S
Mn24 O38 2.147 . S
Mn24 O42 2.267 . S
Mn24 O44 2.247 . S
O25 Mn24 2.126 . S
O25 C43 1.255 . S
O26 Mn27 2.113 . S
O26 C43 1.238 . S
Mn27 O26 2.113 . S
Mn27 O39 2.101 . S
Mn27 O41 2.372 . S
Mn27 O42 2.265 . S
C28 O29 1.258 . S
C28 O30 1.263 . S
O29 Mn23 2.111 . S
O29 C28 1.258 . S
O30 Mn24 2.116 . S
O30 C28 1.263 . S
P31 O36 1.496 . S
C32 O38 1.252 . S
C32 O39 1.259 . S
C33 O41 1.252 . S
C33 O42 1.273 . S
O34 Mn23 2.150 . S
O34 C40 1.271 . S
O35 Mn24 2.129 . S
O35 C40 1.250 . S
O36 Mn23 2.130 . S
O36 P31 1.496 . S
C37 O44 1.283 . S
C37 O45 1.263 . S
O38 Mn24 2.147 . S
O38 C32 1.252 . S
O39 Mn27 2.101 . S
O39 C32 1.259 . S
C40 O34 1.271 . S
C40 O35 1.250 . S
O41 Mn27 2.372 . S
O41 C33 1.252 . S
O42 Mn24 2.267 . S
O42 Mn27 2.265 . S
O42 C33 1.273 . S
C43 O25 1.255 . S
C43 O26 1.238 . S
O44 Mn23 2.281 . S
O44 Mn24 2.247 . S
O44 C37 1.283 . S
O45 Mn23 2.374 . S
O45 C37 1.263 . S
Mn46 O52 2.111 . S
Mn46 O57 2.150 . S
Mn46 O59 2.130 . S
Mn46 O67 2.281 . S
Mn46 O68 2.374 . S
Mn47 O48 2.126 . S
Mn47 O53 2.116 . S
Mn47 O58 2.129 . S
Mn47 O61 2.147 . S
Mn47 O65 2.267 . S
Mn47 O67 2.247 . S
O48 Mn47 2.126 . S
O48 C66 1.255 . S
O49 Mn50 2.113 . S
O49 C66 1.238 . S
Mn50 O49 2.113 . S
Mn50 O62 2.101 . S
Mn50 O64 2.372 . S
Mn50 O65 2.265 . S
C51 O52 1.258 . S
C51 O53 1.263 . S
O52 Mn46 2.111 . S
O52 C51 1.258 . S
O53 Mn47 2.116 . S
O53 C51 1.263 . S
P54 O59 1.496 . S
C55 O61 1.252 . S
C55 O62 1.259 . S
C56 O64 1.252 . S
C56 O65 1.273 . S
O57 Mn46 2.150 . S
O57 C63 1.271 . S
O58 Mn47 2.129 . S
O58 C63 1.250 . S
O59 Mn46 2.130 . S
O59 P54 1.496 . S
C60 O67 1.283 . S
C60 O68 1.263 . S
O61 Mn47 2.147 . S
O61 C55 1.252 . S
O62 Mn50 2.101 . S
O62 C55 1.259 . S
C63 O57 1.271 . S
C63 O58 1.250 . S
O64 Mn50 2.372 . S
O64 C56 1.252 . S
O65 Mn47 2.267 . S
O65 Mn50 2.265 . S
O65 C56 1.273 . S
C66 O48 1.255 . S
C66 O49 1.238 . S
O67 Mn46 2.281 . S
O67 Mn47 2.247 . S
O67 C60 1.283 . S
O68 Mn46 2.374 . S
O68 C60 1.263 . S
Mn69 O75 2.111 . S
Mn69 O80 2.150 . S
Mn69 O82 2.130 . S
Mn69 O90 2.281 . S
Mn69 O91 2.374 . S
Mn70 O71 2.126 . S
Mn70 O76 2.116 . S
Mn70 O81 2.129 . S
Mn70 O84 2.147 . S
Mn70 O88 2.267 . S
Mn70 O90 2.247 . S
O71 Mn70 2.126 . S
O71 C89 1.255 . S
O72 Mn73 2.113 . S
O72 C89 1.238 . S
Mn73 O72 2.113 . S
Mn73 O85 2.101 . S
Mn73 O87 2.372 . S
Mn73 O88 2.265 . S
C74 O75 1.258 . S
C74 O76 1.263 . S
O75 Mn69 2.111 . S
O75 C74 1.258 . S
O76 Mn70 2.116 . S
O76 C74 1.263 . S
P77 O82 1.496 . S
C78 O84 1.252 . S
C78 O85 1.259 . S
C79 O87 1.252 . S
C79 O88 1.273 . S
O80 Mn69 2.150 . S
O80 C86 1.271 . S
O81 Mn70 2.129 . S
O81 C86 1.250 . S
O82 Mn69 2.130 . S
O82 P77 1.496 . S
C83 O90 1.283 . S
C83 O91 1.263 . S
O84 Mn70 2.147 . S
O84 C78 1.252 . S
O85 Mn73 2.101 . S
O85 C78 1.259 . S
C86 O80 1.271 . S
C86 O81 1.250 . S
O87 Mn73 2.372 . S
O87 C79 1.252 . S
O88 Mn70 2.267 . S
O88 Mn73 2.265 . S
O88 C79 1.273 . S
C89 O71 1.255 . S
C89 O72 1.238 . S
O90 Mn69 2.281 . S
O90 Mn70 2.247 . S
O90 C83 1.283 . S
O91 Mn69 2.374 . S
O91 C83 1.263 . S
Mn92 O98 2.111 . S
Mn92 O103 2.150 . S
Mn92 O105 2.130 . S
Mn92 O113 2.281 . S
Mn92 O114 2.374 . S
Mn93 O94 2.126 . S
Mn93 O99 2.116 . S
Mn93 O104 2.129 . S
Mn93 O107 2.147 . S
Mn93 O111 2.267 . S
Mn93 O113 2.247 . S
O94 Mn93 2.126 . S
O94 C112 1.255 . S
O95 Mn96 2.113 . S
O95 C112 1.238 . S
Mn96 O95 2.113 . S
Mn96 O108 2.101 . S
Mn96 O110 2.372 . S
Mn96 O111 2.265 . S
C97 O98 1.258 . S
C97 O99 1.263 . S
O98 Mn92 2.111 . S
O98 C97 1.258 . S
O99 Mn93 2.116 . S
O99 C97 1.263 . S
P100 O105 1.496 . S
C101 O107 1.252 . S
C101 O108 1.259 . S
C102 O110 1.252 . S
C102 O111 1.273 . S
O103 Mn92 2.150 . S
O103 C109 1.271 . S
O104 Mn93 2.129 . S
O104 C109 1.250 . S
O105 Mn92 2.130 . S
O105 P100 1.496 . S
C106 O113 1.283 . S
C106 O114 1.263 . S
O107 Mn93 2.147 . S
O107 C101 1.252 . S
O108 Mn96 2.101 . S
O108 C101 1.259 . S
C109 O103 1.271 . S
C109 O104 1.250 . S
O110 Mn96 2.372 . S
O110 C102 1.252 . S
O111 Mn93 2.267 . S
O111 Mn96 2.265 . S
O111 C102 1.273 . S
C112 O94 1.255 . S
C112 O95 1.238 . S
O113 Mn92 2.281 . S
O113 Mn93 2.247 . S
O113 C106 1.283 . S
O114 Mn92 2.374 . S
O114 C106 1.263 . S
Mn115 O121 2.111 . S
Mn115 O126 2.150 . S
Mn115 O128 2.130 . S
Mn115 O136 2.281 . S
Mn115 O137 2.374 . S
Mn116 O117 2.126 . S
Mn116 O122 2.116 . S
Mn116 O127 2.129 . S
Mn116 O130 2.147 . S
Mn116 O134 2.267 . S
Mn116 O136 2.247 . S
O117 Mn116 2.126 . S
O117 C135 1.255 . S
O118 Mn119 2.113 . S
O118 C135 1.238 . S
Mn119 O118 2.113 . S
Mn119 O131 2.101 . S
Mn119 O133 2.372 . S
Mn119 O134 2.265 . S
C120 O121 1.258 . S
C120 O122 1.263 . S
O121 Mn115 2.111 . S
O121 C120 1.258 . S
O122 Mn116 2.116 . S
O122 C120 1.263 . S
P123 O128 1.496 . S
C124 O130 1.252 . S
C124 O131 1.259 . S
C125 O133 1.252 . S
C125 O134 1.273 . S
O126 Mn115 2.150 . S
O126 C132 1.271 . S
O127 Mn116 2.129 . S
O127 C132 1.250 . S
O128 Mn115 2.130 . S
O128 P123 1.496 . S
C129 O136 1.283 . S
C129 O137 1.263 . S
O130 Mn116 2.147 . S
O130 C124 1.252 . S
O131 Mn119 2.101 . S
O131 C124 1.259 . S
C132 O126 1.271 . S
C132 O127 1.250 . S
O133 Mn119 2.372 . S
O133 C125 1.252 . S
O134 Mn116 2.267 . S
O134 Mn119 2.265 . S
O134 C125 1.273 . S
C135 O117 1.255 . S
C135 O118 1.238 . S
O136 Mn115 2.281 . S
O136 Mn116 2.247 . S
O136 C129 1.283 . S
O137 Mn115 2.374 . S
O137 C129 1.263 . S
Mn138 O144 2.111 . S
Mn138 O149 2.150 . S
Mn138 O151 2.130 . S
Mn138 O159 2.281 . S
Mn138 O160 2.374 . S
Mn139 O140 2.126 . S
Mn139 O145 2.116 . S
Mn139 O150 2.129 . S
Mn139 O153 2.147 . S
Mn139 O157 2.267 . S
Mn139 O159 2.247 . S
O140 Mn139 2.126 . S
O140 C158 1.255 . S
O141 Mn142 2.113 . S
O141 C158 1.238 . S
Mn142 O141 2.113 . S
Mn142 O154 2.101 . S
Mn142 O156 2.372 . S
Mn142 O157 2.265 . S
C143 O144 1.258 . S
C143 O145 1.263 . S
O144 Mn138 2.111 . S
O144 C143 1.258 . S
O145 Mn139 2.116 . S
O145 C143 1.263 . S
P146 O151 1.496 . S
C147 O153 1.252 . S
C147 O154 1.259 . S
C148 O156 1.252 . S
C148 O157 1.273 . S
O149 Mn138 2.150 . S
O149 C155 1.271 . S
O150 Mn139 2.129 . S
O150 C155 1.250 . S
O151 Mn138 2.130 . S
O151 P146 1.496 . S
C152 O159 1.283 . S
C152 O160 1.263 . S
O153 Mn139 2.147 . S
O153 C147 1.252 . S
O154 Mn142 2.101 . S
O154 C147 1.259 . S
C155 O149 1.271 . S
C155 O150 1.250 . S
O156 Mn142 2.372 . S
O156 C148 1.252 . S
O157 Mn139 2.267 . S
O157 Mn142 2.265 . S
O157 C148 1.273 . S
C158 O140 1.255 . S
C158 O141 1.238 . S
O159 Mn138 2.281 . S
O159 Mn139 2.247 . S
O159 C152 1.283 . S
O160 Mn138 2.374 . S
O160 C152 1.263 . S
Mn161 O167 2.111 . S
Mn161 O172 2.150 . S
Mn161 O174 2.130 . S
Mn161 O182 2.281 . S
Mn161 O183 2.374 . S
Mn162 O163 2.126 . S
Mn162 O168 2.116 . S
Mn162 O173 2.129 . S
Mn162 O176 2.147 . S
Mn162 O180 2.267 . S
Mn162 O182 2.247 . S
O163 Mn162 2.126 . S
O163 C181 1.255 . S
O164 Mn165 2.113 . S
O164 C181 1.238 . S
Mn165 O164 2.113 . S
Mn165 O177 2.101 . S
Mn165 O179 2.372 . S
Mn165 O180 2.265 . S
C166 O167 1.258 . S
C166 O168 1.263 . S
O167 Mn161 2.111 . S
O167 C166 1.258 . S
O168 Mn162 2.116 . S
O168 C166 1.263 . S
P169 O174 1.496 . S
C170 O176 1.252 . S
C170 O177 1.259 . S
C171 O179 1.252 . S
C171 O180 1.273 . S
O172 Mn161 2.150 . S
O172 C178 1.271 . S
O173 Mn162 2.129 . S
O173 C178 1.250 . S
O174 Mn161 2.130 . S
O174 P169 1.496 . S
C175 O182 1.283 . S
C175 O183 1.263 . S
O176 Mn162 2.147 . S
O176 C170 1.252 . S
O177 Mn165 2.101 . S
O177 C170 1.259 . S
C178 O172 1.271 . S
C178 O173 1.250 . S
O179 Mn165 2.372 . S
O179 C171 1.252 . S
O180 Mn162 2.267 . S
O180 Mn165 2.265 . S
O180 C171 1.273 . S
C181 O163 1.255 . S
C181 O164 1.238 . S
O182 Mn161 2.281 . S
O182 Mn162 2.247 . S
O182 C175 1.283 . S
O183 Mn161 2.374 . S
O183 C175 1.263 . S
H184 C196 0.928 1_554 S
H185 C198 0.930 . S
H186 C199 0.930 . S
H187 C203 0.959 . S
H188 C203 0.959 . S
H189 C203 0.961 . S
H190 C204 0.960 . S
H191 C204 0.961 . S
H192 C204 0.959 . S
H193 C207 0.929 . S
H194 C208 0.931 . S
H195 C210 0.930 . S
C196 H184 0.928 1_556 S
C196 C197 1.396 1_556 S
C196 C201 1.403 . S
C197 C196 1.396 1_554 S
C197 C198 1.376 . S
C198 H185 0.930 . S
C198 C197 1.376 . S
C198 C199 1.388 1_554 S
C199 H186 0.930 . S
C199 C198 1.388 1_556 S
C199 C200 1.390 . S
C200 C199 1.390 . S
C200 C201 1.394 . S
C200 C206 1.465 . S
C201 C196 1.403 . S
C201 C200 1.394 . S
C201 C202 1.516 . S
C202 C201 1.516 . S
C202 C203 1.502 . S
C202 C204 1.561 . S
C202 C205 1.526 . S
C203 H187 0.959 . S
C203 H188 0.959 . S
C203 H189 0.961 . S
C203 C202 1.502 . S
C204 H190 0.960 . S
C204 H191 0.961 . S
C204 H192 0.959 . S
C204 C202 1.561 . S
C205 C202 1.526 . S
C205 C206 1.396 . S
C205 C210 1.390 . S
C206 C200 1.465 . S
C206 C205 1.396 . S
C206 C207 1.399 . S
C207 H193 0.929 . S
C207 C206 1.399 . S
C207 C208 1.385 . S
C208 H194 0.931 . S
C208 C207 1.385 . S
C208 C209 1.389 . S
C209 C208 1.389 . S
C209 C210 1.387 . S
C210 H195 0.930 . S
C210 C205 1.390 . S
C210 C209 1.387 . S
H211 C223 0.930 . S
H212 C225 0.930 . S
H213 C226 0.930 . S
H214 C230 0.959 . S
H215 C230 0.959 . S
H216 C230 0.961 . S
H217 C231 0.960 . S
H218 C231 0.961 . S
H219 C231 0.959 . S
H220 C234 0.929 . S
H221 C235 0.931 . S
H222 C237 0.930 . S
C223 H211 0.930 . S
C223 C224 1.399 . S
C223 C228 1.399 1_556 S
C224 C223 1.399 . S
C224 C225 1.376 . S
C225 H212 0.930 . S
C225 C224 1.376 . S
C225 C226 1.388 1_556 S
C226 H213 0.930 . S
C226 C225 1.388 1_554 S
C226 C227 1.390 . S
C227 C226 1.390 . S
C227 C228 1.394 . S
C227 C233 1.465 . S
C228 C223 1.399 1_554 S
C228 C227 1.394 . S
C228 C229 1.516 . S
C229 C228 1.516 . S
C229 C230 1.502 . S
C229 C231 1.561 . S
C229 C232 1.526 . S
C230 H214 0.959 . S
C230 H215 0.959 . S
C230 H216 0.961 . S
C230 C229 1.502 . S
C231 H217 0.960 . S
C231 H218 0.961 . S
C231 H219 0.959 . S
C231 C229 1.561 . S
C232 C229 1.526 . S
C232 C233 1.396 . S
C232 C237 1.390 . S
C233 C227 1.465 . S
C233 C232 1.396 . S
C233 C234 1.399 . S
C234 H220 0.929 . S
C234 C233 1.399 . S
C234 C235 1.385 . S
C235 H221 0.931 . S
C235 C234 1.385 . S
C235 C236 1.389 . S
C236 C235 1.389 . S
C236 C237 1.387 . S
C237 H222 0.930 . S
C237 C232 1.390 . S
C237 C236 1.387 . S
H238 C250 0.930 . S
H239 C252 0.930 . S
H240 C253 0.930 . S
H241 C257 0.959 . S
H242 C257 0.959 . S
H243 C257 0.961 . S
H244 C258 0.960 . S
H245 C258 0.961 . S
H246 C258 0.959 . S
H247 C261 0.929 . S
H248 C262 0.931 . S
H249 C264 0.930 1_554 S
C250 H238 0.930 . S
C250 C251 1.399 . S
C250 C255 1.399 . S
C251 C250 1.399 . S
C251 C252 1.376 . S
C252 H239 0.930 . S
C252 C251 1.376 . S
C252 C253 1.388 . S
C253 H240 0.930 . S
C253 C252 1.388 . S
C253 C254 1.390 . S
C254 C253 1.390 . S
C254 C255 1.394 . S
C254 C260 1.465 . S
C255 C250 1.399 . S
C255 C254 1.394 . S
C255 C256 1.516 . S
C256 C255 1.516 . S
C256 C257 1.502 . S
C256 C258 1.561 . S
C256 C259 1.526 . S
C257 H241 0.959 . S
C257 H242 0.959 . S
C257 H243 0.961 . S
C257 C256 1.502 . S
C258 H244 0.960 . S
C258 H245 0.961 . S
C258 H246 0.959 . S
C258 C256 1.561 . S
C259 C256 1.526 . S
C259 C260 1.396 . S
C259 C264 1.390 . S
C260 C254 1.465 . S
C260 C259 1.396 . S
C260 C261 1.399 . S
C261 H247 0.929 . S
C261 C260 1.399 . S
C261 C262 1.385 1_556 S
C262 H248 0.931 . S
C262 C261 1.385 1_554 S
C262 C263 1.389 . S
C263 C262 1.389 . S
C263 C264 1.387 1_554 S
C264 H249 0.930 1_556 S
C264 C259 1.390 . S
C264 C263 1.387 1_556 S
H265 C277 0.930 . S
H266 C279 0.930 . S
H267 C280 0.930 . S
H268 C284 0.959 . S
H269 C284 0.959 . S
H270 C284 0.961 . S
H271 C285 0.960 . S
H272 C285 0.961 . S
H273 C285 0.959 . S
H274 C288 0.929 . S
H275 C289 0.931 . S
H276 C291 0.930 . S
C277 H265 0.930 . S
C277 C278 1.399 . S
C277 C282 1.399 1_556 S
C278 C277 1.399 . S
C278 C279 1.376 . S
C279 H266 0.930 . S
C279 C278 1.376 . S
C279 C280 1.388 1_556 S
C280 H267 0.930 . S
C280 C279 1.388 1_554 S
C280 C281 1.390 . S
C281 C280 1.390 . S
C281 C282 1.394 . S
C281 C287 1.465 . S
C282 C277 1.399 1_554 S
C282 C281 1.394 . S
C282 C283 1.516 . S
C283 C282 1.516 . S
C283 C284 1.502 . S
C283 C285 1.561 . S
C283 C286 1.526 . S
C284 H268 0.959 . S
C284 H269 0.959 . S
C284 H270 0.961 . S
C284 C283 1.502 . S
C285 H271 0.960 . S
C285 H272 0.961 . S
C285 H273 0.959 . S
C285 C283 1.561 . S
C286 C283 1.526 . S
C286 C287 1.396 . S
C286 C291 1.390 . S
C287 C281 1.465 . S
C287 C286 1.396 . S
C287 C288 1.399 . S
C288 H274 0.929 . S
C288 C287 1.399 . S
C288 C289 1.385 . S
C289 H275 0.931 . S
C289 C288 1.385 . S
C289 C290 1.389 . S
C290 C289 1.389 . S
C290 C291 1.387 . S
C291 H276 0.930 . S
C291 C286 1.390 . S
C291 C290 1.387 . S
H292 C304 0.930 . S
H293 C306 0.930 . S
H294 C307 0.930 . S
H295 C311 0.959 . S
H296 C311 0.959 . S
H297 C311 0.961 . S
H298 C312 0.960 . S
H299 C312 0.961 . S
H300 C312 0.959 . S
H301 C315 0.929 1_655 S
H302 C316 0.931 . S
H303 C318 0.930 . S
C304 H292 0.930 . S
C304 C305 1.399 . S
C304 C309 1.399 . S
C305 C304 1.399 . S
C305 C306 1.376 . S
C306 H293 0.930 . S
C306 C305 1.376 . S
C306 C307 1.388 . S
C307 H294 0.930 . S
C307 C306 1.388 . S
C307 C308 1.390 . S
C308 C307 1.390 . S
C308 C309 1.394 . S
C308 C314 1.465 . S
C309 C304 1.399 . S
C309 C308 1.394 . S
C309 C310 1.516 . S
C310 C309 1.516 . S
C310 C311 1.502 . S
C310 C312 1.561 . S
C310 C313 1.526 . S
C311 H295 0.959 . S
C311 H296 0.959 . S
C311 H297 0.961 . S
C311 C310 1.502 . S
C312 H298 0.960 . S
C312 H299 0.961 . S
C312 H300 0.959 . S
C312 C310 1.561 . S
C313 C310 1.526 . S
C313 C314 1.396 . S
C313 C318 1.390 1_655 S
C314 C308 1.465 . S
C314 C313 1.396 . S
C314 C315 1.399 1_655 S
C315 H301 0.929 1_455 S
C315 C314 1.399 1_455 S
C315 C316 1.385 . S
C316 H302 0.931 . S
C316 C315 1.385 . S
C316 C317 1.389 . S
C317 C316 1.389 . S
C317 C318 1.387 . S
C318 H303 0.930 . S
C318 C313 1.390 1_455 S
C318 C317 1.387 . S
H319 C331 0.930 . S
H320 C333 0.930 . S
H321 C334 0.930 . S
H322 C338 0.959 . S
H323 C338 0.959 . S
H324 C338 0.961 . S
H325 C339 0.960 . S
H326 C339 0.961 . S
H327 C339 0.959 . S
H328 C342 0.929 . S
H329 C343 0.931 . S
H330 C345 0.930 . S
C331 H319 0.930 . S
C331 C332 1.399 . S
C331 C336 1.399 1_565 S
C332 C331 1.399 . S
C332 C333 1.376 . S
C333 H320 0.930 . S
C333 C332 1.376 . S
C333 C334 1.388 1_565 S
C334 H321 0.930 . S
C334 C333 1.388 1_545 S
C334 C335 1.390 . S
C335 C334 1.390 . S
C335 C336 1.394 . S
C335 C341 1.465 . S
C336 C331 1.399 1_545 S
C336 C335 1.394 . S
C336 C337 1.516 . S
C337 C336 1.516 . S
C337 C338 1.502 . S
C337 C339 1.561 . S
C337 C340 1.526 . S
C338 H322 0.959 . S
C338 H323 0.959 . S
C338 H324 0.961 . S
C338 C337 1.502 . S
C339 H325 0.960 . S
C339 H326 0.961 . S
C339 H327 0.959 . S
C339 C337 1.561 . S
C340 C337 1.526 . S
C340 C341 1.396 . S
C340 C345 1.390 . S
C341 C335 1.465 . S
C341 C340 1.396 . S
C341 C342 1.399 . S
C342 H328 0.929 . S
C342 C341 1.399 . S
C342 C343 1.385 . S
C343 H329 0.931 . S
C343 C342 1.385 . S
C343 C344 1.389 . S
C344 C343 1.389 . S
C344 C345 1.387 . S
C345 H330 0.930 . S
C345 C340 1.390 . S
C345 C344 1.387 . S
H346 C358 0.930 . S
H347 C360 0.930 . S
H348 C361 0.930 . S
H349 C365 0.959 . S
H350 C365 0.959 . S
H351 C365 0.961 . S
H352 C366 0.960 . S
H353 C366 0.961 . S
H354 C366 0.959 . S
H355 C369 0.929 . S
H356 C370 0.931 . S
H357 C372 0.930 . S
C358 H346 0.930 . S
C358 C359 1.399 . S
C358 C363 1.399 . S
C359 C358 1.399 . S
C359 C360 1.376 . S
C360 H347 0.930 . S
C360 C359 1.376 . S
C360 C361 1.388 . S
C361 H348 0.930 . S
C361 C360 1.388 . S
C361 C362 1.390 . S
C362 C361 1.390 . S
C362 C363 1.394 . S
C362 C368 1.465 . S
C363 C358 1.399 . S
C363 C362 1.394 . S
C363 C364 1.516 . S
C364 C363 1.516 . S
C364 C365 1.502 . S
C364 C366 1.561 . S
C364 C367 1.526 . S
C365 H349 0.959 . S
C365 H350 0.959 . S
C365 H351 0.961 . S
C365 C364 1.502 . S
C366 H352 0.960 . S
C366 H353 0.961 . S
C366 H354 0.959 . S
C366 C364 1.561 . S
C367 C364 1.526 . S
C367 C368 1.396 . S
C367 C372 1.390 1_455 S
C368 C362 1.465 . S
C368 C367 1.396 . S
C368 C369 1.399 . S
C369 H355 0.929 . S
C369 C368 1.399 . S
C369 C370 1.385 1_455 S
C370 H356 0.931 . S
C370 C369 1.385 1_655 S
C370 C371 1.389 . S
C371 C370 1.389 . S
C371 C372 1.387 . S
C372 H357 0.930 . S
C372 C367 1.390 1_655 S
C372 C371 1.387 . S
H373 C385 0.930 . S
H374 C387 0.930 . S
H375 C388 0.930 . S
H376 C392 0.959 . S
H377 C392 0.959 . S
H378 C392 0.961 . S
H379 C393 0.960 . S
H380 C393 0.961 . S
H381 C393 0.959 . S
H382 C396 0.929 . S
H383 C397 0.931 . S
H384 C399 0.930 . S
C385 H373 0.930 . S
C385 C386 1.399 . S
C385 C390 1.399 . S
C386 C385 1.399 . S
C386 C387 1.376 . S
C387 H374 0.930 . S
C387 C386 1.376 . S
C387 C388 1.388 . S
C388 H375 0.930 . S
C388 C387 1.388 . S
C388 C389 1.390 . S
C389 C388 1.390 . S
C389 C390 1.394 . S
C389 C395 1.465 . S
C390 C385 1.399 . S
C390 C389 1.394 . S
C390 C391 1.516 . S
C391 C390 1.516 . S
C391 C392 1.502 . S
C391 C393 1.561 . S
C391 C394 1.526 . S
C392 H376 0.959 . S
C392 H377 0.959 . S
C392 H378 0.961 . S
C392 C391 1.502 . S
C393 H379 0.960 . S
C393 H380 0.961 . S
C393 H381 0.959 . S
C393 C391 1.561 . S
C394 C391 1.526 . S
C394 C395 1.396 . S
C394 C399 1.388 1_565 S
C395 C389 1.465 . S
C395 C394 1.396 . S
C395 C396 1.399 . S
C396 H382 0.929 . S
C396 C395 1.399 . S
C396 C397 1.385 1_565 S
C397 H383 0.931 . S
C397 C396 1.385 1_545 S
C397 C398 1.389 . S
C398 C397 1.389 . S
C398 C399 1.388 . S
C399 H384 0.930 . S
C399 C394 1.388 1_545 S
C399 C398 1.388 . S
H400 C412 0.930 . S
H401 C414 0.930 . S
H402 C415 0.930 . S
H403 C419 0.959 . S
H404 C419 0.959 . S
H405 C419 0.961 . S
H406 C420 0.960 . S
H407 C420 0.961 . S
H408 C420 0.959 . S
H409 C423 0.929 . S
H410 C424 0.931 . S
H411 C426 0.930 . S
C412 H400 0.930 . S
C412 C413 1.399 . S
C412 C417 1.399 . S
C413 C412 1.399 . S
C413 C414 1.376 . S
C414 H401 0.930 . S
C414 C413 1.376 . S
C414 C415 1.388 . S
C415 H402 0.930 . S
C415 C414 1.388 . S
C415 C416 1.390 . S
C416 C415 1.390 . S
C416 C417 1.394 . S
C416 C422 1.465 . S
C417 C412 1.399 . S
C417 C416 1.394 . S
C417 C418 1.516 . S
C418 C417 1.516 . S
C418 C419 1.502 . S
C418 C420 1.561 . S
C418 C421 1.526 . S
C419 H403 0.959 . S
C419 H404 0.959 . S
C419 H405 0.961 . S
C419 C418 1.502 . S
C420 H406 0.960 . S
C420 H407 0.961 . S
C420 H408 0.959 . S
C420 C418 1.561 . S
C421 C418 1.526 . S
C421 C422 1.396 . S
C421 C426 1.390 1_655 S
C422 C416 1.465 . S
C422 C421 1.396 . S
C422 C423 1.399 . S
C423 H409 0.929 . S
C423 C422 1.399 . S
C423 C424 1.385 1_655 S
C424 H410 0.931 . S
C424 C423 1.385 1_455 S
C424 C425 1.389 . S
C425 C424 1.389 . S
C425 C426 1.387 . S
C426 H411 0.930 . S
C426 C421 1.390 1_455 S
C426 C425 1.387 . S
H427 C439 0.930 . S
H428 C441 0.930 . S
H429 C442 0.930 . S
H430 C446 0.959 . S
H431 C446 0.959 . S
H432 C446 0.961 . S
H433 C447 0.960 . S
H434 C447 0.961 . S
H435 C447 0.959 . S
H436 C450 0.929 . S
H437 C451 0.931 . S
H438 C453 0.930 . S
C439 H427 0.930 . S
C439 C440 1.399 . S
C439 C444 1.399 1_565 S
C440 C439 1.399 . S
C440 C441 1.376 . S
C441 H428 0.930 . S
C441 C440 1.376 . S
C441 C442 1.388 1_565 S
C442 H429 0.930 . S
C442 C441 1.388 1_545 S
C442 C443 1.390 . S
C443 C442 1.390 . S
C443 C444 1.394 . S
C443 C449 1.465 . S
C444 C439 1.399 1_545 S
C444 C443 1.394 . S
C444 C445 1.516 . S
C445 C444 1.516 . S
C445 C446 1.502 . S
C445 C447 1.561 . S
C445 C448 1.526 . S
C446 H430 0.959 . S
C446 H431 0.959 . S
C446 H432 0.961 . S
C446 C445 1.502 . S
C447 H433 0.960 . S
C447 H434 0.961 . S
C447 H435 0.959 . S
C447 C445 1.561 . S
C448 C445 1.526 . S
C448 C449 1.396 . S
C448 C453 1.390 . S
C449 C443 1.465 . S
C449 C448 1.396 . S
C449 C450 1.399 . S
C450 H436 0.929 . S
C450 C449 1.399 . S
C450 C451 1.385 . S
C451 H437 0.931 . S
C451 C450 1.385 . S
C451 C452 1.389 . S
C452 C451 1.389 . S
C452 C453 1.387 . S
C453 H438 0.930 . S
C453 C448 1.390 . S
C453 C452 1.387 . S
H454 C466 0.930 . S
H455 C468 0.930 . S
H456 C469 0.930 . S
H457 C473 0.959 . S
H458 C473 0.959 . S
H459 C473 0.961 . S
H460 C474 0.960 . S
H461 C474 0.961 . S
H462 C474 0.959 . S
H463 C477 0.929 . S
H464 C478 0.931 . S
H465 C480 0.930 . S
C466 H454 0.930 . S
C466 C467 1.399 . S
C466 C471 1.399 1_655 S
C467 C466 1.399 . S
C467 C468 1.376 . S
C468 H455 0.930 . S
C468 C467 1.376 . S
C468 C469 1.388 1_655 S
C469 H456 0.930 . S
C469 C468 1.388 1_455 S
C469 C470 1.390 . S
C470 C469 1.390 . S
C470 C471 1.394 . S
C470 C476 1.465 . S
C471 C466 1.399 1_455 S
C471 C470 1.394 . S
C471 C472 1.516 . S
C472 C471 1.516 . S
C472 C473 1.502 . S
C472 C474 1.561 . S
C472 C475 1.526 . S
C473 H457 0.959 . S
C473 H458 0.959 . S
C473 H459 0.961 . S
C473 C472 1.502 . S
C474 H460 0.960 . S
C474 H461 0.961 . S
C474 H462 0.959 . S
C474 C472 1.561 . S
C475 C472 1.526 . S
C475 C476 1.396 . S
C475 C480 1.390 . S
C476 C470 1.465 . S
C476 C475 1.396 . S
C476 C477 1.399 . S
C477 H463 0.929 . S
C477 C476 1.399 . S
C477 C478 1.385 . S
C478 H464 0.931 . S
C478 C477 1.385 . S
C478 C479 1.389 . S
C479 C478 1.389 . S
C479 C480 1.387 . S
C480 H465 0.930 . S
C480 C475 1.390 . S
C480 C479 1.387 . S
H481 C493 0.930 . S
H482 C495 0.930 . S
H483 C496 0.930 . S
H484 C500 0.959 . S
H485 C500 0.959 . S
H486 C500 0.961 . S
H487 C501 0.960 . S
H488 C501 0.961 . S
H489 C501 0.959 . S
H490 C504 0.929 . S
H491 C505 0.931 . S
H492 C507 0.934 . S
C493 H481 0.930 . S
C493 C494 1.399 . S
C493 C498 1.399 . S
C494 C493 1.399 . S
C494 C495 1.376 . S
C495 H482 0.930 . S
C495 C494 1.376 . S
C495 C496 1.388 . S
C496 H483 0.930 . S
C496 C495 1.388 . S
C496 C497 1.390 . S
C497 C496 1.390 . S
C497 C498 1.394 . S
C497 C503 1.465 . S
C498 C493 1.399 . S
C498 C497 1.394 . S
C498 C499 1.516 . S
C499 C498 1.516 . S
C499 C500 1.502 . S
C499 C501 1.561 . S
C499 C502 1.526 . S
C500 H484 0.959 . S
C500 H485 0.959 . S
C500 H486 0.961 . S
C500 C499 1.502 . S
C501 H487 0.960 . S
C501 H488 0.961 . S
C501 H489 0.959 . S
C501 C499 1.561 . S
C502 C499 1.526 . S
C502 C503 1.396 . S
C502 C507 1.368 1_565 S
C503 C497 1.465 . S
C503 C502 1.396 . S
C503 C504 1.399 . S
C504 H490 0.929 . S
C504 C503 1.399 . S
C504 C505 1.385 1_565 S
C505 H491 0.931 . S
C505 C504 1.385 1_545 S
C505 C506 1.389 . S
C506 C505 1.389 . S
C506 C507 1.404 . S
C507 H492 0.934 . S
C507 C502 1.368 1_545 S
C507 C506 1.404 . S
H508 C520 0.930 . S
H509 C522 0.930 . S
H510 C523 0.930 . S
H511 C527 0.959 . S
H512 C527 0.959 . S
H513 C527 0.961 . S
H514 C528 0.960 . S
H515 C528 0.961 . S
H516 C528 0.959 . S
H517 C531 0.929 . S
H518 C532 0.931 . S
H519 C534 0.930 . S
C520 H508 0.930 . S
C520 C521 1.399 . S
C520 C525 1.399 . S
C521 C520 1.399 . S
C521 C522 1.376 . S
C522 H509 0.930 . S
C522 C521 1.376 . S
C522 C523 1.388 . S
C523 H510 0.930 . S
C523 C522 1.388 . S
C523 C524 1.390 . S
C524 C523 1.390 . S
C524 C525 1.394 . S
C524 C530 1.465 . S
C525 C520 1.399 . S
C525 C524 1.394 . S
C525 C526 1.516 . S
C526 C525 1.516 . S
C526 C527 1.502 . S
C526 C528 1.561 . S
C526 C529 1.526 . S
C527 H511 0.959 . S
C527 H512 0.959 . S
C527 H513 0.961 . S
C527 C526 1.502 . S
C528 H514 0.960 . S
C528 H515 0.961 . S
C528 H516 0.959 . S
C528 C526 1.561 . S
C529 C526 1.526 . S
C529 C530 1.396 . S
C529 C534 1.390 . S
C530 C524 1.465 . S
C530 C529 1.396 . S
C530 C531 1.399 . S
C531 H517 0.929 . S
C531 C530 1.399 . S
C531 C532 1.385 . S
C532 H518 0.931 . S
C532 C531 1.385 . S
C532 C533 1.389 . S
C533 C532 1.389 . S
C533 C534 1.387 . S
C534 H519 0.930 . S
C534 C529 1.390 . S
C534 C533 1.387 . S
H535 C547 0.930 . S
H536 C549 0.930 . S
H537 C550 0.930 . S
H538 C554 0.959 . S
H539 C554 0.959 . S
H540 C554 0.961 . S
H541 C555 0.960 . S
H542 C555 0.961 . S
H543 C555 0.959 . S
H544 C558 0.929 . S
H545 C559 0.931 . S
H546 C561 0.930 . S
C547 H535 0.930 . S
C547 C548 1.399 . S
C547 C552 1.399 . S
C548 C547 1.399 . S
C548 C549 1.376 . S
C549 H536 0.930 . S
C549 C548 1.376 . S
C549 C550 1.388 . S
C550 H537 0.930 . S
C550 C549 1.388 . S
C550 C551 1.390 . S
C551 C550 1.390 . S
C551 C552 1.394 . S
C551 C557 1.465 . S
C552 C547 1.399 . S
C552 C551 1.394 . S
C552 C553 1.516 . S
C553 C552 1.516 . S
C553 C554 1.502 . S
C553 C555 1.561 . S
C553 C556 1.526 . S
C554 H538 0.959 . S
C554 H539 0.959 . S
C554 H540 0.961 . S
C554 C553 1.502 . S
C555 H541 0.960 . S
C555 H542 0.961 . S
C555 H543 0.959 . S
C555 C553 1.561 . S
C556 C553 1.526 . S
C556 C557 1.396 . S
C556 C561 1.390 . S
C557 C551 1.465 . S
C557 C556 1.396 . S
C557 C558 1.399 . S
C558 H544 0.929 . S
C558 C557 1.399 . S
C558 C559 1.385 . S
C559 H545 0.931 . S
C559 C558 1.385 . S
C559 C560 1.389 . S
C560 C559 1.389 . S
C560 C561 1.387 . S
C561 H546 0.930 . S
C561 C556 1.390 . S
C561 C560 1.387 . S
H562 C574 0.930 . S
H563 C576 0.930 . S
H564 C577 0.930 . S
H565 C581 0.959 . S
H566 C581 0.959 . S
H567 C581 0.961 . S
H568 C582 0.960 . S
H569 C582 0.961 . S
H570 C582 0.959 . S
H571 C585 0.929 . S
H572 C586 0.931 . S
H573 C588 0.930 . S
C574 H562 0.930 . S
C574 C575 1.399 . S
C574 C579 1.399 . S
C575 C574 1.399 . S
C575 C576 1.376 . S
C576 H563 0.930 . S
C576 C575 1.376 . S
C576 C577 1.388 . S
C577 H564 0.930 . S
C577 C576 1.388 . S
C577 C578 1.390 . S
C578 C577 1.390 . S
C578 C579 1.394 . S
C578 C584 1.465 . S
C579 C574 1.399 . S
C579 C578 1.394 . S
C579 C580 1.516 . S
C580 C579 1.516 . S
C580 C581 1.502 . S
C580 C582 1.561 . S
C580 C583 1.526 . S
C581 H565 0.959 . S
C581 H566 0.959 . S
C581 H567 0.961 . S
C581 C580 1.502 . S
C582 H568 0.960 . S
C582 H569 0.961 . S
C582 H570 0.959 . S
C582 C580 1.561 . S
C583 C580 1.526 . S
C583 C584 1.396 . S
C583 C588 1.390 . S
C584 C578 1.465 . S
C584 C583 1.396 . S
C584 C585 1.399 . S
C585 H571 0.929 . S
C585 C584 1.399 . S
C585 C586 1.385 . S
C586 H572 0.931 . S
C586 C585 1.385 . S
C586 C587 1.389 . S
C587 C586 1.389 . S
C587 C588 1.387 . S
C588 H573 0.930 . S
C588 C583 1.390 . S
C588 C587 1.387 . S
H589 C601 0.930 . S
H590 C603 0.930 . S
H591 C604 0.930 . S
H592 C608 0.959 . S
H593 C608 0.959 . S
H594 C608 0.961 . S
H595 C609 0.960 . S
H596 C609 0.961 . S
H597 C609 0.959 . S
H598 C612 0.929 . S
H599 C613 0.931 . S
H600 C615 0.930 . S
C601 H589 0.930 . S
C601 C602 1.399 . S
C601 C606 1.399 . S
C602 C601 1.399 . S
C602 C603 1.376 . S
C603 H590 0.930 . S
C603 C602 1.376 . S
C603 C604 1.388 . S
C604 H591 0.930 . S
C604 C603 1.388 . S
C604 C605 1.390 . S
C605 C604 1.390 . S
C605 C606 1.394 . S
C605 C611 1.465 . S
C606 C601 1.399 . S
C606 C605 1.394 . S
C606 C607 1.516 . S
C607 C606 1.516 . S
C607 C608 1.502 . S
C607 C609 1.561 . S
C607 C610 1.526 . S
C608 H592 0.959 . S
C608 H593 0.959 . S
C608 H594 0.961 . S
C608 C607 1.502 . S
C609 H595 0.960 . S
C609 H596 0.961 . S
C609 H597 0.959 . S
C609 C607 1.561 . S
C610 C607 1.526 . S
C610 C611 1.396 . S
C610 C615 1.390 . S
C611 C605 1.465 . S
C611 C610 1.396 . S
C611 C612 1.399 . S
C612 H598 0.929 . S
C612 C611 1.399 . S
C612 C613 1.385 . S
C613 H599 0.931 . S
C613 C612 1.385 . S
C613 C614 1.389 . S
C614 C613 1.389 . S
C614 C615 1.387 . S
C615 H600 0.930 . S
C615 C610 1.390 . S
C615 C614 1.387 . S
H616 C628 0.930 . S
H617 C630 0.930 . S
H618 C631 0.930 . S
H619 C635 0.959 . S
H620 C635 0.959 . S
H621 C635 0.961 . S
H622 C636 0.960 . S
H623 C636 0.961 . S
H624 C636 0.959 . S
H625 C639 0.929 . S
H626 C640 0.931 . S
H627 C642 0.930 . S
C628 H616 0.930 . S
C628 C629 1.399 . S
C628 C633 1.399 . S
C629 C628 1.399 . S
C629 C630 1.376 . S
C630 H617 0.930 . S
C630 C629 1.376 . S
C630 C631 1.388 . S
C631 H618 0.930 . S
C631 C630 1.388 . S
C631 C632 1.390 . S
C632 C631 1.390 . S
C632 C633 1.394 . S
C632 C638 1.465 . S
C633 C628 1.399 . S
C633 C632 1.394 . S
C633 C634 1.516 . S
C634 C633 1.516 . S
C634 C635 1.502 . S
C634 C636 1.561 . S
C634 C637 1.526 . S
C635 H619 0.959 . S
C635 H620 0.959 . S
C635 H621 0.961 . S
C635 C634 1.502 . S
C636 H622 0.960 . S
C636 H623 0.961 . S
C636 H624 0.959 . S
C636 C634 1.561 . S
C637 C634 1.526 . S
C637 C638 1.396 . S
C637 C642 1.390 . S
C638 C632 1.465 . S
C638 C637 1.396 . S
C638 C639 1.399 . S
C639 H625 0.929 . S
C639 C638 1.399 . S
C639 C640 1.385 . S
C640 H626 0.931 . S
C640 C639 1.385 . S
C640 C641 1.389 . S
C641 C640 1.389 . S
C641 C642 1.387 . S
C642 H627 0.930 . S
C642 C637 1.390 . S
C642 C641 1.387 . S
H643 C655 0.930 . S
H644 C657 0.930 . S
H645 C658 0.930 . S
H646 C662 0.959 . S
H647 C662 0.959 . S
H648 C662 0.961 . S
H649 C663 0.960 . S
H650 C663 0.961 . S
H651 C663 0.959 . S
H652 C666 0.929 . S
H653 C667 0.931 . S
H654 C669 0.930 . S
C655 H643 0.930 . S
C655 C656 1.399 . S
C655 C660 1.399 . S
C656 C655 1.399 . S
C656 C657 1.376 . S
C657 H644 0.930 . S
C657 C656 1.376 . S
C657 C658 1.388 . S
C658 H645 0.930 . S
C658 C657 1.388 . S
C658 C659 1.390 . S
C659 C658 1.390 . S
C659 C660 1.394 . S
C659 C665 1.465 . S
C660 C655 1.399 . S
C660 C659 1.394 . S
C660 C661 1.516 . S
C661 C660 1.516 . S
C661 C662 1.502 . S
C661 C663 1.561 . S
C661 C664 1.526 . S
C662 H646 0.959 . S
C662 H647 0.959 . S
C662 H648 0.961 . S
C662 C661 1.502 . S
C663 H649 0.960 . S
C663 H650 0.961 . S
C663 H651 0.959 . S
C663 C661 1.561 . S
C664 C661 1.526 . S
C664 C665 1.396 . S
C664 C669 1.390 . S
C665 C659 1.465 . S
C665 C664 1.396 . S
C665 C666 1.399 . S
C666 H652 0.929 . S
C666 C665 1.399 . S
C666 C667 1.385 . S
C667 H653 0.931 . S
C667 C666 1.385 . S
C667 C668 1.389 . S
C668 C667 1.389 . S
C668 C669 1.387 . S
C669 H654 0.930 . S
C669 C664 1.390 . S
C669 C668 1.387 . S
H670 C682 0.930 . S
H671 C684 0.930 . S
H672 C685 0.930 . S
H673 C689 0.959 . S
H674 C689 0.959 . S
H675 C689 0.961 . S
H676 C690 0.960 . S
H677 C690 0.961 . S
H678 C690 0.959 . S
H679 C693 0.929 . S
H680 C694 0.931 . S
H681 C696 0.930 . S
C682 H670 0.930 . S
C682 C683 1.399 . S
C682 C687 1.399 . S
C683 C682 1.399 . S
C683 C684 1.376 . S
C684 H671 0.930 . S
C684 C683 1.376 . S
C684 C685 1.388 . S
C685 H672 0.930 . S
C685 C684 1.388 . S
C685 C686 1.390 . S
C686 C685 1.390 . S
C686 C687 1.394 . S
C686 C692 1.465 . S
C687 C682 1.399 . S
C687 C686 1.394 . S
C687 C688 1.516 . S
C688 C687 1.516 . S
C688 C689 1.502 . S
C688 C690 1.561 . S
C688 C691 1.526 . S
C689 H673 0.959 . S
C689 H674 0.959 . S
C689 H675 0.961 . S
C689 C688 1.502 . S
C690 H676 0.960 . S
C690 H677 0.961 . S
C690 H678 0.959 . S
C690 C688 1.561 . S
C691 C688 1.526 . S
C691 C692 1.396 . S
C691 C696 1.390 . S
C692 C686 1.465 . S
C692 C691 1.396 . S
C692 C693 1.399 . S
C693 H679 0.929 . S
C693 C692 1.399 . S
C693 C694 1.385 . S
C694 H680 0.931 . S
C694 C693 1.385 . S
C694 C695 1.389 . S
C695 C694 1.389 . S
C695 C696 1.387 . S
C696 H681 0.930 . S
C696 C691 1.390 . S
C696 C695 1.387 . S
H697 C709 0.930 . S
H698 C711 0.930 . S
H699 C712 0.930 . S
H700 C716 0.959 . S
H701 C716 0.959 . S
H702 C716 0.961 . S
H703 C717 0.960 . S
H704 C717 0.961 . S
H705 C717 0.959 . S
H706 C720 0.929 . S
H707 C721 0.931 . S
H708 C723 0.930 . S
C709 H697 0.930 . S
C709 C710 1.399 . S
C709 C714 1.399 . S
C710 C709 1.399 . S
C710 C711 1.376 . S
C711 H698 0.930 . S
C711 C710 1.376 . S
C711 C712 1.388 . S
C712 H699 0.930 . S
C712 C711 1.388 . S
C712 C713 1.390 . S
C713 C712 1.390 . S
C713 C714 1.394 . S
C713 C719 1.465 . S
C714 C709 1.399 . S
C714 C713 1.394 . S
C714 C715 1.516 . S
C715 C714 1.516 . S
C715 C716 1.502 . S
C715 C717 1.561 . S
C715 C718 1.526 . S
C716 H700 0.959 . S
C716 H701 0.959 . S
C716 H702 0.961 . S
C716 C715 1.502 . S
C717 H703 0.960 . S
C717 H704 0.961 . S
C717 H705 0.959 . S
C717 C715 1.561 . S
C718 C715 1.526 . S
C718 C719 1.396 . S
C718 C723 1.390 . S
C719 C713 1.465 . S
C719 C718 1.396 . S
C719 C720 1.399 . S
C720 H706 0.929 . S
C720 C719 1.399 . S
C720 C721 1.385 . S
C721 H707 0.931 . S
C721 C720 1.385 . S
C721 C722 1.389 . S
C722 C721 1.389 . S
C722 C723 1.387 . S
C723 H708 0.930 . S
C723 C718 1.390 . S
C723 C722 1.387 . S
H724 C736 0.930 . S
H725 C738 0.930 . S
H726 C739 0.930 . S
H727 C743 0.959 . S
H728 C743 0.959 . S
H729 C743 0.961 . S
H730 C744 0.960 . S
H731 C744 0.961 . S
H732 C744 0.959 . S
H733 C747 0.929 . S
H734 C748 0.931 . S
H735 C750 0.930 . S
C736 H724 0.930 . S
C736 C737 1.399 . S
C736 C741 1.399 . S
C737 C736 1.399 . S
C737 C738 1.376 . S
C738 H725 0.930 . S
C738 C737 1.376 . S
C738 C739 1.388 . S
C739 H726 0.930 . S
C739 C738 1.388 . S
C739 C740 1.390 . S
C740 C739 1.390 . S
C740 C741 1.394 . S
C740 C746 1.465 . S
C741 C736 1.399 . S
C741 C740 1.394 . S
C741 C742 1.516 . S
C742 C741 1.516 . S
C742 C743 1.502 . S
C742 C744 1.561 . S
C742 C745 1.526 . S
C743 H727 0.959 . S
C743 H728 0.959 . S
C743 H729 0.961 . S
C743 C742 1.502 . S
C744 H730 0.960 . S
C744 H731 0.961 . S
C744 H732 0.959 . S
C744 C742 1.561 . S
C745 C742 1.526 . S
C745 C746 1.396 . S
C745 C750 1.390 . S
C746 C740 1.465 . S
C746 C745 1.396 . S
C746 C747 1.399 . S
C747 H733 0.929 . S
C747 C746 1.399 . S
C747 C748 1.385 . S
C748 H734 0.931 . S
C748 C747 1.385 . S
C748 C749 1.389 . S
C749 C748 1.389 . S
C749 C750 1.387 . S
C750 H735 0.930 . S
C750 C745 1.390 . S
C750 C749 1.387 . S
H751 C763 0.930 . S
H752 C765 0.930 . S
H753 C766 0.930 . S
H754 C770 0.959 . S
H755 C770 0.959 . S
H756 C770 0.961 . S
H757 C771 0.960 . S
H758 C771 0.961 . S
H759 C771 0.959 . S
H760 C774 0.929 . S
H761 C775 0.931 . S
H762 C777 0.930 . S
C763 H751 0.930 . S
C763 C764 1.399 . S
C763 C768 1.399 . S
C764 C763 1.399 . S
C764 C765 1.376 . S
C765 H752 0.930 . S
C765 C764 1.376 . S
C765 C766 1.388 . S
C766 H753 0.930 . S
C766 C765 1.388 . S
C766 C767 1.390 . S
C767 C766 1.390 . S
C767 C768 1.394 . S
C767 C773 1.465 . S
C768 C763 1.399 . S
C768 C767 1.394 . S
C768 C769 1.516 . S
C769 C768 1.516 . S
C769 C770 1.502 . S
C769 C771 1.561 . S
C769 C772 1.526 . S
C770 H754 0.959 . S
C770 H755 0.959 . S
C770 H756 0.961 . S
C770 C769 1.502 . S
C771 H757 0.960 . S
C771 H758 0.961 . S
C771 H759 0.959 . S
C771 C769 1.561 . S
C772 C769 1.526 . S
C772 C773 1.396 . S
C772 C777 1.390 . S
C773 C767 1.465 . S
C773 C772 1.396 . S
C773 C774 1.399 . S
C774 H760 0.929 . S
C774 C773 1.399 . S
C774 C775 1.385 . S
C775 H761 0.931 . S
C775 C774 1.385 . S
C775 C776 1.389 . S
C776 C775 1.389 . S
C776 C777 1.387 . S
C777 H762 0.930 . S
C777 C772 1.390 . S
C777 C776 1.387 . S
H778 C790 0.930 . S
H779 C792 0.930 . S
H780 C793 0.930 . S
H781 C797 0.959 . S
H782 C797 0.959 . S
H783 C797 0.961 . S
H784 C798 0.960 . S
H785 C798 0.961 . S
H786 C798 0.959 . S
H787 C801 0.929 . S
H788 C802 0.931 . S
H789 C804 0.930 . S
C790 H778 0.930 . S
C790 C791 1.399 . S
C790 C795 1.399 . S
C791 C790 1.399 . S
C791 C792 1.376 . S
C792 H779 0.930 . S
C792 C791 1.376 . S
C792 C793 1.388 . S
C793 H780 0.930 . S
C793 C792 1.388 . S
C793 C794 1.390 . S
C794 C793 1.390 . S
C794 C795 1.394 . S
C794 C800 1.465 . S
C795 C790 1.399 . S
C795 C794 1.394 . S
C795 C796 1.516 . S
C796 C795 1.516 . S
C796 C797 1.502 . S
C796 C798 1.561 . S
C796 C799 1.526 . S
C797 H781 0.959 . S
C797 H782 0.959 . S
C797 H783 0.961 . S
C797 C796 1.502 . S
C798 H784 0.960 . S
C798 H785 0.961 . S
C798 H786 0.959 . S
C798 C796 1.561 . S
C799 C796 1.526 . S
C799 C800 1.396 . S
C799 C804 1.390 . S
C800 C794 1.465 . S
C800 C799 1.396 . S
C800 C801 1.399 . S
C801 H787 0.929 . S
C801 C800 1.399 . S
C801 C802 1.385 . S
C802 H788 0.931 . S
C802 C801 1.385 . S
C802 C803 1.389 . S
C803 C802 1.389 . S
C803 C804 1.387 . S
C804 H789 0.930 . S
C804 C799 1.390 . S
C804 C803 1.387 . S
H805 C817 0.930 . S
H806 C819 0.930 . S
H807 C820 0.930 . S
H808 C824 0.959 . S
H809 C824 0.959 . S
H810 C824 0.961 . S
H811 C825 0.960 . S
H812 C825 0.961 . S
H813 C825 0.959 . S
H814 C828 0.929 . S
H815 C829 0.931 . S
H816 C831 0.930 . S
C817 H805 0.930 . S
C817 C818 1.399 . S
C817 C822 1.399 . S
C818 C817 1.399 . S
C818 C819 1.376 . S
C819 H806 0.930 . S
C819 C818 1.376 . S
C819 C820 1.388 . S
C820 H807 0.930 . S
C820 C819 1.388 . S
C820 C821 1.390 . S
C821 C820 1.390 . S
C821 C822 1.394 . S
C821 C827 1.465 . S
C822 C817 1.399 . S
C822 C821 1.394 . S
C822 C823 1.516 . S
C823 C822 1.516 . S
C823 C824 1.502 . S
C823 C825 1.561 . S
C823 C826 1.526 . S
C824 H808 0.959 . S
C824 H809 0.959 . S
C824 H810 0.961 . S
C824 C823 1.502 . S
C825 H811 0.960 . S
C825 H812 0.961 . S
C825 H813 0.959 . S
C825 C823 1.561 . S
C826 C823 1.526 . S
C826 C827 1.396 . S
C826 C831 1.390 . S
C827 C821 1.465 . S
C827 C826 1.396 . S
C827 C828 1.399 . S
C828 H814 0.929 . S
C828 C827 1.399 . S
C828 C829 1.385 . S
C829 H815 0.931 . S
C829 C828 1.385 . S
C829 C830 1.389 . S
C830 C829 1.389 . S
C830 C831 1.387 . S
C831 H816 0.930 . S
C831 C826 1.390 . S
C831 C830 1.387 . S
H832 C844 0.930 . S
H833 C846 0.930 . S
H834 C847 0.930 . S
H835 C851 0.959 . S
H836 C851 0.959 . S
H837 C851 0.961 . S
H838 C852 0.960 . S
H839 C852 0.961 . S
H840 C852 0.959 1_545 S
H841 C855 0.929 . S
H842 C856 0.931 . S
H843 C858 0.930 . S
C844 H832 0.930 . S
C844 C845 1.399 . S
C844 C849 1.399 . S
C845 C844 1.399 . S
C845 C846 1.376 . S
C846 H833 0.930 . S
C846 C845 1.376 . S
C846 C847 1.388 . S
C847 H834 0.930 . S
C847 C846 1.388 . S
C847 C848 1.390 . S
C848 C847 1.390 . S
C848 C849 1.394 . S
C848 C854 1.465 1_554 S
C849 C844 1.399 . S
C849 C848 1.394 . S
C849 C850 1.516 1_545 S
C850 C849 1.516 1_565 S
C850 C851 1.502 . S
C850 C852 1.561 . S
C850 C853 1.526 . S
C851 H835 0.959 . S
C851 H836 0.959 . S
C851 H837 0.961 . S
C851 C850 1.502 . S
C852 H838 0.960 . S
C852 H839 0.961 . S
C852 H840 0.959 1_565 S
C852 C850 1.561 . S
C853 C850 1.526 . S
C853 C854 1.396 1_564 S
C853 C858 1.390 1_554 S
C854 C848 1.465 1_556 S
C854 C853 1.396 1_546 S
C854 C855 1.399 . S
C855 H841 0.929 . S
C855 C854 1.399 . S
C855 C856 1.385 1_545 S
C856 H842 0.931 . S
C856 C855 1.385 1_565 S
C856 C857 1.389 . S
C857 C856 1.389 . S
C857 C858 1.387 . S
C858 H843 0.930 . S
C858 C853 1.390 1_556 S
C858 C857 1.387 . S
H859 C871 0.930 . S
H860 C873 0.930 . S
H861 C874 0.930 . S
H862 C878 0.959 . S
H863 C878 0.959 1_455 S
H864 C878 0.961 . S
H865 C879 0.960 . S
H866 C879 0.961 . S
H867 C879 0.959 . S
H868 C882 0.929 . S
H869 C883 0.931 . S
H870 C885 0.930 . S
C871 H859 0.930 . S
C871 C872 1.399 . S
C871 C876 1.399 . S
C872 C871 1.399 . S
C872 C873 1.376 . S
C873 H860 0.930 . S
C873 C872 1.376 . S
C873 C874 1.388 . S
C874 H861 0.930 . S
C874 C873 1.388 . S
C874 C875 1.390 . S
C875 C874 1.390 . S
C875 C876 1.394 . S
C875 C881 1.465 1_654 S
C876 C871 1.399 . S
C876 C875 1.394 . S
C876 C877 1.516 1_654 S
C877 C876 1.516 1_456 S
C877 C878 1.502 1_455 S
C877 C879 1.561 1_556 S
C877 C880 1.526 . S
C878 H862 0.959 . S
C878 H863 0.959 1_655 S
C878 H864 0.961 . S
C878 C877 1.502 1_655 S
C879 H865 0.960 . S
C879 H866 0.961 . S
C879 H867 0.959 . S
C879 C877 1.561 1_554 S
C880 C877 1.526 . S
C880 C881 1.396 . S
C880 C885 1.390 . S
C881 C875 1.465 1_456 S
C881 C880 1.396 . S
C881 C882 1.399 . S
C882 H868 0.929 . S
C882 C881 1.399 . S
C882 C883 1.385 . S
C883 H869 0.931 . S
C883 C882 1.385 . S
C883 C884 1.389 . S
C884 C883 1.389 . S
C884 C885 1.387 . S
C885 H870 0.930 . S
C885 C880 1.390 . S
C885 C884 1.387 . S
H886 C898 0.930 . S
H887 C900 0.930 . S
H888 C901 0.930 . S
H889 C905 0.959 1_554 S
H890 C905 0.959 . S
H891 C905 0.961 1_554 S
H892 C906 0.960 . S
H893 C906 0.961 . S
H894 C906 0.959 . S
H895 C909 0.929 1_554 S
H896 C910 0.931 . S
H897 C912 0.930 . S
C898 H886 0.930 . S
C898 C899 1.399 . S
C898 C903 1.399 . S
C899 C898 1.399 . S
C899 C900 1.376 . S
C900 H887 0.930 . S
C900 C899 1.376 . S
C900 C901 1.388 . S
C901 H888 0.930 . S
C901 C900 1.388 . S
C901 C902 1.390 . S
C902 C901 1.390 . S
C902 C903 1.394 . S
C902 C908 1.465 1_564 S
C903 C898 1.399 . S
C903 C902 1.394 . S
C903 C904 1.516 1_554 S
C904 C903 1.516 1_556 S
C904 C905 1.502 . S
C904 C906 1.561 . S
C904 C907 1.526 . S
C905 H889 0.959 1_556 S
C905 H890 0.959 . S
C905 H891 0.961 1_556 S
C905 C904 1.502 . S
C906 H892 0.960 . S
C906 H893 0.961 . S
C906 H894 0.959 . S
C906 C904 1.561 . S
C907 C904 1.526 . S
C907 C908 1.396 1_565 S
C907 C912 1.390 1_565 S
C908 C902 1.465 1_546 S
C908 C907 1.396 1_545 S
C908 C909 1.399 . S
C909 H895 0.929 1_556 S
C909 C908 1.399 . S
C909 C910 1.385 . S
C910 H896 0.931 . S
C910 C909 1.385 . S
C910 C911 1.389 . S
C911 C910 1.389 . S
C911 C912 1.387 . S
C912 H897 0.930 . S
C912 C907 1.390 1_545 S
C912 C911 1.387 . S
H913 C925 0.930 . S
H914 C927 0.930 . S
H915 C928 0.930 . S
H916 C932 0.959 . S
H917 C932 0.959 . S
H918 C932 0.961 . S
H919 C933 0.960 . S
H920 C933 0.961 . S
H921 C933 0.959 . S
H922 C936 0.943 . S
H923 C937 0.931 . S
H924 C939 0.930 . S
C925 H913 0.930 . S
C925 C926 1.399 . S
C925 C930 1.399 . S
C926 C925 1.399 . S
C926 C927 1.376 . S
C927 H914 0.930 . S
C927 C926 1.376 . S
C927 C928 1.388 1_554 S
C928 H915 0.930 . S
C928 C927 1.388 1_556 S
C928 C929 1.389 . S
C929 C928 1.389 . S
C929 C930 1.396 1_556 S
C929 C935 1.464 . S
C930 C925 1.399 . S
C930 C929 1.396 1_554 S
C930 C931 1.516 1_455 S
C931 C930 1.516 1_655 S
C931 C932 1.502 . S
C931 C933 1.561 . S
C931 C934 1.526 1_554 S
C932 H916 0.959 . S
C932 H917 0.959 . S
C932 H918 0.961 . S
C932 C931 1.502 . S
C933 H919 0.960 . S
C933 H920 0.961 . S
C933 H921 0.959 . S
C933 C931 1.561 . S
C934 C931 1.526 1_556 S
C934 C935 1.396 1_655 S
C934 C939 1.390 . S
C935 C929 1.464 . S
C935 C934 1.396 1_455 S
C935 C936 1.400 . S
C936 H922 0.943 . S
C936 C935 1.400 . S
C936 C937 1.370 1_455 S
C937 H923 0.931 . S
C937 C936 1.370 1_655 S
C937 C938 1.389 . S
C938 C937 1.389 . S
C938 C939 1.387 . S
C939 H924 0.930 . S
C939 C934 1.390 . S
C939 C938 1.387 . S
H940 C952 0.930 . S
H941 C954 0.930 . S
H942 C955 0.930 1_545 S
H943 C959 0.959 . S
H944 C959 0.959 . S
H945 C959 0.961 . S
H946 C960 0.960 . S
H947 C960 0.961 . S
H948 C960 0.959 1_545 S
H949 C963 0.938 . S
H950 C964 0.931 . S
H951 C966 0.930 . S
C952 H940 0.930 . S
C952 C953 1.399 . S
C952 C957 1.399 . S
C953 C952 1.399 . S
C953 C954 1.376 . S
C954 H941 0.930 . S
C954 C953 1.376 . S
C954 C955 1.388 . S
C955 H942 0.930 1_565 S
C955 C954 1.388 . S
C955 C956 1.390 . S
C956 C955 1.390 . S
C956 C957 1.394 . S
C956 C962 1.465 1_665 S
C957 C952 1.399 . S
C957 C956 1.394 . S
C957 C958 1.516 1_655 S
C958 C957 1.516 1_455 S
C958 C959 1.502 . S
C958 C960 1.561 . S
C958 C961 1.526 1_565 S
C959 H943 0.959 . S
C959 H944 0.959 . S
C959 H945 0.961 . S
C959 C958 1.502 . S
C960 H946 0.960 . S
C960 H947 0.961 . S
C960 H948 0.959 1_565 S
C960 C958 1.561 . S
C961 C958 1.526 1_545 S
C961 C962 1.396 . S
C961 C966 1.390 . S
C962 C956 1.465 1_445 S
C962 C961 1.396 . S
C962 C963 1.398 1_455 S
C963 H949 0.938 . S
C963 C962 1.398 1_655 S
C963 C964 1.377 1_655 S
C964 H950 0.931 . S
C964 C963 1.377 1_455 S
C964 C965 1.389 . S
C965 C964 1.389 . S
C965 C966 1.387 . S
C966 H951 0.930 . S
C966 C961 1.390 . S
C966 C965 1.387 . S
H967 C979 0.930 . S
H968 C981 0.930 . S
H969 C982 0.930 1_545 S
H970 C986 0.959 . S
H971 C986 0.959 . S
H972 C986 0.961 . S
H973 C987 0.960 1_565 S
H974 C987 0.961 . S
H975 C987 0.959 1_455 S
H976 C990 0.929 1_455 S
H977 C991 0.931 . S
H978 C993 0.930 . S
C979 H967 0.930 . S
C979 C980 1.399 . S
C979 C984 1.399 . S
C980 C979 1.399 . S
C980 C981 1.376 . S
C981 H968 0.930 . S
C981 C980 1.376 . S
C981 C982 1.388 . S
C982 H969 0.930 1_565 S
C982 C981 1.388 . S
C982 C983 1.390 1_565 S
C983 C982 1.390 1_545 S
C983 C984 1.394 1_545 S
C983 C989 1.465 1_455 S
C984 C979 1.399 . S
C984 C983 1.394 1_565 S
C984 C985 1.524 1_455 S
C985 C984 1.524 1_655 S
C985 C986 1.512 . S
C985 C987 1.557 1_565 S
C985 C988 1.512 1_565 S
C986 H970 0.959 . S
C986 H971 0.959 . S
C986 H972 0.961 . S
C986 C985 1.512 . S
C987 H973 0.960 1_545 S
C987 H974 0.961 . S
C987 H975 0.959 1_655 S
C987 C985 1.557 1_545 S
C988 C985 1.512 1_545 S
C988 C989 1.396 . S
C988 C993 1.390 . S
C989 C983 1.465 1_655 S
C989 C988 1.396 . S
C989 C990 1.399 . S
C990 H976 0.929 1_655 S
C990 C989 1.399 . S
C990 C991 1.385 . S
C991 H977 0.931 . S
C991 C990 1.385 . S
C991 C992 1.389 . S
C992 C991 1.389 . S
C992 C993 1.387 . S
C993 H978 0.930 . S
C993 C988 1.390 . S
C993 C992 1.387 . S
H994 C1006 0.930 . S
H995 C1008 0.930 . S
H996 C1009 0.930 . S
H997 C1013 0.959 . S
H998 C1013 0.959 . S
H999 C1013 0.961 . S
H1000 C1014 0.960 . S
H1001 C1014 0.961 . S
H1002 C1014 0.959 . S
H1003 C1017 0.929 . S
H1004 C1018 0.931 . S
H1005 C1020 0.930 . S
C1006 H994 0.930 . S
C1006 C1007 1.399 . S
C1006 C1011 1.399 . S
C1007 C1006 1.399 . S
C1007 C1008 1.376 . S
C1008 H995 0.930 . S
C1008 C1007 1.376 . S
C1008 C1009 1.388 . S
C1009 H996 0.930 . S
C1009 C1008 1.388 . S
C1009 C1010 1.390 . S
C1010 C1009 1.390 . S
C1010 C1011 1.394 . S
C1010 C1016 1.465 . S
C1011 C1006 1.399 . S
C1011 C1010 1.394 . S
C1011 C1012 1.516 . S
C1012 C1011 1.516 . S
C1012 C1013 1.502 . S
C1012 C1014 1.561 . S
C1012 C1015 1.526 . S
C1013 H997 0.959 . S
C1013 H998 0.959 . S
C1013 H999 0.961 . S
C1013 C1012 1.502 . S
C1014 H1000 0.960 . S
C1014 H1001 0.961 . S
C1014 H1002 0.959 . S
C1014 C1012 1.561 . S
C1015 C1012 1.526 . S
C1015 C1016 1.396 . S
C1015 C1020 1.390 . S
C1016 C1010 1.465 . S
C1016 C1015 1.396 . S
C1016 C1017 1.399 . S
C1017 H1003 0.929 . S
C1017 C1016 1.399 . S
C1017 C1018 1.385 . S
C1018 H1004 0.931 . S
C1018 C1017 1.385 . S
C1018 C1019 1.389 . S
C1019 C1018 1.389 . S
C1019 C1020 1.387 . S
C1020 H1005 0.930 . S
C1020 C1015 1.390 . S
C1020 C1019 1.387 . S
H1021 C1033 0.930 . S
H1022 C1035 0.930 . S
H1023 C1036 0.930 . S
H1024 C1040 0.959 . S
H1025 C1040 0.959 . S
H1026 C1040 0.961 . S
H1027 C1041 0.960 . S
H1028 C1041 0.961 . S
H1029 C1041 0.959 . S
H1030 C1044 0.929 . S
H1031 C1045 0.931 . S
H1032 C1047 0.930 . S
C1033 H1021 0.930 . S
C1033 C1034 1.399 . S
C1033 C1038 1.399 . S
C1034 C1033 1.399 . S
C1034 C1035 1.376 . S
C1035 H1022 0.930 . S
C1035 C1034 1.376 . S
C1035 C1036 1.388 . S
C1036 H1023 0.930 . S
C1036 C1035 1.388 . S
C1036 C1037 1.390 . S
C1037 C1036 1.390 . S
C1037 C1038 1.394 . S
C1037 C1043 1.465 . S
C1038 C1033 1.399 . S
C1038 C1037 1.394 . S
C1038 C1039 1.516 . S
C1039 C1038 1.516 . S
C1039 C1040 1.502 . S
C1039 C1041 1.561 . S
C1039 C1042 1.526 . S
C1040 H1024 0.959 . S
C1040 H1025 0.959 . S
C1040 H1026 0.961 . S
C1040 C1039 1.502 . S
C1041 H1027 0.960 . S
C1041 H1028 0.961 . S
C1041 H1029 0.959 . S
C1041 C1039 1.561 . S
C1042 C1039 1.526 . S
C1042 C1043 1.396 . S
C1042 C1047 1.390 . S
C1043 C1037 1.465 . S
C1043 C1042 1.396 . S
C1043 C1044 1.399 . S
C1044 H1030 0.929 . S
C1044 C1043 1.399 . S
C1044 C1045 1.385 . S
C1045 H1031 0.931 . S
C1045 C1044 1.385 . S
C1045 C1046 1.389 . S
C1046 C1045 1.389 . S
C1046 C1047 1.387 . S
C1047 H1032 0.930 . S
C1047 C1042 1.390 . S
C1047 C1046 1.387 . S
H1048 C1060 0.930 . S
H1049 C1062 0.930 . S
H1050 C1063 0.930 . S
H1051 C1067 0.959 . S
H1052 C1067 0.959 . S
H1053 C1067 0.961 . S
H1054 C1068 0.960 . S
H1055 C1068 0.961 . S
H1056 C1068 0.959 . S
H1057 C1071 0.929 . S
H1058 C1072 0.931 . S
H1059 C1074 0.930 . S
C1060 H1048 0.930 . S
C1060 C1061 1.399 . S
C1060 C1065 1.399 . S
C1061 C1060 1.399 . S
C1061 C1062 1.376 . S
C1062 H1049 0.930 . S
C1062 C1061 1.376 . S
C1062 C1063 1.388 . S
C1063 H1050 0.930 . S
C1063 C1062 1.388 . S
C1063 C1064 1.390 . S
C1064 C1063 1.390 . S
C1064 C1065 1.394 . S
C1064 C1070 1.465 . S
C1065 C1060 1.399 . S
C1065 C1064 1.394 . S
C1065 C1066 1.516 . S
C1066 C1065 1.516 . S
C1066 C1067 1.502 . S
C1066 C1068 1.561 . S
C1066 C1069 1.526 . S
C1067 H1051 0.959 . S
C1067 H1052 0.959 . S
C1067 H1053 0.961 . S
C1067 C1066 1.502 . S
C1068 H1054 0.960 . S
C1068 H1055 0.961 . S
C1068 H1056 0.959 . S
C1068 C1066 1.561 . S
C1069 C1066 1.526 . S
C1069 C1070 1.396 . S
C1069 C1074 1.390 . S
C1070 C1064 1.465 . S
C1070 C1069 1.396 . S
C1070 C1071 1.399 . S
C1071 H1057 0.929 . S
C1071 C1070 1.399 . S
C1071 C1072 1.385 . S
C1072 H1058 0.931 . S
C1072 C1071 1.385 . S
C1072 C1073 1.389 . S
C1073 C1072 1.389 . S
C1073 C1074 1.387 . S
C1074 H1059 0.930 . S
C1074 C1069 1.390 . S
C1074 C1073 1.387 . S
H1075 C1087 0.930 . S
H1076 C1089 0.930 . S
H1077 C1090 0.930 . S
H1078 C1094 0.959 . S
H1079 C1094 0.959 . S
H1080 C1094 0.961 . S
H1081 C1095 0.960 . S
H1082 C1095 0.961 . S
H1083 C1095 0.959 . S
H1084 C1098 0.929 . S
H1085 C1099 0.931 . S
H1086 C1101 0.930 . S
C1087 H1075 0.930 . S
C1087 C1088 1.399 . S
C1087 C1092 1.399 . S
C1088 C1087 1.399 . S
C1088 C1089 1.376 . S
C1089 H1076 0.930 . S
C1089 C1088 1.376 . S
C1089 C1090 1.388 . S
C1090 H1077 0.930 . S
C1090 C1089 1.388 . S
C1090 C1091 1.390 . S
C1091 C1090 1.390 . S
C1091 C1092 1.394 . S
C1091 C1097 1.465 . S
C1092 C1087 1.399 . S
C1092 C1091 1.394 . S
C1092 C1093 1.516 . S
C1093 C1092 1.516 . S
C1093 C1094 1.502 . S
C1093 C1095 1.561 . S
C1093 C1096 1.526 . S
C1094 H1078 0.959 . S
C1094 H1079 0.959 . S
C1094 H1080 0.961 . S
C1094 C1093 1.502 . S
C1095 H1081 0.960 . S
C1095 H1082 0.961 . S
C1095 H1083 0.959 . S
C1095 C1093 1.561 . S
C1096 C1093 1.526 . S
C1096 C1097 1.396 . S
C1096 C1101 1.390 . S
C1097 C1091 1.465 . S
C1097 C1096 1.396 . S
C1097 C1098 1.399 . S
C1098 H1084 0.929 . S
C1098 C1097 1.399 . S
C1098 C1099 1.385 . S
C1099 H1085 0.931 . S
C1099 C1098 1.385 . S
C1099 C1100 1.389 . S
C1100 C1099 1.389 . S
C1100 C1101 1.387 . S
C1101 H1086 0.930 . S
C1101 C1096 1.390 . S
C1101 C1100 1.387 . S
H1102 C1114 0.930 . S
H1103 C1116 0.930 . S
H1104 C1117 0.930 . S
H1105 C1121 0.959 . S
H1106 C1121 0.959 . S
H1107 C1121 0.961 . S
H1108 C1122 0.960 . S
H1109 C1122 0.961 . S
H1110 C1122 0.959 . S
H1111 C1125 0.929 . S
H1112 C1126 0.931 . S
H1113 C1128 0.930 . S
C1114 H1102 0.930 . S
C1114 C1115 1.399 . S
C1114 C1119 1.399 . S
C1115 C1114 1.399 . S
C1115 C1116 1.376 . S
C1116 H1103 0.930 . S
C1116 C1115 1.376 . S
C1116 C1117 1.388 . S
C1117 H1104 0.930 . S
C1117 C1116 1.388 . S
C1117 C1118 1.390 . S
C1118 C1117 1.390 . S
C1118 C1119 1.394 . S
C1118 C1124 1.465 . S
C1119 C1114 1.399 . S
C1119 C1118 1.394 . S
C1119 C1120 1.516 . S
C1120 C1119 1.516 . S
C1120 C1121 1.502 . S
C1120 C1122 1.561 . S
C1120 C1123 1.526 . S
C1121 H1105 0.959 . S
C1121 H1106 0.959 . S
C1121 H1107 0.961 . S
C1121 C1120 1.502 . S
C1122 H1108 0.960 . S
C1122 H1109 0.961 . S
C1122 H1110 0.959 . S
C1122 C1120 1.561 . S
C1123 C1120 1.526 . S
C1123 C1124 1.396 . S
C1123 C1128 1.390 . S
C1124 C1118 1.465 . S
C1124 C1123 1.396 . S
C1124 C1125 1.399 . S
C1125 H1111 0.929 . S
C1125 C1124 1.399 . S
C1125 C1126 1.385 . S
C1126 H1112 0.931 . S
C1126 C1125 1.385 . S
C1126 C1127 1.389 . S
C1127 C1126 1.389 . S
C1127 C1128 1.387 . S
C1128 H1113 0.930 . S
C1128 C1123 1.390 . S
C1128 C1127 1.387 . S
H1129 C1141 0.930 . S
H1130 C1143 0.930 . S
H1131 C1144 0.930 . S
H1132 C1148 0.959 . S
H1133 C1148 0.959 . S
H1134 C1148 0.961 . S
H1135 C1149 0.960 . S
H1136 C1149 0.961 . S
H1137 C1149 0.959 . S
H1138 C1152 0.929 . S
H1139 C1153 0.931 . S
H1140 C1155 0.930 . S
C1141 H1129 0.930 . S
C1141 C1142 1.399 . S
C1141 C1146 1.399 . S
C1142 C1141 1.399 . S
C1142 C1143 1.376 . S
C1143 H1130 0.930 . S
C1143 C1142 1.376 . S
C1143 C1144 1.388 . S
C1144 H1131 0.930 . S
C1144 C1143 1.388 . S
C1144 C1145 1.390 . S
C1145 C1144 1.390 . S
C1145 C1146 1.394 . S
C1145 C1151 1.465 . S
C1146 C1141 1.399 . S
C1146 C1145 1.394 . S
C1146 C1147 1.516 . S
C1147 C1146 1.516 . S
C1147 C1148 1.502 . S
C1147 C1149 1.561 . S
C1147 C1150 1.526 . S
C1148 H1132 0.959 . S
C1148 H1133 0.959 . S
C1148 H1134 0.961 . S
C1148 C1147 1.502 . S
C1149 H1135 0.960 . S
C1149 H1136 0.961 . S
C1149 H1137 0.959 . S
C1149 C1147 1.561 . S
C1150 C1147 1.526 . S
C1150 C1151 1.396 . S
C1150 C1155 1.390 . S
C1151 C1145 1.465 . S
C1151 C1150 1.396 . S
C1151 C1152 1.399 . S
C1152 H1138 0.929 . S
C1152 C1151 1.399 . S
C1152 C1153 1.385 . S
C1153 H1139 0.931 . S
C1153 C1152 1.385 . S
C1153 C1154 1.389 . S
C1154 C1153 1.389 . S
C1154 C1155 1.387 . S
C1155 H1140 0.930 . S
C1155 C1150 1.390 . S
C1155 C1154 1.387 . S
C197 C14 2.756 . S
C209 P146 2.612 . S
C224 C28 2.596 . S
C236 P169 2.628 . S
C251 P100 2.079 . S
C263 C60 2.164 . S
C278 C86 2.560 . S
C290 P123 2.628 . S
C305 P123 2.621 . S
C317 C17 2.688 . S
C332 C40 2.369 . S
C344 P146 2.411 . S
C359 P169 2.502 . S
C371 C63 2.487 . S
C386 P100 2.239 . S
C398 C83 2.249 . S
C413 P100 2.220 . S
C425 C37 2.195 . S
C440 C51 2.866 . S
C452 P123 2.883 . S
C467 C74 2.404 . S
C479 P146 2.438 . S
C494 P169 2.633 . S
C506 C5 2.776 . S
C521 P54 2.583 . S
C533 C106 2.773 . S
C548 P77 2.626 . S
C560 C120 2.604 . S
C575 P8 2.000 . S
C587 C152 2.182 . S
C602 C178 2.573 . S
C614 P31 2.611 . S
C629 P31 2.611 . S
C641 C109 2.679 . S
C656 P54 2.400 . S
C668 C132 2.341 . S
C683 P77 2.508 . S
C695 C155 2.472 . S
C710 C175 2.257 . S
C722 P8 2.262 . S
C737 P8 2.218 . S
C749 C129 2.187 . S
C764 C143 2.839 . S
C776 P31 2.879 . S
C791 P54 2.447 . S
C803 C166 2.418 . S
C818 P77 2.628 . S
C830 C97 2.774 . S
C845 C10 1.066 . S
C857 C32 0.493 . S
C872 C66 0.786 . S
C884 C33 0.977 . S
C899 C56 0.998 . S
C911 C89 0.775 . S
C926 C20 0.940 . S
C938 C78 0.297 . S
C953 C55 0.545 . S
C965 C9 0.719 . S
C980 C43 0.721 . S
C992 C79 0.953 . S
C1007 C124 0.334 . S
C1019 C102 1.132 . S
C1034 C125 0.805 . S
C1046 C158 0.737 . S
C1061 C148 0.894 . S
C1073 C181 0.770 . S
C1088 C170 0.292 . S
C1100 C112 0.777 . S
C1115 C101 0.609 . S
C1127 C147 0.444 . S
C1142 C171 0.723 . S
C1154 C135 0.605 . S
