# Generated by pormake.
# Topology sxb, (6)-cn, num edge types: 1
# Building blocks:
#     Node 0, Type 0, BuildingBlock: UKALOJ_clean_sbu_0, # of connection points: 6
#     Node 1, Type 0, BuildingBlock: UKALOJ_clean_sbu_0, # of connection points: 6
#     Node 2, Type 0, BuildingBlock: UKALOJ_clean_sbu_0, # of connection points: 6
#     Node 3, Type 0, BuildingBlock: UKALOJ_clean_sbu_0, # of connection points: 6
#     Edge 4, Type (0, 0), BuildingBlock: KIFKEQ_clean_linker_1, # of connection points: 2
#     Edge 5, Type (0, 0), BuildingBlock: KIFKEQ_clean_linker_1, # of connection points: 2
#     Edge 6, Type (0, 0), BuildingBlock: KIFKEQ_clean_linker_1, # of connection points: 2
#     Edge 7, Type (0, 0), BuildingBlock: KIFKEQ_clean_linker_1, # of connection points: 2
#     Edge 8, Type (0, 0), BuildingBlock: KIFKEQ_clean_linker_1, # of connection points: 2
#     Edge 9, Type (0, 0), BuildingBlock: KIFKEQ_clean_linker_1, # of connection points: 2
#     Edge 10, Type (0, 0), BuildingBlock: KIFKEQ_clean_linker_1, # of connection points: 2
#     Edge 11, Type (0, 0), BuildingBlock: KIFKEQ_clean_linker_1, # of connection points: 2
#     Edge 12, Type (0, 0), BuildingBlock: KIFKEQ_clean_linker_1, # of connection points: 2
#     Edge 13, Type (0, 0), BuildingBlock: KIFKEQ_clean_linker_1, # of connection points: 2
#     Edge 14, Type (0, 0), BuildingBlock: KIFKEQ_clean_linker_1, # of connection points: 2
#     Edge 15, Type (0, 0), BuildingBlock: KIFKEQ_clean_linker_1, # of connection points: 2
# Relax obj value: 0.093
# Max RMSD: 0.145
# Mean RMSD: 0.145
data_MOF--net-sxb--node1-UKALOJ_clean_sbu_0--edge1-KIFKEQ_clean_linker_1
_symmetry_space_group_name_H-M    P1
_symmetry_Int_Tables_number       1
_symmetry_cell_setting            triclinic
loop_
_symmetry_equiv_pos_as_xyz
'x, y, z'
_cell_length_a     15.144285
_cell_length_b     27.13342
_cell_length_c     40.892208
_cell_angle_alpha  99.812942
_cell_angle_beta   89.534589
_cell_angle_gamma 89.987914
loop_
_atom_site_label
_atom_site_type_symbol
_atom_site_fract_x
_atom_site_fract_y
_atom_site_fract_z
_atom_type_partial_charge
Zn0 Zn 0.9412 0.04722 0.06839 0.0
O1 O -0.01745 0.97233 0.06968 0.0
C2 C 0.11588 0.06855 0.04488 0.0
Zn3 Zn 0.9441 0.03395 1.01322 0.0
C4 C 0.00213 0.94453 0.04231 0.0
O5 O -0.01094 0.96072 1.01537 0.0
C6 C 0.88319 0.13657 0.03897 0.0
O7 O 0.81371 0.01054 1.009 0.0
O8 O 0.80757 0.02472 0.06351 0.0
N9 N -0.03738 0.0188 0.96296 0.0
C10 C 0.92447 0.03419 0.93673 0.0
C11 C 0.03483 0.98867 0.91834 0.0
N12 N 0.03064 0.99023 0.95134 0.0
N13 N -0.0313 0.01571 0.90851 0.0
C14 C -0.03221 0.05097 0.14501 0.0
C15 C 0.8471 0.08627 0.16319 0.0
N16 N 0.92331 0.06179 0.11863 0.0
N17 N 0.84885 0.0841 0.13012 0.0
N18 N 0.921 0.06589 0.17326 0.0
H19 H 0.04941 0.99186 0.15682 0.0
H20 H 0.10609 0.04926 0.15473 0.0
H21 H 0.07435 0.00977 0.11699 0.0
C22 C 0.05411 0.02357 0.14296 0.0
C23 C 0.84939 0.07051 0.93917 0.0
H24 H 0.80708 0.06761 0.96098 0.0
H25 H 0.80899 0.06387 0.91637 0.0
H26 H 0.87653 0.10896 0.94199 0.0
O27 O 0.89957 0.10733 1.01186 0.0
O28 O 0.89901 0.12195 0.0663 0.0
C29 C 0.76949 0.01274 0.03571 0.0
O30 O 0.07489 0.06946 0.07224 0.0
O31 O 0.07433 0.05775 1.0178 0.0
Zn32 Zn -0.0224 0.03902 0.56692 0.0
O33 O 0.84652 0.06089 0.5716 0.0
C34 C 0.919 0.93627 0.54029 0.0
Zn35 Zn -0.023 0.02641 0.51174 0.0
C36 C 0.80388 0.06021 0.54493 0.0
O37 O 0.8436 0.0499 0.5171 0.0
C38 C 0.15074 1.00501 0.53452 0.0
O39 O 0.02051 0.10019 0.51086 0.0
O40 O 0.01974 0.11386 0.56529 0.0
N41 N -0.04014 0.01206 0.46152 0.0
C42 C -0.00236 0.02868 0.43546 0.0
C43 C 0.88877 0.98272 0.41696 0.0
N44 N 0.89281 0.98319 0.44983 0.0
N45 N 0.95408 0.01074 0.40727 0.0
C46 C 0.95097 0.04235 0.64382 0.0
C47 C 0.07174 0.07755 0.66107 0.0
N48 N -0.00471 0.05293 0.61708 0.0
N49 N 0.0698 0.07514 0.62801 0.0
N50 N -0.00208 0.05738 0.67171 0.0
H51 H 0.84627 0.99939 0.61671 0.0
H52 H 0.81197 0.04206 0.65299 0.0
H53 H 0.86739 0.9853 0.65774 0.0
C54 C 0.86446 0.01536 0.64246 0.0
C55 C 0.07179 0.06553 0.43812 0.0
H56 H 0.04374 0.10389 0.44256 0.0
H57 H 0.11116 0.06082 0.41483 0.0
H58 H 0.11536 0.06117 0.45911 0.0
O59 O 0.11039 1.00316 0.50719 0.0
O60 O 0.10852 0.01668 0.56163 0.0
C61 C 0.03616 0.12901 0.5381 0.0
O62 O 0.93643 0.96403 0.56778 0.0
O63 O 0.93331 0.95273 0.51346 0.0
Zn64 Zn 0.44309 0.54787 0.06837 0.0
O65 O 0.48627 0.47317 0.06924 0.0
C66 C 0.61741 0.56951 0.04346 0.0
Zn67 Zn 0.44545 0.53447 1.01295 0.0
C68 C 0.50602 0.44548 0.04181 0.0
O69 O 0.49229 0.46154 1.01486 0.0
C70 C 0.38268 0.63681 0.03909 0.0
O71 O 0.31517 0.51034 1.01008 0.0
O72 O 0.30957 0.52506 0.06463 0.0
N73 N 0.46078 0.51975 0.96226 0.0
C74 C 0.41779 0.53378 0.93652 0.0
C75 C 0.53128 0.49234 0.91664 0.0
N76 N 0.53086 0.49371 0.9497 0.0
N77 N 0.46068 0.51689 0.90773 0.0
C78 C 0.47086 0.54601 0.14421 0.0
C79 C 0.36925 0.59589 0.16567 0.0
N80 N 0.42936 0.56266 0.11909 0.0
N81 N 0.36647 0.5937 0.13257 0.0
N82 N 0.43393 0.56616 0.17374 0.0
H83 H 0.52794 0.4729 0.13629 0.0
H84 H 0.59309 0.51972 0.16191 0.0
H85 H 0.58875 0.51774 0.11753 0.0
C86 C 0.55012 0.51239 0.13977 0.0
C87 C 0.33845 0.56714 0.93975 0.0
H88 H 0.30236 0.56577 0.96322 0.0
H89 H 0.29367 0.55611 0.91843 0.0
H90 H 0.36031 0.6061 0.93951 0.0
O91 O 0.39909 0.60762 1.01195 0.0
O92 O 0.39943 0.6224 0.06641 0.0
C93 C 0.27124 0.51266 0.0369 0.0
O94 O 0.57683 0.5705 0.07091 0.0
O95 O 0.57545 0.55878 1.01646 0.0
Zn96 Zn 0.48391 0.53768 0.56733 0.0
O97 O 0.35044 0.55978 0.56643 0.0
C98 C 0.42072 0.43531 0.54213 0.0
Zn99 Zn 0.48593 0.52247 0.51198 0.0
C100 C 0.31182 0.55788 0.53873 0.0
O101 O 0.35553 0.54636 0.51186 0.0
C102 C 0.65811 0.50194 0.53959 0.0
O103 O 0.53546 0.59465 0.50986 0.0
O104 O 0.52816 0.61164 0.56421 0.0
N105 N 0.48763 0.50358 0.46121 0.0
C106 C 0.47456 0.52994 0.4365 0.0
C107 C 0.50305 0.45481 0.41399 0.0
N108 N 0.50531 0.45695 0.44711 0.0
N109 N 0.48436 0.50017 0.40659 0.0
C110 C 0.44126 0.54187 0.64326 0.0
C111 C 0.539 0.59369 0.66474 0.0
N112 N 0.4878 0.55593 0.61808 0.0
N113 N 0.54829 0.58813 0.63158 0.0
N114 N 0.47242 0.56503 0.67288 0.0
H115 H 0.32877 0.51062 0.61512 0.0
H116 H 0.31577 0.51691 0.65966 0.0
H117 H 0.38561 0.4686 0.63725 0.0
C118 C 0.36291 0.50777 0.63858 0.0
C119 C 0.44733 0.58382 0.44184 0.0
H120 H 0.40991 0.59386 0.46542 0.0
H121 H 0.40617 0.59172 0.421 0.0
H122 H 0.5073 0.60755 0.44325 0.0
O123 O 0.61575 0.49848 0.51267 0.0
O124 O 0.61799 0.5155 0.56707 0.0
C125 C 0.54845 0.62489 0.53673 0.0
O126 O 0.43951 0.46338 0.56941 0.0
O127 O 0.43676 0.45055 0.51498 0.0
H128 H 0.362 0.71636 0.08989 0.0
H129 H 0.28801 0.66283 0.98833 0.0
H130 H 0.26862 0.78994 0.09073 0.0
H131 H 0.19149 0.73427 0.98956 0.0
H132 H 0.02943 0.8923 0.09341 0.0
H133 H 0.12207 0.81834 0.09255 0.0
H134 H 0.18477 0.81882 0.98922 0.0
H135 H 0.08895 0.89026 0.98972 0.0
C136 C 0.32612 0.72043 0.06769 0.0
C137 C 0.3334 0.684 0.03891 0.0
C138 C 0.27153 0.76231 0.06828 0.0
C139 C 0.22169 0.76834 0.04026 0.0
C140 C 0.22984 0.73185 1.01146 0.0
C141 C 0.28545 0.69059 1.01071 0.0
C142 C 0.06187 0.87592 0.07041 0.0
C143 C 0.05091 0.89692 0.04157 0.0
C144 C 0.11607 0.83388 0.06998 0.0
C145 C 0.1617 0.81233 0.04083 0.0
C146 C 0.14972 0.83335 1.012 0.0
C147 C 0.09461 0.87467 1.0123 0.0
H148 H 0.52918 0.39159 0.09232 0.0
H149 H 0.59784 0.3932 0.9898 0.0
H150 H 0.62183 0.31767 0.09156 0.0
H151 H 0.69333 0.32155 0.98942 0.0
H152 H 0.7928 0.16426 0.9877 0.0
H153 H 0.69795 0.23638 0.98874 0.0
H154 H 0.76887 0.28948 0.09091 0.0
H155 H 0.86082 0.21537 0.09018 0.0
C156 C 0.56379 0.37608 0.06962 0.0
C157 C 0.55533 0.39805 0.04106 0.0
C158 C 0.61788 0.33401 0.06924 0.0
C159 C 0.6658 0.31338 0.04044 0.0
C160 C 0.65647 0.33541 1.01189 0.0
C161 C 0.60154 0.3768 1.01213 0.0
C162 C 0.78932 0.19161 1.01026 0.0
C163 C 0.83509 0.18415 0.03876 0.0
C164 C 0.73466 0.23325 1.0109 0.0
C165 C 0.72518 0.26917 0.03993 0.0
C166 C 0.77289 0.26229 0.06826 0.0
C167 C 0.82664 0.2201 0.06775 0.0
H168 H 0.05531 0.20772 0.58946 0.0
H169 H 0.13123 0.15641 0.48737 0.0
H170 H 0.14864 0.28142 0.59074 0.0
H171 H 0.22754 0.22789 0.48898 0.0
H172 H 0.33218 0.38302 0.48998 0.0
H173 H 0.23446 0.3125 0.48947 0.0
H174 H 0.29535 0.30975 0.5923 0.0
H175 H 0.39009 0.38293 0.5932 0.0
C176 C 0.09149 0.21234 0.56723 0.0
C177 C 0.08479 0.17648 0.53818 0.0
C178 C 0.14605 0.25428 0.56806 0.0
C179 C 0.1964 0.26093 0.54 0.0
C180 C 0.18873 0.22504 0.51092 0.0
C181 C 0.13319 0.18374 0.50995 0.0
C182 C 0.32569 0.36715 0.51246 0.0
C183 C 0.3697 0.38849 0.54159 0.0
C184 C 0.26947 0.32635 0.51214 0.0
C185 C 0.25665 0.30484 0.54079 0.0
C186 C 0.30211 0.32564 0.56986 0.0
C187 C 0.35743 0.36724 0.57032 0.0
H188 H 0.89021 0.88375 0.59123 0.0
H189 H 0.83764 0.8809 0.48728 0.0
H190 H 0.80047 0.80871 0.59002 0.0
H191 H 0.7446 0.80815 0.4864 0.0
H192 H 0.64539 0.65085 0.48586 0.0
H193 H 0.73986 0.72334 0.48699 0.0
H194 H 0.65475 0.77951 0.58767 0.0
H195 H 0.56374 0.70521 0.58699 0.0
C196 C 0.85987 0.86697 0.5681 0.0
C197 C 0.87186 0.88811 0.53931 0.0
C198 C 0.80734 0.82428 0.56746 0.0
C199 C 0.76438 0.80215 0.53813 0.0
C200 C 0.77754 0.82321 0.50932 0.0
C201 C 0.83101 0.86526 0.50984 0.0
C202 C 0.64605 0.67894 0.50813 0.0
C203 C 0.5967 0.67231 0.53629 0.0
C204 C 0.70033 0.72076 0.5088 0.0
C205 C 0.70566 0.75764 0.53747 0.0
C206 C 0.65418 0.75156 0.56536 0.0
C207 C 0.60095 0.70923 0.56486 0.0
H208 H 0.21896 0.04847 0.98984 0.0
H209 H 0.2323 0.08813 0.0967 0.0
H210 H 0.37431 0.03032 0.98713 0.0
H211 H 0.39158 0.07368 0.09379 0.0
H212 H 0.65289 0.99147 0.08267 0.0
H213 H 0.49447 0.00855 0.08498 0.0
H214 H 0.51402 0.06035 0.9907 0.0
H215 H 0.66904 0.03942 0.98738 0.0
C216 C 0.25573 0.05495 1.01279 0.0
C217 C 0.21306 0.06956 0.04356 0.0
C218 C 0.34557 0.04462 1.0112 0.0
C219 C 0.39605 0.05007 0.04025 0.0
C220 C 0.3544 0.06775 0.07096 0.0
C221 C 0.26346 0.07696 0.07263 0.0
C222 C 0.62216 1.00507 0.06208 0.0
C223 C 0.67269 0.01342 0.03465 0.0
C224 C 0.53188 0.01584 0.06365 0.0
C225 C 0.49116 0.03645 0.03822 0.0
C226 C 0.54205 0.04362 1.01049 0.0
C227 C 0.63134 0.03148 1.0085 0.0
H228 H 0.25155 0.0228 0.58957 0.0
H229 H 0.26935 0.98689 0.48254 0.0
H230 H 0.40674 0.04065 0.59253 0.0
H231 H 0.42863 1.00096 0.48565 0.0
H232 H 0.68967 0.08325 0.49837 0.0
H233 H 0.53141 0.06601 0.49557 0.0
H234 H 0.54628 0.01022 0.58849 0.0
H235 H 0.70103 0.03124 0.59237 0.0
C236 C 0.28925 0.01711 0.5666 0.0
C237 C 0.24785 1.0037 0.53574 0.0
C238 C 0.37903 0.02723 0.56834 0.0
C239 C 0.43077 0.02269 0.53934 0.0
C240 C 0.39044 0.00614 0.50848 0.0
C241 C 0.2995 0.99715 0.50667 0.0
C242 C 0.65792 0.06871 0.51858 0.0
C243 C 0.70704 0.05929 0.5458 0.0
C244 C 0.56776 0.05786 0.5167 0.0
C245 C 0.52581 0.03615 0.54161 0.0
C246 C 0.57529 0.02782 0.56912 0.0
C247 C 0.6644 0.04002 0.57144 0.0
H248 H 0.7343 0.59432 0.09469 0.0
H249 H 0.71988 0.5418 0.98894 0.0
H250 H 0.89332 0.57885 0.09245 0.0
H251 H 0.87485 0.52264 0.9871 0.0
H252 H 0.16954 0.53142 0.98638 0.0
H253 H 0.01462 0.552 0.98869 0.0
H254 H -0.00364 0.51403 0.08717 0.0
H255 H 0.15488 0.49744 0.0857 0.0
C256 C 0.7652 0.58007 0.07098 0.0
C257 C 0.71462 0.56958 0.04203 0.0
C258 C 0.85598 0.57028 0.06974 0.0
C259 C 0.89725 0.54882 0.03964 0.0
C260 C 0.8465 0.53997 1.01064 0.0
C261 C 0.75688 0.55094 1.01173 0.0
C262 C 0.13232 0.52654 1.00831 0.0
C263 C 0.17427 0.51268 0.03584 0.0
C264 C 0.04293 0.5384 1.00969 0.0
C265 C -0.00764 0.53507 0.03823 0.0
C266 C 0.0335 0.51838 0.06512 0.0
C267 C 0.12392 0.50789 0.06408 0.0
H268 H 0.21103 0.52 0.48612 0.0
H269 H 0.19408 0.59148 0.58885 0.0
H270 H 0.05591 0.50062 0.48654 0.0
H271 H 0.03544 0.57547 0.58865 0.0
H272 H 0.77411 0.49566 0.5899 0.0
H273 H 0.93292 0.51119 0.5892 0.0
H274 H 0.91594 0.53029 0.48646 0.0
H275 H 0.76082 0.51108 0.48659 0.0
C276 C 0.17334 0.53325 0.50854 0.0
C277 C 0.21476 0.55744 0.53746 0.0
C278 C 0.08383 0.52206 0.50879 0.0
C279 C 0.0326 0.53612 0.5377 0.0
C280 C 0.07316 0.56287 0.56618 0.0
C281 C 0.16368 0.57294 0.56616 0.0
C282 C 0.80533 0.50177 0.567 0.0
C283 C 0.75524 0.50171 0.53827 0.0
C284 C 0.89594 0.5116 0.5667 0.0
C285 C 0.93752 0.52267 0.53788 0.0
C286 C 0.88725 0.52107 0.50898 0.0
C287 C 0.79771 0.50999 0.50905 0.0
H288 H 0.82993 0.05757 0.37831 0.0
H289 H 0.09083 0.99415 0.36387 0.0
H290 H 0.82957 0.07263 0.32115 0.0
H291 H 0.09086 0.00823 0.30595 0.0
H292 H 0.06941 0.08374 0.21043 0.0
H293 H 0.08622 0.07293 0.2685 0.0
H294 H 0.81938 0.01651 0.26833 0.0
H295 H 0.8033 0.02753 0.21084 0.0
C296 C 0.88759 0.04745 0.36276 0.0
C297 C -0.03957 0.025 0.37517 0.0
C298 C 0.88735 0.05564 0.33006 0.0
C299 C -0.04035 0.04085 0.30886 0.0
C300 C 0.03439 0.02021 0.32173 0.0
C301 C 0.03462 0.01222 0.35472 0.0
C302 C 0.01541 0.06806 0.22273 0.0
C303 C 0.93524 0.0561 0.20624 0.0
C304 C 0.02472 0.06215 0.25595 0.0
C305 C 0.9537 0.04453 0.27312 0.0
C306 C 0.87466 0.03128 0.2561 0.0
C307 C 0.86548 0.03727 0.22317 0.0
H308 H 0.83135 0.99595 0.8665 0.0
H309 H 0.09077 0.06129 0.87711 0.0
H310 H 0.82973 0.0063 0.80784 0.0
H311 H 0.08953 0.07262 0.81918 0.0
H312 H 0.11576 0.02083 0.70949 0.0
H313 H 0.10008 0.01298 0.76764 0.0
H314 H 0.8324 0.06831 0.76817 0.0
H315 H 0.84877 0.07587 0.70938 0.0
C316 C 0.88683 0.01368 0.85635 0.0
C317 C -0.03888 0.02805 0.87595 0.0
C318 C 0.88616 0.01951 0.82293 0.0
C319 C -0.0399 0.03956 0.80878 0.0
C320 C 0.03238 0.05603 0.82911 0.0
C321 C 0.03305 0.04998 0.86224 0.0
C322 C 0.05343 0.03094 0.72202 0.0
C323 C -0.01658 0.04866 0.70502 0.0
C324 C 0.04448 0.02679 0.75533 0.0
C325 C -0.03457 0.04081 0.77266 0.0
C326 C 0.89398 0.05705 0.75541 0.0
C327 C 0.90304 0.06111 0.72179 0.0
H328 H 0.40558 0.44423 0.35449 0.0
H329 H 0.55212 0.58054 0.38372 0.0
H330 H 0.39873 0.46058 0.29768 0.0
H331 H 0.54644 0.59708 0.32684 0.0
H332 H 0.43098 0.63461 0.22962 0.0
H333 H 0.44494 0.61959 0.28657 0.0
H334 H 0.48961 0.46255 0.24971 0.0
H335 H 0.4713 0.47753 0.19305 0.0
C336 C 0.43609 0.4778 0.34866 0.0
C337 C 0.47766 0.51163 0.37359 0.0
C338 C 0.4329 0.48704 0.3161 0.0
C339 C 0.47221 0.53014 0.30758 0.0
C340 C 0.51419 0.56395 0.3326 0.0
C341 C 0.51706 0.55471 0.36524 0.0
C342 C 0.44465 0.59702 0.23381 0.0
C343 C 0.45185 0.55747 0.20685 0.0
C344 C 0.45315 0.5884 0.26639 0.0
C345 C 0.46845 0.53984 0.27282 0.0
C346 C 0.47705 0.50036 0.24574 0.0
C347 C 0.46834 0.50904 0.21316 0.0
H348 H 0.42822 0.48021 0.69645 0.0
H349 H 0.46718 0.63905 0.72552 0.0
H350 H 0.40922 0.47193 0.75471 0.0
H351 H 0.44997 0.63076 0.78378 0.0
H352 H 0.56291 0.57515 0.87697 0.0
H353 H 0.54991 0.58943 0.81971 0.0
H354 H 0.31563 0.4975 0.8077 0.0
H355 H 0.32926 0.4838 0.86553 0.0
C356 C 0.42964 0.51358 0.71514 0.0
C357 C 0.44799 0.56044 0.70637 0.0
C358 C 0.41936 0.5088 0.74856 0.0
C359 C 0.42855 0.55068 0.77381 0.0
C360 C 0.44337 0.59775 0.7649 0.0
C361 C 0.45299 0.60253 0.7316 0.0
C362 C 0.508 0.55885 0.86212 0.0
C363 C 0.4466 0.5289 0.87537 0.0
C364 C 0.50021 0.56704 0.82948 0.0
C365 C 0.43148 0.54473 0.80925 0.0
C366 C 0.36927 0.51508 0.82272 0.0
C367 C 0.37651 0.50751 0.85568 0.0
loop_
_geom_bond_atom_site_label_1
_geom_bond_atom_site_label_2
_geom_bond_distance
_geom_bond_site_symmetry_2
_ccdc_geom_bond_type
Zn0 O1 2.055 1_645 S
Zn0 O8 2.046 1_545 S
Zn0 N16 2.036 . S
Zn0 O28 2.053 . S
Zn0 O30 2.066 1_655 S
O1 Zn0 2.055 1_465 S
O1 C4 1.259 . S
C2 O30 1.256 . S
C2 O31 1.244 1_554 S
Zn3 O5 2.052 . S
Zn3 O7 2.056 1_455 S
Zn3 N9 2.036 . S
Zn3 O27 2.061 1_465 S
Zn3 O31 2.052 1_565 S
C4 O1 1.259 . S
C4 O5 1.254 1_554 S
O5 Zn3 2.052 . S
O5 C4 1.254 1_556 S
C6 O27 1.256 1_554 S
C6 O28 1.244 . S
O7 Zn3 2.056 1_655 S
O7 C29 1.259 1_556 S
O8 Zn0 2.046 1_565 S
O8 C29 1.254 . S
N9 Zn3 2.036 . S
N9 C10 1.298 1_465 S
N9 N12 1.398 . S
C10 N9 1.298 1_645 S
C10 N13 1.367 1_655 S
C10 C23 1.481 . S
C11 N12 1.299 1_545 S
C11 N13 1.379 . S
N12 N9 1.398 . S
N12 C11 1.299 1_565 S
N13 C10 1.367 1_455 S
N13 C11 1.379 . S
C14 N16 1.298 1_455 S
C14 N18 1.367 . S
C14 C22 1.481 1_545 S
C15 N17 1.299 . S
C15 N18 1.379 1_655 S
N16 Zn0 2.036 . S
N16 C14 1.298 1_655 S
N16 N17 1.398 . S
N17 C15 1.299 . S
N17 N16 1.398 . S
N18 C14 1.367 . S
N18 C15 1.379 1_455 S
H19 C22 0.980 . S
H20 C22 0.981 . S
H21 C22 0.981 . S
C22 C14 1.481 1_565 S
C22 H19 0.980 . S
C22 H20 0.981 . S
C22 H21 0.981 . S
C23 C10 1.481 . S
C23 H24 0.980 . S
C23 H25 0.981 . S
C23 H26 0.981 . S
H24 C23 0.980 . S
H25 C23 0.981 . S
H26 C23 0.981 . S
O27 Zn3 2.061 1_645 S
O27 C6 1.256 1_556 S
O28 Zn0 2.053 . S
O28 C6 1.244 . S
C29 O7 1.259 1_554 S
C29 O8 1.254 . S
O30 Zn0 2.066 1_455 S
O30 C2 1.256 . S
O31 C2 1.244 1_556 S
O31 Zn3 2.052 1_545 S
Zn32 O33 2.055 1_455 S
Zn32 O40 2.046 . S
Zn32 N48 2.036 . S
Zn32 O60 2.053 . S
Zn32 O62 2.066 1_445 S
O33 Zn32 2.055 1_655 S
O33 C36 1.259 . S
C34 O62 1.256 . S
C34 O63 1.244 . S
Zn35 O37 2.046 . S
Zn35 O39 2.055 1_655 S
Zn35 N41 2.036 . S
Zn35 O59 2.066 1_655 S
Zn35 O63 2.053 1_545 S
C36 O33 1.259 . S
C36 O37 1.254 . S
O37 Zn35 2.046 . S
O37 C36 1.254 . S
C38 O59 1.256 . S
C38 O60 1.244 . S
O39 Zn35 2.055 1_455 S
O39 C61 1.259 . S
O40 Zn32 2.046 . S
O40 C61 1.254 . S
N41 Zn35 2.036 . S
N41 C42 1.298 1_655 S
N41 N44 1.398 1_545 S
C42 N41 1.298 1_455 S
C42 N45 1.367 . S
C42 C55 1.481 . S
C43 N44 1.299 . S
C43 N45 1.379 1_665 S
N44 N41 1.398 1_565 S
N44 C43 1.299 . S
N45 C42 1.367 . S
N45 C43 1.379 1_445 S
C46 N48 1.298 1_655 S
C46 N50 1.367 1_655 S
C46 C54 1.481 . S
C47 N49 1.299 . S
C47 N50 1.379 . S
N48 Zn32 2.036 . S
N48 C46 1.298 1_455 S
N48 N49 1.398 . S
N49 C47 1.299 . S
N49 N48 1.398 . S
N50 C46 1.367 1_455 S
N50 C47 1.379 . S
H51 C54 0.980 . S
H52 C54 0.981 . S
H53 C54 0.981 . S
C54 C46 1.481 . S
C54 H51 0.980 . S
C54 H52 0.981 . S
C54 H53 0.981 . S
C55 C42 1.481 . S
C55 H56 0.980 . S
C55 H57 0.981 . S
C55 H58 0.981 . S
H56 C55 0.980 . S
H57 C55 0.981 . S
H58 C55 0.981 . S
O59 Zn35 2.066 1_455 S
O59 C38 1.256 . S
O60 Zn32 2.053 . S
O60 C38 1.244 . S
C61 O39 1.259 . S
C61 O40 1.254 . S
O62 Zn32 2.066 1_665 S
O62 C34 1.256 . S
O63 C34 1.244 . S
O63 Zn35 2.053 1_565 S
Zn64 O65 2.055 . S
Zn64 O72 2.046 . S
Zn64 N80 2.036 . S
Zn64 O92 2.053 . S
Zn64 O94 2.066 . S
O65 Zn64 2.055 . S
O65 C68 1.259 . S
C66 O94 1.256 . S
C66 O95 1.244 1_554 S
Zn67 O69 2.046 . S
Zn67 O71 2.055 . S
Zn67 N73 2.036 . S
Zn67 O91 2.066 . S
Zn67 O95 2.053 . S
C68 O65 1.259 . S
C68 O69 1.254 1_554 S
O69 Zn67 2.046 . S
O69 C68 1.254 1_556 S
C70 O91 1.256 1_554 S
C70 O92 1.244 . S
O71 Zn67 2.055 . S
O71 C93 1.259 1_556 S
O72 Zn64 2.046 . S
O72 C93 1.254 . S
N73 Zn67 2.036 . S
N73 C74 1.298 . S
N73 N76 1.398 . S
C74 N73 1.298 . S
C74 N77 1.367 . S
C74 C87 1.481 . S
C75 N76 1.299 . S
C75 N77 1.379 . S
N76 N73 1.398 . S
N76 C75 1.299 . S
N77 C74 1.367 . S
N77 C75 1.379 . S
C78 N80 1.298 . S
C78 N82 1.367 . S
C78 C86 1.481 . S
C79 N81 1.299 . S
C79 N82 1.379 . S
N80 Zn64 2.036 . S
N80 C78 1.298 . S
N80 N81 1.398 . S
N81 C79 1.299 . S
N81 N80 1.398 . S
N82 C78 1.367 . S
N82 C79 1.379 . S
H83 C86 0.980 . S
H84 C86 0.981 . S
H85 C86 0.981 . S
C86 C78 1.481 . S
C86 H83 0.980 . S
C86 H84 0.981 . S
C86 H85 0.981 . S
C87 C74 1.481 . S
C87 H88 0.980 . S
C87 H89 0.981 . S
C87 H90 0.981 . S
H88 C87 0.980 . S
H89 C87 0.981 . S
H90 C87 0.981 . S
O91 Zn67 2.066 . S
O91 C70 1.256 1_556 S
O92 Zn64 2.053 . S
O92 C70 1.244 . S
C93 O71 1.259 1_554 S
C93 O72 1.254 . S
O94 Zn64 2.066 . S
O94 C66 1.256 . S
O95 C66 1.244 1_556 S
O95 Zn67 2.053 . S
Zn96 O97 2.055 . S
Zn96 O104 2.046 . S
Zn96 N112 2.036 . S
Zn96 O124 2.053 . S
Zn96 O126 2.066 . S
O97 Zn96 2.055 . S
O97 C100 1.259 . S
C98 O126 1.256 . S
C98 O127 1.244 . S
Zn99 O101 2.046 . S
Zn99 O103 2.055 . S
Zn99 N105 2.036 . S
Zn99 O123 2.066 . S
Zn99 O127 2.053 . S
C100 O97 1.259 . S
C100 O101 1.254 . S
O101 Zn99 2.046 . S
O101 C100 1.254 . S
C102 O123 1.256 . S
C102 O124 1.244 . S
O103 Zn99 2.055 . S
O103 C125 1.259 . S
O104 Zn96 2.046 . S
O104 C125 1.254 . S
N105 Zn99 2.036 . S
N105 C106 1.298 . S
N105 N108 1.398 . S
C106 N105 1.298 . S
C106 N109 1.367 . S
C106 C119 1.481 . S
C107 N108 1.299 . S
C107 N109 1.379 . S
N108 N105 1.398 . S
N108 C107 1.299 . S
N109 C106 1.367 . S
N109 C107 1.379 . S
C110 N112 1.298 . S
C110 N114 1.367 . S
C110 C118 1.481 . S
C111 N113 1.299 . S
C111 N114 1.379 . S
N112 Zn96 2.036 . S
N112 C110 1.298 . S
N112 N113 1.398 . S
N113 C111 1.299 . S
N113 N112 1.398 . S
N114 C110 1.367 . S
N114 C111 1.379 . S
H115 C118 0.980 . S
H116 C118 0.981 . S
H117 C118 0.981 . S
C118 C110 1.481 . S
C118 H115 0.980 . S
C118 H116 0.981 . S
C118 H117 0.981 . S
C119 C106 1.481 . S
C119 H120 0.980 . S
C119 H121 0.981 . S
C119 H122 0.981 . S
H120 C119 0.980 . S
H121 C119 0.981 . S
H122 C119 0.981 . S
O123 Zn99 2.066 . S
O123 C102 1.256 . S
O124 Zn96 2.053 . S
O124 C102 1.244 . S
C125 O103 1.259 . S
C125 O104 1.254 . S
O126 Zn96 2.066 . S
O126 C98 1.256 . S
O127 C98 1.244 . S
O127 Zn99 2.053 . S
H128 C136 0.950 . S
H129 C141 0.950 . S
H130 C138 0.950 . S
H131 C140 0.950 . S
H132 C142 0.950 1_655 S
H133 C144 0.950 . S
H134 C146 0.950 . S
H135 C147 0.950 . S
C136 H128 0.950 . S
C136 C137 1.386 . S
C136 C138 1.391 . S
C137 C136 1.386 . S
C137 C141 1.393 . S
C138 H130 0.950 . S
C138 C136 1.391 . S
C138 C139 1.400 . S
C139 C138 1.400 . S
C139 C140 1.398 . S
C139 C145 1.491 . S
C140 H131 0.950 . S
C140 C139 1.398 . S
C140 C141 1.391 . S
C141 H129 0.950 . S
C141 C137 1.393 . S
C141 C140 1.391 . S
C142 H132 0.950 1_455 S
C142 C143 1.386 . S
C142 C144 1.391 . S
C143 C142 1.386 . S
C143 C147 1.393 . S
C144 H133 0.950 . S
C144 C142 1.391 . S
C144 C145 1.400 . S
C145 C139 1.491 . S
C145 C144 1.400 . S
C145 C146 1.398 . S
C146 H134 0.950 . S
C146 C145 1.398 . S
C146 C147 1.391 . S
C147 H135 0.950 . S
C147 C143 1.393 . S
C147 C146 1.391 . S
H148 C156 0.950 . S
H149 C161 0.950 . S
H150 C158 0.950 . S
H151 C160 0.950 . S
H152 C162 0.950 . S
H153 C164 0.950 . S
H154 C166 0.950 . S
H155 C167 0.950 . S
C156 H148 0.950 . S
C156 C157 1.386 . S
C156 C158 1.391 . S
C157 C156 1.386 . S
C157 C161 1.393 1_554 S
C158 H150 0.950 . S
C158 C156 1.391 . S
C158 C159 1.400 . S
C159 C158 1.400 . S
C159 C160 1.398 1_554 S
C159 C165 1.491 . S
C160 H151 0.950 . S
C160 C159 1.398 1_556 S
C160 C161 1.391 . S
C161 H149 0.950 . S
C161 C157 1.393 1_556 S
C161 C160 1.391 . S
C162 H152 0.950 . S
C162 C163 1.386 1_556 S
C162 C164 1.391 . S
C163 C162 1.386 1_554 S
C163 C167 1.393 . S
C164 H153 0.950 . S
C164 C162 1.391 . S
C164 C165 1.400 1_556 S
C165 C159 1.491 . S
C165 C164 1.400 1_554 S
C165 C166 1.398 . S
C166 H154 0.950 . S
C166 C165 1.398 . S
C166 C167 1.391 . S
C167 H155 0.950 . S
C167 C163 1.393 . S
C167 C166 1.391 . S
H168 C176 0.950 . S
H169 C181 0.946 1_655 S
H170 C178 0.950 . S
H171 C180 0.950 . S
H172 C182 0.950 . S
H173 C184 0.950 . S
H174 C186 0.950 . S
H175 C187 0.950 . S
C176 H168 0.950 . S
C176 C177 1.386 . S
C176 C178 1.391 . S
C177 C176 1.386 . S
C177 C181 1.393 . S
C178 H170 0.950 . S
C178 C176 1.391 . S
C178 C179 1.400 . S
C179 C178 1.400 . S
C179 C180 1.398 . S
C179 C185 1.491 . S
C180 H171 0.950 . S
C180 C179 1.398 . S
C180 C181 1.391 . S
C181 H169 0.946 1_455 S
C181 C177 1.393 . S
C181 C180 1.391 . S
C182 H172 0.950 . S
C182 C183 1.386 . S
C182 C184 1.391 . S
C183 C182 1.386 . S
C183 C187 1.393 . S
C184 H173 0.950 . S
C184 C182 1.391 . S
C184 C185 1.400 . S
C185 C179 1.491 . S
C185 C184 1.400 . S
C185 C186 1.398 . S
C186 H174 0.950 . S
C186 C185 1.398 . S
C186 C187 1.391 . S
C187 H175 0.950 . S
C187 C183 1.393 . S
C187 C186 1.391 . S
H188 C196 0.950 . S
H189 C201 0.950 . S
H190 C198 0.950 . S
H191 C200 0.950 . S
H192 C202 0.950 . S
H193 C204 0.950 . S
H194 C206 0.950 . S
H195 C207 0.950 . S
C196 H188 0.950 . S
C196 C197 1.386 . S
C196 C198 1.391 . S
C197 C196 1.386 . S
C197 C201 1.393 . S
C198 H190 0.950 . S
C198 C196 1.391 . S
C198 C199 1.400 . S
C199 C198 1.400 . S
C199 C200 1.398 . S
C199 C205 1.491 . S
C200 H191 0.950 . S
C200 C199 1.398 . S
C200 C201 1.391 . S
C201 H189 0.950 . S
C201 C197 1.393 . S
C201 C200 1.391 . S
C202 H192 0.950 . S
C202 C203 1.386 . S
C202 C204 1.391 . S
C203 C202 1.386 . S
C203 C207 1.393 . S
C204 H193 0.950 . S
C204 C202 1.391 . S
C204 C205 1.400 . S
C205 C199 1.491 . S
C205 C204 1.400 . S
C205 C206 1.398 . S
C206 H194 0.950 . S
C206 C205 1.398 . S
C206 C207 1.391 . S
C207 H195 0.950 . S
C207 C203 1.393 . S
C207 C206 1.391 . S
H208 C216 0.950 . S
H209 C221 0.950 . S
H210 C218 0.950 . S
H211 C220 0.950 . S
H212 C222 0.950 . S
H213 C224 0.950 . S
H214 C226 0.950 . S
H215 C227 0.950 . S
C216 H208 0.950 . S
C216 C217 1.386 . S
C216 C218 1.391 . S
C217 C216 1.386 . S
C217 C221 1.393 1_545 S
C218 H210 0.950 . S
C218 C216 1.391 . S
C218 C219 1.400 . S
C219 C218 1.400 . S
C219 C220 1.398 1_545 S
C219 C225 1.491 . S
C220 H211 0.950 . S
C220 C219 1.398 1_565 S
C220 C221 1.391 . S
C221 H209 0.950 . S
C221 C217 1.393 1_565 S
C221 C220 1.391 . S
C222 H212 0.950 . S
C222 C223 1.386 . S
C222 C224 1.391 . S
C223 C222 1.386 . S
C223 C227 1.393 1_565 S
C224 H213 0.950 . S
C224 C222 1.391 . S
C224 C225 1.400 1_565 S
C225 C219 1.491 . S
C225 C224 1.400 1_545 S
C225 C226 1.398 . S
C226 H214 0.950 . S
C226 C225 1.398 . S
C226 C227 1.391 . S
C227 H215 0.950 . S
C227 C223 1.393 1_545 S
C227 C226 1.391 . S
H228 C236 0.950 . S
H229 C241 0.950 1_565 S
H230 C238 0.950 . S
H231 C240 0.950 . S
H232 C242 0.950 . S
H233 C244 0.950 . S
H234 C246 0.950 . S
H235 C247 0.950 . S
C236 H228 0.950 . S
C236 C237 1.386 . S
C236 C238 1.391 . S
C237 C236 1.386 . S
C237 C241 1.393 . S
C238 H230 0.950 . S
C238 C236 1.391 . S
C238 C239 1.400 . S
C239 C238 1.400 . S
C239 C240 1.398 . S
C239 C245 1.491 . S
C240 H231 0.950 . S
C240 C239 1.398 . S
C240 C241 1.391 . S
C241 H229 0.950 1_545 S
C241 C237 1.393 . S
C241 C240 1.391 . S
C242 H232 0.950 . S
C242 C243 1.386 . S
C242 C244 1.391 . S
C243 C242 1.386 . S
C243 C247 1.393 . S
C244 H233 0.950 . S
C244 C242 1.391 . S
C244 C245 1.400 . S
C245 C239 1.491 . S
C245 C244 1.400 . S
C245 C246 1.398 . S
C246 H234 0.950 . S
C246 C245 1.398 . S
C246 C247 1.391 . S
C247 H235 0.950 . S
C247 C243 1.393 . S
C247 C246 1.391 . S
H248 C256 0.950 . S
H249 C261 0.950 . S
H250 C258 0.950 . S
H251 C260 0.950 . S
H252 C262 0.950 . S
H253 C264 0.950 . S
H254 C266 0.950 . S
H255 C267 0.950 . S
C256 H248 0.950 . S
C256 C257 1.386 . S
C256 C258 1.391 . S
C257 C256 1.386 . S
C257 C261 1.393 1_554 S
C258 H250 0.950 . S
C258 C256 1.391 . S
C258 C259 1.400 . S
C259 C258 1.400 . S
C259 C260 1.398 1_554 S
C259 C265 1.491 1_655 S
C260 H251 0.950 . S
C260 C259 1.398 1_556 S
C260 C261 1.391 . S
C261 H249 0.950 . S
C261 C257 1.393 1_556 S
C261 C260 1.391 . S
C262 H252 0.950 . S
C262 C263 1.386 1_556 S
C262 C264 1.391 . S
C263 C262 1.386 1_554 S
C263 C267 1.393 . S
C264 H253 0.950 . S
C264 C262 1.391 . S
C264 C265 1.400 1_556 S
C265 C259 1.491 1_455 S
C265 C264 1.400 1_554 S
C265 C266 1.398 . S
C266 H254 0.950 . S
C266 C265 1.398 . S
C266 C267 1.391 . S
C267 H255 0.950 . S
C267 C263 1.393 . S
C267 C266 1.391 . S
H268 C276 0.950 . S
H269 C281 0.950 . S
H270 C278 0.950 . S
H271 C280 0.950 . S
H272 C282 0.950 . S
H273 C284 0.950 . S
H274 C286 0.950 . S
H275 C287 0.950 . S
C276 H268 0.950 . S
C276 C277 1.386 . S
C276 C278 1.391 . S
C277 C276 1.386 . S
C277 C281 1.393 . S
C278 H270 0.950 . S
C278 C276 1.391 . S
C278 C279 1.400 . S
C279 C278 1.400 . S
C279 C280 1.398 . S
C279 C285 1.491 1_455 S
C280 H271 0.950 . S
C280 C279 1.398 . S
C280 C281 1.391 . S
C281 H269 0.950 . S
C281 C277 1.393 . S
C281 C280 1.391 . S
C282 H272 0.950 . S
C282 C283 1.386 . S
C282 C284 1.391 . S
C283 C282 1.386 . S
C283 C287 1.393 . S
C284 H273 0.950 . S
C284 C282 1.391 . S
C284 C285 1.400 . S
C285 C279 1.491 1_655 S
C285 C284 1.400 . S
C285 C286 1.398 . S
C286 H274 0.950 . S
C286 C285 1.398 . S
C286 C287 1.391 . S
C287 H275 0.950 . S
C287 C283 1.393 . S
C287 C286 1.391 . S
H288 C296 0.950 . S
H289 C301 0.950 . S
H290 C298 0.950 1_565 S
H291 C300 0.950 . S
H292 C302 0.950 . S
H293 C304 0.950 . S
H294 C306 0.950 1_565 S
H295 C307 0.950 1_565 S
C296 H288 0.950 . S
C296 C297 1.386 1_655 S
C296 C298 1.391 . S
C297 C296 1.386 1_455 S
C297 C301 1.393 . S
C298 H290 0.950 1_545 S
C298 C296 1.391 . S
C298 C299 1.400 1_655 S
C299 C298 1.400 1_455 S
C299 C300 1.398 . S
C299 C305 1.491 . S
C300 H291 0.950 . S
C300 C299 1.398 . S
C300 C301 1.391 . S
C301 H289 0.950 . S
C301 C297 1.393 . S
C301 C300 1.391 . S
C302 H292 0.950 . S
C302 C303 1.386 . S
C302 C304 1.391 . S
C303 C302 1.386 . S
C303 C307 1.393 1_455 S
C304 H293 0.950 . S
C304 C302 1.391 . S
C304 C305 1.400 . S
C305 C299 1.491 . S
C305 C304 1.400 . S
C305 C306 1.398 1_455 S
C306 H294 0.950 1_545 S
C306 C305 1.398 1_655 S
C306 C307 1.391 . S
C307 H295 0.950 1_545 S
C307 C303 1.393 1_655 S
C307 C306 1.391 . S
H308 C316 0.950 1_565 S
H309 C321 0.950 . S
H310 C318 0.953 . S
H311 C320 0.950 . S
H312 C322 0.950 . S
H313 C324 0.950 . S
H314 C326 0.948 1_565 S
H315 C327 0.950 . S
C316 H308 0.950 1_545 S
C316 C317 1.386 . S
C316 C318 1.391 . S
C317 C316 1.386 . S
C317 C321 1.393 1_655 S
C318 H310 0.953 . S
C318 C316 1.391 . S
C318 C319 1.400 . S
C319 C318 1.400 . S
C319 C320 1.398 1_655 S
C319 C325 1.491 . S
C320 H311 0.950 . S
C320 C319 1.398 1_455 S
C320 C321 1.391 . S
C321 H309 0.950 . S
C321 C317 1.393 1_455 S
C321 C320 1.391 . S
C322 H312 0.950 . S
C322 C323 1.386 1_455 S
C322 C324 1.391 . S
C323 C322 1.386 1_655 S
C323 C327 1.393 . S
C324 H313 0.950 . S
C324 C322 1.391 . S
C324 C325 1.400 1_455 S
C325 C319 1.491 . S
C325 C324 1.400 1_655 S
C325 C326 1.398 . S
C326 H314 0.948 1_545 S
C326 C325 1.398 . S
C326 C327 1.391 . S
C327 H315 0.950 . S
C327 C323 1.393 . S
C327 C326 1.391 . S
H328 C336 0.950 . S
H329 C341 0.950 . S
H330 C338 0.950 . S
H331 C340 0.950 . S
H332 C342 0.950 . S
H333 C344 0.950 . S
H334 C346 0.950 . S
H335 C347 0.950 . S
C336 H328 0.950 . S
C336 C337 1.386 . S
C336 C338 1.391 . S
C337 C336 1.386 . S
C337 C341 1.393 . S
C338 H330 0.950 . S
C338 C336 1.391 . S
C338 C339 1.400 . S
C339 C338 1.400 . S
C339 C340 1.398 . S
C339 C345 1.491 . S
C340 H331 0.950 . S
C340 C339 1.398 . S
C340 C341 1.391 . S
C341 H329 0.950 . S
C341 C337 1.393 . S
C341 C340 1.391 . S
C342 H332 0.950 . S
C342 C343 1.386 . S
C342 C344 1.391 . S
C343 C342 1.386 . S
C343 C347 1.393 . S
C344 H333 0.950 . S
C344 C342 1.391 . S
C344 C345 1.400 . S
C345 C339 1.491 . S
C345 C344 1.400 . S
C345 C346 1.398 . S
C346 H334 0.950 . S
C346 C345 1.398 . S
C346 C347 1.391 . S
C347 H335 0.950 . S
C347 C343 1.393 . S
C347 C346 1.391 . S
H348 C356 0.950 . S
H349 C361 0.950 . S
H350 C358 0.950 . S
H351 C360 0.950 . S
H352 C362 0.950 . S
H353 C364 0.950 . S
H354 C366 0.950 . S
H355 C367 0.950 . S
C356 H348 0.950 . S
C356 C357 1.386 . S
C356 C358 1.391 . S
C357 C356 1.386 . S
C357 C361 1.393 . S
C358 H350 0.950 . S
C358 C356 1.391 . S
C358 C359 1.400 . S
C359 C358 1.400 . S
C359 C360 1.398 . S
C359 C365 1.491 . S
C360 H351 0.950 . S
C360 C359 1.398 . S
C360 C361 1.391 . S
C361 H349 0.950 . S
C361 C357 1.393 . S
C361 C360 1.391 . S
C362 H352 0.950 . S
C362 C363 1.386 . S
C362 C364 1.391 . S
C363 C362 1.386 . S
C363 C367 1.393 . S
C364 H353 0.950 . S
C364 C362 1.391 . S
C364 C365 1.400 . S
C365 C359 1.491 . S
C365 C364 1.400 . S
C365 C366 1.398 . S
C366 H354 0.950 . S
C366 C365 1.398 . S
C366 C367 1.391 . S
C367 H355 0.950 . S
C367 C363 1.393 . S
C367 C366 1.391 . S
C137 C70 1.559 . S
C143 C4 1.568 . S
C157 C68 1.572 . S
C163 C6 1.567 . S
C177 C61 1.568 . S
C183 C98 1.559 . S
C197 C34 1.557 . S
C203 C125 1.567 . S
C217 C2 0.909 . S
C223 C29 0.913 . S
C237 C38 0.914 . S
C243 C36 0.912 . S
C257 C66 0.898 . S
C263 C93 0.905 . S
C277 C100 0.907 . S
C283 C102 0.901 . S
C297 N45 1.476 . S
C303 N18 1.484 . S
C317 N13 1.465 1_655 S
C323 N50 1.459 1_655 S
C337 N109 1.475 . S
C343 N82 1.485 . S
C357 N114 1.452 . S
C363 N77 1.467 . S
