# Generated by pormake.
# Topology whk, (6)-cn, num edge types: 1
# Building blocks:
#     Node 0, Type 0, BuildingBlock: OJICUG_clean_sbu_0, # of connection points: 6
#     Node 1, Type 0, BuildingBlock: OJICUG_clean_sbu_0, # of connection points: 6
#     Node 2, Type 0, BuildingBlock: OJICUG_clean_sbu_0, # of connection points: 6
#     Node 3, Type 0, BuildingBlock: OJICUG_clean_sbu_0, # of connection points: 6
#     Node 4, Type 0, BuildingBlock: OJICUG_clean_sbu_0, # of connection points: 6
#     Node 5, Type 0, BuildingBlock: OJICUG_clean_sbu_0, # of connection points: 6
#     Node 6, Type 0, BuildingBlock: OJICUG_clean_sbu_0, # of connection points: 6
#     Node 7, Type 0, BuildingBlock: OJICUG_clean_sbu_0, # of connection points: 6
#     Node 8, Type 0, BuildingBlock: OJICUG_clean_sbu_0, # of connection points: 6
#     Node 9, Type 0, BuildingBlock: OJICUG_clean_sbu_0, # of connection points: 6
#     Node 10, Type 0, BuildingBlock: OJICUG_clean_sbu_0, # of connection points: 6
#     Node 11, Type 0, BuildingBlock: OJICUG_clean_sbu_0, # of connection points: 6
#     Node 12, Type 0, BuildingBlock: OJICUG_clean_sbu_0, # of connection points: 6
#     Node 13, Type 0, BuildingBlock: OJICUG_clean_sbu_0, # of connection points: 6
#     Node 14, Type 0, BuildingBlock: OJICUG_clean_sbu_0, # of connection points: 6
#     Node 15, Type 0, BuildingBlock: OJICUG_clean_sbu_0, # of connection points: 6
#     Edge 16, Type (0, 0), BuildingBlock: CIFDUS_clean_linker_0, # of connection points: 2
#     Edge 17, Type (0, 0), BuildingBlock: CIFDUS_clean_linker_0, # of connection points: 2
#     Edge 18, Type (0, 0), BuildingBlock: CIFDUS_clean_linker_0, # of connection points: 2
#     Edge 19, Type (0, 0), BuildingBlock: CIFDUS_clean_linker_0, # of connection points: 2
#     Edge 20, Type (0, 0), BuildingBlock: CIFDUS_clean_linker_0, # of connection points: 2
#     Edge 21, Type (0, 0), BuildingBlock: CIFDUS_clean_linker_0, # of connection points: 2
#     Edge 22, Type (0, 0), BuildingBlock: CIFDUS_clean_linker_0, # of connection points: 2
#     Edge 23, Type (0, 0), BuildingBlock: CIFDUS_clean_linker_0, # of connection points: 2
#     Edge 24, Type (0, 0), BuildingBlock: CIFDUS_clean_linker_0, # of connection points: 2
#     Edge 25, Type (0, 0), BuildingBlock: CIFDUS_clean_linker_0, # of connection points: 2
#     Edge 26, Type (0, 0), BuildingBlock: CIFDUS_clean_linker_0, # of connection points: 2
#     Edge 27, Type (0, 0), BuildingBlock: CIFDUS_clean_linker_0, # of connection points: 2
#     Edge 28, Type (0, 0), BuildingBlock: CIFDUS_clean_linker_0, # of connection points: 2
#     Edge 29, Type (0, 0), BuildingBlock: CIFDUS_clean_linker_0, # of connection points: 2
#     Edge 30, Type (0, 0), BuildingBlock: CIFDUS_clean_linker_0, # of connection points: 2
#     Edge 31, Type (0, 0), BuildingBlock: CIFDUS_clean_linker_0, # of connection points: 2
#     Edge 32, Type (0, 0), BuildingBlock: CIFDUS_clean_linker_0, # of connection points: 2
#     Edge 33, Type (0, 0), BuildingBlock: CIFDUS_clean_linker_0, # of connection points: 2
#     Edge 34, Type (0, 0), BuildingBlock: CIFDUS_clean_linker_0, # of connection points: 2
#     Edge 35, Type (0, 0), BuildingBlock: CIFDUS_clean_linker_0, # of connection points: 2
#     Edge 36, Type (0, 0), BuildingBlock: CIFDUS_clean_linker_0, # of connection points: 2
#     Edge 37, Type (0, 0), BuildingBlock: CIFDUS_clean_linker_0, # of connection points: 2
#     Edge 38, Type (0, 0), BuildingBlock: CIFDUS_clean_linker_0, # of connection points: 2
#     Edge 39, Type (0, 0), BuildingBlock: CIFDUS_clean_linker_0, # of connection points: 2
#     Edge 40, Type (0, 0), BuildingBlock: CIFDUS_clean_linker_0, # of connection points: 2
#     Edge 41, Type (0, 0), BuildingBlock: CIFDUS_clean_linker_0, # of connection points: 2
#     Edge 42, Type (0, 0), BuildingBlock: CIFDUS_clean_linker_0, # of connection points: 2
#     Edge 43, Type (0, 0), BuildingBlock: CIFDUS_clean_linker_0, # of connection points: 2
#     Edge 44, Type (0, 0), BuildingBlock: CIFDUS_clean_linker_0, # of connection points: 2
#     Edge 45, Type (0, 0), BuildingBlock: CIFDUS_clean_linker_0, # of connection points: 2
#     Edge 46, Type (0, 0), BuildingBlock: CIFDUS_clean_linker_0, # of connection points: 2
#     Edge 47, Type (0, 0), BuildingBlock: CIFDUS_clean_linker_0, # of connection points: 2
#     Edge 48, Type (0, 0), BuildingBlock: CIFDUS_clean_linker_0, # of connection points: 2
#     Edge 49, Type (0, 0), BuildingBlock: CIFDUS_clean_linker_0, # of connection points: 2
#     Edge 50, Type (0, 0), BuildingBlock: CIFDUS_clean_linker_0, # of connection points: 2
#     Edge 51, Type (0, 0), BuildingBlock: CIFDUS_clean_linker_0, # of connection points: 2
#     Edge 52, Type (0, 0), BuildingBlock: CIFDUS_clean_linker_0, # of connection points: 2
#     Edge 53, Type (0, 0), BuildingBlock: CIFDUS_clean_linker_0, # of connection points: 2
#     Edge 54, Type (0, 0), BuildingBlock: CIFDUS_clean_linker_0, # of connection points: 2
#     Edge 55, Type (0, 0), BuildingBlock: CIFDUS_clean_linker_0, # of connection points: 2
#     Edge 56, Type (0, 0), BuildingBlock: CIFDUS_clean_linker_0, # of connection points: 2
#     Edge 57, Type (0, 0), BuildingBlock: CIFDUS_clean_linker_0, # of connection points: 2
#     Edge 58, Type (0, 0), BuildingBlock: CIFDUS_clean_linker_0, # of connection points: 2
#     Edge 59, Type (0, 0), BuildingBlock: CIFDUS_clean_linker_0, # of connection points: 2
#     Edge 60, Type (0, 0), BuildingBlock: CIFDUS_clean_linker_0, # of connection points: 2
#     Edge 61, Type (0, 0), BuildingBlock: CIFDUS_clean_linker_0, # of connection points: 2
#     Edge 62, Type (0, 0), BuildingBlock: CIFDUS_clean_linker_0, # of connection points: 2
#     Edge 63, Type (0, 0), BuildingBlock: CIFDUS_clean_linker_0, # of connection points: 2
# Relax obj value: 0.277
# Max RMSD: 0.215
# Mean RMSD: 0.215
data_MOF--net-whk--node1-OJICUG_clean_sbu_0--edge1-CIFDUS_clean_linker_0
_symmetry_space_group_name_H-M    P1
_symmetry_Int_Tables_number       1
_symmetry_cell_setting            triclinic
loop_
_symmetry_equiv_pos_as_xyz
'x, y, z'
_cell_length_a     32.428415
_cell_length_b     32.584775
_cell_length_c     47.58518
_cell_angle_alpha  89.928139
_cell_angle_beta   89.973334
_cell_angle_gamma 89.787273
loop_
_atom_site_label
_atom_site_type_symbol
_atom_site_fract_x
_atom_site_fract_y
_atom_site_fract_z
_atom_type_partial_charge
Sc0 Sc 0.56486 0.13501 0.40998 0.0
Sc1 Sc 0.56256 0.23273 0.38176 0.0
Sc2 Sc 0.50714 0.20975 0.44262 0.0
O3 O 0.54348 0.19272 0.41091 0.0
C4 C 0.47132 0.12396 0.42031 0.0
C5 C 0.56337 0.15676 0.34413 0.0
C6 C 0.46913 0.26087 0.39275 0.0
C7 C 0.64115 0.18993 0.40305 0.0
C8 C 0.56099 0.14759 0.47542 0.0
C9 C 0.56784 0.2863 0.43748 0.0
O10 O 0.50181 0.1142 0.40445 0.0
O11 O 0.54629 0.19178 0.34754 0.0
O12 O 0.46417 0.23846 0.4144 0.0
O13 O 0.62564 0.16065 0.41739 0.0
O14 O 0.54843 0.18435 0.47382 0.0
O15 O 0.58295 0.27577 0.4138 0.0
O16 O 0.55924 0.12362 0.4545 0.0
O17 O 0.62257 0.20511 0.38196 0.0
O18 O 0.5381 0.26728 0.44903 0.0
O19 O 0.57548 0.13539 0.36495 0.0
O20 O 0.47282 0.1532 0.43822 0.0
O21 O 0.50334 0.2633 0.37961 0.0
Sc22 Sc 0.35957 0.5691 0.39172 0.0
Sc23 Sc 0.25513 0.59354 0.37856 0.0
Sc24 Sc 0.28126 0.51457 0.42556 0.0
O25 O 0.2984 0.55871 0.39815 0.0
C26 C 0.35576 0.47324 0.39057 0.0
C27 C 0.32341 0.59096 0.33054 0.0
C28 C 0.2151 0.50422 0.37639 0.0
C29 C 0.32253 0.65665 0.40135 0.0
C30 C 0.3581 0.55097 0.45742 0.0
C31 C 0.21357 0.58327 0.43926 0.0
O32 O 0.36934 0.50645 0.38007 0.0
O33 O 0.28567 0.59225 0.33786 0.0
O34 O 0.23768 0.49012 0.39612 0.0
O35 O 0.35266 0.63203 0.40405 0.0
O36 O 0.32132 0.53789 0.45796 0.0
O37 O 0.21891 0.60262 0.41635 0.0
O38 O 0.37744 0.55701 0.4346 0.0
O39 O 0.28809 0.64741 0.39024 0.0
O40 O 0.23326 0.55061 0.44513 0.0
O41 O 0.35245 0.58395 0.34778 0.0
O42 O 0.32713 0.47232 0.40898 0.0
O43 O 0.21771 0.54101 0.3673 0.0
Sc44 Sc 0.92929 0.35421 0.39495 0.0
Sc45 Sc 0.91778 0.25229 0.37439 0.0
Sc46 Sc 0.98862 0.27888 0.42637 0.0
O47 O 0.94598 0.29478 0.39807 0.0
C48 C 0.02486 0.35854 0.39492 0.0
C49 C 0.91602 0.32396 0.33162 0.0
C50 C 0.01027 0.21775 0.3775 0.0
C51 C 0.84603 0.30836 0.39796 0.0
C52 C 0.94473 0.34851 0.45979 0.0
C53 C 0.92255 0.2069 0.43349 0.0
O54 O 0.99146 0.36978 0.38289 0.0
O55 O 0.92778 0.28706 0.33588 0.0
O56 O 0.02186 0.24272 0.39639 0.0
O57 O 0.86794 0.33724 0.40796 0.0
O58 O 0.95704 0.31162 0.45924 0.0
O59 O 0.9034 0.21476 0.41073 0.0
O60 O 0.94328 0.37022 0.43773 0.0
O61 O 0.85929 0.28207 0.38033 0.0
O62 O 0.95526 0.22565 0.44065 0.0
O63 O 0.91139 0.34936 0.35157 0.0
O64 O 0.02618 0.3307 0.41389 0.0
O65 O 0.97358 0.21687 0.36791 0.0
Sc66 Sc 0.19906 0.97998 0.43504 0.0
Sc67 Sc 0.2327 0.91664 0.38066 0.0
Sc68 Sc 0.13227 0.90985 0.40456 0.0
O69 O 0.18804 0.9371 0.40634 0.0
C70 C 0.13679 0.92536 0.46993 0.0
C71 C 0.27906 0.92206 0.43926 0.0
C72 C 0.19411 0.84056 0.40403 0.0
C73 C 0.26062 0.00965 0.38828 0.0
C74 C 0.11305 0.00372 0.40483 0.0
C75 C 0.15981 0.91219 0.3397 0.0
O76 O 0.17061 0.94474 0.46878 0.0
O77 O 0.27239 0.90207 0.41655 0.0
O78 O 0.16241 0.85336 0.41698 0.0
O79 O 0.23235 0.01847 0.4059 0.0
O80 O 0.10522 0.96831 0.39464 0.0
O81 O 0.19442 0.92974 0.34423 0.0
O82 O 0.14239 0.01075 0.42224 0.0
O83 O 0.26456 0.97419 0.37755 0.0
O84 O 0.13819 0.89747 0.35972 0.0
O85 O 0.25642 0.9519 0.44732 0.0
O86 O 0.11602 0.9176 0.44806 0.0
O87 O 0.20498 0.85751 0.38137 0.0
Sc88 Sc 0.08056 0.86119 0.12646 0.0
Sc89 Sc 0.07274 0.76362 0.15375 0.0
Sc90 Sc 0.02226 0.78926 0.09105 0.0
O91 O 0.05655 0.80463 0.12407 0.0
C92 C 0.9873 0.87611 0.11315 0.0
C93 C 0.06708 0.83809 0.19192 0.0
C94 C 0.98283 0.73318 0.13798 0.0
C95 C 0.15178 0.80331 0.13848 0.0
C96 C 0.08006 0.85208 0.05995 0.0
C97 C 0.08297 0.7118 0.09737 0.0
O98 O 0.01816 0.88569 0.12866 0.0
O99 O 0.05023 0.80341 0.18697 0.0
O100 O 0.97813 0.75809 0.11753 0.0
O101 O 0.1409 0.83158 0.12153 0.0
O102 O 0.06368 0.81671 0.06012 0.0
O103 O 0.09763 0.72177 0.12147 0.0
O104 O 0.08205 0.87364 0.08205 0.0
O105 O 0.12913 0.79561 0.15918 0.0
O106 O 0.05446 0.73214 0.08519 0.0
O107 O 0.08325 0.85935 0.17226 0.0
O108 O 0.98743 0.84556 0.09624 0.0
O109 O 0.01601 0.73048 0.15201 0.0
Sc110 Sc 0.71123 0.01767 0.10158 0.0
Sc111 Sc 0.73608 0.0769 0.16033 0.0
Sc112 Sc 0.63543 0.07164 0.13618 0.0
O113 O 0.6946 0.05368 0.13333 0.0
C114 C 0.64179 0.06705 0.07048 0.0
C115 C 0.78366 0.08364 0.10223 0.0
C116 C 0.68636 0.15008 0.14029 0.0
C117 C 0.7746 0.98835 0.14734 0.0
C118 C 0.63045 0.97701 0.12891 0.0
C119 C 0.66325 0.07115 0.20111 0.0
O120 O 0.67904 0.05503 0.07056 0.0
O121 O 0.77415 0.09994 0.1258 0.0
O122 O 0.65702 0.13328 0.12678 0.0
O123 O 0.74784 0.97924 0.12875 0.0
O124 O 0.6184 0.00815 0.14321 0.0
O125 O 0.69972 0.05746 0.19659 0.0
O126 O 0.65862 0.97902 0.11011 0.0
O127 O 0.77431 0.02231 0.1606 0.0
O128 O 0.63962 0.08178 0.181 0.0
O129 O 0.765 0.05273 0.09218 0.0
O130 O 0.61987 0.06512 0.09246 0.0
O131 O 0.70154 0.13286 0.16178 0.0
Sc132 Sc 0.4871 0.71133 0.09209 0.0
Sc133 Sc 0.40307 0.74653 0.13135 0.0
Sc134 Sc 0.41963 0.64018 0.12185 0.0
O135 O 0.437 0.69962 0.11576 0.0
C136 C 0.44567 0.63896 0.05818 0.0
C137 C 0.42952 0.78507 0.07223 0.0
C138 C 0.33816 0.68521 0.10358 0.0
C139 C 0.49492 0.77797 0.14106 0.0
C140 C 0.51486 0.63489 0.13068 0.0
C141 C 0.39077 0.68008 0.18028 0.0
O142 O 0.46307 0.6738 0.05837 0.0
O143 O 0.40513 0.7828 0.09308 0.0
O144 O 0.35944 0.65242 0.10457 0.0
O145 O 0.51094 0.75355 0.12305 0.0
O146 O 0.47895 0.62473 0.13877 0.0
O147 O 0.39383 0.71725 0.17216 0.0
O148 O 0.52127 0.6623 0.11207 0.0
O149 O 0.45655 0.77822 0.14702 0.0
O150 O 0.39808 0.65007 0.16406 0.0
O151 O 0.46043 0.76155 0.06962 0.0
O152 O 0.43774 0.61974 0.0807 0.0
O153 O 0.349 0.71903 0.11461 0.0
Sc154 Sc 0.77874 0.4848 0.09104 0.0
Sc155 Sc 0.75343 0.42568 0.14978 0.0
Sc156 Sc 0.85533 0.43393 0.12682 0.0
O157 O 0.79535 0.44872 0.12308 0.0
C158 C 0.84773 0.43598 0.06145 0.0
C159 C 0.70299 0.42296 0.09251 0.0
C160 C 0.80923 0.35055 0.13001 0.0
C161 C 0.72377 0.51849 0.14107 0.0
C162 C 0.85971 0.52675 0.11617 0.0
C163 C 0.82738 0.42683 0.19113 0.0
O164 O 0.80981 0.44559 0.06117 0.0
O165 O 0.71144 0.40797 0.1165 0.0
O166 O 0.8389 0.37077 0.11913 0.0
O167 O 0.74523 0.52443 0.11898 0.0
O168 O 0.86952 0.49813 0.13337 0.0
O169 O 0.79035 0.43825 0.18682 0.0
O170 O 0.83238 0.52238 0.09717 0.0
O171 O 0.7225 0.48424 0.1541 0.0
O172 O 0.85272 0.42167 0.17117 0.0
O173 O 0.72352 0.45194 0.08161 0.0
O174 O 0.86974 0.44179 0.08303 0.0
O175 O 0.78112 0.36618 0.14545 0.0
Sc176 Sc 0.48981 0.76568 0.58402 0.0
Sc177 Sc 0.422 0.74702 0.6393 0.0
Sc178 Sc 0.43413 0.84641 0.61302 0.0
O179 O 0.4492 0.78613 0.61257 0.0
C180 C 0.52957 0.84869 0.60801 0.0
C181 C 0.51447 0.71193 0.63659 0.0
C182 C 0.42377 0.82348 0.6785 0.0
C183 C 0.42391 0.69315 0.58376 0.0
C184 C 0.44159 0.83017 0.54797 0.0
C185 C 0.34958 0.80366 0.61576 0.0
O186 O 0.52861 0.81877 0.5907 0.0
O187 O 0.47828 0.71301 0.64707 0.0
O188 O 0.41987 0.84776 0.6577 0.0
O189 O 0.45624 0.71058 0.57464 0.0
O190 O 0.44304 0.8555 0.56824 0.0
O191 O 0.36372 0.7764 0.6324 0.0
O192 O 0.455 0.79377 0.55053 0.0
O193 O 0.40552 0.70471 0.60603 0.0
O194 O 0.37124 0.83132 0.60416 0.0
O195 O 0.525 0.73339 0.61536 0.0
O196 O 0.49771 0.86125 0.62127 0.0
O197 O 0.43376 0.7859 0.67537 0.0
Sc198 Sc 0.63896 0.41957 0.62718 0.0
Sc199 Sc 0.74838 0.38974 0.64523 0.0
Sc200 Sc 0.72252 0.4625 0.5922 0.0
O201 O 0.70366 0.42329 0.62233 0.0
C202 C 0.64491 0.42833 0.56163 0.0
C203 C 0.67869 0.35124 0.61451 0.0
C204 C 0.7942 0.39483 0.58644 0.0
C205 C 0.67263 0.39687 0.68894 0.0
C206 C 0.6506 0.51321 0.62353 0.0
C207 C 0.78548 0.48124 0.6418 0.0
O208 O 0.62402 0.43388 0.58389 0.0
O209 O 0.69844 0.38496 0.61692 0.0
O210 O 0.77172 0.42406 0.57759 0.0
O211 O 0.64443 0.40304 0.67085 0.0
O212 O 0.67638 0.50791 0.60358 0.0
O213 O 0.78202 0.44604 0.65337 0.0
O214 O 0.63639 0.48354 0.63799 0.0
O215 O 0.71105 0.39625 0.68305 0.0
O216 O 0.76452 0.49216 0.62039 0.0
O217 O 0.6403 0.35538 0.61615 0.0
O218 O 0.68369 0.43323 0.56131 0.0
O219 O 0.78927 0.37815 0.61033 0.0
Sc220 Sc 0.07465 0.63198 0.63606 0.0
Sc221 Sc 0.08249 0.73315 0.65824 0.0
Sc222 Sc 0.01954 0.70764 0.60168 0.0
O223 O 0.0571 0.69122 0.63275 0.0
C224 C 0.06896 0.63839 0.57054 0.0
C225 C 0.15403 0.68152 0.63755 0.0
C226 C 0.08655 0.77941 0.59936 0.0
C227 C 0.07765 0.66235 0.70063 0.0
C228 C 0.9796 0.62661 0.62981 0.0
C229 C 0.99244 0.77101 0.64778 0.0
O230 O 0.06653 0.61617 0.59236 0.0
O231 O 0.13809 0.69767 0.65914 0.0
O232 O 0.05419 0.76142 0.59072 0.0
O233 O 0.08687 0.6374 0.68094 0.0
O234 O 0.98099 0.65515 0.61129 0.0
O235 O 0.02784 0.77142 0.65943 0.0
O236 O 0.01114 0.61522 0.64409 0.0
O237 O 0.06417 0.69856 0.69545 0.0
O238 O 0.98217 0.7443 0.62952 0.0
O239 O 0.13615 0.65205 0.6251 0.0
O240 O 0.05643 0.67532 0.57066 0.0
O241 O 0.1044 0.76974 0.62243 0.0
Sc242 Sc 0.86171 0.07177 0.63281 0.0
Sc243 Sc 0.7606 0.0764 0.65577 0.0
Sc244 Sc 0.78658 0.02166 0.59516 0.0
O245 O 0.80269 0.05528 0.62826 0.0
C246 C 0.85635 0.07268 0.56649 0.0
C247 C 0.81328 0.15212 0.64174 0.0
C248 C 0.7146 0.08911 0.59802 0.0
C249 C 0.8314 0.06481 0.69703 0.0
C250 C 0.86789 0.97818 0.62022 0.0
C251 C 0.72424 0.98812 0.63999 0.0
O252 O 0.87751 0.07072 0.58884 0.0
O253 O 0.79402 0.13271 0.66073 0.0
O254 O 0.73252 0.05816 0.58708 0.0
O255 O 0.85621 0.07664 0.67796 0.0
O256 O 0.83934 0.98192 0.60183 0.0
O257 O 0.72298 0.02181 0.65351 0.0
O258 O 0.87881 0.00757 0.63642 0.0
O259 O 0.7951 0.05244 0.69123 0.0
O260 O 0.75074 0.98096 0.62085 0.0
O261 O 0.84133 0.13473 0.62718 0.0
O262 O 0.81923 0.06057 0.56572 0.0
O263 O 0.72416 0.10348 0.62208 0.0
Sc264 Sc 0.92133 0.12284 0.90843 0.0
Sc265 Sc 0.9068 0.23131 0.88351 0.0
Sc266 Sc 0.97266 0.20398 0.94002 0.0
O267 O 0.93318 0.18643 0.9099 0.0
C268 C 0.92883 0.13535 0.97364 0.0
C269 C 0.85845 0.17176 0.91765 0.0
C270 C 0.90884 0.28079 0.94013 0.0
C271 C 0.90991 0.1522 0.84434 0.0
C272 C 0.01613 0.12524 0.91232 0.0
C273 C 0.00136 0.26078 0.89048 0.0
O274 O 0.93286 0.11132 0.95277 0.0
O275 O 0.8948 0.18603 0.91404 0.0
O276 O 0.93768 0.25863 0.95031 0.0
O277 O 0.90657 0.12609 0.86416 0.0
O278 O 0.01319 0.15165 0.93211 0.0
O279 O 0.96587 0.2621 0.87895 0.0
O280 O 0.98498 0.11289 0.89846 0.0
O281 O 0.91796 0.19011 0.84835 0.0
O282 O 0.00977 0.23768 0.9112 0.0
O283 O 0.85718 0.1333 0.91854 0.0
O284 O 0.93722 0.17315 0.97171 0.0
O285 O 0.89259 0.27419 0.91628 0.0
Sc286 Sc 0.35599 0.91817 0.88593 0.0
Sc287 Sc 0.25458 0.9115 0.86352 0.0
Sc288 Sc 0.28142 0.98134 0.91545 0.0
O289 O 0.29734 0.93839 0.88773 0.0
C290 C 0.3473 0.9333 0.9512 0.0
C291 C 0.30528 0.84012 0.88608 0.0
C292 C 0.21031 0.91388 0.9229 0.0
C293 C 0.32608 0.91302 0.82117 0.0
C294 C 0.36562 0.01308 0.88676 0.0
C295 C 0.2179 0.00264 0.86921 0.0
O296 O 0.37001 0.92767 0.92981 0.0
O297 O 0.28835 0.85495 0.86436 0.0
O298 O 0.22658 0.94852 0.92863 0.0
O299 O 0.35067 0.9045 0.84133 0.0
O300 O 0.33529 0.01694 0.90381 0.0
O301 O 0.21566 0.96569 0.86063 0.0
O302 O 0.37626 0.97891 0.87582 0.0
O303 O 0.28936 0.92626 0.82558 0.0
O304 O 0.24738 0.01508 0.88452 0.0
O305 O 0.33439 0.85875 0.89828 0.0
O306 O 0.31206 0.95 0.94934 0.0
O307 O 0.21988 0.89347 0.90088 0.0
Sc308 Sc 0.57722 0.35341 0.8982 0.0
Sc309 Sc 0.57773 0.25034 0.87943 0.0
Sc310 Sc 0.51479 0.28465 0.93468 0.0
O311 O 0.55603 0.29594 0.90399 0.0
C312 C 0.56544 0.35404 0.96454 0.0
C313 C 0.65772 0.3018 0.89452 0.0
C314 C 0.57798 0.20921 0.9405 0.0
C315 C 0.57866 0.31936 0.83489 0.0
C316 C 0.48083 0.36528 0.90281 0.0
C317 C 0.48416 0.22297 0.88787 0.0
O318 O 0.57266 0.37181 0.94138 0.0
O319 O 0.63876 0.27502 0.8801 0.0
O320 O 0.54805 0.23115 0.94937 0.0
O321 O 0.58722 0.34545 0.85378 0.0
O322 O 0.47806 0.3369 0.9213 0.0
O323 O 0.51924 0.21992 0.87615 0.0
O324 O 0.51469 0.3745 0.89052 0.0
O325 O 0.56532 0.28366 0.84079 0.0
O326 O 0.47699 0.24749 0.90801 0.0
O327 O 0.63944 0.33184 0.90645 0.0
O328 O 0.54834 0.31919 0.96584 0.0
O329 O 0.59374 0.2136 0.9161 0.0
Sc330 Sc 0.19751 0.49704 0.94424 0.0
Sc331 Sc 0.23599 0.56375 0.89278 0.0
Sc332 Sc 0.13035 0.56601 0.91052 0.0
O333 O 0.18811 0.54186 0.91553 0.0
C334 C 0.1148 0.47064 0.91136 0.0
C335 C 0.26019 0.46914 0.8957 0.0
C336 C 0.1645 0.57396 0.84732 0.0
C337 C 0.27855 0.55064 0.95301 0.0
C338 C 0.13136 0.55173 0.97673 0.0
C339 C 0.18648 0.6432 0.9135 0.0
O340 O 0.14434 0.46383 0.92854 0.0
O341 O 0.2616 0.5041 0.88372 0.0
O342 O 0.1369 0.57706 0.86611 0.0
O343 O 0.25182 0.52488 0.96128 0.0
O344 O 0.11337 0.56187 0.95412 0.0
O345 O 0.21654 0.62472 0.90186 0.0
O346 O 0.16381 0.52982 0.9769 0.0
O347 O 0.27665 0.56808 0.92906 0.0
O348 O 0.15208 0.62666 0.91918 0.0
O349 O 0.23627 0.46141 0.91632 0.0
O350 O 0.1062 0.50614 0.90173 0.0
O351 O 0.20163 0.5639 0.85313 0.0
H352 H 0.6231 0.10132 0.3301 0.0
H353 H 0.53028 0.18016 0.29341 0.0
H354 H 0.55203 0.15869 0.24637 0.0
H355 H 0.59859 0.11978 0.21588 0.0
H356 H 0.69447 0.04405 0.25199 0.0
H357 H 0.67014 0.06215 0.29926 0.0
C358 C 0.60722 0.11355 0.31185 0.0
C359 C 0.5747 0.1422 0.31541 0.0
C360 C 0.6206 0.10178 0.28483 0.0
C361 C 0.55519 0.15811 0.2914 0.0
C362 C 0.56769 0.14583 0.26449 0.0
C363 C 0.61416 0.10676 0.23399 0.0
C364 C 0.64834 0.08018 0.2302 0.0
C365 C 0.60054 0.11798 0.26098 0.0
C366 C 0.66817 0.06439 0.25414 0.0
C367 C 0.65422 0.0748 0.28118 0.0
H368 H 0.40118 0.6089 0.20955 0.0
H369 H 0.34644 0.72938 0.21623 0.0
H370 H 0.31763 0.71122 0.26218 0.0
H371 H 0.30815 0.66079 0.30085 0.0
H372 H 0.3674 0.54256 0.29518 0.0
H373 H 0.39362 0.55974 0.24834 0.0
C374 C 0.38303 0.63132 0.22104 0.0
C375 C 0.37605 0.67053 0.2093 0.0
C376 C 0.36686 0.62077 0.24755 0.0
C377 C 0.35268 0.69915 0.22474 0.0
C378 C 0.33591 0.68864 0.25097 0.0
C379 C 0.32622 0.63865 0.28906 0.0
C380 C 0.33507 0.60007 0.30108 0.0
C381 C 0.3426 0.64946 0.26255 0.0
C382 C 0.35966 0.57211 0.28609 0.0
C383 C 0.37486 0.58207 0.25943 0.0
H384 H 0.86217 0.3847 0.31863 0.0
H385 H 0.94296 0.29521 0.2804 0.0
H386 H 0.92383 0.32091 0.23368 0.0
H387 H 0.88391 0.36848 0.20398 0.0
H388 H 0.79967 0.4547 0.24225 0.0
H389 H 0.82069 0.43067 0.28898 0.0
C390 C 0.87587 0.37088 0.3001 0.0
C391 C 0.9044 0.33829 0.30303 0.0
C392 C 0.86416 0.38533 0.27344 0.0
C393 C 0.92106 0.32027 0.27875 0.0
C394 C 0.91018 0.33507 0.25208 0.0
C395 C 0.87043 0.38239 0.22255 0.0
C396 C 0.84067 0.41389 0.21965 0.0
C397 C 0.88184 0.36762 0.24921 0.0
C398 C 0.82276 0.43072 0.2439 0.0
C399 C 0.83476 0.41692 0.27058 0.0
H400 H 0.09735 0.86226 0.32236 0.0
H401 H 0.18893 0.94644 0.29075 0.0
H402 H 0.16575 0.93322 0.2427 0.0
H403 H 0.1218 0.89573 0.20967 0.0
H404 H 0.03275 0.80866 0.24092 0.0
H405 H 0.05244 0.82553 0.28924 0.0
C406 C 0.11219 0.87803 0.30504 0.0
C407 C 0.14502 0.90543 0.31035 0.0
C408 C 0.09909 0.86979 0.27739 0.0
C409 C 0.16381 0.92518 0.28744 0.0
C410 C 0.15049 0.91765 0.25992 0.0
C411 C 0.10616 0.88069 0.22697 0.0
C412 C 0.07552 0.85097 0.22148 0.0
C413 C 0.11842 0.88976 0.25464 0.0
C414 C 0.05624 0.83165 0.24438 0.0
C415 C 0.06764 0.84122 0.27203 0.0
H416 H 0.3877 0.86064 0.80659 0.0
H417 H 0.29661 0.94162 0.77022 0.0
H418 H 0.32083 0.9231 0.72298 0.0
H419 H 0.36691 0.88226 0.69204 0.0
H420 H 0.45406 0.79784 0.72919 0.0
H421 H 0.43255 0.81965 0.77615 0.0
C422 C 0.3732 0.87465 0.7884 0.0
C423 C 0.34046 0.9029 0.79212 0.0
C424 C 0.3867 0.86318 0.76141 0.0
C425 C 0.3218 0.91993 0.76811 0.0
C426 C 0.33573 0.90934 0.74108 0.0
C427 C 0.38157 0.86901 0.71043 0.0
C428 C 0.41252 0.83871 0.70704 0.0
C429 C 0.36808 0.88086 0.73747 0.0
C430 C 0.43042 0.82123 0.73113 0.0
C431 C 0.41804 0.83368 0.758 0.0
H432 H 0.64149 0.36741 0.81826 0.0
H433 H 0.54131 0.29491 0.78575 0.0
H434 H 0.56066 0.31431 0.7376 0.0
H435 H 0.60665 0.35168 0.70497 0.0
H436 H 0.71008 0.4191 0.73794 0.0
H437 H 0.6888 0.40199 0.78593 0.0
C438 C 0.62362 0.35606 0.80065 0.0
C439 C 0.58957 0.33023 0.80555 0.0
C440 C 0.63559 0.36646 0.77323 0.0
C441 C 0.56746 0.31495 0.78251 0.0
C442 C 0.57852 0.3261 0.75504 0.0
C443 C 0.62429 0.36289 0.72272 0.0
C444 C 0.65958 0.38714 0.71801 0.0
C445 C 0.61253 0.35188 0.75018 0.0
C446 C 0.68277 0.40059 0.74108 0.0
C447 C 0.67059 0.39082 0.76847 0.0
H448 H 0.13582 0.60709 0.71725 0.0
H449 H 0.04332 0.68941 0.75028 0.0
H450 H 0.06115 0.66802 0.79824 0.0
H451 H 0.10352 0.6264 0.83075 0.0
H452 H 0.1994 0.54799 0.79769 0.0
H453 H 0.17973 0.5674 0.74973 0.0
C454 C 0.11925 0.62022 0.7349 0.0
C455 C 0.08778 0.64957 0.73003 0.0
C456 C 0.13041 0.60848 0.76241 0.0
C457 C 0.06745 0.66676 0.7533 0.0
C458 C 0.07767 0.65447 0.78074 0.0
C459 C 0.11999 0.61326 0.81306 0.0
C460 C 0.1527 0.58525 0.81793 0.0
C461 C 0.10912 0.62538 0.78555 0.0
C462 C 0.17413 0.56938 0.79467 0.0
C463 C 0.16283 0.5805 0.76722 0.0
H464 H 0.88915 0.11819 0.7149 0.0
H465 H 0.80031 0.03069 0.74575 0.0
H466 H 0.81892 0.04836 0.79427 0.0
H467 H 0.85857 0.09101 0.82768 0.0
H468 H 0.94296 0.18198 0.79575 0.0
H469 H 0.92793 0.16045 0.74766 0.0
C470 C 0.87409 0.10244 0.73216 0.0
C471 C 0.8436 0.07274 0.72663 0.0
C472 C 0.88405 0.11361 0.75976 0.0
C473 C 0.82394 0.05348 0.74938 0.0
C474 C 0.83457 0.06365 0.77709 0.0
C475 C 0.87399 0.10579 0.81018 0.0
C476 C 0.90213 0.13789 0.81528 0.0
C477 C 0.86432 0.09397 0.78251 0.0
C478 C 0.92124 0.15728 0.7924 0.0
C479 C 0.91267 0.14494 0.76492 0.0
H480 H 0.43807 0.08528 0.37428 0.0
H481 H 0.41377 0.11595 0.46101 0.0
H482 H 0.34415 0.08951 0.45697 0.0
H483 H 0.29058 0.05648 0.42973 0.0
H484 H 0.31418 0.02025 0.34413 0.0
H485 H 0.38294 0.05132 0.34645 0.0
C486 C 0.41765 0.08562 0.39233 0.0
C487 C 0.43126 0.10254 0.41791 0.0
C488 C 0.37712 0.07042 0.38987 0.0
C489 C 0.40419 0.10323 0.44104 0.0
C490 C 0.36419 0.08834 0.43874 0.0
C491 C 0.3102 0.05644 0.41125 0.0
C492 C 0.29692 0.0369 0.38659 0.0
C493 C 0.35022 0.07221 0.41326 0.0
C494 C 0.32343 0.03584 0.36319 0.0
C495 C 0.36295 0.05305 0.36467 0.0
H496 H 0.3341 0.39557 0.40583 0.0
H497 H 0.42253 0.46299 0.3561 0.0
H498 H 0.46127 0.40014 0.34753 0.0
H499 H 0.4757 0.32889 0.36006 0.0
H500 H 0.38939 0.26204 0.41175 0.0
H501 H 0.34362 0.32157 0.41281 0.0
C502 C 0.36158 0.39651 0.39284 0.0
C503 C 0.37585 0.43421 0.38224 0.0
C504 C 0.38416 0.36032 0.38828 0.0
C505 C 0.41109 0.43459 0.36496 0.0
C506 C 0.43333 0.39861 0.35999 0.0
C507 C 0.44638 0.32683 0.37093 0.0
C508 C 0.43648 0.2913 0.3863 0.0
C509 C 0.42095 0.36163 0.37238 0.0
C510 C 0.39812 0.28921 0.40006 0.0
C511 C 0.37202 0.32336 0.40087 0.0
H512 H 0.03745 0.43183 0.36764 0.0
H513 H 0.10164 0.32802 0.4038 0.0
H514 H 0.16743 0.36115 0.39552 0.0
H515 H 0.2061 0.42254 0.38406 0.0
H516 H 0.14321 0.52886 0.35071 0.0
H517 H 0.07811 0.49121 0.35068 0.0
C518 C 0.06588 0.41632 0.37337 0.0
C519 C 0.06444 0.37794 0.38697 0.0
C520 C 0.104 0.43589 0.36893 0.0
C521 C 0.10164 0.35803 0.39397 0.0
C522 C 0.13943 0.37682 0.38909 0.0
C523 C 0.17835 0.43731 0.3762 0.0
C524 C 0.17947 0.4787 0.36793 0.0
C525 C 0.14087 0.41622 0.37746 0.0
C526 C 0.14332 0.49704 0.35731 0.0
C527 C 0.1059 0.47568 0.35764 0.0
H528 H 0.14007 0.0813 0.39858 0.0
H529 H 0.03295 0.00514 0.38678 0.0
H530 H 0.99322 0.06499 0.37107 0.0
H531 H 0.98724 0.13981 0.36622 0.0
H532 H 0.09424 0.21576 0.37945 0.0
H533 H 0.13633 0.15471 0.38793 0.0
C534 C 0.10799 0.07782 0.3926 0.0
C535 C 0.08904 0.0392 0.39455 0.0
C536 C 0.08563 0.11213 0.38339 0.0
C537 C 0.04793 0.03478 0.38586 0.0
C538 C 0.02532 0.0689 0.37677 0.0
C539 C 0.02009 0.14295 0.36992 0.0
C540 C 0.03759 0.18225 0.37239 0.0
C541 C 0.04365 0.10786 0.37602 0.0
C542 C 0.0801 0.18581 0.37749 0.0
C543 C 0.10403 0.15098 0.38271 0.0
H544 H 0.955 0.91573 0.15917 0.0
H545 H 0.93023 0.88615 0.07238 0.0
H546 H 0.86071 0.91345 0.07674 0.0
H547 H 0.8069 0.94514 0.10463 0.0
H548 H 0.83047 0.97961 0.19058 0.0
H549 H 0.90003 0.94987 0.1874 0.0
C550 C 0.93455 0.91595 0.14115 0.0
C551 C 0.94787 0.89892 0.11548 0.0
C552 C 0.89406 0.93149 0.14384 0.0
C553 C 0.92079 0.89894 0.0924 0.0
C554 C 0.88088 0.9143 0.09489 0.0
C555 C 0.82677 0.94533 0.12297 0.0
C556 C 0.81311 0.96374 0.14802 0.0
C557 C 0.86703 0.93008 0.12056 0.0
C558 C 0.83998 0.96493 0.1712 0.0
C559 C 0.8799 0.9484 0.16926 0.0
H560 H 0.57544 0.7927 0.12948 0.0
H561 H 0.47056 0.844 0.17316 0.0
H562 H 0.50481 0.91049 0.1754 0.0
H563 H 0.56006 0.95663 0.15824 0.0
H564 H 0.66238 0.90395 0.11232 0.0
H565 H 0.63326 0.8361 0.11743 0.0
C566 C 0.56029 0.81807 0.14009 0.0
C567 C 0.52007 0.81335 0.15054 0.0
C568 C 0.57926 0.8566 0.14022 0.0
C569 C 0.5014 0.84663 0.16462 0.0
C570 C 0.52078 0.88493 0.16564 0.0
C571 C 0.57607 0.93026 0.14957 0.0
C572 C 0.61279 0.9358 0.13427 0.0
C573 C 0.5589 0.89076 0.15231 0.0
C574 C 0.63346 0.90105 0.12355 0.0
C575 C 0.61704 0.86196 0.12662 0.0
H576 H 0.59502 0.65763 0.12764 0.0
H577 H 0.51566 0.56237 0.15985 0.0
H578 H 0.57588 0.52091 0.1721 0.0
H579 H 0.64966 0.50716 0.16599 0.0
H580 H 0.72821 0.60069 0.13073 0.0
H581 H 0.66975 0.64793 0.12815 0.0
C582 C 0.59084 0.62798 0.13763 0.0
C583 C 0.55091 0.61263 0.14212 0.0
C584 C 0.62548 0.60404 0.14411 0.0
C585 C 0.54607 0.57467 0.15577 0.0
C586 C 0.58049 0.55091 0.16277 0.0
C587 C 0.65431 0.53833 0.15864 0.0
C588 C 0.693 0.55025 0.14814 0.0
C589 C 0.62023 0.56463 0.156 0.0
C590 C 0.69854 0.59071 0.13863 0.0
C591 C 0.66509 0.61759 0.13694 0.0
H592 H 0.93192 0.70322 0.09852 0.0
H593 H 0.96898 0.68614 0.18479 0.0
H594 H 0.93394 0.61973 0.18604 0.0
H595 H 0.89816 0.56359 0.16085 0.0
H596 H 0.86588 0.58122 0.07356 0.0
H597 H 0.8944 0.64979 0.07441 0.0
C598 C 0.93137 0.6856 0.11789 0.0
C599 C 0.95286 0.69963 0.14152 0.0
C600 C 0.91303 0.64684 0.11803 0.0
C601 C 0.95244 0.67599 0.1663 0.0
C602 C 0.93287 0.63782 0.16693 0.0
C603 C 0.89769 0.58242 0.14205 0.0
C604 C 0.88007 0.56716 0.11721 0.0
C605 C 0.91425 0.62228 0.14258 0.0
C606 C 0.87917 0.59213 0.09304 0.0
C607 C 0.89533 0.63152 0.09346 0.0
H608 H 0.70954 0.92001 0.60887 0.0
H609 H 0.65868 0.99256 0.67651 0.0
H610 H 0.59388 0.9549 0.67318 0.0
H611 H 0.54945 0.90602 0.64782 0.0
H612 H 0.60094 0.83604 0.57903 0.0
H613 H 0.66735 0.86859 0.58594 0.0
C614 C 0.68467 0.92723 0.6233 0.0
C615 C 0.68903 0.95944 0.64271 0.0
C616 C 0.64711 0.9065 0.62067 0.0
C617 C 0.65628 0.96803 0.66126 0.0
C618 C 0.61901 0.94675 0.65921 0.0
C619 C 0.57518 0.89791 0.63433 0.0
C620 C 0.56984 0.86894 0.61271 0.0
C621 C 0.61364 0.91684 0.63836 0.0
C622 C 0.60382 0.85842 0.59572 0.0
C623 C 0.64201 0.87691 0.59968 0.0
H624 H 0.58865 0.538 0.6589 0.0
H625 H 0.67863 0.58399 0.59982 0.0
H626 H 0.64891 0.65233 0.60325 0.0
H627 H 0.59209 0.69657 0.61761 0.0
H628 H 0.49984 0.65068 0.675 0.0
H629 H 0.53674 0.58552 0.67839 0.0
C630 C 0.60209 0.56305 0.64705 0.0
C631 C 0.63521 0.55546 0.6286 0.0
C632 C 0.58453 0.60249 0.64882 0.0
C633 C 0.65258 0.58856 0.61374 0.0
C634 C 0.63572 0.62783 0.61574 0.0
C635 C 0.58041 0.67274 0.6314 0.0
C636 C 0.54266 0.67836 0.64547 0.0
C637 C 0.60087 0.63481 0.63245 0.0
C638 C 0.52858 0.64723 0.66362 0.0
C639 C 0.54946 0.60969 0.66538 0.0
H640 H 0.96151 0.55656 0.65997 0.0
H641 H 0.90536 0.65291 0.61033 0.0
H642 H 0.83892 0.61971 0.61399 0.0
H643 H 0.79793 0.5604 0.62666 0.0
H644 H 0.85269 0.46174 0.67455 0.0
H645 H 0.91761 0.49947 0.67703 0.0
C646 C 0.93468 0.57043 0.65017 0.0
C647 C 0.93893 0.60679 0.63438 0.0
C648 C 0.89601 0.55092 0.65214 0.0
C649 C 0.90354 0.62452 0.62212 0.0
C650 C 0.86525 0.60569 0.6243 0.0
C651 C 0.82376 0.54734 0.63812 0.0
C652 C 0.82044 0.50798 0.65 0.0
C653 C 0.86132 0.56843 0.63861 0.0
C654 C 0.85421 0.49196 0.66512 0.0
C655 C 0.8916 0.51334 0.66628 0.0
H656 H 0.91958 0.94952 0.66182 0.0
H657 H 0.85911 0.91343 0.58479 0.0
H658 H 0.88715 0.84475 0.58922 0.0
H659 H 0.93121 0.79567 0.61305 0.0
H660 H 0.99571 0.8307 0.68856 0.0
H661 H 0.96274 0.89838 0.687 0.0
C662 C 0.91272 0.92669 0.64595 0.0
C663 C 0.88737 0.93703 0.62294 0.0
C664 C 0.92913 0.88672 0.64851 0.0
C665 C 0.87853 0.90673 0.60275 0.0
C666 C 0.89443 0.86718 0.60526 0.0
C667 C 0.93747 0.81763 0.62961 0.0
C668 C 0.96588 0.80791 0.65093 0.0
C669 C 0.91985 0.85688 0.62794 0.0
C670 C 0.97385 0.83723 0.67193 0.0
C671 C 0.95532 0.87612 0.67089 0.0
H672 H 0.03617 0.06898 0.87184 0.0
H673 H 0.08983 0.14568 0.93612 0.0
H674 H 0.15809 0.11957 0.92457 0.0
H675 H 0.20175 0.07154 0.89917 0.0
H676 H 0.14866 0.99126 0.83688 0.0
H677 H 0.08125 0.02347 0.84404 0.0
C678 C 0.06276 0.08003 0.88334 0.0
C679 C 0.05757 0.10887 0.90514 0.0
C680 C 0.10216 0.0647 0.87671 0.0
C681 C 0.0926 0.12312 0.91952 0.0
C682 C 0.1318 0.1084 0.91282 0.0
C683 C 0.17576 0.06157 0.8866 0.0
C684 C 0.1804 0.02876 0.8676 0.0
C685 C 0.13685 0.07881 0.89175 0.0
C686 C 0.1461 0.01639 0.85166 0.0
C687 C 0.1074 0.0345 0.85597 0.0
H688 H 0.34502 0.09236 0.89735 0.0
H689 H 0.44026 0.01703 0.86003 0.0
H690 H 0.4826 0.07771 0.85229 0.0
H691 H 0.49591 0.1502 0.86149 0.0
H692 H 0.40208 0.22485 0.90099 0.0
H693 H 0.35534 0.16635 0.90176 0.0
C694 C 0.37496 0.08915 0.88739 0.0
C695 C 0.38981 0.05008 0.87985 0.0
C696 C 0.3993 0.12404 0.88326 0.0
C697 C 0.42826 0.04667 0.86637 0.0
C698 C 0.45249 0.08136 0.8619 0.0
C699 C 0.46488 0.15406 0.86961 0.0
C700 C 0.45272 0.19168 0.88155 0.0
C701 C 0.43876 0.11999 0.87096 0.0
C702 C 0.41236 0.19608 0.89195 0.0
C703 C 0.38572 0.16258 0.89258 0.0
H704 H 0.40189 0.34067 0.91169 0.0
H705 H 0.47304 0.43958 0.87597 0.0
H706 H 0.40947 0.47748 0.86587 0.0
H707 H 0.33465 0.4855 0.87181 0.0
H708 H 0.26402 0.38744 0.90916 0.0
H709 H 0.32646 0.34572 0.91315 0.0
C710 C 0.40361 0.37051 0.90165 0.0
C711 C 0.44237 0.38759 0.89513 0.0
C712 C 0.36697 0.39211 0.89592 0.0
C713 C 0.44376 0.42585 0.8815 0.0
C714 C 0.40738 0.44752 0.87567 0.0
C715 C 0.33254 0.45453 0.88006 0.0
C716 C 0.2945 0.4398 0.89031 0.0
C717 C 0.36887 0.43129 0.8833 0.0
C718 C 0.29275 0.39966 0.90114 0.0
C719 C 0.32857 0.37593 0.90371 0.0
H720 H 0.13799 0.3906 0.9095 0.0
H721 H 0.03641 0.47187 0.89032 0.0
H722 H 0.99444 0.41333 0.87615 0.0
H723 H 0.98407 0.33879 0.8748 0.0
H724 H 0.085 0.25761 0.89549 0.0
H725 H 0.13026 0.31647 0.90242 0.0
C726 C 0.10668 0.39551 0.90218 0.0
C727 C 0.09002 0.43541 0.90158 0.0
C728 C 0.08281 0.36178 0.89394 0.0
C729 C 0.0498 0.44139 0.89131 0.0
C730 C 0.02582 0.40795 0.88311 0.0
C731 C 0.01636 0.33392 0.87977 0.0
C732 C 0.03113 0.29392 0.88474 0.0
C733 C 0.0417 0.36794 0.88493 0.0
C734 C 0.07294 0.28815 0.89156 0.0
C735 C 0.09867 0.32179 0.89589 0.0
H736 H 0.66269 0.26743 0.39219 0.0
H737 H 0.70626 0.15716 0.43304 0.0
H738 H 0.77306 0.19009 0.44157 0.0
H739 H 0.82166 0.24572 0.42955 0.0
H740 H 0.77768 0.35388 0.38674 0.0
H741 H 0.70723 0.32691 0.38774 0.0
C742 C 0.68671 0.2505 0.4031 0.0
C743 C 0.68026 0.20941 0.41112 0.0
C744 C 0.72452 0.2695 0.40775 0.0
C745 C 0.711 0.18846 0.42612 0.0
C746 C 0.74904 0.20732 0.43099 0.0
C747 C 0.79619 0.26389 0.42145 0.0
C748 C 0.80421 0.30151 0.40806 0.0
C749 C 0.75652 0.24721 0.4209 0.0
C750 C 0.77169 0.3251 0.3974 0.0
C751 C 0.73175 0.30933 0.39756 0.0
H752 H 0.27865 0.68114 0.4451 0.0
H753 H 0.36751 0.72218 0.38409 0.0
H754 H 0.33724 0.79097 0.38497 0.0
H755 H 0.27338 0.82884 0.3905 0.0
H756 H 0.17762 0.78422 0.44563 0.0
H757 H 0.22207 0.72657 0.45942 0.0
C758 C 0.2926 0.706 0.43325 0.0
C759 C 0.3242 0.69712 0.41399 0.0
C760 C 0.27221 0.74366 0.4316 0.0
C761 C 0.3429 0.72877 0.39884 0.0
C762 C 0.3249 0.76765 0.39886 0.0
C763 C 0.26228 0.80689 0.40588 0.0
C764 C 0.22168 0.80946 0.41613 0.0
C765 C 0.28737 0.77382 0.41299 0.0
C766 C 0.20835 0.78189 0.43682 0.0
C767 C 0.23379 0.7492 0.44477 0.0
H768 H 0.27498 0.65639 0.13175 0.0
H769 H 0.30781 0.71633 0.05459 0.0
H770 H 0.24655 0.76025 0.05764 0.0
H771 H 0.19529 0.79338 0.08922 0.0
H772 H 0.17515 0.74014 0.17144 0.0
H773 H 0.22063 0.68388 0.16045 0.0
C774 C 0.26727 0.67758 0.11488 0.0
C775 C 0.2959 0.68433 0.0936 0.0
C776 C 0.23593 0.70633 0.11897 0.0
C777 C 0.28593 0.71115 0.07144 0.0
C778 C 0.2518 0.73726 0.07373 0.0
C779 C 0.20113 0.76958 0.10468 0.0
C780 C 0.18234 0.77156 0.13121 0.0
C781 C 0.22875 0.73743 0.09866 0.0
C782 C 0.18957 0.73994 0.1509 0.0
C783 C 0.21529 0.70727 0.14462 0.0
H784 H 0.74937 0.32101 0.09796 0.0
H785 H 0.85315 0.28521 0.149 0.0
H786 H 0.8242 0.2163 0.15433 0.0
H787 H 0.76362 0.17295 0.15251 0.0
H788 H 0.65745 0.20875 0.10337 0.0
H789 H 0.69304 0.27186 0.08924 0.0
C790 C 0.76634 0.29736 0.10919 0.0
C791 C 0.80317 0.30751 0.12308 0.0
C792 C 0.74832 0.25894 0.11341 0.0
C793 C 0.82508 0.27746 0.13788 0.0
C794 C 0.80808 0.23853 0.14137 0.0
C795 C 0.7481 0.19439 0.13859 0.0
C796 C 0.70737 0.187 0.12973 0.0
C797 C 0.76865 0.23004 0.13066 0.0
C798 C 0.68839 0.21438 0.11098 0.0
C799 C 0.70879 0.25026 0.10286 0.0
H800 H 0.17763 0.75861 0.64804 0.0
H801 H 0.20779 0.65291 0.59722 0.0
H802 H 0.26786 0.68933 0.57827 0.0
H803 H 0.31707 0.74632 0.58325 0.0
H804 H 0.28683 0.84949 0.63597 0.0
H805 H 0.21916 0.81994 0.64582 0.0
C806 C 0.19708 0.74338 0.63268 0.0
C807 C 0.18923 0.70263 0.62468 0.0
C808 C 0.23069 0.76447 0.62185 0.0
C809 C 0.21397 0.68393 0.60415 0.0
C810 C 0.24798 0.70482 0.59322 0.0
C811 C 0.29458 0.76316 0.59567 0.0
C812 C 0.30624 0.79969 0.60906 0.0
C813 C 0.25724 0.74458 0.60267 0.0
C814 C 0.27782 0.82153 0.62533 0.0
C815 C 0.23976 0.80411 0.63149 0.0
H816 H 0.7566 0.19594 0.67034 0.0
H817 H 0.83206 0.19938 0.59555 0.0
H818 H 0.79497 0.26067 0.57959 0.0
H819 H 0.74065 0.31334 0.58718 0.0
H820 H 0.66219 0.30471 0.66009 0.0
H821 H 0.70111 0.245 0.67666 0.0
C822 C 0.76562 0.21037 0.65074 0.0
C823 C 0.79741 0.19326 0.63429 0.0
C824 C 0.7435 0.24455 0.64138 0.0
C825 C 0.80829 0.21236 0.60888 0.0
C826 C 0.78692 0.24725 0.59968 0.0
C827 C 0.73205 0.29792 0.60652 0.0
C828 C 0.69869 0.31271 0.6224 0.0
C829 C 0.75431 0.26344 0.6157 0.0
C830 C 0.68745 0.29309 0.64744 0.0
C831 C 0.70994 0.25939 0.65701 0.0
H832 H 0.8203 0.23186 0.94668 0.0
H833 H 0.81884 0.16609 0.86816 0.0
H834 H 0.76133 0.20848 0.85159 0.0
H835 H 0.70879 0.25982 0.86088 0.0
H836 H 0.70364 0.32066 0.94127 0.0
H837 H 0.76744 0.28578 0.95554 0.0
C838 C 0.80699 0.22691 0.92604 0.0
C839 C 0.82272 0.19573 0.90871 0.0
C840 C 0.7735 0.2509 0.91696 0.0
C841 C 0.80625 0.18953 0.88188 0.0
C842 C 0.77382 0.21395 0.87237 0.0
C843 C 0.72209 0.26616 0.88134 0.0
C844 C 0.70147 0.29249 0.90009 0.0
C845 C 0.75695 0.24427 0.88988 0.0
C846 C 0.71919 0.3008 0.92638 0.0
C847 C 0.75524 0.28031 0.93468 0.0
H848 H 0.22685 0.81682 0.87999 0.0
H849 H 0.33982 0.78567 0.92319 0.0
H850 H 0.30669 0.72471 0.94317 0.0
H851 H 0.24968 0.67559 0.94106 0.0
H852 H 0.13843 0.70641 0.89612 0.0
H853 H 0.16591 0.77451 0.88554 0.0
C854 C 0.24426 0.79689 0.89393 0.0
C855 C 0.28604 0.8046 0.89941 0.0
C856 C 0.22498 0.76279 0.90546 0.0
C857 C 0.30785 0.77947 0.9182 0.0
C858 C 0.28886 0.74501 0.92975 0.0
C859 C 0.23094 0.69808 0.93 0.0
C860 C 0.19271 0.68652 0.91883 0.0
C861 C 0.24792 0.73578 0.92268 0.0
C862 C 0.16799 0.71521 0.90481 0.0
C863 C 0.18407 0.7536 0.89828 0.0
H864 H 0.59925 0.19129 0.5172 0.0
H865 H 0.56677 0.06829 0.49197 0.0
H866 H 0.60818 0.03998 0.52994 0.0
H867 H 0.65956 0.04934 0.56648 0.0
H868 H 0.69476 0.171 0.59226 0.0
H869 H 0.64593 0.20078 0.55825 0.0
C870 C 0.6006 0.15836 0.52043 0.0
C871 C 0.58033 0.13192 0.50153 0.0
C872 C 0.62527 0.14206 0.54219 0.0
C873 C 0.58246 0.08931 0.50595 0.0
C874 C 0.60617 0.07304 0.52765 0.0
C875 C 0.65619 0.08243 0.56488 0.0
C876 C 0.681 0.108 0.58145 0.0
C877 C 0.6287 0.09902 0.54525 0.0
C878 C 0.67591 0.15075 0.57963 0.0
C879 C 0.64823 0.16769 0.56008 0.0
H880 H 0.46389 0.64564 0.54581 0.0
H881 H 0.34397 0.66573 0.58267 0.0
H882 H 0.31339 0.61801 0.54892 0.0
H883 H 0.3198 0.57744 0.50523 0.0
H884 H 0.44005 0.5598 0.46808 0.0
H885 H 0.47148 0.59903 0.50597 0.0
C886 C 0.43111 0.63925 0.5467 0.0
C887 C 0.40615 0.65975 0.56644 0.0
C888 C 0.41379 0.61217 0.52713 0.0
C889 C 0.36386 0.65053 0.56761 0.0
C890 C 0.34634 0.62334 0.54824 0.0
C891 C 0.35301 0.5812 0.50586 0.0
C892 C 0.3775 0.56591 0.48369 0.0
C893 C 0.37086 0.60485 0.52739 0.0
C894 C 0.42045 0.57143 0.48473 0.0
C895 C 0.43845 0.59405 0.50633 0.0
H896 H 0.92386 0.30739 0.50789 0.0
H897 H 0.92225 0.42775 0.46958 0.0
H898 H 0.87717 0.45293 0.50657 0.0
H899 H 0.83191 0.43902 0.54616 0.0
H900 H 0.83445 0.32058 0.58649 0.0
H901 H 0.88548 0.29624 0.5522 0.0
C902 C 0.91443 0.33936 0.50798 0.0
C903 C 0.92585 0.3654 0.48564 0.0
C904 C 0.88796 0.35371 0.52924 0.0
C905 C 0.91352 0.40682 0.48624 0.0
C906 C 0.88755 0.42128 0.50733 0.0
C907 C 0.84364 0.40785 0.54752 0.0
C908 C 0.82817 0.38095 0.56803 0.0
C909 C 0.8734 0.39461 0.52826 0.0
C910 C 0.84489 0.34127 0.57023 0.0
C911 C 0.87424 0.32753 0.55077 0.0
H912 H 0.04331 0.82742 0.56371 0.0
H913 H 0.16699 0.80563 0.59317 0.0
H914 H 0.19384 0.85327 0.55763 0.0
H915 H 0.18203 0.89555 0.5145 0.0
H916 H 0.05733 0.91432 0.4854 0.0
H917 H 0.03102 0.87397 0.52455 0.0
C918 C 0.07618 0.83328 0.56258 0.0
C919 C 0.10321 0.81242 0.58089 0.0
C920 C 0.09118 0.86028 0.54198 0.0
C921 C 0.14556 0.82111 0.57938 0.0
C922 C 0.16087 0.84826 0.55891 0.0
C923 C 0.14908 0.89162 0.51719 0.0
C924 C 0.12168 0.9079 0.49692 0.0
C925 C 0.13401 0.86732 0.5396 0.0
C926 C 0.07909 0.90204 0.50054 0.0
C927 C 0.06398 0.87881 0.52289 0.0
H928 H 0.17472 0.95304 0.96714 0.0
H929 H 0.1794 0.83514 0.9263 0.0
H930 H 0.1377 0.80535 0.96407 0.0
H931 H 0.10337 0.81224 1.01089 0.0
H932 H 0.09979 0.93164 0.05024 0.0
H933 H 0.1371 0.96104 1.01097 0.0
C934 C 0.16651 0.92083 0.96626 0.0
C935 C 0.18092 0.89632 0.94393 0.0
C936 C 0.1426 0.904 0.98804 0.0
C937 C 0.16921 0.85476 0.94324 0.0
C938 C 0.14532 0.83768 0.96493 0.0
C939 C 0.11029 0.84476 1.01067 0.0
C940 C 0.09893 0.86942 0.03386 0.0
C941 C 0.13233 0.86187 0.98778 0.0
C942 C 0.10836 0.91158 0.03305 0.0
C943 C 0.12978 0.92861 1.0105 0.0
H944 H 0.68064 0.0939 0.02226 0.0
H945 H 0.561 0.0858 0.06185 0.0
H946 H 0.53087 0.12718 0.02467 0.0
H947 H 0.53874 0.1702 0.98302 0.0
H948 H 0.65703 0.17855 0.94204 0.0
H949 H 0.68713 0.1325 0.97737 0.0
C950 C 0.64787 0.1006 0.02249 0.0
C951 C 0.62337 0.08691 0.04515 0.0
C952 C 0.63042 0.12488 1.00089 0.0
C953 C 0.58088 0.09606 0.04497 0.0
C954 C 0.56348 0.11989 0.02368 0.0
C955 C 0.57108 0.16177 0.98167 0.0
C956 C 0.59564 0.17816 0.96006 0.0
C957 C 0.58807 0.13525 1.00193 0.0
C958 C 0.63736 0.16636 0.95843 0.0
C959 C 0.65464 0.14014 0.97872 0.0
H960 H 0.33279 0.6156 0.95183 0.0
H961 H 0.30388 0.50448 0.9973 0.0
H962 H 0.35821 0.51875 0.03088 0.0
H963 H 0.40912 0.56523 0.05014 0.0
H964 H 0.43652 0.67881 1.00741 0.0
H965 H 0.38891 0.66034 0.96962 0.0
C966 C 0.33867 0.59437 0.96894 0.0
C967 C 0.31367 0.55932 0.97216 0.0
C968 C 0.36997 0.60299 0.98867 0.0
C969 C 0.32194 0.53208 0.99446 0.0
C970 C 0.35327 0.54004 1.01368 0.0
C971 C 0.40543 0.58573 0.03234 0.0
C972 C 0.42626 0.62355 0.03189 0.0
C973 C 0.37683 0.57578 1.01136 0.0
C974 C 0.4211 0.64941 1.0084 0.0
C975 C 0.39343 0.63909 0.9869 0.0
H976 H 0.81088 0.41012 1.01274 0.0
H977 H 0.92786 0.41226 0.05627 0.0
H978 H 0.95743 0.36624 0.02165 0.0
H979 H 0.94868 0.3201 0.98195 0.0
H980 H 0.83387 0.31928 0.93636 0.0
H981 H 0.80493 0.37005 0.96879 0.0
C982 C 0.84301 0.40108 0.01437 0.0
C983 C 0.86676 0.41417 0.03741 0.0
C984 C 0.86011 0.37433 0.99429 0.0
C985 C 0.90853 0.40239 0.03902 0.0
C986 C 0.92559 0.3759 0.01924 0.0
C987 C 0.91737 0.33116 0.97901 0.0
C988 C 0.89294 0.31499 0.9574 0.0
C989 C 0.90135 0.36075 0.99733 0.0
C990 C 0.8529 0.33057 0.95331 0.0
C991 C 0.83642 0.35969 0.97178 0.0
H992 H 0.41408 0.90614 0.53347 0.0
H993 H 0.41702 0.78087 0.50422 0.0
H994 H 0.36926 0.7985 0.46626 0.0
H995 H 0.32089 0.84843 0.44429 0.0
H996 H 0.31804 0.97289 0.47534 0.0
H997 H 0.37133 0.95656 0.50936 0.0
C998 C 0.40487 0.88272 0.51858 0.0
C999 C 0.41903 0.84219 0.52196 0.0
C1000 C 0.37681 0.89282 0.49718 0.0
C1001 C 0.40677 0.81241 0.50222 0.0
C1002 C 0.37915 0.82239 0.48056 0.0
C1003 C 0.33232 0.872 0.45827 0.0
C1004 C 0.31477 0.9116 0.45751 0.0
C1005 C 0.36304 0.86231 0.47827 0.0
C1006 C 0.33022 0.94188 0.47576 0.0
C1007 C 0.36091 0.93267 0.49524 0.0
H1008 H 0.6793 0.3998 0.51264 0.0
H1009 H 0.56218 0.41821 0.5542 0.0
H1010 H 0.5276 0.37945 0.51756 0.0
H1011 H 0.53139 0.33359 0.47709 0.0
H1012 H 0.64757 0.31431 0.43498 0.0
H1013 H 0.68151 0.36055 0.46814 0.0
C1014 C 0.6461 0.39604 0.51342 0.0
C1015 C 0.62359 0.41151 0.5365 0.0
C1016 C 0.62621 0.37318 0.4923 0.0
C1017 C 0.58051 0.40639 0.53697 0.0
C1018 C 0.5606 0.38408 0.51601 0.0
C1019 C 0.56407 0.33991 0.4749 0.0
C1020 C 0.58705 0.31992 0.45386 0.0
C1021 C 0.58331 0.36624 0.49413 0.0
C1022 C 0.62918 0.32907 0.45103 0.0
C1023 C 0.64864 0.35538 0.47012 0.0
H1024 H 0.17714 0.54177 0.48219 0.0
H1025 H 0.18221 0.66139 0.44342 0.0
H1026 H 0.13567 0.6887 0.47939 0.0
H1027 H 0.09614 0.67922 0.52347 0.0
H1028 H 0.09112 0.55874 0.56128 0.0
H1029 H 0.13438 0.53131 0.52395 0.0
C1030 C 0.16803 0.57382 0.48152 0.0
C1031 C 0.18357 0.59952 0.46022 0.0
C1032 C 0.14099 0.58922 0.50211 0.0
C1033 C 0.17086 0.64086 0.45956 0.0
C1034 C 0.14421 0.65653 0.48017 0.0
C1035 C 0.10393 0.64683 0.52331 0.0
C1036 C 0.09033 0.62125 0.54538 0.0
C1037 C 0.12934 0.63107 0.50174 0.0
C1038 C 0.1011 0.57935 0.54476 0.0
C1039 C 0.12604 0.56354 0.52341 0.0
H1040 H 0.82 0.09401 0.5162 0.0
H1041 H 0.93642 0.09577 0.56038 0.0
H1042 H 0.9673 0.13499 0.52251 0.0
H1043 H 0.96061 0.17313 0.47876 0.0
H1044 H 0.84566 0.17149 0.43321 0.0
H1045 H 0.81515 0.12777 0.46954 0.0
C1046 C 0.85225 0.1025 0.51738 0.0
C1047 C 0.87556 0.09217 0.54141 0.0
C1048 C 0.87012 0.12545 0.49538 0.0
C1049 C 0.91742 0.10346 0.5424 0.0
C1050 C 0.93525 0.12601 0.52071 0.0
C1051 C 0.92892 0.16308 0.47659 0.0
C1052 C 0.90525 0.17638 0.45352 0.0
C1053 C 0.91172 0.1379 0.49742 0.0
C1054 C 0.86447 0.16226 0.45092 0.0
C1055 C 0.84699 0.13722 0.47172 0.0
H1056 H 0.89746 0.17938 0.0177 0.0
H1057 H 0.9187 0.05535 0.98892 0.0
H1058 H 0.87982 0.02877 0.02874 0.0
H1059 H 0.83367 0.04071 0.06825 0.0
H1060 H 0.80889 0.16396 0.0966 0.0
H1061 H 0.85611 0.19098 0.06076 0.0
C1062 C 0.89422 0.1465 0.02039 0.0
C1063 C 0.91067 0.11941 1.00009 0.0
C1064 C 0.87101 0.13135 0.04314 0.0
C1065 C 0.90609 0.07692 1.00398 0.0
C1066 C 0.88381 0.06167 0.02675 0.0
C1067 C 0.83891 0.07353 0.06681 0.0
C1068 C 0.81735 0.10043 0.08473 0.0
C1069 C 0.86515 0.08862 0.04589 0.0
C1070 C 0.82508 0.14271 0.08304 0.0
C1071 C 0.85182 0.15809 0.06239 0.0
H1072 H 0.41902 0.89334 0.96274 0.0
H1073 H 0.30385 0.9304 1.00075 0.0
H1074 H 0.31994 0.88951 0.0424 0.0
H1075 H 0.36401 0.83815 0.06625 0.0
H1076 H 0.47819 0.80068 0.02681 0.0
H1077 H 0.46487 0.8466 0.98768 0.0
C1078 C 0.39761 0.89309 0.98026 0.0
C1079 C 0.36015 0.9148 0.97839 0.0
C1080 C 0.40657 0.86886 1.00387 0.0
C1081 C 0.33297 0.91404 1.00148 0.0
C1082 C 0.342 0.89039 0.0253 0.0
C1083 C 0.38613 0.84027 0.04922 0.0
C1084 C 0.42182 0.81548 0.04951 0.0
C1085 C 0.37826 0.86681 0.02643 0.0
C1086 C 0.45021 0.81893 0.02721 0.0
C1087 C 0.44273 0.84533 1.00473 0.0
H1088 H 0.65908 0.46141 0.0523 0.0
H1089 H 0.67175 0.3447 0.0942 0.0
H1090 H 0.62536 0.31318 0.05973 0.0
H1091 H 0.58844 0.31766 0.01409 0.0
H1092 H 0.57827 0.43524 0.97264 0.0
H1093 H 0.61596 0.46766 1.01075 0.0
C1094 C 0.65133 0.42914 0.05412 0.0
C1095 C 0.6695 0.40516 0.07535 0.0
C1096 C 0.62519 0.41139 0.0342 0.0
C1097 C 0.65844 0.36366 0.07783 0.0
C1098 C 0.63206 0.34566 0.05807 0.0
C1099 C 0.59368 0.35051 1.01377 0.0
C1100 C 0.58105 0.37391 0.99035 0.0
C1101 C 0.61627 0.369 0.03561 0.0
C1102 C 0.58814 0.41644 0.9902 0.0
C1103 C 0.60975 0.43504 1.01197 0.0
H1104 H 0.03872 0.66225 0.06385 0.0
H1105 H 0.16153 0.6787 0.09599 0.0
H1106 H 0.18748 0.62576 0.06361 0.0
H1107 H 0.17562 0.58084 0.02177 0.0
H1108 H 0.05175 0.56729 0.99009 0.0
H1109 H 0.02567 0.6123 0.02692 0.0
C1110 C 0.07117 0.65397 0.06404 0.0
C1111 C 0.09843 0.67508 0.08193 0.0
C1112 C 0.08555 0.62385 0.04534 0.0
C1113 C 0.1401 0.66325 0.0823 0.0
C1114 C 0.15484 0.63303 0.06368 0.0
C1115 C 0.1428 0.58681 0.0235 0.0
C1116 C 0.11564 0.57068 1.0031 0.0
C1117 C 0.12798 0.61389 0.04449 0.0
C1118 C 0.07328 0.57928 1.00541 0.0
C1119 C 0.05835 0.60524 0.02639 0.0
loop_
_geom_bond_atom_site_label_1
_geom_bond_atom_site_label_2
_geom_bond_distance
_geom_bond_site_symmetry_2
_ccdc_geom_bond_type
Sc0 O3 2.025 . S
Sc0 O10 2.105 . S
Sc0 O13 2.105 . S
Sc0 O16 2.105 . S
Sc0 O19 2.105 . S
Sc1 O3 2.025 . S
Sc1 O11 2.105 . S
Sc1 O15 2.105 . S
Sc1 O17 2.105 . S
Sc1 O21 2.105 . S
Sc2 O3 2.025 . S
Sc2 O12 2.105 . S
Sc2 O14 2.105 . S
Sc2 O18 2.105 . S
Sc2 O20 2.105 . S
O3 Sc0 2.025 . S
O3 Sc1 2.025 . S
O3 Sc2 2.025 . S
C4 O10 1.268 . S
C4 O20 1.268 . S
C5 O11 1.268 . S
C5 O19 1.268 . S
C6 O12 1.268 . S
C6 O21 1.268 . S
C7 O13 1.268 . S
C7 O17 1.268 . S
C8 O14 1.268 . S
C8 O16 1.268 . S
C9 O15 1.268 . S
C9 O18 1.268 . S
O10 Sc0 2.105 . S
O10 C4 1.268 . S
O11 Sc1 2.105 . S
O11 C5 1.268 . S
O12 Sc2 2.105 . S
O12 C6 1.268 . S
O13 Sc0 2.105 . S
O13 C7 1.268 . S
O14 Sc2 2.105 . S
O14 C8 1.268 . S
O15 Sc1 2.105 . S
O15 C9 1.268 . S
O16 Sc0 2.105 . S
O16 C8 1.268 . S
O17 Sc1 2.105 . S
O17 C7 1.268 . S
O18 Sc2 2.105 . S
O18 C9 1.268 . S
O19 Sc0 2.105 . S
O19 C5 1.268 . S
O20 Sc2 2.105 . S
O20 C4 1.268 . S
O21 Sc1 2.105 . S
O21 C6 1.268 . S
Sc22 O25 2.025 . S
Sc22 O32 2.105 . S
Sc22 O35 2.105 . S
Sc22 O38 2.105 . S
Sc22 O41 2.105 . S
Sc23 O25 2.025 . S
Sc23 O33 2.105 . S
Sc23 O37 2.105 . S
Sc23 O39 2.105 . S
Sc23 O43 2.105 . S
Sc24 O25 2.025 . S
Sc24 O34 2.105 . S
Sc24 O36 2.105 . S
Sc24 O40 2.105 . S
Sc24 O42 2.105 . S
O25 Sc22 2.025 . S
O25 Sc23 2.025 . S
O25 Sc24 2.025 . S
C26 O32 1.268 . S
C26 O42 1.268 . S
C27 O33 1.268 . S
C27 O41 1.268 . S
C28 O34 1.268 . S
C28 O43 1.268 . S
C29 O35 1.268 . S
C29 O39 1.268 . S
C30 O36 1.268 . S
C30 O38 1.268 . S
C31 O37 1.268 . S
C31 O40 1.268 . S
O32 Sc22 2.105 . S
O32 C26 1.268 . S
O33 Sc23 2.105 . S
O33 C27 1.268 . S
O34 Sc24 2.105 . S
O34 C28 1.268 . S
O35 Sc22 2.105 . S
O35 C29 1.268 . S
O36 Sc24 2.105 . S
O36 C30 1.268 . S
O37 Sc23 2.105 . S
O37 C31 1.268 . S
O38 Sc22 2.105 . S
O38 C30 1.268 . S
O39 Sc23 2.105 . S
O39 C29 1.268 . S
O40 Sc24 2.105 . S
O40 C31 1.268 . S
O41 Sc22 2.105 . S
O41 C27 1.268 . S
O42 Sc24 2.105 . S
O42 C26 1.268 . S
O43 Sc23 2.105 . S
O43 C28 1.268 . S
Sc44 O47 2.025 . S
Sc44 O54 2.105 . S
Sc44 O57 2.105 . S
Sc44 O60 2.105 . S
Sc44 O63 2.105 . S
Sc45 O47 2.025 . S
Sc45 O55 2.105 . S
Sc45 O59 2.105 . S
Sc45 O61 2.105 . S
Sc45 O65 2.105 . S
Sc46 O47 2.025 . S
Sc46 O56 2.105 1_655 S
Sc46 O58 2.105 . S
Sc46 O62 2.105 . S
Sc46 O64 2.105 1_655 S
O47 Sc44 2.025 . S
O47 Sc45 2.025 . S
O47 Sc46 2.025 . S
C48 O54 1.268 1_455 S
C48 O64 1.268 . S
C49 O55 1.268 . S
C49 O63 1.268 . S
C50 O56 1.268 . S
C50 O65 1.268 1_455 S
C51 O57 1.268 . S
C51 O61 1.268 . S
C52 O58 1.268 . S
C52 O60 1.268 . S
C53 O59 1.268 . S
C53 O62 1.268 . S
O54 Sc44 2.105 . S
O54 C48 1.268 1_655 S
O55 Sc45 2.105 . S
O55 C49 1.268 . S
O56 Sc46 2.105 1_455 S
O56 C50 1.268 . S
O57 Sc44 2.105 . S
O57 C51 1.268 . S
O58 Sc46 2.105 . S
O58 C52 1.268 . S
O59 Sc45 2.105 . S
O59 C53 1.268 . S
O60 Sc44 2.105 . S
O60 C52 1.268 . S
O61 Sc45 2.105 . S
O61 C51 1.268 . S
O62 Sc46 2.105 . S
O62 C53 1.268 . S
O63 Sc44 2.105 . S
O63 C49 1.268 . S
O64 Sc46 2.105 1_455 S
O64 C48 1.268 . S
O65 Sc45 2.105 . S
O65 C50 1.268 1_655 S
Sc66 O69 2.025 . S
Sc66 O76 2.105 . S
Sc66 O79 2.105 1_565 S
Sc66 O82 2.105 1_565 S
Sc66 O85 2.105 . S
Sc67 O69 2.025 . S
Sc67 O77 2.105 . S
Sc67 O81 2.105 . S
Sc67 O83 2.105 . S
Sc67 O87 2.105 . S
Sc68 O69 2.025 . S
Sc68 O78 2.105 . S
Sc68 O80 2.105 . S
Sc68 O84 2.105 . S
Sc68 O86 2.105 . S
O69 Sc66 2.025 . S
O69 Sc67 2.025 . S
O69 Sc68 2.025 . S
C70 O76 1.268 . S
C70 O86 1.268 . S
C71 O77 1.268 . S
C71 O85 1.268 . S
C72 O78 1.268 . S
C72 O87 1.268 . S
C73 O79 1.268 . S
C73 O83 1.268 1_545 S
C74 O80 1.268 1_545 S
C74 O82 1.268 . S
C75 O81 1.268 . S
C75 O84 1.268 . S
O76 Sc66 2.105 . S
O76 C70 1.268 . S
O77 Sc67 2.105 . S
O77 C71 1.268 . S
O78 Sc68 2.105 . S
O78 C72 1.268 . S
O79 Sc66 2.105 1_545 S
O79 C73 1.268 . S
O80 Sc68 2.105 . S
O80 C74 1.268 1_565 S
O81 Sc67 2.105 . S
O81 C75 1.268 . S
O82 Sc66 2.105 1_545 S
O82 C74 1.268 . S
O83 Sc67 2.105 . S
O83 C73 1.268 1_565 S
O84 Sc68 2.105 . S
O84 C75 1.268 . S
O85 Sc66 2.105 . S
O85 C71 1.268 . S
O86 Sc68 2.105 . S
O86 C70 1.268 . S
O87 Sc67 2.105 . S
O87 C72 1.268 . S
Sc88 O91 2.025 . S
Sc88 O98 2.105 . S
Sc88 O101 2.105 . S
Sc88 O104 2.105 . S
Sc88 O107 2.105 . S
Sc89 O91 2.025 . S
Sc89 O99 2.105 . S
Sc89 O103 2.105 . S
Sc89 O105 2.105 . S
Sc89 O109 2.105 . S
Sc90 O91 2.025 . S
Sc90 O100 2.105 1_455 S
Sc90 O102 2.105 . S
Sc90 O106 2.105 . S
Sc90 O108 2.105 1_455 S
O91 Sc88 2.025 . S
O91 Sc89 2.025 . S
O91 Sc90 2.025 . S
C92 O98 1.268 1_655 S
C92 O108 1.268 . S
C93 O99 1.268 . S
C93 O107 1.268 . S
C94 O100 1.268 . S
C94 O109 1.268 1_655 S
C95 O101 1.268 . S
C95 O105 1.268 . S
C96 O102 1.268 . S
C96 O104 1.268 . S
C97 O103 1.268 . S
C97 O106 1.268 . S
O98 Sc88 2.105 . S
O98 C92 1.268 1_455 S
O99 Sc89 2.105 . S
O99 C93 1.268 . S
O100 Sc90 2.105 1_655 S
O100 C94 1.268 . S
O101 Sc88 2.105 . S
O101 C95 1.268 . S
O102 Sc90 2.105 . S
O102 C96 1.268 . S
O103 Sc89 2.105 . S
O103 C97 1.268 . S
O104 Sc88 2.105 . S
O104 C96 1.268 . S
O105 Sc89 2.105 . S
O105 C95 1.268 . S
O106 Sc90 2.105 . S
O106 C97 1.268 . S
O107 Sc88 2.105 . S
O107 C93 1.268 . S
O108 Sc90 2.105 1_655 S
O108 C92 1.268 . S
O109 Sc89 2.105 . S
O109 C94 1.268 1_455 S
Sc110 O113 2.025 . S
Sc110 O120 2.105 . S
Sc110 O123 2.105 1_545 S
Sc110 O126 2.105 1_545 S
Sc110 O129 2.105 . S
Sc111 O113 2.025 . S
Sc111 O121 2.105 . S
Sc111 O125 2.105 . S
Sc111 O127 2.105 . S
Sc111 O131 2.105 . S
Sc112 O113 2.025 . S
Sc112 O122 2.105 . S
Sc112 O124 2.105 . S
Sc112 O128 2.105 . S
Sc112 O130 2.105 . S
O113 Sc110 2.025 . S
O113 Sc111 2.025 . S
O113 Sc112 2.025 . S
C114 O120 1.268 . S
C114 O130 1.268 . S
C115 O121 1.268 . S
C115 O129 1.268 . S
C116 O122 1.268 . S
C116 O131 1.268 . S
C117 O123 1.268 . S
C117 O127 1.268 1_565 S
C118 O124 1.268 1_565 S
C118 O126 1.268 . S
C119 O125 1.268 . S
C119 O128 1.268 . S
O120 Sc110 2.105 . S
O120 C114 1.268 . S
O121 Sc111 2.105 . S
O121 C115 1.268 . S
O122 Sc112 2.105 . S
O122 C116 1.268 . S
O123 Sc110 2.105 1_565 S
O123 C117 1.268 . S
O124 Sc112 2.105 . S
O124 C118 1.268 1_545 S
O125 Sc111 2.105 . S
O125 C119 1.268 . S
O126 Sc110 2.105 1_565 S
O126 C118 1.268 . S
O127 Sc111 2.105 . S
O127 C117 1.268 1_545 S
O128 Sc112 2.105 . S
O128 C119 1.268 . S
O129 Sc110 2.105 . S
O129 C115 1.268 . S
O130 Sc112 2.105 . S
O130 C114 1.268 . S
O131 Sc111 2.105 . S
O131 C116 1.268 . S
Sc132 O135 2.025 . S
Sc132 O142 2.105 . S
Sc132 O145 2.105 . S
Sc132 O148 2.105 . S
Sc132 O151 2.105 . S
Sc133 O135 2.025 . S
Sc133 O143 2.105 . S
Sc133 O147 2.105 . S
Sc133 O149 2.105 . S
Sc133 O153 2.105 . S
Sc134 O135 2.025 . S
Sc134 O144 2.105 . S
Sc134 O146 2.105 . S
Sc134 O150 2.105 . S
Sc134 O152 2.105 . S
O135 Sc132 2.025 . S
O135 Sc133 2.025 . S
O135 Sc134 2.025 . S
C136 O142 1.268 . S
C136 O152 1.268 . S
C137 O143 1.268 . S
C137 O151 1.268 . S
C138 O144 1.268 . S
C138 O153 1.268 . S
C139 O145 1.268 . S
C139 O149 1.268 . S
C140 O146 1.268 . S
C140 O148 1.268 . S
C141 O147 1.268 . S
C141 O150 1.268 . S
O142 Sc132 2.105 . S
O142 C136 1.268 . S
O143 Sc133 2.105 . S
O143 C137 1.268 . S
O144 Sc134 2.105 . S
O144 C138 1.268 . S
O145 Sc132 2.105 . S
O145 C139 1.268 . S
O146 Sc134 2.105 . S
O146 C140 1.268 . S
O147 Sc133 2.105 . S
O147 C141 1.268 . S
O148 Sc132 2.105 . S
O148 C140 1.268 . S
O149 Sc133 2.105 . S
O149 C139 1.268 . S
O150 Sc134 2.105 . S
O150 C141 1.268 . S
O151 Sc132 2.105 . S
O151 C137 1.268 . S
O152 Sc134 2.105 . S
O152 C136 1.268 . S
O153 Sc133 2.105 . S
O153 C138 1.268 . S
Sc154 O157 2.025 . S
Sc154 O164 2.105 . S
Sc154 O167 2.105 . S
Sc154 O170 2.105 . S
Sc154 O173 2.105 . S
Sc155 O157 2.025 . S
Sc155 O165 2.105 . S
Sc155 O169 2.105 . S
Sc155 O171 2.105 . S
Sc155 O175 2.105 . S
Sc156 O157 2.025 . S
Sc156 O166 2.105 . S
Sc156 O168 2.105 . S
Sc156 O172 2.105 . S
Sc156 O174 2.105 . S
O157 Sc154 2.025 . S
O157 Sc155 2.025 . S
O157 Sc156 2.025 . S
C158 O164 1.268 . S
C158 O174 1.268 . S
C159 O165 1.268 . S
C159 O173 1.268 . S
C160 O166 1.268 . S
C160 O175 1.268 . S
C161 O167 1.268 . S
C161 O171 1.268 . S
C162 O168 1.268 . S
C162 O170 1.268 . S
C163 O169 1.268 . S
C163 O172 1.268 . S
O164 Sc154 2.105 . S
O164 C158 1.268 . S
O165 Sc155 2.105 . S
O165 C159 1.268 . S
O166 Sc156 2.105 . S
O166 C160 1.268 . S
O167 Sc154 2.105 . S
O167 C161 1.268 . S
O168 Sc156 2.105 . S
O168 C162 1.268 . S
O169 Sc155 2.105 . S
O169 C163 1.268 . S
O170 Sc154 2.105 . S
O170 C162 1.268 . S
O171 Sc155 2.105 . S
O171 C161 1.268 . S
O172 Sc156 2.105 . S
O172 C163 1.268 . S
O173 Sc154 2.105 . S
O173 C159 1.268 . S
O174 Sc156 2.105 . S
O174 C158 1.268 . S
O175 Sc155 2.105 . S
O175 C160 1.268 . S
Sc176 O179 2.025 . S
Sc176 O186 2.105 . S
Sc176 O189 2.105 . S
Sc176 O192 2.105 . S
Sc176 O195 2.105 . S
Sc177 O179 2.025 . S
Sc177 O187 2.105 . S
Sc177 O191 2.105 . S
Sc177 O193 2.105 . S
Sc177 O197 2.105 . S
Sc178 O179 2.025 . S
Sc178 O188 2.105 . S
Sc178 O190 2.105 . S
Sc178 O194 2.105 . S
Sc178 O196 2.105 . S
O179 Sc176 2.025 . S
O179 Sc177 2.025 . S
O179 Sc178 2.025 . S
C180 O186 1.268 . S
C180 O196 1.268 . S
C181 O187 1.268 . S
C181 O195 1.268 . S
C182 O188 1.268 . S
C182 O197 1.268 . S
C183 O189 1.268 . S
C183 O193 1.268 . S
C184 O190 1.268 . S
C184 O192 1.268 . S
C185 O191 1.268 . S
C185 O194 1.268 . S
O186 Sc176 2.105 . S
O186 C180 1.268 . S
O187 Sc177 2.105 . S
O187 C181 1.268 . S
O188 Sc178 2.105 . S
O188 C182 1.268 . S
O189 Sc176 2.105 . S
O189 C183 1.268 . S
O190 Sc178 2.105 . S
O190 C184 1.268 . S
O191 Sc177 2.105 . S
O191 C185 1.268 . S
O192 Sc176 2.105 . S
O192 C184 1.268 . S
O193 Sc177 2.105 . S
O193 C183 1.268 . S
O194 Sc178 2.105 . S
O194 C185 1.268 . S
O195 Sc176 2.105 . S
O195 C181 1.268 . S
O196 Sc178 2.105 . S
O196 C180 1.268 . S
O197 Sc177 2.105 . S
O197 C182 1.268 . S
Sc198 O201 2.025 . S
Sc198 O208 2.105 . S
Sc198 O211 2.105 . S
Sc198 O214 2.105 . S
Sc198 O217 2.105 . S
Sc199 O201 2.025 . S
Sc199 O209 2.105 . S
Sc199 O213 2.105 . S
Sc199 O215 2.105 . S
Sc199 O219 2.105 . S
Sc200 O201 2.025 . S
Sc200 O210 2.105 . S
Sc200 O212 2.105 . S
Sc200 O216 2.105 . S
Sc200 O218 2.105 . S
O201 Sc198 2.025 . S
O201 Sc199 2.025 . S
O201 Sc200 2.025 . S
C202 O208 1.268 . S
C202 O218 1.268 . S
C203 O209 1.268 . S
C203 O217 1.268 . S
C204 O210 1.268 . S
C204 O219 1.268 . S
C205 O211 1.268 . S
C205 O215 1.268 . S
C206 O212 1.268 . S
C206 O214 1.268 . S
C207 O213 1.268 . S
C207 O216 1.268 . S
O208 Sc198 2.105 . S
O208 C202 1.268 . S
O209 Sc199 2.105 . S
O209 C203 1.268 . S
O210 Sc200 2.105 . S
O210 C204 1.268 . S
O211 Sc198 2.105 . S
O211 C205 1.268 . S
O212 Sc200 2.105 . S
O212 C206 1.268 . S
O213 Sc199 2.105 . S
O213 C207 1.268 . S
O214 Sc198 2.105 . S
O214 C206 1.268 . S
O215 Sc199 2.105 . S
O215 C205 1.268 . S
O216 Sc200 2.105 . S
O216 C207 1.268 . S
O217 Sc198 2.105 . S
O217 C203 1.268 . S
O218 Sc200 2.105 . S
O218 C202 1.268 . S
O219 Sc199 2.105 . S
O219 C204 1.268 . S
Sc220 O223 2.025 . S
Sc220 O230 2.105 . S
Sc220 O233 2.105 . S
Sc220 O236 2.105 . S
Sc220 O239 2.105 . S
Sc221 O223 2.025 . S
Sc221 O231 2.105 . S
Sc221 O235 2.105 . S
Sc221 O237 2.105 . S
Sc221 O241 2.105 . S
Sc222 O223 2.025 . S
Sc222 O232 2.105 . S
Sc222 O234 2.105 1_455 S
Sc222 O238 2.105 1_455 S
Sc222 O240 2.105 . S
O223 Sc220 2.025 . S
O223 Sc221 2.025 . S
O223 Sc222 2.025 . S
C224 O230 1.268 . S
C224 O240 1.268 . S
C225 O231 1.268 . S
C225 O239 1.268 . S
C226 O232 1.268 . S
C226 O241 1.268 . S
C227 O233 1.268 . S
C227 O237 1.268 . S
C228 O234 1.268 . S
C228 O236 1.268 1_655 S
C229 O235 1.268 1_655 S
C229 O238 1.268 . S
O230 Sc220 2.105 . S
O230 C224 1.268 . S
O231 Sc221 2.105 . S
O231 C225 1.268 . S
O232 Sc222 2.105 . S
O232 C226 1.268 . S
O233 Sc220 2.105 . S
O233 C227 1.268 . S
O234 Sc222 2.105 1_655 S
O234 C228 1.268 . S
O235 Sc221 2.105 . S
O235 C229 1.268 1_455 S
O236 Sc220 2.105 . S
O236 C228 1.268 1_455 S
O237 Sc221 2.105 . S
O237 C227 1.268 . S
O238 Sc222 2.105 1_655 S
O238 C229 1.268 . S
O239 Sc220 2.105 . S
O239 C225 1.268 . S
O240 Sc222 2.105 . S
O240 C224 1.268 . S
O241 Sc221 2.105 . S
O241 C226 1.268 . S
Sc242 O245 2.025 . S
Sc242 O252 2.105 . S
Sc242 O255 2.105 . S
Sc242 O258 2.105 . S
Sc242 O261 2.105 . S
Sc243 O245 2.025 . S
Sc243 O253 2.105 . S
Sc243 O257 2.105 . S
Sc243 O259 2.105 . S
Sc243 O263 2.105 . S
Sc244 O245 2.025 . S
Sc244 O254 2.105 . S
Sc244 O256 2.105 1_545 S
Sc244 O260 2.105 1_545 S
Sc244 O262 2.105 . S
O245 Sc242 2.025 . S
O245 Sc243 2.025 . S
O245 Sc244 2.025 . S
C246 O252 1.268 . S
C246 O262 1.268 . S
C247 O253 1.268 . S
C247 O261 1.268 . S
C248 O254 1.268 . S
C248 O263 1.268 . S
C249 O255 1.268 . S
C249 O259 1.268 . S
C250 O256 1.268 . S
C250 O258 1.268 1_565 S
C251 O257 1.268 1_565 S
C251 O260 1.268 . S
O252 Sc242 2.105 . S
O252 C246 1.268 . S
O253 Sc243 2.105 . S
O253 C247 1.268 . S
O254 Sc244 2.105 . S
O254 C248 1.268 . S
O255 Sc242 2.105 . S
O255 C249 1.268 . S
O256 Sc244 2.105 1_565 S
O256 C250 1.268 . S
O257 Sc243 2.105 . S
O257 C251 1.268 1_545 S
O258 Sc242 2.105 . S
O258 C250 1.268 1_545 S
O259 Sc243 2.105 . S
O259 C249 1.268 . S
O260 Sc244 2.105 1_565 S
O260 C251 1.268 . S
O261 Sc242 2.105 . S
O261 C247 1.268 . S
O262 Sc244 2.105 . S
O262 C246 1.268 . S
O263 Sc243 2.105 . S
O263 C248 1.268 . S
Sc264 O267 2.025 . S
Sc264 O274 2.105 . S
Sc264 O277 2.105 . S
Sc264 O280 2.105 . S
Sc264 O283 2.105 . S
Sc265 O267 2.025 . S
Sc265 O275 2.105 . S
Sc265 O279 2.105 . S
Sc265 O281 2.105 . S
Sc265 O285 2.105 . S
Sc266 O267 2.025 . S
Sc266 O276 2.105 . S
Sc266 O278 2.105 1_655 S
Sc266 O282 2.105 1_655 S
Sc266 O284 2.105 . S
O267 Sc264 2.025 . S
O267 Sc265 2.025 . S
O267 Sc266 2.025 . S
C268 O274 1.268 . S
C268 O284 1.268 . S
C269 O275 1.268 . S
C269 O283 1.268 . S
C270 O276 1.268 . S
C270 O285 1.268 . S
C271 O277 1.268 . S
C271 O281 1.268 . S
C272 O278 1.268 . S
C272 O280 1.268 1_455 S
C273 O279 1.268 1_455 S
C273 O282 1.268 . S
O274 Sc264 2.105 . S
O274 C268 1.268 . S
O275 Sc265 2.105 . S
O275 C269 1.268 . S
O276 Sc266 2.105 . S
O276 C270 1.268 . S
O277 Sc264 2.105 . S
O277 C271 1.268 . S
O278 Sc266 2.105 1_455 S
O278 C272 1.268 . S
O279 Sc265 2.105 . S
O279 C273 1.268 1_655 S
O280 Sc264 2.105 . S
O280 C272 1.268 1_655 S
O281 Sc265 2.105 . S
O281 C271 1.268 . S
O282 Sc266 2.105 1_455 S
O282 C273 1.268 . S
O283 Sc264 2.105 . S
O283 C269 1.268 . S
O284 Sc266 2.105 . S
O284 C268 1.268 . S
O285 Sc265 2.105 . S
O285 C270 1.268 . S
Sc286 O289 2.025 . S
Sc286 O296 2.105 . S
Sc286 O299 2.105 . S
Sc286 O302 2.105 . S
Sc286 O305 2.105 . S
Sc287 O289 2.025 . S
Sc287 O297 2.105 . S
Sc287 O301 2.105 . S
Sc287 O303 2.105 . S
Sc287 O307 2.105 . S
Sc288 O289 2.025 . S
Sc288 O298 2.105 . S
Sc288 O300 2.105 1_565 S
Sc288 O304 2.105 1_565 S
Sc288 O306 2.105 . S
O289 Sc286 2.025 . S
O289 Sc287 2.025 . S
O289 Sc288 2.025 . S
C290 O296 1.268 . S
C290 O306 1.268 . S
C291 O297 1.268 . S
C291 O305 1.268 . S
C292 O298 1.268 . S
C292 O307 1.268 . S
C293 O299 1.268 . S
C293 O303 1.268 . S
C294 O300 1.268 . S
C294 O302 1.268 1_545 S
C295 O301 1.268 1_545 S
C295 O304 1.268 . S
O296 Sc286 2.105 . S
O296 C290 1.268 . S
O297 Sc287 2.105 . S
O297 C291 1.268 . S
O298 Sc288 2.105 . S
O298 C292 1.268 . S
O299 Sc286 2.105 . S
O299 C293 1.268 . S
O300 Sc288 2.105 1_545 S
O300 C294 1.268 . S
O301 Sc287 2.105 . S
O301 C295 1.268 1_565 S
O302 Sc286 2.105 . S
O302 C294 1.268 1_565 S
O303 Sc287 2.105 . S
O303 C293 1.268 . S
O304 Sc288 2.105 1_545 S
O304 C295 1.268 . S
O305 Sc286 2.105 . S
O305 C291 1.268 . S
O306 Sc288 2.105 . S
O306 C290 1.268 . S
O307 Sc287 2.105 . S
O307 C292 1.268 . S
Sc308 O311 2.025 . S
Sc308 O318 2.105 . S
Sc308 O321 2.105 . S
Sc308 O324 2.105 . S
Sc308 O327 2.105 . S
Sc309 O311 2.025 . S
Sc309 O319 2.105 . S
Sc309 O323 2.105 . S
Sc309 O325 2.105 . S
Sc309 O329 2.105 . S
Sc310 O311 2.025 . S
Sc310 O320 2.105 . S
Sc310 O322 2.105 . S
Sc310 O326 2.105 . S
Sc310 O328 2.105 . S
O311 Sc308 2.025 . S
O311 Sc309 2.025 . S
O311 Sc310 2.025 . S
C312 O318 1.268 . S
C312 O328 1.268 . S
C313 O319 1.268 . S
C313 O327 1.268 . S
C314 O320 1.268 . S
C314 O329 1.268 . S
C315 O321 1.268 . S
C315 O325 1.268 . S
C316 O322 1.268 . S
C316 O324 1.268 . S
C317 O323 1.268 . S
C317 O326 1.268 . S
O318 Sc308 2.105 . S
O318 C312 1.268 . S
O319 Sc309 2.105 . S
O319 C313 1.268 . S
O320 Sc310 2.105 . S
O320 C314 1.268 . S
O321 Sc308 2.105 . S
O321 C315 1.268 . S
O322 Sc310 2.105 . S
O322 C316 1.268 . S
O323 Sc309 2.105 . S
O323 C317 1.268 . S
O324 Sc308 2.105 . S
O324 C316 1.268 . S
O325 Sc309 2.105 . S
O325 C315 1.268 . S
O326 Sc310 2.105 . S
O326 C317 1.268 . S
O327 Sc308 2.105 . S
O327 C313 1.268 . S
O328 Sc310 2.105 . S
O328 C312 1.268 . S
O329 Sc309 2.105 . S
O329 C314 1.268 . S
Sc330 O333 2.025 . S
Sc330 O340 2.105 . S
Sc330 O343 2.105 . S
Sc330 O346 2.105 . S
Sc330 O349 2.105 . S
Sc331 O333 2.025 . S
Sc331 O341 2.105 . S
Sc331 O345 2.105 . S
Sc331 O347 2.105 . S
Sc331 O351 2.105 . S
Sc332 O333 2.025 . S
Sc332 O342 2.105 . S
Sc332 O344 2.105 . S
Sc332 O348 2.105 . S
Sc332 O350 2.105 . S
O333 Sc330 2.025 . S
O333 Sc331 2.025 . S
O333 Sc332 2.025 . S
C334 O340 1.268 . S
C334 O350 1.268 . S
C335 O341 1.268 . S
C335 O349 1.268 . S
C336 O342 1.268 . S
C336 O351 1.268 . S
C337 O343 1.268 . S
C337 O347 1.268 . S
C338 O344 1.268 . S
C338 O346 1.268 . S
C339 O345 1.268 . S
C339 O348 1.268 . S
O340 Sc330 2.105 . S
O340 C334 1.268 . S
O341 Sc331 2.105 . S
O341 C335 1.268 . S
O342 Sc332 2.105 . S
O342 C336 1.268 . S
O343 Sc330 2.105 . S
O343 C337 1.268 . S
O344 Sc332 2.105 . S
O344 C338 1.268 . S
O345 Sc331 2.105 . S
O345 C339 1.268 . S
O346 Sc330 2.105 . S
O346 C338 1.268 . S
O347 Sc331 2.105 . S
O347 C337 1.268 . S
O348 Sc332 2.105 . S
O348 C339 1.268 . S
O349 Sc330 2.105 . S
O349 C335 1.268 . S
O350 Sc332 2.105 . S
O350 C334 1.268 . S
O351 Sc331 2.105 . S
O351 C336 1.268 . S
H352 C358 0.930 . S
H353 C361 0.930 . S
H354 C362 0.930 . S
H355 C363 0.930 . S
H356 C366 0.930 . S
H357 C367 0.930 . S
C358 H352 0.930 . S
C358 C359 1.355 . S
C358 C360 1.415 . S
C359 C358 1.355 . S
C359 C361 1.419 . S
C360 C358 1.415 . S
C360 C365 1.425 . S
C360 C367 1.409 . S
C361 H353 0.930 . S
C361 C359 1.419 . S
C361 C362 1.362 . S
C362 H354 0.930 . S
C362 C361 1.362 . S
C362 C365 1.409 . S
C363 H355 0.930 . S
C363 C364 1.355 . S
C363 C365 1.415 . S
C364 C363 1.355 . S
C364 C366 1.419 . S
C365 C360 1.425 . S
C365 C362 1.409 . S
C365 C363 1.415 . S
C366 H356 0.930 . S
C366 C364 1.419 . S
C366 C367 1.362 . S
C367 H357 0.930 . S
C367 C360 1.409 . S
C367 C366 1.362 . S
H368 C374 0.930 . S
H369 C377 0.930 . S
H370 C378 0.930 . S
H371 C379 0.930 . S
H372 C382 0.930 . S
H373 C383 0.930 . S
C374 H368 0.930 . S
C374 C375 1.355 . S
C374 C376 1.415 . S
C375 C374 1.355 . S
C375 C377 1.419 . S
C376 C374 1.415 . S
C376 C381 1.425 . S
C376 C383 1.409 . S
C377 H369 0.930 . S
C377 C375 1.419 . S
C377 C378 1.362 . S
C378 H370 0.930 . S
C378 C377 1.362 . S
C378 C381 1.409 . S
C379 H371 0.930 . S
C379 C380 1.355 . S
C379 C381 1.415 . S
C380 C379 1.355 . S
C380 C382 1.419 . S
C381 C376 1.425 . S
C381 C378 1.409 . S
C381 C379 1.415 . S
C382 H372 0.930 . S
C382 C380 1.419 . S
C382 C383 1.362 . S
C383 H373 0.930 . S
C383 C376 1.409 . S
C383 C382 1.362 . S
H384 C390 0.930 . S
H385 C393 0.930 . S
H386 C394 0.930 . S
H387 C395 0.930 . S
H388 C398 0.930 . S
H389 C399 0.930 . S
C390 H384 0.930 . S
C390 C391 1.355 . S
C390 C392 1.415 . S
C391 C390 1.355 . S
C391 C393 1.419 . S
C392 C390 1.415 . S
C392 C397 1.425 . S
C392 C399 1.409 . S
C393 H385 0.930 . S
C393 C391 1.419 . S
C393 C394 1.362 . S
C394 H386 0.930 . S
C394 C393 1.362 . S
C394 C397 1.409 . S
C395 H387 0.930 . S
C395 C396 1.355 . S
C395 C397 1.415 . S
C396 C395 1.355 . S
C396 C398 1.419 . S
C397 C392 1.425 . S
C397 C394 1.409 . S
C397 C395 1.415 . S
C398 H388 0.930 . S
C398 C396 1.419 . S
C398 C399 1.362 . S
C399 H389 0.930 . S
C399 C392 1.409 . S
C399 C398 1.362 . S
H400 C406 0.930 . S
H401 C409 0.930 . S
H402 C410 0.930 . S
H403 C411 0.930 . S
H404 C414 0.930 . S
H405 C415 0.930 . S
C406 H400 0.930 . S
C406 C407 1.355 . S
C406 C408 1.415 . S
C407 C406 1.355 . S
C407 C409 1.419 . S
C408 C406 1.415 . S
C408 C413 1.425 . S
C408 C415 1.409 . S
C409 H401 0.930 . S
C409 C407 1.419 . S
C409 C410 1.362 . S
C410 H402 0.930 . S
C410 C409 1.362 . S
C410 C413 1.409 . S
C411 H403 0.930 . S
C411 C412 1.355 . S
C411 C413 1.415 . S
C412 C411 1.355 . S
C412 C414 1.419 . S
C413 C408 1.425 . S
C413 C410 1.409 . S
C413 C411 1.415 . S
C414 H404 0.930 . S
C414 C412 1.419 . S
C414 C415 1.362 . S
C415 H405 0.930 . S
C415 C408 1.409 . S
C415 C414 1.362 . S
H416 C422 0.930 . S
H417 C425 0.930 . S
H418 C426 0.930 . S
H419 C427 0.930 . S
H420 C430 0.930 . S
H421 C431 0.930 . S
C422 H416 0.930 . S
C422 C423 1.355 . S
C422 C424 1.415 . S
C423 C422 1.355 . S
C423 C425 1.419 . S
C424 C422 1.415 . S
C424 C429 1.425 . S
C424 C431 1.409 . S
C425 H417 0.930 . S
C425 C423 1.419 . S
C425 C426 1.362 . S
C426 H418 0.930 . S
C426 C425 1.362 . S
C426 C429 1.409 . S
C427 H419 0.930 . S
C427 C428 1.355 . S
C427 C429 1.415 . S
C428 C427 1.355 . S
C428 C430 1.419 . S
C429 C424 1.425 . S
C429 C426 1.409 . S
C429 C427 1.415 . S
C430 H420 0.930 . S
C430 C428 1.419 . S
C430 C431 1.362 . S
C431 H421 0.930 . S
C431 C424 1.409 . S
C431 C430 1.362 . S
H432 C438 0.930 . S
H433 C441 0.930 . S
H434 C442 0.930 . S
H435 C443 0.930 . S
H436 C446 0.930 . S
H437 C447 0.930 . S
C438 H432 0.930 . S
C438 C439 1.355 . S
C438 C440 1.415 . S
C439 C438 1.355 . S
C439 C441 1.419 . S
C440 C438 1.415 . S
C440 C445 1.425 . S
C440 C447 1.409 . S
C441 H433 0.930 . S
C441 C439 1.419 . S
C441 C442 1.362 . S
C442 H434 0.930 . S
C442 C441 1.362 . S
C442 C445 1.409 . S
C443 H435 0.930 . S
C443 C444 1.355 . S
C443 C445 1.415 . S
C444 C443 1.355 . S
C444 C446 1.419 . S
C445 C440 1.425 . S
C445 C442 1.409 . S
C445 C443 1.415 . S
C446 H436 0.930 . S
C446 C444 1.419 . S
C446 C447 1.362 . S
C447 H437 0.930 . S
C447 C440 1.409 . S
C447 C446 1.362 . S
H448 C454 0.930 . S
H449 C457 0.930 . S
H450 C458 0.930 . S
H451 C459 0.930 . S
H452 C462 0.930 . S
H453 C463 0.930 . S
C454 H448 0.930 . S
C454 C455 1.355 . S
C454 C456 1.415 . S
C455 C454 1.355 . S
C455 C457 1.419 . S
C456 C454 1.415 . S
C456 C461 1.425 . S
C456 C463 1.409 . S
C457 H449 0.930 . S
C457 C455 1.419 . S
C457 C458 1.362 . S
C458 H450 0.930 . S
C458 C457 1.362 . S
C458 C461 1.409 . S
C459 H451 0.930 . S
C459 C460 1.355 . S
C459 C461 1.415 . S
C460 C459 1.355 . S
C460 C462 1.419 . S
C461 C456 1.425 . S
C461 C458 1.409 . S
C461 C459 1.415 . S
C462 H452 0.930 . S
C462 C460 1.419 . S
C462 C463 1.362 . S
C463 H453 0.930 . S
C463 C456 1.409 . S
C463 C462 1.362 . S
H464 C470 0.930 . S
H465 C473 0.930 . S
H466 C474 0.930 . S
H467 C475 0.930 . S
H468 C478 0.930 . S
H469 C479 0.930 . S
C470 H464 0.930 . S
C470 C471 1.355 . S
C470 C472 1.415 . S
C471 C470 1.355 . S
C471 C473 1.419 . S
C472 C470 1.415 . S
C472 C477 1.425 . S
C472 C479 1.409 . S
C473 H465 0.930 . S
C473 C471 1.419 . S
C473 C474 1.362 . S
C474 H466 0.930 . S
C474 C473 1.362 . S
C474 C477 1.409 . S
C475 H467 0.930 . S
C475 C476 1.355 . S
C475 C477 1.415 . S
C476 C475 1.355 . S
C476 C478 1.419 . S
C477 C472 1.425 . S
C477 C474 1.409 . S
C477 C475 1.415 . S
C478 H468 0.930 . S
C478 C476 1.419 . S
C478 C479 1.362 . S
C479 H469 0.930 . S
C479 C472 1.409 . S
C479 C478 1.362 . S
H480 C486 0.930 . S
H481 C489 0.930 . S
H482 C490 0.930 . S
H483 C491 0.930 . S
H484 C494 0.930 1_565 S
H485 C495 0.930 . S
C486 H480 0.930 . S
C486 C487 1.355 . S
C486 C488 1.415 . S
C487 C486 1.355 . S
C487 C489 1.419 . S
C488 C486 1.415 . S
C488 C493 1.425 . S
C488 C495 1.409 . S
C489 H481 0.930 . S
C489 C487 1.419 . S
C489 C490 1.362 . S
C490 H482 0.930 . S
C490 C489 1.362 . S
C490 C493 1.409 . S
C491 H483 0.930 . S
C491 C492 1.355 . S
C491 C493 1.415 . S
C492 C491 1.355 . S
C492 C494 1.419 . S
C493 C488 1.425 . S
C493 C490 1.409 . S
C493 C491 1.415 . S
C494 H484 0.930 1_545 S
C494 C492 1.419 . S
C494 C495 1.362 . S
C495 H485 0.930 . S
C495 C488 1.409 . S
C495 C494 1.362 . S
H496 C502 0.930 . S
H497 C505 0.930 . S
H498 C506 0.930 . S
H499 C507 0.930 . S
H500 C510 0.930 . S
H501 C511 0.930 . S
C502 H496 0.930 . S
C502 C503 1.355 . S
C502 C504 1.415 . S
C503 C502 1.355 . S
C503 C505 1.419 . S
C504 C502 1.415 . S
C504 C509 1.425 . S
C504 C511 1.409 . S
C505 H497 0.930 . S
C505 C503 1.419 . S
C505 C506 1.362 . S
C506 H498 0.930 . S
C506 C505 1.362 . S
C506 C509 1.409 . S
C507 H499 0.930 . S
C507 C508 1.355 . S
C507 C509 1.415 . S
C508 C507 1.355 . S
C508 C510 1.419 . S
C509 C504 1.425 . S
C509 C506 1.409 . S
C509 C507 1.415 . S
C510 H500 0.930 . S
C510 C508 1.419 . S
C510 C511 1.362 . S
C511 H501 0.930 . S
C511 C504 1.409 . S
C511 C510 1.362 . S
H512 C518 0.930 . S
H513 C521 0.930 . S
H514 C522 0.930 . S
H515 C523 0.930 . S
H516 C526 0.930 . S
H517 C527 0.930 . S
C518 H512 0.930 . S
C518 C519 1.355 . S
C518 C520 1.415 . S
C519 C518 1.355 . S
C519 C521 1.419 . S
C520 C518 1.415 . S
C520 C525 1.425 . S
C520 C527 1.409 . S
C521 H513 0.930 . S
C521 C519 1.419 . S
C521 C522 1.362 . S
C522 H514 0.930 . S
C522 C521 1.362 . S
C522 C525 1.409 . S
C523 H515 0.930 . S
C523 C524 1.355 . S
C523 C525 1.415 . S
C524 C523 1.355 . S
C524 C526 1.419 . S
C525 C520 1.425 . S
C525 C522 1.409 . S
C525 C523 1.415 . S
C526 H516 0.930 . S
C526 C524 1.419 . S
C526 C527 1.362 . S
C527 H517 0.930 . S
C527 C520 1.409 . S
C527 C526 1.362 . S
H528 C534 0.930 . S
H529 C537 0.930 . S
H530 C538 0.930 . S
H531 C539 0.930 . S
H532 C542 0.930 . S
H533 C543 0.930 . S
C534 H528 0.930 . S
C534 C535 1.355 . S
C534 C536 1.415 . S
C535 C534 1.355 . S
C535 C537 1.419 . S
C536 C534 1.415 . S
C536 C541 1.425 . S
C536 C543 1.409 . S
C537 H529 0.930 . S
C537 C535 1.419 . S
C537 C538 1.362 . S
C538 H530 0.930 . S
C538 C537 1.362 . S
C538 C541 1.409 . S
C539 H531 0.930 . S
C539 C540 1.355 . S
C539 C541 1.415 . S
C540 C539 1.355 . S
C540 C542 1.419 . S
C541 C536 1.425 . S
C541 C538 1.409 . S
C541 C539 1.415 . S
C542 H532 0.930 . S
C542 C540 1.419 . S
C542 C543 1.362 . S
C543 H533 0.930 . S
C543 C536 1.409 . S
C543 C542 1.362 . S
H544 C550 0.930 . S
H545 C553 0.930 . S
H546 C554 0.930 . S
H547 C555 0.930 . S
H548 C558 0.930 1_545 S
H549 C559 0.930 . S
C550 H544 0.930 . S
C550 C551 1.355 . S
C550 C552 1.415 . S
C551 C550 1.355 . S
C551 C553 1.419 . S
C552 C550 1.415 . S
C552 C557 1.425 . S
C552 C559 1.409 . S
C553 H545 0.930 . S
C553 C551 1.419 . S
C553 C554 1.362 . S
C554 H546 0.930 . S
C554 C553 1.362 . S
C554 C557 1.409 . S
C555 H547 0.930 . S
C555 C556 1.355 . S
C555 C557 1.415 . S
C556 C555 1.355 . S
C556 C558 1.419 . S
C557 C552 1.425 . S
C557 C554 1.409 . S
C557 C555 1.415 . S
C558 H548 0.930 1_565 S
C558 C556 1.419 . S
C558 C559 1.362 . S
C559 H549 0.930 . S
C559 C552 1.409 . S
C559 C558 1.362 . S
H560 C566 0.930 . S
H561 C569 0.930 . S
H562 C570 0.930 . S
H563 C571 0.930 . S
H564 C574 0.930 . S
H565 C575 0.930 . S
C566 H560 0.930 . S
C566 C567 1.355 . S
C566 C568 1.415 . S
C567 C566 1.355 . S
C567 C569 1.419 . S
C568 C566 1.415 . S
C568 C573 1.425 . S
C568 C575 1.409 . S
C569 H561 0.930 . S
C569 C567 1.419 . S
C569 C570 1.362 . S
C570 H562 0.930 . S
C570 C569 1.362 . S
C570 C573 1.409 . S
C571 H563 0.930 . S
C571 C572 1.355 . S
C571 C573 1.415 . S
C572 C571 1.355 . S
C572 C574 1.419 . S
C573 C568 1.425 . S
C573 C570 1.409 . S
C573 C571 1.415 . S
C574 H564 0.930 . S
C574 C572 1.419 . S
C574 C575 1.362 . S
C575 H565 0.930 . S
C575 C568 1.409 . S
C575 C574 1.362 . S
H576 C582 0.930 . S
H577 C585 0.930 . S
H578 C586 0.930 . S
H579 C587 0.930 . S
H580 C590 0.930 . S
H581 C591 0.930 . S
C582 H576 0.930 . S
C582 C583 1.355 . S
C582 C584 1.415 . S
C583 C582 1.355 . S
C583 C585 1.419 . S
C584 C582 1.415 . S
C584 C589 1.425 . S
C584 C591 1.409 . S
C585 H577 0.930 . S
C585 C583 1.419 . S
C585 C586 1.362 . S
C586 H578 0.930 . S
C586 C585 1.362 . S
C586 C589 1.409 . S
C587 H579 0.930 . S
C587 C588 1.355 . S
C587 C589 1.415 . S
C588 C587 1.355 . S
C588 C590 1.419 . S
C589 C584 1.425 . S
C589 C586 1.409 . S
C589 C587 1.415 . S
C590 H580 0.930 . S
C590 C588 1.419 . S
C590 C591 1.362 . S
C591 H581 0.930 . S
C591 C584 1.409 . S
C591 C590 1.362 . S
H592 C598 0.930 . S
H593 C601 0.930 1_455 S
H594 C602 0.930 . S
H595 C603 0.930 . S
H596 C606 0.930 . S
H597 C607 0.930 . S
C598 H592 0.930 . S
C598 C599 1.355 . S
C598 C600 1.415 . S
C599 C598 1.355 . S
C599 C601 1.419 . S
C600 C598 1.415 . S
C600 C605 1.425 . S
C600 C607 1.409 . S
C601 H593 0.930 1_655 S
C601 C599 1.419 . S
C601 C602 1.362 . S
C602 H594 0.930 . S
C602 C601 1.362 . S
C602 C605 1.409 . S
C603 H595 0.930 . S
C603 C604 1.355 . S
C603 C605 1.415 . S
C604 C603 1.355 . S
C604 C606 1.419 . S
C605 C600 1.425 . S
C605 C602 1.409 . S
C605 C603 1.415 . S
C606 H596 0.930 . S
C606 C604 1.419 . S
C606 C607 1.362 . S
C607 H597 0.930 . S
C607 C600 1.409 . S
C607 C606 1.362 . S
H608 C614 0.930 . S
H609 C617 0.930 1_545 S
H610 C618 0.930 . S
H611 C619 0.930 . S
H612 C622 0.930 . S
H613 C623 0.930 . S
C614 H608 0.930 . S
C614 C615 1.355 . S
C614 C616 1.415 . S
C615 C614 1.355 . S
C615 C617 1.419 . S
C616 C614 1.415 . S
C616 C621 1.425 . S
C616 C623 1.409 . S
C617 H609 0.930 1_565 S
C617 C615 1.419 . S
C617 C618 1.362 . S
C618 H610 0.930 . S
C618 C617 1.362 . S
C618 C621 1.409 . S
C619 H611 0.930 . S
C619 C620 1.355 . S
C619 C621 1.415 . S
C620 C619 1.355 . S
C620 C622 1.419 . S
C621 C616 1.425 . S
C621 C618 1.409 . S
C621 C619 1.415 . S
C622 H612 0.930 . S
C622 C620 1.419 . S
C622 C623 1.362 . S
C623 H613 0.930 . S
C623 C616 1.409 . S
C623 C622 1.362 . S
H624 C630 0.930 . S
H625 C633 0.930 . S
H626 C634 0.930 . S
H627 C635 0.930 . S
H628 C638 0.930 . S
H629 C639 0.930 . S
C630 H624 0.930 . S
C630 C631 1.355 . S
C630 C632 1.415 . S
C631 C630 1.355 . S
C631 C633 1.419 . S
C632 C630 1.415 . S
C632 C637 1.425 . S
C632 C639 1.409 . S
C633 H625 0.930 . S
C633 C631 1.419 . S
C633 C634 1.362 . S
C634 H626 0.930 . S
C634 C633 1.362 . S
C634 C637 1.409 . S
C635 H627 0.930 . S
C635 C636 1.355 . S
C635 C637 1.415 . S
C636 C635 1.355 . S
C636 C638 1.419 . S
C637 C632 1.425 . S
C637 C634 1.409 . S
C637 C635 1.415 . S
C638 H628 0.930 . S
C638 C636 1.419 . S
C638 C639 1.362 . S
C639 H629 0.930 . S
C639 C632 1.409 . S
C639 C638 1.362 . S
H640 C646 0.930 . S
H641 C649 0.930 . S
H642 C650 0.930 . S
H643 C651 0.930 . S
H644 C654 0.930 . S
H645 C655 0.930 . S
C646 H640 0.930 . S
C646 C647 1.355 . S
C646 C648 1.415 . S
C647 C646 1.355 . S
C647 C649 1.419 . S
C648 C646 1.415 . S
C648 C653 1.425 . S
C648 C655 1.409 . S
C649 H641 0.930 . S
C649 C647 1.419 . S
C649 C650 1.362 . S
C650 H642 0.930 . S
C650 C649 1.362 . S
C650 C653 1.409 . S
C651 H643 0.930 . S
C651 C652 1.355 . S
C651 C653 1.415 . S
C652 C651 1.355 . S
C652 C654 1.419 . S
C653 C648 1.425 . S
C653 C650 1.409 . S
C653 C651 1.415 . S
C654 H644 0.930 . S
C654 C652 1.419 . S
C654 C655 1.362 . S
C655 H645 0.930 . S
C655 C648 1.409 . S
C655 C654 1.362 . S
H656 C662 0.930 . S
H657 C665 0.930 . S
H658 C666 0.930 . S
H659 C667 0.930 . S
H660 C670 0.930 . S
H661 C671 0.930 . S
C662 H656 0.930 . S
C662 C663 1.355 . S
C662 C664 1.415 . S
C663 C662 1.355 . S
C663 C665 1.419 . S
C664 C662 1.415 . S
C664 C669 1.425 . S
C664 C671 1.409 . S
C665 H657 0.930 . S
C665 C663 1.419 . S
C665 C666 1.362 . S
C666 H658 0.930 . S
C666 C665 1.362 . S
C666 C669 1.409 . S
C667 H659 0.930 . S
C667 C668 1.355 . S
C667 C669 1.415 . S
C668 C667 1.355 . S
C668 C670 1.419 . S
C669 C664 1.425 . S
C669 C666 1.409 . S
C669 C667 1.415 . S
C670 H660 0.930 . S
C670 C668 1.419 . S
C670 C671 1.362 . S
C671 H661 0.930 . S
C671 C664 1.409 . S
C671 C670 1.362 . S
H672 C678 0.930 . S
H673 C681 0.930 . S
H674 C682 0.930 . S
H675 C683 0.930 . S
H676 C686 0.930 . S
H677 C687 0.930 . S
C678 H672 0.930 . S
C678 C679 1.355 . S
C678 C680 1.415 . S
C679 C678 1.355 . S
C679 C681 1.419 . S
C680 C678 1.415 . S
C680 C685 1.425 . S
C680 C687 1.409 . S
C681 H673 0.930 . S
C681 C679 1.419 . S
C681 C682 1.362 . S
C682 H674 0.930 . S
C682 C681 1.362 . S
C682 C685 1.409 . S
C683 H675 0.930 . S
C683 C684 1.355 . S
C683 C685 1.415 . S
C684 C683 1.355 . S
C684 C686 1.419 . S
C685 C680 1.425 . S
C685 C682 1.409 . S
C685 C683 1.415 . S
C686 H676 0.930 . S
C686 C684 1.419 . S
C686 C687 1.362 . S
C687 H677 0.930 . S
C687 C680 1.409 . S
C687 C686 1.362 . S
H688 C694 0.930 . S
H689 C697 0.930 . S
H690 C698 0.930 . S
H691 C699 0.930 . S
H692 C702 0.930 . S
H693 C703 0.930 . S
C694 H688 0.930 . S
C694 C695 1.355 . S
C694 C696 1.415 . S
C695 C694 1.355 . S
C695 C697 1.419 . S
C696 C694 1.415 . S
C696 C701 1.425 . S
C696 C703 1.409 . S
C697 H689 0.930 . S
C697 C695 1.419 . S
C697 C698 1.362 . S
C698 H690 0.930 . S
C698 C697 1.362 . S
C698 C701 1.409 . S
C699 H691 0.930 . S
C699 C700 1.355 . S
C699 C701 1.415 . S
C700 C699 1.355 . S
C700 C702 1.419 . S
C701 C696 1.425 . S
C701 C698 1.409 . S
C701 C699 1.415 . S
C702 H692 0.930 . S
C702 C700 1.419 . S
C702 C703 1.362 . S
C703 H693 0.930 . S
C703 C696 1.409 . S
C703 C702 1.362 . S
H704 C710 0.930 . S
H705 C713 0.930 . S
H706 C714 0.930 . S
H707 C715 0.930 . S
H708 C718 0.930 . S
H709 C719 0.930 . S
C710 H704 0.930 . S
C710 C711 1.355 . S
C710 C712 1.415 . S
C711 C710 1.355 . S
C711 C713 1.419 . S
C712 C710 1.415 . S
C712 C717 1.425 . S
C712 C719 1.409 . S
C713 H705 0.930 . S
C713 C711 1.419 . S
C713 C714 1.362 . S
C714 H706 0.930 . S
C714 C713 1.362 . S
C714 C717 1.409 . S
C715 H707 0.930 . S
C715 C716 1.355 . S
C715 C717 1.415 . S
C716 C715 1.355 . S
C716 C718 1.419 . S
C717 C712 1.425 . S
C717 C714 1.409 . S
C717 C715 1.415 . S
C718 H708 0.930 . S
C718 C716 1.419 . S
C718 C719 1.362 . S
C719 H709 0.930 . S
C719 C712 1.409 . S
C719 C718 1.362 . S
H720 C726 0.930 . S
H721 C729 0.930 . S
H722 C730 0.930 . S
H723 C731 0.930 . S
H724 C734 0.930 . S
H725 C735 0.930 . S
C726 H720 0.930 . S
C726 C727 1.355 . S
C726 C728 1.415 . S
C727 C726 1.355 . S
C727 C729 1.419 . S
C728 C726 1.415 . S
C728 C733 1.425 . S
C728 C735 1.409 . S
C729 H721 0.930 . S
C729 C727 1.419 . S
C729 C730 1.362 . S
C730 H722 0.930 . S
C730 C729 1.362 . S
C730 C733 1.409 . S
C731 H723 0.930 . S
C731 C732 1.355 . S
C731 C733 1.415 . S
C732 C731 1.355 . S
C732 C734 1.419 . S
C733 C728 1.425 . S
C733 C730 1.409 . S
C733 C731 1.415 . S
C734 H724 0.930 . S
C734 C732 1.419 . S
C734 C735 1.362 . S
C735 H725 0.930 . S
C735 C728 1.409 . S
C735 C734 1.362 . S
H736 C742 0.930 . S
H737 C745 0.930 . S
H738 C746 0.930 . S
H739 C747 0.930 . S
H740 C750 0.930 . S
H741 C751 0.930 . S
C742 H736 0.930 . S
C742 C743 1.355 . S
C742 C744 1.415 . S
C743 C742 1.355 . S
C743 C745 1.419 . S
C744 C742 1.415 . S
C744 C749 1.425 . S
C744 C751 1.409 . S
C745 H737 0.930 . S
C745 C743 1.419 . S
C745 C746 1.362 . S
C746 H738 0.930 . S
C746 C745 1.362 . S
C746 C749 1.409 . S
C747 H739 0.930 . S
C747 C748 1.355 . S
C747 C749 1.415 . S
C748 C747 1.355 . S
C748 C750 1.419 . S
C749 C744 1.425 . S
C749 C746 1.409 . S
C749 C747 1.415 . S
C750 H740 0.930 . S
C750 C748 1.419 . S
C750 C751 1.362 . S
C751 H741 0.930 . S
C751 C744 1.409 . S
C751 C750 1.362 . S
H752 C758 0.930 . S
H753 C761 0.930 . S
H754 C762 0.930 . S
H755 C763 0.930 . S
H756 C766 0.930 . S
H757 C767 0.930 . S
C758 H752 0.930 . S
C758 C759 1.355 . S
C758 C760 1.415 . S
C759 C758 1.355 . S
C759 C761 1.419 . S
C760 C758 1.415 . S
C760 C765 1.425 . S
C760 C767 1.409 . S
C761 H753 0.930 . S
C761 C759 1.419 . S
C761 C762 1.362 . S
C762 H754 0.930 . S
C762 C761 1.362 . S
C762 C765 1.409 . S
C763 H755 0.930 . S
C763 C764 1.355 . S
C763 C765 1.415 . S
C764 C763 1.355 . S
C764 C766 1.419 . S
C765 C760 1.425 . S
C765 C762 1.409 . S
C765 C763 1.415 . S
C766 H756 0.930 . S
C766 C764 1.419 . S
C766 C767 1.362 . S
C767 H757 0.930 . S
C767 C760 1.409 . S
C767 C766 1.362 . S
H768 C774 0.930 . S
H769 C777 0.930 . S
H770 C778 0.930 . S
H771 C779 0.930 . S
H772 C782 0.930 . S
H773 C783 0.930 . S
C774 H768 0.930 . S
C774 C775 1.355 . S
C774 C776 1.415 . S
C775 C774 1.355 . S
C775 C777 1.419 . S
C776 C774 1.415 . S
C776 C781 1.425 . S
C776 C783 1.409 . S
C777 H769 0.930 . S
C777 C775 1.419 . S
C777 C778 1.362 . S
C778 H770 0.930 . S
C778 C777 1.362 . S
C778 C781 1.409 . S
C779 H771 0.930 . S
C779 C780 1.355 . S
C779 C781 1.415 . S
C780 C779 1.355 . S
C780 C782 1.419 . S
C781 C776 1.425 . S
C781 C778 1.409 . S
C781 C779 1.415 . S
C782 H772 0.930 . S
C782 C780 1.419 . S
C782 C783 1.362 . S
C783 H773 0.930 . S
C783 C776 1.409 . S
C783 C782 1.362 . S
H784 C790 0.930 . S
H785 C793 0.930 . S
H786 C794 0.930 . S
H787 C795 0.930 . S
H788 C798 0.930 . S
H789 C799 0.930 . S
C790 H784 0.930 . S
C790 C791 1.355 . S
C790 C792 1.415 . S
C791 C790 1.355 . S
C791 C793 1.419 . S
C792 C790 1.415 . S
C792 C797 1.425 . S
C792 C799 1.409 . S
C793 H785 0.930 . S
C793 C791 1.419 . S
C793 C794 1.362 . S
C794 H786 0.930 . S
C794 C793 1.362 . S
C794 C797 1.409 . S
C795 H787 0.930 . S
C795 C796 1.355 . S
C795 C797 1.415 . S
C796 C795 1.355 . S
C796 C798 1.419 . S
C797 C792 1.425 . S
C797 C794 1.409 . S
C797 C795 1.415 . S
C798 H788 0.930 . S
C798 C796 1.419 . S
C798 C799 1.362 . S
C799 H789 0.930 . S
C799 C792 1.409 . S
C799 C798 1.362 . S
H800 C806 0.930 . S
H801 C809 0.930 . S
H802 C810 0.930 . S
H803 C811 0.930 . S
H804 C814 0.930 . S
H805 C815 0.930 . S
C806 H800 0.930 . S
C806 C807 1.355 . S
C806 C808 1.415 . S
C807 C806 1.355 . S
C807 C809 1.419 . S
C808 C806 1.415 . S
C808 C813 1.425 . S
C808 C815 1.409 . S
C809 H801 0.930 . S
C809 C807 1.419 . S
C809 C810 1.362 . S
C810 H802 0.930 . S
C810 C809 1.362 . S
C810 C813 1.409 . S
C811 H803 0.930 . S
C811 C812 1.355 . S
C811 C813 1.415 . S
C812 C811 1.355 . S
C812 C814 1.419 . S
C813 C808 1.425 . S
C813 C810 1.409 . S
C813 C811 1.415 . S
C814 H804 0.930 . S
C814 C812 1.419 . S
C814 C815 1.362 . S
C815 H805 0.930 . S
C815 C808 1.409 . S
C815 C814 1.362 . S
H816 C822 0.930 . S
H817 C825 0.930 . S
H818 C826 0.930 . S
H819 C827 0.930 . S
H820 C830 0.930 . S
H821 C831 0.930 . S
C822 H816 0.930 . S
C822 C823 1.355 . S
C822 C824 1.415 . S
C823 C822 1.355 . S
C823 C825 1.419 . S
C824 C822 1.415 . S
C824 C829 1.425 . S
C824 C831 1.409 . S
C825 H817 0.930 . S
C825 C823 1.419 . S
C825 C826 1.362 . S
C826 H818 0.930 . S
C826 C825 1.362 . S
C826 C829 1.409 . S
C827 H819 0.930 . S
C827 C828 1.355 . S
C827 C829 1.415 . S
C828 C827 1.355 . S
C828 C830 1.419 . S
C829 C824 1.425 . S
C829 C826 1.409 . S
C829 C827 1.415 . S
C830 H820 0.930 . S
C830 C828 1.419 . S
C830 C831 1.362 . S
C831 H821 0.930 . S
C831 C824 1.409 . S
C831 C830 1.362 . S
H832 C838 0.930 . S
H833 C841 0.930 . S
H834 C842 0.930 . S
H835 C843 0.930 . S
H836 C846 0.930 . S
H837 C847 0.930 . S
C838 H832 0.930 . S
C838 C839 1.355 . S
C838 C840 1.415 . S
C839 C838 1.355 . S
C839 C841 1.419 . S
C840 C838 1.415 . S
C840 C845 1.425 . S
C840 C847 1.409 . S
C841 H833 0.930 . S
C841 C839 1.419 . S
C841 C842 1.362 . S
C842 H834 0.930 . S
C842 C841 1.362 . S
C842 C845 1.409 . S
C843 H835 0.930 . S
C843 C844 1.355 . S
C843 C845 1.415 . S
C844 C843 1.355 . S
C844 C846 1.419 . S
C845 C840 1.425 . S
C845 C842 1.409 . S
C845 C843 1.415 . S
C846 H836 0.930 . S
C846 C844 1.419 . S
C846 C847 1.362 . S
C847 H837 0.930 . S
C847 C840 1.409 . S
C847 C846 1.362 . S
H848 C854 0.930 . S
H849 C857 0.930 . S
H850 C858 0.930 . S
H851 C859 0.930 . S
H852 C862 0.930 . S
H853 C863 0.930 . S
C854 H848 0.930 . S
C854 C855 1.355 . S
C854 C856 1.415 . S
C855 C854 1.355 . S
C855 C857 1.419 . S
C856 C854 1.415 . S
C856 C861 1.425 . S
C856 C863 1.409 . S
C857 H849 0.930 . S
C857 C855 1.419 . S
C857 C858 1.362 . S
C858 H850 0.930 . S
C858 C857 1.362 . S
C858 C861 1.409 . S
C859 H851 0.930 . S
C859 C860 1.355 . S
C859 C861 1.415 . S
C860 C859 1.355 . S
C860 C862 1.419 . S
C861 C856 1.425 . S
C861 C858 1.409 . S
C861 C859 1.415 . S
C862 H852 0.930 . S
C862 C860 1.419 . S
C862 C863 1.362 . S
C863 H853 0.930 . S
C863 C856 1.409 . S
C863 C862 1.362 . S
H864 C870 0.930 . S
H865 C873 0.930 . S
H866 C874 0.930 . S
H867 C875 0.930 . S
H868 C878 0.930 . S
H869 C879 0.930 . S
C870 H864 0.930 . S
C870 C871 1.355 . S
C870 C872 1.415 . S
C871 C870 1.355 . S
C871 C873 1.419 . S
C872 C870 1.415 . S
C872 C877 1.425 . S
C872 C879 1.409 . S
C873 H865 0.930 . S
C873 C871 1.419 . S
C873 C874 1.362 . S
C874 H866 0.930 . S
C874 C873 1.362 . S
C874 C877 1.409 . S
C875 H867 0.930 . S
C875 C876 1.355 . S
C875 C877 1.415 . S
C876 C875 1.355 . S
C876 C878 1.419 . S
C877 C872 1.425 . S
C877 C874 1.409 . S
C877 C875 1.415 . S
C878 H868 0.930 . S
C878 C876 1.419 . S
C878 C879 1.362 . S
C879 H869 0.930 . S
C879 C872 1.409 . S
C879 C878 1.362 . S
H880 C886 0.930 . S
H881 C889 0.930 . S
H882 C890 0.930 . S
H883 C891 0.930 . S
H884 C894 0.930 . S
H885 C895 0.930 . S
C886 H880 0.930 . S
C886 C887 1.355 . S
C886 C888 1.415 . S
C887 C886 1.355 . S
C887 C889 1.419 . S
C888 C886 1.415 . S
C888 C893 1.425 . S
C888 C895 1.409 . S
C889 H881 0.930 . S
C889 C887 1.419 . S
C889 C890 1.362 . S
C890 H882 0.930 . S
C890 C889 1.362 . S
C890 C893 1.409 . S
C891 H883 0.930 . S
C891 C892 1.355 . S
C891 C893 1.415 . S
C892 C891 1.355 . S
C892 C894 1.419 . S
C893 C888 1.425 . S
C893 C890 1.409 . S
C893 C891 1.415 . S
C894 H884 0.930 . S
C894 C892 1.419 . S
C894 C895 1.362 . S
C895 H885 0.930 . S
C895 C888 1.409 . S
C895 C894 1.362 . S
H896 C902 0.930 . S
H897 C905 0.930 . S
H898 C906 0.930 . S
H899 C907 0.930 . S
H900 C910 0.930 . S
H901 C911 0.930 . S
C902 H896 0.930 . S
C902 C903 1.355 . S
C902 C904 1.415 . S
C903 C902 1.355 . S
C903 C905 1.419 . S
C904 C902 1.415 . S
C904 C909 1.425 . S
C904 C911 1.409 . S
C905 H897 0.930 . S
C905 C903 1.419 . S
C905 C906 1.362 . S
C906 H898 0.930 . S
C906 C905 1.362 . S
C906 C909 1.409 . S
C907 H899 0.930 . S
C907 C908 1.355 . S
C907 C909 1.415 . S
C908 C907 1.355 . S
C908 C910 1.419 . S
C909 C904 1.425 . S
C909 C906 1.409 . S
C909 C907 1.415 . S
C910 H900 0.930 . S
C910 C908 1.419 . S
C910 C911 1.362 . S
C911 H901 0.930 . S
C911 C904 1.409 . S
C911 C910 1.362 . S
H912 C918 0.930 . S
H913 C921 0.930 . S
H914 C922 0.930 . S
H915 C923 0.930 . S
H916 C926 0.930 . S
H917 C927 0.930 . S
C918 H912 0.930 . S
C918 C919 1.355 . S
C918 C920 1.415 . S
C919 C918 1.355 . S
C919 C921 1.419 . S
C920 C918 1.415 . S
C920 C925 1.425 . S
C920 C927 1.409 . S
C921 H913 0.930 . S
C921 C919 1.419 . S
C921 C922 1.362 . S
C922 H914 0.930 . S
C922 C921 1.362 . S
C922 C925 1.409 . S
C923 H915 0.930 . S
C923 C924 1.355 . S
C923 C925 1.415 . S
C924 C923 1.355 . S
C924 C926 1.419 . S
C925 C920 1.425 . S
C925 C922 1.409 . S
C925 C923 1.415 . S
C926 H916 0.930 . S
C926 C924 1.419 . S
C926 C927 1.362 . S
C927 H917 0.930 . S
C927 C920 1.409 . S
C927 C926 1.362 . S
H928 C934 0.930 . S
H929 C937 0.930 . S
H930 C938 0.930 . S
H931 C939 0.930 . S
H932 C942 0.930 . S
H933 C943 0.930 . S
C934 H928 0.930 . S
C934 C935 1.355 . S
C934 C936 1.415 . S
C935 C934 1.355 . S
C935 C937 1.419 . S
C936 C934 1.415 . S
C936 C941 1.425 . S
C936 C943 1.409 1_556 S
C937 H929 0.930 . S
C937 C935 1.419 . S
C937 C938 1.362 . S
C938 H930 0.930 . S
C938 C937 1.362 . S
C938 C941 1.409 . S
C939 H931 0.930 . S
C939 C940 1.355 . S
C939 C941 1.415 1_554 S
C940 C939 1.355 . S
C940 C942 1.419 . S
C941 C936 1.425 . S
C941 C938 1.409 . S
C941 C939 1.415 1_556 S
C942 H932 0.930 . S
C942 C940 1.419 . S
C942 C943 1.362 . S
C943 H933 0.930 . S
C943 C936 1.409 1_554 S
C943 C942 1.362 . S
H944 C950 0.930 . S
H945 C953 0.930 . S
H946 C954 0.930 . S
H947 C955 0.930 . S
H948 C958 0.930 . S
H949 C959 0.930 . S
C950 H944 0.930 . S
C950 C951 1.355 . S
C950 C952 1.415 1_554 S
C951 C950 1.355 . S
C951 C953 1.419 . S
C952 C950 1.415 1_556 S
C952 C957 1.425 . S
C952 C959 1.409 . S
C953 H945 0.930 . S
C953 C951 1.419 . S
C953 C954 1.362 . S
C954 H946 0.930 . S
C954 C953 1.362 . S
C954 C957 1.409 1_554 S
C955 H947 0.930 . S
C955 C956 1.355 . S
C955 C957 1.415 . S
C956 C955 1.355 . S
C956 C958 1.419 . S
C957 C952 1.425 . S
C957 C954 1.409 1_556 S
C957 C955 1.415 . S
C958 H948 0.930 . S
C958 C956 1.419 . S
C958 C959 1.362 . S
C959 H949 0.930 . S
C959 C952 1.409 . S
C959 C958 1.362 . S
H960 C966 0.930 . S
H961 C969 0.930 . S
H962 C970 0.930 . S
H963 C971 0.930 . S
H964 C974 0.930 . S
H965 C975 0.930 . S
C966 H960 0.930 . S
C966 C967 1.355 . S
C966 C968 1.415 . S
C967 C966 1.355 . S
C967 C969 1.419 . S
C968 C966 1.415 . S
C968 C973 1.425 1_556 S
C968 C975 1.409 . S
C969 H961 0.930 . S
C969 C967 1.419 . S
C969 C970 1.362 1_556 S
C970 H962 0.930 . S
C970 C969 1.362 1_554 S
C970 C973 1.409 . S
C971 H963 0.930 . S
C971 C972 1.355 . S
C971 C973 1.415 . S
C972 C971 1.355 . S
C972 C974 1.419 . S
C973 C968 1.425 1_554 S
C973 C970 1.409 . S
C973 C971 1.415 . S
C974 H964 0.930 . S
C974 C972 1.419 . S
C974 C975 1.362 1_554 S
C975 H965 0.930 . S
C975 C968 1.409 . S
C975 C974 1.362 1_556 S
H976 C982 0.930 . S
H977 C985 0.930 . S
H978 C986 0.930 . S
H979 C987 0.930 . S
H980 C990 0.930 . S
H981 C991 0.930 . S
C982 H976 0.930 . S
C982 C983 1.355 . S
C982 C984 1.415 1_554 S
C983 C982 1.355 . S
C983 C985 1.419 . S
C984 C982 1.415 1_556 S
C984 C989 1.425 . S
C984 C991 1.409 . S
C985 H977 0.930 . S
C985 C983 1.419 . S
C985 C986 1.362 . S
C986 H978 0.930 . S
C986 C985 1.362 . S
C986 C989 1.409 1_554 S
C987 H979 0.930 . S
C987 C988 1.355 . S
C987 C989 1.415 . S
C988 C987 1.355 . S
C988 C990 1.419 . S
C989 C984 1.425 . S
C989 C986 1.409 1_556 S
C989 C987 1.415 . S
C990 H980 0.930 . S
C990 C988 1.419 . S
C990 C991 1.362 . S
C991 H981 0.930 . S
C991 C984 1.409 . S
C991 C990 1.362 . S
H992 C998 0.930 . S
H993 C1001 0.930 . S
H994 C1002 0.930 . S
H995 C1003 0.930 . S
H996 C1006 0.930 . S
H997 C1007 0.930 . S
C998 H992 0.930 . S
C998 C999 1.355 . S
C998 C1000 1.415 . S
C999 C998 1.355 . S
C999 C1001 1.419 . S
C1000 C998 1.415 . S
C1000 C1005 1.425 . S
C1000 C1007 1.409 . S
C1001 H993 0.930 . S
C1001 C999 1.419 . S
C1001 C1002 1.362 . S
C1002 H994 0.930 . S
C1002 C1001 1.362 . S
C1002 C1005 1.409 . S
C1003 H995 0.930 . S
C1003 C1004 1.355 . S
C1003 C1005 1.415 . S
C1004 C1003 1.355 . S
C1004 C1006 1.419 . S
C1005 C1000 1.425 . S
C1005 C1002 1.409 . S
C1005 C1003 1.415 . S
C1006 H996 0.930 . S
C1006 C1004 1.419 . S
C1006 C1007 1.362 . S
C1007 H997 0.930 . S
C1007 C1000 1.409 . S
C1007 C1006 1.362 . S
H1008 C1014 0.930 . S
H1009 C1017 0.930 . S
H1010 C1018 0.930 . S
H1011 C1019 0.930 . S
H1012 C1022 0.930 . S
H1013 C1023 0.930 . S
C1014 H1008 0.930 . S
C1014 C1015 1.355 . S
C1014 C1016 1.415 . S
C1015 C1014 1.355 . S
C1015 C1017 1.419 . S
C1016 C1014 1.415 . S
C1016 C1021 1.425 . S
C1016 C1023 1.409 . S
C1017 H1009 0.930 . S
C1017 C1015 1.419 . S
C1017 C1018 1.362 . S
C1018 H1010 0.930 . S
C1018 C1017 1.362 . S
C1018 C1021 1.409 . S
C1019 H1011 0.930 . S
C1019 C1020 1.355 . S
C1019 C1021 1.415 . S
C1020 C1019 1.355 . S
C1020 C1022 1.419 . S
C1021 C1016 1.425 . S
C1021 C1018 1.409 . S
C1021 C1019 1.415 . S
C1022 H1012 0.930 . S
C1022 C1020 1.419 . S
C1022 C1023 1.362 . S
C1023 H1013 0.930 . S
C1023 C1016 1.409 . S
C1023 C1022 1.362 . S
H1024 C1030 0.930 . S
H1025 C1033 0.930 . S
H1026 C1034 0.930 . S
H1027 C1035 0.930 . S
H1028 C1038 0.930 . S
H1029 C1039 0.930 . S
C1030 H1024 0.930 . S
C1030 C1031 1.355 . S
C1030 C1032 1.415 . S
C1031 C1030 1.355 . S
C1031 C1033 1.419 . S
C1032 C1030 1.415 . S
C1032 C1037 1.425 . S
C1032 C1039 1.409 . S
C1033 H1025 0.930 . S
C1033 C1031 1.419 . S
C1033 C1034 1.362 . S
C1034 H1026 0.930 . S
C1034 C1033 1.362 . S
C1034 C1037 1.409 . S
C1035 H1027 0.930 . S
C1035 C1036 1.355 . S
C1035 C1037 1.415 . S
C1036 C1035 1.355 . S
C1036 C1038 1.419 . S
C1037 C1032 1.425 . S
C1037 C1034 1.409 . S
C1037 C1035 1.415 . S
C1038 H1028 0.930 . S
C1038 C1036 1.419 . S
C1038 C1039 1.362 . S
C1039 H1029 0.930 . S
C1039 C1032 1.409 . S
C1039 C1038 1.362 . S
H1040 C1046 0.930 . S
H1041 C1049 0.930 . S
H1042 C1050 0.930 . S
H1043 C1051 0.930 . S
H1044 C1054 0.930 . S
H1045 C1055 0.930 . S
C1046 H1040 0.930 . S
C1046 C1047 1.355 . S
C1046 C1048 1.415 . S
C1047 C1046 1.355 . S
C1047 C1049 1.419 . S
C1048 C1046 1.415 . S
C1048 C1053 1.425 . S
C1048 C1055 1.409 . S
C1049 H1041 0.930 . S
C1049 C1047 1.419 . S
C1049 C1050 1.362 . S
C1050 H1042 0.930 . S
C1050 C1049 1.362 . S
C1050 C1053 1.409 . S
C1051 H1043 0.930 . S
C1051 C1052 1.355 . S
C1051 C1053 1.415 . S
C1052 C1051 1.355 . S
C1052 C1054 1.419 . S
C1053 C1048 1.425 . S
C1053 C1050 1.409 . S
C1053 C1051 1.415 . S
C1054 H1044 0.930 . S
C1054 C1052 1.419 . S
C1054 C1055 1.362 . S
C1055 H1045 0.930 . S
C1055 C1048 1.409 . S
C1055 C1054 1.362 . S
H1056 C1062 0.930 . S
H1057 C1065 0.930 . S
H1058 C1066 0.930 . S
H1059 C1067 0.930 . S
H1060 C1070 0.930 . S
H1061 C1071 0.930 . S
C1062 H1056 0.930 . S
C1062 C1063 1.355 . S
C1062 C1064 1.415 1_556 S
C1063 C1062 1.355 . S
C1063 C1065 1.419 . S
C1064 C1062 1.415 1_554 S
C1064 C1069 1.425 . S
C1064 C1071 1.409 . S
C1065 H1057 0.930 . S
C1065 C1063 1.419 . S
C1065 C1066 1.362 . S
C1066 H1058 0.930 . S
C1066 C1065 1.362 . S
C1066 C1069 1.409 1_556 S
C1067 H1059 0.930 . S
C1067 C1068 1.355 . S
C1067 C1069 1.415 . S
C1068 C1067 1.355 . S
C1068 C1070 1.419 . S
C1069 C1064 1.425 . S
C1069 C1066 1.409 1_554 S
C1069 C1067 1.415 . S
C1070 H1060 0.930 . S
C1070 C1068 1.419 . S
C1070 C1071 1.362 . S
C1071 H1061 0.930 . S
C1071 C1064 1.409 . S
C1071 C1070 1.362 . S
H1072 C1078 0.930 . S
H1073 C1081 0.930 . S
H1074 C1082 0.930 . S
H1075 C1083 0.930 . S
H1076 C1086 0.930 . S
H1077 C1087 0.930 1_556 S
C1078 H1072 0.930 . S
C1078 C1079 1.355 . S
C1078 C1080 1.415 . S
C1079 C1078 1.355 . S
C1079 C1081 1.419 . S
C1080 C1078 1.415 . S
C1080 C1085 1.425 1_556 S
C1080 C1087 1.409 1_556 S
C1081 H1073 0.930 . S
C1081 C1079 1.419 . S
C1081 C1082 1.362 1_556 S
C1082 H1074 0.930 . S
C1082 C1081 1.362 1_554 S
C1082 C1085 1.409 . S
C1083 H1075 0.930 . S
C1083 C1084 1.355 . S
C1083 C1085 1.415 . S
C1084 C1083 1.355 . S
C1084 C1086 1.419 . S
C1085 C1080 1.425 1_554 S
C1085 C1082 1.409 . S
C1085 C1083 1.415 . S
C1086 H1076 0.930 . S
C1086 C1084 1.419 . S
C1086 C1087 1.362 . S
C1087 H1077 0.930 1_554 S
C1087 C1080 1.409 1_554 S
C1087 C1086 1.362 . S
H1088 C1094 0.930 . S
H1089 C1097 0.930 . S
H1090 C1098 0.930 . S
H1091 C1099 0.930 . S
H1092 C1102 0.930 . S
H1093 C1103 0.939 . S
C1094 H1088 0.930 . S
C1094 C1095 1.355 . S
C1094 C1096 1.415 . S
C1095 C1094 1.355 . S
C1095 C1097 1.419 . S
C1096 C1094 1.415 . S
C1096 C1101 1.425 1_554 S
C1096 C1103 1.417 . S
C1097 H1089 0.930 . S
C1097 C1095 1.419 . S
C1097 C1098 1.362 . S
C1098 H1090 0.930 . S
C1098 C1097 1.362 . S
C1098 C1101 1.409 1_554 S
C1099 H1091 0.930 . S
C1099 C1100 1.355 . S
C1099 C1101 1.415 . S
C1100 C1099 1.355 . S
C1100 C1102 1.419 . S
C1101 C1096 1.425 1_556 S
C1101 C1098 1.409 1_556 S
C1101 C1099 1.415 . S
C1102 H1092 0.930 . S
C1102 C1100 1.419 . S
C1102 C1103 1.347 1_556 S
C1103 H1093 0.939 . S
C1103 C1096 1.417 . S
C1103 C1102 1.347 1_554 S
H1104 C1110 0.930 . S
H1105 C1113 0.930 . S
H1106 C1114 0.930 . S
H1107 C1115 0.930 . S
H1108 C1118 0.930 . S
H1109 C1119 0.938 . S
C1110 H1104 0.930 . S
C1110 C1111 1.355 . S
C1110 C1112 1.415 . S
C1111 C1110 1.355 . S
C1111 C1113 1.419 . S
C1112 C1110 1.415 . S
C1112 C1117 1.425 . S
C1112 C1119 1.409 1_554 S
C1113 H1105 0.930 . S
C1113 C1111 1.419 . S
C1113 C1114 1.362 . S
C1114 H1106 0.930 . S
C1114 C1113 1.362 . S
C1114 C1117 1.409 . S
C1115 H1107 0.930 . S
C1115 C1116 1.355 . S
C1115 C1117 1.415 1_556 S
C1116 C1115 1.355 . S
C1116 C1118 1.419 . S
C1117 C1112 1.425 . S
C1117 C1114 1.409 . S
C1117 C1115 1.415 1_554 S
C1118 H1108 0.930 . S
C1118 C1116 1.419 . S
C1118 C1119 1.362 . S
C1119 H1109 0.938 . S
C1119 C1112 1.409 1_556 S
C1119 C1118 1.362 . S
C359 C5 2.282 . S
C364 C119 2.279 . S
C375 C141 2.207 . S
C380 C27 2.207 . S
C391 C49 2.207 . S
C396 C163 2.207 . S
C407 C75 2.232 . S
C412 C93 2.210 . S
C423 C293 2.259 . S
C428 C182 2.231 . S
C439 C315 2.264 . S
C444 C205 2.237 . S
C455 C227 2.221 . S
C460 C336 2.248 . S
C471 C249 2.253 . S
C476 C271 2.276 . S
C487 C4 1.643 . S
C492 C73 1.474 . S
C503 C26 1.616 . S
C508 C6 1.566 . S
C519 C48 1.643 . S
C524 C28 1.474 . S
C535 C74 1.622 . S
C540 C50 1.564 . S
C551 C92 1.628 . S
C556 C117 1.486 . S
C567 C139 1.492 . S
C572 C118 1.625 . S
C583 C140 1.631 . S
C588 C161 1.552 . S
C599 C94 1.489 . S
C604 C162 1.627 . S
C615 C251 1.474 . S
C620 C180 1.636 . S
C631 C206 1.624 . S
C636 C181 1.494 . S
C647 C228 1.621 . S
C652 C207 1.504 . S
C663 C250 1.613 . S
C668 C229 1.545 . S
C679 C272 1.613 . S
C684 C295 1.538 . S
C695 C294 1.645 . S
C700 C317 1.495 . S
C711 C316 1.628 . S
C716 C335 1.556 . S
C727 C334 1.645 . S
C732 C273 1.479 . S
C743 C7 0.449 . S
C748 C51 0.356 . S
C759 C29 0.473 . S
C764 C72 0.520 . S
C775 C138 0.359 . S
C780 C95 0.319 . S
C791 C160 0.395 . S
C796 C116 0.483 . S
C807 C225 0.507 . S
C812 C185 0.435 . S
C823 C247 0.326 . S
C828 C203 0.342 . S
C839 C269 0.319 . S
C844 C313 0.375 . S
C855 C291 0.418 . S
C860 C339 0.334 . S
C871 C8 1.271 . S
C876 C248 1.261 . S
C887 C183 1.285 . S
C892 C30 1.280 . S
C903 C52 1.278 . S
C908 C204 1.275 . S
C919 C226 1.251 . S
C924 C70 1.268 . S
C935 C292 1.277 . S
C940 C96 1.276 . S
C951 C114 1.279 . S
C956 C314 1.284 . S
C967 C337 1.250 . S
C972 C136 1.268 . S
C983 C158 1.273 . S
C988 C270 1.258 . S
C999 C184 1.271 . S
C1004 C71 1.253 . S
C1015 C202 1.273 . S
C1020 C9 1.267 . S
C1031 C31 1.249 . S
C1036 C224 1.269 . S
C1047 C246 1.280 . S
C1052 C53 1.280 . S
C1063 C268 1.275 . S
C1068 C115 1.262 . S
C1079 C290 1.269 . S
C1084 C137 1.248 . S
C1095 C159 1.276 . S
C1100 C312 1.276 . S
C1111 C97 1.250 . S
C1116 C338 1.270 . S
