# Generated by pormake.
# Topology ske, (6)-cn, num edge types: 1
# Building blocks:
#     Node 0, Type 0, BuildingBlock: BETDAH_clean_sbu_0, # of connection points: 6
#     Node 1, Type 0, BuildingBlock: BETDAH_clean_sbu_0, # of connection points: 6
#     Node 2, Type 0, BuildingBlock: BETDAH_clean_sbu_0, # of connection points: 6
#     Node 3, Type 0, BuildingBlock: BETDAH_clean_sbu_0, # of connection points: 6
#     Node 4, Type 0, BuildingBlock: BETDAH_clean_sbu_0, # of connection points: 6
#     Node 5, Type 0, BuildingBlock: BETDAH_clean_sbu_0, # of connection points: 6
#     Node 6, Type 0, BuildingBlock: BETDAH_clean_sbu_0, # of connection points: 6
#     Node 7, Type 0, BuildingBlock: BETDAH_clean_sbu_0, # of connection points: 6
#     Edge 8, Type (0, 0), BuildingBlock: TEMPAE_clean_linker_10, # of connection points: 2
#     Edge 9, Type (0, 0), BuildingBlock: TEMPAE_clean_linker_10, # of connection points: 2
#     Edge 10, Type (0, 0), BuildingBlock: TEMPAE_clean_linker_10, # of connection points: 2
#     Edge 11, Type (0, 0), BuildingBlock: TEMPAE_clean_linker_10, # of connection points: 2
#     Edge 12, Type (0, 0), BuildingBlock: TEMPAE_clean_linker_10, # of connection points: 2
#     Edge 13, Type (0, 0), BuildingBlock: TEMPAE_clean_linker_10, # of connection points: 2
#     Edge 14, Type (0, 0), BuildingBlock: TEMPAE_clean_linker_10, # of connection points: 2
#     Edge 15, Type (0, 0), BuildingBlock: TEMPAE_clean_linker_10, # of connection points: 2
#     Edge 16, Type (0, 0), BuildingBlock: TEMPAE_clean_linker_10, # of connection points: 2
#     Edge 17, Type (0, 0), BuildingBlock: TEMPAE_clean_linker_10, # of connection points: 2
#     Edge 18, Type (0, 0), BuildingBlock: TEMPAE_clean_linker_10, # of connection points: 2
#     Edge 19, Type (0, 0), BuildingBlock: TEMPAE_clean_linker_10, # of connection points: 2
#     Edge 20, Type (0, 0), BuildingBlock: TEMPAE_clean_linker_10, # of connection points: 2
#     Edge 21, Type (0, 0), BuildingBlock: TEMPAE_clean_linker_10, # of connection points: 2
#     Edge 22, Type (0, 0), BuildingBlock: TEMPAE_clean_linker_10, # of connection points: 2
#     Edge 23, Type (0, 0), BuildingBlock: TEMPAE_clean_linker_10, # of connection points: 2
#     Edge 24, Type (0, 0), BuildingBlock: TEMPAE_clean_linker_10, # of connection points: 2
#     Edge 25, Type (0, 0), BuildingBlock: TEMPAE_clean_linker_10, # of connection points: 2
#     Edge 26, Type (0, 0), BuildingBlock: TEMPAE_clean_linker_10, # of connection points: 2
#     Edge 27, Type (0, 0), BuildingBlock: TEMPAE_clean_linker_10, # of connection points: 2
#     Edge 28, Type (0, 0), BuildingBlock: TEMPAE_clean_linker_10, # of connection points: 2
#     Edge 29, Type (0, 0), BuildingBlock: TEMPAE_clean_linker_10, # of connection points: 2
#     Edge 30, Type (0, 0), BuildingBlock: TEMPAE_clean_linker_10, # of connection points: 2
#     Edge 31, Type (0, 0), BuildingBlock: TEMPAE_clean_linker_10, # of connection points: 2
# Relax obj value: 0.206
# Max RMSD: 0.210
# Mean RMSD: 0.203
data_MOF--net-ske--node1-BETDAH_clean_sbu_0--edge1-TEMPAE_clean_linker_10
_symmetry_space_group_name_H-M    P1
_symmetry_Int_Tables_number       1
_symmetry_cell_setting            triclinic
loop_
_symmetry_equiv_pos_as_xyz
'x, y, z'
_cell_length_a     103.78157
_cell_length_b     29.571407
_cell_length_c     15.778779
_cell_angle_alpha  89.880757
_cell_angle_beta   89.970687
_cell_angle_gamma 84.075342
loop_
_atom_site_label
_atom_site_type_symbol
_atom_site_fract_x
_atom_site_fract_y
_atom_site_fract_z
_atom_type_partial_charge
Ho0 Ho 0.15552 0.25571 0.53359 0.0
Ho1 Ho 0.12677 0.24753 0.5425 0.0
C2 C 0.14192 0.24778 0.71767 0.0
C3 C 0.17897 0.27889 0.5435 0.0
C4 C 0.19145 0.27059 0.5902 0.0
C5 C 0.19598 0.30584 0.63778 0.0
C6 C 0.20849 0.30109 0.67246 0.0
C7 C 0.21684 0.26106 0.65981 0.0
C8 C 0.21216 0.22528 0.61426 0.0
C9 C 0.19964 0.22996 0.57986 0.0
C10 C 0.14915 0.16883 0.52372 0.0
C11 C 0.14045 0.255 0.35926 0.0
C12 C 0.10348 0.22262 0.53889 0.0
C13 C 0.09007 0.22763 0.50568 0.0
C14 C 0.08332 0.18893 0.5033 0.0
C15 C 0.06996 0.1929 0.48843 0.0
C16 C 0.06302 0.23574 0.47522 0.0
C17 C 0.06992 0.27435 0.47302 0.0
C18 C 0.08332 0.27038 0.48866 0.0
C19 C 0.13317 0.33505 0.54655 0.0
O20 O 0.15184 0.26117 0.67511 0.0
O21 O 0.13189 0.23343 0.67849 0.0
O22 O 0.17558 0.24642 0.49482 0.0
O23 O 0.16907 0.30076 0.58239 0.0
O24 O 0.15881 0.18396 0.48475 0.0
O25 O 0.14388 0.19956 0.57172 0.0
O26 O 0.13105 0.23808 0.40201 0.0
O27 O 0.14989 0.27301 0.39906 0.0
O28 O 0.10701 0.25517 0.58656 0.0
O29 O 0.11292 0.20371 0.49187 0.0
O30 O 0.1233 0.321 0.58476 0.0
O31 O 0.13841 0.30301 0.502 0.0
H32 H 0.19 0.3378 0.64578 0.0
H33 H 0.21178 0.32954 0.70639 0.0
H34 H 0.21824 0.19372 0.60427 0.0
H35 H 0.19653 0.20213 0.54321 0.0
H36 H 0.08829 0.15565 0.51689 0.0
H37 H 0.06499 0.16244 0.48939 0.0
H38 H 0.06486 0.30786 0.46337 0.0
H39 H 0.08828 0.30083 0.49088 0.0
Ho40 Ho 0.87199 0.25179 0.53086 0.0
Ho41 Ho 0.90073 0.25995 0.53954 0.0
C42 C 0.88555 0.26034 0.71354 0.0
C43 C 0.84859 0.22807 0.54196 0.0
C44 C 0.83636 0.23358 0.59153 0.0
C45 C 0.83077 0.19467 0.61816 0.0
C46 C 0.81836 0.1983 0.65419 0.0
C47 C 0.81117 0.24101 0.66403 0.0
C48 C 0.81696 0.28011 0.63987 0.0
C49 C 0.8294 0.27647 0.60407 0.0
C50 C 0.87833 0.33887 0.52118 0.0
C51 C 0.88697 0.25368 0.35524 0.0
C52 C 0.92412 0.28382 0.53611 0.0
C53 C 0.93755 0.27662 0.50305 0.0
C54 C 0.94399 0.31486 0.48406 0.0
C55 C 0.95734 0.31046 0.46875 0.0
C56 C 0.96462 0.26762 0.47207 0.0
C57 C 0.95803 0.22898 0.48664 0.0
C58 C 0.94464 0.23343 0.50233 0.0
C59 C 0.89426 0.17263 0.54453 0.0
O60 O 0.87628 0.24277 0.67124 0.0
O61 O 0.8949 0.27847 0.67313 0.0
O62 O 0.85169 0.26305 0.49872 0.0
O63 O 0.85869 0.20449 0.57538 0.0
O64 O 0.86856 0.32398 0.48337 0.0
O65 O 0.88363 0.3079 0.56861 0.0
O66 O 0.89696 0.26659 0.39799 0.0
O67 O 0.87691 0.23909 0.39418 0.0
O68 O 0.92029 0.25299 0.58704 0.0
O69 O 0.91484 0.30218 0.48697 0.0
O70 O 0.90395 0.18689 0.58446 0.0
O71 O 0.88909 0.20454 0.49899 0.0
H72 H 0.83583 0.16118 0.60832 0.0
H73 H 0.81419 0.16743 0.67121 0.0
H74 H 0.81181 0.31359 0.64769 0.0
H75 H 0.83341 0.30718 0.58414 0.0
H76 H 0.93877 0.34855 0.48485 0.0
H77 H 0.96205 0.34085 0.45641 0.0
H78 H 0.96333 0.19549 0.49011 0.0
H79 H 0.93996 0.20333 0.51741 0.0
Ho80 Ho 0.12702 0.74759 0.49534 0.0
Ho81 Ho 0.15582 0.75555 0.50396 0.0
C82 C 0.14078 0.75408 0.67957 0.0
C83 C 0.10367 0.72329 0.49788 0.0
C84 C 0.09018 0.72927 0.53006 0.0
C85 C 0.08353 0.69057 0.53911 0.0
C86 C 0.07015 0.69475 0.55335 0.0
C87 C 0.06307 0.73784 0.55911 0.0
C88 C 0.06985 0.77666 0.5545 0.0
C89 C 0.08328 0.77245 0.53964 0.0
C90 C 0.13348 0.83484 0.49037 0.0
C91 C 0.14222 0.74743 0.32127 0.0
C92 C 0.1793 0.77871 0.49329 0.0
C93 C 0.1916 0.7728 0.44443 0.0
C94 C 0.19763 0.81143 0.42169 0.0
C95 C 0.2101 0.80715 0.38647 0.0
C96 C 0.2169 0.76401 0.37344 0.0
C97 C 0.21066 0.72527 0.3937 0.0
C98 C 0.19816 0.72958 0.42877 0.0
C99 C 0.14934 0.66861 0.5137 0.0
O100 O 0.13076 0.74126 0.63695 0.0
O101 O 0.15087 0.76847 0.64056 0.0
O102 O 0.10741 0.75499 0.44859 0.0
O103 O 0.11296 0.70466 0.5466 0.0
O104 O 0.12375 0.82063 0.45085 0.0
O105 O 0.13873 0.80293 0.53565 0.0
O106 O 0.15154 0.76472 0.36362 0.0
O107 O 0.13284 0.72945 0.36157 0.0
O108 O 0.17609 0.74392 0.53668 0.0
O109 O 0.16926 0.80235 0.45921 0.0
O110 O 0.15913 0.6833 0.55154 0.0
O111 O 0.14412 0.69968 0.46619 0.0
H112 H 0.08861 0.65693 0.53134 0.0
H113 H 0.06528 0.66415 0.55783 0.0
H114 H 0.0647 0.81036 0.55827 0.0
H115 H 0.08814 0.80291 0.53222 0.0
H116 H 0.19287 0.84514 0.43399 0.0
H117 H 0.21461 0.83776 0.37258 0.0
H118 H 0.2155 0.69151 0.38336 0.0
H119 H 0.1938 0.69908 0.44568 0.0
Ho120 Ho 0.90069 0.76013 0.49244 0.0
Ho121 Ho 0.87188 0.75208 0.5009 0.0
C122 C 0.88689 0.75306 0.6754 0.0
C123 C 0.92401 0.7849 0.49712 0.0
C124 C 0.93748 0.7785 0.52961 0.0
C125 C 0.94408 0.81711 0.54112 0.0
C126 C 0.95746 0.81282 0.55557 0.0
C127 C 0.96458 0.76971 0.55908 0.0
C128 C 0.95784 0.7309 0.55203 0.0
C129 C 0.94442 0.73524 0.53697 0.0
C130 C 0.89434 0.67262 0.48866 0.0
C131 C 0.88553 0.76026 0.31708 0.0
C132 C 0.84844 0.72887 0.49118 0.0
C133 C 0.836 0.73624 0.44398 0.0
C134 C 0.83019 0.69838 0.41468 0.0
C135 C 0.81769 0.70348 0.38012 0.0
C136 C 0.81062 0.74665 0.37436 0.0
C137 C 0.81662 0.78475 0.40141 0.0
C138 C 0.82915 0.77964 0.43579 0.0
C139 C 0.87839 0.83886 0.51143 0.0
O140 O 0.89629 0.76999 0.63269 0.0
O141 O 0.87747 0.73496 0.63559 0.0
O142 O 0.92034 0.75398 0.4462 0.0
O143 O 0.91467 0.8025 0.5463 0.0
O144 O 0.90429 0.68659 0.45125 0.0
O145 O 0.88898 0.70471 0.53266 0.0
O146 O 0.87559 0.74685 0.35943 0.0
O147 O 0.89557 0.7745 0.35647 0.0
O148 O 0.85176 0.76224 0.53787 0.0
O149 O 0.85837 0.70643 0.45361 0.0
O150 O 0.8687 0.82382 0.55027 0.0
O151 O 0.88358 0.8081 0.46321 0.0
H152 H 0.93898 0.85082 0.53507 0.0
H153 H 0.9623 0.84339 0.56196 0.0
H154 H 0.96302 0.6972 0.55401 0.0
H155 H 0.93959 0.70486 0.52762 0.0
H156 H 0.83518 0.6645 0.42115 0.0
H157 H 0.81337 0.6733 0.36088 0.0
H158 H 0.81156 0.81858 0.3968 0.0
H159 H 0.83333 0.80956 0.45785 0.0
Ho160 Ho 0.65624 0.76044 0.0407 0.0
Ho161 Ho 0.62756 0.74999 0.04989 0.0
C162 C 0.64288 0.74904 0.22338 0.0
C163 C 0.67945 0.7859 0.05149 0.0
C164 C 0.69169 0.7811 0.10088 0.0
C165 C 0.69771 0.82022 0.11998 0.0
C166 C 0.71015 0.81678 0.15542 0.0
C167 C 0.71694 0.77401 0.17246 0.0
C168 C 0.71068 0.73482 0.15628 0.0
C169 C 0.69821 0.7383 0.12078 0.0
C170 C 0.65046 0.67295 0.02848 0.0
C171 C 0.64131 0.75689 0.86562 0.0
C172 C 0.60415 0.72583 0.04598 0.0
C173 C 0.59046 0.73752 0.01925 0.0
C174 C 0.58446 0.70733 0.96726 0.0
C175 C 0.57102 0.71284 0.95428 0.0
C176 C 0.56321 0.74848 0.99379 0.0
C177 C 0.56929 0.77984 0.04281 0.0
C178 C 0.58274 0.77447 0.05536 0.0
C179 C 0.63349 0.8379 0.05519 0.0
O180 O 0.65195 0.76799 0.18126 0.0
O181 O 0.63372 0.73013 0.18261 0.0
O182 O 0.67655 0.75064 1.00854 0.0
O183 O 0.66924 0.80877 0.08494 0.0
O184 O 0.66017 0.68893 0.99166 0.0
O185 O 0.64495 0.70297 0.07683 0.0
O186 O 0.63157 0.74228 0.90875 0.0
O187 O 0.65113 0.77326 0.90421 0.0
O188 O 0.60863 0.75024 0.10594 0.0
O189 O 0.61293 0.71297 0.98897 0.0
O190 O 0.62383 0.82295 0.09435 0.0
O191 O 0.63884 0.80644 1.00974 0.0
H192 H 0.69293 0.85361 0.10496 0.0
H193 H 0.71452 0.84774 0.16839 0.0
H194 H 0.71561 0.70131 0.16794 0.0
H195 H 0.69387 0.70745 0.10643 0.0
H196 H 0.59011 0.67815 0.93966 0.0
H197 H 0.56667 0.68786 0.91666 0.0
H198 H 0.56361 0.80807 0.07313 0.0
H199 H 0.58698 0.79834 0.09616 0.0
Ho200 Ho 0.37147 0.75272 0.03817 0.0
Ho201 Ho 0.40025 0.75913 0.04756 0.0
C202 C 0.38487 0.76191 0.22085 0.0
C203 C 0.34787 0.73072 0.04777 0.0
C204 C 0.33575 0.73404 0.09848 0.0
C205 C 0.32948 0.69471 0.1112 0.0
C206 C 0.31707 0.69739 0.14701 0.0
C207 C 0.31056 0.73958 0.17085 0.0
C208 C 0.31707 0.7788 0.16125 0.0
C209 C 0.32951 0.77609 0.1253 0.0
C210 C 0.37827 0.83906 0.02517 0.0
C211 C 0.38648 0.75457 0.86297 0.0
C212 C 0.424 0.78017 0.04486 0.0
C213 C 0.4377 0.76803 0.01837 0.0
C214 C 0.44317 0.79279 0.95387 0.0
C215 C 0.4566 0.7878 0.93947 0.0
C216 C 0.46494 0.75823 0.98984 0.0
C217 C 0.45937 0.7322 0.05221 0.0
C218 C 0.44597 0.73705 0.06629 0.0
C219 C 0.39337 0.67225 0.05253 0.0
O220 O 0.37561 0.74415 0.17877 0.0
O221 O 0.39424 0.77968 0.18002 0.0
O222 O 0.35107 0.76773 1.0117 0.0
O223 O 0.35793 0.7046 0.07546 0.0
O224 O 0.36856 0.82412 0.98678 0.0
O225 O 0.38337 0.80853 0.07442 0.0
O226 O 0.39646 0.76727 0.90617 0.0
O227 O 0.37637 0.74003 0.90151 0.0
O228 O 0.41929 0.75523 0.10332 0.0
O229 O 0.41531 0.79493 0.98843 0.0
O230 O 0.40313 0.68595 0.09242 0.0
O231 O 0.38838 0.70439 1.00696 0.0
H232 H 0.33402 0.66191 0.09072 0.0
H233 H 0.31249 0.66636 0.15479 0.0
H234 H 0.31236 0.81191 0.1783 0.0
H235 H 0.33404 0.80711 0.11592 0.0
H236 H 0.43714 0.81742 0.91657 0.0
H237 H 0.46046 0.80792 0.88995 0.0
H238 H 0.46541 0.70956 0.09323 0.0
H239 H 0.44218 0.71791 0.11757 0.0
Ho240 Ho 0.62786 0.25456 1.00194 0.0
Ho241 Ho 0.65678 0.25609 1.00591 0.0
C242 C 0.64248 0.25484 0.18068 0.0
C243 C 0.6036 0.2439 0.01865 0.0
C244 C 0.58958 0.23897 0.02954 0.0
C245 C 0.58395 0.20235 0.99316 0.0
C246 C 0.57054 0.19991 0.9983 0.0
C247 C 0.56243 0.23399 0.04013 0.0
C248 C 0.56815 0.27011 0.07782 0.0
C249 C 0.58153 0.27256 0.07256 0.0
C250 C 0.63608 0.33873 0.98652 0.0
C251 C 0.64201 0.2523 0.82279 0.0
C252 C 0.68042 0.27693 0.99303 0.0
C253 C 0.69266 0.27144 0.94374 0.0
C254 C 0.69877 0.31034 0.92412 0.0
C255 C 0.71121 0.30653 0.8887 0.0
C256 C 0.71789 0.26361 0.87209 0.0
C257 C 0.71155 0.22461 0.88865 0.0
C258 C 0.69908 0.22846 0.92438 0.0
C259 C 0.64909 0.17151 0.02408 0.0
O260 O 0.63338 0.23656 0.13781 0.0
O261 O 0.6516 0.27425 0.14036 0.0
O262 O 0.60884 0.27865 0.04947 0.0
O263 O 0.61174 0.21384 0.98033 0.0
O264 O 0.62653 0.32485 0.94459 0.0
O265 O 0.64065 0.30759 0.03607 0.0
O266 O 0.65291 0.25683 0.86435 0.0
O267 O 0.63098 0.24795 0.86226 0.0
O268 O 0.67713 0.24188 0.03551 0.0
O269 O 0.67045 0.30157 0.96022 0.0
O270 O 0.65914 0.18546 0.06048 0.0
O271 O 0.64408 0.2021 0.97446 0.0
H272 H 0.58988 0.17594 0.95947 0.0
H273 H 0.56651 0.17133 0.96937 0.0
H274 H 0.56225 0.29733 0.10947 0.0
H275 H 0.58552 0.30139 0.1009 0.0
H276 H 0.69408 0.34386 0.93876 0.0
H277 H 0.71567 0.33732 0.87544 0.0
H278 H 0.71642 0.19101 0.87712 0.0
H279 H 0.69466 0.19779 0.93918 0.0
Ho280 Ho 0.39974 0.26093 0.98973 0.0
Ho281 Ho 0.37105 0.2519 0.99689 0.0
C282 C 0.38563 0.25539 0.17125 0.0
C283 C 0.42303 0.28595 0.99871 0.0
C284 C 0.43678 0.27313 0.0214 0.0
C285 C 0.44374 0.3059 0.05931 0.0
C286 C 0.45721 0.29831 0.06843 0.0
C287 C 0.46406 0.25768 0.03962 0.0
C288 C 0.45698 0.2239 1.00528 0.0
C289 C 0.44348 0.23159 0.99599 0.0
C290 C 0.3938 0.17291 0.98602 0.0
C291 C 0.38469 0.26178 0.81364 0.0
C292 C 0.34776 0.22748 0.98626 0.0
C293 C 0.3354 0.23396 0.9379 0.0
C294 C 0.33066 0.19625 0.89936 0.0
C295 C 0.31823 0.19975 0.86364 0.0
C296 C 0.31017 0.24107 0.86597 0.0
C297 C 0.31511 0.27924 0.90211 0.0
C298 C 0.32756 0.27574 0.93776 0.0
C299 C 0.37723 0.33904 1.00961 0.0
O300 O 0.3946 0.27443 0.12811 0.0
O301 O 0.37667 0.23487 0.13145 0.0
O302 O 0.41846 0.26603 0.93322 0.0
O303 O 0.41448 0.29332 0.05922 0.0
O304 O 0.40384 0.18718 0.95031 0.0
O305 O 0.38823 0.20492 0.02913 0.0
O306 O 0.3748 0.24766 0.85544 0.0
O307 O 0.39466 0.27607 0.85376 0.0
O308 O 0.35086 0.26126 0.03273 0.0
O309 O 0.35783 0.20524 0.94988 0.0
O310 O 0.36754 0.32341 0.04739 0.0
O311 O 0.38258 0.30874 0.96111 0.0
H312 H 0.43882 0.33829 0.07895 0.0
H313 H 0.46229 0.32474 0.09653 0.0
H314 H 0.46194 0.19232 0.98206 0.0
H315 H 0.43836 0.20578 0.96603 0.0
H316 H 0.33642 0.16355 0.89905 0.0
H317 H 0.31488 0.16981 0.83514 0.0
H318 H 0.30918 0.31151 0.90586 0.0
H319 H 0.33085 0.30544 0.96754 0.0
C320 C 0.23354 0.2739 0.77108 0.0
C321 C 0.23054 0.25739 0.69085 0.0
C322 C 0.24644 0.27146 0.8 0.0
C323 C 0.25664 0.25223 0.74744 0.0
C324 C 0.25367 0.23549 0.66644 0.0
C325 C 0.2407 0.23822 0.63927 0.0
C326 C 0.24914 0.28944 0.88698 0.0
C327 C 0.26423 0.21493 0.60814 0.0
C328 C 0.29099 0.28225 0.78975 0.0
C329 C 0.29651 0.24379 0.8341 0.0
C330 C 0.27807 0.28545 0.76122 0.0
C331 C 0.27041 0.24936 0.77728 0.0
C332 C 0.27592 0.21043 0.82176 0.0
C333 C 0.28885 0.20814 0.84961 0.0
C334 C 0.27261 0.32751 0.71379 0.0
C335 C 0.26812 0.1712 0.84048 0.0
H336 H 0.22578 0.28836 0.81179 0.0
H337 H 0.23854 0.22603 0.57666 0.0
H338 H 0.25414 0.26189 0.92641 0.0
H339 H 0.2557 0.31664 0.88183 0.0
H340 H 0.24015 0.30337 0.92013 0.0
H341 H 0.26034 0.20339 0.5472 0.0
H342 H 0.27115 0.2402 0.59435 0.0
H343 H 0.26977 0.18545 0.63949 0.0
H344 H 0.29683 0.30979 0.7765 0.0
H345 H 0.29289 0.17861 0.88505 0.0
H346 H 0.26402 0.34404 0.74769 0.0
H347 H 0.26933 0.31805 0.64992 0.0
H348 H 0.2798 0.3526 0.70645 0.0
H349 H 0.25949 0.18318 0.87894 0.0
H350 H 0.27383 0.14322 0.87523 0.0
H351 H 0.26456 0.15743 0.78049 0.0
C352 C 0.73591 0.22822 0.77818 0.0
C353 C 0.7316 0.25976 0.84109 0.0
C354 C 0.74881 0.22454 0.74893 0.0
C355 C 0.75769 0.25286 0.78363 0.0
C356 C 0.75341 0.28453 0.84746 0.0
C357 C 0.74047 0.2876 0.87525 0.0
C358 C 0.75293 0.1905 0.68047 0.0
C359 C 0.76253 0.31517 0.88669 0.0
C360 C 0.794 0.21717 0.76327 0.0
C361 C 0.79751 0.24454 0.69594 0.0
C362 C 0.78111 0.21943 0.79226 0.0
C363 C 0.77142 0.24967 0.75294 0.0
C364 C 0.77489 0.27738 0.68498 0.0
C365 C 0.78786 0.27453 0.65748 0.0
C366 C 0.77787 0.18953 0.86528 0.0
C367 C 0.76489 0.30993 0.64094 0.0
H368 H 0.72914 0.20682 0.75083 0.0
H369 H 0.73733 0.31151 0.92492 0.0
H370 H 0.75646 0.20827 0.62438 0.0
H371 H 0.76108 0.16635 0.70335 0.0
H372 H 0.7449 0.17084 0.66026 0.0
H373 H 0.75773 0.33783 0.93596 0.0
H374 H 0.77089 0.2944 0.91589 0.0
H375 H 0.76645 0.33655 0.83698 0.0
H376 H 0.80138 0.19422 0.79402 0.0
H377 H 0.79039 0.2953 0.60455 0.0
H378 H 0.77041 0.16742 0.84552 0.0
H379 H 0.77374 0.21086 0.91842 0.0
H380 H 0.78648 0.16766 0.88876 0.0
H381 H 0.75713 0.29104 0.61437 0.0
H382 H 0.76912 0.32894 0.58881 0.0
H383 H 0.76027 0.33475 0.68721 0.0
C384 C 0.29263 0.77207 0.26856 0.0
C385 C 0.29684 0.74276 0.20191 0.0
C386 C 0.27969 0.77569 0.29706 0.0
C387 C 0.27066 0.74951 0.25795 0.0
C388 C 0.27484 0.71989 0.1907 0.0
C389 C 0.28783 0.71689 0.16361 0.0
C390 C 0.27568 0.80755 0.36917 0.0
C391 C 0.26557 0.69151 0.14685 0.0
C392 C 0.23995 0.72738 0.37806 0.0
C393 C 0.23061 0.75962 0.3422 0.0
C394 C 0.25297 0.72381 0.35146 0.0
C395 C 0.25684 0.75309 0.28717 0.0
C396 C 0.24747 0.78553 0.25035 0.0
C397 C 0.23451 0.78843 0.27828 0.0
C398 C 0.26262 0.68884 0.3927 0.0
C399 C 0.25113 0.81724 0.1813 0.0
H400 H 0.2995 0.7919 0.29922 0.0
H401 H 0.29087 0.69473 0.11111 0.0
H402 H 0.26778 0.83328 0.34822 0.0
H403 H 0.27184 0.78831 0.42232 0.0
H404 H 0.28384 0.82547 0.39304 0.0
H405 H 0.27034 0.66991 0.09596 0.0
H406 H 0.26131 0.66921 0.19355 0.0
H407 H 0.25745 0.71393 0.11863 0.0
H408 H 0.23713 0.70543 0.42838 0.0
H409 H 0.22739 0.81311 0.2494 0.0
H410 H 0.27047 0.70588 0.4228 0.0
H411 H 0.26718 0.66532 0.34404 0.0
H412 H 0.25808 0.66854 0.44164 0.0
H413 H 0.25874 0.83785 0.20458 0.0
H414 H 0.24273 0.84061 0.15921 0.0
H415 H 0.25523 0.79728 0.12637 0.0
C416 C 0.73945 0.79896 0.17035 0.0
C417 C 0.73066 0.77039 0.20347 0.0
C418 C 0.75243 0.79564 0.19746 0.0
C419 C 0.75684 0.76289 0.25936 0.0
C420 C 0.74804 0.73397 0.29323 0.0
C421 C 0.7351 0.73801 0.2649 0.0
C422 C 0.76146 0.82706 0.15932 0.0
C423 C 0.75231 0.6987 0.35954 0.0
C424 C 0.79316 0.72592 0.27446 0.0
C425 C 0.7969 0.75157 0.34342 0.0
C426 C 0.78021 0.72927 0.24651 0.0
C427 C 0.77067 0.75892 0.28846 0.0
C428 C 0.77437 0.78501 0.35789 0.0
C429 C 0.7874 0.78107 0.38438 0.0
C430 C 0.77673 0.70103 0.17194 0.0
C431 C 0.76454 0.81692 0.40468 0.0
H432 H 0.73623 0.82355 0.12181 0.0
H433 H 0.7284 0.71606 0.29164 0.0
H434 H 0.76559 0.84716 0.20998 0.0
H435 H 0.76968 0.80687 0.12759 0.0
H436 H 0.75652 0.85092 0.11232 0.0
H437 H 0.74431 0.67887 0.3797 0.0
H438 H 0.76035 0.67482 0.3345 0.0
H439 H 0.75604 0.7154 0.41606 0.0
H440 H 0.80041 0.70341 0.24169 0.0
H441 H 0.79009 0.80052 0.43852 0.0
H442 H 0.77246 0.72353 0.12064 0.0
H443 H 0.76929 0.6786 0.19105 0.0
H444 H 0.78525 0.67959 0.14617 0.0
H445 H 0.7598 0.84258 0.36021 0.0
H446 H 0.76896 0.83494 0.45721 0.0
H447 H 0.75684 0.79768 0.43124 0.0
C448 C 0.14503 0.89784 0.55374 0.0
C449 C 0.13575 0.88373 0.49766 0.0
C450 C 0.14698 0.94422 0.5617 0.0
C451 C 0.13954 0.9775 0.51212 0.0
C452 C 0.13016 0.96328 0.45543 0.0
C453 C 0.12838 0.91678 0.44901 0.0
C454 C 0.15709 0.95761 0.6229 0.0
C455 C 0.12208 0.99721 0.40074 0.0
C456 C 0.13717 0.10359 0.5751 0.0
C457 C 0.14641 0.12026 0.52166 0.0
C458 C 0.13489 0.05726 0.57335 0.0
C459 C 0.14195 0.02682 0.51644 0.0
C460 C 0.15122 0.04375 0.46209 0.0
C461 C 0.15334 0.08999 0.4655 0.0
C462 C 0.12493 0.04083 0.63249 0.0
C463 C 0.1589 0.013 0.39984 0.0
H464 H 0.15075 0.8726 0.59165 0.0
H465 H 0.1212 0.90626 0.40544 0.0
H466 H 0.1647 0.97367 0.58789 0.0
H467 H 0.15262 0.98316 0.66842 0.0
H468 H 0.16175 0.92805 0.65903 0.0
H469 H 0.11497 0.98096 0.3614 0.0
H470 H 0.11674 0.02358 0.44098 0.0
H471 H 0.12846 0.0148 0.3581 0.0
H472 H 0.13177 0.1267 0.61862 0.0
H473 H 0.16046 0.10252 0.42367 0.0
H474 H 0.12951 0.01306 0.67323 0.0
H475 H 0.11722 0.02663 0.59537 0.0
H476 H 0.12039 0.06843 0.67373 0.0
H477 H 0.16446 0.98453 0.43404 0.0
H478 H 0.16578 0.0313 0.36214 0.0
H479 H 0.15223 0.99789 0.35563 0.0
C480 C 0.89042 0.40371 0.57243 0.0
C481 C 0.88104 0.38748 0.51972 0.0
C482 C 0.89272 0.45002 0.57105 0.0
C483 C 0.88555 0.4809 0.51525 0.0
C484 C 0.87611 0.46442 0.4618 0.0
C485 C 0.87397 0.41818 0.46482 0.0
C486 C 0.90285 0.46595 0.62929 0.0
C487 C 0.8683 0.49565 0.40078 0.0
C488 C 0.8828 0.60972 0.55318 0.0
C489 C 0.892 0.62379 0.49626 0.0
C490 C 0.88079 0.56338 0.56133 0.0
C491 C 0.88805 0.53014 0.51089 0.0
C492 C 0.89733 0.54433 0.45332 0.0
C493 C 0.89921 0.59077 0.44692 0.0
C494 C 0.87082 0.55001 0.62368 0.0
C495 C 0.90522 0.51046 0.39759 0.0
H496 H 0.89592 0.38027 0.61502 0.0
H497 H 0.86673 0.40599 0.42361 0.0
H498 H 0.91054 0.47991 0.59145 0.0
H499 H 0.89843 0.49378 0.67034 0.0
H500 H 0.9074 0.43813 0.67021 0.0
H501 H 0.86127 0.47772 0.36386 0.0
H502 H 0.86289 0.52405 0.43587 0.0
H503 H 0.87486 0.51083 0.35581 0.0
H504 H 0.87721 0.63494 0.59169 0.0
H505 H 0.90632 0.60128 0.40267 0.0
H506 H 0.87534 0.52402 0.66834 0.0
H507 H 0.86304 0.53451 0.58948 0.0
H508 H 0.86636 0.57948 0.66073 0.0
H509 H 0.91061 0.48381 0.43712 0.0
H510 H 0.91225 0.52669 0.35748 0.0
H511 H 0.89868 0.49322 0.35564 0.0
C512 C 0.87416 0.91782 0.56896 0.0
C513 C 0.88116 0.88739 0.51346 0.0
C514 C 0.8763 0.96403 0.57229 0.0
C515 C 0.88569 0.98076 0.51862 0.0
C516 C 0.89283 0.95014 0.46242 0.0
C517 C 0.89051 0.90385 0.46066 0.0
C518 C 0.86851 0.99499 0.63373 0.0
C519 C 0.90293 0.96633 0.40406 0.0
C520 C 0.88279 0.10964 0.48046 0.0
C521 C 0.89198 0.12376 0.53724 0.0
C522 C 0.88082 0.06328 0.47254 0.0
C523 C 0.88813 0.03004 0.52291 0.0
C524 C 0.89741 0.04428 0.58032 0.0
C525 C 0.89922 0.09076 0.58666 0.0
C526 C 0.87083 0.04986 0.41054 0.0
C527 C 0.90536 0.0104 0.63589 0.0
H528 H 0.86694 0.90545 0.61028 0.0
H529 H 0.89598 0.8806 0.41768 0.0
H530 H 0.87511 0.01011 0.67845 0.0
H531 H 0.86305 0.02344 0.59892 0.0
H532 H 0.86154 0.97686 0.67091 0.0
H533 H 0.90754 0.93861 0.36335 0.0
H534 H 0.89846 0.99406 0.36281 0.0
H535 H 0.91058 0.98052 0.44177 0.0
H536 H 0.87716 0.13485 0.44196 0.0
H537 H 0.90633 0.1013 0.63079 0.0
H538 H 0.86313 0.03397 0.44498 0.0
H539 H 0.87537 0.02418 0.36554 0.0
H540 H 0.86626 0.07939 0.37387 0.0
H541 H 0.89887 0.99298 0.67808 0.0
H542 H 0.9124 0.02666 0.67574 0.0
H543 H 0.91075 0.98388 0.59624 0.0
C544 C 0.15373 0.58913 0.56908 0.0
C545 C 0.14657 0.62006 0.51507 0.0
C546 C 0.15155 0.54294 0.57204 0.0
C547 C 0.14195 0.52674 0.51951 0.0
C548 C 0.13467 0.55785 0.46466 0.0
C549 C 0.13703 0.60411 0.46324 0.0
C550 C 0.1595 0.51145 0.63198 0.0
C551 C 0.12436 0.54223 0.4075 0.0
C552 C 0.14452 0.39802 0.48077 0.0
C553 C 0.13549 0.38388 0.53876 0.0
C554 C 0.14653 0.44436 0.47247 0.0
C555 C 0.13942 0.47753 0.52386 0.0
C556 C 0.13029 0.46328 0.58249 0.0
C557 C 0.12842 0.41684 0.58901 0.0
C558 C 0.15633 0.45781 0.40899 0.0
C559 C 0.12258 0.49707 0.63926 0.0
H560 H 0.16109 0.6011 0.60961 0.0
H561 H 0.13145 0.62773 0.42137 0.0
H562 H 0.15303 0.49624 0.6776 0.0
H563 H 0.16477 0.48309 0.5961 0.0
H564 H 0.16665 0.52918 0.66819 0.0
H565 H 0.11972 0.57022 0.36734 0.0
H566 H 0.12864 0.51449 0.36573 0.0
H567 H 0.11677 0.52822 0.44614 0.0
H568 H 0.15001 0.37285 0.44154 0.0
H569 H 0.12143 0.40627 0.63408 0.0
H570 H 0.16422 0.47311 0.44234 0.0
H571 H 0.1517 0.48398 0.36506 0.0
H572 H 0.16065 0.4284 0.37121 0.0
H573 H 0.12924 0.51411 0.68063 0.0
H574 H 0.11563 0.48082 0.67998 0.0
H575 H 0.11711 0.52389 0.60047 0.0
C576 C 0.63844 0.60696 0.07457 0.0
C577 C 0.64805 0.6242 0.02503 0.0
C578 C 0.63638 0.5605 0.07106 0.0
C579 C 0.64408 0.53056 1.01653 0.0
C580 C 0.65375 0.54803 0.96636 0.0
C581 C 0.65561 0.59441 0.97124 0.0
C582 C 0.62595 0.54344 0.12557 0.0
C583 C 0.66215 0.51771 0.90702 0.0
C584 C 0.64711 0.40178 0.05346 0.0
C585 C 0.63842 0.38747 0.99346 0.0
C586 C 0.64891 0.44818 0.06256 0.0
C587 C 0.6419 0.4812 1.01022 0.0
C588 C 0.63317 0.46677 0.9493 0.0
C589 C 0.63154 0.42024 0.94172 0.0
C590 C 0.65834 0.46187 0.12814 0.0
C591 C 0.62556 0.50052 0.8917 0.0
H592 H 0.63255 0.62975 0.11618 0.0
H593 H 0.66303 0.60742 0.93249 0.0
H594 H 0.61866 0.52909 0.08495 0.0
H595 H 0.63022 0.51565 0.16744 0.0
H596 H 0.62094 0.57072 0.16553 0.0
H597 H 0.66934 0.53637 0.87293 0.0
H598 H 0.66742 0.48928 0.94299 0.0
H599 H 0.65601 0.5025 0.85955 0.0
H600 H 0.65244 0.37671 0.09382 0.0
H601 H 0.62481 0.40952 0.89519 0.0
H602 H 0.65334 0.48702 0.17236 0.0
H603 H 0.66618 0.47851 0.09676 0.0
H604 H 0.66278 0.43237 0.16542 0.0
H605 H 0.61971 0.52653 0.93 0.0
H606 H 0.61897 0.48403 0.84879 0.0
H607 H 0.63229 0.51859 0.85254 0.0
C608 C 0.37435 0.91752 0.96455 0.0
C609 C 0.38107 0.88754 0.0223 0.0
C610 C 0.37649 0.96372 0.96044 0.0
C611 C 0.38556 0.98091 1.0157 0.0
C612 C 0.39242 0.95076 0.07422 0.0
C613 C 0.39013 0.90445 0.07663 0.0
C614 C 0.36902 0.99416 0.89653 0.0
C615 C 0.40216 0.9675 0.13445 0.0
C616 C 0.39926 0.09077 0.94784 0.0
C617 C 0.39165 0.12397 0.99446 0.0
C618 C 0.39753 0.04426 0.95515 0.0
C619 C 0.38796 0.03021 1.01079 0.0
C620 C 0.3803 0.06364 0.05851 0.0
C621 C 0.3822 0.11002 0.04956 0.0
C622 C 0.40584 0.01015 0.90236 0.0
C623 C 0.37002 0.05043 0.11868 0.0
H624 H 0.36736 0.90479 0.92205 0.0
H625 H 0.39536 0.88156 0.12143 0.0
H626 H 0.36331 0.02271 0.92942 0.0
H627 H 0.37584 0.00918 0.85309 0.0
H628 H 0.3623 0.97565 0.8581 0.0
H629 H 0.40655 0.94012 0.17691 0.0
H630 H 0.41 0.98152 0.09817 0.0
H631 H 0.39743 0.99547 0.17393 0.0
H632 H 0.40658 0.1012 0.90504 0.0
H633 H 0.37629 0.13539 0.08594 0.0
H634 H 0.39963 0.99233 0.85906 0.0
H635 H 0.41103 0.98399 0.94389 0.0
H636 H 0.41308 0.02629 0.86384 0.0
H637 H 0.3625 0.03436 0.08293 0.0
H638 H 0.36526 0.08008 0.15393 0.0
H639 H 0.37433 0.02494 0.165 0.0
C640 C 0.37288 0.41754 0.06927 0.0
C641 C 0.37995 0.38759 1.01331 0.0
C642 C 0.37502 0.46372 0.07422 0.0
C643 C 0.38449 0.48088 0.02172 0.0
C644 C 0.3917 0.45075 0.96501 0.0
C645 C 0.38938 0.40449 0.96165 0.0
C646 C 0.36717 0.49415 0.13612 0.0
C647 C 0.40187 0.46742 0.90782 0.0
C648 C 0.3818 0.60999 0.98681 0.0
C649 C 0.39096 0.62354 0.04435 0.0
C650 C 0.37974 0.56377 0.97776 0.0
C651 C 0.38695 0.53009 0.02773 0.0
C652 C 0.39619 0.54375 0.08603 0.0
C653 C 0.39808 0.59011 0.0935 0.0
C654 C 0.3698 0.55097 0.91486 0.0
C655 C 0.40403 0.50937 0.1412 0.0
H656 H 0.36561 0.40481 0.10972 0.0
H657 H 0.3949 0.38162 0.91832 0.0
H658 H 0.37371 0.50882 0.18181 0.0
H659 H 0.36177 0.52295 0.10189 0.0
H660 H 0.36013 0.47574 0.17219 0.0
H661 H 0.40651 0.44006 0.86643 0.0
H662 H 0.39745 0.49555 0.86725 0.0
H663 H 0.40948 0.48119 0.94648 0.0
H664 H 0.37627 0.63555 0.94852 0.0
H665 H 0.40517 0.60021 0.13821 0.0
H666 H 0.36207 0.53477 0.94837 0.0
H667 H 0.37437 0.52571 0.8692 0.0
H668 H 0.36527 0.58084 0.87898 0.0
H669 H 0.39746 0.49161 0.18223 0.0
H670 H 0.411 0.52524 0.18219 0.0
H671 H 0.40948 0.48319 0.10116 0.0
C672 C 0.63683 0.10702 0.97356 0.0
C673 C 0.64613 0.12325 0.02685 0.0
C674 C 0.63448 0.06078 0.97518 0.0
C675 C 0.64155 0.03004 0.03165 0.0
C676 C 0.65086 0.04657 0.08603 0.0
C677 C 0.65302 0.09273 0.0829 0.0
C678 C 0.62447 0.04473 0.91614 0.0
C679 C 0.65857 0.01542 0.14771 0.0
C680 C 0.6282 0.9194 0.0977 0.0
C681 C 0.63561 0.88687 0.0484 0.0
C682 C 0.62989 0.96598 0.09186 0.0
C683 C 0.6392 0.98074 0.03511 0.0
C684 C 0.64666 0.94799 0.98479 0.0
C685 C 0.64481 0.90153 0.99221 0.0
C686 C 0.62179 0.99939 0.14732 0.0
C687 C 0.65669 0.96202 0.9235 0.0
H688 H 0.63147 0.13034 0.93009 0.0
H689 H 0.6602 0.10496 0.12459 0.0
H690 H 0.62906 0.01756 0.87428 0.0
H691 H 0.61686 0.02985 0.95323 0.0
H692 H 0.6198 0.07269 0.87603 0.0
H693 H 0.66542 0.0335 0.18581 0.0
H694 H 0.65192 0.99983 0.19158 0.0
H695 H 0.66416 0.9873 0.11293 0.0
H696 H 0.62108 0.90839 0.14136 0.0
H697 H 0.65056 0.87664 0.95383 0.0
H698 H 0.61642 0.02604 0.10767 0.0
H699 H 0.62817 0.0167 0.19025 0.0
H700 H 0.61472 0.98274 0.18639 0.0
H701 H 0.65216 0.9879 0.87866 0.0
H702 H 0.66135 0.93281 0.88662 0.0
H703 H 0.66431 0.97788 0.95858 0.0
C704 C 0.14486 0.29041 0.2194 0.0
C705 C 0.14034 0.25461 0.26533 0.0
C706 C 0.14508 0.29007 0.13023 0.0
C707 C 0.14115 0.25217 0.08586 0.0
C708 C 0.13675 0.2156 0.13224 0.0
C709 C 0.13617 0.21766 0.22132 0.0
C710 C 0.14938 0.33052 0.08351 0.0
C711 C 0.13286 0.17394 0.08784 0.0
C712 C 0.13049 0.26398 0.85499 0.0
C713 C 0.14191 0.24888 0.81152 0.0
C714 C 0.13019 0.26616 0.94398 0.0
C715 C 0.14146 0.25109 0.99101 0.0
C716 C 0.15298 0.23506 0.94723 0.0
C717 C 0.15313 0.23506 0.85792 0.0
C718 C 0.11786 0.28515 0.98761 0.0
C719 C 0.16507 0.21723 0.99475 0.0
H720 H 0.14803 0.31914 0.25331 0.0
H721 H 0.13283 0.18967 0.25675 0.0
H722 H 0.15815 0.31995 0.04532 0.0
H723 H 0.1417 0.34434 0.03887 0.0
H724 H 0.15161 0.35808 0.12719 0.0
H725 H 0.13024 0.14755 0.13314 0.0
H726 H 0.12444 0.18341 0.04585 0.0
H727 H 0.14092 0.15901 0.04715 0.0
H728 H 0.12183 0.27516 0.8191 0.0
H729 H 0.16195 0.22312 0.82434 0.0
H730 H 0.11982 0.31377 0.02948 0.0
H731 H 0.11417 0.25872 0.02831 0.0
H732 H 0.11015 0.2975 0.94183 0.0
H733 H 0.16847 0.24451 0.03448 0.0
H734 H 0.17305 0.20423 0.9515 0.0
H735 H 0.16291 0.18936 0.03803 0.0
C736 C 0.89823 0.24163 0.21507 0.0
C737 C 0.88698 0.25516 0.2614 0.0
C738 C 0.89809 0.24168 0.12576 0.0
C739 C 0.88655 0.25743 0.0819 0.0
C740 C 0.87526 0.27224 0.12886 0.0
C741 C 0.87555 0.27006 0.21787 0.0
C742 C 0.91021 0.22413 0.07835 0.0
C743 C 0.86289 0.29088 0.08512 0.0
C744 C 0.88988 0.2963 0.85281 0.0
C745 C 0.88545 0.26023 0.80751 0.0
C746 C 0.89008 0.29621 0.94201 0.0
C747 C 0.88623 0.2583 0.98704 0.0
C748 C 0.88192 0.22147 0.9413 0.0
C749 C 0.88135 0.22328 0.8522 0.0
C750 C 0.89429 0.33692 0.98805 0.0
C751 C 0.87812 0.17978 0.98643 0.0
H752 H 0.90705 0.22981 0.24869 0.0
H753 H 0.86687 0.28098 0.2537 0.0
H754 H 0.90812 0.19602 0.03564 0.0
H755 H 0.91352 0.25143 0.03803 0.0
H756 H 0.91823 0.21152 0.12167 0.0
H757 H 0.85518 0.30322 0.13083 0.0
H758 H 0.8648 0.31941 0.04267 0.0
H759 H 0.85924 0.26423 0.04501 0.0
H760 H 0.893 0.32504 0.8184 0.0
H761 H 0.87806 0.19509 0.81728 0.0
H762 H 0.90306 0.32668 0.02637 0.0
H763 H 0.88657 0.35065 0.0325 0.0
H764 H 0.89645 0.36446 0.9439 0.0
H765 H 0.88621 0.16514 0.02725 0.0
H766 H 0.87556 0.1532 0.9416 0.0
H767 H 0.86969 0.18914 0.02838 0.0
C768 C 0.14667 0.78415 0.18264 0.0
C769 C 0.14233 0.74759 0.22728 0.0
C770 C 0.14611 0.78604 0.09353 0.0
C771 C 0.14154 0.74968 0.04775 0.0
C772 C 0.13744 0.71216 0.09272 0.0
C773 C 0.13765 0.71199 0.1819 0.0
C774 C 0.1502 0.82732 0.04846 0.0
C775 C 0.13295 0.67193 0.04662 0.0
C776 C 0.1296 0.76719 0.81976 0.0
C777 C 0.14077 0.75271 0.7734 0.0
C778 C 0.12976 0.76723 0.90907 0.0
C779 C 0.14123 0.75061 0.95288 0.0
C780 C 0.15243 0.73487 0.90589 0.0
C781 C 0.15214 0.73699 0.81688 0.0
C782 C 0.11774 0.78578 0.95652 0.0
C783 C 0.16471 0.71529 0.94959 0.0
H784 H 0.15015 0.81199 0.21758 0.0
H785 H 0.13435 0.68356 0.21625 0.0
H786 H 0.15857 0.8173 1.00644 0.0
H787 H 0.14218 0.84262 1.0077 0.0
H788 H 0.15295 0.85359 0.09332 0.0
H789 H 0.13059 0.64463 0.09072 0.0
H790 H 0.12422 0.68289 1.00834 0.0
H791 H 0.14058 0.65762 1.00213 0.0
H792 H 0.12083 0.77966 0.78615 0.0
H793 H 0.16076 0.72536 0.781 0.0
H794 H 0.12003 0.81361 0.99925 0.0
H795 H 0.11423 0.75882 0.99682 0.0
H796 H 0.10979 0.79906 0.91321 0.0
H797 H 0.16854 0.74157 0.98974 0.0
H798 H 0.17236 0.70239 0.90385 0.0
H799 H 0.16262 0.68696 0.992 0.0
C800 C 0.89111 0.79067 0.81318 0.0
C801 C 0.88698 0.7536 0.76933 0.0
C802 C 0.89055 0.7928 0.90226 0.0
C803 C 0.88622 0.75617 0.94882 0.0
C804 C 0.88232 0.71816 0.90462 0.0
C805 C 0.88251 0.71776 0.81544 0.0
C806 C 0.8944 0.83458 0.94647 0.0
C807 C 0.87809 0.67767 0.95153 0.0
C808 C 0.89697 0.74452 0.17958 0.0
C809 C 0.88555 0.75938 0.2232 0.0
C810 C 0.89725 0.74242 0.09057 0.0
C811 C 0.88595 0.7573 0.04368 0.0
C812 C 0.87443 0.77315 0.08761 0.0
C813 C 0.87429 0.77308 0.17693 0.0
C814 C 0.90959 0.72364 0.04677 0.0
C815 C 0.8623 0.7908 0.04027 0.0
H816 H 0.89441 0.81869 0.77761 0.0
H817 H 0.87938 0.68893 0.78167 0.0
H818 H 0.88634 0.8494 0.98729 0.0
H819 H 0.90285 0.82528 0.9883 0.0
H820 H 0.89695 0.86101 0.90104 0.0
H821 H 0.87588 0.65003 0.90796 0.0
H822 H 0.88581 0.66397 0.99604 0.0
H823 H 0.86934 0.68813 0.98988 0.0
H824 H 0.90565 0.73345 0.21536 0.0
H825 H 0.86548 0.78484 0.21061 0.0
H826 H 0.91321 0.75013 1.0059 0.0
H827 H 0.90765 0.69493 1.00505 0.0
H828 H 0.91733 0.71148 0.09245 0.0
H829 H 0.86442 0.81866 0.99682 0.0
H830 H 0.85433 0.80377 0.08362 0.0
H831 H 0.85892 0.76343 1.00073 0.0
C832 C 0.64718 0.78564 0.36214 0.0
C833 C 0.64296 0.74895 0.31751 0.0
C834 C 0.64661 0.7874 0.45126 0.0
C835 C 0.64216 0.75079 0.49725 0.0
C836 C 0.63818 0.71313 0.45234 0.0
C837 C 0.6384 0.71307 0.36308 0.0
C838 C 0.65056 0.82885 0.49614 0.0
C839 C 0.63381 0.67265 0.49861 0.0
C840 C 0.65274 0.73935 0.72858 0.0
C841 C 0.64133 0.7549 0.77178 0.0
C842 C 0.65304 0.73669 0.63957 0.0
C843 C 0.6418 0.75175 0.59221 0.0
C844 C 0.63029 0.76811 0.63578 0.0
C845 C 0.63012 0.76857 0.72512 0.0
C846 C 0.66536 0.71735 0.59628 0.0
C847 C 0.61822 0.78601 0.58801 0.0
H848 H 0.65057 0.81372 0.32716 0.0
H849 H 0.63518 0.68453 0.32884 0.0
H850 H 0.6425 0.84384 0.5368 0.0
H851 H 0.65895 0.81909 0.53821 0.0
H852 H 0.65324 0.85528 0.45115 0.0
H853 H 0.63158 0.64523 0.45463 0.0
H854 H 0.64147 0.65864 0.54332 0.0
H855 H 0.62504 0.68324 0.53669 0.0
H856 H 0.66138 0.72832 0.76471 0.0
H857 H 0.62132 0.78086 0.7585 0.0
H858 H 0.66917 0.74373 0.55603 0.0
H859 H 0.66335 0.68895 0.55404 0.0
H860 H 0.673 0.70462 0.64229 0.0
H861 H 0.62042 0.81397 0.54502 0.0
H862 H 0.61021 0.79893 0.63108 0.0
H863 H 0.61486 0.7588 0.54793 0.0
C864 C 0.37508 0.77195 0.72571 0.0
C865 C 0.38649 0.75658 0.76909 0.0
C866 C 0.37478 0.77442 0.6367 0.0
C867 C 0.38603 0.75941 0.5895 0.0
C868 C 0.39755 0.74329 0.63319 0.0
C869 C 0.39772 0.74296 0.72253 0.0
C870 C 0.36243 0.79346 0.59322 0.0
C871 C 0.40964 0.72552 0.58556 0.0
C872 C 0.38063 0.72528 0.35992 0.0
C873 C 0.38478 0.76204 0.31491 0.0
C874 C 0.38124 0.72354 0.44903 0.0
C875 C 0.38567 0.76025 0.49455 0.0
C876 C 0.38958 0.79798 0.44923 0.0
C877 C 0.38933 0.79799 0.35999 0.0
C878 C 0.37737 0.68202 0.4944 0.0
C879 C 0.3939 0.83858 0.495 0.0
H880 H 0.36642 0.78296 0.76169 0.0
H881 H 0.40652 0.73078 0.75599 0.0
H882 H 0.3644 0.82184 0.55055 0.0
H883 H 0.35866 0.76692 0.55339 0.0
H884 H 0.35478 0.80614 0.6391 0.0
H885 H 0.41767 0.71285 0.62874 0.0
H886 H 0.40748 0.6974 0.54305 0.0
H887 H 0.41295 0.75271 0.54501 0.0
H888 H 0.37726 0.69715 0.32523 0.0
H889 H 0.3925 0.82656 0.32538 0.0
H890 H 0.36898 0.69164 0.53648 0.0
H891 H 0.38545 0.66722 0.53512 0.0
H892 H 0.37473 0.65548 0.44972 0.0
H893 H 0.38623 0.85253 0.53961 0.0
H894 H 0.3961 0.866 0.45069 0.0
H895 H 0.40268 0.82815 0.53312 0.0
C896 C 0.63739 0.21847 0.3187 0.0
C897 C 0.6424 0.254 0.27467 0.0
C898 C 0.63755 0.21685 0.40787 0.0
C899 C 0.64244 0.25237 0.45425 0.0
C900 C 0.64733 0.28867 0.40987 0.0
C901 C 0.64744 0.28866 0.32072 0.0
C902 C 0.63258 0.17689 0.45245 0.0
C903 C 0.6523 0.32789 0.45656 0.0
C904 C 0.63118 0.26962 0.68309 0.0
C905 C 0.64216 0.25194 0.72873 0.0
C906 C 0.6312 0.27048 0.59395 0.0
C907 C 0.64233 0.25187 0.54909 0.0
C908 C 0.65337 0.23322 0.59498 0.0
C909 C 0.65323 0.23418 0.6842 0.0
C910 C 0.61936 0.29196 0.5478 0.0
C911 C 0.6653 0.21186 0.54982 0.0
H912 H 0.6336 0.19138 0.28332 0.0
H913 H 0.65124 0.31638 0.28693 0.0
H914 H 0.64018 0.16034 0.49494 0.0
H915 H 0.62413 0.18871 0.49266 0.0
H916 H 0.62961 0.15112 0.40727 0.0
H917 H 0.65542 0.35414 0.41276 0.0
H918 H 0.64462 0.34408 0.49887 0.0
H919 H 0.66063 0.31536 0.49719 0.0
H920 H 0.62263 0.28379 0.71723 0.0
H921 H 0.66171 0.22018 0.7192 0.0
H922 H 0.61536 0.26647 0.50661 0.0
H923 H 0.62206 0.31974 0.5061 0.0
H924 H 0.61164 0.3061 0.59195 0.0
H925 H 0.66267 0.18456 0.50695 0.0
H926 H 0.67287 0.19714 0.59461 0.0
H927 H 0.66948 0.23762 0.50992 0.0
C928 C 0.3818 0.21975 0.31192 0.0
C929 C 0.38567 0.25643 0.26526 0.0
C930 C 0.38171 0.22028 0.40113 0.0
C931 C 0.3851 0.25919 0.44491 0.0
C932 C 0.3888 0.29667 0.3978 0.0
C933 C 0.38927 0.29448 0.30866 0.0
C934 C 0.37816 0.17893 0.44853 0.0
C935 C 0.39208 0.33937 0.4415 0.0
C936 C 0.37327 0.27373 0.67378 0.0
C937 C 0.38469 0.26172 0.7196 0.0
C938 C 0.37332 0.27413 0.58444 0.0
C939 C 0.38494 0.26037 0.53987 0.0
C940 C 0.39643 0.24735 0.58623 0.0
C941 C 0.39621 0.24907 0.67534 0.0
C942 C 0.36097 0.28978 0.53775 0.0
C943 C 0.40891 0.23081 0.54177 0.0
H944 H 0.37909 0.19015 0.27856 0.0
H945 H 0.39212 0.32312 0.27272 0.0
H946 H 0.38611 0.16658 0.49252 0.0
H947 H 0.36938 0.18793 0.48748 0.0
H948 H 0.37628 0.15075 0.40526 0.0
H949 H 0.39414 0.36631 0.39575 0.0
H950 H 0.38392 0.35282 0.48285 0.0
H951 H 0.40067 0.33162 0.48274 0.0
H952 H 0.36437 0.28379 0.70785 0.0
H953 H 0.40502 0.23929 0.71064 0.0
H954 H 0.3579 0.26165 0.49872 0.0
H955 H 0.36264 0.31799 0.49388 0.0
H956 H 0.35293 0.30159 0.58152 0.0
H957 H 0.40739 0.2015 0.50048 0.0
H958 H 0.41686 0.22023 0.58703 0.0
H959 H 0.41203 0.25801 0.50038 0.0
C960 C 0.04134 0.21701 0.52746 0.0
C961 C 0.04858 0.24014 0.46947 0.0
C962 C 0.02773 0.22135 0.52501 0.0
C963 C 0.02109 0.24918 0.46242 0.0
C964 C 0.02834 0.27227 0.40303 0.0
C965 C 0.04197 0.26777 0.40767 0.0
C966 C 0.02043 0.1967 0.59046 0.0
C967 C 0.02167 0.30187 0.33476 0.0
C968 C 0.98592 0.22884 0.41905 0.0
C969 C 0.97907 0.26375 0.466 0.0
C970 C 0.99957 0.22429 0.41566 0.0
C971 C 1.00658 0.25506 0.46105 0.0
C972 C 0.99971 0.29053 0.50806 0.0
C973 C 0.98609 0.2945 0.50975 0.0
C974 C 1.00649 0.18624 0.3642 0.0
C975 C 1.00676 0.32373 0.55834 0.0
H976 H 0.04634 0.19616 0.57627 0.0
H977 H 0.04749 0.28551 0.36235 0.0
H978 H 0.01411 0.22162 0.62831 0.0
H979 H 0.01406 0.17403 0.55878 0.0
H980 H 0.02702 0.17597 0.63431 0.0
H981 H 0.02867 0.31626 0.29161 0.0
H982 H 0.01529 0.28189 0.29667 0.0
H983 H 0.01542 0.33032 0.36402 0.0
H984 H 0.9806 0.20515 0.38453 0.0
H985 H 0.98093 0.32113 0.54739 0.0
H986 H 1.01255 0.16276 0.40644 0.0
H987 H 1.01308 0.20019 0.31778 0.0
H988 H 0.99965 0.16643 0.32945 0.0
H989 H 1.01284 0.30522 0.60769 0.0
H990 H 1.00002 0.35015 0.58972 0.0
H991 H 1.01335 0.3408 0.51634 0.0
C992 C 0.98615 0.79331 0.51405 0.0
C993 C 0.97905 0.76557 0.56457 0.0
C994 C 0.99977 0.78918 0.51588 0.0
C995 C 1.00656 0.75673 0.57013 0.0
C996 C 0.99946 0.72899 0.62214 0.0
C997 C 0.98581 0.7335 0.61832 0.0
C998 C 1.00691 0.81899 0.45836 0.0
C999 C 1.00628 0.6943 0.68148 0.0
C1000 C 0.04148 0.71536 0.5121 0.0
C1001 C 0.0486 0.74204 0.56444 0.0
C1002 C 0.02786 0.71953 0.51392 0.0
C1003 C 0.02109 0.7509 0.57003 0.0
C1004 C 0.0282 0.77758 0.62382 0.0
C1005 C 0.04185 0.77307 0.61997 0.0
C1006 C 0.02071 0.6909 0.45449 0.0
C1007 C 0.02139 0.8111 0.68515 0.0
H1008 H 0.98104 0.81767 0.47128 0.0
H1009 H 0.98041 0.71216 0.65799 0.0
H1010 H 1.01337 0.83875 0.49621 0.0
H1011 H 1.01313 0.79754 0.41374 0.0
H1012 H 1.00022 0.84312 0.42103 0.0
H1013 H 0.99939 0.67661 0.72018 0.0
H1014 H 1.01246 0.66852 0.64463 0.0
H1015 H 1.01276 0.71102 0.7247 0.0
H1016 H 0.04659 0.69182 0.46798 0.0
H1017 H 0.04726 0.79358 0.66104 0.0
H1018 H 0.01448 0.71323 0.41122 0.0
H1019 H 0.01426 0.67037 0.49102 0.0
H1020 H 0.02739 0.66756 0.4157 0.0
H1021 H 0.0152 0.83756 0.64982 0.0
H1022 H 0.02829 0.82804 0.72492 0.0
H1023 H 0.01493 0.79353 0.7273 0.0
C1024 C 0.54252 0.74384 0.91128 0.0
C1025 C 0.54875 0.75133 0.98825 0.0
C1026 C 0.52892 0.74516 0.90642 0.0
C1027 C 0.52132 0.75371 0.98045 0.0
C1028 C 0.52755 0.76136 0.05825 0.0
C1029 C 0.54113 0.76023 0.06112 0.0
C1030 C 0.52269 0.73733 0.82205 0.0
C1031 C 0.51987 0.77014 0.13893 0.0
C1032 C 0.48536 0.79621 0.96584 0.0
C1033 C 0.47939 0.75641 0.98124 0.0
C1034 C 0.49894 0.79562 0.96325 0.0
C1035 C 0.50686 0.75431 0.97712 0.0
C1036 C 0.50093 0.71387 0.99114 0.0
C1037 C 0.48732 0.71536 0.99264 0.0
C1038 C 0.50482 0.83952 0.94776 0.0
C1039 C 0.50897 0.66908 1.00643 0.0
H1040 H 0.5483 0.73728 0.85452 0.0
H1041 H 0.54583 0.76531 0.12118 0.0
H1042 H 0.51718 0.7072 0.82599 0.0
H1043 H 0.51568 0.76695 0.8056 0.0
H1044 H 0.52991 0.73187 0.77013 0.0
H1045 H 0.52615 0.77575 0.19415 0.0
H1046 H 0.51273 0.80045 0.13107 0.0
H1047 H 0.51434 0.74084 0.15302 0.0
H1048 H 0.47942 0.82831 0.95828 0.0
H1049 H 0.48289 0.68422 1.00324 0.0
H1050 H 0.51183 0.83537 0.89455 0.0
H1051 H 0.51025 0.84853 1.00478 0.0
H1052 H 0.49739 0.86819 0.9328 0.0
H1053 H 0.51577 0.6613 0.95293 0.0
H1054 H 0.50292 0.64046 1.01402 0.0
H1055 H 0.5149 0.67134 0.06449 0.0
C1056 C 0.48559 0.28804 0.01806 0.0
C1057 C 0.47856 0.25184 0.04135 0.0
C1058 C 0.49921 0.28337 0.01826 0.0
C1059 C 0.50607 0.24144 0.04246 0.0
C1060 C 0.49906 0.20467 0.06587 0.0
C1061 C 0.4854 0.21025 0.0648 0.0
C1062 C 0.50626 0.32339 0.99223 0.0
C1063 C 0.50598 0.15948 0.09243 0.0
C1064 C 0.5413 0.22052 0.97033 0.0
C1065 C 0.54804 0.23294 0.04242 0.0
C1066 C 0.52769 0.22209 0.97006 0.0
C1067 C 0.52058 0.23643 0.04363 0.0
C1068 C 0.52733 0.248 0.11718 0.0
C1069 C 0.54094 0.2461 0.11571 0.0
C1070 C 0.5209 0.20957 0.89018 0.0
C1071 C 0.52016 0.26331 0.19708 0.0
H1072 H 0.48043 0.32004 0.99825 0.0
H1073 H 0.48008 0.18218 0.08345 0.0
H1074 H 0.51255 0.33286 0.04479 0.0
H1075 H 0.51264 0.31402 0.93724 0.0
H1076 H 0.49952 0.35361 0.97483 0.0
H1077 H 0.49915 0.13418 0.10836 0.0
H1078 H 0.51247 0.14556 0.04078 0.0
H1079 H 0.51215 0.16409 0.1485 0.0
H1080 H 0.54664 0.21083 0.91303 0.0
H1081 H 0.54603 0.25508 0.1722 0.0
H1082 H 0.5148 0.23975 0.8655 0.0
H1083 H 0.51437 0.18308 0.90403 0.0
H1084 H 0.52782 0.19679 0.83983 0.0
H1085 H 0.51389 0.29534 0.18469 0.0
H1086 H 0.52684 0.26918 0.25004 0.0
H1087 H 0.51375 0.23749 0.21725 0.0
loop_
_geom_bond_atom_site_label_1
_geom_bond_atom_site_label_2
_geom_bond_distance
_geom_bond_site_symmetry_2
_ccdc_geom_bond_type
Ho0 C3 2.811 . S
Ho0 O20 2.322 . S
Ho0 O22 2.378 . S
Ho0 O23 2.524 . S
Ho0 O24 2.381 . S
Ho0 O25 2.669 . S
Ho0 O27 2.346 . S
Ho0 O31 2.305 . S
Ho1 C12 2.811 . S
Ho1 O21 2.346 . S
Ho1 O25 2.305 . S
Ho1 O26 2.322 . S
Ho1 O28 2.378 . S
Ho1 O29 2.524 . S
Ho1 O30 2.381 . S
Ho1 O31 2.669 . S
C2 O20 1.259 . S
C2 O21 1.268 . S
C3 Ho0 2.811 . S
C3 C4 1.488 . S
C3 O22 1.215 . S
C3 O23 1.289 . S
C4 C3 1.488 . S
C4 C5 1.348 . S
C4 C9 1.413 . S
C5 C4 1.348 . S
C5 C6 1.442 . S
C5 H32 0.930 . S
C6 C5 1.442 . S
C6 C7 1.381 . S
C6 H33 0.931 . S
C7 C6 1.381 . S
C7 C8 1.321 . S
C8 C7 1.321 . S
C8 C9 1.403 . S
C8 H34 0.934 . S
C9 C4 1.413 . S
C9 C8 1.403 . S
C9 H35 0.930 . S
C10 O24 1.275 . S
C10 O25 1.256 . S
C11 O26 1.259 . S
C11 O27 1.268 . S
C12 Ho1 2.811 . S
C12 C13 1.488 . S
C12 O28 1.215 . S
C12 O29 1.289 . S
C13 C12 1.488 . S
C13 C14 1.348 . S
C13 C18 1.413 . S
C14 C13 1.348 . S
C14 C15 1.442 . S
C14 H36 0.930 . S
C15 C14 1.442 . S
C15 C16 1.381 . S
C15 H37 0.931 . S
C16 C15 1.381 . S
C16 C17 1.321 . S
C17 C16 1.321 . S
C17 C18 1.403 . S
C17 H38 0.934 . S
C18 C13 1.413 . S
C18 C17 1.403 . S
C18 H39 0.930 . S
C19 O30 1.275 . S
C19 O31 1.256 . S
O20 Ho0 2.322 . S
O20 C2 1.259 . S
O21 Ho1 2.346 . S
O21 C2 1.268 . S
O22 Ho0 2.378 . S
O22 C3 1.215 . S
O23 Ho0 2.524 . S
O23 C3 1.289 . S
O24 Ho0 2.381 . S
O24 C10 1.275 . S
O25 Ho0 2.669 . S
O25 Ho1 2.305 . S
O25 C10 1.256 . S
O26 Ho1 2.322 . S
O26 C11 1.259 . S
O27 Ho0 2.346 . S
O27 C11 1.268 . S
O28 Ho1 2.378 . S
O28 C12 1.215 . S
O29 Ho1 2.524 . S
O29 C12 1.289 . S
O30 Ho1 2.381 . S
O30 C19 1.275 . S
O31 Ho0 2.305 . S
O31 Ho1 2.669 . S
O31 C19 1.256 . S
H32 C5 0.930 . S
H33 C6 0.931 . S
H34 C8 0.934 . S
H35 C9 0.930 . S
H36 C14 0.930 . S
H37 C15 0.931 . S
H38 C17 0.934 . S
H39 C18 0.930 . S
Ho40 C43 2.811 . S
Ho40 O60 2.322 . S
Ho40 O62 2.378 . S
Ho40 O63 2.524 . S
Ho40 O64 2.381 . S
Ho40 O65 2.669 . S
Ho40 O67 2.346 . S
Ho40 O71 2.305 . S
Ho41 C52 2.811 . S
Ho41 O61 2.346 . S
Ho41 O65 2.305 . S
Ho41 O66 2.322 . S
Ho41 O68 2.378 . S
Ho41 O69 2.524 . S
Ho41 O70 2.381 . S
Ho41 O71 2.669 . S
C42 O60 1.259 . S
C42 O61 1.268 . S
C43 Ho40 2.811 . S
C43 C44 1.488 . S
C43 O62 1.215 . S
C43 O63 1.289 . S
C44 C43 1.488 . S
C44 C45 1.348 . S
C44 C49 1.413 . S
C45 C44 1.348 . S
C45 C46 1.442 . S
C45 H72 0.930 . S
C46 C45 1.442 . S
C46 C47 1.381 . S
C46 H73 0.931 . S
C47 C46 1.381 . S
C47 C48 1.321 . S
C48 C47 1.321 . S
C48 C49 1.403 . S
C48 H74 0.934 . S
C49 C44 1.413 . S
C49 C48 1.403 . S
C49 H75 0.930 . S
C50 O64 1.275 . S
C50 O65 1.256 . S
C51 O66 1.259 . S
C51 O67 1.268 . S
C52 Ho41 2.811 . S
C52 C53 1.488 . S
C52 O68 1.215 . S
C52 O69 1.289 . S
C53 C52 1.488 . S
C53 C54 1.348 . S
C53 C58 1.413 . S
C54 C53 1.348 . S
C54 C55 1.442 . S
C54 H76 0.930 . S
C55 C54 1.442 . S
C55 C56 1.381 . S
C55 H77 0.931 . S
C56 C55 1.381 . S
C56 C57 1.321 . S
C57 C56 1.321 . S
C57 C58 1.403 . S
C57 H78 0.934 . S
C58 C53 1.413 . S
C58 C57 1.403 . S
C58 H79 0.930 . S
C59 O70 1.275 . S
C59 O71 1.256 . S
O60 Ho40 2.322 . S
O60 C42 1.259 . S
O61 Ho41 2.346 . S
O61 C42 1.268 . S
O62 Ho40 2.378 . S
O62 C43 1.215 . S
O63 Ho40 2.524 . S
O63 C43 1.289 . S
O64 Ho40 2.381 . S
O64 C50 1.275 . S
O65 Ho40 2.669 . S
O65 Ho41 2.305 . S
O65 C50 1.256 . S
O66 Ho41 2.322 . S
O66 C51 1.259 . S
O67 Ho40 2.346 . S
O67 C51 1.268 . S
O68 Ho41 2.378 . S
O68 C52 1.215 . S
O69 Ho41 2.524 . S
O69 C52 1.289 . S
O70 Ho41 2.381 . S
O70 C59 1.275 . S
O71 Ho40 2.305 . S
O71 Ho41 2.669 . S
O71 C59 1.256 . S
H72 C45 0.930 . S
H73 C46 0.931 . S
H74 C48 0.934 . S
H75 C49 0.930 . S
H76 C54 0.930 . S
H77 C55 0.931 . S
H78 C57 0.934 . S
H79 C58 0.930 . S
Ho80 C83 2.811 . S
Ho80 O100 2.322 . S
Ho80 O102 2.378 . S
Ho80 O103 2.524 . S
Ho80 O104 2.381 . S
Ho80 O105 2.669 . S
Ho80 O107 2.346 . S
Ho80 O111 2.305 . S
Ho81 C92 2.811 . S
Ho81 O101 2.346 . S
Ho81 O105 2.305 . S
Ho81 O106 2.322 . S
Ho81 O108 2.378 . S
Ho81 O109 2.524 . S
Ho81 O110 2.381 . S
Ho81 O111 2.669 . S
C82 O100 1.259 . S
C82 O101 1.268 . S
C83 Ho80 2.811 . S
C83 C84 1.488 . S
C83 O102 1.215 . S
C83 O103 1.289 . S
C84 C83 1.488 . S
C84 C85 1.348 . S
C84 C89 1.413 . S
C85 C84 1.348 . S
C85 C86 1.442 . S
C85 H112 0.930 . S
C86 C85 1.442 . S
C86 C87 1.381 . S
C86 H113 0.931 . S
C87 C86 1.381 . S
C87 C88 1.321 . S
C88 C87 1.321 . S
C88 C89 1.403 . S
C88 H114 0.934 . S
C89 C84 1.413 . S
C89 C88 1.403 . S
C89 H115 0.930 . S
C90 O104 1.275 . S
C90 O105 1.256 . S
C91 O106 1.259 . S
C91 O107 1.268 . S
C92 Ho81 2.811 . S
C92 C93 1.488 . S
C92 O108 1.215 . S
C92 O109 1.289 . S
C93 C92 1.488 . S
C93 C94 1.348 . S
C93 C98 1.413 . S
C94 C93 1.348 . S
C94 C95 1.442 . S
C94 H116 0.930 . S
C95 C94 1.442 . S
C95 C96 1.381 . S
C95 H117 0.931 . S
C96 C95 1.381 . S
C96 C97 1.321 . S
C97 C96 1.321 . S
C97 C98 1.403 . S
C97 H118 0.934 . S
C98 C93 1.413 . S
C98 C97 1.403 . S
C98 H119 0.930 . S
C99 O110 1.275 . S
C99 O111 1.256 . S
O100 Ho80 2.322 . S
O100 C82 1.259 . S
O101 Ho81 2.346 . S
O101 C82 1.268 . S
O102 Ho80 2.378 . S
O102 C83 1.215 . S
O103 Ho80 2.524 . S
O103 C83 1.289 . S
O104 Ho80 2.381 . S
O104 C90 1.275 . S
O105 Ho80 2.669 . S
O105 Ho81 2.305 . S
O105 C90 1.256 . S
O106 Ho81 2.322 . S
O106 C91 1.259 . S
O107 Ho80 2.346 . S
O107 C91 1.268 . S
O108 Ho81 2.378 . S
O108 C92 1.215 . S
O109 Ho81 2.524 . S
O109 C92 1.289 . S
O110 Ho81 2.381 . S
O110 C99 1.275 . S
O111 Ho80 2.305 . S
O111 Ho81 2.669 . S
O111 C99 1.256 . S
H112 C85 0.930 . S
H113 C86 0.931 . S
H114 C88 0.934 . S
H115 C89 0.930 . S
H116 C94 0.930 . S
H117 C95 0.931 . S
H118 C97 0.934 . S
H119 C98 0.930 . S
Ho120 C123 2.811 . S
Ho120 O140 2.322 . S
Ho120 O142 2.378 . S
Ho120 O143 2.524 . S
Ho120 O144 2.381 . S
Ho120 O145 2.669 . S
Ho120 O147 2.346 . S
Ho120 O151 2.305 . S
Ho121 C132 2.811 . S
Ho121 O141 2.346 . S
Ho121 O145 2.305 . S
Ho121 O146 2.322 . S
Ho121 O148 2.378 . S
Ho121 O149 2.524 . S
Ho121 O150 2.381 . S
Ho121 O151 2.669 . S
C122 O140 1.259 . S
C122 O141 1.268 . S
C123 Ho120 2.811 . S
C123 C124 1.488 . S
C123 O142 1.215 . S
C123 O143 1.289 . S
C124 C123 1.488 . S
C124 C125 1.348 . S
C124 C129 1.413 . S
C125 C124 1.348 . S
C125 C126 1.442 . S
C125 H152 0.930 . S
C126 C125 1.442 . S
C126 C127 1.381 . S
C126 H153 0.931 . S
C127 C126 1.381 . S
C127 C128 1.321 . S
C128 C127 1.321 . S
C128 C129 1.403 . S
C128 H154 0.934 . S
C129 C124 1.413 . S
C129 C128 1.403 . S
C129 H155 0.930 . S
C130 O144 1.275 . S
C130 O145 1.256 . S
C131 O146 1.259 . S
C131 O147 1.268 . S
C132 Ho121 2.811 . S
C132 C133 1.488 . S
C132 O148 1.215 . S
C132 O149 1.289 . S
C133 C132 1.488 . S
C133 C134 1.348 . S
C133 C138 1.413 . S
C134 C133 1.348 . S
C134 C135 1.442 . S
C134 H156 0.930 . S
C135 C134 1.442 . S
C135 C136 1.381 . S
C135 H157 0.931 . S
C136 C135 1.381 . S
C136 C137 1.321 . S
C137 C136 1.321 . S
C137 C138 1.403 . S
C137 H158 0.934 . S
C138 C133 1.413 . S
C138 C137 1.403 . S
C138 H159 0.930 . S
C139 O150 1.275 . S
C139 O151 1.256 . S
O140 Ho120 2.322 . S
O140 C122 1.259 . S
O141 Ho121 2.346 . S
O141 C122 1.268 . S
O142 Ho120 2.378 . S
O142 C123 1.215 . S
O143 Ho120 2.524 . S
O143 C123 1.289 . S
O144 Ho120 2.381 . S
O144 C130 1.275 . S
O145 Ho120 2.669 . S
O145 Ho121 2.305 . S
O145 C130 1.256 . S
O146 Ho121 2.322 . S
O146 C131 1.259 . S
O147 Ho120 2.346 . S
O147 C131 1.268 . S
O148 Ho121 2.378 . S
O148 C132 1.215 . S
O149 Ho121 2.524 . S
O149 C132 1.289 . S
O150 Ho121 2.381 . S
O150 C139 1.275 . S
O151 Ho120 2.305 . S
O151 Ho121 2.669 . S
O151 C139 1.256 . S
H152 C125 0.930 . S
H153 C126 0.931 . S
H154 C128 0.934 . S
H155 C129 0.930 . S
H156 C134 0.930 . S
H157 C135 0.931 . S
H158 C137 0.934 . S
H159 C138 0.930 . S
Ho160 C163 2.811 1_556 S
Ho160 O180 2.322 1_556 S
Ho160 O182 2.378 1_556 S
Ho160 O183 2.524 1_556 S
Ho160 O184 2.381 . S
Ho160 O185 2.669 . S
Ho160 O187 2.346 . S
Ho160 O191 2.305 1_556 S
Ho161 C172 2.811 1_554 S
Ho161 O181 2.346 . S
Ho161 O185 2.305 1_554 S
Ho161 O186 2.322 1_554 S
Ho161 O188 2.378 1_554 S
Ho161 O189 2.524 1_554 S
Ho161 O190 2.381 . S
Ho161 O191 2.669 . S
C162 O180 1.259 . S
C162 O181 1.268 . S
C163 Ho160 2.811 1_554 S
C163 C164 1.488 . S
C163 O182 1.215 . S
C163 O183 1.289 . S
C164 C163 1.488 . S
C164 C165 1.348 . S
C164 C169 1.413 . S
C165 C164 1.348 . S
C165 C166 1.442 . S
C165 H192 0.930 . S
C166 C165 1.442 . S
C166 C167 1.381 . S
C166 H193 0.931 . S
C167 C166 1.381 . S
C167 C168 1.321 . S
C168 C167 1.321 . S
C168 C169 1.403 . S
C168 H194 0.934 . S
C169 C164 1.413 . S
C169 C168 1.403 . S
C169 H195 0.930 . S
C170 O184 1.275 . S
C170 O185 1.256 . S
C171 O186 1.259 . S
C171 O187 1.268 . S
C172 Ho161 2.811 1_556 S
C172 C173 1.488 . S
C172 O188 1.215 . S
C172 O189 1.289 . S
C173 C172 1.488 . S
C173 C174 1.348 . S
C173 C178 1.413 . S
C174 C173 1.348 . S
C174 C175 1.442 . S
C174 H196 0.930 . S
C175 C174 1.442 . S
C175 C176 1.381 . S
C175 H197 0.931 . S
C176 C175 1.381 . S
C176 C177 1.321 . S
C177 C176 1.321 . S
C177 C178 1.403 . S
C177 H198 0.934 . S
C178 C173 1.413 . S
C178 C177 1.403 . S
C178 H199 0.930 . S
C179 O190 1.275 . S
C179 O191 1.256 . S
O180 Ho160 2.322 1_554 S
O180 C162 1.259 . S
O181 Ho161 2.346 . S
O181 C162 1.268 . S
O182 Ho160 2.378 1_554 S
O182 C163 1.215 . S
O183 Ho160 2.524 1_554 S
O183 C163 1.289 . S
O184 Ho160 2.381 . S
O184 C170 1.275 . S
O185 Ho160 2.669 . S
O185 Ho161 2.305 1_556 S
O185 C170 1.256 . S
O186 Ho161 2.322 1_556 S
O186 C171 1.259 . S
O187 Ho160 2.346 . S
O187 C171 1.268 . S
O188 Ho161 2.378 1_556 S
O188 C172 1.215 . S
O189 Ho161 2.524 1_556 S
O189 C172 1.289 . S
O190 Ho161 2.381 . S
O190 C179 1.275 . S
O191 Ho160 2.305 1_554 S
O191 Ho161 2.669 . S
O191 C179 1.256 . S
H192 C165 0.930 . S
H193 C166 0.931 . S
H194 C168 0.934 . S
H195 C169 0.930 . S
H196 C174 0.930 . S
H197 C175 0.931 . S
H198 C177 0.934 . S
H199 C178 0.930 . S
Ho200 C203 2.811 1_556 S
Ho200 O220 2.322 1_556 S
Ho200 O222 2.378 1_556 S
Ho200 O223 2.524 1_556 S
Ho200 O224 2.381 . S
Ho200 O225 2.669 . S
Ho200 O227 2.346 . S
Ho200 O231 2.305 1_556 S
Ho201 C212 2.811 1_554 S
Ho201 O221 2.346 . S
Ho201 O225 2.305 1_554 S
Ho201 O226 2.322 1_554 S
Ho201 O228 2.378 1_554 S
Ho201 O229 2.524 1_554 S
Ho201 O230 2.381 . S
Ho201 O231 2.669 . S
C202 O220 1.259 . S
C202 O221 1.268 . S
C203 Ho200 2.811 1_554 S
C203 C204 1.488 . S
C203 O222 1.215 . S
C203 O223 1.289 . S
C204 C203 1.488 . S
C204 C205 1.348 . S
C204 C209 1.413 . S
C205 C204 1.348 . S
C205 C206 1.442 . S
C205 H232 0.930 . S
C206 C205 1.442 . S
C206 C207 1.381 . S
C206 H233 0.931 . S
C207 C206 1.381 . S
C207 C208 1.321 . S
C208 C207 1.321 . S
C208 C209 1.403 . S
C208 H234 0.934 . S
C209 C204 1.413 . S
C209 C208 1.403 . S
C209 H235 0.930 . S
C210 O224 1.275 . S
C210 O225 1.256 . S
C211 O226 1.259 . S
C211 O227 1.268 . S
C212 Ho201 2.811 1_556 S
C212 C213 1.488 . S
C212 O228 1.215 . S
C212 O229 1.289 . S
C213 C212 1.488 . S
C213 C214 1.348 . S
C213 C218 1.413 . S
C214 C213 1.348 . S
C214 C215 1.442 . S
C214 H236 0.930 . S
C215 C214 1.442 . S
C215 C216 1.381 . S
C215 H237 0.931 . S
C216 C215 1.381 . S
C216 C217 1.321 . S
C217 C216 1.321 . S
C217 C218 1.403 . S
C217 H238 0.934 . S
C218 C213 1.413 . S
C218 C217 1.403 . S
C218 H239 0.930 . S
C219 O230 1.275 . S
C219 O231 1.256 . S
O220 Ho200 2.322 1_554 S
O220 C202 1.259 . S
O221 Ho201 2.346 . S
O221 C202 1.268 . S
O222 Ho200 2.378 1_554 S
O222 C203 1.215 . S
O223 Ho200 2.524 1_554 S
O223 C203 1.289 . S
O224 Ho200 2.381 . S
O224 C210 1.275 . S
O225 Ho200 2.669 . S
O225 Ho201 2.305 1_556 S
O225 C210 1.256 . S
O226 Ho201 2.322 1_556 S
O226 C211 1.259 . S
O227 Ho200 2.346 . S
O227 C211 1.268 . S
O228 Ho201 2.378 1_556 S
O228 C212 1.215 . S
O229 Ho201 2.524 1_556 S
O229 C212 1.289 . S
O230 Ho201 2.381 . S
O230 C219 1.275 . S
O231 Ho200 2.305 1_554 S
O231 Ho201 2.669 . S
O231 C219 1.256 . S
H232 C205 0.930 . S
H233 C206 0.931 . S
H234 C208 0.934 . S
H235 C209 0.930 . S
H236 C214 0.930 . S
H237 C215 0.931 . S
H238 C217 0.934 . S
H239 C218 0.930 . S
Ho240 C243 2.811 1_556 S
Ho240 O260 2.322 1_556 S
Ho240 O262 2.378 1_556 S
Ho240 O263 2.524 1_556 S
Ho240 O264 2.381 . S
Ho240 O265 2.669 . S
Ho240 O267 2.346 . S
Ho240 O271 2.305 1_556 S
Ho241 C252 2.811 1_554 S
Ho241 O261 2.346 . S
Ho241 O265 2.305 1_554 S
Ho241 O266 2.322 1_554 S
Ho241 O268 2.378 1_554 S
Ho241 O269 2.524 1_554 S
Ho241 O270 2.381 . S
Ho241 O271 2.669 . S
C242 O260 1.259 . S
C242 O261 1.268 . S
C243 Ho240 2.811 1_554 S
C243 C244 1.488 . S
C243 O262 1.215 . S
C243 O263 1.289 . S
C244 C243 1.488 . S
C244 C245 1.348 . S
C244 C249 1.413 . S
C245 C244 1.348 . S
C245 C246 1.442 . S
C245 H272 0.930 . S
C246 C245 1.442 . S
C246 C247 1.381 . S
C246 H273 0.931 . S
C247 C246 1.381 . S
C247 C248 1.321 . S
C248 C247 1.321 . S
C248 C249 1.403 . S
C248 H274 0.934 . S
C249 C244 1.413 . S
C249 C248 1.403 . S
C249 H275 0.930 . S
C250 O264 1.275 . S
C250 O265 1.256 . S
C251 O266 1.259 . S
C251 O267 1.268 . S
C252 Ho241 2.811 1_556 S
C252 C253 1.488 . S
C252 O268 1.215 . S
C252 O269 1.289 . S
C253 C252 1.488 . S
C253 C254 1.348 . S
C253 C258 1.413 . S
C254 C253 1.348 . S
C254 C255 1.442 . S
C254 H276 0.930 . S
C255 C254 1.442 . S
C255 C256 1.381 . S
C255 H277 0.931 . S
C256 C255 1.381 . S
C256 C257 1.321 . S
C257 C256 1.321 . S
C257 C258 1.403 . S
C257 H278 0.934 . S
C258 C253 1.413 . S
C258 C257 1.403 . S
C258 H279 0.930 . S
C259 O270 1.275 . S
C259 O271 1.256 . S
O260 Ho240 2.322 1_554 S
O260 C242 1.259 . S
O261 Ho241 2.346 . S
O261 C242 1.268 . S
O262 Ho240 2.378 1_554 S
O262 C243 1.215 . S
O263 Ho240 2.524 1_554 S
O263 C243 1.289 . S
O264 Ho240 2.381 . S
O264 C250 1.275 . S
O265 Ho240 2.669 . S
O265 Ho241 2.305 1_556 S
O265 C250 1.256 . S
O266 Ho241 2.322 1_556 S
O266 C251 1.259 . S
O267 Ho240 2.346 . S
O267 C251 1.268 . S
O268 Ho241 2.378 1_556 S
O268 C252 1.215 . S
O269 Ho241 2.524 1_556 S
O269 C252 1.289 . S
O270 Ho241 2.381 . S
O270 C259 1.275 . S
O271 Ho240 2.305 1_554 S
O271 Ho241 2.669 . S
O271 C259 1.256 . S
H272 C245 0.930 . S
H273 C246 0.931 . S
H274 C248 0.934 . S
H275 C249 0.930 . S
H276 C254 0.930 . S
H277 C255 0.931 . S
H278 C257 0.934 . S
H279 C258 0.930 . S
Ho280 C283 2.811 1_556 S
Ho280 O300 2.322 1_556 S
Ho280 O302 2.378 1_556 S
Ho280 O303 2.524 1_556 S
Ho280 O304 2.381 . S
Ho280 O305 2.669 . S
Ho280 O307 2.346 . S
Ho280 O311 2.305 1_556 S
Ho281 C292 2.811 1_554 S
Ho281 O301 2.346 . S
Ho281 O305 2.305 1_554 S
Ho281 O306 2.322 1_554 S
Ho281 O308 2.378 1_554 S
Ho281 O309 2.524 1_554 S
Ho281 O310 2.381 . S
Ho281 O311 2.669 . S
C282 O300 1.259 . S
C282 O301 1.268 . S
C283 Ho280 2.811 1_554 S
C283 C284 1.488 . S
C283 O302 1.215 . S
C283 O303 1.289 . S
C284 C283 1.488 . S
C284 C285 1.348 . S
C284 C289 1.413 . S
C285 C284 1.348 . S
C285 C286 1.442 . S
C285 H312 0.930 . S
C286 C285 1.442 . S
C286 C287 1.381 . S
C286 H313 0.931 . S
C287 C286 1.381 . S
C287 C288 1.321 . S
C288 C287 1.321 . S
C288 C289 1.403 . S
C288 H314 0.934 . S
C289 C284 1.413 . S
C289 C288 1.403 . S
C289 H315 0.930 . S
C290 O304 1.275 . S
C290 O305 1.256 . S
C291 O306 1.259 . S
C291 O307 1.268 . S
C292 Ho281 2.811 1_556 S
C292 C293 1.488 . S
C292 O308 1.215 . S
C292 O309 1.289 . S
C293 C292 1.488 . S
C293 C294 1.348 . S
C293 C298 1.413 . S
C294 C293 1.348 . S
C294 C295 1.442 . S
C294 H316 0.930 . S
C295 C294 1.442 . S
C295 C296 1.381 . S
C295 H317 0.931 . S
C296 C295 1.381 . S
C296 C297 1.321 . S
C297 C296 1.321 . S
C297 C298 1.403 . S
C297 H318 0.934 . S
C298 C293 1.413 . S
C298 C297 1.403 . S
C298 H319 0.930 . S
C299 O310 1.275 . S
C299 O311 1.256 . S
O300 Ho280 2.322 1_554 S
O300 C282 1.259 . S
O301 Ho281 2.346 . S
O301 C282 1.268 . S
O302 Ho280 2.378 1_554 S
O302 C283 1.215 . S
O303 Ho280 2.524 1_554 S
O303 C283 1.289 . S
O304 Ho280 2.381 . S
O304 C290 1.275 . S
O305 Ho280 2.669 . S
O305 Ho281 2.305 1_556 S
O305 C290 1.256 . S
O306 Ho281 2.322 1_556 S
O306 C291 1.259 . S
O307 Ho280 2.346 . S
O307 C291 1.268 . S
O308 Ho281 2.378 1_556 S
O308 C292 1.215 . S
O309 Ho281 2.524 1_556 S
O309 C292 1.289 . S
O310 Ho281 2.381 . S
O310 C299 1.275 . S
O311 Ho280 2.305 1_554 S
O311 Ho281 2.669 . S
O311 C299 1.256 . S
H312 C285 0.930 . S
H313 C286 0.931 . S
H314 C288 0.934 . S
H315 C289 0.930 . S
H316 C294 0.930 . S
H317 C295 0.931 . S
H318 C297 0.934 . S
H319 C298 0.930 . S
C320 C321 1.391 . S
C320 C322 1.394 . S
C320 H336 0.931 . S
C321 C320 1.391 . S
C321 C325 1.376 . S
C322 C320 1.394 . S
C322 C323 1.369 . S
C322 C326 1.531 . S
C323 C322 1.369 . S
C323 C324 1.410 . S
C323 C331 1.503 . S
C324 C323 1.410 . S
C324 C325 1.392 . S
C324 C327 1.511 . S
C325 C321 1.376 . S
C325 C324 1.392 . S
C325 H337 0.929 . S
C326 C322 1.531 . S
C326 H338 0.960 . S
C326 H339 0.962 . S
C326 H340 0.960 . S
C327 C324 1.511 . S
C327 H341 0.961 . S
C327 H342 0.961 . S
C327 H343 0.961 . S
C328 C329 1.370 . S
C328 C330 1.363 . S
C328 H344 0.931 . S
C329 C328 1.370 . S
C329 C333 1.408 . S
C330 C328 1.363 . S
C330 C331 1.370 . S
C330 C334 1.524 . S
C331 C323 1.503 . S
C331 C330 1.370 . S
C331 C332 1.403 . S
C332 C331 1.403 . S
C332 C333 1.404 . S
C332 C335 1.539 . S
C333 C329 1.408 . S
C333 C332 1.404 . S
C333 H345 0.930 . S
C334 C330 1.524 . S
C334 H346 0.956 . S
C334 H347 0.961 . S
C334 H348 0.961 . S
C335 C332 1.539 . S
C335 H349 0.958 . S
C335 H350 0.961 . S
C335 H351 0.960 . S
H336 C320 0.931 . S
H337 C325 0.929 . S
H338 C326 0.960 . S
H339 C326 0.962 . S
H340 C326 0.960 . S
H341 C327 0.961 . S
H342 C327 0.961 . S
H343 C327 0.961 . S
H344 C328 0.931 . S
H345 C333 0.930 . S
H346 C334 0.956 . S
H347 C334 0.961 . S
H348 C334 0.961 . S
H349 C335 0.958 . S
H350 C335 0.961 . S
H351 C335 0.960 . S
C352 C353 1.391 . S
C352 C354 1.394 . S
C352 H368 0.931 . S
C353 C352 1.391 . S
C353 C357 1.376 . S
C354 C352 1.394 . S
C354 C355 1.369 . S
C354 C358 1.531 . S
C355 C354 1.369 . S
C355 C356 1.410 . S
C355 C363 1.503 . S
C356 C355 1.410 . S
C356 C357 1.392 . S
C356 C359 1.511 . S
C357 C353 1.376 . S
C357 C356 1.392 . S
C357 H369 0.929 . S
C358 C354 1.531 . S
C358 H370 0.960 . S
C358 H371 0.962 . S
C358 H372 0.960 . S
C359 C356 1.511 . S
C359 H373 0.961 . S
C359 H374 0.961 . S
C359 H375 0.961 . S
C360 C361 1.370 . S
C360 C362 1.363 . S
C360 H376 0.931 . S
C361 C360 1.370 . S
C361 C365 1.408 . S
C362 C360 1.363 . S
C362 C363 1.370 . S
C362 C366 1.524 . S
C363 C355 1.503 . S
C363 C362 1.370 . S
C363 C364 1.403 . S
C364 C363 1.403 . S
C364 C365 1.404 . S
C364 C367 1.539 . S
C365 C361 1.408 . S
C365 C364 1.404 . S
C365 H377 0.930 . S
C366 C362 1.524 . S
C366 H378 0.956 . S
C366 H379 0.961 . S
C366 H380 0.961 . S
C367 C364 1.539 . S
C367 H381 0.958 . S
C367 H382 0.961 . S
C367 H383 0.960 . S
H368 C352 0.931 . S
H369 C357 0.929 . S
H370 C358 0.960 . S
H371 C358 0.962 . S
H372 C358 0.960 . S
H373 C359 0.961 . S
H374 C359 0.961 . S
H375 C359 0.961 . S
H376 C360 0.931 . S
H377 C365 0.930 . S
H378 C366 0.956 . S
H379 C366 0.961 . S
H380 C366 0.961 . S
H381 C367 0.958 . S
H382 C367 0.961 . S
H383 C367 0.960 . S
C384 C385 1.391 . S
C384 C386 1.394 . S
C384 H400 0.931 . S
C385 C384 1.391 . S
C385 C389 1.376 . S
C386 C384 1.394 . S
C386 C387 1.369 . S
C386 C390 1.531 . S
C387 C386 1.369 . S
C387 C388 1.410 . S
C387 C395 1.503 . S
C388 C387 1.410 . S
C388 C389 1.392 . S
C388 C391 1.511 . S
C389 C385 1.376 . S
C389 C388 1.392 . S
C389 H401 0.929 . S
C390 C386 1.531 . S
C390 H402 0.960 . S
C390 H403 0.962 . S
C390 H404 0.960 . S
C391 C388 1.511 . S
C391 H405 0.961 . S
C391 H406 0.961 . S
C391 H407 0.961 . S
C392 C393 1.370 . S
C392 C394 1.363 . S
C392 H408 0.931 . S
C393 C392 1.370 . S
C393 C397 1.408 . S
C394 C392 1.363 . S
C394 C395 1.370 . S
C394 C398 1.524 . S
C395 C387 1.503 . S
C395 C394 1.370 . S
C395 C396 1.403 . S
C396 C395 1.403 . S
C396 C397 1.404 . S
C396 C399 1.539 . S
C397 C393 1.408 . S
C397 C396 1.404 . S
C397 H409 0.930 . S
C398 C394 1.524 . S
C398 H410 0.956 . S
C398 H411 0.961 . S
C398 H412 0.961 . S
C399 C396 1.539 . S
C399 H413 0.958 . S
C399 H414 0.961 . S
C399 H415 0.960 . S
H400 C384 0.931 . S
H401 C389 0.929 . S
H402 C390 0.960 . S
H403 C390 0.962 . S
H404 C390 0.960 . S
H405 C391 0.961 . S
H406 C391 0.961 . S
H407 C391 0.961 . S
H408 C392 0.931 . S
H409 C397 0.930 . S
H410 C398 0.956 . S
H411 C398 0.961 . S
H412 C398 0.961 . S
H413 C399 0.958 . S
H414 C399 0.961 . S
H415 C399 0.960 . S
C416 C417 1.391 . S
C416 C418 1.394 . S
C416 H432 0.931 . S
C417 C416 1.391 . S
C417 C421 1.376 . S
C418 C416 1.394 . S
C418 C419 1.369 . S
C418 C422 1.531 . S
C419 C418 1.369 . S
C419 C420 1.410 . S
C419 C427 1.503 . S
C420 C419 1.410 . S
C420 C421 1.392 . S
C420 C423 1.511 . S
C421 C417 1.376 . S
C421 C420 1.392 . S
C421 H433 0.929 . S
C422 C418 1.531 . S
C422 H434 0.960 . S
C422 H435 0.962 . S
C422 H436 0.960 . S
C423 C420 1.511 . S
C423 H437 0.961 . S
C423 H438 0.961 . S
C423 H439 0.961 . S
C424 C425 1.370 . S
C424 C426 1.363 . S
C424 H440 0.931 . S
C425 C424 1.370 . S
C425 C429 1.408 . S
C426 C424 1.363 . S
C426 C427 1.370 . S
C426 C430 1.524 . S
C427 C419 1.503 . S
C427 C426 1.370 . S
C427 C428 1.403 . S
C428 C427 1.403 . S
C428 C429 1.404 . S
C428 C431 1.539 . S
C429 C425 1.408 . S
C429 C428 1.404 . S
C429 H441 0.930 . S
C430 C426 1.524 . S
C430 H442 0.956 . S
C430 H443 0.961 . S
C430 H444 0.961 . S
C431 C428 1.539 . S
C431 H445 0.958 . S
C431 H446 0.961 . S
C431 H447 0.960 . S
H432 C416 0.931 . S
H433 C421 0.929 . S
H434 C422 0.960 . S
H435 C422 0.962 . S
H436 C422 0.960 . S
H437 C423 0.961 . S
H438 C423 0.961 . S
H439 C423 0.961 . S
H440 C424 0.931 . S
H441 C429 0.930 . S
H442 C430 0.956 . S
H443 C430 0.961 . S
H444 C430 0.961 . S
H445 C431 0.958 . S
H446 C431 0.961 . S
H447 C431 0.960 . S
C448 C449 1.391 . S
C448 C450 1.394 . S
C448 H464 0.931 . S
C449 C448 1.391 . S
C449 C453 1.376 . S
C450 C448 1.394 . S
C450 C451 1.369 . S
C450 C454 1.531 . S
C451 C450 1.369 . S
C451 C452 1.410 . S
C451 C459 1.503 1_565 S
C452 C451 1.410 . S
C452 C453 1.392 . S
C452 C455 1.511 . S
C453 C449 1.376 . S
C453 C452 1.392 . S
C453 H465 0.929 . S
C454 C450 1.531 . S
C454 H466 0.960 . S
C454 H467 0.962 . S
C454 H468 0.960 . S
C455 C452 1.511 . S
C455 H469 0.961 . S
C455 H470 0.961 1_565 S
C455 H471 0.961 . S
C456 C457 1.370 . S
C456 C458 1.363 . S
C456 H472 0.931 . S
C457 C456 1.370 . S
C457 C461 1.408 . S
C458 C456 1.363 . S
C458 C459 1.370 . S
C458 C462 1.524 . S
C459 C451 1.503 1_545 S
C459 C458 1.370 . S
C459 C460 1.403 . S
C460 C459 1.403 . S
C460 C461 1.404 . S
C460 C463 1.539 . S
C461 C457 1.408 . S
C461 C460 1.404 . S
C461 H473 0.930 . S
C462 C458 1.524 . S
C462 H474 0.956 . S
C462 H475 0.961 . S
C462 H476 0.961 . S
C463 C460 1.539 . S
C463 H477 0.959 . S
C463 H478 0.961 . S
C463 H479 0.960 1_545 S
H464 C448 0.931 . S
H465 C453 0.929 . S
H466 C454 0.960 . S
H467 C454 0.962 . S
H468 C454 0.960 . S
H469 C455 0.961 . S
H470 C455 0.961 1_545 S
H471 C455 0.961 . S
H472 C456 0.931 . S
H473 C461 0.930 . S
H474 C462 0.956 . S
H475 C462 0.961 . S
H476 C462 0.961 . S
H477 C463 0.959 . S
H478 C463 0.961 . S
H479 C463 0.960 1_565 S
C480 C481 1.391 . S
C480 C482 1.394 . S
C480 H496 0.931 . S
C481 C480 1.391 . S
C481 C485 1.376 . S
C482 C480 1.394 . S
C482 C483 1.369 . S
C482 C486 1.531 . S
C483 C482 1.369 . S
C483 C484 1.410 . S
C483 C491 1.503 . S
C484 C483 1.410 . S
C484 C485 1.392 . S
C484 C487 1.511 . S
C485 C481 1.376 . S
C485 C484 1.392 . S
C485 H497 0.929 . S
C486 C482 1.531 . S
C486 H498 0.960 . S
C486 H499 0.962 . S
C486 H500 0.960 . S
C487 C484 1.511 . S
C487 H501 0.961 . S
C487 H502 0.961 . S
C487 H503 0.961 . S
C488 C489 1.370 . S
C488 C490 1.363 . S
C488 H504 0.931 . S
C489 C488 1.370 . S
C489 C493 1.408 . S
C490 C488 1.363 . S
C490 C491 1.370 . S
C490 C494 1.524 . S
C491 C483 1.503 . S
C491 C490 1.370 . S
C491 C492 1.403 . S
C492 C491 1.403 . S
C492 C493 1.404 . S
C492 C495 1.539 . S
C493 C489 1.408 . S
C493 C492 1.404 . S
C493 H505 0.930 . S
C494 C490 1.524 . S
C494 H506 0.956 . S
C494 H507 0.961 . S
C494 H508 0.961 . S
C495 C492 1.539 . S
C495 H509 0.958 . S
C495 H510 0.961 . S
C495 H511 0.960 . S
H496 C480 0.931 . S
H497 C485 0.929 . S
H498 C486 0.960 . S
H499 C486 0.962 . S
H500 C486 0.960 . S
H501 C487 0.961 . S
H502 C487 0.961 . S
H503 C487 0.961 . S
H504 C488 0.931 . S
H505 C493 0.930 . S
H506 C494 0.956 . S
H507 C494 0.961 . S
H508 C494 0.961 . S
H509 C495 0.958 . S
H510 C495 0.961 . S
H511 C495 0.960 . S
C512 C513 1.391 . S
C512 C514 1.394 . S
C512 H528 0.931 . S
C513 C512 1.391 . S
C513 C517 1.376 . S
C514 C512 1.394 . S
C514 C515 1.369 . S
C514 C518 1.531 . S
C515 C514 1.369 . S
C515 C516 1.410 . S
C515 C523 1.503 1_565 S
C516 C515 1.410 . S
C516 C517 1.392 . S
C516 C519 1.511 . S
C517 C513 1.376 . S
C517 C516 1.392 . S
C517 H529 0.929 . S
C518 C514 1.531 . S
C518 H530 0.960 1_565 S
C518 H531 0.962 1_565 S
C518 H532 0.960 . S
C519 C516 1.511 . S
C519 H533 0.961 . S
C519 H534 0.961 . S
C519 H535 0.961 . S
C520 C521 1.370 . S
C520 C522 1.363 . S
C520 H536 0.931 . S
C521 C520 1.370 . S
C521 C525 1.408 . S
C522 C520 1.363 . S
C522 C523 1.370 . S
C522 C526 1.524 . S
C523 C515 1.503 1_545 S
C523 C522 1.370 . S
C523 C524 1.403 . S
C524 C523 1.403 . S
C524 C525 1.404 . S
C524 C527 1.539 . S
C525 C521 1.408 . S
C525 C524 1.404 . S
C525 H537 0.930 . S
C526 C522 1.524 . S
C526 H538 0.956 1_545 S
C526 H539 0.961 1_545 S
C526 H540 0.961 . S
C527 C524 1.539 . S
C527 H541 0.958 . S
C527 H542 0.961 . S
C527 H543 0.960 . S
H528 C512 0.931 . S
H529 C517 0.929 . S
H530 C518 0.960 1_545 S
H531 C518 0.962 1_545 S
H532 C518 0.960 . S
H533 C519 0.961 . S
H534 C519 0.961 . S
H535 C519 0.961 . S
H536 C520 0.931 . S
H537 C525 0.930 . S
H538 C526 0.956 1_565 S
H539 C526 0.961 1_565 S
H540 C526 0.961 . S
H541 C527 0.958 . S
H542 C527 0.961 . S
H543 C527 0.960 . S
C544 C545 1.391 . S
C544 C546 1.394 . S
C544 H560 0.931 . S
C545 C544 1.391 . S
C545 C549 1.376 . S
C546 C544 1.394 . S
C546 C547 1.369 . S
C546 C550 1.531 . S
C547 C546 1.369 . S
C547 C548 1.410 . S
C547 C555 1.503 . S
C548 C547 1.410 . S
C548 C549 1.392 . S
C548 C551 1.511 . S
C549 C545 1.376 . S
C549 C548 1.392 . S
C549 H561 0.929 . S
C550 C546 1.531 . S
C550 H562 0.960 . S
C550 H563 0.962 . S
C550 H564 0.960 . S
C551 C548 1.511 . S
C551 H565 0.961 . S
C551 H566 0.961 . S
C551 H567 0.961 . S
C552 C553 1.370 . S
C552 C554 1.363 . S
C552 H568 0.931 . S
C553 C552 1.370 . S
C553 C557 1.408 . S
C554 C552 1.363 . S
C554 C555 1.370 . S
C554 C558 1.524 . S
C555 C547 1.503 . S
C555 C554 1.370 . S
C555 C556 1.403 . S
C556 C555 1.403 . S
C556 C557 1.404 . S
C556 C559 1.539 . S
C557 C553 1.408 . S
C557 C556 1.404 . S
C557 H569 0.930 . S
C558 C554 1.524 . S
C558 H570 0.956 . S
C558 H571 0.961 . S
C558 H572 0.961 . S
C559 C556 1.539 . S
C559 H573 0.958 . S
C559 H574 0.961 . S
C559 H575 0.960 . S
H560 C544 0.931 . S
H561 C549 0.929 . S
H562 C550 0.960 . S
H563 C550 0.962 . S
H564 C550 0.960 . S
H565 C551 0.961 . S
H566 C551 0.961 . S
H567 C551 0.961 . S
H568 C552 0.931 . S
H569 C557 0.930 . S
H570 C558 0.956 . S
H571 C558 0.961 . S
H572 C558 0.961 . S
H573 C559 0.958 . S
H574 C559 0.961 . S
H575 C559 0.960 . S
C576 C577 1.391 . S
C576 C578 1.394 . S
C576 H592 0.931 . S
C577 C576 1.391 . S
C577 C581 1.376 . S
C578 C576 1.394 . S
C578 C579 1.369 . S
C578 C582 1.531 . S
C579 C578 1.369 . S
C579 C580 1.410 . S
C579 C587 1.503 . S
C580 C579 1.410 . S
C580 C581 1.392 . S
C580 C583 1.511 . S
C581 C577 1.376 . S
C581 C580 1.392 . S
C581 H593 0.930 . S
C582 C578 1.531 . S
C582 H594 0.960 . S
C582 H595 0.962 1_556 S
C582 H596 0.960 . S
C583 C580 1.511 . S
C583 H597 0.961 1_556 S
C583 H598 0.961 1_556 S
C583 H599 0.961 . S
C584 C585 1.370 1_554 S
C584 C586 1.363 . S
C584 H600 0.931 . S
C585 C584 1.370 1_556 S
C585 C589 1.408 . S
C586 C584 1.363 . S
C586 C587 1.370 1_554 S
C586 C590 1.524 . S
C587 C579 1.503 . S
C587 C586 1.370 1_556 S
C587 C588 1.403 . S
C588 C587 1.403 . S
C588 C589 1.404 . S
C588 C591 1.539 . S
C589 C585 1.408 . S
C589 C588 1.404 . S
C589 H601 0.930 . S
C590 C586 1.524 . S
C590 H602 0.956 . S
C590 H603 0.961 . S
C590 H604 0.961 . S
C591 C588 1.539 . S
C591 H605 0.958 . S
C591 H606 0.961 . S
C591 H607 0.960 . S
H592 C576 0.931 . S
H593 C581 0.930 . S
H594 C582 0.960 . S
H595 C582 0.962 1_554 S
H596 C582 0.960 . S
H597 C583 0.961 1_554 S
H598 C583 0.961 1_554 S
H599 C583 0.961 . S
H600 C584 0.931 . S
H601 C589 0.930 . S
H602 C590 0.956 . S
H603 C590 0.961 . S
H604 C590 0.961 . S
H605 C591 0.958 . S
H606 C591 0.961 . S
H607 C591 0.960 . S
C608 C609 1.391 . S
C608 C610 1.394 . S
C608 H624 0.931 . S
C609 C608 1.391 . S
C609 C613 1.376 . S
C610 C608 1.394 . S
C610 C611 1.369 . S
C610 C614 1.531 . S
C611 C610 1.369 . S
C611 C612 1.410 . S
C611 C619 1.503 1_565 S
C612 C611 1.410 . S
C612 C613 1.392 . S
C612 C615 1.511 . S
C613 C609 1.376 . S
C613 C612 1.392 . S
C613 H625 0.929 . S
C614 C610 1.531 . S
C614 H626 0.960 1_565 S
C614 H627 0.962 1_554 S
C614 H628 0.960 . S
C615 C612 1.511 . S
C615 H629 0.961 1_554 S
C615 H630 0.961 1_554 S
C615 H631 0.961 . S
C616 C617 1.370 . S
C616 C618 1.363 . S
C616 H632 0.931 . S
C617 C616 1.370 . S
C617 C621 1.408 1_556 S
C618 C616 1.363 . S
C618 C619 1.370 1_556 S
C618 C622 1.524 . S
C619 C611 1.503 1_545 S
C619 C618 1.370 1_554 S
C619 C620 1.403 . S
C620 C619 1.403 . S
C620 C621 1.404 . S
C620 C623 1.539 . S
C621 C617 1.408 1_554 S
C621 C620 1.404 . S
C621 H633 0.930 . S
C622 C618 1.524 . S
C622 H634 0.956 . S
C622 H635 0.961 1_545 S
C622 H636 0.961 . S
C623 C620 1.539 . S
C623 H637 0.958 . S
C623 H638 0.961 . S
C623 H639 0.966 . S
H624 C608 0.931 . S
H625 C613 0.929 . S
H626 C614 0.960 1_545 S
H627 C614 0.962 1_556 S
H628 C614 0.960 . S
H629 C615 0.961 1_556 S
H630 C615 0.961 1_556 S
H631 C615 0.961 . S
H632 C616 0.931 . S
H633 C621 0.930 . S
H634 C622 0.956 . S
H635 C622 0.961 1_565 S
H636 C622 0.961 . S
H637 C623 0.958 . S
H638 C623 0.961 . S
H639 C623 0.966 . S
C640 C641 1.391 . S
C640 C642 1.394 . S
C640 H656 0.931 . S
C641 C640 1.391 . S
C641 C645 1.376 1_554 S
C642 C640 1.394 . S
C642 C643 1.369 . S
C642 C646 1.531 . S
C643 C642 1.369 . S
C643 C644 1.410 1_554 S
C643 C651 1.503 . S
C644 C643 1.410 1_556 S
C644 C645 1.392 . S
C644 C647 1.511 . S
C645 C641 1.376 1_556 S
C645 C644 1.392 . S
C645 H657 0.929 . S
C646 C642 1.531 . S
C646 H658 0.960 . S
C646 H659 0.962 . S
C646 H660 0.960 . S
C647 C644 1.511 . S
C647 H661 0.961 . S
C647 H662 0.961 . S
C647 H663 0.961 1_556 S
C648 C649 1.370 1_556 S
C648 C650 1.363 . S
C648 H664 0.931 . S
C649 C648 1.370 1_554 S
C649 C653 1.408 . S
C650 C648 1.363 . S
C650 C651 1.370 1_556 S
C650 C654 1.524 . S
C651 C643 1.503 . S
C651 C650 1.370 1_554 S
C651 C652 1.403 . S
C652 C651 1.403 . S
C652 C653 1.404 . S
C652 C655 1.539 . S
C653 C649 1.408 . S
C653 C652 1.404 . S
C653 H665 0.930 . S
C654 C650 1.524 . S
C654 H666 0.956 . S
C654 H667 0.961 . S
C654 H668 0.961 . S
C655 C652 1.539 . S
C655 H669 0.958 . S
C655 H670 0.961 . S
C655 H671 0.960 . S
H656 C640 0.931 . S
H657 C645 0.929 . S
H658 C646 0.960 . S
H659 C646 0.962 . S
H660 C646 0.960 . S
H661 C647 0.961 . S
H662 C647 0.961 . S
H663 C647 0.961 1_554 S
H664 C648 0.931 . S
H665 C653 0.930 . S
H666 C654 0.956 . S
H667 C654 0.961 . S
H668 C654 0.961 . S
H669 C655 0.958 . S
H670 C655 0.961 . S
H671 C655 0.960 . S
C672 C673 1.387 1_554 S
C672 C674 1.394 . S
C672 H688 0.931 . S
C673 C672 1.387 1_556 S
C673 C677 1.381 . S
C674 C672 1.394 . S
C674 C675 1.369 1_554 S
C674 C678 1.531 . S
C675 C674 1.369 1_556 S
C675 C676 1.410 . S
C675 C683 1.503 1_545 S
C676 C675 1.410 . S
C676 C677 1.392 . S
C676 C679 1.511 . S
C677 C673 1.381 . S
C677 C676 1.392 . S
C677 H689 0.929 . S
C678 C674 1.531 . S
C678 H690 0.960 . S
C678 H691 0.962 . S
C678 H692 0.960 . S
C679 C676 1.511 . S
C679 H693 0.961 . S
C679 H694 0.961 1_545 S
C679 H695 0.961 . S
C680 C681 1.370 . S
C680 C682 1.363 . S
C680 H696 0.931 . S
C681 C680 1.370 . S
C681 C685 1.408 1_554 S
C682 C680 1.363 . S
C682 C683 1.370 1_554 S
C682 C686 1.524 . S
C683 C675 1.503 1_565 S
C683 C682 1.370 1_556 S
C683 C684 1.403 . S
C684 C683 1.403 . S
C684 C685 1.404 . S
C684 C687 1.539 . S
C685 C681 1.408 1_556 S
C685 C684 1.404 . S
C685 H697 0.930 . S
C686 C682 1.524 . S
C686 H698 0.956 . S
C686 H699 0.961 . S
C686 H700 0.961 . S
C687 C684 1.539 . S
C687 H701 0.958 . S
C687 H702 0.961 . S
C687 H703 0.960 1_565 S
H688 C672 0.931 . S
H689 C677 0.929 . S
H690 C678 0.960 . S
H691 C678 0.962 . S
H692 C678 0.960 . S
H693 C679 0.961 . S
H694 C679 0.961 1_565 S
H695 C679 0.961 . S
H696 C680 0.931 . S
H697 C685 0.930 . S
H698 C686 0.956 . S
H699 C686 0.961 . S
H700 C686 0.961 . S
H701 C687 0.958 . S
H702 C687 0.961 . S
H703 C687 0.960 1_545 S
C704 C705 1.391 . S
C704 C706 1.394 . S
C704 H720 0.931 . S
C705 C704 1.391 . S
C705 C709 1.376 . S
C706 C704 1.394 . S
C706 C707 1.369 1_554 S
C706 C710 1.531 1_554 S
C707 C706 1.369 1_556 S
C707 C708 1.410 1_556 S
C707 C715 1.503 . S
C708 C707 1.410 1_554 S
C708 C709 1.392 . S
C708 C711 1.511 1_554 S
C709 C705 1.376 . S
C709 C708 1.392 . S
C709 H721 0.929 . S
C710 C706 1.531 1_556 S
C710 H722 0.960 . S
C710 H723 0.962 . S
C710 H724 0.960 1_556 S
C711 C708 1.511 1_556 S
C711 H725 0.961 . S
C711 H726 0.961 . S
C711 H727 0.961 . S
C712 C713 1.370 . S
C712 C714 1.363 . S
C712 H728 0.931 . S
C713 C712 1.370 . S
C713 C717 1.408 . S
C714 C712 1.363 . S
C714 C715 1.370 . S
C714 C718 1.524 . S
C715 C707 1.503 . S
C715 C714 1.370 . S
C715 C716 1.403 . S
C716 C715 1.403 . S
C716 C717 1.404 . S
C716 C719 1.539 . S
C717 C713 1.408 . S
C717 C716 1.404 . S
C717 H729 0.930 . S
C718 C714 1.524 . S
C718 H730 0.956 . S
C718 H731 0.961 . S
C718 H732 0.961 . S
C719 C716 1.539 . S
C719 H733 0.958 . S
C719 H734 0.961 . S
C719 H735 0.960 . S
H720 C704 0.931 . S
H721 C709 0.929 . S
H722 C710 0.960 . S
H723 C710 0.962 . S
H724 C710 0.960 1_554 S
H725 C711 0.961 . S
H726 C711 0.961 . S
H727 C711 0.961 . S
H728 C712 0.931 . S
H729 C717 0.930 . S
H730 C718 0.956 . S
H731 C718 0.961 . S
H732 C718 0.961 . S
H733 C719 0.958 . S
H734 C719 0.961 . S
H735 C719 0.960 . S
C736 C737 1.391 . S
C736 C738 1.394 . S
C736 H752 0.931 . S
C737 C736 1.391 . S
C737 C741 1.376 . S
C738 C736 1.394 . S
C738 C739 1.369 1_554 S
C738 C742 1.531 1_554 S
C739 C738 1.369 1_556 S
C739 C740 1.410 1_556 S
C739 C747 1.503 . S
C740 C739 1.410 1_554 S
C740 C741 1.392 . S
C740 C743 1.511 1_554 S
C741 C737 1.376 . S
C741 C740 1.392 . S
C741 H753 0.929 . S
C742 C738 1.531 1_556 S
C742 H754 0.960 . S
C742 H755 0.962 . S
C742 H756 0.960 . S
C743 C740 1.511 1_556 S
C743 H757 0.961 1_556 S
C743 H758 0.961 . S
C743 H759 0.961 . S
C744 C745 1.370 . S
C744 C746 1.363 . S
C744 H760 0.931 . S
C745 C744 1.370 . S
C745 C749 1.408 . S
C746 C744 1.363 . S
C746 C747 1.370 . S
C746 C750 1.524 . S
C747 C739 1.503 . S
C747 C746 1.370 . S
C747 C748 1.403 . S
C748 C747 1.403 . S
C748 C749 1.404 . S
C748 C751 1.539 . S
C749 C745 1.408 . S
C749 C748 1.404 . S
C749 H761 0.930 . S
C750 C746 1.524 . S
C750 H762 0.956 . S
C750 H763 0.961 . S
C750 H764 0.961 . S
C751 C748 1.539 . S
C751 H765 0.958 . S
C751 H766 0.961 . S
C751 H767 0.960 . S
H752 C736 0.931 . S
H753 C741 0.929 . S
H754 C742 0.960 . S
H755 C742 0.962 . S
H756 C742 0.960 . S
H757 C743 0.961 1_554 S
H758 C743 0.961 . S
H759 C743 0.961 . S
H760 C744 0.931 . S
H761 C749 0.930 . S
H762 C750 0.956 . S
H763 C750 0.961 . S
H764 C750 0.961 . S
H765 C751 0.958 . S
H766 C751 0.961 . S
H767 C751 0.960 . S
C768 C769 1.391 . S
C768 C770 1.394 . S
C768 H784 0.931 . S
C769 C768 1.391 . S
C769 C773 1.376 . S
C770 C768 1.394 . S
C770 C771 1.369 . S
C770 C774 1.531 . S
C771 C770 1.369 . S
C771 C772 1.410 . S
C771 C779 1.503 . S
C772 C771 1.410 . S
C772 C773 1.392 . S
C772 C775 1.511 . S
C773 C769 1.376 . S
C773 C772 1.392 . S
C773 H785 0.929 . S
C774 C770 1.531 . S
C774 H786 0.960 . S
C774 H787 0.962 . S
C774 H788 0.960 . S
C775 C772 1.511 . S
C775 H789 0.961 . S
C775 H790 0.961 . S
C775 H791 0.961 . S
C776 C777 1.370 . S
C776 C778 1.363 . S
C776 H792 0.931 . S
C777 C776 1.370 . S
C777 C781 1.408 . S
C778 C776 1.363 . S
C778 C779 1.370 1_556 S
C778 C782 1.524 1_556 S
C779 C771 1.503 . S
C779 C778 1.370 1_554 S
C779 C780 1.403 1_554 S
C780 C779 1.403 1_556 S
C780 C781 1.404 . S
C780 C783 1.539 1_556 S
C781 C777 1.408 . S
C781 C780 1.404 . S
C781 H793 0.930 . S
C782 C778 1.524 1_554 S
C782 H794 0.956 . S
C782 H795 0.961 . S
C782 H796 0.961 . S
C783 C780 1.539 1_554 S
C783 H797 0.958 . S
C783 H798 0.961 1_554 S
C783 H799 0.960 . S
H784 C768 0.931 . S
H785 C773 0.929 . S
H786 C774 0.960 . S
H787 C774 0.962 . S
H788 C774 0.960 . S
H789 C775 0.961 . S
H790 C775 0.961 . S
H791 C775 0.961 . S
H792 C776 0.931 . S
H793 C781 0.930 . S
H794 C782 0.956 . S
H795 C782 0.961 . S
H796 C782 0.961 . S
H797 C783 0.958 . S
H798 C783 0.961 1_556 S
H799 C783 0.960 . S
C800 C801 1.391 . S
C800 C802 1.394 . S
C800 H816 0.931 . S
C801 C800 1.391 . S
C801 C805 1.376 . S
C802 C800 1.394 . S
C802 C803 1.369 1_556 S
C802 C806 1.531 1_556 S
C803 C802 1.369 1_554 S
C803 C804 1.410 1_554 S
C803 C811 1.503 . S
C804 C803 1.410 1_556 S
C804 C805 1.392 . S
C804 C807 1.509 1_556 S
C805 C801 1.376 . S
C805 C804 1.392 . S
C805 H817 0.929 . S
C806 C802 1.531 1_554 S
C806 H818 0.960 . S
C806 H819 0.962 . S
C806 H820 0.960 . S
C807 C804 1.509 1_554 S
C807 H821 0.958 1_554 S
C807 H822 0.966 . S
C807 H823 0.961 . S
C808 C809 1.370 . S
C808 C810 1.363 . S
C808 H824 0.931 . S
C809 C808 1.370 . S
C809 C813 1.408 . S
C810 C808 1.363 . S
C810 C811 1.370 . S
C810 C814 1.524 . S
C811 C803 1.503 . S
C811 C810 1.370 . S
C811 C812 1.403 . S
C812 C811 1.403 . S
C812 C813 1.404 . S
C812 C815 1.539 . S
C813 C809 1.408 . S
C813 C812 1.404 . S
C813 H825 0.930 . S
C814 C810 1.524 . S
C814 H826 0.956 . S
C814 H827 0.961 . S
C814 H828 0.961 . S
C815 C812 1.539 . S
C815 H829 0.958 . S
C815 H830 0.961 . S
C815 H831 0.960 . S
H816 C800 0.931 . S
H817 C805 0.929 . S
H818 C806 0.960 . S
H819 C806 0.962 . S
H820 C806 0.960 . S
H821 C807 0.958 1_556 S
H822 C807 0.966 . S
H823 C807 0.961 . S
H824 C808 0.931 . S
H825 C813 0.930 . S
H826 C814 0.956 . S
H827 C814 0.961 . S
H828 C814 0.961 . S
H829 C815 0.958 . S
H830 C815 0.961 . S
H831 C815 0.960 . S
C832 C833 1.391 . S
C832 C834 1.394 . S
C832 H848 0.931 . S
C833 C832 1.391 . S
C833 C837 1.376 . S
C834 C832 1.394 . S
C834 C835 1.369 . S
C834 C838 1.531 . S
C835 C834 1.369 . S
C835 C836 1.410 . S
C835 C843 1.503 . S
C836 C835 1.410 . S
C836 C837 1.392 . S
C836 C839 1.511 . S
C837 C833 1.376 . S
C837 C836 1.392 . S
C837 H849 0.929 . S
C838 C834 1.531 . S
C838 H850 0.960 . S
C838 H851 0.962 . S
C838 H852 0.960 . S
C839 C836 1.511 . S
C839 H853 0.961 . S
C839 H854 0.961 . S
C839 H855 0.961 . S
C840 C841 1.370 . S
C840 C842 1.363 . S
C840 H856 0.931 . S
C841 C840 1.370 . S
C841 C845 1.408 . S
C842 C840 1.363 . S
C842 C843 1.370 . S
C842 C846 1.524 . S
C843 C835 1.503 . S
C843 C842 1.370 . S
C843 C844 1.403 . S
C844 C843 1.403 . S
C844 C845 1.404 . S
C844 C847 1.539 . S
C845 C841 1.408 . S
C845 C844 1.404 . S
C845 H857 0.930 . S
C846 C842 1.524 . S
C846 H858 0.956 . S
C846 H859 0.961 . S
C846 H860 0.961 . S
C847 C844 1.539 . S
C847 H861 0.958 . S
C847 H862 0.961 . S
C847 H863 0.960 . S
H848 C832 0.931 . S
H849 C837 0.929 . S
H850 C838 0.960 . S
H851 C838 0.962 . S
H852 C838 0.960 . S
H853 C839 0.961 . S
H854 C839 0.961 . S
H855 C839 0.961 . S
H856 C840 0.931 . S
H857 C845 0.930 . S
H858 C846 0.956 . S
H859 C846 0.961 . S
H860 C846 0.961 . S
H861 C847 0.958 . S
H862 C847 0.961 . S
H863 C847 0.960 . S
C864 C865 1.391 . S
C864 C866 1.394 . S
C864 H880 0.931 . S
C865 C864 1.391 . S
C865 C869 1.376 . S
C866 C864 1.394 . S
C866 C867 1.369 . S
C866 C870 1.531 . S
C867 C866 1.369 . S
C867 C868 1.410 . S
C867 C875 1.503 . S
C868 C867 1.410 . S
C868 C869 1.392 . S
C868 C871 1.511 . S
C869 C865 1.376 . S
C869 C868 1.392 . S
C869 H881 0.929 . S
C870 C866 1.531 . S
C870 H882 0.960 . S
C870 H883 0.962 . S
C870 H884 0.960 . S
C871 C868 1.511 . S
C871 H885 0.961 . S
C871 H886 0.961 . S
C871 H887 0.961 . S
C872 C873 1.370 . S
C872 C874 1.363 . S
C872 H888 0.931 . S
C873 C872 1.370 . S
C873 C877 1.408 . S
C874 C872 1.363 . S
C874 C875 1.370 . S
C874 C878 1.524 . S
C875 C867 1.503 . S
C875 C874 1.370 . S
C875 C876 1.403 . S
C876 C875 1.403 . S
C876 C877 1.404 . S
C876 C879 1.539 . S
C877 C873 1.408 . S
C877 C876 1.404 . S
C877 H889 0.930 . S
C878 C874 1.524 . S
C878 H890 0.956 . S
C878 H891 0.961 . S
C878 H892 0.961 . S
C879 C876 1.539 . S
C879 H893 0.958 . S
C879 H894 0.961 . S
C879 H895 0.960 . S
H880 C864 0.931 . S
H881 C869 0.929 . S
H882 C870 0.960 . S
H883 C870 0.962 . S
H884 C870 0.960 . S
H885 C871 0.961 . S
H886 C871 0.961 . S
H887 C871 0.961 . S
H888 C872 0.931 . S
H889 C877 0.930 . S
H890 C878 0.956 . S
H891 C878 0.961 . S
H892 C878 0.961 . S
H893 C879 0.958 . S
H894 C879 0.961 . S
H895 C879 0.960 . S
C896 C897 1.391 . S
C896 C898 1.394 . S
C896 H912 0.931 . S
C897 C896 1.391 . S
C897 C901 1.376 . S
C898 C896 1.394 . S
C898 C899 1.369 . S
C898 C902 1.531 . S
C899 C898 1.369 . S
C899 C900 1.410 . S
C899 C907 1.503 . S
C900 C899 1.410 . S
C900 C901 1.392 . S
C900 C903 1.511 . S
C901 C897 1.376 . S
C901 C900 1.392 . S
C901 H913 0.929 . S
C902 C898 1.531 . S
C902 H914 0.960 . S
C902 H915 0.962 . S
C902 H916 0.960 . S
C903 C900 1.511 . S
C903 H917 0.961 . S
C903 H918 0.961 . S
C903 H919 0.961 . S
C904 C905 1.370 . S
C904 C906 1.363 . S
C904 H920 0.931 . S
C905 C904 1.370 . S
C905 C909 1.408 . S
C906 C904 1.363 . S
C906 C907 1.370 . S
C906 C910 1.524 . S
C907 C899 1.503 . S
C907 C906 1.370 . S
C907 C908 1.403 . S
C908 C907 1.403 . S
C908 C909 1.404 . S
C908 C911 1.539 . S
C909 C905 1.408 . S
C909 C908 1.404 . S
C909 H921 0.930 . S
C910 C906 1.524 . S
C910 H922 0.956 . S
C910 H923 0.961 . S
C910 H924 0.961 . S
C911 C908 1.539 . S
C911 H925 0.958 . S
C911 H926 0.961 . S
C911 H927 0.960 . S
H912 C896 0.931 . S
H913 C901 0.929 . S
H914 C902 0.960 . S
H915 C902 0.962 . S
H916 C902 0.960 . S
H917 C903 0.961 . S
H918 C903 0.961 . S
H919 C903 0.961 . S
H920 C904 0.931 . S
H921 C909 0.930 . S
H922 C910 0.956 . S
H923 C910 0.961 . S
H924 C910 0.961 . S
H925 C911 0.958 . S
H926 C911 0.961 . S
H927 C911 0.960 . S
C928 C929 1.391 . S
C928 C930 1.394 . S
C928 H944 0.931 . S
C929 C928 1.391 . S
C929 C933 1.376 . S
C930 C928 1.394 . S
C930 C931 1.369 . S
C930 C934 1.531 . S
C931 C930 1.369 . S
C931 C932 1.410 . S
C931 C939 1.503 . S
C932 C931 1.410 . S
C932 C933 1.392 . S
C932 C935 1.511 . S
C933 C929 1.376 . S
C933 C932 1.392 . S
C933 H945 0.929 . S
C934 C930 1.531 . S
C934 H946 0.960 . S
C934 H947 0.962 . S
C934 H948 0.960 . S
C935 C932 1.511 . S
C935 H949 0.961 . S
C935 H950 0.961 . S
C935 H951 0.961 . S
C936 C937 1.370 . S
C936 C938 1.363 . S
C936 H952 0.931 . S
C937 C936 1.370 . S
C937 C941 1.408 . S
C938 C936 1.363 . S
C938 C939 1.370 . S
C938 C942 1.524 . S
C939 C931 1.503 . S
C939 C938 1.370 . S
C939 C940 1.403 . S
C940 C939 1.403 . S
C940 C941 1.404 . S
C940 C943 1.539 . S
C941 C937 1.408 . S
C941 C940 1.404 . S
C941 H953 0.930 . S
C942 C938 1.524 . S
C942 H954 0.956 . S
C942 H955 0.961 . S
C942 H956 0.961 . S
C943 C940 1.539 . S
C943 H957 0.958 . S
C943 H958 0.961 . S
C943 H959 0.960 . S
H944 C928 0.931 . S
H945 C933 0.929 . S
H946 C934 0.960 . S
H947 C934 0.962 . S
H948 C934 0.960 . S
H949 C935 0.961 . S
H950 C935 0.961 . S
H951 C935 0.961 . S
H952 C936 0.931 . S
H953 C941 0.930 . S
H954 C942 0.956 . S
H955 C942 0.961 . S
H956 C942 0.961 . S
H957 C943 0.958 . S
H958 C943 0.961 . S
H959 C943 0.960 . S
C960 C961 1.391 . S
C960 C962 1.394 . S
C960 H976 0.931 . S
C961 C960 1.391 . S
C961 C965 1.376 . S
C962 C960 1.394 . S
C962 C963 1.369 . S
C962 C966 1.531 . S
C963 C962 1.369 . S
C963 C964 1.410 . S
C963 C971 1.503 1_455 S
C964 C963 1.410 . S
C964 C965 1.392 . S
C964 C967 1.511 . S
C965 C961 1.376 . S
C965 C964 1.392 . S
C965 H977 0.929 . S
C966 C962 1.531 . S
C966 H978 0.942 1_455 S
C966 H979 0.962 . S
C966 H980 0.960 . S
C967 C964 1.511 . S
C967 H981 0.961 . S
C967 H982 0.961 1_455 S
C967 H983 0.961 . S
C968 C969 1.370 . S
C968 C970 1.363 . S
C968 H984 0.931 . S
C969 C968 1.370 . S
C969 C973 1.408 . S
C970 C968 1.363 . S
C970 C971 1.370 . S
C970 C974 1.524 . S
C971 C963 1.503 1_655 S
C971 C970 1.370 . S
C971 C972 1.403 . S
C972 C971 1.403 . S
C972 C973 1.404 . S
C972 C975 1.539 . S
C973 C969 1.408 . S
C973 C972 1.404 . S
C973 H985 0.930 . S
C974 C970 1.524 . S
C974 H986 0.956 1_655 S
C974 H987 0.961 1_655 S
C974 H988 0.961 . S
C975 C972 1.539 . S
C975 H989 0.958 . S
C975 H990 0.961 . S
C975 H991 0.960 . S
H976 C960 0.931 . S
H977 C965 0.929 . S
H978 C966 0.942 1_655 S
H979 C966 0.962 . S
H980 C966 0.960 . S
H981 C967 0.961 . S
H982 C967 0.961 1_655 S
H983 C967 0.961 . S
H984 C968 0.931 . S
H985 C973 0.930 . S
H986 C974 0.956 1_455 S
H987 C974 0.961 1_455 S
H988 C974 0.961 . S
H989 C975 0.958 . S
H990 C975 0.961 . S
H991 C975 0.960 . S
C992 C993 1.391 . S
C992 C994 1.394 . S
C992 H1008 0.931 . S
C993 C992 1.391 . S
C993 C997 1.376 . S
C994 C992 1.394 . S
C994 C995 1.369 . S
C994 C998 1.531 . S
C995 C994 1.369 . S
C995 C996 1.410 . S
C995 C1003 1.503 1_655 S
C996 C995 1.410 . S
C996 C997 1.392 . S
C996 C999 1.511 . S
C997 C993 1.376 . S
C997 C996 1.392 . S
C997 H1009 0.929 . S
C998 C994 1.531 . S
C998 H1010 0.960 . S
C998 H1011 0.962 . S
C998 H1012 0.960 . S
C999 C996 1.511 . S
C999 H1013 0.961 . S
C999 H1014 0.961 1_655 S
C999 H1015 0.961 . S
C1000 C1001 1.370 . S
C1000 C1002 1.363 . S
C1000 H1016 0.931 . S
C1001 C1000 1.370 . S
C1001 C1005 1.408 . S
C1002 C1000 1.363 . S
C1002 C1003 1.370 . S
C1002 C1006 1.524 . S
C1003 C995 1.503 1_455 S
C1003 C1002 1.370 . S
C1003 C1004 1.403 . S
C1004 C1003 1.403 . S
C1004 C1005 1.404 . S
C1004 C1007 1.539 . S
C1005 C1001 1.408 . S
C1005 C1004 1.404 . S
C1005 H1017 0.930 . S
C1006 C1002 1.524 . S
C1006 H1018 1.000 . S
C1006 H1019 1.017 . S
C1006 H1020 0.961 . S
C1007 C1004 1.539 . S
C1007 H1021 0.958 . S
C1007 H1022 0.961 . S
C1007 H1023 0.915 1_455 S
H1008 C992 0.931 . S
H1009 C997 0.929 . S
H1010 C998 0.960 . S
H1011 C998 0.962 . S
H1012 C998 0.960 . S
H1013 C999 0.961 . S
H1014 C999 0.961 1_455 S
H1015 C999 0.961 . S
H1016 C1000 0.931 . S
H1017 C1005 0.930 . S
H1018 C1006 1.000 . S
H1019 C1006 1.017 . S
H1020 C1006 0.961 . S
H1021 C1007 0.958 . S
H1022 C1007 0.961 . S
H1023 C1007 0.915 1_655 S
C1024 C1025 1.391 . S
C1024 C1026 1.394 . S
C1024 H1040 0.931 . S
C1025 C1024 1.391 . S
C1025 C1029 1.376 . S
C1026 C1024 1.394 . S
C1026 C1027 1.369 . S
C1026 C1030 1.531 . S
C1027 C1026 1.369 . S
C1027 C1028 1.410 . S
C1027 C1035 1.503 . S
C1028 C1027 1.410 . S
C1028 C1029 1.392 . S
C1028 C1031 1.511 . S
C1029 C1025 1.376 . S
C1029 C1028 1.392 . S
C1029 H1041 0.929 . S
C1030 C1026 1.531 . S
C1030 H1042 0.960 . S
C1030 H1043 0.962 . S
C1030 H1044 0.960 . S
C1031 C1028 1.511 . S
C1031 H1045 0.961 . S
C1031 H1046 0.961 . S
C1031 H1047 0.961 . S
C1032 C1033 1.370 . S
C1032 C1034 1.363 . S
C1032 H1048 0.931 . S
C1033 C1032 1.370 . S
C1033 C1037 1.408 . S
C1034 C1032 1.363 . S
C1034 C1035 1.370 . S
C1034 C1038 1.524 . S
C1035 C1027 1.503 . S
C1035 C1034 1.370 . S
C1035 C1036 1.403 . S
C1036 C1035 1.403 . S
C1036 C1037 1.404 . S
C1036 C1039 1.539 . S
C1037 C1033 1.408 . S
C1037 C1036 1.404 . S
C1037 H1049 0.930 . S
C1038 C1034 1.524 . S
C1038 H1050 0.956 . S
C1038 H1051 0.961 . S
C1038 H1052 0.961 . S
C1039 C1036 1.539 . S
C1039 H1053 0.958 . S
C1039 H1054 0.961 . S
C1039 H1055 0.960 . S
H1040 C1024 0.931 . S
H1041 C1029 0.929 . S
H1042 C1030 0.960 . S
H1043 C1030 0.962 . S
H1044 C1030 0.960 . S
H1045 C1031 0.961 . S
H1046 C1031 0.961 . S
H1047 C1031 0.961 . S
H1048 C1032 0.931 . S
H1049 C1037 0.930 . S
H1050 C1038 0.956 . S
H1051 C1038 0.961 . S
H1052 C1038 0.961 . S
H1053 C1039 0.958 . S
H1054 C1039 0.961 . S
H1055 C1039 0.960 . S
C1056 C1057 1.391 . S
C1056 C1058 1.394 . S
C1056 H1072 0.931 . S
C1057 C1056 1.391 . S
C1057 C1061 1.376 . S
C1058 C1056 1.394 . S
C1058 C1059 1.369 . S
C1058 C1062 1.531 . S
C1059 C1058 1.369 . S
C1059 C1060 1.410 . S
C1059 C1067 1.503 . S
C1060 C1059 1.410 . S
C1060 C1061 1.392 . S
C1060 C1063 1.511 . S
C1061 C1057 1.376 . S
C1061 C1060 1.392 . S
C1061 H1073 0.929 . S
C1062 C1058 1.531 . S
C1062 H1074 0.960 . S
C1062 H1075 0.962 . S
C1062 H1076 0.960 . S
C1063 C1060 1.511 . S
C1063 H1077 0.961 . S
C1063 H1078 0.961 . S
C1063 H1079 0.961 . S
C1064 C1065 1.370 . S
C1064 C1066 1.363 . S
C1064 H1080 0.931 . S
C1065 C1064 1.370 . S
C1065 C1069 1.408 . S
C1066 C1064 1.363 . S
C1066 C1067 1.370 . S
C1066 C1070 1.524 . S
C1067 C1059 1.503 . S
C1067 C1066 1.370 . S
C1067 C1068 1.403 . S
C1068 C1067 1.403 . S
C1068 C1069 1.404 . S
C1068 C1071 1.539 . S
C1069 C1065 1.408 . S
C1069 C1068 1.404 . S
C1069 H1081 0.930 . S
C1070 C1066 1.524 . S
C1070 H1082 0.956 . S
C1070 H1083 0.961 . S
C1070 H1084 0.961 . S
C1071 C1068 1.539 . S
C1071 H1085 0.958 . S
C1071 H1086 0.961 . S
C1071 H1087 0.960 . S
H1072 C1056 0.931 . S
H1073 C1061 0.929 . S
H1074 C1062 0.960 . S
H1075 C1062 0.962 . S
H1076 C1062 0.960 . S
H1077 C1063 0.961 . S
H1078 C1063 0.961 . S
H1079 C1063 0.961 . S
H1080 C1064 0.931 . S
H1081 C1069 0.930 . S
H1082 C1070 0.956 . S
H1083 C1070 0.961 . S
H1084 C1070 0.961 . S
H1085 C1071 0.958 . S
H1086 C1071 0.961 . S
H1087 C1071 0.960 . S
C321 C7 1.679 . S
C329 C296 1.679 . S
C353 C256 1.681 . S
C361 C47 1.679 . S
C385 C207 1.670 . S
C393 C96 1.683 . S
C417 C167 1.684 . S
C425 C136 1.676 . S
C449 C90 1.540 . S
C457 C10 1.592 . S
C481 C50 1.576 . S
C489 C130 1.572 . S
C513 C139 1.598 . S
C521 C59 1.559 . S
C545 C99 1.574 . S
C553 C19 1.568 . S
C577 C170 1.439 . S
C585 C250 1.451 . S
C609 C210 1.448 1_554 S
C617 C290 1.449 . S
C641 C299 1.453 . S
C649 C219 1.442 . S
C673 C259 1.463 1_556 S
C681 C179 1.445 . S
C705 C11 2.064 . S
C713 C2 2.075 . S
C737 C51 2.050 . S
C745 C42 2.083 . S
C769 C91 2.070 . S
C777 C82 2.075 . S
C801 C122 2.067 . S
C809 C131 2.077 . S
C833 C162 2.069 . S
C841 C171 2.075 . S
C865 C211 2.086 . S
C873 C202 2.066 . S
C897 C242 2.071 . S
C905 C251 2.074 . S
C929 C282 2.074 . S
C937 C291 2.070 . S
C961 C16 2.302 . S
C969 C56 2.315 . S
C993 C127 2.328 . S
C1001 C87 2.324 . S
C1025 C176 2.312 . S
C1033 C216 2.317 . S
C1057 C287 2.330 . S
C1065 C247 2.326 . S
