# Generated by pormake.
# Topology crs, (6)-cn, num edge types: 1
# Building blocks:
#     Node 0, Type 0, BuildingBlock: BETGAK_clean_sbu_0, # of connection points: 6
#     Node 1, Type 0, BuildingBlock: BETGAK_clean_sbu_0, # of connection points: 6
#     Node 2, Type 0, BuildingBlock: BETGAK_clean_sbu_0, # of connection points: 6
#     Node 3, Type 0, BuildingBlock: BETGAK_clean_sbu_0, # of connection points: 6
#     Node 4, Type 0, BuildingBlock: BETGAK_clean_sbu_0, # of connection points: 6
#     Node 5, Type 0, BuildingBlock: BETGAK_clean_sbu_0, # of connection points: 6
#     Node 6, Type 0, BuildingBlock: BETGAK_clean_sbu_0, # of connection points: 6
#     Node 7, Type 0, BuildingBlock: BETGAK_clean_sbu_0, # of connection points: 6
#     Node 8, Type 0, BuildingBlock: BETGAK_clean_sbu_0, # of connection points: 6
#     Node 9, Type 0, BuildingBlock: BETGAK_clean_sbu_0, # of connection points: 6
#     Node 10, Type 0, BuildingBlock: BETGAK_clean_sbu_0, # of connection points: 6
#     Node 11, Type 0, BuildingBlock: BETGAK_clean_sbu_0, # of connection points: 6
#     Node 12, Type 0, BuildingBlock: BETGAK_clean_sbu_0, # of connection points: 6
#     Node 13, Type 0, BuildingBlock: BETGAK_clean_sbu_0, # of connection points: 6
#     Node 14, Type 0, BuildingBlock: BETGAK_clean_sbu_0, # of connection points: 6
#     Node 15, Type 0, BuildingBlock: BETGAK_clean_sbu_0, # of connection points: 6
#     Edge 16, Type (0, 0), BuildingBlock: AJUNOK_clean_linker_0, # of connection points: 2
#     Edge 17, Type (0, 0), BuildingBlock: AJUNOK_clean_linker_0, # of connection points: 2
#     Edge 18, Type (0, 0), BuildingBlock: AJUNOK_clean_linker_0, # of connection points: 2
#     Edge 19, Type (0, 0), BuildingBlock: AJUNOK_clean_linker_0, # of connection points: 2
#     Edge 20, Type (0, 0), BuildingBlock: AJUNOK_clean_linker_0, # of connection points: 2
#     Edge 21, Type (0, 0), BuildingBlock: AJUNOK_clean_linker_0, # of connection points: 2
#     Edge 22, Type (0, 0), BuildingBlock: AJUNOK_clean_linker_0, # of connection points: 2
#     Edge 23, Type (0, 0), BuildingBlock: AJUNOK_clean_linker_0, # of connection points: 2
#     Edge 24, Type (0, 0), BuildingBlock: AJUNOK_clean_linker_0, # of connection points: 2
#     Edge 25, Type (0, 0), BuildingBlock: AJUNOK_clean_linker_0, # of connection points: 2
#     Edge 26, Type (0, 0), BuildingBlock: AJUNOK_clean_linker_0, # of connection points: 2
#     Edge 27, Type (0, 0), BuildingBlock: AJUNOK_clean_linker_0, # of connection points: 2
#     Edge 28, Type (0, 0), BuildingBlock: AJUNOK_clean_linker_0, # of connection points: 2
#     Edge 29, Type (0, 0), BuildingBlock: AJUNOK_clean_linker_0, # of connection points: 2
#     Edge 30, Type (0, 0), BuildingBlock: AJUNOK_clean_linker_0, # of connection points: 2
#     Edge 31, Type (0, 0), BuildingBlock: AJUNOK_clean_linker_0, # of connection points: 2
#     Edge 32, Type (0, 0), BuildingBlock: AJUNOK_clean_linker_0, # of connection points: 2
#     Edge 33, Type (0, 0), BuildingBlock: AJUNOK_clean_linker_0, # of connection points: 2
#     Edge 34, Type (0, 0), BuildingBlock: AJUNOK_clean_linker_0, # of connection points: 2
#     Edge 35, Type (0, 0), BuildingBlock: AJUNOK_clean_linker_0, # of connection points: 2
#     Edge 36, Type (0, 0), BuildingBlock: AJUNOK_clean_linker_0, # of connection points: 2
#     Edge 37, Type (0, 0), BuildingBlock: AJUNOK_clean_linker_0, # of connection points: 2
#     Edge 38, Type (0, 0), BuildingBlock: AJUNOK_clean_linker_0, # of connection points: 2
#     Edge 39, Type (0, 0), BuildingBlock: AJUNOK_clean_linker_0, # of connection points: 2
#     Edge 40, Type (0, 0), BuildingBlock: AJUNOK_clean_linker_0, # of connection points: 2
#     Edge 41, Type (0, 0), BuildingBlock: AJUNOK_clean_linker_0, # of connection points: 2
#     Edge 42, Type (0, 0), BuildingBlock: AJUNOK_clean_linker_0, # of connection points: 2
#     Edge 43, Type (0, 0), BuildingBlock: AJUNOK_clean_linker_0, # of connection points: 2
#     Edge 44, Type (0, 0), BuildingBlock: AJUNOK_clean_linker_0, # of connection points: 2
#     Edge 45, Type (0, 0), BuildingBlock: AJUNOK_clean_linker_0, # of connection points: 2
#     Edge 46, Type (0, 0), BuildingBlock: AJUNOK_clean_linker_0, # of connection points: 2
#     Edge 47, Type (0, 0), BuildingBlock: AJUNOK_clean_linker_0, # of connection points: 2
#     Edge 48, Type (0, 0), BuildingBlock: AJUNOK_clean_linker_0, # of connection points: 2
#     Edge 49, Type (0, 0), BuildingBlock: AJUNOK_clean_linker_0, # of connection points: 2
#     Edge 50, Type (0, 0), BuildingBlock: AJUNOK_clean_linker_0, # of connection points: 2
#     Edge 51, Type (0, 0), BuildingBlock: AJUNOK_clean_linker_0, # of connection points: 2
#     Edge 52, Type (0, 0), BuildingBlock: AJUNOK_clean_linker_0, # of connection points: 2
#     Edge 53, Type (0, 0), BuildingBlock: AJUNOK_clean_linker_0, # of connection points: 2
#     Edge 54, Type (0, 0), BuildingBlock: AJUNOK_clean_linker_0, # of connection points: 2
#     Edge 55, Type (0, 0), BuildingBlock: AJUNOK_clean_linker_0, # of connection points: 2
#     Edge 56, Type (0, 0), BuildingBlock: AJUNOK_clean_linker_0, # of connection points: 2
#     Edge 57, Type (0, 0), BuildingBlock: AJUNOK_clean_linker_0, # of connection points: 2
#     Edge 58, Type (0, 0), BuildingBlock: AJUNOK_clean_linker_0, # of connection points: 2
#     Edge 59, Type (0, 0), BuildingBlock: AJUNOK_clean_linker_0, # of connection points: 2
#     Edge 60, Type (0, 0), BuildingBlock: AJUNOK_clean_linker_0, # of connection points: 2
#     Edge 61, Type (0, 0), BuildingBlock: AJUNOK_clean_linker_0, # of connection points: 2
#     Edge 62, Type (0, 0), BuildingBlock: AJUNOK_clean_linker_0, # of connection points: 2
#     Edge 63, Type (0, 0), BuildingBlock: AJUNOK_clean_linker_0, # of connection points: 2
# Relax obj value: 0.591
# Max RMSD: 0.397
# Mean RMSD: 0.327
data_MOF--net-crs--node1-BETGAK_clean_sbu_0--edge1-AJUNOK_clean_linker_0
_symmetry_space_group_name_H-M    P1
_symmetry_Int_Tables_number       1
_symmetry_cell_setting            triclinic
loop_
_symmetry_equiv_pos_as_xyz
'x, y, z'
_cell_length_a     43.431844
_cell_length_b     44.472395
_cell_length_c     34.442081
_cell_angle_alpha  68.179656
_cell_angle_beta   69.728158
_cell_angle_gamma 58.026963
loop_
_atom_site_label
_atom_site_type_symbol
_atom_site_fract_x
_atom_site_fract_y
_atom_site_fract_z
_atom_type_partial_charge
La0 La 0.95629 1.02933 0.07711 0.0
La1 La 0.00113 0.04924 0.99516 0.0
C2 C 0.9178 1.00304 0.13636 0.0
C3 C 0.9078 0.9753 0.13915 0.0
C4 C 0.93381 0.93809 0.14518 0.0
C5 C 0.92547 0.91259 0.14291 0.0
C6 C 0.89096 0.92381 0.13494 0.0
C7 C 0.86487 0.96087 0.12939 0.0
C8 C 0.87309 0.98631 0.13184 0.0
C9 C 0.01698 1.02574 0.08337 0.0
C10 C 0.00103 0.97566 1.01393 0.0
C11 C 0.04675 0.06937 0.94171 0.0
C12 C 0.06116 0.09211 0.94353 0.0
C13 C 0.04282 0.13023 0.92882 0.0
C14 C 0.05336 0.15213 0.93579 0.0
C15 C 0.0825 0.13623 0.95727 0.0
C16 C 0.10154 0.09817 0.97092 0.0
C17 C 0.09109 0.07626 0.96393 0.0
C18 C 0.94188 0.05387 0.9846 0.0
C19 C 0.94805 0.106 0.05564 0.0
O20 O 0.95279 0.99152 0.13478 0.0
O21 O 0.90363 0.03415 0.1088 0.0
O22 O 0.98622 0.03602 0.1103 0.0
O23 O 0.01395 1.01572 0.05568 0.0
O24 O 0.97401 0.98644 0.04619 0.0
O25 O 0.02043 0.99368 0.99199 0.0
O26 O 0.01161 0.08599 0.93984 0.0
O27 O 0.05637 0.03744 0.96882 0.0
O28 O 0.9724 0.04743 0.95691 0.0
O29 O 0.94356 0.06192 1.01534 0.0
O30 O 0.97719 0.0953 1.02482 0.0
O31 O 0.93078 0.08603 0.07746 0.0
H32 H 0.96094 0.9287 0.15064 0.0
H33 H 0.94603 0.88417 0.14709 0.0
H34 H 0.83843 0.97038 0.12192 0.0
H35 H 0.85269 1.01479 0.12665 0.0
H36 H 0.0197 0.14321 0.91291 0.0
H37 H 0.0387 0.18147 0.92452 0.0
H38 H 0.12381 0.08541 0.98811 0.0
H39 H 0.10572 0.047 0.97581 0.0
La40 La 0.00109 0.29107 0.30859 0.0
La41 La 0.97921 0.26652 0.25522 0.0
C42 C 0.01213 0.31567 0.35466 0.0
C43 C 0.00196 0.33684 0.38543 0.0
C44 C 0.02294 0.32094 0.41735 0.0
C45 C 0.02149 0.34254 0.43954 0.0
C46 C -0.00077 0.38049 0.42987 0.0
C47 C 0.97593 0.39596 0.40044 0.0
C48 C 0.97734 0.37434 0.37831 0.0
C49 C 0.05007 0.22585 0.29112 0.0
C50 C 0.93705 0.2679 0.3498 0.0
C51 C 0.97862 0.2256 0.22097 0.0
C52 C 0.97171 0.21988 0.18572 0.0
C53 C 0.93667 0.23916 0.17434 0.0
C54 C 0.9289 0.22727 0.14797 0.0
C55 C 0.95598 0.19601 0.13278 0.0
C56 C -0.00867 0.17794 0.14259 0.0
C57 C -0.00084 0.18986 0.16854 0.0
C58 C 0.93262 0.33779 0.25287 0.0
C59 C 0.03447 0.30156 0.21101 0.0
O60 O 0.0124 0.28381 0.36749 0.0
O61 O 0.00415 0.33355 0.31658 0.0
O62 O 0.05789 0.24912 0.29372 0.0
O63 O 0.01521 0.2385 0.30065 0.0
O64 O 0.95083 0.28814 0.35027 0.0
O65 O 0.94993 0.25108 0.31883 0.0
O66 O 0.95025 0.24466 0.2466 0.0
O67 O 0.00768 0.22995 0.21491 0.0
O68 O 0.9322 0.31843 0.23288 0.0
O69 O 0.96017 0.31675 0.27103 0.0
O70 O 0.02238 0.28029 0.20934 0.0
O71 O 0.02426 0.31409 0.24513 0.0
H72 H 0.0424 0.29214 0.42313 0.0
H73 H 0.03956 0.32991 0.46221 0.0
H74 H 0.95785 0.42507 0.39317 0.0
H75 H 0.9608 0.38735 0.3539 0.0
H76 H 0.91479 0.26219 0.18749 0.0
H77 H 0.90132 0.24136 0.14117 0.0
H78 H 0.01239 0.15334 0.13216 0.0
H79 H 0.02612 0.17412 0.17741 0.0
La80 La 0.72518 0.27893 0.50434 0.0
La81 La 0.74872 0.28378 0.56198 0.0
C82 C 0.71144 0.26176 0.45278 0.0
C83 C 0.68387 0.25091 0.45626 0.0
C84 C 0.65709 0.27324 0.43044 0.0
C85 C 0.63003 0.26406 0.43381 0.0
C86 C 0.62958 0.2322 0.46279 0.0
C87 C 0.656 0.2102 0.4892 0.0
C88 C 0.68277 0.21963 0.48622 0.0
C89 C 0.71372 0.348 0.48685 0.0
C90 C 0.66581 0.2983 0.58422 0.0
C91 C 0.7635 0.29799 0.61558 0.0
C92 C 0.79035 0.3093 0.61257 0.0
C93 C 0.80294 0.30167 0.64908 0.0
C94 C 0.82745 0.31377 0.64668 0.0
C95 C 0.8392 0.33371 0.6078 0.0
C96 C 0.82829 0.33948 0.57079 0.0
C97 C 0.80426 0.32691 0.57311 0.0
C98 C 0.75923 0.21506 0.57915 0.0
C99 C 0.80742 0.26639 0.48092 0.0
O100 O 0.69773 0.2952 0.45524 0.0
O101 O 0.73765 0.23899 0.47494 0.0
O102 O 0.69028 0.33805 0.4882 0.0
O103 O 0.74207 0.31907 0.49859 0.0
O104 O 0.67693 0.2815 0.55396 0.0
O105 O 0.68881 0.30659 0.58966 0.0
O106 O 0.77805 0.26538 0.61008 0.0
O107 O 0.7368 0.32157 0.59435 0.0
O108 O 0.7836 0.22457 0.57566 0.0
O109 O 0.7309 0.24433 0.56818 0.0
O110 O 0.79637 0.28288 0.51149 0.0
O111 O 0.78483 0.25723 0.47622 0.0
H112 H 0.65719 0.29775 0.40752 0.0
H113 H 0.60995 0.28142 0.4131 0.0
H114 H 0.65692 0.18495 0.51101 0.0
H115 H 0.70282 0.20214 0.50694 0.0
H116 H 0.79303 0.2873 0.67954 0.0
H117 H 0.83551 0.30947 0.67552 0.0
H118 H 0.83706 0.35505 0.54062 0.0
H119 H 0.79572 0.33179 0.54444 0.0
La120 La 0.73171 1.01924 0.7464 0.0
La121 La 0.75717 0.03552 0.80751 0.0
C122 C 0.70035 1.01141 0.70501 0.0
C123 C 0.67725 1.02045 0.67604 0.0
C124 C 0.68504 0.99238 0.65933 0.0
C125 C 0.66353 0.99851 0.63262 0.0
C126 C 0.63388 0.03306 0.62177 0.0
C127 C 0.62733 0.06183 0.63685 0.0
C128 C 0.64896 0.05554 0.66395 0.0
C129 C 0.80444 0.97471 0.74653 0.0
C130 C 0.75229 0.08426 0.71148 0.0
C131 C 0.79924 0.0333 0.84503 0.0
C132 C 0.80373 0.03544 0.88457 0.0
C133 C 0.79388 0.06921 0.89088 0.0
C134 C 0.80833 0.07061 0.92045 0.0
C135 C 0.83305 0.03831 0.94386 0.0
C136 C 0.83965 1.00465 0.94083 0.0
C137 C 0.82515 1.00323 0.91148 0.0
C138 C 0.68472 0.08127 0.80661 0.0
C139 C 0.73353 0.97181 0.84472 0.0
O140 O 0.73046 1.01528 0.68857 0.0
O141 O 0.68589 1.01543 0.74436 0.0
O142 O 0.78564 0.97637 0.7234 0.0
O143 O 0.78197 0.99962 0.76643 0.0
O144 O 0.7312 0.07187 0.70925 0.0
O145 O 0.77062 0.06851 0.74352 0.0
O146 O 0.77774 0.06313 0.8212 0.0
O147 O 0.79774 1.00449 0.84558 0.0
O148 O 0.70388 0.07907 0.83025 0.0
O149 O 0.70657 0.05556 0.78753 0.0
O150 O 0.74385 0.99184 0.85285 0.0
O151 O 0.72656 0.97845 0.80667 0.0
H152 H 0.70719 0.9652 0.66806 0.0
H153 H 0.66874 0.97546 0.62286 0.0
H154 H 0.60453 0.08873 0.62913 0.0
H155 H 0.64311 0.07762 0.67614 0.0
H156 H 0.77763 0.09457 0.87054 0.0
H157 H 0.80327 0.09687 0.92171 0.0
H158 H 0.85894 0.97937 0.95821 0.0
H159 H 0.83349 0.97678 0.90729 0.0
La160 La 0.49882 0.79495 0.31316 0.0
La161 La 0.48066 0.76818 0.25802 0.0
C162 C 0.4951 0.83818 0.34759 0.0
C163 C 0.49778 0.84648 0.38383 0.0
C164 C 0.53187 0.83124 0.39602 0.0
C165 C 0.53573 0.84655 0.42199 0.0
C166 C 0.5057 0.87735 0.43587 0.0
C167 C 0.47111 0.89094 0.4262 0.0
C168 C 0.46717 0.87558 0.40053 0.0
C169 C 0.54606 0.72362 0.31803 0.0
C170 C 0.4423 0.76057 0.35473 0.0
C171 C 0.4775 0.73752 0.21269 0.0
C172 C 0.47571 0.71928 0.18595 0.0
C173 C 0.45207 0.73948 0.15626 0.0
C174 C 0.44708 0.72176 0.13454 0.0
C175 C 0.46584 0.68351 0.14191 0.0
C176 C 0.49031 0.66343 0.17068 0.0
C177 C 0.49514 0.68113 0.19253 0.0
C178 C 0.43018 0.83368 0.27323 0.0
C179 C 0.54129 0.79692 0.21706 0.0
O180 O 0.52548 0.8173 0.32549 0.0
O181 O 0.46655 0.83425 0.35006 0.0
O182 O 0.5442 0.74333 0.33947 0.0
O183 O 0.52006 0.74423 0.29725 0.0
O184 O 0.45569 0.78008 0.35832 0.0
O185 O 0.45199 0.74911 0.31992 0.0
O186 O 0.46731 0.77263 0.20218 0.0
O187 O 0.49067 0.71961 0.24804 0.0
O188 O 0.42318 0.81011 0.26954 0.0
O189 O 0.46507 0.82107 0.26565 0.0
O190 O 0.52684 0.77807 0.21447 0.0
O191 O 0.53112 0.80963 0.25106 0.0
H192 H 0.55608 0.80902 0.38341 0.0
H193 H 0.56272 0.83588 0.42883 0.0
H194 H 0.44765 0.91487 0.43639 0.0
H195 H 0.44074 0.88817 0.39125 0.0
H196 H 0.43641 0.7689 0.15092 0.0
H197 H 0.42767 0.73789 0.113 0.0
H198 H 0.50547 0.63395 0.17657 0.0
H199 H 0.51359 0.66487 0.21518 0.0
La200 La 0.2325 0.77341 0.50267 0.0
La201 La 0.25401 0.78056 0.56026 0.0
C202 C 0.20578 0.7623 0.45885 0.0
C203 C 0.17682 0.75205 0.46825 0.0
C204 C 0.15583 0.76502 0.43737 0.0
C205 C 0.13133 0.7518 0.44364 0.0
C206 C 0.12811 0.72536 0.48066 0.0
C207 C 0.14674 0.71479 0.51316 0.0
C208 C 0.17079 0.72845 0.50715 0.0
C209 C 0.24365 0.83237 0.46829 0.0
C210 C 0.17155 0.796 0.5841 0.0
C211 C 0.26753 0.79885 0.61098 0.0
C212 C 0.29495 0.81001 0.60595 0.0
C213 C 0.30995 0.80117 0.64098 0.0
C214 C 0.3355 0.81259 0.63664 0.0
C215 C 0.346 0.83301 0.59725 0.0
C216 C 0.33241 0.84018 0.56167 0.0
C217 C 0.30721 0.82842 0.5659 0.0
C218 C 0.2652 0.71144 0.5786 0.0
C219 C 0.31521 0.75421 0.48497 0.0
O220 O 0.19429 0.79455 0.46387 0.0
O221 O 0.23555 0.73731 0.47469 0.0
O222 O 0.25438 0.80671 0.45077 0.0
O223 O 0.22812 0.82368 0.50687 0.0
O224 O 0.17832 0.79045 0.54631 0.0
O225 O 0.19836 0.7928 0.59722 0.0
O226 O 0.28127 0.76529 0.60927 0.0
O227 O 0.24184 0.82119 0.58819 0.0
O228 O 0.28921 0.72125 0.57576 0.0
O229 O 0.2372 0.74038 0.56668 0.0
O230 O 0.30265 0.77578 0.51035 0.0
O231 O 0.29307 0.74311 0.4829 0.0
H232 H 0.15981 0.78383 0.40758 0.0
H233 H 0.11736 0.75984 0.41813 0.0
H234 H 0.14453 0.69423 0.54178 0.0
H235 H 0.18617 0.71905 0.53177 0.0
H236 H 0.30118 0.78632 0.67183 0.0
H237 H 0.34535 0.80741 0.66453 0.0
H238 H 0.34011 0.85617 0.53117 0.0
H239 H 0.29648 0.83464 0.53826 0.0
La240 La 0.22306 0.52511 0.75779 0.0
La241 La 0.2559 0.53862 0.80938 0.0
C242 C 0.189 0.52471 0.71258 0.0
C243 C 0.1686 0.52464 0.68603 0.0
C244 C 0.18736 0.50519 0.65384 0.0
C245 C 0.16755 0.50394 0.63025 0.0
C246 C 0.12875 0.5226 0.63812 0.0
C247 C 0.11017 0.54197 0.67032 0.0
C248 C 0.12984 0.54293 0.69403 0.0
C249 C 0.29108 0.47279 0.76968 0.0
C250 C 0.25192 0.58545 0.71441 0.0
C251 C 0.30073 0.5336 0.84528 0.0
C252 C 0.30422 0.5412 0.88153 0.0
C253 C 0.28958 0.57717 0.88479 0.0
C254 C 0.30192 0.58434 0.91132 0.0
C255 C 0.32878 0.55572 0.93519 0.0
C256 C 0.34046 0.51962 0.93529 0.0
C257 C 0.32834 0.51243 0.90859 0.0
C258 C 0.18326 0.58705 0.81667 0.0
C259 C 0.22371 0.48085 0.85408 0.0
O260 O 0.22405 0.51695 0.70069 0.0
O261 O 0.17304 0.53371 0.74941 0.0
O262 O 0.26478 0.46801 0.76806 0.0
O263 O 0.27953 0.507 0.76233 0.0
O264 O 0.22947 0.57373 0.71431 0.0
O265 O 0.26977 0.57081 0.7463 0.0
O266 O 0.28529 0.56139 0.81502 0.0
O267 O 0.2921 0.50752 0.85318 0.0
O268 O 0.20617 0.58308 0.83635 0.0
O269 O 0.20148 0.56244 0.79604 0.0
O270 O 0.24597 0.49264 0.8544 0.0
O271 O 0.20705 0.49423 0.82121 0.0
H272 H 0.21728 0.49055 0.6473 0.0
H273 H 0.18247 0.48877 0.60567 0.0
H274 H 0.08023 0.55617 0.67746 0.0
H275 H 0.11463 0.55796 0.71875 0.0
H276 H 0.27087 0.59996 0.86445 0.0
H277 H 0.29299 0.61241 0.91032 0.0
H278 H 0.36174 0.49717 0.95279 0.0
H279 H 0.34023 0.48451 0.90652 0.0
La280 La 0.96222 0.52332 0.57107 0.0
La281 La 9e-05 0.55094 0.48996 0.0
C282 C 0.92933 0.49034 0.6293 0.0
C283 C 0.91912 0.46503 0.62604 0.0
C284 C 0.91751 0.43633 0.66067 0.0
C285 C 0.90905 0.41163 0.65625 0.0
C286 C 0.90232 0.41565 0.61715 0.0
C287 C 0.90548 0.44342 0.58218 0.0
C288 C 0.91378 0.46791 0.58664 0.0
C289 C 0.02191 0.52248 0.57634 0.0
C290 C 0.00576 0.47618 0.5014 0.0
C291 C 0.04079 0.5764 0.43397 0.0
C292 C 0.05795 0.59622 0.43656 0.0
C293 C 0.04737 0.63256 0.41363 0.0
C294 C 0.05862 0.65358 0.42131 0.0
C295 C 0.08032 0.63851 0.45231 0.0
C296 C 0.09271 0.60151 0.47324 0.0
C297 C 0.08155 0.58055 0.46557 0.0
C298 C 0.94106 0.55394 0.48063 0.0
C299 C 0.94916 0.60066 0.55808 0.0
O300 O 0.96498 0.47857 0.6226 0.0
O301 O 0.91217 0.52426 0.60849 0.0
O302 O -0.00775 0.52893 0.60516 0.0
O303 O 0.0188 0.51417 0.54707 0.0
O304 O 0.97982 0.48362 0.53532 0.0
O305 O 0.02238 0.49685 0.48048 0.0
O306 O 0.00466 0.59382 0.43949 0.0
O307 O 0.05302 0.54225 0.45528 0.0
O308 O 0.97077 0.54977 0.45233 0.0
O309 O 0.94313 0.56001 0.51278 0.0
O310 O 0.97684 0.5934 0.52503 0.0
O311 O 0.93431 0.57842 0.57869 0.0
H312 H 0.92242 0.43327 0.691 0.0
H313 H 0.90644 0.39031 0.68356 0.0
H314 H 0.90044 0.44676 0.55177 0.0
H315 H 0.91582 0.48923 0.55925 0.0
H316 H 0.02939 0.64501 0.39087 0.0
H317 H 0.05004 0.68164 0.40333 0.0
H318 H 0.10974 0.58905 0.49702 0.0
H319 H 0.09023 0.55255 0.48382 0.0
La320 La 0.22608 0.28073 1.00463 0.0
La321 La 0.2435 0.28896 0.06516 0.0
C322 C 0.19737 0.27206 0.96024 0.0
C323 C 0.16899 0.26107 0.96915 0.0
C324 C 0.14974 0.27209 0.93719 0.0
C325 C 0.12686 0.25722 0.94268 0.0
C326 C 0.12348 0.23111 0.98 0.0
C327 C 0.13985 0.2228 1.01365 0.0
C328 C 0.16228 0.23816 1.00839 0.0
C329 C 0.23264 0.3424 0.97499 0.0
C330 C 0.16254 0.30749 0.08233 0.0
C331 C 0.27197 0.29645 0.11097 0.0
C332 C 0.30187 0.3051 0.10282 0.0
C333 C 0.32145 0.29238 0.13508 0.0
C334 C 0.34762 0.30348 0.12914 0.0
C335 C 0.3541 0.32749 0.09095 0.0
C336 C 0.33679 0.33754 0.05735 0.0
C337 C 0.31088 0.32619 0.06321 0.0
C338 C 0.23616 0.22773 0.09478 0.0
C339 C 0.30689 0.26329 0.98654 0.0
O340 O 0.18561 0.30318 0.96833 0.0
O341 O 0.22809 0.24692 0.97376 0.0
O342 O 0.24435 0.31821 0.9545 0.0
O343 O 0.21729 0.3317 1.01278 0.0
O344 O 0.17598 0.28823 0.05395 0.0
O345 O 0.18419 0.31661 0.08909 0.0
O346 O 0.28241 0.26533 0.10385 0.0
O347 O 0.24245 0.32257 0.09556 0.0
O348 O 0.22395 0.2523 0.11489 0.0
O349 O 0.25209 0.23807 0.05716 0.0
O350 O 0.29372 0.28184 1.01566 0.0
O351 O 0.28527 0.25409 0.97984 0.0
H352 H 0.15416 0.2904 0.9071 0.0
H353 H 0.11462 0.26345 0.91632 0.0
H354 H 0.13767 0.20238 0.04246 0.0
H355 H 0.17598 0.23061 1.03387 0.0
H356 H 0.31521 0.27536 0.16548 0.0
H357 H 0.36034 0.29588 0.15563 0.0
H358 H 0.34151 0.35611 1.02768 0.0
H359 H 0.29684 0.33507 0.03752 0.0
La360 La 0.23175 1.0188 0.24909 0.0
La361 La 0.24785 0.04175 0.31341 0.0
C362 C 0.20299 1.00642 0.20877 0.0
C363 C 0.17845 1.01572 0.18104 0.0
C364 C 0.19271 0.9958 0.15005 0.0
C365 C 0.16938 0.99895 0.12767 0.0
C366 C 0.13137 1.0224 0.13563 0.0
C367 C 0.11727 0.0435 0.16549 0.0
C368 C 0.14062 0.04011 0.18818 0.0
C369 C 0.3027 0.97542 0.25981 0.0
C370 C 0.24641 0.08817 0.21516 0.0
C371 C 0.27569 0.05399 0.35503 0.0
C372 C 0.29852 0.04438 0.38512 0.0
C373 C 0.28084 0.05773 0.42223 0.0
C374 C 0.30135 0.05577 0.44742 0.0
C375 C 0.33997 0.04057 0.43582 0.0
C376 C 0.3578 1.02551 0.39986 0.0
C377 C 0.33725 1.02755 0.37458 0.0
C378 C 0.17685 0.08466 0.30285 0.0
C379 C 0.23305 0.97252 0.34712 0.0
O380 O 0.23245 1.01152 0.1918 0.0
O381 O 0.18887 1.01046 0.24806 0.0
O382 O 0.28739 0.97378 0.23511 0.0
O383 O 0.27785 1.00236 0.27566 0.0
O384 O 0.23269 0.07013 0.20893 0.0
O385 O 0.25746 0.07891 0.25149 0.0
O386 O 0.24522 0.05061 0.3703 0.0
O387 O 0.29125 0.04866 0.31631 0.0
O388 O 0.19203 0.08654 0.32747 0.0
O389 O 0.20192 0.05791 0.28688 0.0
O390 O 0.24677 0.99033 0.3539 0.0
O391 O 0.22154 0.98252 0.31099 0.0
H392 H 0.2218 0.97655 0.14439 0.0
H393 H 0.1809 0.98251 0.10479 0.0
H394 H 0.08792 0.06147 0.17261 0.0
H395 H 0.12895 0.05548 0.21223 0.0
H396 H 0.25094 0.07125 0.43076 0.0
H397 H 0.28695 0.06697 0.47534 0.0
H398 H 0.3876 1.01365 0.39014 0.0
H399 H 0.35159 1.01737 0.34594 0.0
La400 La 0.50107 0.28796 0.81084 0.0
La401 La 0.47544 0.27338 0.75887 0.0
C402 C 0.51524 0.31295 0.8535 0.0
C403 C 0.50761 0.33358 0.88372 0.0
C404 C 0.5308 0.31736 0.91337 0.0
C405 C 0.53028 0.33837 0.93564 0.0
C406 C 0.50667 0.37612 0.9285 0.0
C407 C 0.482 0.39194 0.90055 0.0
C408 C 0.48253 0.37093 0.87827 0.0
C409 C 0.55319 0.22521 0.78806 0.0
C410 C 0.43639 0.26593 0.85613 0.0
C411 C 0.45241 0.24896 0.72501 0.0
C412 C 0.45912 0.22767 0.696 0.0
C413 C 0.43745 0.24484 0.66454 0.0
C414 C 0.4374 0.22446 0.64194 0.0
C415 C 0.459 0.1864 0.65038 0.0
C416 C 0.48185 0.16931 0.68067 0.0
C417 C 0.48195 0.18975 0.7033 0.0
C418 C 0.43874 0.34496 0.7615 0.0
C419 C 0.53605 0.29665 0.71395 0.0
O420 O 0.51705 0.28042 0.8668 0.0
O421 O 0.50375 0.33125 0.81725 0.0
O422 O 0.55811 0.24963 0.79268 0.0
O423 O 0.51838 0.23566 0.79756 0.0
O424 O 0.46039 0.27298 0.86178 0.0
O425 O 0.43658 0.26611 0.81768 0.0
O426 O 0.45322 0.28014 0.70875 0.0
O427 O 0.46534 0.23168 0.76026 0.0
O428 O 0.45021 0.33242 0.72807 0.0
O429 O 0.44869 0.31701 0.79159 0.0
O430 O 0.52545 0.27346 0.71525 0.0
O431 O 0.5218 0.31279 0.74583 0.0
H432 H 0.55064 0.28869 0.91784 0.0
H433 H 0.54888 0.32521 0.95781 0.0
H434 H 0.46334 0.42094 0.89452 0.0
H435 H 0.46454 0.38429 0.85536 0.0
H436 H 0.41909 0.27392 0.65886 0.0
H437 H 0.41914 0.23832 0.61925 0.0
H438 H 0.499 0.14001 0.68753 0.0
H439 H 0.49875 0.17568 0.72757 0.0
La440 La -0.00122 0.79622 0.81001 0.0
La441 La 0.98267 0.76324 0.75466 0.0
C442 C -0.0022 0.84328 0.83513 0.0
C443 C -0.00183 0.85549 0.86938 0.0
C444 C 0.02824 0.837 0.89042 0.0
C445 C 0.02982 0.85271 0.91788 0.0
C446 C 0.00145 0.88709 0.92463 0.0
C447 C 0.97143 0.9052 0.90368 0.0
C448 C 0.96973 0.88948 0.87669 0.0
C449 C 0.04448 0.72411 0.81813 0.0
C450 C 0.94048 0.76584 0.85244 0.0
C451 C 0.98238 0.71837 0.72653 0.0
C452 C 0.97579 0.71011 0.69303 0.0
C453 C 0.94358 0.73258 0.67527 0.0
C454 C 0.9354 0.72024 0.6497 0.0
C455 C 0.95897 0.68512 0.64216 0.0
C456 C -0.00829 0.66348 0.65861 0.0
C457 C 0.00013 0.67594 0.68341 0.0
C458 C 0.93763 0.83551 0.74819 0.0
C459 C 0.04108 0.79359 0.71258 0.0
O460 O 0.02818 0.81718 0.81981 0.0
O461 O 0.96794 0.84221 0.83617 0.0
O462 O 0.04232 0.74433 0.83924 0.0
O463 O 0.01903 0.74492 0.79645 0.0
O464 O 0.95388 0.78569 0.85505 0.0
O465 O 0.95296 0.75022 0.82003 0.0
O466 O 0.95377 0.73935 0.75021 0.0
O467 O 0.01155 0.72293 0.71912 0.0
O468 O 0.93844 0.81655 0.72642 0.0
O469 O 0.96339 0.8134 0.76866 0.0
O470 O 0.02826 0.77312 0.71036 0.0
O471 O 0.0286 0.8091 0.74497 0.0
H472 H 0.05088 0.81096 0.88489 0.0
H473 H 0.05333 0.83821 0.93351 0.0
H474 H 0.94966 0.93218 0.90708 0.0
H475 H 0.94671 0.90467 0.86011 0.0
H476 H 0.92411 0.75895 0.68248 0.0
H477 H 0.90988 0.73734 0.63757 0.0
H478 H 0.01027 0.63625 0.65352 0.0
H479 H 0.0249 0.65795 0.69698 0.0
La480 La 0.72312 0.52084 0.25701 0.0
La481 La 0.75326 0.53543 0.30828 0.0
C482 C 0.6969 0.51371 0.20823 0.0
C483 C 0.67721 0.52443 0.17427 0.0
C484 C 0.68946 0.49901 0.15057 0.0
C485 C 0.66641 0.50294 0.12704 0.0
C486 C 0.63069 0.53236 0.12699 0.0
C487 C 0.62038 0.55998 0.14662 0.0
C488 C 0.64329 0.55592 0.1704 0.0
C489 C 0.79012 0.46823 0.27179 0.0
C490 C 0.74767 0.58412 0.21427 0.0
C491 C 0.79764 0.52987 0.34545 0.0
C492 C 0.80131 0.53495 0.38353 0.0
C493 C 0.78713 0.56999 0.38945 0.0
C494 C 0.80021 0.57495 0.41736 0.0
C495 C 0.82754 0.54504 0.43978 0.0
C496 C 0.83847 0.50976 0.43752 0.0
C497 C 0.82549 0.50476 0.40959 0.0
C498 C 0.68107 0.58358 0.31644 0.0
C499 C 0.72057 0.47818 0.35389 0.0
O500 O 0.73032 0.51035 0.19862 0.0
O501 O 0.6779 0.52328 0.24441 0.0
O502 O 0.763 0.46401 0.27206 0.0
O503 O 0.77965 0.50241 0.2623 0.0
O504 O 0.72716 0.57055 0.21344 0.0
O505 O 0.76498 0.5704 0.24646 0.0
O506 O 0.78062 0.55888 0.31721 0.0
O507 O 0.79085 0.50318 0.3504 0.0
O508 O 0.70421 0.57867 0.33644 0.0
O509 O 0.69809 0.55955 0.29487 0.0
O510 O 0.74246 0.49032 0.35426 0.0
O511 O 0.70458 0.49132 0.32048 0.0
H512 H 0.71562 0.47448 0.15313 0.0
H513 H 0.6752 0.48122 0.11235 0.0
H514 H 0.5931 0.58311 0.14692 0.0
H515 H 0.63333 0.57599 0.1882 0.0
H516 H 0.76841 0.59385 0.36995 0.0
H517 H 0.79196 0.60246 0.41794 0.0
H518 H 0.86014 0.48636 0.45372 0.0
H519 H 0.83703 0.47749 0.40556 0.0
La520 La 0.72898 0.77439 1.00508 0.0
La521 La 0.74958 0.78413 0.06582 0.0
C522 C 0.71382 0.74879 0.96455 0.0
C523 C 0.69037 0.73236 0.97207 0.0
C524 C 0.69398 0.7178 0.94032 0.0
C525 C 0.66748 0.7085 0.94243 0.0
C526 C 0.63657 0.71442 0.97591 0.0
C527 C 0.63385 0.72772 1.00871 0.0
C528 C 0.66097 0.73621 1.00703 0.0
C529 C 0.72503 0.84108 0.97045 0.0
C530 C 0.66711 0.80448 0.08246 0.0
C531 C 0.77884 0.79204 0.11011 0.0
C532 C 0.80614 0.80399 0.10371 0.0
C533 C 0.83121 0.78503 0.1315 0.0
C534 C 0.85312 0.79929 0.13128 0.0
C535 C 0.85004 0.83257 0.10323 0.0
C536 C 0.82743 0.84989 0.07284 0.0
C537 C 0.80564 0.83552 0.07288 0.0
C538 C 0.74006 0.72396 0.09581 0.0
C539 C 0.80842 0.76549 0.98052 0.0
O540 O 0.69569 0.78274 0.96719 0.0
O541 O 0.74246 0.72972 0.98318 0.0
O542 O 0.71721 0.82423 0.95517 0.0
O543 O 0.73467 0.82081 1.00618 0.0
O544 O 0.67877 0.78513 0.05455 0.0
O545 O 0.68966 0.81383 0.08711 0.0
O546 O 0.79168 0.76142 0.09986 0.0
O547 O 0.74728 0.81702 0.09817 0.0
O548 O 0.72943 0.74798 0.11601 0.0
O549 O 0.75597 0.73432 0.05822 0.0
O550 O 0.79852 0.77836 1.01419 0.0
O551 O 0.78614 0.75777 0.97283 0.0
H552 H 0.71653 0.71487 0.91309 0.0
H553 H 0.67087 0.69725 0.91734 0.0
H554 H 0.61035 0.73263 0.03478 0.0
H555 H 0.65822 0.74726 1.03189 0.0
H556 H 0.83217 0.76042 0.15512 0.0
H557 H 0.87015 0.78597 0.15523 0.0
H558 H 0.8245 0.87591 0.0514 0.0
H559 H 0.78685 0.85019 0.05067 0.0
La560 La 0.46629 1.01606 0.58264 0.0
La561 La 0.50289 0.04665 0.49925 0.0
C562 C 0.43085 0.9852 0.63924 0.0
C563 C 0.41818 0.96292 0.63348 0.0
C564 C 0.42154 0.93007 0.66292 0.0
C565 C 0.41399 0.90677 0.65382 0.0
C566 C 0.4038 0.91596 0.61483 0.0
C567 C 0.401 0.94865 0.58538 0.0
C568 C 0.40775 0.97202 0.59486 0.0
C569 C 0.52602 1.01446 0.58722 0.0
C570 C 0.51275 0.97023 0.51064 0.0
C571 C 0.53697 0.07854 0.44149 0.0
C572 C 0.5481 0.10396 0.44291 0.0
C573 C 0.53364 0.13995 0.4184 0.0
C574 C 0.54058 0.16546 0.4233 0.0
C575 C 0.56184 0.15526 0.45301 0.0
C576 C 0.5767 0.11915 0.47699 0.0
C577 C 0.56985 0.09379 0.472 0.0
C578 C 0.44287 0.04816 0.49533 0.0
C579 C 0.45804 0.09203 0.57136 0.0
O580 O 0.46688 0.97104 0.63263 0.0
O581 O 0.41526 1.01991 0.61999 0.0
O582 O 0.49812 1.01678 0.61808 0.0
O583 O 0.52173 1.00909 0.55626 0.0
O584 O 0.48629 0.97661 0.54479 0.0
O585 O 0.52813 0.99211 0.48998 0.0
O586 O 0.50119 0.091 0.44773 0.0
O587 O 0.55353 0.04465 0.46283 0.0
O588 O 0.47121 0.04422 0.46488 0.0
O589 O 0.44704 0.05426 0.52579 0.0
O590 O 0.48401 0.08564 0.5369 0.0
O591 O 0.44259 0.07023 0.59259 0.0
H592 H 0.43032 0.92234 0.69253 0.0
H593 H 0.41556 0.88199 0.67741 0.0
H594 H 0.3933 0.95625 0.5551 0.0
H595 H 0.40544 0.99705 0.57167 0.0
H596 H 0.51643 0.14846 0.3961 0.0
H597 H 0.5291 0.19318 0.40424 0.0
H598 H 0.59419 0.11031 0.49912 0.0
H599 H 0.58137 0.06635 0.49123 0.0
La600 La 0.46054 0.52163 0.07593 0.0
La601 La 0.50486 0.54339 0.99734 0.0
C602 C 0.42297 0.49267 0.13213 0.0
C603 C 0.41238 0.46818 0.12757 0.0
C604 C 0.41342 0.43732 0.16006 0.0
C605 C 0.40831 0.41154 0.15259 0.0
C606 C 0.40228 0.41669 0.11257 0.0
C607 C 0.40172 0.44726 0.08026 0.0
C608 C 0.40698 0.47255 0.08766 0.0
C609 C 0.51931 0.51636 0.08938 0.0
C610 C 0.50512 0.47178 1.00885 0.0
C611 C 0.54615 0.5681 0.94113 0.0
C612 C 0.55717 0.59397 0.94153 0.0
C613 C 0.53705 0.63141 0.92405 0.0
C614 C 0.54214 0.65684 0.93194 0.0
C615 C 0.567 0.64516 0.95787 0.0
C616 C 0.58898 0.60769 0.9727 0.0
C617 C 0.58429 0.5823 0.96437 0.0
C618 C 0.44286 0.55399 0.98518 0.0
C619 C 0.45637 0.59575 0.06189 0.0
O620 O 0.45864 0.47898 0.12834 0.0
O621 O 0.40821 0.52648 0.10977 0.0
O622 O 0.48789 0.52398 0.11496 0.0
O623 O 0.51871 0.50841 0.05777 0.0
O624 O 0.4763 0.48324 0.03913 0.0
O625 O 0.52595 0.48846 0.991 0.0
O626 O 0.51099 0.58184 0.94165 0.0
O627 O 0.55865 0.5361 0.96778 0.0
O628 O 0.47422 0.54383 0.95927 0.0
O629 O 0.44597 0.55959 1.01682 0.0
O630 O 0.48523 0.58555 1.03087 0.0
O631 O 0.43767 0.57684 0.08159 0.0
H632 H 0.41874 0.43294 0.1907 0.0
H633 H 0.40842 0.3881 0.17803 0.0
H634 H 0.3972 0.45156 0.04916 0.0
H635 H 0.40803 0.49491 0.06158 0.0
H636 H 0.51631 0.64112 0.90575 0.0
H637 H 0.52584 0.68562 0.91896 0.0
H638 H 0.6099 0.59796 0.99076 0.0
H639 H 0.60109 0.55362 0.97704 0.0
C640 C 0.93388 0.12976 0.11814 0.0
C641 C 0.94142 0.13507 0.07353 0.0
C642 C 0.93676 0.15107 0.13692 0.0
C643 C 0.94661 0.17891 0.11189 0.0
H644 H 0.92835 0.10726 0.13888 0.0
H645 H 0.93298 0.14457 0.17131 0.0
S646 S 0.96399 0.2074 0.99409 0.0
N647 N 0.95586 0.1725 1.00497 0.0
N648 N 0.96036 0.21316 0.0405 0.0
C649 C 0.95166 0.18629 0.06743 0.0
C650 C 0.94923 0.16424 0.0482 0.0
C651 C 0.86703 0.27124 0.4552 0.0
C652 C 0.84172 0.26389 0.44824 0.0
C653 C 0.8979 0.27204 0.42366 0.0
C654 C 0.90504 0.26537 0.38372 0.0
H655 H 0.86275 0.27691 0.48515 0.0
H656 H 0.91625 0.27809 0.43064 0.0
S657 S 0.84601 0.24747 0.34782 0.0
N658 N 0.82537 0.25138 0.39719 0.0
N659 N 0.88292 0.25288 0.33839 0.0
C660 C 0.8799 0.25809 0.37628 0.0
C661 C 0.84847 0.25733 0.40833 0.0
C662 C 0.73022 0.13897 0.64815 0.0
C663 C 0.75493 0.1171 0.67724 0.0
C664 C 0.73162 0.17021 0.61671 0.0
C665 C 0.75823 0.18106 0.61202 0.0
H666 H 0.70911 0.13223 0.64994 0.0
H667 H 0.71164 0.18597 0.59585 0.0
S668 S 0.82895 0.13431 0.68025 0.0
N669 N 0.80637 0.10992 0.69912 0.0
N670 N 0.80958 0.1671 0.64051 0.0
C671 C 0.78309 0.15939 0.64084 0.0
C672 C 0.7813 0.12802 0.67313 0.0
C673 C 0.92269 1.02888 0.94949 0.0
C674 C 0.91285 0.0481 0.97996 0.0
C675 C 0.8968 1.02447 0.94016 0.0
C676 C 0.85961 0.03947 0.96039 0.0
H677 H 0.95082 1.01727 0.93205 0.0
H678 H 0.90583 1.01023 0.9156 0.0
S679 S 0.81946 0.09023 0.04462 0.0
N680 N 0.86359 0.08048 1.03236 0.0
N681 N 0.8141 0.07295 1.01381 0.0
C682 C 0.84922 0.05796 0.99183 0.0
C683 C 0.87606 0.06197 1.00199 0.0
C684 C 0.07853 0.9913 0.1047 0.0
C685 C 0.05047 1.02452 0.0872 0.0
C686 C 0.10597 0.99058 0.11834 0.0
C687 C 0.10599 1.02313 0.11509 0.0
H688 H 0.07801 0.96594 0.11017 0.0
H689 H 0.12605 0.96458 0.13365 0.0
S690 S 0.04224 0.11643 0.06513 0.0
N691 N 0.02701 0.09018 0.06299 0.0
N692 N 0.07857 0.08879 0.08818 0.0
C693 C 0.07961 0.05616 0.09499 0.0
C694 C 0.05178 0.05687 0.08123 0.0
C695 C 0.00194 0.42004 0.50887 0.0
C696 C 0.00958 0.44917 0.48236 0.0
C697 C -0.00095 0.39762 0.49181 0.0
C698 C 0.00277 0.40407 0.44764 0.0
H699 H -0.00263 0.41499 0.54319 0.0
H700 H -0.00715 0.37572 0.51339 0.0
S701 S 0.02299 0.47654 0.36434 0.0
N702 N 0.02123 0.4828 0.40956 0.0
N703 N 0.01542 0.44099 0.37765 0.0
C704 C 0.01086 0.43276 0.42077 0.0
C705 C 0.01442 0.45517 0.43805 0.0
C706 C 0.61084 0.28597 0.61334 0.0
C707 C 0.63073 0.30187 0.61569 0.0
C708 C 0.57984 0.28546 0.64443 0.0
C709 C 0.56687 0.30105 0.67938 0.0
H710 H 0.61982 0.2728 0.58778 0.0
H711 H 0.56636 0.27201 0.64132 0.0
S712 S 0.60801 0.34733 0.70019 0.0
N713 N 0.63438 0.33453 0.65569 0.0
N714 N 0.57611 0.33378 0.71387 0.0
C715 C 0.58584 0.31794 0.68166 0.0
C716 C 0.61768 0.31828 0.64999 0.0
C717 C 0.71509 0.93904 0.92142 0.0
C718 C 0.73312 0.93822 0.87845 0.0
C719 C 0.71411 0.90735 0.9524 0.0
C720 C 0.7319 0.87323 0.94199 0.0
H721 H 0.70054 0.96465 0.93085 0.0
H722 H 0.69814 0.90995 0.98413 0.0
S723 S 0.78839 0.85484 0.83634 0.0
N724 N 0.77249 0.89908 0.82912 0.0
N725 N 0.77144 0.84037 0.8864 0.0
C726 C 0.7517 0.87189 0.89982 0.0
C727 C 0.75218 0.90397 0.86844 0.0
C728 C 0.11909 0.31746 0.15272 0.0
C729 C 0.12677 0.31142 0.11227 0.0
C730 C 0.08831 0.31585 0.18368 0.0
C731 C 0.06385 0.308 0.17569 0.0
H732 H 0.13785 0.32194 0.16131 0.0
H733 H 0.08466 0.31924 0.21479 0.0
S734 S 0.06915 0.2939 0.07342 0.0
N735 N 0.10534 0.30025 0.0649 0.0
N736 N 0.04805 0.29689 0.12296 0.0
C737 C 0.07034 0.30342 0.13481 0.0
C738 C 0.10155 0.30523 0.10322 0.0
C739 C 0.69687 0.43042 0.38897 0.0
C740 C 0.71737 0.44637 0.38978 0.0
C741 C 0.69544 0.39943 0.42057 0.0
C742 C 0.71486 0.38206 0.45464 0.0
H743 H 0.68201 0.44168 0.36331 0.0
H744 H 0.67945 0.38849 0.41761 0.0
S745 S 0.77224 0.41252 0.47313 0.0
N746 N 0.75711 0.44196 0.42934 0.0
N747 N 0.75478 0.38397 0.48731 0.0
C748 C 0.73537 0.39763 0.45603 0.0
C749 C 0.7365 0.42952 0.42419 0.0
C750 C 0.54326 0.04494 0.61683 0.0
C751 C 0.55316 1.02458 0.58766 0.0
C752 C 0.5689 0.051 0.62412 0.0
C753 C 0.60587 0.03635 0.60304 0.0
H754 H 0.51583 0.05471 0.63614 0.0
H755 H 0.56022 0.06457 0.64921 0.0
S756 S 0.64467 0.98612 0.51832 0.0
N757 N 0.60127 0.99329 0.5339 0.0
N758 N 0.65005 1.00505 0.54708 0.0
C759 C 0.61557 1.01849 0.57108 0.0
C760 C 0.58913 1.01234 0.56365 0.0
C761 C 0.03471 0.93061 0.96745 0.0
C762 C 0.00336 0.94823 0.99659 0.0
C763 C 0.03477 0.9091 0.94596 0.0
C764 C 0.0032 0.90507 0.95217 0.0
H765 H 0.05899 0.93433 0.96022 0.0
H766 H 0.05903 0.89708 0.92274 0.0
S767 S 0.91392 0.94544 1.02458 0.0
N768 N 0.94003 0.9592 1.03098 0.0
N769 N 0.94029 0.91948 0.9903 0.0
C770 C 0.97217 0.92154 0.98214 0.0
C771 C 0.97223 0.94286 1.00445 0.0
C772 C 0.06651 0.18872 0.9842 0.0
C773 C 0.09328 0.15936 0.9652 0.0
C774 C 0.07626 0.21171 0.99051 0.0
C775 C 0.11304 0.20555 0.97813 0.0
H776 H 0.03796 0.19396 0.99406 0.0
H777 H 0.05507 0.23459 1.00434 0.0
S778 S 0.19314 0.13303 0.92706 0.0
N779 N 0.15778 0.1259 0.93385 0.0
N780 N 0.17619 0.16866 0.94668 0.0
C781 C 0.14004 0.17607 0.95995 0.0
C782 C 0.13016 0.15297 0.95325 0.0
C783 C 0.62479 0.63531 0.28235 0.0
C784 C 0.64229 0.615 0.31814 0.0
C785 C 0.59199 0.66944 0.28269 0.0
C786 C 0.57552 0.68454 0.31882 0.0
H787 H 0.63765 0.62594 0.25314 0.0
H788 H 0.58083 0.68499 0.25376 0.0
S789 S 0.60767 0.64024 0.42207 0.0
N790 N 0.63805 0.61153 0.39164 0.0
N791 N 0.57776 0.67431 0.39224 0.0
C792 C 0.59168 0.66328 0.35522 0.0
C793 C 0.62458 0.62901 0.35489 0.0
C794 C 0.34538 0.89101 0.5866 0.0
C795 C 0.36474 0.85283 0.59565 0.0
C796 C 0.35889 0.91111 0.59196 0.0
C797 C 0.3924 0.89368 0.60615 0.0
H798 H 0.31862 0.90535 0.57747 0.0
H799 H 0.34215 0.94045 0.58662 0.0
S800 S 0.4558 0.79439 0.62834 0.0
N801 N 0.42017 0.79822 0.61594 0.0
N802 N 0.44657 0.83636 0.62481 0.0
C803 C 0.41307 0.85556 0.61307 0.0
C804 C 0.39898 0.835 0.60806 0.0
C805 C 0.09251 0.67023 0.78268 0.0
C806 C 0.07481 0.68526 0.81894 0.0
C807 C 0.12635 0.63694 0.78232 0.0
C808 C 0.14388 0.6175 0.81815 0.0
H809 H 0.08146 0.6853 0.75365 0.0
H810 H 0.13993 0.62765 0.75308 0.0
S811 S 0.10693 0.64291 0.92217 0.0
N812 N 0.07634 0.67574 0.89245 0.0
N813 N 0.13868 0.61475 0.89163 0.0
C814 C 0.12518 0.6314 0.85492 0.0
C815 C 0.09113 0.66472 0.85535 0.0
C816 C 0.89273 0.33662 0.61508 0.0
C817 C 0.85655 0.35434 0.60763 0.0
C818 C 0.9079 0.35656 0.61809 0.0
C819 C 0.88702 0.39443 0.61392 0.0
H820 H 0.90909 0.30737 0.61881 0.0
H821 H 0.93591 0.34247 0.62365 0.0
S822 S 0.7905 0.45255 0.59674 0.0
N823 N 0.80004 0.41112 0.5976 0.0
N824 N 0.82843 0.44854 0.60353 0.0
C825 C 0.85088 0.41219 0.60667 0.0
C826 C 0.83563 0.39209 0.60344 0.0
C827 C 0.33366 0.91068 0.29896 0.0
C828 C 0.33654 0.94291 0.27523 0.0
C829 C 0.36466 0.8759 0.30034 0.0
C830 C 0.40038 0.87134 0.27825 0.0
H831 H 0.30664 0.91208 0.31374 0.0
H832 H 0.36016 0.85214 0.31708 0.0
S833 S 0.42393 0.94673 0.21349 0.0
N834 N 0.37874 0.9678 0.23041 0.0
N835 N 0.4371 0.90265 0.23419 0.0
C836 C 0.40427 0.90335 0.2568 0.0
C837 C 0.3724 0.93895 0.25487 0.0
C838 C 0.33443 0.40573 0.78778 0.0
C839 C 0.32984 0.44182 0.77117 0.0
C840 C 0.36959 0.37498 0.78591 0.0
C841 C 0.40222 0.37852 0.76675 0.0
H842 H 0.31037 0.40106 0.80181 0.0
H843 H 0.37114 0.34806 0.79842 0.0
S844 S 0.40669 0.46633 0.72082 0.0
N845 N 0.36191 0.47891 0.73711 0.0
N846 N 0.42784 0.4212 0.73262 0.0
C847 C 0.39838 0.4143 0.75105 0.0
C848 C 0.36237 0.44584 0.75359 0.0
C849 C 0.11267 0.78977 0.60822 0.0
C850 C 0.13598 0.79983 0.61478 0.0
C851 C 0.08166 0.78868 0.63933 0.0
C852 C 0.0722 0.79804 0.67828 0.0
H853 H 0.11911 0.78134 0.57945 0.0
H854 H 0.06534 0.77981 0.63299 0.0
S855 S 0.12353 0.82746 0.71082 0.0
N856 N 0.14665 0.8203 0.66306 0.0
N857 N 0.08885 0.81845 0.72095 0.0
C858 C 0.09476 0.80914 0.68467 0.0
C859 C 0.12642 0.80998 0.65318 0.0
C860 C 0.2344 0.93051 0.42297 0.0
C861 C 0.23293 0.93821 0.37958 0.0
C862 C 0.236 0.89735 0.45254 0.0
C863 C 0.2368 0.8701 0.43989 0.0
H864 H 0.2346 0.95014 0.43417 0.0
H865 H 0.23788 0.89256 0.48503 0.0
S866 S 0.23416 0.87617 0.32994 0.0
N867 N 0.23267 0.91491 0.32624 0.0
N868 N 0.23553 0.85406 0.38023 0.0
C869 C 0.23498 0.87788 0.39665 0.0
C870 C 0.23308 0.91137 0.36705 0.0
C871 C 0.94346 0.63798 0.64389 0.0
C872 C 0.94864 0.66902 0.62076 0.0
C873 C 0.93992 0.61807 0.62367 0.0
C874 C 0.94234 0.62787 0.57925 0.0
H875 H 0.94374 0.62809 0.67772 0.0
H876 H 0.93812 0.59323 0.64266 0.0
S877 S 0.95159 0.70906 0.50484 0.0
N878 N 0.95224 0.71077 0.55168 0.0
N879 N 0.94707 0.6724 0.51332 0.0
C880 C 0.94539 0.66001 0.55609 0.0
C881 C 0.94814 0.68085 0.57691 0.0
C882 C 0.34767 0.76419 0.40866 0.0
C883 C 0.34951 0.7505 0.45227 0.0
C884 C 0.37813 0.76646 0.37745 0.0
C885 C 0.41166 0.75528 0.38852 0.0
H886 H 0.32203 0.77465 0.39866 0.0
H887 H 0.37495 0.77828 0.34446 0.0
S888 S 0.43209 0.71365 0.4976 0.0
N889 N 0.38849 0.72324 0.50445 0.0
N890 N 0.44563 0.72729 0.44591 0.0
C891 C 0.4142 0.7405 0.4318 0.0
C892 C 0.38318 0.7382 0.46359 0.0
C893 C 0.25523 0.14504 0.19028 0.0
C894 C 0.24754 0.12153 0.18116 0.0
C895 C 0.25352 0.17787 0.16103 0.0
C896 C 0.24465 0.18912 0.12045 0.0
H897 H 0.2615 0.13876 0.22102 0.0
H898 H 0.25833 0.19523 0.17096 0.0
S899 S 0.22346 0.13749 0.07896 0.0
N900 N 0.23141 0.11204 0.12704 0.0
N901 N 0.22922 0.17309 0.07229 0.0
C902 C 0.23823 0.16541 0.11003 0.0
C903 C 0.23937 0.132 0.14019 0.0
C904 C 0.86667 0.77313 0.95514 0.0
C905 C 0.84347 0.76273 0.94893 0.0
C906 C 0.89829 0.77317 0.92453 0.0
C907 C 0.90851 0.76257 0.88623 0.0
H908 H 0.86006 0.78201 0.98362 0.0
H909 H 0.91459 0.78207 0.93084 0.0
S910 S 0.85663 0.73401 0.85333 0.0
N911 N 0.83298 0.74207 0.90061 0.0
N912 N 0.89183 0.74212 0.84369 0.0
C913 C 0.88566 0.75188 0.87974 0.0
C914 C 0.85341 0.75197 0.9108 0.0
C915 C 0.23218 0.6387 0.64925 0.0
C916 C 0.2566 0.61648 0.67853 0.0
C917 C 0.23522 0.66883 0.61696 0.0
C918 C 0.26324 0.67805 0.61163 0.0
H919 H 0.20993 0.63329 0.65174 0.0
H920 H 0.21521 0.6852 0.59617 0.0
S921 S 0.33418 0.62943 0.67972 0.0
N922 N 0.30964 0.60692 0.69966 0.0
N923 N 0.31572 0.6621 0.63939 0.0
C924 C 0.28797 0.65587 0.64044 0.0
C925 C 0.28457 0.62565 0.67358 0.0
C926 C 0.39445 1.01062 0.47029 0.0
C927 C 0.36189 0.04187 0.45949 0.0
C928 C 0.41896 1.01241 0.48596 0.0
C929 C 0.41168 0.04515 0.4924 0.0
H930 H 0.40184 0.98489 0.4649 0.0
H931 H 0.44441 0.98806 0.49182 0.0
S932 S 0.32988 0.13457 0.47048 0.0
N933 N 0.32307 0.10667 0.45735 0.0
N934 N 0.3693 0.10933 0.48797 0.0
C935 C 0.37836 0.07617 0.48407 0.0
C936 C 0.35336 0.07464 0.46748 0.0
C937 C 0.89672 0.85248 0.09395 0.0
C938 C 0.86208 0.85352 0.11315 0.0
C939 C 0.90693 0.87395 0.1029 0.0
C940 C 0.88234 0.89746 0.13049 0.0
H941 H 0.91562 0.83549 0.07162 0.0
H942 H 0.93358 0.87315 0.08696 0.0
S943 S 0.79028 0.90609 0.19199 0.0
N944 N 0.80465 0.87691 0.16322 0.0
N945 N 0.82364 0.9174 0.17999 0.0
C946 C 0.84837 0.89722 0.15115 0.0
C947 C 0.83822 0.87528 0.14233 0.0
C948 C 0.60395 0.21794 0.42173 0.0
C949 C 0.60512 0.2192 0.46137 0.0
C950 C 0.58738 0.19926 0.41929 0.0
C951 C 0.57164 0.18105 0.4564 0.0
H952 H 0.61809 0.22936 0.39242 0.0
H953 H 0.5892 0.19695 0.38825 0.0
S954 S 0.56131 0.18188 0.56756 0.0
N955 N 0.58438 0.2053 0.53826 0.0
N956 N 0.55372 0.16934 0.53365 0.0
C957 C 0.57002 0.18445 0.49612 0.0
C958 C 0.58668 0.20374 0.49861 0.0
C959 C 0.83082 0.40134 0.2808 0.0
C960 C 0.8283 0.43615 0.27201 0.0
C961 C 0.86479 0.37 0.27674 0.0
C962 C 0.89859 0.37114 0.26447 0.0
H963 H 0.80605 0.39814 0.28962 0.0
H964 H 0.86446 0.34454 0.28215 0.0
S965 S 0.90887 0.45393 0.24294 0.0
N966 N 0.86355 0.46911 0.25386 0.0
N967 N 0.92785 0.4096 0.24698 0.0
C968 C 0.8971 0.40512 0.25815 0.0
C969 C 0.86195 0.43768 0.26179 0.0
C970 C 0.12705 0.64629 0.46784 0.0
C971 C 0.0906 0.66088 0.46282 0.0
C972 C 0.13811 0.66689 0.47661 0.0
C973 C 0.11324 0.70285 0.48017 0.0
H974 H 0.14757 0.61917 0.46356 0.0
H975 H 0.16683 0.65524 0.47849 0.0
S976 S 0.01425 0.7529 0.47368 0.0
N977 N 0.0289 0.71264 0.4656 0.0
N978 N 0.05059 0.75191 0.48056 0.0
C979 C 0.07658 0.71759 0.47657 0.0
C980 C 0.06504 0.69645 0.46819 0.0
C981 C 0.65247 0.14902 0.78706 0.0
C982 C 0.65111 0.11649 0.79401 0.0
C983 C 0.62097 0.18317 0.78354 0.0
C984 C 0.5855 0.18733 0.7875 0.0
H985 H 0.67831 0.14806 0.78561 0.0
H986 H 0.62459 0.20663 0.77899 0.0
S987 S 0.5666 0.11133 0.8012 0.0
N988 N 0.61143 0.09085 0.80114 0.0
N989 N 0.55173 0.15533 0.79504 0.0
C990 C 0.58368 0.15526 0.79231 0.0
C991 C 0.61644 0.11993 0.79548 0.0
C992 C 0.75534 0.64127 0.19145 0.0
C993 C 0.74901 0.61759 0.18069 0.0
C994 C 0.75407 0.67418 0.16291 0.0
C995 C 0.74716 0.68544 0.12127 0.0
H996 H 0.76004 0.63505 0.22305 0.0
H997 H 0.75784 0.69151 0.17422 0.0
S998 S 0.73073 0.63292 0.07527 0.0
N999 N 0.73664 0.6076 0.12399 0.0
N1000 N 0.73511 0.66898 0.07034 0.0
C1001 C 0.74204 0.66156 0.10925 0.0
C1002 C 0.74266 0.62801 0.13883 0.0
C1003 C 0.87897 0.55344 0.50283 0.0
C1004 C 0.90878 0.55647 0.471 0.0
C1005 C 0.85185 0.55017 0.49325 0.0
C1006 C 0.85336 0.55102 0.45134 0.0
H1007 H 0.87731 0.5523 0.5354 0.0
H1008 H 0.83007 0.54642 0.51864 0.0
S1009 S 0.92292 0.56237 0.35585 0.0
N1010 N 0.93604 0.56269 0.39518 0.0
N1011 N 0.88514 0.55735 0.37784 0.0
C1012 C 0.8818 0.55586 0.41921 0.0
C1013 C 0.90939 0.55857 0.42881 0.0
C1014 C 0.10969 0.48941 0.61296 0.0
C1015 C 0.10692 0.52233 0.61333 0.0
C1016 C 0.08382 0.48946 0.59699 0.0
C1017 C 0.05471 0.52239 0.58065 0.0
H1018 H 0.13039 0.46356 0.62763 0.0
H1019 H 0.08513 0.46367 0.60011 0.0
S1020 S 0.0394 0.61558 0.56842 0.0
N1021 N 0.0759 0.58833 0.59119 0.0
N1022 N 0.0274 0.5885 0.56181 0.0
C1023 C 0.05353 0.55525 0.57814 0.0
C1024 C 0.07971 0.55521 0.59416 0.0
C1025 C 0.59717 0.80887 0.18826 0.0
C1026 C 0.5709 0.80288 0.18112 0.0
C1027 C 0.62704 0.81138 0.15575 0.0
C1028 C 0.63193 0.80834 0.11442 0.0
H1029 H 0.59549 0.81025 0.21972 0.0
H1030 H 0.6473 0.8142 0.16368 0.0
S1031 S 0.5683 0.79746 0.07736 0.0
N1032 N 0.55039 0.79705 0.12824 0.0
N1033 N 0.60545 0.80261 0.06748 0.0
C1034 C 0.60479 0.80421 0.1064 0.0
C1035 C 0.57468 0.80126 0.13953 0.0
C1036 C 0.60806 0.52135 0.07693 0.0
C1037 C 0.60208 0.5301 0.11525 0.0
C1038 C 0.58175 0.51629 0.06825 0.0
C1039 C 0.54879 0.51966 0.0977 0.0
H1040 H 0.63323 0.51832 0.05364 0.0
H1041 H 0.58729 0.50959 0.03861 0.0
S1042 S 0.52185 0.53878 0.20446 0.0
N1043 N 0.56192 0.53932 0.18378 0.0
N1044 N 0.51298 0.53037 0.1679 0.0
C1045 C 0.5431 0.52775 0.13637 0.0
C1046 C 0.56953 0.53289 0.145 0.0
C1047 C 0.35902 0.40841 0.09191 0.0
C1048 C 0.39265 0.39272 0.10498 0.0
C1049 C 0.3481 0.38698 0.08481 0.0
C1050 C 0.37042 0.34913 0.09066 0.0
H1051 H 0.34055 0.4374 0.08822 0.0
H1052 H 0.32113 0.39995 0.07669 0.0
S1053 S 0.46286 0.29562 0.11998 0.0
N1054 N 0.44973 0.33793 0.1201 0.0
N1055 N 0.42871 0.29701 0.10717 0.0
C1056 C 0.40477 0.33317 0.10222 0.0
C1057 C 0.41601 0.35517 0.10936 0.0
C1058 C 0.11495 0.18385 0.26255 0.0
C1059 C 0.07939 0.18835 0.28531 0.0
C1060 C 0.14588 0.14912 0.26349 0.0
C1061 C 0.14303 0.11692 0.28739 0.0
H1062 H 0.11943 0.20762 0.24578 0.0
H1063 H 0.17288 0.14773 0.24838 0.0
S1064 S 0.05587 0.11293 0.34983 0.0
N1065 N 0.04269 0.15705 0.32953 0.0
N1066 N 0.10098 0.09189 0.33241 0.0
C1067 C 0.10726 0.1208 0.30808 0.0
C1068 C 0.07544 0.15638 0.30664 0.0
C1069 C 0.21168 0.39398 0.91107 0.0
C1070 C 0.22378 0.38121 0.94998 0.0
C1071 C 0.20993 0.42684 0.88174 0.0
C1072 C 0.22096 0.44865 0.88905 0.0
H1073 H 0.20455 0.37769 0.90239 0.0
H1074 H 0.20144 0.43423 0.85205 0.0
S1075 S 0.25387 0.42849 0.98663 0.0
N1076 N 0.24556 0.39418 0.99483 0.0
N1077 N 0.24336 0.45515 0.93978 0.0
C1078 C 0.23223 0.43673 0.92846 0.0
C1079 C 0.23333 0.40341 0.95877 0.0
C1080 C 0.34911 0.25457 0.91533 0.0
C1081 C 0.34242 0.25976 0.95596 0.0
C1082 C 0.37991 0.25566 0.88405 0.0
C1083 C 0.4058 0.26183 0.89176 0.0
H1084 H 0.32968 0.25088 0.90692 0.0
H1085 H 0.38286 0.2524 0.85311 0.0
S1086 S 0.40266 0.27449 0.99399 0.0
N1087 N 0.36561 0.2694 1.00289 0.0
N1088 N 0.42322 0.27149 0.94434 0.0
C1089 C 0.4001 0.26592 0.93273 0.0
C1090 C 0.36858 0.26491 0.96463 0.0
C1091 C 0.37889 0.55902 1.00404 0.0
C1092 C 0.40848 0.56348 0.97338 0.0
C1093 C 0.35179 0.5576 0.99205 0.0
C1094 C 0.35231 0.56324 0.94885 0.0
H1095 H 0.37781 0.55462 0.03742 0.0
H1096 H 0.33108 0.55111 1.01656 0.0
S1097 S 0.4182 0.58553 0.85601 0.0
N1098 N 0.433 0.57943 0.89778 0.0
N1099 N 0.38107 0.57918 0.87544 0.0
C1100 C 0.37919 0.57202 0.91795 0.0
C1101 C 0.40735 0.57192 0.93011 0.0
C1102 C 0.59789 0.71457 0.93709 0.0
C1103 C 0.60821 0.70573 0.97591 0.0
C1104 C 0.58079 0.69739 0.93235 0.0
C1105 C 0.5729 0.67147 0.96658 0.0
H1106 H 0.60588 0.73256 0.90922 0.0
H1107 H 0.57689 0.70199 0.90084 0.0
S1108 S 0.58249 0.64848 0.07808 0.0
N1109 N 0.60183 0.67565 0.0514 0.0
N1110 N 0.56739 0.64499 0.04286 0.0
C1111 C 0.57754 0.66691 1.00711 0.0
C1112 C 0.59572 0.68379 1.01178 0.0
C1113 C 0.89765 0.89923 0.71178 0.0
C1114 C 0.90885 0.87427 0.74986 0.0
C1115 C 0.86597 0.93339 0.71155 0.0
C1116 C 0.84326 0.94466 0.74939 0.0
H1117 H 0.91259 0.89155 0.68169 0.0
H1118 H 0.85779 0.95032 0.6812 0.0
S1119 S 0.85921 0.88934 0.85843 0.0
N1120 N 0.89421 0.86344 0.8271 0.0
N1121 N 0.83458 0.92747 0.82655 0.0
C1122 C 0.85473 0.92064 0.7879 0.0
C1123 C 0.88742 0.88557 0.78815 0.0
C1124 C 0.44859 0.1349 0.65426 0.0
C1125 C 0.45611 0.16437 0.62942 0.0
C1126 C 0.44618 0.11336 0.63532 0.0
C1127 C 0.4523 0.11979 0.59073 0.0
H1128 H 0.44475 0.12831 0.68865 0.0
H1129 H 0.44165 0.0902 0.65573 0.0
S1130 S 0.46976 0.19542 0.51166 0.0
N1131 N 0.46681 0.20055 0.55811 0.0
N1132 N 0.46371 0.15928 0.52241 0.0
C1133 C 0.45864 0.14989 0.56563 0.0
C1134 C 0.46025 0.17232 0.58497 0.0
C1135 C 0.47461 0.4246 0.96912 0.0
C1136 C 0.50779 0.39924 0.94962 0.0
C1137 C 0.47454 0.44754 0.98807 0.0
C1138 C 0.50757 0.44607 0.98877 0.0
H1139 H 0.44837 0.42687 0.96966 0.0
H1140 H 0.44809 0.4674 1.00126 0.0
S1141 S 0.60185 0.38602 0.93993 0.0
N1142 N 0.57471 0.37509 0.93034 0.0
N1143 N 0.57432 0.41817 0.96673 0.0
C1144 C 0.54097 0.4213 0.96886 0.0
C1145 C 0.54113 0.39775 0.9494 0.0
C1146 C 0.51484 0.88812 0.49698 0.0
C1147 C 0.5115 0.89893 0.45416 0.0
C1148 C 0.51743 0.91039 0.51478 0.0
C1149 C 0.51807 0.94347 0.48992 0.0
H1150 H 0.51401 0.86309 0.51716 0.0
H1151 H 0.5179 0.90219 0.54846 0.0
S1152 S 0.50897 0.9839 0.37632 0.0
N1153 N 0.50782 0.94498 0.38777 0.0
N1154 N 0.51462 0.98578 0.42021 0.0
C1155 C 0.51599 0.95374 0.44664 0.0
C1156 C 0.51211 0.93176 0.42906 0.0
C1157 C 0.44723 0.61484 0.12602 0.0
C1158 C 0.45172 0.6227 0.08151 0.0
C1159 C 0.45131 0.63499 0.14528 0.0
C1160 C 0.45928 0.66423 0.12081 0.0
H1161 H 0.44261 0.59165 0.14604 0.0
H1162 H 0.4488 0.62723 0.17957 0.0
S1163 S 0.46934 0.69845 1.00356 0.0
N1164 N 0.46202 0.66315 1.01373 0.0
N1165 N 0.4688 0.70168 0.05002 0.0
C1166 C 0.46186 0.67358 0.07648 0.0
C1167 C 0.45834 0.65264 0.05681 0.0
loop_
_geom_bond_atom_site_label_1
_geom_bond_atom_site_label_2
_geom_bond_distance
_geom_bond_site_symmetry_2
_ccdc_geom_bond_type
La0 C2 2.928 . S
La0 O20 2.521 . S
La0 O21 2.628 . S
La0 O22 2.554 1_655 S
La0 O23 2.757 1_655 S
La0 O24 2.485 1_655 S
La0 O29 2.482 1_564 S
La0 O31 2.503 1_565 S
La1 C11 2.928 . S
La1 O23 2.482 1_546 S
La1 O25 2.503 1_545 S
La1 O26 2.521 . S
La1 O27 2.628 . S
La1 O28 2.554 1_455 S
La1 O29 2.757 1_455 S
La1 O30 2.470 1_456 S
C2 La0 2.928 . S
C2 C3 1.503 . S
C2 O20 1.261 . S
C2 O21 1.243 . S
C3 C2 1.503 . S
C3 C4 1.394 . S
C3 C8 1.373 . S
C4 C3 1.394 . S
C4 C5 1.380 . S
C4 H32 0.930 . S
C5 C4 1.380 . S
C5 C6 1.376 . S
C5 H33 0.930 . S
C6 C5 1.376 . S
C6 C7 1.370 . S
C7 C6 1.370 . S
C7 C8 1.396 . S
C7 H34 0.929 . S
C8 C3 1.373 . S
C8 C7 1.396 . S
C8 H35 0.929 . S
C9 O22 1.240 . S
C9 O23 1.289 . S
C10 O24 1.237 1_556 S
C10 O25 1.256 . S
C11 La1 2.928 . S
C11 C12 1.503 . S
C11 O26 1.261 . S
C11 O27 1.243 . S
C12 C11 1.503 . S
C12 C13 1.394 . S
C12 C17 1.373 . S
C13 C12 1.394 . S
C13 C14 1.380 . S
C13 H36 0.930 . S
C14 C13 1.380 . S
C14 C15 1.376 . S
C14 H37 0.930 . S
C15 C14 1.376 . S
C15 C16 1.370 . S
C16 C15 1.370 . S
C16 C17 1.396 . S
C16 H38 0.929 . S
C17 C12 1.373 . S
C17 C16 1.396 . S
C17 H39 0.929 . S
C18 O28 1.240 . S
C18 O29 1.289 . S
C19 O30 1.259 . S
C19 O31 1.256 . S
O20 La0 2.521 . S
O20 C2 1.261 . S
O21 La0 2.628 . S
O21 C2 1.243 . S
O22 La0 2.554 1_455 S
O22 C9 1.240 . S
O23 La0 2.757 1_455 S
O23 La1 2.482 1_564 S
O23 C9 1.289 . S
O24 La0 2.485 1_455 S
O24 C10 1.237 1_554 S
O25 La1 2.503 1_565 S
O25 C10 1.256 . S
O26 La1 2.521 . S
O26 C11 1.261 . S
O27 La1 2.628 . S
O27 C11 1.243 . S
O28 La1 2.554 1_655 S
O28 C18 1.240 . S
O29 La0 2.482 1_546 S
O29 La1 2.757 1_655 S
O29 C18 1.289 . S
O30 La1 2.470 1_654 S
O30 C19 1.259 . S
O31 La0 2.503 1_545 S
O31 C19 1.256 . S
H32 C4 0.930 . S
H33 C5 0.930 . S
H34 C7 0.929 . S
H35 C8 0.929 . S
H36 C13 0.930 . S
H37 C14 0.930 . S
H38 C16 0.929 . S
H39 C17 0.929 . S
La40 C42 2.928 . S
La40 O60 2.521 . S
La40 O61 2.628 1_455 S
La40 O62 2.554 . S
La40 O63 2.757 . S
La40 O64 2.470 1_455 S
La40 O69 2.482 1_455 S
La40 O71 2.503 . S
La41 C51 2.928 . S
La41 O63 2.482 1_655 S
La41 O65 2.503 . S
La41 O66 2.521 . S
La41 O67 2.628 1_655 S
La41 O68 2.554 . S
La41 O69 2.757 . S
La41 O70 2.470 1_655 S
C42 La40 2.928 . S
C42 C43 1.503 1_455 S
C42 O60 1.261 . S
C42 O61 1.243 1_455 S
C43 C42 1.503 1_655 S
C43 C44 1.394 1_655 S
C43 C48 1.373 . S
C44 C43 1.394 1_455 S
C44 C45 1.380 . S
C44 H72 0.930 . S
C45 C44 1.380 . S
C45 C46 1.376 1_455 S
C45 H73 0.930 . S
C46 C45 1.376 1_655 S
C46 C47 1.370 . S
C47 C46 1.370 . S
C47 C48 1.396 . S
C47 H74 0.929 . S
C48 C43 1.373 . S
C48 C47 1.396 . S
C48 H75 0.929 . S
C49 O62 1.240 . S
C49 O63 1.289 . S
C50 O64 1.258 . S
C50 O65 1.256 . S
C51 La41 2.928 . S
C51 C52 1.503 1_655 S
C51 O66 1.261 . S
C51 O67 1.243 1_655 S
C52 C51 1.503 1_455 S
C52 C53 1.394 1_455 S
C52 C57 1.373 . S
C53 C52 1.394 1_655 S
C53 C54 1.380 . S
C53 H76 0.930 . S
C54 C53 1.380 . S
C54 C55 1.376 1_655 S
C54 H77 0.930 . S
C55 C54 1.376 1_455 S
C55 C56 1.370 . S
C56 C55 1.370 . S
C56 C57 1.396 . S
C56 H78 0.929 . S
C57 C52 1.373 . S
C57 C56 1.396 . S
C57 H79 0.929 . S
C58 O68 1.240 . S
C58 O69 1.289 . S
C59 O70 1.258 . S
C59 O71 1.256 . S
O60 La40 2.521 . S
O60 C42 1.261 . S
O61 La40 2.628 1_655 S
O61 C42 1.243 1_655 S
O62 La40 2.554 . S
O62 C49 1.240 . S
O63 La40 2.757 . S
O63 La41 2.482 1_455 S
O63 C49 1.289 . S
O64 La40 2.470 1_655 S
O64 C50 1.258 . S
O65 La41 2.503 . S
O65 C50 1.256 . S
O66 La41 2.521 . S
O66 C51 1.261 . S
O67 La41 2.628 1_455 S
O67 C51 1.243 1_455 S
O68 La41 2.554 . S
O68 C58 1.240 . S
O69 La40 2.482 1_655 S
O69 La41 2.757 . S
O69 C58 1.289 . S
O70 La41 2.470 1_455 S
O70 C59 1.258 . S
O71 La40 2.503 . S
O71 C59 1.256 . S
H72 C44 0.930 . S
H73 C45 0.930 . S
H74 C47 0.929 . S
H75 C48 0.929 . S
H76 C53 0.930 . S
H77 C54 0.930 . S
H78 C56 0.929 . S
H79 C57 0.929 . S
La80 C82 2.928 . S
La80 O100 2.521 . S
La80 O101 2.628 . S
La80 O102 2.554 . S
La80 O103 2.757 . S
La80 O104 2.470 . S
La80 O109 2.482 . S
La80 O111 2.503 . S
La81 C91 2.928 . S
La81 O103 2.482 . S
La81 O105 2.503 . S
La81 O106 2.521 . S
La81 O107 2.628 . S
La81 O108 2.554 . S
La81 O109 2.757 . S
La81 O110 2.470 . S
C82 La80 2.928 . S
C82 C83 1.503 . S
C82 O100 1.261 . S
C82 O101 1.243 . S
C83 C82 1.503 . S
C83 C84 1.394 . S
C83 C88 1.373 . S
C84 C83 1.394 . S
C84 C85 1.380 . S
C84 H112 0.930 . S
C85 C84 1.380 . S
C85 C86 1.376 . S
C85 H113 0.930 . S
C86 C85 1.376 . S
C86 C87 1.370 . S
C87 C86 1.370 . S
C87 C88 1.396 . S
C87 H114 0.929 . S
C88 C83 1.373 . S
C88 C87 1.396 . S
C88 H115 0.929 . S
C89 O102 1.240 . S
C89 O103 1.289 . S
C90 O104 1.258 . S
C90 O105 1.256 . S
C91 La81 2.928 . S
C91 C92 1.503 . S
C91 O106 1.261 . S
C91 O107 1.243 . S
C92 C91 1.503 . S
C92 C93 1.394 . S
C92 C97 1.373 . S
C93 C92 1.394 . S
C93 C94 1.380 . S
C93 H116 0.930 . S
C94 C93 1.380 . S
C94 C95 1.376 . S
C94 H117 0.930 . S
C95 C94 1.376 . S
C95 C96 1.370 . S
C96 C95 1.370 . S
C96 C97 1.396 . S
C96 H118 0.929 . S
C97 C92 1.373 . S
C97 C96 1.396 . S
C97 H119 0.929 . S
C98 O108 1.240 . S
C98 O109 1.289 . S
C99 O110 1.258 . S
C99 O111 1.256 . S
O100 La80 2.521 . S
O100 C82 1.261 . S
O101 La80 2.628 . S
O101 C82 1.243 . S
O102 La80 2.554 . S
O102 C89 1.240 . S
O103 La80 2.757 . S
O103 La81 2.482 . S
O103 C89 1.289 . S
O104 La80 2.470 . S
O104 C90 1.258 . S
O105 La81 2.503 . S
O105 C90 1.256 . S
O106 La81 2.521 . S
O106 C91 1.261 . S
O107 La81 2.628 . S
O107 C91 1.243 . S
O108 La81 2.554 . S
O108 C98 1.240 . S
O109 La80 2.482 . S
O109 La81 2.757 . S
O109 C98 1.289 . S
O110 La81 2.470 . S
O110 C99 1.258 . S
O111 La80 2.503 . S
O111 C99 1.256 . S
H112 C84 0.930 . S
H113 C85 0.930 . S
H114 C87 0.929 . S
H115 C88 0.929 . S
H116 C93 0.930 . S
H117 C94 0.930 . S
H118 C96 0.929 . S
H119 C97 0.929 . S
La120 C122 2.928 1_565 S
La120 O140 2.521 . S
La120 O141 2.628 1_565 S
La120 O142 2.554 . S
La120 O143 2.757 . S
La120 O144 2.470 1_565 S
La120 O149 2.482 1_565 S
La120 O151 2.503 . S
La121 C131 2.928 1_545 S
La121 O143 2.482 1_545 S
La121 O145 2.503 . S
La121 O146 2.521 . S
La121 O147 2.628 1_545 S
La121 O148 2.554 . S
La121 O149 2.757 . S
La121 O150 2.470 1_545 S
C122 La120 2.928 1_545 S
C122 C123 1.503 . S
C122 O140 1.261 1_545 S
C122 O141 1.243 . S
C123 C122 1.503 . S
C123 C124 1.394 1_545 S
C123 C128 1.373 . S
C124 C123 1.394 1_565 S
C124 C125 1.380 . S
C124 H152 0.930 . S
C125 C124 1.380 . S
C125 C126 1.376 1_565 S
C125 H153 0.930 . S
C126 C125 1.376 1_545 S
C126 C127 1.370 . S
C127 C126 1.370 . S
C127 C128 1.396 . S
C127 H154 0.929 . S
C128 C123 1.373 . S
C128 C127 1.396 . S
C128 H155 0.929 . S
C129 O142 1.240 . S
C129 O143 1.289 . S
C130 O144 1.258 . S
C130 O145 1.256 . S
C131 La121 2.928 1_565 S
C131 C132 1.503 . S
C131 O146 1.261 1_565 S
C131 O147 1.243 . S
C132 C131 1.503 . S
C132 C133 1.394 1_565 S
C132 C137 1.373 . S
C133 C132 1.394 1_545 S
C133 C134 1.380 . S
C133 H156 0.930 . S
C134 C133 1.380 . S
C134 C135 1.376 1_545 S
C134 H157 0.930 . S
C135 C134 1.376 1_565 S
C135 C136 1.370 . S
C136 C135 1.370 . S
C136 C137 1.396 . S
C136 H158 0.929 . S
C137 C132 1.373 . S
C137 C136 1.396 . S
C137 H159 0.929 . S
C138 O148 1.240 . S
C138 O149 1.289 . S
C139 O150 1.258 . S
C139 O151 1.256 . S
O140 La120 2.521 . S
O140 C122 1.261 1_565 S
O141 La120 2.628 1_545 S
O141 C122 1.243 . S
O142 La120 2.554 . S
O142 C129 1.240 . S
O143 La120 2.757 . S
O143 La121 2.482 1_565 S
O143 C129 1.289 . S
O144 La120 2.470 1_545 S
O144 C130 1.258 . S
O145 La121 2.503 . S
O145 C130 1.256 . S
O146 La121 2.521 . S
O146 C131 1.261 1_545 S
O147 La121 2.628 1_565 S
O147 C131 1.243 . S
O148 La121 2.554 . S
O148 C138 1.240 . S
O149 La120 2.482 1_545 S
O149 La121 2.757 . S
O149 C138 1.289 . S
O150 La121 2.470 1_565 S
O150 C139 1.258 . S
O151 La120 2.503 . S
O151 C139 1.256 . S
H152 C124 0.930 . S
H153 C125 0.930 . S
H154 C127 0.929 . S
H155 C128 0.929 . S
H156 C133 0.930 . S
H157 C134 0.930 . S
H158 C136 0.929 . S
H159 C137 0.929 . S
La160 C162 2.928 . S
La160 O180 2.521 . S
La160 O181 2.628 . S
La160 O182 2.554 . S
La160 O183 2.757 . S
La160 O184 2.470 . S
La160 O189 2.482 . S
La160 O191 2.503 . S
La161 C171 2.928 . S
La161 O183 2.482 . S
La161 O185 2.503 . S
La161 O186 2.521 . S
La161 O187 2.628 . S
La161 O188 2.554 . S
La161 O189 2.757 . S
La161 O190 2.470 . S
C162 La160 2.928 . S
C162 C163 1.503 . S
C162 O180 1.261 . S
C162 O181 1.243 . S
C163 C162 1.503 . S
C163 C164 1.394 . S
C163 C168 1.373 . S
C164 C163 1.394 . S
C164 C165 1.380 . S
C164 H192 0.930 . S
C165 C164 1.380 . S
C165 C166 1.376 . S
C165 H193 0.930 . S
C166 C165 1.376 . S
C166 C167 1.370 . S
C167 C166 1.370 . S
C167 C168 1.396 . S
C167 H194 0.929 . S
C168 C163 1.373 . S
C168 C167 1.396 . S
C168 H195 0.929 . S
C169 O182 1.240 . S
C169 O183 1.289 . S
C170 O184 1.258 . S
C170 O185 1.256 . S
C171 La161 2.928 . S
C171 C172 1.503 . S
C171 O186 1.261 . S
C171 O187 1.243 . S
C172 C171 1.503 . S
C172 C173 1.394 . S
C172 C177 1.373 . S
C173 C172 1.394 . S
C173 C174 1.380 . S
C173 H196 0.930 . S
C174 C173 1.380 . S
C174 C175 1.376 . S
C174 H197 0.930 . S
C175 C174 1.376 . S
C175 C176 1.370 . S
C176 C175 1.370 . S
C176 C177 1.396 . S
C176 H198 0.929 . S
C177 C172 1.373 . S
C177 C176 1.396 . S
C177 H199 0.929 . S
C178 O188 1.240 . S
C178 O189 1.289 . S
C179 O190 1.258 . S
C179 O191 1.256 . S
O180 La160 2.521 . S
O180 C162 1.261 . S
O181 La160 2.628 . S
O181 C162 1.243 . S
O182 La160 2.554 . S
O182 C169 1.240 . S
O183 La160 2.757 . S
O183 La161 2.482 . S
O183 C169 1.289 . S
O184 La160 2.470 . S
O184 C170 1.258 . S
O185 La161 2.503 . S
O185 C170 1.256 . S
O186 La161 2.521 . S
O186 C171 1.261 . S
O187 La161 2.628 . S
O187 C171 1.243 . S
O188 La161 2.554 . S
O188 C178 1.240 . S
O189 La160 2.482 . S
O189 La161 2.757 . S
O189 C178 1.289 . S
O190 La161 2.470 . S
O190 C179 1.258 . S
O191 La160 2.503 . S
O191 C179 1.256 . S
H192 C164 0.930 . S
H193 C165 0.930 . S
H194 C167 0.929 . S
H195 C168 0.929 . S
H196 C173 0.930 . S
H197 C174 0.930 . S
H198 C176 0.929 . S
H199 C177 0.929 . S
La200 C202 2.928 . S
La200 O220 2.521 . S
La200 O221 2.628 . S
La200 O222 2.554 . S
La200 O223 2.757 . S
La200 O224 2.470 . S
La200 O229 2.482 . S
La200 O231 2.503 . S
La201 C211 2.928 . S
La201 O223 2.482 . S
La201 O225 2.503 . S
La201 O226 2.521 . S
La201 O227 2.628 . S
La201 O228 2.554 . S
La201 O229 2.757 . S
La201 O230 2.470 . S
C202 La200 2.928 . S
C202 C203 1.503 . S
C202 O220 1.261 . S
C202 O221 1.243 . S
C203 C202 1.503 . S
C203 C204 1.394 . S
C203 C208 1.373 . S
C204 C203 1.394 . S
C204 C205 1.380 . S
C204 H232 0.930 . S
C205 C204 1.380 . S
C205 C206 1.376 . S
C205 H233 0.930 . S
C206 C205 1.376 . S
C206 C207 1.370 . S
C207 C206 1.370 . S
C207 C208 1.396 . S
C207 H234 0.929 . S
C208 C203 1.373 . S
C208 C207 1.396 . S
C208 H235 0.929 . S
C209 O222 1.240 . S
C209 O223 1.289 . S
C210 O224 1.258 . S
C210 O225 1.256 . S
C211 La201 2.928 . S
C211 C212 1.503 . S
C211 O226 1.261 . S
C211 O227 1.243 . S
C212 C211 1.503 . S
C212 C213 1.394 . S
C212 C217 1.373 . S
C213 C212 1.394 . S
C213 C214 1.380 . S
C213 H236 0.930 . S
C214 C213 1.380 . S
C214 C215 1.376 . S
C214 H237 0.930 . S
C215 C214 1.376 . S
C215 C216 1.370 . S
C216 C215 1.370 . S
C216 C217 1.396 . S
C216 H238 0.929 . S
C217 C212 1.373 . S
C217 C216 1.396 . S
C217 H239 0.929 . S
C218 O228 1.240 . S
C218 O229 1.289 . S
C219 O230 1.258 . S
C219 O231 1.256 . S
O220 La200 2.521 . S
O220 C202 1.261 . S
O221 La200 2.628 . S
O221 C202 1.243 . S
O222 La200 2.554 . S
O222 C209 1.240 . S
O223 La200 2.757 . S
O223 La201 2.482 . S
O223 C209 1.289 . S
O224 La200 2.470 . S
O224 C210 1.258 . S
O225 La201 2.503 . S
O225 C210 1.256 . S
O226 La201 2.521 . S
O226 C211 1.261 . S
O227 La201 2.628 . S
O227 C211 1.243 . S
O228 La201 2.554 . S
O228 C218 1.240 . S
O229 La200 2.482 . S
O229 La201 2.757 . S
O229 C218 1.289 . S
O230 La201 2.470 . S
O230 C219 1.258 . S
O231 La200 2.503 . S
O231 C219 1.256 . S
H232 C204 0.930 . S
H233 C205 0.930 . S
H234 C207 0.929 . S
H235 C208 0.929 . S
H236 C213 0.930 . S
H237 C214 0.930 . S
H238 C216 0.929 . S
H239 C217 0.929 . S
La240 C242 2.928 . S
La240 O260 2.521 . S
La240 O261 2.628 . S
La240 O262 2.554 . S
La240 O263 2.757 . S
La240 O264 2.470 . S
La240 O269 2.482 . S
La240 O271 2.503 . S
La241 C251 2.928 . S
La241 O263 2.482 . S
La241 O265 2.503 . S
La241 O266 2.521 . S
La241 O267 2.628 . S
La241 O268 2.554 . S
La241 O269 2.757 . S
La241 O270 2.470 . S
C242 La240 2.928 . S
C242 C243 1.503 . S
C242 O260 1.261 . S
C242 O261 1.243 . S
C243 C242 1.503 . S
C243 C244 1.394 . S
C243 C248 1.373 . S
C244 C243 1.394 . S
C244 C245 1.380 . S
C244 H272 0.930 . S
C245 C244 1.380 . S
C245 C246 1.376 . S
C245 H273 0.930 . S
C246 C245 1.376 . S
C246 C247 1.370 . S
C247 C246 1.370 . S
C247 C248 1.396 . S
C247 H274 0.929 . S
C248 C243 1.373 . S
C248 C247 1.396 . S
C248 H275 0.929 . S
C249 O262 1.240 . S
C249 O263 1.289 . S
C250 O264 1.258 . S
C250 O265 1.256 . S
C251 La241 2.928 . S
C251 C252 1.503 . S
C251 O266 1.261 . S
C251 O267 1.243 . S
C252 C251 1.503 . S
C252 C253 1.394 . S
C252 C257 1.373 . S
C253 C252 1.394 . S
C253 C254 1.380 . S
C253 H276 0.930 . S
C254 C253 1.380 . S
C254 C255 1.376 . S
C254 H277 0.930 . S
C255 C254 1.376 . S
C255 C256 1.370 . S
C256 C255 1.370 . S
C256 C257 1.396 . S
C256 H278 0.929 . S
C257 C252 1.373 . S
C257 C256 1.396 . S
C257 H279 0.929 . S
C258 O268 1.240 . S
C258 O269 1.289 . S
C259 O270 1.258 . S
C259 O271 1.256 . S
O260 La240 2.521 . S
O260 C242 1.261 . S
O261 La240 2.628 . S
O261 C242 1.243 . S
O262 La240 2.554 . S
O262 C249 1.240 . S
O263 La240 2.757 . S
O263 La241 2.482 . S
O263 C249 1.289 . S
O264 La240 2.470 . S
O264 C250 1.258 . S
O265 La241 2.503 . S
O265 C250 1.256 . S
O266 La241 2.521 . S
O266 C251 1.261 . S
O267 La241 2.628 . S
O267 C251 1.243 . S
O268 La241 2.554 . S
O268 C258 1.240 . S
O269 La240 2.482 . S
O269 La241 2.757 . S
O269 C258 1.289 . S
O270 La241 2.470 . S
O270 C259 1.258 . S
O271 La240 2.503 . S
O271 C259 1.256 . S
H272 C244 0.930 . S
H273 C245 0.930 . S
H274 C247 0.929 . S
H275 C248 0.929 . S
H276 C253 0.930 . S
H277 C254 0.930 . S
H278 C256 0.929 . S
H279 C257 0.929 . S
La280 C282 2.928 . S
La280 O300 2.521 . S
La280 O301 2.628 . S
La280 O302 2.554 1_655 S
La280 O303 2.757 1_655 S
La280 O304 2.470 1_655 S
La280 O309 2.482 . S
La280 O311 2.503 . S
La281 C291 2.928 . S
La281 O303 2.482 . S
La281 O305 2.503 . S
La281 O306 2.521 . S
La281 O307 2.628 . S
La281 O308 2.554 1_455 S
La281 O309 2.757 1_455 S
La281 O310 2.470 1_455 S
C282 La280 2.928 . S
C282 C283 1.503 . S
C282 O300 1.261 . S
C282 O301 1.243 . S
C283 C282 1.503 . S
C283 C284 1.394 . S
C283 C288 1.373 . S
C284 C283 1.394 . S
C284 C285 1.380 . S
C284 H312 0.930 . S
C285 C284 1.380 . S
C285 C286 1.376 . S
C285 H313 0.930 . S
C286 C285 1.376 . S
C286 C287 1.370 . S
C287 C286 1.370 . S
C287 C288 1.396 . S
C287 H314 0.929 . S
C288 C283 1.373 . S
C288 C287 1.396 . S
C288 H315 0.929 . S
C289 O302 1.240 . S
C289 O303 1.289 . S
C290 O304 1.258 . S
C290 O305 1.256 . S
C291 La281 2.928 . S
C291 C292 1.503 . S
C291 O306 1.261 . S
C291 O307 1.243 . S
C292 C291 1.503 . S
C292 C293 1.394 . S
C292 C297 1.373 . S
C293 C292 1.394 . S
C293 C294 1.380 . S
C293 H316 0.930 . S
C294 C293 1.380 . S
C294 C295 1.376 . S
C294 H317 0.930 . S
C295 C294 1.376 . S
C295 C296 1.370 . S
C296 C295 1.370 . S
C296 C297 1.396 . S
C296 H318 0.929 . S
C297 C292 1.373 . S
C297 C296 1.396 . S
C297 H319 0.929 . S
C298 O308 1.240 . S
C298 O309 1.289 . S
C299 O310 1.258 . S
C299 O311 1.256 . S
O300 La280 2.521 . S
O300 C282 1.261 . S
O301 La280 2.628 . S
O301 C282 1.243 . S
O302 La280 2.554 1_455 S
O302 C289 1.240 . S
O303 La280 2.757 1_455 S
O303 La281 2.482 . S
O303 C289 1.289 . S
O304 La280 2.470 1_455 S
O304 C290 1.258 . S
O305 La281 2.503 . S
O305 C290 1.256 . S
O306 La281 2.521 . S
O306 C291 1.261 . S
O307 La281 2.628 . S
O307 C291 1.243 . S
O308 La281 2.554 1_655 S
O308 C298 1.240 . S
O309 La280 2.482 . S
O309 La281 2.757 1_655 S
O309 C298 1.289 . S
O310 La281 2.470 1_655 S
O310 C299 1.258 . S
O311 La280 2.503 . S
O311 C299 1.256 . S
H312 C284 0.930 . S
H313 C285 0.930 . S
H314 C287 0.929 . S
H315 C288 0.929 . S
H316 C293 0.930 . S
H317 C294 0.930 . S
H318 C296 0.929 . S
H319 C297 0.929 . S
La320 C322 2.928 . S
La320 O340 2.521 . S
La320 O341 2.628 . S
La320 O342 2.554 . S
La320 O343 2.757 . S
La320 O344 2.470 1_556 S
La320 O349 2.482 1_556 S
La320 O351 2.503 . S
La321 C331 2.928 . S
La321 O343 2.482 1_554 S
La321 O345 2.503 . S
La321 O346 2.521 . S
La321 O347 2.628 . S
La321 O348 2.554 . S
La321 O349 2.757 . S
La321 O350 2.470 1_554 S
C322 La320 2.928 . S
C322 C323 1.503 . S
C322 O340 1.261 . S
C322 O341 1.243 . S
C323 C322 1.503 . S
C323 C324 1.394 . S
C323 C328 1.364 1_556 S
C324 C323 1.394 . S
C324 C325 1.380 . S
C324 H352 0.930 . S
C325 C324 1.380 . S
C325 C326 1.376 . S
C325 H353 0.930 . S
C326 C325 1.376 . S
C326 C327 1.347 1_556 S
C327 C326 1.347 1_554 S
C327 C328 1.398 . S
C327 H354 0.944 . S
C328 C323 1.364 1_554 S
C328 C327 1.398 . S
C328 H355 0.944 . S
C329 O342 1.240 . S
C329 O343 1.289 . S
C330 O344 1.258 . S
C330 O345 1.256 . S
C331 La321 2.928 . S
C331 C332 1.503 . S
C331 O346 1.261 . S
C331 O347 1.243 . S
C332 C331 1.503 . S
C332 C333 1.394 . S
C332 C337 1.377 . S
C333 C332 1.394 . S
C333 C334 1.380 . S
C333 H356 0.930 . S
C334 C333 1.380 . S
C334 C335 1.376 . S
C334 H357 0.930 . S
C335 C334 1.376 . S
C335 C336 1.367 . S
C336 C335 1.367 . S
C336 C337 1.398 . S
C336 H358 0.931 1_554 S
C337 C332 1.377 . S
C337 C336 1.398 . S
C337 H359 0.924 1_554 S
C338 O348 1.240 . S
C338 O349 1.289 . S
C339 O350 1.258 . S
C339 O351 1.256 . S
O340 La320 2.521 . S
O340 C322 1.261 . S
O341 La320 2.628 . S
O341 C322 1.243 . S
O342 La320 2.554 . S
O342 C329 1.240 . S
O343 La320 2.757 . S
O343 La321 2.482 1_556 S
O343 C329 1.289 . S
O344 La320 2.470 1_554 S
O344 C330 1.258 . S
O345 La321 2.503 . S
O345 C330 1.256 . S
O346 La321 2.521 . S
O346 C331 1.261 . S
O347 La321 2.628 . S
O347 C331 1.243 . S
O348 La321 2.554 . S
O348 C338 1.240 . S
O349 La320 2.482 1_554 S
O349 La321 2.757 . S
O349 C338 1.289 . S
O350 La321 2.470 1_556 S
O350 C339 1.258 . S
O351 La320 2.503 . S
O351 C339 1.256 . S
H352 C324 0.930 . S
H353 C325 0.930 . S
H354 C327 0.944 . S
H355 C328 0.944 . S
H356 C333 0.930 . S
H357 C334 0.930 . S
H358 C336 0.931 1_556 S
H359 C337 0.924 1_556 S
La360 C362 2.928 1_565 S
La360 O380 2.521 . S
La360 O381 2.628 1_565 S
La360 O382 2.554 . S
La360 O383 2.757 . S
La360 O384 2.470 1_565 S
La360 O389 2.482 1_565 S
La360 O391 2.503 . S
La361 C371 2.928 1_545 S
La361 O383 2.482 1_545 S
La361 O385 2.503 . S
La361 O386 2.521 . S
La361 O387 2.628 1_545 S
La361 O388 2.554 . S
La361 O389 2.757 . S
La361 O390 2.470 1_545 S
C362 La360 2.928 1_545 S
C362 C363 1.503 . S
C362 O380 1.261 1_545 S
C362 O381 1.243 . S
C363 C362 1.503 . S
C363 C364 1.394 1_545 S
C363 C368 1.373 . S
C364 C363 1.394 1_565 S
C364 C365 1.380 . S
C364 H392 0.930 . S
C365 C364 1.380 . S
C365 C366 1.376 1_565 S
C365 H393 0.930 . S
C366 C365 1.376 1_545 S
C366 C367 1.370 . S
C367 C366 1.370 . S
C367 C368 1.396 . S
C367 H394 0.929 . S
C368 C363 1.373 . S
C368 C367 1.396 . S
C368 H395 0.929 . S
C369 O382 1.240 . S
C369 O383 1.289 . S
C370 O384 1.258 . S
C370 O385 1.256 . S
C371 La361 2.928 1_565 S
C371 C372 1.503 . S
C371 O386 1.261 1_565 S
C371 O387 1.243 . S
C372 C371 1.503 . S
C372 C373 1.394 1_565 S
C372 C377 1.373 . S
C373 C372 1.394 1_545 S
C373 C374 1.380 . S
C373 H396 0.930 . S
C374 C373 1.380 . S
C374 C375 1.376 1_545 S
C374 H397 0.930 . S
C375 C374 1.376 1_565 S
C375 C376 1.370 . S
C376 C375 1.370 . S
C376 C377 1.396 . S
C376 H398 0.929 . S
C377 C372 1.373 . S
C377 C376 1.396 . S
C377 H399 0.929 . S
C378 O388 1.240 . S
C378 O389 1.289 . S
C379 O390 1.258 . S
C379 O391 1.256 . S
O380 La360 2.521 . S
O380 C362 1.261 1_565 S
O381 La360 2.628 1_545 S
O381 C362 1.243 . S
O382 La360 2.554 . S
O382 C369 1.240 . S
O383 La360 2.757 . S
O383 La361 2.482 1_565 S
O383 C369 1.289 . S
O384 La360 2.470 1_545 S
O384 C370 1.258 . S
O385 La361 2.503 . S
O385 C370 1.256 . S
O386 La361 2.521 . S
O386 C371 1.261 1_545 S
O387 La361 2.628 1_565 S
O387 C371 1.243 . S
O388 La361 2.554 . S
O388 C378 1.240 . S
O389 La360 2.482 1_545 S
O389 La361 2.757 . S
O389 C378 1.289 . S
O390 La361 2.470 1_565 S
O390 C379 1.258 . S
O391 La360 2.503 . S
O391 C379 1.256 . S
H392 C364 0.930 . S
H393 C365 0.930 . S
H394 C367 0.929 . S
H395 C368 0.929 . S
H396 C373 0.930 . S
H397 C374 0.930 . S
H398 C376 0.929 . S
H399 C377 0.929 . S
La400 C402 2.928 . S
La400 O420 2.521 . S
La400 O421 2.628 . S
La400 O422 2.554 . S
La400 O423 2.757 . S
La400 O424 2.470 . S
La400 O429 2.482 . S
La400 O431 2.503 . S
La401 C411 2.928 . S
La401 O423 2.482 . S
La401 O425 2.503 . S
La401 O426 2.521 . S
La401 O427 2.628 . S
La401 O428 2.554 . S
La401 O429 2.757 . S
La401 O430 2.470 . S
C402 La400 2.928 . S
C402 C403 1.503 . S
C402 O420 1.261 . S
C402 O421 1.243 . S
C403 C402 1.503 . S
C403 C404 1.394 . S
C403 C408 1.373 . S
C404 C403 1.394 . S
C404 C405 1.380 . S
C404 H432 0.930 . S
C405 C404 1.380 . S
C405 C406 1.376 . S
C405 H433 0.930 . S
C406 C405 1.376 . S
C406 C407 1.370 . S
C407 C406 1.370 . S
C407 C408 1.396 . S
C407 H434 0.929 . S
C408 C403 1.373 . S
C408 C407 1.396 . S
C408 H435 0.929 . S
C409 O422 1.240 . S
C409 O423 1.289 . S
C410 O424 1.258 . S
C410 O425 1.256 . S
C411 La401 2.928 . S
C411 C412 1.503 . S
C411 O426 1.261 . S
C411 O427 1.243 . S
C412 C411 1.503 . S
C412 C413 1.394 . S
C412 C417 1.373 . S
C413 C412 1.394 . S
C413 C414 1.380 . S
C413 H436 0.930 . S
C414 C413 1.380 . S
C414 C415 1.376 . S
C414 H437 0.930 . S
C415 C414 1.376 . S
C415 C416 1.370 . S
C416 C415 1.370 . S
C416 C417 1.396 . S
C416 H438 0.929 . S
C417 C412 1.373 . S
C417 C416 1.396 . S
C417 H439 0.929 . S
C418 O428 1.240 . S
C418 O429 1.289 . S
C419 O430 1.258 . S
C419 O431 1.256 . S
O420 La400 2.521 . S
O420 C402 1.261 . S
O421 La400 2.628 . S
O421 C402 1.243 . S
O422 La400 2.554 . S
O422 C409 1.240 . S
O423 La400 2.757 . S
O423 La401 2.482 . S
O423 C409 1.289 . S
O424 La400 2.470 . S
O424 C410 1.258 . S
O425 La401 2.503 . S
O425 C410 1.256 . S
O426 La401 2.521 . S
O426 C411 1.261 . S
O427 La401 2.628 . S
O427 C411 1.243 . S
O428 La401 2.554 . S
O428 C418 1.240 . S
O429 La400 2.482 . S
O429 La401 2.757 . S
O429 C418 1.289 . S
O430 La401 2.470 . S
O430 C419 1.258 . S
O431 La400 2.503 . S
O431 C419 1.256 . S
H432 C404 0.930 . S
H433 C405 0.930 . S
H434 C407 0.929 . S
H435 C408 0.929 . S
H436 C413 0.930 . S
H437 C414 0.930 . S
H438 C416 0.929 . S
H439 C417 0.929 . S
La440 C442 2.928 . S
La440 O460 2.521 . S
La440 O461 2.628 1_455 S
La440 O462 2.554 . S
La440 O463 2.757 . S
La440 O464 2.470 1_455 S
La440 O469 2.482 1_455 S
La440 O471 2.503 . S
La441 C451 2.928 . S
La441 O463 2.482 1_655 S
La441 O465 2.503 . S
La441 O466 2.521 . S
La441 O467 2.628 1_655 S
La441 O468 2.554 . S
La441 O469 2.757 . S
La441 O470 2.470 1_655 S
C442 La440 2.928 . S
C442 C443 1.503 1_455 S
C442 O460 1.261 . S
C442 O461 1.243 1_455 S
C443 C442 1.503 1_655 S
C443 C444 1.394 1_655 S
C443 C448 1.373 . S
C444 C443 1.394 1_455 S
C444 C445 1.380 . S
C444 H472 0.930 . S
C445 C444 1.380 . S
C445 C446 1.376 1_455 S
C445 H473 0.930 . S
C446 C445 1.376 1_655 S
C446 C447 1.370 . S
C447 C446 1.370 . S
C447 C448 1.396 . S
C447 H474 0.929 . S
C448 C443 1.373 . S
C448 C447 1.396 . S
C448 H475 0.929 . S
C449 O462 1.240 . S
C449 O463 1.289 . S
C450 O464 1.258 . S
C450 O465 1.256 . S
C451 La441 2.928 . S
C451 C452 1.503 1_655 S
C451 O466 1.261 . S
C451 O467 1.243 1_655 S
C452 C451 1.503 1_455 S
C452 C453 1.394 1_455 S
C452 C457 1.373 . S
C453 C452 1.394 1_655 S
C453 C454 1.380 . S
C453 H476 0.930 . S
C454 C453 1.380 . S
C454 C455 1.376 1_655 S
C454 H477 0.930 . S
C455 C454 1.376 1_455 S
C455 C456 1.370 . S
C456 C455 1.370 . S
C456 C457 1.396 . S
C456 H478 0.929 . S
C457 C452 1.373 . S
C457 C456 1.396 . S
C457 H479 0.929 . S
C458 O468 1.240 . S
C458 O469 1.289 . S
C459 O470 1.258 . S
C459 O471 1.256 . S
O460 La440 2.521 . S
O460 C442 1.261 . S
O461 La440 2.628 1_655 S
O461 C442 1.243 1_655 S
O462 La440 2.554 . S
O462 C449 1.240 . S
O463 La440 2.757 . S
O463 La441 2.482 1_455 S
O463 C449 1.289 . S
O464 La440 2.470 1_655 S
O464 C450 1.258 . S
O465 La441 2.503 . S
O465 C450 1.256 . S
O466 La441 2.521 . S
O466 C451 1.261 . S
O467 La441 2.628 1_455 S
O467 C451 1.243 1_455 S
O468 La441 2.554 . S
O468 C458 1.240 . S
O469 La440 2.482 1_655 S
O469 La441 2.757 . S
O469 C458 1.289 . S
O470 La441 2.470 1_455 S
O470 C459 1.258 . S
O471 La440 2.503 . S
O471 C459 1.256 . S
H472 C444 0.930 . S
H473 C445 0.930 . S
H474 C447 0.929 . S
H475 C448 0.929 . S
H476 C453 0.930 . S
H477 C454 0.930 . S
H478 C456 0.929 . S
H479 C457 0.929 . S
La480 C482 2.928 . S
La480 O500 2.521 . S
La480 O501 2.628 . S
La480 O502 2.554 . S
La480 O503 2.757 . S
La480 O504 2.470 . S
La480 O509 2.482 . S
La480 O511 2.503 . S
La481 C491 2.928 . S
La481 O503 2.482 . S
La481 O505 2.503 . S
La481 O506 2.521 . S
La481 O507 2.628 . S
La481 O508 2.554 . S
La481 O509 2.757 . S
La481 O510 2.470 . S
C482 La480 2.928 . S
C482 C483 1.503 . S
C482 O500 1.261 . S
C482 O501 1.243 . S
C483 C482 1.503 . S
C483 C484 1.394 . S
C483 C488 1.373 . S
C484 C483 1.394 . S
C484 C485 1.380 . S
C484 H512 0.930 . S
C485 C484 1.380 . S
C485 C486 1.376 . S
C485 H513 0.930 . S
C486 C485 1.376 . S
C486 C487 1.370 . S
C487 C486 1.370 . S
C487 C488 1.396 . S
C487 H514 0.929 . S
C488 C483 1.373 . S
C488 C487 1.396 . S
C488 H515 0.929 . S
C489 O502 1.240 . S
C489 O503 1.289 . S
C490 O504 1.258 . S
C490 O505 1.256 . S
C491 La481 2.928 . S
C491 C492 1.503 . S
C491 O506 1.261 . S
C491 O507 1.243 . S
C492 C491 1.503 . S
C492 C493 1.394 . S
C492 C497 1.373 . S
C493 C492 1.394 . S
C493 C494 1.380 . S
C493 H516 0.930 . S
C494 C493 1.380 . S
C494 C495 1.376 . S
C494 H517 0.930 . S
C495 C494 1.376 . S
C495 C496 1.370 . S
C496 C495 1.370 . S
C496 C497 1.396 . S
C496 H518 0.929 . S
C497 C492 1.373 . S
C497 C496 1.396 . S
C497 H519 0.929 . S
C498 O508 1.240 . S
C498 O509 1.289 . S
C499 O510 1.258 . S
C499 O511 1.256 . S
O500 La480 2.521 . S
O500 C482 1.261 . S
O501 La480 2.628 . S
O501 C482 1.243 . S
O502 La480 2.554 . S
O502 C489 1.240 . S
O503 La480 2.757 . S
O503 La481 2.482 . S
O503 C489 1.289 . S
O504 La480 2.470 . S
O504 C490 1.258 . S
O505 La481 2.503 . S
O505 C490 1.256 . S
O506 La481 2.521 . S
O506 C491 1.261 . S
O507 La481 2.628 . S
O507 C491 1.243 . S
O508 La481 2.554 . S
O508 C498 1.240 . S
O509 La480 2.482 . S
O509 La481 2.757 . S
O509 C498 1.289 . S
O510 La481 2.470 . S
O510 C499 1.258 . S
O511 La480 2.503 . S
O511 C499 1.256 . S
H512 C484 0.930 . S
H513 C485 0.930 . S
H514 C487 0.929 . S
H515 C488 0.929 . S
H516 C493 0.930 . S
H517 C494 0.930 . S
H518 C496 0.929 . S
H519 C497 0.929 . S
La520 C522 2.928 . S
La520 O540 2.521 . S
La520 O541 2.628 . S
La520 O542 2.554 . S
La520 O543 2.757 . S
La520 O544 2.470 1_556 S
La520 O549 2.482 1_556 S
La520 O551 2.503 . S
La521 C531 2.928 . S
La521 O543 2.482 1_554 S
La521 O545 2.503 . S
La521 O546 2.521 . S
La521 O547 2.628 . S
La521 O548 2.554 . S
La521 O549 2.757 . S
La521 O550 2.470 1_554 S
C522 La520 2.928 . S
C522 C523 1.503 . S
C522 O540 1.261 . S
C522 O541 1.243 . S
C523 C522 1.503 . S
C523 C524 1.394 . S
C523 C528 1.364 1_556 S
C524 C523 1.394 . S
C524 C525 1.380 . S
C524 H552 0.930 . S
C525 C524 1.380 . S
C525 C526 1.376 . S
C525 H553 0.930 . S
C526 C525 1.376 . S
C526 C527 1.348 1_556 S
C527 C526 1.348 1_554 S
C527 C528 1.398 . S
C527 H554 0.944 . S
C528 C523 1.364 1_554 S
C528 C527 1.398 . S
C528 H555 0.944 . S
C529 O542 1.240 . S
C529 O543 1.289 . S
C530 O544 1.258 . S
C530 O545 1.256 . S
C531 La521 2.928 . S
C531 C532 1.503 . S
C531 O546 1.261 . S
C531 O547 1.243 . S
C532 C531 1.503 . S
C532 C533 1.394 . S
C532 C537 1.377 . S
C533 C532 1.394 . S
C533 C534 1.380 . S
C533 H556 0.930 . S
C534 C533 1.380 . S
C534 C535 1.376 . S
C534 H557 0.930 . S
C535 C534 1.376 . S
C535 C536 1.367 . S
C536 C535 1.367 . S
C536 C537 1.398 . S
C536 H558 0.931 1_554 S
C537 C532 1.377 . S
C537 C536 1.398 . S
C537 H559 0.924 1_554 S
C538 O548 1.240 . S
C538 O549 1.289 . S
C539 O550 1.258 . S
C539 O551 1.256 . S
O540 La520 2.521 . S
O540 C522 1.261 . S
O541 La520 2.628 . S
O541 C522 1.243 . S
O542 La520 2.554 . S
O542 C529 1.240 . S
O543 La520 2.757 . S
O543 La521 2.482 1_556 S
O543 C529 1.289 . S
O544 La520 2.470 1_554 S
O544 C530 1.258 . S
O545 La521 2.503 . S
O545 C530 1.256 . S
O546 La521 2.521 . S
O546 C531 1.261 . S
O547 La521 2.628 . S
O547 C531 1.243 . S
O548 La521 2.554 . S
O548 C538 1.240 . S
O549 La520 2.482 1_554 S
O549 La521 2.757 . S
O549 C538 1.289 . S
O550 La521 2.470 1_556 S
O550 C539 1.258 . S
O551 La520 2.503 . S
O551 C539 1.256 . S
H552 C524 0.930 . S
H553 C525 0.930 . S
H554 C527 0.944 . S
H555 C528 0.944 . S
H556 C533 0.930 . S
H557 C534 0.930 . S
H558 C536 0.931 1_556 S
H559 C537 0.924 1_556 S
La560 C562 2.928 . S
La560 O580 2.521 . S
La560 O581 2.628 . S
La560 O582 2.554 . S
La560 O583 2.757 . S
La560 O584 2.470 . S
La560 O589 2.482 1_565 S
La560 O591 2.503 1_565 S
La561 C571 2.928 . S
La561 O583 2.482 1_545 S
La561 O585 2.503 1_545 S
La561 O586 2.521 . S
La561 O587 2.628 . S
La561 O588 2.554 . S
La561 O589 2.757 . S
La561 O590 2.470 . S
C562 La560 2.928 . S
C562 C563 1.503 . S
C562 O580 1.261 . S
C562 O581 1.243 . S
C563 C562 1.503 . S
C563 C564 1.394 . S
C563 C568 1.373 . S
C564 C563 1.394 . S
C564 C565 1.380 . S
C564 H592 0.930 . S
C565 C564 1.380 . S
C565 C566 1.376 . S
C565 H593 0.930 . S
C566 C565 1.376 . S
C566 C567 1.370 . S
C567 C566 1.370 . S
C567 C568 1.396 . S
C567 H594 0.929 . S
C568 C563 1.373 . S
C568 C567 1.396 . S
C568 H595 0.929 . S
C569 O582 1.240 . S
C569 O583 1.289 . S
C570 O584 1.258 . S
C570 O585 1.256 . S
C571 La561 2.928 . S
C571 C572 1.503 . S
C571 O586 1.261 . S
C571 O587 1.243 . S
C572 C571 1.503 . S
C572 C573 1.394 . S
C572 C577 1.373 . S
C573 C572 1.394 . S
C573 C574 1.380 . S
C573 H596 0.930 . S
C574 C573 1.380 . S
C574 C575 1.376 . S
C574 H597 0.930 . S
C575 C574 1.376 . S
C575 C576 1.370 . S
C576 C575 1.370 . S
C576 C577 1.396 . S
C576 H598 0.929 . S
C577 C572 1.373 . S
C577 C576 1.396 . S
C577 H599 0.929 . S
C578 O588 1.240 . S
C578 O589 1.289 . S
C579 O590 1.258 . S
C579 O591 1.256 . S
O580 La560 2.521 . S
O580 C562 1.261 . S
O581 La560 2.628 . S
O581 C562 1.243 . S
O582 La560 2.554 . S
O582 C569 1.240 . S
O583 La560 2.757 . S
O583 La561 2.482 1_565 S
O583 C569 1.289 . S
O584 La560 2.470 . S
O584 C570 1.258 . S
O585 La561 2.503 1_565 S
O585 C570 1.256 . S
O586 La561 2.521 . S
O586 C571 1.261 . S
O587 La561 2.628 . S
O587 C571 1.243 . S
O588 La561 2.554 . S
O588 C578 1.240 . S
O589 La560 2.482 1_545 S
O589 La561 2.757 . S
O589 C578 1.289 . S
O590 La561 2.470 . S
O590 C579 1.258 . S
O591 La560 2.503 1_545 S
O591 C579 1.256 . S
H592 C564 0.930 . S
H593 C565 0.930 . S
H594 C567 0.929 . S
H595 C568 0.929 . S
H596 C573 0.930 . S
H597 C574 0.930 . S
H598 C576 0.929 . S
H599 C577 0.929 . S
La600 C602 2.928 . S
La600 O620 2.521 . S
La600 O621 2.628 . S
La600 O622 2.554 . S
La600 O623 2.757 . S
La600 O624 2.485 . S
La600 O629 2.482 1_554 S
La600 O631 2.503 . S
La601 C611 2.928 . S
La601 O623 2.482 1_556 S
La601 O625 2.503 . S
La601 O626 2.521 . S
La601 O627 2.628 . S
La601 O628 2.554 . S
La601 O629 2.757 . S
La601 O630 2.470 1_556 S
C602 La600 2.928 . S
C602 C603 1.503 . S
C602 O620 1.261 . S
C602 O621 1.243 . S
C603 C602 1.503 . S
C603 C604 1.394 . S
C603 C608 1.373 . S
C604 C603 1.394 . S
C604 C605 1.380 . S
C604 H632 0.930 . S
C605 C604 1.380 . S
C605 C606 1.376 . S
C605 H633 0.930 . S
C606 C605 1.376 . S
C606 C607 1.370 . S
C607 C606 1.370 . S
C607 C608 1.396 . S
C607 H634 0.929 . S
C608 C603 1.373 . S
C608 C607 1.396 . S
C608 H635 0.929 . S
C609 O622 1.240 . S
C609 O623 1.289 . S
C610 O624 1.238 1_556 S
C610 O625 1.256 . S
C611 La601 2.928 . S
C611 C612 1.503 . S
C611 O626 1.261 . S
C611 O627 1.243 . S
C612 C611 1.503 . S
C612 C613 1.394 . S
C612 C617 1.373 . S
C613 C612 1.394 . S
C613 C614 1.380 . S
C613 H636 0.930 . S
C614 C613 1.380 . S
C614 C615 1.376 . S
C614 H637 0.930 . S
C615 C614 1.376 . S
C615 C616 1.370 . S
C616 C615 1.370 . S
C616 C617 1.396 . S
C616 H638 0.929 . S
C617 C612 1.373 . S
C617 C616 1.396 . S
C617 H639 0.929 . S
C618 O628 1.240 . S
C618 O629 1.289 . S
C619 O630 1.258 . S
C619 O631 1.256 . S
O620 La600 2.521 . S
O620 C602 1.261 . S
O621 La600 2.628 . S
O621 C602 1.243 . S
O622 La600 2.554 . S
O622 C609 1.240 . S
O623 La600 2.757 . S
O623 La601 2.482 1_554 S
O623 C609 1.289 . S
O624 La600 2.485 . S
O624 C610 1.238 1_554 S
O625 La601 2.503 . S
O625 C610 1.256 . S
O626 La601 2.521 . S
O626 C611 1.261 . S
O627 La601 2.628 . S
O627 C611 1.243 . S
O628 La601 2.554 . S
O628 C618 1.240 . S
O629 La600 2.482 1_556 S
O629 La601 2.757 . S
O629 C618 1.289 . S
O630 La601 2.470 1_554 S
O630 C619 1.258 . S
O631 La600 2.503 . S
O631 C619 1.256 . S
H632 C604 0.930 . S
H633 C605 0.930 . S
H634 C607 0.929 . S
H635 C608 0.929 . S
H636 C613 0.930 . S
H637 C614 0.930 . S
H638 C616 0.929 . S
H639 C617 0.929 . S
C640 C641 1.350 1_455 S
C640 C642 1.440 . S
C640 H644 0.929 . S
C641 C640 1.350 1_655 S
C641 C650 1.429 . S
C642 C640 1.440 . S
C642 C643 1.363 . S
C642 H645 0.929 . S
C643 C642 1.363 . S
C643 C649 1.428 1_455 S
H644 C640 0.929 . S
H645 C642 0.929 . S
S646 N647 1.613 . S
S646 N648 1.610 . S
N647 S646 1.613 . S
N647 C650 1.350 1_556 S
N648 S646 1.610 . S
N648 C649 1.351 1_556 S
C649 C643 1.428 1_655 S
C649 N648 1.351 1_554 S
C649 C650 1.434 . S
C650 C641 1.429 . S
C650 N647 1.350 1_554 S
C650 C649 1.434 . S
C651 C652 1.369 . S
C651 C653 1.419 . S
C651 H655 0.930 . S
C652 C651 1.369 . S
C652 C661 1.429 . S
C653 C651 1.419 . S
C653 C654 1.363 . S
C653 H656 0.929 . S
C654 C653 1.363 . S
C654 C660 1.428 . S
H655 C651 0.930 . S
H656 C653 0.929 . S
S657 N658 1.613 . S
S657 N659 1.610 . S
N658 S657 1.613 . S
N658 C661 1.350 . S
N659 S657 1.610 . S
N659 C660 1.351 . S
C660 C654 1.428 . S
C660 N659 1.351 . S
C660 C661 1.434 . S
C661 C652 1.429 . S
C661 N658 1.350 . S
C661 C660 1.434 . S
C662 C663 1.369 . S
C662 C664 1.419 . S
C662 H666 0.930 . S
C663 C662 1.369 . S
C663 C672 1.429 . S
C664 C662 1.419 . S
C664 C665 1.363 . S
C664 H667 0.929 . S
C665 C664 1.363 . S
C665 C671 1.428 . S
H666 C662 0.930 . S
H667 C664 0.929 . S
S668 N669 1.613 . S
S668 N670 1.610 . S
N669 S668 1.613 . S
N669 C672 1.350 . S
N670 S668 1.610 . S
N670 C671 1.351 . S
C671 C665 1.428 . S
C671 N670 1.351 . S
C671 C672 1.434 . S
C672 C663 1.429 . S
C672 N669 1.350 . S
C672 C671 1.434 . S
C673 C674 1.369 1_565 S
C673 C675 1.419 . S
C673 H677 0.930 . S
C674 C673 1.369 1_545 S
C674 C683 1.429 . S
C675 C673 1.419 . S
C675 C676 1.363 . S
C675 H678 0.929 . S
C676 C675 1.363 . S
C676 C682 1.428 1_565 S
H677 C673 0.930 . S
H678 C675 0.929 . S
S679 N680 1.613 . S
S679 N681 1.610 . S
N680 S679 1.613 . S
N680 C683 1.350 . S
N681 S679 1.610 . S
N681 C682 1.351 . S
C682 C676 1.428 1_545 S
C682 N681 1.351 . S
C682 C683 1.434 . S
C683 C674 1.429 . S
C683 N680 1.350 . S
C683 C682 1.434 . S
C684 C685 1.369 . S
C684 C686 1.419 . S
C684 H688 0.930 . S
C685 C684 1.369 . S
C685 C694 1.429 1_565 S
C686 C684 1.419 . S
C686 C687 1.363 1_565 S
C686 H689 0.929 . S
C687 C686 1.363 1_545 S
C687 C693 1.428 . S
H688 C684 0.930 . S
H689 C686 0.929 . S
S690 N691 1.613 . S
S690 N692 1.610 . S
N691 S690 1.613 . S
N691 C694 1.350 . S
N692 S690 1.610 . S
N692 C693 1.351 . S
C693 C687 1.428 . S
C693 N692 1.351 . S
C693 C694 1.434 . S
C694 C685 1.429 1_545 S
C694 N691 1.350 . S
C694 C693 1.434 . S
C695 C696 1.369 . S
C695 C697 1.419 1_455 S
C695 H699 0.930 . S
C696 C695 1.369 . S
C696 C705 1.429 . S
C697 C695 1.419 1_655 S
C697 C698 1.363 . S
C697 H700 0.929 . S
C698 C697 1.363 . S
C698 C704 1.428 1_655 S
H699 C695 0.930 . S
H700 C697 0.929 . S
S701 N702 1.613 . S
S701 N703 1.610 . S
N702 S701 1.613 . S
N702 C705 1.350 . S
N703 S701 1.610 . S
N703 C704 1.351 . S
C704 C698 1.428 1_455 S
C704 N703 1.351 . S
C704 C705 1.434 . S
C705 C696 1.429 . S
C705 N702 1.350 . S
C705 C704 1.434 . S
C706 C707 1.369 . S
C706 C708 1.419 . S
C706 H710 0.930 . S
C707 C706 1.369 . S
C707 C716 1.429 . S
C708 C706 1.419 . S
C708 C709 1.363 . S
C708 H711 0.929 . S
C709 C708 1.363 . S
C709 C715 1.428 . S
H710 C706 0.930 . S
H711 C708 0.929 . S
S712 N713 1.613 . S
S712 N714 1.610 . S
N713 S712 1.613 . S
N713 C716 1.350 . S
N714 S712 1.610 . S
N714 C715 1.351 . S
C715 C709 1.428 . S
C715 N714 1.351 . S
C715 C716 1.434 . S
C716 C707 1.429 . S
C716 N713 1.350 . S
C716 C715 1.434 . S
C717 C718 1.369 . S
C717 C719 1.419 . S
C717 H721 0.930 . S
C718 C717 1.369 . S
C718 C727 1.429 . S
C719 C717 1.419 . S
C719 C720 1.363 . S
C719 H722 0.929 . S
C720 C719 1.363 . S
C720 C726 1.428 . S
H721 C717 0.930 . S
H722 C719 0.929 . S
S723 N724 1.613 . S
S723 N725 1.610 . S
N724 S723 1.613 . S
N724 C727 1.350 . S
N725 S723 1.610 . S
N725 C726 1.351 . S
C726 C720 1.428 . S
C726 N725 1.351 . S
C726 C727 1.434 . S
C727 C718 1.429 . S
C727 N724 1.350 . S
C727 C726 1.434 . S
C728 C729 1.369 . S
C728 C730 1.419 . S
C728 H732 0.930 . S
C729 C728 1.369 . S
C729 C738 1.429 . S
C730 C728 1.419 . S
C730 C731 1.363 . S
C730 H733 0.929 . S
C731 C730 1.363 . S
C731 C737 1.428 . S
H732 C728 0.930 . S
H733 C730 0.929 . S
S734 N735 1.613 . S
S734 N736 1.610 . S
N735 S734 1.613 . S
N735 C738 1.350 . S
N736 S734 1.610 . S
N736 C737 1.351 . S
C737 C731 1.428 . S
C737 N736 1.351 . S
C737 C738 1.434 . S
C738 C729 1.429 . S
C738 N735 1.350 . S
C738 C737 1.434 . S
C739 C740 1.369 . S
C739 C741 1.419 . S
C739 H743 0.930 . S
C740 C739 1.369 . S
C740 C749 1.429 . S
C741 C739 1.419 . S
C741 C742 1.363 . S
C741 H744 0.929 . S
C742 C741 1.363 . S
C742 C748 1.428 . S
H743 C739 0.930 . S
H744 C741 0.929 . S
S745 N746 1.613 . S
S745 N747 1.610 . S
N746 S745 1.613 . S
N746 C749 1.350 . S
N747 S745 1.610 . S
N747 C748 1.351 . S
C748 C742 1.428 . S
C748 N747 1.351 . S
C748 C749 1.434 . S
C749 C740 1.429 . S
C749 N746 1.350 . S
C749 C748 1.434 . S
C750 C751 1.369 . S
C750 C752 1.419 . S
C750 H754 0.930 . S
C751 C750 1.369 . S
C751 C760 1.429 1_565 S
C752 C750 1.419 . S
C752 C753 1.363 1_565 S
C752 H755 0.929 . S
C753 C752 1.363 1_545 S
C753 C759 1.428 . S
H754 C750 0.930 . S
H755 C752 0.929 . S
S756 N757 1.613 . S
S756 N758 1.610 . S
N757 S756 1.613 . S
N757 C760 1.350 . S
N758 S756 1.610 . S
N758 C759 1.351 . S
C759 C753 1.428 . S
C759 N758 1.351 . S
C759 C760 1.434 . S
C760 C751 1.429 1_545 S
C760 N757 1.350 . S
C760 C759 1.434 . S
C761 C762 1.369 . S
C761 C763 1.419 . S
C761 H765 0.930 . S
C762 C761 1.369 . S
C762 C771 1.429 1_455 S
C763 C761 1.419 . S
C763 C764 1.363 1_455 S
C763 H766 0.929 . S
C764 C763 1.363 1_655 S
C764 C770 1.428 . S
H765 C761 0.930 . S
H766 C763 0.929 . S
S767 N768 1.613 . S
S767 N769 1.610 . S
N768 S767 1.613 . S
N768 C771 1.350 1_554 S
N769 S767 1.610 . S
N769 C770 1.351 1_554 S
C770 C764 1.428 . S
C770 N769 1.351 1_556 S
C770 C771 1.434 . S
C771 C762 1.429 1_655 S
C771 N768 1.350 1_556 S
C771 C770 1.434 . S
C772 C773 1.369 . S
C772 C774 1.419 . S
C772 H776 0.930 . S
C773 C772 1.369 . S
C773 C782 1.429 . S
C774 C772 1.419 . S
C774 C775 1.363 . S
C774 H777 0.929 . S
C775 C774 1.363 . S
C775 C781 1.428 . S
H776 C772 0.930 . S
H777 C774 0.929 . S
S778 N779 1.613 . S
S778 N780 1.610 . S
N779 S778 1.613 . S
N779 C782 1.350 . S
N780 S778 1.610 . S
N780 C781 1.351 . S
C781 C775 1.428 . S
C781 N780 1.351 . S
C781 C782 1.434 . S
C782 C773 1.429 . S
C782 N779 1.350 . S
C782 C781 1.434 . S
C783 C784 1.369 . S
C783 C785 1.419 . S
C783 H787 0.930 . S
C784 C783 1.369 . S
C784 C793 1.429 . S
C785 C783 1.419 . S
C785 C786 1.363 . S
C785 H788 0.929 . S
C786 C785 1.363 . S
C786 C792 1.428 . S
H787 C783 0.930 . S
H788 C785 0.929 . S
S789 N790 1.613 . S
S789 N791 1.610 . S
N790 S789 1.613 . S
N790 C793 1.350 . S
N791 S789 1.610 . S
N791 C792 1.351 . S
C792 C786 1.428 . S
C792 N791 1.351 . S
C792 C793 1.434 . S
C793 C784 1.429 . S
C793 N790 1.350 . S
C793 C792 1.434 . S
C794 C795 1.369 . S
C794 C796 1.419 . S
C794 H798 0.930 . S
C795 C794 1.369 . S
C795 C804 1.429 . S
C796 C794 1.419 . S
C796 C797 1.363 . S
C796 H799 0.929 . S
C797 C796 1.363 . S
C797 C803 1.428 . S
H798 C794 0.930 . S
H799 C796 0.929 . S
S800 N801 1.613 . S
S800 N802 1.610 . S
N801 S800 1.613 . S
N801 C804 1.350 . S
N802 S800 1.610 . S
N802 C803 1.351 . S
C803 C797 1.428 . S
C803 N802 1.351 . S
C803 C804 1.434 . S
C804 C795 1.429 . S
C804 N801 1.350 . S
C804 C803 1.434 . S
C805 C806 1.369 . S
C805 C807 1.419 . S
C805 H809 0.930 . S
C806 C805 1.369 . S
C806 C815 1.429 . S
C807 C805 1.419 . S
C807 C808 1.363 . S
C807 H810 0.929 . S
C808 C807 1.363 . S
C808 C814 1.428 . S
H809 C805 0.930 . S
H810 C807 0.929 . S
S811 N812 1.613 . S
S811 N813 1.610 . S
N812 S811 1.613 . S
N812 C815 1.350 . S
N813 S811 1.610 . S
N813 C814 1.351 . S
C814 C808 1.428 . S
C814 N813 1.351 . S
C814 C815 1.434 . S
C815 C806 1.429 . S
C815 N812 1.350 . S
C815 C814 1.434 . S
C816 C817 1.369 . S
C816 C818 1.419 . S
C816 H820 0.930 . S
C817 C816 1.369 . S
C817 C826 1.429 . S
C818 C816 1.419 . S
C818 C819 1.363 . S
C818 H821 0.929 . S
C819 C818 1.363 . S
C819 C825 1.428 . S
H820 C816 0.930 . S
H821 C818 0.929 . S
S822 N823 1.613 . S
S822 N824 1.610 . S
N823 S822 1.613 . S
N823 C826 1.350 . S
N824 S822 1.610 . S
N824 C825 1.351 . S
C825 C819 1.428 . S
C825 N824 1.351 . S
C825 C826 1.434 . S
C826 C817 1.429 . S
C826 N823 1.350 . S
C826 C825 1.434 . S
C827 C828 1.369 . S
C827 C829 1.419 . S
C827 H831 0.930 . S
C828 C827 1.369 . S
C828 C837 1.429 . S
C829 C827 1.419 . S
C829 C830 1.363 . S
C829 H832 0.929 . S
C830 C829 1.363 . S
C830 C836 1.428 . S
H831 C827 0.930 . S
H832 C829 0.929 . S
S833 N834 1.613 . S
S833 N835 1.610 . S
N834 S833 1.613 . S
N834 C837 1.350 . S
N835 S833 1.610 . S
N835 C836 1.351 . S
C836 C830 1.428 . S
C836 N835 1.351 . S
C836 C837 1.434 . S
C837 C828 1.429 . S
C837 N834 1.350 . S
C837 C836 1.434 . S
C838 C839 1.369 . S
C838 C840 1.419 . S
C838 H842 0.930 . S
C839 C838 1.369 . S
C839 C848 1.429 . S
C840 C838 1.419 . S
C840 C841 1.363 . S
C840 H843 0.929 . S
C841 C840 1.363 . S
C841 C847 1.428 . S
H842 C838 0.930 . S
H843 C840 0.929 . S
S844 N845 1.613 . S
S844 N846 1.610 . S
N845 S844 1.613 . S
N845 C848 1.350 . S
N846 S844 1.610 . S
N846 C847 1.351 . S
C847 C841 1.428 . S
C847 N846 1.351 . S
C847 C848 1.434 . S
C848 C839 1.429 . S
C848 N845 1.350 . S
C848 C847 1.434 . S
C849 C850 1.369 . S
C849 C851 1.419 . S
C849 H853 0.930 . S
C850 C849 1.369 . S
C850 C859 1.429 . S
C851 C849 1.419 . S
C851 C852 1.363 . S
C851 H854 0.929 . S
C852 C851 1.363 . S
C852 C858 1.428 . S
H853 C849 0.930 . S
H854 C851 0.929 . S
S855 N856 1.613 . S
S855 N857 1.610 . S
N856 S855 1.613 . S
N856 C859 1.350 . S
N857 S855 1.610 . S
N857 C858 1.351 . S
C858 C852 1.428 . S
C858 N857 1.351 . S
C858 C859 1.434 . S
C859 C850 1.429 . S
C859 N856 1.350 . S
C859 C858 1.434 . S
C860 C861 1.369 . S
C860 C862 1.419 . S
C860 H864 0.930 . S
C861 C860 1.369 . S
C861 C870 1.429 . S
C862 C860 1.419 . S
C862 C863 1.363 . S
C862 H865 0.929 . S
C863 C862 1.363 . S
C863 C869 1.428 . S
H864 C860 0.930 . S
H865 C862 0.929 . S
S866 N867 1.613 . S
S866 N868 1.610 . S
N867 S866 1.613 . S
N867 C870 1.350 . S
N868 S866 1.610 . S
N868 C869 1.351 . S
C869 C863 1.428 . S
C869 N868 1.351 . S
C869 C870 1.434 . S
C870 C861 1.429 . S
C870 N867 1.350 . S
C870 C869 1.434 . S
C871 C872 1.369 1_655 S
C871 C873 1.419 . S
C871 H875 0.930 . S
C872 C871 1.369 1_455 S
C872 C881 1.429 . S
C873 C871 1.419 . S
C873 C874 1.363 . S
C873 H876 0.929 . S
C874 C873 1.363 . S
C874 C880 1.428 . S
H875 C871 0.930 . S
H876 C873 0.929 . S
S877 N878 1.613 . S
S877 N879 1.613 1_455 S
N878 S877 1.613 . S
N878 C881 1.350 . S
N879 S877 1.613 1_655 S
N879 C880 1.352 . S
C880 C874 1.428 . S
C880 N879 1.352 . S
C880 C881 1.434 1_655 S
C881 C872 1.429 . S
C881 N878 1.350 . S
C881 C880 1.434 1_455 S
C882 C883 1.369 . S
C882 C884 1.419 . S
C882 H886 0.930 . S
C883 C882 1.369 . S
C883 C892 1.429 . S
C884 C882 1.419 . S
C884 C885 1.363 . S
C884 H887 0.929 . S
C885 C884 1.363 . S
C885 C891 1.428 . S
H886 C882 0.930 . S
H887 C884 0.929 . S
S888 N889 1.613 . S
S888 N890 1.610 . S
N889 S888 1.613 . S
N889 C892 1.350 . S
N890 S888 1.610 . S
N890 C891 1.351 . S
C891 C885 1.428 . S
C891 N890 1.351 . S
C891 C892 1.434 . S
C892 C883 1.429 . S
C892 N889 1.350 . S
C892 C891 1.434 . S
C893 C894 1.369 . S
C893 C895 1.419 . S
C893 H897 0.930 . S
C894 C893 1.369 . S
C894 C903 1.429 . S
C895 C893 1.419 . S
C895 C896 1.363 . S
C895 H898 0.929 . S
C896 C895 1.363 . S
C896 C902 1.428 . S
H897 C893 0.930 . S
H898 C895 0.929 . S
S899 N900 1.613 . S
S899 N901 1.610 . S
N900 S899 1.613 . S
N900 C903 1.350 . S
N901 S899 1.610 . S
N901 C902 1.351 . S
C902 C896 1.428 . S
C902 N901 1.351 . S
C902 C903 1.434 . S
C903 C894 1.429 . S
C903 N900 1.350 . S
C903 C902 1.434 . S
C904 C905 1.369 . S
C904 C906 1.419 . S
C904 H908 0.930 . S
C905 C904 1.369 . S
C905 C914 1.429 . S
C906 C904 1.419 . S
C906 C907 1.363 . S
C906 H909 0.929 . S
C907 C906 1.363 . S
C907 C913 1.428 . S
H908 C904 0.930 . S
H909 C906 0.929 . S
S910 N911 1.613 . S
S910 N912 1.610 . S
N911 S910 1.613 . S
N911 C914 1.350 . S
N912 S910 1.610 . S
N912 C913 1.351 . S
C913 C907 1.428 . S
C913 N912 1.351 . S
C913 C914 1.434 . S
C914 C905 1.429 . S
C914 N911 1.350 . S
C914 C913 1.434 . S
C915 C916 1.369 . S
C915 C917 1.419 . S
C915 H919 0.930 . S
C916 C915 1.369 . S
C916 C925 1.429 . S
C917 C915 1.419 . S
C917 C918 1.363 . S
C917 H920 0.929 . S
C918 C917 1.363 . S
C918 C924 1.428 . S
H919 C915 0.930 . S
H920 C917 0.929 . S
S921 N922 1.613 . S
S921 N923 1.610 . S
N922 S921 1.613 . S
N922 C925 1.350 . S
N923 S921 1.610 . S
N923 C924 1.351 . S
C924 C918 1.428 . S
C924 N923 1.351 . S
C924 C925 1.434 . S
C925 C916 1.429 . S
C925 N922 1.350 . S
C925 C924 1.434 . S
C926 C927 1.369 . S
C926 C928 1.419 . S
C926 H930 0.930 . S
C927 C926 1.369 . S
C927 C936 1.429 1_565 S
C928 C926 1.419 . S
C928 C929 1.363 1_565 S
C928 H931 0.929 . S
C929 C928 1.363 1_545 S
C929 C935 1.428 . S
H930 C926 0.930 . S
H931 C928 0.929 . S
S932 N933 1.613 . S
S932 N934 1.610 . S
N933 S932 1.613 . S
N933 C936 1.350 . S
N934 S932 1.610 . S
N934 C935 1.351 . S
C935 C929 1.428 . S
C935 N934 1.351 . S
C935 C936 1.434 . S
C936 C927 1.429 1_545 S
C936 N933 1.350 . S
C936 C935 1.434 . S
C937 C938 1.369 . S
C937 C939 1.419 . S
C937 H941 0.930 1_554 S
C938 C937 1.369 . S
C938 C947 1.429 . S
C939 C937 1.419 . S
C939 C940 1.363 . S
C939 H942 0.929 . S
C940 C939 1.363 . S
C940 C946 1.428 . S
H941 C937 0.930 1_556 S
H942 C939 0.929 . S
S943 N944 1.613 . S
S943 N945 1.610 . S
N944 S943 1.613 . S
N944 C947 1.350 . S
N945 S943 1.610 . S
N945 C946 1.351 . S
C946 C940 1.428 . S
C946 N945 1.351 . S
C946 C947 1.434 . S
C947 C938 1.429 . S
C947 N944 1.350 . S
C947 C946 1.434 . S
C948 C949 1.369 . S
C948 C950 1.419 . S
C948 H952 0.930 . S
C949 C948 1.369 . S
C949 C958 1.429 . S
C950 C948 1.419 . S
C950 C951 1.363 . S
C950 H953 0.929 . S
C951 C950 1.363 . S
C951 C957 1.428 . S
H952 C948 0.930 . S
H953 C950 0.929 . S
S954 N955 1.613 . S
S954 N956 1.610 . S
N955 S954 1.613 . S
N955 C958 1.350 . S
N956 S954 1.610 . S
N956 C957 1.351 . S
C957 C951 1.428 . S
C957 N956 1.351 . S
C957 C958 1.434 . S
C958 C949 1.429 . S
C958 N955 1.350 . S
C958 C957 1.434 . S
C959 C960 1.369 . S
C959 C961 1.419 . S
C959 H963 0.930 . S
C960 C959 1.369 . S
C960 C969 1.429 . S
C961 C959 1.419 . S
C961 C962 1.363 . S
C961 H964 0.929 . S
C962 C961 1.363 . S
C962 C968 1.428 . S
H963 C959 0.930 . S
H964 C961 0.929 . S
S965 N966 1.613 . S
S965 N967 1.610 . S
N966 S965 1.613 . S
N966 C969 1.350 . S
N967 S965 1.610 . S
N967 C968 1.351 . S
C968 C962 1.428 . S
C968 N967 1.351 . S
C968 C969 1.434 . S
C969 C960 1.429 . S
C969 N966 1.350 . S
C969 C968 1.434 . S
C970 C971 1.369 . S
C970 C972 1.419 . S
C970 H974 0.930 . S
C971 C970 1.369 . S
C971 C980 1.429 . S
C972 C970 1.419 . S
C972 C973 1.363 . S
C972 H975 0.929 . S
C973 C972 1.363 . S
C973 C979 1.428 . S
H974 C970 0.930 . S
H975 C972 0.929 . S
S976 N977 1.613 . S
S976 N978 1.610 . S
N977 S976 1.613 . S
N977 C980 1.350 . S
N978 S976 1.610 . S
N978 C979 1.351 . S
C979 C973 1.428 . S
C979 N978 1.351 . S
C979 C980 1.434 . S
C980 C971 1.429 . S
C980 N977 1.350 . S
C980 C979 1.434 . S
C981 C982 1.369 . S
C981 C983 1.419 . S
C981 H985 0.930 . S
C982 C981 1.369 . S
C982 C991 1.429 . S
C983 C981 1.419 . S
C983 C984 1.363 . S
C983 H986 0.929 . S
C984 C983 1.363 . S
C984 C990 1.428 . S
H985 C981 0.930 . S
H986 C983 0.929 . S
S987 N988 1.613 . S
S987 N989 1.610 . S
N988 S987 1.613 . S
N988 C991 1.350 . S
N989 S987 1.610 . S
N989 C990 1.351 . S
C990 C984 1.428 . S
C990 N989 1.351 . S
C990 C991 1.434 . S
C991 C982 1.429 . S
C991 N988 1.350 . S
C991 C990 1.434 . S
C992 C993 1.369 . S
C992 C994 1.419 . S
C992 H996 0.930 . S
C993 C992 1.369 . S
C993 C1002 1.429 . S
C994 C992 1.419 . S
C994 C995 1.363 . S
C994 H997 0.929 . S
C995 C994 1.363 . S
C995 C1001 1.428 . S
H996 C992 0.930 . S
H997 C994 0.929 . S
S998 N999 1.613 . S
S998 N1000 1.610 . S
N999 S998 1.613 . S
N999 C1002 1.350 . S
N1000 S998 1.610 . S
N1000 C1001 1.351 . S
C1001 C995 1.428 . S
C1001 N1000 1.351 . S
C1001 C1002 1.434 . S
C1002 C993 1.429 . S
C1002 N999 1.350 . S
C1002 C1001 1.434 . S
C1003 C1004 1.369 . S
C1003 C1005 1.419 . S
C1003 H1007 0.930 . S
C1004 C1003 1.369 . S
C1004 C1013 1.429 . S
C1005 C1003 1.419 . S
C1005 C1006 1.363 . S
C1005 H1008 0.929 . S
C1006 C1005 1.363 . S
C1006 C1012 1.428 . S
H1007 C1003 0.930 . S
H1008 C1005 0.929 . S
S1009 N1010 1.613 . S
S1009 N1011 1.610 . S
N1010 S1009 1.613 . S
N1010 C1013 1.350 . S
N1011 S1009 1.610 . S
N1011 C1012 1.351 . S
C1012 C1006 1.428 . S
C1012 N1011 1.351 . S
C1012 C1013 1.434 . S
C1013 C1004 1.429 . S
C1013 N1010 1.350 . S
C1013 C1012 1.434 . S
C1014 C1015 1.369 . S
C1014 C1016 1.419 . S
C1014 H1018 0.930 . S
C1015 C1014 1.369 . S
C1015 C1024 1.429 . S
C1016 C1014 1.419 . S
C1016 C1017 1.363 . S
C1016 H1019 0.929 . S
C1017 C1016 1.363 . S
C1017 C1023 1.428 . S
H1018 C1014 0.930 . S
H1019 C1016 0.929 . S
S1020 N1021 1.613 . S
S1020 N1022 1.610 . S
N1021 S1020 1.613 . S
N1021 C1024 1.350 . S
N1022 S1020 1.610 . S
N1022 C1023 1.351 . S
C1023 C1017 1.428 . S
C1023 N1022 1.351 . S
C1023 C1024 1.434 . S
C1024 C1015 1.429 . S
C1024 N1021 1.350 . S
C1024 C1023 1.434 . S
C1025 C1026 1.369 . S
C1025 C1027 1.419 . S
C1025 H1029 0.930 . S
C1026 C1025 1.369 . S
C1026 C1035 1.429 . S
C1027 C1025 1.419 . S
C1027 C1028 1.363 . S
C1027 H1030 0.929 . S
C1028 C1027 1.363 . S
C1028 C1034 1.428 . S
H1029 C1025 0.930 . S
H1030 C1027 0.929 . S
S1031 N1032 1.613 . S
S1031 N1033 1.610 . S
N1032 S1031 1.613 . S
N1032 C1035 1.350 . S
N1033 S1031 1.610 . S
N1033 C1034 1.351 . S
C1034 C1028 1.428 . S
C1034 N1033 1.351 . S
C1034 C1035 1.434 . S
C1035 C1026 1.429 . S
C1035 N1032 1.350 . S
C1035 C1034 1.434 . S
C1036 C1037 1.369 . S
C1036 C1038 1.419 . S
C1036 H1040 0.930 1_554 S
C1037 C1036 1.369 . S
C1037 C1046 1.429 . S
C1038 C1036 1.419 . S
C1038 C1039 1.363 . S
C1038 H1041 0.929 1_554 S
C1039 C1038 1.363 . S
C1039 C1045 1.428 . S
H1040 C1036 0.930 1_556 S
H1041 C1038 0.929 1_556 S
S1042 N1043 1.613 . S
S1042 N1044 1.610 . S
N1043 S1042 1.613 . S
N1043 C1046 1.350 . S
N1044 S1042 1.610 . S
N1044 C1045 1.351 . S
C1045 C1039 1.428 . S
C1045 N1044 1.351 . S
C1045 C1046 1.434 . S
C1046 C1037 1.429 . S
C1046 N1043 1.350 . S
C1046 C1045 1.434 . S
C1047 C1048 1.369 . S
C1047 C1049 1.419 . S
C1047 H1051 0.930 . S
C1048 C1047 1.369 . S
C1048 C1057 1.429 . S
C1049 C1047 1.419 . S
C1049 C1050 1.363 . S
C1049 H1052 0.929 . S
C1050 C1049 1.363 . S
C1050 C1056 1.428 . S
H1051 C1047 0.930 . S
H1052 C1049 0.929 . S
S1053 N1054 1.613 . S
S1053 N1055 1.610 . S
N1054 S1053 1.613 . S
N1054 C1057 1.350 . S
N1055 S1053 1.610 . S
N1055 C1056 1.351 . S
C1056 C1050 1.428 . S
C1056 N1055 1.351 . S
C1056 C1057 1.434 . S
C1057 C1048 1.429 . S
C1057 N1054 1.350 . S
C1057 C1056 1.434 . S
C1058 C1059 1.369 . S
C1058 C1060 1.419 . S
C1058 H1062 0.930 . S
C1059 C1058 1.369 . S
C1059 C1068 1.429 . S
C1060 C1058 1.419 . S
C1060 C1061 1.363 . S
C1060 H1063 0.929 . S
C1061 C1060 1.363 . S
C1061 C1067 1.428 . S
H1062 C1058 0.930 . S
H1063 C1060 0.929 . S
S1064 N1065 1.613 . S
S1064 N1066 1.610 . S
N1065 S1064 1.613 . S
N1065 C1068 1.350 . S
N1066 S1064 1.610 . S
N1066 C1067 1.351 . S
C1067 C1061 1.428 . S
C1067 N1066 1.351 . S
C1067 C1068 1.434 . S
C1068 C1059 1.429 . S
C1068 N1065 1.350 . S
C1068 C1067 1.434 . S
C1069 C1070 1.369 . S
C1069 C1071 1.419 . S
C1069 H1073 0.930 . S
C1070 C1069 1.369 . S
C1070 C1079 1.429 . S
C1071 C1069 1.419 . S
C1071 C1072 1.363 . S
C1071 H1074 0.929 . S
C1072 C1071 1.363 . S
C1072 C1078 1.428 . S
H1073 C1069 0.930 . S
H1074 C1071 0.929 . S
S1075 N1076 1.613 . S
S1075 N1077 1.610 . S
N1076 S1075 1.613 . S
N1076 C1079 1.350 . S
N1077 S1075 1.610 . S
N1077 C1078 1.351 . S
C1078 C1072 1.428 . S
C1078 N1077 1.351 . S
C1078 C1079 1.434 . S
C1079 C1070 1.429 . S
C1079 N1076 1.350 . S
C1079 C1078 1.434 . S
C1080 C1081 1.369 . S
C1080 C1082 1.419 . S
C1080 H1084 0.930 . S
C1081 C1080 1.369 . S
C1081 C1090 1.429 . S
C1082 C1080 1.419 . S
C1082 C1083 1.363 . S
C1082 H1085 0.929 . S
C1083 C1082 1.363 . S
C1083 C1089 1.428 . S
H1084 C1080 0.930 . S
H1085 C1082 0.929 . S
S1086 N1087 1.613 . S
S1086 N1088 1.610 . S
N1087 S1086 1.613 . S
N1087 C1090 1.350 . S
N1088 S1086 1.610 . S
N1088 C1089 1.351 . S
C1089 C1083 1.428 . S
C1089 N1088 1.351 . S
C1089 C1090 1.434 . S
C1090 C1081 1.429 . S
C1090 N1087 1.350 . S
C1090 C1089 1.434 . S
C1091 C1092 1.369 . S
C1091 C1093 1.419 . S
C1091 H1095 0.930 . S
C1092 C1091 1.369 . S
C1092 C1101 1.429 . S
C1093 C1091 1.419 . S
C1093 C1094 1.363 . S
C1093 H1096 0.929 1_556 S
C1094 C1093 1.363 . S
C1094 C1100 1.428 . S
H1095 C1091 0.930 . S
H1096 C1093 0.929 1_554 S
S1097 N1098 1.613 . S
S1097 N1099 1.610 . S
N1098 S1097 1.613 . S
N1098 C1101 1.350 . S
N1099 S1097 1.610 . S
N1099 C1100 1.351 . S
C1100 C1094 1.428 . S
C1100 N1099 1.351 . S
C1100 C1101 1.434 . S
C1101 C1092 1.429 . S
C1101 N1098 1.350 . S
C1101 C1100 1.434 . S
C1102 C1103 1.369 . S
C1102 C1104 1.419 . S
C1102 H1106 0.930 . S
C1103 C1102 1.369 . S
C1103 C1112 1.429 . S
C1104 C1102 1.419 . S
C1104 C1105 1.363 . S
C1104 H1107 0.929 . S
C1105 C1104 1.363 . S
C1105 C1111 1.428 . S
H1106 C1102 0.930 . S
H1107 C1104 0.929 . S
S1108 N1109 1.613 . S
S1108 N1110 1.610 1_554 S
N1109 S1108 1.613 . S
N1109 C1112 1.350 1_554 S
N1110 S1108 1.610 1_556 S
N1110 C1111 1.351 . S
C1111 C1105 1.428 . S
C1111 N1110 1.351 . S
C1111 C1112 1.434 . S
C1112 C1103 1.429 . S
C1112 N1109 1.350 1_556 S
C1112 C1111 1.434 . S
C1113 C1114 1.369 . S
C1113 C1115 1.419 . S
C1113 H1117 0.930 . S
C1114 C1113 1.369 . S
C1114 C1123 1.429 . S
C1115 C1113 1.419 . S
C1115 C1116 1.363 . S
C1115 H1118 0.929 . S
C1116 C1115 1.363 . S
C1116 C1122 1.428 . S
H1117 C1113 0.930 . S
H1118 C1115 0.929 . S
S1119 N1120 1.613 . S
S1119 N1121 1.610 . S
N1120 S1119 1.613 . S
N1120 C1123 1.350 . S
N1121 S1119 1.610 . S
N1121 C1122 1.351 . S
C1122 C1116 1.428 . S
C1122 N1121 1.351 . S
C1122 C1123 1.434 . S
C1123 C1114 1.429 . S
C1123 N1120 1.350 . S
C1123 C1122 1.434 . S
C1124 C1125 1.369 . S
C1124 C1126 1.419 . S
C1124 H1128 0.930 . S
C1125 C1124 1.369 . S
C1125 C1134 1.429 . S
C1126 C1124 1.419 . S
C1126 C1127 1.363 . S
C1126 H1129 0.929 . S
C1127 C1126 1.363 . S
C1127 C1133 1.428 . S
H1128 C1124 0.930 . S
H1129 C1126 0.929 . S
S1130 N1131 1.613 . S
S1130 N1132 1.610 . S
N1131 S1130 1.613 . S
N1131 C1134 1.350 . S
N1132 S1130 1.610 . S
N1132 C1133 1.351 . S
C1133 C1127 1.428 . S
C1133 N1132 1.351 . S
C1133 C1134 1.434 . S
C1134 C1125 1.429 . S
C1134 N1131 1.350 . S
C1134 C1133 1.434 . S
C1135 C1136 1.369 . S
C1135 C1137 1.419 . S
C1135 H1139 0.930 . S
C1136 C1135 1.369 . S
C1136 C1145 1.429 . S
C1137 C1135 1.419 . S
C1137 C1138 1.363 . S
C1137 H1140 0.929 . S
C1138 C1137 1.363 . S
C1138 C1144 1.428 . S
H1139 C1135 0.930 . S
H1140 C1137 0.929 . S
S1141 N1142 1.613 . S
S1141 N1143 1.610 . S
N1142 S1141 1.613 . S
N1142 C1145 1.350 . S
N1143 S1141 1.610 . S
N1143 C1144 1.351 . S
C1144 C1138 1.428 . S
C1144 N1143 1.351 . S
C1144 C1145 1.434 . S
C1145 C1136 1.429 . S
C1145 N1142 1.350 . S
C1145 C1144 1.434 . S
C1146 C1147 1.369 . S
C1146 C1148 1.419 . S
C1146 H1150 0.930 . S
C1147 C1146 1.369 . S
C1147 C1156 1.429 . S
C1148 C1146 1.419 . S
C1148 C1149 1.363 . S
C1148 H1151 0.929 . S
C1149 C1148 1.363 . S
C1149 C1155 1.428 . S
H1150 C1146 0.930 . S
H1151 C1148 0.929 . S
S1152 N1153 1.613 . S
S1152 N1154 1.610 . S
N1153 S1152 1.613 . S
N1153 C1156 1.350 . S
N1154 S1152 1.610 . S
N1154 C1155 1.351 . S
C1155 C1149 1.428 . S
C1155 N1154 1.351 . S
C1155 C1156 1.434 . S
C1156 C1147 1.429 . S
C1156 N1153 1.350 . S
C1156 C1155 1.434 . S
C1157 C1158 1.369 . S
C1157 C1159 1.419 . S
C1157 H1161 0.930 . S
C1158 C1157 1.369 . S
C1158 C1167 1.429 . S
C1159 C1157 1.419 . S
C1159 C1160 1.363 . S
C1159 H1162 0.929 . S
C1160 C1159 1.363 . S
C1160 C1166 1.428 . S
H1161 C1157 0.930 . S
H1162 C1159 0.929 . S
S1163 N1164 1.613 . S
S1163 N1165 1.610 . S
N1164 S1163 1.613 . S
N1164 C1167 1.350 1_556 S
N1165 S1163 1.610 . S
N1165 C1166 1.351 1_556 S
C1166 C1160 1.428 . S
C1166 N1165 1.351 1_554 S
C1166 C1167 1.434 . S
C1167 C1158 1.429 . S
C1167 N1164 1.350 1_554 S
C1167 C1166 1.434 . S
C641 C19 1.664 . S
C643 C55 1.549 . S
C652 C99 2.090 . S
C654 C50 2.012 . S
C663 C130 2.402 . S
C665 C98 2.485 . S
C674 C18 1.918 . S
C676 C135 1.782 . S
C685 C9 1.909 . S
C687 C366 1.785 . S
C696 C290 1.672 . S
C698 C46 1.540 . S
C707 C90 2.090 . S
C709 C419 2.012 . S
C718 C139 2.405 . S
C720 C529 2.483 . S
C729 C330 2.089 . S
C731 C59 2.014 . S
C740 C499 2.409 . S
C742 C89 2.484 . S
C751 C569 1.911 . S
C753 C126 1.788 . S
C762 C10 1.664 . S
C764 C446 1.550 . S
C773 C15 0.704 . S
C775 C326 0.582 . S
C784 C498 1.846 . S
C786 C169 1.861 . S
C795 C215 0.581 . S
C797 C566 0.711 . S
C806 C449 1.859 . S
C808 C258 1.844 . S
C817 C95 0.584 . S
C819 C286 0.700 . S
C828 C369 1.848 . S
C830 C178 1.862 . S
C839 C249 1.848 . S
C841 C418 1.863 . S
C850 C210 2.090 . S
C852 C459 2.012 . S
C861 C379 2.403 . S
C863 C209 2.484 . S
C872 C455 1.550 . S
C874 C299 1.665 . S
C883 C219 2.089 . S
C885 C170 2.014 . S
C894 C370 2.409 . S
C896 C338 2.485 . S
C905 C539 2.090 . S
C907 C450 2.012 . S
C916 C250 2.402 . S
C918 C218 2.486 . S
C927 C375 1.776 . S
C929 C578 1.918 . S
C938 C535 0.576 . S
C940 C6 0.709 . S
C949 C86 0.604 . S
C951 C575 0.687 . S
C960 C489 1.849 . S
C962 C58 1.863 . S
C971 C295 0.710 . S
C973 C206 0.592 . S
C982 C138 1.849 . S
C984 C409 1.863 . S
C993 C490 2.406 . S
C995 C538 2.486 . S
C1004 C298 1.919 . S
C1006 C495 1.778 . S
C1015 C246 1.784 . S
C1017 C289 1.910 . S
C1026 C179 2.018 . S
C1028 C530 2.090 . S
C1037 C486 1.776 . S
C1039 C609 1.916 . S
C1048 C606 0.697 . S
C1050 C335 0.599 . S
C1059 C49 1.863 . S
C1061 C378 1.848 . S
C1070 C329 2.486 . S
C1072 C259 2.408 . S
C1081 C339 2.089 . S
C1083 C410 2.017 . S
C1092 C618 1.919 . S
C1094 C255 1.779 . S
C1103 C526 0.604 . S
C1105 C615 0.687 . S
C1114 C458 1.859 . S
C1116 C129 1.844 . S
C1125 C415 1.545 . S
C1127 C579 1.668 . S
C1136 C406 1.541 . S
C1138 C610 1.671 . S
C1147 C166 1.543 . S
C1149 C570 1.668 . S
C1158 C619 1.663 . S
C1160 C175 1.550 . S
