# Generated by pormake.
# Topology bcu, (8)-cn, num edge types: 1
# Building blocks:
#     Node 0, Type 0, BuildingBlock: AJUNOK_clean_sbu_0, # of connection points: 8
#     Node 1, Type 0, BuildingBlock: AJUNOK_clean_sbu_0, # of connection points: 8
#     Edge 2, Type (0, 0), BuildingBlock: XUDNAN_clean_linker_2, # of connection points: 2
#     Edge 3, Type (0, 0), BuildingBlock: XUDNAN_clean_linker_2, # of connection points: 2
#     Edge 4, Type (0, 0), BuildingBlock: XUDNAN_clean_linker_2, # of connection points: 2
#     Edge 5, Type (0, 0), BuildingBlock: XUDNAN_clean_linker_2, # of connection points: 2
#     Edge 6, Type (0, 0), BuildingBlock: XUDNAN_clean_linker_2, # of connection points: 2
#     Edge 7, Type (0, 0), BuildingBlock: XUDNAN_clean_linker_2, # of connection points: 2
#     Edge 8, Type (0, 0), BuildingBlock: XUDNAN_clean_linker_2, # of connection points: 2
#     Edge 9, Type (0, 0), BuildingBlock: XUDNAN_clean_linker_2, # of connection points: 2
# Relax obj value: 0.063
# Max RMSD: 0.173
# Mean RMSD: 0.173
data_MOF--net-bcu--node1-AJUNOK_clean_sbu_0--edge1-XUDNAN_clean_linker_2
_symmetry_space_group_name_H-M    P1
_symmetry_Int_Tables_number       1
_symmetry_cell_setting            triclinic
loop_
_symmetry_equiv_pos_as_xyz
'x, y, z'
_cell_length_a     23.710752
_cell_length_b     23.568223
_cell_length_c     17.014222
_cell_angle_alpha  102.18171
_cell_angle_beta   104.72791
_cell_angle_gamma 107.30996
loop_
_atom_site_label
_atom_site_type_symbol
_atom_site_fract_x
_atom_site_fract_y
_atom_site_fract_z
_atom_type_partial_charge
Cd0 Cd 0.92012 0.93625 0.06717 0.0
Cd1 Cd 0.06119 0.02628 0.93672 0.0
C2 C 0.96789 0.8675 0.20069 0.0
N3 N 0.96801 0.87335 0.12292 0.0
C4 C 0.03121 0.81164 0.11322 0.0
C5 C 0.03418 0.80692 0.19502 0.0
C6 C 0.00112 0.83455 0.23833 0.0
C7 C -0.00231 0.84533 0.07829 0.0
H8 H 0.94353 0.89009 0.23449 0.0
H9 H -0.00347 0.85053 1.01653 0.0
C10 C 0.92506 0.94018 0.86181 0.0
C11 C 0.97194 0.09215 0.85397 0.0
C12 C 0.9374 0.13051 0.84667 0.0
C13 C 0.93421 0.16792 0.92048 0.0
C14 C 0.96488 0.16345 1.00031 0.0
C15 C -0.00231 0.12303 1.0044 0.0
N16 N 0.00069 0.0886 0.93175 0.0
H17 H 0.97612 0.06533 0.79725 0.0
H18 H 0.02191 0.12013 0.06568 0.0
C19 C 0.05159 0.88128 0.89063 0.0
N20 N 0.09199 0.94087 0.90949 0.0
C21 C 0.17157 0.90442 0.88399 0.0
C22 C 0.13072 0.84203 0.86283 0.0
C23 C 0.07033 0.83103 0.86832 0.0
C24 C 0.15137 0.95317 0.90803 0.0
H25 H 0.00439 0.87253 0.89123 0.0
H26 H 0.18264 0.00094 0.92316 0.0
C27 C 0.06776 0.01899 0.15392 0.0
C28 C 0.79931 0.85005 0.04103 0.0
N29 N 0.90458 0.02631 0.12915 0.0
C30 C 0.92669 0.04861 0.21595 0.0
C31 C 0.91183 0.09648 0.25851 0.0
C32 C 0.87174 0.12036 0.21164 0.0
C33 C 0.85161 0.09797 0.12173 0.0
C34 C 0.86911 0.05112 0.0817 0.0
C35 C 0.16253 0.11438 0.91694 0.0
O36 O 0.94738 0.95409 0.94255 0.0
O37 O 0.96256 0.95888 0.82311 0.0
O38 O 0.05612 0.01525 0.07549 0.0
O39 O 0.02317 -0.00834 0.17723 0.0
O40 O 0.82543 0.84133 0.98526 0.0
O41 O 0.82895 0.8988 0.10535 0.0
O42 O 0.15784 0.117 0.99026 0.0
O43 O 0.11996 0.07048 0.85333 0.0
H44 H 0.95397 0.02759 0.25256 0.0
H45 H 0.85209 0.03294 1.01286 0.0
H46 H 0.05643 0.79156 0.07793 0.0
H47 H 0.00164 0.83141 0.30109 0.0
H48 H 0.91354 0.13056 0.7834 0.0
H49 H 0.96492 0.19177 0.05936 0.0
H50 H 0.21807 0.91587 0.87938 0.0
H51 H 0.03738 0.78413 0.85455 0.0
H52 H 0.93021 0.1131 0.32767 0.0
H53 H 0.82016 0.114 0.08223 0.0
Cd54 Cd 0.49312 0.45711 0.6176 0.0
Cd55 Cd 0.49612 0.50541 0.35889 0.0
C56 C 0.62985 0.48421 0.7408 0.0
N57 N 0.59052 0.4489 0.66028 0.0
C58 C 0.64881 0.38209 0.65322 0.0
C59 C 0.68713 0.41472 0.7388 0.0
C60 C 0.67887 0.46791 0.78149 0.0
C61 C 0.59994 0.39976 0.61515 0.0
H62 H 0.61996 0.52185 0.77594 0.0
H63 H 0.5666 0.37139 0.55224 0.0
C64 C 0.42549 0.38512 0.39188 0.0
C65 C 0.37473 0.53477 0.27406 0.0
C66 C 0.32904 0.56138 0.26909 0.0
C67 C 0.3175 0.5862 0.34362 0.0
C68 C 0.35132 0.58105 0.42102 0.0
C69 C 0.3973 0.55513 0.4232 0.0
N70 N 0.40847 0.53314 0.3506 0.0
H71 H 0.3853 0.51806 0.2174 0.0
H72 H 0.42573 0.55486 0.48349 0.0
C73 C 0.56014 0.41382 0.29499 0.0
N74 N 0.56665 0.45449 0.36936 0.0
C75 C 0.65345 0.43285 0.44519 0.0
C76 C 0.64795 0.39074 0.36901 0.0
C77 C 0.60046 0.38136 0.29329 0.0
C78 C 0.61214 0.4647 0.44386 0.0
H79 H 0.52331 0.40651 0.23686 0.0
H80 H 0.61653 0.49752 0.50213 0.0
C81 C 0.55924 0.58728 0.59104 0.0
C82 C 0.45131 0.38014 0.71281 0.0
N83 N 0.4257 0.50755 0.64324 0.0
C84 C 0.44173 0.54732 0.72281 0.0
C85 C 0.40142 0.57623 0.74274 0.0
C86 C 0.3442 0.56481 0.67984 0.0
C87 C 0.32927 0.52357 0.59798 0.0
C88 C 0.37053 0.49484 0.58136 0.0
C89 C 0.53555 0.56791 0.24596 0.0
O90 O 0.45976 0.42796 0.46176 0.0
O91 O 0.42494 0.39767 0.32268 0.0
O92 O 0.5342 0.55038 0.51505 0.0
O93 O 0.55495 0.5657 0.65248 0.0
O94 O 0.43532 0.35798 0.63199 0.0
O95 O 0.48756 0.43704 0.74771 0.0
O96 O 0.55544 0.59459 0.32628 0.0
O97 O 0.49746 0.51142 0.21791 0.0
H98 H 0.4856 0.55596 0.77126 0.0
H99 H 0.35885 0.46293 0.51864 0.0
H100 H 0.65315 0.34032 0.61861 0.0
H101 H 0.70759 0.49433 0.84739 0.0
H102 H 0.30545 0.5651 0.20807 0.0
H103 H 0.34379 0.59846 0.48006 0.0
H104 H 0.68964 0.44155 0.50485 0.0
H105 H 0.59386 0.34852 0.2335 0.0
H106 H 0.41472 0.60628 0.80733 0.0
H107 H 0.28656 0.51398 0.54662 0.0
H108 H 0.18161 0.05462 0.13148 0.0
H109 H 0.09085 0.07723 0.32083 0.0
H110 H 0.18829 0.16163 0.42181 0.0
H111 H 0.35102 0.1063 0.30534 0.0
H112 H 0.38576 0.14217 0.2367 0.0
H113 H 0.31696 0.071 0.19099 0.0
H114 H 0.2621 0.1249 0.09918 0.0
H115 H 0.32753 0.19766 0.14591 0.0
H116 H 0.25141 0.19458 0.1504 0.0
H117 H 0.27944 0.26015 0.48166 0.0
H118 H 0.35979 0.36061 0.4983 0.0
H119 H 0.39706 0.27329 0.27709 0.0
C120 C 0.18345 0.07577 0.19557 0.0
C121 C 0.12909 0.06003 0.21849 0.0
C122 C 0.13231 0.08859 0.30231 0.0
C123 C 0.18762 0.13628 0.36039 0.0
C124 C 0.23984 0.1532 0.33464 0.0
C125 C 0.23903 0.12231 0.2552 0.0
C126 C 0.29843 0.1549 0.23907 0.0
C127 C 0.34055 0.1163 0.24332 0.0
C128 C 0.28394 0.16891 0.15356 0.0
C129 C 0.32737 0.21378 0.31476 0.0
C130 C 0.29471 0.21047 0.37155 0.0
C131 C 0.30705 0.26239 0.43978 0.0
C132 C 0.35276 0.31932 0.44893 0.0
C133 C 0.38511 0.32382 0.39006 0.0
C134 C 0.37339 0.27022 0.32363 0.0
H135 H 0.83777 0.21326 0.16068 0.0
H136 H 0.84728 0.12597 0.36238 0.0
H137 H 0.8019 0.19404 0.43211 0.0
H138 H 0.86558 0.37036 0.2885 0.0
H139 H 0.80835 0.3808 0.20596 0.0
H140 H 0.84968 0.33115 0.17762 0.0
H141 H 0.74309 0.23853 0.09109 0.0
H142 H 0.70251 0.28906 0.11857 0.0
H143 H 0.68638 0.21632 0.14302 0.0
H144 H 0.74792 0.26549 0.47502 0.0
H145 H 0.68524 0.33217 0.48392 0.0
H146 H 0.7049 0.36834 0.25058 0.0
C147 C 0.83067 0.20832 0.2196 0.0
C148 C 0.84746 0.16446 0.25619 0.0
C149 C 0.83713 0.16029 0.33384 0.0
C150 C 0.81073 0.19852 0.37391 0.0
C151 C 0.79407 0.24039 0.33539 0.0
C152 C 0.80324 0.24527 0.2597 0.0
C153 C 0.77621 0.29014 0.22776 0.0
C154 C 0.82806 0.34646 0.22483 0.0
C155 C 0.72396 0.25651 0.13993 0.0
C156 C 0.74981 0.3091 0.2969 0.0
C157 C 0.76126 0.28045 0.35893 0.0
C158 C 0.73928 0.28882 0.42746 0.0
C159 C 0.7039 0.32689 0.43213 0.0
C160 C 0.69027 0.35543 0.36805 0.0
C161 C 0.71436 0.34692 0.30033 0.0
H162 H 0.73893 0.85953 0.15545 0.0
H163 H 0.72987 0.73353 0.92234 0.0
H164 H 0.64584 0.64869 0.93741 0.0
H165 H 0.73491 0.76017 0.2692 0.0
H166 H 0.68847 0.78469 0.32819 0.0
H167 H 0.73505 0.83844 0.2878 0.0
H168 H 0.63627 0.8556 0.20603 0.0
H169 H 0.58928 0.80228 0.24732 0.0
H170 H 0.56806 0.78918 0.13366 0.0
H171 H 0.57656 0.57391 0.99268 0.0
H172 H 0.52995 0.5173 0.08193 0.0
H173 H 0.59024 0.69331 0.28102 0.0
C174 C 0.71788 0.81473 0.10583 0.0
C175 C 0.74085 0.80299 0.03783 0.0
C176 C 0.71266 0.74351 0.97483 0.0
C177 C 0.66487 0.69514 0.98285 0.0
C178 C 0.64573 0.70751 0.05368 0.0
C179 C 0.67103 0.76626 0.11348 0.0
C180 C 0.64934 0.76625 0.18962 0.0
C181 C 0.70526 0.78866 0.27355 0.0
C182 C 0.60828 0.80566 0.19439 0.0
C183 C 0.61086 0.69762 0.16611 0.0
C184 C 0.60762 0.66453 0.0865 0.0
C185 C 0.57794 0.59958 0.05437 0.0
C186 C 0.55182 0.56784 0.10554 0.0
C187 C 0.55692 0.60112 0.18838 0.0
C188 C 0.58571 0.66676 0.21793 0.0
H189 H 0.04667 0.69695 0.12417 0.0
H190 H 0.11466 0.85001 0.35982 0.0
H191 H 0.1884 0.8051 0.4272 0.0
H192 H 0.06016 0.57532 0.22584 0.0
H193 H 0.08513 0.537 0.14539 0.0
H194 H 0.03361 0.57805 0.11806 0.0
H195 H 0.11233 0.64485 0.06109 0.0
H196 H 0.16414 0.60427 0.08852 0.0
H197 H 0.19262 0.68829 0.1303 0.0
H198 H 0.26209 0.75044 0.46379 0.0
H199 H 0.32862 0.68811 0.46943 0.0
H200 H 0.20948 0.56629 0.2126 0.0
C201 C 0.07665 0.72061 0.19022 0.0
C202 C 0.07469 0.77682 0.23692 0.0
C203 C 0.11459 0.80638 0.32326 0.0
C204 C 0.15683 0.78137 0.36198 0.0
C205 C 0.15817 0.72641 0.31382 0.0
C206 C 0.11876 0.69599 0.23012 0.0
C207 C 0.13152 0.63897 0.19161 0.0
C208 C 0.07419 0.57877 0.16891 0.0
C209 C 0.15135 0.64447 0.11327 0.0
C210 C 0.18563 0.64332 0.2659 0.0
C211 C 0.19994 0.69387 0.33585 0.0
C212 C 0.25051 0.70988 0.4101 0.0
C213 C 0.28784 0.6736 0.41281 0.0
C214 C 0.27433 0.62133 0.34187 0.0
C215 C 0.22173 0.60586 0.26798 0.0
H216 H 0.24971 0.83767 0.90704 0.0
H217 H 0.05613 0.72646 0.74438 0.0
H218 H 0.08881 0.6416 0.68679 0.0
H219 H 0.31522 0.79707 0.74752 0.0
H220 H 0.3846 0.79668 0.82144 0.0
H221 H 0.34514 0.84607 0.85724 0.0
H222 H 0.33447 0.79518 0.97644 0.0
H223 H 0.37382 0.7455 0.94084 0.0
H224 H 0.29721 0.71147 0.9482 0.0
H225 H 0.14292 0.56948 0.64356 0.0
H226 H 0.21463 0.51761 0.61392 0.0
H227 H 0.37391 0.68166 0.79139 0.0
C228 C 0.21388 0.79575 0.85915 0.0
C229 C 0.15001 0.78917 0.83124 0.0
C230 C 0.10508 0.73263 0.76905 0.0
C231 C 0.12324 0.68411 0.73516 0.0
C232 C 0.18661 0.69284 0.76316 0.0
C233 C 0.23128 0.7474 0.82333 0.0
C234 C 0.2968 0.74666 0.83858 0.0
C235 C 0.33783 0.79976 0.81474 0.0
C236 C 0.32735 0.74988 0.93153 0.0
C237 C 0.28195 0.6833 0.777 0.0
C238 C 0.21811 0.65266 0.73498 0.0
C239 C 0.19309 0.59323 0.67561 0.0
C240 C 0.23447 0.56441 0.65854 0.0
C241 C 0.30043 0.5954 0.69954 0.0
C242 C 0.32399 0.65582 0.75957 0.0
H243 H 0.36879 0.25893 0.65601 0.0
H244 H 0.47197 0.42022 0.88366 0.0
H245 H 0.41478 0.3654 0.96455 0.0
H246 H 0.22552 0.22517 0.68155 0.0
H247 H 0.20076 0.14123 0.64486 0.0
H248 H 0.25629 0.18851 0.60745 0.0
H249 H 0.33572 0.13794 0.66063 0.0
H250 H 0.28004 0.08958 0.69716 0.0
H251 H 0.358 0.13834 0.77032 0.0
H252 H 0.33514 0.30165 1.01316 0.0
H253 H 0.24474 0.22737 0.03093 0.0
H254 H 0.1975 0.10465 0.77539 0.0
C255 C 0.38059 0.28196 0.72346 0.0
C256 C 0.42464 0.34366 0.76362 0.0
C257 C 0.43839 0.37276 0.8517 0.0
C258 C 0.40622 0.34206 0.89825 0.0
C259 C 0.36131 0.2821 0.85596 0.0
C260 C 0.34925 0.25182 0.77103 0.0
C261 C 0.29571 0.18912 0.73934 0.0
C262 C 0.24138 0.18588 0.66388 0.0
C263 C 0.31876 0.13558 0.71549 0.0
C264 C 0.27786 0.19024 0.81871 0.0
C265 C 0.31655 0.24408 0.88537 0.0
C266 C 0.30588 0.25821 0.96263 0.0
C267 C 0.25474 0.21558 0.97244 0.0
C268 C 0.21571 0.15934 0.9059 0.0
C269 C 0.22736 0.14679 0.82801 0.0
H270 H 0.91813 0.22944 0.79974 0.0
H271 H 0.87091 0.20537 0.02457 0.0
H272 H 0.81231 0.27521 1.01031 0.0
H273 H 0.92906 0.38964 0.82953 0.0
H274 H 0.89173 0.37607 0.71724 0.0
H275 H 0.9367 0.33053 0.7509 0.0
H276 H 0.84044 0.22847 0.66268 0.0
H277 H 0.79539 0.27372 0.62874 0.0
H278 H 0.76686 0.21787 0.68093 0.0
H279 H 0.75394 0.34305 0.96755 0.0
H280 H 0.69418 0.39753 0.8938 0.0
H281 H 0.77174 0.36962 0.69009 0.0
C282 C 0.89524 0.23806 0.84597 0.0
C283 C 0.89976 0.21147 0.91362 0.0
C284 C 0.86971 0.2258 0.97319 0.0
C285 C 0.83582 0.26524 0.96537 0.0
C286 C 0.83168 0.28956 0.89717 0.0
C287 C 0.86011 0.27608 0.83808 0.0
C288 C 0.84457 0.30419 0.76691 0.0
C289 C 0.90407 0.35301 0.76616 0.0
C290 C 0.80973 0.25299 0.67968 0.0
C291 C 0.80193 0.33473 0.79441 0.0
C292 C 0.79613 0.32677 0.87062 0.0
C293 C 0.75846 0.34993 0.90818 0.0
C294 C 0.72501 0.38114 0.86606 0.0
C295 C 0.72879 0.38824 0.78663 0.0
C296 C 0.76821 0.36508 0.75088 0.0
H297 H 0.64901 0.6447 0.5314 0.0
H298 H 0.54447 0.67817 0.69919 0.0
H299 H 0.61879 0.78701 0.76567 0.0
H300 H 0.78568 0.70824 0.67579 0.0
H301 H 0.83182 0.7457 0.61864 0.0
H302 H 0.75996 0.67984 0.56063 0.0
H303 H 0.71683 0.74425 0.47263 0.0
H304 H 0.78958 0.81044 0.52888 0.0
H305 H 0.71594 0.81826 0.52693 0.0
H306 H 0.71625 0.87368 0.84287 0.0
H307 H 0.82782 0.93975 0.91708 0.0
H308 H 0.87349 0.85604 0.70181 0.0
C309 C 0.64013 0.67652 0.57842 0.0
C310 C 0.59136 0.65428 0.61006 0.0
C311 C 0.58168 0.69532 0.67413 0.0
C312 C 0.62343 0.75719 0.71182 0.0
C313 C 0.67432 0.777 0.6843 0.0
C314 C 0.68233 0.73848 0.61767 0.0
C315 C 0.74693 0.767 0.61195 0.0
C316 C 0.78317 0.72255 0.61715 0.0
C317 C 0.74201 0.78615 0.53027 0.0
C318 C 0.77581 0.82383 0.69083 0.0
C319 C 0.73244 0.82957 0.73004 0.0
C320 C 0.75003 0.87163 0.811 0.0
C321 C 0.81352 0.90854 0.8532 0.0
C322 C 0.85847 0.90324 0.81452 0.0
C323 C 0.83933 0.86167 0.73153 0.0
loop_
_geom_bond_atom_site_label_1
_geom_bond_atom_site_label_2
_geom_bond_distance
_geom_bond_site_symmetry_2
_ccdc_geom_bond_type
Cd0 N3 2.334 1_655 S
Cd0 N29 2.304 1_565 S
Cd0 O36 2.268 1_554 S
Cd0 O39 2.273 1_665 S
Cd0 O40 2.417 . S
Cd0 O41 2.330 . S
Cd1 N16 2.304 1_455 S
Cd1 N20 2.334 1_545 S
Cd1 O37 2.273 1_445 S
Cd1 O38 2.268 1_556 S
Cd1 O42 2.417 . S
Cd1 O43 2.330 . S
C2 N3 1.332 . S
C2 C6 1.381 . S
C2 H8 0.931 . S
N3 Cd0 2.334 1_455 S
N3 C2 1.332 . S
N3 C7 1.328 . S
C4 C5 1.396 . S
C4 C7 1.378 . S
C4 H46 0.931 1_554 S
C5 C4 1.396 . S
C5 C6 1.382 . S
C6 C2 1.381 . S
C6 C5 1.382 . S
C6 H47 0.930 . S
C7 N3 1.328 . S
C7 C4 1.378 . S
C7 H9 0.930 1_454 S
H8 C2 0.931 . S
H9 C7 0.930 1_656 S
C10 O36 1.238 . S
C10 O37 1.253 . S
C11 C12 1.379 . S
C11 N16 1.337 . S
C11 H17 0.929 . S
C12 C11 1.379 . S
C12 C13 1.380 . S
C12 H48 0.929 . S
C13 C12 1.380 . S
C13 C14 1.399 . S
C14 C13 1.399 . S
C14 C15 1.376 . S
C14 H49 0.931 1_556 S
C15 C14 1.376 . S
C15 N16 1.338 . S
C15 H18 0.930 1_656 S
N16 Cd1 2.304 1_655 S
N16 C11 1.337 . S
N16 C15 1.338 . S
H17 C11 0.929 . S
H18 C15 0.930 1_454 S
C19 N20 1.332 . S
C19 C23 1.381 . S
C19 H25 0.931 . S
N20 Cd1 2.334 1_565 S
N20 C19 1.332 . S
N20 C24 1.328 . S
C21 C22 1.396 . S
C21 C24 1.378 . S
C21 H50 0.931 1_556 S
C22 C21 1.396 . S
C22 C23 1.382 . S
C23 C19 1.381 . S
C23 C22 1.382 . S
C23 H51 0.930 . S
C24 N20 1.328 . S
C24 C21 1.378 . S
C24 H26 0.930 1_566 S
H25 C19 0.931 . S
H26 C24 0.930 1_544 S
C27 O38 1.238 . S
C27 O39 1.253 . S
C28 O40 1.239 . S
C28 O41 1.230 . S
N29 Cd0 2.304 1_545 S
N29 C30 1.337 . S
N29 C34 1.338 . S
C30 N29 1.337 . S
C30 C31 1.379 . S
C30 H44 0.929 . S
C31 C30 1.379 . S
C31 C32 1.380 . S
C31 H52 0.929 . S
C32 C31 1.380 . S
C32 C33 1.399 . S
C33 C32 1.399 . S
C33 C34 1.376 . S
C33 H53 0.931 1_554 S
C34 N29 1.338 . S
C34 C33 1.376 . S
C34 H45 0.930 1_544 S
C35 O42 1.239 . S
C35 O43 1.230 . S
O36 Cd0 2.268 1_556 S
O36 C10 1.238 . S
O37 Cd1 2.273 1_665 S
O37 C10 1.253 . S
O38 Cd1 2.268 1_554 S
O38 C27 1.238 . S
O39 Cd0 2.273 1_445 S
O39 C27 1.253 . S
O40 Cd0 2.417 . S
O40 C28 1.239 . S
O41 Cd0 2.330 . S
O41 C28 1.230 . S
O42 Cd1 2.417 . S
O42 C35 1.239 . S
O43 Cd1 2.330 . S
O43 C35 1.230 . S
H44 C30 0.929 . S
H45 C34 0.930 1_566 S
H46 C4 0.931 1_556 S
H47 C6 0.930 . S
H48 C12 0.929 . S
H49 C14 0.931 1_554 S
H50 C21 0.931 1_554 S
H51 C23 0.930 . S
H52 C31 0.929 . S
H53 C33 0.931 1_556 S
Cd54 N57 2.334 . S
Cd54 N83 2.304 . S
Cd54 O90 2.268 . S
Cd54 O93 2.273 . S
Cd54 O94 2.417 . S
Cd54 O95 2.330 . S
Cd55 N70 2.304 . S
Cd55 N74 2.334 . S
Cd55 O91 2.273 . S
Cd55 O92 2.268 . S
Cd55 O96 2.417 . S
Cd55 O97 2.330 . S
C56 N57 1.332 . S
C56 C60 1.381 . S
C56 H62 0.931 . S
N57 Cd54 2.334 . S
N57 C56 1.332 . S
N57 C61 1.328 . S
C58 C59 1.396 . S
C58 C61 1.378 . S
C58 H100 0.931 . S
C59 C58 1.396 . S
C59 C60 1.382 . S
C60 C56 1.381 . S
C60 C59 1.382 . S
C60 H101 0.930 . S
C61 N57 1.328 . S
C61 C58 1.378 . S
C61 H63 0.930 . S
H62 C56 0.931 . S
H63 C61 0.930 . S
C64 O90 1.238 . S
C64 O91 1.253 . S
C65 C66 1.379 . S
C65 N70 1.337 . S
C65 H71 0.929 . S
C66 C65 1.379 . S
C66 C67 1.380 . S
C66 H102 0.929 . S
C67 C66 1.380 . S
C67 C68 1.399 . S
C68 C67 1.399 . S
C68 C69 1.376 . S
C68 H103 0.931 . S
C69 C68 1.376 . S
C69 N70 1.338 . S
C69 H72 0.930 . S
N70 Cd55 2.304 . S
N70 C65 1.337 . S
N70 C69 1.338 . S
H71 C65 0.929 . S
H72 C69 0.930 . S
C73 N74 1.332 . S
C73 C77 1.381 . S
C73 H79 0.931 . S
N74 Cd55 2.334 . S
N74 C73 1.332 . S
N74 C78 1.328 . S
C75 C76 1.396 . S
C75 C78 1.378 . S
C75 H104 0.931 . S
C76 C75 1.396 . S
C76 C77 1.382 . S
C77 C73 1.381 . S
C77 C76 1.382 . S
C77 H105 0.930 . S
C78 N74 1.328 . S
C78 C75 1.378 . S
C78 H80 0.930 . S
H79 C73 0.931 . S
H80 C78 0.930 . S
C81 O92 1.238 . S
C81 O93 1.253 . S
C82 O94 1.239 . S
C82 O95 1.230 . S
N83 Cd54 2.304 . S
N83 C84 1.337 . S
N83 C88 1.338 . S
C84 N83 1.337 . S
C84 C85 1.379 . S
C84 H98 0.929 . S
C85 C84 1.379 . S
C85 C86 1.380 . S
C85 H106 0.929 . S
C86 C85 1.380 . S
C86 C87 1.399 . S
C87 C86 1.399 . S
C87 C88 1.376 . S
C87 H107 0.931 . S
C88 N83 1.338 . S
C88 C87 1.376 . S
C88 H99 0.930 . S
C89 O96 1.239 . S
C89 O97 1.230 . S
O90 Cd54 2.268 . S
O90 C64 1.238 . S
O91 Cd55 2.273 . S
O91 C64 1.253 . S
O92 Cd55 2.268 . S
O92 C81 1.238 . S
O93 Cd54 2.273 . S
O93 C81 1.253 . S
O94 Cd54 2.417 . S
O94 C82 1.239 . S
O95 Cd54 2.330 . S
O95 C82 1.230 . S
O96 Cd55 2.417 . S
O96 C89 1.239 . S
O97 Cd55 2.330 . S
O97 C89 1.230 . S
H98 C84 0.929 . S
H99 C88 0.930 . S
H100 C58 0.931 . S
H101 C60 0.930 . S
H102 C66 0.929 . S
H103 C68 0.931 . S
H104 C75 0.931 . S
H105 C77 0.930 . S
H106 C85 0.929 . S
H107 C87 0.931 . S
H108 C120 0.930 . S
H109 C122 0.930 . S
H110 C123 0.930 . S
H111 C127 0.959 . S
H112 C127 0.959 . S
H113 C127 0.961 . S
H114 C128 0.960 . S
H115 C128 0.961 . S
H116 C128 0.959 . S
H117 C131 0.929 . S
H118 C132 0.931 . S
H119 C134 0.930 . S
C120 H108 0.930 . S
C120 C121 1.399 . S
C120 C125 1.399 . S
C121 C120 1.399 . S
C121 C122 1.376 . S
C122 H109 0.930 . S
C122 C121 1.376 . S
C122 C123 1.388 . S
C123 H110 0.930 . S
C123 C122 1.388 . S
C123 C124 1.390 . S
C124 C123 1.390 . S
C124 C125 1.394 . S
C124 C130 1.465 . S
C125 C120 1.399 . S
C125 C124 1.394 . S
C125 C126 1.516 . S
C126 C125 1.516 . S
C126 C127 1.502 . S
C126 C128 1.561 . S
C126 C129 1.526 . S
C127 H111 0.959 . S
C127 H112 0.959 . S
C127 H113 0.961 . S
C127 C126 1.502 . S
C128 H114 0.960 . S
C128 H115 0.961 . S
C128 H116 0.959 . S
C128 C126 1.561 . S
C129 C126 1.526 . S
C129 C130 1.396 . S
C129 C134 1.390 . S
C130 C124 1.465 . S
C130 C129 1.396 . S
C130 C131 1.399 . S
C131 H117 0.929 . S
C131 C130 1.399 . S
C131 C132 1.385 . S
C132 H118 0.931 . S
C132 C131 1.385 . S
C132 C133 1.389 . S
C133 C132 1.389 . S
C133 C134 1.387 . S
C134 H119 0.930 . S
C134 C129 1.390 . S
C134 C133 1.387 . S
H135 C147 0.930 . S
H136 C149 0.930 . S
H137 C150 0.930 . S
H138 C154 0.959 . S
H139 C154 0.959 . S
H140 C154 0.961 . S
H141 C155 0.960 . S
H142 C155 0.961 . S
H143 C155 0.959 . S
H144 C158 0.929 . S
H145 C159 0.931 . S
H146 C161 0.930 . S
C147 H135 0.930 . S
C147 C148 1.399 . S
C147 C152 1.399 . S
C148 C147 1.399 . S
C148 C149 1.376 . S
C149 H136 0.930 . S
C149 C148 1.376 . S
C149 C150 1.388 . S
C150 H137 0.930 . S
C150 C149 1.388 . S
C150 C151 1.390 . S
C151 C150 1.390 . S
C151 C152 1.394 . S
C151 C157 1.465 . S
C152 C147 1.399 . S
C152 C151 1.394 . S
C152 C153 1.516 . S
C153 C152 1.516 . S
C153 C154 1.502 . S
C153 C155 1.561 . S
C153 C156 1.526 . S
C154 H138 0.959 . S
C154 H139 0.959 . S
C154 H140 0.961 . S
C154 C153 1.502 . S
C155 H141 0.960 . S
C155 H142 0.961 . S
C155 H143 0.959 . S
C155 C153 1.561 . S
C156 C153 1.526 . S
C156 C157 1.396 . S
C156 C161 1.390 . S
C157 C151 1.465 . S
C157 C156 1.396 . S
C157 C158 1.399 . S
C158 H144 0.929 . S
C158 C157 1.399 . S
C158 C159 1.385 . S
C159 H145 0.931 . S
C159 C158 1.385 . S
C159 C160 1.389 . S
C160 C159 1.389 . S
C160 C161 1.387 . S
C161 H146 0.930 . S
C161 C156 1.390 . S
C161 C160 1.387 . S
H162 C174 0.930 . S
H163 C176 0.930 . S
H164 C177 0.930 . S
H165 C181 0.959 . S
H166 C181 0.959 . S
H167 C181 0.961 . S
H168 C182 0.960 . S
H169 C182 0.961 . S
H170 C182 0.959 . S
H171 C185 0.929 . S
H172 C186 0.931 . S
H173 C188 0.930 . S
C174 H162 0.930 . S
C174 C175 1.399 . S
C174 C179 1.399 . S
C175 C174 1.399 . S
C175 C176 1.376 . S
C176 H163 0.930 . S
C176 C175 1.376 . S
C176 C177 1.388 . S
C177 H164 0.930 . S
C177 C176 1.388 . S
C177 C178 1.390 . S
C178 C177 1.390 . S
C178 C179 1.394 . S
C178 C184 1.465 . S
C179 C174 1.399 . S
C179 C178 1.394 . S
C179 C180 1.516 . S
C180 C179 1.516 . S
C180 C181 1.502 . S
C180 C182 1.561 . S
C180 C183 1.526 . S
C181 H165 0.959 . S
C181 H166 0.959 . S
C181 H167 0.961 . S
C181 C180 1.502 . S
C182 H168 0.960 . S
C182 H169 0.961 . S
C182 H170 0.959 . S
C182 C180 1.561 . S
C183 C180 1.526 . S
C183 C184 1.396 . S
C183 C188 1.390 . S
C184 C178 1.465 . S
C184 C183 1.396 . S
C184 C185 1.399 . S
C185 H171 0.929 . S
C185 C184 1.399 . S
C185 C186 1.385 . S
C186 H172 0.931 . S
C186 C185 1.385 . S
C186 C187 1.389 . S
C187 C186 1.389 . S
C187 C188 1.387 . S
C188 H173 0.930 . S
C188 C183 1.390 . S
C188 C187 1.387 . S
H189 C201 0.930 . S
H190 C203 0.930 . S
H191 C204 0.930 . S
H192 C208 0.959 . S
H193 C208 0.959 . S
H194 C208 0.961 . S
H195 C209 0.960 . S
H196 C209 0.961 . S
H197 C209 0.959 . S
H198 C212 0.929 . S
H199 C213 0.931 . S
H200 C215 0.930 . S
C201 H189 0.930 . S
C201 C202 1.399 . S
C201 C206 1.399 . S
C202 C201 1.399 . S
C202 C203 1.376 . S
C203 H190 0.930 . S
C203 C202 1.376 . S
C203 C204 1.388 . S
C204 H191 0.930 . S
C204 C203 1.388 . S
C204 C205 1.390 . S
C205 C204 1.390 . S
C205 C206 1.394 . S
C205 C211 1.465 . S
C206 C201 1.399 . S
C206 C205 1.394 . S
C206 C207 1.516 . S
C207 C206 1.516 . S
C207 C208 1.502 . S
C207 C209 1.561 . S
C207 C210 1.526 . S
C208 H192 0.959 . S
C208 H193 0.959 . S
C208 H194 0.961 . S
C208 C207 1.502 . S
C209 H195 0.960 . S
C209 H196 0.961 . S
C209 H197 0.959 . S
C209 C207 1.561 . S
C210 C207 1.526 . S
C210 C211 1.396 . S
C210 C215 1.390 . S
C211 C205 1.465 . S
C211 C210 1.396 . S
C211 C212 1.399 . S
C212 H198 0.929 . S
C212 C211 1.399 . S
C212 C213 1.385 . S
C213 H199 0.931 . S
C213 C212 1.385 . S
C213 C214 1.389 . S
C214 C213 1.389 . S
C214 C215 1.387 . S
C215 H200 0.930 . S
C215 C210 1.390 . S
C215 C214 1.387 . S
H216 C228 0.930 . S
H217 C230 0.930 . S
H218 C231 0.930 . S
H219 C235 0.959 . S
H220 C235 0.959 . S
H221 C235 0.961 . S
H222 C236 0.960 . S
H223 C236 0.961 . S
H224 C236 0.959 . S
H225 C239 0.929 . S
H226 C240 0.931 . S
H227 C242 0.930 . S
C228 H216 0.930 . S
C228 C229 1.399 . S
C228 C233 1.399 . S
C229 C228 1.399 . S
C229 C230 1.376 . S
C230 H217 0.930 . S
C230 C229 1.376 . S
C230 C231 1.388 . S
C231 H218 0.930 . S
C231 C230 1.388 . S
C231 C232 1.390 . S
C232 C231 1.390 . S
C232 C233 1.394 . S
C232 C238 1.465 . S
C233 C228 1.399 . S
C233 C232 1.394 . S
C233 C234 1.516 . S
C234 C233 1.516 . S
C234 C235 1.502 . S
C234 C236 1.561 . S
C234 C237 1.526 . S
C235 H219 0.959 . S
C235 H220 0.959 . S
C235 H221 0.961 . S
C235 C234 1.502 . S
C236 H222 0.960 . S
C236 H223 0.961 . S
C236 H224 0.959 . S
C236 C234 1.561 . S
C237 C234 1.526 . S
C237 C238 1.396 . S
C237 C242 1.390 . S
C238 C232 1.465 . S
C238 C237 1.396 . S
C238 C239 1.399 . S
C239 H225 0.929 . S
C239 C238 1.399 . S
C239 C240 1.385 . S
C240 H226 0.931 . S
C240 C239 1.385 . S
C240 C241 1.389 . S
C241 C240 1.389 . S
C241 C242 1.387 . S
C242 H227 0.930 . S
C242 C237 1.390 . S
C242 C241 1.387 . S
H243 C255 0.930 . S
H244 C257 0.930 . S
H245 C258 0.930 . S
H246 C262 0.959 . S
H247 C262 0.959 . S
H248 C262 0.961 . S
H249 C263 0.960 . S
H250 C263 0.961 . S
H251 C263 0.959 . S
H252 C266 0.929 . S
H253 C267 0.931 . S
H254 C269 0.930 . S
C255 H243 0.930 . S
C255 C256 1.399 . S
C255 C260 1.399 . S
C256 C255 1.399 . S
C256 C257 1.376 . S
C257 H244 0.930 . S
C257 C256 1.376 . S
C257 C258 1.388 . S
C258 H245 0.930 . S
C258 C257 1.388 . S
C258 C259 1.390 . S
C259 C258 1.390 . S
C259 C260 1.394 . S
C259 C265 1.465 . S
C260 C255 1.399 . S
C260 C259 1.394 . S
C260 C261 1.516 . S
C261 C260 1.516 . S
C261 C262 1.502 . S
C261 C263 1.561 . S
C261 C264 1.526 . S
C262 H246 0.959 . S
C262 H247 0.959 . S
C262 H248 0.961 . S
C262 C261 1.502 . S
C263 H249 0.960 . S
C263 H250 0.961 . S
C263 H251 0.959 . S
C263 C261 1.561 . S
C264 C261 1.526 . S
C264 C265 1.396 . S
C264 C269 1.390 . S
C265 C259 1.465 . S
C265 C264 1.396 . S
C265 C266 1.399 . S
C266 H252 0.929 . S
C266 C265 1.399 . S
C266 C267 1.385 . S
C267 H253 0.931 . S
C267 C266 1.385 . S
C267 C268 1.389 . S
C268 C267 1.389 . S
C268 C269 1.387 . S
C269 H254 0.930 . S
C269 C264 1.390 . S
C269 C268 1.387 . S
H270 C282 0.930 . S
H271 C284 0.930 . S
H272 C285 0.930 . S
H273 C289 0.959 . S
H274 C289 0.959 . S
H275 C289 0.961 . S
H276 C290 0.960 . S
H277 C290 0.961 . S
H278 C290 0.959 . S
H279 C293 0.929 . S
H280 C294 0.931 . S
H281 C296 0.930 . S
C282 H270 0.930 . S
C282 C283 1.399 . S
C282 C287 1.399 . S
C283 C282 1.399 . S
C283 C284 1.376 . S
C284 H271 0.930 . S
C284 C283 1.376 . S
C284 C285 1.388 . S
C285 H272 0.930 . S
C285 C284 1.388 . S
C285 C286 1.390 . S
C286 C285 1.390 . S
C286 C287 1.394 . S
C286 C292 1.465 . S
C287 C282 1.399 . S
C287 C286 1.394 . S
C287 C288 1.516 . S
C288 C287 1.516 . S
C288 C289 1.502 . S
C288 C290 1.561 . S
C288 C291 1.526 . S
C289 H273 0.959 . S
C289 H274 0.959 . S
C289 H275 0.961 . S
C289 C288 1.502 . S
C290 H276 0.960 . S
C290 H277 0.961 . S
C290 H278 0.959 . S
C290 C288 1.561 . S
C291 C288 1.526 . S
C291 C292 1.396 . S
C291 C296 1.390 . S
C292 C286 1.465 . S
C292 C291 1.396 . S
C292 C293 1.399 . S
C293 H279 0.929 . S
C293 C292 1.399 . S
C293 C294 1.385 . S
C294 H280 0.931 . S
C294 C293 1.385 . S
C294 C295 1.389 . S
C295 C294 1.389 . S
C295 C296 1.387 . S
C296 H281 0.930 . S
C296 C291 1.390 . S
C296 C295 1.387 . S
H297 C309 0.930 . S
H298 C311 0.930 . S
H299 C312 0.930 . S
H300 C316 0.959 . S
H301 C316 0.959 . S
H302 C316 0.961 . S
H303 C317 0.960 . S
H304 C317 0.961 . S
H305 C317 0.959 . S
H306 C320 0.929 . S
H307 C321 0.931 . S
H308 C323 0.930 . S
C309 H297 0.930 . S
C309 C310 1.399 . S
C309 C314 1.399 . S
C310 C309 1.399 . S
C310 C311 1.376 . S
C311 H298 0.930 . S
C311 C310 1.376 . S
C311 C312 1.388 . S
C312 H299 0.930 . S
C312 C311 1.388 . S
C312 C313 1.390 . S
C313 C312 1.390 . S
C313 C314 1.394 . S
C313 C319 1.465 . S
C314 C309 1.399 . S
C314 C313 1.394 . S
C314 C315 1.516 . S
C315 C314 1.516 . S
C315 C316 1.502 . S
C315 C317 1.561 . S
C315 C318 1.526 . S
C316 H300 0.959 . S
C316 H301 0.959 . S
C316 H302 0.961 . S
C316 C315 1.502 . S
C317 H303 0.960 . S
C317 H304 0.961 . S
C317 H305 0.959 . S
C317 C315 1.561 . S
C318 C315 1.526 . S
C318 C319 1.396 . S
C318 C323 1.390 . S
C319 C313 1.465 . S
C319 C318 1.396 . S
C319 C320 1.399 . S
C320 H306 0.929 . S
C320 C319 1.399 . S
C320 C321 1.385 . S
C321 H307 0.931 . S
C321 C320 1.385 . S
C321 C322 1.389 . S
C322 C321 1.389 . S
C322 C323 1.387 . S
C323 H308 0.930 . S
C323 C318 1.390 . S
C323 C322 1.387 . S
C121 C27 0.444 . S
C133 C64 0.451 . S
C148 C32 1.966 . S
C160 C76 1.982 . S
C175 C28 1.240 . S
C187 C89 1.299 . S
C202 C5 1.959 . S
C214 C67 1.988 . S
C229 C22 1.945 . S
C241 C86 1.999 . S
C256 C82 1.303 . S
C268 C35 1.228 . S
C283 C13 2.002 . S
C295 C59 1.942 . S
C310 C81 0.440 . S
C322 C10 0.457 . S
