# Generated by pormake.
# Topology rob, (6)-cn, num edge types: 1
# Building blocks:
#     Node 0, Type 0, BuildingBlock: INOVEN_clean_sbu_0, # of connection points: 6
#     Node 1, Type 0, BuildingBlock: INOVEN_clean_sbu_0, # of connection points: 6
#     Node 2, Type 0, BuildingBlock: INOVEN_clean_sbu_0, # of connection points: 6
#     Node 3, Type 0, BuildingBlock: INOVEN_clean_sbu_0, # of connection points: 6
#     Edge 4, Type (0, 0), BuildingBlock: UVAHIK_clean_linker_0, # of connection points: 2
#     Edge 5, Type (0, 0), BuildingBlock: UVAHIK_clean_linker_0, # of connection points: 2
#     Edge 6, Type (0, 0), BuildingBlock: UVAHIK_clean_linker_0, # of connection points: 2
#     Edge 7, Type (0, 0), BuildingBlock: UVAHIK_clean_linker_0, # of connection points: 2
#     Edge 8, Type (0, 0), BuildingBlock: UVAHIK_clean_linker_0, # of connection points: 2
#     Edge 9, Type (0, 0), BuildingBlock: UVAHIK_clean_linker_0, # of connection points: 2
#     Edge 10, Type (0, 0), BuildingBlock: UVAHIK_clean_linker_0, # of connection points: 2
#     Edge 11, Type (0, 0), BuildingBlock: UVAHIK_clean_linker_0, # of connection points: 2
#     Edge 12, Type (0, 0), BuildingBlock: UVAHIK_clean_linker_0, # of connection points: 2
#     Edge 13, Type (0, 0), BuildingBlock: UVAHIK_clean_linker_0, # of connection points: 2
#     Edge 14, Type (0, 0), BuildingBlock: UVAHIK_clean_linker_0, # of connection points: 2
#     Edge 15, Type (0, 0), BuildingBlock: UVAHIK_clean_linker_0, # of connection points: 2
# Relax obj value: 0.085
# Max RMSD: 0.164
# Mean RMSD: 0.164
data_MOF--net-rob--node1-INOVEN_clean_sbu_0--edge1-UVAHIK_clean_linker_0
_symmetry_space_group_name_H-M    P1
_symmetry_Int_Tables_number       1
_symmetry_cell_setting            triclinic
loop_
_symmetry_equiv_pos_as_xyz
'x, y, z'
_cell_length_a     19.41475
_cell_length_b     31.971847
_cell_length_c     45.797006
_cell_angle_alpha  89.760824
_cell_angle_beta   120.54344
_cell_angle_gamma 90.012877
loop_
_atom_site_label
_atom_site_type_symbol
_atom_site_fract_x
_atom_site_fract_y
_atom_site_fract_z
_atom_type_partial_charge
Gd0 Gd 0.17142 0.27078 0.98839 0.0
Gd1 Gd 0.32829 0.24834 0.99111 0.0
C2 C 0.33337 0.24808 0.06044 0.0
C3 C 0.05473 0.27284 0.0004 0.0
C4 C 0.05 0.27163 0.03159 0.0
C5 C 0.11249 0.28725 0.06235 0.0
C6 C 0.98294 0.25416 0.03086 0.0
C7 C 0.03973 0.26888 0.09114 0.0
C8 C 0.97782 0.25273 0.06027 0.0
C9 C 0.10735 0.28599 0.09175 0.0
C10 C 0.25985 0.33641 0.98956 0.0
C11 C 0.16456 0.26881 0.91878 0.0
C12 C 0.44749 0.24693 0.98061 0.0
C13 C 0.45703 0.25063 0.95066 0.0
C14 C 0.51615 0.22712 0.94918 0.0
C15 C 0.40631 0.2764 0.92303 0.0
C16 C 0.47273 0.25429 0.89252 0.0
C17 C 0.41376 0.27802 0.89418 0.0
C18 C 0.52419 0.22904 0.92049 0.0
C19 C 0.23988 0.18282 0.99016 0.0
O20 O 0.25454 0.24954 0.04202 0.0
O21 O 0.37898 0.25282 0.04696 0.0
O22 O 0.08655 0.3064 -0.00429 0.0
O23 O 0.07891 0.23842 -0.007 0.0
O24 O 0.18222 0.33605 0.97248 0.0
O25 O 0.28679 0.30315 0.00662 0.0
O26 O 0.24363 0.26807 0.93698 0.0
O27 O 0.11966 0.26491 0.93267 0.0
O28 O 0.41161 0.21315 0.98226 0.0
O29 O 0.42457 0.28061 0.98956 0.0
O30 O 0.31758 0.18305 0.00724 0.0
O31 O 0.2133 0.21603 0.97306 0.0
H32 H 0.16523 0.30063 0.06363 0.0
H33 H 0.93445 0.24153 0.00749 0.0
H34 H 0.92555 0.23856 0.05885 0.0
H35 H 0.15591 0.29913 0.11482 0.0
H36 H 0.55575 0.20695 0.97015 0.0
H37 H 0.36058 0.29512 0.92363 0.0
H38 H 0.37373 0.29815 0.87328 0.0
H39 H 0.5697 0.21005 0.91994 0.0
Gd40 Gd 0.66868 0.77682 -0.00652 0.0
Gd41 Gd 0.82379 0.7519 -0.00456 0.0
C42 C 0.83247 0.75578 0.06555 0.0
C43 C 0.55011 0.77992 0.00434 0.0
C44 C 0.54076 0.77619 0.03434 0.0
C45 C 0.48139 0.79947 0.0358 0.0
C46 C 0.59185 0.75057 0.062 0.0
C47 C 0.52529 0.77237 0.09252 0.0
C48 C 0.58454 0.74888 0.09088 0.0
C49 C 0.47345 0.79747 0.06451 0.0
C50 C 0.75796 0.8411 -0.00685 0.0
C51 C 0.66225 0.77669 0.92398 0.0
C52 C 0.94156 0.74575 0.98423 0.0
C53 C 0.95185 0.75006 0.9545 0.0
C54 C 0.00203 0.72211 0.95046 0.0
C55 C 0.90992 0.78054 0.9294 0.0
C56 C 0.96667 0.75421 0.89614 0.0
C57 C 0.9168 0.78243 0.9004 0.0
C58 C 0.00966 0.72424 0.92168 0.0
C59 C 0.73382 0.68795 -0.00402 0.0
O60 O 0.7535 0.75782 0.0477 0.0
O61 O 0.87681 0.75777 0.05129 0.0
O62 O 0.58783 0.81317 0.00312 0.0
O63 O 0.57096 0.74597 -0.00515 0.0
O64 O 0.68025 0.84152 0.97671 0.0
O65 O 0.78445 0.80799 0.01044 0.0
O66 O 0.74121 0.77505 0.94217 0.0
O67 O 0.61715 0.77183 0.93768 0.0
O68 O 0.89909 0.71376 0.98378 0.0
O69 O 0.92569 0.77985 -0.0045 0.0
O70 O 0.81145 0.68783 0.01299 0.0
O71 O 0.70783 0.7208 0.97831 0.0
H72 H 0.44148 0.81952 0.01479 0.0
H73 H 0.63773 0.73201 0.06139 0.0
H74 H 0.62486 0.72888 0.11181 0.0
H75 H 0.42771 0.81626 0.06506 0.0
H76 H 0.03473 0.69825 0.96944 0.0
H77 H 0.87159 0.80276 0.93216 0.0
H78 H 0.88358 0.8062 0.88144 0.0
H79 H 0.04793 0.70178 0.91909 0.0
Gd80 Gd 0.32554 0.77347 0.49622 0.0
Gd81 Gd 0.16886 0.75099 0.49334 0.0
C82 C 0.16411 0.75127 0.42421 0.0
C83 C 0.44225 0.77569 0.48422 0.0
C84 C 0.447 0.77398 0.45305 0.0
C85 C 0.38434 0.7893 0.42205 0.0
C86 C 0.51427 0.75637 0.45405 0.0
C87 C 0.45733 0.77037 0.39355 0.0
C88 C 0.51942 0.75452 0.42466 0.0
C89 C 0.38951 0.78762 0.39268 0.0
C90 C 0.23627 0.83912 0.49433 0.0
C91 C 0.33205 0.77123 0.56583 0.0
C92 C 0.05084 0.75007 0.50453 0.0
C93 C 0.04395 0.74978 0.53526 0.0
C94 C 0.09739 0.72669 0.56422 0.0
C95 C 0.98458 0.77386 0.53605 0.0
C96 C 0.03168 0.75165 0.59435 0.0
C97 C 0.97845 0.77482 0.56524 0.0
C98 C 0.09125 0.72756 0.5934 0.0
C99 C 0.25814 0.6853 0.49524 0.0
O100 O 0.24294 0.75176 0.44284 0.0
O101 O 0.1184 0.75684 0.43753 0.0
O102 O 0.40929 0.80922 0.48819 0.0
O103 O 0.41926 0.74134 0.49238 0.0
O104 O 0.31389 0.83867 0.51163 0.0
O105 O 0.20974 0.80589 0.47744 0.0
O106 O 0.25311 0.76948 0.54759 0.0
O107 O 0.37729 0.76814 0.55205 0.0
O108 O 0.07985 0.71631 0.4986 0.0
O109 O 0.07882 0.78446 0.49887 0.0
O110 O 0.18046 0.6855 0.47818 0.0
O111 O 0.28434 0.71861 0.512 0.0
H112 H 0.33144 0.80278 0.42056 0.0
H113 H 0.5629 0.74397 0.47762 0.0
H114 H 0.57186 0.74026 0.42631 0.0
H115 H 0.3408 0.80053 0.36941 0.0
H116 H 0.14422 0.70807 0.5644 0.0
H117 H 0.94318 0.79222 0.51413 0.0
H118 H 0.93269 0.7943 0.56511 0.0
H119 H 0.13278 0.70893 0.61508 0.0
Gd120 Gd 0.8277 0.2788 0.4909 0.0
Gd121 Gd 0.67192 0.25481 0.48849 0.0
C122 C 0.6639 0.25871 0.4187 0.0
C123 C 0.94644 0.28143 0.48012 0.0
C124 C 0.95591 0.27744 0.4502 0.0
C125 C 0.01516 0.30059 0.44852 0.0
C126 C 0.905 0.25174 0.4228 0.0
C127 C 0.9715 0.27319 0.39208 0.0
C128 C 0.91238 0.24983 0.39396 0.0
C129 C 0.02315 0.29838 0.41983 0.0
C130 C 0.73888 0.34361 0.49076 0.0
C131 C 0.83351 0.27756 0.56035 0.0
C132 C 0.5559 0.25094 0.50084 0.0
C133 C 0.55132 0.25258 0.53206 0.0
C134 C 0.6139 0.23709 0.56301 0.0
C135 C 0.48424 0.27033 0.53114 0.0
C136 C 0.54113 0.25607 0.5916 0.0
C137 C 0.47917 0.27213 0.56055 0.0
C138 C 0.60878 0.2387 0.5924 0.0
C139 C 0.76151 0.19014 0.48881 0.0
O140 O 0.74295 0.25983 0.43676 0.0
O141 O 0.61922 0.2616 0.43274 0.0
O142 O 0.90857 0.3148 0.48097 0.0
O143 O 0.92564 0.24762 0.48995 0.0
O144 O 0.81659 0.34346 0.50754 0.0
O145 O 0.71219 0.31071 0.47344 0.0
O146 O 0.75474 0.27573 0.54201 0.0
O147 O 0.87906 0.27361 0.54679 0.0
O148 O 0.59041 0.21788 0.49713 0.0
O149 O 0.57691 0.28562 0.49222 0.0
O150 O 0.68385 0.19031 0.47182 0.0
O151 O 0.7877 0.22301 0.5062 0.0
H152 H 0.05491 0.3207 0.46931 0.0
H153 H 0.85919 0.23329 0.42358 0.0
H154 H 0.87221 0.22977 0.37323 0.0
H155 H 0.06878 0.31708 0.41911 0.0
H156 H 0.66669 0.22353 0.56446 0.0
H157 H 0.4357 0.28288 0.50762 0.0
H158 H 0.42689 0.28651 0.55896 0.0
H159 H 0.65739 0.22562 0.61561 0.0
C160 C 0.71949 0.61873 0.01772 0.0
C161 C 0.68383 0.65287 -0.00434 0.0
C162 C 0.6732 0.58496 0.01725 0.0
C163 C 0.47934 0.53248 0.96286 0.0
H164 H 0.52475 0.47924 0.04708 0.0
C165 C 0.27278 0.40637 0.96843 0.0
C166 C 0.30908 0.37206 0.9902 0.0
C167 C 0.31853 0.4405 0.96902 0.0
C168 C 0.51188 0.49341 0.0233 0.0
H169 H 0.57179 0.67857 0.95582 0.0
H170 H 0.49041 0.61981 0.95526 0.0
H171 H 0.60313 0.53958 0.04845 0.0
H172 H 0.42166 0.34647 0.02974 0.0
H173 H 0.50203 0.40589 0.03057 0.0
H174 H 0.38807 0.48631 0.93772 0.0
C175 C 0.55437 0.61888 0.9727 0.0
C176 C 0.55679 0.52808 0.02408 0.0
C177 C 0.60081 0.65271 0.97319 0.0
C178 C 0.39214 0.37246 0.01259 0.0
C179 C 0.43801 0.40665 0.01323 0.0
C180 C 0.4344 0.49783 0.96209 0.0
C181 C 0.59006 0.5845 -0.00532 0.0
C182 C 0.5412 0.54804 -0.00613 0.0
C183 C 0.40172 0.44115 -0.00853 0.0
C184 C 0.45011 0.47783 -0.00771 0.0
H185 H 0.78344 0.61797 0.03527 0.0
H186 H 0.70291 0.55883 0.0342 0.0
H187 H 0.46652 0.54661 0.93908 0.0
H188 H 0.2088 0.40695 0.95094 0.0
H189 H 0.28841 0.4667 0.95223 0.0
C190 C 0.27259 0.61662 0.47311 0.0
C191 C 0.3082 0.65048 0.4952 0.0
C192 C 0.31929 0.58358 0.4727 0.0
C193 C 0.51655 0.5323 0.52429 0.0
H194 H 0.46727 0.48354 0.43842 0.0
C195 C 0.7249 0.41194 0.51353 0.0
C196 C 0.68907 0.37826 0.49126 0.0
C197 C 0.67837 0.44493 0.51416 0.0
C198 C 0.48129 0.49643 0.46266 0.0
H199 H 0.42052 0.67629 0.53438 0.0
H200 H 0.50254 0.61882 0.53345 0.0
H201 H 0.3872 0.54174 0.43923 0.0
H202 H 0.57652 0.35266 0.45208 0.0
H203 H 0.49486 0.41 0.45341 0.0
H204 H 0.61066 0.48697 0.54772 0.0
C205 C 0.43835 0.61754 0.51662 0.0
C206 C 0.43537 0.52987 0.46313 0.0
C207 C 0.39151 0.65063 0.517 0.0
C208 C 0.60571 0.37818 0.46959 0.0
C209 C 0.55907 0.41121 0.47019 0.0
C210 C 0.56248 0.49885 0.52382 0.0
C211 C 0.40281 0.58359 0.49443 0.0
C212 C 0.45234 0.54824 0.49395 0.0
C213 C 0.59483 0.44505 0.49248 0.0
C214 C 0.54546 0.48046 0.493 0.0
H215 H 0.20844 0.61562 0.45606 0.0
H216 H 0.28972 0.55773 0.45564 0.0
H217 H 0.53056 0.54521 0.54853 0.0
H218 H 0.78909 0.41287 0.5305 0.0
H219 H 0.70809 0.47069 0.53132 0.0
C220 C 0.22571 0.11379 0.01227 0.0
C221 C 0.19005 0.14789 0.99018 0.0
C222 C 0.17905 0.0806 0.01249 0.0
C223 C 0.98227 0.02971 0.9603 0.0
H224 H 0.02996 0.97962 0.04587 0.0
C225 C 0.77253 0.90954 0.97036 0.0
C226 C 0.80806 0.8755 -0.00746 0.0
C227 C 0.8194 0.94241 0.96982 0.0
C228 C 0.01642 0.9929 0.02172 0.0
H229 H 0.07779 0.17403 0.95085 0.0
H230 H 0.9959 0.11633 0.95148 0.0
H231 H 0.1104 0.03795 0.0455 0.0
H232 H 0.92036 0.84903 0.03157 0.0
H233 H 0.00259 0.90619 0.03039 0.0
H234 H 0.88819 0.98468 0.93654 0.0
C235 C 0.06005 0.11496 0.96843 0.0
C236 C 0.06254 0.0264 0.0215 0.0
C237 C 0.10681 0.14817 0.96823 0.0
C238 C 0.89142 0.87485 0.01413 0.0
C239 C 0.93839 0.90776 0.01363 0.0
C240 C 0.93613 0.99622 0.96052 0.0
C241 C 0.0956 0.08073 0.99058 0.0
C242 C 0.04608 0.04523 0.99079 0.0
C243 C 0.90292 0.94201 -0.00849 0.0
C244 C 0.95259 0.97739 0.99124 0.0
H245 H 0.28982 0.11272 0.02943 0.0
H246 H 0.2086 0.05454 0.02954 0.0
H247 H 0.9687 0.043 0.93616 0.0
H248 H 0.70834 0.91086 0.95345 0.0
H249 H 0.78996 0.96849 0.95277 0.0
C250 C 0.89442 0.15448 0.5115 0.0
C251 C 0.81131 0.15488 0.48921 0.0
C252 C 0.94071 0.12061 0.5119 0.0
C253 C 0.93723 0.03022 0.46037 0.0
H254 H 0.10825 0.9881 0.54643 0.0
C255 C 0.10351 0.87501 0.47148 0.0
C256 C 0.1867 0.87468 0.49361 0.0
C257 C 0.05738 0.90905 0.47092 0.0
C258 C 0.06126 0.99972 0.52214 0.0
H259 H 0.7114 0.1203 0.44988 0.0
H260 H 0.79164 0.06109 0.45082 0.0
H261 H 0.02971 0.04818 0.54537 0.0
H262 H 0.2869 0.90959 0.53248 0.0
H263 H 0.20688 0.96904 0.53131 0.0
H264 H 0.96873 0.98168 0.43715 0.0
C265 C 0.82155 0.08707 0.46768 0.0
C266 C 0.01625 0.03425 0.52153 0.0
C267 C 0.77541 0.12089 0.4673 0.0
C268 C 0.22284 0.90894 0.51518 0.0
C269 C 0.17685 0.9429 0.51467 0.0
C270 C 0.98221 0.99566 0.46098 0.0
C271 C 0.90481 0.08641 0.49002 0.0
C272 C 0.95359 0.04997 0.49064 0.0
C273 C 0.09351 0.94346 0.49252 0.0
C274 C 0.04486 0.97996 0.49187 0.0
H275 H 0.92365 0.18021 0.52876 0.0
H276 H 0.00475 0.1214 0.52917 0.0
H277 H 0.89027 0.04183 0.43608 0.0
H278 H 0.07409 0.84904 0.45452 0.0
H279 H 0.99328 0.90821 0.4538 0.0
C280 C 0.54575 0.24246 0.36164 0.0
C281 C 0.62625 0.25416 0.38175 0.0
C282 C 0.51218 0.23702 0.32674 0.0
C283 C 0.56782 0.21896 0.26179 0.0
H284 H 0.36059 0.268 0.2003 0.0
C285 C 0.45096 0.2486 0.11971 0.0
C286 C 0.36925 0.24165 0.09718 0.0
C287 C 0.48214 0.24541 0.15466 0.0
C288 C 0.41805 0.25361 0.21715 0.0
H289 H 0.73384 0.27076 0.381 0.0
H290 H 0.6755 0.26145 0.32053 0.0
H291 H 0.41351 0.27094 0.26118 0.0
H292 H 0.25692 0.2237 0.09343 0.0
H293 H 0.31141 0.21795 0.15402 0.0
H294 H 0.57285 0.20229 0.2177 0.0
C295 C 0.63877 0.25543 0.33166 0.0
C296 C 0.4482 0.25525 0.25197 0.0
C297 C 0.67212 0.26086 0.36635 0.0
C298 C 0.32001 0.22994 0.11011 0.0
C299 C 0.35106 0.2267 0.14486 0.0
C300 C 0.53768 0.21735 0.22695 0.0
C301 C 0.55866 0.24326 0.31153 0.0
C302 C 0.5238 0.23843 0.27461 0.0
C303 C 0.43202 0.23513 0.16749 0.0
C304 C 0.46288 0.23504 0.20434 0.0
H305 H 0.50911 0.23699 0.37288 0.0
H306 H 0.45024 0.22746 0.31174 0.0
H307 H 0.62584 0.20519 0.27872 0.0
H308 H 0.49023 0.25765 0.11043 0.0
H309 H 0.54478 0.25236 0.17163 0.0
C310 C 0.44244 0.76853 0.12055 0.0
C311 C 0.51794 0.77099 0.12339 0.0
C312 C 0.43546 0.76757 0.14951 0.0
C313 C 0.55331 0.74809 0.2429 0.0
H314 H 0.37567 0.80528 0.2416 0.0
C315 C 0.53773 0.77599 0.36436 0.0
C316 C 0.46372 0.76937 0.36234 0.0
C317 C 0.54382 0.77539 0.33518 0.0
C318 C 0.42521 0.7888 0.24228 0.0
H319 H 0.64533 0.77496 0.15907 0.0
H320 H 0.63331 0.77408 0.20952 0.0
H321 H 0.38774 0.8062 0.19116 0.0
H322 H 0.33811 0.75626 0.32758 0.0
H323 H 0.34869 0.75597 0.27674 0.0
H324 H 0.59136 0.73138 0.2943 0.0
C325 C 0.57934 0.77186 0.18494 0.0
C326 C 0.43211 0.78922 0.21328 0.0
C327 C 0.58631 0.77248 0.15596 0.0
C328 C 0.39591 0.76221 0.33021 0.0
C329 C 0.40194 0.76193 0.30099 0.0
C330 C 0.54671 0.74797 0.27197 0.0
C331 C 0.50378 0.76938 0.18217 0.0
C332 C 0.49627 0.76885 0.21313 0.0
C333 C 0.476 0.76847 0.30311 0.0
C334 C 0.48258 0.76831 0.27204 0.0
H335 H 0.38861 0.76674 0.09586 0.0
H336 H 0.37635 0.76485 0.14624 0.0
H337 H 0.60272 0.73137 0.24369 0.0
H338 H 0.59103 0.78244 0.38845 0.0
H339 H 0.60156 0.78115 0.33769 0.0
C340 C 0.54418 0.77547 0.86485 0.0
C341 C 0.62525 0.7842 0.88731 0.0
C342 C 0.51224 0.77961 0.82989 0.0
C343 C 0.57545 0.77531 0.76739 0.0
H344 H 0.36742 0.82367 0.70615 0.0
C345 C 0.44996 0.78641 0.62327 0.0
C346 C 0.3688 0.77625 0.60273 0.0
C347 C 0.48291 0.79178 0.65814 0.0
C348 C 0.42541 0.8098 0.72295 0.0
H349 H 0.7348 0.80689 0.89099 0.0
H350 H 0.67945 0.81372 0.83037 0.0
H351 H 0.41974 0.82511 0.76716 0.0
H352 H 0.25874 0.76331 0.6026 0.0
H353 H 0.31638 0.77134 0.66304 0.0
H354 H 0.5805 0.75885 0.72337 0.0
C355 C 0.64103 0.8029 0.83961 0.0
C356 C 0.4552 0.81068 0.75779 0.0
C357 C 0.67271 0.79887 0.87435 0.0
C358 C 0.32141 0.77138 0.61764 0.0
C359 C 0.3543 0.77637 0.65234 0.0
C360 C 0.54547 0.77414 0.73258 0.0
C361 C 0.56103 0.79252 0.81705 0.0
C362 C 0.53019 0.79316 0.78025 0.0
C363 C 0.43526 0.78678 0.67298 0.0
C364 C 0.46976 0.79096 0.70998 0.0
H365 H 0.50619 0.76422 0.87415 0.0
H366 H 0.4503 0.77125 0.8129 0.0
H367 H 0.63315 0.76114 0.78422 0.0
H368 H 0.48773 0.79063 0.61241 0.0
H369 H 0.54542 0.80017 0.67342 0.0
C370 C 0.46065 0.25064 0.62077 0.0
C371 C 0.53477 0.25699 0.62282 0.0
C372 C 0.45455 0.25123 0.64994 0.0
C373 C 0.57275 0.23716 0.74277 0.0
H374 H 0.39639 0.29561 0.74158 0.0
C375 C 0.55574 0.2576 0.86455 0.0
C376 C 0.48018 0.25557 0.86167 0.0
C377 C 0.56279 0.25848 0.83559 0.0
C378 C 0.44546 0.2786 0.7423 0.0
H379 H 0.66058 0.26955 0.65765 0.0
H380 H 0.64997 0.26975 0.70849 0.0
H381 H 0.40783 0.29554 0.69099 0.0
H382 H 0.35272 0.25226 0.82595 0.0
H383 H 0.36485 0.25303 0.77552 0.0
H384 H 0.60978 0.21953 0.7938 0.0
C385 C 0.59664 0.26405 0.68421 0.0
C386 C 0.45211 0.2787 0.71325 0.0
C387 C 0.60268 0.26382 0.65499 0.0
C388 C 0.4118 0.25442 0.82908 0.0
C389 C 0.41884 0.25496 0.80012 0.0
C390 C 0.56578 0.23677 0.77175 0.0
C391 C 0.52246 0.25782 0.68204 0.0
C392 C 0.51583 0.25799 0.71311 0.0
C393 C 0.49446 0.25702 0.80292 0.0
C394 C 0.50203 0.25751 0.77198 0.0
H395 H 0.40725 0.24445 0.59665 0.0
H396 H 0.39671 0.2457 0.64741 0.0
H397 H 0.62196 0.22041 0.74338 0.0
H398 H 0.60958 0.25912 0.88924 0.0
H399 H 0.62196 0.26087 0.8389 0.0
C400 C 0.82493 0.75897 0.11802 0.0
C401 C 0.87048 0.75157 0.10259 0.0
C402 C 0.85865 0.75421 0.15282 0.0
C403 C 0.04947 0.75515 0.23231 0.0
H404 H 0.92561 0.70403 0.26791 0.0
C405 C 0.17796 0.73287 0.37479 0.0
C406 C 0.12852 0.74488 0.38751 0.0
C407 C 0.14707 0.72927 0.3401 0.0
C408 C 0.96056 0.71861 0.25829 0.0
H409 H 0.9875 0.73386 0.11155 0.0
H410 H 0.04705 0.72554 0.17293 0.0
H411 H 0.87249 0.70529 0.20684 0.0
H412 H 0.00741 0.7612 0.37393 0.0
H413 H 0.95312 0.75523 0.31283 0.0
H414 H 0.137 0.76905 0.28366 0.0
C415 C 0.98503 0.73508 0.15783 0.0
C416 C 0.93035 0.71926 0.22342 0.0
C417 C 0.95106 0.73982 0.12279 0.0
C418 C 0.04683 0.75191 0.36483 0.0
C419 C 0.01581 0.74834 0.32993 0.0
C420 C 0.0797 0.75448 0.26717 0.0
C421 C 0.93885 0.74205 0.17307 0.0
C422 C 0.97406 0.73806 0.2101 0.0
C423 C 0.06605 0.73759 0.3173 0.0
C424 C 0.03512 0.73661 0.28045 0.0
H425 H 0.76318 0.76895 0.10332 0.0
H426 H 0.82213 0.7608 0.16394 0.0
H427 H 0.08391 0.77034 0.2227 0.0
H428 H 0.24104 0.72658 0.39158 0.0
H429 H 0.18685 0.72019 0.33111 0.0
C430 C 0.91051 0.27295 0.32864 0.0
C431 C 0.97889 0.27161 0.36123 0.0
C432 C 0.91752 0.27216 0.29968 0.0
C433 C 0.06455 0.28933 0.27116 0.0
H434 H 0.90613 0.23097 0.19082 0.0
C435 C 0.10127 0.2614 0.1546 0.0
C436 C 0.03337 0.26829 0.12237 0.0
C437 C 0.09522 0.26141 0.18382 0.0
C438 C 0.95054 0.2477 0.21296 0.0
H439 H 0.10826 0.26747 0.38882 0.0
H440 H 0.12058 0.26529 0.33847 0.0
H441 H 0.8947 0.23129 0.24141 0.0
H442 H 0.90589 0.28122 0.09608 0.0
H443 H 0.89534 0.28043 0.14684 0.0
H444 H 0.12083 0.3052 0.24267 0.0
C445 C 0.06144 0.26802 0.33516 0.0
C446 C 0.9439 0.24801 0.24201 0.0
C447 C 0.05442 0.26914 0.36411 0.0
C448 C 0.95927 0.27497 0.12026 0.0
C449 C 0.95316 0.27465 0.14943 0.0
C450 C 0.07149 0.28872 0.24217 0.0
C451 C 0.99311 0.26967 0.30248 0.0
C452 C 0.00065 0.26896 0.27154 0.0
C453 C 0.02105 0.26797 0.18159 0.0
C454 C 0.01442 0.26804 0.21266 0.0
H455 H 0.85146 0.27545 0.3255 0.0
H456 H 0.86353 0.27426 0.27506 0.0
H457 H 0.10869 0.30645 0.29308 0.0
H458 H 0.15914 0.25542 0.15731 0.0
H459 H 0.14853 0.25563 0.20815 0.0
C460 C 0.81985 0.2951 0.60994 0.0
C461 C 0.86937 0.28392 0.59706 0.0
C462 C 0.85098 0.29848 0.64466 0.0
C463 C 0.0373 0.30961 0.72645 0.0
H464 H 0.91572 0.25491 0.76165 0.0
C465 C 0.1735 0.26767 0.86659 0.0
C466 C 0.12712 0.27363 0.88182 0.0
C467 C 0.1401 0.27296 0.83185 0.0
C468 C 0.94965 0.27092 0.75216 0.0
H469 H 0.99085 0.26902 0.61035 0.0
H470 H 0.04558 0.27457 0.67152 0.0
H471 H 0.86267 0.25711 0.70073 0.0
H472 H 0.00911 0.28948 0.87262 0.0
H473 H 0.95016 0.29878 0.81139 0.0
H474 H 0.12483 0.32286 0.778 0.0
C475 C 0.98263 0.28097 0.65452 0.0
C476 C 0.91944 0.27212 0.71732 0.0
C477 C 0.95137 0.27763 0.61959 0.0
C478 C 0.04616 0.28458 0.86152 0.0
C479 C 0.01253 0.28989 0.82656 0.0
C480 C 0.0675 0.30844 0.76132 0.0
C481 C 0.9323 0.29074 0.66732 0.0
C482 C 0.96335 0.29111 0.70417 0.0
C483 C 0.05943 0.28425 0.81149 0.0
C484 C 0.02439 0.28861 0.7745 0.0
H485 H 0.75652 0.30085 0.59326 0.0
H486 H 0.81112 0.30684 0.65378 0.0
H487 H 0.07172 0.325 0.71692 0.0
H488 H 0.23561 0.25835 0.8814 0.0
H489 H 0.17722 0.26741 0.82085 0.0
C490 C 0.94977 0.75389 0.62302 0.0
C491 C 0.02509 0.75262 0.62551 0.0
C492 C 0.94354 0.75479 0.65217 0.0
C493 C 0.05463 0.72893 0.74361 0.0
H494 H 0.90148 0.80292 0.7476 0.0
C495 C 0.04812 0.75106 0.86749 0.0
C496 C 0.97339 0.75564 0.86511 0.0
C497 C 0.0544 0.75145 0.83836 0.0
C498 C 0.94386 0.78163 0.74683 0.0
H499 H 0.15305 0.75202 0.66107 0.0
H500 H 0.14201 0.75297 0.71178 0.0
H501 H 0.91217 0.80179 0.69682 0.0
H502 H 0.84645 0.76391 0.83002 0.0
H503 H 0.85703 0.76395 0.77918 0.0
H504 H 0.08569 0.70824 0.79333 0.0
C505 C 0.0877 0.75286 0.68719 0.0
C506 C 0.95009 0.78107 0.71766 0.0
C507 C 0.09398 0.75222 0.65804 0.0
C508 C 0.90508 0.76085 0.83282 0.0
C509 C 0.91125 0.76094 0.80363 0.0
C510 C 0.04807 0.72927 0.77269 0.0
C511 C 0.01239 0.75418 0.68464 0.0
C512 C 0.00567 0.75477 0.7157 0.0
C513 C 0.98602 0.75613 0.80595 0.0
C514 C 0.99271 0.7557 0.77479 0.0
H515 H 0.89531 0.75351 0.5985 0.0
H516 H 0.88458 0.75519 0.64925 0.0
H517 H 0.09723 0.70782 0.74279 0.0
H518 H 0.10209 0.74761 0.89199 0.0
H519 H 0.1132 0.74852 0.84134 0.0
loop_
_geom_bond_atom_site_label_1
_geom_bond_atom_site_label_2
_geom_bond_distance
_geom_bond_site_symmetry_2
_ccdc_geom_bond_type
Gd0 C3 2.818 . S
Gd0 O20 2.377 . S
Gd0 O22 2.448 . S
Gd0 O23 2.506 . S
Gd0 O24 2.435 . S
Gd0 O25 2.717 1_554 S
Gd0 O27 2.395 1_554 S
Gd0 O31 2.327 . S
Gd1 C12 2.812 1_554 S
Gd1 O21 2.401 . S
Gd1 O25 2.328 1_554 S
Gd1 O26 2.374 1_554 S
Gd1 O28 2.443 1_554 S
Gd1 O29 2.500 1_554 S
Gd1 O30 2.437 1_554 S
Gd1 O31 2.721 . S
C2 O20 1.240 . S
C2 O21 1.240 . S
C3 Gd0 2.818 . S
C3 C4 1.510 . S
C3 O22 1.249 . S
C3 O23 1.252 . S
C4 C3 1.510 . S
C4 C5 1.404 . S
C4 C6 1.352 . S
C5 C4 1.404 . S
C5 C9 1.389 . S
C5 H32 0.930 . S
C6 C4 1.352 . S
C6 C8 1.374 . S
C6 H33 0.931 . S
C7 C8 1.359 . S
C7 C9 1.364 . S
C8 C6 1.374 . S
C8 C7 1.359 . S
C8 H34 0.931 . S
C9 C5 1.389 . S
C9 C7 1.364 . S
C9 H35 0.931 . S
C10 O24 1.256 . S
C10 O25 1.257 1_554 S
C11 O26 1.240 . S
C11 O27 1.240 . S
C12 Gd1 2.812 1_556 S
C12 C13 1.510 . S
C12 O28 1.249 . S
C12 O29 1.252 . S
C13 C12 1.510 . S
C13 C14 1.404 . S
C13 C15 1.352 . S
C14 C13 1.404 . S
C14 C18 1.389 . S
C14 H36 0.930 . S
C15 C13 1.352 . S
C15 C17 1.374 . S
C15 H37 0.931 . S
C16 C17 1.359 . S
C16 C18 1.364 . S
C17 C15 1.374 . S
C17 C16 1.359 . S
C17 H38 0.931 . S
C18 C14 1.389 . S
C18 C16 1.364 . S
C18 H39 0.931 . S
C19 O30 1.256 . S
C19 O31 1.257 1_556 S
O20 Gd0 2.377 . S
O20 C2 1.240 . S
O21 Gd1 2.401 . S
O21 C2 1.240 . S
O22 Gd0 2.448 . S
O22 C3 1.249 . S
O23 Gd0 2.506 . S
O23 C3 1.252 . S
O24 Gd0 2.435 . S
O24 C10 1.256 . S
O25 Gd0 2.717 1_556 S
O25 Gd1 2.328 1_556 S
O25 C10 1.257 1_556 S
O26 Gd1 2.374 1_556 S
O26 C11 1.240 . S
O27 Gd0 2.395 1_556 S
O27 C11 1.240 . S
O28 Gd1 2.443 1_556 S
O28 C12 1.249 . S
O29 Gd1 2.500 1_556 S
O29 C12 1.252 . S
O30 Gd1 2.437 1_556 S
O30 C19 1.256 . S
O31 Gd0 2.327 . S
O31 Gd1 2.721 . S
O31 C19 1.257 1_554 S
H32 C5 0.930 . S
H33 C6 0.931 . S
H34 C8 0.931 . S
H35 C9 0.931 . S
H36 C14 0.930 . S
H37 C15 0.931 . S
H38 C17 0.931 . S
H39 C18 0.931 . S
Gd40 C43 2.818 . S
Gd40 O60 2.377 . S
Gd40 O62 2.448 . S
Gd40 O63 2.506 . S
Gd40 O64 2.435 . S
Gd40 O65 2.717 1_554 S
Gd40 O67 2.395 1_554 S
Gd40 O71 2.327 . S
Gd41 C52 2.812 1_554 S
Gd41 O61 2.401 . S
Gd41 O65 2.328 1_554 S
Gd41 O66 2.374 1_554 S
Gd41 O68 2.443 1_554 S
Gd41 O69 2.500 1_554 S
Gd41 O70 2.437 1_554 S
Gd41 O71 2.721 . S
C42 O60 1.240 . S
C42 O61 1.240 . S
C43 Gd40 2.818 . S
C43 C44 1.510 . S
C43 O62 1.249 . S
C43 O63 1.252 . S
C44 C43 1.510 . S
C44 C45 1.404 . S
C44 C46 1.352 . S
C45 C44 1.404 . S
C45 C49 1.389 . S
C45 H72 0.930 . S
C46 C44 1.352 . S
C46 C48 1.374 . S
C46 H73 0.931 . S
C47 C48 1.359 . S
C47 C49 1.364 . S
C48 C46 1.374 . S
C48 C47 1.359 . S
C48 H74 0.931 . S
C49 C45 1.389 . S
C49 C47 1.364 . S
C49 H75 0.931 . S
C50 O64 1.256 . S
C50 O65 1.257 1_554 S
C51 O66 1.240 . S
C51 O67 1.240 . S
C52 Gd41 2.812 1_556 S
C52 C53 1.510 . S
C52 O68 1.249 . S
C52 O69 1.252 . S
C53 C52 1.510 . S
C53 C54 1.404 . S
C53 C55 1.352 . S
C54 C53 1.404 . S
C54 C58 1.389 . S
C54 H76 0.930 . S
C55 C53 1.352 . S
C55 C57 1.374 . S
C55 H77 0.931 . S
C56 C57 1.359 . S
C56 C58 1.364 . S
C57 C55 1.374 . S
C57 C56 1.359 . S
C57 H78 0.931 . S
C58 C54 1.389 . S
C58 C56 1.364 . S
C58 H79 0.931 . S
C59 O70 1.256 . S
C59 O71 1.257 1_556 S
O60 Gd40 2.377 . S
O60 C42 1.240 . S
O61 Gd41 2.401 . S
O61 C42 1.240 . S
O62 Gd40 2.448 . S
O62 C43 1.249 . S
O63 Gd40 2.506 . S
O63 C43 1.252 . S
O64 Gd40 2.435 . S
O64 C50 1.256 . S
O65 Gd40 2.717 1_556 S
O65 Gd41 2.328 1_556 S
O65 C50 1.257 1_556 S
O66 Gd41 2.374 1_556 S
O66 C51 1.240 . S
O67 Gd40 2.395 1_556 S
O67 C51 1.240 . S
O68 Gd41 2.443 1_556 S
O68 C52 1.249 . S
O69 Gd41 2.500 1_556 S
O69 C52 1.252 . S
O70 Gd41 2.437 1_556 S
O70 C59 1.256 . S
O71 Gd40 2.327 . S
O71 Gd41 2.721 . S
O71 C59 1.257 1_554 S
H72 C45 0.930 . S
H73 C46 0.931 . S
H74 C48 0.931 . S
H75 C49 0.931 . S
H76 C54 0.930 . S
H77 C55 0.931 . S
H78 C57 0.931 . S
H79 C58 0.931 . S
Gd80 C83 2.818 . S
Gd80 O100 2.377 . S
Gd80 O102 2.448 . S
Gd80 O103 2.506 . S
Gd80 O104 2.435 . S
Gd80 O105 2.717 . S
Gd80 O107 2.395 . S
Gd80 O111 2.327 . S
Gd81 C92 2.818 . S
Gd81 O101 2.395 . S
Gd81 O105 2.327 . S
Gd81 O106 2.377 . S
Gd81 O108 2.448 . S
Gd81 O109 2.506 . S
Gd81 O110 2.435 . S
Gd81 O111 2.717 . S
C82 O100 1.240 . S
C82 O101 1.240 . S
C83 Gd80 2.818 . S
C83 C84 1.510 . S
C83 O102 1.249 . S
C83 O103 1.252 . S
C84 C83 1.510 . S
C84 C85 1.404 . S
C84 C86 1.352 . S
C85 C84 1.404 . S
C85 C89 1.389 . S
C85 H112 0.930 . S
C86 C84 1.352 . S
C86 C88 1.374 . S
C86 H113 0.931 . S
C87 C88 1.359 . S
C87 C89 1.364 . S
C88 C86 1.374 . S
C88 C87 1.359 . S
C88 H114 0.931 . S
C89 C85 1.389 . S
C89 C87 1.364 . S
C89 H115 0.931 . S
C90 O104 1.256 . S
C90 O105 1.257 . S
C91 O106 1.240 . S
C91 O107 1.240 . S
C92 Gd81 2.818 . S
C92 C93 1.510 . S
C92 O108 1.249 . S
C92 O109 1.252 . S
C93 C92 1.510 . S
C93 C94 1.404 . S
C93 C95 1.352 . S
C94 C93 1.404 . S
C94 C98 1.389 . S
C94 H116 0.930 . S
C95 C93 1.352 . S
C95 C97 1.374 . S
C95 H117 0.931 . S
C96 C97 1.359 . S
C96 C98 1.364 . S
C97 C95 1.374 . S
C97 C96 1.359 . S
C97 H118 0.931 . S
C98 C94 1.389 . S
C98 C96 1.364 . S
C98 H119 0.931 . S
C99 O110 1.256 . S
C99 O111 1.257 . S
O100 Gd80 2.377 . S
O100 C82 1.240 . S
O101 Gd81 2.395 . S
O101 C82 1.240 . S
O102 Gd80 2.448 . S
O102 C83 1.249 . S
O103 Gd80 2.506 . S
O103 C83 1.252 . S
O104 Gd80 2.435 . S
O104 C90 1.256 . S
O105 Gd80 2.717 . S
O105 Gd81 2.327 . S
O105 C90 1.257 . S
O106 Gd81 2.377 . S
O106 C91 1.240 . S
O107 Gd80 2.395 . S
O107 C91 1.240 . S
O108 Gd81 2.448 . S
O108 C92 1.249 . S
O109 Gd81 2.506 . S
O109 C92 1.252 . S
O110 Gd81 2.435 . S
O110 C99 1.256 . S
O111 Gd80 2.327 . S
O111 Gd81 2.717 . S
O111 C99 1.257 . S
H112 C85 0.930 . S
H113 C86 0.931 . S
H114 C88 0.931 . S
H115 C89 0.931 . S
H116 C94 0.930 . S
H117 C95 0.931 . S
H118 C97 0.931 . S
H119 C98 0.931 . S
Gd120 C123 2.818 . S
Gd120 O140 2.377 . S
Gd120 O142 2.448 . S
Gd120 O143 2.506 . S
Gd120 O144 2.435 . S
Gd120 O145 2.717 . S
Gd120 O147 2.395 . S
Gd120 O151 2.327 . S
Gd121 C132 2.818 . S
Gd121 O141 2.395 . S
Gd121 O145 2.327 . S
Gd121 O146 2.377 . S
Gd121 O148 2.448 . S
Gd121 O149 2.506 . S
Gd121 O150 2.435 . S
Gd121 O151 2.717 . S
C122 O140 1.240 . S
C122 O141 1.240 . S
C123 Gd120 2.818 . S
C123 C124 1.510 . S
C123 O142 1.249 . S
C123 O143 1.252 . S
C124 C123 1.510 . S
C124 C125 1.404 . S
C124 C126 1.352 . S
C125 C124 1.404 . S
C125 C129 1.389 . S
C125 H152 0.930 . S
C126 C124 1.352 . S
C126 C128 1.374 . S
C126 H153 0.931 . S
C127 C128 1.359 . S
C127 C129 1.364 . S
C128 C126 1.374 . S
C128 C127 1.359 . S
C128 H154 0.931 . S
C129 C125 1.389 . S
C129 C127 1.364 . S
C129 H155 0.931 . S
C130 O144 1.256 . S
C130 O145 1.257 . S
C131 O146 1.240 . S
C131 O147 1.240 . S
C132 Gd121 2.818 . S
C132 C133 1.510 . S
C132 O148 1.249 . S
C132 O149 1.252 . S
C133 C132 1.510 . S
C133 C134 1.404 . S
C133 C135 1.352 . S
C134 C133 1.404 . S
C134 C138 1.389 . S
C134 H156 0.930 . S
C135 C133 1.352 . S
C135 C137 1.374 . S
C135 H157 0.931 . S
C136 C137 1.359 . S
C136 C138 1.364 . S
C137 C135 1.374 . S
C137 C136 1.359 . S
C137 H158 0.931 . S
C138 C134 1.389 . S
C138 C136 1.364 . S
C138 H159 0.931 . S
C139 O150 1.256 . S
C139 O151 1.257 . S
O140 Gd120 2.377 . S
O140 C122 1.240 . S
O141 Gd121 2.395 . S
O141 C122 1.240 . S
O142 Gd120 2.448 . S
O142 C123 1.249 . S
O143 Gd120 2.506 . S
O143 C123 1.252 . S
O144 Gd120 2.435 . S
O144 C130 1.256 . S
O145 Gd120 2.717 . S
O145 Gd121 2.327 . S
O145 C130 1.257 . S
O146 Gd121 2.377 . S
O146 C131 1.240 . S
O147 Gd120 2.395 . S
O147 C131 1.240 . S
O148 Gd121 2.448 . S
O148 C132 1.249 . S
O149 Gd121 2.506 . S
O149 C132 1.252 . S
O150 Gd121 2.435 . S
O150 C139 1.256 . S
O151 Gd120 2.327 . S
O151 Gd121 2.717 . S
O151 C139 1.257 . S
H152 C125 0.930 . S
H153 C126 0.931 . S
H154 C128 0.931 . S
H155 C129 0.931 . S
H156 C134 0.930 . S
H157 C135 0.931 . S
H158 C137 0.931 . S
H159 C138 0.931 . S
C160 C161 1.363 . S
C160 C162 1.327 . S
C160 H185 0.950 . S
C161 C160 1.363 . S
C161 C177 1.326 1_556 S
C162 C160 1.327 . S
C162 C181 1.423 1_556 S
C162 H186 0.950 . S
C163 C180 1.574 . S
C163 C182 1.394 . S
C163 H187 0.949 . S
H164 C168 0.949 . S
C165 C166 1.349 . S
C165 C167 1.327 . S
C165 H188 0.950 . S
C166 C165 1.349 . S
C166 C178 1.349 1_554 S
C167 C165 1.327 . S
C167 C183 1.429 . S
C167 H189 0.950 . S
C168 H164 0.949 . S
C168 C176 1.574 . S
C168 C184 1.368 1_556 S
H169 C177 0.950 . S
H170 C175 0.950 . S
H171 C176 0.949 . S
H172 C178 0.950 . S
H173 C179 0.950 . S
H174 C180 0.949 . S
C175 H170 0.950 . S
C175 C177 1.327 . S
C175 C181 1.432 . S
C176 C168 1.574 . S
C176 H171 0.949 . S
C176 C182 1.351 1_556 S
C177 C161 1.326 1_554 S
C177 H169 0.950 . S
C177 C175 1.327 . S
C178 C166 1.349 1_556 S
C178 H172 0.950 . S
C178 C179 1.327 . S
C179 H173 0.950 . S
C179 C178 1.327 . S
C179 C183 1.429 1_556 S
C180 C163 1.574 . S
C180 H174 0.949 . S
C180 C184 1.368 . S
C181 C162 1.423 1_554 S
C181 C175 1.432 . S
C181 C182 1.515 . S
C182 C163 1.394 . S
C182 C176 1.351 1_554 S
C182 C181 1.515 . S
C183 C167 1.429 . S
C183 C179 1.429 1_554 S
C183 C184 1.523 . S
C184 C168 1.368 1_554 S
C184 C180 1.368 . S
C184 C183 1.523 . S
H185 C160 0.950 . S
H186 C162 0.950 . S
H187 C163 0.949 . S
H188 C165 0.950 . S
H189 C167 0.950 . S
C190 C191 1.349 . S
C190 C192 1.327 . S
C190 H215 0.950 . S
C191 C190 1.349 . S
C191 C207 1.349 . S
C192 C190 1.327 . S
C192 C211 1.429 . S
C192 H216 0.950 . S
C193 C210 1.574 . S
C193 C212 1.368 . S
C193 H217 0.949 . S
H194 C198 0.949 . S
C195 C196 1.349 . S
C195 C197 1.327 . S
C195 H218 0.950 . S
C196 C195 1.349 . S
C196 C208 1.349 . S
C197 C195 1.327 . S
C197 C213 1.429 . S
C197 H219 0.950 . S
C198 H194 0.949 . S
C198 C206 1.574 . S
C198 C214 1.368 . S
H199 C207 0.950 . S
H200 C205 0.950 . S
H201 C206 0.949 . S
H202 C208 0.950 . S
H203 C209 0.950 . S
H204 C210 0.949 . S
C205 H200 0.950 . S
C205 C207 1.327 . S
C205 C211 1.429 . S
C206 C198 1.574 . S
C206 H201 0.949 . S
C206 C212 1.368 . S
C207 C191 1.349 . S
C207 H199 0.950 . S
C207 C205 1.327 . S
C208 C196 1.349 . S
C208 H202 0.950 . S
C208 C209 1.327 . S
C209 H203 0.950 . S
C209 C208 1.327 . S
C209 C213 1.429 . S
C210 C193 1.574 . S
C210 H204 0.949 . S
C210 C214 1.368 . S
C211 C192 1.429 . S
C211 C205 1.429 . S
C211 C212 1.523 . S
C212 C193 1.368 . S
C212 C206 1.368 . S
C212 C211 1.523 . S
C213 C197 1.429 . S
C213 C209 1.429 . S
C213 C214 1.523 . S
C214 C198 1.368 . S
C214 C210 1.368 . S
C214 C213 1.523 . S
H215 C190 0.950 . S
H216 C192 0.950 . S
H217 C193 0.949 . S
H218 C195 0.950 . S
H219 C197 0.950 . S
C220 C221 1.365 . S
C220 C222 1.327 . S
C220 H245 0.950 . S
C221 C220 1.365 . S
C221 C237 1.323 1_556 S
C222 C220 1.327 . S
C222 C241 1.423 1_556 S
C222 H246 0.950 . S
C223 C240 1.574 1_445 S
C223 C242 1.396 . S
C223 H247 0.949 . S
H224 C228 0.949 . S
C225 C226 1.349 . S
C225 C227 1.327 . S
C225 H248 0.950 . S
C226 C225 1.349 . S
C226 C238 1.349 1_554 S
C227 C225 1.327 . S
C227 C243 1.429 . S
C227 H249 0.950 . S
C228 H224 0.949 . S
C228 C236 1.574 1_665 S
C228 C244 1.368 1_556 S
H229 C237 0.950 . S
H230 C235 0.950 . S
H231 C236 0.949 . S
H232 C238 0.950 . S
H233 C239 0.950 . S
H234 C240 0.949 . S
C235 H230 0.950 . S
C235 C237 1.327 . S
C235 C241 1.432 . S
C236 C228 1.574 1_445 S
C236 H231 0.949 . S
C236 C242 1.348 1_556 S
C237 C221 1.323 1_554 S
C237 H229 0.950 . S
C237 C235 1.327 . S
C238 C226 1.349 1_556 S
C238 H232 0.950 . S
C238 C239 1.327 . S
C239 H233 0.950 . S
C239 C238 1.327 . S
C239 C243 1.429 1_556 S
C240 C223 1.574 1_665 S
C240 H234 0.949 . S
C240 C244 1.368 . S
C241 C222 1.423 1_554 S
C241 C235 1.432 . S
C241 C242 1.515 . S
C242 C223 1.396 . S
C242 C236 1.348 1_554 S
C242 C241 1.515 . S
C243 C227 1.429 . S
C243 C239 1.429 1_554 S
C243 C244 1.523 . S
C244 C228 1.368 1_554 S
C244 C240 1.368 . S
C244 C243 1.523 . S
H245 C220 0.950 . S
H246 C222 0.950 . S
H247 C223 0.949 . S
H248 C225 0.950 . S
H249 C227 0.950 . S
C250 C251 1.349 . S
C250 C252 1.327 . S
C250 H275 0.950 . S
C251 C250 1.349 . S
C251 C267 1.349 . S
C252 C250 1.327 . S
C252 C271 1.429 . S
C252 H276 0.950 . S
C253 C270 1.574 1_645 S
C253 C272 1.368 . S
C253 H277 0.949 . S
H254 C258 0.949 . S
C255 C256 1.349 . S
C255 C257 1.327 . S
C255 H278 0.950 . S
C256 C255 1.349 . S
C256 C268 1.349 . S
C257 C255 1.327 . S
C257 C273 1.429 . S
C257 H279 0.950 . S
C258 H254 0.949 . S
C258 C266 1.574 1_465 S
C258 C274 1.368 . S
H259 C267 0.950 . S
H260 C265 0.950 . S
H261 C266 0.949 . S
H262 C268 0.950 . S
H263 C269 0.950 . S
H264 C270 0.949 . S
C265 H260 0.950 . S
C265 C267 1.327 . S
C265 C271 1.429 . S
C266 C258 1.574 1_645 S
C266 H261 0.949 . S
C266 C272 1.368 . S
C267 C251 1.349 . S
C267 H259 0.950 . S
C267 C265 1.327 . S
C268 C256 1.349 . S
C268 H262 0.950 . S
C268 C269 1.327 . S
C269 H263 0.950 . S
C269 C268 1.327 . S
C269 C273 1.429 . S
C270 C253 1.574 1_465 S
C270 H264 0.949 . S
C270 C274 1.368 . S
C271 C252 1.429 . S
C271 C265 1.429 . S
C271 C272 1.523 . S
C272 C253 1.368 . S
C272 C266 1.368 . S
C272 C271 1.523 . S
C273 C257 1.429 . S
C273 C269 1.429 . S
C273 C274 1.523 . S
C274 C258 1.368 . S
C274 C270 1.368 . S
C274 C273 1.523 . S
H275 C250 0.950 . S
H276 C252 0.950 . S
H277 C253 0.949 . S
H278 C255 0.950 . S
H279 C257 0.950 . S
C280 C281 1.349 . S
C280 C282 1.327 . S
C280 H305 0.950 . S
C281 C280 1.349 . S
C281 C297 1.349 . S
C282 C280 1.327 . S
C282 C301 1.429 . S
C282 H306 0.950 . S
C283 C300 1.574 . S
C283 C302 1.368 . S
C283 H307 0.949 . S
H284 C288 0.949 . S
C285 C286 1.349 . S
C285 C287 1.327 . S
C285 H308 0.950 . S
C286 C285 1.349 . S
C286 C298 1.349 . S
C287 C285 1.327 . S
C287 C303 1.429 . S
C287 H309 0.950 . S
C288 H284 0.949 . S
C288 C296 1.574 . S
C288 C304 1.368 . S
H289 C297 0.950 . S
H290 C295 0.950 . S
H291 C296 0.949 . S
H292 C298 0.950 . S
H293 C299 0.950 . S
H294 C300 0.949 . S
C295 H290 0.950 . S
C295 C297 1.327 . S
C295 C301 1.429 . S
C296 C288 1.574 . S
C296 H291 0.949 . S
C296 C302 1.368 . S
C297 C281 1.349 . S
C297 H289 0.950 . S
C297 C295 1.327 . S
C298 C286 1.349 . S
C298 H292 0.950 . S
C298 C299 1.327 . S
C299 H293 0.950 . S
C299 C298 1.327 . S
C299 C303 1.429 . S
C300 C283 1.574 . S
C300 H294 0.949 . S
C300 C304 1.368 . S
C301 C282 1.429 . S
C301 C295 1.429 . S
C301 C302 1.523 . S
C302 C283 1.368 . S
C302 C296 1.368 . S
C302 C301 1.523 . S
C303 C287 1.429 . S
C303 C299 1.429 . S
C303 C304 1.523 . S
C304 C288 1.368 . S
C304 C300 1.368 . S
C304 C303 1.523 . S
H305 C280 0.950 . S
H306 C282 0.950 . S
H307 C283 0.949 . S
H308 C285 0.950 . S
H309 C287 0.950 . S
C310 C311 1.349 . S
C310 C312 1.327 . S
C310 H335 0.950 . S
C311 C310 1.349 . S
C311 C327 1.349 . S
C312 C310 1.327 . S
C312 C331 1.429 . S
C312 H336 0.950 . S
C313 C330 1.574 . S
C313 C332 1.368 . S
C313 H337 0.949 . S
H314 C318 0.949 . S
C315 C316 1.349 . S
C315 C317 1.327 . S
C315 H338 0.950 . S
C316 C315 1.349 . S
C316 C328 1.349 . S
C317 C315 1.327 . S
C317 C333 1.429 . S
C317 H339 0.950 . S
C318 H314 0.949 . S
C318 C326 1.574 . S
C318 C334 1.368 . S
H319 C327 0.950 . S
H320 C325 0.950 . S
H321 C326 0.949 . S
H322 C328 0.950 . S
H323 C329 0.950 . S
H324 C330 0.949 . S
C325 H320 0.950 . S
C325 C327 1.327 . S
C325 C331 1.429 . S
C326 C318 1.574 . S
C326 H321 0.949 . S
C326 C332 1.368 . S
C327 C311 1.349 . S
C327 H319 0.950 . S
C327 C325 1.327 . S
C328 C316 1.349 . S
C328 H322 0.950 . S
C328 C329 1.327 . S
C329 H323 0.950 . S
C329 C328 1.327 . S
C329 C333 1.429 . S
C330 C313 1.574 . S
C330 H324 0.949 . S
C330 C334 1.368 . S
C331 C312 1.429 . S
C331 C325 1.429 . S
C331 C332 1.523 . S
C332 C313 1.368 . S
C332 C326 1.368 . S
C332 C331 1.523 . S
C333 C317 1.429 . S
C333 C329 1.429 . S
C333 C334 1.523 . S
C334 C318 1.368 . S
C334 C330 1.368 . S
C334 C333 1.523 . S
H335 C310 0.950 . S
H336 C312 0.950 . S
H337 C313 0.949 . S
H338 C315 0.950 . S
H339 C317 0.950 . S
C340 C341 1.349 . S
C340 C342 1.327 . S
C340 H365 0.950 . S
C341 C340 1.349 . S
C341 C357 1.349 . S
C342 C340 1.327 . S
C342 C361 1.429 . S
C342 H366 0.950 . S
C343 C360 1.574 . S
C343 C362 1.368 . S
C343 H367 0.949 . S
H344 C348 0.949 . S
C345 C346 1.349 . S
C345 C347 1.327 . S
C345 H368 0.950 . S
C346 C345 1.349 . S
C346 C358 1.349 . S
C347 C345 1.327 . S
C347 C363 1.429 . S
C347 H369 0.950 . S
C348 H344 0.949 . S
C348 C356 1.574 . S
C348 C364 1.368 . S
H349 C357 0.950 . S
H350 C355 0.950 . S
H351 C356 0.949 . S
H352 C358 0.950 . S
H353 C359 0.950 . S
H354 C360 0.949 . S
C355 H350 0.950 . S
C355 C357 1.327 . S
C355 C361 1.429 . S
C356 C348 1.574 . S
C356 H351 0.949 . S
C356 C362 1.368 . S
C357 C341 1.349 . S
C357 H349 0.950 . S
C357 C355 1.327 . S
C358 C346 1.349 . S
C358 H352 0.950 . S
C358 C359 1.327 . S
C359 H353 0.950 . S
C359 C358 1.327 . S
C359 C363 1.429 . S
C360 C343 1.574 . S
C360 H354 0.949 . S
C360 C364 1.368 . S
C361 C342 1.429 . S
C361 C355 1.429 . S
C361 C362 1.523 . S
C362 C343 1.368 . S
C362 C356 1.368 . S
C362 C361 1.523 . S
C363 C347 1.429 . S
C363 C359 1.429 . S
C363 C364 1.523 . S
C364 C348 1.368 . S
C364 C360 1.368 . S
C364 C363 1.523 . S
H365 C340 0.950 . S
H366 C342 0.950 . S
H367 C343 0.949 . S
H368 C345 0.950 . S
H369 C347 0.950 . S
C370 C371 1.349 . S
C370 C372 1.327 . S
C370 H395 0.950 . S
C371 C370 1.349 . S
C371 C387 1.349 . S
C372 C370 1.327 . S
C372 C391 1.429 . S
C372 H396 0.950 . S
C373 C390 1.574 . S
C373 C392 1.368 . S
C373 H397 0.949 . S
H374 C378 0.949 . S
C375 C376 1.349 . S
C375 C377 1.327 . S
C375 H398 0.950 . S
C376 C375 1.349 . S
C376 C388 1.349 . S
C377 C375 1.327 . S
C377 C393 1.429 . S
C377 H399 0.950 . S
C378 H374 0.949 . S
C378 C386 1.574 . S
C378 C394 1.368 . S
H379 C387 0.950 . S
H380 C385 0.950 . S
H381 C386 0.949 . S
H382 C388 0.950 . S
H383 C389 0.950 . S
H384 C390 0.949 . S
C385 H380 0.950 . S
C385 C387 1.327 . S
C385 C391 1.429 . S
C386 C378 1.574 . S
C386 H381 0.949 . S
C386 C392 1.368 . S
C387 C371 1.349 . S
C387 H379 0.950 . S
C387 C385 1.327 . S
C388 C376 1.349 . S
C388 H382 0.950 . S
C388 C389 1.327 . S
C389 H383 0.950 . S
C389 C388 1.327 . S
C389 C393 1.429 . S
C390 C373 1.574 . S
C390 H384 0.949 . S
C390 C394 1.368 . S
C391 C372 1.429 . S
C391 C385 1.429 . S
C391 C392 1.523 . S
C392 C373 1.368 . S
C392 C386 1.368 . S
C392 C391 1.523 . S
C393 C377 1.429 . S
C393 C389 1.429 . S
C393 C394 1.523 . S
C394 C378 1.368 . S
C394 C390 1.368 . S
C394 C393 1.523 . S
H395 C370 0.950 . S
H396 C372 0.950 . S
H397 C373 0.949 . S
H398 C375 0.950 . S
H399 C377 0.950 . S
C400 C401 1.349 . S
C400 C402 1.327 . S
C400 H425 0.950 . S
C401 C400 1.349 . S
C401 C417 1.349 . S
C402 C400 1.327 . S
C402 C421 1.429 . S
C402 H426 0.950 . S
C403 C420 1.574 . S
C403 C422 1.368 1_455 S
C403 H427 0.949 . S
H404 C408 0.949 . S
C405 C406 1.349 . S
C405 C407 1.327 . S
C405 H428 0.950 . S
C406 C405 1.349 . S
C406 C418 1.349 . S
C407 C405 1.327 . S
C407 C423 1.429 . S
C407 H429 0.950 . S
C408 H404 0.949 . S
C408 C416 1.574 . S
C408 C424 1.368 1_655 S
H409 C417 0.950 . S
H410 C415 0.950 . S
H411 C416 0.949 . S
H412 C418 0.950 . S
H413 C419 0.950 . S
H414 C420 0.949 . S
C415 H410 0.950 . S
C415 C417 1.327 . S
C415 C421 1.429 . S
C416 C408 1.574 . S
C416 H411 0.949 . S
C416 C422 1.368 . S
C417 C401 1.349 . S
C417 H409 0.950 . S
C417 C415 1.327 . S
C418 C406 1.349 . S
C418 H412 0.950 . S
C418 C419 1.327 . S
C419 H413 0.950 . S
C419 C418 1.327 . S
C419 C423 1.429 . S
C420 C403 1.574 . S
C420 H414 0.949 . S
C420 C424 1.368 . S
C421 C402 1.429 . S
C421 C415 1.429 . S
C421 C422 1.523 . S
C422 C403 1.368 1_655 S
C422 C416 1.368 . S
C422 C421 1.523 . S
C423 C407 1.429 . S
C423 C419 1.429 . S
C423 C424 1.523 . S
C424 C408 1.368 1_455 S
C424 C420 1.368 . S
C424 C423 1.523 . S
H425 C400 0.950 . S
H426 C402 0.950 . S
H427 C403 0.949 . S
H428 C405 0.950 . S
H429 C407 0.950 . S
C430 C431 1.349 . S
C430 C432 1.327 . S
C430 H455 0.950 . S
C431 C430 1.349 . S
C431 C447 1.349 . S
C432 C430 1.327 . S
C432 C451 1.429 . S
C432 H456 0.950 . S
C433 C450 1.574 . S
C433 C452 1.368 1_455 S
C433 H457 0.949 . S
H434 C438 0.949 . S
C435 C436 1.349 . S
C435 C437 1.327 . S
C435 H458 0.950 . S
C436 C435 1.349 . S
C436 C448 1.349 . S
C437 C435 1.327 . S
C437 C453 1.429 . S
C437 H459 0.950 . S
C438 H434 0.949 . S
C438 C446 1.574 . S
C438 C454 1.368 1_655 S
H439 C447 0.950 1_455 S
H440 C445 0.950 . S
H441 C446 0.949 . S
H442 C448 0.950 1_655 S
H443 C449 0.950 . S
H444 C450 0.949 . S
C445 H440 0.950 . S
C445 C447 1.327 1_455 S
C445 C451 1.429 1_455 S
C446 C438 1.574 . S
C446 H441 0.949 . S
C446 C452 1.368 . S
C447 C431 1.349 . S
C447 H439 0.950 1_655 S
C447 C445 1.327 1_655 S
C448 C436 1.349 . S
C448 H442 0.950 1_455 S
C448 C449 1.327 1_455 S
C449 H443 0.950 . S
C449 C448 1.327 1_655 S
C449 C453 1.429 1_655 S
C450 C433 1.574 . S
C450 H444 0.949 . S
C450 C454 1.368 . S
C451 C432 1.429 . S
C451 C445 1.429 1_655 S
C451 C452 1.523 . S
C452 C433 1.368 1_655 S
C452 C446 1.368 . S
C452 C451 1.523 . S
C453 C437 1.429 . S
C453 C449 1.429 1_455 S
C453 C454 1.523 . S
C454 C438 1.368 1_455 S
C454 C450 1.368 . S
C454 C453 1.523 . S
H455 C430 0.950 . S
H456 C432 0.950 . S
H457 C433 0.949 . S
H458 C435 0.950 . S
H459 C437 0.950 . S
C460 C461 1.349 . S
C460 C462 1.327 . S
C460 H485 0.950 . S
C461 C460 1.349 . S
C461 C477 1.349 . S
C462 C460 1.327 . S
C462 C481 1.429 . S
C462 H486 0.950 . S
C463 C480 1.574 . S
C463 C482 1.368 1_455 S
C463 H487 0.949 . S
H464 C468 0.949 . S
C465 C466 1.349 . S
C465 C467 1.327 . S
C465 H488 0.950 . S
C466 C465 1.349 . S
C466 C478 1.349 . S
C467 C465 1.327 . S
C467 C483 1.429 . S
C467 H489 0.950 . S
C468 H464 0.949 . S
C468 C476 1.574 . S
C468 C484 1.368 1_655 S
H469 C477 0.950 . S
H470 C475 0.950 . S
H471 C476 0.949 . S
H472 C478 0.950 . S
H473 C479 0.950 . S
H474 C480 0.949 . S
C475 H470 0.950 . S
C475 C477 1.327 . S
C475 C481 1.429 . S
C476 C468 1.574 . S
C476 H471 0.949 . S
C476 C482 1.368 . S
C477 C461 1.349 . S
C477 H469 0.950 . S
C477 C475 1.327 . S
C478 C466 1.349 . S
C478 H472 0.950 . S
C478 C479 1.327 . S
C479 H473 0.950 . S
C479 C478 1.327 . S
C479 C483 1.429 . S
C480 C463 1.574 . S
C480 H474 0.949 . S
C480 C484 1.368 . S
C481 C462 1.429 . S
C481 C475 1.429 . S
C481 C482 1.523 . S
C482 C463 1.368 1_655 S
C482 C476 1.368 . S
C482 C481 1.523 . S
C483 C467 1.429 . S
C483 C479 1.429 . S
C483 C484 1.523 . S
C484 C468 1.368 1_455 S
C484 C480 1.368 . S
C484 C483 1.523 . S
H485 C460 0.950 . S
H486 C462 0.950 . S
H487 C463 0.949 . S
H488 C465 0.950 . S
H489 C467 0.950 . S
C490 C491 1.349 . S
C490 C492 1.327 1_455 S
C490 H515 0.950 1_455 S
C491 C490 1.349 . S
C491 C507 1.349 . S
C492 C490 1.327 1_655 S
C492 C511 1.429 1_655 S
C492 H516 0.950 . S
C493 C510 1.574 . S
C493 C512 1.368 . S
C493 H517 0.949 . S
H494 C498 0.949 . S
C495 C496 1.349 . S
C495 C497 1.327 1_655 S
C495 H518 0.950 1_655 S
C496 C495 1.349 . S
C496 C508 1.349 . S
C497 C495 1.327 1_455 S
C497 C513 1.429 1_455 S
C497 H519 0.950 . S
C498 H494 0.949 . S
C498 C506 1.574 . S
C498 C514 1.368 . S
H499 C507 0.950 . S
H500 C505 0.950 . S
H501 C506 0.949 . S
H502 C508 0.950 . S
H503 C509 0.950 . S
H504 C510 0.949 . S
C505 H500 0.950 . S
C505 C507 1.327 . S
C505 C511 1.429 . S
C506 C498 1.574 . S
C506 H501 0.949 . S
C506 C512 1.368 1_655 S
C507 C491 1.349 . S
C507 H499 0.950 . S
C507 C505 1.327 . S
C508 C496 1.349 . S
C508 H502 0.950 . S
C508 C509 1.327 . S
C509 H503 0.950 . S
C509 C508 1.327 . S
C509 C513 1.429 . S
C510 C493 1.574 . S
C510 H504 0.949 . S
C510 C514 1.368 1_455 S
C511 C492 1.429 1_455 S
C511 C505 1.429 . S
C511 C512 1.523 . S
C512 C493 1.368 . S
C512 C506 1.368 1_455 S
C512 C511 1.523 . S
C513 C497 1.429 1_655 S
C513 C509 1.429 . S
C513 C514 1.523 . S
C514 C498 1.368 . S
C514 C510 1.368 1_655 S
C514 C513 1.523 . S
H515 C490 0.950 1_655 S
H516 C492 0.950 . S
H517 C493 0.949 . S
H518 C495 0.950 1_455 S
H519 C497 0.950 . S
C161 C59 1.540 . S
C166 C10 1.528 . S
C191 C99 1.528 . S
C196 C130 1.528 . S
C221 C19 1.540 . S
C226 C50 1.529 . S
C251 C139 1.529 . S
C256 C90 1.529 . S
C281 C122 1.498 . S
C286 C2 1.498 . S
C311 C47 0.951 . S
C316 C87 0.951 . S
C341 C51 1.497 . S
C346 C91 1.497 . S
C371 C136 0.951 . S
C376 C16 0.951 . S
C401 C42 1.498 . S
C406 C82 1.498 . S
C431 C127 0.951 . S
C436 C7 0.951 . S
C461 C131 1.497 . S
C466 C11 1.497 . S
C491 C96 0.951 . S
C496 C56 0.951 . S
