# Generated by pormake.
# Topology uoa, (4)-cn, num edge types: 1
# Building blocks:
#     Node 0, Type 0, BuildingBlock: NAWXER_clean_sbu_0, # of connection points: 4
#     Node 1, Type 0, BuildingBlock: NAWXER_clean_sbu_0, # of connection points: 4
#     Node 2, Type 0, BuildingBlock: NAWXER_clean_sbu_0, # of connection points: 4
#     Node 3, Type 0, BuildingBlock: NAWXER_clean_sbu_0, # of connection points: 4
#     Node 4, Type 0, BuildingBlock: NAWXER_clean_sbu_0, # of connection points: 4
#     Node 5, Type 0, BuildingBlock: NAWXER_clean_sbu_0, # of connection points: 4
#     Node 6, Type 0, BuildingBlock: NAWXER_clean_sbu_0, # of connection points: 4
#     Node 7, Type 0, BuildingBlock: NAWXER_clean_sbu_0, # of connection points: 4
#     Node 8, Type 0, BuildingBlock: NAWXER_clean_sbu_0, # of connection points: 4
#     Node 9, Type 0, BuildingBlock: NAWXER_clean_sbu_0, # of connection points: 4
#     Node 10, Type 0, BuildingBlock: NAWXER_clean_sbu_0, # of connection points: 4
#     Node 11, Type 0, BuildingBlock: NAWXER_clean_sbu_0, # of connection points: 4
#     Node 12, Type 0, BuildingBlock: NAWXER_clean_sbu_0, # of connection points: 4
#     Node 13, Type 0, BuildingBlock: NAWXER_clean_sbu_0, # of connection points: 4
#     Node 14, Type 0, BuildingBlock: NAWXER_clean_sbu_0, # of connection points: 4
#     Node 15, Type 0, BuildingBlock: NAWXER_clean_sbu_0, # of connection points: 4
#     Node 16, Type 0, BuildingBlock: NAWXER_clean_sbu_0, # of connection points: 4
#     Node 17, Type 0, BuildingBlock: NAWXER_clean_sbu_0, # of connection points: 4
#     Node 18, Type 0, BuildingBlock: NAWXER_clean_sbu_0, # of connection points: 4
#     Node 19, Type 0, BuildingBlock: NAWXER_clean_sbu_0, # of connection points: 4
#     Node 20, Type 0, BuildingBlock: NAWXER_clean_sbu_0, # of connection points: 4
#     Node 21, Type 0, BuildingBlock: NAWXER_clean_sbu_0, # of connection points: 4
#     Node 22, Type 0, BuildingBlock: NAWXER_clean_sbu_0, # of connection points: 4
#     Node 23, Type 0, BuildingBlock: NAWXER_clean_sbu_0, # of connection points: 4
#     Node 24, Type 0, BuildingBlock: NAWXER_clean_sbu_0, # of connection points: 4
#     Node 25, Type 0, BuildingBlock: NAWXER_clean_sbu_0, # of connection points: 4
#     Node 26, Type 0, BuildingBlock: NAWXER_clean_sbu_0, # of connection points: 4
#     Node 27, Type 0, BuildingBlock: NAWXER_clean_sbu_0, # of connection points: 4
#     Node 28, Type 0, BuildingBlock: NAWXER_clean_sbu_0, # of connection points: 4
#     Node 29, Type 0, BuildingBlock: NAWXER_clean_sbu_0, # of connection points: 4
#     Node 30, Type 0, BuildingBlock: NAWXER_clean_sbu_0, # of connection points: 4
#     Node 31, Type 0, BuildingBlock: NAWXER_clean_sbu_0, # of connection points: 4
#     Edge 32, Type (0, 0), BuildingBlock: OJICUG_clean_linker_0, # of connection points: 2
#     Edge 33, Type (0, 0), BuildingBlock: OJICUG_clean_linker_0, # of connection points: 2
#     Edge 34, Type (0, 0), BuildingBlock: OJICUG_clean_linker_0, # of connection points: 2
#     Edge 35, Type (0, 0), BuildingBlock: OJICUG_clean_linker_0, # of connection points: 2
#     Edge 36, Type (0, 0), BuildingBlock: OJICUG_clean_linker_0, # of connection points: 2
#     Edge 37, Type (0, 0), BuildingBlock: OJICUG_clean_linker_0, # of connection points: 2
#     Edge 38, Type (0, 0), BuildingBlock: OJICUG_clean_linker_0, # of connection points: 2
#     Edge 39, Type (0, 0), BuildingBlock: OJICUG_clean_linker_0, # of connection points: 2
#     Edge 40, Type (0, 0), BuildingBlock: OJICUG_clean_linker_0, # of connection points: 2
#     Edge 41, Type (0, 0), BuildingBlock: OJICUG_clean_linker_0, # of connection points: 2
#     Edge 42, Type (0, 0), BuildingBlock: OJICUG_clean_linker_0, # of connection points: 2
#     Edge 43, Type (0, 0), BuildingBlock: OJICUG_clean_linker_0, # of connection points: 2
#     Edge 44, Type (0, 0), BuildingBlock: OJICUG_clean_linker_0, # of connection points: 2
#     Edge 45, Type (0, 0), BuildingBlock: OJICUG_clean_linker_0, # of connection points: 2
#     Edge 46, Type (0, 0), BuildingBlock: OJICUG_clean_linker_0, # of connection points: 2
#     Edge 47, Type (0, 0), BuildingBlock: OJICUG_clean_linker_0, # of connection points: 2
#     Edge 48, Type (0, 0), BuildingBlock: OJICUG_clean_linker_0, # of connection points: 2
#     Edge 49, Type (0, 0), BuildingBlock: OJICUG_clean_linker_0, # of connection points: 2
#     Edge 50, Type (0, 0), BuildingBlock: OJICUG_clean_linker_0, # of connection points: 2
#     Edge 51, Type (0, 0), BuildingBlock: OJICUG_clean_linker_0, # of connection points: 2
#     Edge 52, Type (0, 0), BuildingBlock: OJICUG_clean_linker_0, # of connection points: 2
#     Edge 53, Type (0, 0), BuildingBlock: OJICUG_clean_linker_0, # of connection points: 2
#     Edge 54, Type (0, 0), BuildingBlock: OJICUG_clean_linker_0, # of connection points: 2
#     Edge 55, Type (0, 0), BuildingBlock: OJICUG_clean_linker_0, # of connection points: 2
#     Edge 56, Type (0, 0), BuildingBlock: OJICUG_clean_linker_0, # of connection points: 2
#     Edge 57, Type (0, 0), BuildingBlock: OJICUG_clean_linker_0, # of connection points: 2
#     Edge 58, Type (0, 0), BuildingBlock: OJICUG_clean_linker_0, # of connection points: 2
#     Edge 59, Type (0, 0), BuildingBlock: OJICUG_clean_linker_0, # of connection points: 2
#     Edge 60, Type (0, 0), BuildingBlock: OJICUG_clean_linker_0, # of connection points: 2
#     Edge 61, Type (0, 0), BuildingBlock: OJICUG_clean_linker_0, # of connection points: 2
#     Edge 62, Type (0, 0), BuildingBlock: OJICUG_clean_linker_0, # of connection points: 2
#     Edge 63, Type (0, 0), BuildingBlock: OJICUG_clean_linker_0, # of connection points: 2
#     Edge 64, Type (0, 0), BuildingBlock: OJICUG_clean_linker_0, # of connection points: 2
#     Edge 65, Type (0, 0), BuildingBlock: OJICUG_clean_linker_0, # of connection points: 2
#     Edge 66, Type (0, 0), BuildingBlock: OJICUG_clean_linker_0, # of connection points: 2
#     Edge 67, Type (0, 0), BuildingBlock: OJICUG_clean_linker_0, # of connection points: 2
#     Edge 68, Type (0, 0), BuildingBlock: OJICUG_clean_linker_0, # of connection points: 2
#     Edge 69, Type (0, 0), BuildingBlock: OJICUG_clean_linker_0, # of connection points: 2
#     Edge 70, Type (0, 0), BuildingBlock: OJICUG_clean_linker_0, # of connection points: 2
#     Edge 71, Type (0, 0), BuildingBlock: OJICUG_clean_linker_0, # of connection points: 2
#     Edge 72, Type (0, 0), BuildingBlock: OJICUG_clean_linker_0, # of connection points: 2
#     Edge 73, Type (0, 0), BuildingBlock: OJICUG_clean_linker_0, # of connection points: 2
#     Edge 74, Type (0, 0), BuildingBlock: OJICUG_clean_linker_0, # of connection points: 2
#     Edge 75, Type (0, 0), BuildingBlock: OJICUG_clean_linker_0, # of connection points: 2
#     Edge 76, Type (0, 0), BuildingBlock: OJICUG_clean_linker_0, # of connection points: 2
#     Edge 77, Type (0, 0), BuildingBlock: OJICUG_clean_linker_0, # of connection points: 2
#     Edge 78, Type (0, 0), BuildingBlock: OJICUG_clean_linker_0, # of connection points: 2
#     Edge 79, Type (0, 0), BuildingBlock: OJICUG_clean_linker_0, # of connection points: 2
#     Edge 80, Type (0, 0), BuildingBlock: OJICUG_clean_linker_0, # of connection points: 2
#     Edge 81, Type (0, 0), BuildingBlock: OJICUG_clean_linker_0, # of connection points: 2
#     Edge 82, Type (0, 0), BuildingBlock: OJICUG_clean_linker_0, # of connection points: 2
#     Edge 83, Type (0, 0), BuildingBlock: OJICUG_clean_linker_0, # of connection points: 2
#     Edge 84, Type (0, 0), BuildingBlock: OJICUG_clean_linker_0, # of connection points: 2
#     Edge 85, Type (0, 0), BuildingBlock: OJICUG_clean_linker_0, # of connection points: 2
#     Edge 86, Type (0, 0), BuildingBlock: OJICUG_clean_linker_0, # of connection points: 2
#     Edge 87, Type (0, 0), BuildingBlock: OJICUG_clean_linker_0, # of connection points: 2
#     Edge 88, Type (0, 0), BuildingBlock: OJICUG_clean_linker_0, # of connection points: 2
#     Edge 89, Type (0, 0), BuildingBlock: OJICUG_clean_linker_0, # of connection points: 2
#     Edge 90, Type (0, 0), BuildingBlock: OJICUG_clean_linker_0, # of connection points: 2
#     Edge 91, Type (0, 0), BuildingBlock: OJICUG_clean_linker_0, # of connection points: 2
#     Edge 92, Type (0, 0), BuildingBlock: OJICUG_clean_linker_0, # of connection points: 2
#     Edge 93, Type (0, 0), BuildingBlock: OJICUG_clean_linker_0, # of connection points: 2
#     Edge 94, Type (0, 0), BuildingBlock: OJICUG_clean_linker_0, # of connection points: 2
#     Edge 95, Type (0, 0), BuildingBlock: OJICUG_clean_linker_0, # of connection points: 2
# Relax obj value: 0.037
# Max RMSD: 0.224
# Mean RMSD: 0.224
data_MOF--net-uoa--node1-NAWXER_clean_sbu_0--edge1-OJICUG_clean_linker_0
_symmetry_space_group_name_H-M    P1
_symmetry_Int_Tables_number       1
_symmetry_cell_setting            triclinic
loop_
_symmetry_equiv_pos_as_xyz
'x, y, z'
_cell_length_a     55.943116
_cell_length_b     55.928255
_cell_length_c     21.029426
_cell_angle_alpha  89.998221
_cell_angle_beta   89.994922
_cell_angle_gamma 90.008077
loop_
_atom_site_label
_atom_site_type_symbol
_atom_site_fract_x
_atom_site_fract_y
_atom_site_fract_z
_atom_type_partial_charge
C0 C 0.00034 0.09522 0.94615 0.0
C1 C -0.00777 0.08874 0.1755 0.0
O2 O 0.01776 0.08338 0.97022 0.0
Zn3 Zn 0.02833 0.0722 0.06445 0.0
O4 O 0.98461 0.10419 0.9825 0.0
Zn5 Zn -0.00325 0.09187 0.06122 0.0
O6 O 0.02909 0.11263 0.08079 0.0
O7 O 0.05856 0.08649 0.07625 0.0
O8 O 0.97767 0.0977 0.13585 0.0
O9 O 0.01147 0.07872 0.15557 0.0
O10 O 0.02877 0.0382 0.05668 0.0
O11 O -0.00723 0.0537 0.04639 0.0
C12 C 0.05147 0.10772 0.08576 0.0
C13 C 0.00668 0.03544 0.04545 0.0
C14 C 0.19294 0.75689 0.29805 0.0
C15 C 0.12061 0.80177 0.33672 0.0
O16 O 0.17468 0.74298 0.2989 0.0
Zn17 Zn 0.13649 0.747 0.31318 0.0
O18 O 0.19017 0.77901 0.30897 0.0
Zn19 Zn 0.15616 0.77858 0.31638 0.0
O20 O 0.1495 0.76182 0.40756 0.0
O21 O 0.13052 0.72801 0.38788 0.0
O22 O 0.14187 0.80884 0.32766 0.0
O23 O 0.1157 0.77938 0.33194 0.0
O24 O 0.12431 0.73471 0.23449 0.0
O25 O 0.14512 0.76788 0.22212 0.0
C26 C 0.13945 0.7426 0.42751 0.0
C27 C 0.13331 0.75042 0.1981 0.0
C28 C 0.48546 0.88962 0.67835 0.0
C29 C 0.47754 0.88307 0.44903 0.0
O30 O 0.46622 0.8996 0.65833 0.0
Zn31 Zn 0.4494 0.90605 0.56714 0.0
O32 O 0.50006 0.88067 0.63877 0.0
Zn33 Zn 0.48102 0.88645 0.56407 0.0
O34 O 0.48493 0.92463 0.54926 0.0
O35 O 0.44889 0.94006 0.55931 0.0
O36 O 0.49327 0.87415 0.48546 0.0
O37 O 0.46007 0.89488 0.47298 0.0
O38 O 0.4192 0.89169 0.5788 0.0
O39 O 0.44872 0.86561 0.58341 0.0
C40 C 0.47099 0.94286 0.54824 0.0
C41 C 0.42633 0.87047 0.58825 0.0
C42 C 0.28521 0.22087 0.79576 0.0
C43 C 0.35755 0.17614 0.83562 0.0
O44 O 0.30345 0.2348 0.79676 0.0
Zn45 Zn 0.34163 0.23086 0.81134 0.0
O46 O 0.288 0.19875 0.80665 0.0
Zn47 Zn 0.322 0.19924 0.81438 0.0
O48 O 0.32846 0.21607 0.90557 0.0
O49 O 0.34744 0.24991 0.886 0.0
O50 O 0.33634 0.16902 0.82605 0.0
O51 O 0.36242 0.19855 0.83077 0.0
O52 O 0.35391 0.24309 0.73269 0.0
O53 O 0.33315 0.20991 0.72021 0.0
C54 C 0.33846 0.23532 0.92558 0.0
C55 C 0.34497 0.22737 0.69625 0.0
C56 C 0.05165 0.87076 0.42752 0.0
C57 C 0.0068 0.94308 0.46684 0.0
O58 O 0.02926 0.86585 0.43234 0.0
Zn59 Zn -0.0031 0.88663 0.45127 0.0
O60 O 0.05872 0.89202 0.43664 0.0
Zn61 Zn 0.02847 0.90631 0.44808 0.0
O62 O 0.01781 0.89518 0.54231 0.0
O63 O 0.98464 0.87438 0.52992 0.0
O64 O 0.02889 0.94033 0.45571 0.0
O65 O -0.00711 0.92481 0.46592 0.0
O66 O 0.9779 0.88073 0.37656 0.0
O67 O 0.0117 0.89972 0.35691 0.0
C68 C 0.00036 0.88336 0.56632 0.0
C69 C -0.00752 0.88968 0.33694 0.0
C70 C 0.34506 0.75036 0.82064 0.0
C71 C 0.33882 0.7424 0.59125 0.0
O72 O 0.33324 0.7678 0.79659 0.0
Zn73 Zn 0.32217 0.77843 0.70232 0.0
O74 O 0.35405 0.73464 0.78428 0.0
Zn75 Zn 0.34183 0.74686 0.70555 0.0
O76 O 0.3626 0.77923 0.68637 0.0
O77 O 0.33644 0.80869 0.69082 0.0
O78 O 0.34776 0.72782 0.63091 0.0
O79 O 0.32878 0.76163 0.61117 0.0
O80 O 0.28817 0.77887 0.7098 0.0
O81 O 0.30364 0.74285 0.71995 0.0
C82 C 0.35769 0.80162 0.68151 0.0
C83 C 0.28539 0.75676 0.72079 0.0
C84 C 0.47736 0.09517 0.06989 0.0
C85 C 0.48542 0.08859 0.84057 0.0
O86 O 0.45993 0.08331 0.0459 0.0
Zn87 Zn 0.44934 0.07209 0.95172 0.0
O88 O 0.49308 0.10413 0.03348 0.0
Zn89 Zn 0.48091 0.09178 0.95483 0.0
O90 O 0.44858 0.11252 0.93525 0.0
O91 O 0.4191 0.08637 0.93993 0.0
O92 O 0.49998 0.09758 0.88017 0.0
O93 O 0.46618 0.07857 0.86056 0.0
O94 O 0.4489 0.03809 0.9596 0.0
O95 O 0.4849 0.0536 0.96973 0.0
C96 C 0.42619 0.1076 0.93034 0.0
C97 C 0.471 0.03534 0.97075 0.0
C98 C 0.13928 0.23543 0.09052 0.0
C99 C 0.13274 0.22752 0.31985 0.0
O100 O 0.14925 0.21618 0.11055 0.0
Zn101 Zn 0.15568 0.19935 0.20176 0.0
O102 O 0.13031 0.25003 0.13008 0.0
Zn103 Zn 0.13609 0.23098 0.20476 0.0
O104 O 0.17428 0.23489 0.21934 0.0
O105 O 0.18968 0.19882 0.2095 0.0
O106 O 0.12382 0.24324 0.28338 0.0
O107 O 0.14454 0.21004 0.29591 0.0
O108 O 0.14132 0.16914 0.19012 0.0
O109 O 0.11526 0.19868 0.18532 0.0
C110 C 0.1925 0.22093 0.22036 0.0
C111 C 0.12011 0.17628 0.18051 0.0
C112 C 0.9775 0.88331 0.06632 0.0
C113 C 0.98539 0.88971 0.83695 0.0
O114 O -0.00678 0.87437 0.0299 0.0
Zn115 Zn 0.98097 0.88662 0.95127 0.0
O116 O 0.96004 0.89512 0.04233 0.0
Zn117 Zn 0.94936 0.90625 0.94813 0.0
O118 O 0.91914 0.89191 0.93664 0.0
O119 O 0.94864 0.8658 0.93221 0.0
O120 O 0.96615 0.89971 0.85694 0.0
O121 O -2e-05 0.88077 0.87656 0.0
O122 O 0.98491 0.92481 0.96596 0.0
O123 O 0.94889 0.94026 0.95581 0.0
C124 C 0.92624 0.87067 0.9274 0.0
C125 C 0.97098 0.94305 0.96691 0.0
C126 C 0.84514 0.22747 0.82031 0.0
C127 C 0.83853 0.23546 0.591 0.0
O128 O 0.85408 0.24319 0.78386 0.0
Zn129 Zn 0.84175 0.23097 0.70524 0.0
O130 O 0.8333 0.21001 0.79637 0.0
Zn131 Zn 0.82211 0.19936 0.70222 0.0
O132 O 0.83643 0.16913 0.69045 0.0
O133 O 0.86252 0.19866 0.68567 0.0
O134 O 0.82855 0.21621 0.61102 0.0
O135 O 0.84752 0.25004 0.63057 0.0
O136 O 0.80358 0.23492 0.72007 0.0
O137 O 0.78812 0.19887 0.71009 0.0
C138 C 0.85764 0.17626 0.68081 0.0
C139 C 0.78534 0.22098 0.72112 0.0
C140 C 0.49233 0.08874 0.34052 0.0
C141 C 0.50033 0.095 0.56991 0.0
O142 O 0.47776 0.09768 0.3802 0.0
Zn143 Zn 0.49681 0.09176 0.45483 0.0
O144 O 0.51156 0.0787 0.36042 0.0
Zn145 Zn 0.52836 0.07208 0.45154 0.0
O146 O 0.52879 0.03807 0.45907 0.0
O147 O 0.49279 0.05357 0.46937 0.0
O148 O 0.51776 0.08317 0.54583 0.0
O149 O 0.48462 0.104 0.53357 0.0
O150 O 0.52918 0.11252 0.43562 0.0
O151 O 0.55862 0.08634 0.43999 0.0
C152 C 0.5067 0.0353 0.47021 0.0
C153 C 0.55156 0.10759 0.43072 0.0
C154 C 0.62063 0.80161 0.17839 0.0
C155 C 0.69293 0.75673 0.21747 0.0
O156 O 0.6419 0.80868 0.18745 0.0
Zn157 Zn 0.65617 0.77841 0.19883 0.0
O158 O 0.61572 0.77922 0.18321 0.0
Zn159 Zn 0.63649 0.74683 0.20208 0.0
O160 O 0.62427 0.73458 0.28075 0.0
O161 O 0.64507 0.76776 0.29309 0.0
O162 O 0.67467 0.74282 0.21661 0.0
O163 O 0.69017 0.77884 0.20636 0.0
O164 O 0.64953 0.76165 0.10768 0.0
O165 O 0.63055 0.72784 0.12738 0.0
C166 C 0.63325 0.7503 0.31712 0.0
C167 C 0.63948 0.74242 0.08773 0.0
C168 C 0.92621 0.10769 0.58581 0.0
C169 C 0.97101 0.03542 0.54543 0.0
O170 O 0.91911 0.08646 0.5763 0.0
Zn171 Zn 0.94935 0.07218 0.56447 0.0
O172 O 0.94859 0.1126 0.58082 0.0
Zn173 Zn 0.98092 0.09186 0.56122 0.0
O174 O -0.00694 0.10419 0.4825 0.0
O175 O 0.95991 0.08336 0.47023 0.0
O176 O 0.98492 0.05369 0.54638 0.0
O177 O 0.94892 0.03817 0.55667 0.0
O178 O 0.96621 0.0787 0.65558 0.0
O179 O 1e-05 0.09769 0.63584 0.0
C180 C 0.97733 0.09522 0.44616 0.0
C181 C 0.98545 0.08873 0.6755 0.0
C182 C 0.63954 0.23541 0.42785 0.0
C183 C 0.63301 0.22751 0.19853 0.0
O184 O 0.63058 0.25001 0.38829 0.0
Zn185 Zn 0.63638 0.23098 0.31358 0.0
O186 O 0.64952 0.21616 0.40782 0.0
Zn187 Zn 0.65599 0.19936 0.31662 0.0
O188 O 0.68999 0.19886 0.30882 0.0
O189 O 0.67455 0.23491 0.29884 0.0
O190 O 0.64482 0.21004 0.22248 0.0
O191 O 0.6241 0.24324 0.23497 0.0
O192 O 0.61556 0.19867 0.33283 0.0
O193 O 0.64163 0.16914 0.32823 0.0
C194 C 0.69278 0.22097 0.29781 0.0
C195 C 0.62041 0.17627 0.33766 0.0
C196 C 0.49252 0.88945 0.17841 0.0
C197 C 0.50039 0.88329 0.949 0.0
O198 O 0.47794 0.88053 0.13876 0.0
Zn199 Zn 0.49693 0.88649 0.06406 0.0
O200 O 0.51174 0.89951 0.15847 0.0
Zn201 Zn 0.5285 0.90617 0.06732 0.0
O202 O 0.52891 0.94019 0.05985 0.0
O203 O 0.49291 0.92468 0.04964 0.0
O204 O 0.51784 0.8951 0.97305 0.0
O205 O 0.48467 0.87429 0.98536 0.0
O206 O 0.5293 0.86571 0.08286 0.0
O207 O 0.55875 0.89189 0.07865 0.0
C208 C 0.50681 0.94295 0.04879 0.0
C209 C 0.55168 0.87061 0.08768 0.0
C210 C 0.83863 0.74246 0.92598 0.0
C211 C 0.84488 0.75041 0.69659 0.0
O212 O 0.84757 0.72789 0.88632 0.0
Zn213 Zn 0.84164 0.74691 0.81165 0.0
O214 O 0.82858 0.76168 0.90607 0.0
Zn215 Zn 0.82194 0.77847 0.81492 0.0
O216 O 0.78794 0.77887 0.80737 0.0
O217 O 0.80346 0.74287 0.79708 0.0
O218 O 0.83305 0.76785 0.72064 0.0
O219 O 0.85388 0.7347 0.73295 0.0
O220 O 0.86239 0.7793 0.83069 0.0
O221 O 0.8362 0.80874 0.82639 0.0
C222 C 0.7852 0.75676 0.79622 0.0
C223 C 0.85746 0.80169 0.83555 0.0
C224 C 0.50038 0.59485 0.44659 0.0
C225 C 0.49239 0.5886 0.67599 0.0
O226 O 0.51781 0.58301 0.47067 0.0
Zn227 Zn 0.52841 0.57191 0.56496 0.0
O228 O 0.48467 0.60385 0.48294 0.0
Zn229 Zn 0.49686 0.59161 0.56166 0.0
O230 O 0.52924 0.61236 0.58077 0.0
O231 O 0.55867 0.58617 0.57646 0.0
O232 O 0.47783 0.59754 0.63631 0.0
O233 O 0.51161 0.57855 0.65609 0.0
O234 O 0.52882 0.5379 0.55742 0.0
O235 O 0.49283 0.55342 0.54708 0.0
C236 C 0.55162 0.60743 0.58566 0.0
C237 C 0.50672 0.53515 0.54623 0.0
C238 C 0.62054 0.30164 0.83717 0.0
C239 C 0.69287 0.25679 0.79843 0.0
O240 O 0.61564 0.27925 0.83236 0.0
Zn241 Zn 0.63643 0.24687 0.81358 0.0
O242 O 0.6418 0.30872 0.82812 0.0
Zn243 Zn 0.65609 0.27846 0.81681 0.0
O244 O 0.64504 0.26779 0.72255 0.0
O245 O 0.62425 0.23461 0.73487 0.0
O246 O 0.6901 0.2789 0.8094 0.0
O247 O 0.67462 0.24287 0.79925 0.0
O248 O 0.63046 0.22789 0.88827 0.0
O249 O 0.64943 0.26171 0.90797 0.0
C250 C 0.63324 0.25033 0.69851 0.0
C251 C 0.63937 0.24248 0.92791 0.0
C252 C 0.97752 0.38334 0.95089 0.0
C253 C 0.98546 0.38977 0.18024 0.0
O254 O 0.96007 0.39516 0.97491 0.0
Zn255 Zn 0.94943 0.40632 0.06912 0.0
O256 O -0.00674 0.3744 0.98727 0.0
Zn257 Zn 0.98103 0.38667 0.06592 0.0
O258 O 0.9487 0.36587 0.08502 0.0
O259 O 0.9192 0.39199 0.08069 0.0
O260 O 5e-05 0.38083 0.14063 0.0
O261 O 0.96622 0.39977 0.16026 0.0
O262 O 0.94897 0.44033 0.06136 0.0
O263 O 0.98498 0.42485 0.05109 0.0
C264 C 0.9263 0.37074 0.0899 0.0
C265 C 0.97107 0.4431 0.05013 0.0
C266 C 0.83852 0.73547 0.42593 0.0
C267 C 0.84508 0.72746 0.19661 0.0
O268 O 0.82853 0.71621 0.40595 0.0
Zn269 Zn 0.82207 0.69937 0.31478 0.0
O270 O 0.84748 0.75005 0.38633 0.0
Zn271 Zn 0.8417 0.73098 0.31167 0.0
O272 O 0.80354 0.73492 0.2968 0.0
O273 O 0.78807 0.69889 0.30693 0.0
O274 O 0.85402 0.74319 0.23302 0.0
O275 O 0.83325 0.71001 0.22059 0.0
O276 O 0.8364 0.66914 0.32652 0.0
O277 O 0.86249 0.69866 0.33115 0.0
C278 C 0.7853 0.72099 0.29578 0.0
C279 C 0.85761 0.67627 0.33604 0.0
C280 C 0.50028 0.38319 0.06682 0.0
C281 C 0.49238 0.38941 0.83742 0.0
O282 O 0.51772 0.39502 0.04276 0.0
Zn283 Zn 0.52836 0.40612 0.94849 0.0
O284 O 0.48456 0.37421 0.03046 0.0
Zn285 Zn 0.49679 0.38643 0.95177 0.0
O286 O 0.52917 0.36566 0.93288 0.0
O287 O 0.55861 0.39186 0.93709 0.0
O288 O 0.47779 0.38048 0.87708 0.0
O289 O 0.51159 0.39947 0.85735 0.0
O290 O 0.52877 0.44014 0.956 0.0
O291 O 0.49277 0.42462 0.9663 0.0
C292 C 0.55155 0.37059 0.92803 0.0
C293 C 0.50667 0.44289 0.96714 0.0
C294 C 0.83875 0.24249 0.09092 0.0
C295 C 0.84487 0.25041 0.32034 0.0
O296 O 0.82868 0.26171 0.11082 0.0
Zn297 Zn 0.822 0.27849 0.20197 0.0
O298 O 0.84768 0.22792 0.1306 0.0
Zn299 Zn 0.8417 0.24693 0.20526 0.0
O300 O 0.80351 0.24288 0.21961 0.0
O301 O 0.788 0.27889 0.20936 0.0
O302 O 0.85389 0.2347 0.28399 0.0
O303 O 0.83305 0.26785 0.29627 0.0
O304 O 0.83626 0.30876 0.19061 0.0
O305 O 0.86245 0.27933 0.18635 0.0
C306 C 0.78524 0.25678 0.22041 0.0
C307 C 0.85752 0.30172 0.18152 0.0
C308 C 0.92629 0.60768 0.4304 0.0
C309 C 0.9711 0.53542 0.4708 0.0
O310 O 0.94867 0.6126 0.43534 0.0
Zn311 Zn 0.98101 0.59185 0.45487 0.0
O312 O 0.9192 0.58644 0.43989 0.0
Zn313 Zn 0.94944 0.57217 0.45167 0.0
O314 O 0.96002 0.58336 0.54589 0.0
O315 O -0.00684 0.60419 0.53355 0.0
O316 O 0.94901 0.53816 0.45952 0.0
O317 O 0.985 0.55369 0.46982 0.0
O318 O 9e-05 0.59767 0.38022 0.0
O319 O 0.96629 0.57868 0.36054 0.0
C320 C 0.97744 0.59522 0.56993 0.0
C321 C 0.98552 0.5887 0.34059 0.0
C322 C 0.63957 0.73536 0.58778 0.0
C323 C 0.63308 0.72745 0.81712 0.0
O324 O 0.64957 0.71612 0.60779 0.0
Zn325 Zn 0.65607 0.69932 0.69897 0.0
O326 O 0.63062 0.74996 0.62736 0.0
Zn327 Zn 0.63643 0.73093 0.70207 0.0
O328 O 0.6746 0.73489 0.71686 0.0
O329 O 0.69008 0.69886 0.70675 0.0
O330 O 0.62415 0.74318 0.78069 0.0
O331 O 0.6449 0.70998 0.79315 0.0
O332 O 0.64174 0.66909 0.68739 0.0
O333 O 0.61564 0.69859 0.68289 0.0
C334 C 0.69284 0.72097 0.71787 0.0
C335 C 0.62051 0.67619 0.67806 0.0
C336 C 0.47743 0.38298 0.56681 0.0
C337 C 0.48538 0.38953 0.33748 0.0
O338 O 0.49316 0.37405 0.53039 0.0
Zn339 Zn 0.48094 0.38637 0.45177 0.0
O340 O 0.45998 0.39481 0.54284 0.0
Zn341 Zn 0.44934 0.40601 0.44868 0.0
O342 O 0.41911 0.39169 0.43704 0.0
O343 O 0.44861 0.36557 0.43251 0.0
O344 O 0.46614 0.39952 0.3575 0.0
O345 O 0.49997 0.38057 0.37706 0.0
O346 O 0.48489 0.42454 0.46664 0.0
O347 O 0.44887 0.44002 0.45652 0.0
C348 C 0.42622 0.37045 0.42765 0.0
C349 C 0.47097 0.44279 0.46767 0.0
C350 C 0.28543 0.72099 0.22122 0.0
C351 C 0.35771 0.67619 0.18117 0.0
O352 O 0.28819 0.69888 0.21022 0.0
Zn353 Zn 0.32219 0.69933 0.20246 0.0
O354 O 0.30368 0.73491 0.22023 0.0
Zn355 Zn 0.34186 0.73092 0.20554 0.0
O356 O 0.34768 0.74998 0.13089 0.0
O357 O 0.32869 0.71617 0.11128 0.0
O358 O 0.36261 0.69859 0.18604 0.0
O359 O 0.33649 0.66909 0.19074 0.0
O360 O 0.33336 0.70996 0.29664 0.0
O361 O 0.35416 0.74312 0.28421 0.0
C362 C 0.3387 0.73541 0.09129 0.0
C363 C 0.3452 0.72741 0.32062 0.0
C364 C 0.05162 0.60764 0.93054 0.0
C365 C 0.00676 0.53539 0.9707 0.0
O366 O 0.05869 0.58639 0.9399 0.0
Zn367 Zn 0.02843 0.57213 0.95161 0.0
O368 O 0.02924 0.61257 0.93548 0.0
Zn369 Zn -0.00312 0.59183 0.95488 0.0
O370 O 0.98472 0.60415 0.03357 0.0
O371 O 0.01786 0.58331 0.04586 0.0
O372 O -0.00714 0.55365 0.96977 0.0
O373 O 0.02885 0.53812 0.95939 0.0
O374 O 0.01161 0.57869 0.86049 0.0
O375 O 0.97782 0.59768 0.88023 0.0
C376 C 0.00044 0.59516 0.06992 0.0
C377 C -0.00762 0.58872 0.84057 0.0
C378 C 0.12037 0.30176 0.68121 0.0
C379 C 0.19266 0.2568 0.71966 0.0
O380 O 0.14164 0.3088 0.69026 0.0
Zn381 Zn 0.15589 0.27852 0.70152 0.0
O382 O 0.11544 0.27937 0.68599 0.0
Zn383 Zn 0.13619 0.24697 0.70477 0.0
O384 O 0.12402 0.23471 0.78351 0.0
O385 O 0.14487 0.26785 0.79581 0.0
O386 O 0.17439 0.24291 0.71889 0.0
O387 O 0.1899 0.27893 0.70879 0.0
O388 O 0.14918 0.26177 0.61035 0.0
O389 O 0.13016 0.22798 0.63011 0.0
C390 C 0.13305 0.25041 0.81987 0.0
C391 C 0.1391 0.24256 0.59044 0.0
C392 C 0.48545 0.58845 0.17593 0.0
C393 C 0.4774 0.59508 0.94662 0.0
O394 O 0.50002 0.59743 0.13633 0.0
Zn395 Zn 0.48094 0.59168 0.06168 0.0
O396 O 0.4662 0.57847 0.15594 0.0
Zn397 Zn 0.44934 0.57203 0.06479 0.0
O398 O 0.44885 0.53803 0.05686 0.0
O399 O 0.48488 0.5535 0.04671 0.0
O400 O 0.45995 0.58324 0.97061 0.0
O401 O 0.49312 0.60402 0.98303 0.0
O402 O 0.44864 0.61246 0.08131 0.0
O403 O 0.41912 0.58636 0.07663 0.0
C404 C 0.47095 0.53526 0.04567 0.0
C405 C 0.42625 0.60757 0.08624 0.0
C406 C 0.13958 0.73543 0.92746 0.0
C407 C 0.13312 0.72757 0.69812 0.0
O408 O 0.13063 0.75003 0.88789 0.0
Zn409 Zn 0.13644 0.73101 0.81319 0.0
O410 O 0.14956 0.71618 0.90744 0.0
Zn411 Zn 0.15604 0.69938 0.81623 0.0
O412 O 0.19004 0.69886 0.80853 0.0
O413 O 0.17463 0.73492 0.79861 0.0
O414 O 0.14491 0.71008 0.72206 0.0
O415 O 0.12419 0.74329 0.73458 0.0
O416 O 0.1156 0.69869 0.83241 0.0
O417 O 0.14167 0.66916 0.82776 0.0
C418 C 0.19285 0.72097 0.79761 0.0
C419 C 0.12045 0.67629 0.8372 0.0
C420 C 0.05157 0.3708 0.58986 0.0
C421 C 0.0068 0.44314 0.55015 0.0
O422 O 0.05867 0.39205 0.58067 0.0
Zn423 Zn 0.02844 0.40636 0.56912 0.0
O424 O 0.02918 0.36591 0.58498 0.0
Zn425 Zn -0.00316 0.38671 0.56592 0.0
O426 O 0.98462 0.37443 0.48727 0.0
O427 O 0.01781 0.3952 0.4749 0.0
O428 O -0.00712 0.42488 0.55111 0.0
O429 O 0.02889 0.44038 0.56137 0.0
O430 O 0.01165 0.3998 0.66026 0.0
O431 O 0.97782 0.38085 0.64063 0.0
C432 C 0.00035 0.38338 0.45089 0.0
C433 C -0.00758 0.38978 0.68024 0.0
C434 C 0.34474 0.25028 0.19623 0.0
C435 C 0.33861 0.24239 0.42564 0.0
O436 O 0.35373 0.23457 0.2326 0.0
Zn437 Zn 0.34157 0.24682 0.31134 0.0
O438 O 0.33294 0.26774 0.22029 0.0
Zn439 Zn 0.32192 0.27841 0.31457 0.0
O440 O 0.33621 0.30866 0.32592 0.0
O441 O 0.36236 0.27919 0.3303 0.0
O442 O 0.32856 0.26162 0.40573 0.0
O443 O 0.34753 0.22781 0.38598 0.0
O444 O 0.30336 0.24282 0.29716 0.0
O445 O 0.28791 0.27886 0.30724 0.0
C446 C 0.35746 0.30159 0.33512 0.0
C447 C 0.28511 0.25675 0.29637 0.0
C448 C 0.97015 0.09376 0.78581 0.0
C449 C -0.01034 0.09119 0.7444 0.0
H450 H 0.95835 0.09787 0.88194 0.0
C451 C 0.01295 0.09142 0.76939 0.0
H452 H 0.95202 0.09394 0.76765 0.0
C453 C 0.01657 0.09325 0.83511 0.0
C454 C -0.00301 0.09567 0.87654 0.0
H455 H 0.02828 0.08956 0.73832 0.0
H456 H 0.03463 0.09261 0.85357 0.0
C457 C 0.97379 0.09629 0.85112 0.0
C458 C 0.1347 0.72014 0.03785 0.0
C459 C 0.1372 0.73965 0.99638 0.0
H460 H 0.1307 0.70837 0.13404 0.0
C461 C 0.137 0.76295 0.02131 0.0
H462 H 0.13451 0.70201 0.01973 0.0
C463 C 0.13524 0.7666 0.08703 0.0
C464 C 0.13287 0.74703 0.12851 0.0
H465 H 0.13881 0.77828 0.99019 0.0
H466 H 0.13587 0.78468 0.10543 0.0
C467 C 0.13224 0.72381 0.10317 0.0
C468 C 0.46501 0.88672 0.27224 0.0
C469 C 0.4883 0.88698 0.24731 0.0
H470 H 0.44329 0.88553 0.35636 0.0
C471 C 0.5078 0.88449 0.28877 0.0
H472 H 0.44968 0.88853 0.24113 0.0
C473 C 0.50414 0.88199 0.35408 0.0
C474 C 0.48093 0.88258 0.37943 0.0
H475 H 0.52594 0.88435 0.27064 0.0
H476 H 0.51957 0.88048 0.38495 0.0
C477 C 0.46136 0.88493 0.33795 0.0
C478 C 0.3413 0.21486 0.51945 0.0
C479 C 0.34107 0.23816 0.49454 0.0
H480 H 0.34245 0.19312 0.60356 0.0
C481 C 0.34359 0.25766 0.53602 0.0
H482 H 0.33947 0.19953 0.48833 0.0
C483 C 0.34607 0.25399 0.60133 0.0
C484 C 0.34545 0.23077 0.62666 0.0
H485 H 0.34376 0.2758 0.51791 0.0
H486 H 0.34762 0.26942 0.63221 0.0
C487 C 0.34308 0.21121 0.58516 0.0
C488 C 0.9701 0.88478 0.72659 0.0
C489 C -0.01039 0.88729 0.76804 0.0
H490 H 0.95833 0.88074 0.63042 0.0
C491 C 0.0129 0.88706 0.7431 0.0
H492 H 0.95197 0.8846 0.74473 0.0
C493 C 0.01654 0.88528 0.67738 0.0
C494 C -0.00303 0.8829 0.63591 0.0
H495 H 0.02822 0.88889 0.7742 0.0
H496 H 0.03461 0.8859 0.65896 0.0
C497 C 0.97376 0.88229 0.66128 0.0
C498 C 0.34311 0.76656 0.93169 0.0
C499 C 0.3455 0.74698 0.89024 0.0
H500 H 0.3395 0.77826 0.02851 0.0
C501 C 0.34612 0.72377 0.91562 0.0
H502 H 0.34248 0.78463 0.91326 0.0
C503 C 0.34363 0.72012 0.98094 0.0
C504 C 0.34111 0.73963 0.02238 0.0
H505 H 0.34768 0.70833 0.88478 0.0
H506 H 0.34382 0.70198 0.99909 0.0
C507 C 0.34133 0.76292 0.99742 0.0
C508 C 0.46117 0.09324 0.18097 0.0
C509 C 0.48073 0.09565 0.1395 0.0
H510 H 0.44949 0.08958 0.27779 0.0
C511 C 0.50395 0.09629 0.16486 0.0
H512 H 0.4431 0.0926 0.16255 0.0
C513 C 0.50761 0.09378 0.23017 0.0
C514 C 0.4881 0.09122 0.27162 0.0
H515 H 0.51938 0.09786 0.134 0.0
H516 H 0.52574 0.09396 0.2483 0.0
C517 C 0.46481 0.09144 0.24668 0.0
C518 C 0.13415 0.25783 0.48005 0.0
C519 C 0.13663 0.23833 0.52155 0.0
H520 H 0.13015 0.26958 0.38385 0.0
C521 C 0.13636 0.21502 0.49666 0.0
H522 H 0.13401 0.27597 0.49815 0.0
C523 C 0.13458 0.21136 0.43095 0.0
C524 C 0.13225 0.23092 0.38944 0.0
H525 H 0.13817 0.1997 0.5278 0.0
H526 H 0.13519 0.19328 0.41258 0.0
C527 C 0.13166 0.25415 0.41474 0.0
C528 C 0.96497 0.88698 0.24311 0.0
C529 C 0.98826 0.88724 0.26804 0.0
H530 H 0.94325 0.8858 0.15899 0.0
C531 C 0.00777 0.88476 0.22656 0.0
H532 H 0.94964 0.88879 0.27423 0.0
C533 C 0.00411 0.88227 0.16125 0.0
C534 C 0.98089 0.88285 0.13591 0.0
H535 H 0.0259 0.88461 0.24468 0.0
H536 H 0.01954 0.88075 0.13038 0.0
C537 C 0.96132 0.8852 0.1774 0.0
C538 C 0.84147 0.21495 0.99712 0.0
C539 C 0.84123 0.23826 0.02203 0.0
H540 H 0.84264 0.19322 0.91303 0.0
C541 C 0.84374 0.25776 0.98054 0.0
H542 H 0.83964 0.19963 0.02825 0.0
C543 C 0.84624 0.25409 0.91523 0.0
C544 C 0.84563 0.23086 0.88991 0.0
H545 H 0.84391 0.2759 0.99864 0.0
H546 H 0.84778 0.26952 0.88435 0.0
C547 C 0.84326 0.2113 0.93141 0.0
C548 C 0.51292 0.09123 0.74667 0.0
C549 C 0.48963 0.091 0.77166 0.0
H550 H 0.53461 0.0924 0.6625 0.0
C551 C 0.47012 0.09354 0.73024 0.0
H552 H 0.52825 0.08939 0.77775 0.0
C553 C 0.47376 0.09605 0.66492 0.0
C554 C 0.49697 0.09543 0.63952 0.0
H555 H 0.45199 0.09372 0.7484 0.0
H556 H 0.45833 0.09761 0.63409 0.0
C557 C 0.51655 0.09303 0.68095 0.0
C558 C 0.63466 0.72006 0.47742 0.0
C559 C 0.63717 0.73958 0.51886 0.0
H560 H 0.63064 0.70827 0.38126 0.0
C561 C 0.63695 0.76287 0.4939 0.0
H562 H 0.63448 0.70193 0.49557 0.0
C563 C 0.63517 0.7665 0.42817 0.0
C564 C 0.6328 0.74693 0.38672 0.0
H565 H 0.63877 0.77821 0.52499 0.0
H566 H 0.6358 0.78458 0.40974 0.0
C567 C 0.63218 0.72371 0.4121 0.0
C568 C 0.96111 0.09324 0.33513 0.0
C569 C 0.98068 0.09567 0.37654 0.0
H570 H 0.9494 0.08955 0.23834 0.0
C571 C 0.00389 0.09631 0.35112 0.0
H572 H 0.94304 0.09259 0.35359 0.0
C573 C 0.00753 0.09378 0.28581 0.0
C574 C 0.98801 0.0912 0.24441 0.0
H575 H 0.01933 0.09789 0.38193 0.0
H576 H 0.02565 0.09397 0.26763 0.0
C577 C 0.96473 0.09142 0.2694 0.0
C578 C 0.63193 0.25412 0.10358 0.0
C579 C 0.63252 0.23089 0.12894 0.0
H580 H 0.63426 0.27591 0.02014 0.0
C581 C 0.63487 0.21132 0.08746 0.0
H582 H 0.63041 0.26955 0.13445 0.0
C583 C 0.63665 0.21497 0.02175 0.0
C584 C 0.63691 0.23826 0.99681 0.0
H585 H 0.63548 0.19324 0.10588 0.0
H586 H 0.63846 0.19963 0.99064 0.0
C587 C 0.63441 0.25778 0.03827 0.0
C588 C 0.51296 0.88702 0.77223 0.0
C589 C 0.48968 0.88723 0.74726 0.0
H590 H 0.53466 0.88587 0.85639 0.0
C591 C 0.47016 0.88472 0.7887 0.0
H592 H 0.52829 0.88885 0.74114 0.0
C593 C 0.47381 0.88223 0.85402 0.0
C594 C 0.49702 0.88286 0.8794 0.0
H595 H 0.45203 0.88453 0.77055 0.0
H596 H 0.45837 0.88068 0.88487 0.0
C597 C 0.51659 0.88524 0.83795 0.0
C598 C 0.84292 0.76662 0.58553 0.0
C599 C 0.84532 0.74704 0.62698 0.0
H600 H 0.83929 0.77831 0.48872 0.0
C601 C 0.84595 0.72382 0.6016 0.0
H602 H 0.84228 0.78469 0.60397 0.0
C603 C 0.84345 0.72017 0.53629 0.0
C604 C 0.84092 0.73969 0.49485 0.0
H605 H 0.84751 0.70839 0.63245 0.0
H606 H 0.84365 0.70204 0.51814 0.0
C607 C 0.84113 0.76298 0.51981 0.0
C608 C 0.47016 0.5934 0.28629 0.0
C609 C 0.48967 0.59085 0.24485 0.0
H610 H 0.45837 0.59747 0.38244 0.0
C611 C 0.51295 0.59106 0.26981 0.0
H612 H 0.45203 0.59359 0.26814 0.0
C613 C 0.51659 0.59286 0.33554 0.0
C614 C 0.49702 0.59527 0.37698 0.0
H615 H 0.52828 0.58921 0.23872 0.0
H616 H 0.53466 0.59222 0.35397 0.0
C617 C 0.47381 0.5959 0.3516 0.0
C618 C 0.63694 0.26291 0.52174 0.0
C619 C 0.63715 0.23962 0.49677 0.0
H620 H 0.6358 0.28461 0.60591 0.0
C621 C 0.63465 0.2201 0.5382 0.0
H622 H 0.63875 0.27825 0.49065 0.0
C623 C 0.63218 0.22374 0.60352 0.0
C624 C 0.6328 0.24696 0.62891 0.0
H625 H 0.63446 0.20196 0.52005 0.0
H626 H 0.63064 0.2083 0.63437 0.0
C627 C 0.63517 0.26654 0.58747 0.0
C628 C 0.00773 0.38481 0.79057 0.0
C629 C 0.98821 0.38733 0.74915 0.0
H630 H 0.01953 0.38076 0.88671 0.0
C631 C 0.96493 0.38707 0.77414 0.0
H632 H 0.02586 0.38466 0.7724 0.0
C633 C 0.96131 0.38526 0.83986 0.0
C634 C 0.98088 0.38289 0.88129 0.0
H635 H 0.94959 0.3889 0.74307 0.0
H636 H 0.94324 0.38587 0.85832 0.0
C637 C 0.00409 0.3823 0.85588 0.0
C638 C 0.84613 0.75407 0.10166 0.0
C639 C 0.84555 0.73085 0.127 0.0
H640 H 0.84377 0.77588 0.01823 0.0
C641 C 0.84318 0.71128 0.08552 0.0
H642 H 0.84767 0.76951 0.13252 0.0
C643 C 0.84136 0.71493 0.01981 0.0
C644 C 0.8411 0.73823 0.99488 0.0
H645 H 0.84257 0.6932 0.10393 0.0
H646 H 0.83954 0.6996 0.9887 0.0
C647 C 0.84362 0.75774 0.03635 0.0
C648 C 0.47371 0.38213 0.16183 0.0
C649 C 0.49692 0.38275 0.13642 0.0
H650 H 0.45194 0.38442 0.24532 0.0
C651 C 0.51649 0.38513 0.17784 0.0
H652 H 0.45827 0.38058 0.131 0.0
C653 C 0.51287 0.38691 0.24357 0.0
C654 C 0.48959 0.38713 0.26856 0.0
H655 H 0.53456 0.38576 0.15939 0.0
H656 H 0.52821 0.38874 0.27465 0.0
C657 C 0.47007 0.38461 0.22715 0.0
C658 C 0.8429 0.2666 0.43139 0.0
C659 C 0.8453 0.24703 0.38994 0.0
H660 H 0.83929 0.2783 0.52821 0.0
C661 C 0.84592 0.22381 0.41532 0.0
H662 H 0.84227 0.28468 0.41296 0.0
C663 C 0.84344 0.22016 0.48064 0.0
C664 C 0.84092 0.23968 0.52208 0.0
H665 H 0.84748 0.20838 0.38448 0.0
H666 H 0.84363 0.20203 0.49879 0.0
C667 C 0.84112 0.26297 0.49712 0.0
C668 C 0.00767 0.59375 0.73023 0.0
C669 C 0.98816 0.59119 0.77166 0.0
H670 H 0.01945 0.59785 0.63408 0.0
C671 C 0.96487 0.59143 0.74671 0.0
H672 H 0.0258 0.59392 0.74837 0.0
C673 C 0.96124 0.59326 0.68099 0.0
C674 C 0.98081 0.59567 0.63954 0.0
H675 H 0.94954 0.58957 0.77779 0.0
H676 H 0.94317 0.59263 0.66255 0.0
C677 C 0.00402 0.59628 0.66492 0.0
C678 C 0.63676 0.71491 0.9939 0.0
C679 C 0.63702 0.7382 0.01883 0.0
H680 H 0.63557 0.69318 0.90978 0.0
C681 C 0.63452 0.75772 0.97737 0.0
H682 H 0.63858 0.69957 0.02501 0.0
C683 C 0.63202 0.75406 0.91206 0.0
C684 C 0.63261 0.73083 0.88671 0.0
H685 H 0.63437 0.77585 0.9955 0.0
H686 H 0.63049 0.76949 0.8812 0.0
C687 C 0.63496 0.71126 0.92819 0.0
C688 C 0.46487 0.38667 0.74358 0.0
C689 C 0.48816 0.38693 0.76853 0.0
H690 H 0.44316 0.38548 0.65945 0.0
C691 C 0.50767 0.38442 0.72708 0.0
H692 H 0.44954 0.38849 0.77468 0.0
C693 C 0.50402 0.38191 0.66177 0.0
C694 C 0.48081 0.3825 0.63641 0.0
H695 H 0.5258 0.38427 0.74522 0.0
H696 H 0.51945 0.38038 0.63092 0.0
C697 C 0.46124 0.38486 0.67787 0.0
C698 C 0.34329 0.71122 0.4317 0.0
C699 C 0.34568 0.73079 0.39023 0.0
H700 H 0.33965 0.69954 0.52853 0.0
C701 C 0.34631 0.75401 0.41558 0.0
H702 H 0.34265 0.69314 0.4133 0.0
C703 C 0.34382 0.75767 0.48089 0.0
C704 C 0.34128 0.73817 0.52235 0.0
H705 H 0.34787 0.76944 0.38471 0.0
H706 H 0.344 0.77581 0.49901 0.0
C707 C 0.3415 0.71487 0.49742 0.0
C708 C 0.97388 0.59623 0.16495 0.0
C709 C -0.00291 0.59561 0.13954 0.0
H710 H 0.9521 0.59389 0.24842 0.0
C711 C 0.01666 0.5932 0.18097 0.0
H712 H 0.95844 0.5978 0.13412 0.0
C713 C 0.01303 0.59138 0.24669 0.0
C714 C -0.01026 0.59115 0.27167 0.0
H715 H 0.03473 0.59256 0.16252 0.0
H716 H 0.02836 0.58952 0.27777 0.0
C717 C 0.97023 0.59371 0.23025 0.0
C718 C 0.13196 0.22381 0.91483 0.0
C719 C 0.13261 0.24703 0.88947 0.0
H720 H 0.13419 0.20201 0.99829 0.0
C721 C 0.135 0.26659 0.93093 0.0
H722 H 0.1304 0.20837 0.88397 0.0
C723 C 0.13675 0.26295 0.99665 0.0
C724 C 0.13692 0.23966 0.0216 0.0
H725 H 0.13565 0.28467 0.91251 0.0
H726 H 0.13858 0.27828 0.02776 0.0
C727 C 0.13441 0.22015 0.98015 0.0
C728 C 0.50766 0.59363 0.78635 0.0
C729 C 0.48816 0.59109 0.74489 0.0
H730 H 0.51943 0.5977 0.88252 0.0
C731 C 0.46487 0.59134 0.76982 0.0
H732 H 0.5258 0.59378 0.76823 0.0
C733 C 0.46122 0.59316 0.83554 0.0
C734 C 0.48078 0.59555 0.87701 0.0
H735 H 0.44954 0.5895 0.73872 0.0
H736 H 0.44314 0.59254 0.85395 0.0
C737 C 0.504 0.59615 0.85165 0.0
C738 C 0.13453 0.75787 0.53791 0.0
C739 C 0.13701 0.73837 0.49641 0.0
H740 H 0.13055 0.76963 0.63412 0.0
C741 C 0.13675 0.71507 0.52131 0.0
H742 H 0.13439 0.77602 0.51981 0.0
C743 C 0.13497 0.71141 0.58702 0.0
C744 C 0.13264 0.73097 0.62853 0.0
H745 H 0.13854 0.69974 0.49017 0.0
H746 H 0.13557 0.69332 0.6054 0.0
C747 C 0.13206 0.7542 0.60322 0.0
C748 C 0.97015 0.3848 0.29057 0.0
C749 C -0.01034 0.38733 0.24915 0.0
H750 H 0.95835 0.38076 0.38672 0.0
C751 C 0.01295 0.38709 0.27413 0.0
H752 H 0.95202 0.38463 0.27241 0.0
C753 C 0.01657 0.38529 0.33985 0.0
C754 C -0.00301 0.38291 0.38129 0.0
H755 H 0.02828 0.38892 0.24305 0.0
H756 H 0.03464 0.38591 0.3583 0.0
C757 C 0.97378 0.3823 0.35589 0.0
C758 C 0.3428 0.26647 0.08517 0.0
C759 C 0.34517 0.2469 0.12663 0.0
H760 H 0.33922 0.27817 0.98834 0.0
C761 C 0.3458 0.22368 0.10127 0.0
H762 H 0.34217 0.28455 0.10359 0.0
C763 C 0.34334 0.22003 0.03595 0.0
C764 C 0.34083 0.23954 0.9945 0.0
H765 H 0.34735 0.20825 0.13213 0.0
H766 H 0.34353 0.20189 0.01781 0.0
C767 C 0.34104 0.26284 0.01945 0.0
C768 C 0.97331 0.00881 0.00959 0.0
C769 C -0.0026 0.01168 0.02692 0.0
H770 H 0.94615 0.98499 0.97634 0.0
C771 C 0.01282 -0.00812 0.02323 0.0
H772 H 0.96099 0.02373 0.01149 0.0
C773 C 0.00435 0.96969 1.00267 0.0
C774 C 0.98026 0.96682 0.98536 0.0
H775 H 0.03152 -0.0065 0.03593 0.0
H776 H 0.01667 0.95477 1.00078 0.0
C777 C 0.96484 0.98662 0.98903 0.0
C778 C 0.23655 0.76296 0.27647 0.0
C779 C 0.21673 0.74756 0.28004 0.0
H780 H 0.2737 0.76675 0.25451 0.0
C781 C 0.21962 0.72343 0.2631 0.0
H782 H 0.23491 0.78169 0.28889 0.0
C783 C 0.24184 0.7149 0.24299 0.0
C784 C 0.26165 0.73031 0.23938 0.0
H785 H 0.20469 0.71112 0.26493 0.0
H786 H 0.24347 0.69618 0.23056 0.0
C787 C 0.25877 0.75443 0.25636 0.0
C788 C 0.51283 -0.00827 0.49216 0.0
C789 C 0.4974 0.01153 0.48853 0.0
H790 H 0.51668 0.95461 0.51445 0.0
C791 C 0.47331 0.00864 0.50576 0.0
H792 H 0.53153 -0.00664 0.47954 0.0
C793 C 0.46483 0.98643 0.52618 0.0
C794 C 0.48026 0.96664 0.52983 0.0
H795 H 0.46099 0.02356 0.5039 0.0
H796 H 0.44613 0.98479 0.53881 0.0
C797 C 0.50435 0.96953 0.51259 0.0
C798 C 0.2416 0.21477 0.77421 0.0
C799 C 0.26141 0.23019 0.77775 0.0
H800 H 0.20443 0.21101 0.7525 0.0
C801 C 0.25851 0.25432 0.76091 0.0
H802 H 0.24325 0.19604 0.78654 0.0
C803 C 0.23628 0.26286 0.74099 0.0
C804 C 0.21646 0.24746 0.73749 0.0
H805 H 0.27344 0.26664 0.76272 0.0
H806 H 0.23463 0.28159 0.72868 0.0
C807 C 0.21936 0.22332 0.75429 0.0
C808 C 0.9734 0.96968 0.50262 0.0
C809 C -0.00251 0.96684 0.48528 0.0
H810 H 0.94621 -0.00654 0.53591 0.0
C811 C 0.01289 0.98666 0.48895 0.0
H812 H 0.96109 0.95474 0.50074 0.0
C813 C 0.0044 0.00883 0.50953 0.0
C814 C 0.98031 0.01167 0.52689 0.0
H815 H 0.03159 0.98506 0.47625 0.0
H816 H 0.01671 0.02377 0.51142 0.0
C817 C 0.96491 -0.00815 0.5232 0.0
C818 C 0.23644 0.71483 0.77592 0.0
C819 C 0.21665 0.73026 0.7795 0.0
H820 H 0.27359 0.711 0.75399 0.0
C821 C 0.21957 0.75438 0.76253 0.0
H822 H 0.23478 0.69611 0.78835 0.0
C823 C 0.2418 0.76288 0.74242 0.0
C824 C 0.26159 0.74745 0.73885 0.0
H825 H 0.20466 0.76671 0.76437 0.0
H826 H 0.24346 0.7816 0.73 0.0
C827 C 0.25867 0.72333 0.75582 0.0
C828 C 0.4734 0.96958 0.01332 0.0
C829 C 0.4975 0.96672 0.03052 0.0
H830 H 0.44619 -0.00662 0.98026 0.0
C831 C 0.5129 0.98655 0.02689 0.0
H832 H 0.46109 0.95464 0.01518 0.0
C833 C 0.50439 0.00873 1.00645 0.0
C834 C 0.4803 0.01159 0.98921 0.0
H835 H 0.5316 0.98493 0.0395 0.0
H836 H 0.5167 0.02367 1.00457 0.0
C837 C 0.46489 -0.00823 0.99288 0.0
C838 C 0.2361 0.21478 0.24188 0.0
C839 C 0.21631 0.23022 0.23833 0.0
H840 H 0.27326 0.21097 0.26357 0.0
C841 C 0.21925 0.25436 0.25514 0.0
H842 H 0.23442 0.19605 0.22956 0.0
C843 C 0.2415 0.26287 0.27504 0.0
C844 C 0.2613 0.24743 0.27855 0.0
H845 H 0.20434 0.26669 0.25333 0.0
H846 H 0.24318 0.2816 0.28733 0.0
C847 C 0.25835 0.2233 0.26177 0.0
C848 C 0.74176 0.21485 0.74306 0.0
C849 C 0.76156 0.23028 0.73941 0.0
H850 H 0.70463 0.21104 0.76515 0.0
C851 C 0.75867 0.25439 0.75648 0.0
H852 H 0.7434 0.19614 0.73056 0.0
C853 C 0.73647 0.2629 0.77672 0.0
C854 C 0.71666 0.24748 0.78032 0.0
H855 H 0.7736 0.26671 0.75461 0.0
H856 H 0.73483 0.28161 0.7892 0.0
C857 C 0.71955 0.22336 0.76329 0.0
C858 C 0.71956 0.72333 0.2531 0.0
C859 C 0.71669 0.74743 0.23583 0.0
H860 H 0.74336 0.69614 0.28627 0.0
C861 C 0.7365 0.76285 0.23949 0.0
H862 H 0.70463 0.71101 0.25123 0.0
C863 C 0.75868 0.75436 0.25999 0.0
C864 C 0.76154 0.73027 0.27729 0.0
H865 H 0.73488 0.78155 0.22684 0.0
H866 H 0.7736 0.76669 0.26188 0.0
C867 C 0.74174 0.71484 0.27361 0.0
C868 C 0.71945 0.25437 0.26241 0.0
C869 C 0.71656 0.23026 0.27953 0.0
H870 H 0.74329 0.28159 0.22962 0.0
C871 C 0.73636 0.21484 0.27591 0.0
H872 H 0.70453 0.26669 0.26426 0.0
C873 C 0.75857 0.22335 0.25565 0.0
C874 C 0.76146 0.24746 0.23856 0.0
H875 H 0.73472 0.19613 0.28845 0.0
H876 H 0.77349 0.21103 0.25381 0.0
C877 C 0.74165 0.26288 0.24214 0.0
C878 C 0.73641 0.71485 0.74001 0.0
C879 C 0.7166 0.73026 0.73633 0.0
H880 H 0.77351 0.71104 0.7624 0.0
C881 C 0.71946 0.75436 0.75364 0.0
H882 H 0.73479 0.69615 0.72734 0.0
C883 C 0.74163 0.76286 0.77416 0.0
C884 C 0.76144 0.74745 0.77781 0.0
H885 H 0.70453 0.76667 0.75175 0.0
H886 H 0.74324 0.78156 0.78682 0.0
C887 C 0.75859 0.72335 0.76052 0.0
C888 C 0.47333 0.50853 0.51046 0.0
C889 C 0.49742 0.51139 0.5278 0.0
H890 H 0.44615 0.48474 0.47718 0.0
C891 C 0.51283 0.49158 0.52413 0.0
H892 H 0.46102 0.52346 0.51234 0.0
C893 C 0.50434 0.4694 0.50356 0.0
C894 C 0.48026 0.46654 0.4862 0.0
H895 H 0.53152 0.49319 0.53683 0.0
H896 H 0.51665 0.45447 0.50167 0.0
C897 C 0.46484 0.48635 0.48989 0.0
C898 C 0.00441 0.46968 0.01393 0.0
C899 C 0.98034 0.46685 0.03146 0.0
H900 H 0.03156 0.49344 0.98029 0.0
C901 C 0.96493 0.48665 0.02774 0.0
H902 H 0.01673 0.45476 0.01584 0.0
C903 C 0.9734 0.50881 1.00695 0.0
C904 C -0.00253 0.51165 0.98941 0.0
H905 H 0.94625 0.48505 0.04058 0.0
H906 H 0.96109 0.52374 1.00503 0.0
C907 C 0.01288 0.49184 0.99313 0.0
C908 C 0.47328 0.46951 1.00285 0.0
C909 C 0.49737 0.46665 0.98554 0.0
H910 H 0.44611 0.49331 0.03612 0.0
C911 C 0.51279 0.48647 0.98919 0.0
H912 H 0.46097 0.45458 1.00097 0.0
C913 C 0.50431 0.50865 0.00976 0.0
C914 C 0.48022 0.5115 0.0271 0.0
H915 H 0.53148 0.48485 0.97651 0.0
H916 H 0.51663 0.52357 0.01165 0.0
C917 C 0.4648 0.4917 0.02341 0.0
C918 C 0.97344 0.46972 0.51403 0.0
C919 C -0.00249 0.46688 0.53151 0.0
H920 H 0.94628 0.49347 0.48044 0.0
C921 C 0.01293 0.48669 0.52777 0.0
H922 H 0.96113 0.45479 0.51595 0.0
C923 C 0.00446 0.50885 0.50699 0.0
C924 C 0.98038 0.51168 0.4895 0.0
H925 H 0.03161 0.48509 0.54057 0.0
H926 H 0.01677 0.52378 0.50506 0.0
C927 C 0.96497 0.49187 0.49325 0.0
C928 C 0.06181 0.14956 0.12074 0.0
C929 C 0.06879 0.12586 0.10812 0.0
H930 H 0.07255 0.18422 0.15404 0.0
C931 C 0.09245 0.11899 0.12084 0.0
H932 H 0.04364 0.15535 0.11184 0.0
C933 C 0.10875 0.13527 0.14575 0.0
C934 C 0.10194 0.15898 0.1582 0.0
H935 H 0.09846 0.10086 0.11219 0.0
H936 H 0.12684 0.12922 0.1546 0.0
C937 C 0.07829 0.16602 0.14535 0.0
C938 C 0.07865 0.81221 0.37035 0.0
C939 C 0.10238 0.81917 0.35808 0.0
H940 H 0.04386 0.82305 0.40243 0.0
C941 C 0.10916 0.84293 0.37004 0.0
H942 H 0.07292 0.79398 0.36199 0.0
C943 C 0.09276 0.85933 0.39391 0.0
C944 C 0.06903 0.85253 0.40606 0.0
H945 H 0.1273 0.84892 0.36159 0.0
H946 H 0.09875 0.87748 0.40223 0.0
C947 C 0.06208 0.82879 0.39393 0.0
C948 C 0.36901 0.8427 0.64729 0.0
C949 C 0.37585 0.81898 0.65959 0.0
H950 H 0.37928 0.87718 0.61422 0.0
C951 C 0.39955 0.81202 0.64699 0.0
H952 H 0.35089 0.84869 0.65596 0.0
C953 C 0.41604 0.82857 0.62277 0.0
C954 C 0.40902 0.85226 0.6103 0.0
H955 H 0.40532 0.79383 0.65558 0.0
H956 H 0.43424 0.82284 0.61405 0.0
C957 C 0.38531 0.85906 0.62277 0.0
C958 C 0.3852 0.11886 0.89531 0.0
C959 C 0.40888 0.12573 0.90797 0.0
H960 H 0.3508 0.12909 0.86161 0.0
C961 C 0.41586 0.14942 0.8953 0.0
H962 H 0.3792 0.10074 0.904 0.0
C963 C 0.39937 0.16589 0.8707 0.0
C964 C 0.37571 0.15885 0.85791 0.0
H965 H 0.43403 0.15522 0.90415 0.0
H966 H 0.40512 0.18409 0.86197 0.0
C967 C 0.3689 0.13514 0.87041 0.0
C968 C 0.89937 0.81215 0.86952 0.0
C969 C 0.87565 0.81908 0.85719 0.0
H970 H 0.93411 0.82301 0.90189 0.0
C971 C 0.86881 0.84281 0.86939 0.0
H972 H 0.90513 0.79394 0.86099 0.0
C973 C 0.88516 0.85921 0.89353 0.0
C974 C 0.9089 0.85243 0.90573 0.0
H975 H 0.85067 0.84879 0.86092 0.0
H976 H 0.87914 0.87734 0.90202 0.0
C977 C 0.9159 0.82873 0.89337 0.0
C978 C 0.88523 0.11897 0.6209 0.0
C979 C 0.90891 0.12583 0.6082 0.0
H980 H 0.85085 0.12922 0.6547 0.0
C981 C 0.91591 0.14952 0.62089 0.0
H982 H 0.87921 0.10086 0.61219 0.0
C983 C 0.89944 0.16598 0.64556 0.0
C984 C 0.87578 0.15896 0.65841 0.0
H985 H 0.93408 0.1553 0.61201 0.0
H986 H 0.90521 0.18418 0.65432 0.0
C987 C 0.86895 0.13526 0.64587 0.0
C988 C 0.60899 0.13523 0.37201 0.0
C989 C 0.60221 0.15895 0.35962 0.0
H990 H 0.59861 0.10078 0.40507 0.0
C991 C 0.57852 0.16597 0.37213 0.0
H992 H 0.6271 0.12919 0.36342 0.0
C993 C 0.56198 0.14947 0.3963 0.0
C994 C 0.56892 0.12576 0.40881 0.0
H995 H 0.5728 0.18418 0.36348 0.0
H996 H 0.54379 0.15525 0.40493 0.0
C997 C 0.59263 0.11891 0.39647 0.0
C998 C 0.59281 0.85916 0.12106 0.0
C999 C 0.56907 0.85237 0.10904 0.0
H1000 H 0.62735 0.84874 0.15327 0.0
C1001 C 0.5621 0.82864 0.12124 0.0
H1002 H 0.59881 0.8773 0.11267 0.0
C1003 C 0.57868 0.81205 0.14481 0.0
C1004 C 0.60241 0.819 0.15698 0.0
H1005 H 0.54388 0.82291 0.11284 0.0
H1006 H 0.57294 0.79383 0.15324 0.0
C1007 C 0.60921 0.84275 0.14491 0.0
C1008 C 0.56205 0.64934 0.61984 0.0
C1009 C 0.569 0.62562 0.60741 0.0
H1010 H 0.57287 0.68407 0.65243 0.0
C1011 C 0.59271 0.61878 0.61965 0.0
H1012 H 0.54385 0.6551 0.61128 0.0
C1013 C 0.60909 0.63513 0.64393 0.0
C1014 C 0.6023 0.65886 0.65624 0.0
H1015 H 0.5987 0.60065 0.6111 0.0
H1016 H 0.62721 0.6291 0.65245 0.0
C1017 C 0.5786 0.66586 0.64383 0.0
C1018 C 0.59268 0.35917 0.89446 0.0
C1019 C 0.56894 0.35236 0.90659 0.0
H1020 H 0.62721 0.34878 0.86214 0.0
C1021 C 0.562 0.32863 0.89441 0.0
H1022 H 0.59866 0.37733 0.90281 0.0
C1023 C 0.57858 0.31205 0.87081 0.0
C1024 C 0.6023 0.31902 0.85855 0.0
H1025 H 0.54379 0.32288 0.90289 0.0
H1026 H 0.57286 0.29382 0.86241 0.0
C1027 C 0.60908 0.34278 0.87057 0.0
C1028 C 0.89943 0.31219 0.14756 0.0
C1029 C 0.87572 0.31913 0.15998 0.0
H1030 H 0.93417 0.32306 0.11516 0.0
C1031 C 0.86889 0.34287 0.14795 0.0
H1032 H 0.90519 0.29397 0.15596 0.0
C1033 C 0.88524 0.35928 0.12388 0.0
C1034 C 0.90897 0.3525 0.11156 0.0
H1035 H 0.85076 0.34884 0.15652 0.0
H1036 H 0.87922 0.37742 0.11551 0.0
C1037 C 0.91596 0.32878 0.12376 0.0
C1038 C 0.91594 0.64951 0.3955 0.0
C1039 C 0.90896 0.62582 0.40815 0.0
H1040 H 0.9052 0.68419 0.36227 0.0
C1041 C 0.88527 0.61896 0.39558 0.0
H1042 H 0.93412 0.6553 0.40428 0.0
C1043 C 0.86896 0.63525 0.37078 0.0
C1044 C 0.87578 0.65896 0.35828 0.0
H1045 H 0.87927 0.60084 0.40427 0.0
H1046 H 0.85086 0.62921 0.36205 0.0
C1047 C 0.89945 0.66599 0.371 0.0
C1048 C 0.36885 0.34269 0.36896 0.0
C1049 C 0.37566 0.31896 0.35683 0.0
H1050 H 0.37918 0.3772 0.40172 0.0
C1051 C 0.39935 0.31198 0.36939 0.0
H1052 H 0.35073 0.3487 0.36029 0.0
C1053 C 0.41587 0.32853 0.39343 0.0
C1054 C 0.40889 0.35225 0.40575 0.0
H1055 H 0.4051 0.29377 0.36093 0.0
H1056 H 0.43407 0.32279 0.40215 0.0
C1057 C 0.38518 0.35906 0.39328 0.0
C1058 C 0.39952 0.66588 0.14601 0.0
C1059 C 0.37585 0.65888 0.15883 0.0
H1060 H 0.43416 0.65517 0.11249 0.0
C1061 C 0.369 0.63518 0.1463 0.0
H1062 H 0.40529 0.68407 0.15476 0.0
C1063 C 0.38527 0.61888 0.12135 0.0
C1064 C 0.40896 0.62573 0.10866 0.0
H1065 H 0.3509 0.62915 0.15512 0.0
H1066 H 0.37924 0.60077 0.11264 0.0
C1067 C 0.41598 0.6494 0.12136 0.0
C1068 C 0.09267 0.61892 0.89597 0.0
C1069 C 0.06898 0.62579 0.9085 0.0
H1070 H 0.12712 0.62919 0.86272 0.0
C1071 C 0.06204 0.64951 0.89607 0.0
H1072 H 0.09864 0.60078 0.90449 0.0
C1073 C 0.07857 0.66601 0.87183 0.0
C1074 C 0.10224 0.65897 0.85917 0.0
H1075 H 0.04386 0.6553 0.90483 0.0
H1076 H 0.07286 0.68422 0.86327 0.0
C1077 C 0.10902 0.63524 0.87143 0.0
C1078 C 0.09264 0.35934 0.62382 0.0
C1079 C 0.06891 0.35256 0.61148 0.0
H1080 H 0.12712 0.34891 0.65641 0.0
C1081 C 0.06192 0.32883 0.62361 0.0
H1082 H 0.09865 0.37749 0.61552 0.0
C1083 C 0.07846 0.31223 0.64734 0.0
C1084 C 0.10217 0.31918 0.65977 0.0
H1085 H 0.04372 0.3231 0.61498 0.0
H1086 H 0.0727 0.29401 0.65567 0.0
C1087 C 0.10899 0.34293 0.64783 0.0
loop_
_geom_bond_atom_site_label_1
_geom_bond_atom_site_label_2
_geom_bond_distance
_geom_bond_site_symmetry_2
_ccdc_geom_bond_type
C0 O2 1.247 . S
C0 O4 1.258 1_455 S
C1 O8 1.247 1_455 S
C1 O9 1.258 . S
O2 C0 1.247 . S
O2 Zn3 2.028 1_556 S
Zn3 O2 2.028 1_554 S
Zn3 O7 2.035 . S
Zn3 O9 2.035 . S
Zn3 O10 2.028 . S
O4 C0 1.258 1_655 S
O4 Zn5 2.035 1_556 S
Zn5 O4 2.035 1_554 S
Zn5 O6 2.028 1_655 S
Zn5 O8 2.028 . S
Zn5 O11 2.035 . S
O6 Zn5 2.028 1_455 S
O6 C12 1.247 . S
O7 Zn3 2.035 . S
O7 C12 1.258 . S
O8 C1 1.247 1_655 S
O8 Zn5 2.028 . S
O9 C1 1.258 . S
O9 Zn3 2.035 . S
O10 Zn3 2.028 . S
O10 C13 1.247 1_455 S
O11 Zn5 2.035 . S
O11 C13 1.258 . S
C12 O6 1.247 . S
C12 O7 1.258 . S
C13 O10 1.247 1_655 S
C13 O11 1.258 . S
C14 O16 1.247 . S
C14 O18 1.258 . S
C15 O22 1.247 . S
C15 O23 1.258 . S
O16 C14 1.247 . S
O16 Zn17 2.028 . S
Zn17 O16 2.028 . S
Zn17 O21 2.035 . S
Zn17 O23 2.035 . S
Zn17 O24 2.028 . S
O18 C14 1.258 . S
O18 Zn19 2.035 . S
Zn19 O18 2.035 . S
Zn19 O20 2.028 . S
Zn19 O22 2.028 . S
Zn19 O25 2.035 . S
O20 Zn19 2.028 . S
O20 C26 1.247 . S
O21 Zn17 2.035 . S
O21 C26 1.258 . S
O22 C15 1.247 . S
O22 Zn19 2.028 . S
O23 C15 1.258 . S
O23 Zn17 2.035 . S
O24 Zn17 2.028 . S
O24 C27 1.247 . S
O25 Zn19 2.035 . S
O25 C27 1.258 . S
C26 O20 1.247 . S
C26 O21 1.258 . S
C27 O24 1.247 . S
C27 O25 1.258 . S
C28 O30 1.247 . S
C28 O32 1.258 . S
C29 O36 1.247 . S
C29 O37 1.258 . S
O30 C28 1.247 . S
O30 Zn31 2.028 . S
Zn31 O30 2.028 . S
Zn31 O35 2.035 . S
Zn31 O37 2.035 . S
Zn31 O38 2.028 . S
O32 C28 1.258 . S
O32 Zn33 2.035 . S
Zn33 O32 2.035 . S
Zn33 O34 2.028 . S
Zn33 O36 2.028 . S
Zn33 O39 2.035 . S
O34 Zn33 2.028 . S
O34 C40 1.247 . S
O35 Zn31 2.035 . S
O35 C40 1.258 . S
O36 C29 1.247 . S
O36 Zn33 2.028 . S
O37 C29 1.258 . S
O37 Zn31 2.035 . S
O38 Zn31 2.028 . S
O38 C41 1.247 . S
O39 Zn33 2.035 . S
O39 C41 1.258 . S
C40 O34 1.247 . S
C40 O35 1.258 . S
C41 O38 1.247 . S
C41 O39 1.258 . S
C42 O44 1.247 . S
C42 O46 1.258 . S
C43 O50 1.247 . S
C43 O51 1.258 . S
O44 C42 1.247 . S
O44 Zn45 2.028 . S
Zn45 O44 2.028 . S
Zn45 O49 2.035 . S
Zn45 O51 2.035 . S
Zn45 O52 2.028 . S
O46 C42 1.258 . S
O46 Zn47 2.035 . S
Zn47 O46 2.035 . S
Zn47 O48 2.028 . S
Zn47 O50 2.028 . S
Zn47 O53 2.035 . S
O48 Zn47 2.028 . S
O48 C54 1.247 . S
O49 Zn45 2.035 . S
O49 C54 1.258 . S
O50 C43 1.247 . S
O50 Zn47 2.028 . S
O51 C43 1.258 . S
O51 Zn45 2.035 . S
O52 Zn45 2.028 . S
O52 C55 1.247 . S
O53 Zn47 2.035 . S
O53 C55 1.258 . S
C54 O48 1.247 . S
C54 O49 1.258 . S
C55 O52 1.247 . S
C55 O53 1.258 . S
C56 O58 1.247 . S
C56 O60 1.258 . S
C57 O64 1.247 1_655 S
C57 O65 1.258 . S
O58 C56 1.247 . S
O58 Zn59 2.028 1_455 S
Zn59 O58 2.028 1_655 S
Zn59 O63 2.035 . S
Zn59 O65 2.035 . S
Zn59 O66 2.028 . S
O60 C56 1.258 . S
O60 Zn61 2.035 . S
Zn61 O60 2.035 . S
Zn61 O62 2.028 . S
Zn61 O64 2.028 . S
Zn61 O67 2.035 . S
O62 Zn61 2.028 . S
O62 C68 1.247 . S
O63 Zn59 2.035 . S
O63 C68 1.258 1_655 S
O64 C57 1.247 1_455 S
O64 Zn61 2.028 . S
O65 C57 1.258 . S
O65 Zn59 2.035 . S
O66 Zn59 2.028 . S
O66 C69 1.247 1_655 S
O67 Zn61 2.035 . S
O67 C69 1.258 . S
C68 O62 1.247 . S
C68 O63 1.258 1_455 S
C69 O66 1.247 1_455 S
C69 O67 1.258 . S
C70 O72 1.247 . S
C70 O74 1.258 . S
C71 O78 1.247 . S
C71 O79 1.258 . S
O72 C70 1.247 . S
O72 Zn73 2.028 . S
Zn73 O72 2.028 . S
Zn73 O77 2.035 . S
Zn73 O79 2.035 . S
Zn73 O80 2.028 . S
O74 C70 1.258 . S
O74 Zn75 2.035 . S
Zn75 O74 2.035 . S
Zn75 O76 2.028 . S
Zn75 O78 2.028 . S
Zn75 O81 2.035 . S
O76 Zn75 2.028 . S
O76 C82 1.247 . S
O77 Zn73 2.035 . S
O77 C82 1.258 . S
O78 C71 1.247 . S
O78 Zn75 2.028 . S
O79 C71 1.258 . S
O79 Zn73 2.035 . S
O80 Zn73 2.028 . S
O80 C83 1.247 . S
O81 Zn75 2.035 . S
O81 C83 1.258 . S
C82 O76 1.247 . S
C82 O77 1.258 . S
C83 O80 1.247 . S
C83 O81 1.258 . S
C84 O86 1.247 . S
C84 O88 1.258 . S
C85 O92 1.247 . S
C85 O93 1.258 . S
O86 C84 1.247 . S
O86 Zn87 2.028 1_554 S
Zn87 O86 2.028 1_556 S
Zn87 O91 2.035 . S
Zn87 O93 2.035 . S
Zn87 O94 2.028 . S
O88 C84 1.258 . S
O88 Zn89 2.035 1_554 S
Zn89 O88 2.035 1_556 S
Zn89 O90 2.028 . S
Zn89 O92 2.028 . S
Zn89 O95 2.035 . S
O90 Zn89 2.028 . S
O90 C96 1.247 . S
O91 Zn87 2.035 . S
O91 C96 1.258 . S
O92 C85 1.247 . S
O92 Zn89 2.028 . S
O93 C85 1.258 . S
O93 Zn87 2.035 . S
O94 Zn87 2.028 . S
O94 C97 1.247 . S
O95 Zn89 2.035 . S
O95 C97 1.258 . S
C96 O90 1.247 . S
C96 O91 1.258 . S
C97 O94 1.247 . S
C97 O95 1.258 . S
C98 O100 1.247 . S
C98 O102 1.258 . S
C99 O106 1.247 . S
C99 O107 1.258 . S
O100 C98 1.247 . S
O100 Zn101 2.028 . S
Zn101 O100 2.028 . S
Zn101 O105 2.035 . S
Zn101 O107 2.035 . S
Zn101 O108 2.028 . S
O102 C98 1.258 . S
O102 Zn103 2.035 . S
Zn103 O102 2.035 . S
Zn103 O104 2.028 . S
Zn103 O106 2.028 . S
Zn103 O109 2.035 . S
O104 Zn103 2.028 . S
O104 C110 1.247 . S
O105 Zn101 2.035 . S
O105 C110 1.258 . S
O106 C99 1.247 . S
O106 Zn103 2.028 . S
O107 C99 1.258 . S
O107 Zn101 2.035 . S
O108 Zn101 2.028 . S
O108 C111 1.247 . S
O109 Zn103 2.035 . S
O109 C111 1.258 . S
C110 O104 1.247 . S
C110 O105 1.258 . S
C111 O108 1.247 . S
C111 O109 1.258 . S
C112 O114 1.247 1_655 S
C112 O116 1.258 . S
C113 O120 1.247 . S
C113 O121 1.258 1_655 S
O114 C112 1.247 1_455 S
O114 Zn115 2.028 1_554 S
Zn115 O114 2.028 1_556 S
Zn115 O119 2.035 1_455 S
Zn115 O121 2.035 . S
Zn115 O122 2.028 . S
O116 C112 1.258 . S
O116 Zn117 2.035 1_554 S
Zn117 O116 2.035 1_556 S
Zn117 O118 2.028 . S
Zn117 O120 2.028 . S
Zn117 O123 2.035 . S
O118 Zn117 2.028 . S
O118 C124 1.247 . S
O119 Zn115 2.035 1_655 S
O119 C124 1.258 . S
O120 C113 1.247 . S
O120 Zn117 2.028 . S
O121 C113 1.258 1_455 S
O121 Zn115 2.035 . S
O122 Zn115 2.028 . S
O122 C125 1.247 . S
O123 Zn117 2.035 . S
O123 C125 1.258 1_655 S
C124 O118 1.247 . S
C124 O119 1.258 . S
C125 O122 1.247 . S
C125 O123 1.258 1_455 S
C126 O128 1.247 . S
C126 O130 1.258 . S
C127 O134 1.247 . S
C127 O135 1.258 . S
O128 C126 1.247 . S
O128 Zn129 2.028 . S
Zn129 O128 2.028 . S
Zn129 O133 2.035 . S
Zn129 O135 2.035 . S
Zn129 O136 2.028 . S
O130 C126 1.258 . S
O130 Zn131 2.035 . S
Zn131 O130 2.035 . S
Zn131 O132 2.028 . S
Zn131 O134 2.028 . S
Zn131 O137 2.035 . S
O132 Zn131 2.028 . S
O132 C138 1.247 . S
O133 Zn129 2.035 . S
O133 C138 1.258 . S
O134 C127 1.247 . S
O134 Zn131 2.028 . S
O135 C127 1.258 . S
O135 Zn129 2.035 . S
O136 Zn129 2.028 . S
O136 C139 1.247 . S
O137 Zn131 2.035 . S
O137 C139 1.258 . S
C138 O132 1.247 . S
C138 O133 1.258 . S
C139 O136 1.247 . S
C139 O137 1.258 . S
C140 O142 1.247 . S
C140 O144 1.258 . S
C141 O148 1.247 . S
C141 O149 1.258 . S
O142 C140 1.247 . S
O142 Zn143 2.028 . S
Zn143 O142 2.028 . S
Zn143 O147 2.035 . S
Zn143 O149 2.035 . S
Zn143 O150 2.028 . S
O144 C140 1.258 . S
O144 Zn145 2.035 . S
Zn145 O144 2.035 . S
Zn145 O146 2.028 . S
Zn145 O148 2.028 . S
Zn145 O151 2.035 . S
O146 Zn145 2.028 . S
O146 C152 1.247 . S
O147 Zn143 2.035 . S
O147 C152 1.258 . S
O148 C141 1.247 . S
O148 Zn145 2.028 . S
O149 C141 1.258 . S
O149 Zn143 2.035 . S
O150 Zn143 2.028 . S
O150 C153 1.247 . S
O151 Zn145 2.035 . S
O151 C153 1.258 . S
C152 O146 1.247 . S
C152 O147 1.258 . S
C153 O150 1.247 . S
C153 O151 1.258 . S
C154 O156 1.247 . S
C154 O158 1.258 . S
C155 O162 1.247 . S
C155 O163 1.258 . S
O156 C154 1.247 . S
O156 Zn157 2.028 . S
Zn157 O156 2.028 . S
Zn157 O161 2.035 . S
Zn157 O163 2.035 . S
Zn157 O164 2.028 . S
O158 C154 1.258 . S
O158 Zn159 2.035 . S
Zn159 O158 2.035 . S
Zn159 O160 2.028 . S
Zn159 O162 2.028 . S
Zn159 O165 2.035 . S
O160 Zn159 2.028 . S
O160 C166 1.247 . S
O161 Zn157 2.035 . S
O161 C166 1.258 . S
O162 C155 1.247 . S
O162 Zn159 2.028 . S
O163 C155 1.258 . S
O163 Zn157 2.035 . S
O164 Zn157 2.028 . S
O164 C167 1.247 . S
O165 Zn159 2.035 . S
O165 C167 1.258 . S
C166 O160 1.247 . S
C166 O161 1.258 . S
C167 O164 1.247 . S
C167 O165 1.258 . S
C168 O170 1.247 . S
C168 O172 1.258 . S
C169 O176 1.247 . S
C169 O177 1.258 1_455 S
O170 C168 1.247 . S
O170 Zn171 2.028 . S
Zn171 O170 2.028 . S
Zn171 O175 2.035 . S
Zn171 O177 2.035 . S
Zn171 O178 2.028 . S
O172 C168 1.258 . S
O172 Zn173 2.035 1_655 S
Zn173 O172 2.035 1_455 S
Zn173 O174 2.028 . S
Zn173 O176 2.028 . S
Zn173 O179 2.035 . S
O174 Zn173 2.028 . S
O174 C180 1.247 1_455 S
O175 Zn171 2.035 . S
O175 C180 1.258 . S
O176 C169 1.247 . S
O176 Zn173 2.028 . S
O177 C169 1.258 1_655 S
O177 Zn171 2.035 . S
O178 Zn171 2.028 . S
O178 C181 1.247 . S
O179 Zn173 2.035 . S
O179 C181 1.258 1_455 S
C180 O174 1.247 1_655 S
C180 O175 1.258 . S
C181 O178 1.247 . S
C181 O179 1.258 1_655 S
C182 O184 1.247 . S
C182 O186 1.258 . S
C183 O190 1.247 . S
C183 O191 1.258 . S
O184 C182 1.247 . S
O184 Zn185 2.028 . S
Zn185 O184 2.028 . S
Zn185 O189 2.035 . S
Zn185 O191 2.035 . S
Zn185 O192 2.028 . S
O186 C182 1.258 . S
O186 Zn187 2.035 . S
Zn187 O186 2.035 . S
Zn187 O188 2.028 . S
Zn187 O190 2.028 . S
Zn187 O193 2.035 . S
O188 Zn187 2.028 . S
O188 C194 1.247 . S
O189 Zn185 2.035 . S
O189 C194 1.258 . S
O190 C183 1.247 . S
O190 Zn187 2.028 . S
O191 C183 1.258 . S
O191 Zn185 2.035 . S
O192 Zn185 2.028 . S
O192 C195 1.247 . S
O193 Zn187 2.035 . S
O193 C195 1.258 . S
C194 O188 1.247 . S
C194 O189 1.258 . S
C195 O192 1.247 . S
C195 O193 1.258 . S
C196 O198 1.247 . S
C196 O200 1.258 . S
C197 O204 1.247 . S
C197 O205 1.258 . S
O198 C196 1.247 . S
O198 Zn199 2.028 . S
Zn199 O198 2.028 . S
Zn199 O203 2.035 . S
Zn199 O205 2.035 1_554 S
Zn199 O206 2.028 . S
O200 C196 1.258 . S
O200 Zn201 2.035 . S
Zn201 O200 2.035 . S
Zn201 O202 2.028 . S
Zn201 O204 2.028 1_554 S
Zn201 O207 2.035 . S
O202 Zn201 2.028 . S
O202 C208 1.247 . S
O203 Zn199 2.035 . S
O203 C208 1.258 . S
O204 C197 1.247 . S
O204 Zn201 2.028 1_556 S
O205 C197 1.258 . S
O205 Zn199 2.035 1_556 S
O206 Zn199 2.028 . S
O206 C209 1.247 . S
O207 Zn201 2.035 . S
O207 C209 1.258 . S
C208 O202 1.247 . S
C208 O203 1.258 . S
C209 O206 1.247 . S
C209 O207 1.258 . S
C210 O212 1.247 . S
C210 O214 1.258 . S
C211 O218 1.247 . S
C211 O219 1.258 . S
O212 C210 1.247 . S
O212 Zn213 2.028 . S
Zn213 O212 2.028 . S
Zn213 O217 2.035 . S
Zn213 O219 2.035 . S
Zn213 O220 2.028 . S
O214 C210 1.258 . S
O214 Zn215 2.035 . S
Zn215 O214 2.035 . S
Zn215 O216 2.028 . S
Zn215 O218 2.028 . S
Zn215 O221 2.035 . S
O216 Zn215 2.028 . S
O216 C222 1.247 . S
O217 Zn213 2.035 . S
O217 C222 1.258 . S
O218 C211 1.247 . S
O218 Zn215 2.028 . S
O219 C211 1.258 . S
O219 Zn213 2.035 . S
O220 Zn213 2.028 . S
O220 C223 1.247 . S
O221 Zn215 2.035 . S
O221 C223 1.258 . S
C222 O216 1.247 . S
C222 O217 1.258 . S
C223 O220 1.247 . S
C223 O221 1.258 . S
C224 O226 1.247 . S
C224 O228 1.258 . S
C225 O232 1.247 . S
C225 O233 1.258 . S
O226 C224 1.247 . S
O226 Zn227 2.028 . S
Zn227 O226 2.028 . S
Zn227 O231 2.035 . S
Zn227 O233 2.035 . S
Zn227 O234 2.028 . S
O228 C224 1.258 . S
O228 Zn229 2.035 . S
Zn229 O228 2.035 . S
Zn229 O230 2.028 . S
Zn229 O232 2.028 . S
Zn229 O235 2.035 . S
O230 Zn229 2.028 . S
O230 C236 1.247 . S
O231 Zn227 2.035 . S
O231 C236 1.258 . S
O232 C225 1.247 . S
O232 Zn229 2.028 . S
O233 C225 1.258 . S
O233 Zn227 2.035 . S
O234 Zn227 2.028 . S
O234 C237 1.247 . S
O235 Zn229 2.035 . S
O235 C237 1.258 . S
C236 O230 1.247 . S
C236 O231 1.258 . S
C237 O234 1.247 . S
C237 O235 1.258 . S
C238 O240 1.247 . S
C238 O242 1.258 . S
C239 O246 1.247 . S
C239 O247 1.258 . S
O240 C238 1.247 . S
O240 Zn241 2.028 . S
Zn241 O240 2.028 . S
Zn241 O245 2.035 . S
Zn241 O247 2.035 . S
Zn241 O248 2.028 . S
O242 C238 1.258 . S
O242 Zn243 2.035 . S
Zn243 O242 2.035 . S
Zn243 O244 2.028 . S
Zn243 O246 2.028 . S
Zn243 O249 2.035 . S
O244 Zn243 2.028 . S
O244 C250 1.247 . S
O245 Zn241 2.035 . S
O245 C250 1.258 . S
O246 C239 1.247 . S
O246 Zn243 2.028 . S
O247 C239 1.258 . S
O247 Zn241 2.035 . S
O248 Zn241 2.028 . S
O248 C251 1.247 . S
O249 Zn243 2.035 . S
O249 C251 1.258 . S
C250 O244 1.247 . S
C250 O245 1.258 . S
C251 O248 1.247 . S
C251 O249 1.258 . S
C252 O254 1.247 . S
C252 O256 1.258 1_655 S
C253 O260 1.247 1_655 S
C253 O261 1.258 . S
O254 C252 1.247 . S
O254 Zn255 2.028 1_556 S
Zn255 O254 2.028 1_554 S
Zn255 O259 2.035 . S
Zn255 O261 2.035 . S
Zn255 O262 2.028 . S
O256 C252 1.258 1_455 S
O256 Zn257 2.035 1_556 S
Zn257 O256 2.035 1_554 S
Zn257 O258 2.028 1_455 S
Zn257 O260 2.028 . S
Zn257 O263 2.035 . S
O258 Zn257 2.028 1_655 S
O258 C264 1.247 . S
O259 Zn255 2.035 . S
O259 C264 1.258 . S
O260 C253 1.247 1_455 S
O260 Zn257 2.028 . S
O261 C253 1.258 . S
O261 Zn255 2.035 . S
O262 Zn255 2.028 . S
O262 C265 1.247 1_655 S
O263 Zn257 2.035 . S
O263 C265 1.258 . S
C264 O258 1.247 . S
C264 O259 1.258 . S
C265 O262 1.247 1_455 S
C265 O263 1.258 . S
C266 O268 1.247 . S
C266 O270 1.258 . S
C267 O274 1.247 . S
C267 O275 1.258 . S
O268 C266 1.247 . S
O268 Zn269 2.028 . S
Zn269 O268 2.028 . S
Zn269 O273 2.035 . S
Zn269 O275 2.035 . S
Zn269 O276 2.028 . S
O270 C266 1.258 . S
O270 Zn271 2.035 . S
Zn271 O270 2.035 . S
Zn271 O272 2.028 . S
Zn271 O274 2.028 . S
Zn271 O277 2.035 . S
O272 Zn271 2.028 . S
O272 C278 1.247 . S
O273 Zn269 2.035 . S
O273 C278 1.258 . S
O274 C267 1.247 . S
O274 Zn271 2.028 . S
O275 C267 1.258 . S
O275 Zn269 2.035 . S
O276 Zn269 2.028 . S
O276 C279 1.247 . S
O277 Zn271 2.035 . S
O277 C279 1.258 . S
C278 O272 1.247 . S
C278 O273 1.258 . S
C279 O276 1.247 . S
C279 O277 1.258 . S
C280 O282 1.247 . S
C280 O284 1.258 . S
C281 O288 1.247 . S
C281 O289 1.258 . S
O282 C280 1.247 . S
O282 Zn283 2.028 1_554 S
Zn283 O282 2.028 1_556 S
Zn283 O287 2.035 . S
Zn283 O289 2.035 . S
Zn283 O290 2.028 . S
O284 C280 1.258 . S
O284 Zn285 2.035 1_554 S
Zn285 O284 2.035 1_556 S
Zn285 O286 2.028 . S
Zn285 O288 2.028 . S
Zn285 O291 2.035 . S
O286 Zn285 2.028 . S
O286 C292 1.247 . S
O287 Zn283 2.035 . S
O287 C292 1.258 . S
O288 C281 1.247 . S
O288 Zn285 2.028 . S
O289 C281 1.258 . S
O289 Zn283 2.035 . S
O290 Zn283 2.028 . S
O290 C293 1.247 . S
O291 Zn285 2.035 . S
O291 C293 1.258 . S
C292 O286 1.247 . S
C292 O287 1.258 . S
C293 O290 1.247 . S
C293 O291 1.258 . S
C294 O296 1.247 . S
C294 O298 1.258 . S
C295 O302 1.247 . S
C295 O303 1.258 . S
O296 C294 1.247 . S
O296 Zn297 2.028 . S
Zn297 O296 2.028 . S
Zn297 O301 2.035 . S
Zn297 O303 2.035 . S
Zn297 O304 2.028 . S
O298 C294 1.258 . S
O298 Zn299 2.035 . S
Zn299 O298 2.035 . S
Zn299 O300 2.028 . S
Zn299 O302 2.028 . S
Zn299 O305 2.035 . S
O300 Zn299 2.028 . S
O300 C306 1.247 . S
O301 Zn297 2.035 . S
O301 C306 1.258 . S
O302 C295 1.247 . S
O302 Zn299 2.028 . S
O303 C295 1.258 . S
O303 Zn297 2.035 . S
O304 Zn297 2.028 . S
O304 C307 1.247 . S
O305 Zn299 2.035 . S
O305 C307 1.258 . S
C306 O300 1.247 . S
C306 O301 1.258 . S
C307 O304 1.247 . S
C307 O305 1.258 . S
C308 O310 1.247 . S
C308 O312 1.258 . S
C309 O316 1.247 1_455 S
C309 O317 1.258 . S
O310 C308 1.247 . S
O310 Zn311 2.028 1_655 S
Zn311 O310 2.028 1_455 S
Zn311 O315 2.035 . S
Zn311 O317 2.035 . S
Zn311 O318 2.028 . S
O312 C308 1.258 . S
O312 Zn313 2.035 . S
Zn313 O312 2.035 . S
Zn313 O314 2.028 . S
Zn313 O316 2.028 . S
Zn313 O319 2.035 . S
O314 Zn313 2.028 . S
O314 C320 1.247 . S
O315 Zn311 2.035 . S
O315 C320 1.258 1_455 S
O316 C309 1.247 1_655 S
O316 Zn313 2.028 . S
O317 C309 1.258 . S
O317 Zn311 2.035 . S
O318 Zn311 2.028 . S
O318 C321 1.247 1_455 S
O319 Zn313 2.035 . S
O319 C321 1.258 . S
C320 O314 1.247 . S
C320 O315 1.258 1_655 S
C321 O318 1.247 1_655 S
C321 O319 1.258 . S
C322 O324 1.247 . S
C322 O326 1.258 . S
C323 O330 1.247 . S
C323 O331 1.258 . S
O324 C322 1.247 . S
O324 Zn325 2.028 . S
Zn325 O324 2.028 . S
Zn325 O329 2.035 . S
Zn325 O331 2.035 . S
Zn325 O332 2.028 . S
O326 C322 1.258 . S
O326 Zn327 2.035 . S
Zn327 O326 2.035 . S
Zn327 O328 2.028 . S
Zn327 O330 2.028 . S
Zn327 O333 2.035 . S
O328 Zn327 2.028 . S
O328 C334 1.247 . S
O329 Zn325 2.035 . S
O329 C334 1.258 . S
O330 C323 1.247 . S
O330 Zn327 2.028 . S
O331 C323 1.258 . S
O331 Zn325 2.035 . S
O332 Zn325 2.028 . S
O332 C335 1.247 . S
O333 Zn327 2.035 . S
O333 C335 1.258 . S
C334 O328 1.247 . S
C334 O329 1.258 . S
C335 O332 1.247 . S
C335 O333 1.258 . S
C336 O338 1.247 . S
C336 O340 1.258 . S
C337 O344 1.247 . S
C337 O345 1.258 . S
O338 C336 1.247 . S
O338 Zn339 2.028 . S
Zn339 O338 2.028 . S
Zn339 O343 2.035 . S
Zn339 O345 2.035 . S
Zn339 O346 2.028 . S
O340 C336 1.258 . S
O340 Zn341 2.035 . S
Zn341 O340 2.035 . S
Zn341 O342 2.028 . S
Zn341 O344 2.028 . S
Zn341 O347 2.035 . S
O342 Zn341 2.028 . S
O342 C348 1.247 . S
O343 Zn339 2.035 . S
O343 C348 1.258 . S
O344 C337 1.247 . S
O344 Zn341 2.028 . S
O345 C337 1.258 . S
O345 Zn339 2.035 . S
O346 Zn339 2.028 . S
O346 C349 1.247 . S
O347 Zn341 2.035 . S
O347 C349 1.258 . S
C348 O342 1.247 . S
C348 O343 1.258 . S
C349 O346 1.247 . S
C349 O347 1.258 . S
C350 O352 1.247 . S
C350 O354 1.258 . S
C351 O358 1.247 . S
C351 O359 1.258 . S
O352 C350 1.247 . S
O352 Zn353 2.028 . S
Zn353 O352 2.028 . S
Zn353 O357 2.035 . S
Zn353 O359 2.035 . S
Zn353 O360 2.028 . S
O354 C350 1.258 . S
O354 Zn355 2.035 . S
Zn355 O354 2.035 . S
Zn355 O356 2.028 . S
Zn355 O358 2.028 . S
Zn355 O361 2.035 . S
O356 Zn355 2.028 . S
O356 C362 1.247 . S
O357 Zn353 2.035 . S
O357 C362 1.258 . S
O358 C351 1.247 . S
O358 Zn355 2.028 . S
O359 C351 1.258 . S
O359 Zn353 2.035 . S
O360 Zn353 2.028 . S
O360 C363 1.247 . S
O361 Zn355 2.035 . S
O361 C363 1.258 . S
C362 O356 1.247 . S
C362 O357 1.258 . S
C363 O360 1.247 . S
C363 O361 1.258 . S
C364 O366 1.247 . S
C364 O368 1.258 . S
C365 O372 1.247 . S
C365 O373 1.258 1_655 S
O366 C364 1.247 . S
O366 Zn367 2.028 . S
Zn367 O366 2.028 . S
Zn367 O371 2.035 1_556 S
Zn367 O373 2.035 . S
Zn367 O374 2.028 . S
O368 C364 1.258 . S
O368 Zn369 2.035 1_455 S
Zn369 O368 2.035 1_655 S
Zn369 O370 2.028 1_556 S
Zn369 O372 2.028 . S
Zn369 O375 2.035 . S
O370 Zn369 2.028 1_554 S
O370 C376 1.247 1_655 S
O371 Zn367 2.035 1_554 S
O371 C376 1.258 . S
O372 C365 1.247 . S
O372 Zn369 2.028 . S
O373 C365 1.258 1_455 S
O373 Zn367 2.035 . S
O374 Zn367 2.028 . S
O374 C377 1.247 . S
O375 Zn369 2.035 . S
O375 C377 1.258 1_655 S
C376 O370 1.247 1_455 S
C376 O371 1.258 . S
C377 O374 1.247 . S
C377 O375 1.258 1_455 S
C378 O380 1.247 . S
C378 O382 1.258 . S
C379 O386 1.247 . S
C379 O387 1.258 . S
O380 C378 1.247 . S
O380 Zn381 2.028 . S
Zn381 O380 2.028 . S
Zn381 O385 2.035 . S
Zn381 O387 2.035 . S
Zn381 O388 2.028 . S
O382 C378 1.258 . S
O382 Zn383 2.035 . S
Zn383 O382 2.035 . S
Zn383 O384 2.028 . S
Zn383 O386 2.028 . S
Zn383 O389 2.035 . S
O384 Zn383 2.028 . S
O384 C390 1.247 . S
O385 Zn381 2.035 . S
O385 C390 1.258 . S
O386 C379 1.247 . S
O386 Zn383 2.028 . S
O387 C379 1.258 . S
O387 Zn381 2.035 . S
O388 Zn381 2.028 . S
O388 C391 1.247 . S
O389 Zn383 2.035 . S
O389 C391 1.258 . S
C390 O384 1.247 . S
C390 O385 1.258 . S
C391 O388 1.247 . S
C391 O389 1.258 . S
C392 O394 1.247 . S
C392 O396 1.258 . S
C393 O400 1.247 . S
C393 O401 1.258 . S
O394 C392 1.247 . S
O394 Zn395 2.028 . S
Zn395 O394 2.028 . S
Zn395 O399 2.035 . S
Zn395 O401 2.035 1_554 S
Zn395 O402 2.028 . S
O396 C392 1.258 . S
O396 Zn397 2.035 . S
Zn397 O396 2.035 . S
Zn397 O398 2.028 . S
Zn397 O400 2.028 1_554 S
Zn397 O403 2.035 . S
O398 Zn397 2.028 . S
O398 C404 1.247 . S
O399 Zn395 2.035 . S
O399 C404 1.258 . S
O400 C393 1.247 . S
O400 Zn397 2.028 1_556 S
O401 C393 1.258 . S
O401 Zn395 2.035 1_556 S
O402 Zn395 2.028 . S
O402 C405 1.247 . S
O403 Zn397 2.035 . S
O403 C405 1.258 . S
C404 O398 1.247 . S
C404 O399 1.258 . S
C405 O402 1.247 . S
C405 O403 1.258 . S
C406 O408 1.247 . S
C406 O410 1.258 . S
C407 O414 1.247 . S
C407 O415 1.258 . S
O408 C406 1.247 . S
O408 Zn409 2.028 . S
Zn409 O408 2.028 . S
Zn409 O413 2.035 . S
Zn409 O415 2.035 . S
Zn409 O416 2.028 . S
O410 C406 1.258 . S
O410 Zn411 2.035 . S
Zn411 O410 2.035 . S
Zn411 O412 2.028 . S
Zn411 O414 2.028 . S
Zn411 O417 2.035 . S
O412 Zn411 2.028 . S
O412 C418 1.247 . S
O413 Zn409 2.035 . S
O413 C418 1.258 . S
O414 C407 1.247 . S
O414 Zn411 2.028 . S
O415 C407 1.258 . S
O415 Zn409 2.035 . S
O416 Zn409 2.028 . S
O416 C419 1.247 . S
O417 Zn411 2.035 . S
O417 C419 1.258 . S
C418 O412 1.247 . S
C418 O413 1.258 . S
C419 O416 1.247 . S
C419 O417 1.258 . S
C420 O422 1.247 . S
C420 O424 1.258 . S
C421 O428 1.247 . S
C421 O429 1.258 1_655 S
O422 C420 1.247 . S
O422 Zn423 2.028 . S
Zn423 O422 2.028 . S
Zn423 O427 2.035 . S
Zn423 O429 2.035 . S
Zn423 O430 2.028 . S
O424 C420 1.258 . S
O424 Zn425 2.035 1_455 S
Zn425 O424 2.035 1_655 S
Zn425 O426 2.028 . S
Zn425 O428 2.028 . S
Zn425 O431 2.035 . S
O426 Zn425 2.028 . S
O426 C432 1.247 1_655 S
O427 Zn423 2.035 . S
O427 C432 1.258 . S
O428 C421 1.247 . S
O428 Zn425 2.028 . S
O429 C421 1.258 1_455 S
O429 Zn423 2.035 . S
O430 Zn423 2.028 . S
O430 C433 1.247 . S
O431 Zn425 2.035 . S
O431 C433 1.258 1_655 S
C432 O426 1.247 1_455 S
C432 O427 1.258 . S
C433 O430 1.247 . S
C433 O431 1.258 1_455 S
C434 O436 1.247 . S
C434 O438 1.258 . S
C435 O442 1.247 . S
C435 O443 1.258 . S
O436 C434 1.247 . S
O436 Zn437 2.028 . S
Zn437 O436 2.028 . S
Zn437 O441 2.035 . S
Zn437 O443 2.035 . S
Zn437 O444 2.028 . S
O438 C434 1.258 . S
O438 Zn439 2.035 . S
Zn439 O438 2.035 . S
Zn439 O440 2.028 . S
Zn439 O442 2.028 . S
Zn439 O445 2.035 . S
O440 Zn439 2.028 . S
O440 C446 1.247 . S
O441 Zn437 2.035 . S
O441 C446 1.258 . S
O442 C435 1.247 . S
O442 Zn439 2.028 . S
O443 C435 1.258 . S
O443 Zn437 2.035 . S
O444 Zn437 2.028 . S
O444 C447 1.247 . S
O445 Zn439 2.035 . S
O445 C447 1.258 . S
C446 O440 1.247 . S
C446 O441 1.258 . S
C447 O444 1.247 . S
C447 O445 1.258 . S
C448 C449 1.387 . S
C448 H452 0.950 . S
C448 C457 1.390 1_655 S
C449 C448 1.387 . S
C449 C451 1.387 . S
H450 C457 0.950 . S
C451 C449 1.387 . S
C451 C453 1.390 1_655 S
C451 H455 0.950 . S
H452 C448 0.950 . S
C453 C451 1.390 1_455 S
C453 C454 1.387 . S
C453 H456 0.950 . S
C454 C453 1.387 . S
C454 C457 1.387 . S
H455 C451 0.950 . S
H456 C453 0.950 . S
C457 C448 1.390 1_455 S
C457 H450 0.950 . S
C457 C454 1.387 . S
C458 C459 1.388 . S
C458 H462 0.950 . S
C458 C467 1.390 . S
C459 C458 1.388 . S
C459 C461 1.388 . S
H460 C467 0.950 . S
C461 C459 1.388 . S
C461 C463 1.390 . S
C461 H465 0.950 1_554 S
H462 C458 0.950 . S
C463 C461 1.390 . S
C463 C464 1.387 . S
C463 H466 0.950 . S
C464 C463 1.387 . S
C464 C467 1.387 . S
H465 C461 0.950 1_556 S
H466 C463 0.950 . S
C467 C458 1.390 . S
C467 H460 0.950 . S
C467 C464 1.387 . S
C468 C469 1.387 . S
C468 H472 0.950 . S
C468 C477 1.390 . S
C469 C468 1.387 . S
C469 C471 1.387 . S
H470 C477 0.950 . S
C471 C469 1.387 . S
C471 C473 1.390 . S
C471 H475 0.950 . S
H472 C468 0.950 . S
C473 C471 1.390 . S
C473 C474 1.387 . S
C473 H476 0.950 . S
C474 C473 1.387 . S
C474 C477 1.387 . S
H475 C471 0.950 . S
H476 C473 0.950 . S
C477 C468 1.390 . S
C477 H470 0.950 . S
C477 C474 1.387 . S
C478 C479 1.387 . S
C478 H482 0.950 . S
C478 C487 1.390 . S
C479 C478 1.387 . S
C479 C481 1.387 . S
H480 C487 0.950 . S
C481 C479 1.387 . S
C481 C483 1.390 . S
C481 H485 0.950 . S
H482 C478 0.950 . S
C483 C481 1.390 . S
C483 C484 1.387 . S
C483 H486 0.950 . S
C484 C483 1.387 . S
C484 C487 1.387 . S
H485 C481 0.950 . S
H486 C483 0.950 . S
C487 C478 1.390 . S
C487 H480 0.950 . S
C487 C484 1.387 . S
C488 C489 1.387 . S
C488 H492 0.950 . S
C488 C497 1.390 . S
C489 C488 1.387 . S
C489 C491 1.387 1_655 S
H490 C497 0.950 . S
C491 C489 1.387 1_455 S
C491 C493 1.390 . S
C491 H495 0.950 . S
H492 C488 0.950 . S
C493 C491 1.390 . S
C493 C494 1.387 . S
C493 H496 0.950 . S
C494 C493 1.387 . S
C494 C497 1.387 1_455 S
H495 C491 0.950 . S
H496 C493 0.950 . S
C497 C488 1.390 . S
C497 H490 0.950 . S
C497 C494 1.387 1_655 S
C498 C499 1.387 . S
C498 H502 0.950 . S
C498 C507 1.390 . S
C499 C498 1.387 . S
C499 C501 1.387 . S
H500 C507 0.950 . S
C501 C499 1.387 . S
C501 C503 1.390 . S
C501 H505 0.950 . S
H502 C498 0.950 . S
C503 C501 1.390 . S
C503 C504 1.387 . S
C503 H506 0.950 . S
C504 C503 1.387 . S
C504 C507 1.387 . S
H505 C501 0.950 . S
H506 C503 0.950 . S
C507 C498 1.390 . S
C507 H500 0.950 . S
C507 C504 1.387 . S
C508 C509 1.387 . S
C508 H512 0.950 . S
C508 C517 1.390 . S
C509 C508 1.387 . S
C509 C511 1.387 . S
H510 C517 0.950 . S
C511 C509 1.387 . S
C511 C513 1.390 . S
C511 H515 0.950 . S
H512 C508 0.950 . S
C513 C511 1.390 . S
C513 C514 1.387 . S
C513 H516 0.950 . S
C514 C513 1.387 . S
C514 C517 1.387 . S
H515 C511 0.950 . S
H516 C513 0.950 . S
C517 C508 1.390 . S
C517 H510 0.950 . S
C517 C514 1.387 . S
C518 C519 1.387 . S
C518 H522 0.950 . S
C518 C527 1.390 . S
C519 C518 1.387 . S
C519 C521 1.387 . S
H520 C527 0.950 . S
C521 C519 1.387 . S
C521 C523 1.390 . S
C521 H525 0.950 . S
H522 C518 0.950 . S
C523 C521 1.390 . S
C523 C524 1.387 . S
C523 H526 0.950 . S
C524 C523 1.387 . S
C524 C527 1.387 . S
H525 C521 0.950 . S
H526 C523 0.950 . S
C527 C518 1.390 . S
C527 H520 0.950 . S
C527 C524 1.387 . S
C528 C529 1.387 1_655 S
C528 H532 0.950 . S
C528 C537 1.390 . S
C529 C528 1.387 1_455 S
C529 C531 1.387 . S
H530 C537 0.950 . S
C531 C529 1.387 . S
C531 C533 1.389 . S
C531 H535 0.950 . S
H532 C528 0.950 . S
C533 C531 1.389 . S
C533 C534 1.389 1_455 S
C533 H536 0.949 . S
C534 C533 1.389 1_655 S
C534 C537 1.387 . S
H535 C531 0.950 . S
H536 C533 0.949 . S
C537 C528 1.390 . S
C537 H530 0.950 . S
C537 C534 1.387 . S
C538 C539 1.388 1_556 S
C538 H542 0.945 1_556 S
C538 C547 1.390 . S
C539 C538 1.388 1_554 S
C539 C541 1.389 1_554 S
H540 C547 0.950 . S
C541 C539 1.389 1_556 S
C541 C543 1.390 . S
C541 H545 0.950 . S
H542 C538 0.945 1_554 S
C543 C541 1.390 . S
C543 C544 1.387 . S
C543 H546 0.950 . S
C544 C543 1.387 . S
C544 C547 1.387 . S
H545 C541 0.950 . S
H546 C543 0.950 . S
C547 C538 1.390 . S
C547 H540 0.950 . S
C547 C544 1.387 . S
C548 C549 1.387 . S
C548 H552 0.950 . S
C548 C557 1.390 . S
C549 C548 1.387 . S
C549 C551 1.387 . S
H550 C557 0.950 . S
C551 C549 1.387 . S
C551 C553 1.390 . S
C551 H555 0.950 . S
H552 C548 0.950 . S
C553 C551 1.390 . S
C553 C554 1.387 . S
C553 H556 0.950 . S
C554 C553 1.387 . S
C554 C557 1.387 . S
H555 C551 0.950 . S
H556 C553 0.950 . S
C557 C548 1.390 . S
C557 H550 0.950 . S
C557 C554 1.387 . S
C558 C559 1.387 . S
C558 H562 0.950 . S
C558 C567 1.390 . S
C559 C558 1.387 . S
C559 C561 1.387 . S
H560 C567 0.950 . S
C561 C559 1.387 . S
C561 C563 1.390 . S
C561 H565 0.950 . S
H562 C558 0.950 . S
C563 C561 1.390 . S
C563 C564 1.387 . S
C563 H566 0.950 . S
C564 C563 1.387 . S
C564 C567 1.387 . S
H565 C561 0.950 . S
H566 C563 0.950 . S
C567 C558 1.390 . S
C567 H560 0.950 . S
C567 C564 1.387 . S
C568 C569 1.387 . S
C568 H572 0.950 . S
C568 C577 1.390 1_655 S
C569 C568 1.387 . S
C569 C571 1.387 . S
H570 C577 0.950 . S
C571 C569 1.387 . S
C571 C573 1.391 1_655 S
C571 H575 0.950 . S
H572 C568 0.950 . S
C573 C571 1.391 1_455 S
C573 C574 1.387 . S
C573 H576 0.949 . S
C574 C573 1.387 . S
C574 C577 1.387 . S
H575 C571 0.950 . S
H576 C573 0.949 . S
C577 C568 1.390 1_455 S
C577 H570 0.950 . S
C577 C574 1.387 . S
C578 C579 1.387 . S
C578 H582 0.950 . S
C578 C587 1.390 . S
C579 C578 1.387 . S
C579 C581 1.387 . S
H580 C587 0.950 . S
C581 C579 1.387 . S
C581 C583 1.390 . S
C581 H585 0.950 . S
H582 C578 0.950 . S
C583 C581 1.390 . S
C583 C584 1.388 . S
C583 H586 0.950 1_554 S
C584 C583 1.388 . S
C584 C587 1.388 . S
H585 C581 0.950 . S
H586 C583 0.950 1_556 S
C587 C578 1.390 . S
C587 H580 0.950 . S
C587 C584 1.388 . S
C588 C589 1.387 . S
C588 H592 0.950 . S
C588 C597 1.390 . S
C589 C588 1.387 . S
C589 C591 1.387 . S
H590 C597 0.950 . S
C591 C589 1.387 . S
C591 C593 1.390 . S
C591 H595 0.950 . S
H592 C588 0.950 . S
C593 C591 1.390 . S
C593 C594 1.387 . S
C593 H596 0.950 . S
C594 C593 1.387 . S
C594 C597 1.387 . S
H595 C591 0.950 . S
H596 C593 0.950 . S
C597 C588 1.390 . S
C597 H590 0.950 . S
C597 C594 1.387 . S
C598 C599 1.387 . S
C598 H602 0.950 . S
C598 C607 1.390 . S
C599 C598 1.387 . S
C599 C601 1.387 . S
H600 C607 0.950 . S
C601 C599 1.387 . S
C601 C603 1.390 . S
C601 H605 0.950 . S
H602 C598 0.950 . S
C603 C601 1.390 . S
C603 C604 1.387 . S
C603 H606 0.950 . S
C604 C603 1.387 . S
C604 C607 1.387 . S
H605 C601 0.950 . S
H606 C603 0.950 . S
C607 C598 1.390 . S
C607 H600 0.950 . S
C607 C604 1.387 . S
C608 C609 1.387 . S
C608 H612 0.950 . S
C608 C617 1.390 . S
C609 C608 1.387 . S
C609 C611 1.387 . S
H610 C617 0.950 . S
C611 C609 1.387 . S
C611 C613 1.390 . S
C611 H615 0.950 . S
H612 C608 0.950 . S
C613 C611 1.390 . S
C613 C614 1.387 . S
C613 H616 0.950 . S
C614 C613 1.387 . S
C614 C617 1.387 . S
H615 C611 0.950 . S
H616 C613 0.950 . S
C617 C608 1.390 . S
C617 H610 0.950 . S
C617 C614 1.387 . S
C618 C619 1.387 . S
C618 H622 0.950 . S
C618 C627 1.390 . S
C619 C618 1.387 . S
C619 C621 1.387 . S
H620 C627 0.950 . S
C621 C619 1.387 . S
C621 C623 1.390 . S
C621 H625 0.950 . S
H622 C618 0.950 . S
C623 C621 1.390 . S
C623 C624 1.387 . S
C623 H626 0.950 . S
C624 C623 1.387 . S
C624 C627 1.387 . S
H625 C621 0.950 . S
H626 C623 0.950 . S
C627 C618 1.390 . S
C627 H620 0.950 . S
C627 C624 1.387 . S
C628 C629 1.387 . S
C628 H632 0.950 . S
C628 C637 1.390 1_455 S
C629 C628 1.387 . S
C629 C631 1.393 . S
H630 C637 0.950 . S
C631 C629 1.393 . S
C631 C633 1.382 1_455 S
C631 H635 0.953 . S
H632 C628 0.950 . S
C633 C631 1.382 1_655 S
C633 C634 1.387 . S
C633 H636 0.950 . S
C634 C633 1.387 . S
C634 C637 1.387 . S
H635 C631 0.953 . S
H636 C633 0.950 . S
C637 C628 1.390 1_655 S
C637 H630 0.950 . S
C637 C634 1.387 . S
C638 C639 1.387 . S
C638 H642 0.950 . S
C638 C647 1.390 . S
C639 C638 1.387 . S
C639 C641 1.387 . S
H640 C647 0.950 . S
C641 C639 1.387 . S
C641 C643 1.390 . S
C641 H645 0.950 . S
H642 C638 0.950 . S
C643 C641 1.390 . S
C643 C644 1.388 1_554 S
C643 H646 0.950 . S
C644 C643 1.388 1_556 S
C644 C647 1.388 1_556 S
H645 C641 0.950 . S
H646 C643 0.950 . S
C647 C638 1.390 . S
C647 H640 0.950 . S
C647 C644 1.388 1_554 S
C648 C649 1.387 . S
C648 H652 0.950 . S
C648 C657 1.390 . S
C649 C648 1.387 . S
C649 C651 1.387 . S
H650 C657 0.950 . S
C651 C649 1.387 . S
C651 C653 1.390 . S
C651 H655 0.950 . S
H652 C648 0.950 . S
C653 C651 1.390 . S
C653 C654 1.387 . S
C653 H656 0.950 . S
C654 C653 1.387 . S
C654 C657 1.387 . S
H655 C651 0.950 . S
H656 C653 0.950 . S
C657 C648 1.390 . S
C657 H650 0.950 . S
C657 C654 1.387 . S
C658 C659 1.387 . S
C658 H662 0.950 . S
C658 C667 1.390 . S
C659 C658 1.387 . S
C659 C661 1.387 . S
H660 C667 0.950 . S
C661 C659 1.387 . S
C661 C663 1.390 . S
C661 H665 0.950 . S
H662 C658 0.950 . S
C663 C661 1.390 . S
C663 C664 1.387 . S
C663 H666 0.950 . S
C664 C663 1.387 . S
C664 C667 1.387 . S
H665 C661 0.950 . S
H666 C663 0.950 . S
C667 C658 1.390 . S
C667 H660 0.950 . S
C667 C664 1.387 . S
C668 C669 1.387 . S
C668 H672 0.950 . S
C668 C677 1.390 1_455 S
C669 C668 1.387 . S
C669 C671 1.387 . S
H670 C677 0.950 . S
C671 C669 1.387 . S
C671 C673 1.390 1_455 S
C671 H675 0.950 . S
H672 C668 0.950 . S
C673 C671 1.390 1_655 S
C673 C674 1.387 . S
C673 H676 0.950 . S
C674 C673 1.387 . S
C674 C677 1.387 . S
H675 C671 0.950 . S
H676 C673 0.950 . S
C677 C668 1.390 1_655 S
C677 H670 0.950 . S
C677 C674 1.387 . S
C678 C679 1.388 . S
C678 H682 0.950 1_556 S
C678 C687 1.390 . S
C679 C678 1.388 . S
C679 C681 1.388 . S
H680 C687 0.950 . S
C681 C679 1.388 . S
C681 C683 1.390 . S
C681 H685 0.950 . S
H682 C678 0.950 1_554 S
C683 C681 1.390 . S
C683 C684 1.387 . S
C683 H686 0.950 . S
C684 C683 1.387 . S
C684 C687 1.387 . S
H685 C681 0.950 . S
H686 C683 0.950 . S
C687 C678 1.390 . S
C687 H680 0.950 . S
C687 C684 1.387 . S
C688 C689 1.387 . S
C688 H692 0.950 . S
C688 C697 1.390 . S
C689 C688 1.387 . S
C689 C691 1.387 . S
H690 C697 0.950 . S
C691 C689 1.387 . S
C691 C693 1.390 . S
C691 H695 0.950 . S
H692 C688 0.950 . S
C693 C691 1.390 . S
C693 C694 1.387 . S
C693 H696 0.950 . S
C694 C693 1.387 . S
C694 C697 1.387 . S
H695 C691 0.950 . S
H696 C693 0.950 . S
C697 C688 1.390 . S
C697 H690 0.950 . S
C697 C694 1.387 . S
C698 C699 1.387 . S
C698 H702 0.950 . S
C698 C707 1.390 . S
C699 C698 1.387 . S
C699 C701 1.387 . S
H700 C707 0.950 . S
C701 C699 1.387 . S
C701 C703 1.390 . S
C701 H705 0.950 . S
H702 C698 0.950 . S
C703 C701 1.390 . S
C703 C704 1.387 . S
C703 H706 0.950 . S
C704 C703 1.387 . S
C704 C707 1.387 . S
H705 C701 0.950 . S
H706 C703 0.950 . S
C707 C698 1.390 . S
C707 H700 0.950 . S
C707 C704 1.387 . S
C708 C709 1.387 . S
C708 H712 0.950 . S
C708 C717 1.390 1_455 S
C709 C708 1.387 . S
C709 C711 1.387 . S
H710 C717 0.950 . S
C711 C709 1.387 . S
C711 C713 1.390 1_455 S
C711 H715 0.950 . S
H712 C708 0.950 . S
C713 C711 1.390 1_655 S
C713 C714 1.387 . S
C713 H716 0.950 . S
C714 C713 1.387 . S
C714 C717 1.387 . S
H715 C711 0.950 . S
H716 C713 0.950 . S
C717 C708 1.390 1_655 S
C717 H710 0.950 . S
C717 C714 1.387 . S
C718 C719 1.387 . S
C718 H722 0.950 . S
C718 C727 1.390 . S
C719 C718 1.387 . S
C719 C721 1.387 . S
H720 C727 0.950 . S
C721 C719 1.387 . S
C721 C723 1.390 . S
C721 H725 0.950 . S
H722 C718 0.950 . S
C723 C721 1.390 . S
C723 C724 1.387 . S
C723 H726 0.950 1_556 S
C724 C723 1.387 . S
C724 C727 1.386 . S
H725 C721 0.950 . S
H726 C723 0.950 1_554 S
C727 C718 1.390 . S
C727 H720 0.950 . S
C727 C724 1.386 . S
C728 C729 1.387 . S
C728 H732 0.950 . S
C728 C737 1.390 . S
C729 C728 1.387 . S
C729 C731 1.387 . S
H730 C737 0.950 . S
C731 C729 1.387 . S
C731 C733 1.390 . S
C731 H735 0.950 . S
H732 C728 0.950 . S
C733 C731 1.390 . S
C733 C734 1.387 . S
C733 H736 0.950 . S
C734 C733 1.387 . S
C734 C737 1.387 . S
H735 C731 0.950 . S
H736 C733 0.950 . S
C737 C728 1.390 . S
C737 H730 0.950 . S
C737 C734 1.387 . S
C738 C739 1.387 . S
C738 H742 0.950 . S
C738 C747 1.390 . S
C739 C738 1.387 . S
C739 C741 1.387 . S
H740 C747 0.950 . S
C741 C739 1.387 . S
C741 C743 1.390 . S
C741 H745 0.950 . S
H742 C738 0.950 . S
C743 C741 1.390 . S
C743 C744 1.387 . S
C743 H746 0.950 . S
C744 C743 1.387 . S
C744 C747 1.387 . S
H745 C741 0.950 . S
H746 C743 0.950 . S
C747 C738 1.390 . S
C747 H740 0.950 . S
C747 C744 1.387 . S
C748 C749 1.387 . S
C748 H752 0.950 . S
C748 C757 1.390 1_655 S
C749 C748 1.387 . S
C749 C751 1.387 1_655 S
H750 C757 0.950 . S
C751 C749 1.387 1_455 S
C751 C753 1.390 . S
C751 H755 0.951 . S
H752 C748 0.950 . S
C753 C751 1.390 . S
C753 C754 1.387 . S
C753 H756 0.950 . S
C754 C753 1.387 . S
C754 C757 1.387 . S
H755 C751 0.951 . S
H756 C753 0.950 . S
C757 C748 1.390 1_455 S
C757 H750 0.950 . S
C757 C754 1.387 . S
C758 C759 1.387 . S
C758 H762 0.950 . S
C758 C767 1.390 . S
C759 C758 1.387 . S
C759 C761 1.387 . S
H760 C767 0.950 1_556 S
C761 C759 1.387 . S
C761 C763 1.390 . S
C761 H765 0.950 . S
H762 C758 0.950 . S
C763 C761 1.390 . S
C763 C764 1.388 . S
C763 H766 0.950 . S
C764 C763 1.388 . S
C764 C767 1.388 . S
H765 C761 0.950 . S
H766 C763 0.950 . S
C767 C758 1.390 . S
C767 H760 0.950 1_554 S
C767 C764 1.388 . S
C768 C769 1.387 1_556 S
C768 H772 0.950 . S
C768 C777 1.390 1_645 S
C769 C768 1.387 1_554 S
C769 C771 1.387 . S
H770 C777 0.950 . S
C771 C769 1.387 . S
C771 C773 1.390 1_645 S
C771 H775 0.950 . S
H772 C768 0.950 . S
C773 C771 1.390 1_465 S
C773 C774 1.387 1_554 S
C773 H776 0.950 . S
C774 C773 1.387 1_556 S
C774 C777 1.387 . S
H775 C771 0.950 . S
H776 C773 0.950 . S
C777 C768 1.390 1_465 S
C777 H770 0.950 . S
C777 C774 1.387 . S
C778 C779 1.387 . S
C778 H782 0.950 . S
C778 C787 1.390 . S
C779 C778 1.387 . S
C779 C781 1.387 . S
H780 C787 0.950 . S
C781 C779 1.387 . S
C781 C783 1.390 . S
C781 H785 0.950 . S
H782 C778 0.950 . S
C783 C781 1.390 . S
C783 C784 1.387 . S
C783 H786 0.950 . S
C784 C783 1.387 . S
C784 C787 1.387 . S
H785 C781 0.950 . S
H786 C783 0.950 . S
C787 C778 1.390 . S
C787 H780 0.950 . S
C787 C784 1.387 . S
C788 C789 1.387 . S
C788 H792 0.950 . S
C788 C797 1.390 1_545 S
C789 C788 1.387 . S
C789 C791 1.387 . S
H790 C797 0.950 . S
C791 C789 1.387 . S
C791 C793 1.390 1_545 S
C791 H795 0.950 . S
H792 C788 0.950 . S
C793 C791 1.390 1_565 S
C793 C794 1.387 . S
C793 H796 0.950 . S
C794 C793 1.387 . S
C794 C797 1.387 . S
H795 C791 0.950 . S
H796 C793 0.950 . S
C797 C788 1.390 1_565 S
C797 H790 0.950 . S
C797 C794 1.387 . S
C798 C799 1.387 . S
C798 H802 0.950 . S
C798 C807 1.390 . S
C799 C798 1.387 . S
C799 C801 1.387 . S
H800 C807 0.950 . S
C801 C799 1.387 . S
C801 C803 1.390 . S
C801 H805 0.950 . S
H802 C798 0.950 . S
C803 C801 1.390 . S
C803 C804 1.387 . S
C803 H806 0.950 . S
C804 C803 1.387 . S
C804 C807 1.387 . S
H805 C801 0.950 . S
H806 C803 0.950 . S
C807 C798 1.390 . S
C807 H800 0.950 . S
C807 C804 1.387 . S
C808 C809 1.387 . S
C808 H812 0.950 . S
C808 C817 1.390 1_565 S
C809 C808 1.387 . S
C809 C811 1.387 1_655 S
H810 C817 0.950 . S
C811 C809 1.387 1_455 S
C811 C813 1.390 1_565 S
C811 H815 0.950 . S
H812 C808 0.950 . S
C813 C811 1.390 1_545 S
C813 C814 1.387 . S
C813 H816 0.950 . S
C814 C813 1.387 . S
C814 C817 1.387 1_455 S
H815 C811 0.950 . S
H816 C813 0.950 . S
C817 C808 1.390 1_545 S
C817 H810 0.950 . S
C817 C814 1.387 1_655 S
C818 C819 1.387 . S
C818 H822 0.950 . S
C818 C827 1.390 . S
C819 C818 1.387 . S
C819 C821 1.387 . S
H820 C827 0.950 . S
C821 C819 1.387 . S
C821 C823 1.390 . S
C821 H825 0.950 . S
H822 C818 0.950 . S
C823 C821 1.390 . S
C823 C824 1.387 . S
C823 H826 0.950 . S
C824 C823 1.387 . S
C824 C827 1.387 . S
H825 C821 0.950 . S
H826 C823 0.950 . S
C827 C818 1.390 . S
C827 H820 0.950 . S
C827 C824 1.387 . S
C828 C829 1.387 . S
C828 H832 0.950 . S
C828 C837 1.390 1_565 S
C829 C828 1.387 . S
C829 C831 1.387 1_554 S
H830 C837 0.950 . S
C831 C829 1.387 1_556 S
C831 C833 1.390 1_565 S
C831 H835 0.950 . S
H832 C828 0.950 . S
C833 C831 1.390 1_545 S
C833 C834 1.387 . S
C833 H836 0.950 . S
C834 C833 1.387 . S
C834 C837 1.387 1_556 S
H835 C831 0.950 . S
H836 C833 0.950 . S
C837 C828 1.390 1_545 S
C837 H830 0.950 . S
C837 C834 1.387 1_554 S
C838 C839 1.387 . S
C838 H842 0.950 . S
C838 C847 1.390 . S
C839 C838 1.387 . S
C839 C841 1.387 . S
H840 C847 0.950 . S
C841 C839 1.387 . S
C841 C843 1.390 . S
C841 H845 0.950 . S
H842 C838 0.950 . S
C843 C841 1.390 . S
C843 C844 1.387 . S
C843 H846 0.950 . S
C844 C843 1.387 . S
C844 C847 1.387 . S
H845 C841 0.950 . S
H846 C843 0.950 . S
C847 C838 1.390 . S
C847 H840 0.950 . S
C847 C844 1.387 . S
C848 C849 1.387 . S
C848 H852 0.950 . S
C848 C857 1.390 . S
C849 C848 1.387 . S
C849 C851 1.387 . S
H850 C857 0.950 . S
C851 C849 1.387 . S
C851 C853 1.390 . S
C851 H855 0.950 . S
H852 C848 0.950 . S
C853 C851 1.390 . S
C853 C854 1.387 . S
C853 H856 0.950 . S
C854 C853 1.387 . S
C854 C857 1.387 . S
H855 C851 0.950 . S
H856 C853 0.950 . S
C857 C848 1.390 . S
C857 H850 0.950 . S
C857 C854 1.387 . S
C858 C859 1.387 . S
C858 H862 0.950 . S
C858 C867 1.390 . S
C859 C858 1.387 . S
C859 C861 1.387 . S
H860 C867 0.950 . S
C861 C859 1.387 . S
C861 C863 1.390 . S
C861 H865 0.950 . S
H862 C858 0.950 . S
C863 C861 1.390 . S
C863 C864 1.387 . S
C863 H866 0.950 . S
C864 C863 1.387 . S
C864 C867 1.387 . S
H865 C861 0.950 . S
H866 C863 0.950 . S
C867 C858 1.390 . S
C867 H860 0.950 . S
C867 C864 1.387 . S
C868 C869 1.387 . S
C868 H872 0.950 . S
C868 C877 1.390 . S
C869 C868 1.387 . S
C869 C871 1.387 . S
H870 C877 0.950 . S
C871 C869 1.387 . S
C871 C873 1.390 . S
C871 H875 0.950 . S
H872 C868 0.950 . S
C873 C871 1.390 . S
C873 C874 1.387 . S
C873 H876 0.950 . S
C874 C873 1.387 . S
C874 C877 1.387 . S
H875 C871 0.950 . S
H876 C873 0.950 . S
C877 C868 1.390 . S
C877 H870 0.950 . S
C877 C874 1.387 . S
C878 C879 1.387 . S
C878 H882 0.950 . S
C878 C887 1.390 . S
C879 C878 1.387 . S
C879 C881 1.387 . S
H880 C887 0.950 . S
C881 C879 1.387 . S
C881 C883 1.390 . S
C881 H885 0.950 . S
H882 C878 0.950 . S
C883 C881 1.390 . S
C883 C884 1.387 . S
C883 H886 0.950 . S
C884 C883 1.387 . S
C884 C887 1.387 . S
H885 C881 0.950 . S
H886 C883 0.950 . S
C887 C878 1.390 . S
C887 H880 0.950 . S
C887 C884 1.387 . S
C888 C889 1.387 . S
C888 H892 0.950 . S
C888 C897 1.390 . S
C889 C888 1.387 . S
C889 C891 1.387 . S
H890 C897 0.950 . S
C891 C889 1.387 . S
C891 C893 1.390 . S
C891 H895 0.950 . S
H892 C888 0.950 . S
C893 C891 1.390 . S
C893 C894 1.387 . S
C893 H896 0.950 . S
C894 C893 1.387 . S
C894 C897 1.387 . S
H895 C891 0.950 . S
H896 C893 0.950 . S
C897 C888 1.390 . S
C897 H890 0.950 . S
C897 C894 1.387 . S
C898 C899 1.387 1_556 S
C898 H902 0.950 . S
C898 C907 1.390 . S
C899 C898 1.387 1_554 S
C899 C901 1.387 1_455 S
H900 C907 0.950 . S
C901 C899 1.387 1_655 S
C901 C903 1.390 . S
C901 H905 0.950 . S
H902 C898 0.950 . S
C903 C901 1.390 . S
C903 C904 1.387 1_554 S
C903 H906 0.950 . S
C904 C903 1.387 1_556 S
C904 C907 1.387 1_655 S
H905 C901 0.950 . S
H906 C903 0.950 . S
C907 C898 1.390 . S
C907 H900 0.950 . S
C907 C904 1.387 1_455 S
C908 C909 1.387 1_554 S
C908 H912 0.950 . S
C908 C917 1.390 . S
C909 C908 1.387 1_556 S
C909 C911 1.387 . S
H910 C917 0.950 . S
C911 C909 1.387 . S
C911 C913 1.390 . S
C911 H915 0.950 . S
H912 C908 0.950 . S
C913 C911 1.390 . S
C913 C914 1.387 1_556 S
C913 H916 0.950 . S
C914 C913 1.387 1_554 S
C914 C917 1.387 . S
H915 C911 0.950 . S
H916 C913 0.950 . S
C917 C908 1.390 . S
C917 H910 0.950 . S
C917 C914 1.387 . S
C918 C919 1.387 . S
C918 H922 0.950 . S
C918 C927 1.390 . S
C919 C918 1.387 . S
C919 C921 1.387 1_655 S
H920 C927 0.950 . S
C921 C919 1.387 1_455 S
C921 C923 1.390 . S
C921 H925 0.950 . S
H922 C918 0.950 . S
C923 C921 1.390 . S
C923 C924 1.387 . S
C923 H926 0.950 . S
C924 C923 1.387 . S
C924 C927 1.387 1_455 S
H925 C921 0.950 . S
H926 C923 0.950 . S
C927 C918 1.390 . S
C927 H920 0.950 . S
C927 C924 1.387 1_655 S
C928 C929 1.387 . S
C928 H932 0.950 . S
C928 C937 1.390 . S
C929 C928 1.387 . S
C929 C931 1.387 . S
H930 C937 0.950 . S
C931 C929 1.387 . S
C931 C933 1.390 . S
C931 H935 0.950 . S
H932 C928 0.950 . S
C933 C931 1.390 . S
C933 C934 1.387 . S
C933 H936 0.950 . S
C934 C933 1.387 . S
C934 C937 1.387 . S
H935 C931 0.950 . S
H936 C933 0.950 . S
C937 C928 1.390 . S
C937 H930 0.950 . S
C937 C934 1.387 . S
C938 C939 1.387 . S
C938 H942 0.950 . S
C938 C947 1.390 . S
C939 C938 1.387 . S
C939 C941 1.387 . S
H940 C947 0.950 . S
C941 C939 1.387 . S
C941 C943 1.390 . S
C941 H945 0.950 . S
H942 C938 0.950 . S
C943 C941 1.390 . S
C943 C944 1.387 . S
C943 H946 0.950 . S
C944 C943 1.387 . S
C944 C947 1.387 . S
H945 C941 0.950 . S
H946 C943 0.950 . S
C947 C938 1.390 . S
C947 H940 0.950 . S
C947 C944 1.387 . S
C948 C949 1.387 . S
C948 H952 0.950 . S
C948 C957 1.390 . S
C949 C948 1.387 . S
C949 C951 1.387 . S
H950 C957 0.950 . S
C951 C949 1.387 . S
C951 C953 1.390 . S
C951 H955 0.950 . S
H952 C948 0.950 . S
C953 C951 1.390 . S
C953 C954 1.387 . S
C953 H956 0.950 . S
C954 C953 1.387 . S
C954 C957 1.387 . S
H955 C951 0.950 . S
H956 C953 0.950 . S
C957 C948 1.390 . S
C957 H950 0.950 . S
C957 C954 1.387 . S
C958 C959 1.387 . S
C958 H962 0.950 . S
C958 C967 1.390 . S
C959 C958 1.387 . S
C959 C961 1.387 . S
H960 C967 0.950 . S
C961 C959 1.387 . S
C961 C963 1.390 . S
C961 H965 0.950 . S
H962 C958 0.950 . S
C963 C961 1.390 . S
C963 C964 1.387 . S
C963 H966 0.950 . S
C964 C963 1.387 . S
C964 C967 1.387 . S
H965 C961 0.950 . S
H966 C963 0.950 . S
C967 C958 1.390 . S
C967 H960 0.950 . S
C967 C964 1.387 . S
C968 C969 1.387 . S
C968 H972 0.950 . S
C968 C977 1.390 . S
C969 C968 1.387 . S
C969 C971 1.387 . S
H970 C977 0.950 . S
C971 C969 1.387 . S
C971 C973 1.390 . S
C971 H975 0.950 . S
H972 C968 0.950 . S
C973 C971 1.390 . S
C973 C974 1.387 . S
C973 H976 0.950 . S
C974 C973 1.387 . S
C974 C977 1.387 . S
H975 C971 0.950 . S
H976 C973 0.950 . S
C977 C968 1.390 . S
C977 H970 0.950 . S
C977 C974 1.387 . S
C978 C979 1.387 . S
C978 H982 0.950 . S
C978 C987 1.390 . S
C979 C978 1.387 . S
C979 C981 1.387 . S
H980 C987 0.950 . S
C981 C979 1.387 . S
C981 C983 1.390 . S
C981 H985 0.950 . S
H982 C978 0.950 . S
C983 C981 1.390 . S
C983 C984 1.387 . S
C983 H986 0.950 . S
C984 C983 1.387 . S
C984 C987 1.387 . S
H985 C981 0.950 . S
H986 C983 0.950 . S
C987 C978 1.390 . S
C987 H980 0.950 . S
C987 C984 1.387 . S
C988 C989 1.387 . S
C988 H992 0.950 . S
C988 C997 1.390 . S
C989 C988 1.387 . S
C989 C991 1.387 . S
H990 C997 0.950 . S
C991 C989 1.387 . S
C991 C993 1.390 . S
C991 H995 0.950 . S
H992 C988 0.950 . S
C993 C991 1.390 . S
C993 C994 1.387 . S
C993 H996 0.950 . S
C994 C993 1.387 . S
C994 C997 1.387 . S
H995 C991 0.950 . S
H996 C993 0.950 . S
C997 C988 1.390 . S
C997 H990 0.950 . S
C997 C994 1.387 . S
C998 C999 1.387 . S
C998 H1002 0.950 . S
C998 C1007 1.390 . S
C999 C998 1.387 . S
C999 C1001 1.387 . S
H1000 C1007 0.950 . S
C1001 C999 1.387 . S
C1001 C1003 1.390 . S
C1001 H1005 0.950 . S
H1002 C998 0.950 . S
C1003 C1001 1.390 . S
C1003 C1004 1.387 . S
C1003 H1006 0.950 . S
C1004 C1003 1.387 . S
C1004 C1007 1.387 . S
H1005 C1001 0.950 . S
H1006 C1003 0.950 . S
C1007 C998 1.390 . S
C1007 H1000 0.950 . S
C1007 C1004 1.387 . S
C1008 C1009 1.387 . S
C1008 H1012 0.950 . S
C1008 C1017 1.390 . S
C1009 C1008 1.387 . S
C1009 C1011 1.387 . S
H1010 C1017 0.950 . S
C1011 C1009 1.387 . S
C1011 C1013 1.390 . S
C1011 H1015 0.950 . S
H1012 C1008 0.950 . S
C1013 C1011 1.390 . S
C1013 C1014 1.387 . S
C1013 H1016 0.950 . S
C1014 C1013 1.387 . S
C1014 C1017 1.387 . S
H1015 C1011 0.950 . S
H1016 C1013 0.950 . S
C1017 C1008 1.390 . S
C1017 H1010 0.950 . S
C1017 C1014 1.387 . S
C1018 C1019 1.387 . S
C1018 H1022 0.950 . S
C1018 C1027 1.390 . S
C1019 C1018 1.387 . S
C1019 C1021 1.387 . S
H1020 C1027 0.950 . S
C1021 C1019 1.387 . S
C1021 C1023 1.390 . S
C1021 H1025 0.950 . S
H1022 C1018 0.950 . S
C1023 C1021 1.390 . S
C1023 C1024 1.387 . S
C1023 H1026 0.950 . S
C1024 C1023 1.387 . S
C1024 C1027 1.387 . S
H1025 C1021 0.950 . S
H1026 C1023 0.950 . S
C1027 C1018 1.390 . S
C1027 H1020 0.950 . S
C1027 C1024 1.387 . S
C1028 C1029 1.387 . S
C1028 H1032 0.950 . S
C1028 C1037 1.390 . S
C1029 C1028 1.387 . S
C1029 C1031 1.387 . S
H1030 C1037 0.950 . S
C1031 C1029 1.387 . S
C1031 C1033 1.390 . S
C1031 H1035 0.950 . S
H1032 C1028 0.950 . S
C1033 C1031 1.390 . S
C1033 C1034 1.387 . S
C1033 H1036 0.950 . S
C1034 C1033 1.387 . S
C1034 C1037 1.387 . S
H1035 C1031 0.950 . S
H1036 C1033 0.950 . S
C1037 C1028 1.390 . S
C1037 H1030 0.950 . S
C1037 C1034 1.387 . S
C1038 C1039 1.387 . S
C1038 H1042 0.950 . S
C1038 C1047 1.390 . S
C1039 C1038 1.387 . S
C1039 C1041 1.387 . S
H1040 C1047 0.950 . S
C1041 C1039 1.387 . S
C1041 C1043 1.390 . S
C1041 H1045 0.950 . S
H1042 C1038 0.950 . S
C1043 C1041 1.390 . S
C1043 C1044 1.387 . S
C1043 H1046 0.950 . S
C1044 C1043 1.387 . S
C1044 C1047 1.387 . S
H1045 C1041 0.950 . S
H1046 C1043 0.950 . S
C1047 C1038 1.390 . S
C1047 H1040 0.950 . S
C1047 C1044 1.387 . S
C1048 C1049 1.387 . S
C1048 H1052 0.950 . S
C1048 C1057 1.390 . S
C1049 C1048 1.387 . S
C1049 C1051 1.387 . S
H1050 C1057 0.950 . S
C1051 C1049 1.387 . S
C1051 C1053 1.390 . S
C1051 H1055 0.950 . S
H1052 C1048 0.950 . S
C1053 C1051 1.390 . S
C1053 C1054 1.387 . S
C1053 H1056 0.950 . S
C1054 C1053 1.387 . S
C1054 C1057 1.387 . S
H1055 C1051 0.950 . S
H1056 C1053 0.950 . S
C1057 C1048 1.390 . S
C1057 H1050 0.950 . S
C1057 C1054 1.387 . S
C1058 C1059 1.387 . S
C1058 H1062 0.950 . S
C1058 C1067 1.390 . S
C1059 C1058 1.387 . S
C1059 C1061 1.387 . S
H1060 C1067 0.950 . S
C1061 C1059 1.387 . S
C1061 C1063 1.390 . S
C1061 H1065 0.950 . S
H1062 C1058 0.950 . S
C1063 C1061 1.390 . S
C1063 C1064 1.387 . S
C1063 H1066 0.950 . S
C1064 C1063 1.387 . S
C1064 C1067 1.387 . S
H1065 C1061 0.950 . S
H1066 C1063 0.950 . S
C1067 C1058 1.390 . S
C1067 H1060 0.950 . S
C1067 C1064 1.387 . S
C1068 C1069 1.387 . S
C1068 H1072 0.950 . S
C1068 C1077 1.390 . S
C1069 C1068 1.387 . S
C1069 C1071 1.387 . S
H1070 C1077 0.950 . S
C1071 C1069 1.387 . S
C1071 C1073 1.390 . S
C1071 H1075 0.950 . S
H1072 C1068 0.950 . S
C1073 C1071 1.390 . S
C1073 C1074 1.387 . S
C1073 H1076 0.950 . S
C1074 C1073 1.387 . S
C1074 C1077 1.387 . S
H1075 C1071 0.950 . S
H1076 C1073 0.950 . S
C1077 C1068 1.390 . S
C1077 H1070 0.950 . S
C1077 C1074 1.387 . S
C1078 C1079 1.387 . S
C1078 H1082 0.950 . S
C1078 C1087 1.390 . S
C1079 C1078 1.387 . S
C1079 C1081 1.387 . S
H1080 C1087 0.950 . S
C1081 C1079 1.387 . S
C1081 C1083 1.390 . S
C1081 H1085 0.950 . S
H1082 C1078 0.950 . S
C1083 C1081 1.390 . S
C1083 C1084 1.387 . S
C1083 H1086 0.950 . S
C1084 C1083 1.387 . S
C1084 C1087 1.387 . S
H1085 C1081 0.950 . S
H1086 C1083 0.950 . S
C1087 C1078 1.390 . S
C1087 H1080 0.950 . S
C1087 C1084 1.387 . S
C449 C181 1.468 . S
C454 C0 1.470 . S
C459 C406 1.468 1_554 S
C464 C27 1.471 . S
C469 C196 1.468 . S
C474 C29 1.471 . S
C479 C435 1.470 . S
C484 C55 1.471 . S
C489 C113 1.470 . S
C494 C68 1.472 . S
C499 C70 1.470 . S
C504 C362 1.468 1_556 S
C509 C84 1.472 . S
C514 C140 1.468 . S
C519 C391 1.468 . S
C524 C99 1.469 . S
C529 C69 1.468 . S
C534 C112 1.471 . S
C539 C294 1.466 . S
C544 C126 1.470 . S
C549 C85 1.468 . S
C554 C141 1.472 . S
C559 C322 1.468 . S
C564 C166 1.469 . S
C569 C180 1.469 . S
C574 C1 1.467 . S
C579 C183 1.472 . S
C584 C251 1.467 1_554 S
C589 C28 1.468 . S
C594 C197 1.471 . S
C599 C211 1.470 . S
C604 C266 1.468 . S
C609 C392 1.467 . S
C614 C224 1.470 . S
C619 C182 1.467 . S
C624 C250 1.470 . S
C629 C433 1.468 . S
C634 C252 1.470 . S
C639 C267 1.469 . S
C644 C210 1.465 . S
C649 C280 1.471 . S
C654 C337 1.468 . S
C659 C295 1.469 . S
C664 C127 1.468 . S
C669 C377 1.468 . S
C674 C320 1.470 . S
C679 C167 1.468 1_556 S
C684 C323 1.471 . S
C689 C281 1.468 . S
C694 C336 1.471 . S
C699 C363 1.471 . S
C704 C71 1.467 . S
C709 C376 1.471 . S
C714 C321 1.468 . S
C719 C390 1.470 . S
C724 C98 1.470 1_556 S
C729 C225 1.468 . S
C734 C393 1.472 . S
C739 C26 1.468 . S
C744 C407 1.471 . S
C749 C253 1.468 . S
C754 C432 1.471 . S
C759 C434 1.471 . S
C764 C54 1.469 1_554 S
C769 C13 1.937 . S
C774 C125 1.941 . S
C779 C14 1.939 . S
C784 C350 1.935 . S
C789 C152 1.937 . S
C794 C40 1.941 . S
C799 C42 1.939 . S
C804 C379 1.939 . S
C809 C57 1.934 . S
C814 C169 1.938 . S
C819 C418 1.936 . S
C824 C83 1.936 . S
C829 C208 1.937 . S
C834 C97 1.937 . S
C839 C110 1.940 . S
C844 C447 1.940 . S
C849 C139 1.941 . S
C854 C239 1.937 . S
C859 C155 1.939 . S
C864 C278 1.939 . S
C869 C194 1.934 . S
C874 C306 1.939 . S
C879 C334 1.939 . S
C884 C222 1.934 . S
C889 C237 1.937 . S
C894 C349 1.941 . S
C899 C265 1.937 . S
C904 C365 1.941 . S
C909 C293 1.937 . S
C914 C404 1.937 . S
C919 C421 1.941 . S
C924 C309 1.937 . S
C929 C12 1.828 . S
C934 C111 1.825 . S
C939 C15 1.826 . S
C944 C56 1.827 . S
C949 C82 1.828 . S
C954 C41 1.825 . S
C959 C96 1.828 . S
C964 C43 1.825 . S
C969 C223 1.828 . S
C974 C124 1.826 . S
C979 C168 1.825 . S
C984 C138 1.826 . S
C989 C195 1.828 . S
C994 C153 1.827 . S
C999 C209 1.828 . S
C1004 C154 1.825 . S
C1009 C236 1.828 . S
C1014 C335 1.825 . S
C1019 C292 1.828 . S
C1024 C238 1.827 . S
C1029 C307 1.826 . S
C1034 C264 1.827 . S
C1039 C308 1.827 . S
C1044 C279 1.826 . S
C1049 C446 1.826 . S
C1054 C348 1.825 . S
C1059 C351 1.827 . S
C1064 C405 1.828 . S
C1069 C364 1.826 . S
C1074 C419 1.827 . S
C1079 C420 1.825 . S
C1084 C378 1.826 . S
