# Generated by pormake.
# Topology umz, (4)-cn, num edge types: 1
# Building blocks:
#     Node 0, Type 0, BuildingBlock: GALJAG_clean_sbu_0, # of connection points: 4
#     Node 1, Type 0, BuildingBlock: GALJAG_clean_sbu_0, # of connection points: 4
#     Node 2, Type 0, BuildingBlock: GALJAG_clean_sbu_0, # of connection points: 4
#     Node 3, Type 0, BuildingBlock: GALJAG_clean_sbu_0, # of connection points: 4
#     Node 4, Type 0, BuildingBlock: GALJAG_clean_sbu_0, # of connection points: 4
#     Node 5, Type 0, BuildingBlock: GALJAG_clean_sbu_0, # of connection points: 4
#     Node 6, Type 0, BuildingBlock: GALJAG_clean_sbu_0, # of connection points: 4
#     Node 7, Type 0, BuildingBlock: GALJAG_clean_sbu_0, # of connection points: 4
#     Node 8, Type 0, BuildingBlock: GALJAG_clean_sbu_0, # of connection points: 4
#     Node 9, Type 0, BuildingBlock: GALJAG_clean_sbu_0, # of connection points: 4
#     Node 10, Type 0, BuildingBlock: GALJAG_clean_sbu_0, # of connection points: 4
#     Node 11, Type 0, BuildingBlock: GALJAG_clean_sbu_0, # of connection points: 4
#     Node 12, Type 0, BuildingBlock: GALJAG_clean_sbu_0, # of connection points: 4
#     Node 13, Type 0, BuildingBlock: GALJAG_clean_sbu_0, # of connection points: 4
#     Node 14, Type 0, BuildingBlock: GALJAG_clean_sbu_0, # of connection points: 4
#     Node 15, Type 0, BuildingBlock: GALJAG_clean_sbu_0, # of connection points: 4
#     Edge 16, Type (0, 0), BuildingBlock: ZUJKAS_clean_linker_0, # of connection points: 2
#     Edge 17, Type (0, 0), BuildingBlock: ZUJKAS_clean_linker_0, # of connection points: 2
#     Edge 18, Type (0, 0), BuildingBlock: ZUJKAS_clean_linker_0, # of connection points: 2
#     Edge 19, Type (0, 0), BuildingBlock: ZUJKAS_clean_linker_0, # of connection points: 2
#     Edge 20, Type (0, 0), BuildingBlock: ZUJKAS_clean_linker_0, # of connection points: 2
#     Edge 21, Type (0, 0), BuildingBlock: ZUJKAS_clean_linker_0, # of connection points: 2
#     Edge 22, Type (0, 0), BuildingBlock: ZUJKAS_clean_linker_0, # of connection points: 2
#     Edge 23, Type (0, 0), BuildingBlock: ZUJKAS_clean_linker_0, # of connection points: 2
#     Edge 24, Type (0, 0), BuildingBlock: ZUJKAS_clean_linker_0, # of connection points: 2
#     Edge 25, Type (0, 0), BuildingBlock: ZUJKAS_clean_linker_0, # of connection points: 2
#     Edge 26, Type (0, 0), BuildingBlock: ZUJKAS_clean_linker_0, # of connection points: 2
#     Edge 27, Type (0, 0), BuildingBlock: ZUJKAS_clean_linker_0, # of connection points: 2
#     Edge 28, Type (0, 0), BuildingBlock: ZUJKAS_clean_linker_0, # of connection points: 2
#     Edge 29, Type (0, 0), BuildingBlock: ZUJKAS_clean_linker_0, # of connection points: 2
#     Edge 30, Type (0, 0), BuildingBlock: ZUJKAS_clean_linker_0, # of connection points: 2
#     Edge 31, Type (0, 0), BuildingBlock: ZUJKAS_clean_linker_0, # of connection points: 2
#     Edge 32, Type (0, 0), BuildingBlock: ZUJKAS_clean_linker_0, # of connection points: 2
#     Edge 33, Type (0, 0), BuildingBlock: ZUJKAS_clean_linker_0, # of connection points: 2
#     Edge 34, Type (0, 0), BuildingBlock: ZUJKAS_clean_linker_0, # of connection points: 2
#     Edge 35, Type (0, 0), BuildingBlock: ZUJKAS_clean_linker_0, # of connection points: 2
#     Edge 36, Type (0, 0), BuildingBlock: ZUJKAS_clean_linker_0, # of connection points: 2
#     Edge 37, Type (0, 0), BuildingBlock: ZUJKAS_clean_linker_0, # of connection points: 2
#     Edge 38, Type (0, 0), BuildingBlock: ZUJKAS_clean_linker_0, # of connection points: 2
#     Edge 39, Type (0, 0), BuildingBlock: ZUJKAS_clean_linker_0, # of connection points: 2
#     Edge 40, Type (0, 0), BuildingBlock: ZUJKAS_clean_linker_0, # of connection points: 2
#     Edge 41, Type (0, 0), BuildingBlock: ZUJKAS_clean_linker_0, # of connection points: 2
#     Edge 42, Type (0, 0), BuildingBlock: ZUJKAS_clean_linker_0, # of connection points: 2
#     Edge 43, Type (0, 0), BuildingBlock: ZUJKAS_clean_linker_0, # of connection points: 2
#     Edge 44, Type (0, 0), BuildingBlock: ZUJKAS_clean_linker_0, # of connection points: 2
#     Edge 45, Type (0, 0), BuildingBlock: ZUJKAS_clean_linker_0, # of connection points: 2
#     Edge 46, Type (0, 0), BuildingBlock: ZUJKAS_clean_linker_0, # of connection points: 2
#     Edge 47, Type (0, 0), BuildingBlock: ZUJKAS_clean_linker_0, # of connection points: 2
# Relax obj value: 0.183
# Max RMSD: 0.169
# Mean RMSD: 0.169
data_MOF--net-umz--node1-GALJAG_clean_sbu_0--edge1-ZUJKAS_clean_linker_0
_symmetry_space_group_name_H-M    P1
_symmetry_Int_Tables_number       1
_symmetry_cell_setting            triclinic
loop_
_symmetry_equiv_pos_as_xyz
'x, y, z'
_cell_length_a     73.131493
_cell_length_b     73.14128
_cell_length_c     32.581635
_cell_angle_alpha  89.958625
_cell_angle_beta   89.989032
_cell_angle_gamma 90.006981
loop_
_atom_site_label
_atom_site_type_symbol
_atom_site_fract_x
_atom_site_fract_y
_atom_site_fract_z
_atom_type_partial_charge
In0 In 0.03484 0.63422 0.15087 0.0
O1 O 0.04083 0.61266 0.10242 0.0
O2 O 0.05982 0.63447 0.10895 0.0
C3 C 0.0029 0.62019 0.17761 0.0
C4 C 0.02577 0.66671 0.11754 0.0
C5 C 0.05563 0.62783 0.21754 0.0
O6 O 0.01035 0.61522 0.14454 0.0
O7 O 0.01136 0.63253 0.19682 0.0
O8 O 0.04943 0.64353 0.20931 0.0
O9 O 0.05161 0.61561 0.19179 0.0
C10 C 0.05545 0.62002 0.0902 0.0
O11 O 0.03729 0.6653 0.14621 0.0
O12 O 0.0186 0.65184 0.10655 0.0
In13 In 0.85173 0.03476 0.66008 0.0
O14 O 0.82124 0.04131 0.65528 0.0
O15 O 0.83055 0.0161 0.63084 0.0
C16 C 0.85972 0.05432 0.72778 0.0
C17 C 0.86465 0.05458 0.59646 0.0
C18 C 0.86715 0.00235 0.67837 0.0
O19 O 0.84458 0.04627 0.72323 0.0
O20 O 0.87062 0.05268 0.698 0.0
O21 O 0.86774 0.0092 0.64281 0.0
O22 O 0.85863 0.01177 0.70457 0.0
C23 C 0.81727 0.02674 0.63662 0.0
O24 O 0.87287 0.04076 0.61042 0.0
O25 O 0.85 0.05851 0.61481 0.0
In26 In 0.46226 0.85892 0.15123 0.0
O27 O 0.46134 0.82777 0.1497 0.0
O28 O 0.47609 0.84151 0.10264 0.0
C29 C 0.44531 0.86461 0.22364 0.0
C30 C 0.43797 0.87011 0.09436 0.0
C31 C 0.49444 0.87565 0.166 0.0
O32 O 0.4526 0.84949 0.21466 0.0
O33 O 0.44649 0.87665 0.19611 0.0
O34 O 0.48207 0.88264 0.1441 0.0
O35 O 0.49067 0.86007 0.18029 0.0
C36 C 0.47074 0.82648 0.11733 0.0
O37 O 0.45353 0.87731 0.09859 0.0
O38 O 0.43455 0.85726 0.11909 0.0
In39 In 0.63382 0.45935 0.65317 0.0
O40 O 0.66489 0.45936 0.64562 0.0
O41 O 0.6491 0.47498 0.60365 0.0
C42 C 0.63065 0.44342 0.72742 0.0
C43 C 0.6228 0.43315 0.60079 0.0
C44 C 0.61473 0.49026 0.66702 0.0
O45 O 0.64421 0.45328 0.71805 0.0
O46 O 0.619 0.44148 0.69927 0.0
O47 O 0.61006 0.47864 0.64044 0.0
O48 O 0.62918 0.48641 0.68632 0.0
C49 C 0.66473 0.46958 0.6144 0.0
O50 O 0.61375 0.44758 0.60705 0.0
O51 O 0.63735 0.4318 0.6214 0.0
In52 In 0.02973 0.86161 0.83952 0.0
O53 O 0.03604 0.88273 0.88886 0.0
O54 O 0.05561 0.86175 0.87837 0.0
C55 C -0.00319 0.8742 0.81558 0.0
C56 C 0.02195 0.82906 0.87402 0.0
C57 C 0.04937 0.86921 0.77173 0.0
O58 O 0.00501 0.8802 0.84686 0.0
O59 O 0.00508 0.86164 0.79667 0.0
O60 O 0.04464 0.85309 0.78083 0.0
O61 O 0.04438 0.88127 0.79702 0.0
C62 C 0.05118 0.87572 0.89877 0.0
O63 O 0.03241 0.8305 0.84334 0.0
O64 O 0.01516 0.84391 0.88631 0.0
In65 In 0.63143 0.0402 0.33672 0.0
O66 O 0.60996 0.04568 0.38564 0.0
O67 O 0.63029 0.06601 0.37583 0.0
C68 C 0.6159 0.00883 0.31117 0.0
C69 C 0.66177 0.03084 0.37843 0.0
C70 C 0.63001 0.05953 0.26623 0.0
O71 O 0.60743 0.02065 0.33197 0.0
O72 O 0.63231 0.01282 0.30316 0.0
O73 O 0.644 0.05052 0.27651 0.0
O74 O 0.61704 0.05892 0.29163 0.0
C75 C 0.61638 0.06104 0.39585 0.0
O76 O 0.66175 0.04335 0.35171 0.0
O77 O 0.64664 0.02288 0.38332 0.0
In78 In 0.45148 0.63398 0.83721 0.0
O79 O 0.45042 0.66493 0.84548 0.0
O80 O 0.4687 0.64984 0.88311 0.0
C81 C 0.43178 0.6306 0.76778 0.0
C82 C 0.42905 0.6204 0.89537 0.0
C83 C 0.4826 0.6174 0.81313 0.0
O84 O 0.43959 0.64537 0.77748 0.0
O85 O 0.43372 0.61779 0.79332 0.0
O86 O 0.47326 0.61198 0.84329 0.0
O87 O 0.47644 0.63146 0.79542 0.0
C88 C 0.46212 0.66522 0.87392 0.0
O89 O 0.44353 0.61246 0.88427 0.0
O90 O 0.42572 0.63518 0.87681 0.0
In91 In 0.85731 0.45796 0.33678 0.0
O92 O 0.82606 0.45682 0.33703 0.0
O93 O 0.83917 0.47491 0.37857 0.0
C94 C 0.86369 0.43918 0.26717 0.0
C95 C 0.86772 0.43418 0.39542 0.0
C96 C 0.87532 0.4893 0.3205 0.0
O97 O 0.84967 0.44905 0.27179 0.0
O98 O 0.87424 0.43863 0.29775 0.0
O99 O 0.87751 0.48056 0.35353 0.0
O100 O 0.864 0.48231 0.29595 0.0
C101 C 0.82435 0.4684 0.36546 0.0
O102 O 0.8772 0.44793 0.38553 0.0
O103 O 0.85305 0.43233 0.37543 0.0
In104 In 0.95286 0.35258 0.8277 0.0
O105 O 0.94475 0.37622 0.86956 0.0
O106 O 0.93201 0.35048 0.8794 0.0
C107 C 0.98384 0.36861 0.80104 0.0
C108 C 0.96394 0.32061 0.86029 0.0
C109 C 0.93067 0.35569 0.76199 0.0
O110 O 0.97704 0.37185 0.83588 0.0
O111 O 0.97511 0.35715 0.77978 0.0
O112 O 0.94011 0.34153 0.76853 0.0
O113 O 0.93218 0.36794 0.78895 0.0
C114 C 0.93362 0.36691 0.89052 0.0
O115 O 0.94956 0.32196 0.83905 0.0
O116 O 0.97292 0.33522 0.86394 0.0
In117 In 0.13719 0.96099 0.33786 0.0
O118 O 0.16755 0.95428 0.34388 0.0
O119 O 0.15823 0.97953 0.36815 0.0
C120 C 0.13008 0.94178 0.26909 0.0
C121 C 0.12377 0.94093 0.40062 0.0
C122 C 0.12135 0.99331 0.32056 0.0
O123 O 0.14481 0.95051 0.27405 0.0
O124 O 0.1192 0.94249 0.29906 0.0
O125 O 0.12073 0.98617 0.35582 0.0
O126 O 0.13022 0.98428 0.29425 0.0
C127 C 0.17147 0.96877 0.36289 0.0
O128 O 0.11523 0.95425 0.38521 0.0
O129 O 0.13899 0.93759 0.38407 0.0
In130 In 0.53086 0.13459 0.84581 0.0
O131 O 0.53148 0.1658 0.84633 0.0
O132 O 0.51697 0.15229 0.89394 0.0
C133 C 0.54736 0.12888 0.77301 0.0
C134 C 0.55646 0.12275 0.89908 0.0
C135 C 0.49845 0.1178 0.83379 0.0
O136 O 0.54003 0.14397 0.78214 0.0
O137 O 0.54644 0.11684 0.80064 0.0
O138 O 0.50867 0.11428 0.86392 0.0
O139 O 0.50442 0.13002 0.80998 0.0
C140 C 0.52217 0.16726 0.87875 0.0
O141 O 0.542 0.11396 0.89159 0.0
O142 O 0.55814 0.13751 0.87935 0.0
In143 In 0.35906 0.53157 0.34041 0.0
O144 O 0.37916 0.54247 0.38744 0.0
O145 O 0.35534 0.55829 0.37577 0.0
C146 C 0.3778 0.50071 0.32361 0.0
C147 C 0.3279 0.52028 0.37668 0.0
C148 C 0.36244 0.54974 0.26882 0.0
O149 O 0.38216 0.51148 0.35214 0.0
O150 O 0.36376 0.50535 0.30366 0.0
O151 O 0.34799 0.54134 0.27849 0.0
O152 O 0.37499 0.54903 0.29528 0.0
C153 C 0.37 0.55659 0.39583 0.0
O154 O 0.32793 0.53011 0.34485 0.0
O155 O 0.34353 0.51581 0.38945 0.0
In156 In 0.9579 0.13626 0.16007 0.0
O157 O 0.95233 0.11556 0.10936 0.0
O158 O 0.93339 0.13733 0.11703 0.0
C159 C 0.98947 0.12129 0.18581 0.0
C160 C 0.96772 0.16897 0.12893 0.0
C161 C 0.93719 0.12937 0.22666 0.0
O162 O 0.98175 0.11661 0.15279 0.0
O163 O 0.98136 0.13369 0.20566 0.0
O164 O 0.94431 0.14486 0.22033 0.0
O165 O 0.94029 0.11765 0.19916 0.0
C166 C 0.93784 0.12321 0.09721 0.0
O167 O 0.954 0.16708 0.15206 0.0
O168 O 0.97665 0.15452 0.12263 0.0
In169 In 0.35901 0.95296 0.65891 0.0
O170 O 0.38052 0.94753 0.61002 0.0
O171 O 0.35952 0.92772 0.61792 0.0
C172 C 0.37545 0.98352 0.68654 0.0
C173 C 0.32807 0.96306 0.6201 0.0
C174 C 0.36121 0.93258 0.72774 0.0
O175 O 0.38239 0.97339 0.65938 0.0
O176 O 0.36002 0.97838 0.6995 0.0
O177 O 0.34726 0.94201 0.71925 0.0
O178 O 0.37377 0.93327 0.70131 0.0
C179 C 0.37369 0.93253 0.5986 0.0
O180 O 0.32864 0.94978 0.64479 0.0
O181 O 0.34296 0.97152 0.6159 0.0
In182 In 0.54458 0.35817 0.16344 0.0
O183 O 0.54638 0.32749 0.15194 0.0
O184 O 0.52679 0.34273 0.11797 0.0
C185 C 0.56446 0.3584 0.23318 0.0
C186 C 0.56707 0.37335 0.10742 0.0
C187 C 0.51321 0.37509 0.18493 0.0
O188 O 0.55426 0.34515 0.22363 0.0
O189 O 0.56478 0.37122 0.20736 0.0
O190 O 0.52207 0.37918 0.15305 0.0
O191 O 0.52003 0.36228 0.20583 0.0
C192 C 0.53402 0.32739 0.12489 0.0
O193 O 0.55594 0.38261 0.12845 0.0
O194 O 0.56705 0.35643 0.11501 0.0
In195 In 0.13322 0.52898 0.64895 0.0
O196 O 0.16441 0.53104 0.64739 0.0
O197 O 0.15159 0.51179 0.60808 0.0
C198 C 0.12706 0.54804 0.71829 0.0
C199 C 0.12157 0.5518 0.58941 0.0
C200 C 0.11616 0.49721 0.66616 0.0
O201 O 0.14192 0.53974 0.71178 0.0
O202 O 0.11551 0.54687 0.68967 0.0
O203 O 0.11415 0.50549 0.63251 0.0
O204 O 0.12698 0.50481 0.691 0.0
C205 C 0.16629 0.51903 0.61993 0.0
O206 O 0.11238 0.53821 0.6014 0.0
O207 O 0.13654 0.55408 0.60791 0.0
H208 H 0.03824 0.70077 0.13736 0.0
H209 H 0.03444 0.72894 0.0976 0.0
H210 H 0.00209 0.69968 0.00847 0.0
H211 H 0.00538 0.67168 0.04858 0.0
H212 H 0.04657 0.73443 0.021 0.0
H213 H 0.9716 0.74498 0.02462 0.0
H214 H 0.98309 0.72923 0.05862 0.0
H215 H 0.97779 0.72263 0.00675 0.0
C216 C 0.03004 0.70045 0.10969 0.0
C217 C 0.02208 0.68407 0.09607 0.0
C218 C 0.0279 0.71652 0.08699 0.0
C219 C 0.0178 0.71645 0.05033 0.0
C220 C 0.00956 0.70017 0.03715 0.0
H221 H 0.0342 0.795 0.85305 0.0
H222 H 0.03215 0.76706 0.89434 0.0
C223 C 0.01156 0.68414 0.05999 0.0
C224 C 0.01718 0.73299 0.02417 0.0
H225 H 0.98825 0.76221 0.97461 0.0
C226 C 0.03382 0.74058 0.01109 0.0
C227 C 0.00053 0.74106 0.01152 0.0
C228 C 0.98225 0.73417 0.02644 0.0
C229 C 0.03428 0.75592 0.98531 0.0
C230 C 0.01764 0.76354 0.97131 0.0
C231 C 0.00099 0.75613 0.98485 0.0
C232 C 0.01728 0.77978 0.94421 0.0
C233 C 0.05261 0.76402 0.9741 0.0
C234 C 0.00879 0.79588 0.95764 0.0
C235 C 0.0097 0.81173 0.9339 0.0
C236 C 0.01916 0.81175 0.89635 0.0
C237 C 0.02695 0.7954 0.88204 0.0
C238 C 0.0259 0.77949 0.9057 0.0
H239 H 0.0635 0.75966 0.99576 0.0
H240 H 0.05654 0.75932 0.94295 0.0
H241 H 0.05203 0.77919 0.97386 0.0
H242 H 0.00197 0.79636 0.98715 0.0
H243 H 0.00352 0.82413 0.94567 0.0
H244 H 0.69483 0.04809 0.3785 0.0
H245 H 0.7204 0.0428 0.42536 0.0
H246 H 0.69051 -0.00105 0.48326 0.0
H247 H 0.66474 0.00436 0.43692 0.0
H248 H 0.70471 0.02327 0.53877 0.0
H249 H 0.75792 0.00174 0.42798 0.0
H250 H 0.74739 0.023 0.41397 0.0
H251 H 0.73393 0.0024 0.41498 0.0
C252 C 0.69381 0.03717 0.40084 0.0
C253 C 0.67783 0.02662 0.40405 0.0
C254 C 0.70845 0.0341 0.42745 0.0
C255 C 0.70742 0.02032 0.45739 0.0
C256 C 0.69158 0.00958 0.46022 0.0
H257 H 0.80537 0.99563 0.59933 0.0
H258 H 0.77702 0.99153 0.56063 0.0
C259 C 0.67692 0.01267 0.43369 0.0
C260 C 0.72243 0.01792 0.48728 0.0
H261 H 0.76846 0.01141 0.49417 0.0
C262 C 0.71863 0.02043 0.52914 0.0
C263 C 0.74048 0.01391 0.47469 0.0
C264 C 0.74516 0.00992 0.43049 0.0
C265 C 0.73259 0.01987 0.55862 0.0
C266 C 0.75082 0.01706 0.54566 0.0
C267 C 0.75448 0.01373 0.50402 0.0
C268 C 0.76651 0.01852 0.57414 0.0
C269 C 0.72768 0.02237 0.60324 0.0
C270 C 0.76981 0.03492 0.59524 0.0
C271 C 0.78592 0.03725 0.61763 0.0
C272 C 0.79909 0.0233 0.61873 0.0
C273 C 0.79545 0.00663 0.59895 0.0
C274 C 0.77929 0.00427 0.57681 0.0
H275 H 0.7133 0.01828 0.6093 0.0
H276 H 0.73683 0.01427 0.62348 0.0
H277 H 0.72909 0.03702 0.61145 0.0
H278 H 0.76034 0.04626 0.59283 0.0
H279 H 0.78843 0.05028 0.63236 0.0
H280 H 0.46156 0.7923 0.14394 0.0
H281 H 0.46413 0.76363 0.10568 0.0
H282 H 0.48907 0.79256 0.00469 0.0
H283 H 0.48695 0.82113 0.04308 0.0
H284 H 0.44709 0.75703 0.03415 0.0
H285 H 0.52169 0.74809 0.01316 0.0
H286 H 0.51217 0.76385 0.05007 0.0
H287 H 0.51389 0.77019 -0.00318 0.0
C288 C 0.46791 0.79247 0.11391 0.0
C289 C 0.47403 0.80892 0.09643 0.0
C290 C 0.46937 0.7761 0.09211 0.0
C291 C 0.47699 0.77593 0.05255 0.0
C292 C 0.48356 0.79229 0.03554 0.0
H293 H 0.44985 0.69987 0.85968 0.0
H294 H 0.45465 0.72684 0.90276 0.0
C295 C 0.48221 0.80863 0.05741 0.0
C296 C 0.47633 0.7591 0.02746 0.0
H297 H 0.5023 0.73039 0.96894 0.0
C298 C 0.45919 0.7511 0.02022 0.0
C299 C 0.49215 0.75131 0.0096 0.0
C300 C 0.51103 0.75869 0.01813 0.0
C301 C 0.45736 0.73579 0.9948 0.0
C302 C 0.47305 0.72856 0.97531 0.0
C303 C 0.49027 0.7362 0.98341 0.0
C304 C 0.47176 0.71285 0.94697 0.0
C305 C 0.43866 0.7274 0.98934 0.0
C306 C 0.4805 0.69634 0.95661 0.0
C307 C 0.47792 0.68098 0.93187 0.0
C308 C 0.46658 0.68193 0.89711 0.0
C309 C 0.45854 0.69871 0.88646 0.0
C310 C 0.46119 0.71408 0.91113 0.0
H311 H 0.42918 0.73143 0.01442 0.0
H312 H 0.43271 0.73219 0.95991 0.0
H313 H 0.43948 0.71224 0.98842 0.0
H314 H 0.48879 0.69518 0.98404 0.0
H315 H 0.48433 0.66822 0.94074 0.0
H316 H 0.66667 0.48809 0.54198 0.0
H317 H 0.69316 0.49085 0.4966 0.0
H318 H 0.72646 0.46266 0.58571 0.0
H319 H 0.69991 0.45949 0.63096 0.0
H320 H 0.7277 0.50607 0.50479 0.0
H321 H 0.7313 0.43093 0.48309 0.0
H322 H 0.71202 0.44202 0.50702 0.0
H323 H 0.73256 0.43781 0.53589 0.0
C324 C 0.67968 0.48265 0.55212 0.0
C325 C 0.68121 0.47339 0.58978 0.0
C326 C 0.69479 0.48425 0.52616 0.0
C327 C 0.71163 0.47661 0.53748 0.0
C328 C 0.71345 0.46827 0.57607 0.0
H329 H 0.81837 0.48971 0.4325 0.0
H330 H 0.78982 0.49339 0.4703 0.0
C331 C 0.69832 0.46657 0.60197 0.0
C332 C 0.72705 0.47667 0.50815 0.0
H333 H 0.75604 0.44833 0.45655 0.0
C334 C 0.73387 0.49347 0.49403 0.0
C335 C 0.73474 0.46018 0.49342 0.0
C336 C 0.72718 0.44171 0.50527 0.0
C337 C 0.74863 0.49422 0.46652 0.0
C338 C 0.75693 0.47774 0.45352 0.0
C339 C 0.74973 0.46096 0.46673 0.0
C340 C 0.77361 0.47743 0.4278 0.0
C341 C 0.75507 0.51264 0.45144 0.0
C342 C 0.77401 0.46716 0.39141 0.0
C343 C 0.7904 0.46481 0.37003 0.0
C344 C 0.80663 0.47269 0.38476 0.0
C345 C 0.80605 0.48355 0.4203 0.0
C346 C 0.7897 0.48579 0.44179 0.0
H347 H 0.74398 0.52299 0.45307 0.0
H348 H 0.76646 0.51744 0.4712 0.0
H349 H 0.76009 0.51187 0.41932 0.0
H350 H 0.76175 0.46052 0.38023 0.0
H351 H 0.79047 0.45636 0.34273 0.0
H352 H 0.99412 0.31483 0.90759 0.0
H353 H 0.00018 0.28867 0.9524 0.0
H354 H 0.95047 0.26293 0.91065 0.0
H355 H 0.9445 0.28886 0.86528 0.0
H356 H 0.97824 0.27811 0.01561 0.0
H357 H 0.98671 0.22098 0.90598 0.0
H358 H 0.98782 0.24465 0.89034 0.0
H359 H 0.96604 0.23358 0.89711 0.0
C360 C 0.98468 0.30342 0.90734 0.0
C361 C 0.96883 0.30386 0.88296 0.0
C362 C 0.98815 0.28852 0.933 0.0
C363 C 0.97587 0.27381 0.93455 0.0
C364 C 0.96033 0.27397 0.90928 0.0
H365 H 0.94725 0.20014 0.12657 0.0
H366 H 0.95196 0.22663 0.08203 0.0
C367 C 0.95688 0.28883 0.8835 0.0
C368 C 0.97838 0.25907 0.96514 0.0
H369 H 0.97962 0.21272 0.9756 0.0
C370 C 0.97882 0.26381 0.00688 0.0
C371 C 0.9794 0.24047 0.95367 0.0
C372 C 0.98016 0.23461 0.9093 0.0
C373 C 0.97939 0.25037 0.03757 0.0
C374 C 0.97917 0.23174 0.02612 0.0
C375 C 0.9796 0.22702 0.98435 0.0
C376 C 0.97753 0.21685 0.05668 0.0
C377 C 0.98011 0.25626 0.08191 0.0
C378 C 0.99033 0.20258 0.05721 0.0
C379 C 0.98757 0.18736 0.0823 0.0
C380 C 0.97192 0.18614 0.1072 0.0
C381 C 0.95949 0.20077 0.10791 0.0
C382 C 0.96222 0.21596 0.08262 0.0
H383 H 0.98613 0.27014 0.08507 0.0
H384 H 0.96601 0.25674 0.09443 0.0
H385 H 0.98824 0.24654 0.10071 0.0
H386 H 0.0022 0.20299 0.03732 0.0
H387 H -0.00263 0.17627 0.08115 0.0
H388 H 0.29571 0.94462 0.61836 0.0
H389 H 0.26998 0.94976 0.57187 0.0
H390 H 0.29774 -0.00365 0.51971 0.0
H391 H 0.32373 0.99108 0.56562 0.0
H392 H 0.24726 0.97955 0.56015 0.0
H393 H 0.28756 0.96419 0.4196 0.0
H394 H 0.29589 0.95922 0.47053 0.0
H395 H 0.29656 0.98221 0.45113 0.0
C396 C 0.29627 0.95605 0.59722 0.0
C397 C 0.31176 0.96737 0.59534 0.0
C398 C 0.28158 0.95896 0.5707 0.0
C399 C 0.28214 0.97322 0.54189 0.0
C400 C 0.29724 0.98503 0.54114 0.0
H401 H 0.18347 -0.00037 0.40135 0.0
H402 H 0.21147 0.0031 0.44177 0.0
C403 C 0.312 0.98208 0.56756 0.0
C404 C 0.26702 0.97533 0.51215 0.0
H405 H 0.25669 0.97252 0.41016 0.0
C406 C 0.2493 0.97816 0.52732 0.0
C407 C 0.26979 0.97329 0.46941 0.0
C408 C 0.28843 0.9694 0.45157 0.0
C409 C 0.23417 0.97868 0.50095 0.0
C410 C 0.23693 0.97673 0.45817 0.0
C411 C 0.25469 0.9742 0.44293 0.0
C412 C 0.22138 0.97579 0.42924 0.0
C413 C 0.2153 0.98051 0.51934 0.0
C414 C 0.21826 0.95967 0.40697 0.0
C415 C 0.20243 0.95775 0.38341 0.0
C416 C 0.18948 0.9719 0.38193 0.0
C417 C 0.19316 0.98843 0.40229 0.0
C418 C 0.20907 0.9904 0.42557 0.0
H419 H 0.21529 0.97769 0.55286 0.0
H420 H 0.21031 0.99468 0.51466 0.0
H421 H 0.20553 0.97102 0.50429 0.0
H422 H 0.22767 0.94828 0.40923 0.0
H423 H 0.19996 0.94487 0.36797 0.0
H424 H 0.50661 0.17289 0.95358 0.0
H425 H 0.505 0.20156 0.99165 0.0
H426 H 0.52887 0.23015 0.88888 0.0
H427 H 0.53099 0.20135 0.85094 0.0
H428 H 0.54677 0.23698 0.95868 0.0
H429 H 0.47263 0.24608 0.98557 0.0
H430 H 0.48049 0.224 0.00174 0.0
H431 H 0.4815 0.23014 0.94827 0.0
C432 C 0.51121 0.18534 0.93879 0.0
C433 C 0.51898 0.1849 0.89936 0.0
C434 C 0.51015 0.20175 0.96048 0.0
C435 C 0.51659 0.21804 0.9429 0.0
C436 C 0.52374 0.21773 0.90292 0.0
H437 H 0.5107 0.32502 0.05984 0.0
H438 H 0.50574 0.2986 0.01514 0.0
C439 C 0.52494 0.20129 0.88129 0.0
C440 C 0.51766 0.23491 0.96784 0.0
H441 H 0.49275 0.26341 0.02911 0.0
C442 C 0.53492 0.24288 0.97369 0.0
C443 C 0.50217 0.24267 0.98711 0.0
C444 C 0.48313 0.23539 0.98003 0.0
C445 C 0.53721 0.2581 -0.00076 0.0
C446 C 0.52188 0.26524 0.0203 0.0
C447 C 0.50452 0.25767 0.01346 0.0
C448 C 0.5237 0.28067 0.04927 0.0
C449 C 0.556 0.26645 0.00319 0.0
C450 C 0.53499 0.27912 0.08393 0.0
C451 C 0.53793 0.29419 0.10935 0.0
C452 C 0.52946 0.31098 0.10073 0.0
C453 C 0.51746 0.31225 0.06714 0.0
C454 C 0.5146 0.29719 0.04161 0.0
H455 H 0.56493 0.2627 0.97691 0.0
H456 H 0.55521 0.28159 0.00505 0.0
H457 H 0.56257 0.26132 0.03165 0.0
H458 H 0.54181 0.26634 0.09084 0.0
H459 H 0.54713 0.29279 0.13521 0.0
H460 H 0.32524 0.50363 0.45124 0.0
H461 H 0.29776 0.49984 0.493 0.0
H462 H 0.26512 0.523 0.39569 0.0
H463 H 0.29267 0.52728 0.3541 0.0
H464 H 0.25919 0.53961 0.46819 0.0
H465 H 0.25525 0.4645 0.48914 0.0
H466 H 0.27704 0.47387 0.5033 0.0
H467 H 0.26961 0.47503 0.45072 0.0
C468 C 0.31216 0.50761 0.43844 0.0
C469 C 0.31107 0.51579 0.39947 0.0
C470 C 0.29646 0.50532 0.46226 0.0
C471 C 0.27938 0.51093 0.44726 0.0
C472 C 0.27818 0.51852 0.40775 0.0
H473 H 0.17255 0.4964 0.55515 0.0
H474 H 0.20077 0.4935 0.51549 0.0
C475 C 0.2939 0.52094 0.38403 0.0
C476 C 0.26307 0.51053 0.47416 0.0
H477 H 0.23637 0.48261 0.53304 0.0
C478 C 0.25414 0.52712 0.48218 0.0
C479 C 0.25648 0.49422 0.49221 0.0
C480 C 0.26498 0.47587 0.48312 0.0
C481 C 0.23885 0.5279 0.50799 0.0
C482 C 0.23261 0.5117 0.52715 0.0
C483 C 0.24139 0.49505 0.51881 0.0
C484 C 0.21639 0.51174 0.55424 0.0
C485 C 0.22928 0.54601 0.51375 0.0
C486 C 0.21607 0.52242 0.59001 0.0
C487 C 0.19993 0.52421 0.61259 0.0
C488 C 0.18395 0.51518 0.59991 0.0
C489 C 0.18464 0.50359 0.56555 0.0
C490 C 0.20075 0.50189 0.54289 0.0
H491 H 0.23295 0.55594 0.48927 0.0
H492 H 0.2142 0.54425 0.51388 0.0
H493 H 0.2334 0.55199 0.54365 0.0
H494 H 0.22815 0.52981 0.59973 0.0
H495 H 0.19981 0.53312 0.63914 0.0
H496 H 0.04789 0.58993 0.04405 0.0
H497 H 0.06459 0.57881 0.98413 0.0
H498 H 0.10393 0.62231 -0.00189 0.0
H499 H 0.08708 0.63372 0.05786 0.0
H500 H 0.09106 0.61935 0.91942 0.0
H501 H 0.11293 0.55152 0.97659 0.0
H502 H 0.08881 0.55514 0.98255 0.0
H503 H 0.1047 0.5693 0.01029 0.0
C504 C 0.06021 0.59701 0.03465 0.0
C505 C 0.06621 0.61267 0.05564 0.0
C506 C 0.06981 0.59057 0.00058 0.0
C507 C 0.08567 0.59956 0.98712 0.0
C508 C 0.09179 0.61511 0.00823 0.0
H509 H 0.14908 0.55138 0.78573 0.0
H510 H 0.14136 0.56568 0.85156 0.0
C511 C 0.08217 0.62159 0.04232 0.0
C512 C 0.09507 0.59338 0.94936 0.0
H513 H 0.1134 0.55571 0.90339 0.0
C514 C 0.09619 0.60551 0.91607 0.0
C515 C 0.10202 0.57543 0.94527 0.0
C516 C 0.10224 0.56216 0.98074 0.0
C517 C 0.10325 0.59988 0.8781 0.0
C518 C 0.10902 0.58156 0.87321 0.0
C519 C 0.10877 0.5697 0.90709 0.0
C520 C 0.11427 0.57409 0.83269 0.0
C521 C 0.10428 0.61356 0.84348 0.0
C522 C 0.10157 0.57406 0.80041 0.0
C523 C 0.10594 0.56596 0.76292 0.0
C524 C 0.12303 0.5576 0.75712 0.0
C525 C 0.13582 0.55778 0.78931 0.0
C526 C 0.13144 0.56591 0.82689 0.0
H527 H 0.105 0.62779 0.85528 0.0
H528 H 0.11636 0.611 0.82363 0.0
H529 H 0.09178 0.6124 0.82435 0.0
H530 H 0.08809 0.5799 0.80455 0.0
H531 H 0.09576 0.56594 0.73876 0.0
H532 H 0.92995 0.15151 0.29248 0.0
H533 H 0.91535 0.14268 0.35737 0.0
H534 H 0.90748 0.088 0.31112 0.0
H535 H 0.9217 0.09674 0.24626 0.0
H536 H 0.87718 0.10152 0.35295 0.0
H537 H 0.94134 0.1105 0.44253 0.0
H538 H 0.93366 0.13024 0.41452 0.0
H539 H 0.94103 0.11024 0.38716 0.0
C540 C 0.92494 0.13766 0.29609 0.0
C541 C 0.92707 0.12477 0.26447 0.0
C542 C 0.91671 0.13263 0.33318 0.0
C543 C 0.91062 0.11462 0.33921 0.0
C544 C 0.91214 0.10195 0.30711 0.0
H545 H 0.89479 0.04746 0.54999 0.0
H546 H 0.90513 0.06386 0.48879 0.0
C547 C 0.9203 0.10697 0.2701 0.0
C548 C 0.90324 0.10856 0.37925 0.0
H549 H 0.91543 0.10025 0.47866 0.0
C550 C 0.88544 0.1014 0.38059 0.0
C551 C 0.91419 0.10824 0.41503 0.0
C552 C 0.93367 0.11507 0.41493 0.0
C553 C 0.87841 0.09355 0.41659 0.0
C554 C 0.88939 0.09317 0.45232 0.0
C555 C 0.90704 0.10069 0.45122 0.0
C556 C 0.88333 0.08386 0.49029 0.0
C557 C 0.85962 0.08503 0.41556 0.0
C558 C 0.86782 0.08987 0.51173 0.0
C559 C 0.86183 0.08047 0.5466 0.0
C560 C 0.87137 0.06501 0.56072 0.0
C561 C 0.88715 0.05931 0.53977 0.0
C562 C 0.89309 0.06867 0.50488 0.0
H563 H 0.85466 0.08297 0.38366 0.0
H564 H 0.85959 0.07162 0.43158 0.0
H565 H 0.84981 0.09415 0.43154 0.0
H566 H 0.86031 0.10177 0.50139 0.0
H567 H 0.84968 0.08523 0.56231 0.0
H568 H 0.44249 0.89774 0.03945 0.0
H569 H 0.42216 0.90635 0.98334 0.0
H570 H 0.38407 0.86431 0.01971 0.0
H571 H 0.40454 0.85544 0.07597 0.0
H572 H 0.39216 0.86354 0.93709 0.0
H573 H 0.37368 0.93372 0.98393 0.0
H574 H 0.39796 0.93032 0.98506 0.0
H575 H 0.38352 0.91737 0.01915 0.0
C576 C 0.42969 0.89045 0.03584 0.0
C577 C 0.42508 0.87593 0.06209 0.0
C578 C 0.41802 0.89548 0.00395 0.0
C579 C 0.40146 0.88619 -0.00214 0.0
C580 C 0.39672 0.87176 0.0242 0.0
H581 H 0.33783 0.93191 0.79336 0.0
H582 H 0.34338 0.91794 0.86072 0.0
C583 C 0.40841 0.86672 0.05625 0.0
C584 C 0.38997 0.89076 0.96192 0.0
H585 H 0.3715 0.92712 0.91122 0.0
C586 C 0.38727 0.87734 0.93176 0.0
C587 C 0.38326 0.90865 0.95535 0.0
C588 C 0.38458 0.92328 0.98784 0.0
C589 C 0.37931 0.88174 0.89384 0.0
C590 C 0.37425 0.90005 0.88581 0.0
C591 C 0.37562 0.91312 0.91719 0.0
C592 C 0.3696 0.90643 0.84398 0.0
C593 C 0.37691 0.86683 0.86234 0.0
C594 C 0.38245 0.9045 0.81231 0.0
C595 C 0.37934 0.91243 0.77403 0.0
C596 C 0.36337 0.92259 0.76678 0.0
C597 C 0.35023 0.9241 0.7981 0.0
C598 C 0.35338 0.91615 0.83652 0.0
H599 H 0.37508 0.85329 0.87729 0.0
H600 H 0.36496 0.86953 0.84219 0.0
H601 H 0.38935 0.86607 0.84293 0.0
H602 H 0.39527 0.89748 0.81767 0.0
H603 H 0.38974 0.91109 0.75055 0.0
H604 H 0.58608 0.38616 0.25958 0.0
H605 H 0.59909 0.39028 0.32765 0.0
H606 H 0.57787 0.33776 0.36481 0.0
H607 H 0.56435 0.33371 0.29648 0.0
H608 H 0.56877 0.36379 0.41824 0.0
H609 H 0.64252 0.3698 0.38708 0.0
H610 H 0.63012 0.38493 0.35397 0.0
H611 H 0.62674 0.36057 0.34981 0.0
C612 C 0.58445 0.37531 0.28195 0.0
C613 C 0.57417 0.35963 0.27276 0.0
C614 C 0.59206 0.37761 0.3208 0.0
C615 C 0.58977 0.36417 0.35113 0.0
C616 C 0.57995 0.34821 0.34171 0.0
H617 H 0.63981 0.40092 0.58194 0.0
H618 H 0.6317 0.3795 0.52702 0.0
C619 C 0.57225 0.34592 0.30272 0.0
C620 C 0.59582 0.36802 0.39364 0.0
H621 H 0.63132 0.38664 0.44696 0.0
C622 C 0.58258 0.36834 0.42483 0.0
C623 C 0.61391 0.37354 0.40263 0.0
C624 C 0.62915 0.37198 0.37161 0.0
C625 C 0.58655 0.37559 0.46364 0.0
C626 C 0.60407 0.38309 0.471 0.0
C627 C 0.61776 0.38123 0.44108 0.0
C628 C 0.60789 0.39471 0.50722 0.0
C629 C 0.57175 0.37564 0.4959 0.0
C630 C 0.59719 0.41033 0.51431 0.0
C631 C 0.60173 0.42249 0.54563 0.0
C632 C 0.61722 0.41941 0.57013 0.0
C633 C 0.62777 0.40362 0.56353 0.0
C634 C 0.62316 0.39138 0.53223 0.0
H635 H 0.56239 0.36382 0.49188 0.0
H636 H 0.57757 0.37518 0.52736 0.0
H637 H 0.56348 0.38828 0.49274 0.0
H638 H 0.58568 0.41349 0.49466 0.0
H639 H 0.59341 0.4346 0.5498 0.0
H640 H 0.09873 0.92336 0.25153 0.0
H641 H 0.08946 0.91058 0.18556 0.0
H642 H 0.14107 0.92678 0.13271 0.0
H643 H 0.15037 0.9399 0.19872 0.0
H644 H 0.11148 0.93755 0.08643 0.0
H645 H 0.10551 0.86425 0.12674 0.0
H646 H 0.09299 0.8787 0.16121 0.0
H647 H 0.11751 0.88046 0.1587 0.0
C648 C 0.10822 0.92398 0.22604 0.0
C649 C 0.12529 0.93259 0.23026 0.0
C650 C 0.10294 0.91657 0.18842 0.0
C651 C 0.11468 0.91749 0.15443 0.0
C652 C 0.13187 0.92583 0.15869 0.0
H653 H 0.0839 0.86256 0.92612 0.0
H654 H 0.10156 0.87321 0.98533 0.0
C655 C 0.13716 0.93327 0.19638 0.0
C656 C 0.10839 0.91091 0.11388 0.0
H657 H 0.09 0.8739 0.06546 0.0
C658 C 0.10702 0.92356 0.08161 0.0
C659 C 0.10281 0.89262 0.10754 0.0
C660 C 0.10494 0.87818 0.14027 0.0
C661 C 0.09943 0.9186 0.04369 0.0
C662 C 0.09278 0.90061 0.03825 0.0
C663 C 0.09492 0.88775 0.06987 0.0
C664 C 0.08282 0.89503 0.00076 0.0
C665 C 0.09849 0.9327 0.00993 0.0
C666 C 0.06644 0.90378 0.98991 0.0
C667 C 0.05636 0.89777 0.95612 0.0
C668 C 0.06242 0.8828 0.93282 0.0
C669 C 0.07893 0.87417 0.94347 0.0
C670 C 0.08901 0.88021 0.97726 0.0
H671 H 0.1089 0.94359 0.01425 0.0
H672 H 0.10055 0.92634 0.97933 0.0
H673 H 0.08481 0.93927 0.01032 0.0
H674 H 0.0612 0.91498 0.00819 0.0
H675 H 0.04364 0.90461 0.94878 0.0
H676 H 0.56427 0.09769 0.74817 0.0
H677 H 0.57718 0.09107 0.6807 0.0
H678 H 0.56257 0.14515 0.63927 0.0
H679 H 0.54941 0.15186 0.70689 0.0
H680 H 0.55191 0.11722 0.58562 0.0
H681 H 0.62471 0.10997 0.62937 0.0
H682 H 0.60975 0.09637 0.66065 0.0
H683 H 0.60806 0.12091 0.66213 0.0
C684 C 0.56394 0.10825 0.72484 0.0
C685 C 0.55588 0.12531 0.73278 0.0
C686 C 0.57142 0.10448 0.6864 0.0
C687 C 0.57108 0.11773 0.65527 0.0
C688 C 0.56308 0.13481 0.66307 0.0
H689 H 0.62895 0.09351 0.42611 0.0
H690 H 0.61744 0.11022 0.48594 0.0
C691 C 0.5556 0.13862 0.70164 0.0
C692 C 0.5782 0.11322 0.61404 0.0
H693 H 0.61591 0.09673 0.56489 0.0
C694 C 0.56597 0.11301 0.58087 0.0
C695 C 0.59661 0.10801 0.60784 0.0
C696 C 0.61059 0.10899 0.64181 0.0
C697 C 0.57144 0.10674 0.54208 0.0
C698 C 0.58951 0.10032 0.53666 0.0
C699 C 0.602 0.10149 0.56925 0.0
C700 C 0.59546 0.09121 0.49841 0.0
C701 C 0.55776 0.10682 0.50744 0.0
C702 C 0.58689 0.07501 0.48569 0.0
C703 C 0.59342 0.06545 0.45166 0.0
C704 C 0.60872 0.07187 0.42991 0.0
C705 C 0.6171 0.08826 0.44226 0.0
C706 C 0.61056 0.09782 0.47637 0.0
H707 H 0.54685 0.11714 0.51262 0.0
H708 H 0.56449 0.10972 0.47757 0.0
H709 H 0.55114 0.0932 0.50551 0.0
H710 H 0.57548 0.06945 0.50284 0.0
H711 H 0.58673 0.05282 0.44297 0.0
H712 H 0.39248 0.56819 0.24247 0.0
H713 H 0.39742 0.58228 0.17555 0.0
H714 H 0.34299 0.56676 0.13831 0.0
H715 H 0.33801 0.55231 0.2054 0.0
H716 H 0.36899 0.55758 0.08145 0.0
H717 H 0.37795 0.62967 0.12774 0.0
H718 H 0.39247 0.61478 0.15691 0.0
H719 H 0.368 0.61274 0.16138 0.0
C720 C 0.38147 0.56794 0.22024 0.0
C721 C 0.36485 0.55918 0.22915 0.0
C722 C 0.38426 0.57613 0.18211 0.0
C723 C 0.37044 0.57587 0.15226 0.0
C724 C 0.35375 0.56725 0.16112 0.0
H725 H 0.39758 0.63533 0.92593 0.0
H726 H 0.37956 0.62441 0.9845 0.0
C727 C 0.35094 0.55902 0.19938 0.0
C728 C 0.37414 0.58344 0.11095 0.0
H729 H 0.39149 0.62104 0.0628 0.0
C730 C 0.37357 0.57156 0.07717 0.0
C731 C 0.37976 0.60176 0.10523 0.0
C732 C 0.37939 0.61552 0.13971 0.0
C733 C 0.37969 0.57719 0.03836 0.0
C734 C 0.38687 0.59502 0.03356 0.0
C735 C 0.38623 0.60728 0.06665 0.0
C736 C 0.39658 0.60073 0.99579 0.0
C737 C 0.37875 0.56385 0.00313 0.0
C738 C 0.4121 0.59105 0.98283 0.0
C739 C 0.42236 0.59721 0.94948 0.0
C740 C 0.41739 0.61329 0.92872 0.0
C741 C 0.4017 0.62287 0.94133 0.0
C742 C 0.39141 0.61666 0.97472 0.0
H743 H 0.36754 0.5538 0.00763 0.0
H744 H 0.37661 0.571 0.97343 0.0
H745 H 0.39179 0.55613 0.00142 0.0
H746 H 0.41663 0.579 -0.0007 0.0
H747 H 0.43444 0.5896 0.94061 0.0
H748 H 0.91069 0.38562 0.74141 0.0
H749 H 0.89647 0.39231 0.67553 0.0
H750 H 0.91236 0.33917 0.63055 0.0
H751 H 0.92706 0.33249 0.69655 0.0
H752 H 0.92254 0.36583 0.57903 0.0
H753 H 0.85012 0.37642 0.61971 0.0
H754 H 0.86461 0.38989 0.65214 0.0
H755 H 0.86602 0.36529 0.65398 0.0
C756 C 0.91087 0.3752 0.7178 0.0
C757 C 0.92002 0.35855 0.72408 0.0
C758 C 0.90259 0.37899 0.68022 0.0
C759 C 0.90308 0.36613 0.64831 0.0
C760 C 0.91169 0.34922 0.6549 0.0
H761 H 0.84998 0.40333 0.42102 0.0
H762 H 0.85833 0.38331 0.47841 0.0
C763 C 0.92006 0.34543 0.69258 0.0
C764 C 0.8964 0.37133 0.607 0.0
H765 H 0.86076 0.39227 0.5585 0.0
C766 C 0.9089 0.37124 0.57429 0.0
C767 C 0.8785 0.37809 0.60052 0.0
C768 C 0.86401 0.37724 0.63341 0.0
C769 C 0.9044 0.37893 0.53617 0.0
C770 C 0.88711 0.38728 0.53102 0.0
C771 C 0.87415 0.38616 0.56271 0.0
C772 C 0.88271 0.39847 0.49443 0.0
C773 C 0.91836 0.37836 0.50211 0.0
C774 C 0.8936 0.41366 0.48458 0.0
C775 C 0.88892 0.42504 0.45184 0.0
C776 C 0.87312 0.42157 0.42864 0.0
C777 C 0.86226 0.40631 0.43835 0.0
C778 C 0.867 0.39487 0.47107 0.0
H779 H 0.92765 0.36644 0.50558 0.0
H780 H 0.91172 0.37764 0.47151 0.0
H781 H 0.92686 0.39092 0.50336 0.0
H782 H 0.9055 0.417 0.50288 0.0
H783 H 0.89748 0.43677 0.44526 0.0
H784 H 0.93159 0.40253 0.91484 0.0
H785 H 0.91724 0.41451 0.97714 0.0
H786 H 0.90006 0.36003 0.01033 0.0
H787 H 0.91388 0.34806 0.94747 0.0
H788 H 0.87352 0.38508 0.02554 0.0
H789 H 0.93973 0.40858 0.0896 0.0
H790 H 0.93459 0.41844 0.04051 0.0
H791 H 0.93831 0.39419 0.04481 0.0
C792 C 0.92464 0.39314 0.9353 0.0
C793 C 0.92397 0.37435 0.92655 0.0
C794 C 0.91655 0.39998 0.97097 0.0
C795 C 0.90795 0.38809 -0.00121 0.0
C796 C 0.90672 0.36942 0.98937 0.0
H797 H 0.8896 0.41315 0.25456 0.0
H798 H 0.89884 0.39958 0.18927 0.0
C799 C 0.91464 0.3626 0.9535 0.0
C800 C 0.90066 0.395 0.03825 0.0
H801 H 0.91304 0.4173 0.12584 0.0
C802 C 0.88214 0.39209 0.04757 0.0
C803 C 0.91203 0.40385 0.06721 0.0
C804 C 0.9323 0.4063 0.0603 0.0
C805 C 0.87462 0.39798 0.08496 0.0
C806 C 0.88586 0.4074 0.11326 0.0
C807 C 0.9044 0.41018 0.104 0.0
C808 C 0.8789 0.41435 0.15301 0.0
C809 C 0.85487 0.39366 0.09413 0.0
C810 C 0.86446 0.427 0.1544 0.0
C811 C 0.85899 0.43459 0.19182 0.0
C812 C 0.86812 0.4299 0.22828 0.0
C813 C 0.88235 0.41703 0.2269 0.0
C814 C 0.88765 0.40929 0.18963 0.0
H815 H 0.84987 0.38196 0.0755 0.0
H816 H 0.85287 0.39038 0.12711 0.0
H817 H 0.84633 0.40573 0.0865 0.0
H818 H 0.8578 0.43145 0.12645 0.0
H819 H 0.84808 0.44461 0.192 0.0
H820 H 0.05992 0.90301 0.74642 0.0
H821 H 0.07445 0.9113 0.6816 0.0
H822 H 0.07587 0.85451 0.64615 0.0
H823 H 0.06101 0.84608 0.71101 0.0
H824 H 0.10791 0.90038 0.64781 0.0
H825 H 0.0489 0.87959 0.55055 0.0
H826 H 0.04708 0.88211 0.6055 0.0
H827 H 0.05799 0.8623 0.58406 0.0
C828 C 0.06338 0.89225 0.72493 0.0
C829 C 0.05922 0.8739 0.73363 0.0
C830 C 0.07171 0.89702 0.68796 0.0
C831 C 0.07601 0.88355 0.65892 0.0
C832 C 0.07237 0.86513 0.66792 0.0
H833 H 0.14033 0.91253 0.44044 0.0
H834 H 0.12944 0.8965 0.50184 0.0
C835 C 0.06398 0.86034 0.705 0.0
C836 C 0.08396 0.88908 0.61904 0.0
H837 H 0.0744 0.89219 0.51671 0.0
C838 C 0.10071 0.89844 0.61904 0.0
C839 C 0.07438 0.88665 0.58173 0.0
C840 C 0.05602 0.87724 0.58021 0.0
C841 C 0.10797 0.90581 0.58279 0.0
C842 C 0.09832 0.90351 0.54554 0.0
C843 C 0.08178 0.89381 0.54536 0.0
C844 C 0.10451 0.91225 0.50703 0.0
C845 C 0.12549 0.91668 0.58491 0.0
C846 C 0.09382 0.92603 0.48905 0.0
C847 C 0.09995 0.93514 0.45399 0.0
C848 C 0.11684 0.93056 0.43622 0.0
C849 C 0.12729 0.9164 0.45361 0.0
C850 C 0.12114 0.90729 0.48873 0.0
H851 H 0.12927 0.92016 0.617 0.0
H852 H 0.13678 0.90853 0.57143 0.0
H853 H 0.12427 0.92955 0.56701 0.0
H854 H 0.08092 0.93001 0.50272 0.0
H855 H 0.09158 0.94595 0.4412 0.0
H856 H 0.6548 0.0608 0.20316 0.0
H857 H 0.65043 0.07479 0.13532 0.0
H858 H 0.59687 0.09329 0.17213 0.0
H859 H 0.60123 0.07972 0.23966 0.0
H860 H 0.62438 0.06557 0.08008 0.0
H861 H 0.61699 0.13863 0.11794 0.0
H862 H 0.62663 0.12233 0.15356 0.0
H863 H 0.60219 0.12512 0.14963 0.0
C864 C 0.64225 0.06816 0.19692 0.0
C865 C 0.62836 0.0692 0.22665 0.0
C866 C 0.63978 0.07612 0.15823 0.0
C867 C 0.62347 0.08537 0.14894 0.0
C868 C 0.60977 0.08668 0.17895 0.0
H869 H 0.55443 0.09252 0.94748 0.0
H870 H 0.57499 0.08376 0.00295 0.0
C871 C 0.61222 0.07876 0.21746 0.0
C872 C 0.61972 0.0921 0.10691 0.0
H873 H 0.60117 0.1284 0.05617 0.0
C874 C 0.61973 0.07944 0.07456 0.0
C875 C 0.61405 0.11028 0.09941 0.0
C876 C 0.61517 0.1249 0.13195 0.0
C877 C 0.61272 0.08407 0.03586 0.0
C878 C 0.60517 0.10167 0.02978 0.0
C879 C 0.60665 0.11479 0.06103 0.0
C880 C 0.59392 0.10613 0.99331 0.0
C881 C 0.61299 0.06988 0.00229 0.0
C882 C 0.59752 0.12183 0.96983 0.0
C883 C 0.58561 0.12702 0.93832 0.0
C884 C 0.56986 0.11663 0.93002 0.0
C885 C 0.56651 0.10074 0.953 0.0
C886 C 0.57836 0.09561 0.9845 0.0
H887 H 0.62476 0.06042 0.00607 0.0
H888 H 0.60031 0.06159 0.004 0.0
H889 H 0.61379 0.07628 0.97143 0.0
H890 H 0.60936 0.13024 0.9764 0.0
H891 H 0.58851 0.13935 0.92111 0.0
H892 H 0.39968 0.554 0.44562 0.0
H893 H 0.40743 0.57344 0.50385 0.0
H894 H 0.36095 0.60785 0.47773 0.0
H895 H 0.35282 0.58811 0.41967 0.0
H896 H 0.41528 0.61029 0.51085 0.0
H897 H 0.35185 0.59189 0.59609 0.0
H898 H 0.35902 0.57981 0.55062 0.0
H899 H 0.34878 0.60205 0.54633 0.0
C900 C 0.39117 0.56577 0.45204 0.0
C901 C 0.37554 0.56944 0.4284 0.0
C902 C 0.39564 0.5769 0.48525 0.0
C903 C 0.38462 0.59192 0.49544 0.0
C904 C 0.36944 0.59612 0.47081 0.0
H905 H 0.42627 0.65565 0.70642 0.0
H906 H 0.41258 0.65003 0.6388 0.0
C907 C 0.36487 0.5849 0.4376 0.0
C908 C 0.38874 0.6024 0.53315 0.0
H909 H 0.37356 0.60959 0.63087 0.0
C910 C 0.40607 0.61044 0.53696 0.0
C911 C 0.37666 0.60245 0.5671 0.0
C912 C 0.35808 0.5935 0.56519 0.0
C913 C 0.41208 0.61766 0.57448 0.0
C914 C 0.40024 0.61715 0.6088 0.0
C915 C 0.38253 0.61002 0.60437 0.0
C916 C 0.4068 0.62149 0.65062 0.0
C917 C 0.43145 0.62467 0.57774 0.0
C918 C 0.4074 0.6075 0.68007 0.0
C919 C 0.415 0.6107 0.71861 0.0
C920 C 0.42218 0.62795 0.72843 0.0
C921 C 0.42094 0.64218 0.69952 0.0
C922 C 0.41322 0.63898 0.66088 0.0
H923 H 0.43973 0.62121 0.55023 0.0
H924 H 0.43123 0.63976 0.58092 0.0
H925 H 0.43831 0.6189 0.60525 0.0
H926 H 0.40249 0.59391 0.67278 0.0
H927 H 0.4157 0.59948 0.74028 0.0
H928 H 0.83927 0.05847 0.7974 0.0
H929 H 0.84887 0.07248 0.86226 0.0
H930 H 0.90144 0.08514 0.80933 0.0
H931 H 0.89189 0.07147 0.74446 0.0
H932 H 0.87763 0.06131 0.91042 0.0
H933 H 0.88734 0.13334 0.86286 0.0
H934 H 0.87475 0.11708 0.83221 0.0
H935 H 0.89934 0.1176 0.83036 0.0
C936 C 0.85277 0.06449 0.79946 0.0
C937 C 0.86483 0.06393 0.76589 0.0
C938 C 0.85823 0.07245 0.83648 0.0
C939 C 0.87577 0.08006 0.84038 0.0
C940 C 0.88771 0.07972 0.80669 0.0
H941 H 0.94534 0.09374 0.04885 0.0
H942 H 0.92838 0.08335 0.98854 0.0
C943 C 0.88227 0.0718 0.76972 0.0
C944 C 0.88215 0.08718 0.88039 0.0
H945 H 0.90189 0.12428 0.92575 0.0
C946 C 0.88271 0.07516 0.91396 0.0
C947 C 0.88855 0.1053 0.88507 0.0
C948 C 0.88731 0.11913 0.85081 0.0
C949 C 0.89025 0.08054 0.95164 0.0
C950 C 0.89768 0.09831 0.9555 0.0
C951 C 0.89638 0.11059 0.92252 0.0
C952 C 0.90747 0.10421 0.99295 0.0
C953 C 0.89026 0.06714 0.98687 0.0
C954 C 0.90153 0.11959 0.01491 0.0
C955 C 0.91127 0.12563 0.04921 0.0
C956 C 0.92717 0.11644 0.06192 0.0
C957 C 0.93307 0.10102 0.03992 0.0
C958 C 0.92334 0.09501 0.00563 0.0
H959 H 0.87949 0.05657 0.98307 0.0
H960 H 0.90368 0.06007 0.98798 0.0
H961 H 0.88812 0.07421 0.01663 0.0
H962 H 0.88939 0.12695 0.00541 0.0
H963 H 0.90643 0.1376 0.06552 0.0
H964 H 0.36049 0.9007 0.56632 0.0
H965 H 0.37219 0.88405 0.50659 0.0
H966 H 0.41534 0.92382 0.49315 0.0
H967 H 0.40388 0.94038 0.55294 0.0
H968 H 0.37505 0.89771 0.42802 0.0
H969 H 0.4429 0.87547 0.48439 0.0
H970 H 0.425 0.88323 0.5184 0.0
H971 H 0.4391 0.89949 0.49159 0.0
C972 C 0.37261 0.90575 0.55092 0.0
C973 C 0.3813 0.92182 0.56427 0.0
C974 C 0.37926 0.89623 0.51687 0.0
C975 C 0.39478 0.90256 0.49588 0.0
C976 C 0.4036 0.91847 0.50949 0.0
H977 H 0.42872 0.89602 0.24804 0.0
H978 H 0.41518 0.90269 0.31482 0.0
C979 C 0.39696 0.92799 0.54347 0.0
C980 C 0.40099 0.89342 0.45786 0.0
H981 H 0.43878 0.8757 0.41111 0.0
C982 C 0.3889 0.89263 0.42448 0.0
C983 C 0.41896 0.88655 0.45352 0.0
C984 C 0.43218 0.88604 0.48903 0.0
C985 C 0.39461 0.88605 0.38617 0.0
C986 C 0.41296 0.8804 0.38107 0.0
C987 C 0.42477 0.88024 0.41501 0.0
C988 C 0.42051 0.87587 0.34022 0.0
C989 C 0.38103 0.88547 0.35133 0.0
C990 C 0.42832 0.85867 0.33267 0.0
C991 C 0.43618 0.85483 0.29448 0.0
C992 C 0.43646 0.86821 0.26351 0.0
C993 C 0.42861 0.8854 0.27123 0.0
C994 C 0.42077 0.8892 0.30928 0.0
H995 H 0.36676 0.88471 0.36289 0.0
H996 H 0.38233 0.89816 0.33285 0.0
H997 H 0.38359 0.8736 0.3309 0.0
H998 H 0.42838 0.84826 0.35634 0.0
H999 H 0.44219 0.84149 0.28939 0.0
H1000 H 0.58646 0.35558 0.04818 0.0
H1001 H 0.60187 0.36915 0.989 0.0
H1002 H 0.58866 0.42309 0.03364 0.0
H1003 H 0.57269 0.40956 0.09221 0.0
H1004 H 0.57844 0.41926 0.95696 0.0
H1005 H 0.64966 0.39471 0.97013 0.0
H1006 H 0.63369 0.37613 0.97228 0.0
H1007 H 0.63359 0.39322 0.01208 0.0
C1008 C 0.58714 0.37034 0.04575 0.0
C1009 C 0.57832 0.38153 0.07464 0.0
C1010 C 0.59609 0.37809 0.01209 0.0
C1011 C 0.59667 0.39715 0.00716 0.0
C1012 C 0.58846 0.40835 0.03692 0.0
H1013 H 0.65027 0.45039 0.79726 0.0
H1014 H 0.64326 0.43982 0.86706 0.0
C1015 C 0.57933 0.40061 0.07032 0.0
C1016 C 0.60386 0.40527 0.96872 0.0
H1017 H 0.64016 0.4048 0.90274 0.0
C1018 C 0.59205 0.4163 0.94547 0.0
C1019 C 0.62168 0.40162 0.95387 0.0
C1020 C 0.63544 0.39093 0.97865 0.0
C1021 C 0.59726 0.42314 0.90708 0.0
C1022 C 0.61459 0.41842 0.89098 0.0
C1023 C 0.62676 0.40811 0.91491 0.0
C1024 C 0.6199 0.42361 0.84876 0.0
C1025 C 0.5841 0.43528 0.88402 0.0
C1026 C 0.60944 0.41749 0.81541 0.0
C1027 C 0.61331 0.42356 0.7758 0.0
C1028 C 0.62787 0.43569 0.76875 0.0
C1029 C 0.63893 0.44109 0.80188 0.0
C1030 C 0.63496 0.43507 0.84168 0.0
H1031 H 0.57417 0.44193 0.90507 0.0
H1032 H 0.59147 0.44609 0.86667 0.0
H1033 H 0.57623 0.42688 0.86184 0.0
H1034 H 0.59802 0.4083 0.82016 0.0
H1035 H 0.60467 0.41902 0.7508 0.0
H1036 H 0.09083 0.54816 0.54304 0.0
H1037 H 0.08219 0.56595 0.4826 0.0
H1038 H 0.13005 0.59977 0.49768 0.0
H1039 H 0.13899 0.58177 0.55794 0.0
H1040 H 0.07522 0.60315 0.47216 0.0
H1041 H 0.13518 0.58034 0.38024 0.0
H1042 H 0.12879 0.56953 0.42792 0.0
H1043 H 0.14032 0.59121 0.42832 0.0
C1044 C 0.09947 0.55945 0.53365 0.0
C1045 C 0.11566 0.56349 0.55497 0.0
C1046 C 0.0945 0.56961 0.49918 0.0
C1047 C 0.10562 0.58399 0.48538 0.0
C1048 C 0.12146 0.5885 0.50744 0.0
H1049 H 0.06453 0.6512 0.28009 0.0
H1050 H 0.07866 0.64321 0.34603 0.0
C1051 C 0.12649 0.57828 0.54192 0.0
C1052 C 0.10075 0.59372 0.44708 0.0
H1053 H 0.11403 0.59964 0.34751 0.0
C1054 C 0.08378 0.60261 0.44498 0.0
C1055 C 0.11194 0.59281 0.4117 0.0
C1056 C 0.13002 0.58286 0.41181 0.0
C1057 C 0.07738 0.61011 0.40804 0.0
C1058 C 0.08845 0.60896 0.37251 0.0
C1059 C 0.10568 0.60061 0.37495 0.0
C1060 C 0.08153 0.61447 0.33166 0.0
C1061 C 0.05846 0.61835 0.40685 0.0
C1062 C 0.07915 0.60109 0.30131 0.0
C1063 C 0.07126 0.60562 0.26371 0.0
C1064 C 0.06562 0.62363 0.25573 0.0
C1065 C 0.06866 0.63719 0.28553 0.0
C1066 C 0.07662 0.63264 0.32323 0.0
H1067 H 0.05046 0.61509 0.43491 0.0
H1068 H 0.05959 0.63344 0.40445 0.0
H1069 H 0.05078 0.61336 0.37968 0.0
H1070 H 0.08289 0.587 0.3072 0.0
H1071 H 0.06915 0.59489 0.24131 0.0
H1072 H 0.87858 0.50564 0.24586 0.0
H1073 H 0.89801 0.53158 0.22766 0.0
H1074 H 0.91458 0.53687 0.35422 0.0
H1075 H 0.8957 0.5104 0.37232 0.0
H1076 H 0.89932 0.56688 0.25036 0.0
H1077 H 0.9632 0.53166 0.29823 0.0
H1078 H 0.94156 0.51996 0.29498 0.0
H1079 H 0.94671 0.53412 0.33861 0.0
C1080 C 0.88632 0.51238 0.26983 0.0
C1081 C 0.88584 0.50589 0.31039 0.0
C1082 C 0.89738 0.52722 0.25942 0.0
C1083 C 0.90803 0.53593 0.28943 0.0
C1084 C 0.90686 0.53003 0.33037 0.0
H1085 H 0.98914 0.62268 0.25522 0.0
H1086 H 0.96427 0.60447 0.28495 0.0
C1087 C 0.89601 0.51499 0.34071 0.0
C1088 C 0.92083 0.55067 0.27723 0.0
H1089 H 0.96614 0.56188 0.27408 0.0
C1090 C 0.91391 0.56584 0.25576 0.0
C1091 C 0.9399 0.54922 0.28413 0.0
C1092 C 0.94834 0.5328 0.30489 0.0
C1093 C 0.92561 0.57945 0.24049 0.0
C1094 C 0.94459 0.57785 0.2471 0.0
C1095 C 0.95149 0.56303 0.26949 0.0
C1096 C 0.95778 0.59057 0.22825 0.0
C1097 C 0.91774 0.59533 0.21682 0.0
C1098 C 0.96212 0.58881 0.18655 0.0
C1099 C 0.97641 0.59898 0.16963 0.0
C1100 C 0.98647 0.61114 0.19418 0.0
C1101 C 0.98155 0.61345 0.23557 0.0
C1102 C 0.96739 0.6031 0.25259 0.0
H1103 H 0.90261 0.59607 0.21964 0.0
H1104 H 0.92376 0.60838 0.22777 0.0
H1105 H 0.92129 0.59384 0.18387 0.0
H1106 H 0.95492 0.57903 0.1675 0.0
H1107 H 0.97991 0.59694 0.13765 0.0
H1108 H 0.8745 0.98928 0.75481 0.0
H1109 H 0.89306 0.96265 0.77261 0.0
H1110 H 0.8991 0.94971 0.64413 0.0
H1111 H 0.88112 0.9768 0.62606 0.0
H1112 H 0.89063 0.9262 0.75938 0.0
H1113 H 0.95157 0.9545 0.6793 0.0
H1114 H 0.93114 0.96776 0.68754 0.0
H1115 H 0.93204 0.95116 0.64686 0.0
C1116 C 0.87968 0.98069 0.73037 0.0
C1117 C 0.87662 0.98522 0.68905 0.0
C1118 C 0.89024 0.96546 0.74057 0.0
C1119 C 0.89778 0.95443 0.70966 0.0
C1120 C 0.89383 0.95833 0.66841 0.0
H1121 H 0.98062 0.86905 0.74105 0.0
H1122 H 0.95424 0.88561 0.71315 0.0
C1123 C 0.8835 0.97373 0.65815 0.0
C1124 C 0.91057 0.93954 0.72089 0.0
H1125 H 0.95504 0.92598 0.71155 0.0
C1126 C 0.90467 0.92606 0.74866 0.0
C1127 C 0.92891 0.93942 0.70694 0.0
C1128 C 0.93639 0.95405 0.67883 0.0
C1129 C 0.91676 0.91271 0.76354 0.0
C1130 C 0.93513 0.91289 0.75024 0.0
C1131 C 0.94086 0.92589 0.72136 0.0
C1132 C 0.94914 0.90095 0.76871 0.0
C1133 C 0.90996 0.8987 0.79387 0.0
C1134 C 0.95482 0.90405 0.80921 0.0
C1135 C 0.96996 0.89482 0.82502 0.0
C1136 C 0.9796 0.88228 0.80058 0.0
C1137 C 0.9734 0.8786 0.76059 0.0
C1138 C 0.95836 0.88801 0.74463 0.0
H1139 H 0.8948 0.89772 0.79378 0.0
H1140 H 0.91581 0.88502 0.78702 0.0
H1141 H 0.91442 0.90266 0.82519 0.0
H1142 H 0.94802 0.91421 0.82798 0.0
H1143 H 0.97444 0.8979 0.85594 0.0
H1144 H 0.50367 0.9103 0.14404 0.0
H1145 H 0.53026 0.92776 0.16617 0.0
H1146 H 0.55043 0.88079 0.23235 0.0
H1147 H 0.52346 0.8633 0.21108 0.0
H1148 H 0.55013 0.91021 0.27964 0.0
H1149 H 0.58308 0.92874 0.13327 0.0
H1150 H 0.55932 0.93468 0.13187 0.0
H1151 H 0.56594 0.91102 0.1367 0.0
C1152 C 0.5139 0.90358 0.16275 0.0
C1153 C 0.51148 0.88546 0.17594 0.0
C1154 C 0.52921 0.91353 0.17506 0.0
C1155 C 0.54253 0.90549 0.20027 0.0
C1156 C 0.54039 0.88721 0.21259 0.0
H1157 H 0.63152 0.9807 0.26838 0.0
H1158 H 0.6165 0.95277 0.24388 0.0
C1159 C 0.52499 0.87725 0.20047 0.0
C1160 C 0.55744 0.91689 0.21728 0.0
H1161 H 0.58836 0.94968 0.19031 0.0
C1162 C 0.55878 0.91854 0.26009 0.0
C1163 C 0.56904 0.92748 0.19191 0.0
C1164 C 0.56941 0.92522 0.1459 0.0
C1165 C 0.57038 0.93151 0.27808 0.0
C1166 C 0.58052 0.94342 0.25253 0.0
C1167 C 0.58029 0.94079 0.20987 0.0
C1168 C 0.59001 0.95967 0.26913 0.0
C1169 C 0.57129 0.93263 0.32428 0.0
C1170 C 0.58004 0.97285 0.29099 0.0
C1171 C 0.58855 0.9887 0.30505 0.0
C1172 C 0.60716 0.9918 0.29706 0.0
C1173 C 0.61716 0.97864 0.27504 0.0
C1174 C 0.60862 0.9627 0.26107 0.0
H1175 H 0.56834 0.91914 0.33855 0.0
H1176 H 0.58492 0.93738 0.33484 0.0
H1177 H 0.56079 0.94241 0.33535 0.0
H1178 H 0.56555 0.97104 0.29652 0.0
H1179 H 0.58047 -0.00134 0.32168 0.0
H1180 H 0.58491 0.5027 0.62541 0.0
H1181 H 0.56462 0.5278 0.64494 0.0
H1182 H 0.59846 0.53892 0.75048 0.0
H1183 H 0.61906 0.51415 0.73052 0.0
H1184 H 0.54512 0.52866 0.71432 0.0
H1185 H 0.5894 0.59001 0.70751 0.0
H1186 H 0.59573 0.56855 0.68408 0.0
H1187 H 0.59904 0.57207 0.73824 0.0
C1188 C 0.5882 0.51071 0.65236 0.0
C1189 C 0.60353 0.50647 0.67651 0.0
C1190 C 0.57661 0.52505 0.66346 0.0
C1191 C 0.58014 0.53537 0.69889 0.0
C1192 C 0.59571 0.53144 0.72248 0.0
H1193 H 0.4991 0.58811 0.84893 0.0
H1194 H 0.52363 0.56926 0.82055 0.0
C1195 C 0.60739 0.51719 0.71122 0.0
C1196 C 0.56654 0.54889 0.71343 0.0
H1197 H 0.56126 0.59312 0.74484 0.0
C1198 C 0.54862 0.5428 0.72059 0.0
C1199 C 0.57108 0.56737 0.72125 0.0
C1200 C 0.58981 0.57495 0.71198 0.0
C1201 C 0.53524 0.55453 0.73636 0.0
C1202 C 0.54001 0.57275 0.74615 0.0
C1203 C 0.55775 0.57905 0.73787 0.0
C1204 C 0.52665 0.58532 0.76516 0.0
C1205 C 0.51606 0.54733 0.7422 0.0
C1206 C 0.52085 0.60104 0.74421 0.0
C1207 C 0.50693 0.61194 0.76052 0.0
C1208 C 0.49866 0.60724 0.79802 0.0
C1209 C 0.50511 0.59197 0.81979 0.0
C1210 C 0.51906 0.58115 0.80357 0.0
H1211 H 0.51351 0.53498 0.72319 0.0
H1212 H 0.5141 0.54348 0.77485 0.0
H1213 H 0.50573 0.55787 0.7342 0.0
H1214 H 0.52665 0.60452 0.7146 0.0
H1215 H 0.50225 0.62367 0.74315 0.0
H1216 H 0.09686 0.47527 0.61428 0.0
H1217 H 0.07717 0.44949 0.63276 0.0
H1218 H 0.09159 0.45649 0.7602 0.0
H1219 H 0.11183 0.48182 0.7417 0.0
H1220 H 0.08935 0.42062 0.73969 0.0
H1221 H 0.02783 0.45776 0.68432 0.0
H1222 H 0.04487 0.4543 0.6455 0.0
H1223 H 0.04986 0.46863 0.68897 0.0
C1224 C 0.09596 0.47117 0.64617 0.0
C1225 C 0.10569 0.48064 0.67665 0.0
C1226 C 0.08464 0.45652 0.6567 0.0
C1227 C 0.08256 0.45139 0.69796 0.0
C1228 C 0.09291 0.46031 0.7282 0.0
H1229 H 0.00709 0.39046 0.8442 0.0
H1230 H 0.03272 0.40838 0.81727 0.0
C1231 C 0.10444 0.47478 0.71761 0.0
C1232 C 0.069 0.43734 0.71002 0.0
H1233 H 0.02332 0.42768 0.70845 0.0
C1234 C 0.07492 0.42212 0.73274 0.0
C1235 C 0.05015 0.43941 0.70112 0.0
C1236 C 0.04273 0.45598 0.679 0.0
C1237 C 0.06246 0.40896 0.74695 0.0
C1238 C 0.0437 0.41112 0.73812 0.0
C1239 C 0.0378 0.42608 0.71477 0.0
C1240 C 0.02971 0.39868 0.75494 0.0
C1241 C 0.06934 0.39289 0.7715 0.0
C1242 C 0.01967 0.3873 0.72869 0.0
C1243 C 0.0051 0.37699 0.744 0.0
C1244 C 0.00021 0.37817 0.78563 0.0
C1245 C 0.01056 0.38931 0.81198 0.0
C1246 C 0.02523 0.39946 0.79673 0.0
H1247 H 0.08443 0.39139 0.76931 0.0
H1248 H 0.06566 0.39483 0.80426 0.0
H1249 H 0.06279 0.38004 0.76084 0.0
H1250 H 0.02288 0.3867 0.69626 0.0
H1251 H -0.00268 0.36855 0.72299 0.0
H1252 H 0.00463 0.12408 0.26203 0.0
H1253 H 0.03058 0.10664 0.28923 0.0
H1254 H 0.0377 0.08065 0.17158 0.0
H1255 H 0.01168 0.09784 0.14426 0.0
H1256 H 0.03033 0.06561 0.28496 0.0
H1257 H 0.09051 0.09811 0.21038 0.0
H1258 H 0.06921 0.11011 0.21874 0.0
H1259 H 0.07105 0.09372 0.178 0.0
C1260 C 0.01191 0.11485 0.24181 0.0
C1261 C 0.00613 0.11224 0.20109 0.0
C1262 C 0.0267 0.10494 0.25737 0.0
C1263 C 0.03609 0.09256 0.23223 0.0
C1264 C 0.03074 0.09037 0.19121 0.0
H1265 H 0.11487 0.00717 0.24439 0.0
H1266 H 0.09524 0.03303 0.22662 0.0
C1267 C 0.01584 0.1001 0.17576 0.0
C1268 C 0.05024 0.08049 0.24971 0.0
H1269 H 0.09544 0.06946 0.24304 0.0
C1270 C 0.04463 0.06655 0.27638 0.0
C1271 C 0.06877 0.08179 0.23798 0.0
C1272 C 0.07537 0.0968 0.20991 0.0
C1273 C 0.05697 0.05327 0.29033 0.0
C1274 C 0.07555 0.05438 0.27821 0.0
C1275 C 0.08123 0.06869 0.25241 0.0
C1276 C 0.08892 0.04005 0.28959 0.0
C1277 C 0.04977 0.03768 0.3161 0.0
C1278 C 0.09233 0.03579 0.3309 0.0
C1279 C 0.10332 0.02085 0.34111 0.0
C1280 C 0.11135 0.01017 0.31014 0.0
C1281 C 0.1088 0.01513 0.26888 0.0
C1282 C 0.09763 0.02991 0.2587 0.0
H1283 H 0.03466 0.03645 0.31394 0.0
H1284 H 0.05595 0.02448 0.30659 0.0
H1285 H 0.0533 0.04013 0.34876 0.0
H1286 H 0.08613 0.04375 0.35522 0.0
H1287 H 0.10525 0.01745 0.37318 0.0
H1288 H 0.40812 -0.00266 0.66143 0.0
H1289 H 0.42544 0.02234 0.6924 0.0
H1290 H 0.38231 0.03077 0.78067 0.0
H1291 H 0.36472 0.00581 0.74948 0.0
H1292 H 0.39734 0.06372 0.74677 0.0
H1293 H 0.45067 0.0165 0.80501 0.0
H1294 H 0.44646 0.01415 0.75098 0.0
H1295 H 0.42868 0.00863 0.78708 0.0
C1296 C 0.40225 0.00459 0.68725 0.0
C1297 C 0.38515 -0.00047 0.7033 0.0
C1298 C 0.41218 0.01881 0.70497 0.0
C1299 C 0.40527 0.02813 0.73922 0.0
C1300 C 0.38789 0.02363 0.75439 0.0
H1301 H 0.48176 0.09284 0.88336 0.0
H1302 H 0.45627 0.07269 0.86567 0.0
C1303 C 0.3779 0.00938 0.73658 0.0
C1304 C 0.41655 0.04217 0.75974 0.0
H1305 H 0.45799 0.04825 0.80551 0.0
C1306 C 0.41052 0.06038 0.76006 0.0
C1307 C 0.43353 0.03765 0.7778 0.0
C1308 C 0.44017 0.01815 0.78065 0.0
C1309 C 0.4215 0.07437 0.7763 0.0
C1310 C 0.43902 0.06998 0.79193 0.0
C1311 C 0.44462 0.05164 0.79325 0.0
C1312 C 0.45229 0.08412 0.80502 0.0
C1313 C 0.41427 0.09368 0.77646 0.0
C1314 C 0.45829 0.09745 0.77708 0.0
C1315 C 0.47277 0.10906 0.78723 0.0
C1316 C 0.48165 0.10733 0.82526 0.0
C1317 C 0.47519 0.09444 0.85378 0.0
C1318 C 0.46063 0.08294 0.84373 0.0
H1319 H 0.39908 0.09388 0.7767 0.0
H1320 H 0.41935 0.10144 0.80343 0.0
H1321 H 0.41889 0.10078 0.74819 0.0
H1322 H 0.45239 0.09832 0.74666 0.0
H1323 H 0.47752 0.11881 0.76458 0.0
H1324 H 0.49622 0.40288 0.14439 0.0
H1325 H 0.47078 0.42165 0.16892 0.0
H1326 H 0.46785 0.38931 0.27945 0.0
H1327 H 0.49321 0.37031 0.25495 0.0
H1328 H 0.43286 0.39883 0.24375 0.0
H1329 H 0.47914 0.45841 0.26393 0.0
H1330 H 0.47953 0.44844 0.21355 0.0
H1331 H 0.48754 0.43543 0.25675 0.0
C1332 C 0.49004 0.39965 0.17374 0.0
C1333 C 0.4968 0.38526 0.19798 0.0
C1334 C 0.47556 0.41039 0.18771 0.0
C1335 C 0.46768 0.407 0.22621 0.0
C1336 C 0.47384 0.39215 0.2497 0.0
H1337 H 0.40715 0.48735 0.36522 0.0
H1338 H 0.4277 0.46278 0.344 0.0
C1339 C 0.48832 0.38136 0.23571 0.0
C1340 C 0.45374 0.41958 0.24289 0.0
H1341 H 0.4475 0.46377 0.27298 0.0
C1342 C 0.43601 0.41302 0.25029 0.0
C1343 C 0.45805 0.43798 0.25195 0.0
C1344 C 0.47713 0.4455 0.24653 0.0
C1345 C 0.42231 0.42457 0.26579 0.0
C1346 C 0.42649 0.44313 0.27356 0.0
C1347 C 0.44432 0.44955 0.2668 0.0
C1348 C 0.4127 0.45631 0.28863 0.0
C1349 C 0.40358 0.41679 0.27421 0.0
C1350 C 0.39731 0.46064 0.26477 0.0
C1351 C 0.38549 0.47465 0.27693 0.0
C1352 C 0.38902 0.48465 0.31289 0.0
C1353 C 0.40412 0.47991 0.3373 0.0
C1354 C 0.41586 0.46588 0.32525 0.0
H1355 H 0.40395 0.40166 0.27715 0.0
H1356 H 0.39769 0.42264 0.30274 0.0
H1357 H 0.39434 0.42027 0.24834 0.0
H1358 H 0.39484 0.45368 0.23598 0.0
H1359 H 0.37399 0.47808 0.25744 0.0
loop_
_geom_bond_atom_site_label_1
_geom_bond_atom_site_label_2
_geom_bond_distance
_geom_bond_site_symmetry_2
_ccdc_geom_bond_type
In0 O1 2.294 . S
In0 O2 2.326 . S
In0 O6 2.281 . S
In0 O7 2.326 . S
In0 O8 2.266 . S
In0 O9 2.326 . S
In0 O11 2.294 . S
In0 O12 2.326 . S
O1 In0 2.294 . S
O1 C10 1.240 . S
O2 In0 2.326 . S
O2 C10 1.252 . S
C3 O6 1.245 1_655 S
C3 O7 1.260 1_655 S
C4 O11 1.240 . S
C4 O12 1.252 . S
C5 O8 1.252 . S
C5 O9 1.260 . S
O6 In0 2.281 . S
O6 C3 1.245 1_455 S
O7 In0 2.326 . S
O7 C3 1.260 1_455 S
O8 In0 2.266 . S
O8 C5 1.252 . S
O9 In0 2.326 . S
O9 C5 1.260 . S
C10 O1 1.240 . S
C10 O2 1.252 . S
O11 In0 2.294 . S
O11 C4 1.240 . S
O12 In0 2.326 . S
O12 C4 1.252 . S
In13 O14 2.294 . S
In13 O15 2.326 . S
In13 O19 2.266 . S
In13 O20 2.326 . S
In13 O21 2.281 . S
In13 O22 2.326 . S
In13 O24 2.294 . S
In13 O25 2.326 . S
O14 In13 2.294 . S
O14 C23 1.240 . S
O15 In13 2.326 . S
O15 C23 1.252 . S
C16 O19 1.252 . S
C16 O20 1.260 . S
C17 O24 1.240 . S
C17 O25 1.252 . S
C18 O21 1.245 1_565 S
C18 O22 1.260 1_565 S
O19 In13 2.266 . S
O19 C16 1.252 . S
O20 In13 2.326 . S
O20 C16 1.260 . S
O21 In13 2.281 . S
O21 C18 1.245 1_545 S
O22 In13 2.326 . S
O22 C18 1.260 1_545 S
C23 O14 1.240 . S
C23 O15 1.252 . S
O24 In13 2.294 . S
O24 C17 1.240 . S
O25 In13 2.326 . S
O25 C17 1.252 . S
In26 O27 2.294 . S
In26 O28 2.326 . S
In26 O32 2.266 . S
In26 O33 2.326 . S
In26 O34 2.266 . S
In26 O35 2.326 . S
In26 O37 2.294 . S
In26 O38 2.326 . S
O27 In26 2.294 . S
O27 C36 1.240 . S
O28 In26 2.326 . S
O28 C36 1.252 . S
C29 O32 1.252 . S
C29 O33 1.260 . S
C30 O37 1.240 . S
C30 O38 1.252 . S
C31 O34 1.252 . S
C31 O35 1.260 . S
O32 In26 2.266 . S
O32 C29 1.252 . S
O33 In26 2.326 . S
O33 C29 1.260 . S
O34 In26 2.266 . S
O34 C31 1.252 . S
O35 In26 2.326 . S
O35 C31 1.260 . S
C36 O27 1.240 . S
C36 O28 1.252 . S
O37 In26 2.294 . S
O37 C30 1.240 . S
O38 In26 2.326 . S
O38 C30 1.252 . S
In39 O40 2.294 . S
In39 O41 2.326 . S
In39 O45 2.266 . S
In39 O46 2.326 . S
In39 O47 2.266 . S
In39 O48 2.326 . S
In39 O50 2.294 . S
In39 O51 2.326 . S
O40 In39 2.294 . S
O40 C49 1.240 . S
O41 In39 2.326 . S
O41 C49 1.252 . S
C42 O45 1.252 . S
C42 O46 1.260 . S
C43 O50 1.240 . S
C43 O51 1.252 . S
C44 O47 1.252 . S
C44 O48 1.260 . S
O45 In39 2.266 . S
O45 C42 1.252 . S
O46 In39 2.326 . S
O46 C42 1.260 . S
O47 In39 2.266 . S
O47 C44 1.252 . S
O48 In39 2.326 . S
O48 C44 1.260 . S
C49 O40 1.240 . S
C49 O41 1.252 . S
O50 In39 2.294 . S
O50 C43 1.240 . S
O51 In39 2.326 . S
O51 C43 1.252 . S
In52 O53 2.294 . S
In52 O54 2.326 . S
In52 O58 2.281 . S
In52 O59 2.326 . S
In52 O60 2.266 . S
In52 O61 2.326 . S
In52 O63 2.294 . S
In52 O64 2.326 . S
O53 In52 2.294 . S
O53 C62 1.240 . S
O54 In52 2.326 . S
O54 C62 1.252 . S
C55 O58 1.245 1_655 S
C55 O59 1.260 1_655 S
C56 O63 1.240 . S
C56 O64 1.252 . S
C57 O60 1.252 . S
C57 O61 1.260 . S
O58 In52 2.281 . S
O58 C55 1.245 1_455 S
O59 In52 2.326 . S
O59 C55 1.260 1_455 S
O60 In52 2.266 . S
O60 C57 1.252 . S
O61 In52 2.326 . S
O61 C57 1.260 . S
C62 O53 1.240 . S
C62 O54 1.252 . S
O63 In52 2.294 . S
O63 C56 1.240 . S
O64 In52 2.326 . S
O64 C56 1.252 . S
In65 O66 2.294 . S
In65 O67 2.326 . S
In65 O71 2.281 . S
In65 O72 2.326 . S
In65 O73 2.266 . S
In65 O74 2.326 . S
In65 O76 2.294 . S
In65 O77 2.326 . S
O66 In65 2.294 . S
O66 C75 1.240 . S
O67 In65 2.326 . S
O67 C75 1.252 . S
C68 O71 1.245 1_565 S
C68 O72 1.260 1_565 S
C69 O76 1.240 . S
C69 O77 1.252 . S
C70 O73 1.252 . S
C70 O74 1.260 . S
O71 In65 2.281 . S
O71 C68 1.245 1_545 S
O72 In65 2.326 . S
O72 C68 1.260 1_545 S
O73 In65 2.266 . S
O73 C70 1.252 . S
O74 In65 2.326 . S
O74 C70 1.260 . S
C75 O66 1.240 . S
C75 O67 1.252 . S
O76 In65 2.294 . S
O76 C69 1.240 . S
O77 In65 2.326 . S
O77 C69 1.252 . S
In78 O79 2.294 . S
In78 O80 2.326 . S
In78 O84 2.266 . S
In78 O85 2.326 . S
In78 O86 2.266 . S
In78 O87 2.326 . S
In78 O89 2.294 . S
In78 O90 2.326 . S
O79 In78 2.294 . S
O79 C88 1.240 . S
O80 In78 2.326 . S
O80 C88 1.252 . S
C81 O84 1.252 . S
C81 O85 1.260 . S
C82 O89 1.240 . S
C82 O90 1.252 . S
C83 O86 1.252 . S
C83 O87 1.260 . S
O84 In78 2.266 . S
O84 C81 1.252 . S
O85 In78 2.326 . S
O85 C81 1.260 . S
O86 In78 2.266 . S
O86 C83 1.252 . S
O87 In78 2.326 . S
O87 C83 1.260 . S
C88 O79 1.240 . S
C88 O80 1.252 . S
O89 In78 2.294 . S
O89 C82 1.240 . S
O90 In78 2.326 . S
O90 C82 1.252 . S
In91 O92 2.294 . S
In91 O93 2.326 . S
In91 O97 2.266 . S
In91 O98 2.326 . S
In91 O99 2.266 . S
In91 O100 2.326 . S
In91 O102 2.294 . S
In91 O103 2.326 . S
O92 In91 2.294 . S
O92 C101 1.240 . S
O93 In91 2.326 . S
O93 C101 1.252 . S
C94 O97 1.252 . S
C94 O98 1.260 . S
C95 O102 1.240 . S
C95 O103 1.252 . S
C96 O99 1.252 . S
C96 O100 1.260 . S
O97 In91 2.266 . S
O97 C94 1.252 . S
O98 In91 2.326 . S
O98 C94 1.260 . S
O99 In91 2.266 . S
O99 C96 1.252 . S
O100 In91 2.326 . S
O100 C96 1.260 . S
C101 O92 1.240 . S
C101 O93 1.252 . S
O102 In91 2.294 . S
O102 C95 1.240 . S
O103 In91 2.326 . S
O103 C95 1.252 . S
In104 O105 2.294 . S
In104 O106 2.326 . S
In104 O110 2.281 . S
In104 O111 2.326 . S
In104 O112 2.266 . S
In104 O113 2.326 . S
In104 O115 2.294 . S
In104 O116 2.326 . S
O105 In104 2.294 . S
O105 C114 1.240 . S
O106 In104 2.326 . S
O106 C114 1.252 . S
C107 O110 1.245 1_455 S
C107 O111 1.260 1_455 S
C108 O115 1.240 . S
C108 O116 1.252 . S
C109 O112 1.252 . S
C109 O113 1.260 . S
O110 In104 2.281 . S
O110 C107 1.245 1_655 S
O111 In104 2.326 . S
O111 C107 1.260 1_655 S
O112 In104 2.266 . S
O112 C109 1.252 . S
O113 In104 2.326 . S
O113 C109 1.260 . S
C114 O105 1.240 . S
C114 O106 1.252 . S
O115 In104 2.294 . S
O115 C108 1.240 . S
O116 In104 2.326 . S
O116 C108 1.252 . S
In117 O118 2.294 . S
In117 O119 2.326 . S
In117 O123 2.266 . S
In117 O124 2.326 . S
In117 O125 2.281 . S
In117 O126 2.326 . S
In117 O128 2.294 . S
In117 O129 2.326 . S
O118 In117 2.294 . S
O118 C127 1.240 . S
O119 In117 2.326 . S
O119 C127 1.252 . S
C120 O123 1.252 . S
C120 O124 1.260 . S
C121 O128 1.240 . S
C121 O129 1.252 . S
C122 O125 1.245 1_545 S
C122 O126 1.260 1_545 S
O123 In117 2.266 . S
O123 C120 1.252 . S
O124 In117 2.326 . S
O124 C120 1.260 . S
O125 In117 2.281 . S
O125 C122 1.245 1_565 S
O126 In117 2.326 . S
O126 C122 1.260 1_565 S
C127 O118 1.240 . S
C127 O119 1.252 . S
O128 In117 2.294 . S
O128 C121 1.240 . S
O129 In117 2.326 . S
O129 C121 1.252 . S
In130 O131 2.294 . S
In130 O132 2.326 . S
In130 O136 2.266 . S
In130 O137 2.326 . S
In130 O138 2.266 . S
In130 O139 2.326 . S
In130 O141 2.294 . S
In130 O142 2.326 . S
O131 In130 2.294 . S
O131 C140 1.240 . S
O132 In130 2.326 . S
O132 C140 1.252 . S
C133 O136 1.252 . S
C133 O137 1.260 . S
C134 O141 1.240 . S
C134 O142 1.252 . S
C135 O138 1.252 . S
C135 O139 1.260 . S
O136 In130 2.266 . S
O136 C133 1.252 . S
O137 In130 2.326 . S
O137 C133 1.260 . S
O138 In130 2.266 . S
O138 C135 1.252 . S
O139 In130 2.326 . S
O139 C135 1.260 . S
C140 O131 1.240 . S
C140 O132 1.252 . S
O141 In130 2.294 . S
O141 C134 1.240 . S
O142 In130 2.326 . S
O142 C134 1.252 . S
In143 O144 2.294 . S
In143 O145 2.326 . S
In143 O149 2.266 . S
In143 O150 2.326 . S
In143 O151 2.266 . S
In143 O152 2.326 . S
In143 O154 2.294 . S
In143 O155 2.326 . S
O144 In143 2.294 . S
O144 C153 1.240 . S
O145 In143 2.326 . S
O145 C153 1.252 . S
C146 O149 1.252 . S
C146 O150 1.260 . S
C147 O154 1.240 . S
C147 O155 1.252 . S
C148 O151 1.252 . S
C148 O152 1.260 . S
O149 In143 2.266 . S
O149 C146 1.252 . S
O150 In143 2.326 . S
O150 C146 1.260 . S
O151 In143 2.266 . S
O151 C148 1.252 . S
O152 In143 2.326 . S
O152 C148 1.260 . S
C153 O144 1.240 . S
C153 O145 1.252 . S
O154 In143 2.294 . S
O154 C147 1.240 . S
O155 In143 2.326 . S
O155 C147 1.252 . S
In156 O157 2.294 . S
In156 O158 2.326 . S
In156 O162 2.281 . S
In156 O163 2.326 . S
In156 O164 2.266 . S
In156 O165 2.326 . S
In156 O167 2.294 . S
In156 O168 2.326 . S
O157 In156 2.294 . S
O157 C166 1.240 . S
O158 In156 2.326 . S
O158 C166 1.252 . S
C159 O162 1.245 1_455 S
C159 O163 1.260 1_455 S
C160 O167 1.240 . S
C160 O168 1.252 . S
C161 O164 1.252 . S
C161 O165 1.260 . S
O162 In156 2.281 . S
O162 C159 1.245 1_655 S
O163 In156 2.326 . S
O163 C159 1.260 1_655 S
O164 In156 2.266 . S
O164 C161 1.252 . S
O165 In156 2.326 . S
O165 C161 1.260 . S
C166 O157 1.240 . S
C166 O158 1.252 . S
O167 In156 2.294 . S
O167 C160 1.240 . S
O168 In156 2.326 . S
O168 C160 1.252 . S
In169 O170 2.294 . S
In169 O171 2.326 . S
In169 O175 2.281 . S
In169 O176 2.326 . S
In169 O177 2.266 . S
In169 O178 2.326 . S
In169 O180 2.294 . S
In169 O181 2.326 . S
O170 In169 2.294 . S
O170 C179 1.240 . S
O171 In169 2.326 . S
O171 C179 1.252 . S
C172 O175 1.245 1_545 S
C172 O176 1.260 1_545 S
C173 O180 1.240 . S
C173 O181 1.252 . S
C174 O177 1.252 . S
C174 O178 1.260 . S
O175 In169 2.281 . S
O175 C172 1.245 1_565 S
O176 In169 2.326 . S
O176 C172 1.260 1_565 S
O177 In169 2.266 . S
O177 C174 1.252 . S
O178 In169 2.326 . S
O178 C174 1.260 . S
C179 O170 1.240 . S
C179 O171 1.252 . S
O180 In169 2.294 . S
O180 C173 1.240 . S
O181 In169 2.326 . S
O181 C173 1.252 . S
In182 O183 2.294 . S
In182 O184 2.326 . S
In182 O188 2.266 . S
In182 O189 2.326 . S
In182 O190 2.266 . S
In182 O191 2.326 . S
In182 O193 2.294 . S
In182 O194 2.326 . S
O183 In182 2.294 . S
O183 C192 1.240 . S
O184 In182 2.326 . S
O184 C192 1.252 . S
C185 O188 1.252 . S
C185 O189 1.260 . S
C186 O193 1.240 . S
C186 O194 1.252 . S
C187 O190 1.252 . S
C187 O191 1.260 . S
O188 In182 2.266 . S
O188 C185 1.252 . S
O189 In182 2.326 . S
O189 C185 1.260 . S
O190 In182 2.266 . S
O190 C187 1.252 . S
O191 In182 2.326 . S
O191 C187 1.260 . S
C192 O183 1.240 . S
C192 O184 1.252 . S
O193 In182 2.294 . S
O193 C186 1.240 . S
O194 In182 2.326 . S
O194 C186 1.252 . S
In195 O196 2.294 . S
In195 O197 2.326 . S
In195 O201 2.266 . S
In195 O202 2.326 . S
In195 O203 2.266 . S
In195 O204 2.326 . S
In195 O206 2.294 . S
In195 O207 2.326 . S
O196 In195 2.294 . S
O196 C205 1.240 . S
O197 In195 2.326 . S
O197 C205 1.252 . S
C198 O201 1.252 . S
C198 O202 1.260 . S
C199 O206 1.240 . S
C199 O207 1.252 . S
C200 O203 1.252 . S
C200 O204 1.260 . S
O201 In195 2.266 . S
O201 C198 1.252 . S
O202 In195 2.326 . S
O202 C198 1.260 . S
O203 In195 2.266 . S
O203 C200 1.252 . S
O204 In195 2.326 . S
O204 C200 1.260 . S
C205 O196 1.240 . S
C205 O197 1.252 . S
O206 In195 2.294 . S
O206 C199 1.240 . S
O207 In195 2.326 . S
O207 C199 1.252 . S
H208 C216 0.929 . S
H209 C218 0.930 . S
H210 C220 0.930 1_556 S
H211 C223 0.929 . S
H212 C226 0.930 . S
H213 C228 0.960 . S
H214 C228 0.960 1_554 S
H215 C228 0.960 . S
C216 H208 0.929 . S
C216 C217 1.377 . S
C216 C218 1.384 . S
C217 C216 1.377 . S
C217 C223 1.390 . S
C218 H209 0.930 . S
C218 C216 1.384 . S
C218 C219 1.372 . S
C219 C218 1.372 . S
C219 C220 1.400 . S
C219 C224 1.490 . S
C220 H210 0.930 1_554 S
C220 C219 1.400 . S
C220 C223 1.386 . S
H221 C237 0.930 . S
H222 C238 0.931 . S
C223 H211 0.929 . S
C223 C217 1.390 . S
C223 C220 1.386 . S
C224 C219 1.490 . S
C224 C226 1.395 . S
C224 C227 1.403 1_554 S
H225 C231 0.930 1_655 S
C226 H212 0.930 . S
C226 C224 1.395 . S
C226 C229 1.403 . S
C227 C224 1.403 1_556 S
C227 C228 1.524 1_455 S
C227 C231 1.400 . S
C228 H213 0.960 . S
C228 H214 0.960 1_556 S
C228 H215 0.960 . S
C228 C227 1.524 1_655 S
C229 C226 1.403 . S
C229 C230 1.392 1_554 S
C229 C233 1.495 . S
C230 C229 1.392 1_556 S
C230 C231 1.385 . S
C230 C232 1.478 . S
C231 H225 0.930 1_455 S
C231 C227 1.400 . S
C231 C230 1.385 . S
C232 C230 1.478 . S
C232 C234 1.381 . S
C232 C238 1.383 . S
C233 C229 1.495 . S
C233 H239 0.959 . S
C233 H240 0.968 . S
C233 H241 0.960 . S
C234 C232 1.381 . S
C234 C235 1.394 . S
C234 H242 0.930 1_556 S
C235 C234 1.394 . S
C235 C236 1.383 . S
C235 H243 0.929 . S
C236 C235 1.383 . S
C236 C237 1.377 . S
C237 H221 0.930 . S
C237 C236 1.377 . S
C237 C238 1.379 . S
C238 H222 0.931 . S
C238 C232 1.383 . S
C238 C237 1.379 . S
H239 C233 0.959 . S
H240 C233 0.968 . S
H241 C233 0.960 . S
H242 C234 0.930 1_554 S
H243 C235 0.929 . S
H244 C252 0.929 . S
H245 C254 0.930 . S
H246 C256 0.901 1_565 S
H247 C259 0.929 1_565 S
H248 C262 0.930 . S
H249 C264 0.960 . S
H250 C264 0.960 . S
H251 C264 0.960 1_565 S
C252 H244 0.929 . S
C252 C253 1.377 . S
C252 C254 1.384 . S
C253 C252 1.377 . S
C253 C259 1.390 . S
C254 H245 0.930 . S
C254 C252 1.384 . S
C254 C255 1.372 . S
C255 C254 1.372 . S
C255 C256 1.429 . S
C255 C260 1.490 . S
C256 H246 0.901 1_545 S
C256 C255 1.429 . S
C256 C259 1.385 . S
H257 C273 0.922 1_565 S
H258 C274 0.896 1_565 S
C259 H247 0.929 1_545 S
C259 C253 1.390 . S
C259 C256 1.385 . S
C260 C255 1.490 . S
C260 C262 1.395 . S
C260 C263 1.403 . S
H261 C267 0.930 . S
C262 H248 0.930 . S
C262 C260 1.395 . S
C262 C265 1.403 . S
C263 C260 1.403 . S
C263 C264 1.524 . S
C263 C267 1.400 . S
C264 H249 0.960 . S
C264 H250 0.960 . S
C264 H251 0.960 1_545 S
C264 C263 1.524 . S
C265 C262 1.403 . S
C265 C266 1.392 . S
C265 C269 1.495 . S
C266 C265 1.392 . S
C266 C267 1.385 . S
C266 C268 1.478 . S
C267 H261 0.930 . S
C267 C263 1.400 . S
C267 C266 1.385 . S
C268 C266 1.478 . S
C268 C270 1.381 . S
C268 C274 1.418 . S
C269 C265 1.495 . S
C269 H275 0.959 . S
C269 H276 0.961 . S
C269 H277 0.960 . S
C270 C268 1.381 . S
C270 C271 1.394 . S
C270 H278 0.930 . S
C271 C270 1.394 . S
C271 C272 1.383 . S
C271 H279 0.929 . S
C272 C271 1.383 . S
C272 C273 1.384 . S
C273 H257 0.922 1_545 S
C273 C272 1.384 . S
C273 C274 1.379 . S
C274 H258 0.896 1_545 S
C274 C268 1.418 . S
C274 C273 1.379 . S
H275 C269 0.959 . S
H276 C269 0.961 . S
H277 C269 0.960 . S
H278 C270 0.930 . S
H279 C271 0.929 . S
H280 C288 0.929 . S
H281 C290 0.930 . S
H282 C292 0.930 1_556 S
H283 C295 0.929 . S
H284 C298 0.930 . S
H285 C300 0.960 1_556 S
H286 C300 0.960 . S
H287 C300 0.960 1_556 S
C288 H280 0.929 . S
C288 C289 1.377 . S
C288 C290 1.384 . S
C289 C288 1.377 . S
C289 C295 1.390 . S
C290 H281 0.930 . S
C290 C288 1.384 . S
C290 C291 1.372 . S
C291 C290 1.372 . S
C291 C292 1.400 . S
C291 C296 1.490 . S
C292 H282 0.930 1_554 S
C292 C291 1.400 . S
C292 C295 1.386 . S
H293 C309 0.930 . S
H294 C310 0.931 . S
C295 H283 0.929 . S
C295 C289 1.390 . S
C295 C292 1.386 . S
C296 C291 1.490 . S
C296 C298 1.395 . S
C296 C299 1.403 . S
H297 C303 0.930 . S
C298 H284 0.930 . S
C298 C296 1.395 . S
C298 C301 1.403 1_554 S
C299 C296 1.403 . S
C299 C300 1.524 . S
C299 C303 1.400 1_554 S
C300 H285 0.960 1_554 S
C300 H286 0.960 . S
C300 H287 0.960 1_554 S
C300 C299 1.524 . S
C301 C298 1.403 1_556 S
C301 C302 1.392 . S
C301 C305 1.495 . S
C302 C301 1.392 . S
C302 C303 1.385 . S
C302 C304 1.478 . S
C303 H297 0.930 . S
C303 C299 1.400 1_556 S
C303 C302 1.385 . S
C304 C302 1.478 . S
C304 C306 1.381 . S
C304 C310 1.383 . S
C305 C301 1.495 . S
C305 H311 0.959 1_556 S
C305 H312 0.961 . S
C305 H313 0.960 1_556 S
C306 C304 1.381 . S
C306 C307 1.394 . S
C306 H314 0.930 1_556 S
C307 C306 1.394 . S
C307 C308 1.383 . S
C307 H315 0.929 . S
C308 C307 1.383 . S
C308 C309 1.377 . S
C309 H293 0.930 . S
C309 C308 1.377 . S
C309 C310 1.379 . S
C310 H294 0.931 . S
C310 C304 1.383 . S
C310 C309 1.379 . S
H311 C305 0.959 1_554 S
H312 C305 0.961 . S
H313 C305 0.960 1_554 S
H314 C306 0.930 1_554 S
H315 C307 0.929 . S
H316 C324 0.929 . S
H317 C326 0.930 . S
H318 C328 0.930 . S
H319 C331 0.929 . S
H320 C334 0.930 . S
H321 C336 0.960 . S
H322 C336 0.960 . S
H323 C336 0.960 . S
C324 H316 0.929 . S
C324 C325 1.377 . S
C324 C326 1.384 . S
C325 C324 1.377 . S
C325 C331 1.390 . S
C326 H317 0.930 . S
C326 C324 1.384 . S
C326 C327 1.372 . S
C327 C326 1.372 . S
C327 C328 1.400 . S
C327 C332 1.490 . S
C328 H318 0.930 . S
C328 C327 1.400 . S
C328 C331 1.386 . S
H329 C345 0.930 . S
H330 C346 0.931 . S
C331 H319 0.929 . S
C331 C325 1.390 . S
C331 C328 1.386 . S
C332 C327 1.490 . S
C332 C334 1.395 . S
C332 C335 1.403 . S
H333 C339 0.930 . S
C334 H320 0.930 . S
C334 C332 1.395 . S
C334 C337 1.403 . S
C335 C332 1.403 . S
C335 C336 1.524 . S
C335 C339 1.400 . S
C336 H321 0.960 . S
C336 H322 0.960 . S
C336 H323 0.960 . S
C336 C335 1.524 . S
C337 C334 1.403 . S
C337 C338 1.392 . S
C337 C341 1.495 . S
C338 C337 1.392 . S
C338 C339 1.385 . S
C338 C340 1.478 . S
C339 H333 0.930 . S
C339 C335 1.400 . S
C339 C338 1.385 . S
C340 C338 1.478 . S
C340 C342 1.381 . S
C340 C346 1.383 . S
C341 C337 1.495 . S
C341 H347 0.959 . S
C341 H348 0.961 . S
C341 H349 0.960 . S
C342 C340 1.381 . S
C342 C343 1.394 . S
C342 H350 0.930 . S
C343 C342 1.394 . S
C343 C344 1.383 . S
C343 H351 0.929 . S
C344 C343 1.383 . S
C344 C345 1.377 . S
C345 H329 0.930 . S
C345 C344 1.377 . S
C345 C346 1.379 . S
C346 H330 0.931 . S
C346 C340 1.383 . S
C346 C345 1.379 . S
H347 C341 0.959 . S
H348 C341 0.961 . S
H349 C341 0.960 . S
H350 C342 0.930 . S
H351 C343 0.929 . S
H352 C360 0.929 1_455 S
H353 C362 0.930 1_455 S
H354 C364 0.930 . S
H355 C367 0.929 . S
H356 C370 0.930 . S
H357 C372 0.960 . S
H358 C372 0.960 1_455 S
H359 C372 0.960 . S
C360 H352 0.929 1_655 S
C360 C361 1.377 . S
C360 C362 1.384 . S
C361 C360 1.377 . S
C361 C367 1.390 . S
C362 H353 0.930 1_655 S
C362 C360 1.384 . S
C362 C363 1.372 . S
C363 C362 1.372 . S
C363 C364 1.400 . S
C363 C368 1.490 . S
C364 H354 0.930 . S
C364 C363 1.400 . S
C364 C367 1.386 . S
H365 C381 0.930 . S
H366 C382 0.931 . S
C367 H355 0.929 . S
C367 C361 1.390 . S
C367 C364 1.386 . S
C368 C363 1.490 . S
C368 C370 1.395 1_556 S
C368 C371 1.403 . S
H369 C375 0.930 . S
C370 H356 0.930 . S
C370 C368 1.395 1_554 S
C370 C373 1.403 . S
C371 C368 1.403 . S
C371 C372 1.524 . S
C371 C375 1.400 . S
C372 H357 0.960 . S
C372 H358 0.960 1_655 S
C372 H359 0.960 . S
C372 C371 1.524 . S
C373 C370 1.403 . S
C373 C374 1.392 . S
C373 C377 1.495 . S
C374 C373 1.392 . S
C374 C375 1.385 1_554 S
C374 C376 1.478 . S
C375 H369 0.930 . S
C375 C371 1.400 . S
C375 C374 1.385 1_556 S
C376 C374 1.478 . S
C376 C378 1.381 . S
C376 C382 1.383 . S
C377 C373 1.495 . S
C377 H383 0.959 . S
C377 H384 0.961 . S
C377 H385 0.960 . S
C378 C376 1.381 . S
C378 C379 1.394 . S
C378 H386 0.930 1_655 S
C379 C378 1.394 . S
C379 C380 1.383 . S
C379 H387 0.929 1_655 S
C380 C379 1.383 . S
C380 C381 1.377 . S
C381 H365 0.930 . S
C381 C380 1.377 . S
C381 C382 1.379 . S
C382 H366 0.931 . S
C382 C376 1.383 . S
C382 C381 1.379 . S
H383 C377 0.959 . S
H384 C377 0.961 . S
H385 C377 0.960 . S
H386 C378 0.930 1_455 S
H387 C379 0.929 1_455 S
H388 C396 0.929 . S
H389 C398 0.930 . S
H390 C400 0.930 1_545 S
H391 C403 0.929 1_545 S
H392 C406 0.930 . S
H393 C408 0.960 . S
H394 C408 0.960 . S
H395 C408 0.960 . S
C396 H388 0.929 . S
C396 C397 1.377 . S
C396 C398 1.384 . S
C397 C396 1.377 . S
C397 C403 1.390 . S
C398 H389 0.930 . S
C398 C396 1.384 . S
C398 C399 1.372 . S
C399 C398 1.372 . S
C399 C400 1.400 . S
C399 C404 1.490 . S
C400 H390 0.930 1_565 S
C400 C399 1.400 . S
C400 C403 1.386 . S
H401 C417 0.930 1_545 S
H402 C418 0.931 1_545 S
C403 H391 0.929 1_565 S
C403 C397 1.390 . S
C403 C400 1.386 . S
C404 C399 1.490 . S
C404 C406 1.395 . S
C404 C407 1.403 . S
H405 C411 0.930 . S
C406 H392 0.930 . S
C406 C404 1.395 . S
C406 C409 1.403 . S
C407 C404 1.403 . S
C407 C408 1.524 . S
C407 C411 1.400 . S
C408 H393 0.960 . S
C408 H394 0.960 . S
C408 H395 0.960 . S
C408 C407 1.524 . S
C409 C406 1.403 . S
C409 C410 1.392 . S
C409 C413 1.495 . S
C410 C409 1.392 . S
C410 C411 1.385 . S
C410 C412 1.478 . S
C411 H405 0.930 . S
C411 C407 1.400 . S
C411 C410 1.385 . S
C412 C410 1.478 . S
C412 C414 1.381 . S
C412 C418 1.383 . S
C413 C409 1.495 . S
C413 H419 0.959 . S
C413 H420 0.961 1_565 S
C413 H421 0.960 . S
C414 C412 1.381 . S
C414 C415 1.394 . S
C414 H422 0.930 . S
C415 C414 1.394 . S
C415 C416 1.383 . S
C415 H423 0.929 . S
C416 C415 1.383 . S
C416 C417 1.377 . S
C417 H401 0.930 1_565 S
C417 C416 1.377 . S
C417 C418 1.379 . S
C418 H402 0.931 1_565 S
C418 C412 1.383 . S
C418 C417 1.379 . S
H419 C413 0.959 . S
H420 C413 0.961 1_545 S
H421 C413 0.960 . S
H422 C414 0.930 . S
H423 C415 0.929 . S
H424 C432 0.929 . S
H425 C434 0.930 1_554 S
H426 C436 0.930 . S
H427 C439 0.929 . S
H428 C442 0.930 . S
H429 C444 0.960 . S
H430 C444 0.960 . S
H431 C444 0.960 . S
C432 H424 0.929 . S
C432 C433 1.377 . S
C432 C434 1.384 . S
C433 C432 1.377 . S
C433 C439 1.390 . S
C434 H425 0.930 1_556 S
C434 C432 1.384 . S
C434 C435 1.372 . S
C435 C434 1.372 . S
C435 C436 1.400 . S
C435 C440 1.490 . S
C436 H426 0.930 . S
C436 C435 1.400 . S
C436 C439 1.386 . S
H437 C453 0.930 . S
H438 C454 0.931 1_556 S
C439 H427 0.929 . S
C439 C433 1.390 . S
C439 C436 1.386 . S
C440 C435 1.490 . S
C440 C442 1.395 1_556 S
C440 C443 1.403 . S
H441 C447 0.930 . S
C442 H428 0.930 . S
C442 C440 1.395 1_554 S
C442 C445 1.403 . S
C443 C440 1.403 . S
C443 C444 1.524 . S
C443 C447 1.400 . S
C444 H429 0.960 . S
C444 H430 0.960 . S
C444 H431 0.960 . S
C444 C443 1.524 . S
C445 C442 1.403 . S
C445 C446 1.392 . S
C445 C449 1.495 . S
C446 C445 1.392 . S
C446 C447 1.385 1_554 S
C446 C448 1.478 . S
C447 H441 0.930 . S
C447 C443 1.400 . S
C447 C446 1.385 1_556 S
C448 C446 1.478 . S
C448 C450 1.381 . S
C448 C454 1.383 . S
C449 C445 1.495 . S
C449 H455 0.959 . S
C449 H456 0.961 . S
C449 H457 0.960 . S
C450 C448 1.381 . S
C450 C451 1.394 . S
C450 H458 0.930 . S
C451 C450 1.394 . S
C451 C452 1.383 . S
C451 H459 0.929 . S
C452 C451 1.383 . S
C452 C453 1.377 . S
C453 H437 0.930 . S
C453 C452 1.377 . S
C453 C454 1.379 . S
C454 H438 0.931 1_554 S
C454 C448 1.383 . S
C454 C453 1.379 . S
H455 C449 0.959 . S
H456 C449 0.961 . S
H457 C449 0.960 . S
H458 C450 0.930 . S
H459 C451 0.929 . S
H460 C468 0.929 . S
H461 C470 0.930 . S
H462 C472 0.930 . S
H463 C475 0.929 . S
H464 C478 0.930 . S
H465 C480 0.960 . S
H466 C480 0.960 . S
H467 C480 0.960 . S
C468 H460 0.929 . S
C468 C469 1.377 . S
C468 C470 1.384 . S
C469 C468 1.377 . S
C469 C475 1.390 . S
C470 H461 0.930 . S
C470 C468 1.384 . S
C470 C471 1.372 . S
C471 C470 1.372 . S
C471 C472 1.400 . S
C471 C476 1.490 . S
C472 H462 0.930 . S
C472 C471 1.400 . S
C472 C475 1.386 . S
H473 C489 0.930 . S
H474 C490 0.931 . S
C475 H463 0.929 . S
C475 C469 1.390 . S
C475 C472 1.386 . S
C476 C471 1.490 . S
C476 C478 1.395 . S
C476 C479 1.403 . S
H477 C483 0.930 . S
C478 H464 0.930 . S
C478 C476 1.395 . S
C478 C481 1.403 . S
C479 C476 1.403 . S
C479 C480 1.524 . S
C479 C483 1.400 . S
C480 H465 0.960 . S
C480 H466 0.960 . S
C480 H467 0.960 . S
C480 C479 1.524 . S
C481 C478 1.403 . S
C481 C482 1.392 . S
C481 C485 1.495 . S
C482 C481 1.392 . S
C482 C483 1.385 . S
C482 C484 1.478 . S
C483 H477 0.930 . S
C483 C479 1.400 . S
C483 C482 1.385 . S
C484 C482 1.478 . S
C484 C486 1.381 . S
C484 C490 1.383 . S
C485 C481 1.495 . S
C485 H491 0.959 . S
C485 H492 0.961 . S
C485 H493 0.960 . S
C486 C484 1.381 . S
C486 C487 1.394 . S
C486 H494 0.930 . S
C487 C486 1.394 . S
C487 C488 1.383 . S
C487 H495 0.929 . S
C488 C487 1.383 . S
C488 C489 1.377 . S
C489 H473 0.930 . S
C489 C488 1.377 . S
C489 C490 1.379 . S
C490 H474 0.931 . S
C490 C484 1.383 . S
C490 C489 1.379 . S
H491 C485 0.959 . S
H492 C485 0.961 . S
H493 C485 0.960 . S
H494 C486 0.930 . S
H495 C487 0.929 . S
H496 C504 0.929 1_554 S
H497 C506 0.930 . S
H498 C508 0.930 . S
H499 C511 0.929 1_554 S
H500 C514 0.930 . S
H501 C516 0.960 . S
H502 C516 0.960 . S
H503 C516 0.960 . S
C504 H496 0.929 1_556 S
C504 C505 1.377 1_556 S
C504 C506 1.384 . S
C505 C504 1.377 1_554 S
C505 C511 1.390 1_554 S
C506 H497 0.930 . S
C506 C504 1.384 . S
C506 C507 1.372 . S
C507 C506 1.372 . S
C507 C508 1.400 . S
C507 C512 1.490 . S
C508 H498 0.930 . S
C508 C507 1.400 . S
C508 C511 1.386 . S
H509 C525 0.930 . S
H510 C526 0.931 . S
C511 H499 0.929 1_556 S
C511 C505 1.390 1_556 S
C511 C508 1.386 . S
C512 C507 1.490 . S
C512 C514 1.395 . S
C512 C515 1.403 . S
H513 C519 0.930 . S
C514 H500 0.930 . S
C514 C512 1.395 . S
C514 C517 1.403 . S
C515 C512 1.403 . S
C515 C516 1.524 . S
C515 C519 1.400 . S
C516 H501 0.960 . S
C516 H502 0.960 . S
C516 H503 0.960 . S
C516 C515 1.524 . S
C517 C514 1.403 . S
C517 C518 1.392 . S
C517 C521 1.495 . S
C518 C517 1.392 . S
C518 C519 1.385 . S
C518 C520 1.478 . S
C519 H513 0.930 . S
C519 C515 1.400 . S
C519 C518 1.385 . S
C520 C518 1.478 . S
C520 C522 1.381 . S
C520 C526 1.383 . S
C521 C517 1.495 . S
C521 H527 0.959 . S
C521 H528 0.961 . S
C521 H529 0.960 . S
C522 C520 1.381 . S
C522 C523 1.394 . S
C522 H530 0.930 . S
C523 C522 1.394 . S
C523 C524 1.383 . S
C523 H531 0.929 . S
C524 C523 1.383 . S
C524 C525 1.377 . S
C525 H509 0.930 . S
C525 C524 1.377 . S
C525 C526 1.379 . S
C526 H510 0.931 . S
C526 C520 1.383 . S
C526 C525 1.379 . S
H527 C521 0.959 . S
H528 C521 0.961 . S
H529 C521 0.960 . S
H530 C522 0.930 . S
H531 C523 0.929 . S
H532 C540 0.929 . S
H533 C542 0.930 . S
H534 C544 0.930 . S
H535 C547 0.929 . S
H536 C550 0.930 . S
H537 C552 0.960 . S
H538 C552 0.960 . S
H539 C552 0.960 . S
C540 H532 0.929 . S
C540 C541 1.377 . S
C540 C542 1.384 . S
C541 C540 1.377 . S
C541 C547 1.390 . S
C542 H533 0.930 . S
C542 C540 1.384 . S
C542 C543 1.372 . S
C543 C542 1.372 . S
C543 C544 1.400 . S
C543 C548 1.490 . S
C544 H534 0.930 . S
C544 C543 1.400 . S
C544 C547 1.386 . S
H545 C561 0.930 . S
H546 C562 0.931 . S
C547 H535 0.929 . S
C547 C541 1.390 . S
C547 C544 1.386 . S
C548 C543 1.490 . S
C548 C550 1.395 . S
C548 C551 1.403 . S
H549 C555 0.930 . S
C550 H536 0.930 . S
C550 C548 1.395 . S
C550 C553 1.403 . S
C551 C548 1.403 . S
C551 C552 1.524 . S
C551 C555 1.400 . S
C552 H537 0.960 . S
C552 H538 0.960 . S
C552 H539 0.960 . S
C552 C551 1.524 . S
C553 C550 1.403 . S
C553 C554 1.392 . S
C553 C557 1.495 . S
C554 C553 1.392 . S
C554 C555 1.385 . S
C554 C556 1.478 . S
C555 H549 0.930 . S
C555 C551 1.400 . S
C555 C554 1.385 . S
C556 C554 1.478 . S
C556 C558 1.381 . S
C556 C562 1.383 . S
C557 C553 1.495 . S
C557 H563 0.959 . S
C557 H564 0.961 . S
C557 H565 0.960 . S
C558 C556 1.381 . S
C558 C559 1.394 . S
C558 H566 0.930 . S
C559 C558 1.394 . S
C559 C560 1.383 . S
C559 H567 0.929 . S
C560 C559 1.383 . S
C560 C561 1.377 . S
C561 H545 0.930 . S
C561 C560 1.377 . S
C561 C562 1.379 . S
C562 H546 0.931 . S
C562 C556 1.383 . S
C562 C561 1.379 . S
H563 C557 0.959 . S
H564 C557 0.961 . S
H565 C557 0.960 . S
H566 C558 0.930 . S
H567 C559 0.929 . S
H568 C576 0.929 1_554 S
H569 C578 0.930 . S
H570 C580 0.930 . S
H571 C583 0.917 1_554 S
H572 C586 0.930 . S
H573 C588 0.960 . S
H574 C588 0.960 . S
H575 C588 0.960 . S
C576 H568 0.929 1_556 S
C576 C577 1.377 1_556 S
C576 C578 1.384 . S
C577 C576 1.377 1_554 S
C577 C583 1.381 1_554 S
C578 H569 0.930 . S
C578 C576 1.384 . S
C578 C579 1.372 . S
C579 C578 1.372 . S
C579 C580 1.400 . S
C579 C584 1.490 . S
C580 H570 0.930 . S
C580 C579 1.400 . S
C580 C583 1.408 . S
H581 C597 0.930 . S
H582 C598 0.931 . S
C583 H571 0.917 1_556 S
C583 C577 1.381 1_556 S
C583 C580 1.408 . S
C584 C579 1.490 . S
C584 C586 1.395 . S
C584 C587 1.403 . S
H585 C591 0.930 . S
C586 H572 0.930 . S
C586 C584 1.395 . S
C586 C589 1.403 . S
C587 C584 1.403 . S
C587 C588 1.524 . S
C587 C591 1.400 . S
C588 H573 0.960 . S
C588 H574 0.960 . S
C588 H575 0.960 . S
C588 C587 1.524 . S
C589 C586 1.403 . S
C589 C590 1.392 . S
C589 C593 1.495 . S
C590 C589 1.392 . S
C590 C591 1.385 . S
C590 C592 1.478 . S
C591 H585 0.930 . S
C591 C587 1.400 . S
C591 C590 1.385 . S
C592 C590 1.478 . S
C592 C594 1.381 . S
C592 C598 1.383 . S
C593 C589 1.495 . S
C593 H599 0.959 . S
C593 H600 0.961 . S
C593 H601 0.960 . S
C594 C592 1.381 . S
C594 C595 1.394 . S
C594 H602 0.930 . S
C595 C594 1.394 . S
C595 C596 1.383 . S
C595 H603 0.929 . S
C596 C595 1.383 . S
C596 C597 1.377 . S
C597 H581 0.930 . S
C597 C596 1.377 . S
C597 C598 1.379 . S
C598 H582 0.931 . S
C598 C592 1.383 . S
C598 C597 1.379 . S
H599 C593 0.959 . S
H600 C593 0.961 . S
H601 C593 0.960 . S
H602 C594 0.930 . S
H603 C595 0.929 . S
H604 C612 0.929 . S
H605 C614 0.930 . S
H606 C616 0.930 . S
H607 C619 0.929 . S
H608 C622 0.930 . S
H609 C624 0.960 . S
H610 C624 0.960 . S
H611 C624 0.960 . S
C612 H604 0.929 . S
C612 C613 1.377 . S
C612 C614 1.384 . S
C613 C612 1.377 . S
C613 C619 1.390 . S
C614 H605 0.930 . S
C614 C612 1.384 . S
C614 C615 1.372 . S
C615 C614 1.372 . S
C615 C616 1.400 . S
C615 C620 1.490 . S
C616 H606 0.930 . S
C616 C615 1.400 . S
C616 C619 1.386 . S
H617 C633 0.930 . S
H618 C634 0.931 . S
C619 H607 0.929 . S
C619 C613 1.390 . S
C619 C616 1.386 . S
C620 C615 1.490 . S
C620 C622 1.395 . S
C620 C623 1.403 . S
H621 C627 0.930 . S
C622 H608 0.930 . S
C622 C620 1.395 . S
C622 C625 1.403 . S
C623 C620 1.403 . S
C623 C624 1.524 . S
C623 C627 1.400 . S
C624 H609 0.960 . S
C624 H610 0.960 . S
C624 H611 0.960 . S
C624 C623 1.524 . S
C625 C622 1.403 . S
C625 C626 1.392 . S
C625 C629 1.495 . S
C626 C625 1.392 . S
C626 C627 1.385 . S
C626 C628 1.478 . S
C627 H621 0.930 . S
C627 C623 1.400 . S
C627 C626 1.385 . S
C628 C626 1.478 . S
C628 C630 1.381 . S
C628 C634 1.383 . S
C629 C625 1.495 . S
C629 H635 0.959 . S
C629 H636 0.961 . S
C629 H637 0.960 . S
C630 C628 1.381 . S
C630 C631 1.394 . S
C630 H638 0.930 . S
C631 C630 1.394 . S
C631 C632 1.383 . S
C631 H639 0.929 . S
C632 C631 1.383 . S
C632 C633 1.377 . S
C633 H617 0.930 . S
C633 C632 1.377 . S
C633 C634 1.379 . S
C634 H618 0.931 . S
C634 C628 1.383 . S
C634 C633 1.379 . S
H635 C629 0.959 . S
H636 C629 0.961 . S
H637 C629 0.960 . S
H638 C630 0.930 . S
H639 C631 0.929 . S
H640 C648 0.929 . S
H641 C650 0.930 . S
H642 C652 0.930 . S
H643 C655 0.929 . S
H644 C658 0.930 . S
H645 C660 0.960 . S
H646 C660 0.960 . S
H647 C660 0.960 . S
C648 H640 0.929 . S
C648 C649 1.377 . S
C648 C650 1.384 . S
C649 C648 1.377 . S
C649 C655 1.390 . S
C650 H641 0.930 . S
C650 C648 1.384 . S
C650 C651 1.372 . S
C651 C650 1.372 . S
C651 C652 1.400 . S
C651 C656 1.490 . S
C652 H642 0.930 . S
C652 C651 1.400 . S
C652 C655 1.386 . S
H653 C669 0.930 . S
H654 C670 0.931 . S
C655 H643 0.929 . S
C655 C649 1.390 . S
C655 C652 1.386 . S
C656 C651 1.490 . S
C656 C658 1.395 . S
C656 C659 1.403 . S
H657 C663 0.930 . S
C658 H644 0.930 . S
C658 C656 1.395 . S
C658 C661 1.403 . S
C659 C656 1.403 . S
C659 C660 1.524 . S
C659 C663 1.400 . S
C660 H645 0.960 . S
C660 H646 0.960 . S
C660 H647 0.960 . S
C660 C659 1.524 . S
C661 C658 1.403 . S
C661 C662 1.392 . S
C661 C665 1.495 . S
C662 C661 1.392 . S
C662 C663 1.385 . S
C662 C664 1.478 . S
C663 H657 0.930 . S
C663 C659 1.400 . S
C663 C662 1.385 . S
C664 C662 1.478 . S
C664 C666 1.381 . S
C664 C670 1.383 . S
C665 C661 1.495 . S
C665 H671 0.959 . S
C665 H672 0.961 . S
C665 H673 0.960 . S
C666 C664 1.381 . S
C666 C667 1.394 . S
C666 H674 0.930 . S
C667 C666 1.394 . S
C667 C668 1.383 1_554 S
C667 H675 0.929 . S
C668 C667 1.383 1_556 S
C668 C669 1.377 . S
C669 H653 0.930 . S
C669 C668 1.377 . S
C669 C670 1.379 1_556 S
C670 H654 0.931 . S
C670 C664 1.383 . S
C670 C669 1.379 1_554 S
H671 C665 0.959 . S
H672 C665 0.961 . S
H673 C665 0.960 . S
H674 C666 0.930 . S
H675 C667 0.929 . S
H676 C684 0.929 . S
H677 C686 0.930 . S
H678 C688 0.930 . S
H679 C691 0.929 . S
H680 C694 0.930 . S
H681 C696 0.960 . S
H682 C696 0.960 . S
H683 C696 0.960 . S
C684 H676 0.929 . S
C684 C685 1.377 . S
C684 C686 1.384 . S
C685 C684 1.377 . S
C685 C691 1.390 . S
C686 H677 0.930 . S
C686 C684 1.384 . S
C686 C687 1.372 . S
C687 C686 1.372 . S
C687 C688 1.400 . S
C687 C692 1.490 . S
C688 H678 0.930 . S
C688 C687 1.400 . S
C688 C691 1.386 . S
H689 C705 0.930 . S
H690 C706 0.931 . S
C691 H679 0.929 . S
C691 C685 1.390 . S
C691 C688 1.386 . S
C692 C687 1.490 . S
C692 C694 1.395 . S
C692 C695 1.403 . S
H693 C699 0.930 . S
C694 H680 0.930 . S
C694 C692 1.395 . S
C694 C697 1.403 . S
C695 C692 1.403 . S
C695 C696 1.524 . S
C695 C699 1.400 . S
C696 H681 0.960 . S
C696 H682 0.960 . S
C696 H683 0.960 . S
C696 C695 1.524 . S
C697 C694 1.403 . S
C697 C698 1.392 . S
C697 C701 1.495 . S
C698 C697 1.392 . S
C698 C699 1.385 . S
C698 C700 1.478 . S
C699 H693 0.930 . S
C699 C695 1.400 . S
C699 C698 1.385 . S
C700 C698 1.478 . S
C700 C702 1.381 . S
C700 C706 1.383 . S
C701 C697 1.495 . S
C701 H707 0.959 . S
C701 H708 0.961 . S
C701 H709 0.960 . S
C702 C700 1.381 . S
C702 C703 1.394 . S
C702 H710 0.930 . S
C703 C702 1.394 . S
C703 C704 1.383 . S
C703 H711 0.929 . S
C704 C703 1.383 . S
C704 C705 1.377 . S
C705 H689 0.930 . S
C705 C704 1.377 . S
C705 C706 1.379 . S
C706 H690 0.931 . S
C706 C700 1.383 . S
C706 C705 1.379 . S
H707 C701 0.959 . S
H708 C701 0.961 . S
H709 C701 0.960 . S
H710 C702 0.930 . S
H711 C703 0.929 . S
H712 C720 0.929 . S
H713 C722 0.930 . S
H714 C724 0.930 . S
H715 C727 0.929 . S
H716 C730 0.930 . S
H717 C732 0.960 . S
H718 C732 0.960 . S
H719 C732 0.960 . S
C720 H712 0.929 . S
C720 C721 1.377 . S
C720 C722 1.384 . S
C721 C720 1.377 . S
C721 C727 1.390 . S
C722 H713 0.930 . S
C722 C720 1.384 . S
C722 C723 1.372 . S
C723 C722 1.372 . S
C723 C724 1.400 . S
C723 C728 1.490 . S
C724 H714 0.930 . S
C724 C723 1.400 . S
C724 C727 1.386 . S
H725 C741 0.930 . S
H726 C742 0.931 . S
C727 H715 0.929 . S
C727 C721 1.390 . S
C727 C724 1.386 . S
C728 C723 1.490 . S
C728 C730 1.395 . S
C728 C731 1.403 . S
H729 C735 0.930 . S
C730 H716 0.930 . S
C730 C728 1.395 . S
C730 C733 1.403 . S
C731 C728 1.403 . S
C731 C732 1.524 . S
C731 C735 1.400 . S
C732 H717 0.960 . S
C732 H718 0.960 . S
C732 H719 0.960 . S
C732 C731 1.524 . S
C733 C730 1.403 . S
C733 C734 1.392 . S
C733 C737 1.495 . S
C734 C733 1.392 . S
C734 C735 1.385 . S
C734 C736 1.478 . S
C735 H729 0.930 . S
C735 C731 1.400 . S
C735 C734 1.385 . S
C736 C734 1.478 . S
C736 C738 1.381 . S
C736 C742 1.383 . S
C737 C733 1.495 . S
C737 H743 0.959 . S
C737 H744 0.961 . S
C737 H745 0.960 . S
C738 C736 1.381 . S
C738 C739 1.394 1_554 S
C738 H746 0.930 . S
C739 C738 1.394 1_556 S
C739 C740 1.383 . S
C739 H747 0.929 . S
C740 C739 1.383 . S
C740 C741 1.377 1_556 S
C741 H725 0.930 . S
C741 C740 1.377 1_554 S
C741 C742 1.379 . S
C742 H726 0.931 . S
C742 C736 1.383 . S
C742 C741 1.379 . S
H743 C737 0.959 . S
H744 C737 0.961 . S
H745 C737 0.960 . S
H746 C738 0.930 . S
H747 C739 0.929 . S
H748 C756 0.929 . S
H749 C758 0.930 . S
H750 C760 0.930 . S
H751 C763 0.929 . S
H752 C766 0.930 . S
H753 C768 0.960 . S
H754 C768 0.960 . S
H755 C768 0.960 . S
C756 H748 0.929 . S
C756 C757 1.377 . S
C756 C758 1.384 . S
C757 C756 1.377 . S
C757 C763 1.390 . S
C758 H749 0.930 . S
C758 C756 1.384 . S
C758 C759 1.372 . S
C759 C758 1.372 . S
C759 C760 1.400 . S
C759 C764 1.490 . S
C760 H750 0.930 . S
C760 C759 1.400 . S
C760 C763 1.386 . S
H761 C777 0.930 . S
H762 C778 0.931 . S
C763 H751 0.929 . S
C763 C757 1.390 . S
C763 C760 1.386 . S
C764 C759 1.490 . S
C764 C766 1.395 . S
C764 C767 1.403 . S
H765 C771 0.930 . S
C766 H752 0.930 . S
C766 C764 1.395 . S
C766 C769 1.403 . S
C767 C764 1.403 . S
C767 C768 1.524 . S
C767 C771 1.400 . S
C768 H753 0.960 . S
C768 H754 0.960 . S
C768 H755 0.960 . S
C768 C767 1.524 . S
C769 C766 1.403 . S
C769 C770 1.392 . S
C769 C773 1.495 . S
C770 C769 1.392 . S
C770 C771 1.385 . S
C770 C772 1.478 . S
C771 H765 0.930 . S
C771 C767 1.400 . S
C771 C770 1.385 . S
C772 C770 1.478 . S
C772 C774 1.381 . S
C772 C778 1.383 . S
C773 C769 1.495 . S
C773 H779 0.959 . S
C773 H780 0.961 . S
C773 H781 0.960 . S
C774 C772 1.381 . S
C774 C775 1.394 . S
C774 H782 0.930 . S
C775 C774 1.394 . S
C775 C776 1.383 . S
C775 H783 0.929 . S
C776 C775 1.383 . S
C776 C777 1.377 . S
C777 H761 0.930 . S
C777 C776 1.377 . S
C777 C778 1.379 . S
C778 H762 0.931 . S
C778 C772 1.383 . S
C778 C777 1.379 . S
H779 C773 0.959 . S
H780 C773 0.961 . S
H781 C773 0.960 . S
H782 C774 0.930 . S
H783 C775 0.929 . S
H784 C792 0.929 . S
H785 C794 0.930 . S
H786 C796 0.930 . S
H787 C799 0.929 . S
H788 C802 0.930 . S
H789 C804 0.960 . S
H790 C804 0.960 . S
H791 C804 0.960 . S
C792 H784 0.929 . S
C792 C793 1.377 . S
C792 C794 1.384 1_556 S
C793 C792 1.377 . S
C793 C799 1.390 1_556 S
C794 H785 0.930 . S
C794 C792 1.384 1_554 S
C794 C795 1.372 . S
C795 C794 1.372 . S
C795 C796 1.400 . S
C795 C800 1.490 . S
C796 H786 0.930 . S
C796 C795 1.400 . S
C796 C799 1.386 . S
H797 C813 0.930 . S
H798 C814 0.931 . S
C799 H787 0.929 . S
C799 C793 1.390 1_554 S
C799 C796 1.386 . S
C800 C795 1.490 . S
C800 C802 1.395 . S
C800 C803 1.403 . S
H801 C807 0.930 . S
C802 H788 0.930 . S
C802 C800 1.395 . S
C802 C805 1.403 . S
C803 C800 1.403 . S
C803 C804 1.524 . S
C803 C807 1.400 . S
C804 H789 0.960 . S
C804 H790 0.960 . S
C804 H791 0.960 . S
C804 C803 1.524 . S
C805 C802 1.403 . S
C805 C806 1.392 . S
C805 C809 1.495 . S
C806 C805 1.392 . S
C806 C807 1.385 . S
C806 C808 1.478 . S
C807 H801 0.930 . S
C807 C803 1.400 . S
C807 C806 1.385 . S
C808 C806 1.478 . S
C808 C810 1.381 . S
C808 C814 1.383 . S
C809 C805 1.495 . S
C809 H815 0.959 . S
C809 H816 0.961 . S
C809 H817 0.960 . S
C810 C808 1.381 . S
C810 C811 1.394 . S
C810 H818 0.930 . S
C811 C810 1.394 . S
C811 C812 1.383 . S
C811 H819 0.929 . S
C812 C811 1.383 . S
C812 C813 1.377 . S
C813 H797 0.930 . S
C813 C812 1.377 . S
C813 C814 1.379 . S
C814 H798 0.931 . S
C814 C808 1.383 . S
C814 C813 1.379 . S
H815 C809 0.959 . S
H816 C809 0.961 . S
H817 C809 0.960 . S
H818 C810 0.930 . S
H819 C811 0.929 . S
H820 C828 0.929 . S
H821 C830 0.930 . S
H822 C832 0.930 . S
H823 C835 0.929 . S
H824 C838 0.930 . S
H825 C840 0.960 . S
H826 C840 0.960 . S
H827 C840 0.960 . S
C828 H820 0.929 . S
C828 C829 1.377 . S
C828 C830 1.384 . S
C829 C828 1.377 . S
C829 C835 1.390 . S
C830 H821 0.930 . S
C830 C828 1.384 . S
C830 C831 1.372 . S
C831 C830 1.372 . S
C831 C832 1.400 . S
C831 C836 1.490 . S
C832 H822 0.930 . S
C832 C831 1.400 . S
C832 C835 1.386 . S
H833 C849 0.930 . S
H834 C850 0.931 . S
C835 H823 0.929 . S
C835 C829 1.390 . S
C835 C832 1.386 . S
C836 C831 1.490 . S
C836 C838 1.395 . S
C836 C839 1.403 . S
H837 C843 0.930 . S
C838 H824 0.930 . S
C838 C836 1.395 . S
C838 C841 1.403 . S
C839 C836 1.403 . S
C839 C840 1.524 . S
C839 C843 1.400 . S
C840 H825 0.960 . S
C840 H826 0.960 . S
C840 H827 0.960 . S
C840 C839 1.524 . S
C841 C838 1.403 . S
C841 C842 1.392 . S
C841 C845 1.495 . S
C842 C841 1.392 . S
C842 C843 1.385 . S
C842 C844 1.478 . S
C843 H837 0.930 . S
C843 C839 1.400 . S
C843 C842 1.385 . S
C844 C842 1.478 . S
C844 C846 1.381 . S
C844 C850 1.383 . S
C845 C841 1.495 . S
C845 H851 0.959 . S
C845 H852 0.961 . S
C845 H853 0.960 . S
C846 C844 1.381 . S
C846 C847 1.394 . S
C846 H854 0.930 . S
C847 C846 1.394 . S
C847 C848 1.383 . S
C847 H855 0.929 . S
C848 C847 1.383 . S
C848 C849 1.377 . S
C849 H833 0.930 . S
C849 C848 1.377 . S
C849 C850 1.379 . S
C850 H834 0.931 . S
C850 C844 1.383 . S
C850 C849 1.379 . S
H851 C845 0.959 . S
H852 C845 0.961 . S
H853 C845 0.960 . S
H854 C846 0.930 . S
H855 C847 0.929 . S
H856 C864 0.929 . S
H857 C866 0.930 . S
H858 C868 0.930 . S
H859 C871 0.929 . S
H860 C874 0.930 . S
H861 C876 0.960 . S
H862 C876 0.960 . S
H863 C876 0.960 . S
C864 H856 0.929 . S
C864 C865 1.377 . S
C864 C866 1.384 . S
C865 C864 1.377 . S
C865 C871 1.390 . S
C866 H857 0.930 . S
C866 C864 1.384 . S
C866 C867 1.372 . S
C867 C866 1.372 . S
C867 C868 1.400 . S
C867 C872 1.490 . S
C868 H858 0.930 . S
C868 C867 1.400 . S
C868 C871 1.386 . S
H869 C885 0.930 . S
H870 C886 0.931 . S
C871 H859 0.929 . S
C871 C865 1.390 . S
C871 C868 1.386 . S
C872 C867 1.490 . S
C872 C874 1.395 . S
C872 C875 1.403 . S
H873 C879 0.930 . S
C874 H860 0.930 . S
C874 C872 1.395 . S
C874 C877 1.403 . S
C875 C872 1.403 . S
C875 C876 1.524 . S
C875 C879 1.400 . S
C876 H861 0.960 . S
C876 H862 0.960 . S
C876 H863 0.960 . S
C876 C875 1.524 . S
C877 C874 1.403 . S
C877 C878 1.392 . S
C877 C881 1.495 . S
C878 C877 1.392 . S
C878 C879 1.385 . S
C878 C880 1.478 . S
C879 H873 0.930 . S
C879 C875 1.400 . S
C879 C878 1.385 . S
C880 C878 1.478 . S
C880 C882 1.381 . S
C880 C886 1.383 . S
C881 C877 1.495 . S
C881 H887 0.959 . S
C881 H888 0.961 . S
C881 H889 0.960 . S
C882 C880 1.381 . S
C882 C883 1.394 1_554 S
C882 H890 0.930 . S
C883 C882 1.394 1_556 S
C883 C884 1.383 . S
C883 H891 0.929 . S
C884 C883 1.383 . S
C884 C885 1.377 1_556 S
C885 H869 0.930 . S
C885 C884 1.377 1_554 S
C885 C886 1.379 . S
C886 H870 0.931 . S
C886 C880 1.383 . S
C886 C885 1.379 . S
H887 C881 0.959 . S
H888 C881 0.961 . S
H889 C881 0.960 . S
H890 C882 0.930 . S
H891 C883 0.929 . S
H892 C900 0.929 . S
H893 C902 0.930 . S
H894 C904 0.930 . S
H895 C907 0.929 . S
H896 C910 0.930 . S
H897 C912 0.960 . S
H898 C912 0.960 . S
H899 C912 0.960 . S
C900 H892 0.929 . S
C900 C901 1.377 . S
C900 C902 1.384 . S
C901 C900 1.377 . S
C901 C907 1.390 . S
C902 H893 0.930 . S
C902 C900 1.384 . S
C902 C903 1.372 . S
C903 C902 1.372 . S
C903 C904 1.400 . S
C903 C908 1.490 . S
C904 H894 0.930 . S
C904 C903 1.400 . S
C904 C907 1.386 . S
H905 C921 0.930 . S
H906 C922 0.931 . S
C907 H895 0.929 . S
C907 C901 1.390 . S
C907 C904 1.386 . S
C908 C903 1.490 . S
C908 C910 1.395 . S
C908 C911 1.403 . S
H909 C915 0.930 . S
C910 H896 0.930 . S
C910 C908 1.395 . S
C910 C913 1.403 . S
C911 C908 1.403 . S
C911 C912 1.524 . S
C911 C915 1.400 . S
C912 H897 0.960 . S
C912 H898 0.960 . S
C912 H899 0.960 . S
C912 C911 1.524 . S
C913 C910 1.403 . S
C913 C914 1.392 . S
C913 C917 1.495 . S
C914 C913 1.392 . S
C914 C915 1.385 . S
C914 C916 1.478 . S
C915 H909 0.930 . S
C915 C911 1.400 . S
C915 C914 1.385 . S
C916 C914 1.478 . S
C916 C918 1.381 . S
C916 C922 1.383 . S
C917 C913 1.495 . S
C917 H923 0.959 . S
C917 H924 0.961 . S
C917 H925 0.960 . S
C918 C916 1.381 . S
C918 C919 1.394 . S
C918 H926 0.930 . S
C919 C918 1.394 . S
C919 C920 1.383 . S
C919 H927 0.929 . S
C920 C919 1.383 . S
C920 C921 1.377 . S
C921 H905 0.930 . S
C921 C920 1.377 . S
C921 C922 1.379 . S
C922 H906 0.931 . S
C922 C916 1.383 . S
C922 C921 1.379 . S
H923 C917 0.959 . S
H924 C917 0.961 . S
H925 C917 0.960 . S
H926 C918 0.930 . S
H927 C919 0.929 . S
H928 C936 0.929 . S
H929 C938 0.930 . S
H930 C940 0.930 . S
H931 C943 0.929 . S
H932 C946 0.930 . S
H933 C948 0.960 . S
H934 C948 0.960 . S
H935 C948 0.960 . S
C936 H928 0.929 . S
C936 C937 1.377 . S
C936 C938 1.384 . S
C937 C936 1.377 . S
C937 C943 1.390 . S
C938 H929 0.930 . S
C938 C936 1.384 . S
C938 C939 1.372 . S
C939 C938 1.372 . S
C939 C940 1.400 . S
C939 C944 1.490 . S
C940 H930 0.930 . S
C940 C939 1.400 . S
C940 C943 1.386 . S
H941 C957 0.930 . S
H942 C958 0.931 . S
C943 H931 0.929 . S
C943 C937 1.390 . S
C943 C940 1.386 . S
C944 C939 1.490 . S
C944 C946 1.395 . S
C944 C947 1.403 . S
H945 C951 0.930 . S
C946 H932 0.930 . S
C946 C944 1.395 . S
C946 C949 1.403 . S
C947 C944 1.403 . S
C947 C948 1.524 . S
C947 C951 1.400 . S
C948 H933 0.960 . S
C948 H934 0.960 . S
C948 H935 0.960 . S
C948 C947 1.524 . S
C949 C946 1.403 . S
C949 C950 1.392 . S
C949 C953 1.495 . S
C950 C949 1.392 . S
C950 C951 1.385 . S
C950 C952 1.478 . S
C951 H945 0.930 . S
C951 C947 1.400 . S
C951 C950 1.385 . S
C952 C950 1.478 . S
C952 C954 1.381 . S
C952 C958 1.383 . S
C953 C949 1.495 . S
C953 H959 0.959 . S
C953 H960 0.961 . S
C953 H961 0.960 . S
C954 C952 1.381 . S
C954 C955 1.394 1_556 S
C954 H962 0.930 . S
C955 C954 1.394 1_554 S
C955 C956 1.383 . S
C955 H963 0.929 . S
C956 C955 1.383 . S
C956 C957 1.377 1_554 S
C957 H941 0.930 . S
C957 C956 1.377 1_556 S
C957 C958 1.379 . S
C958 H942 0.931 . S
C958 C952 1.383 . S
C958 C957 1.379 . S
H959 C953 0.959 . S
H960 C953 0.961 . S
H961 C953 0.960 . S
H962 C954 0.930 . S
H963 C955 0.929 . S
H964 C972 0.929 . S
H965 C974 0.930 . S
H966 C976 0.930 . S
H967 C979 0.929 . S
H968 C982 0.930 . S
H969 C984 0.960 . S
H970 C984 0.960 . S
H971 C984 0.960 . S
C972 H964 0.929 . S
C972 C973 1.377 . S
C972 C974 1.384 . S
C973 C972 1.377 . S
C973 C979 1.390 . S
C974 H965 0.930 . S
C974 C972 1.384 . S
C974 C975 1.372 . S
C975 C974 1.372 . S
C975 C976 1.400 . S
C975 C980 1.490 . S
C976 H966 0.930 . S
C976 C975 1.400 . S
C976 C979 1.386 . S
H977 C993 0.930 . S
H978 C994 0.931 . S
C979 H967 0.929 . S
C979 C973 1.390 . S
C979 C976 1.386 . S
C980 C975 1.490 . S
C980 C982 1.395 . S
C980 C983 1.403 . S
H981 C987 0.930 . S
C982 H968 0.930 . S
C982 C980 1.395 . S
C982 C985 1.403 . S
C983 C980 1.403 . S
C983 C984 1.524 . S
C983 C987 1.400 . S
C984 H969 0.960 . S
C984 H970 0.960 . S
C984 H971 0.960 . S
C984 C983 1.524 . S
C985 C982 1.403 . S
C985 C986 1.392 . S
C985 C989 1.495 . S
C986 C985 1.392 . S
C986 C987 1.385 . S
C986 C988 1.478 . S
C987 H981 0.930 . S
C987 C983 1.400 . S
C987 C986 1.385 . S
C988 C986 1.478 . S
C988 C990 1.381 . S
C988 C994 1.383 . S
C989 C985 1.495 . S
C989 H995 0.959 . S
C989 H996 0.961 . S
C989 H997 0.960 . S
C990 C988 1.381 . S
C990 C991 1.394 . S
C990 H998 0.930 . S
C991 C990 1.394 . S
C991 C992 1.383 . S
C991 H999 0.929 . S
C992 C991 1.383 . S
C992 C993 1.377 . S
C993 H977 0.930 . S
C993 C992 1.377 . S
C993 C994 1.379 . S
C994 H978 0.931 . S
C994 C988 1.383 . S
C994 C993 1.379 . S
H995 C989 0.959 . S
H996 C989 0.961 . S
H997 C989 0.960 . S
H998 C990 0.930 . S
H999 C991 0.929 . S
H1000 C1008 0.929 . S
H1001 C1010 0.930 . S
H1002 C1012 0.930 . S
H1003 C1015 0.929 . S
H1004 C1018 0.930 . S
H1005 C1020 0.960 . S
H1006 C1020 0.960 . S
H1007 C1020 0.960 . S
C1008 H1000 0.929 . S
C1008 C1009 1.377 1_556 S
C1008 C1010 1.384 . S
C1009 C1008 1.377 1_554 S
C1009 C1015 1.390 . S
C1010 H1001 0.930 . S
C1010 C1008 1.384 . S
C1010 C1011 1.372 . S
C1011 C1010 1.372 . S
C1011 C1012 1.400 . S
C1011 C1016 1.490 . S
C1012 H1002 0.930 . S
C1012 C1011 1.400 . S
C1012 C1015 1.386 1_556 S
H1013 C1029 0.930 . S
H1014 C1030 0.931 . S
C1015 H1003 0.929 . S
C1015 C1009 1.390 . S
C1015 C1012 1.386 1_554 S
C1016 C1011 1.490 . S
C1016 C1018 1.395 . S
C1016 C1019 1.403 . S
H1017 C1023 0.930 . S
C1018 H1004 0.930 . S
C1018 C1016 1.395 . S
C1018 C1021 1.403 . S
C1019 C1016 1.403 . S
C1019 C1020 1.524 . S
C1019 C1023 1.400 . S
C1020 H1005 0.960 . S
C1020 H1006 0.960 . S
C1020 H1007 0.960 . S
C1020 C1019 1.524 . S
C1021 C1018 1.403 . S
C1021 C1022 1.392 . S
C1021 C1025 1.495 . S
C1022 C1021 1.392 . S
C1022 C1023 1.385 . S
C1022 C1024 1.478 . S
C1023 H1017 0.930 . S
C1023 C1019 1.400 . S
C1023 C1022 1.385 . S
C1024 C1022 1.478 . S
C1024 C1026 1.381 . S
C1024 C1030 1.383 . S
C1025 C1021 1.495 . S
C1025 H1031 0.959 . S
C1025 H1032 0.961 . S
C1025 H1033 0.960 . S
C1026 C1024 1.381 . S
C1026 C1027 1.394 . S
C1026 H1034 0.930 . S
C1027 C1026 1.394 . S
C1027 C1028 1.383 . S
C1027 H1035 0.929 . S
C1028 C1027 1.383 . S
C1028 C1029 1.377 . S
C1029 H1013 0.930 . S
C1029 C1028 1.377 . S
C1029 C1030 1.379 . S
C1030 H1014 0.931 . S
C1030 C1024 1.383 . S
C1030 C1029 1.379 . S
H1031 C1025 0.959 . S
H1032 C1025 0.961 . S
H1033 C1025 0.960 . S
H1034 C1026 0.930 . S
H1035 C1027 0.929 . S
H1036 C1044 0.929 . S
H1037 C1046 0.930 . S
H1038 C1048 0.930 . S
H1039 C1051 0.929 . S
H1040 C1054 0.930 . S
H1041 C1056 0.960 . S
H1042 C1056 0.960 . S
H1043 C1056 0.960 . S
C1044 H1036 0.929 . S
C1044 C1045 1.377 . S
C1044 C1046 1.384 . S
C1045 C1044 1.377 . S
C1045 C1051 1.390 . S
C1046 H1037 0.930 . S
C1046 C1044 1.384 . S
C1046 C1047 1.372 . S
C1047 C1046 1.372 . S
C1047 C1048 1.400 . S
C1047 C1052 1.490 . S
C1048 H1038 0.930 . S
C1048 C1047 1.400 . S
C1048 C1051 1.386 . S
H1049 C1065 0.930 . S
H1050 C1066 0.931 . S
C1051 H1039 0.929 . S
C1051 C1045 1.390 . S
C1051 C1048 1.386 . S
C1052 C1047 1.490 . S
C1052 C1054 1.395 . S
C1052 C1055 1.403 . S
H1053 C1059 0.930 . S
C1054 H1040 0.930 . S
C1054 C1052 1.395 . S
C1054 C1057 1.403 . S
C1055 C1052 1.403 . S
C1055 C1056 1.524 . S
C1055 C1059 1.400 . S
C1056 H1041 0.960 . S
C1056 H1042 0.960 . S
C1056 H1043 0.960 . S
C1056 C1055 1.524 . S
C1057 C1054 1.403 . S
C1057 C1058 1.392 . S
C1057 C1061 1.495 . S
C1058 C1057 1.392 . S
C1058 C1059 1.385 . S
C1058 C1060 1.478 . S
C1059 H1053 0.930 . S
C1059 C1055 1.400 . S
C1059 C1058 1.385 . S
C1060 C1058 1.478 . S
C1060 C1062 1.381 . S
C1060 C1066 1.383 . S
C1061 C1057 1.495 . S
C1061 H1067 0.959 . S
C1061 H1068 0.961 . S
C1061 H1069 0.960 . S
C1062 C1060 1.381 . S
C1062 C1063 1.394 . S
C1062 H1070 0.930 . S
C1063 C1062 1.394 . S
C1063 C1064 1.383 . S
C1063 H1071 0.929 . S
C1064 C1063 1.383 . S
C1064 C1065 1.377 . S
C1065 H1049 0.930 . S
C1065 C1064 1.377 . S
C1065 C1066 1.379 . S
C1066 H1050 0.931 . S
C1066 C1060 1.383 . S
C1066 C1065 1.379 . S
H1067 C1061 0.959 . S
H1068 C1061 0.961 . S
H1069 C1061 0.960 . S
H1070 C1062 0.930 . S
H1071 C1063 0.929 . S
H1072 C1080 0.929 . S
H1073 C1082 0.930 . S
H1074 C1084 0.930 . S
H1075 C1087 0.929 . S
H1076 C1090 0.930 . S
H1077 C1092 0.960 . S
H1078 C1092 0.960 . S
H1079 C1092 0.960 . S
C1080 H1072 0.929 . S
C1080 C1081 1.377 . S
C1080 C1082 1.384 . S
C1081 C1080 1.377 . S
C1081 C1087 1.390 . S
C1082 H1073 0.930 . S
C1082 C1080 1.384 . S
C1082 C1083 1.372 . S
C1083 C1082 1.372 . S
C1083 C1084 1.400 . S
C1083 C1088 1.490 . S
C1084 H1074 0.930 . S
C1084 C1083 1.400 . S
C1084 C1087 1.386 . S
H1085 C1101 0.930 . S
H1086 C1102 0.931 . S
C1087 H1075 0.929 . S
C1087 C1081 1.390 . S
C1087 C1084 1.386 . S
C1088 C1083 1.490 . S
C1088 C1090 1.395 . S
C1088 C1091 1.403 . S
H1089 C1095 0.930 . S
C1090 H1076 0.930 . S
C1090 C1088 1.395 . S
C1090 C1093 1.403 . S
C1091 C1088 1.403 . S
C1091 C1092 1.524 . S
C1091 C1095 1.400 . S
C1092 H1077 0.960 . S
C1092 H1078 0.960 . S
C1092 H1079 0.960 . S
C1092 C1091 1.524 . S
C1093 C1090 1.403 . S
C1093 C1094 1.392 . S
C1093 C1097 1.495 . S
C1094 C1093 1.392 . S
C1094 C1095 1.385 . S
C1094 C1096 1.478 . S
C1095 H1089 0.930 . S
C1095 C1091 1.400 . S
C1095 C1094 1.385 . S
C1096 C1094 1.478 . S
C1096 C1098 1.381 . S
C1096 C1102 1.383 . S
C1097 C1093 1.495 . S
C1097 H1103 0.959 . S
C1097 H1104 0.961 . S
C1097 H1105 0.960 . S
C1098 C1096 1.381 . S
C1098 C1099 1.394 . S
C1098 H1106 0.930 . S
C1099 C1098 1.394 . S
C1099 C1100 1.383 . S
C1099 H1107 0.929 . S
C1100 C1099 1.383 . S
C1100 C1101 1.377 . S
C1101 H1085 0.930 . S
C1101 C1100 1.377 . S
C1101 C1102 1.379 . S
C1102 H1086 0.931 . S
C1102 C1096 1.383 . S
C1102 C1101 1.379 . S
H1103 C1097 0.959 . S
H1104 C1097 0.961 . S
H1105 C1097 0.960 . S
H1106 C1098 0.930 . S
H1107 C1099 0.929 . S
H1108 C1116 0.929 . S
H1109 C1118 0.930 . S
H1110 C1120 0.930 . S
H1111 C1123 0.929 . S
H1112 C1126 0.930 . S
H1113 C1128 0.960 . S
H1114 C1128 0.960 . S
H1115 C1128 0.960 . S
C1116 H1108 0.929 . S
C1116 C1117 1.377 . S
C1116 C1118 1.384 . S
C1117 C1116 1.377 . S
C1117 C1123 1.390 . S
C1118 H1109 0.930 . S
C1118 C1116 1.384 . S
C1118 C1119 1.372 . S
C1119 C1118 1.372 . S
C1119 C1120 1.400 . S
C1119 C1124 1.490 . S
C1120 H1110 0.930 . S
C1120 C1119 1.400 . S
C1120 C1123 1.386 . S
H1121 C1137 0.930 . S
H1122 C1138 0.931 . S
C1123 H1111 0.929 . S
C1123 C1117 1.390 . S
C1123 C1120 1.386 . S
C1124 C1119 1.490 . S
C1124 C1126 1.395 . S
C1124 C1127 1.403 . S
H1125 C1131 0.930 . S
C1126 H1112 0.930 . S
C1126 C1124 1.395 . S
C1126 C1129 1.403 . S
C1127 C1124 1.403 . S
C1127 C1128 1.524 . S
C1127 C1131 1.400 . S
C1128 H1113 0.960 . S
C1128 H1114 0.960 . S
C1128 H1115 0.960 . S
C1128 C1127 1.524 . S
C1129 C1126 1.403 . S
C1129 C1130 1.392 . S
C1129 C1133 1.495 . S
C1130 C1129 1.392 . S
C1130 C1131 1.385 . S
C1130 C1132 1.478 . S
C1131 H1125 0.930 . S
C1131 C1127 1.400 . S
C1131 C1130 1.385 . S
C1132 C1130 1.478 . S
C1132 C1134 1.381 . S
C1132 C1138 1.383 . S
C1133 C1129 1.495 . S
C1133 H1139 0.959 . S
C1133 H1140 0.961 . S
C1133 H1141 0.960 . S
C1134 C1132 1.381 . S
C1134 C1135 1.394 . S
C1134 H1142 0.930 . S
C1135 C1134 1.394 . S
C1135 C1136 1.383 . S
C1135 H1143 0.929 . S
C1136 C1135 1.383 . S
C1136 C1137 1.377 . S
C1137 H1121 0.930 . S
C1137 C1136 1.377 . S
C1137 C1138 1.379 . S
C1138 H1122 0.931 . S
C1138 C1132 1.383 . S
C1138 C1137 1.379 . S
H1139 C1133 0.959 . S
H1140 C1133 0.961 . S
H1141 C1133 0.960 . S
H1142 C1134 0.930 . S
H1143 C1135 0.929 . S
H1144 C1152 0.929 . S
H1145 C1154 0.930 . S
H1146 C1156 0.930 . S
H1147 C1159 0.929 . S
H1148 C1162 0.930 . S
H1149 C1164 0.960 . S
H1150 C1164 0.960 . S
H1151 C1164 0.960 . S
C1152 H1144 0.929 . S
C1152 C1153 1.377 . S
C1152 C1154 1.384 . S
C1153 C1152 1.377 . S
C1153 C1159 1.390 . S
C1154 H1145 0.930 . S
C1154 C1152 1.384 . S
C1154 C1155 1.372 . S
C1155 C1154 1.372 . S
C1155 C1156 1.400 . S
C1155 C1160 1.490 . S
C1156 H1146 0.930 . S
C1156 C1155 1.400 . S
C1156 C1159 1.386 . S
H1157 C1173 0.930 . S
H1158 C1174 0.931 . S
C1159 H1147 0.929 . S
C1159 C1153 1.390 . S
C1159 C1156 1.386 . S
C1160 C1155 1.490 . S
C1160 C1162 1.395 . S
C1160 C1163 1.403 . S
H1161 C1167 0.930 . S
C1162 H1148 0.930 . S
C1162 C1160 1.395 . S
C1162 C1165 1.403 . S
C1163 C1160 1.403 . S
C1163 C1164 1.524 . S
C1163 C1167 1.400 . S
C1164 H1149 0.960 . S
C1164 H1150 0.960 . S
C1164 H1151 0.960 . S
C1164 C1163 1.524 . S
C1165 C1162 1.403 . S
C1165 C1166 1.392 . S
C1165 C1169 1.495 . S
C1166 C1165 1.392 . S
C1166 C1167 1.385 . S
C1166 C1168 1.478 . S
C1167 H1161 0.930 . S
C1167 C1163 1.400 . S
C1167 C1166 1.385 . S
C1168 C1166 1.478 . S
C1168 C1170 1.381 . S
C1168 C1174 1.383 . S
C1169 C1165 1.495 . S
C1169 H1175 0.959 . S
C1169 H1176 0.961 . S
C1169 H1177 0.960 . S
C1170 C1168 1.381 . S
C1170 C1171 1.394 . S
C1170 H1178 0.930 . S
C1171 C1170 1.394 . S
C1171 C1172 1.383 . S
C1171 H1179 0.929 . S
C1172 C1171 1.383 . S
C1172 C1173 1.377 . S
C1173 H1157 0.930 . S
C1173 C1172 1.377 . S
C1173 C1174 1.379 . S
C1174 H1158 0.931 . S
C1174 C1168 1.383 . S
C1174 C1173 1.379 . S
H1175 C1169 0.959 . S
H1176 C1169 0.961 . S
H1177 C1169 0.960 . S
H1178 C1170 0.930 . S
H1179 C1171 0.929 . S
H1180 C1188 0.929 . S
H1181 C1190 0.930 . S
H1182 C1192 0.930 . S
H1183 C1195 0.929 . S
H1184 C1198 0.930 . S
H1185 C1200 0.960 . S
H1186 C1200 0.960 . S
H1187 C1200 0.960 . S
C1188 H1180 0.929 . S
C1188 C1189 1.377 . S
C1188 C1190 1.384 . S
C1189 C1188 1.377 . S
C1189 C1195 1.390 . S
C1190 H1181 0.930 . S
C1190 C1188 1.384 . S
C1190 C1191 1.372 . S
C1191 C1190 1.372 . S
C1191 C1192 1.400 . S
C1191 C1196 1.490 . S
C1192 H1182 0.930 . S
C1192 C1191 1.400 . S
C1192 C1195 1.386 . S
H1193 C1209 0.930 . S
H1194 C1210 0.931 . S
C1195 H1183 0.929 . S
C1195 C1189 1.390 . S
C1195 C1192 1.386 . S
C1196 C1191 1.490 . S
C1196 C1198 1.395 . S
C1196 C1199 1.403 . S
H1197 C1203 0.930 . S
C1198 H1184 0.930 . S
C1198 C1196 1.395 . S
C1198 C1201 1.403 . S
C1199 C1196 1.403 . S
C1199 C1200 1.524 . S
C1199 C1203 1.400 . S
C1200 H1185 0.960 . S
C1200 H1186 0.960 . S
C1200 H1187 0.960 . S
C1200 C1199 1.524 . S
C1201 C1198 1.403 . S
C1201 C1202 1.392 . S
C1201 C1205 1.495 . S
C1202 C1201 1.392 . S
C1202 C1203 1.385 . S
C1202 C1204 1.478 . S
C1203 H1197 0.930 . S
C1203 C1199 1.400 . S
C1203 C1202 1.385 . S
C1204 C1202 1.478 . S
C1204 C1206 1.381 . S
C1204 C1210 1.383 . S
C1205 C1201 1.495 . S
C1205 H1211 0.959 . S
C1205 H1212 0.961 . S
C1205 H1213 0.960 . S
C1206 C1204 1.381 . S
C1206 C1207 1.394 . S
C1206 H1214 0.930 . S
C1207 C1206 1.394 . S
C1207 C1208 1.383 . S
C1207 H1215 0.929 . S
C1208 C1207 1.383 . S
C1208 C1209 1.377 . S
C1209 H1193 0.930 . S
C1209 C1208 1.377 . S
C1209 C1210 1.379 . S
C1210 H1194 0.931 . S
C1210 C1204 1.383 . S
C1210 C1209 1.379 . S
H1211 C1205 0.959 . S
H1212 C1205 0.961 . S
H1213 C1205 0.960 . S
H1214 C1206 0.930 . S
H1215 C1207 0.929 . S
H1216 C1224 0.929 . S
H1217 C1226 0.930 . S
H1218 C1228 0.930 . S
H1219 C1231 0.929 . S
H1220 C1234 0.930 . S
H1221 C1236 0.960 . S
H1222 C1236 0.960 . S
H1223 C1236 0.960 . S
C1224 H1216 0.929 . S
C1224 C1225 1.377 . S
C1224 C1226 1.384 . S
C1225 C1224 1.377 . S
C1225 C1231 1.390 . S
C1226 H1217 0.930 . S
C1226 C1224 1.384 . S
C1226 C1227 1.372 . S
C1227 C1226 1.372 . S
C1227 C1228 1.400 . S
C1227 C1232 1.490 . S
C1228 H1218 0.930 . S
C1228 C1227 1.400 . S
C1228 C1231 1.386 . S
H1229 C1245 0.930 . S
H1230 C1246 0.931 . S
C1231 H1219 0.929 . S
C1231 C1225 1.390 . S
C1231 C1228 1.386 . S
C1232 C1227 1.490 . S
C1232 C1234 1.395 . S
C1232 C1235 1.403 . S
H1233 C1239 0.930 . S
C1234 H1220 0.930 . S
C1234 C1232 1.395 . S
C1234 C1237 1.403 . S
C1235 C1232 1.403 . S
C1235 C1236 1.524 . S
C1235 C1239 1.400 . S
C1236 H1221 0.960 . S
C1236 H1222 0.960 . S
C1236 H1223 0.960 . S
C1236 C1235 1.524 . S
C1237 C1234 1.403 . S
C1237 C1238 1.392 . S
C1237 C1241 1.495 . S
C1238 C1237 1.392 . S
C1238 C1239 1.385 . S
C1238 C1240 1.478 . S
C1239 H1233 0.930 . S
C1239 C1235 1.400 . S
C1239 C1238 1.385 . S
C1240 C1238 1.478 . S
C1240 C1242 1.381 . S
C1240 C1246 1.383 . S
C1241 C1237 1.495 . S
C1241 H1247 0.959 . S
C1241 H1248 0.961 . S
C1241 H1249 0.960 . S
C1242 C1240 1.381 . S
C1242 C1243 1.394 . S
C1242 H1250 0.930 . S
C1243 C1242 1.394 . S
C1243 C1244 1.383 . S
C1243 H1251 0.929 . S
C1244 C1243 1.383 . S
C1244 C1245 1.377 . S
C1245 H1229 0.930 . S
C1245 C1244 1.377 . S
C1245 C1246 1.379 . S
C1246 H1230 0.931 . S
C1246 C1240 1.383 . S
C1246 C1245 1.379 . S
H1247 C1241 0.959 . S
H1248 C1241 0.961 . S
H1249 C1241 0.960 . S
H1250 C1242 0.930 . S
H1251 C1243 0.929 . S
H1252 C1260 0.929 . S
H1253 C1262 0.930 . S
H1254 C1264 0.930 . S
H1255 C1267 0.929 . S
H1256 C1270 0.930 . S
H1257 C1272 0.960 . S
H1258 C1272 0.960 . S
H1259 C1272 0.960 . S
C1260 H1252 0.929 . S
C1260 C1261 1.377 . S
C1260 C1262 1.384 . S
C1261 C1260 1.377 . S
C1261 C1267 1.390 . S
C1262 H1253 0.930 . S
C1262 C1260 1.384 . S
C1262 C1263 1.372 . S
C1263 C1262 1.372 . S
C1263 C1264 1.400 . S
C1263 C1268 1.490 . S
C1264 H1254 0.930 . S
C1264 C1263 1.400 . S
C1264 C1267 1.386 . S
H1265 C1281 0.930 . S
H1266 C1282 0.931 . S
C1267 H1255 0.929 . S
C1267 C1261 1.390 . S
C1267 C1264 1.386 . S
C1268 C1263 1.490 . S
C1268 C1270 1.395 . S
C1268 C1271 1.403 . S
H1269 C1275 0.930 . S
C1270 H1256 0.930 . S
C1270 C1268 1.395 . S
C1270 C1273 1.403 . S
C1271 C1268 1.403 . S
C1271 C1272 1.524 . S
C1271 C1275 1.400 . S
C1272 H1257 0.960 . S
C1272 H1258 0.960 . S
C1272 H1259 0.960 . S
C1272 C1271 1.524 . S
C1273 C1270 1.403 . S
C1273 C1274 1.392 . S
C1273 C1277 1.495 . S
C1274 C1273 1.392 . S
C1274 C1275 1.385 . S
C1274 C1276 1.478 . S
C1275 H1269 0.930 . S
C1275 C1271 1.400 . S
C1275 C1274 1.385 . S
C1276 C1274 1.478 . S
C1276 C1278 1.381 . S
C1276 C1282 1.383 . S
C1277 C1273 1.495 . S
C1277 H1283 0.959 . S
C1277 H1284 0.961 . S
C1277 H1285 0.960 . S
C1278 C1276 1.381 . S
C1278 C1279 1.394 . S
C1278 H1286 0.930 . S
C1279 C1278 1.394 . S
C1279 C1280 1.383 . S
C1279 H1287 0.929 . S
C1280 C1279 1.383 . S
C1280 C1281 1.377 . S
C1281 H1265 0.930 . S
C1281 C1280 1.377 . S
C1281 C1282 1.379 . S
C1282 H1266 0.931 . S
C1282 C1276 1.383 . S
C1282 C1281 1.379 . S
H1283 C1277 0.959 . S
H1284 C1277 0.961 . S
H1285 C1277 0.960 . S
H1286 C1278 0.930 . S
H1287 C1279 0.929 . S
H1288 C1296 0.929 . S
H1289 C1298 0.930 . S
H1290 C1300 0.930 . S
H1291 C1303 0.929 . S
H1292 C1306 0.930 . S
H1293 C1308 0.960 . S
H1294 C1308 0.960 . S
H1295 C1308 0.960 . S
C1296 H1288 0.929 . S
C1296 C1297 1.377 . S
C1296 C1298 1.384 . S
C1297 C1296 1.377 . S
C1297 C1303 1.390 . S
C1298 H1289 0.930 . S
C1298 C1296 1.384 . S
C1298 C1299 1.372 . S
C1299 C1298 1.372 . S
C1299 C1300 1.400 . S
C1299 C1304 1.490 . S
C1300 H1290 0.930 . S
C1300 C1299 1.400 . S
C1300 C1303 1.386 . S
H1301 C1317 0.930 . S
H1302 C1318 0.931 . S
C1303 H1291 0.929 . S
C1303 C1297 1.390 . S
C1303 C1300 1.386 . S
C1304 C1299 1.490 . S
C1304 C1306 1.395 . S
C1304 C1307 1.403 . S
H1305 C1311 0.930 . S
C1306 H1292 0.930 . S
C1306 C1304 1.395 . S
C1306 C1309 1.403 . S
C1307 C1304 1.403 . S
C1307 C1308 1.524 . S
C1307 C1311 1.400 . S
C1308 H1293 0.960 . S
C1308 H1294 0.960 . S
C1308 H1295 0.960 . S
C1308 C1307 1.524 . S
C1309 C1306 1.403 . S
C1309 C1310 1.392 . S
C1309 C1313 1.495 . S
C1310 C1309 1.392 . S
C1310 C1311 1.385 . S
C1310 C1312 1.478 . S
C1311 H1305 0.930 . S
C1311 C1307 1.400 . S
C1311 C1310 1.385 . S
C1312 C1310 1.478 . S
C1312 C1314 1.381 . S
C1312 C1318 1.383 . S
C1313 C1309 1.495 . S
C1313 H1319 0.959 . S
C1313 H1320 0.961 . S
C1313 H1321 0.960 . S
C1314 C1312 1.381 . S
C1314 C1315 1.394 . S
C1314 H1322 0.930 . S
C1315 C1314 1.394 . S
C1315 C1316 1.383 . S
C1315 H1323 0.929 . S
C1316 C1315 1.383 . S
C1316 C1317 1.377 . S
C1317 H1301 0.930 . S
C1317 C1316 1.377 . S
C1317 C1318 1.379 . S
C1318 H1302 0.931 . S
C1318 C1312 1.383 . S
C1318 C1317 1.379 . S
H1319 C1313 0.959 . S
H1320 C1313 0.961 . S
H1321 C1313 0.960 . S
H1322 C1314 0.930 . S
H1323 C1315 0.929 . S
H1324 C1332 0.929 . S
H1325 C1334 0.930 . S
H1326 C1336 0.930 . S
H1327 C1339 0.929 . S
H1328 C1342 0.930 . S
H1329 C1344 0.960 . S
H1330 C1344 0.960 . S
H1331 C1344 0.960 . S
C1332 H1324 0.929 . S
C1332 C1333 1.377 . S
C1332 C1334 1.384 . S
C1333 C1332 1.377 . S
C1333 C1339 1.390 . S
C1334 H1325 0.930 . S
C1334 C1332 1.384 . S
C1334 C1335 1.372 . S
C1335 C1334 1.372 . S
C1335 C1336 1.400 . S
C1335 C1340 1.490 . S
C1336 H1326 0.930 . S
C1336 C1335 1.400 . S
C1336 C1339 1.386 . S
H1337 C1353 0.930 . S
H1338 C1354 0.931 . S
C1339 H1327 0.929 . S
C1339 C1333 1.390 . S
C1339 C1336 1.386 . S
C1340 C1335 1.490 . S
C1340 C1342 1.395 . S
C1340 C1343 1.403 . S
H1341 C1347 0.930 . S
C1342 H1328 0.930 . S
C1342 C1340 1.395 . S
C1342 C1345 1.403 . S
C1343 C1340 1.403 . S
C1343 C1344 1.524 . S
C1343 C1347 1.400 . S
C1344 H1329 0.960 . S
C1344 H1330 0.960 . S
C1344 H1331 0.960 . S
C1344 C1343 1.524 . S
C1345 C1342 1.403 . S
C1345 C1346 1.392 . S
C1345 C1349 1.495 . S
C1346 C1345 1.392 . S
C1346 C1347 1.385 . S
C1346 C1348 1.478 . S
C1347 H1341 0.930 . S
C1347 C1343 1.400 . S
C1347 C1346 1.385 . S
C1348 C1346 1.478 . S
C1348 C1350 1.381 . S
C1348 C1354 1.383 . S
C1349 C1345 1.495 . S
C1349 H1355 0.959 . S
C1349 H1356 0.961 . S
C1349 H1357 0.960 . S
C1350 C1348 1.381 . S
C1350 C1351 1.394 . S
C1350 H1358 0.930 . S
C1351 C1350 1.394 . S
C1351 C1352 1.383 . S
C1351 H1359 0.929 . S
C1352 C1351 1.383 . S
C1352 C1353 1.377 . S
C1353 H1337 0.930 . S
C1353 C1352 1.377 . S
C1353 C1354 1.379 . S
C1354 H1338 0.931 . S
C1354 C1348 1.383 . S
C1354 C1353 1.379 . S
H1355 C1349 0.959 . S
H1356 C1349 0.961 . S
H1357 C1349 0.960 . S
H1358 C1350 0.930 . S
H1359 C1351 0.929 . S
C217 C4 0.933 . S
C236 C56 0.909 . S
C253 C69 0.927 . S
C272 C23 0.930 . S
C289 C36 0.932 . S
C308 C88 0.909 . S
C325 C49 0.925 . S
C344 C101 0.946 . S
C361 C108 0.933 . S
C380 C160 0.930 . S
C397 C173 0.925 . S
C416 C127 0.929 . S
C433 C140 0.931 . S
C452 C192 0.916 . S
C469 C147 0.931 . S
C488 C205 0.914 . S
C505 C10 1.603 . S
C524 C198 1.602 . S
C541 C161 1.609 . S
C560 C17 1.598 . S
C577 C30 1.603 . S
C596 C174 1.604 . S
C613 C185 1.606 . S
C632 C43 1.603 . S
C649 C120 1.608 . S
C668 C62 1.592 . S
C685 C133 1.608 . S
C704 C75 1.593 . S
C721 C148 1.606 . S
C740 C82 1.601 . S
C757 C109 1.606 . S
C776 C95 1.604 . S
C793 C114 1.603 . S
C812 C94 1.607 . S
C829 C57 1.606 . S
C848 C121 1.608 . S
C865 C70 1.609 . S
C884 C134 1.594 . S
C901 C153 1.603 . S
C920 C81 1.606 . S
C937 C16 1.609 . S
C956 C166 1.596 . S
C973 C179 1.605 . S
C992 C29 1.609 . S
C1009 C186 1.606 . S
C1028 C42 1.601 . S
C1045 C199 1.603 . S
C1064 C5 1.605 . S
C1081 C96 1.075 . S
C1100 C3 1.098 . S
C1117 C18 1.075 . S
C1136 C55 1.098 . S
C1153 C31 1.075 . S
C1172 C68 1.077 . S
C1189 C44 1.082 . S
C1208 C83 1.052 . S
C1225 C200 1.079 . S
C1244 C107 1.100 . S
C1261 C159 1.083 . S
C1280 C122 1.052 . S
C1297 C172 1.077 . S
C1316 C135 1.103 . S
C1333 C187 1.076 . S
C1352 C146 1.103 . S
