# Generated by pormake.
# Topology whh, (6)-cn, num edge types: 1
# Building blocks:
#     Node 0, Type 0, BuildingBlock: KUMBOL_clean_sbu_1, # of connection points: 6
#     Node 1, Type 0, BuildingBlock: KUMBOL_clean_sbu_1, # of connection points: 6
#     Node 2, Type 0, BuildingBlock: KUMBOL_clean_sbu_1, # of connection points: 6
#     Node 3, Type 0, BuildingBlock: KUMBOL_clean_sbu_1, # of connection points: 6
#     Node 4, Type 0, BuildingBlock: KUMBOL_clean_sbu_1, # of connection points: 6
#     Node 5, Type 0, BuildingBlock: KUMBOL_clean_sbu_1, # of connection points: 6
#     Node 6, Type 0, BuildingBlock: KUMBOL_clean_sbu_1, # of connection points: 6
#     Node 7, Type 0, BuildingBlock: KUMBOL_clean_sbu_1, # of connection points: 6
#     Node 8, Type 0, BuildingBlock: KUMBOL_clean_sbu_1, # of connection points: 6
#     Node 9, Type 0, BuildingBlock: KUMBOL_clean_sbu_1, # of connection points: 6
#     Node 10, Type 0, BuildingBlock: KUMBOL_clean_sbu_1, # of connection points: 6
#     Node 11, Type 0, BuildingBlock: KUMBOL_clean_sbu_1, # of connection points: 6
#     Node 12, Type 0, BuildingBlock: KUMBOL_clean_sbu_1, # of connection points: 6
#     Node 13, Type 0, BuildingBlock: KUMBOL_clean_sbu_1, # of connection points: 6
#     Node 14, Type 0, BuildingBlock: KUMBOL_clean_sbu_1, # of connection points: 6
#     Node 15, Type 0, BuildingBlock: KUMBOL_clean_sbu_1, # of connection points: 6
#     Edge 16, Type (0, 0), BuildingBlock: UVAHIK_clean_linker_0, # of connection points: 2
#     Edge 17, Type (0, 0), BuildingBlock: UVAHIK_clean_linker_0, # of connection points: 2
#     Edge 18, Type (0, 0), BuildingBlock: UVAHIK_clean_linker_0, # of connection points: 2
#     Edge 19, Type (0, 0), BuildingBlock: UVAHIK_clean_linker_0, # of connection points: 2
#     Edge 20, Type (0, 0), BuildingBlock: UVAHIK_clean_linker_0, # of connection points: 2
#     Edge 21, Type (0, 0), BuildingBlock: UVAHIK_clean_linker_0, # of connection points: 2
#     Edge 22, Type (0, 0), BuildingBlock: UVAHIK_clean_linker_0, # of connection points: 2
#     Edge 23, Type (0, 0), BuildingBlock: UVAHIK_clean_linker_0, # of connection points: 2
#     Edge 24, Type (0, 0), BuildingBlock: UVAHIK_clean_linker_0, # of connection points: 2
#     Edge 25, Type (0, 0), BuildingBlock: UVAHIK_clean_linker_0, # of connection points: 2
#     Edge 26, Type (0, 0), BuildingBlock: UVAHIK_clean_linker_0, # of connection points: 2
#     Edge 27, Type (0, 0), BuildingBlock: UVAHIK_clean_linker_0, # of connection points: 2
#     Edge 28, Type (0, 0), BuildingBlock: UVAHIK_clean_linker_0, # of connection points: 2
#     Edge 29, Type (0, 0), BuildingBlock: UVAHIK_clean_linker_0, # of connection points: 2
#     Edge 30, Type (0, 0), BuildingBlock: UVAHIK_clean_linker_0, # of connection points: 2
#     Edge 31, Type (0, 0), BuildingBlock: UVAHIK_clean_linker_0, # of connection points: 2
#     Edge 32, Type (0, 0), BuildingBlock: UVAHIK_clean_linker_0, # of connection points: 2
#     Edge 33, Type (0, 0), BuildingBlock: UVAHIK_clean_linker_0, # of connection points: 2
#     Edge 34, Type (0, 0), BuildingBlock: UVAHIK_clean_linker_0, # of connection points: 2
#     Edge 35, Type (0, 0), BuildingBlock: UVAHIK_clean_linker_0, # of connection points: 2
#     Edge 36, Type (0, 0), BuildingBlock: UVAHIK_clean_linker_0, # of connection points: 2
#     Edge 37, Type (0, 0), BuildingBlock: UVAHIK_clean_linker_0, # of connection points: 2
#     Edge 38, Type (0, 0), BuildingBlock: UVAHIK_clean_linker_0, # of connection points: 2
#     Edge 39, Type (0, 0), BuildingBlock: UVAHIK_clean_linker_0, # of connection points: 2
#     Edge 40, Type (0, 0), BuildingBlock: UVAHIK_clean_linker_0, # of connection points: 2
#     Edge 41, Type (0, 0), BuildingBlock: UVAHIK_clean_linker_0, # of connection points: 2
#     Edge 42, Type (0, 0), BuildingBlock: UVAHIK_clean_linker_0, # of connection points: 2
#     Edge 43, Type (0, 0), BuildingBlock: UVAHIK_clean_linker_0, # of connection points: 2
#     Edge 44, Type (0, 0), BuildingBlock: UVAHIK_clean_linker_0, # of connection points: 2
#     Edge 45, Type (0, 0), BuildingBlock: UVAHIK_clean_linker_0, # of connection points: 2
#     Edge 46, Type (0, 0), BuildingBlock: UVAHIK_clean_linker_0, # of connection points: 2
#     Edge 47, Type (0, 0), BuildingBlock: UVAHIK_clean_linker_0, # of connection points: 2
#     Edge 48, Type (0, 0), BuildingBlock: UVAHIK_clean_linker_0, # of connection points: 2
#     Edge 49, Type (0, 0), BuildingBlock: UVAHIK_clean_linker_0, # of connection points: 2
#     Edge 50, Type (0, 0), BuildingBlock: UVAHIK_clean_linker_0, # of connection points: 2
#     Edge 51, Type (0, 0), BuildingBlock: UVAHIK_clean_linker_0, # of connection points: 2
#     Edge 52, Type (0, 0), BuildingBlock: UVAHIK_clean_linker_0, # of connection points: 2
#     Edge 53, Type (0, 0), BuildingBlock: UVAHIK_clean_linker_0, # of connection points: 2
#     Edge 54, Type (0, 0), BuildingBlock: UVAHIK_clean_linker_0, # of connection points: 2
#     Edge 55, Type (0, 0), BuildingBlock: UVAHIK_clean_linker_0, # of connection points: 2
#     Edge 56, Type (0, 0), BuildingBlock: UVAHIK_clean_linker_0, # of connection points: 2
#     Edge 57, Type (0, 0), BuildingBlock: UVAHIK_clean_linker_0, # of connection points: 2
#     Edge 58, Type (0, 0), BuildingBlock: UVAHIK_clean_linker_0, # of connection points: 2
#     Edge 59, Type (0, 0), BuildingBlock: UVAHIK_clean_linker_0, # of connection points: 2
#     Edge 60, Type (0, 0), BuildingBlock: UVAHIK_clean_linker_0, # of connection points: 2
#     Edge 61, Type (0, 0), BuildingBlock: UVAHIK_clean_linker_0, # of connection points: 2
#     Edge 62, Type (0, 0), BuildingBlock: UVAHIK_clean_linker_0, # of connection points: 2
#     Edge 63, Type (0, 0), BuildingBlock: UVAHIK_clean_linker_0, # of connection points: 2
# Relax obj value: 0.293
# Max RMSD: 0.291
# Mean RMSD: 0.290
data_MOF--net-whh--node1-KUMBOL_clean_sbu_1--edge1-UVAHIK_clean_linker_0
_symmetry_space_group_name_H-M    P1
_symmetry_Int_Tables_number       1
_symmetry_cell_setting            triclinic
loop_
_symmetry_equiv_pos_as_xyz
'x, y, z'
_cell_length_a     55.129152
_cell_length_b     54.955618
_cell_length_c     53.437242
_cell_angle_alpha  90.230291
_cell_angle_beta   89.993157
_cell_angle_gamma 89.835192
loop_
_atom_site_label
_atom_site_type_symbol
_atom_site_fract_x
_atom_site_fract_y
_atom_site_fract_z
_atom_type_partial_charge
C0 C 0.96215 0.6748 0.12586 0.0
C1 C 0.94972 0.68028 0.08265 0.0
C2 C 0.96188 0.66677 0.10121 0.0
C3 C 0.93876 0.70254 0.08904 0.0
C4 C 0.95058 0.69683 0.13247 0.0
C5 C 0.93933 0.71087 0.11386 0.0
N6 N 0.97258 0.6605 0.14354 0.0
C7 C 0.97053 0.66624 0.16835 0.0
C8 C 0.94997 0.70368 0.15772 0.0
C9 C 0.9597 0.68815 0.17577 0.0
Gd10 Gd 0.06416 0.61538 0.12208 0.0
Gd11 Gd 0.99023 0.6243 0.12882 0.0
N12 N 0.97314 0.64549 0.09543 0.0
C13 C 0.94882 0.67089 0.05825 0.0
C14 C 0.97132 0.63561 0.07203 0.0
C15 C 0.95948 0.64833 0.05298 0.0
H16 H 0.97907 0.61793 0.06812 0.0
H17 H 0.95842 0.64066 0.03433 0.0
H18 H 0.08371 0.63645 0.1784 0.0
H19 H 0.97714 0.65394 0.18253 0.0
H20 H 0.1015 0.61974 0.21687 0.0
H21 H 0.93963 0.6807 0.04346 0.0
H22 H 0.92958 0.71333 0.07498 0.0
H23 H 0.0677 0.57147 0.07967 0.0
H24 H 0.94134 0.72051 0.16355 0.0
H25 H 0.95861 0.6929 0.19541 0.0
H26 H 0.11533 0.53557 0.19759 0.0
H27 H 0.9305 0.72792 0.11857 0.0
H28 H 0.09694 0.50792 0.11457 0.0
H29 H 0.08044 0.52841 0.07705 0.0
N30 N 0.07437 0.57433 0.11865 0.0
C31 C 0.08488 0.56407 0.13904 0.0
C32 C 0.07362 0.56224 0.09636 0.0
C33 C 0.09076 0.52661 0.11592 0.0
C34 C 0.08135 0.53805 0.09473 0.0
C35 C 0.09297 0.53972 0.13835 0.0
H36 H 0.10985 0.51078 0.1596 0.0
N37 N 0.08143 0.60213 0.15993 0.0
C38 C 0.08823 0.57827 0.16037 0.0
C39 C 0.10363 0.58317 0.20242 0.0
C40 C 0.09946 0.56816 0.18166 0.0
C41 C 0.08688 0.61714 0.17954 0.0
C42 C 0.09757 0.60782 0.20123 0.0
O43 O 0.01185 0.64646 0.10068 0.0
O44 O 0.04975 0.6535 0.1172 0.0
O45 O 0.10238 0.62414 0.12463 0.0
O46 O 0.08584 0.61817 0.08834 0.0
O47 O 0.00566 0.59492 0.10457 0.0
O48 O 0.04085 0.61038 0.08767 0.0
O49 O 0.03938 0.58529 0.13504 0.0
O50 O 0.01028 0.60423 0.15896 0.0
O51 O 0.96842 0.59295 0.1185 0.0
O52 O 0.95433 0.61928 0.14489 0.0
O53 O 0.05205 0.64486 0.14938 0.0
O54 O 0.01243 0.63602 0.16261 0.0
C55 C 0.02989 0.66124 0.10602 0.0
C56 C 0.02161 0.59637 0.08648 0.0
C57 C 0.12157 0.64218 0.08936 0.0
C58 C 0.15113 0.67484 0.09315 0.0
C59 C 0.14241 0.65711 0.05246 0.0
C60 C 0.12585 0.64132 0.06346 0.0
C61 C 0.15494 0.67384 0.06717 0.0
C62 C 0.13452 0.65888 0.10428 0.0
C63 C 0.10555 0.62377 0.1005 0.0
C64 C 0.10674 0.54363 0.18137 0.0
C65 C 0.1036 0.52949 0.15974 0.0
H66 H 0.11215 0.57608 0.21915 0.0
C67 C 0.02611 0.58671 0.1553 0.0
C68 C 0.0332 0.64789 0.16446 0.0
C69 C 0.93807 0.57939 0.14634 0.0
C70 C 0.90326 0.55189 0.14964 0.0
C71 C 0.93551 0.55124 0.18097 0.0
C72 C 0.94783 0.56967 0.16833 0.0
C73 C 0.91338 0.54248 0.17183 0.0
C74 C 0.91601 0.57034 0.13696 0.0
C75 C 0.9503 0.5991 0.1328 0.0
H76 H 0.14579 0.65617 0.03253 0.0
H77 H 0.11668 0.62811 0.05173 0.0
H78 H 0.16808 0.68565 0.05833 0.0
H79 H 0.13193 0.6594 0.12438 0.0
H80 H 0.94302 0.54387 0.19806 0.0
H81 H 0.96485 0.57639 0.17574 0.0
H82 H 0.90402 0.52867 0.18247 0.0
H83 H 0.9089 0.57771 0.11966 0.0
C84 C 0.83117 0.95707 0.1186 0.0
C85 C 0.82992 0.94918 0.07395 0.0
C86 C 0.84151 0.95915 0.09511 0.0
C87 C 0.80747 0.93746 0.07679 0.0
C88 C 0.80921 0.94439 0.12175 0.0
C89 C 0.79716 0.93503 0.10065 0.0
N90 N 0.84312 0.96659 0.13853 0.0
C91 C 0.83567 0.96173 0.1623 0.0
C92 C 0.80038 0.94101 0.14606 0.0
C93 C 0.81394 0.94931 0.16646 0.0
Gd94 Gd 0.87969 0.06763 0.1206 0.0
Gd95 Gd 0.87844 0.98844 0.12979 0.0
N96 N 0.86312 0.97077 0.09304 0.0
C97 C 0.84138 0.95111 0.05066 0.0
C98 C 0.87486 0.97193 0.07059 0.0
C99 C 0.86407 0.96231 0.04903 0.0
H100 H 0.89236 0.98053 0.06923 0.0
H101 H 0.87322 0.96359 0.03116 0.0
H102 H 0.86899 0.08841 0.17875 0.0
H103 H 0.84662 0.96727 0.17801 0.0
H104 H 0.88835 0.11573 0.20959 0.0
H105 H 0.83306 0.94372 0.03392 0.0
H106 H 0.79815 0.92985 0.06073 0.0
H107 H 0.91239 0.07255 0.06788 0.0
H108 H 0.78358 0.93134 0.1493 0.0
H109 H 0.80779 0.94597 0.18537 0.0
H110 H 0.95927 0.14513 0.16731 0.0
H111 H 0.7801 0.92548 0.10264 0.0
H112 H 0.97356 0.11794 0.0832 0.0
H113 H 0.95056 0.09161 0.05403 0.0
N114 N 0.91516 0.08567 0.10514 0.0
C115 C 0.92657 0.10144 0.12092 0.0
C116 C 0.92293 0.08291 0.08109 0.0
C117 C 0.95708 0.10917 0.08951 0.0
C118 C 0.94424 0.0942 0.07303 0.0
C119 C 0.9481 0.11328 0.11367 0.0
H120 H 0.97646 0.13808 0.1254 0.0
N121 N 0.89596 0.09395 0.15095 0.0
C122 C 0.91658 0.10593 0.1444 0.0
C123 C 0.91798 0.12507 0.18516 0.0
C124 C 0.92828 0.12161 0.16145 0.0
C125 C 0.88557 0.09759 0.17385 0.0
C126 C 0.89648 0.11308 0.19134 0.0
O127 O 0.85372 0.00796 0.10281 0.0
O128 O 0.84488 0.04587 0.11941 0.0
O129 O 0.85389 0.09676 0.12549 0.0
O130 O 0.8682 0.08895 0.08845 0.0
O131 O 0.90867 0.0048 0.10716 0.0
O132 O 0.89076 0.03953 0.09029 0.0
O133 O 0.90988 0.05801 0.14693 0.0
O134 O 0.89335 0.02417 0.13794 0.0
O135 O 0.90458 0.95888 0.12349 0.0
O136 O 0.89202 0.96804 0.16139 0.0
O137 O 0.8582 0.05165 0.15351 0.0
O138 O 0.86048 0.00916 0.16216 0.0
C139 C 0.83821 0.02484 0.1098 0.0
C140 C 0.90879 0.02343 0.09153 0.0
C141 C 0.85603 0.12973 0.098 0.0
C142 C 0.83776 0.16956 0.10553 0.0
C143 C 0.87325 0.16554 0.07866 0.0
C144 C 0.8736 0.14042 0.0826 0.0
C145 C 0.85543 0.18006 0.08995 0.0
C146 C 0.8384 0.14438 0.10951 0.0
C147 C 0.85483 0.10339 0.10219 0.0
C148 C 0.94997 0.13306 0.15444 0.0
C149 C 0.95981 0.12896 0.13059 0.0
H150 H 0.92646 0.13693 0.19882 0.0
C151 C 0.91044 0.03501 0.15038 0.0
C152 C 0.85319 0.03192 0.16714 0.0
C153 C 0.92018 0.93404 0.15805 0.0
C154 C 0.94691 0.89864 0.15374 0.0
C155 C 0.93717 0.9148 0.19498 0.0
C156 C 0.92257 0.93259 0.18417 0.0
C157 C 0.94931 0.898 0.17993 0.0
C158 C 0.93221 0.91677 0.1428 0.0
C159 C 0.90509 0.95367 0.14727 0.0
H160 H 0.88668 0.17377 0.06661 0.0
H161 H 0.88744 0.12945 0.07357 0.0
H162 H 0.85521 0.19938 0.08607 0.0
H163 H 0.8251 0.136 0.12168 0.0
H164 H 0.93899 0.91396 0.21513 0.0
H165 H 0.91321 0.94534 0.19631 0.0
H166 H 0.96025 0.88411 0.18886 0.0
H167 H 0.93031 0.91747 0.12263 0.0
C168 C 0.41276 0.9283 0.08552 0.0
C169 C 0.40811 0.91094 0.04383 0.0
C170 C 0.41499 0.90863 0.06916 0.0
C171 C 0.39918 0.93329 0.03506 0.0
C172 C 0.40301 0.95053 0.07682 0.0
C173 C 0.39658 0.95299 0.05152 0.0
N174 N 0.41917 0.92546 0.11 0.0
C175 C 0.41448 0.94362 0.12694 0.0
C176 C 0.39931 0.96947 0.09395 0.0
C177 C 0.40475 0.96587 0.11915 0.0
Gd178 Gd 0.5068 0.88117 0.13195 0.0
Gd179 Gd 0.43194 0.88586 0.12111 0.0
N180 N 0.42362 0.88713 0.07809 0.0
C181 C 0.40996 0.89056 0.02814 0.0
C182 C 0.42458 0.86694 0.06313 0.0
C183 C 0.41807 0.86844 0.03788 0.0
H184 H 0.43038 0.84969 0.07072 0.0
H185 H 0.4191 0.85248 0.02598 0.0
H186 H 0.51778 0.91849 0.18179 0.0
H187 H 0.41717 0.94088 0.1467 0.0
H188 H 0.53425 0.91515 0.2244 0.0
H189 H 0.40479 0.89161 0.00861 0.0
H190 H 0.39385 0.93539 0.01567 0.0
H191 H 0.5272 0.83206 0.10254 0.0
H192 H 0.39161 0.98669 0.08805 0.0
H193 H 0.40102 0.98009 0.13269 0.0
H194 H 0.55921 0.83174 0.23109 0.0
H195 H 0.38919 0.96997 0.04457 0.0
H196 H 0.55635 0.78278 0.15673 0.0
H197 H 0.54488 0.79182 0.11296 0.0
N198 N 0.52594 0.844 0.14014 0.0
C199 C 0.53397 0.84032 0.16381 0.0
C200 C 0.53093 0.82756 0.12175 0.0
C201 C 0.54799 0.8001 0.15228 0.0
C202 C 0.54146 0.80509 0.12757 0.0
C203 C 0.54494 0.81809 0.17066 0.0
H204 H 0.56152 0.79786 0.20093 0.0
N205 N 0.52263 0.88086 0.17313 0.0
C206 C 0.53251 0.8594 0.18077 0.0
C207 C 0.54228 0.87692 0.22106 0.0
C208 C 0.5422 0.85673 0.20507 0.0
C209 C 0.52376 0.90092 0.1883 0.0
C210 C 0.53344 0.89921 0.21247 0.0
O211 O 0.45868 0.8943 0.09024 0.0
O212 O 0.48755 0.91244 0.11372 0.0
O213 O 0.541 0.90087 0.13425 0.0
O214 O 0.53082 0.88169 0.09967 0.0
O215 O 0.44885 0.8491 0.11602 0.0
O216 O 0.4878 0.85768 0.10235 0.0
O217 O 0.48447 0.85509 0.15463 0.0
O218 O 0.44486 0.87042 0.15846 0.0
O219 O 0.40328 0.85892 0.11822 0.0
O220 O 0.39572 0.89439 0.13408 0.0
O221 O 0.48798 0.9131 0.14964 0.0
O222 O 0.44566 0.90922 0.1529 0.0
C223 C 0.47654 0.90971 0.09235 0.0
C224 C 0.46972 0.8423 0.10622 0.0
C225 C 0.56946 0.90339 0.09943 0.0
C226 C 0.60475 0.93019 0.09761 0.0
C227 C 0.59756 0.9006 0.06455 0.0
C228 C 0.57663 0.89277 0.07666 0.0
C229 C 0.61146 0.91923 0.07484 0.0
C230 C 0.5838 0.92206 0.1101 0.0
C231 C 0.54666 0.89531 0.11128 0.0
C232 C 0.55201 0.83421 0.2124 0.0
C233 C 0.55331 0.8149 0.19524 0.0
H234 H 0.54974 0.87568 0.23978 0.0
C235 C 0.46296 0.856 0.16537 0.0
C236 C 0.46653 0.91948 0.15847 0.0
C237 C 0.37344 0.86122 0.14972 0.0
C238 C 0.34336 0.83117 0.16145 0.0
C239 C 0.36013 0.8583 0.19293 0.0
C240 C 0.37456 0.86929 0.17471 0.0
C241 C 0.34461 0.83926 0.18639 0.0
C242 C 0.35788 0.84219 0.14327 0.0
C243 C 0.38755 0.87266 0.12971 0.0
H244 H 0.60299 0.89224 0.04704 0.0
H245 H 0.56604 0.87839 0.06813 0.0
H246 H 0.62767 0.92502 0.06508 0.0
H247 H 0.57848 0.93054 0.12761 0.0
H248 H 0.3608 0.86468 0.21211 0.0
H249 H 0.38638 0.88412 0.18012 0.0
H250 H 0.33318 0.83127 0.20063 0.0
H251 H 0.35694 0.83605 0.12397 0.0
C252 C 0.66305 0.54722 0.13193 0.0
C253 C 0.66681 0.56258 0.08969 0.0
C254 C 0.65497 0.54796 0.10752 0.0
C255 C 0.68751 0.57578 0.09674 0.0
C256 C 0.68325 0.56115 0.13939 0.0
C257 C 0.69576 0.57502 0.12154 0.0
N258 N 0.65032 0.53391 0.14867 0.0
C259 C 0.65542 0.53553 0.1736 0.0
C260 C 0.68975 0.56133 0.16471 0.0
C261 C 0.6755 0.54877 0.18196 0.0
Gd262 Gd 0.61461 0.43643 0.1191 0.0
Gd263 Gd 0.61778 0.51093 0.13289 0.0
N264 N 0.63517 0.53472 0.1013 0.0
C265 C 0.65738 0.56356 0.06539 0.0
C266 C 0.62532 0.53629 0.07792 0.0
C267 C 0.6364 0.55051 0.05955 0.0
H268 H 0.60899 0.52646 0.07339 0.0
H269 H 0.62872 0.55144 0.04094 0.0
H270 H 0.63191 0.41925 0.17853 0.0
H271 H 0.64376 0.52686 0.18707 0.0
H272 H 0.61321 0.40053 0.21503 0.0
H273 H 0.66594 0.57456 0.05113 0.0
H274 H 0.69704 0.58691 0.08326 0.0
H275 H 0.57396 0.43152 0.07364 0.0
H276 H 0.70516 0.57178 0.17123 0.0
H277 H 0.67976 0.54956 0.20172 0.0
H278 H 0.53315 0.37958 0.18804 0.0
H279 H 0.71147 0.58566 0.12686 0.0
H280 H 0.51083 0.39667 0.10324 0.0
H281 H 0.53233 0.4158 0.06776 0.0
N282 N 0.5751 0.42288 0.11228 0.0
C283 C 0.56426 0.4112 0.13169 0.0
C284 C 0.56435 0.42388 0.08934 0.0
C285 C 0.52895 0.40379 0.10596 0.0
C286 C 0.54097 0.41468 0.08591 0.0
C287 C 0.54064 0.40177 0.12915 0.0
H288 H 0.51132 0.38324 0.14812 0.0
N289 N 0.59982 0.41808 0.15605 0.0
C290 C 0.57678 0.40911 0.15427 0.0
C291 C 0.57879 0.39492 0.19699 0.0
C292 C 0.56566 0.39748 0.17477 0.0
C293 C 0.6131 0.41431 0.17733 0.0
C294 C 0.60267 0.40311 0.19815 0.0
O295 O 0.64167 0.49372 0.10306 0.0
O296 O 0.65124 0.45464 0.1153 0.0
O297 O 0.62436 0.39843 0.12106 0.0
O298 O 0.62258 0.41606 0.08503 0.0
O299 O 0.59072 0.49576 0.10549 0.0
O300 O 0.60868 0.46213 0.08671 0.0
O301 O 0.58096 0.45683 0.13093 0.0
O302 O 0.60177 0.48155 0.15632 0.0
O303 O 0.589 0.53734 0.12472 0.0
O304 O 0.60034 0.53101 0.16271 0.0
O305 O 0.64238 0.4477 0.14866 0.0
O306 O 0.63834 0.48863 0.16159 0.0
C307 C 0.65766 0.47628 0.10696 0.0
C308 C 0.59337 0.48055 0.08661 0.0
C309 C 0.64959 0.38229 0.08936 0.0
C310 C 0.67966 0.35086 0.09799 0.0
C311 C 0.67918 0.37098 0.05766 0.0
C312 C 0.65934 0.38502 0.06523 0.0
C313 C 0.68943 0.35409 0.07399 0.0
C314 C 0.65965 0.36479 0.10554 0.0
C315 C 0.62792 0.39619 0.09712 0.0
C316 C 0.54194 0.38846 0.17243 0.0
C317 C 0.52951 0.39053 0.14968 0.0
H318 H 0.57085 0.38615 0.21315 0.0
C319 C 0.58126 0.47203 0.14961 0.0
C320 C 0.64742 0.46636 0.16372 0.0
C321 C 0.58564 0.57058 0.15361 0.0
C322 C 0.56657 0.61031 0.14751 0.0
C323 C 0.59604 0.60471 0.1807 0.0
C324 C 0.59898 0.58042 0.17371 0.0
C325 C 0.57988 0.61956 0.16775 0.0
C326 C 0.5694 0.58576 0.14043 0.0
C327 C 0.58701 0.54418 0.14796 0.0
H328 H 0.68654 0.37308 0.03901 0.0
H329 H 0.65152 0.39782 0.05214 0.0
H330 H 0.70469 0.34318 0.06773 0.0
H331 H 0.652 0.36193 0.12398 0.0
H332 H 0.60619 0.612 0.19634 0.0
H333 H 0.61143 0.5693 0.18441 0.0
H334 H 0.57774 0.63837 0.17354 0.0
H335 H 0.55875 0.57846 0.1251 0.0
C336 C 0.95583 0.83312 0.37085 0.0
C337 C 0.94257 0.83141 0.41405 0.0
C338 C 0.95542 0.84298 0.39469 0.0
C339 C 0.93054 0.8094 0.40909 0.0
C340 C 0.94313 0.81149 0.36552 0.0
C341 C 0.93083 0.79946 0.38487 0.0
N342 N 0.96789 0.8452 0.35265 0.0
C343 C 0.96629 0.83789 0.32827 0.0
C344 C 0.94273 0.80296 0.3408 0.0
C345 C 0.95406 0.81644 0.32202 0.0
Gd346 Gd 0.06887 0.8882 0.37285 0.0
Gd347 Gd 0.98907 0.88005 0.36526 0.0
N348 N 0.96749 0.86404 0.3989 0.0
C349 C 0.94222 0.84235 0.43777 0.0
C350 C 0.96685 0.87514 0.42175 0.0
C351 C 0.95429 0.86441 0.44159 0.0
H352 H 0.9763 0.89211 0.42471 0.0
H353 H 0.95399 0.8731 0.4598 0.0
H354 H 0.08745 0.87328 0.31481 0.0
H355 H 0.97468 0.84844 0.31361 0.0
H356 H 0.11057 0.89194 0.28036 0.0
H357 H 0.93257 0.83404 0.45318 0.0
H358 H 0.92074 0.80009 0.42377 0.0
H359 H 0.07099 0.92783 0.42061 0.0
H360 H 0.93322 0.78639 0.33591 0.0
H361 H 0.95332 0.81036 0.30275 0.0
H362 H 0.13448 0.96972 0.31315 0.0
H363 H 0.92116 0.78268 0.38122 0.0
H364 H 0.1094 0.99093 0.39633 0.0
H365 H 0.08651 0.9691 0.4291 0.0
N366 N 0.08198 0.92765 0.38261 0.0
C367 C 0.09605 0.93854 0.36492 0.0
C368 C 0.07943 0.93786 0.40573 0.0
C369 C 0.10198 0.97311 0.39231 0.0
C370 C 0.08889 0.96094 0.41079 0.0
C371 C 0.10602 0.9618 0.36915 0.0
H372 H 0.12761 0.99077 0.35324 0.0
N373 N 0.09039 0.90399 0.33871 0.0
C374 C 0.10044 0.92638 0.34238 0.0
C375 C 0.11761 0.92506 0.30079 0.0
C376 C 0.11416 0.93757 0.3234 0.0
C377 C 0.09427 0.89146 0.31702 0.0
C378 C 0.10769 0.90188 0.29764 0.0
O379 O 0.01051 0.8602 0.39498 0.0
O380 O 0.04939 0.85215 0.37982 0.0
O381 O 0.10442 0.87171 0.36976 0.0
O382 O 0.09122 0.88394 0.40594 0.0
O383 O 0.00366 0.91028 0.38935 0.0
O384 O 0.04121 0.89639 0.40377 0.0
O385 O 0.05346 0.91763 0.34864 0.0
O386 O 0.02438 0.89357 0.35631 0.0
O387 O 0.96297 0.90982 0.36984 0.0
O388 O 0.9711 0.89537 0.33311 0.0
O389 O 0.05532 0.86038 0.34314 0.0
O390 O 0.01223 0.85983 0.3365 0.0
C391 C 0.02843 0.84501 0.38966 0.0
C392 C 0.02337 0.91258 0.40325 0.0
C393 C 0.12212 0.8535 0.40547 0.0
C394 C 0.15497 0.82398 0.40347 0.0
C395 C 0.13157 0.82856 0.44163 0.0
C396 C 0.11757 0.8467 0.43037 0.0
C397 C 0.1501 0.81708 0.4282 0.0
C398 C 0.14112 0.84226 0.39225 0.0
C399 C 0.10892 0.87366 0.39361 0.0
C400 C 0.12385 0.96086 0.3275 0.0
C401 C 0.11987 0.97288 0.35033 0.0
H402 H 0.128 0.93306 0.28572 0.0
C403 C 0.03125 0.91288 0.34468 0.0
C404 C 0.03502 0.85309 0.33138 0.0
C405 C 0.93267 0.91492 0.33788 0.0
C406 C 0.89368 0.93617 0.34237 0.0
C407 C 0.90255 0.91297 0.30464 0.0
C408 C 0.92525 0.9067 0.3141 0.0
C409 C 0.88694 0.92768 0.31855 0.0
C410 C 0.91658 0.9296 0.35213 0.0
C411 C 0.95812 0.9108 0.346 0.0
H412 H 0.12806 0.82341 0.46082 0.0
H413 H 0.10343 0.8555 0.44121 0.0
H414 H 0.16075 0.80296 0.4371 0.0
H415 H 0.14512 0.84764 0.37318 0.0
H416 H 0.89715 0.90666 0.28626 0.0
H417 H 0.9372 0.89585 0.30244 0.0
H418 H 0.86943 0.93239 0.3107 0.0
H419 H 0.92213 0.93658 0.37023 0.0
C420 C 0.6771 0.96539 0.37317 0.0
C421 C 0.68119 0.95397 0.41678 0.0
C422 C 0.6682 0.96549 0.39742 0.0
C423 C 0.70365 0.94299 0.41149 0.0
C424 C 0.6994 0.95395 0.36767 0.0
C425 C 0.71274 0.943 0.38699 0.0
N426 N 0.66332 0.97527 0.35477 0.0
C427 C 0.66994 0.97278 0.33031 0.0
C428 C 0.7072 0.95308 0.34275 0.0
C429 C 0.69223 0.96228 0.32394 0.0
Gd430 Gd 0.61641 0.0663 0.37539 0.0
Gd431 Gd 0.62614 0.99224 0.36724 0.0
N432 N 0.64653 0.97639 0.40197 0.0
C433 C 0.67103 0.95355 0.4408 0.0
C434 C 0.63592 0.97494 0.42502 0.0
C435 C 0.64819 0.9639 0.44487 0.0
H436 H 0.618 0.98233 0.42806 0.0
H437 H 0.63991 0.96315 0.46322 0.0
H438 H 0.63385 0.08482 0.3171 0.0
H439 H 0.65761 0.97801 0.31567 0.0
H440 H 0.61462 0.10102 0.27932 0.0
H441 H 0.68045 0.94487 0.45618 0.0
H442 H 0.71399 0.93417 0.42614 0.0
H443 H 0.57478 0.07056 0.42011 0.0
H444 H 0.72427 0.94452 0.33776 0.0
H445 H 0.69755 0.96071 0.3045 0.0
H446 H 0.53179 0.11424 0.30303 0.0
H447 H 0.72988 0.93407 0.3831 0.0
H448 H 0.50903 0.09743 0.38775 0.0
H449 H 0.53167 0.08216 0.42451 0.0
N450 N 0.57571 0.07686 0.381 0.0
C451 C 0.56418 0.08665 0.36094 0.0
C452 C 0.5647 0.07607 0.4038 0.0
C453 C 0.52778 0.09184 0.38566 0.0
C454 C 0.54045 0.08313 0.40642 0.0
C455 C 0.53971 0.094 0.36262 0.0
H456 H 0.50928 0.10935 0.3424 0.0
N457 N 0.60099 0.08327 0.3381 0.0
C458 C 0.57709 0.08969 0.33881 0.0
C459 C 0.57913 0.10337 0.29594 0.0
C460 C 0.56553 0.09982 0.3177 0.0
C461 C 0.61459 0.08796 0.3173 0.0
C462 C 0.60381 0.09767 0.29585 0.0
O463 O 0.64659 0.01495 0.3957 0.0
O464 O 0.6548 0.05193 0.37852 0.0
O465 O 0.62382 0.1049 0.37291 0.0
O466 O 0.6227 0.08748 0.40914 0.0
O467 O 0.59559 0.00658 0.39057 0.0
O468 O 0.60976 0.04193 0.40887 0.0
O469 O 0.58668 0.04152 0.36166 0.0
O470 O 0.60565 0.01254 0.33751 0.0
O471 O 0.59697 0.96823 0.3783 0.0
O472 O 0.62126 0.95717 0.34863 0.0
O473 O 0.64476 0.05496 0.34676 0.0
O474 O 0.6384 0.01461 0.33354 0.0
C475 C 0.66218 0.03185 0.3895 0.0
C476 C 0.59548 0.02273 0.40873 0.0
C477 C 0.64853 0.12193 0.4048 0.0
C478 C 0.67846 0.15357 0.39655 0.0
C479 C 0.67737 0.13373 0.43703 0.0
C480 C 0.65787 0.11951 0.42916 0.0
C481 C 0.68774 0.15054 0.42079 0.0
C482 C 0.65872 0.1394 0.38866 0.0
C483 C 0.62729 0.10743 0.39687 0.0
C484 C 0.54094 0.10649 0.31908 0.0
C485 C 0.5281 0.10368 0.3415 0.0
H486 H 0.5709 0.11105 0.27933 0.0
C487 C 0.58839 0.02868 0.34109 0.0
C488 C 0.64812 0.03657 0.33094 0.0
C489 C 0.58188 0.9395 0.34955 0.0
C490 C 0.55384 0.90509 0.34793 0.0
C491 C 0.54881 0.93941 0.31965 0.0
C492 C 0.56906 0.95084 0.33016 0.0
C493 C 0.54116 0.91674 0.32851 0.0
C494 C 0.57427 0.91668 0.35829 0.0
C495 C 0.60243 0.95144 0.36205 0.0
H496 H 0.68437 0.13182 0.45585 0.0
H497 H 0.64999 0.10676 0.44223 0.0
H498 H 0.70271 0.16162 0.42734 0.0
H499 H 0.65138 0.14205 0.37005 0.0
H500 H 0.53897 0.94817 0.30464 0.0
H501 H 0.57457 0.96852 0.32334 0.0
H502 H 0.52553 0.90818 0.31995 0.0
H503 H 0.58403 0.90815 0.37356 0.0
C504 C 0.40904 0.58069 0.40352 0.0
C505 C 0.40636 0.59501 0.44647 0.0
C506 C 0.4137 0.59856 0.42148 0.0
C507 C 0.39421 0.57352 0.45309 0.0
C508 C 0.39684 0.55913 0.41011 0.0
C509 C 0.38943 0.55568 0.43497 0.0
N510 N 0.41684 0.58419 0.37969 0.0
C511 C 0.41222 0.56753 0.36134 0.0
C512 C 0.39245 0.54166 0.3915 0.0
C513 C 0.4001 0.54594 0.36699 0.0
Gd514 Gd 0.50838 0.6205 0.36371 0.0
Gd515 Gd 0.43515 0.62155 0.37194 0.0
N516 N 0.42558 0.61921 0.41458 0.0
C517 C 0.41141 0.61319 0.46411 0.0
C518 C 0.43016 0.63717 0.4316 0.0
C519 C 0.42331 0.63435 0.45662 0.0
H520 H 0.43878 0.65385 0.42604 0.0
H521 H 0.42705 0.64859 0.47011 0.0
H522 H 0.51127 0.5886 0.31063 0.0
H523 H 0.41731 0.57107 0.34221 0.0
H524 H 0.52626 0.59387 0.26739 0.0
H525 H 0.40607 0.61113 0.4835 0.0
H526 H 0.38841 0.57054 0.47221 0.0
H527 H 0.53207 0.66714 0.39691 0.0
H528 H 0.38304 0.52491 0.39581 0.0
H529 H 0.39646 0.53273 0.3524 0.0
H530 H 0.56023 0.67425 0.2674 0.0
H531 H 0.38002 0.53923 0.44039 0.0
H532 H 0.56296 0.71755 0.34528 0.0
H533 H 0.55198 0.70642 0.38859 0.0
N534 N 0.52853 0.65778 0.35843 0.0
C535 C 0.53599 0.66271 0.33471 0.0
C536 C 0.53535 0.6725 0.3778 0.0
C537 C 0.55342 0.70068 0.34874 0.0
C538 C 0.54721 0.69449 0.37321 0.0
C539 C 0.54852 0.68438 0.32921 0.0
H540 H 0.56613 0.70529 0.30012 0.0
N541 N 0.52066 0.62443 0.32201 0.0
C542 C 0.53258 0.64527 0.31614 0.0
C543 C 0.53899 0.63039 0.274 0.0
C544 C 0.54171 0.64897 0.2918 0.0
C545 C 0.51914 0.60573 0.30519 0.0
C546 C 0.52788 0.60857 0.28082 0.0
O547 O 0.45733 0.59207 0.39095 0.0
O548 O 0.49193 0.61242 0.40176 0.0
O549 O 0.52794 0.58601 0.36567 0.0
O550 O 0.5466 0.6197 0.37313 0.0
O551 O 0.45495 0.65601 0.38341 0.0
O552 O 0.49397 0.64507 0.39492 0.0
O553 O 0.48571 0.63497 0.33091 0.0
O554 O 0.45321 0.65183 0.35118 0.0
O555 O 0.40136 0.64113 0.37817 0.0
O556 O 0.40787 0.62221 0.34287 0.0
O557 O 0.48655 0.58735 0.35309 0.0
O558 O 0.45007 0.60209 0.33817 0.0
C559 C 0.47638 0.59466 0.40551 0.0
C560 C 0.47633 0.66128 0.39324 0.0
C561 C 0.56276 0.58442 0.3916 0.0
C562 C 0.59722 0.5588 0.40336 0.0
C563 C 0.57299 0.57922 0.43534 0.0
C564 C 0.55848 0.58969 0.41687 0.0
C565 C 0.59224 0.56392 0.42869 0.0
C566 C 0.58208 0.56898 0.38488 0.0
C567 C 0.54838 0.59616 0.37189 0.0
C568 C 0.55335 0.67094 0.28607 0.0
C569 C 0.55664 0.68865 0.3047 0.0
H570 H 0.54578 0.63253 0.25511 0.0
C571 C 0.46728 0.65028 0.33153 0.0
C572 C 0.46749 0.58579 0.33838 0.0
C573 C 0.36693 0.63102 0.35356 0.0
C574 C 0.32681 0.64869 0.34864 0.0
C575 C 0.33265 0.60521 0.34337 0.0
C576 C 0.35742 0.60787 0.34839 0.0
C577 C 0.31738 0.6256 0.34319 0.0
C578 C 0.35148 0.65123 0.35405 0.0
C579 C 0.39298 0.63552 0.35609 0.0
H580 H 0.56966 0.58343 0.45484 0.0
H581 H 0.54427 0.60229 0.42219 0.0
H582 H 0.60375 0.55682 0.44338 0.0
H583 H 0.58555 0.56528 0.36526 0.0
H584 H 0.32534 0.58739 0.33922 0.0
H585 H 0.3691 0.59203 0.34773 0.0
H586 H 0.2983 0.62338 0.33894 0.0
H587 H 0.35884 0.6692 0.35772 0.0
C588 C 0.84043 0.55175 0.3669 0.0
C589 C 0.83333 0.56326 0.41012 0.0
C590 C 0.84563 0.54911 0.39205 0.0
C591 C 0.81513 0.57955 0.40245 0.0
C592 C 0.8225 0.56834 0.35901 0.0
C593 C 0.80971 0.58207 0.37694 0.0
N594 N 0.85276 0.53784 0.35013 0.0
C595 C 0.84904 0.54047 0.32507 0.0
C596 C 0.81803 0.57064 0.33334 0.0
C597 C 0.83151 0.55678 0.31628 0.0
Gd598 Gd 0.88472 0.43556 0.37526 0.0
Gd599 Gd 0.88151 0.51076 0.36637 0.0
N600 N 0.86309 0.53304 0.39881 0.0
C601 C 0.83996 0.56086 0.43529 0.0
C602 C 0.87054 0.53152 0.42314 0.0
C603 C 0.85886 0.54511 0.44179 0.0
H604 H 0.88527 0.51951 0.42818 0.0
H605 H 0.86447 0.54348 0.46112 0.0
H606 H 0.87431 0.42601 0.31287 0.0
H607 H 0.85953 0.5298 0.31188 0.0
H608 H 0.89534 0.40769 0.27714 0.0
H609 H 0.83095 0.57139 0.44975 0.0
H610 H 0.80534 0.59046 0.41605 0.0
H611 H 0.92219 0.4287 0.42387 0.0
H612 H 0.8044 0.5832 0.32649 0.0
H613 H 0.82838 0.55862 0.29639 0.0
H614 H 0.97151 0.38112 0.31054 0.0
H615 H 0.79576 0.59482 0.37127 0.0
H616 H 0.98743 0.3951 0.3975 0.0
H617 H 0.96335 0.41306 0.43205 0.0
N618 N 0.92386 0.42195 0.38472 0.0
C619 C 0.93618 0.41098 0.36568 0.0
C620 C 0.93296 0.422 0.40845 0.0
C621 C 0.96954 0.40242 0.39371 0.0
C622 C 0.95608 0.41266 0.41324 0.0
C623 C 0.95955 0.40123 0.36964 0.0
H624 H 0.99011 0.38292 0.3523 0.0
N625 N 0.90291 0.41957 0.33871 0.0
C626 C 0.92548 0.40982 0.34206 0.0
C627 C 0.92719 0.39839 0.29835 0.0
C628 C 0.93821 0.39909 0.32191 0.0
C629 C 0.8921 0.41873 0.31575 0.0
C630 C 0.90404 0.40822 0.29529 0.0
O631 O 0.85899 0.49102 0.39547 0.0
O632 O 0.84808 0.45264 0.3824 0.0
O633 O 0.87296 0.3984 0.36896 0.0
O634 O 0.87842 0.4117 0.4069 0.0
O635 O 0.90954 0.49354 0.3911 0.0
O636 O 0.89206 0.45963 0.40908 0.0
O637 O 0.91689 0.45689 0.36173 0.0
O638 O 0.89519 0.48337 0.33863 0.0
O639 O 0.90752 0.53878 0.37764 0.0
O640 O 0.90441 0.52823 0.33889 0.0
O641 O 0.8569 0.44839 0.34591 0.0
O642 O 0.85655 0.49108 0.33941 0.0
C643 C 0.84238 0.47432 0.39115 0.0
C644 C 0.9077 0.47775 0.40938 0.0
C645 C 0.85522 0.37522 0.40218 0.0
C646 C 0.82564 0.34302 0.3951 0.0
C647 C 0.84365 0.34835 0.43617 0.0
C648 C 0.85723 0.36783 0.42725 0.0
C649 C 0.82801 0.33591 0.42017 0.0
C650 C 0.83918 0.36275 0.38608 0.0
C651 C 0.87271 0.39323 0.39273 0.0
C652 C 0.96152 0.38945 0.32582 0.0
C653 C 0.97214 0.3905 0.3496 0.0
H654 H 0.93637 0.39029 0.28243 0.0
C655 C 0.91542 0.47196 0.34307 0.0
C656 C 0.84894 0.46858 0.33463 0.0
C657 C 0.91552 0.56924 0.34706 0.0
C658 C 0.93352 0.60972 0.35115 0.0
C659 C 0.90462 0.60145 0.31799 0.0
C660 C 0.90242 0.5775 0.32613 0.0
C661 C 0.9201 0.61746 0.33035 0.0
C662 C 0.93115 0.58557 0.35962 0.0
C663 C 0.91408 0.54337 0.35477 0.0
H664 H 0.84556 0.34262 0.45542 0.0
H665 H 0.86991 0.37667 0.43981 0.0
H666 H 0.8178 0.32061 0.4273 0.0
H667 H 0.83773 0.3678 0.36655 0.0
H668 H 0.89447 0.60755 0.30183 0.0
H669 H 0.89076 0.56542 0.31567 0.0
H670 H 0.92173 0.63595 0.32358 0.0
H671 H 0.94167 0.57946 0.37555 0.0
C672 C 0.90501 0.43717 0.8676 0.0
C673 C 0.89036 0.43826 0.82468 0.0
C674 C 0.9033 0.42643 0.84389 0.0
C675 C 0.87838 0.46033 0.82978 0.0
C676 C 0.89325 0.45948 0.87261 0.0
C677 C 0.87976 0.47085 0.85366 0.0
N678 N 0.91895 0.42624 0.88541 0.0
C679 C 0.92035 0.43564 0.909 0.0
C680 C 0.89549 0.46976 0.89652 0.0
C681 C 0.90897 0.4577 0.91483 0.0
Gd682 Gd 0.01335 0.382 0.86613 0.0
Gd683 Gd 0.93426 0.38791 0.87463 0.0
N684 N 0.91563 0.40528 0.83928 0.0
C685 C 0.89029 0.42786 0.80073 0.0
C686 C 0.91589 0.39532 0.81587 0.0
C687 C 0.90324 0.40642 0.79629 0.0
H688 H 0.92586 0.37896 0.812 0.0
H689 H 0.90352 0.39842 0.77775 0.0
H690 H 0.02126 0.38825 0.92773 0.0
H691 H 0.92952 0.4257 0.92358 0.0
H692 H 0.04553 0.36938 0.96138 0.0
H693 H 0.8806 0.43644 0.78547 0.0
H694 H 0.86823 0.46958 0.81526 0.0
H695 H 0.03117 0.35643 0.81265 0.0
H696 H 0.88666 0.48685 0.90112 0.0
H697 H 0.9103 0.4652 0.93353 0.0
H698 H 0.09419 0.30956 0.91858 0.0
H699 H 0.87055 0.48797 0.8572 0.0
H700 H 0.08552 0.30297 0.82936 0.0
H701 H 0.05984 0.32448 0.79847 0.0
N702 N 0.04067 0.35285 0.85098 0.0
C703 C 0.05526 0.342 0.86807 0.0
C704 C 0.04248 0.34722 0.82618 0.0
C705 C 0.07318 0.31712 0.83561 0.0
C706 C 0.05867 0.32918 0.81812 0.0
C707 C 0.07163 0.32351 0.86096 0.0
H708 H 0.09819 0.29747 0.87432 0.0
N709 N 0.03651 0.36617 0.89899 0.0
C710 C 0.05289 0.34869 0.89293 0.0
C711 C 0.06417 0.34474 0.9364 0.0
C712 C 0.067 0.33725 0.91148 0.0
C713 C 0.03407 0.37403 0.92312 0.0
C714 C 0.04775 0.36335 0.94221 0.0
O715 O 0.95031 0.42079 0.85628 0.0
O716 O 0.97782 0.39373 0.85487 0.0
O717 O 0.03613 0.4142 0.87107 0.0
O718 O 0.02828 0.40019 0.83402 0.0
O719 O 0.94787 0.3599 0.84485 0.0
O720 O 0.99104 0.35929 0.83843 0.0
O721 O 0.99271 0.35942 0.89459 0.0
O722 O 0.95312 0.35133 0.88138 0.0
O723 O 0.89819 0.37296 0.87096 0.0
O724 O 0.91216 0.38297 0.90764 0.0
O725 O 0.99883 0.41023 0.8927 0.0
O726 O 0.96193 0.39431 0.90545 0.0
C727 C 0.9716 0.41556 0.84883 0.0
C728 C 0.9683 0.35209 0.83343 0.0
C729 C 0.06397 0.42393 0.83774 0.0
C730 C 0.10506 0.43972 0.84354 0.0
C731 C 0.08894 0.43387 0.80167 0.0
C732 C 0.06723 0.42547 0.81169 0.0
C733 C 0.10777 0.44086 0.81745 0.0
C734 C 0.083 0.43141 0.85378 0.0
C735 C 0.03979 0.41654 0.84708 0.0
C736 C 0.0833 0.31871 0.90458 0.0
C737 C 0.08561 0.31185 0.87937 0.0
H738 H 0.07463 0.33638 0.95124 0.0
C739 C 0.97467 0.34418 0.88978 0.0
C740 C 0.97848 0.41156 0.90559 0.0
C741 C 0.87934 0.35524 0.90663 0.0
C742 C 0.85052 0.3221 0.90295 0.0
C743 C 0.85897 0.33996 0.94364 0.0
C744 C 0.87512 0.35613 0.93256 0.0
C745 C 0.84671 0.323 0.92895 0.0
C746 C 0.8669 0.33819 0.89187 0.0
C747 C 0.8939 0.37436 0.89494 0.0
H748 H 0.09114 0.43503 0.78158 0.0
H749 H 0.05279 0.42041 0.79897 0.0
H750 H 0.12456 0.44729 0.80928 0.0
H751 H 0.08077 0.43073 0.87391 0.0
H752 H 0.85552 0.34097 0.96356 0.0
H753 H 0.88381 0.36975 0.94417 0.0
H754 H 0.83361 0.31115 0.93778 0.0
H755 H 0.86934 0.33781 0.87174 0.0
C756 C 0.06496 0.9181 0.86082 0.0
C757 C 0.06623 0.90542 0.8173 0.0
C758 C 0.07777 0.91546 0.83851 0.0
C759 C 0.0418 0.89834 0.81876 0.0
C760 C 0.04063 0.91043 0.86252 0.0
C761 C 0.02907 0.90075 0.84132 0.0
N762 N 0.07644 0.92778 0.88101 0.0
C763 C 0.06552 0.92827 0.90388 0.0
C764 C 0.02879 0.91225 0.88565 0.0
C765 C 0.04141 0.92095 0.9065 0.0
Gd766 Gd 0.12731 0.01178 0.869 0.0
Gd767 Gd 0.11715 0.93796 0.87561 0.0
N768 N 0.10158 0.92212 0.83776 0.0
C769 C 0.07971 0.9023 0.79534 0.0
C770 C 0.11506 0.91791 0.8167 0.0
C771 C 0.10425 0.90838 0.79513 0.0
H772 H 0.13428 0.9212 0.81638 0.0
H773 H 0.11499 0.90534 0.77844 0.0
H774 H 0.11932 0.02144 0.93 0.0
H775 H 0.07559 0.93371 0.92026 0.0
H776 H 0.14116 0.04063 0.96529 0.0
H777 H 0.07149 0.89468 0.77866 0.0
H778 H 0.03269 0.8906 0.80263 0.0
H779 H 0.15941 0.02498 0.81749 0.0
H780 H 0.01015 0.90641 0.88776 0.0
H781 H 0.0327 0.92165 0.92465 0.0
H782 H 0.21531 0.06909 0.92851 0.0
H783 H 0.01037 0.8948 0.84226 0.0
H784 H 0.22601 0.05804 0.84016 0.0
H785 H 0.19948 0.04181 0.80671 0.0
N786 N 0.16458 0.02843 0.85667 0.0
C787 C 0.17827 0.03839 0.87517 0.0
C788 C 0.1715 0.03045 0.83227 0.0
C789 C 0.20879 0.04984 0.84501 0.0
C790 C 0.19393 0.04062 0.82609 0.0
C791 C 0.20078 0.04935 0.86986 0.0
H792 H 0.23159 0.06845 0.88562 0.0
N793 N 0.14767 0.02758 0.90386 0.0
C794 C 0.16925 0.03854 0.89937 0.0
C795 C 0.17214 0.05035 0.94289 0.0
C796 C 0.18228 0.04993 0.91885 0.0
C797 C 0.13715 0.02891 0.92697 0.0
C798 C 0.14938 0.03996 0.94691 0.0
O799 O 0.08749 0.96318 0.86256 0.0
O800 O 0.10653 0.99201 0.83877 0.0
O801 O 0.0984 0.03614 0.88061 0.0
O802 O 0.12256 0.04706 0.85098 0.0
O803 O 0.146 0.94925 0.84763 0.0
O804 O 0.13892 0.98947 0.83478 0.0
O805 O 0.14875 0.98902 0.89681 0.0
O806 O 0.1556 0.9515 0.87945 0.0
O807 O 0.1242 0.8994 0.87163 0.0
O808 O 0.1228 0.91566 0.9087 0.0
O809 O 0.09677 0.99763 0.89235 0.0
O810 O 0.11093 0.96197 0.90979 0.0
C811 C 0.08898 0.97625 0.84223 0.0
C812 C 0.14923 0.96774 0.8321 0.0
C813 C 0.083 0.06456 0.85193 0.0
C814 C 0.05345 0.09785 0.85037 0.0
C815 C 0.05022 0.06346 0.82171 0.0
C816 C 0.07083 0.0528 0.83231 0.0
C817 C 0.04144 0.08572 0.83079 0.0
C818 C 0.07441 0.08721 0.86076 0.0
C819 C 0.10376 0.05294 0.8645 0.0
C820 C 0.20491 0.06046 0.91374 0.0
C821 C 0.21421 0.06004 0.88933 0.0
H822 H 0.18158 0.05891 0.95836 0.0
C823 C 0.16366 0.97131 0.89052 0.0
C824 C 0.09662 0.98125 0.91015 0.0
C825 C 0.14414 0.87793 0.90444 0.0
C826 C 0.17439 0.84633 0.89659 0.0
C827 C 0.15765 0.85172 0.93824 0.0
C828 C 0.1432 0.87078 0.92963 0.0
C829 C 0.1731 0.83947 0.9218 0.0
C830 C 0.15997 0.86564 0.88786 0.0
C831 C 0.12613 0.89583 0.8956 0.0
H832 H 0.04096 0.0544 0.80647 0.0
H833 H 0.07712 0.03534 0.82537 0.0
H834 H 0.02545 0.09365 0.82227 0.0
H835 H 0.08371 0.09628 0.87604 0.0
H836 H 0.1566 0.84617 0.95762 0.0
H837 H 0.13077 0.87956 0.94255 0.0
H838 H 0.184 0.82449 0.92872 0.0
H839 H 0.16067 0.87055 0.86825 0.0
C840 C 0.46855 0.16843 0.85248 0.0
C841 C 0.45807 0.16222 0.80882 0.0
C842 C 0.46921 0.15422 0.83106 0.0
C843 C 0.44749 0.18548 0.80807 0.0
C844 C 0.45669 0.19117 0.85224 0.0
C845 C 0.44682 0.19994 0.82974 0.0
N846 N 0.47772 0.15912 0.87402 0.0
C847 C 0.47421 0.17079 0.8963 0.0
C848 C 0.45424 0.20391 0.87483 0.0
C849 C 0.4628 0.19356 0.89699 0.0
Gd850 Gd 0.57622 0.11494 0.87636 0.0
Gd851 Gd 0.49805 0.1217 0.87047 0.0
N852 N 0.4793 0.13179 0.83254 0.0
C853 C 0.45714 0.14626 0.78832 0.0
C854 C 0.47723 0.11563 0.81318 0.0
C855 C 0.46644 0.1227 0.79066 0.0
H856 H 0.48407 0.09738 0.81505 0.0
H857 H 0.46527 0.11 0.77518 0.0
H858 H 0.57343 0.15637 0.92346 0.0
H859 H 0.48044 0.16266 0.91353 0.0
H860 H 0.58206 0.15776 0.96864 0.0
H861 H 0.4487 0.15169 0.7709 0.0
H862 H 0.43912 0.19211 0.79106 0.0
H863 H 0.58712 0.05707 0.85842 0.0
H864 H 0.44509 0.22137 0.87551 0.0
H865 H 0.46051 0.20305 0.91461 0.0
H866 H 0.61132 0.0777 0.98777 0.0
H867 H 0.43792 0.21753 0.82911 0.0
H868 H 0.61385 0.01843 0.92188 0.0
H869 H 0.60268 0.01939 0.87709 0.0
N870 N 0.58851 0.07734 0.8925 0.0
C871 C 0.59522 0.07748 0.917 0.0
C872 C 0.5914 0.05694 0.8781 0.0
C873 C 0.60688 0.03511 0.91383 0.0
C874 C 0.60048 0.03552 0.88857 0.0
C875 C 0.60425 0.05619 0.92839 0.0
H876 H 0.61719 0.04037 0.96297 0.0
N877 N 0.5828 0.11898 0.91954 0.0
C878 C 0.59195 0.09875 0.93096 0.0
C879 C 0.59378 0.1204 0.97034 0.0
C880 C 0.59761 0.09895 0.9567 0.0
C881 C 0.57957 0.14008 0.93264 0.0
C882 C 0.58477 0.14103 0.95826 0.0
O883 O 0.51872 0.13505 0.83607 0.0
O884 O 0.56033 0.14002 0.84603 0.0
O885 O 0.61048 0.13393 0.88119 0.0
O886 O 0.60732 0.10456 0.85431 0.0
O887 O 0.53131 0.10258 0.86083 0.0
O888 O 0.56466 0.09142 0.84398 0.0
O889 O 0.55123 0.08986 0.89867 0.0
O890 O 0.51796 0.11396 0.90674 0.0
O891 O 0.47917 0.08735 0.86306 0.0
O892 O 0.46967 0.10923 0.89512 0.0
O893 O 0.55763 0.15246 0.88043 0.0
O894 O 0.51935 0.14545 0.89711 0.0
C895 C 0.54079 0.14397 0.83184 0.0
C896 C 0.54139 0.08951 0.84353 0.0
C897 C 0.6334 0.13671 0.84365 0.0
C898 C 0.65845 0.17156 0.83312 0.0
C899 C 0.64736 0.14241 0.80091 0.0
C900 C 0.63463 0.12886 0.81856 0.0
C901 C 0.65923 0.16367 0.80809 0.0
C902 C 0.64533 0.1581 0.85074 0.0
C903 C 0.62073 0.1222 0.86271 0.0
C904 C 0.60681 0.07781 0.96803 0.0
C905 C 0.61017 0.05654 0.95392 0.0
H906 H 0.59786 0.12126 0.99016 0.0
C907 C 0.53062 0.09393 0.91051 0.0
C908 C 0.53666 0.16031 0.88987 0.0
C909 C 0.4374 0.09157 0.87377 0.0
C910 C 0.39714 0.07311 0.87089 0.0
C911 C 0.40266 0.11591 0.86109 0.0
C912 C 0.42729 0.11381 0.86607 0.0
C913 C 0.38768 0.09579 0.8635 0.0
C914 C 0.42218 0.07108 0.8764 0.0
C915 C 0.46334 0.09113 0.88083 0.0
H916 H 0.6484 0.13617 0.78169 0.0
H917 H 0.62594 0.11218 0.81254 0.0
H918 H 0.66973 0.17344 0.79428 0.0
H919 H 0.64476 0.16408 0.87009 0.0
H920 H 0.39511 0.13328 0.85557 0.0
H921 H 0.43834 0.12988 0.86461 0.0
H922 H 0.36848 0.09803 0.8598 0.0
H923 H 0.42967 0.05388 0.88258 0.0
C924 C 0.43494 0.59375 0.86392 0.0
C925 C 0.43451 0.6074 0.82076 0.0
C926 C 0.42304 0.59563 0.84098 0.0
C927 C 0.45782 0.61722 0.8239 0.0
C928 C 0.45822 0.60387 0.86718 0.0
C929 C 0.4696 0.61552 0.84704 0.0
N930 N 0.42385 0.58184 0.88297 0.0
C931 C 0.43396 0.5812 0.90624 0.0
C932 C 0.46931 0.60213 0.89069 0.0
C933 C 0.45701 0.59095 0.91037 0.0
Gd934 Gd 0.3769 0.49281 0.86735 0.0
Gd935 Gd 0.38477 0.56776 0.87489 0.0
N936 N 0.40053 0.58568 0.83835 0.0
C937 C 0.4223 0.60887 0.79789 0.0
C938 C 0.38818 0.58806 0.81632 0.0
C939 C 0.39899 0.59929 0.79573 0.0
H940 H 0.36977 0.58199 0.8144 0.0
H941 H 0.38918 0.60086 0.77826 0.0
H942 H 0.38511 0.4826 0.92819 0.0
H943 H 0.42405 0.57365 0.92177 0.0
H944 H 0.36247 0.46471 0.96359 0.0
H945 H 0.43055 0.61764 0.7819 0.0
H946 H 0.46688 0.62624 0.80853 0.0
H947 H 0.34422 0.48031 0.81586 0.0
H948 H 0.48715 0.60973 0.89396 0.0
H949 H 0.46513 0.59012 0.92879 0.0
H950 H 0.28696 0.43947 0.92706 0.0
H951 H 0.48751 0.62333 0.84919 0.0
H952 H 0.27681 0.44943 0.83866 0.0
H953 H 0.30367 0.46465 0.80516 0.0
N954 N 0.33891 0.47776 0.85506 0.0
C955 C 0.325 0.46834 0.87363 0.0
C956 C 0.33192 0.47561 0.83067 0.0
C957 C 0.29417 0.45735 0.8435 0.0
C958 C 0.30923 0.46599 0.82455 0.0
C959 C 0.30217 0.45799 0.86835 0.0
H960 H 0.27074 0.44013 0.88418 0.0
N961 N 0.35625 0.4779 0.9023 0.0
C962 C 0.3341 0.46801 0.89785 0.0
C963 C 0.33088 0.45655 0.94134 0.0
C964 C 0.32067 0.45731 0.91735 0.0
C965 C 0.36689 0.47602 0.92529 0.0
C966 C 0.3542 0.46574 0.94526 0.0
O967 O 0.41728 0.5461 0.86142 0.0
O968 O 0.39793 0.51547 0.84005 0.0
O969 O 0.40656 0.4677 0.8761 0.0
O970 O 0.3791 0.45719 0.84953 0.0
O971 O 0.35756 0.55485 0.84591 0.0
O972 O 0.36627 0.51493 0.83268 0.0
O973 O 0.35604 0.5155 0.89568 0.0
O974 O 0.34701 0.55182 0.87739 0.0
O975 O 0.37441 0.60565 0.87157 0.0
O976 O 0.37665 0.58904 0.90818 0.0
O977 O 0.40697 0.50729 0.8914 0.0
O978 O 0.3916 0.54317 0.90809 0.0
C979 C 0.41754 0.52797 0.84537 0.0
C980 C 0.35537 0.5364 0.82999 0.0
C981 C 0.41652 0.43523 0.84794 0.0
C982 C 0.44485 0.40071 0.84812 0.0
C983 C 0.43875 0.42433 0.81025 0.0
C984 C 0.42138 0.43866 0.82242 0.0
C985 C 0.45054 0.40559 0.82302 0.0
C986 C 0.42796 0.41581 0.8606 0.0
C987 C 0.39859 0.45057 0.86141 0.0
C988 C 0.29766 0.44756 0.91228 0.0
C989 C 0.2884 0.44797 0.88786 0.0
H990 H 0.32112 0.44852 0.95683 0.0
C991 C 0.34011 0.53208 0.88923 0.0
C992 C 0.40689 0.52473 0.90828 0.0
C993 C 0.3493 0.62247 0.90331 0.0
C994 C 0.31957 0.65455 0.89542 0.0
C995 C 0.31966 0.63331 0.93517 0.0
C996 C 0.33935 0.61924 0.9273 0.0
C997 C 0.3097 0.65076 0.9193 0.0
C998 C 0.33951 0.64054 0.88756 0.0
C999 C 0.37099 0.60851 0.8955 0.0
H1000 H 0.44274 0.42744 0.79069 0.0
H1001 H 0.41183 0.45247 0.81187 0.0
H1002 H 0.4634 0.39424 0.81298 0.0
H1003 H 0.42349 0.41226 0.88 0.0
H1004 H 0.31221 0.63082 0.95372 0.0
H1005 H 0.34692 0.60603 0.94012 0.0
H1006 H 0.29458 0.66169 0.92586 0.0
H1007 H 0.34736 0.64381 0.86928 0.0
C1008 C 0.91714 0.06465 0.63753 0.0
C1009 C 0.90126 0.0689 0.67966 0.0
C1010 C 0.913 0.07896 0.65865 0.0
C1011 C 0.89422 0.04435 0.67928 0.0
C1012 C 0.9094 0.04022 0.63679 0.0
C1013 C 0.8982 0.03008 0.65788 0.0
N1014 N 0.9282 0.07482 0.61743 0.0
C1015 C 0.93 0.06248 0.59534 0.0
C1016 C 0.91261 0.02691 0.61461 0.0
C1017 C 0.92268 0.0382 0.59369 0.0
Gd1018 Gd 0.01176 0.1256 0.62984 0.0
Gd1019 Gd 0.93825 0.11589 0.62102 0.0
N1020 N 0.91971 0.10281 0.65835 0.0
C1021 C 0.89646 0.08394 0.70026 0.0
C1022 C 0.91388 0.11781 0.67791 0.0
C1023 C 0.90258 0.10854 0.69927 0.0
H1024 H 0.91727 0.13707 0.6771 0.0
H1025 H 0.89829 0.12046 0.71482 0.0
H1026 H 0.02399 0.11571 0.5697 0.0
H1027 H 0.93642 0.07156 0.5788 0.0
H1028 H 0.04486 0.13651 0.5349 0.0
H1029 H 0.88752 0.07688 0.71675 0.0
H1030 H 0.88525 0.03634 0.69528 0.0
H1031 H 0.02299 0.15915 0.68124 0.0
H1032 H 0.90676 0.00814 0.61324 0.0
H1033 H 0.92441 0.02837 0.57618 0.0
H1034 H 0.07167 0.21192 0.57111 0.0
H1035 H 0.8922 0.01132 0.65769 0.0
H1036 H 0.0567 0.22535 0.65842 0.0
H1037 H 0.03924 0.19967 0.69177 0.0
N1038 N 0.02764 0.16338 0.64211 0.0
C1039 C 0.03835 0.17655 0.62373 0.0
C1040 C 0.02882 0.17094 0.66641 0.0
C1041 C 0.04866 0.20798 0.65362 0.0
C1042 C 0.03873 0.1936 0.67248 0.0
C1043 C 0.04917 0.19923 0.62899 0.0
H1044 H 0.0691 0.22955 0.61342 0.0
N1045 N 0.02881 0.145 0.59526 0.0
C1046 C 0.03957 0.16677 0.59978 0.0
C1047 C 0.05349 0.16828 0.55692 0.0
C1048 C 0.05192 0.17919 0.5806 0.0
C1049 C 0.03125 0.13372 0.57259 0.0
C1050 C 0.04327 0.14534 0.55297 0.0
O1051 O 0.96269 0.08611 0.6356 0.0
O1052 O 0.99155 0.10516 0.65969 0.0
O1053 O 0.03551 0.095 0.6213 0.0
O1054 O 0.0473 0.12285 0.64722 0.0
O1055 O 0.94925 0.14523 0.64875 0.0
O1056 O 0.9887 0.13743 0.66326 0.0
O1057 O 0.99023 0.14658 0.60071 0.0
O1058 O 0.95251 0.15411 0.61707 0.0
O1059 O 0.89981 0.12413 0.62184 0.0
O1060 O 0.91818 0.11973 0.58632 0.0
O1061 O 0.99782 0.09501 0.60627 0.0
O1062 O 0.963 0.10988 0.5879 0.0
C1063 C 0.97547 0.08789 0.65617 0.0
C1064 C 0.96718 0.14819 0.66502 0.0
C1065 C 0.06591 0.08399 0.65039 0.0
C1066 C 0.1002 0.05566 0.65336 0.0
C1067 C 0.07218 0.06095 0.68836 0.0
C1068 C 0.05873 0.07787 0.6747 0.0
C1069 C 0.09278 0.05002 0.67791 0.0
C1070 C 0.08645 0.07274 0.63972 0.0
C1071 C 0.05281 0.10254 0.63592 0.0
C1072 C 0.0623 0.20199 0.58566 0.0
C1073 C 0.06078 0.21206 0.60975 0.0
H1074 H 0.06283 0.17723 0.5417 0.0
C1075 C 0.97237 0.16167 0.6059 0.0
C1076 C 0.98199 0.09537 0.58798 0.0
C1077 C 0.88356 0.14579 0.58736 0.0
C1078 C 0.85058 0.17517 0.59164 0.0
C1079 C 0.87313 0.17244 0.55275 0.0
C1080 C 0.88738 0.15382 0.56271 0.0
C1081 C 0.85492 0.18322 0.56718 0.0
C1082 C 0.86476 0.15635 0.60162 0.0
C1083 C 0.89795 0.12542 0.59761 0.0
H1084 H 0.06677 0.05646 0.70726 0.0
H1085 H 0.04294 0.08632 0.68315 0.0
H1086 H 0.10313 0.03749 0.6893 0.0
H1087 H 0.09164 0.07736 0.62077 0.0
H1088 H 0.87617 0.17851 0.53377 0.0
H1089 H 0.90127 0.14564 0.55104 0.0
H1090 H 0.84403 0.19767 0.55919 0.0
H1091 H 0.8612 0.15011 0.62049 0.0
C1092 C 0.43566 0.90486 0.62775 0.0
C1093 C 0.43482 0.88501 0.66839 0.0
C1094 C 0.42385 0.90003 0.65031 0.0
C1095 C 0.45749 0.87436 0.66333 0.0
C1096 C 0.45831 0.89396 0.62258 0.0
C1097 C 0.46915 0.87876 0.64048 0.0
N1098 N 0.42499 0.92013 0.61091 0.0
C1099 C 0.43474 0.92306 0.5877 0.0
C1100 C 0.46924 0.89839 0.5994 0.0
C1101 C 0.45725 0.91275 0.58177 0.0
Gd1102 Gd 0.37948 0.01384 0.63182 0.0
Gd1103 Gd 0.38638 0.9344 0.62209 0.0
N1104 N 0.40211 0.91107 0.65497 0.0
C1105 C 0.42275 0.8813 0.69112 0.0
C1106 C 0.39005 0.90716 0.67685 0.0
C1107 C 0.40026 0.89239 0.69534 0.0
H1108 H 0.37242 0.91509 0.67991 0.0
H1109 H 0.3907 0.88942 0.71275 0.0
H1110 H 0.39112 0.0257 0.57211 0.0
H1111 H 0.42477 0.93245 0.57338 0.0
H1112 H 0.37168 0.04735 0.53679 0.0
H1113 H 0.43059 0.86989 0.70551 0.0
H1114 H 0.46617 0.8627 0.67698 0.0
H1115 H 0.3469 0.02771 0.6831 0.0
H1116 H 0.4866 0.89029 0.59467 0.0
H1117 H 0.46507 0.91545 0.56341 0.0
H1118 H 0.29795 0.07947 0.57206 0.0
H1119 H 0.48656 0.87027 0.63683 0.0
H1120 H 0.2839 0.06719 0.65968 0.0
H1121 H 0.30824 0.04818 0.6933 0.0
N1122 N 0.34345 0.0333 0.64384 0.0
C1123 C 0.3313 0.04507 0.62541 0.0
C1124 C 0.33612 0.03536 0.66817 0.0
C1125 C 0.30069 0.05792 0.65505 0.0
C1126 C 0.31436 0.04719 0.67408 0.0
C1127 C 0.30939 0.05744 0.63043 0.0
H1128 H 0.28028 0.07887 0.61437 0.0
N1129 N 0.36267 0.03389 0.59759 0.0
C1130 C 0.34137 0.04565 0.60165 0.0
C1131 C 0.34065 0.05866 0.55853 0.0
C1132 C 0.32964 0.05825 0.58216 0.0
C1133 C 0.37387 0.0347 0.57486 0.0
C1134 C 0.36293 0.04694 0.55491 0.0
O1135 O 0.41543 0.94716 0.64827 0.0
O1136 O 0.39536 0.97889 0.63967 0.0
O1137 O 0.40494 0.04393 0.62616 0.0
O1138 O 0.3933 0.03379 0.66393 0.0
O1139 O 0.3595 0.94843 0.65214 0.0
O1140 O 0.36184 0.99089 0.66216 0.0
O1141 O 0.35765 0.99333 0.60256 0.0
O1142 O 0.35034 0.95417 0.61732 0.0
O1143 O 0.37079 0.89867 0.62505 0.0
O1144 O 0.37852 0.9134 0.58837 0.0
O1145 O 0.41013 0.99925 0.60836 0.0
O1146 O 0.39596 0.96247 0.59176 0.0
C1147 C 0.41341 0.96993 0.65206 0.0
C1148 C 0.35385 0.96827 0.66566 0.0
C1149 C 0.42079 0.06846 0.66103 0.0
C1150 C 0.44664 0.10464 0.65716 0.0
C1151 C 0.43676 0.0884 0.69819 0.0
C1152 C 0.42291 0.07011 0.68716 0.0
C1153 C 0.44859 0.10543 0.6834 0.0
C1154 C 0.43261 0.08597 0.646 0.0
C1155 C 0.40582 0.04869 0.65005 0.0
C1156 C 0.30737 0.06989 0.58685 0.0
C1157 C 0.29726 0.06947 0.61093 0.0
H1158 H 0.33219 0.06809 0.54303 0.0
C1159 C 0.34287 0.97509 0.60763 0.0
C1160 C 0.4119 0.98053 0.5928 0.0
C1161 C 0.34811 0.88247 0.59164 0.0
C1162 C 0.31825 0.85049 0.59754 0.0
C1163 C 0.31896 0.87346 0.55885 0.0
C1164 C 0.33864 0.88698 0.56768 0.0
C1165 C 0.30867 0.85539 0.57376 0.0
C1166 C 0.338 0.86393 0.60629 0.0
C1167 C 0.36977 0.89515 0.60101 0.0
H1168 H 0.43821 0.08951 0.71837 0.0
H1169 H 0.41386 0.05718 0.69919 0.0
H1170 H 0.45876 0.11971 0.69265 0.0
H1171 H 0.4309 0.08512 0.62582 0.0
H1172 H 0.31178 0.87686 0.54034 0.0
H1173 H 0.34653 0.9007 0.55571 0.0
H1174 H 0.29358 0.8449 0.56655 0.0
H1175 H 0.34555 0.8598 0.62455 0.0
C1176 C 0.46344 0.33622 0.65672 0.0
C1177 C 0.4603 0.34173 0.70178 0.0
C1178 C 0.46804 0.34989 0.67813 0.0
C1179 C 0.44918 0.31887 0.70382 0.0
C1180 C 0.45109 0.31387 0.65858 0.0
C1181 C 0.44465 0.30494 0.68228 0.0
N1182 N 0.46991 0.34533 0.63405 0.0
C1183 C 0.46194 0.33464 0.61253 0.0
C1184 C 0.44495 0.30155 0.6365 0.0
C1185 C 0.44986 0.31228 0.61338 0.0
Gd1186 Gd 0.56987 0.38306 0.62521 0.0
Gd1187 Gd 0.49253 0.38133 0.63543 0.0
N1188 N 0.47926 0.37169 0.67568 0.0
C1189 C 0.46338 0.35712 0.72252 0.0
C1190 C 0.48057 0.38757 0.69533 0.0
C1191 C 0.47309 0.38036 0.71918 0.0
H1192 H 0.48772 0.4056 0.69256 0.0
H1193 H 0.47474 0.39272 0.73491 0.0
H1194 H 0.56489 0.34616 0.57449 0.0
H1195 H 0.46516 0.34321 0.59467 0.0
H1196 H 0.57039 0.34918 0.52894 0.0
H1197 H 0.45758 0.35156 0.741 0.0
H1198 H 0.44343 0.31209 0.72188 0.0
H1199 H 0.595 0.43422 0.64944 0.0
H1200 H 0.43559 0.28426 0.6371 0.0
H1201 H 0.4443 0.30337 0.59623 0.0
H1202 H 0.60153 0.42956 0.5164 0.0
H1203 H 0.43547 0.28763 0.68409 0.0
H1204 H 0.61654 0.47919 0.5885 0.0
H1205 H 0.61195 0.47251 0.63397 0.0
N1206 N 0.58816 0.41965 0.61302 0.0
C1207 C 0.59179 0.42234 0.58803 0.0
C1208 C 0.59603 0.43699 0.62951 0.0
C1209 C 0.60873 0.46234 0.59516 0.0
C1210 C 0.60608 0.45869 0.62083 0.0
C1211 C 0.60188 0.44395 0.57842 0.0
H1212 H 0.61263 0.463 0.5448 0.0
N1213 N 0.5761 0.38254 0.58176 0.0
C1214 C 0.58553 0.40334 0.57198 0.0
C1215 C 0.58335 0.38607 0.53039 0.0
C1216 C 0.58919 0.4057 0.54597 0.0
C1217 C 0.57114 0.36307 0.56672 0.0
C1218 C 0.57451 0.36461 0.54083 0.0
O1219 O 0.51546 0.36548 0.66692 0.0
O1220 O 0.55295 0.35359 0.64995 0.0
O1221 O 0.60374 0.36421 0.61611 0.0
O1222 O 0.5977 0.37995 0.65323 0.0
O1223 O 0.5275 0.396 0.64545 0.0
O1224 O 0.56198 0.40855 0.65736 0.0
O1225 O 0.54456 0.41076 0.60615 0.0
O1226 O 0.5076 0.39186 0.59698 0.0
O1227 O 0.48162 0.41941 0.63733 0.0
O1228 O 0.45487 0.39145 0.63108 0.0
O1229 O 0.54749 0.34913 0.61605 0.0
O1230 O 0.50718 0.35725 0.60447 0.0
C1231 C 0.53495 0.35138 0.66627 0.0
C1232 C 0.53898 0.41086 0.65999 0.0
C1233 C 0.63824 0.36908 0.64316 0.0
C1234 C 0.67572 0.34679 0.65039 0.0
C1235 C 0.67312 0.38978 0.66079 0.0
C1236 C 0.64905 0.39034 0.65254 0.0
C1237 C 0.68634 0.36803 0.66006 0.0
C1238 C 0.6518 0.34755 0.64164 0.0
C1239 C 0.6121 0.36741 0.63872 0.0
C1240 C 0.59873 0.42741 0.53634 0.0
C1241 C 0.60506 0.44647 0.55251 0.0
H1242 H 0.58595 0.38716 0.51032 0.0
C1243 C 0.52493 0.40801 0.59208 0.0
C1244 C 0.5261 0.3425 0.60672 0.0
C1245 C 0.44623 0.42944 0.6142 0.0
C1246 C 0.41056 0.45281 0.60172 0.0
C1247 C 0.44166 0.44241 0.57117 0.0
C1248 C 0.45466 0.43007 0.58956 0.0
C1249 C 0.41973 0.45373 0.57716 0.0
C1250 C 0.4241 0.44072 0.62027 0.0
C1251 C 0.45885 0.41467 0.63295 0.0
H1252 H 0.68138 0.4061 0.66829 0.0
H1253 H 0.63872 0.40707 0.65417 0.0
H1254 H 0.70482 0.36776 0.66694 0.0
H1255 H 0.64329 0.33098 0.63492 0.0
H1256 H 0.44826 0.44267 0.5521 0.0
H1257 H 0.47092 0.42037 0.5846 0.0
H1258 H 0.40954 0.46246 0.56236 0.0
H1259 H 0.41726 0.43965 0.63925 0.0
C1260 C 0.07284 0.60158 0.62436 0.0
C1261 C 0.07261 0.62176 0.66493 0.0
C1262 C 0.08386 0.60631 0.64728 0.0
C1263 C 0.05026 0.63268 0.65911 0.0
C1264 C 0.05066 0.61293 0.61826 0.0
C1265 C 0.03936 0.62834 0.63582 0.0
N1266 N 0.0839 0.58607 0.60798 0.0
C1267 C 0.07506 0.58316 0.58435 0.0
C1268 C 0.04064 0.60865 0.59459 0.0
C1269 C 0.05309 0.59399 0.57744 0.0
Gd1270 Gd 0.12294 0.48916 0.62996 0.0
Gd1271 Gd 0.12033 0.5685 0.62177 0.0
N1272 N 0.10515 0.59488 0.65268 0.0
C1273 C 0.08407 0.62557 0.68801 0.0
C1274 C 0.11672 0.59898 0.67485 0.0
C1275 C 0.10628 0.61424 0.69292 0.0
H1276 H 0.13397 0.59046 0.67864 0.0
H1277 H 0.11536 0.61724 0.71062 0.0
H1278 H 0.10895 0.47864 0.57022 0.0
H1279 H 0.08518 0.57298 0.57059 0.0
H1280 H 0.12757 0.45884 0.53313 0.0
H1281 H 0.07597 0.63726 0.70211 0.0
H1282 H 0.04128 0.64455 0.67246 0.0
H1283 H 0.15659 0.47222 0.67942 0.0
H1284 H 0.02364 0.61704 0.58916 0.0
H1285 H 0.04592 0.59125 0.55878 0.0
H1286 H 0.20314 0.42696 0.56398 0.0
H1287 H 0.02221 0.63706 0.63152 0.0
H1288 H 0.21964 0.43533 0.65171 0.0
H1289 H 0.19584 0.45193 0.6872 0.0
N1290 N 0.15906 0.46877 0.6398 0.0
C1291 C 0.17079 0.45803 0.62034 0.0
C1292 C 0.16702 0.46545 0.66374 0.0
C1293 C 0.20252 0.4444 0.64818 0.0
C1294 C 0.18915 0.45376 0.66825 0.0
C1295 C 0.19308 0.4459 0.62391 0.0
H1296 H 0.22215 0.426 0.60565 0.0
N1297 N 0.13836 0.46992 0.59424 0.0
C1298 C 0.15996 0.45831 0.59693 0.0
C1299 C 0.15952 0.44727 0.55313 0.0
C1300 C 0.17128 0.44685 0.57637 0.0
C1301 C 0.12639 0.46979 0.57191 0.0
C1302 C 0.13689 0.45862 0.55095 0.0
O1303 O 0.09123 0.55831 0.64903 0.0
O1304 O 0.10809 0.52475 0.6392 0.0
O1305 O 0.09715 0.45945 0.62414 0.0
O1306 O 0.11008 0.46861 0.66186 0.0
O1307 O 0.14381 0.55322 0.6539 0.0
O1308 O 0.14198 0.51037 0.66088 0.0
O1309 O 0.14567 0.50843 0.6009 0.0
O1310 O 0.15437 0.54596 0.61836 0.0
O1311 O 0.14636 0.59744 0.62517 0.0
O1312 O 0.13011 0.58974 0.589 0.0
O1313 O 0.09201 0.50532 0.60818 0.0
O1314 O 0.10888 0.54056 0.5916 0.0
C1315 C 0.09107 0.53526 0.65213 0.0
C1316 C 0.14929 0.53288 0.66638 0.0
C1317 C 0.08243 0.43424 0.65864 0.0
C1318 C 0.05656 0.39836 0.65413 0.0
C1319 C 0.0663 0.41421 0.69547 0.0
C1320 C 0.08027 0.43249 0.68475 0.0
C1321 C 0.05446 0.39732 0.68033 0.0
C1322 C 0.07071 0.41688 0.64329 0.0
C1323 C 0.0971 0.45411 0.64789 0.0
C1324 C 0.19397 0.43558 0.57962 0.0
C1325 C 0.20485 0.43512 0.60333 0.0
H1326 H 0.16767 0.43876 0.53684 0.0
C1327 C 0.161 0.5259 0.60667 0.0
C1328 C 0.09117 0.52428 0.59306 0.0
C1329 C 0.14422 0.63015 0.59715 0.0
C1330 C 0.16374 0.66932 0.6042 0.0
C1331 C 0.12998 0.66588 0.57506 0.0
C1332 C 0.12826 0.64099 0.58001 0.0
C1333 C 0.14762 0.68001 0.58701 0.0
C1334 C 0.16172 0.64442 0.60921 0.0
C1335 C 0.14449 0.60386 0.60186 0.0
H1336 H 0.06469 0.41308 0.71563 0.0
H1337 H 0.08929 0.44537 0.69697 0.0
H1338 H 0.04394 0.38312 0.68917 0.0
H1339 H 0.07242 0.41783 0.62311 0.0
H1340 H 0.11781 0.67419 0.56167 0.0
H1341 H 0.11471 0.63028 0.5703 0.0
H1342 H 0.14899 0.69913 0.5824 0.0
H1343 H 0.174 0.63599 0.62247 0.0
C1344 C 0.69207 0.50239 0.09171 0.0
C1345 C 0.68398 0.48158 0.10434 0.0
C1346 C 0.7165 0.50928 0.09271 0.0
C1347 C 0.77868 0.4874 0.10517 0.0
H1348 H 0.79013 0.55305 0.12905 0.0
C1349 C 0.87225 0.51853 0.14318 0.0
C1350 C 0.87923 0.54299 0.14023 0.0
C1351 C 0.84921 0.5106 0.13571 0.0
C1352 C 0.78744 0.53481 0.12187 0.0
H1353 H 0.69585 0.4501 0.12548 0.0
H1354 H 0.73848 0.46167 0.12659 0.0
H1355 H 0.74889 0.5398 0.12039 0.0
H1356 H 0.86715 0.57808 0.12634 0.0
H1357 H 0.82769 0.56408 0.11237 0.0
H1358 H 0.8172 0.48237 0.10645 0.0
C1359 C 0.72579 0.47314 0.11658 0.0
C1360 C 0.7637 0.52721 0.11698 0.0
C1361 C 0.70129 0.46656 0.11601 0.0
C1362 C 0.8627 0.55907 0.1288 0.0
C1363 C 0.83977 0.55108 0.12111 0.0
C1364 C 0.80251 0.49509 0.10975 0.0
C1365 C 0.73355 0.49495 0.10559 0.0
C1366 C 0.75901 0.50335 0.10885 0.0
C1367 C 0.83248 0.52684 0.12485 0.0
C1368 C 0.80724 0.51886 0.11847 0.0
H1369 H 0.6795 0.51347 0.08124 0.0
H1370 H 0.72204 0.52591 0.08354 0.0
H1371 H 0.77562 0.46895 0.09872 0.0
H1372 H 0.88455 0.50543 0.15143 0.0
H1373 H 0.84433 0.49183 0.13911 0.0
C1374 C 0.00925 0.69709 0.08595 0.0
C1375 C 0.027 0.68779 0.10212 0.0
C1376 C 0.00329 0.72188 0.08635 0.0
C1377 C 0.00907 0.77476 0.12958 0.0
H1378 H 0.97999 0.81075 0.07492 0.0
C1379 C 0.98376 0.87404 0.14353 0.0
C1380 C 0.95935 0.87961 0.13859 0.0
C1381 C 0.99427 0.85283 0.13398 0.0
C1382 C 0.98811 0.80088 0.0903 0.0
H1383 H 0.05537 0.69783 0.12831 0.0
H1384 H 0.04622 0.74097 0.1279 0.0
H1385 H 0.99524 0.76939 0.0676 0.0
H1386 H 0.92741 0.86846 0.118 0.0
H1387 H 0.94588 0.8311 0.10118 0.0
H1388 H 0.00213 0.8061 0.15221 0.0
C1389 C 0.03545 0.72902 0.11624 0.0
C1390 C 0.99676 0.77714 0.08619 0.0
C1391 C 0.04097 0.70422 0.11619 0.0
C1392 C 0.94628 0.86461 0.12206 0.0
C1393 C 0.95685 0.84324 0.11247 0.0
C1394 C 0.00081 0.79845 0.13354 0.0
C1395 C 0.01572 0.73805 0.1023 0.0
C1396 C 0.00734 0.76373 0.10583 0.0
C1397 C 0.98062 0.83663 0.11929 0.0
C1398 C 0.9902 0.81181 0.11403 0.0
H1399 H 0.99951 0.68507 0.07349 0.0
H1400 H 0.98827 0.72806 0.07497 0.0
H1401 H 0.01626 0.76492 0.14546 0.0
H1402 H 0.99437 0.88549 0.15591 0.0
H1403 H 0.01279 0.84848 0.13913 0.0
C1404 C 0.63551 0.94549 0.12827 0.0
C1405 C 0.62039 0.94982 0.10761 0.0
C1406 C 0.65584 0.96026 0.13253 0.0
C1407 C 0.69844 0.992 0.09286 0.0
H1408 H 0.73094 0.01 0.15443 0.0
C1409 C 0.79705 0.02631 0.0907 0.0
C1410 C 0.81218 0.01923 0.11039 0.0
C1411 C 0.77199 0.02251 0.09218 0.0
C1412 C 0.72226 0.00482 0.13704 0.0
H1413 H 0.61279 0.97436 0.07704 0.0
H1414 H 0.64788 1.00036 0.08467 0.0
H1415 H 0.68883 0.99619 0.1557 0.0
H1416 H 0.81304 0.0044 0.14773 0.0
H1417 H 0.77 0.99565 0.14966 0.0
H1418 H 0.73182 0.99893 0.07421 0.0
C1419 C 0.64446 0.98538 0.09729 0.0
C1420 C 0.69803 0.99712 0.13782 0.0
C1421 C 0.62429 0.97063 0.09302 0.0
C1422 C 0.80189 0.009 0.13186 0.0
C1423 C 0.777 0.00458 0.13317 0.0
C1424 C 0.72265 0.99925 0.09212 0.0
C1425 C 0.66126 0.97948 0.11612 0.0
C1426 C 0.68594 0.99039 0.11572 0.0
C1427 C 0.7616 0.01122 0.11331 0.0
C1428 C 0.7351 0.00546 0.11419 0.0
H1429 H 0.63292 0.92946 0.13969 0.0
H1430 H 0.66842 0.95527 0.14722 0.0
H1431 H 0.68986 0.98647 0.07552 0.0
H1432 H 0.80457 0.03508 0.07433 0.0
H1433 H 0.76079 0.02862 0.0768 0.0
C1434 C 0.49012 0.80617 0.08557 0.0
C1435 C 0.47354 0.81576 0.10296 0.0
C1436 C 0.49609 0.78132 0.0859 0.0
C1437 C 0.49464 0.72975 0.13057 0.0
H1438 H 0.51671 0.69175 0.07365 0.0
C1439 C 0.52708 0.63217 0.14507 0.0
C1440 C 0.54976 0.6269 0.13445 0.0
C1441 C 0.51381 0.65243 0.13709 0.0
C1442 C 0.51056 0.70215 0.08972 0.0
H1443 H 0.44762 0.80623 0.13184 0.0
H1444 H 0.45706 0.76325 0.1317 0.0
H1445 H 0.5008 0.73287 0.06718 0.0
H1446 H 0.57595 0.63764 0.10654 0.0
H1447 H 0.55287 0.67317 0.09254 0.0
H1448 H 0.50462 0.69941 0.15316 0.0
C1449 C 0.4667 0.77491 0.11881 0.0
C1450 C 0.50154 0.72576 0.08603 0.0
C1451 C 0.46109 0.79964 0.11872 0.0
C1452 C 0.55828 0.64121 0.11466 0.0
C1453 C 0.54505 0.66154 0.1067 0.0
C1454 C 0.50344 0.70621 0.1342 0.0
C1455 C 0.48505 0.76554 0.10322 0.0
C1456 C 0.49359 0.73994 0.10646 0.0
C1457 C 0.52313 0.66797 0.11856 0.0
C1458 C 0.5117 0.69214 0.11389 0.0
H1459 H 0.49926 0.81803 0.07249 0.0
H1460 H 0.51018 0.7748 0.07345 0.0
H1461 H 0.48937 0.74022 0.14691 0.0
H1462 H 0.52034 0.62148 0.16056 0.0
H1463 H 0.49679 0.65661 0.14632 0.0
C1464 C 0.86691 0.97284 0.34455 0.0
C1465 C 0.87637 0.95203 0.35624 0.0
C1466 C 0.84681 0.98501 0.35456 0.0
C1467 C 0.79293 0.97161 0.39285 0.0
H1468 H 0.77929 0.03999 0.38191 0.0
C1469 C 0.69771 0.01283 0.41153 0.0
C1470 C 0.68855 0.02711 0.39196 0.0
C1471 C 0.72226 0.00612 0.41206 0.0
C1472 C 0.78279 0.02085 0.38506 0.0
H1473 H 0.87331 0.92857 0.38848 0.0
H1474 H 0.8382 0.95001 0.40632 0.0
H1475 H 0.8203 0.02441 0.37535 0.0
H1476 H 0.69829 0.04727 0.35878 0.0
H1477 H 0.74093 0.03572 0.35953 0.0
H1478 H 0.75543 0.96807 0.40241 0.0
C1479 C 0.84611 0.95675 0.38915 0.0
C1480 C 0.80633 0.01188 0.3813 0.0
C1481 C 0.86639 0.94462 0.37914 0.0
C1482 C 0.70472 0.03597 0.37389 0.0
C1483 C 0.72925 0.02942 0.37444 0.0
C1484 C 0.76946 0.98064 0.39685 0.0
C1485 C 0.83553 0.97661 0.37651 0.0
C1486 C 0.81159 0.98699 0.38442 0.0
C1487 C 0.73827 0.014 0.39324 0.0
C1488 C 0.7639 0.00521 0.39228 0.0
H1489 H 0.87431 0.97896 0.32689 0.0
H1490 H 0.83922 1.00007 0.34413 0.0
H1491 H 0.79608 0.9523 0.39519 0.0
H1492 H 0.68579 0.00652 0.42622 0.0
H1493 H 0.72865 0.99459 0.42707 0.0
C1494 C 0.56325 0.86224 0.36101 0.0
C1495 C 0.54605 0.88079 0.35718 0.0
C1496 C 0.556 0.83912 0.36884 0.0
C1497 C 0.50748 0.80456 0.3997 0.0
H1498 H 0.53047 0.75071 0.35891 0.0
C1499 C 0.49554 0.6975 0.41516 0.0
C1500 C 0.48227 0.68755 0.39513 0.0
C1501 C 0.50308 0.72197 0.41443 0.0
C1502 C 0.52425 0.76555 0.3707 0.0
H1503 H 0.5078 0.88981 0.35941 0.0
H1504 H 0.49514 0.84931 0.37331 0.0
H1505 H 0.54443 0.79195 0.35007 0.0
H1506 H 0.46572 0.69583 0.35942 0.0
H1507 H 0.47957 0.73749 0.35767 0.0
H1508 H 0.487 0.77782 0.42007 0.0
C1509 C 0.51423 0.85274 0.37016 0.0
C1510 C 0.53219 0.78912 0.36565 0.0
C1511 C 0.52145 0.87582 0.36197 0.0
C1512 C 0.47596 0.70271 0.37504 0.0
C1513 C 0.48391 0.72668 0.374 0.0
C1514 C 0.49984 0.78078 0.40505 0.0
C1515 C 0.53141 0.83405 0.37335 0.0
C1516 C 0.5237 0.80895 0.37987 0.0
C1517 C 0.49782 0.73646 0.39344 0.0
C1518 C 0.50799 0.76116 0.39037 0.0
H1519 H 0.5823 0.86542 0.35736 0.0
H1520 H 0.56965 0.8251 0.37123 0.0
H1521 H 0.50067 0.81951 0.41098 0.0
H1522 H 0.50057 0.68626 0.43093 0.0
H1523 H 0.51385 0.72924 0.42965 0.0
C1524 C 0.63445 0.55238 0.37691 0.0
C1525 C 0.61929 0.54454 0.39644 0.0
C1526 C 0.65711 0.5415 0.37306 0.0
C1527 C 0.69706 0.48939 0.38931 0.0
H1528 H 0.74746 0.53838 0.3877 0.0
C1529 C 0.7995 0.46687 0.40542 0.0
C1530 C 0.81639 0.48089 0.39216 0.0
C1531 C 0.77465 0.4727 0.40454 0.0
C1532 C 0.73373 0.52433 0.38768 0.0
H1533 H 0.61516 0.51759 0.42566 0.0
H1534 H 0.65489 0.49882 0.41911 0.0
H1535 H 0.7053 0.55075 0.38604 0.0
H1536 H 0.82023 0.50954 0.36549 0.0
H1537 H 0.77777 0.5202 0.36374 0.0
H1538 H 0.72571 0.46292 0.39082 0.0
C1539 C 0.64926 0.51344 0.40686 0.0
C1540 C 0.70946 0.53149 0.38672 0.0
C1541 C 0.6266 0.52438 0.41078 0.0
C1542 C 0.80793 0.4999 0.37727 0.0
C1543 C 0.78337 0.50563 0.37606 0.0
C1544 C 0.72149 0.48215 0.38997 0.0
C1545 C 0.66513 0.52249 0.38858 0.0
C1546 C 0.69082 0.51418 0.38765 0.0
C1547 C 0.76631 0.49238 0.38996 0.0
C1548 C 0.74017 0.49958 0.38925 0.0
H1549 H 0.62945 0.56784 0.36549 0.0
H1550 H 0.66881 0.54862 0.35855 0.0
H1551 H 0.68305 0.47563 0.38999 0.0
H1552 H 0.80551 0.45154 0.41651 0.0
H1553 H 0.7621 0.46201 0.41549 0.0
C1554 C 0.03814 0.80198 0.37745 0.0
C1555 C 0.02402 0.81843 0.39152 0.0
C1556 C 0.0323 0.77725 0.37662 0.0
C1557 C 0.99603 0.72907 0.4079 0.0
H1558 H 0.99667 0.69943 0.34197 0.0
C1559 C 0.94129 0.64275 0.38223 0.0
C1560 C 0.95001 0.62743 0.36319 0.0
C1561 C 0.9542 0.66365 0.38914 0.0
C1562 C 0.99682 0.70714 0.36065 0.0
H1563 H 0.99445 0.82126 0.41797 0.0
H1564 H 0.98354 0.77828 0.41587 0.0
H1565 H 0.01155 0.74064 0.34735 0.0
H1566 H 0.97944 0.62103 0.33724 0.0
H1567 H 0.00249 0.65708 0.34974 0.0
H1568 H 0.98077 0.69563 0.42104 0.0
C1569 C 0.99903 0.7845 0.40524 0.0
C1570 C 0.00534 0.7309 0.36373 0.0
C1571 C 0.00496 0.80926 0.40609 0.0
C1572 C 0.97254 0.63248 0.3522 0.0
C1573 C 0.98552 0.6533 0.35914 0.0
C1574 C 0.98751 0.70523 0.40482 0.0
C1575 C 0.01232 0.76826 0.39006 0.0
C1576 C 0.00476 0.74233 0.38732 0.0
C1577 C 0.97606 0.6697 0.37701 0.0
C1578 C 0.98747 0.69405 0.38107 0.0
H1579 H 0.05322 0.80829 0.36624 0.0
H1580 H 0.04326 0.76523 0.36514 0.0
H1581 H 0.99569 0.73714 0.42642 0.0
H1582 H 0.92372 0.63941 0.39061 0.0
H1583 H 0.9462 0.67586 0.40279 0.0
C1584 C 0.12699 0.47008 0.87038 0.0
C1585 C 0.12601 0.4469 0.85922 0.0
C1586 C 0.14916 0.47933 0.87919 0.0
C1587 C 0.21263 0.47455 0.86211 0.0
H1588 H 0.2272 0.51089 0.92261 0.0
C1589 C 0.29933 0.53046 0.86939 0.0
C1590 C 0.31394 0.52627 0.89037 0.0
C1591 C 0.27543 0.52227 0.86865 0.0
C1592 C 0.22335 0.50071 0.90568 0.0
H1593 H 0.14674 0.41471 0.84979 0.0
H1594 H 0.18525 0.4306 0.86536 0.0
H1595 H 0.18693 0.49226 0.91726 0.0
H1596 H 0.31445 0.51209 0.92807 0.0
H1597 H 0.27216 0.49787 0.92706 0.0
H1598 H 0.24842 0.48338 0.85005 0.0
C1599 C 0.16909 0.44172 0.86724 0.0
C1600 C 0.20033 0.49016 0.90259 0.0
C1601 C 0.14705 0.43253 0.85853 0.0
C1602 C 0.30361 0.51524 0.91149 0.0
C1603 C 0.27942 0.50727 0.91096 0.0
C1604 C 0.23529 0.4854 0.86497 0.0
C1605 C 0.17062 0.46557 0.87671 0.0
C1606 C 0.19484 0.4768 0.8808 0.0
C1607 C 0.26535 0.50999 0.88916 0.0
C1608 C 0.241 0.49858 0.88675 0.0
H1609 H 0.11104 0.48163 0.87069 0.0
H1610 H 0.14982 0.49781 0.88627 0.0
H1611 H 0.20887 0.46471 0.84494 0.0
H1612 H 0.30668 0.53911 0.85306 0.0
H1613 H 0.26498 0.52508 0.85173 0.0
C1614 C 0.00177 0.30974 0.87911 0.0
C1615 C 0.97999 0.31769 0.8896 0.0
C1616 C 0.0073 0.28518 0.87676 0.0
C1617 C 0.99337 0.22375 0.89956 0.0
H1618 H 0.02649 0.20537 0.83819 0.0
C1619 C 0.02001 0.12444 0.86731 0.0
C1620 C 0.04422 0.12178 0.85938 0.0
C1621 C 0.01064 0.14745 0.87352 0.0
C1622 C 0.01737 0.21023 0.85547 0.0
H1623 H 0.94594 0.3057 0.90549 0.0
H1624 H 0.95552 0.26186 0.90164 0.0
H1625 H 0.01108 0.24664 0.84322 0.0
H1626 H 0.07776 0.14094 0.85236 0.0
H1627 H 0.0612 0.18128 0.86241 0.0
H1628 H 0.99953 0.18683 0.91143 0.0
C1629 C 0.96872 0.2751 0.89549 0.0
C1630 C 0.00853 0.23389 0.8584 0.0
C1631 C 0.96321 0.30012 0.89766 0.0
C1632 C 0.05907 0.14247 0.85847 0.0
C1633 C 0.04958 0.16551 0.86412 0.0
C1634 C 0.002 0.19981 0.89645 0.0
C1635 C 0.99081 0.2674 0.88465 0.0
C1636 C 0.99703 0.24121 0.88073 0.0
C1637 C 0.02517 0.16829 0.87133 0.0
C1638 C 0.01461 0.19304 0.87458 0.0
H1639 H 0.01401 0.32265 0.87147 0.0
H1640 H 0.02454 0.28016 0.86846 0.0
H1641 H 0.98467 0.22881 0.917 0.0
H1642 H 0.00822 0.10873 0.86828 0.0
H1643 H 0.99178 0.14908 0.87897 0.0
C1644 C 0.20034 0.99103 0.91014 0.0
C1645 C 0.19033 0.97456 0.89295 0.0
C1646 C 0.22516 0.99653 0.90955 0.0
C1647 C 0.27887 0.9903 0.86667 0.0
H1648 H 0.31251 0.01895 0.92311 0.0
C1649 C 0.36361 0.04833 0.85306 0.0
C1650 C 0.37998 0.05238 0.87274 0.0
C1651 C 0.34336 0.03358 0.85634 0.0
C1652 C 0.30369 0.0105 0.90722 0.0
H1653 H 0.19924 0.94799 0.86439 0.0
H1654 H 0.2423 0.95616 0.86422 0.0
H1655 H 0.2719 0.00297 0.92873 0.0
H1656 H 0.38919 0.04234 0.91069 0.0
H1657 H 0.35423 0.01536 0.91622 0.0
H1658 H 0.31097 0.99664 0.84546 0.0
C1659 C 0.23095 0.96657 0.87688 0.0
C1660 C 0.28001 1.00175 0.91033 0.0
C1661 C 0.20611 0.96164 0.87709 0.0
C1662 C 0.37685 0.03953 0.89518 0.0
C1663 C 0.35656 0.02441 0.89844 0.0
C1664 C 0.30268 0.99845 0.86374 0.0
C1665 C 0.24082 0.98479 0.89241 0.0
C1666 C 0.26695 0.99208 0.88994 0.0
C1667 C 0.33899 0.02199 0.87935 0.0
C1668 C 0.31523 0.00947 0.88372 0.0
H1669 H 0.1889 0.99992 0.92384 0.0
H1670 H 0.23177 0.01053 0.92207 0.0
H1671 H 0.26964 0.98336 0.85028 0.0
H1672 H 0.36565 0.05791 0.83549 0.0
H1673 H 0.33038 0.03266 0.84119 0.0
C1674 C 0.52488 0.19728 0.86593 0.0
C1675 C 0.53093 0.18666 0.8889 0.0
C1676 C 0.5168 0.22131 0.86461 0.0
C1677 C 0.51352 0.28022 0.89803 0.0
H1678 H 0.45881 0.29085 0.8537 0.0
C1679 C 0.48036 0.37465 0.86073 0.0
C1680 C 0.45514 0.3786 0.86014 0.0
C1681 C 0.48987 0.35217 0.86836 0.0
C1682 C 0.47395 0.28819 0.86633 0.0
H1683 H 0.53302 0.1929 0.92881 0.0
H1684 H 0.51882 0.23543 0.92669 0.0
H1685 H 0.47554 0.25014 0.85829 0.0
H1686 H 0.42018 0.3624 0.86764 0.0
H1687 H 0.43673 0.32292 0.88041 0.0
H1688 H 0.51223 0.31876 0.90528 0.0
C1689 C 0.52079 0.22509 0.90951 0.0
C1690 C 0.48367 0.26483 0.86887 0.0
C1691 C 0.52888 0.2008 0.91077 0.0
C1692 C 0.43968 0.35994 0.86817 0.0
C1693 C 0.44915 0.33731 0.87529 0.0
C1694 C 0.50403 0.30381 0.89511 0.0
C1695 C 0.51424 0.23548 0.88638 0.0
C1696 C 0.50363 0.26047 0.88468 0.0
C1697 C 0.47433 0.333 0.87498 0.0
C1698 C 0.4841 0.30802 0.87922 0.0
H1699 H 0.5251 0.18674 0.84901 0.0
H1700 H 0.51206 0.22862 0.84645 0.0
H1701 H 0.52899 0.27754 0.91022 0.0
H1702 H 0.49266 0.38873 0.85453 0.0
H1703 H 0.50932 0.34937 0.86779 0.0
C1704 C 0.12894 0.02014 0.64845 0.0
C1705 C 0.12261 0.04428 0.64256 0.0
C1706 C 0.15108 0.01022 0.64062 0.0
C1707 C 0.20298 0.01742 0.59727 0.0
H1708 H 0.23946 0.98769 0.65115 0.0
C1709 C 0.30659 0.99793 0.59112 0.0
C1710 C 0.31626 0.97897 0.60555 0.0
C1711 C 0.28189 0.0039 0.5926 0.0
C1712 C 0.22947 0.99542 0.63564 0.0
H1713 H 0.13446 0.07641 0.62246 0.0
H1714 H 0.17288 0.05888 0.60846 0.0
H1715 H 0.19818 1.00122 0.65855 0.0
H1716 H 0.30686 0.94917 0.63025 0.0
H1717 H 0.26393 0.95865 0.63188 0.0
H1718 H 0.23432 0.01147 0.57428 0.0
C1719 C 0.16062 0.0477 0.61927 0.0
C1720 C 0.20572 0.00329 0.63997 0.0
C1721 C 0.13852 0.05773 0.62732 0.0
C1722 C 0.30023 0.96439 0.61937 0.0
C1723 C 0.27554 0.97005 0.62058 0.0
C1724 C 0.22674 0.00924 0.59281 0.0
C1725 C 0.16744 0.02406 0.62644 0.0
C1726 C 0.19223 0.01455 0.62094 0.0
C1727 C 0.26613 0.99046 0.608 0.0
C1728 C 0.24039 0.99825 0.61201 0.0
H1729 H 0.11691 0.00891 0.65949 0.0
H1730 H 0.15559 0.99178 0.64603 0.0
H1731 H 0.19298 0.02589 0.58217 0.0
H1732 H 0.31818 0.0084 0.57897 0.0
H1733 H 0.27543 0.01958 0.58235 0.0
C1734 C 0.50521 0.30722 0.58557 0.0
C1735 C 0.52235 0.31603 0.60276 0.0
C1736 C 0.49912 0.28246 0.5851 0.0
C1737 C 0.51873 0.22106 0.60578 0.0
H1738 H 0.44987 0.20837 0.61184 0.0
C1739 C 0.48154 0.13281 0.64893 0.0
C1740 C 0.45837 0.12429 0.64224 0.0
C1741 C 0.49085 0.15415 0.63857 0.0
C1742 C 0.46914 0.21136 0.60959 0.0
H1743 H 0.54819 0.30533 0.63137 0.0
H1744 H 0.53779 0.26241 0.63039 0.0
H1745 H 0.4638 0.24952 0.60348 0.0
H1746 H 0.42762 0.13068 0.6179 0.0
H1747 H 0.44418 0.16757 0.5991 0.0
H1748 H 0.52419 0.18302 0.61216 0.0
C1749 C 0.52879 0.27456 0.61742 0.0
C1750 C 0.47713 0.23506 0.60484 0.0
C1751 C 0.53473 0.29926 0.61799 0.0
C1752 C 0.44551 0.13671 0.62349 0.0
C1753 C 0.4549 0.15809 0.61298 0.0
C1754 C 0.51075 0.1973 0.61028 0.0
C1755 C 0.51043 0.26596 0.60149 0.0
C1756 C 0.50203 0.24029 0.60341 0.0
C1757 C 0.47736 0.16756 0.621 0.0
C1758 C 0.48584 0.19217 0.61285 0.0
H1759 H 0.49596 0.31957 0.57302 0.0
H1760 H 0.4852 0.2763 0.57228 0.0
H1761 H 0.53804 0.22446 0.60449 0.0
H1762 H 0.49211 0.12348 0.66306 0.0
H1763 H 0.5081 0.16075 0.64544 0.0
C1764 C 0.20321 0.53335 0.62153 0.0
C1765 C 0.18736 0.52117 0.60513 0.0
C1766 C 0.22772 0.52724 0.62241 0.0
C1767 C 0.26947 0.47708 0.60659 0.0
H1768 H 0.3191 0.52581 0.6178 0.0
C1769 C 0.36928 0.44985 0.62135 0.0
C1770 C 0.38622 0.46312 0.60729 0.0
C1771 C 0.34539 0.45815 0.6238 0.0
C1772 C 0.30547 0.51199 0.6146 0.0
H1773 H 0.18545 0.49582 0.57421 0.0
H1774 H 0.22848 0.48481 0.57568 0.0
H1775 H 0.2768 0.53828 0.61412 0.0
H1776 H 0.39184 0.49624 0.58622 0.0
H1777 H 0.35016 0.51049 0.59007 0.0
H1778 H 0.29819 0.45087 0.60624 0.0
C1779 C 0.2216 0.49819 0.58884 0.0
C1780 C 0.2812 0.51911 0.61269 0.0
C1781 C 0.19697 0.50429 0.58808 0.0
C1782 C 0.3791 0.48545 0.59686 0.0
C1783 C 0.35526 0.49373 0.5993 0.0
C1784 C 0.29374 0.46997 0.60843 0.0
C1785 C 0.23713 0.50922 0.60643 0.0
C1786 C 0.26295 0.50175 0.60845 0.0
C1787 C 0.33797 0.47989 0.61227 0.0
C1788 C 0.31205 0.48735 0.61225 0.0
H1789 H 0.19656 0.547 0.63452 0.0
H1790 H 0.23911 0.53611 0.63619 0.0
H1791 H 0.25581 0.46321 0.60378 0.0
H1792 H 0.37416 0.43252 0.62955 0.0
H1793 H 0.33259 0.44726 0.63427 0.0
C1794 C 0.05729 0.36443 0.6223 0.0
C1795 C 0.04417 0.37947 0.63884 0.0
C1796 C 0.0467 0.34319 0.61254 0.0
C1797 C 0.00286 0.29869 0.63361 0.0
H1798 H 0.00771 0.26958 0.56762 0.0
C1799 C 0.96257 0.20468 0.61732 0.0
C1800 C 0.97573 0.18821 0.60245 0.0
C1801 C 0.96819 0.22941 0.61728 0.0
C1802 C 0.00641 0.27731 0.58624 0.0
H1803 H 0.00911 0.38557 0.65604 0.0
H1804 H 0.99064 0.34882 0.63894 0.0
H1805 H 0.02315 0.31082 0.57479 0.0
H1806 H 0.00199 0.18537 0.57259 0.0
H1807 H 0.01365 0.22821 0.57402 0.0
H1808 H 0.98759 0.26531 0.64576 0.0
C1809 C 0.00919 0.35304 0.63389 0.0
C1810 C 0.01515 0.30101 0.59025 0.0
C1811 C 0.01972 0.3741 0.64363 0.0
C1812 C 0.99289 0.19741 0.5856 0.0
C1813 C 0.99907 0.22214 0.586 0.0
C1814 C 0.99458 0.27505 0.62976 0.0
C1815 C 0.02287 0.33676 0.61921 0.0
C1816 C 0.01328 0.31198 0.61399 0.0
C1817 C 0.98741 0.23835 0.60261 0.0
C1818 C 0.996 0.26397 0.60601 0.0
H1819 H 0.07619 0.36814 0.61836 0.0
H1820 H 0.05768 0.33098 0.60127 0.0
H1821 H 0.00171 0.30637 0.65228 0.0
H1822 H 0.94844 0.19841 0.62973 0.0
H1823 H 0.95779 0.24138 0.62935 0.0
C1824 C 0.04668 0.66585 0.20513 0.0
C1825 C 0.0343 0.6681 0.18238 0.0
C1826 C 0.04856 0.68586 0.22128 0.0
C1827 C 0.04274 0.75333 0.22238 0.0
H1828 H 0.03713 0.74392 0.29399 0.0
C1829 C 0.05371 0.83235 0.29394 0.0
C1830 C 0.03709 0.83249 0.31381 0.0
C1831 C 0.05504 0.81225 0.27775 0.0
C1832 C 0.03862 0.74689 0.27402 0.0
H1833 H 0.01386 0.69238 0.15861 0.0
H1834 H 0.01641 0.72711 0.1869 0.0
H1835 H 0.03542 0.70889 0.26613 0.0
H1836 H 0.00923 0.8118 0.33269 0.0
H1837 H 0.01101 0.77728 0.30437 0.0
H1838 H 0.04492 0.79148 0.2303 0.0
C1839 C 0.02525 0.71028 0.1922 0.0
C1840 C 0.03795 0.72674 0.25805 0.0
C1841 C 0.02356 0.69036 0.17609 0.0
C1842 C 0.02193 0.81233 0.31725 0.0
C1843 C 0.02324 0.79235 0.30124 0.0
C1844 C 0.04328 0.77351 0.23837 0.0
C1845 C 0.03794 0.70837 0.21494 0.0
C1846 C 0.03976 0.72972 0.23201 0.0
C1847 C 0.03986 0.79198 0.28133 0.0
C1848 C 0.04094 0.77054 0.26436 0.0
H1849 H 0.05491 0.64871 0.21041 0.0
H1850 H 0.05862 0.68378 0.23855 0.0
H1851 H 0.04458 0.75626 0.20244 0.0
H1852 H 0.06529 0.84781 0.29058 0.0
H1853 H 0.06809 0.8125 0.26261 0.0
C1854 C 0.68167 0.06039 0.3111 0.0
C1855 C 0.66587 0.04035 0.3104 0.0
C1856 C 0.70096 0.0621 0.29429 0.0
C1857 C 0.72786 0.03412 0.23646 0.0
H1858 H 0.7878 0.05819 0.26538 0.0
C1859 C 0.82752 0.01594 0.20249 0.0
C1860 C 0.83477 0.03541 0.18721 0.0
C1861 C 0.80701 0.01802 0.21777 0.0
C1862 C 0.77113 0.05148 0.25716 0.0
H1863 H 0.65578 0.00856 0.28873 0.0
H1864 H 0.69047 0.01026 0.26078 0.0
H1865 H 0.75053 0.05953 0.28996 0.0
H1866 H 0.82692 0.07317 0.17787 0.0
H1867 H 0.79194 0.0769 0.20546 0.0
H1868 H 0.74917 0.0252 0.20401 0.0
C1869 C 0.68816 0.02469 0.27442 0.0
C1870 C 0.74967 0.05246 0.27105 0.0
C1871 C 0.66852 0.02331 0.29093 0.0
C1872 C 0.82205 0.05765 0.1892 0.0
C1873 C 0.80185 0.05985 0.20484 0.0
C1874 C 0.74943 0.03285 0.22273 0.0
C1875 C 0.70513 0.04371 0.27641 0.0
C1876 C 0.7277 0.04373 0.26095 0.0
C1877 C 0.79384 0.03984 0.21863 0.0
C1878 C 0.77116 0.04143 0.23307 0.0
H1879 H 0.67982 0.07437 0.32533 0.0
H1880 H 0.71295 0.0776 0.29579 0.0
H1881 H 0.71134 0.0276 0.22781 0.0
H1882 H 0.83722 0.99889 0.20222 0.0
H1883 H 0.80117 0.00246 0.22859 0.0
C1884 C 0.47621 0.83368 0.20344 0.0
C1885 C 0.45859 0.8376 0.18498 0.0
C1886 C 0.47516 0.8133 0.21893 0.0
C1887 C 0.43559 0.76176 0.23927 0.0
H1888 H 0.4977 0.73302 0.25643 0.0
C1889 C 0.44524 0.68632 0.31375 0.0
C1890 C 0.46387 0.66883 0.31146 0.0
C1891 C 0.4433 0.70558 0.29687 0.0
C1892 C 0.48015 0.74053 0.25156 0.0
H1893 H 0.42517 0.82399 0.16907 0.0
H1894 H 0.42345 0.78788 0.1957 0.0
H1895 H 0.49637 0.76931 0.23075 0.0
H1896 H 0.49283 0.65635 0.28736 0.0
H1897 H 0.48991 0.69018 0.25803 0.0
H1898 H 0.4194 0.73241 0.25947 0.0
C1899 C 0.43807 0.8007 0.19854 0.0
C1900 C 0.47937 0.76174 0.23715 0.0
C1901 C 0.43898 0.82143 0.18325 0.0
C1902 C 0.47928 0.67016 0.2906 0.0
C1903 C 0.47741 0.68954 0.27364 0.0
C1904 C 0.43637 0.74041 0.25355 0.0
C1905 C 0.45656 0.79599 0.21616 0.0
C1906 C 0.4571 0.7729 0.23103 0.0
C1907 C 0.45967 0.70783 0.27686 0.0
C1908 C 0.45868 0.72962 0.26014 0.0
H1909 H 0.49111 0.84622 0.2056 0.0
H1910 H 0.48925 0.81098 0.23284 0.0
H1911 H 0.41808 0.76975 0.23513 0.0
H1912 H 0.43249 0.68568 0.32915 0.0
H1913 H 0.42942 0.7192 0.30014 0.0
C1914 C 0.66785 0.47875 0.20358 0.0
C1915 C 0.66627 0.46274 0.18309 0.0
C1916 C 0.68756 0.47768 0.21989 0.0
C1917 C 0.7355 0.43933 0.24479 0.0
H1918 H 0.77056 0.49985 0.2532 0.0
C1919 C 0.82352 0.44443 0.30403 0.0
C1920 C 0.82856 0.46637 0.31658 0.0
C1921 C 0.80437 0.44302 0.28686 0.0
C1922 C 0.76082 0.48285 0.25155 0.0
H1923 H 0.68304 0.43149 0.16506 0.0
H1924 H 0.71736 0.42934 0.194 0.0
H1925 H 0.73501 0.49863 0.22641 0.0
H1926 H 0.81604 0.50347 0.32203 0.0
H1927 H 0.78214 0.50062 0.29397 0.0
H1928 H 0.76046 0.42368 0.27077 0.0
C1929 C 0.70352 0.44308 0.19697 0.0
C1930 C 0.74052 0.48217 0.23599 0.0
C1931 C 0.6839 0.44435 0.18043 0.0
C1932 C 0.81334 0.48647 0.31227 0.0
C1933 C 0.7938 0.48486 0.29585 0.0
C1934 C 0.75553 0.4401 0.26087 0.0
C1935 C 0.70583 0.46017 0.21642 0.0
C1936 C 0.72761 0.46046 0.23257 0.0
C1937 C 0.78918 0.46324 0.28254 0.0
C1938 C 0.7684 0.46194 0.26463 0.0
H1939 H 0.65397 0.49227 0.20695 0.0
H1940 H 0.68863 0.49067 0.23516 0.0
H1941 H 0.72575 0.42239 0.24246 0.0
H1942 H 0.83434 0.42834 0.30724 0.0
H1943 H 0.80165 0.42607 0.27689 0.0
C1944 C 0.97899 0.16749 0.70599 0.0
C1945 C 0.96345 0.16642 0.6852 0.0
C1946 C 0.97756 0.18693 0.72289 0.0
C1947 C 0.95403 0.25029 0.72694 0.0
H1948 H 0.97091 0.24349 0.79701 0.0
C1949 C 0.94468 0.327 0.8022 0.0
C1950 C 0.96615 0.33144 0.81566 0.0
C1951 C 0.94302 0.30689 0.78611 0.0
C1952 C 0.96616 0.24559 0.77746 0.0
H1953 H 0.93211 0.18331 0.66774 0.0
H1954 H 0.92906 0.21657 0.69753 0.0
H1955 H 0.96946 0.20745 0.77026 0.0
H1956 H 0.00215 0.31736 0.82367 0.0
H1957 H 0.999 0.28229 0.79618 0.0
H1958 H 0.95033 0.2885 0.73452 0.0
C1959 C 0.94332 0.20322 0.70005 0.0
C1960 C 0.96547 0.225 0.76208 0.0
C1961 C 0.94498 0.18398 0.68302 0.0
C1962 C 0.98562 0.31502 0.81309 0.0
C1963 C 0.98375 0.29471 0.79755 0.0
C1964 C 0.95434 0.27082 0.74246 0.0
C1965 C 0.96004 0.20537 0.71978 0.0
C1966 C 0.95964 0.22709 0.73654 0.0
C1967 C 0.96248 0.29047 0.7839 0.0
C1968 C 0.96067 0.26866 0.76776 0.0
H1969 H 0.99257 0.15357 0.709 0.0
H1970 H 0.9907 0.18783 0.73791 0.0
H1971 H 0.94996 0.25274 0.70729 0.0
H1972 H 0.92913 0.33885 0.80409 0.0
H1973 H 0.92633 0.30381 0.77588 0.0
C1974 C 0.31265 0.98095 0.67856 0.0
C1975 C 0.33306 0.96626 0.68286 0.0
C1976 C 0.2925 0.97979 0.69419 0.0
C1977 C 0.26027 0.94068 0.73823 0.0
H1978 H 0.23109 1.00137 0.76036 0.0
C1979 C 0.18438 0.94539 0.813 0.0
C1980 C 0.1672 0.96431 0.81165 0.0
C1981 C 0.20377 0.94426 0.79621 0.0
C1982 C 0.23871 0.98424 0.75403 0.0
H1983 H 0.34832 0.9384 0.70668 0.0
H1984 H 0.31267 0.93604 0.73423 0.0
H1985 H 0.26731 0.00215 0.73433 0.0
H1986 H 0.15479 0.99448 0.78899 0.0
H1987 H 0.18859 0.99258 0.75958 0.0
H1988 H 0.23148 0.92273 0.75763 0.0
C1989 C 0.31242 0.94855 0.71862 0.0
C1990 C 0.25959 0.9847 0.73924 0.0
C1991 C 0.33277 0.94984 0.70289 0.0
C1992 C 0.16852 0.9806 0.79152 0.0
C1993 C 0.18785 0.97941 0.77458 0.0
C1994 C 0.23923 0.9402 0.7529 0.0
C1995 C 0.29215 0.9637 0.7145 0.0
C1996 C 0.27057 0.96295 0.73111 0.0
C1997 C 0.20617 0.96169 0.77722 0.0
C1998 C 0.22814 0.96199 0.76095 0.0
H1999 H 0.31203 0.99303 0.66265 0.0
H2000 H 0.27698 0.99126 0.69012 0.0
H2001 H 0.26817 0.92364 0.73199 0.0
H2002 H 0.18346 0.93188 0.82765 0.0
H2003 H 0.21739 0.93026 0.79882 0.0
C2004 C 0.52495 0.16493 0.7932 0.0
C2005 C 0.54325 0.16216 0.81129 0.0
C2006 C 0.52501 0.18476 0.77679 0.0
C2007 C 0.56362 0.23538 0.75227 0.0
H2008 H 0.50128 0.265 0.73795 0.0
C2009 C 0.55489 0.32834 0.70112 0.0
C2010 C 0.53602 0.33057 0.68367 0.0
C2011 C 0.55617 0.30799 0.71689 0.0
C2012 C 0.51885 0.25686 0.74152 0.0
H2013 H 0.57679 0.17773 0.82528 0.0
H2014 H 0.57684 0.21222 0.79695 0.0
H2015 H 0.50321 0.22879 0.7639 0.0
H2016 H 0.50488 0.3126 0.66767 0.0
H2017 H 0.50664 0.27742 0.69518 0.0
H2018 H 0.57922 0.2637 0.73001 0.0
C2019 C 0.56241 0.19899 0.79523 0.0
C2020 C 0.51997 0.23595 0.75639 0.0
C2021 C 0.5624 0.17907 0.81154 0.0
C2022 C 0.51879 0.31194 0.68186 0.0
C2023 C 0.52002 0.29163 0.69752 0.0
C2024 C 0.5625 0.25638 0.73745 0.0
C2025 C 0.54342 0.20246 0.77797 0.0
C2026 C 0.54236 0.22477 0.7619 0.0
C2027 C 0.53871 0.28933 0.71532 0.0
C2028 C 0.54008 0.26736 0.73175 0.0
H2029 H 0.51025 0.15204 0.79204 0.0
H2030 H 0.51041 0.18631 0.76334 0.0
H2031 H 0.58119 0.22724 0.75579 0.0
H2032 H 0.56858 0.34238 0.70263 0.0
H2033 H 0.57074 0.30698 0.73044 0.0
C2034 C 0.18972 0.51937 0.68055 0.0
C2035 C 0.16951 0.53446 0.68437 0.0
C2036 C 0.20993 0.52091 0.696 0.0
C2037 C 0.24299 0.56167 0.73795 0.0
H2038 H 0.27366 0.50174 0.75969 0.0
C2039 C 0.32078 0.55884 0.8103 0.0
C2040 C 0.33783 0.53974 0.80914 0.0
C2041 C 0.30133 0.55976 0.79366 0.0
C2042 C 0.26562 0.51865 0.75342 0.0
H2043 H 0.15477 0.56367 0.70705 0.0
H2044 H 0.1905 0.56647 0.73461 0.0
H2045 H 0.23633 0.50005 0.73551 0.0
H2046 H 0.3502 0.50931 0.78657 0.0
H2047 H 0.31616 0.51082 0.75735 0.0
H2048 H 0.27246 0.58029 0.75565 0.0
C2049 C 0.19049 0.55328 0.7195 0.0
C2050 C 0.24408 0.51768 0.73973 0.0
C2051 C 0.17007 0.55167 0.70384 0.0
C2052 C 0.33652 0.52327 0.78904 0.0
C2053 C 0.31707 0.52425 0.77221 0.0
C2054 C 0.26467 0.56265 0.75157 0.0
C2055 C 0.21059 0.53778 0.71573 0.0
C2056 C 0.23258 0.53915 0.73173 0.0
C2057 C 0.29873 0.54197 0.77493 0.0
C2058 C 0.27629 0.54113 0.75942 0.0
H2059 H 0.19042 0.50705 0.66479 0.0
H2060 H 0.22536 0.50926 0.69202 0.0
H2061 H 0.23472 0.5785 0.73176 0.0
H2062 H 0.32147 0.57233 0.82512 0.0
H2063 H 0.28768 0.57372 0.79638 0.0
C2064 C 0.16676 0.71638 0.10137 0.0
C2065 C 0.16577 0.69182 0.10826 0.0
C2066 C 0.18506 0.73129 0.11065 0.0
C2067 C 0.23446 0.73889 0.15552 0.0
H2068 H 0.26842 0.7654 0.09815 0.0
C2069 C 0.32403 0.7906 0.16763 0.0
C2070 C 0.32585 0.81228 0.15404 0.0
C2071 C 0.30595 0.77378 0.16188 0.0
C2072 C 0.25908 0.75835 0.11439 0.0
H2073 H 0.18128 0.66406 0.13214 0.0
H2074 H 0.21357 0.69035 0.14849 0.0
H2075 H 0.23131 0.74237 0.09189 0.0
H2076 H 0.31114 0.83308 0.12315 0.0
H2077 H 0.27916 0.80419 0.11353 0.0
H2078 H 0.26183 0.75549 0.17813 0.0
C2079 C 0.2002 0.69797 0.13588 0.0
C2080 C 0.23782 0.7452 0.11081 0.0
C2081 C 0.18177 0.68299 0.12658 0.0
C2082 C 0.31008 0.81643 0.13389 0.0
C2083 C 0.29185 0.79979 0.12832 0.0
C2084 C 0.25562 0.75237 0.15917 0.0
C2085 C 0.20268 0.72181 0.12688 0.0
C2086 C 0.22518 0.73562 0.13133 0.0
C2087 C 0.2892 0.77855 0.14266 0.0
C2088 C 0.26802 0.76246 0.13864 0.0
H2089 H 0.15434 0.72359 0.08752 0.0
H2090 H 0.18635 0.7498 0.1039 0.0
H2091 H 0.22503 0.73156 0.17158 0.0
H2092 H 0.33639 0.78685 0.18291 0.0
H2093 H 0.30479 0.75727 0.17281 0.0
C2094 C 0.82293 0.20807 0.12597 0.0
C2095 C 0.81816 0.18453 0.11696 0.0
C2096 C 0.80413 0.22269 0.13508 0.0
C2097 C 0.73884 0.23041 0.12585 0.0
H2098 H 0.74874 0.28421 0.17185 0.0
C2099 C 0.67621 0.31201 0.1217 0.0
C2100 C 0.69004 0.33225 0.11462 0.0
C2101 C 0.68745 0.29204 0.133 0.0
C2102 C 0.74553 0.26903 0.15931 0.0
H2103 H 0.78991 0.15751 0.11155 0.0
H2104 H 0.75739 0.18266 0.12821 0.0
H2105 H 0.77784 0.25055 0.17091 0.0
H2106 H 0.72551 0.34889 0.1159 0.0
H2107 H 0.74518 0.31421 0.13583 0.0
H2108 H 0.70726 0.24934 0.1134 0.0
C2109 C 0.77559 0.19002 0.12781 0.0
C2110 C 0.76225 0.24987 0.1586 0.0
C2111 C 0.79433 0.17551 0.11845 0.0
C2112 C 0.71464 0.3333 0.12107 0.0
C2113 C 0.72578 0.31356 0.1327 0.0
C2114 C 0.72205 0.24938 0.12676 0.0
C2115 C 0.78013 0.21404 0.13555 0.0
C2116 C 0.75975 0.23101 0.14092 0.0
C2117 C 0.71255 0.2923 0.13765 0.0
C2118 C 0.7259 0.26945 0.14257 0.0
H2119 H 0.84114 0.21539 0.12557 0.0
H2120 H 0.8083 0.24118 0.1406 0.0
H2121 H 0.73636 0.21637 0.11182 0.0
H2122 H 0.65715 0.31094 0.11691 0.0
H2123 H 0.67688 0.27586 0.1367 0.0
C2124 C 0.3014 0.67875 0.32563 0.0
C2125 C 0.31133 0.67048 0.3482 0.0
C2126 C 0.28785 0.70027 0.32511 0.0
C2127 C 0.27229 0.75499 0.36355 0.0
H2128 H 0.21132 0.75173 0.32758 0.0
C2129 C 0.19546 0.82361 0.38253 0.0
C2130 C 0.17402 0.81151 0.38908 0.0
C2131 C 0.2142 0.81092 0.37053 0.0
C2132 C 0.22842 0.75304 0.33749 0.0
H2133 H 0.31539 0.67781 0.38776 0.0
H2134 H 0.2907 0.71468 0.38728 0.0
H2135 H 0.24177 0.72026 0.32091 0.0
H2136 H 0.15434 0.77761 0.38717 0.0
H2137 H 0.18685 0.75537 0.36615 0.0
H2138 H 0.25804 0.78677 0.38158 0.0
C2139 C 0.29392 0.7052 0.36978 0.0
C2140 C 0.24597 0.73512 0.33353 0.0
C2141 C 0.30773 0.68393 0.3702 0.0
C2142 C 0.17091 0.78709 0.38242 0.0
C2143 C 0.18939 0.77453 0.37015 0.0
C2144 C 0.25466 0.77285 0.3676 0.0
C2145 C 0.28381 0.71366 0.34723 0.0
C2146 C 0.26763 0.73527 0.34742 0.0
C2147 C 0.21144 0.78613 0.36459 0.0
C2148 C 0.23212 0.77136 0.35548 0.0
H2149 H 0.30446 0.66877 0.30839 0.0
H2150 H 0.28057 0.70642 0.3074 0.0
H2151 H 0.28907 0.75598 0.37404 0.0
H2152 H 0.198 0.84258 0.38746 0.0
H2153 H 0.23098 0.82028 0.3664 0.0
C2154 C 0.78497 0.33637 0.37629 0.0
C2155 C 0.80921 0.32909 0.37876 0.0
C2156 C 0.76779 0.32027 0.3665 0.0
C2157 C 0.75959 0.25817 0.3382 0.0
H2158 H 0.70553 0.25585 0.38453 0.0
C2159 C 0.71372 0.17177 0.37439 0.0
C2160 C 0.68894 0.17247 0.38029 0.0
C2161 C 0.72498 0.19201 0.36382 0.0
C2162 C 0.72009 0.25651 0.37093 0.0
H2163 H 0.83513 0.30032 0.37156 0.0
H2164 H 0.80525 0.27201 0.35465 0.0
H2165 H 0.73221 0.29074 0.38486 0.0
H2166 H 0.65599 0.19386 0.37821 0.0
H2167 H 0.67582 0.22965 0.36019 0.0
H2168 H 0.74822 0.22277 0.32578 0.0
C2169 C 0.79933 0.29014 0.35983 0.0
C2170 C 0.73545 0.27661 0.37107 0.0
C2171 C 0.81648 0.30628 0.3696 0.0
C2172 C 0.67515 0.19297 0.37375 0.0
C2173 C 0.68648 0.2134 0.36353 0.0
C2174 C 0.74427 0.23787 0.33824 0.0
C2175 C 0.77457 0.29652 0.3593 0.0
C2176 C 0.75585 0.27741 0.35527 0.0
C2177 C 0.71169 0.21343 0.35943 0.0
C2178 C 0.7248 0.23657 0.35515 0.0
H2179 H 0.77905 0.35388 0.38345 0.0
H2180 H 0.74897 0.32593 0.36594 0.0
H2181 H 0.77492 0.25834 0.32553 0.0
H2182 H 0.72462 0.15605 0.37925 0.0
H2183 H 0.74444 0.19154 0.36104 0.0
C2184 C 0.68812 0.19002 0.86256 0.0
C2185 C 0.67337 0.19233 0.84129 0.0
C2186 C 0.70527 0.20771 0.86813 0.0
C2187 C 0.74305 0.25124 0.83512 0.0
H2188 H 0.76546 0.26535 0.90236 0.0
C2189 C 0.82132 0.31565 0.86797 0.0
C2190 C 0.83547 0.30596 0.88744 0.0
C2191 C 0.80233 0.30205 0.85785 0.0
C2192 C 0.7594 0.2614 0.88348 0.0
H2193 H 0.66326 0.21585 0.81054 0.0
H2194 H 0.69335 0.24708 0.82042 0.0
H2195 H 0.72666 0.24516 0.89644 0.0
H2196 H 0.84343 0.27375 0.90914 0.0
H2197 H 0.8102 0.24995 0.89146 0.0
H2198 H 0.77602 0.26784 0.82238 0.0
C2199 C 0.69198 0.23129 0.83238 0.0
C2200 C 0.7372 0.24999 0.8801 0.0
C2201 C 0.67481 0.21349 0.82675 0.0
C2202 C 0.83235 0.28166 0.89452 0.0
C2203 C 0.81347 0.26812 0.88441 0.0
C2204 C 0.76522 0.26302 0.83854 0.0
C2205 C 0.70796 0.22808 0.85257 0.0
C2206 C 0.72913 0.24413 0.85593 0.0
C2207 C 0.79749 0.27877 0.86719 0.0
C2208 C 0.7738 0.26745 0.86279 0.0
H2209 H 0.68754 0.1738 0.874 0.0
H2210 H 0.71747 0.20454 0.88367 0.0
H2211 H 0.7374 0.24672 0.81626 0.0
H2212 H 0.82352 0.33439 0.86217 0.0
H2213 H 0.7902 0.31049 0.84448 0.0
C2214 C 0.28468 0.67377 0.87341 0.0
C2215 C 0.30941 0.674 0.87955 0.0
C2216 C 0.27367 0.69437 0.86319 0.0
C2217 C 0.27921 0.75886 0.8711 0.0
H2218 H 0.22423 0.76168 0.82594 0.0
C2219 C 0.21491 0.83947 0.87743 0.0
C2220 C 0.1906 0.83252 0.87981 0.0
C2221 C 0.23195 0.82325 0.8674 0.0
C2222 C 0.2396 0.76124 0.83855 0.0
H2223 H 0.34254 0.69497 0.87822 0.0
H2224 H 0.32317 0.73138 0.86073 0.0
H2225 H 0.25064 0.72577 0.82587 0.0
H2226 H 0.16444 0.80422 0.87224 0.0
H2227 H 0.19407 0.77567 0.85498 0.0
H2228 H 0.26743 0.79319 0.88525 0.0
C2229 C 0.31234 0.71522 0.86367 0.0
C2230 C 0.25476 0.74074 0.83841 0.0
C2231 C 0.32342 0.69444 0.87357 0.0
C2232 C 0.18314 0.80994 0.87032 0.0
C2233 C 0.20016 0.79366 0.86037 0.0
C2234 C 0.26401 0.77918 0.8714 0.0
C2235 C 0.28716 0.71569 0.85934 0.0
C2236 C 0.27427 0.73906 0.85524 0.0
C2237 C 0.22497 0.79968 0.85993 0.0
C2238 C 0.24355 0.78033 0.85571 0.0
H2239 H 0.27361 0.6581 0.87781 0.0
H2240 H 0.25424 0.6942 0.86022 0.0
H2241 H 0.29381 0.75794 0.88463 0.0
H2242 H 0.22099 0.85679 0.88484 0.0
H2243 H 0.25081 0.82866 0.8669 0.0
C2244 C 0.81012 0.17411 0.61274 0.0
C2245 C 0.83135 0.18681 0.60664 0.0
C2246 C 0.79065 0.18631 0.62408 0.0
C2247 C 0.77376 0.24318 0.65723 0.0
H2248 H 0.71376 0.23902 0.61961 0.0
C2249 C 0.69863 0.3139 0.67225 0.0
C2250 C 0.6892 0.32359 0.65004 0.0
C2251 C 0.71198 0.29226 0.67175 0.0
C2252 C 0.73033 0.24031 0.63042 0.0
H2253 H 0.84974 0.22146 0.60862 0.0
H2254 H 0.81604 0.24274 0.62876 0.0
H2255 H 0.7463 0.20986 0.61138 0.0
H2256 H 0.68531 0.31815 0.61013 0.0
H2257 H 0.70958 0.281 0.60891 0.0
H2258 H 0.75868 0.27453 0.67505 0.0
C2259 C 0.81425 0.22348 0.62484 0.0
C2260 C 0.74884 0.22341 0.62592 0.0
C2261 C 0.83345 0.21141 0.61319 0.0
C2262 C 0.69256 0.31098 0.62745 0.0
C2263 C 0.70621 0.28956 0.62686 0.0
C2264 C 0.75531 0.26005 0.66171 0.0
C2265 C 0.79243 0.21123 0.62985 0.0
C2266 C 0.77109 0.22533 0.63858 0.0
C2267 C 0.71645 0.28016 0.64895 0.0
C2268 C 0.73376 0.25942 0.64765 0.0
H2269 H 0.80822 0.15509 0.60775 0.0
H2270 H 0.77406 0.17646 0.6278 0.0
H2271 H 0.79064 0.24487 0.66746 0.0
H2272 H 0.69573 0.32313 0.68996 0.0
H2273 H 0.71918 0.28527 0.68915 0.0
C2274 C 0.32274 0.81115 0.62029 0.0
C2275 C 0.30811 0.83082 0.61292 0.0
C2276 C 0.31234 0.79097 0.6319 0.0
C2277 C 0.2556 0.76692 0.65964 0.0
H2278 H 0.26527 0.71365 0.61291 0.0
C2279 C 0.17875 0.70744 0.62488 0.0
C2280 C 0.18327 0.68371 0.61625 0.0
C2281 C 0.19755 0.72149 0.6347 0.0
C2282 C 0.26271 0.72787 0.62676 0.0
H2283 H 0.27195 0.84616 0.61382 0.0
H2284 H 0.25371 0.81104 0.63424 0.0
H2285 H 0.29383 0.747 0.61369 0.0
H2286 H 0.21089 0.6557 0.61219 0.0
H2287 H 0.24354 0.68007 0.62977 0.0
H2288 H 0.22361 0.74834 0.67169 0.0
C2289 C 0.27312 0.81105 0.63106 0.0
C2290 C 0.27917 0.74704 0.6272 0.0
C2291 C 0.28342 0.83098 0.61908 0.0
C2292 C 0.20675 0.67391 0.61877 0.0
C2293 C 0.22552 0.68791 0.62872 0.0
C2294 C 0.23921 0.74759 0.65938 0.0
C2295 C 0.28729 0.79047 0.63665 0.0
C2296 C 0.27495 0.76738 0.64257 0.0
C2297 C 0.22128 0.7121 0.63615 0.0
C2298 C 0.24181 0.72861 0.64184 0.0
H2299 H 0.3419 0.81082 0.61579 0.0
H2300 H 0.3236 0.7753 0.63601 0.0
H2301 H 0.25219 0.7823 0.6719 0.0
H2302 H 0.16077 0.71532 0.6236 0.0
H2303 H 0.19366 0.74015 0.63993 0.0
C2304 C 0.97921 0.45469 0.9173 0.0
C2305 C 0.97785 0.43037 0.92475 0.0
C2306 C 0.98242 0.47293 0.93506 0.0
C2307 C 0.98082 0.48681 0.00239 0.0
H2308 H 0.03048 0.53367 0.98473 0.0
C2309 C 0.01737 0.55327 0.07497 0.0
C2310 C 0.02045 0.57743 0.06738 0.0
C2311 C 0.01374 0.53505 0.05732 0.0
C2312 C 0.01641 0.5209 0.98982 0.0
H2313 H 0.97802 0.40551 0.95602 0.0
H2314 H 0.98441 0.43752 0.98742 0.0
H2315 H 0.01862 0.50258 0.95458 0.0
H2316 H 0.02275 0.60188 0.03589 0.0
H2317 H 0.01512 0.57 0.00463 0.0
H2318 H 0.97846 0.50517 0.03755 0.0
C2319 C 0.98239 0.4426 0.96797 0.0
C2320 C 0.00958 0.50313 0.97258 0.0
C2321 C 0.97876 0.42434 0.95015 0.0
C2322 C 0.02057 0.58321 0.04192 0.0
C2323 C 0.01629 0.56499 0.02417 0.0
C2324 C 0.98757 0.50464 0.0196 0.0
C2325 C 0.9849 0.46698 0.96045 0.0
C2326 C 0.99169 0.48597 0.9787 0.0
C2327 C 0.01233 0.54081 0.0318 0.0
C2328 C 0.00547 0.52183 0.01351 0.0
H2329 H 0.97836 0.45948 0.89766 0.0
H2330 H 0.9837 0.49162 0.92884 0.0
H2331 H 0.96685 0.47393 0.00749 0.0
H2332 H 0.01761 0.54852 0.09464 0.0
H2333 H 0.01151 0.51652 0.06373 0.0
C2334 C 0.05488 0.99408 0.92156 0.0
C2335 C 0.07692 0.98328 0.92875 0.0
C2336 C 0.0364 0.9978 0.93892 0.0
C2337 C 0.01453 0.98054 0.00186 0.0
H2338 H 0.98026 0.0422 0.99752 0.0
C2339 C 0.95129 0.01423 0.07998 0.0
C2340 C 0.92836 0.02288 0.07274 0.0
C2341 C 0.96938 0.01012 0.06226 0.0
C2342 C 0.98951 0.02484 -0.00119 0.0
H2343 H 0.09666 0.96707 0.95946 0.0
H2344 H 0.06436 0.97412 0.99031 0.0
H2345 H 0.01197 0.0325 0.96724 0.0
H2346 H 0.90641 0.0345 0.04138 0.0
H2347 H 0.93843 0.02773 0.01011 0.0
H2348 H 0.99224 0.97312 0.03373 0.0
C2349 C 0.06132 0.97946 0.97109 0.0
C2350 C 0.00765 0.01921 0.98145 0.0
C2351 C 0.07984 0.97549 0.95352 0.0
C2352 C 0.92407 0.02818 0.04746 0.0
C2353 C 0.94233 0.02421 0.02963 0.0
C2354 C 0.99649 0.98625 0.01932 0.0
C2355 C 0.03954 0.99109 0.96403 0.0
C2356 C 0.02036 0.99697 0.98272 0.0
C2357 C 0.96498 0.01459 0.03684 0.0
C2358 C 0.98382 0.00848 0.018 0.0
H2359 H 0.05188 0.99977 0.90241 0.0
H2360 H 0.01964 0.00611 0.93263 0.0
H2361 H 0.02367 0.96312 0.00316 0.0
H2362 H 0.95509 0.0101 0.09942 0.0
H2363 H 0.98677 0.00315 0.06844 0.0
C2364 C 0.53321 0.05211 0.92852 0.0
C2365 C 0.52197 0.07514 0.92821 0.0
C2366 C 0.52569 0.03422 0.94524 0.0
C2367 C 0.49649 0.026 0.00596 0.0
H2368 H 0.49028 0.95884 0.98442 0.0
C2369 C 0.46905 0.95116 0.0757 0.0
C2370 C 0.47963 0.92814 0.07282 0.0
C2371 C 0.47168 0.96876 0.05711 0.0
C2372 C 0.49222 0.97742 0.99088 0.0
H2373 H 0.49372 0.09724 0.94512 0.0
H2374 H 0.48064 0.06585 0.97465 0.0
H2375 H 0.49934 0.99028 0.95379 0.0
H2376 H 0.50166 0.90526 0.0489 0.0
H2377 H 0.50768 0.93642 0.01692 0.0
H2378 H 0.49038 0.01327 0.04311 0.0
C2379 C 0.49537 0.06181 0.96188 0.0
C2380 C 0.49728 0.99548 0.97325 0.0
C2381 C 0.5028 0.07974 0.94493 0.0
C2382 C 0.49319 0.92294 0.05129 0.0
C2383 C 0.49638 0.94075 0.03291 0.0
C2384 C 0.49173 0.00793 0.02365 0.0
C2385 C 0.50678 0.03886 0.96221 0.0
C2386 C 0.49968 0.01994 0.98063 0.0
C2387 C 0.48567 0.96397 0.03556 0.0
C2388 C 0.48971 0.98333 0.01642 0.0
H2389 H 0.5479 0.04778 0.91581 0.0
H2390 H 0.53505 0.01686 0.94521 0.0
H2391 H 0.49854 0.04463 0.01228 0.0
H2392 H 0.45863 0.9555 0.09231 0.0
H2393 H 0.46269 0.98612 0.05969 0.0
C2394 C 0.58144 0.4833 0.04171 0.0
C2395 C 0.57496 0.48177 0.067 0.0
C2396 C 0.56353 0.48729 0.02364 0.0
C2397 C 0.49787 0.48294 0.01229 0.0
H2398 H 0.50782 0.53695 0.96694 0.0
C2399 C 0.42055 0.52257 0.95257 0.0
C2400 C 0.42609 0.52389 0.92705 0.0
C2401 C 0.43905 0.51843 0.96992 0.0
C2402 C 0.5049 0.52177 0.97943 0.0
H2403 H 0.54522 0.48179 0.09346 0.0
H2404 H 0.51391 0.48812 0.06195 0.0
H2405 H 0.5403 0.52495 0.99558 0.0
H2406 H 0.45474 0.5233 0.89936 0.0
H2407 H 0.48723 0.51683 0.92973 0.0
H2408 H 0.46243 0.47984 0.99627 0.0
C2409 C 0.53264 0.48657 0.05597 0.0
C2410 C 0.52349 0.5148 0.99563 0.0
C2411 C 0.55049 0.48312 0.07397 0.0
C2412 C 0.45025 0.52223 0.91908 0.0
C2413 C 0.46875 0.51867 0.9364 0.0
C2414 C 0.47928 0.48993 0.99614 0.0
C2415 C 0.53901 0.48923 0.03072 0.0
C2416 C 0.52008 0.49538 0.01226 0.0
C2417 C 0.46326 0.51609 0.96188 0.0
C2418 C 0.48262 0.50945 0.97965 0.0
H2419 H 0.60031 0.48241 0.03612 0.0
H2420 H 0.56882 0.48917 0.00422 0.0
H2421 H 0.4949 0.46777 0.02481 0.0
H2422 H 0.4019 0.52364 0.9589 0.0
H2423 H 0.43445 0.51663 0.98953 0.0
C2424 C 0.9764 0.08038 0.54423 0.0
C2425 C 0.98419 0.07638 0.56884 0.0
C2426 C 0.97973 0.06231 0.52611 0.0
C2427 C 0.99077 0.99695 0.51765 0.0
H2428 H 0.02362 0.01641 0.45676 0.0
C2429 C 0.02844 0.92709 0.4472 0.0
C2430 C 0.02213 0.93168 0.42226 0.0
C2431 C 0.02479 0.94505 0.46537 0.0
C2432 C 0.0143 0.01077 0.47361 0.0
H2433 H 1.0002 0.05025 0.59438 0.0
H2434 H 0.00594 0.01879 0.5628 0.0
H2435 H 0.01231 0.0472 0.4877 0.0
H2436 H 0.00794 0.95828 0.39626 0.0
H2437 H 0.00144 0.9896 0.42792 0.0
H2438 H 0.99266 0.96052 0.50354 0.0
C2439 C 0.99746 0.03579 0.55741 0.0
C2440 C 0.00772 0.02836 0.49118 0.0
C2441 C 0.99444 0.05388 0.57536 0.0
C2442 C 0.01286 0.95447 0.4155 0.0
C2443 C 0.00933 0.97239 0.43353 0.0
C2444 C 0.99727 0.97936 0.50004 0.0
C2445 C 0.99053 0.04 0.53257 0.0
C2446 C 0.99596 0.02157 0.51333 0.0
C2447 C 0.01487 0.96771 0.45868 0.0
C2448 C 0.0091 0.98614 0.47788 0.0
H2449 H 0.9683 0.09759 0.53894 0.0
H2450 H 0.97407 0.0658 0.50704 0.0
H2451 H 0.98157 0.99135 0.53459 0.0
H2452 H 0.03553 0.9095 0.4527 0.0
H2453 H 0.02941 0.94114 0.48464 0.0
C2454 C 0.42671 0.97527 0.54874 0.0
C2455 C 0.43069 0.98285 0.5735 0.0
C2456 C 0.44428 0.9796 0.53043 0.0
C2457 C 0.49491 0.02062 0.5166 0.0
H2458 H 0.5148 0.97063 0.46948 0.0
C2459 C 0.57862 0.02969 0.4518 0.0
C2460 C 0.57606 0.02046 0.42744 0.0
C2461 C 0.56022 0.0261 0.46943 0.0
C2462 C 0.50921 0.98488 0.48232 0.0
H2463 H 0.4561 1.00027 0.59879 0.0
H2464 H 0.48663 0.00785 0.56691 0.0
H2465 H 0.48353 0.96163 0.50034 0.0
H2466 H 0.55187 1.0015 0.40192 0.0
H2467 H 0.51994 0.99552 0.43244 0.0
H2468 H 0.52056 0.04389 0.49858 0.0
C2469 C 0.46995 0.99885 0.56153 0.0
C2470 C 0.49134 0.9797 0.49995 0.0
C2471 C 0.45254 0.99442 0.57975 0.0
C2472 C 0.55459 0.00836 0.42075 0.0
C2473 C 0.53628 0.00489 0.43823 0.0
C2474 C 0.51274 0.02583 0.49892 0.0
C2475 C 0.46588 0.99178 0.53665 0.0
C2476 C 0.48414 0.99747 0.51734 0.0
C2477 C 0.53905 0.0133 0.46286 0.0
C2478 C 0.52011 0.00799 0.48165 0.0
H2479 H 0.40986 0.96655 0.54347 0.0
H2480 H 0.4407 0.97407 0.51131 0.0
H2481 H 0.48941 0.03475 0.52962 0.0
H2482 H 0.595 0.03913 0.45732 0.0
H2483 H 0.56285 0.03271 0.48835 0.0
C2484 C 0.53331 0.44854 0.57205 0.0
C2485 C 0.52123 0.426 0.57143 0.0
C2486 C 0.52908 0.46621 0.5537 0.0
C2487 C 0.50095 0.47606 0.49032 0.0
H2488 H 0.50282 0.54373 0.51099 0.0
C2489 C 0.46793 0.55396 0.42527 0.0
C2490 C 0.48117 0.57585 0.42508 0.0
C2491 C 0.47279 0.53582 0.44299 0.0
C2492 C 0.50247 0.52497 0.50474 0.0
H2493 H 0.49619 0.40405 0.54989 0.0
H2494 H 0.48784 0.43519 0.51855 0.0
H2495 H 0.51132 0.51196 0.54129 0.0
H2496 H 0.5091 0.59608 0.44445 0.0
H2497 H 0.51838 0.56412 0.47466 0.0
H2498 H 0.49169 0.48921 0.45381 0.0
C2499 C 0.50091 0.43921 0.53307 0.0
C2500 C 0.50744 0.50659 0.52221 0.0
C2501 C 0.5055 0.42133 0.55126 0.0
C2502 C 0.49905 0.57924 0.44352 0.0
C2503 C 0.50407 0.56099 0.46116 0.0
C2504 C 0.49581 0.49446 0.47289 0.0
C2505 C 0.5124 0.46213 0.53415 0.0
C2506 C 0.50689 0.48178 0.51532 0.0
C2507 C 0.49109 0.53891 0.46111 0.0
C2508 C 0.49654 0.51923 0.47979 0.0
H2509 H 0.54578 0.45284 0.58707 0.0
H2510 H 0.53895 0.48316 0.55498 0.0
H2511 H 0.50066 0.45735 0.48396 0.0
H2512 H 0.4539 0.55063 0.41152 0.0
H2513 H 0.46202 0.51937 0.44256 0.0
C2514 C 0.07592 0.52778 0.54901 0.0
C2515 C 0.07153 0.52359 0.57447 0.0
C2516 C 0.0577 0.52326 0.53135 0.0
C2517 C 0.00245 0.48622 0.52322 0.0
H2518 H 0.99123 0.52772 0.46594 0.0
C2519 C 0.92165 0.47419 0.45401 0.0
C2520 C 0.92663 0.47901 0.42878 0.0
C2521 C 0.93944 0.47845 0.47227 0.0
C2522 C 0.99432 0.51578 0.4817 0.0
H2523 H 0.04469 0.51249 0.60171 0.0
H2524 H 0.01284 0.50503 0.57106 0.0
H2525 H 0.02184 0.53905 0.49667 0.0
H2526 H 0.95442 0.49011 0.40249 0.0
H2527 H 0.98536 0.49695 0.43401 0.0
H2528 H 0.97492 0.46292 0.50816 0.0
C2529 C 0.03034 0.5113 0.56456 0.0
C2530 C 0.01186 0.52231 0.4993 0.0
C2531 C 0.04849 0.51575 0.58211 0.0
C2532 C 0.94993 0.48677 0.42192 0.0
C2533 C 0.96764 0.49079 0.43998 0.0
C2534 C 0.98489 0.47967 0.50558 0.0
C2535 C 0.03489 0.51442 0.53893 0.0
C2536 C 0.01614 0.50761 0.52025 0.0
C2537 C 0.96243 0.48741 0.46543 0.0
C2538 C 0.98072 0.49433 0.48456 0.0
H2539 H 0.09368 0.5335 0.5427 0.0
H2540 H 0.0618 0.52571 0.5117 0.0
H2541 H 0.00559 0.4743 0.53899 0.0
H2542 H 0.90379 0.46816 0.45969 0.0
H2543 H 0.9349 0.47565 0.49176 0.0
C2544 C 0.95876 0.48011 0.33424 0.0
C2545 C 0.9356 0.47396 0.32557 0.0
C2546 C 0.97721 0.48518 0.31714 0.0
C2547 C 0.99586 0.48158 0.25099 0.0
H2548 H 0.01184 0.54971 0.2594 0.0
C2549 C 0.01422 0.54549 0.16896 0.0
C2550 C 0.0269 0.56707 0.17346 0.0
C2551 C 0.01111 0.52872 0.18826 0.0
C2552 C 0.00844 0.53047 0.25692 0.0
H2553 H 0.91363 0.4661 0.29301 0.0
H2554 H 0.94607 0.47424 0.26303 0.0
H2555 H 0.99218 0.52827 0.29307 0.0
H2556 H 0.04744 0.58787 0.20042 0.0
H2557 H 0.04414 0.55772 0.23346 0.0
H2558 H 0.01155 0.48399 0.21445 0.0
C2559 C 0.95001 0.47545 0.28286 0.0
C2560 C 0.99705 0.51819 0.27632 0.0
C2561 C 0.93143 0.47108 0.2999 0.0
C2562 C 0.03788 0.57108 0.19665 0.0
C2563 C 0.03563 0.55396 0.21561 0.0
C2564 C 0.00771 0.49377 0.23163 0.0
C2565 C 0.97276 0.48343 0.2913 0.0
C2566 C 0.98986 0.49395 0.27319 0.0
C2567 C 0.0211 0.53321 0.21212 0.0
C2568 C 0.01329 0.51865 0.23402 0.0
H2569 H 0.96217 0.48235 0.35408 0.0
H2570 H 0.99459 0.49147 0.32402 0.0
H2571 H 0.99046 0.46281 0.24826 0.0
H2572 H 0.00538 0.5424 0.15112 0.0
H2573 H 0.99953 0.51318 0.18488 0.0
C2574 C 0.01507 0.95185 0.32898 0.0
C2575 C 0.01699 0.92651 0.32682 0.0
C2576 C 0.00494 0.96528 0.30948 0.0
C2577 C 0.96598 0.95863 0.25468 0.0
H2578 H 0.99969 0.01516 0.22886 0.0
C2579 C 0.93806 1.0012 0.16281 0.0
C2580 C 0.92791 0.02408 0.16744 0.0
C2581 C 0.95317 0.99057 0.1806 0.0
C2582 C 0.99032 0.9993 0.23593 0.0
H2583 H 0.01197 0.89532 0.30255 0.0
H2584 H 0.99358 0.9185 0.26885 0.0
H2585 H 0.01551 0.99421 0.26604 0.0
H2586 H 0.92828 0.0557 0.19192 0.0
H2587 H 0.95501 0.03723 0.22294 0.0
H2588 H 0.94079 0.96379 0.22494 0.0
C2589 C 0.99909 0.928 0.28571 0.0
C2590 C 0.9991 0.98758 0.25721 0.0
C2591 C 0.00939 0.91473 0.305 0.0
C2592 C 0.93528 0.03753 0.18848 0.0
C2593 C 0.95072 0.02718 0.20602 0.0
C2594 C 0.95737 0.97021 0.23347 0.0
C2595 C 0.99696 0.95336 0.28772 0.0
C2596 C 0.98702 0.96706 0.26657 0.0
C2597 C 0.95883 0.00325 0.20268 0.0
C2598 C 0.96958 0.99041 0.22385 0.0
H2599 H 0.02185 0.9612 0.34543 0.0
H2600 H 0.00354 0.98488 0.31129 0.0
H2601 H 0.95615 0.9431 0.26186 0.0
H2602 H 0.93431 0.99163 0.1456 0.0
H2603 H 0.95984 0.97223 0.17755 0.0
C2604 C 0.5455 0.02482 0.32773 0.0
C2605 C 0.56957 0.03074 0.32211 0.0
C2606 C 0.52866 0.02206 0.30838 0.0
C2607 C 0.53182 0.0041 0.24268 0.0
H2608 H 0.46156 0.00713 0.24568 0.0
C2609 C 0.47933 0.96173 0.16515 0.0
C2610 C 0.46647 0.94151 0.17386 0.0
C2611 C 0.48548 0.98046 0.18146 0.0
C2612 C 0.48117 0.00647 0.24461 0.0
H2613 H 0.59469 0.04127 0.2931 0.0
H2614 H 0.565 0.03834 0.25948 0.0
H2615 H 0.48582 0.02762 0.27812 0.0
H2616 H 0.44789 0.92568 0.20548 0.0
H2617 H 0.45912 0.95857 0.23454 0.0
H2618 H 0.52743 0.98262 0.20978 0.0
C2619 C 0.55922 0.0345 0.27842 0.0
C2620 C 0.49503 0.01805 0.26311 0.0
C2621 C 0.57618 0.03633 0.29757 0.0
C2622 C 0.45769 0.94129 0.19848 0.0
C2623 C 0.46403 0.96008 0.21498 0.0
C2624 C 0.5181 0.99294 0.22421 0.0
C2625 C 0.53573 0.02578 0.28338 0.0
C2626 C 0.52054 0.01667 0.26248 0.0
C2627 C 0.47909 0.97907 0.20681 0.0
C2628 C 0.49271 0.99373 0.22513 0.0
H2629 H 0.54023 0.02054 0.34674 0.0
H2630 H 0.51077 0.01527 0.31288 0.0
H2631 H 0.55132 1.0018 0.24197 0.0
H2632 H 0.48613 0.9622 0.14612 0.0
H2633 H 0.49702 0.99498 0.17477 0.0
C2634 C 0.47679 0.54289 0.32781 0.0
C2635 C 0.46648 0.56519 0.32089 0.0
C2636 C 0.48078 0.52488 0.3099 0.0
C2637 C 0.47421 0.50771 0.24282 0.0
H2638 H 0.54283 0.49385 0.25004 0.0
C2639 C 0.54012 0.48645 0.1613 0.0
C2640 C 0.56086 0.47276 0.16691 0.0
C2641 C 0.52282 0.49097 0.1799 0.0
C2642 C 0.52351 0.49681 0.24787 0.0
H2643 H 0.44988 0.58549 0.29072 0.0
H2644 H 0.45784 0.55429 0.25896 0.0
H2645 H 0.5214 0.51342 0.28377 0.0
H2646 H 0.57932 0.45152 0.19502 0.0
H2647 H 0.54845 0.45773 0.22693 0.0
H2648 H 0.47695 0.49177 0.20616 0.0
C2649 C 0.46243 0.55049 0.27826 0.0
C2650 C 0.51117 0.50811 0.26733 0.0
C2651 C 0.45801 0.5684 0.29637 0.0
C2652 C 0.5633 0.462 0.19041 0.0
C2653 C 0.54575 0.46581 0.20868 0.0
C2654 C 0.48665 0.49615 0.22321 0.0
C2655 C 0.47506 0.52915 0.28467 0.0
C2656 C 0.4865 0.51401 0.26497 0.0
C2657 C 0.52603 0.48148 0.20412 0.0
C2658 C 0.51155 0.49089 0.22546 0.0
H2659 H 0.48296 0.53987 0.34681 0.0
H2660 H 0.49003 0.50834 0.31545 0.0
H2661 H 0.45519 0.51214 0.24052 0.0
H2662 H 0.53816 0.49497 0.14315 0.0
H2663 H 0.50794 0.50323 0.17581 0.0
C2664 C 0.0635 0.50118 0.66371 0.0
C2665 C 0.07359 0.52393 0.66889 0.0
C2666 C 0.04784 0.49048 0.6809 0.0
C2667 C 0.00945 0.50035 0.73584 0.0
H2668 H 0.03939 0.44099 0.7601 0.0
C2669 C 0.98562 0.45433 0.8302 0.0
C2670 C 0.98287 0.42905 0.82869 0.0
C2671 C 0.99453 0.46709 0.80963 0.0
C2672 C 0.03068 0.4574 0.75339 0.0
H2673 H 0.07269 0.55521 0.6938 0.0
H2674 H 0.04502 0.53669 0.72373 0.0
H2675 H 0.05609 0.46114 0.72365 0.0
H2676 H 0.98484 0.39737 0.80452 0.0
H2677 H 1.00074 0.41944 0.76881 0.0
H2678 H 0.98422 0.49677 0.76615 0.0
C2679 C 0.04977 0.52674 0.70687 0.0
C2680 C 0.04006 0.46871 0.7324 0.0
C2681 C 0.06577 0.53713 0.68995 0.0
C2682 C 0.98794 0.41676 0.80631 0.0
C2683 C 0.99686 0.42937 0.78592 0.0
C2684 C 0.99992 0.48893 0.75694 0.0
C2685 C 0.04151 0.50298 0.70294 0.0
C2686 C 0.02953 0.49018 0.72345 0.0
C2687 C 1.00039 0.45458 0.78744 0.0
C2688 C 0.01053 0.46736 0.7658 0.0
H2689 H 0.06753 0.49183 0.64645 0.0
H2690 H 0.04111 0.47229 0.67734 0.0
H2691 H 0.00128 0.5171 0.72927 0.0
H2692 H 0.98092 0.46409 0.84719 0.0
H2693 H 0.99706 0.48659 0.8111 0.0
C2694 C 0.98906 0.04704 0.6695 0.0
C2695 C 0.97517 0.06792 0.67402 0.0
C2696 C 0.99222 0.02986 0.68841 0.0
C2697 C 0.99205 0.02922 0.75727 0.0
H2698 H 0.01525 0.96337 0.74629 0.0
C2699 C 0.04499 0.98036 0.83334 0.0
C2700 C 0.06867 0.97633 0.82468 0.0
C2701 C 0.02621 0.98429 0.81629 0.0
C2702 C 0.0084 0.98159 0.74969 0.0
H2703 H 0.95248 0.08697 0.70061 0.0
H2704 H 0.95623 0.05616 0.73305 0.0
H2705 H 0.99344 0.98443 0.71286 0.0
H2706 H 0.09126 0.97073 0.79207 0.0
H2707 H 0.05828 0.97696 0.7621 0.0
H2708 H 0.00735 0.02652 0.79383 0.0
C2709 C 0.96556 0.05326 0.71546 0.0
C2710 C 0.99613 0.99375 0.73053 0.0
C2711 C 0.9631 0.07077 0.69684 0.0
C2712 C 0.07308 0.97416 0.79897 0.0
C2713 C 0.0542 0.97743 0.78193 0.0
C2714 C 0.00378 0.01689 0.7765 0.0
C2715 C 0.98116 0.03319 0.71198 0.0
C2716 C 0.98884 0.01815 0.7337 0.0
C2717 C 0.03084 0.98354 0.79044 0.0
C2718 C 0.01303 0.99342 0.77251 0.0
H2719 H 0.99865 0.04477 0.65193 0.0
H2720 H 0.00463 0.01491 0.685 0.0
H2721 H 0.98718 0.04806 0.76049 0.0
H2722 H 0.04134 0.98199 0.85321 0.0
H2723 H 0.00835 0.98906 0.82324 0.0
C2724 C 0.44136 0.00417 0.66223 0.0
C2725 C 0.42996 0.98246 0.6689 0.0
C2726 C 0.45751 0.01521 0.67881 0.0
C2727 C 0.49781 0.00709 0.73129 0.0
H2728 H 0.46983 0.06664 0.75819 0.0
C2729 C 0.51398 0.0581 0.82696 0.0
C2730 C 0.52903 0.07813 0.82273 0.0
C2731 C 0.50439 0.04535 0.8067 0.0
C2732 C 0.47787 0.05018 0.7506 0.0
H2733 H 0.42855 0.95332 0.69611 0.0
H2734 H 0.45719 0.97241 0.72496 0.0
H2735 H 0.44985 0.04557 0.72355 0.0
H2736 H 0.5468 0.10042 0.79491 0.0
H2737 H 0.52919 0.07845 0.75921 0.0
H2738 H 0.52526 0.01107 0.75954 0.0
C2739 C 0.45306 0.9813 0.70739 0.0
C2740 C 0.46675 0.03848 0.73066 0.0
C2741 C 0.43653 0.97066 0.69113 0.0
C2742 C 0.53476 0.08523 0.7983 0.0
C2743 C 0.52499 0.07266 0.77808 0.0
C2744 C 0.50898 0.0188 0.75142 0.0
C2745 C 0.46308 0.00393 0.70161 0.0
C2746 C 0.47665 0.01701 0.72085 0.0
C2747 C 0.50996 0.05263 0.78228 0.0
C2748 C 0.49888 0.0403 0.76108 0.0
H2749 H 0.43812 0.01238 0.64423 0.0
H2750 H 0.46544 0.0326 0.67402 0.0
H2751 H 0.5054 0.99025 0.7241 0.0
H2752 H 0.51013 0.05206 0.84582 0.0
H2753 H 0.49264 0.02992 0.81001 0.0
C2754 C 0.4428 0.49958 0.82116 0.0
C2755 C 0.43926 0.52318 0.83019 0.0
C2756 C 0.45916 0.49507 0.80198 0.0
C2757 C 0.51015 0.50444 0.76838 0.0
H2758 H 0.4703 0.48729 0.71106 0.0
C2759 C 0.51653 0.44918 0.66792 0.0
C2760 C 0.52852 0.42858 0.67719 0.0
C2761 C 0.50953 0.46785 0.6842 0.0
C2762 C 0.48188 0.49266 0.72649 0.0
H2763 H 0.45304 0.56 0.82932 0.0
H2764 H 0.48152 0.5524 0.79487 0.0
H2765 H 0.45223 0.50876 0.74643 0.0
H2766 H 0.5442 0.41167 0.70987 0.0
H2767 H 0.53141 0.44388 0.73861 0.0
H2768 H 0.53947 0.48685 0.74918 0.0
C2769 C 0.47103 0.5375 0.80241 0.0
C2770 C 0.47153 0.50493 0.74668 0.0
C2771 C 0.45461 0.54187 0.82193 0.0
C2772 C 0.53428 0.42717 0.70262 0.0
C2773 C 0.52737 0.44578 0.71888 0.0
C2774 C 0.52057 0.49218 0.74811 0.0
C2775 C 0.47244 0.51424 0.79169 0.0
C2776 C 0.48532 0.5097 0.76819 0.0
C2777 C 0.51498 0.46634 0.70984 0.0
C2778 C 0.50613 0.48495 0.72767 0.0
H2779 H 0.43194 0.48494 0.82828 0.0
H2780 H 0.46047 0.47685 0.79422 0.0
H2781 H 0.52094 0.50793 0.78494 0.0
H2782 H 0.5134 0.45125 0.64804 0.0
H2783 H 0.50021 0.4836 0.67672 0.0
loop_
_geom_bond_atom_site_label_1
_geom_bond_atom_site_label_2
_geom_bond_distance
_geom_bond_site_symmetry_2
_ccdc_geom_bond_type
C0 C2 1.422 . S
C0 C4 1.415 . S
C0 N6 1.369 . S
C1 C2 1.421 . S
C1 C3 1.417 . S
C1 C13 1.422 . S
C2 C0 1.422 . S
C2 C1 1.421 . S
C2 N12 1.359 . S
C3 C1 1.417 . S
C3 C5 1.329 . S
C3 H22 0.930 . S
C4 C0 1.415 . S
C4 C5 1.437 . S
C4 C8 1.413 . S
C5 C3 1.329 . S
C5 C4 1.437 . S
C5 H27 0.929 . S
N6 C0 1.369 . S
N6 C7 1.338 . S
N6 Gd11 2.622 . S
C7 N6 1.338 . S
C7 C9 1.378 . S
C7 H19 0.929 . S
C8 C4 1.413 . S
C8 C9 1.348 . S
C8 H24 0.931 . S
C9 C7 1.378 . S
C9 C8 1.348 . S
C9 H25 0.930 . S
Gd10 N30 2.622 . S
Gd10 N37 2.570 . S
Gd10 O44 2.353 . S
Gd10 O45 2.468 . S
Gd10 O46 2.427 . S
Gd10 O48 2.388 . S
Gd10 O49 2.386 . S
Gd10 O53 2.307 . S
Gd10 C63 2.805 . S
Gd11 N6 2.622 . S
Gd11 N12 2.570 . S
Gd11 O43 2.386 1_655 S
Gd11 O47 2.307 1_655 S
Gd11 O50 2.353 1_655 S
Gd11 O51 2.468 . S
Gd11 O52 2.427 . S
Gd11 O54 2.388 1_655 S
Gd11 C75 2.805 . S
N12 C2 1.359 . S
N12 Gd11 2.570 . S
N12 C14 1.343 . S
C13 C1 1.422 . S
C13 C15 1.321 . S
C13 H21 0.931 . S
C14 N12 1.343 . S
C14 C15 1.390 . S
C14 H16 0.931 . S
C15 C13 1.321 . S
C15 C14 1.390 . S
C15 H17 0.930 . S
H16 C14 0.931 . S
H17 C15 0.930 . S
H18 C41 0.931 . S
H19 C7 0.929 . S
H20 C42 0.930 . S
H21 C13 0.931 . S
H22 C3 0.930 . S
H23 C32 0.929 . S
H24 C8 0.931 . S
H25 C9 0.930 . S
H26 C64 0.930 . S
H27 C5 0.929 . S
H28 C33 0.931 . S
H29 C34 0.930 . S
N30 Gd10 2.622 . S
N30 C31 1.369 . S
N30 C32 1.338 . S
C31 N30 1.369 . S
C31 C35 1.415 . S
C31 C38 1.422 . S
C32 H23 0.929 . S
C32 N30 1.338 . S
C32 C34 1.378 . S
C33 H28 0.931 . S
C33 C34 1.348 . S
C33 C35 1.413 . S
C34 H29 0.930 . S
C34 C32 1.378 . S
C34 C33 1.348 . S
C35 C31 1.415 . S
C35 C33 1.413 . S
C35 C65 1.437 . S
H36 C65 0.929 . S
N37 Gd10 2.570 . S
N37 C38 1.359 . S
N37 C41 1.343 . S
C38 C31 1.422 . S
C38 N37 1.359 . S
C38 C40 1.421 . S
C39 C40 1.422 . S
C39 C42 1.321 . S
C39 H66 0.931 . S
C40 C38 1.421 . S
C40 C39 1.422 . S
C40 C64 1.417 . S
C41 H18 0.931 . S
C41 N37 1.343 . S
C41 C42 1.390 . S
C42 H20 0.930 . S
C42 C39 1.321 . S
C42 C41 1.390 . S
O43 Gd11 2.386 1_455 S
O43 C55 1.265 . S
O44 Gd10 2.353 . S
O44 C55 1.242 . S
O45 Gd10 2.468 . S
O45 C63 1.263 . S
O46 Gd10 2.427 . S
O46 C63 1.252 . S
O47 Gd11 2.307 1_455 S
O47 C56 1.261 . S
O48 Gd10 2.388 . S
O48 C56 1.252 . S
O49 Gd10 2.386 . S
O49 C67 1.265 . S
O50 Gd11 2.353 1_455 S
O50 C67 1.242 . S
O51 Gd11 2.468 . S
O51 C75 1.263 . S
O52 Gd11 2.427 . S
O52 C75 1.252 . S
O53 Gd10 2.307 . S
O53 C68 1.261 . S
O54 Gd11 2.388 1_455 S
O54 C68 1.252 . S
C55 O43 1.265 . S
C55 O44 1.242 . S
C56 O47 1.261 . S
C56 O48 1.252 . S
C57 C60 1.394 . S
C57 C62 1.370 . S
C57 C63 1.500 . S
C58 C61 1.383 . S
C58 C62 1.395 . S
C59 C60 1.396 . S
C59 C61 1.365 . S
C59 H76 0.929 . S
C60 C57 1.394 . S
C60 C59 1.396 . S
C60 H77 0.930 . S
C61 C58 1.383 . S
C61 C59 1.365 . S
C61 H78 0.931 . S
C62 C57 1.370 . S
C62 C58 1.395 . S
C62 H79 0.930 . S
C63 Gd10 2.805 . S
C63 O45 1.263 . S
C63 O46 1.252 . S
C63 C57 1.500 . S
C64 H26 0.930 . S
C64 C40 1.417 . S
C64 C65 1.329 . S
C65 C35 1.437 . S
C65 H36 0.929 . S
C65 C64 1.329 . S
H66 C39 0.931 . S
C67 O49 1.265 . S
C67 O50 1.242 . S
C68 O53 1.261 . S
C68 O54 1.252 . S
C69 C72 1.394 . S
C69 C74 1.370 . S
C69 C75 1.500 . S
C70 C73 1.383 . S
C70 C74 1.395 . S
C71 C72 1.396 . S
C71 C73 1.365 . S
C71 H80 0.929 . S
C72 C69 1.394 . S
C72 C71 1.396 . S
C72 H81 0.930 . S
C73 C70 1.383 . S
C73 C71 1.365 . S
C73 H82 0.931 . S
C74 C69 1.370 . S
C74 C70 1.395 . S
C74 H83 0.930 . S
C75 Gd11 2.805 . S
C75 O51 1.263 . S
C75 O52 1.252 . S
C75 C69 1.500 . S
H76 C59 0.929 . S
H77 C60 0.930 . S
H78 C61 0.931 . S
H79 C62 0.930 . S
H80 C71 0.929 . S
H81 C72 0.930 . S
H82 C73 0.931 . S
H83 C74 0.930 . S
C84 C86 1.422 . S
C84 C88 1.415 . S
C84 N90 1.369 . S
C85 C86 1.421 . S
C85 C87 1.417 . S
C85 C97 1.422 . S
C86 C84 1.422 . S
C86 C85 1.421 . S
C86 N96 1.359 . S
C87 C85 1.417 . S
C87 C89 1.329 . S
C87 H106 0.930 . S
C88 C84 1.415 . S
C88 C89 1.437 . S
C88 C92 1.413 . S
C89 C87 1.329 . S
C89 C88 1.437 . S
C89 H111 0.929 . S
N90 C84 1.369 . S
N90 C91 1.338 . S
N90 Gd95 2.622 . S
C91 N90 1.338 . S
C91 C93 1.378 . S
C91 H103 0.929 . S
C92 C88 1.413 . S
C92 C93 1.348 . S
C92 H108 0.931 . S
C93 C91 1.378 . S
C93 C92 1.348 . S
C93 H109 0.930 . S
Gd94 N114 2.622 . S
Gd94 N121 2.570 . S
Gd94 O128 2.353 . S
Gd94 O129 2.468 . S
Gd94 O130 2.427 . S
Gd94 O132 2.388 . S
Gd94 O133 2.386 . S
Gd94 O137 2.307 . S
Gd94 C147 2.805 . S
Gd95 N90 2.622 . S
Gd95 N96 2.570 . S
Gd95 O127 2.386 1_565 S
Gd95 O131 2.307 1_565 S
Gd95 O134 2.353 1_565 S
Gd95 O135 2.468 . S
Gd95 O136 2.427 . S
Gd95 O138 2.388 1_565 S
Gd95 C159 2.805 . S
N96 C86 1.359 . S
N96 Gd95 2.570 . S
N96 C98 1.343 . S
C97 C85 1.422 . S
C97 C99 1.321 . S
C97 H105 0.931 . S
C98 N96 1.343 . S
C98 C99 1.390 . S
C98 H100 0.931 . S
C99 C97 1.321 . S
C99 C98 1.390 . S
C99 H101 0.930 . S
H100 C98 0.931 . S
H101 C99 0.930 . S
H102 C125 0.931 . S
H103 C91 0.929 . S
H104 C126 0.930 . S
H105 C97 0.931 . S
H106 C87 0.930 . S
H107 C116 0.929 . S
H108 C92 0.931 . S
H109 C93 0.930 . S
H110 C148 0.930 . S
H111 C89 0.929 . S
H112 C117 0.931 . S
H113 C118 0.930 . S
N114 Gd94 2.622 . S
N114 C115 1.369 . S
N114 C116 1.338 . S
C115 N114 1.369 . S
C115 C119 1.415 . S
C115 C122 1.422 . S
C116 H107 0.929 . S
C116 N114 1.338 . S
C116 C118 1.378 . S
C117 H112 0.931 . S
C117 C118 1.348 . S
C117 C119 1.413 . S
C118 H113 0.930 . S
C118 C116 1.378 . S
C118 C117 1.348 . S
C119 C115 1.415 . S
C119 C117 1.413 . S
C119 C149 1.437 . S
H120 C149 0.929 . S
N121 Gd94 2.570 . S
N121 C122 1.359 . S
N121 C125 1.343 . S
C122 C115 1.422 . S
C122 N121 1.359 . S
C122 C124 1.421 . S
C123 C124 1.422 . S
C123 C126 1.321 . S
C123 H150 0.931 . S
C124 C122 1.421 . S
C124 C123 1.422 . S
C124 C148 1.417 . S
C125 H102 0.931 . S
C125 N121 1.343 . S
C125 C126 1.390 . S
C126 H104 0.930 . S
C126 C123 1.321 . S
C126 C125 1.390 . S
O127 Gd95 2.386 1_545 S
O127 C139 1.265 . S
O128 Gd94 2.353 . S
O128 C139 1.242 . S
O129 Gd94 2.468 . S
O129 C147 1.263 . S
O130 Gd94 2.427 . S
O130 C147 1.252 . S
O131 Gd95 2.307 1_545 S
O131 C140 1.261 . S
O132 Gd94 2.388 . S
O132 C140 1.252 . S
O133 Gd94 2.386 . S
O133 C151 1.265 . S
O134 Gd95 2.353 1_545 S
O134 C151 1.242 . S
O135 Gd95 2.468 . S
O135 C159 1.263 . S
O136 Gd95 2.427 . S
O136 C159 1.252 . S
O137 Gd94 2.307 . S
O137 C152 1.261 . S
O138 Gd95 2.388 1_545 S
O138 C152 1.252 . S
C139 O127 1.265 . S
C139 O128 1.242 . S
C140 O131 1.261 . S
C140 O132 1.252 . S
C141 C144 1.394 . S
C141 C146 1.370 . S
C141 C147 1.500 . S
C142 C145 1.383 . S
C142 C146 1.395 . S
C143 C144 1.396 . S
C143 C145 1.365 . S
C143 H160 0.929 . S
C144 C141 1.394 . S
C144 C143 1.396 . S
C144 H161 0.930 . S
C145 C142 1.383 . S
C145 C143 1.365 . S
C145 H162 0.931 . S
C146 C141 1.370 . S
C146 C142 1.395 . S
C146 H163 0.930 . S
C147 Gd94 2.805 . S
C147 O129 1.263 . S
C147 O130 1.252 . S
C147 C141 1.500 . S
C148 H110 0.930 . S
C148 C124 1.417 . S
C148 C149 1.329 . S
C149 C119 1.437 . S
C149 H120 0.929 . S
C149 C148 1.329 . S
H150 C123 0.931 . S
C151 O133 1.265 . S
C151 O134 1.242 . S
C152 O137 1.261 . S
C152 O138 1.252 . S
C153 C156 1.394 . S
C153 C158 1.370 . S
C153 C159 1.500 . S
C154 C157 1.383 . S
C154 C158 1.395 . S
C155 C156 1.396 . S
C155 C157 1.365 . S
C155 H164 0.929 . S
C156 C153 1.394 . S
C156 C155 1.396 . S
C156 H165 0.930 . S
C157 C154 1.383 . S
C157 C155 1.365 . S
C157 H166 0.931 . S
C158 C153 1.370 . S
C158 C154 1.395 . S
C158 H167 0.930 . S
C159 Gd95 2.805 . S
C159 O135 1.263 . S
C159 O136 1.252 . S
C159 C153 1.500 . S
H160 C143 0.929 . S
H161 C144 0.930 . S
H162 C145 0.931 . S
H163 C146 0.930 . S
H164 C155 0.929 . S
H165 C156 0.930 . S
H166 C157 0.931 . S
H167 C158 0.930 . S
C168 C170 1.422 . S
C168 C172 1.415 . S
C168 N174 1.369 . S
C169 C170 1.421 . S
C169 C171 1.417 . S
C169 C181 1.422 . S
C170 C168 1.422 . S
C170 C169 1.421 . S
C170 N180 1.359 . S
C171 C169 1.417 . S
C171 C173 1.329 . S
C171 H190 0.930 . S
C172 C168 1.415 . S
C172 C173 1.437 . S
C172 C176 1.413 . S
C173 C171 1.329 . S
C173 C172 1.437 . S
C173 H195 0.929 . S
N174 C168 1.369 . S
N174 C175 1.338 . S
N174 Gd179 2.622 . S
C175 N174 1.338 . S
C175 C177 1.378 . S
C175 H187 0.929 . S
C176 C172 1.413 . S
C176 C177 1.348 . S
C176 H192 0.931 . S
C177 C175 1.378 . S
C177 C176 1.348 . S
C177 H193 0.930 . S
Gd178 N198 2.622 . S
Gd178 N205 2.570 . S
Gd178 O212 2.353 . S
Gd178 O213 2.468 . S
Gd178 O214 2.427 . S
Gd178 O216 2.388 . S
Gd178 O217 2.386 . S
Gd178 O221 2.307 . S
Gd178 C231 2.805 . S
Gd179 N174 2.622 . S
Gd179 N180 2.570 . S
Gd179 O211 2.386 . S
Gd179 O215 2.307 . S
Gd179 O218 2.353 . S
Gd179 O219 2.468 . S
Gd179 O220 2.427 . S
Gd179 O222 2.388 . S
Gd179 C243 2.805 . S
N180 C170 1.359 . S
N180 Gd179 2.570 . S
N180 C182 1.343 . S
C181 C169 1.422 . S
C181 C183 1.321 . S
C181 H189 0.931 . S
C182 N180 1.343 . S
C182 C183 1.390 . S
C182 H184 0.931 . S
C183 C181 1.321 . S
C183 C182 1.390 . S
C183 H185 0.930 . S
H184 C182 0.931 . S
H185 C183 0.930 . S
H186 C209 0.931 . S
H187 C175 0.929 . S
H188 C210 0.930 . S
H189 C181 0.931 . S
H190 C171 0.930 . S
H191 C200 0.929 . S
H192 C176 0.931 . S
H193 C177 0.930 . S
H194 C232 0.930 . S
H195 C173 0.929 . S
H196 C201 0.931 . S
H197 C202 0.930 . S
N198 Gd178 2.622 . S
N198 C199 1.369 . S
N198 C200 1.338 . S
C199 N198 1.369 . S
C199 C203 1.415 . S
C199 C206 1.422 . S
C200 H191 0.929 . S
C200 N198 1.338 . S
C200 C202 1.378 . S
C201 H196 0.931 . S
C201 C202 1.348 . S
C201 C203 1.413 . S
C202 H197 0.930 . S
C202 C200 1.378 . S
C202 C201 1.348 . S
C203 C199 1.415 . S
C203 C201 1.413 . S
C203 C233 1.437 . S
H204 C233 0.929 . S
N205 Gd178 2.570 . S
N205 C206 1.359 . S
N205 C209 1.343 . S
C206 C199 1.422 . S
C206 N205 1.359 . S
C206 C208 1.421 . S
C207 C208 1.422 . S
C207 C210 1.321 . S
C207 H234 0.931 . S
C208 C206 1.421 . S
C208 C207 1.422 . S
C208 C232 1.417 . S
C209 H186 0.931 . S
C209 N205 1.343 . S
C209 C210 1.390 . S
C210 H188 0.930 . S
C210 C207 1.321 . S
C210 C209 1.390 . S
O211 Gd179 2.386 . S
O211 C223 1.265 . S
O212 Gd178 2.353 . S
O212 C223 1.242 . S
O213 Gd178 2.468 . S
O213 C231 1.263 . S
O214 Gd178 2.427 . S
O214 C231 1.252 . S
O215 Gd179 2.307 . S
O215 C224 1.261 . S
O216 Gd178 2.388 . S
O216 C224 1.252 . S
O217 Gd178 2.386 . S
O217 C235 1.265 . S
O218 Gd179 2.353 . S
O218 C235 1.242 . S
O219 Gd179 2.468 . S
O219 C243 1.263 . S
O220 Gd179 2.427 . S
O220 C243 1.252 . S
O221 Gd178 2.307 . S
O221 C236 1.261 . S
O222 Gd179 2.388 . S
O222 C236 1.252 . S
C223 O211 1.265 . S
C223 O212 1.242 . S
C224 O215 1.261 . S
C224 O216 1.252 . S
C225 C228 1.394 . S
C225 C230 1.370 . S
C225 C231 1.500 . S
C226 C229 1.383 . S
C226 C230 1.395 . S
C227 C228 1.396 . S
C227 C229 1.365 . S
C227 H244 0.929 . S
C228 C225 1.394 . S
C228 C227 1.396 . S
C228 H245 0.930 . S
C229 C226 1.383 . S
C229 C227 1.365 . S
C229 H246 0.931 . S
C230 C225 1.370 . S
C230 C226 1.395 . S
C230 H247 0.930 . S
C231 Gd178 2.805 . S
C231 O213 1.263 . S
C231 O214 1.252 . S
C231 C225 1.500 . S
C232 H194 0.930 . S
C232 C208 1.417 . S
C232 C233 1.329 . S
C233 C203 1.437 . S
C233 H204 0.929 . S
C233 C232 1.329 . S
H234 C207 0.931 . S
C235 O217 1.265 . S
C235 O218 1.242 . S
C236 O221 1.261 . S
C236 O222 1.252 . S
C237 C240 1.394 . S
C237 C242 1.370 . S
C237 C243 1.500 . S
C238 C241 1.383 . S
C238 C242 1.395 . S
C239 C240 1.396 . S
C239 C241 1.365 . S
C239 H248 0.929 . S
C240 C237 1.394 . S
C240 C239 1.396 . S
C240 H249 0.930 . S
C241 C238 1.383 . S
C241 C239 1.365 . S
C241 H250 0.931 . S
C242 C237 1.370 . S
C242 C238 1.395 . S
C242 H251 0.930 . S
C243 Gd179 2.805 . S
C243 O219 1.263 . S
C243 O220 1.252 . S
C243 C237 1.500 . S
H244 C227 0.929 . S
H245 C228 0.930 . S
H246 C229 0.931 . S
H247 C230 0.930 . S
H248 C239 0.929 . S
H249 C240 0.930 . S
H250 C241 0.931 . S
H251 C242 0.930 . S
C252 C254 1.422 . S
C252 C256 1.415 . S
C252 N258 1.369 . S
C253 C254 1.421 . S
C253 C255 1.417 . S
C253 C265 1.422 . S
C254 C252 1.422 . S
C254 C253 1.421 . S
C254 N264 1.359 . S
C255 C253 1.417 . S
C255 C257 1.329 . S
C255 H274 0.930 . S
C256 C252 1.415 . S
C256 C257 1.437 . S
C256 C260 1.413 . S
C257 C255 1.329 . S
C257 C256 1.437 . S
C257 H279 0.929 . S
N258 C252 1.369 . S
N258 C259 1.338 . S
N258 Gd263 2.622 . S
C259 N258 1.338 . S
C259 C261 1.378 . S
C259 H271 0.929 . S
C260 C256 1.413 . S
C260 C261 1.348 . S
C260 H276 0.931 . S
C261 C259 1.378 . S
C261 C260 1.348 . S
C261 H277 0.930 . S
Gd262 N282 2.622 . S
Gd262 N289 2.570 . S
Gd262 O296 2.353 . S
Gd262 O297 2.468 . S
Gd262 O298 2.427 . S
Gd262 O300 2.388 . S
Gd262 O301 2.386 . S
Gd262 O305 2.307 . S
Gd262 C315 2.805 . S
Gd263 N258 2.622 . S
Gd263 N264 2.570 . S
Gd263 O295 2.386 . S
Gd263 O299 2.307 . S
Gd263 O302 2.353 . S
Gd263 O303 2.468 . S
Gd263 O304 2.427 . S
Gd263 O306 2.388 . S
Gd263 C327 2.805 . S
N264 C254 1.359 . S
N264 Gd263 2.570 . S
N264 C266 1.343 . S
C265 C253 1.422 . S
C265 C267 1.321 . S
C265 H273 0.931 . S
C266 N264 1.343 . S
C266 C267 1.390 . S
C266 H268 0.931 . S
C267 C265 1.321 . S
C267 C266 1.390 . S
C267 H269 0.930 . S
H268 C266 0.931 . S
H269 C267 0.930 . S
H270 C293 0.931 . S
H271 C259 0.929 . S
H272 C294 0.930 . S
H273 C265 0.931 . S
H274 C255 0.930 . S
H275 C284 0.929 . S
H276 C260 0.931 . S
H277 C261 0.930 . S
H278 C316 0.930 . S
H279 C257 0.929 . S
H280 C285 0.931 . S
H281 C286 0.930 . S
N282 Gd262 2.622 . S
N282 C283 1.369 . S
N282 C284 1.338 . S
C283 N282 1.369 . S
C283 C287 1.415 . S
C283 C290 1.422 . S
C284 H275 0.929 . S
C284 N282 1.338 . S
C284 C286 1.378 . S
C285 H280 0.931 . S
C285 C286 1.348 . S
C285 C287 1.413 . S
C286 H281 0.930 . S
C286 C284 1.378 . S
C286 C285 1.348 . S
C287 C283 1.415 . S
C287 C285 1.413 . S
C287 C317 1.437 . S
H288 C317 0.929 . S
N289 Gd262 2.570 . S
N289 C290 1.359 . S
N289 C293 1.343 . S
C290 C283 1.422 . S
C290 N289 1.359 . S
C290 C292 1.421 . S
C291 C292 1.422 . S
C291 C294 1.321 . S
C291 H318 0.931 . S
C292 C290 1.421 . S
C292 C291 1.422 . S
C292 C316 1.417 . S
C293 H270 0.931 . S
C293 N289 1.343 . S
C293 C294 1.390 . S
C294 H272 0.930 . S
C294 C291 1.321 . S
C294 C293 1.390 . S
O295 Gd263 2.386 . S
O295 C307 1.265 . S
O296 Gd262 2.353 . S
O296 C307 1.242 . S
O297 Gd262 2.468 . S
O297 C315 1.263 . S
O298 Gd262 2.427 . S
O298 C315 1.252 . S
O299 Gd263 2.307 . S
O299 C308 1.261 . S
O300 Gd262 2.388 . S
O300 C308 1.252 . S
O301 Gd262 2.386 . S
O301 C319 1.265 . S
O302 Gd263 2.353 . S
O302 C319 1.242 . S
O303 Gd263 2.468 . S
O303 C327 1.263 . S
O304 Gd263 2.427 . S
O304 C327 1.252 . S
O305 Gd262 2.307 . S
O305 C320 1.261 . S
O306 Gd263 2.388 . S
O306 C320 1.252 . S
C307 O295 1.265 . S
C307 O296 1.242 . S
C308 O299 1.261 . S
C308 O300 1.252 . S
C309 C312 1.394 . S
C309 C314 1.370 . S
C309 C315 1.500 . S
C310 C313 1.383 . S
C310 C314 1.395 . S
C311 C312 1.396 . S
C311 C313 1.365 . S
C311 H328 0.929 . S
C312 C309 1.394 . S
C312 C311 1.396 . S
C312 H329 0.930 . S
C313 C310 1.383 . S
C313 C311 1.365 . S
C313 H330 0.931 . S
C314 C309 1.370 . S
C314 C310 1.395 . S
C314 H331 0.930 . S
C315 Gd262 2.805 . S
C315 O297 1.263 . S
C315 O298 1.252 . S
C315 C309 1.500 . S
C316 H278 0.930 . S
C316 C292 1.417 . S
C316 C317 1.329 . S
C317 C287 1.437 . S
C317 H288 0.929 . S
C317 C316 1.329 . S
H318 C291 0.931 . S
C319 O301 1.265 . S
C319 O302 1.242 . S
C320 O305 1.261 . S
C320 O306 1.252 . S
C321 C324 1.394 . S
C321 C326 1.370 . S
C321 C327 1.500 . S
C322 C325 1.383 . S
C322 C326 1.395 . S
C323 C324 1.396 . S
C323 C325 1.365 . S
C323 H332 0.929 . S
C324 C321 1.394 . S
C324 C323 1.396 . S
C324 H333 0.930 . S
C325 C322 1.383 . S
C325 C323 1.365 . S
C325 H334 0.931 . S
C326 C321 1.370 . S
C326 C322 1.395 . S
C326 H335 0.930 . S
C327 Gd263 2.805 . S
C327 O303 1.263 . S
C327 O304 1.252 . S
C327 C321 1.500 . S
H328 C311 0.929 . S
H329 C312 0.930 . S
H330 C313 0.931 . S
H331 C314 0.930 . S
H332 C323 0.929 . S
H333 C324 0.930 . S
H334 C325 0.931 . S
H335 C326 0.930 . S
C336 C338 1.422 . S
C336 C340 1.415 . S
C336 N342 1.369 . S
C337 C338 1.421 . S
C337 C339 1.417 . S
C337 C349 1.422 . S
C338 C336 1.422 . S
C338 C337 1.421 . S
C338 N348 1.359 . S
C339 C337 1.417 . S
C339 C341 1.329 . S
C339 H358 0.930 . S
C340 C336 1.415 . S
C340 C341 1.437 . S
C340 C344 1.413 . S
C341 C339 1.329 . S
C341 C340 1.437 . S
C341 H363 0.929 . S
N342 C336 1.369 . S
N342 C343 1.338 . S
N342 Gd347 2.622 . S
C343 N342 1.338 . S
C343 C345 1.378 . S
C343 H355 0.929 . S
C344 C340 1.413 . S
C344 C345 1.348 . S
C344 H360 0.931 . S
C345 C343 1.378 . S
C345 C344 1.348 . S
C345 H361 0.930 . S
Gd346 N366 2.622 . S
Gd346 N373 2.570 . S
Gd346 O380 2.353 . S
Gd346 O381 2.468 . S
Gd346 O382 2.427 . S
Gd346 O384 2.388 . S
Gd346 O385 2.386 . S
Gd346 O389 2.307 . S
Gd346 C399 2.805 . S
Gd347 N342 2.622 . S
Gd347 N348 2.570 . S
Gd347 O379 2.386 1_655 S
Gd347 O383 2.307 1_655 S
Gd347 O386 2.353 1_655 S
Gd347 O387 2.468 . S
Gd347 O388 2.427 . S
Gd347 O390 2.388 1_655 S
Gd347 C411 2.805 . S
N348 C338 1.359 . S
N348 Gd347 2.570 . S
N348 C350 1.343 . S
C349 C337 1.422 . S
C349 C351 1.321 . S
C349 H357 0.931 . S
C350 N348 1.343 . S
C350 C351 1.390 . S
C350 H352 0.931 . S
C351 C349 1.321 . S
C351 C350 1.390 . S
C351 H353 0.930 . S
H352 C350 0.931 . S
H353 C351 0.930 . S
H354 C377 0.931 . S
H355 C343 0.929 . S
H356 C378 0.930 . S
H357 C349 0.931 . S
H358 C339 0.930 . S
H359 C368 0.929 . S
H360 C344 0.931 . S
H361 C345 0.930 . S
H362 C400 0.930 . S
H363 C341 0.929 . S
H364 C369 0.931 . S
H365 C370 0.930 . S
N366 Gd346 2.622 . S
N366 C367 1.369 . S
N366 C368 1.338 . S
C367 N366 1.369 . S
C367 C371 1.415 . S
C367 C374 1.422 . S
C368 H359 0.929 . S
C368 N366 1.338 . S
C368 C370 1.378 . S
C369 H364 0.931 . S
C369 C370 1.348 . S
C369 C371 1.413 . S
C370 H365 0.930 . S
C370 C368 1.378 . S
C370 C369 1.348 . S
C371 C367 1.415 . S
C371 C369 1.413 . S
C371 C401 1.437 . S
H372 C401 0.929 . S
N373 Gd346 2.570 . S
N373 C374 1.359 . S
N373 C377 1.343 . S
C374 C367 1.422 . S
C374 N373 1.359 . S
C374 C376 1.421 . S
C375 C376 1.422 . S
C375 C378 1.321 . S
C375 H402 0.931 . S
C376 C374 1.421 . S
C376 C375 1.422 . S
C376 C400 1.417 . S
C377 H354 0.931 . S
C377 N373 1.343 . S
C377 C378 1.390 . S
C378 H356 0.930 . S
C378 C375 1.321 . S
C378 C377 1.390 . S
O379 Gd347 2.386 1_455 S
O379 C391 1.265 . S
O380 Gd346 2.353 . S
O380 C391 1.242 . S
O381 Gd346 2.468 . S
O381 C399 1.263 . S
O382 Gd346 2.427 . S
O382 C399 1.252 . S
O383 Gd347 2.307 1_455 S
O383 C392 1.261 . S
O384 Gd346 2.388 . S
O384 C392 1.252 . S
O385 Gd346 2.386 . S
O385 C403 1.265 . S
O386 Gd347 2.353 1_455 S
O386 C403 1.242 . S
O387 Gd347 2.468 . S
O387 C411 1.263 . S
O388 Gd347 2.427 . S
O388 C411 1.252 . S
O389 Gd346 2.307 . S
O389 C404 1.261 . S
O390 Gd347 2.388 1_455 S
O390 C404 1.252 . S
C391 O379 1.265 . S
C391 O380 1.242 . S
C392 O383 1.261 . S
C392 O384 1.252 . S
C393 C396 1.394 . S
C393 C398 1.370 . S
C393 C399 1.500 . S
C394 C397 1.383 . S
C394 C398 1.395 . S
C395 C396 1.396 . S
C395 C397 1.365 . S
C395 H412 0.929 . S
C396 C393 1.394 . S
C396 C395 1.396 . S
C396 H413 0.930 . S
C397 C394 1.383 . S
C397 C395 1.365 . S
C397 H414 0.931 . S
C398 C393 1.370 . S
C398 C394 1.395 . S
C398 H415 0.930 . S
C399 Gd346 2.805 . S
C399 O381 1.263 . S
C399 O382 1.252 . S
C399 C393 1.500 . S
C400 H362 0.930 . S
C400 C376 1.417 . S
C400 C401 1.329 . S
C401 C371 1.437 . S
C401 H372 0.929 . S
C401 C400 1.329 . S
H402 C375 0.931 . S
C403 O385 1.265 . S
C403 O386 1.242 . S
C404 O389 1.261 . S
C404 O390 1.252 . S
C405 C408 1.394 . S
C405 C410 1.370 . S
C405 C411 1.500 . S
C406 C409 1.383 . S
C406 C410 1.395 . S
C407 C408 1.396 . S
C407 C409 1.365 . S
C407 H416 0.929 . S
C408 C405 1.394 . S
C408 C407 1.396 . S
C408 H417 0.930 . S
C409 C406 1.383 . S
C409 C407 1.365 . S
C409 H418 0.931 . S
C410 C405 1.370 . S
C410 C406 1.395 . S
C410 H419 0.930 . S
C411 Gd347 2.805 . S
C411 O387 1.263 . S
C411 O388 1.252 . S
C411 C405 1.500 . S
H412 C395 0.929 . S
H413 C396 0.930 . S
H414 C397 0.931 . S
H415 C398 0.930 . S
H416 C407 0.929 . S
H417 C408 0.930 . S
H418 C409 0.931 . S
H419 C410 0.930 . S
C420 C422 1.422 . S
C420 C424 1.415 . S
C420 N426 1.369 . S
C421 C422 1.421 . S
C421 C423 1.417 . S
C421 C433 1.422 . S
C422 C420 1.422 . S
C422 C421 1.421 . S
C422 N432 1.359 . S
C423 C421 1.417 . S
C423 C425 1.329 . S
C423 H442 0.930 . S
C424 C420 1.415 . S
C424 C425 1.437 . S
C424 C428 1.413 . S
C425 C423 1.329 . S
C425 C424 1.437 . S
C425 H447 0.929 . S
N426 C420 1.369 . S
N426 C427 1.338 . S
N426 Gd431 2.622 . S
C427 N426 1.338 . S
C427 C429 1.378 . S
C427 H439 0.929 . S
C428 C424 1.413 . S
C428 C429 1.348 . S
C428 H444 0.931 . S
C429 C427 1.378 . S
C429 C428 1.348 . S
C429 H445 0.930 . S
Gd430 N450 2.622 . S
Gd430 N457 2.570 . S
Gd430 O464 2.353 . S
Gd430 O465 2.468 . S
Gd430 O466 2.427 . S
Gd430 O468 2.388 . S
Gd430 O469 2.386 . S
Gd430 O473 2.307 . S
Gd430 C483 2.805 . S
Gd431 N426 2.622 . S
Gd431 N432 2.570 . S
Gd431 O463 2.386 1_565 S
Gd431 O467 2.307 1_565 S
Gd431 O470 2.353 1_565 S
Gd431 O471 2.468 . S
Gd431 O472 2.427 . S
Gd431 O474 2.388 1_565 S
Gd431 C495 2.805 . S
N432 C422 1.359 . S
N432 Gd431 2.570 . S
N432 C434 1.343 . S
C433 C421 1.422 . S
C433 C435 1.321 . S
C433 H441 0.931 . S
C434 N432 1.343 . S
C434 C435 1.390 . S
C434 H436 0.931 . S
C435 C433 1.321 . S
C435 C434 1.390 . S
C435 H437 0.930 . S
H436 C434 0.931 . S
H437 C435 0.930 . S
H438 C461 0.931 . S
H439 C427 0.929 . S
H440 C462 0.930 . S
H441 C433 0.931 . S
H442 C423 0.930 . S
H443 C452 0.929 . S
H444 C428 0.931 . S
H445 C429 0.930 . S
H446 C484 0.930 . S
H447 C425 0.929 . S
H448 C453 0.931 . S
H449 C454 0.930 . S
N450 Gd430 2.622 . S
N450 C451 1.369 . S
N450 C452 1.338 . S
C451 N450 1.369 . S
C451 C455 1.415 . S
C451 C458 1.422 . S
C452 H443 0.929 . S
C452 N450 1.338 . S
C452 C454 1.378 . S
C453 H448 0.931 . S
C453 C454 1.348 . S
C453 C455 1.413 . S
C454 H449 0.930 . S
C454 C452 1.378 . S
C454 C453 1.348 . S
C455 C451 1.415 . S
C455 C453 1.413 . S
C455 C485 1.437 . S
H456 C485 0.929 . S
N457 Gd430 2.570 . S
N457 C458 1.359 . S
N457 C461 1.343 . S
C458 C451 1.422 . S
C458 N457 1.359 . S
C458 C460 1.421 . S
C459 C460 1.422 . S
C459 C462 1.321 . S
C459 H486 0.931 . S
C460 C458 1.421 . S
C460 C459 1.422 . S
C460 C484 1.417 . S
C461 H438 0.931 . S
C461 N457 1.343 . S
C461 C462 1.390 . S
C462 H440 0.930 . S
C462 C459 1.321 . S
C462 C461 1.390 . S
O463 Gd431 2.386 1_545 S
O463 C475 1.265 . S
O464 Gd430 2.353 . S
O464 C475 1.242 . S
O465 Gd430 2.468 . S
O465 C483 1.263 . S
O466 Gd430 2.427 . S
O466 C483 1.252 . S
O467 Gd431 2.307 1_545 S
O467 C476 1.261 . S
O468 Gd430 2.388 . S
O468 C476 1.252 . S
O469 Gd430 2.386 . S
O469 C487 1.265 . S
O470 Gd431 2.353 1_545 S
O470 C487 1.242 . S
O471 Gd431 2.468 . S
O471 C495 1.263 . S
O472 Gd431 2.427 . S
O472 C495 1.252 . S
O473 Gd430 2.307 . S
O473 C488 1.261 . S
O474 Gd431 2.388 1_545 S
O474 C488 1.252 . S
C475 O463 1.265 . S
C475 O464 1.242 . S
C476 O467 1.261 . S
C476 O468 1.252 . S
C477 C480 1.394 . S
C477 C482 1.370 . S
C477 C483 1.500 . S
C478 C481 1.383 . S
C478 C482 1.395 . S
C479 C480 1.396 . S
C479 C481 1.365 . S
C479 H496 0.929 . S
C480 C477 1.394 . S
C480 C479 1.396 . S
C480 H497 0.930 . S
C481 C478 1.383 . S
C481 C479 1.365 . S
C481 H498 0.931 . S
C482 C477 1.370 . S
C482 C478 1.395 . S
C482 H499 0.930 . S
C483 Gd430 2.805 . S
C483 O465 1.263 . S
C483 O466 1.252 . S
C483 C477 1.500 . S
C484 H446 0.930 . S
C484 C460 1.417 . S
C484 C485 1.329 . S
C485 C455 1.437 . S
C485 H456 0.929 . S
C485 C484 1.329 . S
H486 C459 0.931 . S
C487 O469 1.265 . S
C487 O470 1.242 . S
C488 O473 1.261 . S
C488 O474 1.252 . S
C489 C492 1.394 . S
C489 C494 1.370 . S
C489 C495 1.500 . S
C490 C493 1.383 . S
C490 C494 1.395 . S
C491 C492 1.396 . S
C491 C493 1.365 . S
C491 H500 0.929 . S
C492 C489 1.394 . S
C492 C491 1.396 . S
C492 H501 0.930 . S
C493 C490 1.383 . S
C493 C491 1.365 . S
C493 H502 0.931 . S
C494 C489 1.370 . S
C494 C490 1.395 . S
C494 H503 0.930 . S
C495 Gd431 2.805 . S
C495 O471 1.263 . S
C495 O472 1.252 . S
C495 C489 1.500 . S
H496 C479 0.929 . S
H497 C480 0.930 . S
H498 C481 0.931 . S
H499 C482 0.930 . S
H500 C491 0.929 . S
H501 C492 0.930 . S
H502 C493 0.931 . S
H503 C494 0.930 . S
C504 C506 1.422 . S
C504 C508 1.415 . S
C504 N510 1.369 . S
C505 C506 1.421 . S
C505 C507 1.417 . S
C505 C517 1.422 . S
C506 C504 1.422 . S
C506 C505 1.421 . S
C506 N516 1.359 . S
C507 C505 1.417 . S
C507 C509 1.329 . S
C507 H526 0.930 . S
C508 C504 1.415 . S
C508 C509 1.437 . S
C508 C512 1.413 . S
C509 C507 1.329 . S
C509 C508 1.437 . S
C509 H531 0.929 . S
N510 C504 1.369 . S
N510 C511 1.338 . S
N510 Gd515 2.622 . S
C511 N510 1.338 . S
C511 C513 1.378 . S
C511 H523 0.929 . S
C512 C508 1.413 . S
C512 C513 1.348 . S
C512 H528 0.931 . S
C513 C511 1.378 . S
C513 C512 1.348 . S
C513 H529 0.930 . S
Gd514 N534 2.622 . S
Gd514 N541 2.570 . S
Gd514 O548 2.353 . S
Gd514 O549 2.468 . S
Gd514 O550 2.427 . S
Gd514 O552 2.388 . S
Gd514 O553 2.386 . S
Gd514 O557 2.307 . S
Gd514 C567 2.805 . S
Gd515 N510 2.622 . S
Gd515 N516 2.570 . S
Gd515 O547 2.386 . S
Gd515 O551 2.307 . S
Gd515 O554 2.353 . S
Gd515 O555 2.468 . S
Gd515 O556 2.427 . S
Gd515 O558 2.388 . S
Gd515 C579 2.805 . S
N516 C506 1.359 . S
N516 Gd515 2.570 . S
N516 C518 1.343 . S
C517 C505 1.422 . S
C517 C519 1.321 . S
C517 H525 0.931 . S
C518 N516 1.343 . S
C518 C519 1.390 . S
C518 H520 0.931 . S
C519 C517 1.321 . S
C519 C518 1.390 . S
C519 H521 0.930 . S
H520 C518 0.931 . S
H521 C519 0.930 . S
H522 C545 0.931 . S
H523 C511 0.929 . S
H524 C546 0.930 . S
H525 C517 0.931 . S
H526 C507 0.930 . S
H527 C536 0.929 . S
H528 C512 0.931 . S
H529 C513 0.930 . S
H530 C568 0.930 . S
H531 C509 0.929 . S
H532 C537 0.931 . S
H533 C538 0.930 . S
N534 Gd514 2.622 . S
N534 C535 1.369 . S
N534 C536 1.338 . S
C535 N534 1.369 . S
C535 C539 1.415 . S
C535 C542 1.422 . S
C536 H527 0.929 . S
C536 N534 1.338 . S
C536 C538 1.378 . S
C537 H532 0.931 . S
C537 C538 1.348 . S
C537 C539 1.413 . S
C538 H533 0.930 . S
C538 C536 1.378 . S
C538 C537 1.348 . S
C539 C535 1.415 . S
C539 C537 1.413 . S
C539 C569 1.437 . S
H540 C569 0.929 . S
N541 Gd514 2.570 . S
N541 C542 1.359 . S
N541 C545 1.343 . S
C542 C535 1.422 . S
C542 N541 1.359 . S
C542 C544 1.421 . S
C543 C544 1.422 . S
C543 C546 1.321 . S
C543 H570 0.931 . S
C544 C542 1.421 . S
C544 C543 1.422 . S
C544 C568 1.417 . S
C545 H522 0.931 . S
C545 N541 1.343 . S
C545 C546 1.390 . S
C546 H524 0.930 . S
C546 C543 1.321 . S
C546 C545 1.390 . S
O547 Gd515 2.386 . S
O547 C559 1.265 . S
O548 Gd514 2.353 . S
O548 C559 1.242 . S
O549 Gd514 2.468 . S
O549 C567 1.263 . S
O550 Gd514 2.427 . S
O550 C567 1.252 . S
O551 Gd515 2.307 . S
O551 C560 1.261 . S
O552 Gd514 2.388 . S
O552 C560 1.252 . S
O553 Gd514 2.386 . S
O553 C571 1.265 . S
O554 Gd515 2.353 . S
O554 C571 1.242 . S
O555 Gd515 2.468 . S
O555 C579 1.263 . S
O556 Gd515 2.427 . S
O556 C579 1.252 . S
O557 Gd514 2.307 . S
O557 C572 1.261 . S
O558 Gd515 2.388 . S
O558 C572 1.252 . S
C559 O547 1.265 . S
C559 O548 1.242 . S
C560 O551 1.261 . S
C560 O552 1.252 . S
C561 C564 1.394 . S
C561 C566 1.370 . S
C561 C567 1.500 . S
C562 C565 1.383 . S
C562 C566 1.395 . S
C563 C564 1.396 . S
C563 C565 1.365 . S
C563 H580 0.929 . S
C564 C561 1.394 . S
C564 C563 1.396 . S
C564 H581 0.930 . S
C565 C562 1.383 . S
C565 C563 1.365 . S
C565 H582 0.931 . S
C566 C561 1.370 . S
C566 C562 1.395 . S
C566 H583 0.930 . S
C567 Gd514 2.805 . S
C567 O549 1.263 . S
C567 O550 1.252 . S
C567 C561 1.500 . S
C568 H530 0.930 . S
C568 C544 1.417 . S
C568 C569 1.329 . S
C569 C539 1.437 . S
C569 H540 0.929 . S
C569 C568 1.329 . S
H570 C543 0.931 . S
C571 O553 1.265 . S
C571 O554 1.242 . S
C572 O557 1.261 . S
C572 O558 1.252 . S
C573 C576 1.394 . S
C573 C578 1.370 . S
C573 C579 1.500 . S
C574 C577 1.383 . S
C574 C578 1.395 . S
C575 C576 1.396 . S
C575 C577 1.365 . S
C575 H584 0.929 . S
C576 C573 1.394 . S
C576 C575 1.396 . S
C576 H585 0.930 . S
C577 C574 1.383 . S
C577 C575 1.365 . S
C577 H586 0.931 . S
C578 C573 1.370 . S
C578 C574 1.395 . S
C578 H587 0.930 . S
C579 Gd515 2.805 . S
C579 O555 1.263 . S
C579 O556 1.252 . S
C579 C573 1.500 . S
H580 C563 0.929 . S
H581 C564 0.930 . S
H582 C565 0.931 . S
H583 C566 0.930 . S
H584 C575 0.929 . S
H585 C576 0.930 . S
H586 C577 0.931 . S
H587 C578 0.930 . S
C588 C590 1.422 . S
C588 C592 1.415 . S
C588 N594 1.369 . S
C589 C590 1.421 . S
C589 C591 1.417 . S
C589 C601 1.422 . S
C590 C588 1.422 . S
C590 C589 1.421 . S
C590 N600 1.359 . S
C591 C589 1.417 . S
C591 C593 1.329 . S
C591 H610 0.930 . S
C592 C588 1.415 . S
C592 C593 1.437 . S
C592 C596 1.413 . S
C593 C591 1.329 . S
C593 C592 1.437 . S
C593 H615 0.929 . S
N594 C588 1.369 . S
N594 C595 1.338 . S
N594 Gd599 2.622 . S
C595 N594 1.338 . S
C595 C597 1.378 . S
C595 H607 0.929 . S
C596 C592 1.413 . S
C596 C597 1.348 . S
C596 H612 0.931 . S
C597 C595 1.378 . S
C597 C596 1.348 . S
C597 H613 0.930 . S
Gd598 N618 2.622 . S
Gd598 N625 2.570 . S
Gd598 O632 2.353 . S
Gd598 O633 2.468 . S
Gd598 O634 2.427 . S
Gd598 O636 2.388 . S
Gd598 O637 2.386 . S
Gd598 O641 2.307 . S
Gd598 C651 2.805 . S
Gd599 N594 2.622 . S
Gd599 N600 2.570 . S
Gd599 O631 2.386 . S
Gd599 O635 2.307 . S
Gd599 O638 2.353 . S
Gd599 O639 2.468 . S
Gd599 O640 2.427 . S
Gd599 O642 2.388 . S
Gd599 C663 2.805 . S
N600 C590 1.359 . S
N600 Gd599 2.570 . S
N600 C602 1.343 . S
C601 C589 1.422 . S
C601 C603 1.321 . S
C601 H609 0.931 . S
C602 N600 1.343 . S
C602 C603 1.390 . S
C602 H604 0.931 . S
C603 C601 1.321 . S
C603 C602 1.390 . S
C603 H605 0.930 . S
H604 C602 0.931 . S
H605 C603 0.930 . S
H606 C629 0.931 . S
H607 C595 0.929 . S
H608 C630 0.930 . S
H609 C601 0.931 . S
H610 C591 0.930 . S
H611 C620 0.929 . S
H612 C596 0.931 . S
H613 C597 0.930 . S
H614 C652 0.930 . S
H615 C593 0.929 . S
H616 C621 0.931 . S
H617 C622 0.930 . S
N618 Gd598 2.622 . S
N618 C619 1.369 . S
N618 C620 1.338 . S
C619 N618 1.369 . S
C619 C623 1.415 . S
C619 C626 1.422 . S
C620 H611 0.929 . S
C620 N618 1.338 . S
C620 C622 1.378 . S
C621 H616 0.931 . S
C621 C622 1.348 . S
C621 C623 1.413 . S
C622 H617 0.930 . S
C622 C620 1.378 . S
C622 C621 1.348 . S
C623 C619 1.415 . S
C623 C621 1.413 . S
C623 C653 1.437 . S
H624 C653 0.929 . S
N625 Gd598 2.570 . S
N625 C626 1.359 . S
N625 C629 1.343 . S
C626 C619 1.422 . S
C626 N625 1.359 . S
C626 C628 1.421 . S
C627 C628 1.422 . S
C627 C630 1.321 . S
C627 H654 0.931 . S
C628 C626 1.421 . S
C628 C627 1.422 . S
C628 C652 1.417 . S
C629 H606 0.931 . S
C629 N625 1.343 . S
C629 C630 1.390 . S
C630 H608 0.930 . S
C630 C627 1.321 . S
C630 C629 1.390 . S
O631 Gd599 2.386 . S
O631 C643 1.265 . S
O632 Gd598 2.353 . S
O632 C643 1.242 . S
O633 Gd598 2.468 . S
O633 C651 1.263 . S
O634 Gd598 2.427 . S
O634 C651 1.252 . S
O635 Gd599 2.307 . S
O635 C644 1.261 . S
O636 Gd598 2.388 . S
O636 C644 1.252 . S
O637 Gd598 2.386 . S
O637 C655 1.265 . S
O638 Gd599 2.353 . S
O638 C655 1.242 . S
O639 Gd599 2.468 . S
O639 C663 1.263 . S
O640 Gd599 2.427 . S
O640 C663 1.252 . S
O641 Gd598 2.307 . S
O641 C656 1.261 . S
O642 Gd599 2.388 . S
O642 C656 1.252 . S
C643 O631 1.265 . S
C643 O632 1.242 . S
C644 O635 1.261 . S
C644 O636 1.252 . S
C645 C648 1.394 . S
C645 C650 1.370 . S
C645 C651 1.500 . S
C646 C649 1.383 . S
C646 C650 1.395 . S
C647 C648 1.396 . S
C647 C649 1.365 . S
C647 H664 0.929 . S
C648 C645 1.394 . S
C648 C647 1.396 . S
C648 H665 0.930 . S
C649 C646 1.383 . S
C649 C647 1.365 . S
C649 H666 0.931 . S
C650 C645 1.370 . S
C650 C646 1.395 . S
C650 H667 0.930 . S
C651 Gd598 2.805 . S
C651 O633 1.263 . S
C651 O634 1.252 . S
C651 C645 1.500 . S
C652 H614 0.930 . S
C652 C628 1.417 . S
C652 C653 1.329 . S
C653 C623 1.437 . S
C653 H624 0.929 . S
C653 C652 1.329 . S
H654 C627 0.931 . S
C655 O637 1.265 . S
C655 O638 1.242 . S
C656 O641 1.261 . S
C656 O642 1.252 . S
C657 C660 1.394 . S
C657 C662 1.370 . S
C657 C663 1.500 . S
C658 C661 1.383 . S
C658 C662 1.395 . S
C659 C660 1.396 . S
C659 C661 1.365 . S
C659 H668 0.929 . S
C660 C657 1.394 . S
C660 C659 1.396 . S
C660 H669 0.930 . S
C661 C658 1.383 . S
C661 C659 1.365 . S
C661 H670 0.931 . S
C662 C657 1.370 . S
C662 C658 1.395 . S
C662 H671 0.930 . S
C663 Gd599 2.805 . S
C663 O639 1.263 . S
C663 O640 1.252 . S
C663 C657 1.500 . S
H664 C647 0.929 . S
H665 C648 0.930 . S
H666 C649 0.931 . S
H667 C650 0.930 . S
H668 C659 0.929 . S
H669 C660 0.930 . S
H670 C661 0.931 . S
H671 C662 0.930 . S
C672 C674 1.422 . S
C672 C676 1.415 . S
C672 N678 1.369 . S
C673 C674 1.421 . S
C673 C675 1.417 . S
C673 C685 1.422 . S
C674 C672 1.422 . S
C674 C673 1.421 . S
C674 N684 1.359 . S
C675 C673 1.417 . S
C675 C677 1.329 . S
C675 H694 0.930 . S
C676 C672 1.415 . S
C676 C677 1.437 . S
C676 C680 1.413 . S
C677 C675 1.329 . S
C677 C676 1.437 . S
C677 H699 0.929 . S
N678 C672 1.369 . S
N678 C679 1.338 . S
N678 Gd683 2.622 . S
C679 N678 1.338 . S
C679 C681 1.378 . S
C679 H691 0.929 . S
C680 C676 1.413 . S
C680 C681 1.348 . S
C680 H696 0.931 . S
C681 C679 1.378 . S
C681 C680 1.348 . S
C681 H697 0.930 . S
Gd682 N702 2.622 . S
Gd682 N709 2.570 . S
Gd682 O716 2.353 1_455 S
Gd682 O717 2.468 . S
Gd682 O718 2.427 . S
Gd682 O720 2.388 1_455 S
Gd682 O721 2.386 1_455 S
Gd682 O725 2.307 1_455 S
Gd682 C735 2.805 . S
Gd683 N678 2.622 . S
Gd683 N684 2.570 . S
Gd683 O715 2.386 . S
Gd683 O719 2.307 . S
Gd683 O722 2.353 . S
Gd683 O723 2.468 . S
Gd683 O724 2.427 . S
Gd683 O726 2.388 . S
Gd683 C747 2.805 . S
N684 C674 1.359 . S
N684 Gd683 2.570 . S
N684 C686 1.343 . S
C685 C673 1.422 . S
C685 C687 1.321 . S
C685 H693 0.931 . S
C686 N684 1.343 . S
C686 C687 1.390 . S
C686 H688 0.931 . S
C687 C685 1.321 . S
C687 C686 1.390 . S
C687 H689 0.930 . S
H688 C686 0.931 . S
H689 C687 0.930 . S
H690 C713 0.931 . S
H691 C679 0.929 . S
H692 C714 0.930 . S
H693 C685 0.931 . S
H694 C675 0.930 . S
H695 C704 0.929 . S
H696 C680 0.931 . S
H697 C681 0.930 . S
H698 C736 0.930 . S
H699 C677 0.929 . S
H700 C705 0.931 . S
H701 C706 0.930 . S
N702 Gd682 2.622 . S
N702 C703 1.369 . S
N702 C704 1.338 . S
C703 N702 1.369 . S
C703 C707 1.415 . S
C703 C710 1.422 . S
C704 H695 0.929 . S
C704 N702 1.338 . S
C704 C706 1.378 . S
C705 H700 0.931 . S
C705 C706 1.348 . S
C705 C707 1.413 . S
C706 H701 0.930 . S
C706 C704 1.378 . S
C706 C705 1.348 . S
C707 C703 1.415 . S
C707 C705 1.413 . S
C707 C737 1.437 . S
H708 C737 0.929 . S
N709 Gd682 2.570 . S
N709 C710 1.359 . S
N709 C713 1.343 . S
C710 C703 1.422 . S
C710 N709 1.359 . S
C710 C712 1.421 . S
C711 C712 1.422 . S
C711 C714 1.321 . S
C711 H738 0.931 . S
C712 C710 1.421 . S
C712 C711 1.422 . S
C712 C736 1.417 . S
C713 H690 0.931 . S
C713 N709 1.343 . S
C713 C714 1.390 . S
C714 H692 0.930 . S
C714 C711 1.321 . S
C714 C713 1.390 . S
O715 Gd683 2.386 . S
O715 C727 1.265 . S
O716 Gd682 2.353 1_655 S
O716 C727 1.242 . S
O717 Gd682 2.468 . S
O717 C735 1.263 . S
O718 Gd682 2.427 . S
O718 C735 1.252 . S
O719 Gd683 2.307 . S
O719 C728 1.261 . S
O720 Gd682 2.388 1_655 S
O720 C728 1.252 . S
O721 Gd682 2.386 1_655 S
O721 C739 1.265 . S
O722 Gd683 2.353 . S
O722 C739 1.242 . S
O723 Gd683 2.468 . S
O723 C747 1.263 . S
O724 Gd683 2.427 . S
O724 C747 1.252 . S
O725 Gd682 2.307 1_655 S
O725 C740 1.261 . S
O726 Gd683 2.388 . S
O726 C740 1.252 . S
C727 O715 1.265 . S
C727 O716 1.242 . S
C728 O719 1.261 . S
C728 O720 1.252 . S
C729 C732 1.394 . S
C729 C734 1.370 . S
C729 C735 1.500 . S
C730 C733 1.383 . S
C730 C734 1.395 . S
C731 C732 1.396 . S
C731 C733 1.365 . S
C731 H748 0.929 . S
C732 C729 1.394 . S
C732 C731 1.396 . S
C732 H749 0.930 . S
C733 C730 1.383 . S
C733 C731 1.365 . S
C733 H750 0.931 . S
C734 C729 1.370 . S
C734 C730 1.395 . S
C734 H751 0.930 . S
C735 Gd682 2.805 . S
C735 O717 1.263 . S
C735 O718 1.252 . S
C735 C729 1.500 . S
C736 H698 0.930 . S
C736 C712 1.417 . S
C736 C737 1.329 . S
C737 C707 1.437 . S
C737 H708 0.929 . S
C737 C736 1.329 . S
H738 C711 0.931 . S
C739 O721 1.265 . S
C739 O722 1.242 . S
C740 O725 1.261 . S
C740 O726 1.252 . S
C741 C744 1.394 . S
C741 C746 1.370 . S
C741 C747 1.500 . S
C742 C745 1.383 . S
C742 C746 1.395 . S
C743 C744 1.396 . S
C743 C745 1.365 . S
C743 H752 0.929 . S
C744 C741 1.394 . S
C744 C743 1.396 . S
C744 H753 0.930 . S
C745 C742 1.383 . S
C745 C743 1.365 . S
C745 H754 0.931 . S
C746 C741 1.370 . S
C746 C742 1.395 . S
C746 H755 0.930 . S
C747 Gd683 2.805 . S
C747 O723 1.263 . S
C747 O724 1.252 . S
C747 C741 1.500 . S
H748 C731 0.929 . S
H749 C732 0.930 . S
H750 C733 0.931 . S
H751 C734 0.930 . S
H752 C743 0.929 . S
H753 C744 0.930 . S
H754 C745 0.931 . S
H755 C746 0.930 . S
C756 C758 1.422 . S
C756 C760 1.415 . S
C756 N762 1.369 . S
C757 C758 1.421 . S
C757 C759 1.417 . S
C757 C769 1.422 . S
C758 C756 1.422 . S
C758 C757 1.421 . S
C758 N768 1.359 . S
C759 C757 1.417 . S
C759 C761 1.329 . S
C759 H778 0.930 . S
C760 C756 1.415 . S
C760 C761 1.437 . S
C760 C764 1.413 . S
C761 C759 1.329 . S
C761 C760 1.437 . S
C761 H783 0.929 . S
N762 C756 1.369 . S
N762 C763 1.338 . S
N762 Gd767 2.622 . S
C763 N762 1.338 . S
C763 C765 1.378 . S
C763 H775 0.929 . S
C764 C760 1.413 . S
C764 C765 1.348 . S
C764 H780 0.931 . S
C765 C763 1.378 . S
C765 C764 1.348 . S
C765 H781 0.930 . S
Gd766 N786 2.622 . S
Gd766 N793 2.570 . S
Gd766 O800 2.353 1_545 S
Gd766 O801 2.468 . S
Gd766 O802 2.427 . S
Gd766 O804 2.388 1_545 S
Gd766 O805 2.386 1_545 S
Gd766 O809 2.307 1_545 S
Gd766 C819 2.805 . S
Gd767 N762 2.622 . S
Gd767 N768 2.570 . S
Gd767 O799 2.386 . S
Gd767 O803 2.307 . S
Gd767 O806 2.353 . S
Gd767 O807 2.468 . S
Gd767 O808 2.427 . S
Gd767 O810 2.388 . S
Gd767 C831 2.805 . S
N768 C758 1.359 . S
N768 Gd767 2.570 . S
N768 C770 1.343 . S
C769 C757 1.422 . S
C769 C771 1.321 . S
C769 H777 0.931 . S
C770 N768 1.343 . S
C770 C771 1.390 . S
C770 H772 0.931 . S
C771 C769 1.321 . S
C771 C770 1.390 . S
C771 H773 0.930 . S
H772 C770 0.931 . S
H773 C771 0.930 . S
H774 C797 0.931 . S
H775 C763 0.929 . S
H776 C798 0.930 . S
H777 C769 0.931 . S
H778 C759 0.930 . S
H779 C788 0.929 . S
H780 C764 0.931 . S
H781 C765 0.930 . S
H782 C820 0.930 . S
H783 C761 0.929 . S
H784 C789 0.931 . S
H785 C790 0.930 . S
N786 Gd766 2.622 . S
N786 C787 1.369 . S
N786 C788 1.338 . S
C787 N786 1.369 . S
C787 C791 1.415 . S
C787 C794 1.422 . S
C788 H779 0.929 . S
C788 N786 1.338 . S
C788 C790 1.378 . S
C789 H784 0.931 . S
C789 C790 1.348 . S
C789 C791 1.413 . S
C790 H785 0.930 . S
C790 C788 1.378 . S
C790 C789 1.348 . S
C791 C787 1.415 . S
C791 C789 1.413 . S
C791 C821 1.437 . S
H792 C821 0.929 . S
N793 Gd766 2.570 . S
N793 C794 1.359 . S
N793 C797 1.343 . S
C794 C787 1.422 . S
C794 N793 1.359 . S
C794 C796 1.421 . S
C795 C796 1.422 . S
C795 C798 1.321 . S
C795 H822 0.931 . S
C796 C794 1.421 . S
C796 C795 1.422 . S
C796 C820 1.417 . S
C797 H774 0.931 . S
C797 N793 1.343 . S
C797 C798 1.390 . S
C798 H776 0.930 . S
C798 C795 1.321 . S
C798 C797 1.390 . S
O799 Gd767 2.386 . S
O799 C811 1.265 . S
O800 Gd766 2.353 1_565 S
O800 C811 1.242 . S
O801 Gd766 2.468 . S
O801 C819 1.263 . S
O802 Gd766 2.427 . S
O802 C819 1.252 . S
O803 Gd767 2.307 . S
O803 C812 1.261 . S
O804 Gd766 2.388 1_565 S
O804 C812 1.252 . S
O805 Gd766 2.386 1_565 S
O805 C823 1.265 . S
O806 Gd767 2.353 . S
O806 C823 1.242 . S
O807 Gd767 2.468 . S
O807 C831 1.263 . S
O808 Gd767 2.427 . S
O808 C831 1.252 . S
O809 Gd766 2.307 1_565 S
O809 C824 1.261 . S
O810 Gd767 2.388 . S
O810 C824 1.252 . S
C811 O799 1.265 . S
C811 O800 1.242 . S
C812 O803 1.261 . S
C812 O804 1.252 . S
C813 C816 1.394 . S
C813 C818 1.370 . S
C813 C819 1.500 . S
C814 C817 1.383 . S
C814 C818 1.395 . S
C815 C816 1.396 . S
C815 C817 1.365 . S
C815 H832 0.929 . S
C816 C813 1.394 . S
C816 C815 1.396 . S
C816 H833 0.930 . S
C817 C814 1.383 . S
C817 C815 1.365 . S
C817 H834 0.931 . S
C818 C813 1.370 . S
C818 C814 1.395 . S
C818 H835 0.930 . S
C819 Gd766 2.805 . S
C819 O801 1.263 . S
C819 O802 1.252 . S
C819 C813 1.500 . S
C820 H782 0.930 . S
C820 C796 1.417 . S
C820 C821 1.329 . S
C821 C791 1.437 . S
C821 H792 0.929 . S
C821 C820 1.329 . S
H822 C795 0.931 . S
C823 O805 1.265 . S
C823 O806 1.242 . S
C824 O809 1.261 . S
C824 O810 1.252 . S
C825 C828 1.394 . S
C825 C830 1.370 . S
C825 C831 1.500 . S
C826 C829 1.383 . S
C826 C830 1.395 . S
C827 C828 1.396 . S
C827 C829 1.365 . S
C827 H836 0.929 . S
C828 C825 1.394 . S
C828 C827 1.396 . S
C828 H837 0.930 . S
C829 C826 1.383 . S
C829 C827 1.365 . S
C829 H838 0.931 . S
C830 C825 1.370 . S
C830 C826 1.395 . S
C830 H839 0.930 . S
C831 Gd767 2.805 . S
C831 O807 1.263 . S
C831 O808 1.252 . S
C831 C825 1.500 . S
H832 C815 0.929 . S
H833 C816 0.930 . S
H834 C817 0.931 . S
H835 C818 0.930 . S
H836 C827 0.929 . S
H837 C828 0.930 . S
H838 C829 0.931 . S
H839 C830 0.930 . S
C840 C842 1.422 . S
C840 C844 1.415 . S
C840 N846 1.369 . S
C841 C842 1.421 . S
C841 C843 1.417 . S
C841 C853 1.422 . S
C842 C840 1.422 . S
C842 C841 1.421 . S
C842 N852 1.359 . S
C843 C841 1.417 . S
C843 C845 1.329 . S
C843 H862 0.930 . S
C844 C840 1.415 . S
C844 C845 1.437 . S
C844 C848 1.413 . S
C845 C843 1.329 . S
C845 C844 1.437 . S
C845 H867 0.929 . S
N846 C840 1.369 . S
N846 C847 1.338 . S
N846 Gd851 2.622 . S
C847 N846 1.338 . S
C847 C849 1.378 . S
C847 H859 0.929 . S
C848 C844 1.413 . S
C848 C849 1.348 . S
C848 H864 0.931 . S
C849 C847 1.378 . S
C849 C848 1.348 . S
C849 H865 0.930 . S
Gd850 N870 2.622 . S
Gd850 N877 2.570 . S
Gd850 O884 2.353 . S
Gd850 O885 2.468 . S
Gd850 O886 2.427 . S
Gd850 O888 2.388 . S
Gd850 O889 2.386 . S
Gd850 O893 2.307 . S
Gd850 C903 2.805 . S
Gd851 N846 2.622 . S
Gd851 N852 2.570 . S
Gd851 O883 2.386 . S
Gd851 O887 2.307 . S
Gd851 O890 2.353 . S
Gd851 O891 2.468 . S
Gd851 O892 2.427 . S
Gd851 O894 2.388 . S
Gd851 C915 2.805 . S
N852 C842 1.359 . S
N852 Gd851 2.570 . S
N852 C854 1.343 . S
C853 C841 1.422 . S
C853 C855 1.321 . S
C853 H861 0.931 . S
C854 N852 1.343 . S
C854 C855 1.390 . S
C854 H856 0.931 . S
C855 C853 1.321 . S
C855 C854 1.390 . S
C855 H857 0.930 . S
H856 C854 0.931 . S
H857 C855 0.930 . S
H858 C881 0.931 . S
H859 C847 0.929 . S
H860 C882 0.930 . S
H861 C853 0.931 . S
H862 C843 0.930 . S
H863 C872 0.929 . S
H864 C848 0.931 . S
H865 C849 0.930 . S
H866 C904 0.930 . S
H867 C845 0.929 . S
H868 C873 0.931 . S
H869 C874 0.930 . S
N870 Gd850 2.622 . S
N870 C871 1.369 . S
N870 C872 1.338 . S
C871 N870 1.369 . S
C871 C875 1.415 . S
C871 C878 1.422 . S
C872 H863 0.929 . S
C872 N870 1.338 . S
C872 C874 1.378 . S
C873 H868 0.931 . S
C873 C874 1.348 . S
C873 C875 1.413 . S
C874 H869 0.930 . S
C874 C872 1.378 . S
C874 C873 1.348 . S
C875 C871 1.415 . S
C875 C873 1.413 . S
C875 C905 1.437 . S
H876 C905 0.929 . S
N877 Gd850 2.570 . S
N877 C878 1.359 . S
N877 C881 1.343 . S
C878 C871 1.422 . S
C878 N877 1.359 . S
C878 C880 1.421 . S
C879 C880 1.422 . S
C879 C882 1.321 . S
C879 H906 0.931 . S
C880 C878 1.421 . S
C880 C879 1.422 . S
C880 C904 1.417 . S
C881 H858 0.931 . S
C881 N877 1.343 . S
C881 C882 1.390 . S
C882 H860 0.930 . S
C882 C879 1.321 . S
C882 C881 1.390 . S
O883 Gd851 2.386 . S
O883 C895 1.265 . S
O884 Gd850 2.353 . S
O884 C895 1.242 . S
O885 Gd850 2.468 . S
O885 C903 1.263 . S
O886 Gd850 2.427 . S
O886 C903 1.252 . S
O887 Gd851 2.307 . S
O887 C896 1.261 . S
O888 Gd850 2.388 . S
O888 C896 1.252 . S
O889 Gd850 2.386 . S
O889 C907 1.265 . S
O890 Gd851 2.353 . S
O890 C907 1.242 . S
O891 Gd851 2.468 . S
O891 C915 1.263 . S
O892 Gd851 2.427 . S
O892 C915 1.252 . S
O893 Gd850 2.307 . S
O893 C908 1.261 . S
O894 Gd851 2.388 . S
O894 C908 1.252 . S
C895 O883 1.265 . S
C895 O884 1.242 . S
C896 O887 1.261 . S
C896 O888 1.252 . S
C897 C900 1.394 . S
C897 C902 1.370 . S
C897 C903 1.500 . S
C898 C901 1.383 . S
C898 C902 1.395 . S
C899 C900 1.396 . S
C899 C901 1.365 . S
C899 H916 0.929 . S
C900 C897 1.394 . S
C900 C899 1.396 . S
C900 H917 0.930 . S
C901 C898 1.383 . S
C901 C899 1.365 . S
C901 H918 0.931 . S
C902 C897 1.370 . S
C902 C898 1.395 . S
C902 H919 0.930 . S
C903 Gd850 2.805 . S
C903 O885 1.263 . S
C903 O886 1.252 . S
C903 C897 1.500 . S
C904 H866 0.930 . S
C904 C880 1.417 . S
C904 C905 1.329 . S
C905 C875 1.437 . S
C905 H876 0.929 . S
C905 C904 1.329 . S
H906 C879 0.931 . S
C907 O889 1.265 . S
C907 O890 1.242 . S
C908 O893 1.261 . S
C908 O894 1.252 . S
C909 C912 1.394 . S
C909 C914 1.370 . S
C909 C915 1.500 . S
C910 C913 1.383 . S
C910 C914 1.395 . S
C911 C912 1.396 . S
C911 C913 1.365 . S
C911 H920 0.929 . S
C912 C909 1.394 . S
C912 C911 1.396 . S
C912 H921 0.930 . S
C913 C910 1.383 . S
C913 C911 1.365 . S
C913 H922 0.931 . S
C914 C909 1.370 . S
C914 C910 1.395 . S
C914 H923 0.930 . S
C915 Gd851 2.805 . S
C915 O891 1.263 . S
C915 O892 1.252 . S
C915 C909 1.500 . S
H916 C899 0.929 . S
H917 C900 0.930 . S
H918 C901 0.931 . S
H919 C902 0.930 . S
H920 C911 0.929 . S
H921 C912 0.930 . S
H922 C913 0.931 . S
H923 C914 0.930 . S
C924 C926 1.422 . S
C924 C928 1.415 . S
C924 N930 1.369 . S
C925 C926 1.421 . S
C925 C927 1.417 . S
C925 C937 1.422 . S
C926 C924 1.422 . S
C926 C925 1.421 . S
C926 N936 1.359 . S
C927 C925 1.417 . S
C927 C929 1.329 . S
C927 H946 0.930 . S
C928 C924 1.415 . S
C928 C929 1.437 . S
C928 C932 1.413 . S
C929 C927 1.329 . S
C929 C928 1.437 . S
C929 H951 0.929 . S
N930 C924 1.369 . S
N930 C931 1.338 . S
N930 Gd935 2.622 . S
C931 N930 1.338 . S
C931 C933 1.378 . S
C931 H943 0.929 . S
C932 C928 1.413 . S
C932 C933 1.348 . S
C932 H948 0.931 . S
C933 C931 1.378 . S
C933 C932 1.348 . S
C933 H949 0.930 . S
Gd934 N954 2.622 . S
Gd934 N961 2.570 . S
Gd934 O968 2.353 . S
Gd934 O969 2.468 . S
Gd934 O970 2.427 . S
Gd934 O972 2.388 . S
Gd934 O973 2.386 . S
Gd934 O977 2.307 . S
Gd934 C987 2.805 . S
Gd935 N930 2.622 . S
Gd935 N936 2.570 . S
Gd935 O967 2.386 . S
Gd935 O971 2.307 . S
Gd935 O974 2.353 . S
Gd935 O975 2.468 . S
Gd935 O976 2.427 . S
Gd935 O978 2.388 . S
Gd935 C999 2.805 . S
N936 C926 1.359 . S
N936 Gd935 2.570 . S
N936 C938 1.343 . S
C937 C925 1.422 . S
C937 C939 1.321 . S
C937 H945 0.931 . S
C938 N936 1.343 . S
C938 C939 1.390 . S
C938 H940 0.931 . S
C939 C937 1.321 . S
C939 C938 1.390 . S
C939 H941 0.930 . S
H940 C938 0.931 . S
H941 C939 0.930 . S
H942 C965 0.931 . S
H943 C931 0.929 . S
H944 C966 0.930 . S
H945 C937 0.931 . S
H946 C927 0.930 . S
H947 C956 0.929 . S
H948 C932 0.931 . S
H949 C933 0.930 . S
H950 C988 0.930 . S
H951 C929 0.929 . S
H952 C957 0.931 . S
H953 C958 0.930 . S
N954 Gd934 2.622 . S
N954 C955 1.369 . S
N954 C956 1.338 . S
C955 N954 1.369 . S
C955 C959 1.415 . S
C955 C962 1.422 . S
C956 H947 0.929 . S
C956 N954 1.338 . S
C956 C958 1.378 . S
C957 H952 0.931 . S
C957 C958 1.348 . S
C957 C959 1.413 . S
C958 H953 0.930 . S
C958 C956 1.378 . S
C958 C957 1.348 . S
C959 C955 1.415 . S
C959 C957 1.413 . S
C959 C989 1.437 . S
H960 C989 0.929 . S
N961 Gd934 2.570 . S
N961 C962 1.359 . S
N961 C965 1.343 . S
C962 C955 1.422 . S
C962 N961 1.359 . S
C962 C964 1.421 . S
C963 C964 1.422 . S
C963 C966 1.321 . S
C963 H990 0.931 . S
C964 C962 1.421 . S
C964 C963 1.422 . S
C964 C988 1.417 . S
C965 H942 0.931 . S
C965 N961 1.343 . S
C965 C966 1.390 . S
C966 H944 0.930 . S
C966 C963 1.321 . S
C966 C965 1.390 . S
O967 Gd935 2.386 . S
O967 C979 1.265 . S
O968 Gd934 2.353 . S
O968 C979 1.242 . S
O969 Gd934 2.468 . S
O969 C987 1.263 . S
O970 Gd934 2.427 . S
O970 C987 1.252 . S
O971 Gd935 2.307 . S
O971 C980 1.261 . S
O972 Gd934 2.388 . S
O972 C980 1.252 . S
O973 Gd934 2.386 . S
O973 C991 1.265 . S
O974 Gd935 2.353 . S
O974 C991 1.242 . S
O975 Gd935 2.468 . S
O975 C999 1.263 . S
O976 Gd935 2.427 . S
O976 C999 1.252 . S
O977 Gd934 2.307 . S
O977 C992 1.261 . S
O978 Gd935 2.388 . S
O978 C992 1.252 . S
C979 O967 1.265 . S
C979 O968 1.242 . S
C980 O971 1.261 . S
C980 O972 1.252 . S
C981 C984 1.394 . S
C981 C986 1.370 . S
C981 C987 1.500 . S
C982 C985 1.383 . S
C982 C986 1.395 . S
C983 C984 1.396 . S
C983 C985 1.365 . S
C983 H1000 0.929 . S
C984 C981 1.394 . S
C984 C983 1.396 . S
C984 H1001 0.930 . S
C985 C982 1.383 . S
C985 C983 1.365 . S
C985 H1002 0.931 . S
C986 C981 1.370 . S
C986 C982 1.395 . S
C986 H1003 0.930 . S
C987 Gd934 2.805 . S
C987 O969 1.263 . S
C987 O970 1.252 . S
C987 C981 1.500 . S
C988 H950 0.930 . S
C988 C964 1.417 . S
C988 C989 1.329 . S
C989 C959 1.437 . S
C989 H960 0.929 . S
C989 C988 1.329 . S
H990 C963 0.931 . S
C991 O973 1.265 . S
C991 O974 1.242 . S
C992 O977 1.261 . S
C992 O978 1.252 . S
C993 C996 1.394 . S
C993 C998 1.370 . S
C993 C999 1.500 . S
C994 C997 1.383 . S
C994 C998 1.395 . S
C995 C996 1.396 . S
C995 C997 1.365 . S
C995 H1004 0.929 . S
C996 C993 1.394 . S
C996 C995 1.396 . S
C996 H1005 0.930 . S
C997 C994 1.383 . S
C997 C995 1.365 . S
C997 H1006 0.931 . S
C998 C993 1.370 . S
C998 C994 1.395 . S
C998 H1007 0.930 . S
C999 Gd935 2.805 . S
C999 O975 1.263 . S
C999 O976 1.252 . S
C999 C993 1.500 . S
H1000 C983 0.929 . S
H1001 C984 0.930 . S
H1002 C985 0.931 . S
H1003 C986 0.930 . S
H1004 C995 0.929 . S
H1005 C996 0.930 . S
H1006 C997 0.931 . S
H1007 C998 0.930 . S
C1008 C1010 1.422 . S
C1008 C1012 1.415 . S
C1008 N1014 1.369 . S
C1009 C1010 1.421 . S
C1009 C1011 1.417 . S
C1009 C1021 1.422 . S
C1010 C1008 1.422 . S
C1010 C1009 1.421 . S
C1010 N1020 1.359 . S
C1011 C1009 1.417 . S
C1011 C1013 1.329 . S
C1011 H1030 0.930 . S
C1012 C1008 1.415 . S
C1012 C1013 1.437 . S
C1012 C1016 1.413 . S
C1013 C1011 1.329 . S
C1013 C1012 1.437 . S
C1013 H1035 0.929 . S
N1014 C1008 1.369 . S
N1014 C1015 1.338 . S
N1014 Gd1019 2.622 . S
C1015 N1014 1.338 . S
C1015 C1017 1.378 . S
C1015 H1027 0.929 . S
C1016 C1012 1.413 . S
C1016 C1017 1.348 . S
C1016 H1032 0.931 . S
C1017 C1015 1.378 . S
C1017 C1016 1.348 . S
C1017 H1033 0.930 . S
Gd1018 N1038 2.622 . S
Gd1018 N1045 2.570 . S
Gd1018 O1052 2.353 1_455 S
Gd1018 O1053 2.468 . S
Gd1018 O1054 2.427 . S
Gd1018 O1056 2.388 1_455 S
Gd1018 O1057 2.386 1_455 S
Gd1018 O1061 2.307 1_455 S
Gd1018 C1071 2.805 . S
Gd1019 N1014 2.622 . S
Gd1019 N1020 2.570 . S
Gd1019 O1051 2.386 . S
Gd1019 O1055 2.307 . S
Gd1019 O1058 2.353 . S
Gd1019 O1059 2.468 . S
Gd1019 O1060 2.427 . S
Gd1019 O1062 2.388 . S
Gd1019 C1083 2.805 . S
N1020 C1010 1.359 . S
N1020 Gd1019 2.570 . S
N1020 C1022 1.343 . S
C1021 C1009 1.422 . S
C1021 C1023 1.321 . S
C1021 H1029 0.931 . S
C1022 N1020 1.343 . S
C1022 C1023 1.390 . S
C1022 H1024 0.931 . S
C1023 C1021 1.321 . S
C1023 C1022 1.390 . S
C1023 H1025 0.930 . S
H1024 C1022 0.931 . S
H1025 C1023 0.930 . S
H1026 C1049 0.931 . S
H1027 C1015 0.929 . S
H1028 C1050 0.930 . S
H1029 C1021 0.931 . S
H1030 C1011 0.930 . S
H1031 C1040 0.929 . S
H1032 C1016 0.931 . S
H1033 C1017 0.930 . S
H1034 C1072 0.930 . S
H1035 C1013 0.929 . S
H1036 C1041 0.931 . S
H1037 C1042 0.930 . S
N1038 Gd1018 2.622 . S
N1038 C1039 1.369 . S
N1038 C1040 1.338 . S
C1039 N1038 1.369 . S
C1039 C1043 1.415 . S
C1039 C1046 1.422 . S
C1040 H1031 0.929 . S
C1040 N1038 1.338 . S
C1040 C1042 1.378 . S
C1041 H1036 0.931 . S
C1041 C1042 1.348 . S
C1041 C1043 1.413 . S
C1042 H1037 0.930 . S
C1042 C1040 1.378 . S
C1042 C1041 1.348 . S
C1043 C1039 1.415 . S
C1043 C1041 1.413 . S
C1043 C1073 1.437 . S
H1044 C1073 0.929 . S
N1045 Gd1018 2.570 . S
N1045 C1046 1.359 . S
N1045 C1049 1.343 . S
C1046 C1039 1.422 . S
C1046 N1045 1.359 . S
C1046 C1048 1.421 . S
C1047 C1048 1.422 . S
C1047 C1050 1.321 . S
C1047 H1074 0.931 . S
C1048 C1046 1.421 . S
C1048 C1047 1.422 . S
C1048 C1072 1.417 . S
C1049 H1026 0.931 . S
C1049 N1045 1.343 . S
C1049 C1050 1.390 . S
C1050 H1028 0.930 . S
C1050 C1047 1.321 . S
C1050 C1049 1.390 . S
O1051 Gd1019 2.386 . S
O1051 C1063 1.265 . S
O1052 Gd1018 2.353 1_655 S
O1052 C1063 1.242 . S
O1053 Gd1018 2.468 . S
O1053 C1071 1.263 . S
O1054 Gd1018 2.427 . S
O1054 C1071 1.252 . S
O1055 Gd1019 2.307 . S
O1055 C1064 1.261 . S
O1056 Gd1018 2.388 1_655 S
O1056 C1064 1.252 . S
O1057 Gd1018 2.386 1_655 S
O1057 C1075 1.265 . S
O1058 Gd1019 2.353 . S
O1058 C1075 1.242 . S
O1059 Gd1019 2.468 . S
O1059 C1083 1.263 . S
O1060 Gd1019 2.427 . S
O1060 C1083 1.252 . S
O1061 Gd1018 2.307 1_655 S
O1061 C1076 1.261 . S
O1062 Gd1019 2.388 . S
O1062 C1076 1.252 . S
C1063 O1051 1.265 . S
C1063 O1052 1.242 . S
C1064 O1055 1.261 . S
C1064 O1056 1.252 . S
C1065 C1068 1.394 . S
C1065 C1070 1.370 . S
C1065 C1071 1.500 . S
C1066 C1069 1.383 . S
C1066 C1070 1.395 . S
C1067 C1068 1.396 . S
C1067 C1069 1.365 . S
C1067 H1084 0.929 . S
C1068 C1065 1.394 . S
C1068 C1067 1.396 . S
C1068 H1085 0.930 . S
C1069 C1066 1.383 . S
C1069 C1067 1.365 . S
C1069 H1086 0.931 . S
C1070 C1065 1.370 . S
C1070 C1066 1.395 . S
C1070 H1087 0.930 . S
C1071 Gd1018 2.805 . S
C1071 O1053 1.263 . S
C1071 O1054 1.252 . S
C1071 C1065 1.500 . S
C1072 H1034 0.930 . S
C1072 C1048 1.417 . S
C1072 C1073 1.329 . S
C1073 C1043 1.437 . S
C1073 H1044 0.929 . S
C1073 C1072 1.329 . S
H1074 C1047 0.931 . S
C1075 O1057 1.265 . S
C1075 O1058 1.242 . S
C1076 O1061 1.261 . S
C1076 O1062 1.252 . S
C1077 C1080 1.394 . S
C1077 C1082 1.370 . S
C1077 C1083 1.500 . S
C1078 C1081 1.383 . S
C1078 C1082 1.395 . S
C1079 C1080 1.396 . S
C1079 C1081 1.365 . S
C1079 H1088 0.929 . S
C1080 C1077 1.394 . S
C1080 C1079 1.396 . S
C1080 H1089 0.930 . S
C1081 C1078 1.383 . S
C1081 C1079 1.365 . S
C1081 H1090 0.931 . S
C1082 C1077 1.370 . S
C1082 C1078 1.395 . S
C1082 H1091 0.930 . S
C1083 Gd1019 2.805 . S
C1083 O1059 1.263 . S
C1083 O1060 1.252 . S
C1083 C1077 1.500 . S
H1084 C1067 0.929 . S
H1085 C1068 0.930 . S
H1086 C1069 0.931 . S
H1087 C1070 0.930 . S
H1088 C1079 0.929 . S
H1089 C1080 0.930 . S
H1090 C1081 0.931 . S
H1091 C1082 0.930 . S
C1092 C1094 1.422 . S
C1092 C1096 1.415 . S
C1092 N1098 1.369 . S
C1093 C1094 1.421 . S
C1093 C1095 1.417 . S
C1093 C1105 1.422 . S
C1094 C1092 1.422 . S
C1094 C1093 1.421 . S
C1094 N1104 1.359 . S
C1095 C1093 1.417 . S
C1095 C1097 1.329 . S
C1095 H1114 0.930 . S
C1096 C1092 1.415 . S
C1096 C1097 1.437 . S
C1096 C1100 1.413 . S
C1097 C1095 1.329 . S
C1097 C1096 1.437 . S
C1097 H1119 0.929 . S
N1098 C1092 1.369 . S
N1098 C1099 1.338 . S
N1098 Gd1103 2.622 . S
C1099 N1098 1.338 . S
C1099 C1101 1.378 . S
C1099 H1111 0.929 . S
C1100 C1096 1.413 . S
C1100 C1101 1.348 . S
C1100 H1116 0.931 . S
C1101 C1099 1.378 . S
C1101 C1100 1.348 . S
C1101 H1117 0.930 . S
Gd1102 N1122 2.622 . S
Gd1102 N1129 2.570 . S
Gd1102 O1136 2.353 1_545 S
Gd1102 O1137 2.468 . S
Gd1102 O1138 2.427 . S
Gd1102 O1140 2.388 1_545 S
Gd1102 O1141 2.386 1_545 S
Gd1102 O1145 2.307 1_545 S
Gd1102 C1155 2.805 . S
Gd1103 N1098 2.622 . S
Gd1103 N1104 2.570 . S
Gd1103 O1135 2.386 . S
Gd1103 O1139 2.307 . S
Gd1103 O1142 2.353 . S
Gd1103 O1143 2.468 . S
Gd1103 O1144 2.427 . S
Gd1103 O1146 2.388 . S
Gd1103 C1167 2.805 . S
N1104 C1094 1.359 . S
N1104 Gd1103 2.570 . S
N1104 C1106 1.343 . S
C1105 C1093 1.422 . S
C1105 C1107 1.321 . S
C1105 H1113 0.931 . S
C1106 N1104 1.343 . S
C1106 C1107 1.390 . S
C1106 H1108 0.931 . S
C1107 C1105 1.321 . S
C1107 C1106 1.390 . S
C1107 H1109 0.930 . S
H1108 C1106 0.931 . S
H1109 C1107 0.930 . S
H1110 C1133 0.931 . S
H1111 C1099 0.929 . S
H1112 C1134 0.930 . S
H1113 C1105 0.931 . S
H1114 C1095 0.930 . S
H1115 C1124 0.929 . S
H1116 C1100 0.931 . S
H1117 C1101 0.930 . S
H1118 C1156 0.930 . S
H1119 C1097 0.929 . S
H1120 C1125 0.931 . S
H1121 C1126 0.930 . S
N1122 Gd1102 2.622 . S
N1122 C1123 1.369 . S
N1122 C1124 1.338 . S
C1123 N1122 1.369 . S
C1123 C1127 1.415 . S
C1123 C1130 1.422 . S
C1124 H1115 0.929 . S
C1124 N1122 1.338 . S
C1124 C1126 1.378 . S
C1125 H1120 0.931 . S
C1125 C1126 1.348 . S
C1125 C1127 1.413 . S
C1126 H1121 0.930 . S
C1126 C1124 1.378 . S
C1126 C1125 1.348 . S
C1127 C1123 1.415 . S
C1127 C1125 1.413 . S
C1127 C1157 1.437 . S
H1128 C1157 0.929 . S
N1129 Gd1102 2.570 . S
N1129 C1130 1.359 . S
N1129 C1133 1.343 . S
C1130 C1123 1.422 . S
C1130 N1129 1.359 . S
C1130 C1132 1.421 . S
C1131 C1132 1.422 . S
C1131 C1134 1.321 . S
C1131 H1158 0.931 . S
C1132 C1130 1.421 . S
C1132 C1131 1.422 . S
C1132 C1156 1.417 . S
C1133 H1110 0.931 . S
C1133 N1129 1.343 . S
C1133 C1134 1.390 . S
C1134 H1112 0.930 . S
C1134 C1131 1.321 . S
C1134 C1133 1.390 . S
O1135 Gd1103 2.386 . S
O1135 C1147 1.265 . S
O1136 Gd1102 2.353 1_565 S
O1136 C1147 1.242 . S
O1137 Gd1102 2.468 . S
O1137 C1155 1.263 . S
O1138 Gd1102 2.427 . S
O1138 C1155 1.252 . S
O1139 Gd1103 2.307 . S
O1139 C1148 1.261 . S
O1140 Gd1102 2.388 1_565 S
O1140 C1148 1.252 . S
O1141 Gd1102 2.386 1_565 S
O1141 C1159 1.265 . S
O1142 Gd1103 2.353 . S
O1142 C1159 1.242 . S
O1143 Gd1103 2.468 . S
O1143 C1167 1.263 . S
O1144 Gd1103 2.427 . S
O1144 C1167 1.252 . S
O1145 Gd1102 2.307 1_565 S
O1145 C1160 1.261 . S
O1146 Gd1103 2.388 . S
O1146 C1160 1.252 . S
C1147 O1135 1.265 . S
C1147 O1136 1.242 . S
C1148 O1139 1.261 . S
C1148 O1140 1.252 . S
C1149 C1152 1.394 . S
C1149 C1154 1.370 . S
C1149 C1155 1.500 . S
C1150 C1153 1.383 . S
C1150 C1154 1.395 . S
C1151 C1152 1.396 . S
C1151 C1153 1.365 . S
C1151 H1168 0.929 . S
C1152 C1149 1.394 . S
C1152 C1151 1.396 . S
C1152 H1169 0.930 . S
C1153 C1150 1.383 . S
C1153 C1151 1.365 . S
C1153 H1170 0.931 . S
C1154 C1149 1.370 . S
C1154 C1150 1.395 . S
C1154 H1171 0.930 . S
C1155 Gd1102 2.805 . S
C1155 O1137 1.263 . S
C1155 O1138 1.252 . S
C1155 C1149 1.500 . S
C1156 H1118 0.930 . S
C1156 C1132 1.417 . S
C1156 C1157 1.329 . S
C1157 C1127 1.437 . S
C1157 H1128 0.929 . S
C1157 C1156 1.329 . S
H1158 C1131 0.931 . S
C1159 O1141 1.265 . S
C1159 O1142 1.242 . S
C1160 O1145 1.261 . S
C1160 O1146 1.252 . S
C1161 C1164 1.394 . S
C1161 C1166 1.370 . S
C1161 C1167 1.500 . S
C1162 C1165 1.383 . S
C1162 C1166 1.395 . S
C1163 C1164 1.396 . S
C1163 C1165 1.365 . S
C1163 H1172 0.929 . S
C1164 C1161 1.394 . S
C1164 C1163 1.396 . S
C1164 H1173 0.930 . S
C1165 C1162 1.383 . S
C1165 C1163 1.365 . S
C1165 H1174 0.931 . S
C1166 C1161 1.370 . S
C1166 C1162 1.395 . S
C1166 H1175 0.930 . S
C1167 Gd1103 2.805 . S
C1167 O1143 1.263 . S
C1167 O1144 1.252 . S
C1167 C1161 1.500 . S
H1168 C1151 0.929 . S
H1169 C1152 0.930 . S
H1170 C1153 0.931 . S
H1171 C1154 0.930 . S
H1172 C1163 0.929 . S
H1173 C1164 0.930 . S
H1174 C1165 0.931 . S
H1175 C1166 0.930 . S
C1176 C1178 1.422 . S
C1176 C1180 1.415 . S
C1176 N1182 1.369 . S
C1177 C1178 1.421 . S
C1177 C1179 1.417 . S
C1177 C1189 1.422 . S
C1178 C1176 1.422 . S
C1178 C1177 1.421 . S
C1178 N1188 1.359 . S
C1179 C1177 1.417 . S
C1179 C1181 1.329 . S
C1179 H1198 0.930 . S
C1180 C1176 1.415 . S
C1180 C1181 1.437 . S
C1180 C1184 1.413 . S
C1181 C1179 1.329 . S
C1181 C1180 1.437 . S
C1181 H1203 0.929 . S
N1182 C1176 1.369 . S
N1182 C1183 1.338 . S
N1182 Gd1187 2.622 . S
C1183 N1182 1.338 . S
C1183 C1185 1.378 . S
C1183 H1195 0.929 . S
C1184 C1180 1.413 . S
C1184 C1185 1.348 . S
C1184 H1200 0.931 . S
C1185 C1183 1.378 . S
C1185 C1184 1.348 . S
C1185 H1201 0.930 . S
Gd1186 N1206 2.622 . S
Gd1186 N1213 2.570 . S
Gd1186 O1220 2.353 . S
Gd1186 O1221 2.468 . S
Gd1186 O1222 2.427 . S
Gd1186 O1224 2.388 . S
Gd1186 O1225 2.386 . S
Gd1186 O1229 2.307 . S
Gd1186 C1239 2.805 . S
Gd1187 N1182 2.622 . S
Gd1187 N1188 2.570 . S
Gd1187 O1219 2.386 . S
Gd1187 O1223 2.307 . S
Gd1187 O1226 2.353 . S
Gd1187 O1227 2.468 . S
Gd1187 O1228 2.427 . S
Gd1187 O1230 2.388 . S
Gd1187 C1251 2.805 . S
N1188 C1178 1.359 . S
N1188 Gd1187 2.570 . S
N1188 C1190 1.343 . S
C1189 C1177 1.422 . S
C1189 C1191 1.321 . S
C1189 H1197 0.931 . S
C1190 N1188 1.343 . S
C1190 C1191 1.390 . S
C1190 H1192 0.931 . S
C1191 C1189 1.321 . S
C1191 C1190 1.390 . S
C1191 H1193 0.930 . S
H1192 C1190 0.931 . S
H1193 C1191 0.930 . S
H1194 C1217 0.931 . S
H1195 C1183 0.929 . S
H1196 C1218 0.930 . S
H1197 C1189 0.931 . S
H1198 C1179 0.930 . S
H1199 C1208 0.929 . S
H1200 C1184 0.931 . S
H1201 C1185 0.930 . S
H1202 C1240 0.930 . S
H1203 C1181 0.929 . S
H1204 C1209 0.931 . S
H1205 C1210 0.930 . S
N1206 Gd1186 2.622 . S
N1206 C1207 1.369 . S
N1206 C1208 1.338 . S
C1207 N1206 1.369 . S
C1207 C1211 1.415 . S
C1207 C1214 1.422 . S
C1208 H1199 0.929 . S
C1208 N1206 1.338 . S
C1208 C1210 1.378 . S
C1209 H1204 0.931 . S
C1209 C1210 1.348 . S
C1209 C1211 1.413 . S
C1210 H1205 0.930 . S
C1210 C1208 1.378 . S
C1210 C1209 1.348 . S
C1211 C1207 1.415 . S
C1211 C1209 1.413 . S
C1211 C1241 1.437 . S
H1212 C1241 0.929 . S
N1213 Gd1186 2.570 . S
N1213 C1214 1.359 . S
N1213 C1217 1.343 . S
C1214 C1207 1.422 . S
C1214 N1213 1.359 . S
C1214 C1216 1.421 . S
C1215 C1216 1.422 . S
C1215 C1218 1.321 . S
C1215 H1242 0.931 . S
C1216 C1214 1.421 . S
C1216 C1215 1.422 . S
C1216 C1240 1.417 . S
C1217 H1194 0.931 . S
C1217 N1213 1.343 . S
C1217 C1218 1.390 . S
C1218 H1196 0.930 . S
C1218 C1215 1.321 . S
C1218 C1217 1.390 . S
O1219 Gd1187 2.386 . S
O1219 C1231 1.265 . S
O1220 Gd1186 2.353 . S
O1220 C1231 1.242 . S
O1221 Gd1186 2.468 . S
O1221 C1239 1.263 . S
O1222 Gd1186 2.427 . S
O1222 C1239 1.252 . S
O1223 Gd1187 2.307 . S
O1223 C1232 1.261 . S
O1224 Gd1186 2.388 . S
O1224 C1232 1.252 . S
O1225 Gd1186 2.386 . S
O1225 C1243 1.265 . S
O1226 Gd1187 2.353 . S
O1226 C1243 1.242 . S
O1227 Gd1187 2.468 . S
O1227 C1251 1.263 . S
O1228 Gd1187 2.427 . S
O1228 C1251 1.252 . S
O1229 Gd1186 2.307 . S
O1229 C1244 1.261 . S
O1230 Gd1187 2.388 . S
O1230 C1244 1.252 . S
C1231 O1219 1.265 . S
C1231 O1220 1.242 . S
C1232 O1223 1.261 . S
C1232 O1224 1.252 . S
C1233 C1236 1.394 . S
C1233 C1238 1.370 . S
C1233 C1239 1.500 . S
C1234 C1237 1.383 . S
C1234 C1238 1.395 . S
C1235 C1236 1.396 . S
C1235 C1237 1.365 . S
C1235 H1252 0.929 . S
C1236 C1233 1.394 . S
C1236 C1235 1.396 . S
C1236 H1253 0.930 . S
C1237 C1234 1.383 . S
C1237 C1235 1.365 . S
C1237 H1254 0.931 . S
C1238 C1233 1.370 . S
C1238 C1234 1.395 . S
C1238 H1255 0.930 . S
C1239 Gd1186 2.805 . S
C1239 O1221 1.263 . S
C1239 O1222 1.252 . S
C1239 C1233 1.500 . S
C1240 H1202 0.930 . S
C1240 C1216 1.417 . S
C1240 C1241 1.329 . S
C1241 C1211 1.437 . S
C1241 H1212 0.929 . S
C1241 C1240 1.329 . S
H1242 C1215 0.931 . S
C1243 O1225 1.265 . S
C1243 O1226 1.242 . S
C1244 O1229 1.261 . S
C1244 O1230 1.252 . S
C1245 C1248 1.394 . S
C1245 C1250 1.370 . S
C1245 C1251 1.500 . S
C1246 C1249 1.383 . S
C1246 C1250 1.395 . S
C1247 C1248 1.396 . S
C1247 C1249 1.365 . S
C1247 H1256 0.929 . S
C1248 C1245 1.394 . S
C1248 C1247 1.396 . S
C1248 H1257 0.930 . S
C1249 C1246 1.383 . S
C1249 C1247 1.365 . S
C1249 H1258 0.931 . S
C1250 C1245 1.370 . S
C1250 C1246 1.395 . S
C1250 H1259 0.930 . S
C1251 Gd1187 2.805 . S
C1251 O1227 1.263 . S
C1251 O1228 1.252 . S
C1251 C1245 1.500 . S
H1252 C1235 0.929 . S
H1253 C1236 0.930 . S
H1254 C1237 0.931 . S
H1255 C1238 0.930 . S
H1256 C1247 0.929 . S
H1257 C1248 0.930 . S
H1258 C1249 0.931 . S
H1259 C1250 0.930 . S
C1260 C1262 1.422 . S
C1260 C1264 1.415 . S
C1260 N1266 1.369 . S
C1261 C1262 1.421 . S
C1261 C1263 1.417 . S
C1261 C1273 1.422 . S
C1262 C1260 1.422 . S
C1262 C1261 1.421 . S
C1262 N1272 1.359 . S
C1263 C1261 1.417 . S
C1263 C1265 1.329 . S
C1263 H1282 0.930 . S
C1264 C1260 1.415 . S
C1264 C1265 1.437 . S
C1264 C1268 1.413 . S
C1265 C1263 1.329 . S
C1265 C1264 1.437 . S
C1265 H1287 0.929 . S
N1266 C1260 1.369 . S
N1266 C1267 1.338 . S
N1266 Gd1271 2.622 . S
C1267 N1266 1.338 . S
C1267 C1269 1.378 . S
C1267 H1279 0.929 . S
C1268 C1264 1.413 . S
C1268 C1269 1.348 . S
C1268 H1284 0.931 . S
C1269 C1267 1.378 . S
C1269 C1268 1.348 . S
C1269 H1285 0.930 . S
Gd1270 N1290 2.622 . S
Gd1270 N1297 2.570 . S
Gd1270 O1304 2.353 . S
Gd1270 O1305 2.468 . S
Gd1270 O1306 2.427 . S
Gd1270 O1308 2.388 . S
Gd1270 O1309 2.386 . S
Gd1270 O1313 2.307 . S
Gd1270 C1323 2.805 . S
Gd1271 N1266 2.622 . S
Gd1271 N1272 2.570 . S
Gd1271 O1303 2.386 . S
Gd1271 O1307 2.307 . S
Gd1271 O1310 2.353 . S
Gd1271 O1311 2.468 . S
Gd1271 O1312 2.427 . S
Gd1271 O1314 2.388 . S
Gd1271 C1335 2.805 . S
N1272 C1262 1.359 . S
N1272 Gd1271 2.570 . S
N1272 C1274 1.343 . S
C1273 C1261 1.422 . S
C1273 C1275 1.321 . S
C1273 H1281 0.931 . S
C1274 N1272 1.343 . S
C1274 C1275 1.390 . S
C1274 H1276 0.931 . S
C1275 C1273 1.321 . S
C1275 C1274 1.390 . S
C1275 H1277 0.930 . S
H1276 C1274 0.931 . S
H1277 C1275 0.930 . S
H1278 C1301 0.931 . S
H1279 C1267 0.929 . S
H1280 C1302 0.930 . S
H1281 C1273 0.931 . S
H1282 C1263 0.930 . S
H1283 C1292 0.929 . S
H1284 C1268 0.931 . S
H1285 C1269 0.930 . S
H1286 C1324 0.930 . S
H1287 C1265 0.929 . S
H1288 C1293 0.931 . S
H1289 C1294 0.930 . S
N1290 Gd1270 2.622 . S
N1290 C1291 1.369 . S
N1290 C1292 1.338 . S
C1291 N1290 1.369 . S
C1291 C1295 1.415 . S
C1291 C1298 1.422 . S
C1292 H1283 0.929 . S
C1292 N1290 1.338 . S
C1292 C1294 1.378 . S
C1293 H1288 0.931 . S
C1293 C1294 1.348 . S
C1293 C1295 1.413 . S
C1294 H1289 0.930 . S
C1294 C1292 1.378 . S
C1294 C1293 1.348 . S
C1295 C1291 1.415 . S
C1295 C1293 1.413 . S
C1295 C1325 1.437 . S
H1296 C1325 0.929 . S
N1297 Gd1270 2.570 . S
N1297 C1298 1.359 . S
N1297 C1301 1.343 . S
C1298 C1291 1.422 . S
C1298 N1297 1.359 . S
C1298 C1300 1.421 . S
C1299 C1300 1.422 . S
C1299 C1302 1.321 . S
C1299 H1326 0.931 . S
C1300 C1298 1.421 . S
C1300 C1299 1.422 . S
C1300 C1324 1.417 . S
C1301 H1278 0.931 . S
C1301 N1297 1.343 . S
C1301 C1302 1.390 . S
C1302 H1280 0.930 . S
C1302 C1299 1.321 . S
C1302 C1301 1.390 . S
O1303 Gd1271 2.386 . S
O1303 C1315 1.265 . S
O1304 Gd1270 2.353 . S
O1304 C1315 1.242 . S
O1305 Gd1270 2.468 . S
O1305 C1323 1.263 . S
O1306 Gd1270 2.427 . S
O1306 C1323 1.252 . S
O1307 Gd1271 2.307 . S
O1307 C1316 1.261 . S
O1308 Gd1270 2.388 . S
O1308 C1316 1.252 . S
O1309 Gd1270 2.386 . S
O1309 C1327 1.265 . S
O1310 Gd1271 2.353 . S
O1310 C1327 1.242 . S
O1311 Gd1271 2.468 . S
O1311 C1335 1.263 . S
O1312 Gd1271 2.427 . S
O1312 C1335 1.252 . S
O1313 Gd1270 2.307 . S
O1313 C1328 1.261 . S
O1314 Gd1271 2.388 . S
O1314 C1328 1.252 . S
C1315 O1303 1.265 . S
C1315 O1304 1.242 . S
C1316 O1307 1.261 . S
C1316 O1308 1.252 . S
C1317 C1320 1.394 . S
C1317 C1322 1.370 . S
C1317 C1323 1.500 . S
C1318 C1321 1.383 . S
C1318 C1322 1.395 . S
C1319 C1320 1.396 . S
C1319 C1321 1.365 . S
C1319 H1336 0.929 . S
C1320 C1317 1.394 . S
C1320 C1319 1.396 . S
C1320 H1337 0.930 . S
C1321 C1318 1.383 . S
C1321 C1319 1.365 . S
C1321 H1338 0.931 . S
C1322 C1317 1.370 . S
C1322 C1318 1.395 . S
C1322 H1339 0.930 . S
C1323 Gd1270 2.805 . S
C1323 O1305 1.263 . S
C1323 O1306 1.252 . S
C1323 C1317 1.500 . S
C1324 H1286 0.930 . S
C1324 C1300 1.417 . S
C1324 C1325 1.329 . S
C1325 C1295 1.437 . S
C1325 H1296 0.929 . S
C1325 C1324 1.329 . S
H1326 C1299 0.931 . S
C1327 O1309 1.265 . S
C1327 O1310 1.242 . S
C1328 O1313 1.261 . S
C1328 O1314 1.252 . S
C1329 C1332 1.394 . S
C1329 C1334 1.370 . S
C1329 C1335 1.500 . S
C1330 C1333 1.383 . S
C1330 C1334 1.395 . S
C1331 C1332 1.396 . S
C1331 C1333 1.365 . S
C1331 H1340 0.929 . S
C1332 C1329 1.394 . S
C1332 C1331 1.396 . S
C1332 H1341 0.930 . S
C1333 C1330 1.383 . S
C1333 C1331 1.365 . S
C1333 H1342 0.931 . S
C1334 C1329 1.370 . S
C1334 C1330 1.395 . S
C1334 H1343 0.930 . S
C1335 Gd1271 2.805 . S
C1335 O1311 1.263 . S
C1335 O1312 1.252 . S
C1335 C1329 1.500 . S
H1336 C1319 0.929 . S
H1337 C1320 0.930 . S
H1338 C1321 0.931 . S
H1339 C1322 0.930 . S
H1340 C1331 0.929 . S
H1341 C1332 0.930 . S
H1342 C1333 0.931 . S
H1343 C1334 0.930 . S
C1344 C1345 1.349 . S
C1344 C1346 1.327 . S
C1344 H1369 0.950 . S
C1345 C1344 1.349 . S
C1345 C1361 1.349 . S
C1346 C1344 1.327 . S
C1346 C1365 1.429 . S
C1346 H1370 0.950 . S
C1347 C1364 1.574 . S
C1347 C1366 1.368 . S
C1347 H1371 0.949 . S
H1348 C1352 0.949 . S
C1349 C1350 1.349 . S
C1349 C1351 1.327 . S
C1349 H1372 0.950 . S
C1350 C1349 1.349 . S
C1350 C1362 1.349 . S
C1351 C1349 1.327 . S
C1351 C1367 1.429 . S
C1351 H1373 0.950 . S
C1352 H1348 0.949 . S
C1352 C1360 1.574 . S
C1352 C1368 1.368 . S
H1353 C1361 0.950 . S
H1354 C1359 0.950 . S
H1355 C1360 0.949 . S
H1356 C1362 0.950 . S
H1357 C1363 0.950 . S
H1358 C1364 0.949 . S
C1359 H1354 0.950 . S
C1359 C1361 1.327 . S
C1359 C1365 1.429 . S
C1360 C1352 1.574 . S
C1360 H1355 0.949 . S
C1360 C1366 1.368 . S
C1361 C1345 1.349 . S
C1361 H1353 0.950 . S
C1361 C1359 1.327 . S
C1362 C1350 1.349 . S
C1362 H1356 0.950 . S
C1362 C1363 1.327 . S
C1363 H1357 0.950 . S
C1363 C1362 1.327 . S
C1363 C1367 1.429 . S
C1364 C1347 1.574 . S
C1364 H1358 0.949 . S
C1364 C1368 1.368 . S
C1365 C1346 1.429 . S
C1365 C1359 1.429 . S
C1365 C1366 1.523 . S
C1366 C1347 1.368 . S
C1366 C1360 1.368 . S
C1366 C1365 1.523 . S
C1367 C1351 1.429 . S
C1367 C1363 1.429 . S
C1367 C1368 1.523 . S
C1368 C1352 1.368 . S
C1368 C1364 1.368 . S
C1368 C1367 1.523 . S
H1369 C1344 0.950 . S
H1370 C1346 0.950 . S
H1371 C1347 0.949 . S
H1372 C1349 0.950 . S
H1373 C1351 0.950 . S
C1374 C1375 1.349 . S
C1374 C1376 1.327 . S
C1374 H1399 0.950 . S
C1375 C1374 1.349 . S
C1375 C1391 1.349 . S
C1376 C1374 1.327 . S
C1376 C1395 1.429 . S
C1376 H1400 0.950 1_455 S
C1377 C1394 1.574 . S
C1377 C1396 1.368 . S
C1377 H1401 0.949 . S
H1378 C1382 0.949 . S
C1379 C1380 1.349 . S
C1379 C1381 1.327 . S
C1379 H1402 0.950 . S
C1380 C1379 1.349 . S
C1380 C1392 1.349 . S
C1381 C1379 1.327 . S
C1381 C1397 1.429 . S
C1381 H1403 0.950 1_655 S
C1382 H1378 0.949 . S
C1382 C1390 1.574 . S
C1382 C1398 1.368 . S
H1383 C1391 0.950 . S
H1384 C1389 0.950 . S
H1385 C1390 0.949 . S
H1386 C1392 0.950 . S
H1387 C1393 0.950 . S
H1388 C1394 0.949 . S
C1389 H1384 0.950 . S
C1389 C1391 1.327 . S
C1389 C1395 1.429 . S
C1390 C1382 1.574 . S
C1390 H1385 0.949 . S
C1390 C1396 1.368 1_655 S
C1391 C1375 1.349 . S
C1391 H1383 0.950 . S
C1391 C1389 1.327 . S
C1392 C1380 1.349 . S
C1392 H1386 0.950 . S
C1392 C1393 1.327 . S
C1393 H1387 0.950 . S
C1393 C1392 1.327 . S
C1393 C1397 1.429 . S
C1394 C1377 1.574 . S
C1394 H1388 0.949 . S
C1394 C1398 1.368 1_455 S
C1395 C1376 1.429 . S
C1395 C1389 1.429 . S
C1395 C1396 1.523 . S
C1396 C1377 1.368 . S
C1396 C1390 1.368 1_455 S
C1396 C1395 1.523 . S
C1397 C1381 1.429 . S
C1397 C1393 1.429 . S
C1397 C1398 1.523 . S
C1398 C1382 1.368 . S
C1398 C1394 1.368 1_655 S
C1398 C1397 1.523 . S
H1399 C1374 0.950 . S
H1400 C1376 0.950 1_655 S
H1401 C1377 0.949 . S
H1402 C1379 0.950 . S
H1403 C1381 0.950 1_455 S
C1404 C1405 1.349 . S
C1404 C1406 1.327 . S
C1404 H1429 0.950 . S
C1405 C1404 1.349 . S
C1405 C1421 1.349 . S
C1406 C1404 1.327 . S
C1406 C1425 1.429 . S
C1406 H1430 0.950 . S
C1407 C1424 1.574 . S
C1407 C1426 1.368 1_545 S
C1407 H1431 0.949 . S
H1408 C1412 0.949 . S
C1409 C1410 1.349 . S
C1409 C1411 1.327 . S
C1409 H1432 0.950 . S
C1410 C1409 1.349 . S
C1410 C1422 1.349 . S
C1411 C1409 1.327 . S
C1411 C1427 1.429 . S
C1411 H1433 0.950 . S
C1412 H1408 0.949 . S
C1412 C1420 1.574 . S
C1412 C1428 1.368 1_565 S
H1413 C1421 0.950 . S
H1414 C1419 0.950 1_545 S
H1415 C1420 0.949 . S
H1416 C1422 0.950 . S
H1417 C1423 0.950 . S
H1418 C1424 0.949 . S
C1419 H1414 0.950 1_565 S
C1419 C1421 1.327 . S
C1419 C1425 1.429 . S
C1420 C1412 1.574 . S
C1420 H1415 0.949 . S
C1420 C1426 1.368 . S
C1421 C1405 1.349 . S
C1421 H1413 0.950 . S
C1421 C1419 1.327 . S
C1422 C1410 1.349 . S
C1422 H1416 0.950 . S
C1422 C1423 1.327 . S
C1423 H1417 0.950 . S
C1423 C1422 1.327 . S
C1423 C1427 1.429 . S
C1424 C1407 1.574 . S
C1424 H1418 0.949 . S
C1424 C1428 1.368 . S
C1425 C1406 1.429 . S
C1425 C1419 1.429 . S
C1425 C1426 1.523 . S
C1426 C1407 1.368 1_565 S
C1426 C1420 1.368 . S
C1426 C1425 1.523 . S
C1427 C1411 1.429 . S
C1427 C1423 1.429 . S
C1427 C1428 1.523 . S
C1428 C1412 1.368 1_545 S
C1428 C1424 1.368 . S
C1428 C1427 1.523 . S
H1429 C1404 0.950 . S
H1430 C1406 0.950 . S
H1431 C1407 0.949 . S
H1432 C1409 0.950 . S
H1433 C1411 0.950 . S
C1434 C1435 1.349 . S
C1434 C1436 1.327 . S
C1434 H1459 0.950 . S
C1435 C1434 1.349 . S
C1435 C1451 1.349 . S
C1436 C1434 1.327 . S
C1436 C1455 1.429 . S
C1436 H1460 0.950 . S
C1437 C1454 1.574 . S
C1437 C1456 1.368 . S
C1437 H1461 0.949 . S
H1438 C1442 0.949 . S
C1439 C1440 1.349 . S
C1439 C1441 1.327 . S
C1439 H1462 0.950 . S
C1440 C1439 1.349 . S
C1440 C1452 1.349 . S
C1441 C1439 1.327 . S
C1441 C1457 1.429 . S
C1441 H1463 0.950 . S
C1442 H1438 0.949 . S
C1442 C1450 1.574 . S
C1442 C1458 1.368 . S
H1443 C1451 0.950 . S
H1444 C1449 0.950 . S
H1445 C1450 0.949 . S
H1446 C1452 0.950 . S
H1447 C1453 0.950 . S
H1448 C1454 0.949 . S
C1449 H1444 0.950 . S
C1449 C1451 1.327 . S
C1449 C1455 1.429 . S
C1450 C1442 1.574 . S
C1450 H1445 0.949 . S
C1450 C1456 1.368 . S
C1451 C1435 1.349 . S
C1451 H1443 0.950 . S
C1451 C1449 1.327 . S
C1452 C1440 1.349 . S
C1452 H1446 0.950 . S
C1452 C1453 1.327 . S
C1453 H1447 0.950 . S
C1453 C1452 1.327 . S
C1453 C1457 1.429 . S
C1454 C1437 1.574 . S
C1454 H1448 0.949 . S
C1454 C1458 1.368 . S
C1455 C1436 1.429 . S
C1455 C1449 1.429 . S
C1455 C1456 1.523 . S
C1456 C1437 1.368 . S
C1456 C1450 1.368 . S
C1456 C1455 1.523 . S
C1457 C1441 1.429 . S
C1457 C1453 1.429 . S
C1457 C1458 1.523 . S
C1458 C1442 1.368 . S
C1458 C1454 1.368 . S
C1458 C1457 1.523 . S
H1459 C1434 0.950 . S
H1460 C1436 0.950 . S
H1461 C1437 0.949 . S
H1462 C1439 0.950 . S
H1463 C1441 0.950 . S
C1464 C1465 1.349 . S
C1464 C1466 1.327 1_565 S
C1464 H1489 0.950 1_565 S
C1465 C1464 1.349 . S
C1465 C1481 1.349 . S
C1466 C1464 1.327 1_545 S
C1466 C1485 1.429 1_545 S
C1466 H1490 0.950 . S
C1467 C1484 1.574 . S
C1467 C1486 1.368 . S
C1467 H1491 0.949 . S
H1468 C1472 0.949 . S
C1469 C1470 1.349 . S
C1469 C1471 1.327 . S
C1469 H1492 0.950 1_545 S
C1470 C1469 1.349 . S
C1470 C1482 1.349 . S
C1471 C1469 1.327 . S
C1471 C1487 1.429 . S
C1471 H1493 0.950 1_545 S
C1472 H1468 0.949 . S
C1472 C1480 1.574 . S
C1472 C1488 1.368 . S
H1473 C1481 0.950 . S
H1474 C1479 0.950 . S
H1475 C1480 0.949 . S
H1476 C1482 0.950 . S
H1477 C1483 0.950 . S
H1478 C1484 0.949 . S
C1479 H1474 0.950 . S
C1479 C1481 1.327 . S
C1479 C1485 1.429 . S
C1480 C1472 1.574 . S
C1480 H1475 0.949 . S
C1480 C1486 1.368 1_545 S
C1481 C1465 1.349 . S
C1481 H1473 0.950 . S
C1481 C1479 1.327 . S
C1482 C1470 1.349 . S
C1482 H1476 0.950 . S
C1482 C1483 1.327 . S
C1483 H1477 0.950 . S
C1483 C1482 1.327 . S
C1483 C1487 1.429 . S
C1484 C1467 1.574 . S
C1484 H1478 0.949 . S
C1484 C1488 1.368 1_565 S
C1485 C1466 1.429 1_565 S
C1485 C1479 1.429 . S
C1485 C1486 1.523 . S
C1486 C1467 1.368 . S
C1486 C1480 1.368 1_565 S
C1486 C1485 1.523 . S
C1487 C1471 1.429 . S
C1487 C1483 1.429 . S
C1487 C1488 1.523 . S
C1488 C1472 1.368 . S
C1488 C1484 1.368 1_545 S
C1488 C1487 1.523 . S
H1489 C1464 0.950 1_545 S
H1490 C1466 0.950 . S
H1491 C1467 0.949 . S
H1492 C1469 0.950 1_565 S
H1493 C1471 0.950 1_565 S
C1494 C1495 1.349 . S
C1494 C1496 1.327 . S
C1494 H1519 0.950 . S
C1495 C1494 1.349 . S
C1495 C1511 1.349 . S
C1496 C1494 1.327 . S
C1496 C1515 1.429 . S
C1496 H1520 0.950 . S
C1497 C1514 1.574 . S
C1497 C1516 1.368 . S
C1497 H1521 0.949 . S
H1498 C1502 0.949 . S
C1499 C1500 1.349 . S
C1499 C1501 1.327 . S
C1499 H1522 0.950 . S
C1500 C1499 1.349 . S
C1500 C1512 1.349 . S
C1501 C1499 1.327 . S
C1501 C1517 1.429 . S
C1501 H1523 0.950 . S
C1502 H1498 0.949 . S
C1502 C1510 1.574 . S
C1502 C1518 1.368 . S
H1503 C1511 0.950 . S
H1504 C1509 0.950 . S
H1505 C1510 0.949 . S
H1506 C1512 0.950 . S
H1507 C1513 0.950 . S
H1508 C1514 0.949 . S
C1509 H1504 0.950 . S
C1509 C1511 1.327 . S
C1509 C1515 1.429 . S
C1510 C1502 1.574 . S
C1510 H1505 0.949 . S
C1510 C1516 1.368 . S
C1511 C1495 1.349 . S
C1511 H1503 0.950 . S
C1511 C1509 1.327 . S
C1512 C1500 1.349 . S
C1512 H1506 0.950 . S
C1512 C1513 1.327 . S
C1513 H1507 0.950 . S
C1513 C1512 1.327 . S
C1513 C1517 1.429 . S
C1514 C1497 1.574 . S
C1514 H1508 0.949 . S
C1514 C1518 1.368 . S
C1515 C1496 1.429 . S
C1515 C1509 1.429 . S
C1515 C1516 1.523 . S
C1516 C1497 1.368 . S
C1516 C1510 1.368 . S
C1516 C1515 1.523 . S
C1517 C1501 1.429 . S
C1517 C1513 1.429 . S
C1517 C1518 1.523 . S
C1518 C1502 1.368 . S
C1518 C1514 1.368 . S
C1518 C1517 1.523 . S
H1519 C1494 0.950 . S
H1520 C1496 0.950 . S
H1521 C1497 0.949 . S
H1522 C1499 0.950 . S
H1523 C1501 0.950 . S
C1524 C1525 1.349 . S
C1524 C1526 1.327 . S
C1524 H1549 0.950 . S
C1525 C1524 1.349 . S
C1525 C1541 1.349 . S
C1526 C1524 1.327 . S
C1526 C1545 1.429 . S
C1526 H1550 0.950 . S
C1527 C1544 1.574 . S
C1527 C1546 1.368 . S
C1527 H1551 0.949 . S
H1528 C1532 0.949 . S
C1529 C1530 1.349 . S
C1529 C1531 1.327 . S
C1529 H1552 0.950 . S
C1530 C1529 1.349 . S
C1530 C1542 1.349 . S
C1531 C1529 1.327 . S
C1531 C1547 1.429 . S
C1531 H1553 0.950 . S
C1532 H1528 0.949 . S
C1532 C1540 1.574 . S
C1532 C1548 1.368 . S
H1533 C1541 0.950 . S
H1534 C1539 0.950 . S
H1535 C1540 0.949 . S
H1536 C1542 0.950 . S
H1537 C1543 0.950 . S
H1538 C1544 0.949 . S
C1539 H1534 0.950 . S
C1539 C1541 1.327 . S
C1539 C1545 1.429 . S
C1540 C1532 1.574 . S
C1540 H1535 0.949 . S
C1540 C1546 1.368 . S
C1541 C1525 1.349 . S
C1541 H1533 0.950 . S
C1541 C1539 1.327 . S
C1542 C1530 1.349 . S
C1542 H1536 0.950 . S
C1542 C1543 1.327 . S
C1543 H1537 0.950 . S
C1543 C1542 1.327 . S
C1543 C1547 1.429 . S
C1544 C1527 1.574 . S
C1544 H1538 0.949 . S
C1544 C1548 1.368 . S
C1545 C1526 1.429 . S
C1545 C1539 1.429 . S
C1545 C1546 1.523 . S
C1546 C1527 1.368 . S
C1546 C1540 1.368 . S
C1546 C1545 1.523 . S
C1547 C1531 1.429 . S
C1547 C1543 1.429 . S
C1547 C1548 1.523 . S
C1548 C1532 1.368 . S
C1548 C1544 1.368 . S
C1548 C1547 1.523 . S
H1549 C1524 0.950 . S
H1550 C1526 0.950 . S
H1551 C1527 0.949 . S
H1552 C1529 0.950 . S
H1553 C1531 0.950 . S
C1554 C1555 1.349 . S
C1554 C1556 1.327 . S
C1554 H1579 0.950 . S
C1555 C1554 1.349 . S
C1555 C1571 1.349 . S
C1556 C1554 1.327 . S
C1556 C1575 1.429 . S
C1556 H1580 0.950 . S
C1557 C1574 1.574 . S
C1557 C1576 1.368 1_655 S
C1557 H1581 0.949 . S
H1558 C1562 0.949 . S
C1559 C1560 1.349 . S
C1559 C1561 1.327 . S
C1559 H1582 0.950 . S
C1560 C1559 1.349 . S
C1560 C1572 1.349 . S
C1561 C1559 1.327 . S
C1561 C1577 1.429 . S
C1561 H1583 0.950 . S
C1562 H1558 0.949 . S
C1562 C1570 1.574 . S
C1562 C1578 1.368 1_455 S
H1563 C1571 0.950 . S
H1564 C1569 0.966 . S
H1565 C1570 0.949 . S
H1566 C1572 0.950 . S
H1567 C1573 0.950 1_455 S
H1568 C1574 0.949 . S
C1569 H1564 0.966 . S
C1569 C1571 1.327 . S
C1569 C1575 1.429 . S
C1570 C1562 1.574 . S
C1570 H1565 0.949 . S
C1570 C1576 1.368 . S
C1571 C1555 1.349 . S
C1571 H1563 0.950 . S
C1571 C1569 1.327 . S
C1572 C1560 1.349 . S
C1572 H1566 0.950 . S
C1572 C1573 1.327 . S
C1573 H1567 0.950 1_655 S
C1573 C1572 1.327 . S
C1573 C1577 1.429 . S
C1574 C1557 1.574 . S
C1574 H1568 0.949 . S
C1574 C1578 1.368 . S
C1575 C1556 1.429 . S
C1575 C1569 1.429 . S
C1575 C1576 1.523 . S
C1576 C1557 1.368 1_455 S
C1576 C1570 1.368 . S
C1576 C1575 1.523 . S
C1577 C1561 1.429 . S
C1577 C1573 1.429 . S
C1577 C1578 1.523 . S
C1578 C1562 1.368 1_655 S
C1578 C1574 1.368 . S
C1578 C1577 1.523 . S
H1579 C1554 0.950 . S
H1580 C1556 0.950 . S
H1581 C1557 0.949 . S
H1582 C1559 0.950 . S
H1583 C1561 0.950 . S
C1584 C1585 1.349 . S
C1584 C1586 1.327 . S
C1584 H1609 0.950 . S
C1585 C1584 1.349 . S
C1585 C1601 1.349 . S
C1586 C1584 1.327 . S
C1586 C1605 1.429 . S
C1586 H1610 0.950 . S
C1587 C1604 1.574 . S
C1587 C1606 1.368 . S
C1587 H1611 0.949 . S
H1588 C1592 0.949 . S
C1589 C1590 1.349 . S
C1589 C1591 1.327 . S
C1589 H1612 0.950 . S
C1590 C1589 1.349 . S
C1590 C1602 1.349 . S
C1591 C1589 1.327 . S
C1591 C1607 1.429 . S
C1591 H1613 0.950 . S
C1592 H1588 0.949 . S
C1592 C1600 1.574 . S
C1592 C1608 1.368 . S
H1593 C1601 0.950 . S
H1594 C1599 0.950 . S
H1595 C1600 0.949 . S
H1596 C1602 0.950 . S
H1597 C1603 0.950 . S
H1598 C1604 0.949 . S
C1599 H1594 0.950 . S
C1599 C1601 1.327 . S
C1599 C1605 1.429 . S
C1600 C1592 1.574 . S
C1600 H1595 0.949 . S
C1600 C1606 1.368 . S
C1601 C1585 1.349 . S
C1601 H1593 0.950 . S
C1601 C1599 1.327 . S
C1602 C1590 1.349 . S
C1602 H1596 0.950 . S
C1602 C1603 1.327 . S
C1603 H1597 0.950 . S
C1603 C1602 1.327 . S
C1603 C1607 1.429 . S
C1604 C1587 1.574 . S
C1604 H1598 0.949 . S
C1604 C1608 1.368 . S
C1605 C1586 1.429 . S
C1605 C1599 1.429 . S
C1605 C1606 1.523 . S
C1606 C1587 1.368 . S
C1606 C1600 1.368 . S
C1606 C1605 1.523 . S
C1607 C1591 1.429 . S
C1607 C1603 1.429 . S
C1607 C1608 1.523 . S
C1608 C1592 1.368 . S
C1608 C1604 1.368 . S
C1608 C1607 1.523 . S
H1609 C1584 0.950 . S
H1610 C1586 0.950 . S
H1611 C1587 0.949 . S
H1612 C1589 0.950 . S
H1613 C1591 0.950 . S
C1614 C1615 1.349 . S
C1614 C1616 1.327 . S
C1614 H1639 0.950 . S
C1615 C1614 1.349 . S
C1615 C1631 1.349 . S
C1616 C1614 1.327 . S
C1616 C1635 1.429 . S
C1616 H1640 0.950 1_655 S
C1617 C1634 1.574 . S
C1617 C1636 1.368 . S
C1617 H1641 0.949 . S
H1618 C1622 0.949 . S
C1619 C1620 1.349 . S
C1619 C1621 1.327 . S
C1619 H1642 0.950 . S
C1620 C1619 1.349 . S
C1620 C1632 1.349 . S
C1621 C1619 1.327 . S
C1621 C1637 1.429 . S
C1621 H1643 0.950 1_455 S
C1622 H1618 0.949 . S
C1622 C1630 1.574 . S
C1622 C1638 1.368 . S
H1623 C1631 0.950 . S
H1624 C1629 0.950 . S
H1625 C1630 0.949 . S
H1626 C1632 0.950 . S
H1627 C1633 0.950 . S
H1628 C1634 0.949 . S
C1629 H1624 0.950 . S
C1629 C1631 1.327 . S
C1629 C1635 1.429 . S
C1630 C1622 1.574 . S
C1630 H1625 0.949 . S
C1630 C1636 1.368 1_455 S
C1631 C1615 1.349 . S
C1631 H1623 0.950 . S
C1631 C1629 1.327 . S
C1632 C1620 1.349 . S
C1632 H1626 0.950 . S
C1632 C1633 1.327 . S
C1633 H1627 0.950 . S
C1633 C1632 1.327 . S
C1633 C1637 1.429 . S
C1634 C1617 1.574 . S
C1634 H1628 0.949 . S
C1634 C1638 1.368 1_655 S
C1635 C1616 1.429 . S
C1635 C1629 1.429 . S
C1635 C1636 1.523 . S
C1636 C1617 1.368 . S
C1636 C1630 1.368 1_655 S
C1636 C1635 1.523 . S
C1637 C1621 1.429 . S
C1637 C1633 1.429 . S
C1637 C1638 1.523 . S
C1638 C1622 1.368 . S
C1638 C1634 1.368 1_455 S
C1638 C1637 1.523 . S
H1639 C1614 0.950 . S
H1640 C1616 0.950 1_455 S
H1641 C1617 0.949 . S
H1642 C1619 0.950 . S
H1643 C1621 0.950 1_655 S
C1644 C1645 1.349 . S
C1644 C1646 1.327 . S
C1644 H1669 0.950 . S
C1645 C1644 1.349 . S
C1645 C1661 1.349 . S
C1646 C1644 1.327 . S
C1646 C1665 1.429 . S
C1646 H1670 0.950 . S
C1647 C1664 1.574 . S
C1647 C1666 1.368 . S
C1647 H1671 0.949 . S
H1648 C1652 0.949 . S
C1649 C1650 1.349 . S
C1649 C1651 1.327 . S
C1649 H1672 0.950 . S
C1650 C1649 1.349 . S
C1650 C1662 1.349 . S
C1651 C1649 1.327 . S
C1651 C1667 1.429 . S
C1651 H1673 0.950 . S
C1652 H1648 0.949 . S
C1652 C1660 1.574 1_545 S
C1652 C1668 1.368 . S
H1653 C1661 0.950 . S
H1654 C1659 0.950 . S
H1655 C1660 0.949 . S
H1656 C1662 0.950 . S
H1657 C1663 0.950 . S
H1658 C1664 0.950 . S
C1659 H1654 0.950 . S
C1659 C1661 1.327 . S
C1659 C1665 1.429 . S
C1660 C1652 1.574 1_565 S
C1660 H1655 0.949 . S
C1660 C1666 1.368 . S
C1661 C1645 1.349 . S
C1661 H1653 0.950 . S
C1661 C1659 1.327 . S
C1662 C1650 1.349 . S
C1662 H1656 0.950 . S
C1662 C1663 1.327 . S
C1663 H1657 0.950 . S
C1663 C1662 1.327 . S
C1663 C1667 1.429 . S
C1664 C1647 1.574 . S
C1664 H1658 0.950 . S
C1664 C1668 1.368 1_565 S
C1665 C1646 1.429 . S
C1665 C1659 1.429 . S
C1665 C1666 1.523 . S
C1666 C1647 1.368 . S
C1666 C1660 1.368 . S
C1666 C1665 1.523 . S
C1667 C1651 1.429 . S
C1667 C1663 1.429 . S
C1667 C1668 1.523 . S
C1668 C1652 1.368 . S
C1668 C1664 1.368 1_545 S
C1668 C1667 1.523 . S
H1669 C1644 0.950 . S
H1670 C1646 0.950 . S
H1671 C1647 0.949 . S
H1672 C1649 0.950 . S
H1673 C1651 0.950 . S
C1674 C1675 1.349 . S
C1674 C1676 1.327 . S
C1674 H1699 0.950 . S
C1675 C1674 1.349 . S
C1675 C1691 1.349 . S
C1676 C1674 1.327 . S
C1676 C1695 1.429 . S
C1676 H1700 0.950 . S
C1677 C1694 1.574 . S
C1677 C1696 1.368 . S
C1677 H1701 0.949 . S
H1678 C1682 0.949 . S
C1679 C1680 1.349 . S
C1679 C1681 1.327 . S
C1679 H1702 0.950 . S
C1680 C1679 1.349 . S
C1680 C1692 1.349 . S
C1681 C1679 1.327 . S
C1681 C1697 1.429 . S
C1681 H1703 0.950 . S
C1682 H1678 0.949 . S
C1682 C1690 1.574 . S
C1682 C1698 1.368 . S
H1683 C1691 0.950 . S
H1684 C1689 0.950 . S
H1685 C1690 0.949 . S
H1686 C1692 0.950 . S
H1687 C1693 0.950 . S
H1688 C1694 0.949 . S
C1689 H1684 0.950 . S
C1689 C1691 1.327 . S
C1689 C1695 1.429 . S
C1690 C1682 1.574 . S
C1690 H1685 0.949 . S
C1690 C1696 1.368 . S
C1691 C1675 1.349 . S
C1691 H1683 0.950 . S
C1691 C1689 1.327 . S
C1692 C1680 1.349 . S
C1692 H1686 0.950 . S
C1692 C1693 1.327 . S
C1693 H1687 0.950 . S
C1693 C1692 1.327 . S
C1693 C1697 1.429 . S
C1694 C1677 1.574 . S
C1694 H1688 0.949 . S
C1694 C1698 1.368 . S
C1695 C1676 1.429 . S
C1695 C1689 1.429 . S
C1695 C1696 1.523 . S
C1696 C1677 1.368 . S
C1696 C1690 1.368 . S
C1696 C1695 1.523 . S
C1697 C1681 1.429 . S
C1697 C1693 1.429 . S
C1697 C1698 1.523 . S
C1698 C1682 1.368 . S
C1698 C1694 1.368 . S
C1698 C1697 1.523 . S
H1699 C1674 0.950 . S
H1700 C1676 0.950 . S
H1701 C1677 0.949 . S
H1702 C1679 0.950 . S
H1703 C1681 0.950 . S
C1704 C1705 1.349 . S
C1704 C1706 1.314 1_545 S
C1704 H1729 0.950 1_545 S
C1705 C1704 1.349 . S
C1705 C1721 1.349 . S
C1706 C1704 1.314 1_565 S
C1706 C1725 1.406 1_565 S
C1706 H1730 0.988 . S
C1707 C1724 1.574 . S
C1707 C1726 1.368 . S
C1707 H1731 0.949 . S
H1708 C1712 0.949 . S
C1709 C1710 1.349 . S
C1709 C1711 1.327 . S
C1709 H1732 0.950 . S
C1710 C1709 1.349 . S
C1710 C1722 1.349 . S
C1711 C1709 1.327 . S
C1711 C1727 1.429 . S
C1711 H1733 0.950 1_565 S
C1712 H1708 0.949 . S
C1712 C1720 1.574 . S
C1712 C1728 1.368 . S
H1713 C1721 0.950 . S
H1714 C1719 0.950 . S
H1715 C1720 0.949 . S
H1716 C1722 0.950 . S
H1717 C1723 0.950 . S
H1718 C1724 0.949 . S
C1719 H1714 0.950 . S
C1719 C1721 1.327 . S
C1719 C1725 1.429 . S
C1720 C1712 1.574 . S
C1720 H1715 0.949 . S
C1720 C1726 1.368 1_565 S
C1721 C1705 1.349 . S
C1721 H1713 0.950 . S
C1721 C1719 1.327 . S
C1722 C1710 1.349 . S
C1722 H1716 0.950 . S
C1722 C1723 1.327 . S
C1723 H1717 0.950 . S
C1723 C1722 1.327 . S
C1723 C1727 1.429 . S
C1724 C1707 1.574 . S
C1724 H1718 0.949 . S
C1724 C1728 1.368 1_545 S
C1725 C1706 1.406 1_545 S
C1725 C1719 1.429 . S
C1725 C1726 1.523 . S
C1726 C1707 1.368 . S
C1726 C1720 1.368 1_545 S
C1726 C1725 1.523 . S
C1727 C1711 1.429 . S
C1727 C1723 1.429 . S
C1727 C1728 1.523 . S
C1728 C1712 1.368 . S
C1728 C1724 1.368 1_565 S
C1728 C1727 1.523 . S
H1729 C1704 0.950 1_565 S
H1730 C1706 0.988 . S
H1731 C1707 0.949 . S
H1732 C1709 0.950 . S
H1733 C1711 0.950 1_545 S
C1734 C1735 1.349 . S
C1734 C1736 1.327 . S
C1734 H1759 0.950 . S
C1735 C1734 1.349 . S
C1735 C1751 1.349 . S
C1736 C1734 1.327 . S
C1736 C1755 1.429 . S
C1736 H1760 0.950 . S
C1737 C1754 1.574 . S
C1737 C1756 1.368 . S
C1737 H1761 0.949 . S
H1738 C1742 0.949 . S
C1739 C1740 1.349 . S
C1739 C1741 1.327 . S
C1739 H1762 0.950 . S
C1740 C1739 1.349 . S
C1740 C1752 1.349 . S
C1741 C1739 1.327 . S
C1741 C1757 1.429 . S
C1741 H1763 0.950 . S
C1742 H1738 0.949 . S
C1742 C1750 1.574 . S
C1742 C1758 1.368 . S
H1743 C1751 0.950 . S
H1744 C1749 0.950 . S
H1745 C1750 0.949 . S
H1746 C1752 0.950 . S
H1747 C1753 0.950 . S
H1748 C1754 0.949 . S
C1749 H1744 0.950 . S
C1749 C1751 1.327 . S
C1749 C1755 1.429 . S
C1750 C1742 1.574 . S
C1750 H1745 0.949 . S
C1750 C1756 1.368 . S
C1751 C1735 1.349 . S
C1751 H1743 0.950 . S
C1751 C1749 1.327 . S
C1752 C1740 1.349 . S
C1752 H1746 0.950 . S
C1752 C1753 1.327 . S
C1753 H1747 0.950 . S
C1753 C1752 1.327 . S
C1753 C1757 1.429 . S
C1754 C1737 1.574 . S
C1754 H1748 0.949 . S
C1754 C1758 1.368 . S
C1755 C1736 1.429 . S
C1755 C1749 1.429 . S
C1755 C1756 1.523 . S
C1756 C1737 1.368 . S
C1756 C1750 1.368 . S
C1756 C1755 1.523 . S
C1757 C1741 1.429 . S
C1757 C1753 1.429 . S
C1757 C1758 1.523 . S
C1758 C1742 1.368 . S
C1758 C1754 1.368 . S
C1758 C1757 1.523 . S
H1759 C1734 0.950 . S
H1760 C1736 0.950 . S
H1761 C1737 0.949 . S
H1762 C1739 0.950 . S
H1763 C1741 0.950 . S
C1764 C1765 1.349 . S
C1764 C1766 1.327 . S
C1764 H1789 0.950 . S
C1765 C1764 1.349 . S
C1765 C1781 1.349 . S
C1766 C1764 1.327 . S
C1766 C1785 1.429 . S
C1766 H1790 0.950 . S
C1767 C1784 1.574 . S
C1767 C1786 1.368 . S
C1767 H1791 0.949 . S
H1768 C1772 0.949 . S
C1769 C1770 1.349 . S
C1769 C1771 1.327 . S
C1769 H1792 0.950 . S
C1770 C1769 1.349 . S
C1770 C1782 1.349 . S
C1771 C1769 1.327 . S
C1771 C1787 1.429 . S
C1771 H1793 0.950 . S
C1772 H1768 0.949 . S
C1772 C1780 1.574 . S
C1772 C1788 1.368 . S
H1773 C1781 0.950 . S
H1774 C1779 0.950 . S
H1775 C1780 0.949 . S
H1776 C1782 0.950 . S
H1777 C1783 0.950 . S
H1778 C1784 0.949 . S
C1779 H1774 0.950 . S
C1779 C1781 1.327 . S
C1779 C1785 1.429 . S
C1780 C1772 1.574 . S
C1780 H1775 0.949 . S
C1780 C1786 1.368 . S
C1781 C1765 1.349 . S
C1781 H1773 0.950 . S
C1781 C1779 1.327 . S
C1782 C1770 1.349 . S
C1782 H1776 0.950 . S
C1782 C1783 1.327 . S
C1783 H1777 0.950 . S
C1783 C1782 1.327 . S
C1783 C1787 1.429 . S
C1784 C1767 1.574 . S
C1784 H1778 0.949 . S
C1784 C1788 1.368 . S
C1785 C1766 1.429 . S
C1785 C1779 1.429 . S
C1785 C1786 1.523 . S
C1786 C1767 1.368 . S
C1786 C1780 1.368 . S
C1786 C1785 1.523 . S
C1787 C1771 1.429 . S
C1787 C1783 1.429 . S
C1787 C1788 1.523 . S
C1788 C1772 1.368 . S
C1788 C1784 1.368 . S
C1788 C1787 1.523 . S
H1789 C1764 0.950 . S
H1790 C1766 0.950 . S
H1791 C1767 0.949 . S
H1792 C1769 0.950 . S
H1793 C1771 0.950 . S
C1794 C1795 1.349 . S
C1794 C1796 1.327 . S
C1794 H1819 0.950 . S
C1795 C1794 1.349 . S
C1795 C1811 1.349 . S
C1796 C1794 1.327 . S
C1796 C1815 1.429 . S
C1796 H1820 0.950 . S
C1797 C1814 1.574 . S
C1797 C1816 1.368 1_655 S
C1797 H1821 0.949 . S
H1798 C1802 0.949 . S
C1799 C1800 1.349 . S
C1799 C1801 1.327 . S
C1799 H1822 0.950 . S
C1800 C1799 1.349 . S
C1800 C1812 1.349 . S
C1801 C1799 1.327 . S
C1801 C1817 1.429 . S
C1801 H1823 0.950 . S
C1802 H1798 0.949 . S
C1802 C1810 1.574 . S
C1802 C1818 1.368 1_455 S
H1803 C1811 0.967 . S
H1804 C1809 0.950 1_655 S
H1805 C1810 0.949 . S
H1806 C1812 0.950 . S
H1807 C1813 0.950 1_455 S
H1808 C1814 0.949 . S
C1809 H1804 0.950 1_455 S
C1809 C1811 1.327 . S
C1809 C1815 1.429 . S
C1810 C1802 1.574 . S
C1810 H1805 0.949 . S
C1810 C1816 1.368 . S
C1811 C1795 1.349 . S
C1811 H1803 0.967 . S
C1811 C1809 1.327 . S
C1812 C1800 1.349 . S
C1812 H1806 0.950 . S
C1812 C1813 1.327 . S
C1813 H1807 0.950 1_655 S
C1813 C1812 1.327 . S
C1813 C1817 1.429 . S
C1814 C1797 1.574 . S
C1814 H1808 0.949 . S
C1814 C1818 1.368 . S
C1815 C1796 1.429 . S
C1815 C1809 1.429 . S
C1815 C1816 1.523 . S
C1816 C1797 1.368 1_455 S
C1816 C1810 1.368 . S
C1816 C1815 1.523 . S
C1817 C1801 1.429 . S
C1817 C1813 1.429 . S
C1817 C1818 1.523 . S
C1818 C1802 1.368 1_655 S
C1818 C1814 1.368 . S
C1818 C1817 1.523 . S
H1819 C1794 0.950 . S
H1820 C1796 0.950 . S
H1821 C1797 0.949 . S
H1822 C1799 0.950 . S
H1823 C1801 0.950 . S
C1824 C1825 1.349 . S
C1824 C1826 1.327 . S
C1824 H1849 0.950 . S
C1825 C1824 1.349 . S
C1825 C1841 1.349 . S
C1826 C1824 1.327 . S
C1826 C1845 1.429 . S
C1826 H1850 0.950 . S
C1827 C1844 1.574 . S
C1827 C1846 1.368 . S
C1827 H1851 0.949 . S
H1828 C1832 0.949 . S
C1829 C1830 1.349 . S
C1829 C1831 1.327 . S
C1829 H1852 0.950 . S
C1830 C1829 1.349 . S
C1830 C1842 1.349 . S
C1831 C1829 1.327 . S
C1831 C1847 1.429 . S
C1831 H1853 0.950 . S
C1832 H1828 0.949 . S
C1832 C1840 1.574 . S
C1832 C1848 1.368 . S
H1833 C1841 0.950 . S
H1834 C1839 0.950 . S
H1835 C1840 0.949 . S
H1836 C1842 0.950 . S
H1837 C1843 0.950 . S
H1838 C1844 0.949 . S
C1839 H1834 0.950 . S
C1839 C1841 1.327 . S
C1839 C1845 1.429 . S
C1840 C1832 1.574 . S
C1840 H1835 0.949 . S
C1840 C1846 1.368 . S
C1841 C1825 1.349 . S
C1841 H1833 0.950 . S
C1841 C1839 1.327 . S
C1842 C1830 1.349 . S
C1842 H1836 0.950 . S
C1842 C1843 1.327 . S
C1843 H1837 0.950 . S
C1843 C1842 1.327 . S
C1843 C1847 1.429 . S
C1844 C1827 1.574 . S
C1844 H1838 0.949 . S
C1844 C1848 1.368 . S
C1845 C1826 1.429 . S
C1845 C1839 1.429 . S
C1845 C1846 1.523 . S
C1846 C1827 1.368 . S
C1846 C1840 1.368 . S
C1846 C1845 1.523 . S
C1847 C1831 1.429 . S
C1847 C1843 1.429 . S
C1847 C1848 1.523 . S
C1848 C1832 1.368 . S
C1848 C1844 1.368 . S
C1848 C1847 1.523 . S
H1849 C1824 0.950 . S
H1850 C1826 0.950 . S
H1851 C1827 0.949 . S
H1852 C1829 0.950 . S
H1853 C1831 0.950 . S
C1854 C1855 1.349 . S
C1854 C1856 1.327 . S
C1854 H1879 0.950 . S
C1855 C1854 1.349 . S
C1855 C1871 1.349 . S
C1856 C1854 1.327 . S
C1856 C1875 1.429 . S
C1856 H1880 0.950 . S
C1857 C1874 1.574 . S
C1857 C1876 1.368 . S
C1857 H1881 0.949 . S
H1858 C1862 0.949 . S
C1859 C1860 1.349 . S
C1859 C1861 1.327 . S
C1859 H1882 0.950 . S
C1860 C1859 1.349 . S
C1860 C1872 1.349 . S
C1861 C1859 1.327 . S
C1861 C1877 1.429 . S
C1861 H1883 0.950 . S
C1862 H1858 0.949 . S
C1862 C1870 1.574 . S
C1862 C1878 1.368 . S
H1863 C1871 0.950 . S
H1864 C1869 0.950 . S
H1865 C1870 0.949 . S
H1866 C1872 0.950 . S
H1867 C1873 0.950 . S
H1868 C1874 0.949 . S
C1869 H1864 0.950 . S
C1869 C1871 1.327 . S
C1869 C1875 1.429 . S
C1870 C1862 1.574 . S
C1870 H1865 0.949 . S
C1870 C1876 1.368 . S
C1871 C1855 1.349 . S
C1871 H1863 0.950 . S
C1871 C1869 1.327 . S
C1872 C1860 1.349 . S
C1872 H1866 0.950 . S
C1872 C1873 1.327 . S
C1873 H1867 0.950 . S
C1873 C1872 1.327 . S
C1873 C1877 1.429 . S
C1874 C1857 1.574 . S
C1874 H1868 0.949 . S
C1874 C1878 1.368 . S
C1875 C1856 1.429 . S
C1875 C1869 1.429 . S
C1875 C1876 1.523 . S
C1876 C1857 1.368 . S
C1876 C1870 1.368 . S
C1876 C1875 1.523 . S
C1877 C1861 1.429 . S
C1877 C1873 1.429 . S
C1877 C1878 1.523 . S
C1878 C1862 1.368 . S
C1878 C1874 1.368 . S
C1878 C1877 1.523 . S
H1879 C1854 0.950 . S
H1880 C1856 0.950 . S
H1881 C1857 0.949 . S
H1882 C1859 0.950 . S
H1883 C1861 0.950 . S
C1884 C1885 1.349 . S
C1884 C1886 1.327 . S
C1884 H1909 0.950 . S
C1885 C1884 1.349 . S
C1885 C1901 1.349 . S
C1886 C1884 1.327 . S
C1886 C1905 1.429 . S
C1886 H1910 0.950 . S
C1887 C1904 1.574 . S
C1887 C1906 1.368 . S
C1887 H1911 0.949 . S
H1888 C1892 0.949 . S
C1889 C1890 1.349 . S
C1889 C1891 1.327 . S
C1889 H1912 0.950 . S
C1890 C1889 1.349 . S
C1890 C1902 1.349 . S
C1891 C1889 1.327 . S
C1891 C1907 1.429 . S
C1891 H1913 0.950 . S
C1892 H1888 0.949 . S
C1892 C1900 1.574 . S
C1892 C1908 1.368 . S
H1893 C1901 0.950 . S
H1894 C1899 0.950 . S
H1895 C1900 0.949 . S
H1896 C1902 0.950 . S
H1897 C1903 0.950 . S
H1898 C1904 0.949 . S
C1899 H1894 0.950 . S
C1899 C1901 1.327 . S
C1899 C1905 1.429 . S
C1900 C1892 1.574 . S
C1900 H1895 0.949 . S
C1900 C1906 1.368 . S
C1901 C1885 1.349 . S
C1901 H1893 0.950 . S
C1901 C1899 1.327 . S
C1902 C1890 1.349 . S
C1902 H1896 0.950 . S
C1902 C1903 1.327 . S
C1903 H1897 0.950 . S
C1903 C1902 1.327 . S
C1903 C1907 1.429 . S
C1904 C1887 1.574 . S
C1904 H1898 0.949 . S
C1904 C1908 1.368 . S
C1905 C1886 1.429 . S
C1905 C1899 1.429 . S
C1905 C1906 1.523 . S
C1906 C1887 1.368 . S
C1906 C1900 1.368 . S
C1906 C1905 1.523 . S
C1907 C1891 1.429 . S
C1907 C1903 1.429 . S
C1907 C1908 1.523 . S
C1908 C1892 1.368 . S
C1908 C1904 1.368 . S
C1908 C1907 1.523 . S
H1909 C1884 0.950 . S
H1910 C1886 0.950 . S
H1911 C1887 0.949 . S
H1912 C1889 0.950 . S
H1913 C1891 0.950 . S
C1914 C1915 1.349 . S
C1914 C1916 1.327 . S
C1914 H1939 0.950 . S
C1915 C1914 1.349 . S
C1915 C1931 1.349 . S
C1916 C1914 1.327 . S
C1916 C1935 1.429 . S
C1916 H1940 0.950 . S
C1917 C1934 1.574 . S
C1917 C1936 1.368 . S
C1917 H1941 0.949 . S
H1918 C1922 0.949 . S
C1919 C1920 1.349 . S
C1919 C1921 1.327 . S
C1919 H1942 0.950 . S
C1920 C1919 1.349 . S
C1920 C1932 1.349 . S
C1921 C1919 1.327 . S
C1921 C1937 1.429 . S
C1921 H1943 0.950 . S
C1922 H1918 0.949 . S
C1922 C1930 1.574 . S
C1922 C1938 1.368 . S
H1923 C1931 0.950 . S
H1924 C1929 0.950 . S
H1925 C1930 0.949 . S
H1926 C1932 0.950 . S
H1927 C1933 0.950 . S
H1928 C1934 0.949 . S
C1929 H1924 0.950 . S
C1929 C1931 1.327 . S
C1929 C1935 1.429 . S
C1930 C1922 1.574 . S
C1930 H1925 0.949 . S
C1930 C1936 1.368 . S
C1931 C1915 1.349 . S
C1931 H1923 0.950 . S
C1931 C1929 1.327 . S
C1932 C1920 1.349 . S
C1932 H1926 0.950 . S
C1932 C1933 1.327 . S
C1933 H1927 0.950 . S
C1933 C1932 1.327 . S
C1933 C1937 1.429 . S
C1934 C1917 1.574 . S
C1934 H1928 0.949 . S
C1934 C1938 1.368 . S
C1935 C1916 1.429 . S
C1935 C1929 1.429 . S
C1935 C1936 1.523 . S
C1936 C1917 1.368 . S
C1936 C1930 1.368 . S
C1936 C1935 1.523 . S
C1937 C1921 1.429 . S
C1937 C1933 1.429 . S
C1937 C1938 1.523 . S
C1938 C1922 1.368 . S
C1938 C1934 1.368 . S
C1938 C1937 1.523 . S
H1939 C1914 0.950 . S
H1940 C1916 0.950 . S
H1941 C1917 0.949 . S
H1942 C1919 0.950 . S
H1943 C1921 0.950 . S
C1944 C1945 1.349 . S
C1944 C1946 1.327 . S
C1944 H1969 0.950 . S
C1945 C1944 1.349 . S
C1945 C1961 1.349 . S
C1946 C1944 1.327 . S
C1946 C1965 1.429 . S
C1946 H1970 0.950 . S
C1947 C1964 1.574 . S
C1947 C1966 1.368 . S
C1947 H1971 0.949 . S
H1948 C1952 0.949 . S
C1949 C1950 1.349 . S
C1949 C1951 1.327 . S
C1949 H1972 0.950 . S
C1950 C1949 1.349 . S
C1950 C1962 1.349 . S
C1951 C1949 1.327 . S
C1951 C1967 1.429 . S
C1951 H1973 0.950 . S
C1952 H1948 0.949 . S
C1952 C1960 1.574 . S
C1952 C1968 1.368 . S
H1953 C1961 0.950 . S
H1954 C1959 0.950 . S
H1955 C1960 0.949 . S
H1956 C1962 0.950 . S
H1957 C1963 0.950 . S
H1958 C1964 0.949 . S
C1959 H1954 0.950 . S
C1959 C1961 1.327 . S
C1959 C1965 1.429 . S
C1960 C1952 1.574 . S
C1960 H1955 0.949 . S
C1960 C1966 1.368 . S
C1961 C1945 1.349 . S
C1961 H1953 0.950 . S
C1961 C1959 1.327 . S
C1962 C1950 1.349 . S
C1962 H1956 0.950 . S
C1962 C1963 1.327 . S
C1963 H1957 0.950 . S
C1963 C1962 1.327 . S
C1963 C1967 1.429 . S
C1964 C1947 1.574 . S
C1964 H1958 0.949 . S
C1964 C1968 1.368 . S
C1965 C1946 1.429 . S
C1965 C1959 1.429 . S
C1965 C1966 1.523 . S
C1966 C1947 1.368 . S
C1966 C1960 1.368 . S
C1966 C1965 1.523 . S
C1967 C1951 1.429 . S
C1967 C1963 1.429 . S
C1967 C1968 1.523 . S
C1968 C1952 1.368 . S
C1968 C1964 1.368 . S
C1968 C1967 1.523 . S
H1969 C1944 0.950 . S
H1970 C1946 0.950 . S
H1971 C1947 0.949 . S
H1972 C1949 0.950 . S
H1973 C1951 0.950 . S
C1974 C1975 1.349 . S
C1974 C1976 1.327 . S
C1974 H1999 0.950 . S
C1975 C1974 1.349 . S
C1975 C1991 1.349 . S
C1976 C1974 1.327 . S
C1976 C1995 1.429 . S
C1976 H2000 0.950 . S
C1977 C1994 1.574 . S
C1977 C1996 1.368 . S
C1977 H2001 0.949 . S
H1978 C1982 0.949 . S
C1979 C1980 1.349 . S
C1979 C1981 1.327 . S
C1979 H2002 0.950 . S
C1980 C1979 1.349 . S
C1980 C1992 1.349 . S
C1981 C1979 1.327 . S
C1981 C1997 1.429 . S
C1981 H2003 0.950 . S
C1982 H1978 0.949 . S
C1982 C1990 1.574 . S
C1982 C1998 1.368 . S
H1983 C1991 0.950 . S
H1984 C1989 0.950 . S
H1985 C1990 0.949 . S
H1986 C1992 0.950 . S
H1987 C1993 0.950 . S
H1988 C1994 0.949 . S
C1989 H1984 0.950 . S
C1989 C1991 1.327 . S
C1989 C1995 1.429 . S
C1990 C1982 1.574 . S
C1990 H1985 0.949 . S
C1990 C1996 1.368 . S
C1991 C1975 1.349 . S
C1991 H1983 0.950 . S
C1991 C1989 1.327 . S
C1992 C1980 1.349 . S
C1992 H1986 0.950 . S
C1992 C1993 1.327 . S
C1993 H1987 0.950 . S
C1993 C1992 1.327 . S
C1993 C1997 1.429 . S
C1994 C1977 1.574 . S
C1994 H1988 0.949 . S
C1994 C1998 1.368 . S
C1995 C1976 1.429 . S
C1995 C1989 1.429 . S
C1995 C1996 1.523 . S
C1996 C1977 1.368 . S
C1996 C1990 1.368 . S
C1996 C1995 1.523 . S
C1997 C1981 1.429 . S
C1997 C1993 1.429 . S
C1997 C1998 1.523 . S
C1998 C1982 1.368 . S
C1998 C1994 1.368 . S
C1998 C1997 1.523 . S
H1999 C1974 0.950 . S
H2000 C1976 0.950 . S
H2001 C1977 0.949 . S
H2002 C1979 0.950 . S
H2003 C1981 0.950 . S
C2004 C2005 1.349 . S
C2004 C2006 1.327 . S
C2004 H2029 0.950 . S
C2005 C2004 1.349 . S
C2005 C2021 1.349 . S
C2006 C2004 1.327 . S
C2006 C2025 1.429 . S
C2006 H2030 0.950 . S
C2007 C2024 1.574 . S
C2007 C2026 1.368 . S
C2007 H2031 0.949 . S
H2008 C2012 0.949 . S
C2009 C2010 1.349 . S
C2009 C2011 1.327 . S
C2009 H2032 0.950 . S
C2010 C2009 1.349 . S
C2010 C2022 1.349 . S
C2011 C2009 1.327 . S
C2011 C2027 1.429 . S
C2011 H2033 0.950 . S
C2012 H2008 0.949 . S
C2012 C2020 1.574 . S
C2012 C2028 1.368 . S
H2013 C2021 0.950 . S
H2014 C2019 0.950 . S
H2015 C2020 0.949 . S
H2016 C2022 0.950 . S
H2017 C2023 0.950 . S
H2018 C2024 0.949 . S
C2019 H2014 0.950 . S
C2019 C2021 1.327 . S
C2019 C2025 1.429 . S
C2020 C2012 1.574 . S
C2020 H2015 0.949 . S
C2020 C2026 1.368 . S
C2021 C2005 1.349 . S
C2021 H2013 0.950 . S
C2021 C2019 1.327 . S
C2022 C2010 1.349 . S
C2022 H2016 0.950 . S
C2022 C2023 1.327 . S
C2023 H2017 0.950 . S
C2023 C2022 1.327 . S
C2023 C2027 1.429 . S
C2024 C2007 1.574 . S
C2024 H2018 0.949 . S
C2024 C2028 1.368 . S
C2025 C2006 1.429 . S
C2025 C2019 1.429 . S
C2025 C2026 1.523 . S
C2026 C2007 1.368 . S
C2026 C2020 1.368 . S
C2026 C2025 1.523 . S
C2027 C2011 1.429 . S
C2027 C2023 1.429 . S
C2027 C2028 1.523 . S
C2028 C2012 1.368 . S
C2028 C2024 1.368 . S
C2028 C2027 1.523 . S
H2029 C2004 0.950 . S
H2030 C2006 0.950 . S
H2031 C2007 0.949 . S
H2032 C2009 0.950 . S
H2033 C2011 0.950 . S
C2034 C2035 1.349 . S
C2034 C2036 1.327 . S
C2034 H2059 0.950 . S
C2035 C2034 1.349 . S
C2035 C2051 1.349 . S
C2036 C2034 1.327 . S
C2036 C2055 1.429 . S
C2036 H2060 0.950 . S
C2037 C2054 1.574 . S
C2037 C2056 1.368 . S
C2037 H2061 0.949 . S
H2038 C2042 0.949 . S
C2039 C2040 1.349 . S
C2039 C2041 1.327 . S
C2039 H2062 0.950 . S
C2040 C2039 1.349 . S
C2040 C2052 1.349 . S
C2041 C2039 1.327 . S
C2041 C2057 1.429 . S
C2041 H2063 0.950 . S
C2042 H2038 0.949 . S
C2042 C2050 1.574 . S
C2042 C2058 1.368 . S
H2043 C2051 0.950 . S
H2044 C2049 0.950 . S
H2045 C2050 0.949 . S
H2046 C2052 0.950 . S
H2047 C2053 0.950 . S
H2048 C2054 0.949 . S
C2049 H2044 0.950 . S
C2049 C2051 1.327 . S
C2049 C2055 1.429 . S
C2050 C2042 1.574 . S
C2050 H2045 0.949 . S
C2050 C2056 1.368 . S
C2051 C2035 1.349 . S
C2051 H2043 0.950 . S
C2051 C2049 1.327 . S
C2052 C2040 1.349 . S
C2052 H2046 0.950 . S
C2052 C2053 1.327 . S
C2053 H2047 0.950 . S
C2053 C2052 1.327 . S
C2053 C2057 1.429 . S
C2054 C2037 1.574 . S
C2054 H2048 0.949 . S
C2054 C2058 1.368 . S
C2055 C2036 1.429 . S
C2055 C2049 1.429 . S
C2055 C2056 1.523 . S
C2056 C2037 1.368 . S
C2056 C2050 1.368 . S
C2056 C2055 1.523 . S
C2057 C2041 1.429 . S
C2057 C2053 1.429 . S
C2057 C2058 1.523 . S
C2058 C2042 1.368 . S
C2058 C2054 1.368 . S
C2058 C2057 1.523 . S
H2059 C2034 0.950 . S
H2060 C2036 0.950 . S
H2061 C2037 0.949 . S
H2062 C2039 0.950 . S
H2063 C2041 0.950 . S
C2064 C2065 1.349 . S
C2064 C2066 1.327 . S
C2064 H2089 0.950 . S
C2065 C2064 1.349 . S
C2065 C2081 1.349 . S
C2066 C2064 1.327 . S
C2066 C2085 1.429 . S
C2066 H2090 0.950 . S
C2067 C2084 1.574 . S
C2067 C2086 1.368 . S
C2067 H2091 0.949 . S
H2068 C2072 0.949 . S
C2069 C2070 1.349 . S
C2069 C2071 1.327 . S
C2069 H2092 0.950 . S
C2070 C2069 1.349 . S
C2070 C2082 1.349 . S
C2071 C2069 1.327 . S
C2071 C2087 1.429 . S
C2071 H2093 0.950 . S
C2072 H2068 0.949 . S
C2072 C2080 1.574 . S
C2072 C2088 1.368 . S
H2073 C2081 0.950 . S
H2074 C2079 0.950 . S
H2075 C2080 0.949 . S
H2076 C2082 0.950 . S
H2077 C2083 0.950 . S
H2078 C2084 0.949 . S
C2079 H2074 0.950 . S
C2079 C2081 1.327 . S
C2079 C2085 1.429 . S
C2080 C2072 1.574 . S
C2080 H2075 0.949 . S
C2080 C2086 1.368 . S
C2081 C2065 1.349 . S
C2081 H2073 0.950 . S
C2081 C2079 1.327 . S
C2082 C2070 1.349 . S
C2082 H2076 0.950 . S
C2082 C2083 1.327 . S
C2083 H2077 0.950 . S
C2083 C2082 1.327 . S
C2083 C2087 1.429 . S
C2084 C2067 1.574 . S
C2084 H2078 0.949 . S
C2084 C2088 1.368 . S
C2085 C2066 1.429 . S
C2085 C2079 1.429 . S
C2085 C2086 1.523 . S
C2086 C2067 1.368 . S
C2086 C2080 1.368 . S
C2086 C2085 1.523 . S
C2087 C2071 1.429 . S
C2087 C2083 1.429 . S
C2087 C2088 1.523 . S
C2088 C2072 1.368 . S
C2088 C2084 1.368 . S
C2088 C2087 1.523 . S
H2089 C2064 0.950 . S
H2090 C2066 0.950 . S
H2091 C2067 0.949 . S
H2092 C2069 0.950 . S
H2093 C2071 0.950 . S
C2094 C2095 1.349 . S
C2094 C2096 1.327 . S
C2094 H2119 0.950 . S
C2095 C2094 1.349 . S
C2095 C2111 1.349 . S
C2096 C2094 1.327 . S
C2096 C2115 1.429 . S
C2096 H2120 0.950 . S
C2097 C2114 1.574 . S
C2097 C2116 1.368 . S
C2097 H2121 0.949 . S
H2098 C2102 0.949 . S
C2099 C2100 1.349 . S
C2099 C2101 1.327 . S
C2099 H2122 0.950 . S
C2100 C2099 1.349 . S
C2100 C2112 1.349 . S
C2101 C2099 1.327 . S
C2101 C2117 1.429 . S
C2101 H2123 0.950 . S
C2102 H2098 0.949 . S
C2102 C2110 1.574 . S
C2102 C2118 1.368 . S
H2103 C2111 0.950 . S
H2104 C2109 0.950 . S
H2105 C2110 0.949 . S
H2106 C2112 0.950 . S
H2107 C2113 0.950 . S
H2108 C2114 0.949 . S
C2109 H2104 0.950 . S
C2109 C2111 1.327 . S
C2109 C2115 1.429 . S
C2110 C2102 1.574 . S
C2110 H2105 0.949 . S
C2110 C2116 1.368 . S
C2111 C2095 1.349 . S
C2111 H2103 0.950 . S
C2111 C2109 1.327 . S
C2112 C2100 1.349 . S
C2112 H2106 0.950 . S
C2112 C2113 1.327 . S
C2113 H2107 0.950 . S
C2113 C2112 1.327 . S
C2113 C2117 1.429 . S
C2114 C2097 1.574 . S
C2114 H2108 0.949 . S
C2114 C2118 1.368 . S
C2115 C2096 1.429 . S
C2115 C2109 1.429 . S
C2115 C2116 1.523 . S
C2116 C2097 1.368 . S
C2116 C2110 1.368 . S
C2116 C2115 1.523 . S
C2117 C2101 1.429 . S
C2117 C2113 1.429 . S
C2117 C2118 1.523 . S
C2118 C2102 1.368 . S
C2118 C2114 1.368 . S
C2118 C2117 1.523 . S
H2119 C2094 0.950 . S
H2120 C2096 0.950 . S
H2121 C2097 0.949 . S
H2122 C2099 0.950 . S
H2123 C2101 0.950 . S
C2124 C2125 1.349 . S
C2124 C2126 1.327 . S
C2124 H2149 0.950 . S
C2125 C2124 1.349 . S
C2125 C2141 1.349 . S
C2126 C2124 1.327 . S
C2126 C2145 1.429 . S
C2126 H2150 0.950 . S
C2127 C2144 1.574 . S
C2127 C2146 1.368 . S
C2127 H2151 0.949 . S
H2128 C2132 0.949 . S
C2129 C2130 1.349 . S
C2129 C2131 1.327 . S
C2129 H2152 0.950 . S
C2130 C2129 1.349 . S
C2130 C2142 1.349 . S
C2131 C2129 1.327 . S
C2131 C2147 1.429 . S
C2131 H2153 0.950 . S
C2132 H2128 0.949 . S
C2132 C2140 1.574 . S
C2132 C2148 1.368 . S
H2133 C2141 0.950 . S
H2134 C2139 0.950 . S
H2135 C2140 0.949 . S
H2136 C2142 0.950 . S
H2137 C2143 0.950 . S
H2138 C2144 0.949 . S
C2139 H2134 0.950 . S
C2139 C2141 1.327 . S
C2139 C2145 1.429 . S
C2140 C2132 1.574 . S
C2140 H2135 0.949 . S
C2140 C2146 1.368 . S
C2141 C2125 1.349 . S
C2141 H2133 0.950 . S
C2141 C2139 1.327 . S
C2142 C2130 1.349 . S
C2142 H2136 0.950 . S
C2142 C2143 1.327 . S
C2143 H2137 0.950 . S
C2143 C2142 1.327 . S
C2143 C2147 1.429 . S
C2144 C2127 1.574 . S
C2144 H2138 0.949 . S
C2144 C2148 1.368 . S
C2145 C2126 1.429 . S
C2145 C2139 1.429 . S
C2145 C2146 1.523 . S
C2146 C2127 1.368 . S
C2146 C2140 1.368 . S
C2146 C2145 1.523 . S
C2147 C2131 1.429 . S
C2147 C2143 1.429 . S
C2147 C2148 1.523 . S
C2148 C2132 1.368 . S
C2148 C2144 1.368 . S
C2148 C2147 1.523 . S
H2149 C2124 0.950 . S
H2150 C2126 0.950 . S
H2151 C2127 0.949 . S
H2152 C2129 0.950 . S
H2153 C2131 0.950 . S
C2154 C2155 1.349 . S
C2154 C2156 1.327 . S
C2154 H2179 0.950 . S
C2155 C2154 1.349 . S
C2155 C2171 1.349 . S
C2156 C2154 1.327 . S
C2156 C2175 1.429 . S
C2156 H2180 0.950 . S
C2157 C2174 1.574 . S
C2157 C2176 1.368 . S
C2157 H2181 0.949 . S
H2158 C2162 0.949 . S
C2159 C2160 1.349 . S
C2159 C2161 1.327 . S
C2159 H2182 0.950 . S
C2160 C2159 1.349 . S
C2160 C2172 1.349 . S
C2161 C2159 1.327 . S
C2161 C2177 1.429 . S
C2161 H2183 0.950 . S
C2162 H2158 0.949 . S
C2162 C2170 1.574 . S
C2162 C2178 1.368 . S
H2163 C2171 0.950 . S
H2164 C2169 0.950 . S
H2165 C2170 0.949 . S
H2166 C2172 0.950 . S
H2167 C2173 0.950 . S
H2168 C2174 0.949 . S
C2169 H2164 0.950 . S
C2169 C2171 1.327 . S
C2169 C2175 1.429 . S
C2170 C2162 1.574 . S
C2170 H2165 0.949 . S
C2170 C2176 1.368 . S
C2171 C2155 1.349 . S
C2171 H2163 0.950 . S
C2171 C2169 1.327 . S
C2172 C2160 1.349 . S
C2172 H2166 0.950 . S
C2172 C2173 1.327 . S
C2173 H2167 0.950 . S
C2173 C2172 1.327 . S
C2173 C2177 1.429 . S
C2174 C2157 1.574 . S
C2174 H2168 0.949 . S
C2174 C2178 1.368 . S
C2175 C2156 1.429 . S
C2175 C2169 1.429 . S
C2175 C2176 1.523 . S
C2176 C2157 1.368 . S
C2176 C2170 1.368 . S
C2176 C2175 1.523 . S
C2177 C2161 1.429 . S
C2177 C2173 1.429 . S
C2177 C2178 1.523 . S
C2178 C2162 1.368 . S
C2178 C2174 1.368 . S
C2178 C2177 1.523 . S
H2179 C2154 0.950 . S
H2180 C2156 0.950 . S
H2181 C2157 0.949 . S
H2182 C2159 0.950 . S
H2183 C2161 0.950 . S
C2184 C2185 1.349 . S
C2184 C2186 1.327 . S
C2184 H2209 0.950 . S
C2185 C2184 1.349 . S
C2185 C2201 1.349 . S
C2186 C2184 1.327 . S
C2186 C2205 1.429 . S
C2186 H2210 0.950 . S
C2187 C2204 1.574 . S
C2187 C2206 1.368 . S
C2187 H2211 0.949 . S
H2188 C2192 0.949 . S
C2189 C2190 1.349 . S
C2189 C2191 1.327 . S
C2189 H2212 0.950 . S
C2190 C2189 1.349 . S
C2190 C2202 1.349 . S
C2191 C2189 1.327 . S
C2191 C2207 1.429 . S
C2191 H2213 0.950 . S
C2192 H2188 0.949 . S
C2192 C2200 1.574 . S
C2192 C2208 1.368 . S
H2193 C2201 0.950 . S
H2194 C2199 0.950 . S
H2195 C2200 0.949 . S
H2196 C2202 0.950 . S
H2197 C2203 0.950 . S
H2198 C2204 0.949 . S
C2199 H2194 0.950 . S
C2199 C2201 1.327 . S
C2199 C2205 1.429 . S
C2200 C2192 1.574 . S
C2200 H2195 0.949 . S
C2200 C2206 1.368 . S
C2201 C2185 1.349 . S
C2201 H2193 0.950 . S
C2201 C2199 1.327 . S
C2202 C2190 1.349 . S
C2202 H2196 0.950 . S
C2202 C2203 1.327 . S
C2203 H2197 0.950 . S
C2203 C2202 1.327 . S
C2203 C2207 1.429 . S
C2204 C2187 1.574 . S
C2204 H2198 0.949 . S
C2204 C2208 1.368 . S
C2205 C2186 1.429 . S
C2205 C2199 1.429 . S
C2205 C2206 1.523 . S
C2206 C2187 1.368 . S
C2206 C2200 1.368 . S
C2206 C2205 1.523 . S
C2207 C2191 1.429 . S
C2207 C2203 1.429 . S
C2207 C2208 1.523 . S
C2208 C2192 1.368 . S
C2208 C2204 1.368 . S
C2208 C2207 1.523 . S
H2209 C2184 0.950 . S
H2210 C2186 0.950 . S
H2211 C2187 0.949 . S
H2212 C2189 0.950 . S
H2213 C2191 0.950 . S
C2214 C2215 1.349 . S
C2214 C2216 1.327 . S
C2214 H2239 0.950 . S
C2215 C2214 1.349 . S
C2215 C2231 1.349 . S
C2216 C2214 1.327 . S
C2216 C2235 1.429 . S
C2216 H2240 0.950 . S
C2217 C2234 1.574 . S
C2217 C2236 1.368 . S
C2217 H2241 0.949 . S
H2218 C2222 0.949 . S
C2219 C2220 1.349 . S
C2219 C2221 1.327 . S
C2219 H2242 0.950 . S
C2220 C2219 1.349 . S
C2220 C2232 1.349 . S
C2221 C2219 1.327 . S
C2221 C2237 1.429 . S
C2221 H2243 0.950 . S
C2222 H2218 0.949 . S
C2222 C2230 1.574 . S
C2222 C2238 1.368 . S
H2223 C2231 0.950 . S
H2224 C2229 0.950 . S
H2225 C2230 0.949 . S
H2226 C2232 0.950 . S
H2227 C2233 0.950 . S
H2228 C2234 0.949 . S
C2229 H2224 0.950 . S
C2229 C2231 1.327 . S
C2229 C2235 1.429 . S
C2230 C2222 1.574 . S
C2230 H2225 0.949 . S
C2230 C2236 1.368 . S
C2231 C2215 1.349 . S
C2231 H2223 0.950 . S
C2231 C2229 1.327 . S
C2232 C2220 1.349 . S
C2232 H2226 0.950 . S
C2232 C2233 1.327 . S
C2233 H2227 0.950 . S
C2233 C2232 1.327 . S
C2233 C2237 1.429 . S
C2234 C2217 1.574 . S
C2234 H2228 0.949 . S
C2234 C2238 1.368 . S
C2235 C2216 1.429 . S
C2235 C2229 1.429 . S
C2235 C2236 1.523 . S
C2236 C2217 1.368 . S
C2236 C2230 1.368 . S
C2236 C2235 1.523 . S
C2237 C2221 1.429 . S
C2237 C2233 1.429 . S
C2237 C2238 1.523 . S
C2238 C2222 1.368 . S
C2238 C2234 1.368 . S
C2238 C2237 1.523 . S
H2239 C2214 0.950 . S
H2240 C2216 0.950 . S
H2241 C2217 0.949 . S
H2242 C2219 0.950 . S
H2243 C2221 0.950 . S
C2244 C2245 1.349 . S
C2244 C2246 1.327 . S
C2244 H2269 0.950 . S
C2245 C2244 1.349 . S
C2245 C2261 1.349 . S
C2246 C2244 1.327 . S
C2246 C2265 1.429 . S
C2246 H2270 0.950 . S
C2247 C2264 1.574 . S
C2247 C2266 1.368 . S
C2247 H2271 0.949 . S
H2248 C2252 0.949 . S
C2249 C2250 1.349 . S
C2249 C2251 1.327 . S
C2249 H2272 0.950 . S
C2250 C2249 1.349 . S
C2250 C2262 1.349 . S
C2251 C2249 1.327 . S
C2251 C2267 1.429 . S
C2251 H2273 0.950 . S
C2252 H2248 0.949 . S
C2252 C2260 1.574 . S
C2252 C2268 1.368 . S
H2253 C2261 0.950 . S
H2254 C2259 0.950 . S
H2255 C2260 0.949 . S
H2256 C2262 0.950 . S
H2257 C2263 0.950 . S
H2258 C2264 0.949 . S
C2259 H2254 0.950 . S
C2259 C2261 1.327 . S
C2259 C2265 1.429 . S
C2260 C2252 1.574 . S
C2260 H2255 0.949 . S
C2260 C2266 1.368 . S
C2261 C2245 1.349 . S
C2261 H2253 0.950 . S
C2261 C2259 1.327 . S
C2262 C2250 1.349 . S
C2262 H2256 0.950 . S
C2262 C2263 1.327 . S
C2263 H2257 0.950 . S
C2263 C2262 1.327 . S
C2263 C2267 1.429 . S
C2264 C2247 1.574 . S
C2264 H2258 0.949 . S
C2264 C2268 1.368 . S
C2265 C2246 1.429 . S
C2265 C2259 1.429 . S
C2265 C2266 1.523 . S
C2266 C2247 1.368 . S
C2266 C2260 1.368 . S
C2266 C2265 1.523 . S
C2267 C2251 1.429 . S
C2267 C2263 1.429 . S
C2267 C2268 1.523 . S
C2268 C2252 1.368 . S
C2268 C2264 1.368 . S
C2268 C2267 1.523 . S
H2269 C2244 0.950 . S
H2270 C2246 0.950 . S
H2271 C2247 0.949 . S
H2272 C2249 0.950 . S
H2273 C2251 0.950 . S
C2274 C2275 1.349 . S
C2274 C2276 1.327 . S
C2274 H2299 0.950 . S
C2275 C2274 1.349 . S
C2275 C2291 1.349 . S
C2276 C2274 1.327 . S
C2276 C2295 1.429 . S
C2276 H2300 0.950 . S
C2277 C2294 1.574 . S
C2277 C2296 1.368 . S
C2277 H2301 0.949 . S
H2278 C2282 0.949 . S
C2279 C2280 1.349 . S
C2279 C2281 1.327 . S
C2279 H2302 0.950 . S
C2280 C2279 1.349 . S
C2280 C2292 1.349 . S
C2281 C2279 1.327 . S
C2281 C2297 1.429 . S
C2281 H2303 0.950 . S
C2282 H2278 0.949 . S
C2282 C2290 1.574 . S
C2282 C2298 1.368 . S
H2283 C2291 0.950 . S
H2284 C2289 0.950 . S
H2285 C2290 0.949 . S
H2286 C2292 0.950 . S
H2287 C2293 0.950 . S
H2288 C2294 0.949 . S
C2289 H2284 0.950 . S
C2289 C2291 1.327 . S
C2289 C2295 1.429 . S
C2290 C2282 1.574 . S
C2290 H2285 0.949 . S
C2290 C2296 1.368 . S
C2291 C2275 1.349 . S
C2291 H2283 0.950 . S
C2291 C2289 1.327 . S
C2292 C2280 1.349 . S
C2292 H2286 0.950 . S
C2292 C2293 1.327 . S
C2293 H2287 0.950 . S
C2293 C2292 1.327 . S
C2293 C2297 1.429 . S
C2294 C2277 1.574 . S
C2294 H2288 0.949 . S
C2294 C2298 1.368 . S
C2295 C2276 1.429 . S
C2295 C2289 1.429 . S
C2295 C2296 1.523 . S
C2296 C2277 1.368 . S
C2296 C2290 1.368 . S
C2296 C2295 1.523 . S
C2297 C2281 1.429 . S
C2297 C2293 1.429 . S
C2297 C2298 1.523 . S
C2298 C2282 1.368 . S
C2298 C2294 1.368 . S
C2298 C2297 1.523 . S
H2299 C2274 0.950 . S
H2300 C2276 0.950 . S
H2301 C2277 0.949 . S
H2302 C2279 0.950 . S
H2303 C2281 0.950 . S
C2304 C2305 1.349 . S
C2304 C2306 1.327 . S
C2304 H2329 0.950 . S
C2305 C2304 1.349 . S
C2305 C2321 1.349 . S
C2306 C2304 1.327 . S
C2306 C2325 1.429 . S
C2306 H2330 0.950 . S
C2307 C2324 1.578 . S
C2307 C2326 1.364 1_454 S
C2307 H2331 0.949 . S
H2308 C2312 0.949 . S
C2309 C2310 1.349 . S
C2309 C2311 1.327 . S
C2309 H2332 0.950 . S
C2310 C2309 1.349 . S
C2310 C2322 1.349 . S
C2311 C2309 1.327 . S
C2311 C2327 1.429 . S
C2311 H2333 0.950 . S
C2312 H2308 0.949 . S
C2312 C2320 1.578 . S
C2312 C2328 1.364 1_656 S
H2313 C2321 0.950 . S
H2314 C2319 0.950 . S
H2315 C2320 0.949 . S
H2316 C2322 0.950 . S
H2317 C2323 0.950 . S
H2318 C2324 0.949 . S
C2319 H2314 0.950 . S
C2319 C2321 1.327 . S
C2319 C2325 1.429 . S
C2320 C2312 1.578 . S
C2320 H2315 0.949 . S
C2320 C2326 1.368 . S
C2321 C2305 1.349 . S
C2321 H2313 0.950 . S
C2321 C2319 1.327 . S
C2322 C2310 1.349 . S
C2322 H2316 0.950 . S
C2322 C2323 1.327 . S
C2323 H2317 0.950 . S
C2323 C2322 1.327 . S
C2323 C2327 1.429 . S
C2324 C2307 1.578 . S
C2324 H2318 0.949 . S
C2324 C2328 1.368 . S
C2325 C2306 1.429 . S
C2325 C2319 1.429 . S
C2325 C2326 1.523 . S
C2326 C2307 1.364 1_656 S
C2326 C2320 1.368 . S
C2326 C2325 1.523 . S
C2327 C2311 1.429 . S
C2327 C2323 1.429 . S
C2327 C2328 1.523 . S
C2328 C2312 1.364 1_454 S
C2328 C2324 1.368 . S
C2328 C2327 1.523 . S
H2329 C2304 0.950 . S
H2330 C2306 0.950 . S
H2331 C2307 0.949 . S
H2332 C2309 0.950 . S
H2333 C2311 0.950 . S
C2334 C2335 1.349 . S
C2334 C2336 1.327 1_565 S
C2334 H2359 0.950 1_565 S
C2335 C2334 1.349 . S
C2335 C2351 1.349 . S
C2336 C2334 1.327 1_545 S
C2336 C2355 1.429 1_545 S
C2336 H2360 0.950 . S
C2337 C2354 1.574 1_455 S
C2337 C2356 1.368 1_554 S
C2337 H2361 0.949 . S
H2338 C2342 0.949 . S
C2339 C2340 1.349 . S
C2339 C2341 1.327 1_545 S
C2339 H2362 0.950 1_545 S
C2340 C2339 1.349 . S
C2340 C2352 1.349 . S
C2341 C2339 1.327 1_565 S
C2341 C2357 1.429 1_565 S
C2341 H2363 0.950 . S
C2342 H2338 0.949 . S
C2342 C2350 1.574 1_655 S
C2342 C2358 1.368 1_556 S
H2343 C2351 0.950 . S
H2344 C2349 0.950 . S
H2345 C2350 0.949 . S
H2346 C2352 0.950 . S
H2347 C2353 0.950 . S
H2348 C2354 0.949 . S
C2349 H2344 0.950 . S
C2349 C2351 1.327 . S
C2349 C2355 1.429 . S
C2350 C2342 1.574 1_455 S
C2350 H2345 0.949 . S
C2350 C2356 1.368 1_545 S
C2351 C2335 1.349 . S
C2351 H2343 0.950 . S
C2351 C2349 1.327 . S
C2352 C2340 1.349 . S
C2352 H2346 0.950 . S
C2352 C2353 1.327 . S
C2353 H2347 0.950 . S
C2353 C2352 1.327 . S
C2353 C2357 1.429 . S
C2354 C2337 1.574 1_655 S
C2354 H2348 0.949 . S
C2354 C2358 1.368 1_565 S
C2355 C2336 1.429 1_565 S
C2355 C2349 1.429 . S
C2355 C2356 1.523 . S
C2356 C2337 1.368 1_556 S
C2356 C2350 1.368 1_565 S
C2356 C2355 1.523 . S
C2357 C2341 1.429 1_545 S
C2357 C2353 1.429 . S
C2357 C2358 1.523 . S
C2358 C2342 1.368 1_554 S
C2358 C2354 1.368 1_545 S
C2358 C2357 1.523 . S
H2359 C2334 0.950 1_545 S
H2360 C2336 0.950 . S
H2361 C2337 0.949 . S
H2362 C2339 0.950 1_565 S
H2363 C2341 0.950 . S
C2364 C2365 1.349 . S
C2364 C2366 1.327 . S
C2364 H2389 0.950 . S
C2365 C2364 1.349 . S
C2365 C2381 1.349 . S
C2366 C2364 1.327 . S
C2366 C2385 1.429 . S
C2366 H2390 0.950 . S
C2367 C2384 1.574 . S
C2367 C2386 1.368 1_554 S
C2367 H2391 0.949 . S
H2368 C2372 0.949 . S
C2369 C2370 1.349 . S
C2369 C2371 1.327 . S
C2369 H2392 0.950 . S
C2370 C2369 1.349 . S
C2370 C2382 1.349 . S
C2371 C2369 1.327 . S
C2371 C2387 1.429 . S
C2371 H2393 0.950 . S
C2372 H2368 0.949 . S
C2372 C2380 1.574 . S
C2372 C2388 1.368 1_556 S
H2373 C2381 0.950 . S
H2374 C2379 0.950 . S
H2375 C2380 0.949 . S
H2376 C2382 0.950 . S
H2377 C2383 0.950 . S
H2378 C2384 0.949 . S
C2379 H2374 0.950 . S
C2379 C2381 1.327 . S
C2379 C2385 1.429 . S
C2380 C2372 1.574 . S
C2380 H2375 0.949 . S
C2380 C2386 1.368 1_565 S
C2381 C2365 1.349 . S
C2381 H2373 0.950 . S
C2381 C2379 1.327 . S
C2382 C2370 1.349 . S
C2382 H2376 0.950 . S
C2382 C2383 1.327 . S
C2383 H2377 0.950 . S
C2383 C2382 1.327 . S
C2383 C2387 1.429 . S
C2384 C2367 1.574 . S
C2384 H2378 0.949 . S
C2384 C2388 1.368 1_545 S
C2385 C2366 1.429 . S
C2385 C2379 1.429 . S
C2385 C2386 1.523 . S
C2386 C2367 1.368 1_556 S
C2386 C2380 1.368 1_545 S
C2386 C2385 1.523 . S
C2387 C2371 1.429 . S
C2387 C2383 1.429 . S
C2387 C2388 1.523 . S
C2388 C2372 1.368 1_554 S
C2388 C2384 1.368 1_565 S
C2388 C2387 1.523 . S
H2389 C2364 0.950 . S
H2390 C2366 0.950 . S
H2391 C2367 0.949 . S
H2392 C2369 0.950 . S
H2393 C2371 0.950 . S
C2394 C2395 1.349 . S
C2394 C2396 1.327 . S
C2394 H2419 0.950 . S
C2395 C2394 1.349 . S
C2395 C2411 1.349 . S
C2396 C2394 1.327 . S
C2396 C2415 1.429 . S
C2396 H2420 0.950 . S
C2397 C2414 1.574 1_554 S
C2397 C2416 1.368 . S
C2397 H2421 0.949 . S
H2398 C2402 0.949 . S
C2399 C2400 1.349 . S
C2399 C2401 1.327 . S
C2399 H2422 0.950 . S
C2400 C2399 1.349 . S
C2400 C2412 1.349 . S
C2401 C2399 1.327 . S
C2401 C2417 1.429 . S
C2401 H2423 0.950 . S
C2402 H2398 0.949 . S
C2402 C2410 1.574 1_556 S
C2402 C2418 1.368 . S
H2403 C2411 0.950 . S
H2404 C2409 0.950 . S
H2405 C2410 0.949 . S
H2406 C2412 0.950 . S
H2407 C2413 0.950 . S
H2408 C2414 0.949 . S
C2409 H2404 0.950 . S
C2409 C2411 1.327 . S
C2409 C2415 1.429 . S
C2410 C2402 1.574 1_554 S
C2410 H2405 0.949 . S
C2410 C2416 1.368 . S
C2411 C2395 1.349 . S
C2411 H2403 0.950 . S
C2411 C2409 1.327 . S
C2412 C2400 1.349 . S
C2412 H2406 0.950 . S
C2412 C2413 1.327 . S
C2413 H2407 0.950 . S
C2413 C2412 1.327 . S
C2413 C2417 1.429 . S
C2414 C2397 1.574 1_556 S
C2414 H2408 0.949 . S
C2414 C2418 1.368 . S
C2415 C2396 1.429 . S
C2415 C2409 1.429 . S
C2415 C2416 1.523 . S
C2416 C2397 1.368 . S
C2416 C2410 1.368 . S
C2416 C2415 1.523 . S
C2417 C2401 1.429 . S
C2417 C2413 1.429 . S
C2417 C2418 1.523 . S
C2418 C2402 1.368 . S
C2418 C2414 1.368 . S
C2418 C2417 1.523 . S
H2419 C2394 0.950 . S
H2420 C2396 0.950 . S
H2421 C2397 0.949 . S
H2422 C2399 0.950 . S
H2423 C2401 0.950 . S
C2424 C2425 1.349 . S
C2424 C2426 1.327 . S
C2424 H2449 0.950 . S
C2425 C2424 1.349 . S
C2425 C2441 1.349 . S
C2426 C2424 1.327 . S
C2426 C2445 1.429 . S
C2426 H2450 0.950 . S
C2427 C2444 1.574 1_655 S
C2427 C2446 1.368 1_565 S
C2427 H2451 0.949 . S
H2428 C2432 0.949 . S
C2429 C2430 1.349 . S
C2429 C2431 1.327 . S
C2429 H2452 0.950 . S
C2430 C2429 1.349 . S
C2430 C2442 1.349 . S
C2431 C2429 1.327 . S
C2431 C2447 1.429 . S
C2431 H2453 0.950 . S
C2432 H2428 0.949 . S
C2432 C2440 1.574 1_455 S
C2432 C2448 1.368 1_545 S
H2433 C2441 0.950 . S
H2434 C2439 0.950 . S
H2435 C2440 0.949 . S
H2436 C2442 0.950 . S
H2437 C2443 0.950 . S
H2438 C2444 0.949 . S
C2439 H2434 0.950 . S
C2439 C2441 1.327 . S
C2439 C2445 1.429 . S
C2440 C2432 1.574 1_655 S
C2440 H2435 0.949 . S
C2440 C2446 1.368 . S
C2441 C2425 1.349 . S
C2441 H2433 0.950 . S
C2441 C2439 1.327 . S
C2442 C2430 1.349 . S
C2442 H2436 0.950 . S
C2442 C2443 1.327 . S
C2443 H2437 0.950 . S
C2443 C2442 1.327 . S
C2443 C2447 1.429 . S
C2444 C2427 1.574 1_455 S
C2444 H2438 0.949 . S
C2444 C2448 1.368 . S
C2445 C2426 1.429 . S
C2445 C2439 1.429 . S
C2445 C2446 1.523 . S
C2446 C2427 1.368 1_545 S
C2446 C2440 1.368 . S
C2446 C2445 1.523 . S
C2447 C2431 1.429 . S
C2447 C2443 1.429 . S
C2447 C2448 1.523 . S
C2448 C2432 1.368 1_565 S
C2448 C2444 1.368 . S
C2448 C2447 1.523 . S
H2449 C2424 0.950 . S
H2450 C2426 0.950 . S
H2451 C2427 0.949 . S
H2452 C2429 0.950 . S
H2453 C2431 0.950 . S
C2454 C2455 1.349 . S
C2454 C2456 1.327 . S
C2454 H2479 0.950 . S
C2455 C2454 1.349 . S
C2455 C2471 1.349 . S
C2456 C2454 1.327 . S
C2456 C2475 1.429 . S
C2456 H2480 0.950 . S
C2457 C2474 1.574 . S
C2457 C2476 1.368 1_545 S
C2457 H2481 0.949 . S
H2458 C2462 0.949 . S
C2459 C2460 1.349 . S
C2459 C2461 1.327 . S
C2459 H2482 0.950 . S
C2460 C2459 1.349 . S
C2460 C2472 1.349 . S
C2461 C2459 1.327 . S
C2461 C2477 1.429 . S
C2461 H2483 0.950 . S
C2462 H2458 0.949 . S
C2462 C2470 1.574 . S
C2462 C2478 1.368 1_565 S
H2463 C2471 0.950 1_545 S
H2464 C2469 0.950 . S
H2465 C2470 0.949 . S
H2466 C2472 0.950 1_565 S
H2467 C2473 0.950 . S
H2468 C2474 0.949 . S
C2469 H2464 0.950 . S
C2469 C2471 1.327 1_545 S
C2469 C2475 1.429 1_545 S
C2470 C2462 1.574 . S
C2470 H2465 0.949 . S
C2470 C2476 1.368 . S
C2471 C2455 1.349 . S
C2471 H2463 0.950 1_565 S
C2471 C2469 1.327 1_565 S
C2472 C2460 1.349 . S
C2472 H2466 0.950 1_545 S
C2472 C2473 1.327 1_545 S
C2473 H2467 0.950 . S
C2473 C2472 1.327 1_565 S
C2473 C2477 1.429 1_565 S
C2474 C2457 1.574 . S
C2474 H2468 0.949 . S
C2474 C2478 1.368 . S
C2475 C2456 1.429 . S
C2475 C2469 1.429 1_565 S
C2475 C2476 1.523 . S
C2476 C2457 1.368 1_565 S
C2476 C2470 1.368 . S
C2476 C2475 1.523 . S
C2477 C2461 1.429 . S
C2477 C2473 1.429 1_545 S
C2477 C2478 1.523 . S
C2478 C2462 1.368 1_545 S
C2478 C2474 1.368 . S
C2478 C2477 1.523 . S
H2479 C2454 0.950 . S
H2480 C2456 0.950 . S
H2481 C2457 0.949 . S
H2482 C2459 0.950 . S
H2483 C2461 0.950 . S
C2484 C2485 1.349 . S
C2484 C2486 1.327 . S
C2484 H2509 0.950 . S
C2485 C2484 1.349 . S
C2485 C2501 1.349 . S
C2486 C2484 1.327 . S
C2486 C2505 1.429 . S
C2486 H2510 0.950 . S
C2487 C2504 1.574 . S
C2487 C2506 1.368 . S
C2487 H2511 0.949 . S
H2488 C2492 0.949 . S
C2489 C2490 1.349 . S
C2489 C2491 1.327 . S
C2489 H2512 0.950 . S
C2490 C2489 1.349 . S
C2490 C2502 1.349 . S
C2491 C2489 1.327 . S
C2491 C2507 1.429 . S
C2491 H2513 0.950 . S
C2492 H2488 0.949 . S
C2492 C2500 1.574 . S
C2492 C2508 1.368 . S
H2493 C2501 0.950 . S
H2494 C2499 0.950 . S
H2495 C2500 0.949 . S
H2496 C2502 0.950 . S
H2497 C2503 0.950 . S
H2498 C2504 0.949 . S
C2499 H2494 0.950 . S
C2499 C2501 1.327 . S
C2499 C2505 1.429 . S
C2500 C2492 1.574 . S
C2500 H2495 0.949 . S
C2500 C2506 1.368 . S
C2501 C2485 1.349 . S
C2501 H2493 0.950 . S
C2501 C2499 1.327 . S
C2502 C2490 1.349 . S
C2502 H2496 0.950 . S
C2502 C2503 1.327 . S
C2503 H2497 0.950 . S
C2503 C2502 1.327 . S
C2503 C2507 1.429 . S
C2504 C2487 1.574 . S
C2504 H2498 0.949 . S
C2504 C2508 1.368 . S
C2505 C2486 1.429 . S
C2505 C2499 1.429 . S
C2505 C2506 1.523 . S
C2506 C2487 1.368 . S
C2506 C2500 1.368 . S
C2506 C2505 1.523 . S
C2507 C2491 1.429 . S
C2507 C2503 1.429 . S
C2507 C2508 1.523 . S
C2508 C2492 1.368 . S
C2508 C2504 1.368 . S
C2508 C2507 1.523 . S
H2509 C2484 0.950 . S
H2510 C2486 0.950 . S
H2511 C2487 0.949 . S
H2512 C2489 0.950 . S
H2513 C2491 0.950 . S
C2514 C2515 1.349 . S
C2514 C2516 1.327 . S
C2514 H2539 0.950 . S
C2515 C2514 1.349 . S
C2515 C2531 1.349 . S
C2516 C2514 1.327 . S
C2516 C2535 1.429 . S
C2516 H2540 0.950 . S
C2517 C2534 1.574 . S
C2517 C2536 1.368 1_655 S
C2517 H2541 0.949 . S
H2518 C2522 0.949 . S
C2519 C2520 1.349 . S
C2519 C2521 1.327 . S
C2519 H2542 0.950 . S
C2520 C2519 1.349 . S
C2520 C2532 1.349 . S
C2521 C2519 1.327 . S
C2521 C2537 1.429 . S
C2521 H2543 0.950 . S
C2522 H2518 0.949 . S
C2522 C2530 1.574 . S
C2522 C2538 1.368 1_455 S
H2523 C2531 0.950 . S
H2524 C2529 0.950 . S
H2525 C2530 0.949 . S
H2526 C2532 0.950 . S
H2527 C2533 0.950 . S
H2528 C2534 0.949 . S
C2529 H2524 0.950 . S
C2529 C2531 1.327 . S
C2529 C2535 1.429 . S
C2530 C2522 1.574 . S
C2530 H2525 0.949 . S
C2530 C2536 1.368 . S
C2531 C2515 1.349 . S
C2531 H2523 0.950 . S
C2531 C2529 1.327 . S
C2532 C2520 1.349 . S
C2532 H2526 0.950 . S
C2532 C2533 1.327 . S
C2533 H2527 0.950 . S
C2533 C2532 1.327 . S
C2533 C2537 1.429 . S
C2534 C2517 1.574 . S
C2534 H2528 0.949 . S
C2534 C2538 1.368 . S
C2535 C2516 1.429 . S
C2535 C2529 1.429 . S
C2535 C2536 1.523 . S
C2536 C2517 1.368 1_455 S
C2536 C2530 1.368 . S
C2536 C2535 1.523 . S
C2537 C2521 1.429 . S
C2537 C2533 1.429 . S
C2537 C2538 1.523 . S
C2538 C2522 1.368 1_655 S
C2538 C2534 1.368 . S
C2538 C2537 1.523 . S
H2539 C2514 0.950 . S
H2540 C2516 0.950 . S
H2541 C2517 0.949 . S
H2542 C2519 0.950 . S
H2543 C2521 0.950 . S
C2544 C2545 1.349 . S
C2544 C2546 1.327 . S
C2544 H2569 0.950 . S
C2545 C2544 1.349 . S
C2545 C2561 1.349 . S
C2546 C2544 1.327 . S
C2546 C2565 1.429 . S
C2546 H2570 0.950 . S
C2547 C2564 1.574 . S
C2547 C2566 1.368 . S
C2547 H2571 0.949 . S
H2548 C2552 0.949 1_455 S
C2549 C2550 1.349 . S
C2549 C2551 1.327 . S
C2549 H2572 0.950 . S
C2550 C2549 1.349 . S
C2550 C2562 1.349 . S
C2551 C2549 1.327 . S
C2551 C2567 1.429 . S
C2551 H2573 0.950 1_455 S
C2552 H2548 0.949 1_655 S
C2552 C2560 1.574 . S
C2552 C2568 1.368 . S
H2553 C2561 0.950 . S
H2554 C2559 0.950 . S
H2555 C2560 0.949 . S
H2556 C2562 0.950 . S
H2557 C2563 0.950 . S
H2558 C2564 0.949 . S
C2559 H2554 0.950 . S
C2559 C2561 1.327 . S
C2559 C2565 1.429 . S
C2560 C2552 1.574 . S
C2560 H2555 0.949 . S
C2560 C2566 1.368 . S
C2561 C2545 1.349 . S
C2561 H2553 0.950 . S
C2561 C2559 1.327 . S
C2562 C2550 1.349 . S
C2562 H2556 0.950 . S
C2562 C2563 1.327 . S
C2563 H2557 0.950 . S
C2563 C2562 1.327 . S
C2563 C2567 1.429 . S
C2564 C2547 1.574 . S
C2564 H2558 0.949 . S
C2564 C2568 1.368 . S
C2565 C2546 1.429 . S
C2565 C2559 1.429 . S
C2565 C2566 1.523 . S
C2566 C2547 1.368 . S
C2566 C2560 1.368 . S
C2566 C2565 1.523 . S
C2567 C2551 1.429 . S
C2567 C2563 1.429 . S
C2567 C2568 1.523 1_455 S
C2568 C2552 1.368 . S
C2568 C2564 1.368 . S
C2568 C2567 1.523 1_655 S
H2569 C2544 0.950 . S
H2570 C2546 0.950 . S
H2571 C2547 0.949 . S
H2572 C2549 0.950 . S
H2573 C2551 0.950 1_655 S
C2574 C2575 1.349 . S
C2574 C2576 1.327 . S
C2574 H2599 0.950 . S
C2575 C2574 1.349 . S
C2575 C2591 1.349 . S
C2576 C2574 1.327 . S
C2576 C2595 1.429 . S
C2576 H2600 0.950 . S
C2577 C2594 1.574 . S
C2577 C2596 1.368 . S
C2577 H2601 0.949 . S
H2578 C2582 0.949 . S
C2579 C2580 1.349 . S
C2579 C2581 1.327 1_545 S
C2579 H2602 0.950 1_545 S
C2580 C2579 1.349 . S
C2580 C2592 1.349 . S
C2581 C2579 1.327 1_565 S
C2581 C2597 1.429 1_565 S
C2581 H2603 0.950 . S
C2582 H2578 0.949 . S
C2582 C2590 1.574 1_645 S
C2582 C2598 1.368 1_545 S
H2583 C2591 0.950 . S
H2584 C2589 0.950 1_655 S
H2585 C2590 0.949 1_545 S
H2586 C2592 0.950 . S
H2587 C2593 0.950 . S
H2588 C2594 0.949 . S
C2589 H2584 0.950 1_455 S
C2589 C2591 1.327 . S
C2589 C2595 1.429 . S
C2590 C2582 1.574 1_465 S
C2590 H2585 0.949 1_565 S
C2590 C2596 1.368 1_455 S
C2591 C2575 1.349 . S
C2591 H2583 0.950 . S
C2591 C2589 1.327 . S
C2592 C2580 1.349 . S
C2592 H2586 0.950 . S
C2592 C2593 1.327 . S
C2593 H2587 0.950 . S
C2593 C2592 1.327 . S
C2593 C2597 1.429 . S
C2594 C2577 1.574 . S
C2594 H2588 0.949 . S
C2594 C2598 1.368 . S
C2595 C2576 1.429 . S
C2595 C2589 1.429 . S
C2595 C2596 1.523 1_455 S
C2596 C2577 1.368 . S
C2596 C2590 1.368 1_655 S
C2596 C2595 1.523 1_655 S
C2597 C2581 1.429 1_545 S
C2597 C2593 1.429 . S
C2597 C2598 1.523 1_545 S
C2598 C2582 1.368 1_565 S
C2598 C2594 1.368 . S
C2598 C2597 1.523 1_565 S
H2599 C2574 0.950 . S
H2600 C2576 0.950 . S
H2601 C2577 0.949 . S
H2602 C2579 0.950 1_565 S
H2603 C2581 0.950 . S
C2604 C2605 1.349 . S
C2604 C2606 1.327 . S
C2604 H2629 0.950 . S
C2605 C2604 1.349 . S
C2605 C2621 1.349 . S
C2606 C2604 1.327 . S
C2606 C2625 1.429 . S
C2606 H2630 0.950 . S
C2607 C2624 1.574 . S
C2607 C2626 1.368 . S
C2607 H2631 0.949 . S
H2608 C2612 0.949 . S
C2609 C2610 1.349 . S
C2609 C2611 1.327 . S
C2609 H2632 0.950 . S
C2610 C2609 1.349 . S
C2610 C2622 1.349 . S
C2611 C2609 1.327 . S
C2611 C2627 1.429 . S
C2611 H2633 0.950 . S
C2612 H2608 0.949 . S
C2612 C2620 1.574 . S
C2612 C2628 1.368 . S
H2613 C2621 0.950 . S
H2614 C2619 0.950 . S
H2615 C2620 0.949 . S
H2616 C2622 0.950 . S
H2617 C2623 0.950 . S
H2618 C2624 0.949 . S
C2619 H2614 0.950 . S
C2619 C2621 1.327 . S
C2619 C2625 1.429 . S
C2620 C2612 1.574 . S
C2620 H2615 0.949 . S
C2620 C2626 1.368 . S
C2621 C2605 1.349 . S
C2621 H2613 0.950 . S
C2621 C2619 1.327 . S
C2622 C2610 1.349 . S
C2622 H2616 0.950 . S
C2622 C2623 1.327 . S
C2623 H2617 0.950 . S
C2623 C2622 1.327 . S
C2623 C2627 1.429 . S
C2624 C2607 1.574 . S
C2624 H2618 0.949 . S
C2624 C2628 1.368 . S
C2625 C2606 1.429 . S
C2625 C2619 1.429 . S
C2625 C2626 1.523 1_545 S
C2626 C2607 1.368 . S
C2626 C2620 1.368 . S
C2626 C2625 1.523 1_565 S
C2627 C2611 1.429 . S
C2627 C2623 1.429 . S
C2627 C2628 1.523 . S
C2628 C2612 1.368 . S
C2628 C2624 1.368 . S
C2628 C2627 1.523 . S
H2629 C2604 0.950 . S
H2630 C2606 0.950 . S
H2631 C2607 0.949 . S
H2632 C2609 0.950 . S
H2633 C2611 0.950 . S
C2634 C2635 1.349 . S
C2634 C2636 1.327 . S
C2634 H2659 0.950 . S
C2635 C2634 1.349 . S
C2635 C2651 1.349 . S
C2636 C2634 1.327 . S
C2636 C2655 1.429 . S
C2636 H2660 0.950 . S
C2637 C2654 1.574 . S
C2637 C2656 1.368 . S
C2637 H2661 0.949 . S
H2638 C2642 0.949 . S
C2639 C2640 1.349 . S
C2639 C2641 1.327 . S
C2639 H2662 0.950 . S
C2640 C2639 1.349 . S
C2640 C2652 1.349 . S
C2641 C2639 1.327 . S
C2641 C2657 1.429 . S
C2641 H2663 0.950 . S
C2642 H2638 0.949 . S
C2642 C2650 1.574 . S
C2642 C2658 1.368 . S
H2643 C2651 0.950 . S
H2644 C2649 0.950 . S
H2645 C2650 0.949 . S
H2646 C2652 0.950 . S
H2647 C2653 0.950 . S
H2648 C2654 0.949 . S
C2649 H2644 0.950 . S
C2649 C2651 1.327 . S
C2649 C2655 1.429 . S
C2650 C2642 1.574 . S
C2650 H2645 0.949 . S
C2650 C2656 1.368 . S
C2651 C2635 1.349 . S
C2651 H2643 0.950 . S
C2651 C2649 1.327 . S
C2652 C2640 1.349 . S
C2652 H2646 0.950 . S
C2652 C2653 1.327 . S
C2653 H2647 0.950 . S
C2653 C2652 1.327 . S
C2653 C2657 1.429 . S
C2654 C2637 1.574 . S
C2654 H2648 0.949 . S
C2654 C2658 1.368 . S
C2655 C2636 1.429 . S
C2655 C2649 1.429 . S
C2655 C2656 1.523 . S
C2656 C2637 1.368 . S
C2656 C2650 1.368 . S
C2656 C2655 1.523 . S
C2657 C2641 1.429 . S
C2657 C2653 1.429 . S
C2657 C2658 1.523 . S
C2658 C2642 1.368 . S
C2658 C2654 1.368 . S
C2658 C2657 1.523 . S
H2659 C2634 0.950 . S
H2660 C2636 0.950 . S
H2661 C2637 0.949 . S
H2662 C2639 0.950 . S
H2663 C2641 0.950 . S
C2664 C2665 1.349 . S
C2664 C2666 1.327 . S
C2664 H2689 0.950 . S
C2665 C2664 1.349 . S
C2665 C2681 1.349 . S
C2666 C2664 1.327 . S
C2666 C2685 1.429 . S
C2666 H2690 0.950 . S
C2667 C2684 1.574 1_455 S
C2667 C2686 1.368 . S
C2667 H2691 0.949 . S
H2668 C2672 0.949 . S
C2669 C2670 1.349 . S
C2669 C2671 1.327 . S
C2669 H2692 0.950 . S
C2670 C2669 1.349 . S
C2670 C2682 1.349 . S
C2671 C2669 1.327 . S
C2671 C2687 1.429 . S
C2671 H2693 0.950 . S
C2672 H2668 0.949 . S
C2672 C2680 1.574 . S
C2672 C2688 1.368 . S
H2673 C2681 0.950 . S
H2674 C2679 0.950 . S
H2675 C2680 0.949 . S
H2676 C2682 0.950 . S
H2677 C2683 0.950 1_455 S
H2678 C2684 0.949 . S
C2679 H2674 0.950 . S
C2679 C2681 1.327 . S
C2679 C2685 1.429 . S
C2680 C2672 1.574 . S
C2680 H2675 0.949 . S
C2680 C2686 1.368 . S
C2681 C2665 1.349 . S
C2681 H2673 0.950 . S
C2681 C2679 1.327 . S
C2682 C2670 1.349 . S
C2682 H2676 0.950 . S
C2682 C2683 1.327 . S
C2683 H2677 0.950 1_655 S
C2683 C2682 1.327 . S
C2683 C2687 1.429 . S
C2684 C2667 1.574 1_655 S
C2684 H2678 0.949 . S
C2684 C2688 1.368 1_655 S
C2685 C2666 1.429 . S
C2685 C2679 1.429 . S
C2685 C2686 1.523 . S
C2686 C2667 1.368 . S
C2686 C2680 1.368 . S
C2686 C2685 1.523 . S
C2687 C2671 1.429 . S
C2687 C2683 1.429 . S
C2687 C2688 1.523 1_655 S
C2688 C2672 1.368 . S
C2688 C2684 1.368 1_455 S
C2688 C2687 1.523 1_455 S
H2689 C2664 0.950 . S
H2690 C2666 0.950 . S
H2691 C2667 0.949 . S
H2692 C2669 0.950 . S
H2693 C2671 0.950 . S
C2694 C2695 1.349 . S
C2694 C2696 1.327 . S
C2694 H2719 0.950 . S
C2695 C2694 1.349 . S
C2695 C2711 1.349 . S
C2696 C2694 1.327 . S
C2696 C2715 1.429 . S
C2696 H2720 0.950 1_655 S
C2697 C2714 1.582 . S
C2697 C2716 1.372 . S
C2697 H2721 0.939 1_455 S
H2698 C2702 0.949 . S
C2699 C2700 1.349 . S
C2699 C2701 1.327 1_565 S
C2699 H2722 0.950 . S
C2700 C2699 1.349 . S
C2700 C2712 1.349 . S
C2701 C2699 1.327 1_545 S
C2701 C2717 1.429 1_545 S
C2701 H2723 0.950 . S
C2702 H2698 0.949 . S
C2702 C2710 1.574 1_565 S
C2702 C2718 1.368 1_565 S
H2703 C2711 0.950 . S
H2704 C2709 0.950 . S
H2705 C2710 0.949 1_565 S
H2706 C2712 0.950 . S
H2707 C2713 0.950 . S
H2708 C2714 0.949 . S
C2709 H2704 0.950 . S
C2709 C2711 1.327 . S
C2709 C2715 1.429 . S
C2710 C2702 1.574 1_545 S
C2710 H2705 0.949 1_545 S
C2710 C2716 1.368 . S
C2711 C2695 1.349 . S
C2711 H2703 0.950 . S
C2711 C2709 1.327 . S
C2712 C2700 1.349 . S
C2712 H2706 0.950 . S
C2712 C2713 1.327 . S
C2713 H2707 0.950 . S
C2713 C2712 1.327 . S
C2713 C2717 1.429 . S
C2714 C2697 1.582 . S
C2714 H2708 0.949 . S
C2714 C2718 1.368 . S
C2715 C2696 1.429 . S
C2715 C2709 1.429 . S
C2715 C2716 1.523 1_655 S
C2716 C2697 1.372 . S
C2716 C2710 1.368 . S
C2716 C2715 1.523 1_455 S
C2717 C2701 1.429 1_565 S
C2717 C2713 1.429 . S
C2717 C2718 1.523 1_565 S
C2718 C2702 1.368 1_545 S
C2718 C2714 1.368 . S
C2718 C2717 1.523 1_545 S
H2719 C2694 0.950 . S
H2720 C2696 0.950 1_455 S
H2721 C2697 0.939 1_655 S
H2722 C2699 0.950 . S
H2723 C2701 0.950 . S
C2724 C2725 1.349 . S
C2724 C2726 1.327 1_565 S
C2724 H2749 0.950 1_565 S
C2725 C2724 1.349 . S
C2725 C2741 1.349 . S
C2726 C2724 1.327 1_545 S
C2726 C2745 1.429 1_545 S
C2726 H2750 0.950 . S
C2727 C2744 1.574 1_565 S
C2727 C2746 1.368 1_565 S
C2727 H2751 0.949 . S
H2728 C2732 0.949 . S
C2729 C2730 1.349 . S
C2729 C2731 1.327 . S
C2729 H2752 0.950 . S
C2730 C2729 1.349 . S
C2730 C2742 1.349 . S
C2731 C2729 1.327 . S
C2731 C2747 1.429 . S
C2731 H2753 0.950 . S
C2732 H2728 0.949 . S
C2732 C2740 1.574 . S
C2732 C2748 1.368 . S
H2733 C2741 0.950 . S
H2734 C2739 0.950 . S
H2735 C2740 0.949 . S
H2736 C2742 0.950 . S
H2737 C2743 0.950 . S
H2738 C2744 0.949 1_565 S
C2739 H2734 0.950 . S
C2739 C2741 1.327 . S
C2739 C2745 1.429 . S
C2740 C2732 1.574 . S
C2740 H2735 0.949 . S
C2740 C2746 1.368 . S
C2741 C2725 1.349 . S
C2741 H2733 0.950 . S
C2741 C2739 1.327 . S
C2742 C2730 1.349 . S
C2742 H2736 0.950 . S
C2742 C2743 1.327 . S
C2743 H2737 0.950 . S
C2743 C2742 1.327 . S
C2743 C2747 1.429 . S
C2744 C2727 1.574 1_545 S
C2744 H2738 0.949 1_545 S
C2744 C2748 1.368 . S
C2745 C2726 1.429 1_565 S
C2745 C2739 1.429 . S
C2745 C2746 1.523 1_565 S
C2746 C2727 1.368 1_545 S
C2746 C2740 1.368 . S
C2746 C2745 1.523 1_545 S
C2747 C2731 1.429 . S
C2747 C2743 1.429 . S
C2747 C2748 1.523 . S
C2748 C2732 1.368 . S
C2748 C2744 1.368 . S
C2748 C2747 1.523 . S
H2749 C2724 0.950 1_545 S
H2750 C2726 0.950 . S
H2751 C2727 0.949 . S
H2752 C2729 0.950 . S
H2753 C2731 0.950 . S
C2754 C2755 1.349 . S
C2754 C2756 1.327 . S
C2754 H2779 0.950 . S
C2755 C2754 1.349 . S
C2755 C2771 1.349 . S
C2756 C2754 1.327 . S
C2756 C2775 1.429 . S
C2756 H2780 0.950 . S
C2757 C2774 1.574 . S
C2757 C2776 1.368 . S
C2757 H2781 0.949 . S
H2758 C2762 0.949 . S
C2759 C2760 1.349 . S
C2759 C2761 1.327 . S
C2759 H2782 0.950 . S
C2760 C2759 1.349 . S
C2760 C2772 1.349 . S
C2761 C2759 1.327 . S
C2761 C2777 1.429 . S
C2761 H2783 0.950 . S
C2762 H2758 0.949 . S
C2762 C2770 1.574 . S
C2762 C2778 1.368 . S
H2763 C2771 0.950 . S
H2764 C2769 0.950 . S
H2765 C2770 0.949 . S
H2766 C2772 0.950 . S
H2767 C2773 0.950 . S
H2768 C2774 0.949 . S
C2769 H2764 0.950 . S
C2769 C2771 1.327 . S
C2769 C2775 1.429 . S
C2770 C2762 1.574 . S
C2770 H2765 0.949 . S
C2770 C2776 1.368 . S
C2771 C2755 1.349 . S
C2771 H2763 0.950 . S
C2771 C2769 1.327 . S
C2772 C2760 1.349 . S
C2772 H2766 0.950 . S
C2772 C2773 1.327 . S
C2773 H2767 0.950 . S
C2773 C2772 1.327 . S
C2773 C2777 1.429 . S
C2774 C2757 1.574 . S
C2774 H2768 0.949 . S
C2774 C2778 1.368 . S
C2775 C2756 1.429 . S
C2775 C2769 1.429 . S
C2775 C2776 1.523 . S
C2776 C2757 1.368 . S
C2776 C2770 1.368 . S
C2776 C2775 1.523 . S
C2777 C2761 1.429 . S
C2777 C2773 1.429 . S
C2777 C2778 1.523 . S
C2778 C2762 1.368 . S
C2778 C2774 1.368 . S
C2778 C2777 1.523 . S
H2779 C2754 0.950 . S
H2780 C2756 0.950 . S
H2781 C2757 0.949 . S
H2782 C2759 0.950 . S
H2783 C2761 0.950 . S
C1345 C307 1.822 . S
C1350 C70 1.803 . S
C1375 C55 1.814 . S
C1380 C154 1.791 . S
C1405 C226 1.736 . S
C1410 C139 1.839 . S
C1435 C224 1.902 . S
C1440 C322 1.827 . S
C1465 C406 1.803 . S
C1470 C475 1.822 . S
C1495 C490 1.827 . S
C1500 C560 1.902 . S
C1525 C562 1.736 . S
C1530 C643 1.839 . S
C1555 C391 1.814 . S
C1560 C658 1.791 . S
C1585 C730 1.803 . S
C1590 C991 1.822 . S
C1615 C739 1.814 . S
C1620 C814 1.791 . S
C1645 C823 1.839 . S
C1650 C910 1.736 . S
C1675 C908 1.902 . S
C1680 C982 1.827 . S
C1705 C1066 1.803 . S
C1710 C1159 1.822 . S
C1735 C1244 1.902 . S
C1740 C1150 1.827 . S
C1765 C1327 1.839 . S
C1770 C1246 1.736 . S
C1795 C1318 1.791 . S
C1800 C1075 1.814 . S
C1825 C68 1.932 . S
C1830 C404 1.932 . S
C1855 C488 1.995 . S
C1860 C152 1.994 . S
C1885 C235 1.908 . S
C1890 C571 1.908 . S
C1915 C320 1.995 . S
C1920 C656 1.994 . S
C1945 C1064 1.932 . S
C1950 C728 1.932 . S
C1975 C1148 1.995 . S
C1980 C812 1.994 . S
C2005 C895 1.908 . S
C2010 C1231 1.908 . S
C2035 C1316 1.994 . S
C2040 C980 1.995 . S
C2065 C58 0.794 . S
C2070 C238 0.796 . S
C2095 C142 0.822 . S
C2100 C310 0.821 . S
C2125 C574 0.796 . S
C2130 C394 0.794 . S
C2155 C646 0.822 . S
C2160 C478 0.822 . S
C2185 C898 0.796 . S
C2190 C742 0.794 . S
C2215 C994 0.821 . S
C2220 C826 0.822 . S
C2245 C1078 0.794 . S
C2250 C1234 0.796 . S
C2275 C1162 0.822 . S
C2280 C1330 0.822 . S
C2305 C740 1.230 . S
C2310 C56 1.230 . S
C2335 C824 1.246 . S
C2340 C140 1.246 . S
C2365 C907 1.201 . S
C2370 C223 1.201 . S
C2395 C308 1.235 . S
C2400 C992 1.235 . S
C2425 C1076 1.230 . S
C2430 C392 1.230 . S
C2455 C1160 1.235 . S
C2460 C476 1.235 . S
C2485 C1243 1.201 . S
C2490 C559 1.201 . S
C2515 C1328 1.246 . S
C2520 C644 1.246 . S
C2545 C655 0.747 . S
C2550 C67 0.747 . S
C2575 C403 0.747 . S
C2580 C151 0.747 . S
C2605 C487 0.744 . S
C2610 C236 0.744 . S
C2635 C572 0.744 . S
C2640 C319 0.744 . S
C2665 C1315 0.747 . S
C2670 C727 0.747 . S
C2695 C1063 0.747 . S
C2700 C811 0.747 . S
C2725 C1147 0.744 . S
C2730 C896 0.744 . S
C2755 C979 0.744 . S
C2760 C1232 0.744 . S
