# Generated by pormake.
# Topology rob, (6)-cn, num edge types: 1
# Building blocks:
#     Node 0, Type 0, BuildingBlock: KUMBOL_clean_sbu_1, # of connection points: 6
#     Node 1, Type 0, BuildingBlock: KUMBOL_clean_sbu_1, # of connection points: 6
#     Node 2, Type 0, BuildingBlock: KUMBOL_clean_sbu_1, # of connection points: 6
#     Node 3, Type 0, BuildingBlock: KUMBOL_clean_sbu_1, # of connection points: 6
#     Edge 4, Type (0, 0), BuildingBlock: UVAHIK_clean_linker_0, # of connection points: 2
#     Edge 5, Type (0, 0), BuildingBlock: UVAHIK_clean_linker_0, # of connection points: 2
#     Edge 6, Type (0, 0), BuildingBlock: UVAHIK_clean_linker_0, # of connection points: 2
#     Edge 7, Type (0, 0), BuildingBlock: UVAHIK_clean_linker_0, # of connection points: 2
#     Edge 8, Type (0, 0), BuildingBlock: UVAHIK_clean_linker_0, # of connection points: 2
#     Edge 9, Type (0, 0), BuildingBlock: UVAHIK_clean_linker_0, # of connection points: 2
#     Edge 10, Type (0, 0), BuildingBlock: UVAHIK_clean_linker_0, # of connection points: 2
#     Edge 11, Type (0, 0), BuildingBlock: UVAHIK_clean_linker_0, # of connection points: 2
#     Edge 12, Type (0, 0), BuildingBlock: UVAHIK_clean_linker_0, # of connection points: 2
#     Edge 13, Type (0, 0), BuildingBlock: UVAHIK_clean_linker_0, # of connection points: 2
#     Edge 14, Type (0, 0), BuildingBlock: UVAHIK_clean_linker_0, # of connection points: 2
#     Edge 15, Type (0, 0), BuildingBlock: UVAHIK_clean_linker_0, # of connection points: 2
# Relax obj value: 0.017
# Max RMSD: 0.099
# Mean RMSD: 0.099
data_MOF--net-rob--node1-KUMBOL_clean_sbu_1--edge1-UVAHIK_clean_linker_0
_symmetry_space_group_name_H-M    P1
_symmetry_Int_Tables_number       1
_symmetry_cell_setting            triclinic
loop_
_symmetry_equiv_pos_as_xyz
'x, y, z'
_cell_length_a     22.990689
_cell_length_b     31.453104
_cell_length_c     42.070612
_cell_angle_alpha  109.02544
_cell_angle_beta   89.829505
_cell_angle_gamma 89.861701
loop_
_atom_site_label
_atom_site_type_symbol
_atom_site_fract_x
_atom_site_fract_y
_atom_site_fract_z
_atom_type_partial_charge
C0 C 0.15351 0.37328 0.03965 0.0
C1 C 0.05878 0.34855 0.01537 0.0
C2 C 0.11299 0.33925 0.02724 0.0
C3 C 0.0461 0.39247 0.01587 0.0
C4 C 0.14078 0.41748 0.04044 0.0
C5 C 0.08698 0.42683 0.02835 0.0
N6 N 0.20504 0.36325 0.05132 0.0
C7 C 0.2453 0.39588 0.06474 0.0
C8 C 0.1824 0.45101 0.05357 0.0
C9 C 0.2348 0.44017 0.06588 0.0
Gd10 Gd 0.31773 0.19983 0.97612 0.0
Gd11 Gd 0.219 0.28808 0.04785 0.0
N12 N 0.12701 0.29689 0.02656 0.0
C13 C 0.01892 0.31341 1.00342 0.0
C14 C 0.08758 0.26288 0.01605 0.0
C15 C 0.03326 0.27048 1.00399 0.0
H16 H 0.09776 0.22985 0.01688 0.0
H17 H 1.00238 0.24326 0.99527 0.0
H18 H 0.42631 0.27259 0.97488 0.0
H19 H 0.28507 0.38787 0.07516 0.0
H20 H 0.52413 0.29125 0.99844 0.0
H21 H 0.97679 0.31916 0.99405 0.0
H22 H 1.00471 0.40025 0.00676 0.0
H23 H 0.28545 0.0994 0.98188 0.0
H24 H 0.17428 0.48539 0.05462 0.0
H25 H 0.26693 0.46596 0.07647 0.0
H26 H 0.56934 0.1729 0.04286 0.0
H27 H 0.07645 0.46058 0.02872 0.0
H28 H 0.43031 0.05444 0.02658 0.0
H29 H 0.33139 0.04187 1.00231 0.0
N30 N 0.35779 0.14352 0.99456 0.0
C31 C 0.41283 0.15057 0.00685 0.0
C32 C 0.32876 0.10484 0.99231 0.0
C33 C 0.41053 0.07956 0.01748 0.0
C34 C 0.35463 0.07235 1.00383 0.0
C35 C 0.4404 0.11898 0.01909 0.0
H36 H 0.51837 0.10399 0.04229 0.0
N37 N 0.41357 0.21941 0.99507 0.0
C38 C 0.44104 0.18998 0.00769 0.0
C39 C 0.52752 0.23594 0.01795 0.0
C40 C 0.49838 0.19795 0.02005 0.0
C41 C 0.44422 0.25357 0.98968 0.0
C42 C 0.50075 0.2633 1.002 0.0
O43 O 0.20366 0.2867 0.99429 0.0
O44 O 0.23099 0.21644 0.95829 0.0
O45 O 0.36302 0.19685 0.92916 0.0
O46 O 0.3194 0.13785 0.93426 0.0
O47 O 0.1977 0.21397 0.03504 0.0
O48 O 0.22803 0.17389 0.9806 0.0
O49 O 0.31292 0.19704 0.02946 0.0
O50 O 0.30975 0.27138 0.05964 0.0
O51 O 0.17692 0.26606 0.08617 0.0
O52 O 0.20884 0.33416 0.09868 0.0
O53 O 0.32177 0.27436 0.98207 0.0
O54 O 0.31031 0.3072 0.03909 0.0
C55 C 0.20258 0.25466 0.96491 0.0
C56 C 0.19581 0.17857 0.0075 0.0
C57 C 0.36604 0.12717 0.88051 0.0
C58 C 0.41275 0.11808 0.82622 0.0
C59 C 0.36168 0.05543 0.8355 0.0
C60 C 0.34811 0.08207 0.86819 0.0
C61 C 0.39348 0.0732 0.81463 0.0
C62 C 0.39841 0.14517 0.85934 0.0
C63 C 0.34941 0.15473 0.91514 0.0
C64 C 0.52552 0.16708 0.03302 0.0
C65 C 0.49661 0.12771 0.03254 0.0
H66 H 0.5716 0.24324 0.02713 0.0
C67 C 0.32472 0.23026 0.05694 0.0
C68 C 0.32826 0.30881 0.00985 0.0
C69 C 0.12513 0.32286 0.12742 0.0
C70 C 0.06146 0.33085 0.17555 0.0
C71 C 0.03665 0.36736 0.1346 0.0
C72 C 0.08709 0.35012 0.11646 0.0
C73 C 0.02398 0.35804 0.16407 0.0
C74 C 0.11182 0.31283 0.15683 0.0
C75 C 0.17936 0.30576 0.10891 0.0
H76 H 0.34717 0.02086 0.82621 0.0
H77 H 0.3231 0.06729 0.88376 0.0
H78 H 0.40233 0.05177 0.78912 0.0
H79 H 0.41276 0.17982 0.86865 0.0
H80 H 0.00757 0.38835 0.12594 0.0
H81 H 0.0966 0.35858 0.09417 0.0
H82 H 0.98468 0.37194 0.17787 0.0
H83 H 0.14127 0.29207 0.16558 0.0
C84 C 0.59614 0.82915 0.99927 0.0
C85 C 0.51486 0.77751 0.98495 0.0
C86 C 0.5709 0.7888 0.99865 0.0
C87 C 0.48633 0.80597 0.97025 0.0
C88 C 0.56707 0.85839 0.98535 0.0
C89 C 0.51239 0.84627 0.97042 0.0
N90 N 0.64972 0.83953 0.01315 0.0
C91 C 0.67561 0.87944 0.01546 0.0
C92 C 0.59387 0.89896 0.98689 0.0
C93 C 0.64817 0.90967 1.00224 0.0
Gd94 Gd 0.80047 0.70218 0.96417 0.0
Gd95 Gd 0.69342 0.7862 0.03347 0.0
N96 N 0.59977 0.76176 0.01289 0.0
C97 C 0.48832 0.73877 0.9875 0.0
C98 C 0.5713 0.72696 0.01871 0.0
C99 C 0.51613 0.71399 0.00517 0.0
H100 H 0.59003 0.70982 0.03461 0.0
H101 H 0.49459 0.68549 0.00904 0.0
H102 H 0.91645 0.7653 0.99881 0.0
H103 H 0.7178 0.88751 0.0271 0.0
H104 H 0.01283 0.75468 0.02055 0.0
H105 H 0.4453 0.72895 0.97735 0.0
H106 H 0.44353 0.79758 0.95932 0.0
H107 H 0.73965 0.60013 0.936 0.0
H108 H 0.57289 0.92234 0.97648 0.0
H109 H 0.66901 0.94107 1.00374 0.0
H110 H 0.02194 0.59663 1.00481 0.0
H111 H 0.48953 0.86813 0.95935 0.0
H112 H 0.85734 0.50599 0.9556 0.0
H113 H 0.76291 0.52252 0.93399 0.0
N114 N 0.81845 0.62739 0.96028 0.0
C115 C 0.87104 0.61898 0.97171 0.0
C116 C 0.78008 0.59342 0.94647 0.0
C117 C 0.84696 0.54018 0.957 0.0
C118 C 0.79353 0.54939 0.94486 0.0
C119 C 0.88668 0.57508 0.97043 0.0
H120 H 0.95402 0.53387 0.98173 0.0
N121 N 0.89232 0.69666 0.98667 0.0
C122 C 0.90946 0.65444 0.98475 0.0
C123 C 1.00163 0.68342 0.01001 0.0
C124 C 0.96435 0.64681 0.99679 0.0
C125 C 0.92915 0.73225 0.99856 0.0
C126 C 0.98404 0.72626 0.01073 0.0
O127 O 0.70171 0.78865 0.98028 0.0
O128 O 0.70957 0.71467 0.94936 0.0
O129 O 0.84045 0.72712 0.92685 0.0
O130 O 0.8236 0.65599 0.91499 0.0
O131 O 0.69499 0.71156 0.02736 0.0
O132 O 0.71015 0.67905 0.97059 0.0
O133 O 0.81512 0.70498 0.01819 0.0
O134 O 0.78056 0.77388 0.05276 0.0
O135 O 0.6482 0.78719 0.08006 0.0
O136 O 0.68529 0.84836 0.07482 0.0
O137 O 0.81783 0.7769 0.97776 0.0
O138 O 0.78078 0.81716 0.03075 0.0
C139 C 0.69133 0.75532 0.95264 0.0
C140 C 0.69074 0.67704 0.99944 0.0
C141 C 0.81932 0.68583 0.87049 0.0
C142 C 0.83832 0.68786 0.81388 0.0
C143 C 0.73989 0.67665 0.83104 0.0
C144 C 0.76013 0.67867 0.86274 0.0
C145 C 0.77865 0.68106 0.80669 0.0
C146 C 0.85824 0.69064 0.84611 0.0
C147 C 0.84115 0.68769 0.90369 0.0
C148 C 0.98002 0.60311 0.99558 0.0
C149 C 0.94129 0.56737 0.98248 0.0
H150 H 0.04411 0.67896 0.01957 0.0
C151 C 0.81155 0.73711 0.0475 0.0
C152 C 0.81523 0.81304 1.00477 0.0
C153 C 0.6385 0.85707 0.12827 0.0
C154 C 0.59164 0.86453 0.1823 0.0
C155 C 0.63706 0.92929 0.17292 0.0
C156 C 0.65255 0.90302 0.14045 0.0
C157 C 0.60711 0.91031 0.19372 0.0
C158 C 0.60803 0.8378 0.1494 0.0
C159 C 0.65759 0.83006 0.09392 0.0
H160 H 0.69409 0.67136 0.82525 0.0
H161 H 0.7298 0.67427 0.88112 0.0
H162 H 0.76191 0.67941 0.78228 0.0
H163 H 0.90412 0.69552 0.85202 0.0
H164 H 0.64864 0.96453 0.1821 0.0
H165 H 0.6761 0.9188 0.12496 0.0
H166 H 0.59668 0.93155 0.21906 0.0
H167 H 0.59675 0.80246 0.14025 0.0
C168 C 0.15539 0.61363 0.47311 0.0
C169 C 0.05712 0.63516 0.49326 0.0
C170 C 0.11246 0.64623 0.48379 0.0
C171 C 0.04641 0.59114 0.49308 0.0
C172 C 0.14419 0.56902 0.47178 0.0
C173 C 0.08989 0.55816 0.48243 0.0
N174 N 0.20684 0.62492 0.46216 0.0
C175 C 0.24727 0.59266 0.44735 0.0
C176 C 0.18721 0.53634 0.45874 0.0
C177 C 0.23871 0.54814 0.44608 0.0
Gd178 Gd 0.32517 0.7836 0.5355 0.0
Gd179 Gd 0.21721 0.70038 0.46529 0.0
N180 N 0.12424 0.68856 0.4839 0.0
C181 C 0.01396 0.6685 0.50208 0.0
C182 C 0.08135 0.72049 0.4905 0.0
C183 C 0.02596 0.71121 0.50033 0.0
H184 H 0.09039 0.75327 0.48863 0.0
H185 H 0.99246 0.73687 0.50629 0.0
H186 H 0.43051 0.70606 0.53281 0.0
H187 H 0.28563 0.60103 0.43583 0.0
H188 H 0.52477 0.68258 0.50494 0.0
H189 H 0.97092 0.66133 0.50955 0.0
H190 H 1.00434 0.58205 0.50055 0.0
H191 H 0.2972 0.88476 0.5306 0.0
H192 H 0.18031 0.50169 0.45728 0.0
H193 H 0.27137 0.52283 0.43479 0.0
H194 H 0.57004 0.79724 0.45666 0.0
H195 H 0.0806 0.52412 0.48176 0.0
H196 H 0.438 0.92181 0.47794 0.0
H197 H 0.34298 0.93957 0.50723 0.0
N198 N 0.36561 0.83707 0.51434 0.0
C199 C 0.41897 0.82748 0.49978 0.0
C200 C 0.33884 0.87714 0.51798 0.0
C201 C 0.41834 0.89794 0.48834 0.0
C202 C 0.36462 0.90807 0.50481 0.0
C203 C 0.44634 0.85733 0.48578 0.0
H204 H 0.52202 0.86802 0.45855 0.0
N205 N 0.41859 0.75989 0.51317 0.0
C206 C 0.44566 0.7873 0.49854 0.0
C207 C 0.52866 0.73727 0.48477 0.0
C208 C 0.50104 0.77636 0.48351 0.0
C209 C 0.44793 0.72423 0.51725 0.0
C210 C 0.50247 0.7116 0.50231 0.0
O211 O 0.18576 0.72196 0.51956 0.0
O212 O 0.26561 0.74119 0.55531 0.0
O213 O 0.38733 0.7981 0.57684 0.0
O214 O 0.31118 0.84143 0.58054 0.0
O215 O 0.20022 0.77507 0.4802 0.0
O216 O 0.23496 0.8121 0.53427 0.0
O217 O 0.31322 0.78666 0.48263 0.0
O218 O 0.30931 0.71254 0.45279 0.0
O219 O 0.1878 0.72786 0.42679 0.0
O220 O 0.19512 0.65606 0.4154 0.0
O221 O 0.32599 0.70962 0.5303 0.0
O222 O 0.30704 0.67749 0.47408 0.0
C223 C 0.21079 0.7296 0.54905 0.0
C224 C 0.19985 0.80894 0.50877 0.0
C225 C 0.37677 0.86173 0.62852 0.0
C226 C 0.42652 0.87148 0.6819 0.0
C227 C 0.37872 0.93502 0.67166 0.0
C228 C 0.36162 0.90745 0.63989 0.0
C229 C 0.41064 0.91728 0.69256 0.0
C230 C 0.40948 0.84382 0.64955 0.0
C231 C 0.35816 0.83321 0.59477 0.0
C232 C 0.52776 0.80534 0.46859 0.0
C233 C 0.50052 0.84574 0.46977 0.0
H234 H 0.57118 0.72765 0.47351 0.0
C235 C 0.32536 0.75327 0.45522 0.0
C236 C 0.32551 0.67449 0.50275 0.0
C237 C 0.11961 0.68257 0.38901 0.0
C238 C 0.05542 0.68966 0.34507 0.0
C239 C 0.01764 0.66217 0.38858 0.0
C240 C 0.07282 0.66578 0.40283 0.0
C241 C 0.00877 0.67436 0.35995 0.0
C242 C 0.1109 0.6939 0.35973 0.0
C243 C 0.17728 0.68848 0.40501 0.0
H244 H 0.3668 0.97027 0.68025 0.0
H245 H 0.33679 0.92197 0.62411 0.0
H246 H 0.42191 0.93941 0.71741 0.0
H247 H 0.42145 0.80854 0.64078 0.0
H248 H 0.98179 0.64952 0.39959 0.0
H249 H 0.07879 0.65505 0.42441 0.0
H250 H 0.96578 0.67082 0.34891 0.0
H251 H 0.14693 0.70613 0.34848 0.0
C252 C 0.60413 0.14845 0.50506 0.0
C253 C 0.51879 0.19655 0.51813 0.0
C254 C 0.57645 0.18821 0.50605 0.0
C255 C 0.49084 0.16573 0.53079 0.0
C256 C 0.57576 0.11691 0.51697 0.0
C257 C 0.51925 0.12603 0.53023 0.0
N258 N 0.6594 0.141 0.49289 0.0
C259 C 0.68796 0.10198 0.49051 0.0
C260 C 0.60514 0.07713 0.51523 0.0
C261 C 0.66133 0.06953 0.50173 0.0
Gd262 Gd 0.79869 0.28515 0.54774 0.0
Gd263 Gd 0.70114 0.19749 0.47535 0.0
N264 N 0.60474 0.21757 0.49374 0.0
C265 C 0.49018 0.23484 0.51603 0.0
C266 C 0.57461 0.25195 0.48821 0.0
C267 C 0.51778 0.26208 0.50027 0.0
H268 H 0.59322 0.27089 0.47354 0.0
H269 H 0.49484 0.29024 0.49666 0.0
H270 H 0.91959 0.22543 0.51682 0.0
H271 H 0.73149 0.09623 0.48023 0.0
H272 H 0.01543 0.23758 0.49491 0.0
H273 H 0.44588 0.24244 0.52499 0.0
H274 H 0.44676 0.17184 0.54044 0.0
H275 H 0.73273 0.38545 0.57386 0.0
H276 H 0.58477 0.05204 0.52409 0.0
H277 H 0.68422 0.03878 0.50011 0.0
H278 H 0.01459 0.39422 0.50526 0.0
H279 H 0.49688 0.10235 0.53973 0.0
H280 H 0.84491 0.48125 0.55239 0.0
H281 H 0.75158 0.46305 0.57439 0.0
N282 N 0.81313 0.3599 0.55038 0.0
C283 C 0.86501 0.36925 0.53862 0.0
C284 C 0.77284 0.39293 0.56342 0.0
C285 C 0.83651 0.44709 0.55171 0.0
C286 C 0.78372 0.43694 0.5641 0.0
C287 C 0.87811 0.41314 0.53895 0.0
H288 H 0.94304 0.45529 0.52673 0.0
N289 N 0.89103 0.2927 0.52618 0.0
C290 C 0.90546 0.3348 0.52653 0.0
C291 C 0.99957 0.30779 0.50266 0.0
C292 C 0.95991 0.34336 0.51444 0.0
C293 C 0.93018 0.25825 0.51578 0.0
C294 C 0.98474 0.26514 0.50354 0.0
O295 O 0.7035 0.19408 0.52853 0.0
O296 O 0.70781 0.26831 0.55929 0.0
O297 O 0.84133 0.26424 0.58637 0.0
O298 O 0.80688 0.33174 0.59848 0.0
O299 O 0.69725 0.27228 0.48212 0.0
O300 O 0.70742 0.30423 0.53924 0.0
O301 O 0.81379 0.28407 0.49417 0.0
O302 O 0.78969 0.21296 0.45899 0.0
O303 O 0.65893 0.19663 0.42814 0.0
O304 O 0.69913 0.1361 0.43292 0.0
O305 O 0.819 0.21097 0.53543 0.0
O306 O 0.79009 0.17045 0.48089 0.0
C307 C 0.69236 0.22722 0.55627 0.0
C308 C 0.68991 0.30628 0.51012 0.0
C309 C 0.89064 0.3221 0.6277 0.0
C310 C 0.95351 0.33136 0.67612 0.0
C311 C 0.97737 0.36817 0.63517 0.0
C312 C 0.92779 0.34997 0.61683 0.0
C313 C 0.99009 0.35917 0.66474 0.0
C314 C 0.90401 0.31242 0.65721 0.0
C315 C 0.83725 0.30399 0.60897 0.0
C316 C 0.973 0.387 0.51452 0.0
C317 C 0.93222 0.42178 0.52673 0.0
H318 H 0.04187 0.31298 0.49314 0.0
C319 C 0.81616 0.25171 0.46499 0.0
C320 C 0.82113 0.17517 0.50817 0.0
C321 C 0.65564 0.1278 0.3788 0.0
C322 C 0.60846 0.12003 0.32498 0.0
C323 C 0.6621 0.05727 0.33262 0.0
C324 C 0.6751 0.08306 0.36553 0.0
C325 C 0.62925 0.07549 0.31248 0.0
C326 C 0.62238 0.14635 0.35831 0.0
C327 C 0.67124 0.15425 0.41381 0.0
H328 H 0.00577 0.38962 0.62659 0.0
H329 H 0.91823 0.35816 0.59445 0.0
H330 H 0.02874 0.37378 0.67867 0.0
H331 H 0.87524 0.29118 0.66587 0.0
H332 H 0.67775 0.02296 0.32262 0.0
H333 H 0.70086 0.06789 0.38053 0.0
H334 H 0.62069 0.0547 0.28681 0.0
H335 H 0.60682 0.18071 0.36832 0.0
C336 C 0.64956 0.62741 0.02984 0.0
C337 C 0.65684 0.63732 0.99986 0.0
C338 C 0.61482 0.59131 0.03058 0.0
C339 C 0.49449 0.51972 0.98528 0.0
H340 H 0.54161 0.4419 0.03561 0.0
C341 C 0.3702 0.35718 0.97859 0.0
C342 C 0.36339 0.34765 0.00876 0.0
C343 C 0.40558 0.39272 0.97733 0.0
C344 C 0.52749 0.46364 0.02176 0.0
H345 H 0.63345 0.61727 0.94714 0.0
H346 H 0.57382 0.5538 0.94826 0.0
H347 H 0.60526 0.50287 0.03362 0.0
H348 H 0.38857 0.36765 0.0612 0.0
H349 H 0.44905 0.43018 0.05922 0.0
H350 H 0.41663 0.48057 0.97349 0.0
C351 C 0.59447 0.57412 0.97129 0.0
C352 C 0.56402 0.49856 0.02059 0.0
C353 C 0.62923 0.61015 0.97055 0.0
C354 C 0.39232 0.37451 0.03767 0.0
C355 C 0.42761 0.41 0.03643 0.0
C356 C 0.45793 0.48481 0.98646 0.0
C357 C 0.58649 0.56447 1.00136 0.0
C358 C 0.54794 0.52703 1.00236 0.0
C359 C 0.43502 0.41936 0.0062 0.0
C360 C 0.47394 0.4564 1.00477 0.0
H361 H 0.67023 0.64786 0.05283 0.0
H362 H 0.6091 0.58506 0.05424 0.0
H363 H 0.48038 0.54149 0.97144 0.0
H364 H 0.34853 0.33695 0.95589 0.0
H365 H 0.41082 0.39872 0.95356 0.0
C366 C 0.38968 0.60915 0.47375 0.0
C367 C 0.35921 0.63458 0.5027 0.0
C368 C 0.42459 0.57309 0.47431 0.0
C369 C 0.45171 0.49453 0.52137 0.0
H370 H 0.60315 0.48122 0.47822 0.0
C371 C 0.62436 0.37103 0.53839 0.0
C372 C 0.65459 0.3452 0.50945 0.0
C373 C 0.58878 0.40661 0.53754 0.0
C374 C 0.56076 0.48423 0.49007 0.0
H375 H 0.34113 0.6425 0.55487 0.0
H376 H 0.40276 0.57959 0.55603 0.0
H377 H 0.53884 0.54228 0.47667 0.0
H378 H 0.67179 0.33641 0.45703 0.0
H379 H 0.6091 0.39857 0.45542 0.0
H380 H 0.47375 0.43656 0.53487 0.0
C381 C 0.39895 0.58708 0.53275 0.0
C382 C 0.5239 0.51915 0.48916 0.0
C383 C 0.36398 0.62319 0.53217 0.0
C384 C 0.649 0.35586 0.4797 0.0
C385 C 0.61343 0.39155 0.47885 0.0
C386 C 0.4886 0.45964 0.52231 0.0
C387 C 0.43002 0.56188 0.50388 0.0
C388 C 0.46896 0.52465 0.50477 0.0
C389 C 0.58262 0.41708 0.50772 0.0
C390 C 0.54352 0.45414 0.50668 0.0
H391 H 0.38771 0.61777 0.45087 0.0
H392 H 0.44751 0.55405 0.45158 0.0
H393 H 0.40934 0.49754 0.53324 0.0
H394 H 0.62733 0.36328 0.5616 0.0
H395 H 0.56614 0.42599 0.56028 0.0
C396 C 0.1215 0.14422 0.03553 0.0
C397 C 0.15558 0.14156 0.00711 0.0
C398 C 0.08414 0.10919 0.03541 0.0
C399 C 0.05906 0.98812 0.99266 0.0
H400 H 0.9052 0.0143 0.03243 0.0
C401 C 0.88806 0.84946 0.97752 0.0
C402 C 0.85349 0.85132 0.0056 0.0
C403 C 0.92438 0.88519 0.97806 0.0
C404 C 0.94828 0.00642 0.02159 0.0
H405 H 0.17645 0.09983 0.95608 0.0
H406 H 0.11104 0.03893 0.95587 0.0
H407 H 0.9693 0.07598 0.03235 0.0
H408 H 0.83007 0.89264 0.0563 0.0
H409 H 0.89403 0.95485 0.05732 0.0
H410 H 0.0382 0.91863 0.98194 0.0
C411 C 0.1138 0.06796 0.97841 0.0
C412 C 0.985 0.04177 0.02151 0.0
C413 C 0.1511 0.10304 0.97849 0.0
C414 C 0.856 0.89001 0.0342 0.0
C415 C 0.89245 0.92582 0.03473 0.0
C416 C 0.02239 0.9528 0.99277 0.0
C417 C 0.07996 0.07058 0.00689 0.0
C418 C 0.04079 0.03304 0.00697 0.0
C419 C 0.92722 0.92375 0.00668 0.0
C420 C 0.96648 0.96149 0.00714 0.0
H421 H 0.12377 0.17329 0.05807 0.0
H422 H 0.05922 0.11206 0.0579 0.0
H423 H 0.10211 0.98022 0.98178 0.0
H424 H 0.88712 0.82041 0.95493 0.0
H425 H 0.94978 0.88276 0.95581 0.0
C426 C 0.8941 0.14148 0.53733 0.0
C427 C 0.86066 0.138 0.50863 0.0
C428 C 0.9311 0.10655 0.53809 0.0
C429 C 0.00849 0.00662 0.48265 0.0
H430 H 0.01891 0.97337 0.56353 0.0
C431 C 0.12368 0.84492 0.48351 0.0
C432 C 0.16023 0.84708 0.51078 0.0
C433 C 0.08773 0.88099 0.48429 0.0
C434 C 0.01698 0.98262 0.54091 0.0
H435 H 0.84021 0.09472 0.45813 0.0
H436 H 0.90419 0.03354 0.45965 0.0
H437 H 0.95447 0.03471 0.56245 0.0
H438 H 0.18661 0.88904 0.56059 0.0
H439 H 0.12356 0.95237 0.56185 0.0
H440 H 0.07061 0.95436 0.46103 0.0
C441 C 0.90229 0.06365 0.48144 0.0
C442 C 0.98006 0.01775 0.54025 0.0
C443 C 0.8653 0.09866 0.48065 0.0
C444 C 0.15908 0.88616 0.53915 0.0
C445 C 0.12282 0.92239 0.53993 0.0
C446 C 0.04524 0.97148 0.48328 0.0
C447 C 0.93563 0.06717 0.51019 0.0
C448 C 0.97518 0.03004 0.51105 0.0
C449 C 0.08718 0.92031 0.51232 0.0
C450 C 0.04966 0.95887 0.51233 0.0
H451 H 0.89196 0.17129 0.55935 0.0
H452 H 0.95676 0.11069 0.56043 0.0
H453 H 0.00668 0.01574 0.45997 0.0
H454 H 0.12286 0.81539 0.46126 0.0
H455 H 0.06002 0.87794 0.46288 0.0
C456 C 0.58342 0.18087 0.30002 0.0
C457 C 0.57306 0.13797 0.30251 0.0
C458 C 0.55547 0.19444 0.27525 0.0
C459 C 0.49324 0.14475 0.19128 0.0
H460 H 0.41861 0.26013 0.20568 0.0
C461 C 0.35426 0.1782 0.08817 0.0
C462 C 0.35466 0.22138 0.08525 0.0
C463 C 0.38201 0.16993 0.11511 0.0
C464 C 0.44007 0.22799 0.20105 0.0
H465 H 0.52146 0.07743 0.28279 0.0
H466 H 0.47379 0.10075 0.2396 0.0
H467 H 0.46409 0.24386 0.25295 0.0
H468 H 0.38491 0.28976 0.10808 0.0
H469 H 0.43435 0.27527 0.15475 0.0
H470 H 0.47072 0.12886 0.13949 0.0
C471 C 0.5043 0.12352 0.25625 0.0
C472 C 0.46592 0.21869 0.22823 0.0
C473 C 0.53168 0.11019 0.28102 0.0
C474 C 0.38352 0.25615 0.10979 0.0
C475 C 0.41165 0.24785 0.13665 0.0
C476 C 0.46812 0.15418 0.16412 0.0
C477 C 0.51697 0.16523 0.25246 0.0
C478 C 0.49198 0.17668 0.22369 0.0
C479 C 0.41115 0.20463 0.13977 0.0
C480 C 0.44039 0.19567 0.16864 0.0
H481 H 0.6151 0.20305 0.31612 0.0
H482 H 0.56594 0.22686 0.27294 0.0
H483 H 0.51403 0.11237 0.18686 0.0
H484 H 0.33163 0.15089 0.06994 0.0
H485 H 0.37958 0.13641 0.11688 0.0
C486 C 0.57461 0.80419 0.20902 0.0
C487 C 0.55924 0.84577 0.20548 0.0
C488 C 0.54904 0.79023 0.23433 0.0
C489 C 0.48467 0.83894 0.31796 0.0
H490 H 0.41896 0.72133 0.30557 0.0
C491 C 0.35019 0.80442 0.42247 0.0
C492 C 0.3536 0.7618 0.42627 0.0
C493 C 0.37688 0.81255 0.39512 0.0
C494 C 0.43799 0.75412 0.30965 0.0
H495 H 0.5014 0.90328 0.22395 0.0
H496 H 0.45807 0.87941 0.26815 0.0
H497 H 0.46215 0.73767 0.25761 0.0
H498 H 0.388 0.69429 0.40463 0.0
H499 H 0.43574 0.70858 0.3572 0.0
H500 H 0.46207 0.85549 0.36987 0.0
C501 C 0.49054 0.85802 0.25185 0.0
C502 C 0.46251 0.76345 0.28208 0.0
C503 C 0.51548 0.87167 0.22652 0.0
C504 C 0.38429 0.72742 0.40217 0.0
C505 C 0.41145 0.73561 0.37491 0.0
C506 C 0.46096 0.8295 0.34552 0.0
C507 C 0.50803 0.81776 0.25663 0.0
C508 C 0.48519 0.80623 0.28588 0.0
C509 C 0.40805 0.77831 0.37095 0.0
C510 C 0.43634 0.78722 0.34172 0.0
H511 H 0.60824 0.78347 0.19331 0.0
H512 H 0.5632 0.75894 0.23741 0.0
H513 H 0.50285 0.87198 0.32178 0.0
H514 H 0.32615 0.8314 0.4404 0.0
H515 H 0.37214 0.84561 0.39271 0.0
C516 C 0.63037 0.73104 0.90054 0.0
C517 C 0.66282 0.76443 0.92409 0.0
C518 C 0.60398 0.73985 0.87336 0.0
C519 C 0.55865 0.83482 0.84424 0.0
H520 H 0.55637 0.74366 0.75608 0.0
C521 C 0.50243 0.87922 0.72628 0.0
C522 C 0.45916 0.85318 0.70525 0.0
C523 C 0.52797 0.86525 0.7513 0.0
C524 C 0.55638 0.7693 0.78062 0.0
H525 H 0.69315 0.83315 0.93781 0.0
H526 H 0.6482 0.84846 0.89041 0.0
H527 H 0.59838 0.72599 0.80373 0.0
H528 H 0.4114 0.79052 0.69299 0.0
H529 H 0.45719 0.76566 0.73647 0.0
H530 H 0.51807 0.8784 0.821 0.0
C531 C 0.64196 0.81564 0.893 0.0
C532 C 0.58019 0.75918 0.80798 0.0
C533 C 0.66802 0.80686 0.92016 0.0
C534 C 0.4447 0.81136 0.70861 0.0
C535 C 0.47076 0.79716 0.73358 0.0
C536 C 0.5356 0.84502 0.8169 0.0
C537 C 0.60956 0.78228 0.86916 0.0
C538 C 0.5821 0.792 0.84013 0.0
C539 C 0.51146 0.82462 0.75579 0.0
C540 C 0.53465 0.81257 0.78473 0.0
H541 H 0.62509 0.69817 0.90324 0.0
H542 H 0.5787 0.71354 0.85586 0.0
H543 H 0.55786 0.86063 0.86869 0.0
H544 H 0.51587 0.91101 0.72387 0.0
H545 H 0.56018 0.88666 0.76754 0.0
C546 C 0.66143 0.17501 0.58701 0.0
C547 C 0.66184 0.21836 0.58443 0.0
C548 C 0.63353 0.16685 0.614 0.0
C549 C 0.57705 0.2252 0.70049 0.0
H550 H 0.50209 0.11035 0.68668 0.0
C551 C 0.43529 0.17845 0.80043 0.0
C552 C 0.4468 0.13574 0.80304 0.0
C553 C 0.46235 0.19194 0.77534 0.0
C554 C 0.52311 0.14252 0.69095 0.0
H555 H 0.63261 0.28713 0.60779 0.0
H556 H 0.58277 0.2728 0.65449 0.0
H557 H 0.54458 0.12674 0.63895 0.0
H558 H 0.49943 0.07543 0.78311 0.0
H559 H 0.54535 0.09855 0.73924 0.0
H560 H 0.55404 0.24097 0.75261 0.0
C561 C 0.60506 0.24518 0.63614 0.0
C562 C 0.54777 0.15188 0.6636 0.0
C563 C 0.63341 0.25338 0.60926 0.0
C564 C 0.48828 0.10801 0.78125 0.0
C565 C 0.5147 0.12124 0.75612 0.0
C566 C 0.5516 0.21599 0.72784 0.0
C567 C 0.60497 0.20183 0.639 0.0
C568 C 0.57592 0.19305 0.66802 0.0
C569 C 0.50101 0.16281 0.75234 0.0
C570 C 0.52523 0.17425 0.72339 0.0
H571 H 0.68368 0.1475 0.56852 0.0
H572 H 0.63547 0.13319 0.61556 0.0
H573 H 0.59888 0.25707 0.70502 0.0
H574 H 0.40348 0.20058 0.81673 0.0
H575 H 0.45114 0.22425 0.77299 0.0
C576 C 0.87776 0.69352 0.07318 0.0
C577 C 0.84589 0.73278 0.07606 0.0
C578 C 0.90992 0.68984 0.10032 0.0
C579 C 0.96616 0.75836 0.1849 0.0
H580 H 0.97131 0.64289 0.19948 0.0
C581 C 0.00603 0.73326 0.31301 0.0
C582 C 0.04567 0.69959 0.31363 0.0
C583 C 0.99104 0.73905 0.28255 0.0
C584 C 0.97086 0.67519 0.19544 0.0
H585 H 0.8215 0.79856 0.11037 0.0
H586 H 0.87447 0.79121 0.1579 0.0
H587 H 0.92553 0.64883 0.14895 0.0
H588 H 0.10153 0.64599 0.28353 0.0
H589 H 0.07406 0.65535 0.22979 0.0
H590 H 0.00859 0.78492 0.2326 0.0
C591 C 0.87713 0.76392 0.13427 0.0
C592 C 0.94483 0.67866 0.16642 0.0
C593 C 0.84604 0.76793 0.10697 0.0
C594 C 0.07126 0.67244 0.28351 0.0
C595 C 0.05535 0.6776 0.25292 0.0
C596 C 0.99119 0.75499 0.2142 0.0
C597 C 0.90973 0.72491 0.13134 0.0
C598 C 0.9414 0.72044 0.16096 0.0
C599 C 0.01456 0.71059 0.25219 0.0
C600 C 0.99319 0.71349 0.21986 0.0
H601 H 0.87744 0.66529 0.05014 0.0
H602 H 0.93481 0.6594 0.0969 0.0
H603 H 0.96573 0.79088 0.18126 0.0
H604 H 0.98563 0.75432 0.33603 0.0
H605 H 0.95912 0.76445 0.28257 0.0
C606 C 0.86755 0.30299 0.43949 0.0
C607 C 0.85051 0.25932 0.43752 0.0
C608 C 0.8971 0.31054 0.41278 0.0
C609 C 0.98281 0.25555 0.33593 0.0
H610 H 0.92301 0.35265 0.30748 0.0
C611 C 0.04548 0.27828 0.20862 0.0
C612 C 0.04785 0.3223 0.20735 0.0
C613 C 0.02692 0.27046 0.23797 0.0
C614 C 0.94114 0.3259 0.31536 0.0
H615 H 0.85258 0.18914 0.40625 0.0
H616 H 0.90388 0.20247 0.35952 0.0
H617 H 0.88166 0.33968 0.35668 0.0
H618 H 0.03647 0.39271 0.23611 0.0
H619 H 0.00613 0.37941 0.28755 0.0
H620 H 0.04254 0.24188 0.29461 0.0
C621 C 0.8947 0.23078 0.38187 0.0
C622 C 0.91722 0.31842 0.34358 0.0
C623 C 0.86491 0.22323 0.40854 0.0
C624 C 0.03405 0.3584 0.23631 0.0
C625 C 0.01633 0.35069 0.26569 0.0
C626 C 0.00721 0.26329 0.30778 0.0
C627 C 0.91034 0.27459 0.38351 0.0
C628 C 0.93761 0.28312 0.35414 0.0
C629 C 0.01107 0.30658 0.2667 0.0
C630 C 0.98657 0.29855 0.29709 0.0
H631 H 0.85679 0.33162 0.46128 0.0
H632 H 0.90911 0.34463 0.4149 0.0
H633 H 0.99967 0.22826 0.34365 0.0
H634 H 0.05573 0.24988 0.18653 0.0
H635 H 0.023 0.23604 0.23767 0.0
C636 C 0.97082 0.27911 0.70932 0.0
C637 C 0.9672 0.32306 0.70798 0.0
C638 C 0.9895 0.27157 0.73871 0.0
C639 C 0.07364 0.32813 0.81606 0.0
H640 H 0.0181 0.22982 0.84442 0.0
C641 C 0.14945 0.30565 0.93978 0.0
C642 C 0.16761 0.2621 0.93767 0.0
C643 C 0.11925 0.31301 0.91327 0.0
C644 C 0.03413 0.25731 0.83669 0.0
H645 H 0.97648 0.39362 0.73669 0.0
H646 H 0.00706 0.3808 0.78818 0.0
H647 H 0.97466 0.24295 0.79545 0.0
H648 H 0.16675 0.19193 0.90638 0.0
H649 H 0.11441 0.20493 0.86 0.0
H650 H 0.13291 0.34255 0.85726 0.0
C651 C 0.99773 0.35193 0.76635 0.0
C652 C 0.0094 0.26478 0.80858 0.0
C653 C 0.97988 0.35936 0.73693 0.0
C654 C 0.15363 0.22594 0.90877 0.0
C655 C 0.12321 0.2333 0.88229 0.0
C656 C 0.0979 0.3209 0.84424 0.0
C657 C 1.00425 0.30793 0.76743 0.0
C658 C 0.02898 0.30025 0.79784 0.0
C659 C 0.10647 0.277 0.88405 0.0
C660 C 0.07863 0.28535 0.85482 0.0
H661 H 0.96148 0.25055 0.68725 0.0
H662 H 0.99442 0.23723 0.73846 0.0
H663 H 0.09096 0.35508 0.80816 0.0
H664 H 0.15987 0.33433 0.96152 0.0
H665 H 0.1064 0.34702 0.9155 0.0
C666 C 0.17979 0.75645 0.60942 0.0
C667 C 0.17532 0.72487 0.57704 0.0
C668 C 0.14485 0.75268 0.63571 0.0
C669 C 0.00804 0.70129 0.65143 0.0
H670 H 0.07151 0.72189 0.74046 0.0
C671 C 0.87573 0.66142 0.75457 0.0
C672 C 0.87955 0.69141 0.78758 0.0
C673 C 0.9134 0.66521 0.72951 0.0
C674 C 0.05286 0.71656 0.71586 0.0
H675 H 0.13481 0.66277 0.54765 0.0
H676 H 0.07261 0.6566 0.5928 0.0
H677 H 0.13399 0.72983 0.69573 0.0
H678 H 0.92621 0.74874 0.82028 0.0
H679 H 0.99144 0.75595 0.77641 0.0
H680 H 0.92688 0.68848 0.67142 0.0
C681 C 0.10166 0.68508 0.5978 0.0
C682 C 0.08874 0.72109 0.69021 0.0
C683 C 0.13673 0.68883 0.5717 0.0
C684 C 0.9225 0.72492 0.79511 0.0
C685 C 0.95997 0.72895 0.76996 0.0
C686 C 0.97215 0.697 0.67706 0.0
C687 C 0.10495 0.71713 0.63009 0.0
C688 C 0.0668 0.71328 0.65765 0.0
C689 C 0.95561 0.69933 0.73675 0.0
C690 C 0.99409 0.70435 0.7096 0.0
H691 H 0.2095 0.78452 0.61426 0.0
H692 H 0.14828 0.77806 0.66025 0.0
H693 H 0.98951 0.69575 0.62677 0.0
H694 H 0.84382 0.6347 0.74814 0.0
H695 H 0.90958 0.64114 0.70446 0.0
loop_
_geom_bond_atom_site_label_1
_geom_bond_atom_site_label_2
_geom_bond_distance
_geom_bond_site_symmetry_2
_ccdc_geom_bond_type
C0 C2 1.422 . S
C0 C4 1.415 . S
C0 N6 1.369 . S
C1 C2 1.421 . S
C1 C3 1.417 1_454 S
C1 C13 1.422 1_454 S
C2 C0 1.422 . S
C2 C1 1.421 . S
C2 N12 1.359 . S
C3 C1 1.417 1_656 S
C3 C5 1.329 1_656 S
C3 H22 0.930 . S
C4 C0 1.415 . S
C4 C5 1.437 . S
C4 C8 1.413 . S
C5 C3 1.329 1_454 S
C5 C4 1.437 . S
C5 H27 0.929 1_455 S
N6 C0 1.369 . S
N6 C7 1.338 . S
N6 Gd11 2.622 . S
C7 N6 1.338 . S
C7 C9 1.378 . S
C7 H19 0.929 . S
C8 C4 1.413 . S
C8 C9 1.348 . S
C8 H24 0.931 . S
C9 C7 1.378 . S
C9 C8 1.348 . S
C9 H25 0.930 . S
Gd10 N30 2.622 . S
Gd10 N37 2.570 . S
Gd10 O44 2.353 . S
Gd10 O45 2.468 . S
Gd10 O46 2.427 . S
Gd10 O48 2.388 . S
Gd10 O49 2.386 1_556 S
Gd10 O53 2.307 . S
Gd10 C63 2.805 . S
Gd11 N6 2.622 . S
Gd11 N12 2.570 . S
Gd11 O43 2.386 1_554 S
Gd11 O47 2.307 . S
Gd11 O50 2.353 . S
Gd11 O51 2.468 . S
Gd11 O52 2.427 . S
Gd11 O54 2.388 . S
Gd11 C75 2.805 . S
N12 C2 1.359 . S
N12 Gd11 2.570 . S
N12 C14 1.343 . S
C13 C1 1.422 1_656 S
C13 C15 1.321 . S
C13 H21 0.931 . S
C14 N12 1.343 . S
C14 C15 1.390 1_454 S
C14 H16 0.931 . S
C15 C13 1.321 . S
C15 C14 1.390 1_656 S
C15 H17 0.930 . S
H16 C14 0.931 . S
H17 C15 0.930 . S
H18 C41 0.931 . S
H19 C7 0.929 . S
H20 C42 0.930 . S
H21 C13 0.931 . S
H22 C3 0.930 . S
H23 C32 0.929 . S
H24 C8 0.931 . S
H25 C9 0.930 . S
H26 C64 0.930 . S
H27 C5 0.929 1_655 S
H28 C33 0.931 . S
H29 C34 0.930 . S
N30 Gd10 2.622 . S
N30 C31 1.369 . S
N30 C32 1.338 . S
C31 N30 1.369 . S
C31 C35 1.415 . S
C31 C38 1.422 . S
C32 H23 0.929 . S
C32 N30 1.338 . S
C32 C34 1.378 . S
C33 H28 0.931 . S
C33 C34 1.348 . S
C33 C35 1.413 . S
C34 H29 0.930 . S
C34 C32 1.378 . S
C34 C33 1.348 . S
C35 C31 1.415 . S
C35 C33 1.413 . S
C35 C65 1.437 . S
H36 C65 0.929 . S
N37 Gd10 2.570 . S
N37 C38 1.359 . S
N37 C41 1.343 . S
C38 C31 1.422 . S
C38 N37 1.359 . S
C38 C40 1.421 . S
C39 C40 1.422 1_554 S
C39 C42 1.321 . S
C39 H66 0.931 . S
C40 C38 1.421 . S
C40 C39 1.422 1_556 S
C40 C64 1.417 1_556 S
C41 H18 0.931 . S
C41 N37 1.343 . S
C41 C42 1.390 1_556 S
C42 H20 0.930 . S
C42 C39 1.321 . S
C42 C41 1.390 1_554 S
O43 Gd11 2.386 1_556 S
O43 C55 1.265 . S
O44 Gd10 2.353 . S
O44 C55 1.242 . S
O45 Gd10 2.468 . S
O45 C63 1.263 . S
O46 Gd10 2.427 . S
O46 C63 1.252 . S
O47 Gd11 2.307 . S
O47 C56 1.261 1_554 S
O48 Gd10 2.388 . S
O48 C56 1.252 . S
O49 Gd10 2.386 1_554 S
O49 C67 1.265 . S
O50 Gd11 2.353 . S
O50 C67 1.242 . S
O51 Gd11 2.468 . S
O51 C75 1.263 . S
O52 Gd11 2.427 . S
O52 C75 1.252 . S
O53 Gd10 2.307 . S
O53 C68 1.261 1_556 S
O54 Gd11 2.388 . S
O54 C68 1.252 . S
C55 O43 1.265 . S
C55 O44 1.242 . S
C56 O47 1.261 1_556 S
C56 O48 1.252 . S
C57 C60 1.394 . S
C57 C62 1.370 . S
C57 C63 1.500 . S
C58 C61 1.383 . S
C58 C62 1.395 . S
C59 C60 1.396 . S
C59 C61 1.365 . S
C59 H76 0.929 . S
C60 C57 1.394 . S
C60 C59 1.396 . S
C60 H77 0.930 . S
C61 C58 1.383 . S
C61 C59 1.365 . S
C61 H78 0.931 . S
C62 C57 1.370 . S
C62 C58 1.395 . S
C62 H79 0.930 . S
C63 Gd10 2.805 . S
C63 O45 1.263 . S
C63 O46 1.252 . S
C63 C57 1.500 . S
C64 H26 0.930 . S
C64 C40 1.417 1_554 S
C64 C65 1.329 1_554 S
C65 C35 1.437 . S
C65 H36 0.929 . S
C65 C64 1.329 1_556 S
H66 C39 0.931 . S
C67 O49 1.265 . S
C67 O50 1.242 . S
C68 O53 1.261 1_554 S
C68 O54 1.252 . S
C69 C72 1.394 . S
C69 C74 1.370 . S
C69 C75 1.500 . S
C70 C73 1.383 . S
C70 C74 1.395 . S
C71 C72 1.396 . S
C71 C73 1.365 . S
C71 H80 0.929 . S
C72 C69 1.394 . S
C72 C71 1.396 . S
C72 H81 0.930 . S
C73 C70 1.383 . S
C73 C71 1.365 . S
C73 H82 0.931 . S
C74 C69 1.370 . S
C74 C70 1.395 . S
C74 H83 0.930 . S
C75 Gd11 2.805 . S
C75 O51 1.263 . S
C75 O52 1.252 . S
C75 C69 1.500 . S
H76 C59 0.929 . S
H77 C60 0.930 . S
H78 C61 0.931 . S
H79 C62 0.930 . S
H80 C71 0.929 . S
H81 C72 0.930 . S
H82 C73 0.931 . S
H83 C74 0.930 . S
C84 C86 1.422 . S
C84 C88 1.415 . S
C84 N90 1.369 . S
C85 C86 1.421 . S
C85 C87 1.417 1_554 S
C85 C97 1.422 1_554 S
C86 C84 1.422 . S
C86 C85 1.421 . S
C86 N96 1.359 . S
C87 C85 1.417 1_556 S
C87 C89 1.329 1_556 S
C87 H106 0.930 . S
C88 C84 1.415 . S
C88 C89 1.437 . S
C88 C92 1.413 . S
C89 C87 1.329 1_554 S
C89 C88 1.437 . S
C89 H111 0.929 . S
N90 C84 1.369 . S
N90 C91 1.338 . S
N90 Gd95 2.622 . S
C91 N90 1.338 . S
C91 C93 1.378 . S
C91 H103 0.929 . S
C92 C88 1.413 . S
C92 C93 1.348 . S
C92 H108 0.931 . S
C93 C91 1.378 . S
C93 C92 1.348 . S
C93 H109 0.930 . S
Gd94 N114 2.622 . S
Gd94 N121 2.570 . S
Gd94 O128 2.353 . S
Gd94 O129 2.468 . S
Gd94 O130 2.427 . S
Gd94 O132 2.388 . S
Gd94 O133 2.386 1_556 S
Gd94 O137 2.307 . S
Gd94 C147 2.805 . S
Gd95 N90 2.622 . S
Gd95 N96 2.570 . S
Gd95 O127 2.386 1_554 S
Gd95 O131 2.307 . S
Gd95 O134 2.353 . S
Gd95 O135 2.468 . S
Gd95 O136 2.427 . S
Gd95 O138 2.388 . S
Gd95 C159 2.805 . S
N96 C86 1.359 . S
N96 Gd95 2.570 . S
N96 C98 1.343 . S
C97 C85 1.422 1_556 S
C97 C99 1.321 . S
C97 H105 0.931 . S
C98 N96 1.343 . S
C98 C99 1.390 1_554 S
C98 H100 0.931 . S
C99 C97 1.321 . S
C99 C98 1.390 1_556 S
C99 H101 0.930 . S
H100 C98 0.931 . S
H101 C99 0.930 . S
H102 C125 0.931 . S
H103 C91 0.929 . S
H104 C126 0.930 . S
H105 C97 0.931 . S
H106 C87 0.930 . S
H107 C116 0.929 . S
H108 C92 0.931 . S
H109 C93 0.930 . S
H110 C148 0.930 . S
H111 C89 0.929 . S
H112 C117 0.931 . S
H113 C118 0.930 . S
N114 Gd94 2.622 . S
N114 C115 1.369 . S
N114 C116 1.338 . S
C115 N114 1.369 . S
C115 C119 1.415 . S
C115 C122 1.422 . S
C116 H107 0.929 . S
C116 N114 1.338 . S
C116 C118 1.378 . S
C117 H112 0.931 . S
C117 C118 1.348 . S
C117 C119 1.413 . S
C118 H113 0.930 . S
C118 C116 1.378 . S
C118 C117 1.348 . S
C119 C115 1.415 . S
C119 C117 1.413 . S
C119 C149 1.437 . S
H120 C149 0.929 1_455 S
N121 Gd94 2.570 . S
N121 C122 1.359 . S
N121 C125 1.343 . S
C122 C115 1.422 . S
C122 N121 1.359 . S
C122 C124 1.421 . S
C123 C124 1.422 1_454 S
C123 C126 1.321 . S
C123 H150 0.931 . S
C124 C122 1.421 . S
C124 C123 1.422 1_656 S
C124 C148 1.417 1_656 S
C125 H102 0.931 . S
C125 N121 1.343 . S
C125 C126 1.390 1_656 S
C126 H104 0.930 . S
C126 C123 1.321 . S
C126 C125 1.390 1_454 S
O127 Gd95 2.386 1_556 S
O127 C139 1.265 . S
O128 Gd94 2.353 . S
O128 C139 1.242 . S
O129 Gd94 2.468 . S
O129 C147 1.263 . S
O130 Gd94 2.427 . S
O130 C147 1.252 . S
O131 Gd95 2.307 . S
O131 C140 1.261 1_554 S
O132 Gd94 2.388 . S
O132 C140 1.252 . S
O133 Gd94 2.386 1_554 S
O133 C151 1.265 . S
O134 Gd95 2.353 . S
O134 C151 1.242 . S
O135 Gd95 2.468 . S
O135 C159 1.263 . S
O136 Gd95 2.427 . S
O136 C159 1.252 . S
O137 Gd94 2.307 . S
O137 C152 1.261 1_556 S
O138 Gd95 2.388 . S
O138 C152 1.252 . S
C139 O127 1.265 . S
C139 O128 1.242 . S
C140 O131 1.261 1_556 S
C140 O132 1.252 . S
C141 C144 1.394 . S
C141 C146 1.370 . S
C141 C147 1.500 . S
C142 C145 1.383 . S
C142 C146 1.395 . S
C143 C144 1.396 . S
C143 C145 1.365 . S
C143 H160 0.929 . S
C144 C141 1.394 . S
C144 C143 1.396 . S
C144 H161 0.930 . S
C145 C142 1.383 . S
C145 C143 1.365 . S
C145 H162 0.931 . S
C146 C141 1.370 . S
C146 C142 1.395 . S
C146 H163 0.930 . S
C147 Gd94 2.805 . S
C147 O129 1.263 . S
C147 O130 1.252 . S
C147 C141 1.500 . S
C148 H110 0.930 . S
C148 C124 1.417 1_454 S
C148 C149 1.329 1_454 S
C149 C119 1.437 . S
C149 H120 0.929 1_655 S
C149 C148 1.329 1_656 S
H150 C123 0.931 . S
C151 O133 1.265 . S
C151 O134 1.242 . S
C152 O137 1.261 1_554 S
C152 O138 1.252 . S
C153 C156 1.394 . S
C153 C158 1.370 . S
C153 C159 1.500 . S
C154 C157 1.383 . S
C154 C158 1.395 . S
C155 C156 1.396 . S
C155 C157 1.365 . S
C155 H164 0.929 . S
C156 C153 1.394 . S
C156 C155 1.396 . S
C156 H165 0.930 . S
C157 C154 1.383 . S
C157 C155 1.365 . S
C157 H166 0.931 . S
C158 C153 1.370 . S
C158 C154 1.395 . S
C158 H167 0.930 . S
C159 Gd95 2.805 . S
C159 O135 1.263 . S
C159 O136 1.252 . S
C159 C153 1.500 . S
H160 C143 0.929 . S
H161 C144 0.930 . S
H162 C145 0.931 . S
H163 C146 0.930 . S
H164 C155 0.929 . S
H165 C156 0.930 . S
H166 C157 0.931 . S
H167 C158 0.930 . S
C168 C170 1.422 . S
C168 C172 1.415 . S
C168 N174 1.369 . S
C169 C170 1.421 . S
C169 C171 1.417 1_455 S
C169 C181 1.422 1_455 S
C170 C168 1.422 . S
C170 C169 1.421 . S
C170 N180 1.359 . S
C171 C169 1.417 1_655 S
C171 C173 1.329 1_655 S
C171 H190 0.930 . S
C172 C168 1.415 . S
C172 C173 1.437 . S
C172 C176 1.413 . S
C173 C171 1.329 1_455 S
C173 C172 1.437 . S
C173 H195 0.929 1_455 S
N174 C168 1.369 . S
N174 C175 1.338 . S
N174 Gd179 2.622 . S
C175 N174 1.338 . S
C175 C177 1.378 . S
C175 H187 0.929 . S
C176 C172 1.413 . S
C176 C177 1.348 . S
C176 H192 0.931 . S
C177 C175 1.378 . S
C177 C176 1.348 . S
C177 H193 0.930 . S
Gd178 N198 2.622 . S
Gd178 N205 2.570 . S
Gd178 O212 2.353 . S
Gd178 O213 2.468 . S
Gd178 O214 2.427 . S
Gd178 O216 2.388 . S
Gd178 O217 2.386 . S
Gd178 O221 2.307 . S
Gd178 C231 2.805 . S
Gd179 N174 2.622 . S
Gd179 N180 2.570 . S
Gd179 O211 2.386 . S
Gd179 O215 2.307 . S
Gd179 O218 2.353 . S
Gd179 O219 2.468 . S
Gd179 O220 2.427 . S
Gd179 O222 2.388 . S
Gd179 C243 2.805 . S
N180 C170 1.359 . S
N180 Gd179 2.570 . S
N180 C182 1.343 . S
C181 C169 1.422 1_655 S
C181 C183 1.321 . S
C181 H189 0.931 . S
C182 N180 1.343 . S
C182 C183 1.390 1_455 S
C182 H184 0.931 . S
C183 C181 1.321 . S
C183 C182 1.390 1_655 S
C183 H185 0.930 . S
H184 C182 0.931 . S
H185 C183 0.930 . S
H186 C209 0.931 . S
H187 C175 0.929 . S
H188 C210 0.930 . S
H189 C181 0.931 . S
H190 C171 0.930 . S
H191 C200 0.929 . S
H192 C176 0.931 . S
H193 C177 0.930 . S
H194 C232 0.930 . S
H195 C173 0.929 1_655 S
H196 C201 0.931 . S
H197 C202 0.930 . S
N198 Gd178 2.622 . S
N198 C199 1.369 . S
N198 C200 1.338 . S
C199 N198 1.369 . S
C199 C203 1.415 . S
C199 C206 1.422 . S
C200 H191 0.929 . S
C200 N198 1.338 . S
C200 C202 1.378 . S
C201 H196 0.931 . S
C201 C202 1.348 . S
C201 C203 1.413 . S
C202 H197 0.930 . S
C202 C200 1.378 . S
C202 C201 1.348 . S
C203 C199 1.415 . S
C203 C201 1.413 . S
C203 C233 1.437 . S
H204 C233 0.929 . S
N205 Gd178 2.570 . S
N205 C206 1.359 . S
N205 C209 1.343 . S
C206 C199 1.422 . S
C206 N205 1.359 . S
C206 C208 1.421 . S
C207 C208 1.422 . S
C207 C210 1.321 . S
C207 H234 0.931 . S
C208 C206 1.421 . S
C208 C207 1.422 . S
C208 C232 1.417 . S
C209 H186 0.931 . S
C209 N205 1.343 . S
C209 C210 1.390 . S
C210 H188 0.930 . S
C210 C207 1.321 . S
C210 C209 1.390 . S
O211 Gd179 2.386 . S
O211 C223 1.265 . S
O212 Gd178 2.353 . S
O212 C223 1.242 . S
O213 Gd178 2.468 . S
O213 C231 1.263 . S
O214 Gd178 2.427 . S
O214 C231 1.252 . S
O215 Gd179 2.307 . S
O215 C224 1.261 . S
O216 Gd178 2.388 . S
O216 C224 1.252 . S
O217 Gd178 2.386 . S
O217 C235 1.265 . S
O218 Gd179 2.353 . S
O218 C235 1.242 . S
O219 Gd179 2.468 . S
O219 C243 1.263 . S
O220 Gd179 2.427 . S
O220 C243 1.252 . S
O221 Gd178 2.307 . S
O221 C236 1.261 . S
O222 Gd179 2.388 . S
O222 C236 1.252 . S
C223 O211 1.265 . S
C223 O212 1.242 . S
C224 O215 1.261 . S
C224 O216 1.252 . S
C225 C228 1.394 . S
C225 C230 1.370 . S
C225 C231 1.500 . S
C226 C229 1.383 . S
C226 C230 1.395 . S
C227 C228 1.396 . S
C227 C229 1.365 . S
C227 H244 0.929 . S
C228 C225 1.394 . S
C228 C227 1.396 . S
C228 H245 0.930 . S
C229 C226 1.383 . S
C229 C227 1.365 . S
C229 H246 0.931 . S
C230 C225 1.370 . S
C230 C226 1.395 . S
C230 H247 0.930 . S
C231 Gd178 2.805 . S
C231 O213 1.263 . S
C231 O214 1.252 . S
C231 C225 1.500 . S
C232 H194 0.930 . S
C232 C208 1.417 . S
C232 C233 1.329 . S
C233 C203 1.437 . S
C233 H204 0.929 . S
C233 C232 1.329 . S
H234 C207 0.931 . S
C235 O217 1.265 . S
C235 O218 1.242 . S
C236 O221 1.261 . S
C236 O222 1.252 . S
C237 C240 1.394 . S
C237 C242 1.370 . S
C237 C243 1.500 . S
C238 C241 1.383 . S
C238 C242 1.395 . S
C239 C240 1.396 . S
C239 C241 1.365 . S
C239 H248 0.929 . S
C240 C237 1.394 . S
C240 C239 1.396 . S
C240 H249 0.930 . S
C241 C238 1.383 . S
C241 C239 1.365 . S
C241 H250 0.931 . S
C242 C237 1.370 . S
C242 C238 1.395 . S
C242 H251 0.930 . S
C243 Gd179 2.805 . S
C243 O219 1.263 . S
C243 O220 1.252 . S
C243 C237 1.500 . S
H244 C227 0.929 . S
H245 C228 0.930 . S
H246 C229 0.931 . S
H247 C230 0.930 . S
H248 C239 0.929 . S
H249 C240 0.930 . S
H250 C241 0.931 . S
H251 C242 0.930 . S
C252 C254 1.422 . S
C252 C256 1.415 . S
C252 N258 1.369 . S
C253 C254 1.421 . S
C253 C255 1.417 . S
C253 C265 1.422 . S
C254 C252 1.422 . S
C254 C253 1.421 . S
C254 N264 1.359 . S
C255 C253 1.417 . S
C255 C257 1.329 . S
C255 H274 0.930 . S
C256 C252 1.415 . S
C256 C257 1.437 . S
C256 C260 1.413 . S
C257 C255 1.329 . S
C257 C256 1.437 . S
C257 H279 0.929 . S
N258 C252 1.369 . S
N258 C259 1.338 . S
N258 Gd263 2.622 . S
C259 N258 1.338 . S
C259 C261 1.378 . S
C259 H271 0.929 . S
C260 C256 1.413 . S
C260 C261 1.348 . S
C260 H276 0.931 . S
C261 C259 1.378 . S
C261 C260 1.348 . S
C261 H277 0.930 . S
Gd262 N282 2.622 . S
Gd262 N289 2.570 . S
Gd262 O296 2.353 . S
Gd262 O297 2.468 . S
Gd262 O298 2.427 . S
Gd262 O300 2.388 . S
Gd262 O301 2.386 . S
Gd262 O305 2.307 . S
Gd262 C315 2.805 . S
Gd263 N258 2.622 . S
Gd263 N264 2.570 . S
Gd263 O295 2.386 . S
Gd263 O299 2.307 . S
Gd263 O302 2.353 . S
Gd263 O303 2.468 . S
Gd263 O304 2.427 . S
Gd263 O306 2.388 . S
Gd263 C327 2.805 . S
N264 C254 1.359 . S
N264 Gd263 2.570 . S
N264 C266 1.343 . S
C265 C253 1.422 . S
C265 C267 1.321 . S
C265 H273 0.931 . S
C266 N264 1.343 . S
C266 C267 1.390 . S
C266 H268 0.931 . S
C267 C265 1.321 . S
C267 C266 1.390 . S
C267 H269 0.930 . S
H268 C266 0.931 . S
H269 C267 0.930 . S
H270 C293 0.931 . S
H271 C259 0.929 . S
H272 C294 0.930 . S
H273 C265 0.931 . S
H274 C255 0.930 . S
H275 C284 0.929 . S
H276 C260 0.931 . S
H277 C261 0.930 . S
H278 C316 0.930 . S
H279 C257 0.929 . S
H280 C285 0.931 . S
H281 C286 0.930 . S
N282 Gd262 2.622 . S
N282 C283 1.369 . S
N282 C284 1.338 . S
C283 N282 1.369 . S
C283 C287 1.415 . S
C283 C290 1.422 . S
C284 H275 0.929 . S
C284 N282 1.338 . S
C284 C286 1.378 . S
C285 H280 0.931 . S
C285 C286 1.348 . S
C285 C287 1.413 . S
C286 H281 0.930 . S
C286 C284 1.378 . S
C286 C285 1.348 . S
C287 C283 1.415 . S
C287 C285 1.413 . S
C287 C317 1.437 . S
H288 C317 0.929 1_455 S
N289 Gd262 2.570 . S
N289 C290 1.359 . S
N289 C293 1.343 . S
C290 C283 1.422 . S
C290 N289 1.359 . S
C290 C292 1.421 . S
C291 C292 1.422 1_455 S
C291 C294 1.321 . S
C291 H318 0.931 . S
C292 C290 1.421 . S
C292 C291 1.422 1_655 S
C292 C316 1.417 1_655 S
C293 H270 0.931 . S
C293 N289 1.343 . S
C293 C294 1.390 1_655 S
C294 H272 0.930 . S
C294 C291 1.321 . S
C294 C293 1.390 1_455 S
O295 Gd263 2.386 . S
O295 C307 1.265 . S
O296 Gd262 2.353 . S
O296 C307 1.242 . S
O297 Gd262 2.468 . S
O297 C315 1.263 . S
O298 Gd262 2.427 . S
O298 C315 1.252 . S
O299 Gd263 2.307 . S
O299 C308 1.261 . S
O300 Gd262 2.388 . S
O300 C308 1.252 . S
O301 Gd262 2.386 . S
O301 C319 1.265 . S
O302 Gd263 2.353 . S
O302 C319 1.242 . S
O303 Gd263 2.468 . S
O303 C327 1.263 . S
O304 Gd263 2.427 . S
O304 C327 1.252 . S
O305 Gd262 2.307 . S
O305 C320 1.261 . S
O306 Gd263 2.388 . S
O306 C320 1.252 . S
C307 O295 1.265 . S
C307 O296 1.242 . S
C308 O299 1.261 . S
C308 O300 1.252 . S
C309 C312 1.394 . S
C309 C314 1.370 . S
C309 C315 1.500 . S
C310 C313 1.383 . S
C310 C314 1.395 . S
C311 C312 1.396 . S
C311 C313 1.365 . S
C311 H328 0.929 . S
C312 C309 1.394 . S
C312 C311 1.396 . S
C312 H329 0.930 . S
C313 C310 1.383 . S
C313 C311 1.365 . S
C313 H330 0.931 . S
C314 C309 1.370 . S
C314 C310 1.395 . S
C314 H331 0.930 . S
C315 Gd262 2.805 . S
C315 O297 1.263 . S
C315 O298 1.252 . S
C315 C309 1.500 . S
C316 H278 0.930 . S
C316 C292 1.417 1_455 S
C316 C317 1.329 1_455 S
C317 C287 1.437 . S
C317 H288 0.929 1_655 S
C317 C316 1.329 1_655 S
H318 C291 0.931 . S
C319 O301 1.265 . S
C319 O302 1.242 . S
C320 O305 1.261 . S
C320 O306 1.252 . S
C321 C324 1.394 . S
C321 C326 1.370 . S
C321 C327 1.500 . S
C322 C325 1.383 . S
C322 C326 1.395 . S
C323 C324 1.396 . S
C323 C325 1.365 . S
C323 H332 0.929 . S
C324 C321 1.394 . S
C324 C323 1.396 . S
C324 H333 0.930 . S
C325 C322 1.383 . S
C325 C323 1.365 . S
C325 H334 0.931 . S
C326 C321 1.370 . S
C326 C322 1.395 . S
C326 H335 0.930 . S
C327 Gd263 2.805 . S
C327 O303 1.263 . S
C327 O304 1.252 . S
C327 C321 1.500 . S
H328 C311 0.929 . S
H329 C312 0.930 . S
H330 C313 0.931 . S
H331 C314 0.930 . S
H332 C323 0.929 . S
H333 C324 0.930 . S
H334 C325 0.931 . S
H335 C326 0.930 . S
C336 C337 1.346 . S
C336 C338 1.327 . S
C336 H361 0.950 . S
C337 C336 1.346 . S
C337 C353 1.344 1_556 S
C338 C336 1.327 . S
C338 C357 1.431 . S
C338 H362 0.950 . S
C339 C356 1.574 . S
C339 C358 1.368 1_554 S
C339 H363 0.949 . S
H340 C344 0.949 . S
C341 C342 1.349 . S
C341 C343 1.327 . S
C341 H364 0.950 . S
C342 C341 1.349 . S
C342 C354 1.349 1_554 S
C343 C341 1.327 . S
C343 C359 1.432 . S
C343 H365 0.950 . S
C344 H340 0.949 . S
C344 C352 1.574 . S
C344 C360 1.367 1_556 S
H345 C353 0.950 . S
H346 C351 0.950 . S
H347 C352 0.949 . S
H348 C354 0.950 . S
H349 C355 0.950 . S
H350 C356 0.949 . S
C351 H346 0.950 . S
C351 C353 1.327 . S
C351 C357 1.430 1_554 S
C352 C344 1.574 . S
C352 H347 0.949 . S
C352 C358 1.368 . S
C353 C337 1.344 1_554 S
C353 H345 0.950 . S
C353 C351 1.327 . S
C354 C342 1.349 1_556 S
C354 H348 0.950 . S
C354 C355 1.327 . S
C355 H349 0.950 . S
C355 C354 1.327 . S
C355 C359 1.431 1_556 S
C356 C339 1.574 . S
C356 H350 0.949 . S
C356 C360 1.368 . S
C357 C338 1.431 . S
C357 C351 1.430 1_556 S
C357 C358 1.520 . S
C358 C339 1.368 1_556 S
C358 C352 1.368 . S
C358 C357 1.520 . S
C359 C343 1.432 . S
C359 C355 1.431 1_554 S
C359 C360 1.520 . S
C360 C344 1.367 1_554 S
C360 C356 1.368 . S
C360 C359 1.520 . S
H361 C336 0.950 . S
H362 C338 0.950 . S
H363 C339 0.949 . S
H364 C341 0.950 . S
H365 C343 0.950 . S
C366 C367 1.349 . S
C366 C368 1.327 . S
C366 H391 0.950 . S
C367 C366 1.349 . S
C367 C383 1.349 . S
C368 C366 1.327 . S
C368 C387 1.429 . S
C368 H392 0.950 . S
C369 C386 1.574 . S
C369 C388 1.368 . S
C369 H393 0.949 . S
H370 C374 0.949 . S
C371 C372 1.349 . S
C371 C373 1.327 . S
C371 H394 0.950 . S
C372 C371 1.349 . S
C372 C384 1.349 . S
C373 C371 1.327 . S
C373 C389 1.429 . S
C373 H395 0.950 . S
C374 H370 0.949 . S
C374 C382 1.574 . S
C374 C390 1.368 . S
H375 C383 0.950 . S
H376 C381 0.950 . S
H377 C382 0.949 . S
H378 C384 0.950 . S
H379 C385 0.950 . S
H380 C386 0.949 . S
C381 H376 0.950 . S
C381 C383 1.327 . S
C381 C387 1.429 . S
C382 C374 1.574 . S
C382 H377 0.949 . S
C382 C388 1.368 . S
C383 C367 1.349 . S
C383 H375 0.950 . S
C383 C381 1.327 . S
C384 C372 1.349 . S
C384 H378 0.950 . S
C384 C385 1.327 . S
C385 H379 0.950 . S
C385 C384 1.327 . S
C385 C389 1.429 . S
C386 C369 1.574 . S
C386 H380 0.949 . S
C386 C390 1.368 . S
C387 C368 1.429 . S
C387 C381 1.429 . S
C387 C388 1.523 . S
C388 C369 1.368 . S
C388 C382 1.368 . S
C388 C387 1.523 . S
C389 C373 1.429 . S
C389 C385 1.429 . S
C389 C390 1.523 . S
C390 C374 1.368 . S
C390 C386 1.368 . S
C390 C389 1.523 . S
H391 C366 0.950 . S
H392 C368 0.950 . S
H393 C369 0.949 . S
H394 C371 0.950 . S
H395 C373 0.950 . S
C396 C397 1.325 1_554 S
C396 C398 1.327 . S
C396 H421 0.950 . S
C397 C396 1.325 1_556 S
C397 C413 1.365 . S
C398 C396 1.327 . S
C398 C417 1.423 1_554 S
C398 H422 0.950 . S
C399 C416 1.574 . S
C399 C418 1.369 1_565 S
C399 H423 0.949 . S
H400 C404 0.949 . S
C401 C402 1.349 1_556 S
C401 C403 1.327 . S
C401 H424 0.950 . S
C402 C401 1.349 1_554 S
C402 C414 1.349 . S
C403 C401 1.327 . S
C403 C419 1.420 1_556 S
C403 H425 0.950 . S
C404 H400 0.949 . S
C404 C412 1.574 . S
C404 C420 1.374 1_545 S
H405 C413 0.950 . S
H406 C411 0.950 . S
H407 C412 0.949 . S
H408 C414 0.950 . S
H409 C415 0.950 . S
H410 C416 0.949 . S
C411 H406 0.950 . S
C411 C413 1.327 . S
C411 C417 1.438 . S
C412 C404 1.574 . S
C412 H407 0.949 . S
C412 C418 1.367 1_654 S
C413 C397 1.365 . S
C413 H405 0.950 . S
C413 C411 1.327 . S
C414 C402 1.349 . S
C414 H408 0.950 . S
C414 C415 1.327 . S
C415 H409 0.950 . S
C415 C414 1.327 . S
C415 C419 1.444 . S
C416 C399 1.574 . S
C416 H410 0.949 . S
C416 C420 1.361 1_456 S
C417 C398 1.423 1_556 S
C417 C411 1.438 . S
C417 C418 1.520 . S
C418 C399 1.369 1_545 S
C418 C412 1.367 1_456 S
C418 C417 1.520 . S
C419 C403 1.420 1_554 S
C419 C415 1.444 . S
C419 C420 1.520 . S
C420 C404 1.374 1_565 S
C420 C416 1.361 1_654 S
C420 C419 1.520 . S
H421 C396 0.950 . S
H422 C398 0.950 . S
H423 C399 0.949 . S
H424 C401 0.950 . S
H425 C403 0.950 . S
C426 C427 1.349 . S
C426 C428 1.327 . S
C426 H451 0.950 . S
C427 C426 1.349 . S
C427 C443 1.349 . S
C428 C426 1.327 . S
C428 C447 1.429 . S
C428 H452 0.950 . S
C429 C446 1.574 1_645 S
C429 C448 1.368 . S
C429 H453 0.949 . S
H430 C434 0.949 . S
C431 C432 1.349 . S
C431 C433 1.327 . S
C431 H454 0.950 . S
C432 C431 1.349 . S
C432 C444 1.349 . S
C433 C431 1.327 . S
C433 C449 1.429 . S
C433 H455 0.950 . S
C434 H430 0.949 . S
C434 C442 1.574 1_465 S
C434 C450 1.368 . S
H435 C443 0.950 . S
H436 C441 0.950 . S
H437 C442 0.949 . S
H438 C444 0.950 . S
H439 C445 0.950 . S
H440 C446 0.949 . S
C441 H436 0.950 . S
C441 C443 1.327 . S
C441 C447 1.429 . S
C442 C434 1.574 1_645 S
C442 H437 0.949 . S
C442 C448 1.368 . S
C443 C427 1.349 . S
C443 H435 0.950 . S
C443 C441 1.327 . S
C444 C432 1.349 . S
C444 H438 0.950 . S
C444 C445 1.327 . S
C445 H439 0.950 . S
C445 C444 1.327 . S
C445 C449 1.429 . S
C446 C429 1.574 1_465 S
C446 H440 0.949 . S
C446 C450 1.368 . S
C447 C428 1.429 . S
C447 C441 1.429 . S
C447 C448 1.523 . S
C448 C429 1.368 . S
C448 C442 1.368 . S
C448 C447 1.523 . S
C449 C433 1.429 . S
C449 C445 1.429 . S
C449 C450 1.523 . S
C450 C434 1.368 . S
C450 C446 1.368 . S
C450 C449 1.523 . S
H451 C426 0.950 . S
H452 C428 0.950 . S
H453 C429 0.949 . S
H454 C431 0.950 . S
H455 C433 0.950 . S
C456 C457 1.349 . S
C456 C458 1.327 . S
C456 H481 0.950 . S
C457 C456 1.349 . S
C457 C473 1.349 . S
C458 C456 1.327 . S
C458 C477 1.429 . S
C458 H482 0.950 . S
C459 C476 1.574 . S
C459 C478 1.368 . S
C459 H483 0.949 . S
H460 C464 0.949 . S
C461 C462 1.349 . S
C461 C463 1.327 . S
C461 H484 0.950 . S
C462 C461 1.349 . S
C462 C474 1.349 . S
C463 C461 1.327 . S
C463 C479 1.429 . S
C463 H485 0.950 . S
C464 H460 0.949 . S
C464 C472 1.574 . S
C464 C480 1.368 . S
H465 C473 0.950 . S
H466 C471 0.950 . S
H467 C472 0.949 . S
H468 C474 0.950 . S
H469 C475 0.950 . S
H470 C476 0.949 . S
C471 H466 0.950 . S
C471 C473 1.327 . S
C471 C477 1.429 . S
C472 C464 1.574 . S
C472 H467 0.949 . S
C472 C478 1.368 . S
C473 C457 1.349 . S
C473 H465 0.950 . S
C473 C471 1.327 . S
C474 C462 1.349 . S
C474 H468 0.950 . S
C474 C475 1.327 . S
C475 H469 0.950 . S
C475 C474 1.327 . S
C475 C479 1.429 . S
C476 C459 1.574 . S
C476 H470 0.949 . S
C476 C480 1.368 . S
C477 C458 1.429 . S
C477 C471 1.429 . S
C477 C478 1.523 . S
C478 C459 1.368 . S
C478 C472 1.368 . S
C478 C477 1.523 . S
C479 C463 1.429 . S
C479 C475 1.429 . S
C479 C480 1.523 . S
C480 C464 1.368 . S
C480 C476 1.368 . S
C480 C479 1.523 . S
H481 C456 0.950 . S
H482 C458 0.950 . S
H483 C459 0.949 . S
H484 C461 0.950 . S
H485 C463 0.950 . S
C486 C487 1.349 . S
C486 C488 1.327 . S
C486 H511 0.950 . S
C487 C486 1.349 . S
C487 C503 1.349 . S
C488 C486 1.327 . S
C488 C507 1.429 . S
C488 H512 0.950 . S
C489 C506 1.574 . S
C489 C508 1.368 . S
C489 H513 0.949 . S
H490 C494 0.949 . S
C491 C492 1.349 . S
C491 C493 1.327 . S
C491 H514 0.950 . S
C492 C491 1.349 . S
C492 C504 1.349 . S
C493 C491 1.327 . S
C493 C509 1.429 . S
C493 H515 0.950 . S
C494 H490 0.949 . S
C494 C502 1.574 . S
C494 C510 1.368 . S
H495 C503 0.950 . S
H496 C501 0.950 . S
H497 C502 0.949 . S
H498 C504 0.950 . S
H499 C505 0.950 . S
H500 C506 0.949 . S
C501 H496 0.950 . S
C501 C503 1.327 . S
C501 C507 1.429 . S
C502 C494 1.574 . S
C502 H497 0.949 . S
C502 C508 1.368 . S
C503 C487 1.349 . S
C503 H495 0.950 . S
C503 C501 1.327 . S
C504 C492 1.349 . S
C504 H498 0.950 . S
C504 C505 1.327 . S
C505 H499 0.950 . S
C505 C504 1.327 . S
C505 C509 1.429 . S
C506 C489 1.574 . S
C506 H500 0.949 . S
C506 C510 1.368 . S
C507 C488 1.429 . S
C507 C501 1.429 . S
C507 C508 1.523 . S
C508 C489 1.368 . S
C508 C502 1.368 . S
C508 C507 1.523 . S
C509 C493 1.429 . S
C509 C505 1.429 . S
C509 C510 1.523 . S
C510 C494 1.368 . S
C510 C506 1.368 . S
C510 C509 1.523 . S
H511 C486 0.950 . S
H512 C488 0.950 . S
H513 C489 0.949 . S
H514 C491 0.950 . S
H515 C493 0.950 . S
C516 C517 1.349 . S
C516 C518 1.327 . S
C516 H541 0.950 . S
C517 C516 1.349 . S
C517 C533 1.349 . S
C518 C516 1.327 . S
C518 C537 1.429 . S
C518 H542 0.950 . S
C519 C536 1.574 . S
C519 C538 1.368 . S
C519 H543 0.949 . S
H520 C524 0.949 . S
C521 C522 1.349 . S
C521 C523 1.327 . S
C521 H544 0.950 . S
C522 C521 1.349 . S
C522 C534 1.349 . S
C523 C521 1.327 . S
C523 C539 1.429 . S
C523 H545 0.950 . S
C524 H520 0.949 . S
C524 C532 1.574 . S
C524 C540 1.368 . S
H525 C533 0.950 . S
H526 C531 0.950 . S
H527 C532 0.949 . S
H528 C534 0.950 . S
H529 C535 0.950 . S
H530 C536 0.949 . S
C531 H526 0.950 . S
C531 C533 1.327 . S
C531 C537 1.429 . S
C532 C524 1.574 . S
C532 H527 0.949 . S
C532 C538 1.368 . S
C533 C517 1.349 . S
C533 H525 0.950 . S
C533 C531 1.327 . S
C534 C522 1.349 . S
C534 H528 0.950 . S
C534 C535 1.327 . S
C535 H529 0.950 . S
C535 C534 1.327 . S
C535 C539 1.429 . S
C536 C519 1.574 . S
C536 H530 0.949 . S
C536 C540 1.368 . S
C537 C518 1.429 . S
C537 C531 1.429 . S
C537 C538 1.523 . S
C538 C519 1.368 . S
C538 C532 1.368 . S
C538 C537 1.523 . S
C539 C523 1.429 . S
C539 C535 1.429 . S
C539 C540 1.523 . S
C540 C524 1.368 . S
C540 C536 1.368 . S
C540 C539 1.523 . S
H541 C516 0.950 . S
H542 C518 0.950 . S
H543 C519 0.949 . S
H544 C521 0.950 . S
H545 C523 0.950 . S
C546 C547 1.349 . S
C546 C548 1.327 . S
C546 H571 0.950 . S
C547 C546 1.349 . S
C547 C563 1.349 . S
C548 C546 1.327 . S
C548 C567 1.429 . S
C548 H572 0.950 . S
C549 C566 1.574 . S
C549 C568 1.368 . S
C549 H573 0.949 . S
H550 C554 0.949 . S
C551 C552 1.349 . S
C551 C553 1.327 . S
C551 H574 0.950 . S
C552 C551 1.349 . S
C552 C564 1.349 . S
C553 C551 1.327 . S
C553 C569 1.429 . S
C553 H575 0.950 . S
C554 H550 0.949 . S
C554 C562 1.574 . S
C554 C570 1.368 . S
H555 C563 0.950 . S
H556 C561 0.950 . S
H557 C562 0.949 . S
H558 C564 0.950 . S
H559 C565 0.950 . S
H560 C566 0.949 . S
C561 H556 0.950 . S
C561 C563 1.327 . S
C561 C567 1.429 . S
C562 C554 1.574 . S
C562 H557 0.949 . S
C562 C568 1.368 . S
C563 C547 1.349 . S
C563 H555 0.950 . S
C563 C561 1.327 . S
C564 C552 1.349 . S
C564 H558 0.950 . S
C564 C565 1.327 . S
C565 H559 0.950 . S
C565 C564 1.327 . S
C565 C569 1.429 . S
C566 C549 1.574 . S
C566 H560 0.949 . S
C566 C570 1.368 . S
C567 C548 1.429 . S
C567 C561 1.429 . S
C567 C568 1.523 . S
C568 C549 1.368 . S
C568 C562 1.368 . S
C568 C567 1.523 . S
C569 C553 1.429 . S
C569 C565 1.429 . S
C569 C570 1.523 . S
C570 C554 1.368 . S
C570 C566 1.368 . S
C570 C569 1.523 . S
H571 C546 0.950 . S
H572 C548 0.950 . S
H573 C549 0.949 . S
H574 C551 0.950 . S
H575 C553 0.950 . S
C576 C577 1.349 . S
C576 C578 1.327 . S
C576 H601 0.950 . S
C577 C576 1.349 . S
C577 C593 1.349 . S
C578 C576 1.327 . S
C578 C597 1.429 . S
C578 H602 0.950 . S
C579 C596 1.574 . S
C579 C598 1.368 . S
C579 H603 0.949 . S
H580 C584 0.949 . S
C581 C582 1.349 1_655 S
C581 C583 1.327 . S
C581 H604 0.950 . S
C582 C581 1.349 1_455 S
C582 C594 1.349 . S
C583 C581 1.327 . S
C583 C599 1.429 . S
C583 H605 0.950 . S
C584 H580 0.949 . S
C584 C592 1.574 1_455 S
C584 C600 1.368 1_455 S
H585 C593 0.950 . S
H586 C591 0.950 . S
H587 C592 0.949 . S
H588 C594 0.950 . S
H589 C595 0.950 . S
H590 C596 0.949 . S
C591 H586 0.950 . S
C591 C593 1.327 . S
C591 C597 1.429 . S
C592 C584 1.574 1_655 S
C592 H587 0.949 . S
C592 C598 1.368 . S
C593 C577 1.349 . S
C593 H585 0.950 . S
C593 C591 1.327 . S
C594 C582 1.349 . S
C594 H588 0.950 . S
C594 C595 1.327 . S
C595 H589 0.950 . S
C595 C594 1.327 . S
C595 C599 1.429 1_455 S
C596 C579 1.574 . S
C596 H590 0.949 . S
C596 C600 1.368 . S
C597 C578 1.429 . S
C597 C591 1.429 . S
C597 C598 1.523 . S
C598 C579 1.368 . S
C598 C592 1.368 . S
C598 C597 1.523 . S
C599 C583 1.429 . S
C599 C595 1.429 1_655 S
C599 C600 1.523 . S
C600 C584 1.368 1_655 S
C600 C596 1.368 . S
C600 C599 1.523 . S
H601 C576 0.950 . S
H602 C578 0.950 . S
H603 C579 0.949 . S
H604 C581 0.950 . S
H605 C583 0.950 . S
C606 C607 1.349 . S
C606 C608 1.327 . S
C606 H631 0.950 . S
C607 C606 1.349 . S
C607 C623 1.349 . S
C608 C606 1.327 . S
C608 C627 1.429 . S
C608 H632 0.950 . S
C609 C626 1.574 . S
C609 C628 1.368 . S
C609 H633 0.949 . S
H610 C614 0.949 1_455 S
C611 C612 1.349 . S
C611 C613 1.327 1_455 S
C611 H634 0.950 . S
C612 C611 1.349 . S
C612 C624 1.349 . S
C613 C611 1.327 1_655 S
C613 C629 1.429 . S
C613 H635 0.950 . S
C614 H610 0.949 1_655 S
C614 C622 1.574 . S
C614 C630 1.368 . S
H615 C623 0.950 . S
H616 C621 0.950 . S
H617 C622 0.949 . S
H618 C624 0.950 . S
H619 C625 0.950 . S
H620 C626 0.949 . S
C621 H616 0.950 . S
C621 C623 1.327 . S
C621 C627 1.429 . S
C622 C614 1.574 . S
C622 H617 0.949 . S
C622 C628 1.368 . S
C623 C607 1.349 . S
C623 H615 0.950 . S
C623 C621 1.327 . S
C624 C612 1.349 . S
C624 H618 0.950 . S
C624 C625 1.327 . S
C625 H619 0.950 . S
C625 C624 1.327 . S
C625 C629 1.429 1_455 S
C626 C609 1.574 . S
C626 H620 0.949 . S
C626 C630 1.368 . S
C627 C608 1.429 . S
C627 C621 1.429 . S
C627 C628 1.523 . S
C628 C609 1.368 . S
C628 C622 1.368 . S
C628 C627 1.523 . S
C629 C613 1.429 . S
C629 C625 1.429 1_655 S
C629 C630 1.523 . S
C630 C614 1.368 . S
C630 C626 1.368 . S
C630 C629 1.523 . S
H631 C606 0.950 . S
H632 C608 0.950 . S
H633 C609 0.949 . S
H634 C611 0.950 . S
H635 C613 0.950 . S
C636 C637 1.349 . S
C636 C638 1.327 1_655 S
C636 H661 0.950 1_655 S
C637 C636 1.349 . S
C637 C653 1.349 . S
C638 C636 1.327 1_455 S
C638 C657 1.429 . S
C638 H662 0.950 . S
C639 C656 1.574 . S
C639 C658 1.368 . S
C639 H663 0.949 1_455 S
H640 C644 0.949 . S
C641 C642 1.349 . S
C641 C643 1.327 . S
C641 H664 0.950 . S
C642 C641 1.349 . S
C642 C654 1.349 . S
C643 C641 1.327 . S
C643 C659 1.429 . S
C643 H665 0.950 . S
C644 H640 0.949 . S
C644 C652 1.574 . S
C644 C660 1.368 . S
H645 C653 0.950 . S
H646 C651 0.950 . S
H647 C652 0.949 . S
H648 C654 0.950 . S
H649 C655 0.950 . S
H650 C656 0.949 . S
C651 H646 0.950 . S
C651 C653 1.327 . S
C651 C657 1.429 1_655 S
C652 C644 1.574 . S
C652 H647 0.949 . S
C652 C658 1.368 . S
C653 C637 1.349 . S
C653 H645 0.950 . S
C653 C651 1.327 . S
C654 C642 1.349 . S
C654 H648 0.950 . S
C654 C655 1.327 . S
C655 H649 0.950 . S
C655 C654 1.327 . S
C655 C659 1.429 . S
C656 C639 1.574 . S
C656 H650 0.949 . S
C656 C660 1.368 . S
C657 C638 1.429 . S
C657 C651 1.429 1_455 S
C657 C658 1.523 . S
C658 C639 1.368 . S
C658 C652 1.368 . S
C658 C657 1.523 . S
C659 C643 1.429 . S
C659 C655 1.429 . S
C659 C660 1.523 . S
C660 C644 1.368 . S
C660 C656 1.368 . S
C660 C659 1.523 . S
H661 C636 0.950 1_455 S
H662 C638 0.950 . S
H663 C639 0.949 1_655 S
H664 C641 0.950 . S
H665 C643 0.950 . S
C666 C667 1.349 . S
C666 C668 1.327 . S
C666 H691 0.950 . S
C667 C666 1.349 . S
C667 C683 1.349 . S
C668 C666 1.327 . S
C668 C687 1.429 . S
C668 H692 0.950 . S
C669 C686 1.574 . S
C669 C688 1.368 . S
C669 H693 0.949 . S
H670 C674 0.949 1_655 S
C671 C672 1.349 . S
C671 C673 1.327 1_655 S
C671 H694 0.950 . S
C672 C671 1.349 . S
C672 C684 1.349 . S
C673 C671 1.327 1_455 S
C673 C689 1.429 . S
C673 H695 0.950 . S
C674 H670 0.949 1_455 S
C674 C682 1.574 . S
C674 C690 1.368 . S
H675 C683 0.950 . S
H676 C681 0.950 . S
H677 C682 0.949 . S
H678 C684 0.950 . S
H679 C685 0.950 . S
H680 C686 0.949 . S
C681 H676 0.950 . S
C681 C683 1.327 . S
C681 C687 1.429 . S
C682 C674 1.574 . S
C682 H677 0.949 . S
C682 C688 1.368 . S
C683 C667 1.349 . S
C683 H675 0.950 . S
C683 C681 1.327 . S
C684 C672 1.349 . S
C684 H678 0.950 . S
C684 C685 1.327 . S
C685 H679 0.950 . S
C685 C684 1.327 . S
C685 C689 1.429 1_655 S
C686 C669 1.574 . S
C686 H680 0.949 . S
C686 C690 1.368 . S
C687 C668 1.429 . S
C687 C681 1.429 . S
C687 C688 1.523 . S
C688 C669 1.368 . S
C688 C682 1.368 . S
C688 C687 1.523 . S
C689 C673 1.429 . S
C689 C685 1.429 1_455 S
C689 C690 1.523 . S
C690 C674 1.368 . S
C690 C686 1.368 . S
C690 C689 1.523 . S
H691 C666 0.950 . S
H692 C668 0.950 . S
H693 C669 0.949 . S
H694 C671 0.950 . S
H695 C673 0.950 . S
C337 C140 1.516 . S
C342 C68 1.502 . S
C367 C236 1.502 . S
C372 C308 1.502 . S
C397 C56 1.516 . S
C402 C152 1.501 . S
C427 C320 1.502 . S
C432 C224 1.502 . S
C457 C322 1.179 . S
C462 C67 1.260 . S
C487 C154 1.179 . S
C492 C235 1.260 . S
C517 C139 1.263 . S
C522 C226 1.182 . S
C547 C307 1.263 . S
C552 C58 1.182 . S
C577 C151 1.263 . S
C582 C238 1.177 . S
C607 C319 1.263 . S
C612 C70 1.177 . S
C637 C310 1.179 . S
C642 C55 1.267 . S
C667 C223 1.263 . S
C672 C142 1.182 . S
