# Generated by pormake.
# Topology uki, (4)-cn, num edge types: 1
# Building blocks:
#     Node 0, Type 0, BuildingBlock: QUQFOY_clean_sbu_3, # of connection points: 4
#     Node 1, Type 0, BuildingBlock: QUQFOY_clean_sbu_3, # of connection points: 4
#     Node 2, Type 0, BuildingBlock: QUQFOY_clean_sbu_3, # of connection points: 4
#     Node 3, Type 0, BuildingBlock: QUQFOY_clean_sbu_3, # of connection points: 4
#     Node 4, Type 0, BuildingBlock: QUQFOY_clean_sbu_3, # of connection points: 4
#     Node 5, Type 0, BuildingBlock: QUQFOY_clean_sbu_3, # of connection points: 4
#     Node 6, Type 0, BuildingBlock: QUQFOY_clean_sbu_3, # of connection points: 4
#     Node 7, Type 0, BuildingBlock: QUQFOY_clean_sbu_3, # of connection points: 4
#     Node 8, Type 0, BuildingBlock: QUQFOY_clean_sbu_3, # of connection points: 4
#     Node 9, Type 0, BuildingBlock: QUQFOY_clean_sbu_3, # of connection points: 4
#     Node 10, Type 0, BuildingBlock: QUQFOY_clean_sbu_3, # of connection points: 4
#     Node 11, Type 0, BuildingBlock: QUQFOY_clean_sbu_3, # of connection points: 4
#     Node 12, Type 0, BuildingBlock: QUQFOY_clean_sbu_3, # of connection points: 4
#     Node 13, Type 0, BuildingBlock: QUQFOY_clean_sbu_3, # of connection points: 4
#     Node 14, Type 0, BuildingBlock: QUQFOY_clean_sbu_3, # of connection points: 4
#     Node 15, Type 0, BuildingBlock: QUQFOY_clean_sbu_3, # of connection points: 4
#     Edge 16, Type (0, 0), BuildingBlock: TEMPAE_clean_linker_10, # of connection points: 2
#     Edge 17, Type (0, 0), BuildingBlock: TEMPAE_clean_linker_10, # of connection points: 2
#     Edge 18, Type (0, 0), BuildingBlock: TEMPAE_clean_linker_10, # of connection points: 2
#     Edge 19, Type (0, 0), BuildingBlock: TEMPAE_clean_linker_10, # of connection points: 2
#     Edge 20, Type (0, 0), BuildingBlock: TEMPAE_clean_linker_10, # of connection points: 2
#     Edge 21, Type (0, 0), BuildingBlock: TEMPAE_clean_linker_10, # of connection points: 2
#     Edge 22, Type (0, 0), BuildingBlock: TEMPAE_clean_linker_10, # of connection points: 2
#     Edge 23, Type (0, 0), BuildingBlock: TEMPAE_clean_linker_10, # of connection points: 2
#     Edge 24, Type (0, 0), BuildingBlock: TEMPAE_clean_linker_10, # of connection points: 2
#     Edge 25, Type (0, 0), BuildingBlock: TEMPAE_clean_linker_10, # of connection points: 2
#     Edge 26, Type (0, 0), BuildingBlock: TEMPAE_clean_linker_10, # of connection points: 2
#     Edge 27, Type (0, 0), BuildingBlock: TEMPAE_clean_linker_10, # of connection points: 2
#     Edge 28, Type (0, 0), BuildingBlock: TEMPAE_clean_linker_10, # of connection points: 2
#     Edge 29, Type (0, 0), BuildingBlock: TEMPAE_clean_linker_10, # of connection points: 2
#     Edge 30, Type (0, 0), BuildingBlock: TEMPAE_clean_linker_10, # of connection points: 2
#     Edge 31, Type (0, 0), BuildingBlock: TEMPAE_clean_linker_10, # of connection points: 2
#     Edge 32, Type (0, 0), BuildingBlock: TEMPAE_clean_linker_10, # of connection points: 2
#     Edge 33, Type (0, 0), BuildingBlock: TEMPAE_clean_linker_10, # of connection points: 2
#     Edge 34, Type (0, 0), BuildingBlock: TEMPAE_clean_linker_10, # of connection points: 2
#     Edge 35, Type (0, 0), BuildingBlock: TEMPAE_clean_linker_10, # of connection points: 2
#     Edge 36, Type (0, 0), BuildingBlock: TEMPAE_clean_linker_10, # of connection points: 2
#     Edge 37, Type (0, 0), BuildingBlock: TEMPAE_clean_linker_10, # of connection points: 2
#     Edge 38, Type (0, 0), BuildingBlock: TEMPAE_clean_linker_10, # of connection points: 2
#     Edge 39, Type (0, 0), BuildingBlock: TEMPAE_clean_linker_10, # of connection points: 2
#     Edge 40, Type (0, 0), BuildingBlock: TEMPAE_clean_linker_10, # of connection points: 2
#     Edge 41, Type (0, 0), BuildingBlock: TEMPAE_clean_linker_10, # of connection points: 2
#     Edge 42, Type (0, 0), BuildingBlock: TEMPAE_clean_linker_10, # of connection points: 2
#     Edge 43, Type (0, 0), BuildingBlock: TEMPAE_clean_linker_10, # of connection points: 2
#     Edge 44, Type (0, 0), BuildingBlock: TEMPAE_clean_linker_10, # of connection points: 2
#     Edge 45, Type (0, 0), BuildingBlock: TEMPAE_clean_linker_10, # of connection points: 2
#     Edge 46, Type (0, 0), BuildingBlock: TEMPAE_clean_linker_10, # of connection points: 2
#     Edge 47, Type (0, 0), BuildingBlock: TEMPAE_clean_linker_10, # of connection points: 2
# Relax obj value: 0.096
# Max RMSD: 0.201
# Mean RMSD: 0.199
data_MOF--net-uki--node1-QUQFOY_clean_sbu_3--edge1-TEMPAE_clean_linker_10
_symmetry_space_group_name_H-M    P1
_symmetry_Int_Tables_number       1
_symmetry_cell_setting            triclinic
loop_
_symmetry_equiv_pos_as_xyz
'x, y, z'
_cell_length_a     31.726251
_cell_length_b     31.432433
_cell_length_c     75.495702
_cell_angle_alpha  89.989938
_cell_angle_beta   89.962487
_cell_angle_gamma 89.977521
loop_
_atom_site_label
_atom_site_type_symbol
_atom_site_fract_x
_atom_site_fract_y
_atom_site_fract_z
_atom_type_partial_charge
C0 C 0.08108 0.12086 0.23743 0.0
O1 O 0.08307 0.14902 0.2254 0.0
Cd2 Cd 0.10304 0.22168 0.22972 0.0
O3 O 0.09241 0.12927 0.25324 0.0
Cd4 Cd 0.11759 0.19281 0.26943 0.0
C5 C 0.02391 0.23777 0.25962 0.0
O6 O 0.1639 0.22802 0.24791 0.0
O7 O 0.13749 0.2669 0.2687 0.0
O8 O 0.17067 0.15481 0.28702 0.0
C9 C 0.1631 0.26356 0.25588 0.0
O10 O 0.04077 0.24843 0.24495 0.0
C11 C 0.15789 0.16908 0.30184 0.0
O12 O 0.04343 0.21424 0.27065 0.0
O13 O 0.12487 0.19197 0.30159 0.0
C14 C 0.21965 0.80803 0.75653 0.0
O15 O 0.19154 0.82437 0.76644 0.0
Cd16 Cd 0.13321 0.8682 0.7571 0.0
O17 O 0.21839 0.81263 0.73975 0.0
Cd18 Cd 0.17719 0.84634 0.71576 0.0
C19 C 0.19482 0.94331 0.73518 0.0
O20 O 0.10902 0.84345 0.7295 0.0
O21 O 0.11062 0.87413 0.70413 0.0
O22 O 0.1824 0.7856 0.69587 0.0
C23 C 0.08999 0.86607 0.71809 0.0
O24 O 0.17073 0.93148 0.74777 0.0
C25 C 0.20297 0.80526 0.68393 0.0
O26 O 0.20442 0.9183 0.72244 0.0
O27 O 0.21239 0.84389 0.68702 0.0
C28 C 0.89667 0.86356 0.23628 0.0
O29 O 0.89479 0.83584 0.22408 0.0
Cd30 Cd 0.87554 0.76285 0.22821 0.0
O31 O 0.88554 0.85447 0.25205 0.0
Cd32 Cd 0.86084 0.79043 0.26797 0.0
C33 C 0.95493 0.74674 0.25795 0.0
O34 O 0.81483 0.75481 0.24645 0.0
O35 O 0.84221 0.71613 0.26709 0.0
O36 O 0.80722 0.82808 0.28538 0.0
C37 C 0.81635 0.7192 0.25436 0.0
O38 O 0.93809 0.73634 0.24326 0.0
C39 C 0.81963 0.81379 0.30024 0.0
O40 O 0.9353 0.76983 0.26912 0.0
O41 O 0.85271 0.79097 0.30012 0.0
C42 C 0.76478 0.17308 0.7461 0.0
O43 O 0.79414 0.16526 0.75708 0.0
Cd44 Cd 0.85361 0.11972 0.75016 0.0
O45 O 0.76775 0.16133 0.73 0.0
Cd46 Cd 0.8123 0.12685 0.70761 0.0
C47 C 0.79559 0.03637 0.73136 0.0
O48 O 0.87933 0.13616 0.72167 0.0
O49 O 0.88007 0.09826 0.69799 0.0
O50 O 0.80544 0.1859 0.68717 0.0
C51 C 0.89957 0.11087 0.71166 0.0
O52 O 0.8181 0.05298 0.74352 0.0
C53 C 0.7873 0.16461 0.67505 0.0
O54 O 0.78641 0.05665 0.71719 0.0
O55 O 0.78014 0.12548 0.67819 0.0
C56 C 0.08928 0.3586 0.00012 0.0
O57 O 0.09131 0.33071 0.01225 0.0
Cd58 Cd 0.10868 0.25733 0.00779 0.0
O59 O 0.09921 0.34939 0.98422 0.0
Cd60 Cd 0.12133 0.28493 0.96789 0.0
C61 C 0.02696 0.24375 0.97904 0.0
O62 O 0.16802 0.24835 0.98884 0.0
O63 O 0.1389 0.21013 0.96849 0.0
O64 O 0.17373 0.32179 0.94957 0.0
C65 C 0.16547 0.21274 0.98098 0.0
O66 O 0.04447 0.23252 0.99348 0.0
C67 C 0.15945 0.30793 0.93494 0.0
O68 O 0.04647 0.26647 0.96771 0.0
O69 O 0.12619 0.28548 0.93566 0.0
C70 C 0.27239 0.80231 0.98839 0.0
O71 O 0.29602 0.81816 0.97648 0.0
Cd72 Cd 0.35814 0.8608 0.98044 0.0
O73 O 0.28076 0.80709 0.00481 0.0
Cd74 Cd 0.3323 0.84084 0.02512 0.0
C75 C 0.31068 0.93857 0.00644 0.0
O76 O 0.39215 0.83541 0.00595 0.0
O77 O 0.40665 0.85688 0.03204 0.0
O78 O 0.31877 0.78182 0.04551 0.0
C79 C 0.41826 0.8539 0.01606 0.0
O80 O 0.32866 0.92618 0.99224 0.0
C81 C 0.31635 0.80552 0.05915 0.0
O82 O 0.30565 0.91369 0.01969 0.0
O83 O 0.32031 0.84538 0.05683 0.0
C84 C 0.90966 0.61934 0.00093 0.0
O85 O 0.90863 0.64767 0.0129 0.0
Cd86 Cd 0.88976 0.72065 0.00833 0.0
O87 O 0.89794 0.62782 0.98518 0.0
Cd88 Cd 0.8736 0.69145 0.96888 0.0
C89 C 0.96842 0.73426 0.97809 0.0
O90 O 0.82847 0.72814 0.99041 0.0
O91 O 0.85499 0.76605 0.96934 0.0
O92 O 0.82005 0.65346 0.95158 0.0
C93 C 0.82973 0.76351 0.98231 0.0
O94 O 0.95217 0.74583 0.99275 0.0
C95 C 0.83315 0.66682 0.93667 0.0
O96 O 0.94812 0.71085 0.96728 0.0
O97 O 0.86626 0.68955 0.93677 0.0
C98 C 0.723 0.17365 0.99119 0.0
O99 O 0.69972 0.15781 0.97918 0.0
Cd100 Cd 0.63792 0.1147 0.98274 0.0
O101 O 0.71423 0.16872 0.00757 0.0
Cd102 Cd 0.66186 0.13453 0.02748 0.0
C103 C 0.68511 0.03719 0.00898 0.0
O104 O 0.60242 0.13944 0.00799 0.0
O105 O 0.58786 0.116 0.03381 0.0
O106 O 0.67273 0.19414 0.04785 0.0
C107 C 0.57648 0.11986 0.01784 0.0
O108 O 0.66732 0.04951 -0.00527 0.0
C109 C 0.67508 0.17072 0.06157 0.0
O110 O 0.6898 0.06205 0.02225 0.0
O111 O 0.67241 0.13073 0.05932 0.0
C112 C 0.57628 0.63169 0.76633 0.0
O113 O 0.58741 0.65098 0.75232 0.0
Cd114 Cd 0.60297 0.72563 0.7542 0.0
O115 O 0.58157 0.64854 0.78149 0.0
Cd116 Cd 0.61184 0.71057 0.79643 0.0
C117 C 0.51903 0.74806 0.78241 0.0
O118 O 0.65952 0.73848 0.77405 0.0
O119 O 0.63494 0.78335 0.79316 0.0
O120 O 0.66031 0.66723 0.81391 0.0
C121 C 0.65924 0.77614 0.78014 0.0
O122 O 0.53696 0.75136 0.76734 0.0
C123 C 0.65039 0.68379 0.8287 0.0
O124 O 0.53812 0.73203 0.79568 0.0
O125 O 0.62133 0.7117 0.82852 0.0
C126 C 0.71938 0.3121 0.2515 0.0
O127 O 0.69735 0.32897 0.26369 0.0
Cd128 Cd 0.63339 0.36915 0.26066 0.0
O129 O 0.70817 0.31448 0.23529 0.0
Cd130 Cd 0.6523 0.34457 0.21592 0.0
C131 C 0.67278 0.44519 0.23171 0.0
O132 O 0.59557 0.34003 0.23684 0.0
O133 O 0.57652 0.35799 0.2108 0.0
O134 O 0.6655 0.28382 0.19636 0.0
C135 C 0.56757 0.35696 0.22713 0.0
O136 O 0.65741 0.43412 0.24663 0.0
C137 C 0.66539 0.30605 0.18227 0.0
O138 O 0.67722 0.4187 0.21899 0.0
O139 O 0.65974 0.3459 0.1839 0.0
C140 C 0.39906 0.36773 0.76457 0.0
O141 O 0.38402 0.35282 0.7503 0.0
Cd142 Cd 0.38272 0.27677 0.74968 0.0
O143 O 0.40004 0.34513 0.77855 0.0
Cd144 Cd 0.3765 0.27743 0.79151 0.0
C145 C 0.4721 0.25947 0.77604 0.0
O146 O 0.33051 0.24718 0.76883 0.0
O147 O 0.3633 0.20331 0.78615 0.0
O148 O 0.32388 0.31339 0.8097 0.0
C149 C 0.33687 0.20903 0.77377 0.0
O150 O 0.45378 0.26287 0.76108 0.0
C151 C 0.33527 0.29649 0.82422 0.0
O152 O 0.4517 0.26249 0.79052 0.0
O153 O 0.36668 0.27134 0.82361 0.0
C154 C 0.2593 0.67108 0.24983 0.0
O155 O 0.28117 0.65445 0.26212 0.0
Cd156 Cd 0.3451 0.614 0.25951 0.0
O157 O 0.27062 0.66819 0.23364 0.0
Cd158 Cd 0.32664 0.63697 0.21463 0.0
C159 C 0.30589 0.53698 0.23106 0.0
O160 O 0.38328 0.64203 0.23556 0.0
O161 O 0.40232 0.62282 0.20967 0.0
O162 O 0.31466 0.69686 0.19448 0.0
C163 C 0.41122 0.62453 0.22599 0.0
O164 O 0.32128 0.54852 0.2459 0.0
C165 C 0.31474 0.67388 0.1806 0.0
O166 O 0.30141 0.56304 0.2182 0.0
O167 O 0.31964 0.63403 0.18263 0.0
C168 C 0.55877 0.84934 0.46766 0.0
O169 O 0.5678 0.82848 0.48154 0.0
Cd170 Cd 0.57497 0.75255 0.47943 0.0
O171 O 0.56155 0.83232 0.45241 0.0
Cd172 Cd 0.58472 0.7672 0.43716 0.0
C173 C 0.4896 0.73676 0.451 0.0
O174 O 0.62924 0.73394 0.45945 0.0
O175 O 0.60148 0.69224 0.43991 0.0
O176 O 0.6378 0.8074 0.42086 0.0
C177 C 0.62548 0.6966 0.45321 0.0
O178 O 0.50764 0.7326 0.466 0.0
C179 C 0.62783 0.79303 0.40571 0.0
O180 O 0.50922 0.75162 0.43762 0.0
O181 O 0.59667 0.76758 0.40508 0.0
C182 C 0.77836 0.30323 0.48255 0.0
O183 O 0.81007 0.32146 0.47563 0.0
Cd184 Cd 0.8525 0.37362 0.49123 0.0
O185 O 0.76884 0.30967 0.4987 0.0
Cd186 Cd 0.79125 0.34841 0.52514 0.0
C187 C 0.76741 0.43774 0.50254 0.0
O188 O 0.86695 0.35854 0.52145 0.0
O189 O 0.83335 0.40021 0.53947 0.0
O190 O 0.7961 0.28591 0.54356 0.0
C191 C 0.86779 0.39012 0.53206 0.0
O192 O 0.80161 0.43029 0.49422 0.0
C193 C 0.76877 0.29758 0.55486 0.0
O194 O 0.75292 0.41144 0.51396 0.0
O195 O 0.74982 0.33259 0.55189 0.0
C196 C 0.42288 0.13721 0.46851 0.0
O197 O 0.41549 0.15822 0.48252 0.0
Cd198 Cd 0.40715 0.23392 0.48048 0.0
O199 O 0.41817 0.15399 0.45329 0.0
Cd200 Cd 0.39301 0.21901 0.43852 0.0
C201 C 0.48926 0.25064 0.45046 0.0
O202 O 0.34965 0.25043 0.46167 0.0
O203 O 0.37389 0.2937 0.44193 0.0
O204 O 0.33987 0.17811 0.42248 0.0
C205 C 0.35124 0.28801 0.45557 0.0
O206 O 0.47297 0.25456 0.46583 0.0
C207 C 0.34869 0.19328 0.40732 0.0
O208 O 0.46808 0.23586 0.43751 0.0
O209 O 0.3791 0.2196 0.40658 0.0
C210 C 0.20413 0.67928 0.48953 0.0
O211 O 0.17213 0.66196 0.48244 0.0
Cd212 Cd 0.12709 0.61088 0.49721 0.0
O213 O 0.2133 0.67223 0.50568 0.0
Cd214 Cd 0.18932 0.63268 0.53188 0.0
C215 C 0.20907 0.54276 0.50856 0.0
O216 O 0.11392 0.62805 0.5272 0.0
O217 O 0.14143 0.58481 0.5462 0.0
O218 O 0.18934 0.69411 0.55112 0.0
C219 C 0.10894 0.59716 0.5379 0.0
O220 O 0.17548 0.55181 0.50009 0.0
C221 C 0.21528 0.67919 0.56234 0.0
O222 O 0.22414 0.56805 0.52023 0.0
O223 O 0.23136 0.64301 0.55888 0.0
C224 C 0.18089 0.34042 0.25769 0.0
C225 C 0.18632 0.30107 0.24928 0.0
C226 C 0.20239 0.37662 0.25185 0.0
C227 C 0.23023 0.37343 0.23726 0.0
C228 C 0.23559 0.33395 0.22853 0.0
C229 C 0.21348 0.29809 0.23466 0.0
C230 C 0.19579 0.41818 0.26155 0.0
C231 C 0.26513 0.32948 0.21297 0.0
C232 C 0.25629 0.48233 0.21907 0.0
C233 C 0.29146 0.49263 0.2294 0.0
C234 C 0.23768 0.4419 0.22032 0.0
C235 C 0.25512 0.41135 0.23202 0.0
C236 C 0.29303 0.42042 0.24111 0.0
C237 C 0.31059 0.46109 0.23977 0.0
C238 C 0.19737 0.43328 0.21035 0.0
C239 C 0.31308 0.38857 0.2535 0.0
H240 H 0.15986 0.34302 0.26897 0.0
H241 H 0.2177 0.26773 0.22809 0.0
H242 H 0.2259 0.42874 0.26759 0.0
H243 H 0.18568 0.44328 0.25213 0.0
H244 H 0.17175 0.41559 0.2722 0.0
H245 H 0.26378 0.29725 0.20696 0.0
H246 H 0.25736 0.35338 0.20266 0.0
H247 H 0.29796 0.33575 0.21729 0.0
H248 H 0.24163 0.50665 0.21096 0.0
H249 H 0.33834 0.46881 0.2475 0.0
H250 H 0.17034 0.43502 0.21967 0.0
H251 H 0.19764 0.40086 0.20456 0.0
H252 H 0.19213 0.4568 0.19959 0.0
H253 H 0.29405 0.38635 0.2658 0.0
H254 H 0.34573 0.39782 0.25717 0.0
H255 H 0.31386 0.35647 0.24741 0.0
C256 C 0.44637 0.73063 0.79259 0.0
C257 C 0.47379 0.75809 0.78357 0.0
C258 C 0.40248 0.73495 0.79088 0.0
C259 C 0.38597 0.76811 0.78025 0.0
C260 C 0.41368 0.79757 0.77211 0.0
C261 C 0.45729 0.7918 0.77366 0.0
C262 C 0.37404 0.70245 0.79946 0.0
C263 C 0.39733 0.83403 0.76102 0.0
C264 C 0.2838 0.76236 0.7547 0.0
C265 C 0.25806 0.78977 0.76456 0.0
C266 C 0.32452 0.75206 0.7605 0.0
C267 C 0.34014 0.77049 0.7763 0.0
C268 C 0.31325 0.79573 0.78694 0.0
C269 C 0.27227 0.80472 0.78102 0.0
C270 C 0.35184 0.72395 0.74903 0.0
C271 C 0.32883 0.81629 0.80378 0.0
H272 H 0.4592 0.70413 0.80004 0.0
H273 H 0.4786 0.81302 0.76671 0.0
H274 H 0.34741 0.7182 0.80637 0.0
H275 H 0.36037 0.68162 0.78908 0.0
H276 H 0.39126 0.68216 0.8091 0.0
H277 H 0.42277 0.85644 0.75713 0.0
H278 H 0.38247 0.82143 0.7488 0.0
H279 H 0.37282 0.85194 0.7684 0.0
H280 H 0.27277 0.75042 0.74205 0.0
H281 H 0.25257 0.8261 0.78868 0.0
H282 H 0.3684 0.69987 0.75722 0.0
H283 H 0.37623 0.7436 0.74239 0.0
H284 H 0.33326 0.70727 0.73867 0.0
H285 H 0.34664 0.79316 0.81197 0.0
H286 H 0.30257 0.82951 0.81182 0.0
H287 H 0.35068 0.84262 0.80038 0.0
C288 C 0.72168 0.49958 0.21895 0.0
C289 C 0.68725 0.48949 0.22978 0.0
C290 C 0.7404 0.54002 0.21982 0.0
C291 C 0.72385 0.5708 0.23164 0.0
C292 C 0.68661 0.56191 0.24127 0.0
C293 C 0.66892 0.52125 0.24029 0.0
C294 C 0.77992 0.54845 0.20926 0.0
C295 C 0.66753 0.59399 0.25383 0.0
C296 C 0.79957 0.64213 0.25625 0.0
C297 C 0.79328 0.68146 0.24792 0.0
C298 C 0.77796 0.60578 0.25067 0.0
C299 C 0.74912 0.60877 0.23643 0.0
C300 C 0.74302 0.64819 0.22773 0.0
C301 C 0.76525 0.68422 0.2336 0.0
C302 C 0.7854 0.56429 0.26032 0.0
C303 C 0.71244 0.65244 0.21253 0.0
H304 H 0.73573 0.47512 0.21072 0.0
H305 H 0.64172 0.51373 0.2484 0.0
H306 H 0.77926 0.58081 0.2034 0.0
H307 H 0.80765 0.54676 0.21819 0.0
H308 H 0.78429 0.5248 0.19848 0.0
H309 H 0.63521 0.58477 0.25802 0.0
H310 H 0.68755 0.59649 0.26583 0.0
H311 H 0.6662 0.62595 0.24764 0.0
H312 H 0.8213 0.63969 0.26727 0.0
H313 H 0.76037 0.71456 0.22708 0.0
H314 H 0.79482 0.53914 0.25081 0.0
H315 H 0.75579 0.55373 0.26681 0.0
H316 H 0.81026 0.56702 0.27062 0.0
H317 H 0.71922 0.62812 0.20227 0.0
H318 H 0.7137 0.68446 0.20632 0.0
H319 H 0.67988 0.6467 0.21732 0.0
C320 C 0.54327 0.28107 0.76624 0.0
C321 C 0.51796 0.25352 0.77618 0.0
C322 C 0.58627 0.27275 0.76385 0.0
C323 C 0.6038 0.23515 0.77107 0.0
C324 C 0.57875 0.20847 0.78198 0.0
C325 C 0.53601 0.21837 0.78461 0.0
C326 C 0.6121 0.30265 0.75257 0.0
C327 C 0.59605 0.16767 0.78961 0.0
C328 C 0.68758 0.18333 0.74269 0.0
C329 C 0.72449 0.19148 0.75231 0.0
C330 C 0.64825 0.19698 0.74883 0.0
C331 C 0.64572 0.22038 0.76481 0.0
C332 C 0.68292 0.22972 0.77442 0.0
C333 C 0.72194 0.21461 0.76816 0.0
C334 C 0.60929 0.18573 0.7383 0.0
C335 C 0.68143 0.25561 0.79123 0.0
H336 H 0.52909 0.30854 0.7599 0.0
H337 H 0.51613 0.19711 0.79224 0.0
H338 H 0.64345 0.30828 0.75864 0.0
H339 H 0.61739 0.28815 0.73936 0.0
H340 H 0.5961 0.33376 0.75067 0.0
H341 H 0.57445 0.1535 0.79958 0.0
H342 H 0.60075 0.14429 0.77877 0.0
H343 H 0.62717 0.17317 0.79588 0.0
H344 H 0.6892 0.16502 0.73053 0.0
H345 H 0.75041 0.221 0.77563 0.0
H346 H 0.59338 0.21516 0.73372 0.0
H347 H 0.58662 0.16821 0.7468 0.0
H348 H 0.61661 0.16582 0.72654 0.0
H349 H 0.66627 0.28681 0.78862 0.0
H350 H 0.71331 0.26125 0.79684 0.0
H351 H 0.66197 0.23907 0.80131 0.0
C352 C 0.25977 -0.00673 0.01764 0.0
C353 C 0.2943 0.9825 0.00697 0.0
C354 C 0.24032 0.03324 0.01601 0.0
C355 C 0.25619 0.06294 0.00356 0.0
C356 C 0.29305 0.05332 -0.0062 0.0
C357 C 0.31151 0.01313 -0.00443 0.0
C358 C 0.20111 0.04248 0.02667 0.0
C359 C 0.31134 0.08426 0.98056 0.0
C360 C 0.18043 0.13516 0.9793 0.0
C361 C 0.18806 0.17459 0.98734 0.0
C362 C 0.20156 0.09846 0.98487 0.0
C363 C 0.23128 0.10123 -0.00121 0.0
C364 C 0.23874 0.14077 0.00719 0.0
C365 C 0.21696 0.1771 0.00136 0.0
C366 C 0.19269 0.05684 0.97556 0.0
C367 C 0.27032 0.14481 0.02204 0.0
H368 H 0.24652 0.96971 0.02653 0.0
H369 H 0.33872 0.00519 0.98752 0.0
H370 H 0.20245 0.07494 0.0324 0.0
H371 H 0.17318 0.04117 0.01785 0.0
H372 H 0.19656 0.01915 0.03756 0.0
H373 H 0.34305 0.07428 0.97587 0.0
H374 H 0.29012 0.0865 0.96891 0.0
H375 H 0.3138 0.11653 0.9864 0.0
H376 H 0.15801 0.13291 0.96851 0.0
H377 H 0.22288 0.20751 0.00765 0.0
H378 H 0.18352 0.03217 0.98533 0.0
H379 H 0.22164 0.04551 0.96878 0.0
H380 H 0.16717 0.05975 0.96556 0.0
H381 H 0.26341 0.12124 0.03259 0.0
H382 H 0.27039 0.17715 0.02797 0.0
H383 H 0.30241 0.13778 0.01697 0.0
C384 C 0.21309 0.79402 0.96694 0.0
C385 C 0.23156 0.78335 0.98324 0.0
C386 C 0.17105 0.7834 0.96327 0.0
C387 C 0.14731 0.76097 0.97609 0.0
C388 C 0.16688 0.74706 0.99192 0.0
C389 C 0.2087 0.75877 -0.00461 0.0
C390 C 0.15123 0.79905 0.9463 0.0
C391 C 0.14284 0.72216 0.00574 0.0
C392 C 0.03073 0.78106 0.98218 0.0
C393 C 0.0131 0.74431 0.97479 0.0
C394 C 0.07432 0.78791 0.98175 0.0
C395 C 0.10095 0.75673 0.97411 0.0
C396 C 0.08317 0.72046 0.9659 0.0
C397 C 0.03926 0.71487 0.96618 0.0
C398 C 0.09199 0.82757 0.99027 0.0
C399 C 0.11057 0.68632 0.95782 0.0
H400 H 0.23055 0.81308 0.95748 0.0
H401 H 0.22298 0.75002 0.00791 0.0
H402 H 0.13238 0.77355 0.93997 0.0
H403 H 0.12944 0.8257 0.94934 0.0
H404 H 0.17518 0.81053 0.93668 0.0
H405 H 0.16392 0.70906 0.01614 0.0
H406 H 0.1193 0.7432 0.01219 0.0
H407 H 0.1254 0.69551 -0.00051 0.0
H408 H 0.01047 0.80396 0.98874 0.0
H409 H 0.02566 0.6862 0.96061 0.0
H410 H 0.11417 0.84371 0.9811 0.0
H411 H 0.10993 0.81882 0.00234 0.0
H412 H 0.06688 0.85047 -0.00592 0.0
H413 H 0.13493 0.70054 0.9491 0.0
H414 H 0.09191 0.66302 0.95002 0.0
H415 H 0.12727 0.66894 0.96852 0.0
C416 C 0.77968 0.79909 0.00336 0.0
C417 C 0.80737 0.8016 0.9889 0.0
C418 C 0.75812 0.83536 0.00942 0.0
C419 C 0.76459 0.87483 0.00081 0.0
C420 C 0.79311 0.87759 0.98643 0.0
C421 C 0.81403 0.84096 0.98064 0.0
C422 C 0.7278 0.83131 0.02474 0.0
C423 C 0.80092 0.91913 0.97689 0.0
C424 C 0.68364 0.9624 -0.00151 0.0
C425 C 0.70158 -0.00668 0.00953 0.0
C426 C 0.70214 0.92226 -0.0034 0.0
C427 C 0.73981 0.91301 0.00585 0.0
C428 C 0.75647 0.94302 0.01797 0.0
C429 C 0.73693 0.98292 0.01976 0.0
C430 C 0.68298 0.89099 0.98373 0.0
C431 C 0.79655 0.9342 0.02808 0.0
H432 H 0.77452 0.76874 0.00982 0.0
H433 H 0.83553 0.8432 0.96951 0.0
H434 H 0.73539 0.85508 0.03512 0.0
H435 H 0.69527 0.83802 0.02014 0.0
H436 H 0.72845 0.79906 0.03076 0.0
H437 H 0.82565 0.91627 0.96653 0.0
H438 H 0.77137 0.93015 0.97051 0.0
H439 H 0.81068 0.94402 0.98646 0.0
H440 H 0.65581 0.9701 0.9908 0.0
H441 H 0.75075 0.00674 0.02836 0.0
H442 H 0.68125 0.85879 0.98969 0.0
H443 H 0.70322 0.88873 0.97177 0.0
H444 H 0.65083 0.90067 0.97951 0.0
H445 H 0.79592 0.90181 0.0339 0.0
H446 H 0.80178 0.95771 0.03884 0.0
H447 H 0.82377 0.93561 0.01886 0.0
C448 C 0.7824 0.18266 0.96982 0.0
C449 C 0.76384 0.19284 0.98617 0.0
C450 C 0.82432 0.19371 0.96615 0.0
C451 C 0.8479 0.21611 0.97901 0.0
C452 C 0.82828 0.22942 -0.00507 0.0
C453 C 0.78657 0.21725 -0.00159 0.0
C454 C 0.84424 0.17857 0.94911 0.0
C455 C 0.85214 0.2543 0.00879 0.0
C456 C 0.96496 0.1971 0.98418 0.0
C457 C 0.98197 0.23385 0.97653 0.0
C458 C 0.92139 0.19005 0.98426 0.0
C459 C 0.89416 0.22107 0.97689 0.0
C460 C 0.91125 0.25754 0.96856 0.0
C461 C 0.95515 0.26329 0.96831 0.0
C462 C 0.90444 0.15018 0.99288 0.0
C463 C 0.88319 0.29157 0.96082 0.0
H464 H 0.76507 0.16373 0.96029 0.0
H465 H 0.77224 0.2256 0.01098 0.0
H466 H 0.86238 0.20454 0.94273 0.0
H467 H 0.86671 0.15245 0.95206 0.0
H468 H 0.82042 0.16656 0.93955 0.0
H469 H 0.83098 0.26696 0.01927 0.0
H470 H 0.87594 0.23339 0.01513 0.0
H471 H 0.86927 0.28125 0.00261 0.0
H472 H 0.98575 0.17424 0.99046 0.0
H473 H 0.96829 0.29199 0.96256 0.0
H474 H 0.88225 0.13376 0.98382 0.0
H475 H 0.88666 0.15871 0.00503 0.0
H476 H 0.92992 0.12761 -0.00342 0.0
H477 H 0.85909 0.2773 0.952 0.0
H478 H 0.90135 0.31563 0.9532 0.0
H479 H 0.86615 0.30804 0.97168 0.0
C480 C 0.67649 0.85305 0.77726 0.0
C481 C 0.68083 0.81138 0.77093 0.0
C482 C 0.69583 0.8872 0.76859 0.0
C483 C 0.72029 0.8795 0.75324 0.0
C484 C 0.72466 0.83757 0.74668 0.0
C485 C 0.70482 0.80389 0.75562 0.0
C486 C 0.69051 0.93152 0.77604 0.0
C487 C 0.75066 0.82829 0.73037 0.0
C488 C 0.74124 0.97971 0.72681 0.0
C489 C 0.77929 -0.00693 0.73437 0.0
C490 C 0.72267 0.94109 0.73198 0.0
C491 C 0.743 0.91543 0.74483 0.0
C492 C 0.78301 0.92732 0.75141 0.0
C493 C 0.80058 0.96609 0.74615 0.0
C494 C 0.68003 0.92926 0.72463 0.0
C495 C 0.80598 0.90063 0.76497 0.0
H496 H 0.65791 0.85909 0.78905 0.0
H497 H 0.70814 0.77173 0.75063 0.0
H498 H 0.72162 0.94434 0.7801 0.0
H499 H 0.67767 0.9531 0.76574 0.0
H500 H 0.66912 0.93225 0.78769 0.0
H501 H 0.74929 0.79422 0.72651 0.0
H502 H 0.73951 0.84792 0.7191 0.0
H503 H 0.78404 0.83699 0.73281 0.0
H504 H 0.72484 0.00045 0.71763 0.0
H505 H 0.83049 0.97596 0.75175 0.0
H506 H 0.65572 0.93377 0.73504 0.0
H507 H 0.67938 0.89527 0.7207 0.0
H508 H 0.67136 0.94906 0.713 0.0
H509 H 0.78926 0.9026 0.77786 0.0
H510 H 0.83899 0.91141 0.76695 0.0
H511 H 0.80637 0.86671 0.76093 0.0
C512 C 0.96283 0.28598 0.25482 0.0
C513 C 0.97947 0.24934 0.26272 0.0
C514 C 0.91949 0.29436 0.25529 0.0
C515 C 0.89205 0.26485 0.26353 0.0
C516 C 0.90883 0.22864 0.27217 0.0
C517 C 0.95254 0.22151 0.27181 0.0
C518 C 0.90293 0.33391 0.24629 0.0
C519 C 0.8805 0.19622 0.28088 0.0
C520 C 0.78144 0.30591 0.27169 0.0
C521 C 0.76114 0.29404 0.25593 0.0
C522 C 0.82365 0.2949 0.27479 0.0
C523 C 0.84577 0.27087 0.26196 0.0
C524 C 0.82456 0.25629 0.24661 0.0
C525 C 0.78258 0.26839 0.2437 0.0
C526 C 0.8453 0.31142 0.29121 0.0
C527 C 0.84686 0.22979 0.2328 0.0
H528 H 0.98369 0.30766 0.24788 0.0
H529 H 0.96531 0.19291 0.27779 0.0
H530 H 0.88402 0.32481 0.23453 0.0
H531 H 0.88187 0.35174 0.25538 0.0
H532 H 0.92869 0.35541 0.2419 0.0
H533 H 0.89863 0.17226 0.28857 0.0
H534 H 0.85769 0.21204 0.28986 0.0
H535 H 0.86199 0.17939 0.27058 0.0
H536 H 0.76513 0.32584 0.2812 0.0
H537 H 0.76693 0.25877 0.23158 0.0
H538 H 0.86828 0.33644 0.28742 0.0
H539 H 0.8632 0.28565 0.29785 0.0
H540 H 0.82261 0.32525 0.30084 0.0
H541 H 0.87075 0.24956 0.22591 0.0
H542 H 0.82473 0.21689 0.22275 0.0
H543 H 0.86373 0.20287 0.23914 0.0
C544 C 0.19353 0.01676 0.74724 0.0
C545 C 0.21254 0.98668 0.73607 0.0
C546 C 0.21268 0.05596 0.75059 0.0
C547 C 0.25181 0.0654 0.74253 0.0
C548 C 0.26955 0.03666 0.73014 0.0
C549 C 0.24963 -0.00256 0.72703 0.0
C550 C 0.19254 0.08578 0.76383 0.0
C551 C 0.31095 0.04603 0.7211 0.0
C552 C 0.2911 0.17807 0.74997 0.0
C553 C 0.31653 0.17246 0.76498 0.0
C554 C 0.27118 0.14317 0.74191 0.0
C555 C 0.27661 0.10203 0.74918 0.0
C556 C 0.30309 0.09616 0.76406 0.0
C557 C 0.32279 0.13141 0.77174 0.0
C558 C 0.24348 0.15043 0.72594 0.0
C559 C 0.30946 0.05281 0.77231 0.0
H560 H 0.16429 0.00904 0.75396 0.0
H561 H 0.26423 0.97445 0.71826 0.0
H562 H 0.2116 0.08622 0.77615 0.0
H563 H 0.19173 0.11871 0.75858 0.0
H564 H 0.15989 0.07604 0.76728 0.0
H565 H 0.31672 0.02439 0.70972 0.0
H566 H 0.31186 0.07941 0.71633 0.0
H567 H 0.33706 0.04201 0.73073 0.0
H568 H 0.28649 0.20972 0.7446 0.0
H569 H 0.34255 0.12681 0.78329 0.0
H570 H 0.21007 0.1447 0.72956 0.0
H571 H 0.25166 0.12767 0.71525 0.0
H572 H 0.24635 0.18334 0.72071 0.0
H573 H 0.27904 0.04088 0.77761 0.0
H574 H 0.33276 0.05341 0.78329 0.0
H575 H 0.3204 0.02977 0.76218 0.0
C576 C 0.02647 0.76319 0.2699 0.0
C577 C -0.00058 0.73524 0.26096 0.0
C578 C 0.07018 0.756 0.27017 0.0
C579 C 0.08682 0.7196 0.26162 0.0
C580 C 0.05926 0.69003 0.2535 0.0
C581 C 0.01593 0.69848 0.2531 0.0
C582 C 0.09864 0.78851 0.27873 0.0
C583 C 0.07567 0.65028 0.24461 0.0
C584 C 0.19637 0.71495 0.24182 0.0
C585 C 0.2176 0.68946 0.25416 0.0
C586 C 0.15445 0.7274 0.24468 0.0
C587 C 0.13308 0.7133 0.26008 0.0
C588 C 0.155 0.68941 0.27301 0.0
C589 C 0.19715 0.67808 0.26996 0.0
C590 C 0.13237 0.75374 0.23076 0.0
C591 C 0.13318 0.67336 0.28949 0.0
H592 H 0.01377 0.79189 0.27582 0.0
H593 H -0.00503 0.67673 0.24627 0.0
H594 H 0.12132 0.7728 0.2878 0.0
H595 H 0.1173 0.80494 0.26835 0.0
H596 H 0.08061 0.81278 0.28629 0.0
H597 H 0.04983 0.62883 0.24028 0.0
H598 H 0.09465 0.65911 0.23282 0.0
H599 H 0.09662 0.63249 0.25374 0.0
H600 H 0.21212 0.7242 0.22967 0.0
H601 H 0.2133 0.65827 0.27955 0.0
H602 H 0.11558 0.78086 0.23699 0.0
H603 H 0.10844 0.73395 0.22392 0.0
H604 H 0.15463 0.76634 0.22068 0.0
H605 H 0.11548 0.69941 0.29604 0.0
H606 H 0.15572 0.65952 0.29916 0.0
H607 H 0.11 0.64847 0.28578 0.0
C608 C 0.70284 0.48426 0.50358 0.0
C609 C 0.74468 0.47757 0.49828 0.0
C610 C 0.68083 0.52088 0.49816 0.0
C611 C 0.70127 0.55117 0.48722 0.0
C612 C 0.74395 0.5453 0.48246 0.0
C613 C 0.76508 0.50871 0.48806 0.0
C614 C 0.63539 0.52646 0.5036 0.0
C615 C 0.76695 0.57685 0.47083 0.0
C616 C 0.64125 0.61898 0.45443 0.0
C617 C 0.64329 0.6592 0.46239 0.0
C618 C 0.65838 0.58313 0.46278 0.0
C619 C 0.67776 0.58759 0.47956 0.0
C620 C 0.67867 0.62783 0.48795 0.0
C621 C 0.66161 0.66329 0.4792 0.0
C622 C 0.65725 0.5408 0.45331 0.0
C623 C 0.69881 0.63367 0.5059 0.0
H624 H 0.68696 0.46045 0.51154 0.0
H625 H 0.79762 0.50422 0.4841 0.0
H626 H 0.63032 0.55871 0.50918 0.0
H627 H 0.61478 0.52349 0.4918 0.0
H628 H 0.62541 0.50244 0.51355 0.0
H629 H 0.80075 0.56857 0.46907 0.0
H630 H 0.75189 0.57801 0.45757 0.0
H631 H 0.76492 0.60925 0.47658 0.0
H632 H 0.62694 0.61559 0.44146 0.0
H633 H 0.66281 0.69421 0.48552 0.0
H634 H 0.64388 0.51593 0.46208 0.0
H635 H 0.68982 0.5309 0.44986 0.0
H636 H 0.63832 0.54206 0.44094 0.0
H637 H 0.6868 0.60949 0.51535 0.0
H638 H 0.69281 0.66584 0.51146 0.0
H639 H 0.73337 0.62902 0.5048 0.0
C640 C 0.72016 0.25133 0.47883 0.0
C641 C 0.74675 0.28195 0.47131 0.0
C642 C 0.68138 0.24139 0.471 0.0
C643 C 0.66869 0.26332 0.4555 0.0
C644 C 0.69763 0.29035 0.44672 0.0
C645 C 0.73666 0.29916 0.4547 0.0
C646 C 0.65203 0.21123 0.4805 0.0
C647 C 0.68556 0.31393 0.43007 0.0
C648 C 0.56035 0.23234 0.43836 0.0
C649 C 0.5347 0.25926 0.44853 0.0
C650 C 0.60454 0.23469 0.43958 0.0
C651 C 0.62307 0.265 0.45105 0.0
C652 C 0.59712 0.29449 0.46017 0.0
C653 C 0.55327 0.29093 0.45893 0.0
C654 C 0.63098 0.20267 0.42967 0.0
C655 C 0.61552 0.32804 0.47224 0.0
H656 H 0.72817 0.23765 0.49158 0.0
H657 H 0.75716 0.3229 0.44884 0.0
H658 H 0.62739 0.2298 0.48753 0.0
H659 H 0.63594 0.18993 0.47094 0.0
H660 H 0.66898 0.19143 0.49039 0.0
H661 H 0.71377 0.32557 0.42282 0.0
H662 H 0.66672 0.29345 0.42111 0.0
H663 H 0.66588 0.34183 0.43366 0.0
H664 H 0.54598 0.20758 0.4304 0.0
H665 H 0.53338 0.31197 0.46668 0.0
H666 H 0.64009 0.17663 0.43882 0.0
H667 H 0.6604 0.21731 0.42458 0.0
H668 H 0.61339 0.18848 0.41841 0.0
H669 H 0.62972 0.31256 0.48403 0.0
H670 H 0.59137 0.35112 0.47686 0.0
H671 H 0.64088 0.34582 0.46535 0.0
C672 C 0.20992 0.47233 0.49356 0.0
C673 C 0.23094 0.50265 0.50396 0.0
C674 C 0.23062 0.436 0.48736 0.0
C675 C 0.27347 0.42959 0.4917 0.0
C676 C 0.29446 0.4589 0.5029 0.0
C677 C 0.27288 0.49523 0.50893 0.0
C678 C 0.20702 0.40544 0.47551 0.0
C679 C 0.34009 0.45277 0.50791 0.0
C680 C 0.31444 0.31862 0.48199 0.0
C681 C 0.33253 0.32432 0.4652 0.0
C682 C 0.29667 0.35304 0.49119 0.0
C683 C 0.2967 0.3939 0.48331 0.0
C684 C 0.31562 0.39993 0.46651 0.0
C685 C 0.3334 0.36507 0.45768 0.0
C686 C 0.27695 0.34551 0.50912 0.0
C687 C 0.31591 0.44296 0.45759 0.0
H688 H 0.17729 0.47741 0.48986 0.0
H689 H 0.28926 0.51842 0.51701 0.0
H690 H 0.22121 0.40569 0.46207 0.0
H691 H 0.20962 0.37251 0.48068 0.0
H692 H 0.17309 0.41368 0.47431 0.0
H693 H 0.35049 0.47582 0.51817 0.0
H694 H 0.34535 0.42001 0.51293 0.0
H695 H 0.36023 0.45686 0.49601 0.0
H696 H 0.31404 0.28725 0.48793 0.0
H697 H 0.34748 0.3697 0.44472 0.0
H698 H 0.24238 0.35046 0.50829 0.0
H699 H 0.28935 0.36869 0.51889 0.0
H700 H 0.28292 0.31281 0.5141 0.0
H701 H 0.28309 0.45293 0.45465 0.0
H702 H 0.3341 0.44281 0.44501 0.0
H703 H 0.32968 0.46721 0.46655 0.0
C704 C 0.41668 0.75635 0.44162 0.0
C705 C 0.44411 0.72787 0.45006 0.0
C706 C 0.37285 0.75339 0.44419 0.0
C707 C 0.35652 0.72085 0.45521 0.0
C708 C 0.3841 0.68997 0.46248 0.0
C709 C 0.42758 0.69419 0.45998 0.0
C710 C 0.34462 0.78698 0.43626 0.0
C711 C 0.36801 0.6541 0.47397 0.0
C712 C 0.26415 0.72943 0.48616 0.0
C713 C 0.23589 0.7008 0.47838 0.0
C714 C 0.30189 0.74032 0.47765 0.0
C715 C 0.31185 0.72135 0.46115 0.0
C716 C 0.28137 0.69616 0.45238 0.0
C717 C 0.24342 0.68639 0.46108 0.0
C718 C 0.333 0.76842 0.48724 0.0
C719 C 0.2906 0.67563 0.43474 0.0
H720 H 0.42956 0.78267 0.43408 0.0
H721 H 0.4489 0.67205 0.4664 0.0
H722 H 0.31464 0.77297 0.43146 0.0
H723 H 0.33665 0.81078 0.44658 0.0
H724 H 0.36025 0.80382 0.42511 0.0
H725 H 0.39294 0.63033 0.47696 0.0
H726 H 0.35613 0.66718 0.48669 0.0
H727 H 0.34138 0.63759 0.4674 0.0
H728 H 0.25812 0.74104 0.49945 0.0
H729 H 0.22163 0.66423 0.45499 0.0
H730 H 0.34752 0.79157 0.47798 0.0
H731 H 0.35868 0.74849 0.4928 0.0
H732 H 0.31795 0.78617 0.49829 0.0
H733 H 0.3079 0.69773 0.42588 0.0
H734 H 0.26127 0.66513 0.42801 0.0
H735 H 0.31088 0.6473 0.43686 0.0
C736 C 0.32696 0.20691 0.37599 0.0
C737 C 0.32297 0.18281 0.39152 0.0
C738 C 0.29998 0.20024 0.36152 0.0
C739 C 0.26856 0.1683 0.36251 0.0
C740 C 0.26551 0.14266 0.37788 0.0
C741 C 0.29256 0.15042 0.39226 0.0
C742 C 0.30407 0.22851 0.34543 0.0
C743 C 0.2329 0.10787 0.37933 0.0
C744 C 0.17288 0.18739 0.33341 0.0
C745 C 0.18291 0.16359 0.31827 0.0
C746 C 0.19979 0.18797 0.34816 0.0
C747 C 0.23742 0.16374 0.34787 0.0
C748 C 0.2465 0.1377 0.33304 0.0
C749 C 0.21926 0.13814 0.31836 0.0
C750 C 0.18899 0.2163 0.36367 0.0
C751 C 0.28589 0.11081 0.33236 0.0
H752 H 0.35031 0.23203 0.37533 0.0
H753 H 0.28944 0.13149 0.40419 0.0
H754 H 0.30808 0.20891 0.33333 0.0
H755 H 0.27481 0.24743 0.34374 0.0
H756 H 0.33116 0.25075 0.34646 0.0
H757 H 0.23713 0.08829 0.39146 0.0
H758 H 0.20091 0.1221 0.37962 0.0
H759 H 0.23444 0.08672 0.36758 0.0
H760 H 0.14489 0.20717 0.33347 0.0
H761 H 0.22715 0.11953 0.30673 0.0
H762 H 0.21282 0.242 0.3648 0.0
H763 H 0.18983 0.19788 0.3762 0.0
H764 H 0.15736 0.23112 0.36232 0.0
H765 H 0.31396 0.13173 0.33144 0.0
H766 H 0.28602 0.08884 0.32084 0.0
H767 H 0.28909 0.09183 0.34468 0.0
C768 C 0.25195 0.68529 0.59169 0.0
C769 C 0.22257 0.70103 0.57945 0.0
C770 C 0.25485 0.70263 0.60882 0.0
C771 C 0.22722 0.73589 0.61386 0.0
C772 C 0.19876 0.75302 0.60131 0.0
C773 C 0.19705 0.73563 0.58423 0.0
C774 C 0.28627 0.68421 0.62172 0.0
C775 C 0.16844 0.78822 0.60618 0.0
C776 C 0.19213 0.74767 0.66164 0.0
C777 C 0.21302 0.78498 0.66675 0.0
C778 C 0.19765 0.73053 0.64464 0.0
C779 C 0.22536 0.75074 0.63257 0.0
C780 C 0.24827 0.78712 0.63798 0.0
C781 C 0.24149 0.8041 0.65496 0.0
C782 C 0.17219 0.69199 0.63932 0.0
C783 C 0.27876 0.80901 0.62562 0.0
H784 H 0.27192 0.6587 0.58805 0.0
H785 H 0.17425 0.74801 0.57487 0.0
H786 H 0.30418 0.71003 0.62833 0.0
H787 H 0.26934 0.66632 0.6322 0.0
H788 H 0.30889 0.66231 0.61515 0.0
H789 H 0.14977 0.79941 0.59464 0.0
H790 H 0.14632 0.77674 0.61652 0.0
H791 H 0.18579 0.8157 0.6118 0.0
H792 H 0.17004 0.73278 0.67067 0.0
H793 H 0.25801 0.83275 0.6589 0.0
H794 H 0.19321 0.66674 0.63409 0.0
H795 H 0.15003 0.70076 0.62855 0.0
H796 H 0.15373 0.67873 0.65054 0.0
H797 H 0.30042 0.78544 0.61953 0.0
H798 H 0.29778 0.83363 0.6325 0.0
H799 H 0.26111 0.8245 0.6147 0.0
C800 C 0.64863 0.77913 0.37426 0.0
C801 C 0.65333 0.80311 0.38979 0.0
C802 C 0.67567 0.78515 0.35974 0.0
C803 C 0.70786 0.81632 0.36067 0.0
C804 C 0.71156 0.84192 0.37601 0.0
C805 C 0.68445 0.8348 0.39044 0.0
C806 C 0.67087 0.75694 0.34368 0.0
C807 C 0.74497 0.87594 0.37741 0.0
C808 C 0.80347 0.79519 0.3317 0.0
C809 C 0.79423 0.81936 0.31657 0.0
C810 C 0.77627 0.79501 0.34637 0.0
C811 C 0.73915 0.82004 0.34602 0.0
C812 C 0.73082 0.84632 0.33119 0.0
C813 C 0.75832 0.84546 0.31658 0.0
C814 C 0.78624 0.76637 0.36188 0.0
C815 C 0.69201 0.87406 0.33046 0.0
H816 H 0.62475 0.75453 0.37367 0.0
H817 H 0.68813 0.85364 0.40237 0.0
H818 H 0.66748 0.77659 0.33156 0.0
H819 H 0.69961 0.7372 0.34201 0.0
H820 H 0.64317 0.73548 0.34472 0.0
H821 H 0.74116 0.89573 0.38949 0.0
H822 H 0.77662 0.86094 0.37774 0.0
H823 H 0.74401 0.89699 0.36562 0.0
H824 H 0.83109 0.77489 0.33181 0.0
H825 H 0.75104 0.86435 0.30497 0.0
H826 H 0.76169 0.74138 0.36304 0.0
H827 H 0.78592 0.78483 0.3744 0.0
H828 H 0.81744 0.75064 0.36052 0.0
H829 H 0.66349 0.85376 0.3296 0.0
H830 H 0.69237 0.89588 0.31889 0.0
H831 H 0.68923 0.89326 0.34274 0.0
C832 C 0.7509 0.16307 0.64559 0.0
C833 C 0.77698 0.18414 0.65775 0.0
C834 C 0.74333 0.18025 0.6287 0.0
C835 C 0.76302 0.2189 0.62378 0.0
C836 C 0.78848 0.24081 0.63619 0.0
C837 C 0.79483 0.22335 0.65306 0.0
C838 C 0.71531 0.15644 0.61595 0.0
C839 C 0.81055 0.28182 0.63139 0.0
C840 C 0.79109 0.24081 0.5759 0.0
C841 C 0.76284 0.27352 0.57154 0.0
C842 C 0.79035 0.22162 0.59265 0.0
C843 C 0.76013 0.23491 0.60528 0.0
C844 C 0.72983 0.26606 0.60061 0.0
C845 C 0.73177 0.28533 0.58382 0.0
C846 C 0.82353 0.18886 0.59714 0.0
C847 C 0.69654 0.28034 0.61361 0.0
H848 H 0.73673 0.13291 0.6492 0.0
H849 H 0.81506 0.23979 0.66239 0.0
H850 H 0.69152 0.17823 0.61015 0.0
H851 H 0.73451 0.14372 0.60487 0.0
H852 H 0.69873 0.12947 0.62243 0.0
H853 H 0.82783 0.29578 0.64279 0.0
H854 H 0.83337 0.27588 0.62052 0.0
H855 H 0.78743 0.30553 0.6265 0.0
H856 H 0.8152 0.23145 0.56649 0.0
H857 H 0.70969 0.31041 0.5805 0.0
H858 H 0.80861 0.15957 0.6024 0.0
H859 H 0.84452 0.20151 0.60765 0.0
H860 H 0.84318 0.18018 0.5855 0.0
H861 H 0.68095 0.25242 0.61978 0.0
H862 H 0.67213 0.30053 0.60724 0.0
H863 H 0.71149 0.2989 0.62441 0.0
C864 C 0.21879 0.33965 0.9174 0.0
C865 C 0.1827 0.3139 0.91809 0.0
C866 C 0.24394 0.34132 0.90208 0.0
C867 C 0.233 0.31625 0.8872 0.0
C868 C 0.19577 0.29144 0.8876 0.0
C869 C 0.17096 0.29077 0.90299 0.0
C870 C 0.283 0.36873 0.90205 0.0
C871 C 0.18309 0.26408 0.87204 0.0
C872 C 0.28029 0.33559 0.84161 0.0
C873 C 0.31157 0.30405 0.84084 0.0
C874 C 0.25542 0.34099 0.85685 0.0
C875 C 0.2616 0.31382 0.87157 0.0
C876 C 0.29381 0.28261 0.87103 0.0
C877 C 0.31858 0.27829 0.85571 0.0
C878 C 0.22183 0.37502 0.85702 0.0
C879 C 0.30119 0.25278 0.8864 0.0
H880 H 0.22799 0.35773 0.92899 0.0
H881 H 0.14317 0.27074 0.9034 0.0
H882 H 0.31143 0.34821 0.90157 0.0
H883 H 0.28361 0.38924 0.89009 0.0
H884 H 0.28499 0.38928 0.91399 0.0
H885 H 0.15219 0.24824 0.87414 0.0
H886 H 0.18126 0.28357 0.85982 0.0
H887 H 0.20734 0.23921 0.86978 0.0
H888 H 0.27484 0.35579 0.83019 0.0
H889 H 0.34262 0.25381 0.85521 0.0
H890 H 0.22511 0.39522 0.86899 0.0
H891 H 0.19021 0.36001 0.8576 0.0
H892 H 0.22327 0.39569 0.8451 0.0
H893 H 0.30683 0.27118 0.89871 0.0
H894 H 0.32848 0.2313 0.88414 0.0
H895 H 0.27268 0.23303 0.88862 0.0
C896 C 0.33636 0.67686 0.14898 0.0
C897 C 0.31134 0.69268 0.16277 0.0
C898 C 0.33544 0.6956 0.13212 0.0
C899 C 0.30748 0.72983 0.12881 0.0
C900 C 0.281 0.74492 0.14257 0.0
C901 C 0.28395 0.72674 0.15954 0.0
C902 C 0.36532 0.67961 0.11803 0.0
C903 C 0.24964 0.78022 0.13937 0.0
C904 C 0.33431 0.80532 0.09119 0.0
C905 C 0.31182 0.78746 0.07707 0.0
C906 C 0.33309 0.78692 0.10811 0.0
C907 C 0.30735 0.75082 0.11113 0.0
C908 C 0.28318 0.73373 0.09704 0.0
C909 C 0.28645 0.75172 0.08005 0.0
C910 C 0.36056 0.80516 0.12257 0.0
C911 C 0.25414 0.69632 0.09989 0.0
H912 H 0.35779 0.6507 0.15157 0.0
H913 H 0.26437 0.73868 0.17022 0.0
H914 H 0.34738 0.66813 0.10638 0.0
H915 H 0.38581 0.70602 0.11344 0.0
H916 H 0.38568 0.6533 0.12288 0.0
H917 H 0.22896 0.78579 0.15103 0.0
H918 H 0.26649 0.81021 0.13628 0.0
H919 H 0.22961 0.77246 0.12777 0.0
H920 H 0.35424 0.83275 0.08881 0.0
H921 H 0.26884 0.73815 0.06912 0.0
H922 H 0.38284 0.78046 0.12734 0.0
H923 H 0.34097 0.81492 0.13403 0.0
H924 H 0.379 0.83313 0.118 0.0
H925 H 0.27287 0.66752 0.10306 0.0
H926 H 0.23452 0.68952 0.08804 0.0
H927 H 0.23302 0.70246 0.11134 0.0
C928 C 0.77233 0.6347 0.9202 0.0
C929 C 0.80868 0.66012 0.92018 0.0
C930 C 0.74587 0.63282 0.90529 0.0
C931 C 0.75576 0.65736 0.89012 0.0
C932 C 0.79337 0.68159 0.88976 0.0
C933 C 0.81948 0.68246 0.90475 0.0
C934 C 0.70646 0.606 0.90605 0.0
C935 C 0.805 0.70837 0.87388 0.0
C936 C 0.70382 0.64065 0.84529 0.0
C937 C 0.67388 0.67353 0.84511 0.0
C938 C 0.72947 0.63365 0.86018 0.0
C939 C 0.72545 0.66055 0.87512 0.0
C940 C 0.69422 0.69278 0.87525 0.0
C941 C 0.66866 0.69869 0.86029 0.0
C942 C 0.7619 0.59851 0.85966 0.0
C943 C 0.68908 0.72233 0.89087 0.0
H944 H 0.76387 0.61719 0.93205 0.0
H945 H 0.8475 0.70218 0.90461 0.0
H946 H 0.67834 0.62698 0.90639 0.0
H947 H 0.70389 0.58588 0.89403 0.0
H948 H 0.70576 0.58512 0.91793 0.0
H949 H 0.83649 0.72343 0.8753 0.0
H950 H 0.80499 0.68867 0.86169 0.0
H951 H 0.78117 0.73384 0.87204 0.0
H952 H 0.70788 0.6209 0.83364 0.0
H953 H 0.64563 0.72417 0.86025 0.0
H954 H 0.75985 0.57877 0.87182 0.0
H955 H 0.79398 0.61252 0.85927 0.0
H956 H 0.75798 0.57758 0.84792 0.0
H957 H 0.68456 0.70375 0.90322 0.0
H958 H 0.66192 0.74431 0.88926 0.0
H959 H 0.71812 0.74158 0.89256 0.0
C960 C 0.6552 0.17083 0.09342 0.0
C961 C 0.67797 0.18918 0.07948 0.0
C962 C 0.65468 0.18963 0.11027 0.0
C963 C 0.67892 0.2267 0.11341 0.0
C964 C 0.70342 0.24431 0.09953 0.0
C965 C 0.70189 0.22586 0.08258 0.0
C966 C 0.6269 0.17076 0.1245 0.0
C967 C 0.73093 0.28281 0.10253 0.0
C968 C 0.64521 0.30083 0.15054 0.0
C969 C 0.67001 0.28641 0.16465 0.0
C970 C 0.64763 0.28147 0.13383 0.0
C971 C 0.67689 0.2481 0.13099 0.0
C972 C 0.70304 0.23438 0.1451 0.0
C973 C 0.6986 0.25311 0.1619 0.0
C974 C 0.61807 0.29597 0.11936 0.0
C975 C 0.73573 0.20007 0.14242 0.0
H976 H 0.63637 0.14268 0.09094 0.0
H977 H 0.71971 0.23983 0.07179 0.0
H978 H 0.64603 0.16207 0.13624 0.0
H979 H 0.6034 0.19472 0.12888 0.0
H980 H 0.60985 0.14198 0.11987 0.0
H981 H 0.75112 0.29001 0.09088 0.0
H982 H 0.71099 0.31101 0.10533 0.0
H983 H 0.75144 0.27773 0.11424 0.0
H984 H 0.62286 0.3264 0.15275 0.0
H985 H 0.71802 0.24228 0.17282 0.0
H986 H 0.59892 0.26867 0.11465 0.0
H987 H 0.63631 0.30792 0.10786 0.0
H988 H 0.59641 0.32154 0.12387 0.0
H989 H 0.7201 0.16949 0.13921 0.0
H990 H 0.7557 0.19537 0.15434 0.0
H991 H 0.75636 0.2083 0.13104 0.0
C992 C 0.95144 0.90507 0.22022 0.0
C993 C 0.91916 0.90388 0.23293 0.0
C994 C 0.97892 0.93988 0.21914 0.0
C995 C 0.97321 0.97477 0.23072 0.0
C996 C 0.93901 0.97492 0.2428 0.0
C997 C 0.91273 0.93913 0.24395 0.0
C998 C 0.01551 0.93817 0.20635 0.0
C999 C 0.93116 0.01218 0.25499 0.0
C1000 C 0.06449 0.04509 0.2446 0.0
C1001 C 0.05835 0.08081 0.23382 0.0
C1002 C 0.03816 0.0094 0.24311 0.0
C1003 C 0.00423 0.01013 0.23092 0.0
C1004 C -0.00122 0.04554 0.21959 0.0
C1005 C 0.0263 0.08024 0.22102 0.0
C1006 C 0.04572 0.97158 0.25503 0.0
C1007 C 0.96245 0.04788 0.20671 0.0
H1008 H 0.95692 0.87763 0.21183 0.0
H1009 H 0.88778 0.93829 0.25376 0.0
H1010 H 0.01665 0.96744 0.19817 0.0
H1011 H 0.04549 0.93653 0.21389 0.0
H1012 H 0.0138 0.91017 0.1974 0.0
H1013 H 0.90093 0.00912 0.26231 0.0
H1014 H 0.95714 0.0146 0.26476 0.0
H1015 H 0.93066 0.04231 0.24732 0.0
H1016 H 0.08926 0.04544 0.25449 0.0
H1017 H 0.02105 0.10804 0.21281 0.0
H1018 H 0.04644 0.94182 0.24713 0.0
H1019 H 0.01948 0.96869 0.26468 0.0
H1020 H 0.07576 0.97432 0.2625 0.0
H1021 H 0.96154 0.01903 0.19827 0.0
H1022 H 0.96432 0.07633 0.19801 0.0
H1023 H 0.93231 0.04909 0.21416 0.0
C1024 C 0.96912 0.07608 0.70809 0.0
C1025 C 0.93323 0.08317 0.71842 0.0
C1026 C -0.0047 0.04093 0.71133 0.0
C1027 C 0.98386 0.01115 0.7246 0.0
C1028 C 0.94888 0.0195 0.73568 0.0
C1029 C 0.92449 0.05598 0.73265 0.0
C1030 C 0.03355 0.03418 0.69976 0.0
C1031 C 0.93469 0.98809 0.7496 0.0
C1032 C 0.02107 0.90057 0.7123 0.0
C1033 C 0.05659 0.89619 0.72309 0.0
C1034 C -0.00505 0.93647 0.71374 0.0
C1035 C 0.00611 0.96961 0.72559 0.0
C1036 C 0.04082 0.96428 0.73711 0.0
C1037 C 0.06512 0.92714 0.73593 0.0
C1038 C 0.95699 0.94011 0.70179 0.0
C1039 C 0.05471 -0.00076 0.74952 0.0
H1040 H 0.97555 0.09687 0.69695 0.0
H1041 H 0.89644 0.06098 0.74044 0.0
H1042 H 0.0612 0.02511 0.70793 0.0
H1043 H 0.02745 0.00779 0.69035 0.0
H1044 H 0.04157 0.06311 0.69201 0.0
H1045 H 0.91152 0.00233 0.75891 0.0
H1046 H 0.91956 0.9605 0.74298 0.0
H1047 H 0.96183 0.97578 0.7573 0.0
H1048 H 0.01479 0.87683 0.70222 0.0
H1049 H 0.0929 0.92421 0.74404 0.0
H1050 H 0.96326 0.96398 0.69129 0.0
H1051 H 0.92913 0.95115 0.70942 0.0
H1052 H 0.94919 0.90934 0.69534 0.0
H1053 H 0.069 0.02541 0.74168 0.0
H1054 H 0.07843 0.9879 0.75926 0.0
H1055 H 0.02747 0.01275 0.75681 0.0
C1056 C 0.03663 0.40126 0.01691 0.0
C1057 C 0.06789 0.39939 0.00377 0.0
C1058 C 0.00992 0.43663 0.01835 0.0
C1059 C 0.01538 0.47138 0.00667 0.0
C1060 C 0.04866 0.47084 -0.00585 0.0
C1061 C 0.07416 0.43453 0.99266 0.0
C1062 C 0.97428 0.43565 0.03162 0.0
C1063 C 0.05626 0.50791 0.98183 0.0
C1064 C 0.92431 0.54315 -0.00619 0.0
C1065 C 0.93179 0.57889 0.00443 0.0
C1066 C 0.95013 0.50702 -0.00494 0.0
C1067 C 0.98493 0.50727 0.00682 0.0
C1068 C 0.99173 0.54269 0.018 0.0
C1069 C 0.9647 0.57787 0.01684 0.0
C1070 C 0.94113 0.46924 0.9833 0.0
C1071 C 0.02898 0.54452 0.03042 0.0
H1072 H 0.03126 0.37395 0.02538 0.0
H1073 H 0.09833 0.43318 0.98251 0.0
H1074 H 0.97421 0.46502 0.03975 0.0
H1075 H 0.94373 0.43443 0.02448 0.0
H1076 H 0.97624 0.40771 0.04059 0.0
H1077 H 0.08592 0.50428 0.97414 0.0
H1078 H 0.02965 0.51074 0.97237 0.0
H1079 H 0.05779 0.53806 0.98945 0.0
H1080 H 0.89888 0.54386 0.98423 0.0
H1081 H 0.97099 0.60567 0.02491 0.0
H1082 H 0.94052 0.43955 0.99126 0.0
H1083 H 0.9666 0.46584 0.97333 0.0
H1084 H 0.9106 0.47242 0.97622 0.0
H1085 H 0.03012 0.51567 0.03886 0.0
H1086 H 0.02811 0.57301 0.03912 0.0
H1087 H 0.05859 0.54529 0.02259 0.0
C1088 C 0.48376 0.89601 0.01975 0.0
C1089 C 0.44819 0.88631 0.00956 0.0
C1090 C 0.50513 0.93471 0.01751 0.0
C1091 C 0.48951 0.96495 0.00522 0.0
C1092 C 0.45557 0.95404 -0.00599 0.0
C1093 C 0.43587 0.91445 -0.00389 0.0
C1094 C 0.54239 0.94454 0.02924 0.0
C1095 C 0.43743 0.98561 0.98099 0.0
C1096 C 0.51119 0.0771 0.02089 0.0
C1097 C 0.54693 0.08761 0.01092 0.0
C1098 C 0.48998 0.0385 0.01813 0.0
C1099 C 0.50592 0.00918 0.00553 0.0
C1100 C 0.5401 0.0209 -0.00542 0.0
C1101 C 0.55965 0.06038 -0.00279 0.0
C1102 C 0.45249 0.02779 0.02962 0.0
C1103 C 0.55853 0.99028 0.98124 0.0
H1104 H 0.49329 0.87442 0.03022 0.0
H1105 H 0.40842 0.90765 0.9883 0.0
H1106 H 0.56864 0.95809 0.02133 0.0
H1107 H 0.53318 0.96866 0.03926 0.0
H1108 H 0.55401 0.91581 0.0363 0.0
H1109 H 0.41411 0.97071 0.97195 0.0
H1110 H 0.4215 0.0116 0.98836 0.0
H1111 H 0.46275 0.00036 0.97294 0.0
H1112 H 0.50135 0.09796 0.03156 0.0
H1113 H 0.58724 0.06775 0.98956 0.0
H1114 H 0.46153 0.00294 0.03935 0.0
H1115 H 0.42642 0.0148 0.02146 0.0
H1116 H 0.44071 0.05596 0.037 0.0
H1117 H 0.57356 0.9633 0.98832 0.0
H1118 H 0.58263 0.00561 0.97267 0.0
H1119 H 0.53344 0.97679 0.97271 0.0
C1120 C 0.4578 0.41252 0.77527 0.0
C1121 C 0.42237 0.40818 0.76433 0.0
C1122 C 0.4833 0.44868 0.77438 0.0
C1123 C 0.4724 0.4819 0.76262 0.0
C1124 C 0.43633 0.47807 0.75168 0.0
C1125 C 0.41201 0.44077 0.75246 0.0
C1126 C 0.52204 0.45118 0.78598 0.0
C1127 C 0.42324 0.51349 0.73935 0.0
C1128 C 0.5161 0.58836 0.77656 0.0
C1129 C 0.55051 0.593 0.76508 0.0
C1130 C 0.48924 0.55328 0.77528 0.0
C1131 C 0.49785 0.52139 0.76259 0.0
C1132 C 0.53255 0.5259 0.7509 0.0
C1133 C 0.55816 0.56223 0.75208 0.0
C1134 C 0.45193 0.55016 0.78767 0.0
C1135 C 0.54325 0.49185 0.73753 0.0
H1136 H 0.46645 0.38693 0.78419 0.0
H1137 H 0.38476 0.43722 0.74393 0.0
H1138 H 0.55031 0.45784 0.77777 0.0
H1139 H 0.51871 0.47774 0.79555 0.0
H1140 H 0.52753 0.42134 0.79352 0.0
H1141 H 0.3944 0.50546 0.73171 0.0
H1142 H 0.4172 0.54291 0.74707 0.0
H1143 H 0.44906 0.52067 0.7299 0.0
H1144 H 0.50959 0.61277 0.78634 0.0
H1145 H 0.58465 0.56615 0.74314 0.0
H1146 H 0.45651 0.52319 0.79695 0.0
H1147 H 0.42269 0.5438 0.78006 0.0
H1148 H 0.44737 0.57964 0.79556 0.0
H1149 H 0.55104 0.46179 0.74451 0.0
H1150 H 0.57041 0.50089 0.72903 0.0
H1151 H 0.51568 0.48531 0.72893 0.0
C1152 C 0.50226 0.39983 0.22379 0.0
C1153 C 0.53806 0.38975 0.2338 0.0
C1154 C 0.48113 0.43864 0.22619 0.0
C1155 C 0.4972 0.46866 0.23846 0.0
C1156 C 0.53129 0.45738 0.24952 0.0
C1157 C 0.55061 0.41758 0.24732 0.0
C1158 C 0.44359 0.4488 0.21466 0.0
C1159 C 0.54979 0.48867 0.26256 0.0
C1160 C 0.4762 0.58109 0.22289 0.0
C1161 C 0.44061 0.59193 0.23291 0.0
C1162 C 0.49716 0.5423 0.22561 0.0
C1163 C 0.48113 0.51308 0.23822 0.0
C1164 C 0.44723 0.52516 0.24926 0.0
C1165 C 0.42809 0.56494 0.24674 0.0
C1166 C 0.53448 0.5313 0.21406 0.0
C1167 C 0.42883 0.49473 0.26269 0.0
H1168 H 0.4923 0.37842 0.21333 0.0
H1169 H 0.57784 0.41034 0.25519 0.0
H1170 H 0.41758 0.46233 0.22273 0.0
H1171 H 0.45261 0.47306 0.20467 0.0
H1172 H 0.43169 0.42024 0.20758 0.0
H1173 H 0.57576 0.47458 0.27049 0.0
H1174 H 0.56226 0.51674 0.25534 0.0
H1175 H 0.52508 0.5004 0.27172 0.0
H1176 H 0.48613 0.60185 0.21219 0.0
H1177 H 0.40105 0.57282 0.25463 0.0
H1178 H 0.52523 0.50641 0.20439 0.0
H1179 H 0.56059 0.51825 0.22219 0.0
H1180 H 0.54632 0.55935 0.20661 0.0
H1181 H 0.41692 0.46587 0.25587 0.0
H1182 H 0.40251 0.50913 0.27033 0.0
H1183 H 0.45351 0.48418 0.2721 0.0
C1184 C 0.42951 0.06558 0.48262 0.0
C1185 C 0.44227 0.09486 0.46973 0.0
C1186 C 0.44845 0.02524 0.48363 0.0
C1187 C 0.48183 0.01499 0.4719 0.0
C1188 C 0.49574 0.04523 0.45931 0.0
C1189 C 0.47526 0.08454 0.45818 0.0
C1190 C 0.43197 -0.00677 0.49683 0.0
C1191 C 0.532 0.03595 0.44691 0.0
C1192 C 0.55405 0.92139 0.48157 0.0
C1193 C 0.53955 0.8917 0.46918 0.0
C1194 C 0.53532 0.9618 0.48278 0.0
C1195 C 0.50045 0.97173 0.4718 0.0
C1196 C 0.48483 0.94108 0.45976 0.0
C1197 C 0.50507 0.90171 0.45838 0.0
C1198 C 0.55356 -0.00577 0.49536 0.0
C1199 C 0.447 0.94999 0.44819 0.0
H1200 H 0.40405 0.07383 0.49158 0.0
H1201 H 0.48565 0.10764 0.44845 0.0
H1202 H 0.41923 0.96518 0.48969 0.0
H1203 H 0.45792 0.98171 0.50542 0.0
H1204 H 0.40669 0.00664 0.50535 0.0
H1205 H 0.54142 0.06433 0.43908 0.0
H1206 H 0.55974 0.02458 0.4545 0.0
H1207 H 0.52302 0.01027 0.43757 0.0
H1208 H 0.58066 0.91339 0.48994 0.0
H1209 H 0.49337 0.87828 0.44905 0.0
H1210 H 0.52881 0.00609 0.50449 0.0
H1211 H 0.56536 0.022 0.48776 0.0
H1212 H 0.57992 0.98105 0.50335 0.0
H1213 H 0.42031 0.96165 0.45637 0.0
H1214 H 0.43653 0.92136 0.44077 0.0
H1215 H 0.45474 0.97533 0.43849 0.0
C1216 C 0.90042 0.45653 0.54346 0.0
C1217 C 0.90403 0.41946 0.5332 0.0
C1218 C 0.9327 0.48676 0.54391 0.0
C1219 C 0.9698 0.47959 0.534 0.0
C1220 C 0.97401 0.44207 0.52374 0.0
C1221 C 0.9409 0.41239 0.52341 0.0
C1222 C 0.92705 0.52641 0.55499 0.0
C1223 C 0.01345 0.43333 0.51315 0.0
C1224 C 0.04036 0.57448 0.52448 0.0
C1225 C 0.07118 0.56979 0.53762 0.0
C1226 C 0.00711 0.54519 0.52306 0.0
C1227 C 0.00484 0.51065 0.53508 0.0
C1228 C 0.03537 0.50637 0.54858 0.0
C1229 C 0.06807 0.53605 0.54972 0.0
C1230 C 0.97474 0.55086 0.5086 0.0
C1231 C 0.03381 0.47012 0.56172 0.0
H1232 H 0.87198 0.46235 0.55105 0.0
H1233 H 0.94375 0.38392 0.5154 0.0
H1234 H 0.89568 0.5277 0.56151 0.0
H1235 H 0.95172 0.5278 0.56537 0.0
H1236 H 0.93076 0.55515 0.54659 0.0
H1237 H 0.01153 0.40298 0.50566 0.0
H1238 H 0.01916 0.45966 0.50366 0.0
H1239 H 0.0411 0.43189 0.52213 0.0
H1240 H 0.04279 0.60037 0.51504 0.0
H1241 H 0.09176 0.53232 0.55994 0.0
H1242 H 0.94279 0.55352 0.51447 0.0
H1243 H 0.97464 0.52253 0.49983 0.0
H1244 H 0.98085 0.57957 0.50041 0.0
H1245 H 0.00372 0.47108 0.56921 0.0
H1246 H 0.0603 0.47116 0.57132 0.0
H1247 H 0.0349 0.43925 0.55461 0.0
loop_
_geom_bond_atom_site_label_1
_geom_bond_atom_site_label_2
_geom_bond_distance
_geom_bond_site_symmetry_2
_ccdc_geom_bond_type
C0 O1 1.306 . S
C0 O3 1.160 . S
O1 C0 1.306 . S
O1 Cd2 2.228 . S
Cd2 O1 2.228 . S
Cd2 O6 2.273 . S
Cd2 O10 2.277 . S
O3 C0 1.160 . S
O3 Cd4 2.203 . S
Cd4 O3 2.203 . S
Cd4 O6 2.411 . S
Cd4 O7 2.333 . S
Cd4 O8 2.352 . S
Cd4 O12 2.277 . S
Cd4 O13 2.356 . S
C5 O10 1.209 . S
C5 O12 1.226 . S
O6 Cd2 2.273 . S
O6 Cd4 2.411 . S
O6 C9 1.320 . S
O7 Cd4 2.333 . S
O7 C9 1.214 . S
O8 Cd4 2.352 . S
O8 C11 1.258 . S
C9 O6 1.320 . S
C9 O7 1.214 . S
O10 Cd2 2.277 . S
O10 C5 1.209 . S
C11 O8 1.258 . S
C11 O13 1.282 . S
O12 Cd4 2.277 . S
O12 C5 1.226 . S
O13 Cd4 2.356 . S
O13 C11 1.282 . S
C14 O15 1.306 . S
C14 O17 1.160 . S
O15 C14 1.306 . S
O15 Cd16 2.228 . S
Cd16 O15 2.228 . S
Cd16 O20 2.273 . S
Cd16 O24 2.277 . S
O17 C14 1.160 . S
O17 Cd18 2.203 . S
Cd18 O17 2.203 . S
Cd18 O20 2.411 . S
Cd18 O21 2.333 . S
Cd18 O22 2.352 . S
Cd18 O26 2.277 . S
Cd18 O27 2.356 . S
C19 O24 1.209 . S
C19 O26 1.226 . S
O20 Cd16 2.273 . S
O20 Cd18 2.411 . S
O20 C23 1.320 . S
O21 Cd18 2.333 . S
O21 C23 1.214 . S
O22 Cd18 2.352 . S
O22 C25 1.258 . S
C23 O20 1.320 . S
C23 O21 1.214 . S
O24 Cd16 2.277 . S
O24 C19 1.209 . S
C25 O22 1.258 . S
C25 O27 1.282 . S
O26 Cd18 2.277 . S
O26 C19 1.226 . S
O27 Cd18 2.356 . S
O27 C25 1.282 . S
C28 O29 1.306 . S
C28 O31 1.160 . S
O29 C28 1.306 . S
O29 Cd30 2.228 . S
Cd30 O29 2.228 . S
Cd30 O34 2.273 . S
Cd30 O38 2.277 . S
O31 C28 1.160 . S
O31 Cd32 2.203 . S
Cd32 O31 2.203 . S
Cd32 O34 2.411 . S
Cd32 O35 2.333 . S
Cd32 O36 2.352 . S
Cd32 O40 2.277 . S
Cd32 O41 2.356 . S
C33 O38 1.209 . S
C33 O40 1.226 . S
O34 Cd30 2.273 . S
O34 Cd32 2.411 . S
O34 C37 1.320 . S
O35 Cd32 2.333 . S
O35 C37 1.214 . S
O36 Cd32 2.352 . S
O36 C39 1.258 . S
C37 O34 1.320 . S
C37 O35 1.214 . S
O38 Cd30 2.277 . S
O38 C33 1.209 . S
C39 O36 1.258 . S
C39 O41 1.282 . S
O40 Cd32 2.277 . S
O40 C33 1.226 . S
O41 Cd32 2.356 . S
O41 C39 1.282 . S
C42 O43 1.306 . S
C42 O45 1.160 . S
O43 C42 1.306 . S
O43 Cd44 2.228 . S
Cd44 O43 2.228 . S
Cd44 O48 2.273 . S
Cd44 O52 2.277 . S
O45 C42 1.160 . S
O45 Cd46 2.203 . S
Cd46 O45 2.203 . S
Cd46 O48 2.411 . S
Cd46 O49 2.333 . S
Cd46 O50 2.352 . S
Cd46 O54 2.277 . S
Cd46 O55 2.356 . S
C47 O52 1.209 . S
C47 O54 1.226 . S
O48 Cd44 2.273 . S
O48 Cd46 2.411 . S
O48 C51 1.320 . S
O49 Cd46 2.333 . S
O49 C51 1.214 . S
O50 Cd46 2.352 . S
O50 C53 1.258 . S
C51 O48 1.320 . S
C51 O49 1.214 . S
O52 Cd44 2.277 . S
O52 C47 1.209 . S
C53 O50 1.258 . S
C53 O55 1.282 . S
O54 Cd46 2.277 . S
O54 C47 1.226 . S
O55 Cd46 2.356 . S
O55 C53 1.282 . S
C56 O57 1.306 . S
C56 O59 1.160 . S
O57 C56 1.306 . S
O57 Cd58 2.228 1_556 S
Cd58 O57 2.228 1_554 S
Cd58 O62 2.273 1_554 S
Cd58 O66 2.277 1_554 S
O59 C56 1.160 . S
O59 Cd60 2.203 . S
Cd60 O59 2.203 . S
Cd60 O62 2.411 . S
Cd60 O63 2.333 . S
Cd60 O64 2.352 . S
Cd60 O68 2.277 . S
Cd60 O69 2.356 . S
C61 O66 1.209 . S
C61 O68 1.226 . S
O62 Cd58 2.273 1_556 S
O62 Cd60 2.411 . S
O62 C65 1.320 . S
O63 Cd60 2.333 . S
O63 C65 1.214 . S
O64 Cd60 2.352 . S
O64 C67 1.258 . S
C65 O62 1.320 . S
C65 O63 1.214 . S
O66 Cd58 2.277 1_556 S
O66 C61 1.209 . S
C67 O64 1.258 . S
C67 O69 1.282 . S
O68 Cd60 2.277 . S
O68 C61 1.226 . S
O69 Cd60 2.356 . S
O69 C67 1.282 . S
C70 O71 1.306 . S
C70 O73 1.160 . S
O71 C70 1.306 . S
O71 Cd72 2.228 1_554 S
Cd72 O71 2.228 1_556 S
Cd72 O76 2.273 1_556 S
Cd72 O80 2.277 1_556 S
O73 C70 1.160 . S
O73 Cd74 2.203 . S
Cd74 O73 2.203 . S
Cd74 O76 2.411 . S
Cd74 O77 2.333 . S
Cd74 O78 2.352 . S
Cd74 O82 2.277 . S
Cd74 O83 2.356 . S
C75 O80 1.209 . S
C75 O82 1.226 . S
O76 Cd72 2.273 1_554 S
O76 Cd74 2.411 . S
O76 C79 1.320 . S
O77 Cd74 2.333 . S
O77 C79 1.214 . S
O78 Cd74 2.352 . S
O78 C81 1.258 . S
C79 O76 1.320 . S
C79 O77 1.214 . S
O80 Cd72 2.277 1_554 S
O80 C75 1.209 . S
C81 O78 1.258 . S
C81 O83 1.282 . S
O82 Cd74 2.277 . S
O82 C75 1.226 . S
O83 Cd74 2.356 . S
O83 C81 1.282 . S
C84 O85 1.306 . S
C84 O87 1.160 . S
O85 C84 1.306 . S
O85 Cd86 2.228 1_556 S
Cd86 O85 2.228 1_554 S
Cd86 O90 2.273 1_554 S
Cd86 O94 2.277 1_554 S
O87 C84 1.160 . S
O87 Cd88 2.203 . S
Cd88 O87 2.203 . S
Cd88 O90 2.411 . S
Cd88 O91 2.333 . S
Cd88 O92 2.352 . S
Cd88 O96 2.277 . S
Cd88 O97 2.356 . S
C89 O94 1.209 . S
C89 O96 1.226 . S
O90 Cd86 2.273 1_556 S
O90 Cd88 2.411 . S
O90 C93 1.320 . S
O91 Cd88 2.333 . S
O91 C93 1.214 . S
O92 Cd88 2.352 . S
O92 C95 1.258 . S
C93 O90 1.320 . S
C93 O91 1.214 . S
O94 Cd86 2.277 1_556 S
O94 C89 1.209 . S
C95 O92 1.258 . S
C95 O97 1.282 . S
O96 Cd88 2.277 . S
O96 C89 1.226 . S
O97 Cd88 2.356 . S
O97 C95 1.282 . S
C98 O99 1.306 . S
C98 O101 1.160 . S
O99 C98 1.306 . S
O99 Cd100 2.228 1_554 S
Cd100 O99 2.228 1_556 S
Cd100 O104 2.273 1_556 S
Cd100 O108 2.277 1_556 S
O101 C98 1.160 . S
O101 Cd102 2.203 . S
Cd102 O101 2.203 . S
Cd102 O104 2.411 . S
Cd102 O105 2.333 . S
Cd102 O106 2.352 . S
Cd102 O110 2.277 . S
Cd102 O111 2.356 . S
C103 O108 1.209 . S
C103 O110 1.226 . S
O104 Cd100 2.273 1_554 S
O104 Cd102 2.411 . S
O104 C107 1.320 . S
O105 Cd102 2.333 . S
O105 C107 1.214 . S
O106 Cd102 2.352 . S
O106 C109 1.258 . S
C107 O104 1.320 . S
C107 O105 1.214 . S
O108 Cd100 2.277 1_554 S
O108 C103 1.209 . S
C109 O106 1.258 . S
C109 O111 1.282 . S
O110 Cd102 2.277 . S
O110 C103 1.226 . S
O111 Cd102 2.356 . S
O111 C109 1.282 . S
C112 O113 1.306 . S
C112 O115 1.160 . S
O113 C112 1.306 . S
O113 Cd114 2.228 . S
Cd114 O113 2.228 . S
Cd114 O118 2.273 . S
Cd114 O122 2.277 . S
O115 C112 1.160 . S
O115 Cd116 2.203 . S
Cd116 O115 2.203 . S
Cd116 O118 2.411 . S
Cd116 O119 2.333 . S
Cd116 O120 2.352 . S
Cd116 O124 2.277 . S
Cd116 O125 2.356 . S
C117 O122 1.209 . S
C117 O124 1.226 . S
O118 Cd114 2.273 . S
O118 Cd116 2.411 . S
O118 C121 1.320 . S
O119 Cd116 2.333 . S
O119 C121 1.214 . S
O120 Cd116 2.352 . S
O120 C123 1.258 . S
C121 O118 1.320 . S
C121 O119 1.214 . S
O122 Cd114 2.277 . S
O122 C117 1.209 . S
C123 O120 1.258 . S
C123 O125 1.282 . S
O124 Cd116 2.277 . S
O124 C117 1.226 . S
O125 Cd116 2.356 . S
O125 C123 1.282 . S
C126 O127 1.306 . S
C126 O129 1.160 . S
O127 C126 1.306 . S
O127 Cd128 2.228 . S
Cd128 O127 2.228 . S
Cd128 O132 2.273 . S
Cd128 O136 2.277 . S
O129 C126 1.160 . S
O129 Cd130 2.203 . S
Cd130 O129 2.203 . S
Cd130 O132 2.411 . S
Cd130 O133 2.333 . S
Cd130 O134 2.352 . S
Cd130 O138 2.277 . S
Cd130 O139 2.356 . S
C131 O136 1.209 . S
C131 O138 1.226 . S
O132 Cd128 2.273 . S
O132 Cd130 2.411 . S
O132 C135 1.320 . S
O133 Cd130 2.333 . S
O133 C135 1.214 . S
O134 Cd130 2.352 . S
O134 C137 1.258 . S
C135 O132 1.320 . S
C135 O133 1.214 . S
O136 Cd128 2.277 . S
O136 C131 1.209 . S
C137 O134 1.258 . S
C137 O139 1.282 . S
O138 Cd130 2.277 . S
O138 C131 1.226 . S
O139 Cd130 2.356 . S
O139 C137 1.282 . S
C140 O141 1.306 . S
C140 O143 1.160 . S
O141 C140 1.306 . S
O141 Cd142 2.228 . S
Cd142 O141 2.228 . S
Cd142 O146 2.273 . S
Cd142 O150 2.277 . S
O143 C140 1.160 . S
O143 Cd144 2.203 . S
Cd144 O143 2.203 . S
Cd144 O146 2.411 . S
Cd144 O147 2.333 . S
Cd144 O148 2.352 . S
Cd144 O152 2.277 . S
Cd144 O153 2.356 . S
C145 O150 1.209 . S
C145 O152 1.226 . S
O146 Cd142 2.273 . S
O146 Cd144 2.411 . S
O146 C149 1.320 . S
O147 Cd144 2.333 . S
O147 C149 1.214 . S
O148 Cd144 2.352 . S
O148 C151 1.258 . S
C149 O146 1.320 . S
C149 O147 1.214 . S
O150 Cd142 2.277 . S
O150 C145 1.209 . S
C151 O148 1.258 . S
C151 O153 1.282 . S
O152 Cd144 2.277 . S
O152 C145 1.226 . S
O153 Cd144 2.356 . S
O153 C151 1.282 . S
C154 O155 1.306 . S
C154 O157 1.160 . S
O155 C154 1.306 . S
O155 Cd156 2.228 . S
Cd156 O155 2.228 . S
Cd156 O160 2.273 . S
Cd156 O164 2.277 . S
O157 C154 1.160 . S
O157 Cd158 2.203 . S
Cd158 O157 2.203 . S
Cd158 O160 2.411 . S
Cd158 O161 2.333 . S
Cd158 O162 2.352 . S
Cd158 O166 2.277 . S
Cd158 O167 2.356 . S
C159 O164 1.209 . S
C159 O166 1.226 . S
O160 Cd156 2.273 . S
O160 Cd158 2.411 . S
O160 C163 1.320 . S
O161 Cd158 2.333 . S
O161 C163 1.214 . S
O162 Cd158 2.352 . S
O162 C165 1.258 . S
C163 O160 1.320 . S
C163 O161 1.214 . S
O164 Cd156 2.277 . S
O164 C159 1.209 . S
C165 O162 1.258 . S
C165 O167 1.282 . S
O166 Cd158 2.277 . S
O166 C159 1.226 . S
O167 Cd158 2.356 . S
O167 C165 1.282 . S
C168 O169 1.306 . S
C168 O171 1.160 . S
O169 C168 1.306 . S
O169 Cd170 2.228 . S
Cd170 O169 2.228 . S
Cd170 O174 2.273 . S
Cd170 O178 2.277 . S
O171 C168 1.160 . S
O171 Cd172 2.203 . S
Cd172 O171 2.203 . S
Cd172 O174 2.411 . S
Cd172 O175 2.333 . S
Cd172 O176 2.352 . S
Cd172 O180 2.277 . S
Cd172 O181 2.356 . S
C173 O178 1.209 . S
C173 O180 1.226 . S
O174 Cd170 2.273 . S
O174 Cd172 2.411 . S
O174 C177 1.320 . S
O175 Cd172 2.333 . S
O175 C177 1.214 . S
O176 Cd172 2.352 . S
O176 C179 1.258 . S
C177 O174 1.320 . S
C177 O175 1.214 . S
O178 Cd170 2.277 . S
O178 C173 1.209 . S
C179 O176 1.258 . S
C179 O181 1.282 . S
O180 Cd172 2.277 . S
O180 C173 1.226 . S
O181 Cd172 2.356 . S
O181 C179 1.282 . S
C182 O183 1.306 . S
C182 O185 1.160 . S
O183 C182 1.306 . S
O183 Cd184 2.228 . S
Cd184 O183 2.228 . S
Cd184 O188 2.273 . S
Cd184 O192 2.277 . S
O185 C182 1.160 . S
O185 Cd186 2.203 . S
Cd186 O185 2.203 . S
Cd186 O188 2.411 . S
Cd186 O189 2.333 . S
Cd186 O190 2.352 . S
Cd186 O194 2.277 . S
Cd186 O195 2.356 . S
C187 O192 1.209 . S
C187 O194 1.226 . S
O188 Cd184 2.273 . S
O188 Cd186 2.411 . S
O188 C191 1.320 . S
O189 Cd186 2.333 . S
O189 C191 1.214 . S
O190 Cd186 2.352 . S
O190 C193 1.258 . S
C191 O188 1.320 . S
C191 O189 1.214 . S
O192 Cd184 2.277 . S
O192 C187 1.209 . S
C193 O190 1.258 . S
C193 O195 1.282 . S
O194 Cd186 2.277 . S
O194 C187 1.226 . S
O195 Cd186 2.356 . S
O195 C193 1.282 . S
C196 O197 1.306 . S
C196 O199 1.160 . S
O197 C196 1.306 . S
O197 Cd198 2.228 . S
Cd198 O197 2.228 . S
Cd198 O202 2.273 . S
Cd198 O206 2.277 . S
O199 C196 1.160 . S
O199 Cd200 2.203 . S
Cd200 O199 2.203 . S
Cd200 O202 2.411 . S
Cd200 O203 2.333 . S
Cd200 O204 2.352 . S
Cd200 O208 2.277 . S
Cd200 O209 2.356 . S
C201 O206 1.209 . S
C201 O208 1.226 . S
O202 Cd198 2.273 . S
O202 Cd200 2.411 . S
O202 C205 1.320 . S
O203 Cd200 2.333 . S
O203 C205 1.214 . S
O204 Cd200 2.352 . S
O204 C207 1.258 . S
C205 O202 1.320 . S
C205 O203 1.214 . S
O206 Cd198 2.277 . S
O206 C201 1.209 . S
C207 O204 1.258 . S
C207 O209 1.282 . S
O208 Cd200 2.277 . S
O208 C201 1.226 . S
O209 Cd200 2.356 . S
O209 C207 1.282 . S
C210 O211 1.306 . S
C210 O213 1.160 . S
O211 C210 1.306 . S
O211 Cd212 2.228 . S
Cd212 O211 2.228 . S
Cd212 O216 2.273 . S
Cd212 O220 2.277 . S
O213 C210 1.160 . S
O213 Cd214 2.203 . S
Cd214 O213 2.203 . S
Cd214 O216 2.411 . S
Cd214 O217 2.333 . S
Cd214 O218 2.352 . S
Cd214 O222 2.277 . S
Cd214 O223 2.356 . S
C215 O220 1.209 . S
C215 O222 1.226 . S
O216 Cd212 2.273 . S
O216 Cd214 2.411 . S
O216 C219 1.320 . S
O217 Cd214 2.333 . S
O217 C219 1.214 . S
O218 Cd214 2.352 . S
O218 C221 1.258 . S
C219 O216 1.320 . S
C219 O217 1.214 . S
O220 Cd212 2.277 . S
O220 C215 1.209 . S
C221 O218 1.258 . S
C221 O223 1.282 . S
O222 Cd214 2.277 . S
O222 C215 1.226 . S
O223 Cd214 2.356 . S
O223 C221 1.282 . S
C224 C225 1.391 . S
C224 C226 1.394 . S
C224 H240 0.931 . S
C225 C224 1.391 . S
C225 C229 1.376 . S
C226 C224 1.394 . S
C226 C227 1.369 . S
C226 C230 1.531 . S
C227 C226 1.369 . S
C227 C228 1.410 . S
C227 C235 1.503 . S
C228 C227 1.410 . S
C228 C229 1.392 . S
C228 C231 1.511 . S
C229 C225 1.376 . S
C229 C228 1.392 . S
C229 H241 0.929 . S
C230 C226 1.531 . S
C230 H242 0.960 . S
C230 H243 0.962 . S
C230 H244 0.960 . S
C231 C228 1.511 . S
C231 H245 0.961 . S
C231 H246 0.961 . S
C231 H247 0.961 . S
C232 C233 1.370 . S
C232 C234 1.363 . S
C232 H248 0.931 . S
C233 C232 1.370 . S
C233 C237 1.408 . S
C234 C232 1.363 . S
C234 C235 1.370 . S
C234 C238 1.524 . S
C235 C227 1.503 . S
C235 C234 1.370 . S
C235 C236 1.403 . S
C236 C235 1.403 . S
C236 C237 1.404 . S
C236 C239 1.539 . S
C237 C233 1.408 . S
C237 C236 1.404 . S
C237 H249 0.930 . S
C238 C234 1.524 . S
C238 H250 0.956 . S
C238 H251 0.961 . S
C238 H252 0.961 . S
C239 C236 1.539 . S
C239 H253 0.958 . S
C239 H254 0.961 . S
C239 H255 0.960 . S
H240 C224 0.931 . S
H241 C229 0.929 . S
H242 C230 0.960 . S
H243 C230 0.962 . S
H244 C230 0.960 . S
H245 C231 0.961 . S
H246 C231 0.961 . S
H247 C231 0.961 . S
H248 C232 0.931 . S
H249 C237 0.930 . S
H250 C238 0.956 . S
H251 C238 0.961 . S
H252 C238 0.961 . S
H253 C239 0.958 . S
H254 C239 0.961 . S
H255 C239 0.960 . S
C256 C257 1.391 . S
C256 C258 1.394 . S
C256 H272 0.931 . S
C257 C256 1.391 . S
C257 C261 1.376 . S
C258 C256 1.394 . S
C258 C259 1.369 . S
C258 C262 1.531 . S
C259 C258 1.369 . S
C259 C260 1.410 . S
C259 C267 1.503 . S
C260 C259 1.410 . S
C260 C261 1.392 . S
C260 C263 1.511 . S
C261 C257 1.376 . S
C261 C260 1.392 . S
C261 H273 0.929 . S
C262 C258 1.531 . S
C262 H274 0.960 . S
C262 H275 0.962 . S
C262 H276 0.960 . S
C263 C260 1.511 . S
C263 H277 0.961 . S
C263 H278 0.961 . S
C263 H279 0.961 . S
C264 C265 1.370 . S
C264 C266 1.363 . S
C264 H280 0.931 . S
C265 C264 1.370 . S
C265 C269 1.408 . S
C266 C264 1.363 . S
C266 C267 1.370 . S
C266 C270 1.524 . S
C267 C259 1.503 . S
C267 C266 1.370 . S
C267 C268 1.403 . S
C268 C267 1.403 . S
C268 C269 1.404 . S
C268 C271 1.539 . S
C269 C265 1.408 . S
C269 C268 1.404 . S
C269 H281 0.930 . S
C270 C266 1.524 . S
C270 H282 0.956 . S
C270 H283 0.961 . S
C270 H284 0.961 . S
C271 C268 1.539 . S
C271 H285 0.958 . S
C271 H286 0.961 . S
C271 H287 0.960 . S
H272 C256 0.931 . S
H273 C261 0.929 . S
H274 C262 0.960 . S
H275 C262 0.962 . S
H276 C262 0.960 . S
H277 C263 0.961 . S
H278 C263 0.961 . S
H279 C263 0.961 . S
H280 C264 0.931 . S
H281 C269 0.930 . S
H282 C270 0.956 . S
H283 C270 0.961 . S
H284 C270 0.961 . S
H285 C271 0.958 . S
H286 C271 0.961 . S
H287 C271 0.960 . S
C288 C289 1.391 . S
C288 C290 1.394 . S
C288 H304 0.931 . S
C289 C288 1.391 . S
C289 C293 1.376 . S
C290 C288 1.394 . S
C290 C291 1.369 . S
C290 C294 1.531 . S
C291 C290 1.369 . S
C291 C292 1.410 . S
C291 C299 1.503 . S
C292 C291 1.410 . S
C292 C293 1.392 . S
C292 C295 1.511 . S
C293 C289 1.376 . S
C293 C292 1.392 . S
C293 H305 0.929 . S
C294 C290 1.531 . S
C294 H306 0.960 . S
C294 H307 0.962 . S
C294 H308 0.960 . S
C295 C292 1.511 . S
C295 H309 0.961 . S
C295 H310 0.961 . S
C295 H311 0.961 . S
C296 C297 1.370 . S
C296 C298 1.363 . S
C296 H312 0.931 . S
C297 C296 1.370 . S
C297 C301 1.408 . S
C298 C296 1.363 . S
C298 C299 1.370 . S
C298 C302 1.524 . S
C299 C291 1.503 . S
C299 C298 1.370 . S
C299 C300 1.403 . S
C300 C299 1.403 . S
C300 C301 1.404 . S
C300 C303 1.539 . S
C301 C297 1.408 . S
C301 C300 1.404 . S
C301 H313 0.930 . S
C302 C298 1.524 . S
C302 H314 0.956 . S
C302 H315 0.961 . S
C302 H316 0.961 . S
C303 C300 1.539 . S
C303 H317 0.958 . S
C303 H318 0.961 . S
C303 H319 0.960 . S
H304 C288 0.931 . S
H305 C293 0.929 . S
H306 C294 0.960 . S
H307 C294 0.962 . S
H308 C294 0.960 . S
H309 C295 0.961 . S
H310 C295 0.961 . S
H311 C295 0.961 . S
H312 C296 0.931 . S
H313 C301 0.930 . S
H314 C302 0.956 . S
H315 C302 0.961 . S
H316 C302 0.961 . S
H317 C303 0.958 . S
H318 C303 0.961 . S
H319 C303 0.960 . S
C320 C321 1.391 . S
C320 C322 1.394 . S
C320 H336 0.931 . S
C321 C320 1.391 . S
C321 C325 1.376 . S
C322 C320 1.394 . S
C322 C323 1.369 . S
C322 C326 1.531 . S
C323 C322 1.369 . S
C323 C324 1.410 . S
C323 C331 1.503 . S
C324 C323 1.410 . S
C324 C325 1.392 . S
C324 C327 1.511 . S
C325 C321 1.376 . S
C325 C324 1.392 . S
C325 H337 0.929 . S
C326 C322 1.531 . S
C326 H338 0.960 . S
C326 H339 0.962 . S
C326 H340 0.960 . S
C327 C324 1.511 . S
C327 H341 0.961 . S
C327 H342 0.961 . S
C327 H343 0.961 . S
C328 C329 1.370 . S
C328 C330 1.363 . S
C328 H344 0.931 . S
C329 C328 1.370 . S
C329 C333 1.408 . S
C330 C328 1.363 . S
C330 C331 1.370 . S
C330 C334 1.524 . S
C331 C323 1.503 . S
C331 C330 1.370 . S
C331 C332 1.403 . S
C332 C331 1.403 . S
C332 C333 1.404 . S
C332 C335 1.539 . S
C333 C329 1.408 . S
C333 C332 1.404 . S
C333 H345 0.930 . S
C334 C330 1.524 . S
C334 H346 0.956 . S
C334 H347 0.961 . S
C334 H348 0.961 . S
C335 C332 1.539 . S
C335 H349 0.958 . S
C335 H350 0.961 . S
C335 H351 0.960 . S
H336 C320 0.931 . S
H337 C325 0.929 . S
H338 C326 0.960 . S
H339 C326 0.962 . S
H340 C326 0.960 . S
H341 C327 0.961 . S
H342 C327 0.961 . S
H343 C327 0.961 . S
H344 C328 0.931 . S
H345 C333 0.930 . S
H346 C334 0.956 . S
H347 C334 0.961 . S
H348 C334 0.961 . S
H349 C335 0.958 . S
H350 C335 0.961 . S
H351 C335 0.960 . S
C352 C353 1.391 . S
C352 C354 1.394 . S
C352 H368 0.931 . S
C353 C352 1.391 . S
C353 C357 1.376 . S
C354 C352 1.394 . S
C354 C355 1.369 . S
C354 C358 1.531 . S
C355 C354 1.369 . S
C355 C356 1.410 . S
C355 C363 1.503 . S
C356 C355 1.410 . S
C356 C357 1.392 . S
C356 C359 1.511 1_554 S
C357 C353 1.376 . S
C357 C356 1.392 . S
C357 H369 0.929 . S
C358 C354 1.531 . S
C358 H370 0.960 . S
C358 H371 0.962 . S
C358 H372 0.960 . S
C359 C356 1.511 1_556 S
C359 H373 0.961 . S
C359 H374 0.961 . S
C359 H375 0.969 . S
C360 C361 1.370 . S
C360 C362 1.363 . S
C360 H376 0.931 . S
C361 C360 1.370 . S
C361 C365 1.408 1_556 S
C362 C360 1.363 . S
C362 C363 1.370 1_556 S
C362 C366 1.524 . S
C363 C355 1.503 . S
C363 C362 1.370 1_554 S
C363 C364 1.403 . S
C364 C363 1.403 . S
C364 C365 1.404 . S
C364 C367 1.539 . S
C365 C361 1.408 1_554 S
C365 C364 1.404 . S
C365 H377 0.930 . S
C366 C362 1.524 . S
C366 H378 0.956 . S
C366 H379 0.961 . S
C366 H380 0.961 . S
C367 C364 1.539 . S
C367 H381 0.958 . S
C367 H382 0.961 . S
C367 H383 0.960 . S
H368 C352 0.931 . S
H369 C357 0.929 . S
H370 C358 0.960 . S
H371 C358 0.962 . S
H372 C358 0.960 . S
H373 C359 0.961 . S
H374 C359 0.961 . S
H375 C359 0.969 . S
H376 C360 0.931 . S
H377 C365 0.930 . S
H378 C366 0.956 . S
H379 C366 0.961 . S
H380 C366 0.961 . S
H381 C367 0.958 . S
H382 C367 0.961 . S
H383 C367 0.960 . S
C384 C385 1.391 1_556 S
C384 C386 1.394 . S
C384 H400 0.931 . S
C385 C384 1.391 1_554 S
C385 C389 1.376 . S
C386 C384 1.394 . S
C386 C387 1.369 . S
C386 C390 1.531 . S
C387 C386 1.369 . S
C387 C388 1.410 1_556 S
C387 C395 1.503 . S
C388 C387 1.410 1_554 S
C388 C389 1.392 . S
C388 C391 1.511 . S
C389 C385 1.376 . S
C389 C388 1.392 . S
C389 H401 0.929 . S
C390 C386 1.531 . S
C390 H402 0.960 . S
C390 H403 0.962 . S
C390 H404 0.960 . S
C391 C388 1.511 . S
C391 H405 0.961 . S
C391 H406 0.961 . S
C391 H407 0.961 . S
C392 C393 1.370 . S
C392 C394 1.363 . S
C392 H408 0.931 . S
C393 C392 1.370 . S
C393 C397 1.408 . S
C394 C392 1.363 . S
C394 C395 1.370 . S
C394 C398 1.524 . S
C395 C387 1.503 . S
C395 C394 1.370 . S
C395 C396 1.403 . S
C396 C395 1.403 . S
C396 C397 1.404 . S
C396 C399 1.539 . S
C397 C393 1.408 . S
C397 C396 1.404 . S
C397 H409 0.930 . S
C398 C394 1.524 . S
C398 H410 0.956 . S
C398 H411 0.961 . S
C398 H412 0.961 . S
C399 C396 1.539 . S
C399 H413 0.958 . S
C399 H414 0.961 . S
C399 H415 0.960 1_556 S
H400 C384 0.931 . S
H401 C389 0.929 . S
H402 C390 0.960 . S
H403 C390 0.962 . S
H404 C390 0.960 . S
H405 C391 0.961 . S
H406 C391 0.961 . S
H407 C391 0.961 . S
H408 C392 0.931 . S
H409 C397 0.930 . S
H410 C398 0.956 . S
H411 C398 0.961 . S
H412 C398 0.961 . S
H413 C399 0.958 . S
H414 C399 0.961 . S
H415 C399 0.960 1_554 S
C416 C417 1.391 1_554 S
C416 C418 1.394 . S
C416 H432 0.931 . S
C417 C416 1.391 1_556 S
C417 C421 1.376 . S
C418 C416 1.394 . S
C418 C419 1.369 . S
C418 C422 1.531 . S
C419 C418 1.369 . S
C419 C420 1.410 1_554 S
C419 C427 1.503 . S
C420 C419 1.410 1_556 S
C420 C421 1.392 . S
C420 C423 1.511 . S
C421 C417 1.376 . S
C421 C420 1.392 . S
C421 H433 0.929 . S
C422 C418 1.531 . S
C422 H434 0.960 . S
C422 H435 0.962 . S
C422 H436 0.960 . S
C423 C420 1.511 . S
C423 H437 0.961 . S
C423 H438 0.961 . S
C423 H439 0.961 . S
C424 C425 1.370 . S
C424 C426 1.363 . S
C424 H440 0.931 . S
C425 C424 1.370 . S
C425 C429 1.408 . S
C426 C424 1.363 . S
C426 C427 1.370 . S
C426 C430 1.524 1_554 S
C427 C419 1.503 . S
C427 C426 1.370 . S
C427 C428 1.403 . S
C428 C427 1.403 . S
C428 C429 1.404 . S
C428 C431 1.539 . S
C429 C425 1.408 . S
C429 C428 1.404 . S
C429 H441 0.930 1_565 S
C430 C426 1.524 1_556 S
C430 H442 0.956 1_556 S
C430 H443 0.961 . S
C430 H444 0.961 . S
C431 C428 1.539 . S
C431 H445 0.958 . S
C431 H446 0.961 . S
C431 H447 0.960 . S
H432 C416 0.931 . S
H433 C421 0.929 . S
H434 C422 0.960 . S
H435 C422 0.962 . S
H436 C422 0.960 . S
H437 C423 0.961 . S
H438 C423 0.961 . S
H439 C423 0.961 . S
H440 C424 0.931 . S
H441 C429 0.930 1_545 S
H442 C430 0.956 1_554 S
H443 C430 0.961 . S
H444 C430 0.961 . S
H445 C431 0.958 . S
H446 C431 0.961 . S
H447 C431 0.960 . S
C448 C449 1.391 1_556 S
C448 C450 1.394 . S
C448 H464 0.931 . S
C449 C448 1.391 1_554 S
C449 C453 1.376 . S
C450 C448 1.394 . S
C450 C451 1.369 . S
C450 C454 1.531 . S
C451 C450 1.369 . S
C451 C452 1.410 1_556 S
C451 C459 1.503 . S
C452 C451 1.410 1_554 S
C452 C453 1.392 . S
C452 C455 1.511 . S
C453 C449 1.376 . S
C453 C452 1.392 . S
C453 H465 0.929 . S
C454 C450 1.531 . S
C454 H466 0.960 . S
C454 H467 0.962 . S
C454 H468 0.960 . S
C455 C452 1.511 . S
C455 H469 0.961 . S
C455 H470 0.961 . S
C455 H471 0.961 . S
C456 C457 1.370 . S
C456 C458 1.363 . S
C456 H472 0.931 . S
C457 C456 1.370 . S
C457 C461 1.408 . S
C458 C456 1.363 . S
C458 C459 1.370 . S
C458 C462 1.524 . S
C459 C451 1.503 . S
C459 C458 1.370 . S
C459 C460 1.403 . S
C460 C459 1.403 . S
C460 C461 1.404 . S
C460 C463 1.539 1_556 S
C461 C457 1.408 . S
C461 C460 1.404 . S
C461 H473 0.930 . S
C462 C458 1.524 . S
C462 H474 0.956 . S
C462 H475 0.961 . S
C462 H476 0.961 . S
C463 C460 1.539 1_554 S
C463 H477 0.958 . S
C463 H478 0.961 . S
C463 H479 0.960 . S
H464 C448 0.931 . S
H465 C453 0.929 . S
H466 C454 0.960 . S
H467 C454 0.962 . S
H468 C454 0.960 . S
H469 C455 0.961 . S
H470 C455 0.961 . S
H471 C455 0.961 . S
H472 C456 0.931 . S
H473 C461 0.930 . S
H474 C462 0.956 . S
H475 C462 0.961 . S
H476 C462 0.961 . S
H477 C463 0.958 . S
H478 C463 0.961 . S
H479 C463 0.960 . S
C480 C481 1.391 . S
C480 C482 1.394 . S
C480 H496 0.931 . S
C481 C480 1.391 . S
C481 C485 1.376 . S
C482 C480 1.394 . S
C482 C483 1.369 . S
C482 C486 1.531 . S
C483 C482 1.369 . S
C483 C484 1.410 . S
C483 C491 1.503 . S
C484 C483 1.410 . S
C484 C485 1.392 . S
C484 C487 1.511 . S
C485 C481 1.376 . S
C485 C484 1.392 . S
C485 H497 0.929 . S
C486 C482 1.531 . S
C486 H498 0.960 . S
C486 H499 0.962 . S
C486 H500 0.960 . S
C487 C484 1.511 . S
C487 H501 0.961 . S
C487 H502 0.961 . S
C487 H503 0.961 . S
C488 C489 1.370 . S
C488 C490 1.363 . S
C488 H504 0.931 . S
C489 C488 1.370 . S
C489 C493 1.408 . S
C490 C488 1.363 . S
C490 C491 1.370 . S
C490 C494 1.524 . S
C491 C483 1.503 . S
C491 C490 1.370 . S
C491 C492 1.403 . S
C492 C491 1.403 . S
C492 C493 1.404 . S
C492 C495 1.539 . S
C493 C489 1.408 . S
C493 C492 1.404 . S
C493 H505 0.930 1_565 S
C494 C490 1.524 . S
C494 H506 0.956 . S
C494 H507 0.961 . S
C494 H508 0.961 . S
C495 C492 1.539 . S
C495 H509 0.958 . S
C495 H510 0.961 . S
C495 H511 0.960 . S
H496 C480 0.931 . S
H497 C485 0.929 . S
H498 C486 0.960 . S
H499 C486 0.962 . S
H500 C486 0.960 . S
H501 C487 0.961 . S
H502 C487 0.961 . S
H503 C487 0.961 . S
H504 C488 0.931 . S
H505 C493 0.930 1_545 S
H506 C494 0.956 . S
H507 C494 0.961 . S
H508 C494 0.961 . S
H509 C495 0.958 . S
H510 C495 0.961 . S
H511 C495 0.960 . S
C512 C513 1.391 . S
C512 C514 1.394 . S
C512 H528 0.931 . S
C513 C512 1.391 . S
C513 C517 1.376 . S
C514 C512 1.394 . S
C514 C515 1.369 . S
C514 C518 1.531 . S
C515 C514 1.369 . S
C515 C516 1.410 . S
C515 C523 1.503 . S
C516 C515 1.410 . S
C516 C517 1.392 . S
C516 C519 1.511 . S
C517 C513 1.376 . S
C517 C516 1.392 . S
C517 H529 0.929 . S
C518 C514 1.531 . S
C518 H530 0.960 . S
C518 H531 0.962 . S
C518 H532 0.960 . S
C519 C516 1.511 . S
C519 H533 0.961 . S
C519 H534 0.961 . S
C519 H535 0.961 . S
C520 C521 1.370 . S
C520 C522 1.363 . S
C520 H536 0.931 . S
C521 C520 1.370 . S
C521 C525 1.408 . S
C522 C520 1.363 . S
C522 C523 1.370 . S
C522 C526 1.524 . S
C523 C515 1.503 . S
C523 C522 1.370 . S
C523 C524 1.403 . S
C524 C523 1.403 . S
C524 C525 1.404 . S
C524 C527 1.539 . S
C525 C521 1.408 . S
C525 C524 1.404 . S
C525 H537 0.930 . S
C526 C522 1.524 . S
C526 H538 0.956 . S
C526 H539 0.961 . S
C526 H540 0.961 . S
C527 C524 1.539 . S
C527 H541 0.958 . S
C527 H542 0.961 . S
C527 H543 0.960 . S
H528 C512 0.931 . S
H529 C517 0.929 . S
H530 C518 0.960 . S
H531 C518 0.962 . S
H532 C518 0.960 . S
H533 C519 0.961 . S
H534 C519 0.961 . S
H535 C519 0.961 . S
H536 C520 0.931 . S
H537 C525 0.930 . S
H538 C526 0.956 . S
H539 C526 0.961 . S
H540 C526 0.961 . S
H541 C527 0.958 . S
H542 C527 0.961 . S
H543 C527 0.960 . S
C544 C545 1.391 . S
C544 C546 1.394 . S
C544 H560 0.931 1_545 S
C545 C544 1.391 . S
C545 C549 1.376 . S
C546 C544 1.394 . S
C546 C547 1.369 . S
C546 C550 1.531 . S
C547 C546 1.369 . S
C547 C548 1.410 . S
C547 C555 1.503 . S
C548 C547 1.410 . S
C548 C549 1.392 . S
C548 C551 1.511 . S
C549 C545 1.376 . S
C549 C548 1.392 . S
C549 H561 0.929 . S
C550 C546 1.531 . S
C550 H562 0.960 . S
C550 H563 0.962 . S
C550 H564 0.960 . S
C551 C548 1.511 . S
C551 H565 0.961 . S
C551 H566 0.961 . S
C551 H567 0.961 . S
C552 C553 1.370 . S
C552 C554 1.363 . S
C552 H568 0.931 . S
C553 C552 1.370 . S
C553 C557 1.408 . S
C554 C552 1.363 . S
C554 C555 1.370 . S
C554 C558 1.524 . S
C555 C547 1.503 . S
C555 C554 1.370 . S
C555 C556 1.403 . S
C556 C555 1.403 . S
C556 C557 1.404 . S
C556 C559 1.539 . S
C557 C553 1.408 . S
C557 C556 1.404 . S
C557 H569 0.930 . S
C558 C554 1.524 . S
C558 H570 0.956 . S
C558 H571 0.961 . S
C558 H572 0.961 . S
C559 C556 1.539 . S
C559 H573 0.958 . S
C559 H574 0.961 . S
C559 H575 0.960 . S
H560 C544 0.931 1_565 S
H561 C549 0.929 . S
H562 C550 0.960 . S
H563 C550 0.962 . S
H564 C550 0.960 . S
H565 C551 0.961 . S
H566 C551 0.961 . S
H567 C551 0.961 . S
H568 C552 0.931 . S
H569 C557 0.930 . S
H570 C558 0.956 . S
H571 C558 0.961 . S
H572 C558 0.961 . S
H573 C559 0.958 . S
H574 C559 0.961 . S
H575 C559 0.960 . S
C576 C577 1.391 . S
C576 C578 1.394 . S
C576 H592 0.931 . S
C577 C576 1.391 . S
C577 C581 1.376 . S
C578 C576 1.394 . S
C578 C579 1.369 . S
C578 C582 1.531 . S
C579 C578 1.369 . S
C579 C580 1.410 . S
C579 C587 1.503 . S
C580 C579 1.410 . S
C580 C581 1.392 . S
C580 C583 1.511 . S
C581 C577 1.376 . S
C581 C580 1.392 . S
C581 H593 0.929 . S
C582 C578 1.531 . S
C582 H594 0.960 . S
C582 H595 0.962 . S
C582 H596 0.960 . S
C583 C580 1.511 . S
C583 H597 0.961 . S
C583 H598 0.961 . S
C583 H599 0.961 . S
C584 C585 1.370 . S
C584 C586 1.363 . S
C584 H600 0.931 . S
C585 C584 1.370 . S
C585 C589 1.408 . S
C586 C584 1.363 . S
C586 C587 1.370 . S
C586 C590 1.524 . S
C587 C579 1.503 . S
C587 C586 1.370 . S
C587 C588 1.403 . S
C588 C587 1.403 . S
C588 C589 1.404 . S
C588 C591 1.539 . S
C589 C585 1.408 . S
C589 C588 1.404 . S
C589 H601 0.930 . S
C590 C586 1.524 . S
C590 H602 0.956 . S
C590 H603 0.961 . S
C590 H604 0.961 . S
C591 C588 1.539 . S
C591 H605 0.958 . S
C591 H606 0.961 . S
C591 H607 0.960 . S
H592 C576 0.931 . S
H593 C581 0.929 . S
H594 C582 0.960 . S
H595 C582 0.962 . S
H596 C582 0.960 . S
H597 C583 0.961 . S
H598 C583 0.961 . S
H599 C583 0.961 . S
H600 C584 0.931 . S
H601 C589 0.930 . S
H602 C590 0.956 . S
H603 C590 0.961 . S
H604 C590 0.961 . S
H605 C591 0.958 . S
H606 C591 0.961 . S
H607 C591 0.960 . S
C608 C609 1.391 . S
C608 C610 1.394 . S
C608 H624 0.931 . S
C609 C608 1.391 . S
C609 C613 1.376 . S
C610 C608 1.394 . S
C610 C611 1.369 . S
C610 C614 1.531 . S
C611 C610 1.369 . S
C611 C612 1.410 . S
C611 C619 1.503 . S
C612 C611 1.410 . S
C612 C613 1.392 . S
C612 C615 1.511 . S
C613 C609 1.376 . S
C613 C612 1.392 . S
C613 H625 0.929 . S
C614 C610 1.531 . S
C614 H626 0.960 . S
C614 H627 0.962 . S
C614 H628 0.960 . S
C615 C612 1.511 . S
C615 H629 0.961 . S
C615 H630 0.961 . S
C615 H631 0.961 . S
C616 C617 1.370 . S
C616 C618 1.363 . S
C616 H632 0.931 . S
C617 C616 1.370 . S
C617 C621 1.408 . S
C618 C616 1.363 . S
C618 C619 1.370 . S
C618 C622 1.524 . S
C619 C611 1.503 . S
C619 C618 1.370 . S
C619 C620 1.403 . S
C620 C619 1.403 . S
C620 C621 1.404 . S
C620 C623 1.539 . S
C621 C617 1.408 . S
C621 C620 1.404 . S
C621 H633 0.930 . S
C622 C618 1.524 . S
C622 H634 0.956 . S
C622 H635 0.961 . S
C622 H636 0.961 . S
C623 C620 1.539 . S
C623 H637 0.958 . S
C623 H638 0.961 . S
C623 H639 0.960 . S
H624 C608 0.931 . S
H625 C613 0.929 . S
H626 C614 0.960 . S
H627 C614 0.962 . S
H628 C614 0.960 . S
H629 C615 0.961 . S
H630 C615 0.961 . S
H631 C615 0.961 . S
H632 C616 0.931 . S
H633 C621 0.930 . S
H634 C622 0.956 . S
H635 C622 0.961 . S
H636 C622 0.961 . S
H637 C623 0.958 . S
H638 C623 0.961 . S
H639 C623 0.960 . S
C640 C641 1.391 . S
C640 C642 1.394 . S
C640 H656 0.931 . S
C641 C640 1.391 . S
C641 C645 1.376 . S
C642 C640 1.394 . S
C642 C643 1.369 . S
C642 C646 1.531 . S
C643 C642 1.369 . S
C643 C644 1.410 . S
C643 C651 1.503 . S
C644 C643 1.410 . S
C644 C645 1.392 . S
C644 C647 1.511 . S
C645 C641 1.376 . S
C645 C644 1.392 . S
C645 H657 0.929 . S
C646 C642 1.531 . S
C646 H658 0.960 . S
C646 H659 0.962 . S
C646 H660 0.960 . S
C647 C644 1.511 . S
C647 H661 0.961 . S
C647 H662 0.961 . S
C647 H663 0.961 . S
C648 C649 1.370 . S
C648 C650 1.363 . S
C648 H664 0.931 . S
C649 C648 1.370 . S
C649 C653 1.408 . S
C650 C648 1.363 . S
C650 C651 1.370 . S
C650 C654 1.524 . S
C651 C643 1.503 . S
C651 C650 1.370 . S
C651 C652 1.403 . S
C652 C651 1.403 . S
C652 C653 1.404 . S
C652 C655 1.539 . S
C653 C649 1.408 . S
C653 C652 1.404 . S
C653 H665 0.930 . S
C654 C650 1.524 . S
C654 H666 0.956 . S
C654 H667 0.961 . S
C654 H668 0.961 . S
C655 C652 1.539 . S
C655 H669 0.958 . S
C655 H670 0.961 . S
C655 H671 0.960 . S
H656 C640 0.931 . S
H657 C645 0.929 . S
H658 C646 0.960 . S
H659 C646 0.962 . S
H660 C646 0.960 . S
H661 C647 0.961 . S
H662 C647 0.961 . S
H663 C647 0.961 . S
H664 C648 0.931 . S
H665 C653 0.930 . S
H666 C654 0.956 . S
H667 C654 0.961 . S
H668 C654 0.961 . S
H669 C655 0.958 . S
H670 C655 0.961 . S
H671 C655 0.960 . S
C672 C673 1.391 . S
C672 C674 1.394 . S
C672 H688 0.931 . S
C673 C672 1.391 . S
C673 C677 1.376 . S
C674 C672 1.394 . S
C674 C675 1.369 . S
C674 C678 1.531 . S
C675 C674 1.369 . S
C675 C676 1.410 . S
C675 C683 1.503 . S
C676 C675 1.410 . S
C676 C677 1.392 . S
C676 C679 1.511 . S
C677 C673 1.376 . S
C677 C676 1.392 . S
C677 H689 0.929 . S
C678 C674 1.531 . S
C678 H690 0.960 . S
C678 H691 0.962 . S
C678 H692 0.960 . S
C679 C676 1.511 . S
C679 H693 0.961 . S
C679 H694 0.961 . S
C679 H695 0.961 . S
C680 C681 1.370 . S
C680 C682 1.363 . S
C680 H696 0.931 . S
C681 C680 1.370 . S
C681 C685 1.408 . S
C682 C680 1.363 . S
C682 C683 1.370 . S
C682 C686 1.524 . S
C683 C675 1.503 . S
C683 C682 1.370 . S
C683 C684 1.403 . S
C684 C683 1.403 . S
C684 C685 1.404 . S
C684 C687 1.539 . S
C685 C681 1.408 . S
C685 C684 1.404 . S
C685 H697 0.930 . S
C686 C682 1.524 . S
C686 H698 0.956 . S
C686 H699 0.961 . S
C686 H700 0.961 . S
C687 C684 1.539 . S
C687 H701 0.958 . S
C687 H702 0.961 . S
C687 H703 0.960 . S
H688 C672 0.931 . S
H689 C677 0.929 . S
H690 C678 0.960 . S
H691 C678 0.962 . S
H692 C678 0.960 . S
H693 C679 0.961 . S
H694 C679 0.961 . S
H695 C679 0.961 . S
H696 C680 0.931 . S
H697 C685 0.930 . S
H698 C686 0.956 . S
H699 C686 0.961 . S
H700 C686 0.961 . S
H701 C687 0.958 . S
H702 C687 0.961 . S
H703 C687 0.960 . S
C704 C705 1.391 . S
C704 C706 1.394 . S
C704 H720 0.931 . S
C705 C704 1.391 . S
C705 C709 1.376 . S
C706 C704 1.394 . S
C706 C707 1.369 . S
C706 C710 1.531 . S
C707 C706 1.369 . S
C707 C708 1.410 . S
C707 C715 1.503 . S
C708 C707 1.410 . S
C708 C709 1.392 . S
C708 C711 1.511 . S
C709 C705 1.376 . S
C709 C708 1.392 . S
C709 H721 0.929 . S
C710 C706 1.531 . S
C710 H722 0.960 . S
C710 H723 0.962 . S
C710 H724 0.960 . S
C711 C708 1.511 . S
C711 H725 0.961 . S
C711 H726 0.961 . S
C711 H727 0.961 . S
C712 C713 1.370 . S
C712 C714 1.363 . S
C712 H728 0.931 . S
C713 C712 1.370 . S
C713 C717 1.408 . S
C714 C712 1.363 . S
C714 C715 1.370 . S
C714 C718 1.524 . S
C715 C707 1.503 . S
C715 C714 1.370 . S
C715 C716 1.403 . S
C716 C715 1.403 . S
C716 C717 1.404 . S
C716 C719 1.539 . S
C717 C713 1.408 . S
C717 C716 1.404 . S
C717 H729 0.930 . S
C718 C714 1.524 . S
C718 H730 0.956 . S
C718 H731 0.961 . S
C718 H732 0.961 . S
C719 C716 1.539 . S
C719 H733 0.958 . S
C719 H734 0.961 . S
C719 H735 0.960 . S
H720 C704 0.931 . S
H721 C709 0.929 . S
H722 C710 0.960 . S
H723 C710 0.962 . S
H724 C710 0.960 . S
H725 C711 0.961 . S
H726 C711 0.961 . S
H727 C711 0.961 . S
H728 C712 0.931 . S
H729 C717 0.930 . S
H730 C718 0.956 . S
H731 C718 0.961 . S
H732 C718 0.961 . S
H733 C719 0.958 . S
H734 C719 0.961 . S
H735 C719 0.960 . S
C736 C737 1.391 . S
C736 C738 1.394 . S
C736 H752 0.931 . S
C737 C736 1.391 . S
C737 C741 1.376 . S
C738 C736 1.394 . S
C738 C739 1.369 . S
C738 C742 1.531 . S
C739 C738 1.369 . S
C739 C740 1.410 . S
C739 C747 1.503 . S
C740 C739 1.410 . S
C740 C741 1.392 . S
C740 C743 1.511 . S
C741 C737 1.376 . S
C741 C740 1.392 . S
C741 H753 0.929 . S
C742 C738 1.531 . S
C742 H754 0.960 . S
C742 H755 0.962 . S
C742 H756 0.960 . S
C743 C740 1.511 . S
C743 H757 0.961 . S
C743 H758 0.961 . S
C743 H759 0.961 . S
C744 C745 1.370 . S
C744 C746 1.363 . S
C744 H760 0.931 . S
C745 C744 1.370 . S
C745 C749 1.408 . S
C746 C744 1.363 . S
C746 C747 1.370 . S
C746 C750 1.524 . S
C747 C739 1.503 . S
C747 C746 1.370 . S
C747 C748 1.403 . S
C748 C747 1.403 . S
C748 C749 1.404 . S
C748 C751 1.539 . S
C749 C745 1.408 . S
C749 C748 1.404 . S
C749 H761 0.930 . S
C750 C746 1.524 . S
C750 H762 0.956 . S
C750 H763 0.961 . S
C750 H764 0.961 . S
C751 C748 1.539 . S
C751 H765 0.958 . S
C751 H766 0.961 . S
C751 H767 0.960 . S
H752 C736 0.931 . S
H753 C741 0.929 . S
H754 C742 0.960 . S
H755 C742 0.962 . S
H756 C742 0.960 . S
H757 C743 0.961 . S
H758 C743 0.961 . S
H759 C743 0.961 . S
H760 C744 0.931 . S
H761 C749 0.930 . S
H762 C750 0.956 . S
H763 C750 0.961 . S
H764 C750 0.961 . S
H765 C751 0.958 . S
H766 C751 0.961 . S
H767 C751 0.960 . S
C768 C769 1.391 . S
C768 C770 1.394 . S
C768 H784 0.931 . S
C769 C768 1.391 . S
C769 C773 1.376 . S
C770 C768 1.394 . S
C770 C771 1.369 . S
C770 C774 1.531 . S
C771 C770 1.369 . S
C771 C772 1.410 . S
C771 C779 1.503 . S
C772 C771 1.410 . S
C772 C773 1.392 . S
C772 C775 1.511 . S
C773 C769 1.376 . S
C773 C772 1.392 . S
C773 H785 0.929 . S
C774 C770 1.531 . S
C774 H786 0.960 . S
C774 H787 0.962 . S
C774 H788 0.960 . S
C775 C772 1.511 . S
C775 H789 0.961 . S
C775 H790 0.961 . S
C775 H791 0.961 . S
C776 C777 1.370 . S
C776 C778 1.363 . S
C776 H792 0.931 . S
C777 C776 1.370 . S
C777 C781 1.408 . S
C778 C776 1.363 . S
C778 C779 1.370 . S
C778 C782 1.524 . S
C779 C771 1.503 . S
C779 C778 1.370 . S
C779 C780 1.403 . S
C780 C779 1.403 . S
C780 C781 1.404 . S
C780 C783 1.539 . S
C781 C777 1.408 . S
C781 C780 1.404 . S
C781 H793 0.930 . S
C782 C778 1.524 . S
C782 H794 0.956 . S
C782 H795 0.961 . S
C782 H796 0.961 . S
C783 C780 1.539 . S
C783 H797 0.958 . S
C783 H798 0.961 . S
C783 H799 0.960 . S
H784 C768 0.931 . S
H785 C773 0.929 . S
H786 C774 0.960 . S
H787 C774 0.962 . S
H788 C774 0.960 . S
H789 C775 0.961 . S
H790 C775 0.961 . S
H791 C775 0.961 . S
H792 C776 0.931 . S
H793 C781 0.930 . S
H794 C782 0.956 . S
H795 C782 0.961 . S
H796 C782 0.961 . S
H797 C783 0.958 . S
H798 C783 0.961 . S
H799 C783 0.960 . S
C800 C801 1.391 . S
C800 C802 1.394 . S
C800 H816 0.931 . S
C801 C800 1.391 . S
C801 C805 1.376 . S
C802 C800 1.394 . S
C802 C803 1.369 . S
C802 C806 1.531 . S
C803 C802 1.369 . S
C803 C804 1.410 . S
C803 C811 1.503 . S
C804 C803 1.410 . S
C804 C805 1.392 . S
C804 C807 1.511 . S
C805 C801 1.376 . S
C805 C804 1.392 . S
C805 H817 0.929 . S
C806 C802 1.531 . S
C806 H818 0.960 . S
C806 H819 0.962 . S
C806 H820 0.960 . S
C807 C804 1.511 . S
C807 H821 0.961 . S
C807 H822 0.961 . S
C807 H823 0.961 . S
C808 C809 1.370 . S
C808 C810 1.363 . S
C808 H824 0.931 . S
C809 C808 1.370 . S
C809 C813 1.408 . S
C810 C808 1.363 . S
C810 C811 1.370 . S
C810 C814 1.524 . S
C811 C803 1.503 . S
C811 C810 1.370 . S
C811 C812 1.403 . S
C812 C811 1.403 . S
C812 C813 1.404 . S
C812 C815 1.539 . S
C813 C809 1.408 . S
C813 C812 1.404 . S
C813 H825 0.930 . S
C814 C810 1.524 . S
C814 H826 0.956 . S
C814 H827 0.961 . S
C814 H828 0.961 . S
C815 C812 1.539 . S
C815 H829 0.958 . S
C815 H830 0.961 . S
C815 H831 0.960 . S
H816 C800 0.931 . S
H817 C805 0.929 . S
H818 C806 0.960 . S
H819 C806 0.962 . S
H820 C806 0.960 . S
H821 C807 0.961 . S
H822 C807 0.961 . S
H823 C807 0.961 . S
H824 C808 0.931 . S
H825 C813 0.930 . S
H826 C814 0.956 . S
H827 C814 0.961 . S
H828 C814 0.961 . S
H829 C815 0.958 . S
H830 C815 0.961 . S
H831 C815 0.960 . S
C832 C833 1.391 . S
C832 C834 1.394 . S
C832 H848 0.931 . S
C833 C832 1.391 . S
C833 C837 1.376 . S
C834 C832 1.394 . S
C834 C835 1.369 . S
C834 C838 1.531 . S
C835 C834 1.369 . S
C835 C836 1.410 . S
C835 C843 1.503 . S
C836 C835 1.410 . S
C836 C837 1.392 . S
C836 C839 1.511 . S
C837 C833 1.376 . S
C837 C836 1.392 . S
C837 H849 0.929 . S
C838 C834 1.531 . S
C838 H850 0.960 . S
C838 H851 0.962 . S
C838 H852 0.960 . S
C839 C836 1.511 . S
C839 H853 0.961 . S
C839 H854 0.961 . S
C839 H855 0.961 . S
C840 C841 1.370 . S
C840 C842 1.363 . S
C840 H856 0.931 . S
C841 C840 1.370 . S
C841 C845 1.408 . S
C842 C840 1.363 . S
C842 C843 1.370 . S
C842 C846 1.524 . S
C843 C835 1.503 . S
C843 C842 1.370 . S
C843 C844 1.403 . S
C844 C843 1.403 . S
C844 C845 1.404 . S
C844 C847 1.539 . S
C845 C841 1.408 . S
C845 C844 1.404 . S
C845 H857 0.930 . S
C846 C842 1.524 . S
C846 H858 0.956 . S
C846 H859 0.961 . S
C846 H860 0.961 . S
C847 C844 1.539 . S
C847 H861 0.958 . S
C847 H862 0.961 . S
C847 H863 0.960 . S
H848 C832 0.931 . S
H849 C837 0.929 . S
H850 C838 0.960 . S
H851 C838 0.962 . S
H852 C838 0.960 . S
H853 C839 0.961 . S
H854 C839 0.961 . S
H855 C839 0.961 . S
H856 C840 0.931 . S
H857 C845 0.930 . S
H858 C846 0.956 . S
H859 C846 0.961 . S
H860 C846 0.961 . S
H861 C847 0.958 . S
H862 C847 0.961 . S
H863 C847 0.960 . S
C864 C865 1.391 . S
C864 C866 1.394 . S
C864 H880 0.931 . S
C865 C864 1.391 . S
C865 C869 1.376 . S
C866 C864 1.394 . S
C866 C867 1.369 . S
C866 C870 1.531 . S
C867 C866 1.369 . S
C867 C868 1.410 . S
C867 C875 1.503 . S
C868 C867 1.410 . S
C868 C869 1.392 . S
C868 C871 1.511 . S
C869 C865 1.376 . S
C869 C868 1.392 . S
C869 H881 0.929 . S
C870 C866 1.531 . S
C870 H882 0.960 . S
C870 H883 0.962 . S
C870 H884 0.960 . S
C871 C868 1.511 . S
C871 H885 0.961 . S
C871 H886 0.961 . S
C871 H887 0.961 . S
C872 C873 1.370 . S
C872 C874 1.363 . S
C872 H888 0.931 . S
C873 C872 1.370 . S
C873 C877 1.408 . S
C874 C872 1.363 . S
C874 C875 1.370 . S
C874 C878 1.524 . S
C875 C867 1.503 . S
C875 C874 1.370 . S
C875 C876 1.403 . S
C876 C875 1.403 . S
C876 C877 1.404 . S
C876 C879 1.539 . S
C877 C873 1.408 . S
C877 C876 1.404 . S
C877 H889 0.930 . S
C878 C874 1.524 . S
C878 H890 0.956 . S
C878 H891 0.961 . S
C878 H892 0.961 . S
C879 C876 1.539 . S
C879 H893 0.958 . S
C879 H894 0.961 . S
C879 H895 0.960 . S
H880 C864 0.931 . S
H881 C869 0.929 . S
H882 C870 0.960 . S
H883 C870 0.962 . S
H884 C870 0.960 . S
H885 C871 0.961 . S
H886 C871 0.961 . S
H887 C871 0.961 . S
H888 C872 0.931 . S
H889 C877 0.930 . S
H890 C878 0.956 . S
H891 C878 0.961 . S
H892 C878 0.961 . S
H893 C879 0.958 . S
H894 C879 0.961 . S
H895 C879 0.960 . S
C896 C897 1.391 . S
C896 C898 1.394 . S
C896 H912 0.931 . S
C897 C896 1.391 . S
C897 C901 1.376 . S
C898 C896 1.394 . S
C898 C899 1.369 . S
C898 C902 1.531 . S
C899 C898 1.369 . S
C899 C900 1.410 . S
C899 C907 1.503 . S
C900 C899 1.410 . S
C900 C901 1.392 . S
C900 C903 1.511 . S
C901 C897 1.376 . S
C901 C900 1.392 . S
C901 H913 0.929 . S
C902 C898 1.531 . S
C902 H914 0.960 . S
C902 H915 0.962 . S
C902 H916 0.960 . S
C903 C900 1.511 . S
C903 H917 0.961 . S
C903 H918 0.961 . S
C903 H919 0.961 . S
C904 C905 1.370 . S
C904 C906 1.363 . S
C904 H920 0.931 . S
C905 C904 1.370 . S
C905 C909 1.408 . S
C906 C904 1.363 . S
C906 C907 1.370 . S
C906 C910 1.524 . S
C907 C899 1.503 . S
C907 C906 1.370 . S
C907 C908 1.403 . S
C908 C907 1.403 . S
C908 C909 1.404 . S
C908 C911 1.539 . S
C909 C905 1.408 . S
C909 C908 1.404 . S
C909 H921 0.930 . S
C910 C906 1.524 . S
C910 H922 0.956 . S
C910 H923 0.961 . S
C910 H924 0.961 . S
C911 C908 1.539 . S
C911 H925 0.958 . S
C911 H926 0.961 . S
C911 H927 0.960 . S
H912 C896 0.931 . S
H913 C901 0.929 . S
H914 C902 0.960 . S
H915 C902 0.962 . S
H916 C902 0.960 . S
H917 C903 0.961 . S
H918 C903 0.961 . S
H919 C903 0.961 . S
H920 C904 0.931 . S
H921 C909 0.930 . S
H922 C910 0.956 . S
H923 C910 0.961 . S
H924 C910 0.961 . S
H925 C911 0.958 . S
H926 C911 0.961 . S
H927 C911 0.960 . S
C928 C929 1.391 . S
C928 C930 1.394 . S
C928 H944 0.931 . S
C929 C928 1.391 . S
C929 C933 1.376 . S
C930 C928 1.394 . S
C930 C931 1.369 . S
C930 C934 1.531 . S
C931 C930 1.369 . S
C931 C932 1.410 . S
C931 C939 1.503 . S
C932 C931 1.410 . S
C932 C933 1.392 . S
C932 C935 1.511 . S
C933 C929 1.376 . S
C933 C932 1.392 . S
C933 H945 0.929 . S
C934 C930 1.531 . S
C934 H946 0.960 . S
C934 H947 0.962 . S
C934 H948 0.960 . S
C935 C932 1.511 . S
C935 H949 0.961 . S
C935 H950 0.961 . S
C935 H951 0.961 . S
C936 C937 1.370 . S
C936 C938 1.363 . S
C936 H952 0.931 . S
C937 C936 1.370 . S
C937 C941 1.408 . S
C938 C936 1.363 . S
C938 C939 1.370 . S
C938 C942 1.524 . S
C939 C931 1.503 . S
C939 C938 1.370 . S
C939 C940 1.403 . S
C940 C939 1.403 . S
C940 C941 1.404 . S
C940 C943 1.539 . S
C941 C937 1.408 . S
C941 C940 1.404 . S
C941 H953 0.930 . S
C942 C938 1.524 . S
C942 H954 0.956 . S
C942 H955 0.961 . S
C942 H956 0.961 . S
C943 C940 1.539 . S
C943 H957 0.958 . S
C943 H958 0.961 . S
C943 H959 0.960 . S
H944 C928 0.931 . S
H945 C933 0.929 . S
H946 C934 0.960 . S
H947 C934 0.962 . S
H948 C934 0.960 . S
H949 C935 0.961 . S
H950 C935 0.961 . S
H951 C935 0.961 . S
H952 C936 0.931 . S
H953 C941 0.930 . S
H954 C942 0.956 . S
H955 C942 0.961 . S
H956 C942 0.961 . S
H957 C943 0.958 . S
H958 C943 0.961 . S
H959 C943 0.960 . S
C960 C961 1.391 . S
C960 C962 1.394 . S
C960 H976 0.931 . S
C961 C960 1.391 . S
C961 C965 1.376 . S
C962 C960 1.394 . S
C962 C963 1.369 . S
C962 C966 1.531 . S
C963 C962 1.369 . S
C963 C964 1.410 . S
C963 C971 1.503 . S
C964 C963 1.410 . S
C964 C965 1.392 . S
C964 C967 1.511 . S
C965 C961 1.376 . S
C965 C964 1.392 . S
C965 H977 0.929 . S
C966 C962 1.531 . S
C966 H978 0.960 . S
C966 H979 0.962 . S
C966 H980 0.960 . S
C967 C964 1.511 . S
C967 H981 0.961 . S
C967 H982 0.961 . S
C967 H983 0.961 . S
C968 C969 1.370 . S
C968 C970 1.363 . S
C968 H984 0.931 . S
C969 C968 1.370 . S
C969 C973 1.408 . S
C970 C968 1.363 . S
C970 C971 1.370 . S
C970 C974 1.524 . S
C971 C963 1.503 . S
C971 C970 1.370 . S
C971 C972 1.403 . S
C972 C971 1.403 . S
C972 C973 1.404 . S
C972 C975 1.539 . S
C973 C969 1.408 . S
C973 C972 1.404 . S
C973 H985 0.930 . S
C974 C970 1.524 . S
C974 H986 0.956 . S
C974 H987 0.961 . S
C974 H988 0.961 . S
C975 C972 1.539 . S
C975 H989 0.958 . S
C975 H990 0.961 . S
C975 H991 0.960 . S
H976 C960 0.931 . S
H977 C965 0.929 . S
H978 C966 0.960 . S
H979 C966 0.962 . S
H980 C966 0.960 . S
H981 C967 0.961 . S
H982 C967 0.961 . S
H983 C967 0.961 . S
H984 C968 0.931 . S
H985 C973 0.930 . S
H986 C974 0.956 . S
H987 C974 0.961 . S
H988 C974 0.961 . S
H989 C975 0.958 . S
H990 C975 0.961 . S
H991 C975 0.960 . S
C992 C993 1.391 . S
C992 C994 1.394 . S
C992 H1008 0.931 . S
C993 C992 1.391 . S
C993 C997 1.376 . S
C994 C992 1.394 . S
C994 C995 1.369 . S
C994 C998 1.531 1_655 S
C995 C994 1.369 . S
C995 C996 1.410 . S
C995 C1003 1.503 1_665 S
C996 C995 1.410 . S
C996 C997 1.392 . S
C996 C999 1.511 1_565 S
C997 C993 1.376 . S
C997 C996 1.392 . S
C997 H1009 0.929 . S
C998 C994 1.531 1_455 S
C998 H1010 0.960 . S
C998 H1011 0.962 . S
C998 H1012 0.960 1_455 S
C999 C996 1.511 1_545 S
C999 H1013 0.961 1_545 S
C999 H1014 0.961 . S
C999 H1015 0.961 . S
C1000 C1001 1.370 . S
C1000 C1002 1.363 . S
C1000 H1016 0.931 . S
C1001 C1000 1.370 . S
C1001 C1005 1.408 . S
C1002 C1000 1.363 . S
C1002 C1003 1.370 . S
C1002 C1006 1.524 1_545 S
C1003 C995 1.503 1_445 S
C1003 C1002 1.370 . S
C1003 C1004 1.403 1_455 S
C1004 C1003 1.403 1_655 S
C1004 C1005 1.404 1_655 S
C1004 C1007 1.539 . S
C1005 C1001 1.408 . S
C1005 C1004 1.404 1_455 S
C1005 H1017 0.930 . S
C1006 C1002 1.524 1_565 S
C1006 H1018 0.956 . S
C1006 H1019 0.961 . S
C1006 H1020 0.961 . S
C1007 C1004 1.539 . S
C1007 H1021 0.958 . S
C1007 H1022 0.961 . S
C1007 H1023 0.960 . S
H1008 C992 0.931 . S
H1009 C997 0.929 . S
H1010 C998 0.960 . S
H1011 C998 0.962 . S
H1012 C998 0.960 1_655 S
H1013 C999 0.961 1_565 S
H1014 C999 0.961 . S
H1015 C999 0.961 . S
H1016 C1000 0.931 . S
H1017 C1005 0.930 . S
H1018 C1006 0.956 . S
H1019 C1006 0.961 . S
H1020 C1006 0.961 . S
H1021 C1007 0.958 . S
H1022 C1007 0.961 . S
H1023 C1007 0.960 . S
C1024 C1025 1.391 . S
C1024 C1026 1.394 . S
C1024 H1040 0.931 . S
C1025 C1024 1.391 . S
C1025 C1029 1.376 . S
C1026 C1024 1.394 . S
C1026 C1027 1.369 . S
C1026 C1030 1.531 . S
C1027 C1026 1.369 . S
C1027 C1028 1.410 . S
C1027 C1035 1.503 1_645 S
C1028 C1027 1.410 . S
C1028 C1029 1.392 . S
C1028 C1031 1.511 . S
C1029 C1025 1.376 . S
C1029 C1028 1.392 . S
C1029 H1041 0.929 . S
C1030 C1026 1.531 . S
C1030 H1042 0.960 1_655 S
C1030 H1043 0.962 . S
C1030 H1044 0.960 . S
C1031 C1028 1.511 . S
C1031 H1045 0.961 . S
C1031 H1046 0.961 1_545 S
C1031 H1047 0.961 1_655 S
C1032 C1033 1.370 . S
C1032 C1034 1.363 . S
C1032 H1048 0.931 . S
C1033 C1032 1.370 . S
C1033 C1037 1.408 . S
C1034 C1032 1.363 . S
C1034 C1035 1.370 . S
C1034 C1038 1.524 1_455 S
C1035 C1027 1.503 1_465 S
C1035 C1034 1.370 . S
C1035 C1036 1.403 1_565 S
C1036 C1035 1.403 1_545 S
C1036 C1037 1.404 1_545 S
C1036 C1039 1.539 . S
C1037 C1033 1.408 . S
C1037 C1036 1.404 1_565 S
C1037 H1049 0.930 . S
C1038 C1034 1.524 1_655 S
C1038 H1050 0.956 . S
C1038 H1051 0.961 . S
C1038 H1052 0.961 . S
C1039 C1036 1.539 . S
C1039 H1053 0.958 . S
C1039 H1054 0.961 . S
C1039 H1055 0.960 . S
H1040 C1024 0.931 . S
H1041 C1029 0.929 . S
H1042 C1030 0.960 1_455 S
H1043 C1030 0.962 . S
H1044 C1030 0.960 . S
H1045 C1031 0.961 . S
H1046 C1031 0.961 1_565 S
H1047 C1031 0.961 1_455 S
H1048 C1032 0.931 . S
H1049 C1037 0.930 . S
H1050 C1038 0.956 . S
H1051 C1038 0.961 . S
H1052 C1038 0.961 . S
H1053 C1039 0.958 . S
H1054 C1039 0.961 . S
H1055 C1039 0.960 . S
C1056 C1057 1.391 . S
C1056 C1058 1.394 . S
C1056 H1072 0.931 . S
C1057 C1056 1.391 . S
C1057 C1061 1.376 . S
C1058 C1056 1.394 . S
C1058 C1059 1.369 . S
C1058 C1062 1.531 1_455 S
C1059 C1058 1.369 . S
C1059 C1060 1.410 . S
C1059 C1067 1.503 1_455 S
C1060 C1059 1.410 . S
C1060 C1061 1.392 . S
C1060 C1063 1.511 . S
C1061 C1057 1.376 . S
C1061 C1060 1.392 . S
C1061 H1073 0.929 . S
C1062 C1058 1.531 1_655 S
C1062 H1074 0.960 . S
C1062 H1075 0.962 . S
C1062 H1076 0.960 . S
C1063 C1060 1.511 . S
C1063 H1077 0.961 . S
C1063 H1078 0.961 . S
C1063 H1079 0.961 . S
C1064 C1065 1.370 . S
C1064 C1066 1.363 . S
C1064 H1080 0.931 . S
C1065 C1064 1.370 . S
C1065 C1069 1.408 . S
C1066 C1064 1.363 . S
C1066 C1067 1.370 . S
C1066 C1070 1.524 . S
C1067 C1059 1.503 1_655 S
C1067 C1066 1.370 . S
C1067 C1068 1.403 . S
C1068 C1067 1.403 . S
C1068 C1069 1.404 . S
C1068 C1071 1.539 1_656 S
C1069 C1065 1.408 . S
C1069 C1068 1.404 . S
C1069 H1081 0.930 . S
C1070 C1066 1.524 . S
C1070 H1082 0.956 . S
C1070 H1083 0.961 . S
C1070 H1084 0.961 . S
C1071 C1068 1.539 1_454 S
C1071 H1085 0.952 1_455 S
C1071 H1086 0.961 . S
C1071 H1087 0.966 . S
H1072 C1056 0.931 . S
H1073 C1061 0.929 . S
H1074 C1062 0.960 . S
H1075 C1062 0.962 . S
H1076 C1062 0.960 . S
H1077 C1063 0.961 . S
H1078 C1063 0.961 . S
H1079 C1063 0.961 . S
H1080 C1064 0.931 . S
H1081 C1069 0.930 . S
H1082 C1070 0.956 . S
H1083 C1070 0.961 . S
H1084 C1070 0.961 . S
H1085 C1071 0.952 1_655 S
H1086 C1071 0.961 . S
H1087 C1071 0.966 . S
C1088 C1089 1.391 . S
C1088 C1090 1.394 . S
C1088 H1104 0.931 . S
C1089 C1088 1.391 . S
C1089 C1093 1.376 . S
C1090 C1088 1.394 . S
C1090 C1091 1.369 . S
C1090 C1094 1.531 . S
C1091 C1090 1.369 . S
C1091 C1092 1.410 . S
C1091 C1099 1.503 1_565 S
C1092 C1091 1.410 . S
C1092 C1093 1.392 . S
C1092 C1095 1.511 1_565 S
C1093 C1089 1.376 . S
C1093 C1092 1.392 . S
C1093 H1105 0.929 . S
C1094 C1090 1.531 . S
C1094 H1106 0.960 . S
C1094 H1107 0.962 . S
C1094 H1108 0.960 . S
C1095 C1092 1.511 1_545 S
C1095 H1109 0.951 1_554 S
C1095 H1110 0.961 . S
C1095 H1111 0.961 1_554 S
C1096 C1097 1.370 . S
C1096 C1098 1.363 . S
C1096 H1112 0.931 . S
C1097 C1096 1.370 . S
C1097 C1101 1.408 . S
C1098 C1096 1.363 . S
C1098 C1099 1.370 . S
C1098 C1102 1.524 . S
C1099 C1091 1.503 1_545 S
C1099 C1098 1.370 . S
C1099 C1100 1.403 . S
C1100 C1099 1.403 . S
C1100 C1101 1.404 . S
C1100 C1103 1.539 1_545 S
C1101 C1097 1.408 . S
C1101 C1100 1.404 . S
C1101 H1113 0.930 . S
C1102 C1098 1.524 . S
C1102 H1114 0.956 . S
C1102 H1115 0.961 . S
C1102 H1116 0.961 . S
C1103 C1100 1.539 1_565 S
C1103 H1117 0.958 . S
C1103 H1118 0.961 1_554 S
C1103 H1119 0.960 1_554 S
H1104 C1088 0.931 . S
H1105 C1093 0.929 . S
H1106 C1094 0.960 . S
H1107 C1094 0.962 . S
H1108 C1094 0.960 . S
H1109 C1095 0.951 1_556 S
H1110 C1095 0.961 . S
H1111 C1095 0.961 1_556 S
H1112 C1096 0.931 . S
H1113 C1101 0.930 . S
H1114 C1102 0.956 . S
H1115 C1102 0.961 . S
H1116 C1102 0.961 . S
H1117 C1103 0.958 . S
H1118 C1103 0.961 1_556 S
H1119 C1103 0.960 1_556 S
C1120 C1121 1.391 . S
C1120 C1122 1.394 . S
C1120 H1136 0.931 . S
C1121 C1120 1.391 . S
C1121 C1125 1.376 . S
C1122 C1120 1.394 . S
C1122 C1123 1.369 . S
C1122 C1126 1.531 . S
C1123 C1122 1.369 . S
C1123 C1124 1.410 . S
C1123 C1131 1.503 . S
C1124 C1123 1.410 . S
C1124 C1125 1.392 . S
C1124 C1127 1.511 . S
C1125 C1121 1.376 . S
C1125 C1124 1.392 . S
C1125 H1137 0.929 . S
C1126 C1122 1.531 . S
C1126 H1138 0.960 . S
C1126 H1139 0.962 . S
C1126 H1140 0.960 . S
C1127 C1124 1.511 . S
C1127 H1141 0.961 . S
C1127 H1142 0.961 . S
C1127 H1143 0.961 . S
C1128 C1129 1.370 . S
C1128 C1130 1.363 . S
C1128 H1144 0.931 . S
C1129 C1128 1.370 . S
C1129 C1133 1.408 . S
C1130 C1128 1.363 . S
C1130 C1131 1.370 . S
C1130 C1134 1.524 . S
C1131 C1123 1.503 . S
C1131 C1130 1.370 . S
C1131 C1132 1.403 . S
C1132 C1131 1.403 . S
C1132 C1133 1.404 . S
C1132 C1135 1.539 . S
C1133 C1129 1.408 . S
C1133 C1132 1.404 . S
C1133 H1145 0.930 . S
C1134 C1130 1.524 . S
C1134 H1146 0.956 . S
C1134 H1147 0.961 . S
C1134 H1148 0.961 . S
C1135 C1132 1.539 . S
C1135 H1149 0.958 . S
C1135 H1150 0.961 . S
C1135 H1151 0.960 . S
H1136 C1120 0.931 . S
H1137 C1125 0.929 . S
H1138 C1126 0.960 . S
H1139 C1126 0.962 . S
H1140 C1126 0.960 . S
H1141 C1127 0.961 . S
H1142 C1127 0.961 . S
H1143 C1127 0.961 . S
H1144 C1128 0.931 . S
H1145 C1133 0.930 . S
H1146 C1134 0.956 . S
H1147 C1134 0.961 . S
H1148 C1134 0.961 . S
H1149 C1135 0.958 . S
H1150 C1135 0.961 . S
H1151 C1135 0.960 . S
C1152 C1153 1.391 . S
C1152 C1154 1.394 . S
C1152 H1168 0.931 . S
C1153 C1152 1.391 . S
C1153 C1157 1.376 . S
C1154 C1152 1.394 . S
C1154 C1155 1.369 . S
C1154 C1158 1.531 . S
C1155 C1154 1.369 . S
C1155 C1156 1.410 . S
C1155 C1163 1.503 . S
C1156 C1155 1.410 . S
C1156 C1157 1.392 . S
C1156 C1159 1.511 . S
C1157 C1153 1.376 . S
C1157 C1156 1.392 . S
C1157 H1169 0.929 . S
C1158 C1154 1.531 . S
C1158 H1170 0.960 . S
C1158 H1171 0.962 . S
C1158 H1172 0.960 . S
C1159 C1156 1.511 . S
C1159 H1173 0.961 . S
C1159 H1174 0.961 . S
C1159 H1175 0.961 . S
C1160 C1161 1.370 . S
C1160 C1162 1.363 . S
C1160 H1176 0.931 . S
C1161 C1160 1.370 . S
C1161 C1165 1.408 . S
C1162 C1160 1.363 . S
C1162 C1163 1.370 . S
C1162 C1166 1.524 . S
C1163 C1155 1.503 . S
C1163 C1162 1.370 . S
C1163 C1164 1.403 . S
C1164 C1163 1.403 . S
C1164 C1165 1.404 . S
C1164 C1167 1.539 . S
C1165 C1161 1.408 . S
C1165 C1164 1.404 . S
C1165 H1177 0.930 . S
C1166 C1162 1.524 . S
C1166 H1178 0.956 . S
C1166 H1179 0.961 . S
C1166 H1180 0.961 . S
C1167 C1164 1.539 . S
C1167 H1181 0.958 . S
C1167 H1182 0.961 . S
C1167 H1183 0.960 . S
H1168 C1152 0.931 . S
H1169 C1157 0.929 . S
H1170 C1158 0.960 . S
H1171 C1158 0.962 . S
H1172 C1158 0.960 . S
H1173 C1159 0.961 . S
H1174 C1159 0.961 . S
H1175 C1159 0.961 . S
H1176 C1160 0.931 . S
H1177 C1165 0.930 . S
H1178 C1166 0.956 . S
H1179 C1166 0.961 . S
H1180 C1166 0.961 . S
H1181 C1167 0.958 . S
H1182 C1167 0.961 . S
H1183 C1167 0.960 . S
C1184 C1185 1.391 . S
C1184 C1186 1.394 . S
C1184 H1200 0.931 . S
C1185 C1184 1.391 . S
C1185 C1189 1.376 . S
C1186 C1184 1.394 . S
C1186 C1187 1.369 . S
C1186 C1190 1.531 1_545 S
C1187 C1186 1.369 . S
C1187 C1188 1.410 . S
C1187 C1195 1.503 1_545 S
C1188 C1187 1.410 . S
C1188 C1189 1.392 . S
C1188 C1191 1.511 . S
C1189 C1185 1.376 . S
C1189 C1188 1.392 . S
C1189 H1201 0.929 . S
C1190 C1186 1.531 1_565 S
C1190 H1202 0.960 . S
C1190 H1203 0.962 . S
C1190 H1204 0.960 . S
C1191 C1188 1.511 . S
C1191 H1205 0.961 . S
C1191 H1206 0.961 . S
C1191 H1207 0.961 . S
C1192 C1193 1.370 . S
C1192 C1194 1.363 . S
C1192 H1208 0.931 . S
C1193 C1192 1.370 . S
C1193 C1197 1.408 . S
C1194 C1192 1.363 . S
C1194 C1195 1.370 . S
C1194 C1198 1.524 1_565 S
C1195 C1187 1.503 1_565 S
C1195 C1194 1.370 . S
C1195 C1196 1.403 . S
C1196 C1195 1.403 . S
C1196 C1197 1.404 . S
C1196 C1199 1.539 . S
C1197 C1193 1.408 . S
C1197 C1196 1.404 . S
C1197 H1209 0.930 . S
C1198 C1194 1.524 1_545 S
C1198 H1210 0.956 . S
C1198 H1211 0.961 . S
C1198 H1212 0.955 1_545 S
C1199 C1196 1.539 . S
C1199 H1213 0.958 . S
C1199 H1214 0.961 . S
C1199 H1215 0.960 . S
H1200 C1184 0.931 . S
H1201 C1189 0.929 . S
H1202 C1190 0.960 . S
H1203 C1190 0.962 . S
H1204 C1190 0.960 . S
H1205 C1191 0.961 . S
H1206 C1191 0.961 . S
H1207 C1191 0.961 . S
H1208 C1192 0.931 . S
H1209 C1197 0.930 . S
H1210 C1198 0.956 . S
H1211 C1198 0.961 . S
H1212 C1198 0.955 1_565 S
H1213 C1199 0.958 . S
H1214 C1199 0.961 . S
H1215 C1199 0.960 . S
C1216 C1217 1.391 . S
C1216 C1218 1.394 . S
C1216 H1232 0.931 . S
C1217 C1216 1.391 . S
C1217 C1221 1.376 . S
C1218 C1216 1.394 . S
C1218 C1219 1.369 . S
C1218 C1222 1.531 . S
C1219 C1218 1.369 . S
C1219 C1220 1.410 . S
C1219 C1227 1.503 1_655 S
C1220 C1219 1.410 . S
C1220 C1221 1.392 . S
C1220 C1223 1.511 1_655 S
C1221 C1217 1.376 . S
C1221 C1220 1.392 . S
C1221 H1233 0.929 . S
C1222 C1218 1.531 . S
C1222 H1234 0.960 . S
C1222 H1235 0.962 . S
C1222 H1236 0.960 . S
C1223 C1220 1.511 1_455 S
C1223 H1237 0.961 . S
C1223 H1238 0.961 . S
C1223 H1239 0.961 . S
C1224 C1225 1.370 . S
C1224 C1226 1.363 . S
C1224 H1240 0.931 . S
C1225 C1224 1.370 . S
C1225 C1229 1.408 . S
C1226 C1224 1.363 . S
C1226 C1227 1.370 . S
C1226 C1230 1.524 1_455 S
C1227 C1219 1.503 1_455 S
C1227 C1226 1.370 . S
C1227 C1228 1.403 . S
C1228 C1227 1.403 . S
C1228 C1229 1.404 . S
C1228 C1231 1.539 . S
C1229 C1225 1.408 . S
C1229 C1228 1.404 . S
C1229 H1241 0.930 . S
C1230 C1226 1.524 1_655 S
C1230 H1242 0.956 . S
C1230 H1243 0.961 . S
C1230 H1244 0.961 1_655 S
C1231 C1228 1.539 . S
C1231 H1245 0.958 . S
C1231 H1246 0.961 . S
C1231 H1247 0.960 . S
H1232 C1216 0.931 . S
H1233 C1221 0.929 . S
H1234 C1222 0.960 . S
H1235 C1222 0.962 . S
H1236 C1222 0.960 . S
H1237 C1223 0.961 . S
H1238 C1223 0.961 . S
H1239 C1223 0.961 . S
H1240 C1224 0.931 . S
H1241 C1229 0.930 . S
H1242 C1230 0.956 . S
H1243 C1230 0.961 . S
H1244 C1230 0.961 1_455 S
H1245 C1231 0.958 . S
H1246 C1231 0.961 . S
H1247 C1231 0.960 . S
C225 C9 1.204 . S
C233 C159 1.208 . S
C257 C117 1.225 . S
C265 C14 1.185 . S
C289 C131 1.213 . S
C297 C37 1.190 . S
C321 C145 1.219 . S
C329 C42 1.210 . S
C353 C75 1.211 1_545 S
C361 C65 1.189 . S
C385 C70 1.225 . S
C393 C89 1.218 1_455 S
C417 C93 1.161 . S
C425 C103 1.208 1_565 S
C449 C98 1.214 . S
C457 C61 1.216 1_655 S
C481 C121 1.140 . S
C489 C47 1.201 1_565 S
C513 C5 1.215 1_655 S
C521 C126 1.211 . S
C545 C19 1.207 1_545 S
C553 C149 1.169 . S
C577 C33 1.219 1_455 S
C585 C154 1.185 . S
C609 C187 1.215 . S
C617 C177 1.183 . S
C641 C182 1.176 . S
C649 C201 1.218 . S
C673 C215 1.194 . S
C681 C205 1.159 . S
C705 C173 1.230 . S
C713 C210 1.191 . S
C737 C207 1.551 . S
C745 C11 1.549 . S
C769 C221 1.588 . S
C777 C25 1.597 . S
C801 C179 1.558 . S
C809 C39 1.552 . S
C833 C53 1.588 . S
C841 C193 1.597 . S
C865 C67 1.542 . S
C873 C151 1.550 . S
C897 C165 1.593 . S
C905 C81 1.593 . S
C929 C95 1.541 . S
C937 C123 1.550 . S
C961 C109 1.593 . S
C969 C137 1.593 . S
C993 C28 1.250 . S
C1001 C0 1.210 . S
C1025 C51 1.279 . S
C1033 C23 1.241 . S
C1057 C56 1.234 . S
C1065 C84 1.215 . S
C1089 C79 1.284 . S
C1097 C107 1.251 . S
C1121 C140 1.191 . S
C1129 C112 1.234 . S
C1153 C135 1.280 . S
C1161 C163 1.256 . S
C1185 C196 1.236 . S
C1193 C168 1.219 . S
C1217 C191 1.241 . S
C1225 C219 1.236 . S
