# Generated by pormake.
# Topology sml, (6)-cn, num edge types: 1
# Building blocks:
#     Node 0, Type 0, BuildingBlock: KUMJIN_clean_sbu_0, # of connection points: 6
#     Node 1, Type 0, BuildingBlock: KUMJIN_clean_sbu_0, # of connection points: 6
#     Node 2, Type 0, BuildingBlock: KUMJIN_clean_sbu_0, # of connection points: 6
#     Node 3, Type 0, BuildingBlock: KUMJIN_clean_sbu_0, # of connection points: 6
#     Node 4, Type 0, BuildingBlock: KUMJIN_clean_sbu_0, # of connection points: 6
#     Node 5, Type 0, BuildingBlock: KUMJIN_clean_sbu_0, # of connection points: 6
#     Edge 6, Type (0, 0), BuildingBlock: XUDNAN_clean_linker_2, # of connection points: 2
#     Edge 7, Type (0, 0), BuildingBlock: XUDNAN_clean_linker_2, # of connection points: 2
#     Edge 8, Type (0, 0), BuildingBlock: XUDNAN_clean_linker_2, # of connection points: 2
#     Edge 9, Type (0, 0), BuildingBlock: XUDNAN_clean_linker_2, # of connection points: 2
#     Edge 10, Type (0, 0), BuildingBlock: XUDNAN_clean_linker_2, # of connection points: 2
#     Edge 11, Type (0, 0), BuildingBlock: XUDNAN_clean_linker_2, # of connection points: 2
#     Edge 12, Type (0, 0), BuildingBlock: XUDNAN_clean_linker_2, # of connection points: 2
#     Edge 13, Type (0, 0), BuildingBlock: XUDNAN_clean_linker_2, # of connection points: 2
#     Edge 14, Type (0, 0), BuildingBlock: XUDNAN_clean_linker_2, # of connection points: 2
#     Edge 15, Type (0, 0), BuildingBlock: XUDNAN_clean_linker_2, # of connection points: 2
#     Edge 16, Type (0, 0), BuildingBlock: XUDNAN_clean_linker_2, # of connection points: 2
#     Edge 17, Type (0, 0), BuildingBlock: XUDNAN_clean_linker_2, # of connection points: 2
#     Edge 18, Type (0, 0), BuildingBlock: XUDNAN_clean_linker_2, # of connection points: 2
#     Edge 19, Type (0, 0), BuildingBlock: XUDNAN_clean_linker_2, # of connection points: 2
#     Edge 20, Type (0, 0), BuildingBlock: XUDNAN_clean_linker_2, # of connection points: 2
#     Edge 21, Type (0, 0), BuildingBlock: XUDNAN_clean_linker_2, # of connection points: 2
#     Edge 22, Type (0, 0), BuildingBlock: XUDNAN_clean_linker_2, # of connection points: 2
#     Edge 23, Type (0, 0), BuildingBlock: XUDNAN_clean_linker_2, # of connection points: 2
# Relax obj value: 0.028
# Max RMSD: 0.151
# Mean RMSD: 0.151
data_MOF--net-sml--node1-KUMJIN_clean_sbu_0--edge1-XUDNAN_clean_linker_2
_symmetry_space_group_name_H-M    P1
_symmetry_Int_Tables_number       1
_symmetry_cell_setting            triclinic
loop_
_symmetry_equiv_pos_as_xyz
'x, y, z'
_cell_length_a     33.041357
_cell_length_b     33.059618
_cell_length_c     23.926874
_cell_angle_alpha  90.130356
_cell_angle_beta   89.537593
_cell_angle_gamma 119.97165
loop_
_atom_site_label
_atom_site_type_symbol
_atom_site_fract_x
_atom_site_fract_y
_atom_site_fract_z
_atom_type_partial_charge
Eu0 Eu 0.18433 0.43047 0.9889 0.0
C1 C 0.36003 0.43102 0.0821 0.0
C2 C 0.34083 0.3507 0.06999 0.0
C3 C 0.42196 0.41279 0.06598 0.0
C4 C 0.32697 0.38429 0.07847 0.0
C5 C 0.408 0.44582 0.07701 0.0
C6 C 0.3884 0.36527 0.06255 0.0
C7 C 0.42489 0.5241 0.09902 0.0
N8 N 0.34537 0.46177 0.09371 0.0
C9 C 0.37693 0.50759 0.1041 0.0
C10 C 0.44051 0.49315 0.0848 0.0
Eu11 Eu 0.26374 0.43225 0.09877 0.0
N12 N 0.28143 0.37147 0.08644 0.0
C13 C 0.24812 0.32533 0.08961 0.0
C14 C 0.30662 0.30342 0.07113 0.0
C15 C 0.26012 0.29068 0.08157 0.0
H16 H 0.36491 0.53162 0.11489 0.0
H17 H 0.23346 0.25418 0.08327 0.0
H18 H 0.39968 0.34 0.05553 0.0
H19 H 0.44976 0.56061 0.10614 0.0
H20 H 0.21203 0.3149 0.09739 0.0
H21 H 0.18611 0.59615 1.00526 0.0
H22 H 0.31588 0.27653 0.06538 0.0
H23 H 0.09315 0.32216 0.97402 0.0
H24 H 0.21983 0.54509 0.99041 0.0
H25 H 0.00695 0.28146 0.98029 0.0
H26 H 0.45863 0.4235 0.0615 0.0
H27 H 0.10091 0.56149 1.02024 0.0
H28 H 0.02137 0.48943 0.02572 0.0
H29 H 0.47766 0.5059 0.08127 0.0
H30 H 0.97264 0.40408 1.01783 0.0
N31 N 0.15466 0.48215 0.99839 0.0
C32 C 0.18261 0.52952 0.99672 0.0
C33 C 0.11555 0.53891 1.0137 0.0
C34 C 0.08679 0.49032 1.01233 0.0
C35 C 0.16362 0.5586 1.00513 0.0
C36 C 0.10765 0.46255 1.00384 0.0
H37 H 0.96688 0.3263 1.00012 0.0
N38 N 0.1016 0.38922 0.99004 0.0
C39 C 0.02716 0.31892 0.98575 0.0
C40 C 0.08022 0.41461 0.9992 0.0
C41 C 0.07594 0.34208 0.98196 0.0
C42 C 0.00466 0.34436 0.99699 0.0
C43 C 0.03117 0.39286 1.00349 0.0
O44 O 0.17004 0.39984 0.90535 0.0
O45 O 0.2342 0.40818 1.01505 0.0
O46 O 0.30814 0.47652 0.02533 0.0
O47 O 0.25664 0.49546 0.98178 0.0
O48 O 0.18056 0.36047 0.96888 0.0
O49 O 0.20861 0.47531 0.91498 0.0
O50 O 0.28423 0.468 0.17933 0.0
O51 O 0.21507 0.45697 0.07337 0.0
O52 O 0.13989 0.39529 0.06513 0.0
O53 O 0.18747 0.37221 0.10998 0.0
O54 O 0.27586 0.5051 0.11265 0.0
O55 O 0.24104 0.39283 0.17696 0.0
C56 C 0.21917 0.36905 0.99201 0.0
C57 C 0.17303 0.44546 0.82721 0.0
C58 C 0.18131 0.45447 0.72553 0.0
C59 C 0.19782 0.44943 0.77767 0.0
C60 C 0.13907 0.45518 0.72407 0.0
C61 C 0.13118 0.44638 0.82505 0.0
C62 C 0.11431 0.45119 0.77351 0.0
C63 C 0.29891 0.50093 0.98856 0.0
C64 C 0.19206 0.44028 0.88019 0.0
C65 C 0.01025 0.42016 1.01382 0.0
C66 C 0.03801 0.46879 1.01829 0.0
C67 C 0.23716 0.49838 0.09166 0.0
C68 C 0.28932 0.42592 0.25578 0.0
C69 C 0.27933 0.43471 0.31023 0.0
C70 C 0.30448 0.43243 0.35624 0.0
C71 C 0.33951 0.42074 0.34669 0.0
C72 C 0.32438 0.41444 0.24717 0.0
C73 C 0.34924 0.41176 0.29257 0.0
C74 C 0.14653 0.37018 0.10296 0.0
C75 C 0.26324 0.42962 0.2085 0.0
H76 H 0.22981 0.44793 0.77987 0.0
H77 H 0.12548 0.45948 0.68488 0.0
H78 H 0.11171 0.44337 0.86299 0.0
H79 H 0.08198 0.45197 0.77186 0.0
H80 H 0.2526 0.44418 0.31657 0.0
H81 H 0.35913 0.41812 0.38116 0.0
H82 H 0.33249 0.40761 0.20548 0.0
H83 H 0.37621 0.40275 0.2858 0.0
Eu84 Eu 0.75403 0.16002 0.29857 0.0
C85 C 0.92384 0.34525 0.3911 0.0
C86 C 0.9887 0.33069 0.39078 0.0
C87 C 1.0034 0.41015 0.38196 0.0
C88 C 0.94024 0.31423 0.39296 0.0
C89 C 0.95523 0.39368 0.38647 0.0
C90 C 0.02013 0.37872 0.38441 0.0
C91 C 0.88954 0.40622 0.39704 0.0
N92 N 0.87731 0.32827 0.39724 0.0
C93 C 0.85992 0.35796 0.40209 0.0
C94 C 0.93737 0.42416 0.38851 0.0
Eu95 Eu 0.82878 0.24619 0.40433 0.0
N96 N 0.90898 0.26826 0.40056 0.0
C97 C 0.9241 0.23731 0.4103 0.0
C98 C 1.00419 0.29859 0.39714 0.0
C99 C 0.97176 0.2518 0.4078 0.0
H100 H 0.82294 0.34426 0.40859 0.0
H101 H 0.98341 0.22683 0.41409 0.0
H102 H 0.05745 0.39198 0.38235 0.0
H103 H 0.87547 0.42952 0.39985 0.0
H104 H 0.89948 0.20105 0.41866 0.0
H105 H 0.59318 0.16867 0.30597 0.0
H106 H 0.0411 0.30977 0.39554 0.0
H107 H 0.76664 0.06536 0.29141 0.0
H108 H 0.67705 0.19846 0.2892 0.0
H109 H 0.71898 0.98016 0.30643 0.0
H110 H 0.02805 0.4472 0.37808 0.0
H111 H 0.54133 0.08595 0.33208 0.0
H112 H 0.53174 0.00648 0.34923 0.0
H113 H 0.9603 0.46158 0.38502 0.0
H114 H 0.56535 0.95475 0.34735 0.0
N115 N 0.67305 0.13337 0.30615 0.0
C116 C 0.65482 0.16213 0.29979 0.0
C117 C 0.57808 0.09869 0.32426 0.0
C118 C 0.59655 0.06878 0.3274 0.0
C119 C 0.60722 0.1454 0.30941 0.0
C120 C 0.64469 0.08731 0.31721 0.0
H121 H 0.63498 0.94446 0.33014 0.0
N122 N 0.71008 0.07759 0.30603 0.0
C123 C 0.70303 1.0018 0.3096 0.0
C124 C 0.66371 0.05841 0.31671 0.0
C125 C 0.72987 0.05004 0.30086 0.0
C126 C 0.65562 0.98177 0.323 0.0
C127 C 0.63529 0.01008 0.32636 0.0
O128 O 0.77527 0.14275 0.21921 0.0
O129 O 0.82654 0.21301 0.32296 0.0
O130 O 0.83161 0.28685 0.32509 0.0
O131 O 0.76168 0.23153 0.28453 0.0
O132 O 0.8184 0.15186 0.29029 0.0
O133 O 0.7335 0.17655 0.21908 0.0
O134 O 0.81185 0.26932 0.4823 0.0
O135 O 0.75616 0.19455 0.37974 0.0
O136 O 0.74522 0.12027 0.37832 0.0
O137 O 0.81547 0.17145 0.42169 0.0
O138 O 0.76625 0.25653 0.41255 0.0
O139 O 0.84202 0.22448 0.4852 0.0
C140 C 0.84852 0.19261 0.30852 0.0
C141 C 0.73452 0.13774 0.13565 0.0
C142 C 0.74082 0.13729 0.03345 0.0
C143 C 0.75915 0.15782 0.08574 0.0
C144 C 0.69681 0.09633 0.03226 0.0
C145 C 0.6909 0.0969 0.13359 0.0
C146 C 0.67216 0.07639 0.08197 0.0
C147 C 0.7978 0.27453 0.28773 0.0
C148 C 0.75552 0.16066 0.18888 0.0
C149 C 0.58766 0.99166 0.33882 0.0
C150 C 0.56844 0.02106 0.33968 0.0
C151 C 0.73517 0.21602 0.39464 0.0
C152 C 0.85524 0.2738 0.56274 0.0
C153 C 0.84309 0.25333 0.61632 0.0
C154 C 0.86993 0.2773 0.66336 0.0
C155 C 0.90872 0.32237 0.65564 0.0
C156 C 0.89423 0.31848 0.55615 0.0
C157 C 0.92068 0.34264 0.6025 0.0
C158 C 0.777 0.12977 0.41703 0.0
C159 C 0.82709 0.24791 0.51418 0.0
H160 H 0.79257 0.18985 0.08782 0.0
H161 H 0.68175 0.07917 0.99305 0.0
H162 H 0.6715 0.08102 0.1717 0.0
H163 H 0.63848 0.04474 0.08045 0.0
H164 H 0.8133 0.21847 0.62111 0.0
H165 H 0.92972 0.34221 0.69083 0.0
H166 H 0.90414 0.33465 0.51526 0.0
H167 H 0.95063 0.37725 0.59726 0.0
Eu168 Eu 0.58047 0.74752 0.62354 0.0
C169 C 0.60038 0.93308 0.72219 0.0
C170 C 0.684 0.98535 0.72243 0.0
C171 C 0.63181 0.01682 0.71306 0.0
C172 C 0.64501 0.9398 0.72454 0.0
C173 C 0.59313 0.97151 0.71734 0.0
C174 C 0.67719 0.02371 0.71554 0.0
C175 C 0.51014 0.91781 0.72568 0.0
N176 N 0.56396 0.88903 0.72743 0.0
C177 C 0.51923 0.88095 0.73097 0.0
C178 C 0.54725 0.96329 0.71829 0.0
Eu179 Eu 0.58109 0.82763 0.73254 0.0
N180 N 0.65022 0.90198 0.73184 0.0
C181 C 0.69347 0.90763 0.7413 0.0
C182 C 0.72857 0.99107 0.72909 0.0
C183 C 0.73323 0.95208 0.73951 0.0
H184 H 0.49043 0.84576 0.73633 0.0
H185 H 0.76749 0.95618 0.74578 0.0
H186 H 0.70674 0.05888 0.7131 0.0
H187 H 0.47456 0.91111 0.72725 0.0
H188 H 0.6979 0.87797 0.74883 0.0
H189 H 0.40104 0.60187 0.635 0.0
H190 H 0.75943 0.02544 0.72768 0.0
H191 H 0.68044 0.74443 0.61396 0.0
H192 H 0.46324 0.68316 0.61684 0.0
H193 H 0.7079 0.68821 0.63029 0.0
H194 H 0.62702 0.04679 0.70886 0.0
H195 H 0.42187 0.54235 0.66192 0.0
H196 H 0.48471 0.52229 0.68104 0.0
H197 H 0.54017 0.99184 0.7145 0.0
H198 H 0.56829 0.54593 0.68 0.0
N199 N 0.51855 0.66962 0.63304 0.0
C200 C 0.47271 0.65729 0.62758 0.0
C201 C 0.44927 0.5778 0.65325 0.0
C202 C 0.49642 0.59028 0.65598 0.0
C203 C 0.43738 0.6113 0.63801 0.0
C204 C 0.53065 0.63687 0.64426 0.0
H205 H 0.65143 0.60688 0.6581 0.0
N206 N 0.60929 0.69505 0.63148 0.0
C207 C 0.67115 0.67708 0.63439 0.0
C208 C 0.57745 0.64989 0.64317 0.0
C209 C 0.6555 0.70873 0.62485 0.0
C210 C 0.63916 0.63118 0.65007 0.0
C211 C 0.59159 0.61698 0.65422 0.0
O212 O 0.61805 0.76383 0.5437 0.0
O213 O 0.60908 0.82094 0.65093 0.0
O214 O 0.5486 0.83879 0.65357 0.0
O215 O 0.52525 0.76793 0.60811 0.0
O216 O 0.65627 0.80633 0.61376 0.0
O217 O 0.54246 0.72627 0.54481 0.0
O218 O 0.53922 0.81766 0.808 0.0
O219 O 0.54943 0.75402 0.7044 0.0
O220 O 0.60826 0.73298 0.70122 0.0
O221 O 0.63224 0.80065 0.75375 0.0
O222 O 0.50389 0.77377 0.73587 0.0
O223 O 0.60932 0.8284 0.81506 0.0
C224 C 0.65093 0.83925 0.63504 0.0
C225 C 0.57988 0.71477 0.46671 0.0
C226 C 0.57419 0.70018 0.36598 0.0
C227 C 0.57521 0.72735 0.412 0.0
C228 C 0.57848 0.66051 0.37571 0.0
C229 C 0.58398 0.67507 0.47549 0.0
C230 C 0.58344 0.6482 0.43006 0.0
C231 C 0.52581 0.80814 0.61318 0.0
C232 C 0.58015 0.74344 0.51391 0.0
C233 C 0.5579 0.57121 0.66919 0.0
C234 C 0.51038 0.55782 0.66993 0.0
C235 C 0.50711 0.73848 0.71853 0.0
C236 C 0.57679 0.84314 0.89598 0.0
C237 C 0.57202 0.8174 0.94467 0.0
C238 C 0.57538 0.83683 0.99816 0.0
C239 C 0.58462 0.88323 1.00163 0.0
C240 C 0.58604 0.88921 0.90032 0.0
C241 C 0.59006 0.90914 0.95307 0.0
C242 C 0.63035 0.75999 0.74406 0.0
C243 C 0.5714 0.82037 0.84156 0.0
H244 H 0.57147 0.75776 0.40545 0.0
H245 H 0.57836 0.63915 0.34124 0.0
H246 H 0.58757 0.6649 0.51732 0.0
H247 H 0.58678 0.61766 0.43697 0.0
H248 H 0.56586 0.78211 0.94056 0.0
H249 H 0.58681 0.89934 0.04177 0.0
H250 H 0.58997 0.90954 0.86312 0.0
H251 H 0.597 0.94471 0.95639 0.0
Eu252 Eu 0.82433 0.58229 0.97412 0.0
C253 C 0.67917 0.61944 0.07696 0.0
C254 C 0.71942 0.70411 0.073 0.0
C255 C 0.63541 0.65978 0.06106 0.0
C256 C 0.72054 0.66213 0.07978 0.0
C257 C 0.63615 0.61813 0.06874 0.0
C258 C 0.6769 0.7026 0.06311 0.0
C259 C 0.59654 0.53451 0.08023 0.0
N260 N 0.68051 0.57932 0.08362 0.0
C261 C 0.63971 0.53739 0.08824 0.0
C262 C 0.59479 0.57498 0.06956 0.0
Eu263 Eu 0.75574 0.58771 0.09567 0.0
N264 N 0.76166 0.66289 0.08879 0.0
C265 C 0.80241 0.70492 0.09254 0.0
C266 C 0.76109 0.74667 0.07628 0.0
C267 C 0.80264 0.74703 0.08626 0.0
H268 H 0.64035 0.50567 0.09722 0.0
H269 H 0.83513 0.77988 0.08884 0.0
H270 H 0.67565 0.73449 0.05757 0.0
H271 H 0.56462 0.50107 0.08252 0.0
H272 H 0.83562 0.70748 0.09944 0.0
H273 H 0.84409 0.42853 0.98957 0.0
H274 H 0.76156 0.77947 0.07122 0.0
H275 H 0.90805 0.69552 0.95219 0.0
H276 H 0.80185 0.47205 0.97869 0.0
H277 H 0.99339 0.74281 0.94601 0.0
H278 H 0.60277 0.65927 0.05427 0.0
H279 H 0.93054 0.47123 0.99201 0.0
H280 H 0.00586 0.54772 0.98413 0.0
H281 H 0.56126 0.57271 0.06341 0.0
H282 H 0.0463 0.63288 0.97116 0.0
N283 N 0.86323 0.53862 0.97997 0.0
C284 C 0.83942 0.49103 0.9817 0.0
C285 C 0.91206 0.49047 0.98823 0.0
C286 C 0.93639 0.53913 0.98278 0.0
C287 C 0.8633 0.46626 0.98697 0.0
C288 C 0.9106 0.56248 0.97829 0.0
H289 H 0.04191 0.70582 0.95671 0.0
N290 N 0.90708 0.63128 0.96602 0.0
C291 C 0.97693 0.70553 0.95295 0.0
C292 C 0.9333 0.61023 0.97038 0.0
C293 C 0.92824 0.67832 0.95625 0.0
C294 C 1.00422 0.68453 0.95897 0.0
C295 C 0.98253 0.63629 0.96752 0.0
O296 O 0.81631 0.6038 0.89053 0.0
O297 O 0.7775 0.60649 1.00816 0.0
O298 O 0.70638 0.53407 0.03052 0.0
O299 O 0.75522 0.51447 0.98185 0.0
O300 O 0.82588 0.65066 0.95267 0.0
O301 O 0.8071 0.53516 0.9025 0.0
O302 O 0.71203 0.53681 0.15955 0.0
O303 O 0.78631 0.54765 0.05386 0.0
O304 O 0.87419 0.61914 0.04486 0.0
O305 O 0.83338 0.63881 0.1102 0.0
O306 O 0.79281 0.55436 0.1388 0.0
O307 O 0.7588 0.60972 0.18202 0.0
C308 C 0.79077 0.64435 0.98281 0.0
C309 C 0.82844 0.5683 0.81173 0.0
C310 C 0.8204 0.56459 0.70997 0.0
C311 C 0.80109 0.56014 0.76387 0.0
C312 C 0.86783 0.57745 0.70504 0.0
C313 C 0.87557 0.58109 0.80602 0.0
C314 C 0.89509 0.58556 0.75276 0.0
C315 C 0.71333 0.50905 0.99189 0.0
C316 C 0.80708 0.56478 0.86685 0.0
C317 C 0.00846 0.61344 0.97311 0.0
C318 C 0.98543 0.56495 0.98069 0.0
C319 C 0.80196 0.53689 0.09596 0.0
C320 C 0.69665 0.5647 0.2452 0.0
C321 C 0.70781 0.55921 0.30019 0.0
C322 C 0.6791 0.55658 0.3454 0.0
C323 C 0.63882 0.55946 0.33479 0.0
C324 C 0.65695 0.56859 0.23551 0.0
C325 C 0.62807 0.5657 0.28018 0.0
C326 C 0.87199 0.64065 0.09053 0.0
C327 C 0.72831 0.56786 0.19967 0.0
H328 H 0.76489 0.55118 0.76878 0.0
H329 H 0.88379 0.5807 0.66436 0.0
H330 H 0.89716 0.5878 0.84258 0.0
H331 H 0.93151 0.5954 0.74841 0.0
H332 H 0.73877 0.55663 0.30776 0.0
H333 H 0.61619 0.55776 0.36881 0.0
H334 H 0.64844 0.57419 0.19382 0.0
H335 H 0.59738 0.56862 0.27252 0.0
Eu336 Eu 0.2465 0.83821 0.31887 0.0
C337 C 0.07945 0.65629 0.42423 0.0
C338 C 0.01325 0.66682 0.40663 0.0
C339 C 1.00265 0.58857 0.4094 0.0
C340 C 0.06131 0.68546 0.41675 0.0
C341 C 0.05023 0.60743 0.42178 0.0
C342 C 0.98418 0.61824 0.40182 0.0
C343 C 0.1166 0.59968 0.44783 0.0
N344 N 0.12544 0.67575 0.43626 0.0
C345 C 0.14408 0.64839 0.44991 0.0
C346 C 0.06957 0.57909 0.43303 0.0
Eu347 Eu 0.17074 0.75826 0.43412 0.0
N348 N 0.09037 0.73208 0.42185 0.0
C349 C 0.07316 0.76199 0.42149 0.0
C350 C 0.99575 0.69752 0.40302 0.0
C351 C 0.02574 0.74527 0.41137 0.0
H352 H 0.18054 0.66425 0.46078 0.0
H353 H 0.01244 0.76924 0.40958 0.0
H354 H 0.94723 0.60323 0.39352 0.0
H355 H 0.13172 0.57809 0.45745 0.0
H356 H 0.0963 0.79899 0.42734 0.0
H357 H 0.4183 0.854 0.30124 0.0
H358 H 0.95906 0.68466 0.3951 0.0
H359 H 0.21845 0.92319 0.32378 0.0
H360 H 0.3321 0.81413 0.29742 0.0
H361 H 0.25781 0.00869 0.33543 0.0
H362 H 0.97967 0.55112 0.40679 0.0
H363 H 0.46356 0.93832 0.32204 0.0
H364 H 0.464 0.01386 0.33963 0.0
H365 H 0.04834 0.54137 0.43148 0.0
H366 H 0.42052 0.05604 0.34768 0.0
N367 N 0.32878 0.87443 0.32023 0.0
C368 C 0.35161 0.85068 0.30817 0.0
C369 C 0.42583 0.92094 0.32143 0.0
C370 C 0.40227 0.94584 0.32982 0.0
C371 C 0.40038 0.87328 0.30962 0.0
C372 C 0.35304 0.92131 0.32823 0.0
H373 H 0.3437 0.05452 0.34543 0.0
N374 N 0.28138 0.92048 0.32737 0.0
C375 C 0.27815 0.99125 0.3344 0.0
C376 C 0.32865 0.94518 0.33158 0.0
C377 C 0.25598 0.94281 0.32746 0.0
C378 C 0.32663 0.017 0.34015 0.0
C379 C 0.35257 0.99408 0.33828 0.0
O380 O 0.22821 0.85348 0.23742 0.0
O381 O 0.17542 0.78838 0.34996 0.0
O382 O 0.17293 0.7128 0.36443 0.0
O383 O 0.23891 0.76529 0.31132 0.0
O384 O 0.1791 0.8396 0.30024 0.0
O385 O 0.26757 0.81713 0.2424 0.0
O386 O 0.19491 0.75392 0.51714 0.0
O387 O 0.24136 0.80106 0.39777 0.0
O388 O 0.25945 0.87748 0.40023 0.0
O389 O 0.1849 0.83365 0.43708 0.0
O390 O 0.23495 0.7541 0.45882 0.0
O391 O 0.14558 0.77856 0.50798 0.0
C392 C 0.15036 0.80175 0.32618 0.0
C393 C 0.27902 0.86349 0.16239 0.0
C394 C 0.29411 0.87103 0.06179 0.0
C395 C 0.26763 0.84492 0.10827 0.0
C396 C 0.33234 0.91612 0.07057 0.0
C397 C 0.31721 0.90842 0.17035 0.0
C398 C 0.34374 0.93456 0.12452 0.0
C399 C 0.20418 0.7224 0.32373 0.0
C400 C 0.24993 0.83582 0.2097 0.0
C401 C 0.40149 0.01849 0.34221 0.0
C402 C 0.42628 0.99442 0.33785 0.0
C403 C 0.26391 0.78653 0.42563 0.0
C404 C 0.14769 0.74521 0.59521 0.0
C405 C 0.17317 0.76254 0.64457 0.0
C406 C 0.15527 0.73991 0.69609 0.0
C407 C 0.11047 0.69996 0.69739 0.0
C408 C 0.10334 0.70519 0.59702 0.0
C409 C 0.08474 0.68288 0.64815 0.0
C410 C 0.22661 0.87194 0.43632 0.0
C411 C 0.16982 0.76872 0.54255 0.0
H412 H 0.2383 0.80997 0.10251 0.0
H413 H 0.35304 0.93746 0.03569 0.0
H414 H 0.32625 0.92332 0.21177 0.0
H415 H 0.37304 0.96936 0.13076 0.0
H416 H 0.20722 0.79387 0.64255 0.0
H417 H 0.09567 0.68137 0.73616 0.0
H418 H 0.08343 0.69114 0.55909 0.0
H419 H 0.05051 0.65191 0.64955 0.0
Eu420 Eu 0.43435 0.25301 0.63607 0.0
C421 C 0.39858 0.06651 0.73703 0.0
C422 C 0.31426 0.01835 0.73588 0.0
C423 C 0.36256 0.98222 0.72786 0.0
C424 C 0.35495 0.06266 0.73861 0.0
C425 C 0.40288 0.02624 0.73296 0.0
C426 C 0.31832 0.97829 0.72923 0.0
C427 C 0.48608 0.07533 0.74604 0.0
N428 N 0.43673 0.10934 0.74367 0.0
C429 C 0.47995 0.11412 0.75062 0.0
C430 C 0.44745 0.03125 0.73636 0.0
Eu431 Eu 0.42377 0.17346 0.75011 0.0
N432 N 0.35221 0.10191 0.74641 0.0
C433 C 0.31 0.09903 0.75555 0.0
C434 C 0.27076 0.01546 0.74215 0.0
C435 C 0.26867 0.05589 0.75299 0.0
H436 H 0.50986 0.14827 0.75804 0.0
H437 H 0.23524 0.05392 0.75905 0.0
H438 H 0.28747 0.94401 0.72659 0.0
H439 H 0.52054 0.07943 0.75005 0.0
H440 H 0.30788 0.13002 0.76361 0.0
H441 H 0.61596 0.3942 0.64187 0.0
H442 H 0.23869 0.9821 0.74024 0.0
H443 H 0.33597 0.25823 0.62006 0.0
H444 H 0.55174 0.31269 0.64343 0.0
H445 H 0.31265 0.31762 0.60713 0.0
H446 H 0.36514 0.95091 0.72419 0.0
H447 H 0.59867 0.45856 0.63201 0.0
H448 H 0.53954 0.48341 0.61628 0.0
H449 H 0.45223 1.00118 0.73328 0.0
H450 H 0.45727 0.46282 0.60733 0.0
N451 N 0.49811 0.3304 0.63883 0.0
C452 C 0.54347 0.34031 0.64073 0.0
C453 C 0.57027 0.42276 0.63386 0.0
C454 C 0.52384 0.41229 0.62951 0.0
C455 C 0.58012 0.38656 0.6394 0.0
C456 C 0.48801 0.36518 0.63263 0.0
H457 H 0.3726 0.4014 0.60524 0.0
N458 N 0.40838 0.30777 0.62805 0.0
C459 C 0.34909 0.32822 0.61275 0.0
C460 C 0.44179 0.35354 0.62697 0.0
C461 C 0.36249 0.29463 0.62019 0.0
C462 C 0.38301 0.37546 0.6118 0.0
C463 C 0.43005 0.38863 0.61838 0.0
O464 O 0.40022 0.22974 0.55519 0.0
O465 O 0.40039 0.17988 0.6664 0.0
O466 O 0.4575 0.15913 0.67397 0.0
O467 O 0.48987 0.23182 0.63146 0.0
O468 O 0.35743 0.19813 0.62631 0.0
O469 O 0.47578 0.2668 0.55963 0.0
O470 O 0.46111 0.1788 0.82713 0.0
O471 O 0.45855 0.24725 0.72147 0.0
O472 O 0.40415 0.27252 0.70822 0.0
O473 O 0.37758 0.20751 0.76735 0.0
O474 O 0.50071 0.22653 0.75995 0.0
O475 O 0.39005 0.16601 0.8313 0.0
C476 C 0.35928 0.16402 0.64961 0.0
C477 C 0.44163 0.27001 0.47423 0.0
C478 C 0.43038 0.26338 0.37315 0.0
C479 C 0.43005 0.24344 0.42515 0.0
C480 C 0.44324 0.31088 0.37114 0.0
C481 C 0.45417 0.31719 0.47164 0.0
C482 C 0.45508 0.33751 0.42013 0.0
C483 C 0.48582 0.19014 0.63645 0.0
C484 C 0.43937 0.24693 0.52732 0.0
C485 C 0.46559 0.43553 0.61511 0.0
C486 C 0.51238 0.44729 0.62048 0.0
C487 C 0.49954 0.26197 0.73927 0.0
C488 C 0.41478 0.13632 0.90494 0.0
C489 C 0.41064 0.14909 0.95975 0.0
C490 C 0.40059 0.1178 1.00455 0.0
C491 C 0.39455 0.07328 0.99328 0.0
C492 C 0.40843 0.09176 0.89461 0.0
C493 C 0.39834 0.06044 0.93865 0.0
C494 C 0.38028 0.24776 0.75232 0.0
C495 C 0.42556 0.17 0.85935 0.0
H496 H 0.42107 0.20714 0.42762 0.0
H497 H 0.44345 0.32727 0.33193 0.0
H498 H 0.46311 0.33813 0.50923 0.0
H499 H 0.46467 0.37394 0.41818 0.0
H500 H 0.41475 0.1833 0.96725 0.0
H501 H 0.3875 0.04854 0.02671 0.0
H502 H 0.41137 0.08122 0.85273 0.0
H503 H 0.39368 0.02615 0.93048 0.0
H504 H 0.3027 0.20821 0.82596 0.0
H505 H 0.41399 0.3406 0.76148 0.0
H506 H 0.38877 0.38267 0.82276 0.0
H507 H 0.21759 0.24736 0.82784 0.0
H508 H 0.18776 0.2158 0.89031 0.0
H509 H 0.21699 0.19414 0.84586 0.0
H510 H 0.26394 0.19293 0.93038 0.0
H511 H 0.2371 0.21671 0.97565 0.0
H512 H 0.29984 0.24593 0.96842 0.0
H513 H 0.35378 0.41229 0.88769 0.0
H514 H 0.30241 0.42871 0.94435 0.0
H515 H 0.20617 0.28066 0.9659 0.0
C516 C 0.32189 0.24601 0.82538 0.0
C517 C 0.36144 0.2708 0.78973 0.0
C518 C 0.38455 0.32033 0.78901 0.0
C519 C 0.37045 0.3449 0.82387 0.0
C520 C 0.33202 0.31986 0.85859 0.0
C521 C 0.30703 0.27164 0.85891 0.0
C522 C 0.26401 0.25449 0.89674 0.0
C523 C 0.21891 0.22627 0.86318 0.0
C524 C 0.26634 0.2258 0.94574 0.0
C525 C 0.26912 0.30072 0.91692 0.0
C526 C 0.30944 0.33759 0.895 0.0
C527 C 0.32239 0.38374 0.90582 0.0
C528 C 0.29312 0.39285 0.93921 0.0
C529 C 0.25108 0.35637 0.96207 0.0
C530 C 0.23864 0.3094 0.95021 0.0
H531 H 0.06949 0.37786 0.12949 0.0
H532 H 0.1321 0.29159 0.15894 0.0
H533 H 0.06421 0.23882 0.21808 0.0
H534 H 0.02514 0.36847 0.26874 0.0
H535 H 0.97123 0.36607 0.24987 0.0
H536 H 0.0226 0.39742 0.20644 0.0
H537 H 0.98077 0.34967 0.12009 0.0
H538 H 0.92753 0.31861 0.16013 0.0
H539 H 0.95048 0.28678 0.12301 0.0
H540 H 0.98609 0.19165 0.26697 0.0
H541 H 0.90704 0.15747 0.30915 0.0
H542 H 0.89885 0.27861 0.25718 0.0
C543 C 0.06892 0.3478 0.14829 0.0
C544 C 0.10607 0.33864 0.13914 0.0
C545 C 0.10416 0.29932 0.16522 0.0
C546 C 0.06568 0.26913 0.19885 0.0
C547 C 0.0297 0.27914 0.20698 0.0
C548 C 0.03125 0.31786 0.18296 0.0
C549 C 0.98851 0.32129 0.19939 0.0
C550 C 1.00266 0.36596 0.23314 0.0
C551 C 0.96014 0.3189 0.14757 0.0
C552 C 0.96221 0.27794 0.23561 0.0
C553 C 0.9864 0.25388 0.23888 0.0
C554 C 0.96738 0.21073 0.26576 0.0
C555 C 0.92251 0.19156 0.28957 0.0
C556 C 0.89758 0.21604 0.28804 0.0
C557 C 0.91789 0.25996 0.26088 0.0
H558 H 0.69237 0.05783 0.4515 0.0
H559 H 0.84148 0.11531 0.47226 0.0
H560 H 0.82571 0.04915 0.53481 0.0
H561 H 0.6619 0.01987 0.59537 0.0
H562 H 0.60797 0.96752 0.57898 0.0
H563 H 0.62941 0.01827 0.5346 0.0
H564 H 0.62832 0.9715 0.44849 0.0
H565 H 0.60544 0.91944 0.4904 0.0
H566 H 0.65822 0.93845 0.44995 0.0
H567 H 0.79274 0.97117 0.5864 0.0
H568 H 0.74577 0.89336 0.63086 0.0
H569 H 0.61877 0.89251 0.58543 0.0
C570 C 0.72179 0.05669 0.4694 0.0
C571 C 0.76828 0.09161 0.45665 0.0
C572 C 0.80566 0.08901 0.48143 0.0
C573 C 0.79698 0.05151 0.51693 0.0
C574 C 0.75069 0.01752 0.52836 0.0
C575 C 0.71372 0.02031 0.50602 0.0
C576 C 0.66722 0.97985 0.52549 0.0
C577 C 0.63998 0.99739 0.56072 0.0
C578 C 0.63812 0.95057 0.47561 0.0
C579 C 0.68368 0.95301 0.56105 0.0
C580 C 0.73194 0.97502 0.56181 0.0
C581 C 0.75501 0.95437 0.58733 0.0
C582 C 0.72813 0.9102 0.61243 0.0
C583 C 0.67877 0.88777 0.61355 0.0
C584 C 0.65644 0.90971 0.5876 0.0
H585 H 0.7099 0.80238 0.81301 0.0
H586 H 0.59245 0.668 0.76643 0.0
H587 H 0.61423 0.62918 0.83539 0.0
H588 H 0.78653 0.75566 0.81622 0.0
H589 H 0.82227 0.79125 0.87293 0.0
H590 H 0.79273 0.81227 0.82891 0.0
H591 H 0.75318 0.82437 0.9162 0.0
H592 H 0.78237 0.80295 0.96046 0.0
H593 H 0.71962 0.77603 0.96288 0.0
H594 H 0.64726 0.60222 0.90513 0.0
H595 H 0.7006 0.58558 0.95701 0.0
H596 H 0.80665 0.73212 0.95178 0.0
C597 C 0.68831 0.76501 0.8186 0.0
C598 C 0.64743 0.73893 0.78624 0.0
C599 C 0.62189 0.68966 0.79249 0.0
C600 C 0.63422 0.66683 0.83173 0.0
C601 C 0.67383 0.6931 0.86336 0.0
C602 C 0.70174 0.74079 0.85614 0.0
C603 C 0.74698 0.7583 0.88878 0.0
C604 C 0.78965 0.78069 0.84935 0.0
C605 C 0.75075 0.79245 0.93482 0.0
C606 C 0.73996 0.71278 0.9139 0.0
C607 C 0.6965 0.67623 0.90014 0.0
C608 C 0.68134 0.63054 0.91664 0.0
C609 C 0.71188 0.62141 0.94667 0.0
C610 C 0.75739 0.65751 0.95981 0.0
C611 C 0.77165 0.70399 0.9433 0.0
H612 H 0.08 0.81817 0.2918 0.0
H613 H 0.11992 0.71175 0.29606 0.0
H614 H 0.05165 0.65946 0.24174 0.0
H615 H 0.95076 0.73285 0.30004 0.0
H616 H 0.9367 0.76695 0.25375 0.0
H617 H 0.98717 0.79549 0.29818 0.0
H618 H 0.03932 0.83509 0.21123 0.0
H619 H 0.98923 0.80619 0.16647 0.0
H620 H 0.03939 0.79936 0.15421 0.0
H621 H 0.98788 0.62342 0.17529 0.0
H622 H 0.92207 0.59891 0.11121 0.0
H623 H 0.91441 0.72282 0.15292 0.0
C624 C 0.07356 0.78342 0.28229 0.0
C625 C 0.10511 0.76878 0.2998 0.0
C626 C 0.09603 0.72349 0.2854 0.0
C627 C 0.05724 0.69345 0.25375 0.0
C628 C 0.02727 0.70893 0.23664 0.0
C629 C 0.03403 0.75231 0.2512 0.0
C630 C 0.9961 0.7598 0.22599 0.0
C631 C 0.96588 0.76402 0.27224 0.0
C632 C 0.0173 0.80266 0.18718 0.0
C633 C 0.96855 0.71471 0.19314 0.0
C634 C 0.98772 0.68627 0.19992 0.0
C635 C 0.97172 0.64474 0.17063 0.0
C636 C 0.93453 0.63131 0.13399 0.0
C637 C 0.9129 0.65871 0.12758 0.0
C638 C 0.92995 0.70095 0.15777 0.0
H639 H 0.38927 0.10846 0.60111 0.0
H640 H 0.26448 0.11414 0.64316 0.0
H641 H 0.21589 0.03695 0.59854 0.0
H642 H 0.35116 0.06389 0.46548 0.0
H643 H 0.37865 0.02859 0.46418 0.0
H644 H 0.40289 0.08064 0.50614 0.0
H645 H 0.39656 0.03229 0.59569 0.0
H646 H 0.37509 0.98166 0.5513 0.0
H647 H 0.34145 0.98062 0.61127 0.0
H648 H 0.18121 0.95905 0.54828 0.0
H649 H 0.1637 0.89133 0.48791 0.0
H650 H 0.31218 0.94174 0.47002 0.0
C651 C 0.35165 0.09275 0.60244 0.0
C652 C 0.33028 0.11616 0.62764 0.0
C653 C 0.28119 0.09596 0.6254 0.0
C654 C 0.25344 0.05222 0.60022 0.0
C655 C 0.27554 0.02995 0.5757 0.0
C656 C 0.32363 0.0499 0.57585 0.0
C657 C 0.33914 0.02164 0.54099 0.0
C658 C 0.36975 0.05043 0.49125 0.0
C659 C 0.36461 0.00301 0.57701 0.0
C660 C 0.29224 0.98241 0.52167 0.0
C661 C 0.25593 0.98738 0.54282 0.0
C662 C 0.20939 0.95491 0.53133 0.0
C663 C 0.19975 0.91652 0.49712 0.0
C664 C 0.2365 0.91142 0.47399 0.0
C665 C 0.28329 0.94489 0.48667 0.0
H666 H 0.14733 0.41585 0.62184 0.0
H667 H 0.2765 0.50326 0.71047 0.0
H668 H 0.32158 0.50798 0.62574 0.0
H669 H 0.18739 0.35118 0.54311 0.0
H670 H 0.15635 0.3489 0.48049 0.0
H671 H 0.13396 0.35325 0.54772 0.0
H672 H 0.13338 0.4276 0.51505 0.0
H673 H 0.15563 0.42334 0.44763 0.0
H674 H 0.18633 0.47629 0.48777 0.0
H675 H 0.35291 0.50111 0.53244 0.0
H676 H 0.36823 0.48493 0.43616 0.0
H677 H 0.21897 0.40331 0.40696 0.0
C678 C 0.18506 0.43656 0.62328 0.0
C679 C 0.20826 0.45897 0.67322 0.0
C680 C 0.25781 0.48512 0.67324 0.0
C681 C 0.28378 0.48828 0.62512 0.0
C682 C 0.25982 0.46535 0.57695 0.0
C683 C 0.21158 0.44023 0.57548 0.0
C684 C 0.19451 0.41832 0.51845 0.0
C685 C 0.16641 0.36474 0.52272 0.0
C686 C 0.16577 0.43755 0.49059 0.0
C687 C 0.24072 0.43481 0.48826 0.0
C688 C 0.27792 0.46186 0.52283 0.0
C689 C 0.32404 0.48011 0.50492 0.0
C690 C 0.33239 0.47048 0.45024 0.0
C691 C 0.29486 0.44284 0.4139 0.0
C692 C 0.24843 0.42503 0.43339 0.0
H693 H 0.70804 0.14504 0.92996 0.0
H694 H 0.83543 0.17698 1.01707 0.0
H695 H 0.88118 0.21382 0.93168 0.0
H696 H 0.74229 0.11753 0.79586 0.0
H697 H 0.71515 0.14318 0.75516 0.0
H698 H 0.69165 0.11839 0.82284 0.0
H699 H 0.69936 0.19675 0.85509 0.0
H700 H 0.72261 0.22183 0.78751 0.0
H701 H 0.75521 0.2496 0.84971 0.0
H702 H 0.91369 0.24872 0.83792 0.0
H703 H 0.93099 0.28011 0.74198 0.0
H704 H 0.78297 0.22543 0.71393 0.0
C705 C 0.74548 0.15922 0.93096 0.0
C706 C 0.76801 0.15825 0.98075 0.0
C707 C 0.81725 0.17791 0.98008 0.0
C708 C 0.8436 0.19861 0.93153 0.0
C709 C 0.82035 0.19922 0.8835 0.0
C710 C 0.77241 0.17996 0.88265 0.0
C711 C 0.75632 0.18611 0.82556 0.0
C712 C 0.72447 0.13848 0.79825 0.0
C713 C 0.73195 0.21532 0.82974 0.0
C714 C 0.80282 0.21248 0.79481 0.0
C715 C 0.8392 0.21938 0.82905 0.0
C716 C 0.88548 0.24353 0.81072 0.0
C717 C 0.89498 0.26152 0.75616 0.0
C718 C 0.85847 0.25562 0.72026 0.0
C719 C 0.81168 0.23022 0.73996 0.0
H720 H 0.6174 0.78685 0.31519 0.0
H721 H 0.5162 0.64103 0.28577 0.0
H722 H 0.50529 0.66024 0.18944 0.0
H723 H 0.55987 0.83604 0.23532 0.0
H724 H 0.61347 0.88375 0.20791 0.0
H725 H 0.61303 0.85877 0.27488 0.0
H726 H 0.67858 0.8431 0.24091 0.0
H727 H 0.67925 0.86808 0.17386 0.0
H728 H 0.67032 0.80973 0.17805 0.0
H729 H 0.50408 0.69523 0.09708 0.0
H730 H 0.51462 0.74288 1.01358 0.0
H731 H 0.61953 0.86596 0.10063 0.0
C732 C 0.59268 0.75906 0.28859 0.0
C733 C 0.56762 0.71238 0.3081 0.0
C734 C 0.5361 0.67692 0.27165 0.0
C735 C 0.52948 0.68754 0.21694 0.0
C736 C 0.55477 0.7338 0.199 0.0
C737 C 0.58592 0.769 0.23356 0.0
C738 C 0.60952 0.81566 0.20328 0.0
C739 C 0.59828 0.8506 0.23206 0.0
C740 C 0.66256 0.83528 0.19876 0.0
C741 C 0.58649 0.80118 0.14647 0.0
C742 C 0.55494 0.75384 0.14507 0.0
C743 C 0.52903 0.73229 0.0975 0.0
C744 C 0.53563 0.75974 0.04996 0.0
C745 C 0.56836 0.80836 0.04974 0.0
C746 C 0.59393 0.82911 0.0991 0.0
H747 H 0.84526 0.6132 0.6102 0.0
H748 H 0.72913 0.49604 0.69457 0.0
H749 H 0.68019 0.48231 0.61153 0.0
H750 H 0.77731 0.65451 0.53847 0.0
H751 H 0.81246 0.67021 0.47568 0.0
H752 H 0.83827 0.6716 0.54219 0.0
H753 H 0.86585 0.61587 0.50395 0.0
H754 H 0.84022 0.61441 0.43732 0.0
H755 H 0.82373 0.56071 0.47396 0.0
H756 H 0.64279 0.48246 0.51996 0.0
H757 H 0.62217 0.49312 0.42395 0.0
H758 H 0.7634 0.60754 0.39779 0.0
C759 C 0.80963 0.58442 0.61119 0.0
C760 C 0.79108 0.55593 0.65932 0.0
C761 C 0.74401 0.51899 0.65881 0.0
C762 C 0.71589 0.51078 0.61172 0.0
C763 C 0.73516 0.53974 0.56529 0.0
C764 C 0.78105 0.57564 0.5645 0.0
C765 C 0.79348 0.60124 0.50895 0.0
C766 C 0.80612 0.65242 0.51681 0.0
C767 C 0.83316 0.59782 0.4793 0.0
C768 C 0.74761 0.57368 0.47836 0.0
C769 C 0.7142 0.53875 0.51186 0.0
C770 C 0.66875 0.50952 0.49326 0.0
C771 C 0.65729 0.51593 0.43882 0.0
C772 C 0.69126 0.55089 0.40342 0.0
C773 C 0.73693 0.58012 0.42371 0.0
H774 H 0.12555 0.74416 0.80312 0.0
H775 H 0.24995 0.77656 0.70621 0.0
H776 H 0.29834 0.81172 0.78943 0.0
H777 H 0.17362 0.84551 0.88505 0.0
H778 H 0.14368 0.81687 0.94882 0.0
H779 H 0.11805 0.79213 0.88237 0.0
H780 H 0.11347 0.71373 0.90909 0.0
H781 H 0.13755 0.73823 0.97637 0.0
H782 H 0.16528 0.71427 0.93301 0.0
H783 H 0.33389 0.84687 0.88159 0.0
H784 H 0.35385 0.87731 0.97774 0.0
H785 H 0.20652 0.8206 1.01575 0.0
C786 C 0.16285 0.75789 0.79953 0.0
C787 C 0.18383 0.758 0.74768 0.0
C788 C 0.23297 0.77693 0.74495 0.0
C789 C 0.26082 0.79665 0.79218 0.0
C790 C 0.23909 0.79668 0.84223 0.0
C791 C 0.19121 0.77737 0.84647 0.0
C792 C 0.1768 0.78247 0.90521 0.0
C793 C 0.15157 0.81096 0.90533 0.0
C794 C 0.14649 0.73433 0.93256 0.0
C795 C 0.22422 0.80896 0.93277 0.0
C796 C 0.25962 0.81644 0.89577 0.0
C797 C 0.30647 0.84103 0.91106 0.0
C798 C 0.31748 0.8585 0.96565 0.0
C799 C 0.28183 0.85145 1.00436 0.0
C800 C 0.23458 0.82607 0.98748 0.0
H801 H 0.47072 0.28826 0.2684 0.0
H802 H 0.35991 0.17261 0.36109 0.0
H803 H 0.33992 0.12318 0.27706 0.0
H804 H 0.40774 0.26415 0.13701 0.0
H805 H 0.45921 0.28092 0.09489 0.0
H806 H 0.46431 0.30753 0.1622 0.0
H807 H 0.52361 0.28229 0.19259 0.0
H808 H 0.5186 0.25551 0.12548 0.0
H809 H 0.50744 0.22159 0.18845 0.0
H810 H 0.3326 0.08586 0.18334 0.0
H811 H 0.33823 0.0635 0.08637 0.0
H812 H 0.45398 0.20334 0.05487 0.0
C813 C 0.4418 0.25278 0.27087 0.0
C814 C 0.41707 0.23436 0.32158 0.0
C815 C 0.37992 0.1874 0.32308 0.0
C816 C 0.36804 0.15909 0.27543 0.0
C817 C 0.39338 0.17826 0.22635 0.0
C818 C 0.42935 0.22405 0.22363 0.0
C819 C 0.45151 0.23583 0.16591 0.0
C820 C 0.4453 0.27438 0.13839 0.0
C821 C 0.50336 0.2496 0.16828 0.0
C822 C 0.42264 0.18938 0.13681 0.0
C823 C 0.38919 0.1567 0.17234 0.0
C824 C 0.35866 0.11117 0.15509 0.0
C825 C 0.36238 0.0987 0.1 0.0
C826 C 0.39658 0.13156 0.06277 0.0
C827 C 0.42698 0.17751 0.0818 0.0
H828 H 0.28244 0.59163 0.10524 0.0
H829 H 0.1477 0.46737 0.13046 0.0
H830 H 0.12218 0.51292 0.1884 0.0
H831 H 0.29733 0.63304 0.23771 0.0
H832 H 0.32449 0.69422 0.22054 0.0
H833 H 0.32922 0.65462 0.1729 0.0
H834 H 0.29371 0.6798 0.0934 0.0
H835 H 0.28982 0.72049 0.14034 0.0
H836 H 0.23849 0.67731 0.10448 0.0
H837 H 0.117 0.56953 0.25627 0.0
H838 H 0.12823 0.63391 0.31836 0.0
H839 H 0.26686 0.72148 0.24781 0.0
C840 C 0.24692 0.57453 0.12122 0.0
C841 C 0.21673 0.52629 0.11275 0.0
C842 C 0.17094 0.50454 0.13541 0.0
C843 C 0.15636 0.53013 0.16873 0.0
C844 C 0.18792 0.57736 0.17846 0.0
C845 C 0.2319 0.59958 0.15418 0.0
C846 C 0.26045 0.64966 0.17395 0.0
C847 C 0.30551 0.65835 0.20299 0.0
C848 C 0.27124 0.68384 0.12514 0.0
C849 C 0.22656 0.65173 0.21516 0.0
C850 C 0.18481 0.60983 0.21698 0.0
C851 C 0.14926 0.60267 0.25438 0.0
C852 C 0.15625 0.63941 0.29001 0.0
C853 C 0.19855 0.68295 0.28825 0.0
C854 C 0.23402 0.68888 0.25014 0.0
H855 H 0.68493 0.25878 0.40848 0.0
H856 H 0.6797 0.12723 0.43842 0.0
H857 H 0.6091 0.1014 0.49786 0.0
H858 H 0.66188 0.27671 0.54117 0.0
H859 H 0.62696 0.30288 0.52423 0.0
H860 H 0.67022 0.3065 0.4754 0.0
H861 H 0.60735 0.26816 0.39856 0.0
H862 H 0.56375 0.26504 0.44693 0.0
H863 H 0.55539 0.21296 0.41231 0.0
H864 H 0.54404 0.09554 0.56563 0.0
H865 H 0.49236 0.10945 0.62911 0.0
H866 H 0.54595 0.24699 0.5558 0.0
C867 C 0.66782 0.22382 0.42587 0.0
C868 C 0.6872 0.19469 0.41806 0.0
C869 C 0.66477 0.14967 0.44272 0.0
C870 C 0.62477 0.13489 0.47689 0.0
C871 C 0.60771 0.16554 0.48578 0.0
C872 C 0.62836 0.20886 0.46002 0.0
C873 C 0.6069 0.23747 0.47976 0.0
C874 C 0.64368 0.28357 0.50674 0.0
C875 C 0.58186 0.24642 0.43153 0.0
C876 C 0.57234 0.2046 0.52258 0.0
C877 C 0.57231 0.16285 0.52512 0.0
C878 C 0.54377 0.1281 0.56348 0.0
C879 C 0.51481 0.13645 0.59984 0.0
C880 C 0.51531 0.17958 0.59837 0.0
C881 C 0.54438 0.21358 0.55863 0.0
H882 H 0.29826 0.56686 0.91921 0.0
H883 H 0.38428 0.50794 0.96855 0.0
H884 H 0.44309 0.55651 0.89722 0.0
H885 H 0.32392 0.57477 0.77086 0.0
H886 H 0.32477 0.62935 0.76258 0.0
H887 H 0.28872 0.58868 0.81613 0.0
H888 H 0.32923 0.65305 0.89149 0.0
H889 H 0.36486 0.6938 0.838 0.0
H890 H 0.39201 0.68329 0.89695 0.0
H891 H 0.49248 0.61145 0.81951 0.0
H892 H 0.53287 0.67614 0.75205 0.0
H893 H 0.41636 0.70056 0.7548 0.0
C894 C 0.32948 0.56414 0.91523 0.0
C895 C 0.33648 0.53338 0.94965 0.0
C896 C 0.3781 0.53134 0.94308 0.0
C897 C 0.41154 0.55848 0.90222 0.0
C898 C 0.40302 0.58768 0.86831 0.0
C899 C 0.36332 0.59117 0.87497 0.0
C900 C 0.36353 0.62688 0.83505 0.0
C901 C 0.3228 0.60352 0.79372 0.0
C902 C 0.36236 0.66661 0.8673 0.0
C903 C 0.41007 0.64374 0.80559 0.0
C904 C 0.43181 0.61996 0.82457 0.0
C905 C 0.4756 0.63015 0.80447 0.0
C906 C 0.49842 0.66678 0.7659 0.0
C907 C 0.47808 0.69316 0.74783 0.0
C908 C 0.43268 0.68059 0.76712 0.0
H909 H 0.85901 0.37136 0.27991 0.0
H910 H 0.73602 0.25662 0.20368 0.0
H911 H 0.73207 0.3106 0.13791 0.0
H912 H 0.81855 0.45175 0.27491 0.0
H913 H 0.87414 0.5023 0.25815 0.0
H914 H 0.87209 0.45426 0.29576 0.0
H915 H 0.92508 0.44736 0.22075 0.0
H916 H 0.92726 0.49545 0.18264 0.0
H917 H 0.90806 0.44026 0.14839 0.0
H918 H 0.73412 0.37578 0.08688 0.0
H919 H 0.74152 0.45019 0.05625 0.0
H920 H 0.86295 0.52561 0.16118 0.0
C921 C 0.83156 0.35759 0.24912 0.0
C922 C 0.79796 0.30926 0.24761 0.0
C923 C 0.76251 0.29307 0.20638 0.0
C924 C 0.75991 0.32358 0.16821 0.0
C925 C 0.79296 0.3707 0.17108 0.0
C926 C 0.82812 0.38795 0.2104 0.0
C927 C 0.85674 0.44097 0.20649 0.0
C928 C 0.85525 0.46364 0.26212 0.0
C929 C 0.90729 0.45694 0.1885 0.0
C930 C 0.83077 0.45044 0.16059 0.0
C931 C 0.79469 0.40916 0.14014 0.0
C932 C 0.76316 0.40842 0.10116 0.0
C933 C 0.76791 0.45096 0.0834 0.0
C934 C 0.8045 0.49385 0.10355 0.0
C935 C 0.83633 0.49342 0.14262 0.0
H936 H 0.32317 0.84881 0.50021 0.0
H937 H 0.31294 0.75477 0.36842 0.0
H938 H 0.39106 0.76781 0.39194 0.0
H939 H 0.45688 0.92634 0.50667 0.0
H940 H 0.45541 0.92553 0.58202 0.0
H941 H 0.40761 0.92325 0.54348 0.0
H942 H 0.34991 0.84752 0.596 0.0
H943 H 0.39733 0.84916 0.63411 0.0
H944 H 0.35899 0.79809 0.594 0.0
H945 H 0.46326 0.78164 0.43563 0.0
H946 H 0.51701 0.78184 0.50524 0.0
H947 H 0.47559 0.85557 0.62168 0.0
C948 C 0.33918 0.83375 0.47411 0.0
C949 C 0.31437 0.80451 0.42874 0.0
C950 C 0.33329 0.78045 0.39988 0.0
C951 C 0.3775 0.78746 0.41336 0.0
C952 C 0.40119 0.81642 0.45835 0.0
C953 C 0.38234 0.83846 0.48928 0.0
C954 C 0.40915 0.85784 0.5435 0.0
C955 C 0.43374 0.91143 0.54393 0.0
C956 C 0.37691 0.83687 0.5949 0.0
C957 C 0.44446 0.8412 0.53936 0.0
C958 C 0.44028 0.81931 0.48862 0.0
C959 C 0.46685 0.79871 0.47542 0.0
C960 C 0.49704 0.79858 0.51574 0.0
C961 C 0.49988 0.81772 0.5696 0.0
C962 C 0.47445 0.84091 0.58089 0.0
H963 H 0.70941 0.43689 0.93121 0.0
H964 H 0.62931 0.50467 0.97145 0.0
H965 H 0.56933 0.45411 0.90307 0.0
H966 H 0.68523 0.423 0.78397 0.0
H967 H 0.68117 0.36662 0.78044 0.0
H968 H 0.718 0.40859 0.83184 0.0
H969 H 0.67442 0.3487 0.91131 0.0
H970 H 0.63823 0.30634 0.86006 0.0
H971 H 0.6117 0.32122 0.9166 0.0
H972 H 0.51894 0.39675 0.82697 0.0
H973 H 0.47693 0.32964 0.7634 0.0
H974 H 0.58882 0.29824 0.77593 0.0
C975 C 0.67909 0.44096 0.92607 0.0
C976 C 0.67406 0.47476 0.957 0.0
C977 C 0.63375 0.47872 0.94891 0.0
C978 C 0.59976 0.45052 0.90956 0.0
C979 C 0.60647 0.41835 0.87878 0.0
C980 C 0.6448 0.41294 0.88742 0.0
C981 C 0.64307 0.37459 0.85094 0.0
C982 C 0.68432 0.3944 0.80934 0.0
C983 C 0.64175 0.33539 0.88687 0.0
C984 C 0.59726 0.35845 0.82109 0.0
C985 C 0.57714 0.38479 0.83666 0.0
C986 C 0.53443 0.37589 0.81483 0.0
C987 C 0.51077 0.33779 0.77841 0.0
C988 C 0.52933 0.30859 0.76482 0.0
C989 C 0.57384 0.32012 0.78525 0.0
loop_
_geom_bond_atom_site_label_1
_geom_bond_atom_site_label_2
_geom_bond_distance
_geom_bond_site_symmetry_2
_ccdc_geom_bond_type
Eu0 N31 2.657 . S
Eu0 N38 2.609 . S
Eu0 O44 2.558 . S
Eu0 O45 2.612 . S
Eu0 O47 2.339 . S
Eu0 O48 2.563 . S
Eu0 O49 2.419 . S
Eu0 O51 2.380 1_556 S
Eu0 O52 2.432 1_556 S
Eu0 C64 2.848 . S
C1 C4 1.429 . S
C1 C5 1.411 . S
C1 N8 1.377 . S
C2 C4 1.420 . S
C2 C6 1.423 . S
C2 C14 1.392 . S
C3 C5 1.420 . S
C3 C6 1.351 . S
C3 H26 0.931 . S
C4 C1 1.429 . S
C4 C2 1.420 . S
C4 N12 1.362 . S
C5 C1 1.411 . S
C5 C3 1.420 . S
C5 C10 1.395 . S
C6 C2 1.423 . S
C6 C3 1.351 . S
C6 H18 0.930 . S
C7 C9 1.400 . S
C7 C10 1.386 . S
C7 H19 0.930 . S
N8 C1 1.377 . S
N8 C9 1.321 . S
N8 Eu11 2.609 . S
C9 C7 1.400 . S
C9 N8 1.321 . S
C9 H16 0.930 . S
C10 C5 1.395 . S
C10 C7 1.386 . S
C10 H29 0.930 . S
Eu11 N8 2.609 . S
Eu11 N12 2.657 . S
Eu11 O45 2.380 1_554 S
Eu11 O46 2.432 . S
Eu11 O50 2.558 . S
Eu11 O51 2.612 . S
Eu11 O53 2.339 . S
Eu11 O54 2.563 . S
Eu11 O55 2.419 . S
Eu11 C75 2.848 . S
N12 C4 1.362 . S
N12 Eu11 2.657 . S
N12 C13 1.334 . S
C13 N12 1.334 . S
C13 C15 1.413 . S
C13 H20 0.929 . S
C14 C2 1.392 . S
C14 C15 1.367 . S
C14 H22 0.930 . S
C15 C13 1.413 . S
C15 C14 1.367 . S
C15 H17 0.930 . S
H16 C9 0.930 . S
H17 C15 0.930 . S
H18 C6 0.930 . S
H19 C7 0.930 . S
H20 C13 0.929 . S
H21 C35 0.930 . S
H22 C14 0.930 . S
H23 C41 0.930 . S
H24 C32 0.929 . S
H25 C39 0.930 1_655 S
H26 C3 0.931 . S
H27 C33 0.930 . S
H28 C66 0.930 . S
H29 C10 0.930 . S
H30 C65 0.931 . S
N31 Eu0 2.657 . S
N31 C32 1.334 . S
N31 C36 1.362 . S
C32 H24 0.929 . S
C32 N31 1.334 . S
C32 C35 1.413 . S
C33 H27 0.930 . S
C33 C34 1.392 . S
C33 C35 1.367 . S
C34 C33 1.392 . S
C34 C36 1.420 . S
C34 C66 1.423 . S
C35 H21 0.930 . S
C35 C32 1.413 . S
C35 C33 1.367 . S
C36 N31 1.362 . S
C36 C34 1.420 . S
C36 C40 1.429 . S
H37 C42 0.930 1_655 S
N38 Eu0 2.609 . S
N38 C40 1.377 . S
N38 C41 1.321 . S
C39 H25 0.930 1_455 S
C39 C41 1.400 . S
C39 C42 1.386 . S
C40 C36 1.429 . S
C40 N38 1.377 . S
C40 C43 1.411 . S
C41 H23 0.930 . S
C41 N38 1.321 . S
C41 C39 1.400 . S
C42 H37 0.930 1_455 S
C42 C39 1.386 . S
C42 C43 1.395 . S
C43 C40 1.411 . S
C43 C42 1.395 . S
C43 C65 1.420 . S
O44 Eu0 2.558 . S
O44 C64 1.257 . S
O45 Eu0 2.612 . S
O45 Eu11 2.380 1_556 S
O45 C56 1.276 . S
O46 Eu11 2.432 . S
O46 C63 1.264 1_554 S
O47 Eu0 2.339 . S
O47 C63 1.254 . S
O48 Eu0 2.563 . S
O48 C56 1.235 . S
O49 Eu0 2.419 . S
O49 C64 1.249 . S
O50 Eu11 2.558 . S
O50 C75 1.257 . S
O51 Eu0 2.380 1_554 S
O51 Eu11 2.612 . S
O51 C67 1.276 . S
O52 Eu0 2.432 1_554 S
O52 C74 1.264 . S
O53 Eu11 2.339 . S
O53 C74 1.254 . S
O54 Eu11 2.563 . S
O54 C67 1.235 . S
O55 Eu11 2.419 . S
O55 C75 1.249 . S
C56 O45 1.276 . S
C56 O48 1.235 . S
C57 C59 1.393 . S
C57 C61 1.395 . S
C57 C64 1.492 . S
C58 C59 1.392 . S
C58 C60 1.386 . S
C59 C57 1.393 . S
C59 C58 1.392 . S
C59 H76 0.930 . S
C60 C58 1.386 . S
C60 C62 1.395 . S
C60 H77 0.930 . S
C61 C57 1.395 . S
C61 C62 1.379 . S
C61 H78 0.930 . S
C62 C60 1.395 . S
C62 C61 1.379 . S
C62 H79 0.930 . S
C63 O46 1.264 1_556 S
C63 O47 1.254 . S
C64 Eu0 2.848 . S
C64 O44 1.257 . S
C64 O49 1.249 . S
C64 C57 1.492 . S
C65 H30 0.931 . S
C65 C43 1.420 . S
C65 C66 1.351 . S
C66 H28 0.930 . S
C66 C34 1.423 . S
C66 C65 1.351 . S
C67 O51 1.276 . S
C67 O54 1.235 . S
C68 C69 1.393 . S
C68 C72 1.395 . S
C68 C75 1.492 . S
C69 C68 1.393 . S
C69 C70 1.392 . S
C69 H80 0.930 . S
C70 C69 1.392 . S
C70 C71 1.386 . S
C71 C70 1.386 . S
C71 C73 1.395 . S
C71 H81 0.930 . S
C72 C68 1.395 . S
C72 C73 1.379 . S
C72 H82 0.930 . S
C73 C71 1.395 . S
C73 C72 1.379 . S
C73 H83 0.930 . S
C74 O52 1.264 . S
C74 O53 1.254 . S
C75 Eu11 2.848 . S
C75 O50 1.257 . S
C75 O55 1.249 . S
C75 C68 1.492 . S
H76 C59 0.930 . S
H77 C60 0.930 . S
H78 C61 0.930 . S
H79 C62 0.930 . S
H80 C69 0.930 . S
H81 C71 0.930 . S
H82 C72 0.930 . S
H83 C73 0.930 . S
Eu84 N115 2.657 . S
Eu84 N122 2.609 . S
Eu84 O128 2.558 . S
Eu84 O129 2.612 . S
Eu84 O131 2.339 . S
Eu84 O132 2.563 . S
Eu84 O133 2.419 . S
Eu84 O135 2.380 . S
Eu84 O136 2.432 . S
Eu84 C148 2.848 . S
C85 C88 1.429 . S
C85 C89 1.411 . S
C85 N92 1.377 . S
C86 C88 1.420 . S
C86 C90 1.423 1_655 S
C86 C98 1.392 . S
C87 C89 1.420 1_455 S
C87 C90 1.351 . S
C87 H110 0.931 . S
C88 C85 1.429 . S
C88 C86 1.420 . S
C88 N96 1.362 . S
C89 C85 1.411 . S
C89 C87 1.420 1_655 S
C89 C94 1.395 . S
C90 C86 1.423 1_455 S
C90 C87 1.351 . S
C90 H102 0.930 . S
C91 C93 1.400 . S
C91 C94 1.386 . S
C91 H103 0.930 . S
N92 C85 1.377 . S
N92 C93 1.321 . S
N92 Eu95 2.609 . S
C93 C91 1.400 . S
C93 N92 1.321 . S
C93 H100 0.930 . S
C94 C89 1.395 . S
C94 C91 1.386 . S
C94 H113 0.930 1_655 S
Eu95 N92 2.609 . S
Eu95 N96 2.657 . S
Eu95 O129 2.380 . S
Eu95 O130 2.432 . S
Eu95 O134 2.558 . S
Eu95 O135 2.612 . S
Eu95 O137 2.339 . S
Eu95 O138 2.563 . S
Eu95 O139 2.419 . S
Eu95 C159 2.848 . S
N96 C88 1.362 . S
N96 Eu95 2.657 . S
N96 C97 1.334 . S
C97 N96 1.334 . S
C97 C99 1.413 . S
C97 H104 0.929 . S
C98 C86 1.392 . S
C98 C99 1.367 . S
C98 H106 0.930 1_655 S
C99 C97 1.413 . S
C99 C98 1.367 . S
C99 H101 0.930 . S
H100 C93 0.930 . S
H101 C99 0.930 . S
H102 C90 0.930 . S
H103 C91 0.930 . S
H104 C97 0.929 . S
H105 C119 0.930 . S
H106 C98 0.930 1_455 S
H107 C125 0.930 . S
H108 C116 0.929 . S
H109 C123 0.930 1_565 S
H110 C87 0.931 . S
H111 C117 0.930 . S
H112 C150 0.930 . S
H113 C94 0.930 1_455 S
H114 C149 0.931 . S
N115 Eu84 2.657 . S
N115 C116 1.334 . S
N115 C120 1.362 . S
C116 H108 0.929 . S
C116 N115 1.334 . S
C116 C119 1.413 . S
C117 H111 0.930 . S
C117 C118 1.392 . S
C117 C119 1.367 . S
C118 C117 1.392 . S
C118 C120 1.420 . S
C118 C150 1.423 . S
C119 H105 0.930 . S
C119 C116 1.413 . S
C119 C117 1.367 . S
C120 N115 1.362 . S
C120 C118 1.420 . S
C120 C124 1.429 . S
H121 C126 0.930 1_565 S
N122 Eu84 2.609 . S
N122 C124 1.377 . S
N122 C125 1.321 . S
C123 H109 0.930 1_545 S
C123 C125 1.400 . S
C123 C126 1.386 . S
C124 C120 1.429 . S
C124 N122 1.377 . S
C124 C127 1.411 . S
C125 H107 0.930 . S
C125 N122 1.321 . S
C125 C123 1.400 . S
C126 H121 0.930 1_545 S
C126 C123 1.386 . S
C126 C127 1.395 . S
C127 C124 1.411 . S
C127 C126 1.395 . S
C127 C149 1.420 . S
O128 Eu84 2.558 . S
O128 C148 1.257 . S
O129 Eu84 2.612 . S
O129 Eu95 2.380 . S
O129 C140 1.276 . S
O130 Eu95 2.432 . S
O130 C147 1.264 . S
O131 Eu84 2.339 . S
O131 C147 1.254 . S
O132 Eu84 2.563 . S
O132 C140 1.235 . S
O133 Eu84 2.419 . S
O133 C148 1.249 . S
O134 Eu95 2.558 . S
O134 C159 1.257 . S
O135 Eu84 2.380 . S
O135 Eu95 2.612 . S
O135 C151 1.276 . S
O136 Eu84 2.432 . S
O136 C158 1.264 . S
O137 Eu95 2.339 . S
O137 C158 1.254 . S
O138 Eu95 2.563 . S
O138 C151 1.235 . S
O139 Eu95 2.419 . S
O139 C159 1.249 . S
C140 O129 1.276 . S
C140 O132 1.235 . S
C141 C143 1.393 . S
C141 C145 1.395 . S
C141 C148 1.492 . S
C142 C143 1.392 . S
C142 C144 1.385 1_554 S
C143 C141 1.393 . S
C143 C142 1.392 . S
C143 H160 0.930 . S
C144 C142 1.385 1_556 S
C144 C146 1.393 1_556 S
C144 H161 0.932 . S
C145 C141 1.395 . S
C145 C146 1.379 . S
C145 H162 0.930 . S
C146 C144 1.393 1_554 S
C146 C145 1.379 . S
C146 H163 0.930 . S
C147 O130 1.264 . S
C147 O131 1.254 . S
C148 Eu84 2.848 . S
C148 O128 1.257 . S
C148 O133 1.249 . S
C148 C141 1.492 . S
C149 H114 0.931 . S
C149 C127 1.420 . S
C149 C150 1.351 . S
C150 H112 0.930 . S
C150 C118 1.423 . S
C150 C149 1.351 . S
C151 O135 1.276 . S
C151 O138 1.235 . S
C152 C153 1.393 . S
C152 C156 1.395 . S
C152 C159 1.492 . S
C153 C152 1.393 . S
C153 C154 1.392 . S
C153 H164 0.930 . S
C154 C153 1.392 . S
C154 C155 1.386 . S
C155 C154 1.386 . S
C155 C157 1.395 . S
C155 H165 0.930 . S
C156 C152 1.395 . S
C156 C157 1.379 . S
C156 H166 0.930 . S
C157 C155 1.395 . S
C157 C156 1.379 . S
C157 H167 0.930 . S
C158 O136 1.264 . S
C158 O137 1.254 . S
C159 Eu95 2.848 . S
C159 O134 1.257 . S
C159 O139 1.249 . S
C159 C152 1.492 . S
H160 C143 0.930 . S
H161 C144 0.932 . S
H162 C145 0.930 . S
H163 C146 0.930 . S
H164 C153 0.930 . S
H165 C155 0.930 . S
H166 C156 0.930 . S
H167 C157 0.930 . S
Eu168 N199 2.657 . S
Eu168 N206 2.609 . S
Eu168 O212 2.558 . S
Eu168 O213 2.612 . S
Eu168 O215 2.339 . S
Eu168 O216 2.563 . S
Eu168 O217 2.419 . S
Eu168 O219 2.380 . S
Eu168 O220 2.432 . S
Eu168 C232 2.848 . S
C169 C172 1.429 . S
C169 C173 1.411 . S
C169 N176 1.377 . S
C170 C172 1.420 . S
C170 C174 1.423 1_565 S
C170 C182 1.392 . S
C171 C173 1.420 1_545 S
C171 C174 1.351 . S
C171 H194 0.931 . S
C172 C169 1.429 . S
C172 C170 1.420 . S
C172 N180 1.362 . S
C173 C169 1.411 . S
C173 C171 1.420 1_565 S
C173 C178 1.395 . S
C174 C170 1.423 1_545 S
C174 C171 1.351 . S
C174 H186 0.930 . S
C175 C177 1.400 . S
C175 C178 1.386 . S
C175 H187 0.930 . S
N176 C169 1.377 . S
N176 C177 1.321 . S
N176 Eu179 2.609 . S
C177 C175 1.400 . S
C177 N176 1.321 . S
C177 H184 0.930 . S
C178 C173 1.395 . S
C178 C175 1.386 . S
C178 H197 0.930 1_565 S
Eu179 N176 2.609 . S
Eu179 N180 2.657 . S
Eu179 O213 2.380 . S
Eu179 O214 2.432 . S
Eu179 O218 2.558 . S
Eu179 O219 2.612 . S
Eu179 O221 2.339 . S
Eu179 O222 2.563 . S
Eu179 O223 2.419 . S
Eu179 C243 2.848 . S
N180 C172 1.362 . S
N180 Eu179 2.657 . S
N180 C181 1.334 . S
C181 N180 1.334 . S
C181 C183 1.413 . S
C181 H188 0.929 . S
C182 C170 1.392 . S
C182 C183 1.367 . S
C182 H190 0.930 1_565 S
C183 C181 1.413 . S
C183 C182 1.367 . S
C183 H185 0.930 . S
H184 C177 0.930 . S
H185 C183 0.930 . S
H186 C174 0.930 . S
H187 C175 0.930 . S
H188 C181 0.929 . S
H189 C203 0.930 . S
H190 C182 0.930 1_545 S
H191 C209 0.930 . S
H192 C200 0.929 . S
H193 C207 0.930 . S
H194 C171 0.931 . S
H195 C201 0.930 . S
H196 C234 0.930 . S
H197 C178 0.930 1_545 S
H198 C233 0.931 . S
N199 Eu168 2.657 . S
N199 C200 1.334 . S
N199 C204 1.362 . S
C200 H192 0.929 . S
C200 N199 1.334 . S
C200 C203 1.413 . S
C201 H195 0.930 . S
C201 C202 1.392 . S
C201 C203 1.367 . S
C202 C201 1.392 . S
C202 C204 1.420 . S
C202 C234 1.423 . S
C203 H189 0.930 . S
C203 C200 1.413 . S
C203 C201 1.367 . S
C204 N199 1.362 . S
C204 C202 1.420 . S
C204 C208 1.429 . S
H205 C210 0.930 . S
N206 Eu168 2.609 . S
N206 C208 1.377 . S
N206 C209 1.321 . S
C207 H193 0.930 . S
C207 C209 1.400 . S
C207 C210 1.386 . S
C208 C204 1.429 . S
C208 N206 1.377 . S
C208 C211 1.411 . S
C209 H191 0.930 . S
C209 N206 1.321 . S
C209 C207 1.400 . S
C210 H205 0.930 . S
C210 C207 1.386 . S
C210 C211 1.395 . S
C211 C208 1.411 . S
C211 C210 1.395 . S
C211 C233 1.420 . S
O212 Eu168 2.558 . S
O212 C232 1.257 . S
O213 Eu168 2.612 . S
O213 Eu179 2.380 . S
O213 C224 1.276 . S
O214 Eu179 2.432 . S
O214 C231 1.264 . S
O215 Eu168 2.339 . S
O215 C231 1.254 . S
O216 Eu168 2.563 . S
O216 C224 1.235 . S
O217 Eu168 2.419 . S
O217 C232 1.249 . S
O218 Eu179 2.558 . S
O218 C243 1.257 . S
O219 Eu168 2.380 . S
O219 Eu179 2.612 . S
O219 C235 1.276 . S
O220 Eu168 2.432 . S
O220 C242 1.264 . S
O221 Eu179 2.339 . S
O221 C242 1.254 . S
O222 Eu179 2.563 . S
O222 C235 1.235 . S
O223 Eu179 2.419 . S
O223 C243 1.249 . S
C224 O213 1.276 . S
C224 O216 1.235 . S
C225 C227 1.393 . S
C225 C229 1.395 . S
C225 C232 1.492 . S
C226 C227 1.392 . S
C226 C228 1.386 . S
C227 C225 1.393 . S
C227 C226 1.392 . S
C227 H244 0.930 . S
C228 C226 1.386 . S
C228 C230 1.395 . S
C228 H245 0.930 . S
C229 C225 1.395 . S
C229 C230 1.379 . S
C229 H246 0.930 . S
C230 C228 1.395 . S
C230 C229 1.379 . S
C230 H247 0.930 . S
C231 O214 1.264 . S
C231 O215 1.254 . S
C232 Eu168 2.848 . S
C232 O212 1.257 . S
C232 O217 1.249 . S
C232 C225 1.492 . S
C233 H198 0.931 . S
C233 C211 1.420 . S
C233 C234 1.351 . S
C234 H196 0.930 . S
C234 C202 1.423 . S
C234 C233 1.351 . S
C235 O219 1.276 . S
C235 O222 1.235 . S
C236 C237 1.393 . S
C236 C240 1.395 . S
C236 C243 1.492 . S
C237 C236 1.393 . S
C237 C238 1.392 . S
C237 H248 0.930 . S
C238 C237 1.392 . S
C238 C239 1.386 1_556 S
C239 C238 1.386 1_554 S
C239 C241 1.395 1_554 S
C239 H249 0.930 . S
C240 C236 1.395 . S
C240 C241 1.379 . S
C240 H250 0.930 . S
C241 C239 1.395 1_556 S
C241 C240 1.379 . S
C241 H251 0.930 . S
C242 O220 1.264 . S
C242 O221 1.254 . S
C243 Eu179 2.848 . S
C243 O218 1.257 . S
C243 O223 1.249 . S
C243 C236 1.492 . S
H244 C227 0.930 . S
H245 C228 0.930 . S
H246 C229 0.930 . S
H247 C230 0.930 . S
H248 C237 0.930 . S
H249 C239 0.930 . S
H250 C240 0.930 . S
H251 C241 0.930 . S
Eu252 N283 2.657 . S
Eu252 N290 2.609 . S
Eu252 O296 2.558 . S
Eu252 O297 2.612 . S
Eu252 O299 2.339 . S
Eu252 O300 2.563 . S
Eu252 O301 2.419 . S
Eu252 O303 2.380 1_556 S
Eu252 O304 2.432 1_556 S
Eu252 C316 2.848 . S
C253 C256 1.429 . S
C253 C257 1.411 . S
C253 N260 1.377 . S
C254 C256 1.420 . S
C254 C258 1.423 . S
C254 C266 1.392 . S
C255 C257 1.420 . S
C255 C258 1.351 . S
C255 H278 0.931 . S
C256 C253 1.429 . S
C256 C254 1.420 . S
C256 N264 1.362 . S
C257 C253 1.411 . S
C257 C255 1.420 . S
C257 C262 1.395 . S
C258 C254 1.423 . S
C258 C255 1.351 . S
C258 H270 0.930 . S
C259 C261 1.400 . S
C259 C262 1.386 . S
C259 H271 0.930 . S
N260 C253 1.377 . S
N260 C261 1.321 . S
N260 Eu263 2.609 . S
C261 C259 1.400 . S
C261 N260 1.321 . S
C261 H268 0.930 . S
C262 C257 1.395 . S
C262 C259 1.386 . S
C262 H281 0.930 . S
Eu263 N260 2.609 . S
Eu263 N264 2.657 . S
Eu263 O297 2.380 1_554 S
Eu263 O298 2.432 . S
Eu263 O302 2.558 . S
Eu263 O303 2.612 . S
Eu263 O305 2.339 . S
Eu263 O306 2.563 . S
Eu263 O307 2.419 . S
Eu263 C327 2.848 . S
N264 C256 1.362 . S
N264 Eu263 2.657 . S
N264 C265 1.334 . S
C265 N264 1.334 . S
C265 C267 1.413 . S
C265 H272 0.929 . S
C266 C254 1.392 . S
C266 C267 1.367 . S
C266 H274 0.930 . S
C267 C265 1.413 . S
C267 C266 1.367 . S
C267 H269 0.930 . S
H268 C261 0.930 . S
H269 C267 0.930 . S
H270 C258 0.930 . S
H271 C259 0.930 . S
H272 C265 0.929 . S
H273 C287 0.930 . S
H274 C266 0.930 . S
H275 C293 0.930 . S
H276 C284 0.929 . S
H277 C291 0.930 1_455 S
H278 C255 0.931 . S
H279 C285 0.930 . S
H280 C318 0.930 . S
H281 C262 0.930 . S
H282 C317 0.931 . S
N283 Eu252 2.657 . S
N283 C284 1.334 . S
N283 C288 1.362 . S
C284 H276 0.929 . S
C284 N283 1.334 . S
C284 C287 1.413 . S
C285 H279 0.930 . S
C285 C286 1.392 . S
C285 C287 1.367 . S
C286 C285 1.392 . S
C286 C288 1.420 . S
C286 C318 1.423 . S
C287 H273 0.930 . S
C287 C284 1.413 . S
C287 C285 1.367 . S
C288 N283 1.362 . S
C288 C286 1.420 . S
C288 C292 1.429 . S
H289 C294 0.930 1_455 S
N290 Eu252 2.609 . S
N290 C292 1.377 . S
N290 C293 1.321 . S
C291 H277 0.930 1_655 S
C291 C293 1.400 . S
C291 C294 1.386 . S
C292 C288 1.429 . S
C292 N290 1.377 . S
C292 C295 1.411 . S
C293 H275 0.930 . S
C293 N290 1.321 . S
C293 C291 1.400 . S
C294 H289 0.930 1_655 S
C294 C291 1.386 . S
C294 C295 1.395 . S
C295 C292 1.411 . S
C295 C294 1.395 . S
C295 C317 1.420 . S
O296 Eu252 2.558 . S
O296 C316 1.257 . S
O297 Eu252 2.612 . S
O297 Eu263 2.380 1_556 S
O297 C308 1.276 . S
O298 Eu263 2.432 . S
O298 C315 1.264 1_554 S
O299 Eu252 2.339 . S
O299 C315 1.254 . S
O300 Eu252 2.563 . S
O300 C308 1.235 . S
O301 Eu252 2.419 . S
O301 C316 1.249 . S
O302 Eu263 2.558 . S
O302 C327 1.257 . S
O303 Eu252 2.380 1_554 S
O303 Eu263 2.612 . S
O303 C319 1.276 . S
O304 Eu252 2.432 1_554 S
O304 C326 1.264 . S
O305 Eu263 2.339 . S
O305 C326 1.254 . S
O306 Eu263 2.563 . S
O306 C319 1.235 . S
O307 Eu263 2.419 . S
O307 C327 1.249 . S
C308 O297 1.276 . S
C308 O300 1.235 . S
C309 C311 1.393 . S
C309 C313 1.395 . S
C309 C316 1.492 . S
C310 C311 1.392 . S
C310 C312 1.386 . S
C311 C309 1.393 . S
C311 C310 1.392 . S
C311 H328 0.930 . S
C312 C310 1.386 . S
C312 C314 1.395 . S
C312 H329 0.930 . S
C313 C309 1.395 . S
C313 C314 1.379 . S
C313 H330 0.930 . S
C314 C312 1.395 . S
C314 C313 1.379 . S
C314 H331 0.930 . S
C315 O298 1.264 1_556 S
C315 O299 1.254 . S
C316 Eu252 2.848 . S
C316 O296 1.257 . S
C316 O301 1.249 . S
C316 C309 1.492 . S
C317 H282 0.931 . S
C317 C295 1.420 . S
C317 C318 1.351 . S
C318 H280 0.930 . S
C318 C286 1.423 . S
C318 C317 1.351 . S
C319 O303 1.276 . S
C319 O306 1.235 . S
C320 C321 1.393 . S
C320 C324 1.395 . S
C320 C327 1.492 . S
C321 C320 1.393 . S
C321 C322 1.392 . S
C321 H332 0.930 . S
C322 C321 1.392 . S
C322 C323 1.386 . S
C323 C322 1.386 . S
C323 C325 1.395 . S
C323 H333 0.930 . S
C324 C320 1.395 . S
C324 C325 1.379 . S
C324 H334 0.930 . S
C325 C323 1.395 . S
C325 C324 1.379 . S
C325 H335 0.930 . S
C326 O304 1.264 . S
C326 O305 1.254 . S
C327 Eu263 2.848 . S
C327 O302 1.257 . S
C327 O307 1.249 . S
C327 C320 1.492 . S
H328 C311 0.930 . S
H329 C312 0.930 . S
H330 C313 0.930 . S
H331 C314 0.930 . S
H332 C321 0.930 . S
H333 C323 0.930 . S
H334 C324 0.930 . S
H335 C325 0.930 . S
Eu336 N367 2.657 . S
Eu336 N374 2.609 . S
Eu336 O380 2.558 . S
Eu336 O381 2.612 . S
Eu336 O383 2.339 . S
Eu336 O384 2.563 . S
Eu336 O385 2.419 . S
Eu336 O387 2.380 . S
Eu336 O388 2.432 . S
Eu336 C400 2.848 . S
C337 C340 1.429 . S
C337 C341 1.411 . S
C337 N344 1.377 . S
C338 C340 1.420 . S
C338 C342 1.423 1_455 S
C338 C350 1.392 . S
C339 C341 1.420 1_655 S
C339 C342 1.351 . S
C339 H362 0.931 . S
C340 C337 1.429 . S
C340 C338 1.420 . S
C340 N348 1.362 . S
C341 C337 1.411 . S
C341 C339 1.420 1_455 S
C341 C346 1.395 . S
C342 C338 1.423 1_655 S
C342 C339 1.351 . S
C342 H354 0.930 . S
C343 C345 1.400 . S
C343 C346 1.386 . S
C343 H355 0.930 . S
N344 C337 1.377 . S
N344 C345 1.321 . S
N344 Eu347 2.609 . S
C345 C343 1.400 . S
C345 N344 1.321 . S
C345 H352 0.930 . S
C346 C341 1.395 . S
C346 C343 1.386 . S
C346 H365 0.930 1_455 S
Eu347 N344 2.609 . S
Eu347 N348 2.657 . S
Eu347 O381 2.380 . S
Eu347 O382 2.432 . S
Eu347 O386 2.558 . S
Eu347 O387 2.612 . S
Eu347 O389 2.339 . S
Eu347 O390 2.563 . S
Eu347 O391 2.419 . S
Eu347 C411 2.848 . S
N348 C340 1.362 . S
N348 Eu347 2.657 . S
N348 C349 1.334 . S
C349 N348 1.334 . S
C349 C351 1.413 . S
C349 H356 0.929 . S
C350 C338 1.392 . S
C350 C351 1.367 . S
C350 H358 0.930 1_455 S
C351 C349 1.413 . S
C351 C350 1.367 . S
C351 H353 0.930 . S
H352 C345 0.930 . S
H353 C351 0.930 . S
H354 C342 0.930 . S
H355 C343 0.930 . S
H356 C349 0.929 . S
H357 C371 0.930 . S
H358 C350 0.930 1_655 S
H359 C377 0.930 . S
H360 C368 0.929 . S
H361 C375 0.930 1_545 S
H362 C339 0.931 . S
H363 C369 0.930 . S
H364 C402 0.930 . S
H365 C346 0.930 1_655 S
H366 C401 0.931 . S
N367 Eu336 2.657 . S
N367 C368 1.334 . S
N367 C372 1.362 . S
C368 H360 0.929 . S
C368 N367 1.334 . S
C368 C371 1.413 . S
C369 H363 0.930 . S
C369 C370 1.392 . S
C369 C371 1.367 . S
C370 C369 1.392 . S
C370 C372 1.420 . S
C370 C402 1.423 . S
C371 H357 0.930 . S
C371 C368 1.413 . S
C371 C369 1.367 . S
C372 N367 1.362 . S
C372 C370 1.420 . S
C372 C376 1.429 . S
H373 C378 0.930 1_545 S
N374 Eu336 2.609 . S
N374 C376 1.377 . S
N374 C377 1.321 . S
C375 H361 0.930 1_565 S
C375 C377 1.400 . S
C375 C378 1.386 . S
C376 C372 1.429 . S
C376 N374 1.377 . S
C376 C379 1.411 . S
C377 H359 0.930 . S
C377 N374 1.321 . S
C377 C375 1.400 . S
C378 H373 0.930 1_565 S
C378 C375 1.386 . S
C378 C379 1.395 . S
C379 C376 1.411 . S
C379 C378 1.395 . S
C379 C401 1.420 . S
O380 Eu336 2.558 . S
O380 C400 1.257 . S
O381 Eu336 2.612 . S
O381 Eu347 2.380 . S
O381 C392 1.276 . S
O382 Eu347 2.432 . S
O382 C399 1.264 . S
O383 Eu336 2.339 . S
O383 C399 1.254 . S
O384 Eu336 2.563 . S
O384 C392 1.235 . S
O385 Eu336 2.419 . S
O385 C400 1.249 . S
O386 Eu347 2.558 . S
O386 C411 1.257 . S
O387 Eu336 2.380 . S
O387 Eu347 2.612 . S
O387 C403 1.276 . S
O388 Eu336 2.432 . S
O388 C410 1.264 . S
O389 Eu347 2.339 . S
O389 C410 1.254 . S
O390 Eu347 2.563 . S
O390 C403 1.235 . S
O391 Eu347 2.419 . S
O391 C411 1.249 . S
C392 O381 1.276 . S
C392 O384 1.235 . S
C393 C395 1.393 . S
C393 C397 1.395 . S
C393 C400 1.492 . S
C394 C395 1.392 . S
C394 C396 1.385 1_554 S
C395 C393 1.393 . S
C395 C394 1.392 . S
C395 H412 0.930 . S
C396 C394 1.385 1_556 S
C396 C398 1.393 1_556 S
C396 H413 0.932 . S
C397 C393 1.395 . S
C397 C398 1.379 . S
C397 H414 0.930 . S
C398 C396 1.393 1_554 S
C398 C397 1.379 . S
C398 H415 0.930 . S
C399 O382 1.264 . S
C399 O383 1.254 . S
C400 Eu336 2.848 . S
C400 O380 1.257 . S
C400 O385 1.249 . S
C400 C393 1.492 . S
C401 H366 0.931 . S
C401 C379 1.420 . S
C401 C402 1.351 . S
C402 H364 0.930 . S
C402 C370 1.423 . S
C402 C401 1.351 . S
C403 O387 1.276 . S
C403 O390 1.235 . S
C404 C405 1.393 . S
C404 C408 1.395 . S
C404 C411 1.492 . S
C405 C404 1.393 . S
C405 C406 1.392 . S
C405 H416 0.930 . S
C406 C405 1.392 . S
C406 C407 1.386 . S
C407 C406 1.386 . S
C407 C409 1.395 . S
C407 H417 0.930 . S
C408 C404 1.395 . S
C408 C409 1.379 . S
C408 H418 0.930 . S
C409 C407 1.395 . S
C409 C408 1.379 . S
C409 H419 0.930 . S
C410 O388 1.264 . S
C410 O389 1.254 . S
C411 Eu347 2.848 . S
C411 O386 1.257 . S
C411 O391 1.249 . S
C411 C404 1.492 . S
H412 C395 0.930 . S
H413 C396 0.932 . S
H414 C397 0.930 . S
H415 C398 0.930 . S
H416 C405 0.930 . S
H417 C407 0.930 . S
H418 C408 0.930 . S
H419 C409 0.930 . S
Eu420 N451 2.657 . S
Eu420 N458 2.609 . S
Eu420 O464 2.558 . S
Eu420 O465 2.612 . S
Eu420 O467 2.339 . S
Eu420 O468 2.563 . S
Eu420 O469 2.419 . S
Eu420 O471 2.380 . S
Eu420 O472 2.432 . S
Eu420 C484 2.848 . S
C421 C424 1.429 . S
C421 C425 1.411 . S
C421 N428 1.377 . S
C422 C424 1.420 . S
C422 C426 1.423 1_545 S
C422 C434 1.392 . S
C423 C425 1.420 1_565 S
C423 C426 1.351 . S
C423 H446 0.931 . S
C424 C421 1.429 . S
C424 C422 1.420 . S
C424 N432 1.362 . S
C425 C421 1.411 . S
C425 C423 1.420 1_545 S
C425 C430 1.395 . S
C426 C422 1.423 1_565 S
C426 C423 1.351 . S
C426 H438 0.930 . S
C427 C429 1.400 . S
C427 C430 1.386 . S
C427 H439 0.930 . S
N428 C421 1.377 . S
N428 C429 1.321 . S
N428 Eu431 2.609 . S
C429 C427 1.400 . S
C429 N428 1.321 . S
C429 H436 0.930 . S
C430 C425 1.395 . S
C430 C427 1.386 . S
C430 H449 0.930 1_545 S
Eu431 N428 2.609 . S
Eu431 N432 2.657 . S
Eu431 O465 2.380 . S
Eu431 O466 2.432 . S
Eu431 O470 2.558 . S
Eu431 O471 2.612 . S
Eu431 O473 2.339 . S
Eu431 O474 2.563 . S
Eu431 O475 2.419 . S
Eu431 C495 2.848 . S
N432 C424 1.362 . S
N432 Eu431 2.657 . S
N432 C433 1.334 . S
C433 N432 1.334 . S
C433 C435 1.413 . S
C433 H440 0.929 . S
C434 C422 1.392 . S
C434 C435 1.367 . S
C434 H442 0.930 1_545 S
C435 C433 1.413 . S
C435 C434 1.367 . S
C435 H437 0.930 . S
H436 C429 0.930 . S
H437 C435 0.930 . S
H438 C426 0.930 . S
H439 C427 0.930 . S
H440 C433 0.929 . S
H441 C455 0.930 . S
H442 C434 0.930 1_565 S
H443 C461 0.930 . S
H444 C452 0.929 . S
H445 C459 0.930 . S
H446 C423 0.931 . S
H447 C453 0.930 . S
H448 C486 0.930 . S
H449 C430 0.930 1_565 S
H450 C485 0.931 . S
N451 Eu420 2.657 . S
N451 C452 1.334 . S
N451 C456 1.362 . S
C452 H444 0.929 . S
C452 N451 1.334 . S
C452 C455 1.413 . S
C453 H447 0.930 . S
C453 C454 1.392 . S
C453 C455 1.367 . S
C454 C453 1.392 . S
C454 C456 1.420 . S
C454 C486 1.423 . S
C455 H441 0.930 . S
C455 C452 1.413 . S
C455 C453 1.367 . S
C456 N451 1.362 . S
C456 C454 1.420 . S
C456 C460 1.429 . S
H457 C462 0.930 . S
N458 Eu420 2.609 . S
N458 C460 1.377 . S
N458 C461 1.321 . S
C459 H445 0.930 . S
C459 C461 1.400 . S
C459 C462 1.386 . S
C460 C456 1.429 . S
C460 N458 1.377 . S
C460 C463 1.411 . S
C461 H443 0.930 . S
C461 N458 1.321 . S
C461 C459 1.400 . S
C462 H457 0.930 . S
C462 C459 1.386 . S
C462 C463 1.395 . S
C463 C460 1.411 . S
C463 C462 1.395 . S
C463 C485 1.420 . S
O464 Eu420 2.558 . S
O464 C484 1.257 . S
O465 Eu420 2.612 . S
O465 Eu431 2.380 . S
O465 C476 1.276 . S
O466 Eu431 2.432 . S
O466 C483 1.264 . S
O467 Eu420 2.339 . S
O467 C483 1.254 . S
O468 Eu420 2.563 . S
O468 C476 1.235 . S
O469 Eu420 2.419 . S
O469 C484 1.249 . S
O470 Eu431 2.558 . S
O470 C495 1.257 . S
O471 Eu420 2.380 . S
O471 Eu431 2.612 . S
O471 C487 1.276 . S
O472 Eu420 2.432 . S
O472 C494 1.264 . S
O473 Eu431 2.339 . S
O473 C494 1.254 . S
O474 Eu431 2.563 . S
O474 C487 1.235 . S
O475 Eu431 2.419 . S
O475 C495 1.249 . S
C476 O465 1.276 . S
C476 O468 1.235 . S
C477 C479 1.393 . S
C477 C481 1.395 . S
C477 C484 1.492 . S
C478 C479 1.392 . S
C478 C480 1.386 . S
C479 C477 1.393 . S
C479 C478 1.392 . S
C479 H496 0.930 . S
C480 C478 1.386 . S
C480 C482 1.395 . S
C480 H497 0.930 . S
C481 C477 1.395 . S
C481 C482 1.379 . S
C481 H498 0.930 . S
C482 C480 1.395 . S
C482 C481 1.379 . S
C482 H499 0.930 . S
C483 O466 1.264 . S
C483 O467 1.254 . S
C484 Eu420 2.848 . S
C484 O464 1.257 . S
C484 O469 1.249 . S
C484 C477 1.492 . S
C485 H450 0.931 . S
C485 C463 1.420 . S
C485 C486 1.351 . S
C486 H448 0.930 . S
C486 C454 1.423 . S
C486 C485 1.351 . S
C487 O471 1.276 . S
C487 O474 1.235 . S
C488 C489 1.393 . S
C488 C492 1.395 . S
C488 C495 1.492 . S
C489 C488 1.393 . S
C489 C490 1.392 . S
C489 H500 0.930 . S
C490 C489 1.392 . S
C490 C491 1.386 1_556 S
C491 C490 1.386 1_554 S
C491 C493 1.395 1_554 S
C491 H501 0.930 . S
C492 C488 1.395 . S
C492 C493 1.379 . S
C492 H502 0.930 . S
C493 C491 1.395 1_556 S
C493 C492 1.379 . S
C493 H503 0.930 . S
C494 O472 1.264 . S
C494 O473 1.254 . S
C495 Eu431 2.848 . S
C495 O470 1.257 . S
C495 O475 1.249 . S
C495 C488 1.492 . S
H496 C479 0.930 . S
H497 C480 0.930 . S
H498 C481 0.930 . S
H499 C482 0.930 . S
H500 C489 0.930 . S
H501 C491 0.930 . S
H502 C492 0.930 . S
H503 C493 0.930 . S
H504 C516 0.930 . S
H505 C518 0.930 . S
H506 C519 0.930 . S
H507 C523 0.959 . S
H508 C523 0.959 . S
H509 C523 0.961 . S
H510 C524 0.960 . S
H511 C524 0.961 . S
H512 C524 0.959 . S
H513 C527 0.929 . S
H514 C528 0.931 . S
H515 C530 0.930 . S
C516 H504 0.930 . S
C516 C517 1.399 . S
C516 C521 1.399 . S
C517 C516 1.399 . S
C517 C518 1.376 . S
C518 H505 0.930 . S
C518 C517 1.376 . S
C518 C519 1.388 . S
C519 H506 0.930 . S
C519 C518 1.388 . S
C519 C520 1.390 . S
C520 C519 1.390 . S
C520 C521 1.394 . S
C520 C526 1.465 . S
C521 C516 1.399 . S
C521 C520 1.394 . S
C521 C522 1.516 . S
C522 C521 1.516 . S
C522 C523 1.502 . S
C522 C524 1.561 . S
C522 C525 1.526 . S
C523 H507 0.959 . S
C523 H508 0.959 . S
C523 H509 0.961 . S
C523 C522 1.502 . S
C524 H510 0.960 . S
C524 H511 0.961 . S
C524 H512 0.959 . S
C524 C522 1.561 . S
C525 C522 1.526 . S
C525 C526 1.396 . S
C525 C530 1.390 . S
C526 C520 1.465 . S
C526 C525 1.396 . S
C526 C527 1.399 . S
C527 H513 0.929 . S
C527 C526 1.399 . S
C527 C528 1.385 . S
C528 H514 0.931 . S
C528 C527 1.385 . S
C528 C529 1.389 . S
C529 C528 1.389 . S
C529 C530 1.387 . S
C530 H515 0.930 . S
C530 C525 1.390 . S
C530 C529 1.387 . S
H531 C543 0.930 . S
H532 C545 0.930 . S
H533 C546 0.930 . S
H534 C550 0.953 1_455 S
H535 C550 0.970 . S
H536 C550 0.958 1_455 S
H537 C551 0.960 . S
H538 C551 0.961 . S
H539 C551 0.959 . S
H540 C554 0.929 . S
H541 C555 0.931 . S
H542 C557 0.930 . S
C543 H531 0.930 . S
C543 C544 1.399 . S
C543 C548 1.399 . S
C544 C543 1.399 . S
C544 C545 1.376 . S
C545 H532 0.930 . S
C545 C544 1.376 . S
C545 C546 1.388 . S
C546 H533 0.930 . S
C546 C545 1.388 . S
C546 C547 1.390 . S
C547 C546 1.390 . S
C547 C548 1.394 . S
C547 C553 1.465 1_455 S
C548 C543 1.399 . S
C548 C547 1.394 . S
C548 C549 1.516 1_455 S
C549 C548 1.516 1_655 S
C549 C550 1.500 . S
C549 C551 1.561 . S
C549 C552 1.526 . S
C550 H534 0.953 1_655 S
C550 H535 0.970 . S
C550 H536 0.958 1_655 S
C550 C549 1.500 . S
C551 H537 0.960 . S
C551 H538 0.961 . S
C551 H539 0.959 . S
C551 C549 1.561 . S
C552 C549 1.526 . S
C552 C553 1.396 . S
C552 C557 1.390 . S
C553 C547 1.465 1_655 S
C553 C552 1.396 . S
C553 C554 1.399 . S
C554 H540 0.929 . S
C554 C553 1.399 . S
C554 C555 1.385 . S
C555 H541 0.931 . S
C555 C554 1.385 . S
C555 C556 1.389 . S
C556 C555 1.389 . S
C556 C557 1.387 . S
C557 H542 0.930 . S
C557 C552 1.390 . S
C557 C556 1.387 . S
H558 C570 0.930 . S
H559 C572 0.930 . S
H560 C573 0.930 . S
H561 C577 0.959 . S
H562 C577 0.959 . S
H563 C577 0.961 . S
H564 C578 0.960 . S
H565 C578 0.961 . S
H566 C578 0.959 . S
H567 C581 0.929 1_545 S
H568 C582 0.931 . S
H569 C584 0.930 . S
C570 H558 0.930 . S
C570 C571 1.399 . S
C570 C575 1.399 . S
C571 C570 1.399 . S
C571 C572 1.376 . S
C572 H559 0.930 . S
C572 C571 1.376 . S
C572 C573 1.388 . S
C573 H560 0.930 . S
C573 C572 1.388 . S
C573 C574 1.390 . S
C574 C573 1.390 . S
C574 C575 1.394 . S
C574 C580 1.465 1_545 S
C575 C570 1.399 . S
C575 C574 1.394 . S
C575 C576 1.516 1_545 S
C576 C575 1.516 1_565 S
C576 C577 1.502 . S
C576 C578 1.561 . S
C576 C579 1.526 . S
C577 H561 0.959 . S
C577 H562 0.959 . S
C577 H563 0.961 . S
C577 C576 1.502 . S
C578 H564 0.960 . S
C578 H565 0.961 . S
C578 H566 0.959 . S
C578 C576 1.561 . S
C579 C576 1.526 . S
C579 C580 1.396 . S
C579 C584 1.390 . S
C580 C574 1.465 1_565 S
C580 C579 1.396 . S
C580 C581 1.399 . S
C581 H567 0.929 1_565 S
C581 C580 1.399 . S
C581 C582 1.385 . S
C582 H568 0.931 . S
C582 C581 1.385 . S
C582 C583 1.389 . S
C583 C582 1.389 . S
C583 C584 1.387 . S
C584 H569 0.930 . S
C584 C579 1.390 . S
C584 C583 1.387 . S
H585 C597 0.930 . S
H586 C599 0.930 . S
H587 C600 0.930 . S
H588 C604 0.959 . S
H589 C604 0.959 . S
H590 C604 0.961 . S
H591 C605 0.960 . S
H592 C605 0.961 . S
H593 C605 0.959 . S
H594 C608 0.929 . S
H595 C609 0.931 . S
H596 C611 0.930 . S
C597 H585 0.930 . S
C597 C598 1.399 . S
C597 C602 1.399 . S
C598 C597 1.399 . S
C598 C599 1.376 . S
C599 H586 0.930 . S
C599 C598 1.376 . S
C599 C600 1.388 . S
C600 H587 0.930 . S
C600 C599 1.388 . S
C600 C601 1.390 . S
C601 C600 1.390 . S
C601 C602 1.394 . S
C601 C607 1.465 . S
C602 C597 1.399 . S
C602 C601 1.394 . S
C602 C603 1.516 . S
C603 C602 1.516 . S
C603 C604 1.502 . S
C603 C605 1.561 . S
C603 C606 1.526 . S
C604 H588 0.959 . S
C604 H589 0.959 . S
C604 H590 0.961 . S
C604 C603 1.502 . S
C605 H591 0.960 . S
C605 H592 0.961 . S
C605 H593 0.959 . S
C605 C603 1.561 . S
C606 C603 1.526 . S
C606 C607 1.396 . S
C606 C611 1.390 . S
C607 C601 1.465 . S
C607 C606 1.396 . S
C607 C608 1.399 . S
C608 H594 0.929 . S
C608 C607 1.399 . S
C608 C609 1.385 . S
C609 H595 0.931 . S
C609 C608 1.385 . S
C609 C610 1.389 . S
C610 C609 1.389 . S
C610 C611 1.387 . S
C611 H596 0.930 . S
C611 C606 1.390 . S
C611 C610 1.387 . S
H612 C624 0.930 . S
H613 C626 0.930 . S
H614 C627 0.930 1_655 S
H615 C631 0.959 . S
H616 C631 0.959 . S
H617 C631 0.961 . S
H618 C632 0.960 . S
H619 C632 0.961 . S
H620 C632 0.959 . S
H621 C635 0.929 . S
H622 C636 0.931 . S
H623 C638 0.930 . S
C624 H612 0.930 . S
C624 C625 1.399 . S
C624 C629 1.399 . S
C625 C624 1.399 . S
C625 C626 1.376 . S
C626 H613 0.930 . S
C626 C625 1.376 . S
C626 C627 1.388 . S
C627 H614 0.930 1_455 S
C627 C626 1.388 . S
C627 C628 1.390 . S
C628 C627 1.390 . S
C628 C629 1.394 . S
C628 C634 1.465 1_455 S
C629 C624 1.399 . S
C629 C628 1.394 . S
C629 C630 1.516 . S
C630 C629 1.516 . S
C630 C631 1.502 . S
C630 C632 1.561 . S
C630 C633 1.526 1_455 S
C631 H615 0.959 . S
C631 H616 0.959 . S
C631 H617 0.961 . S
C631 C630 1.502 . S
C632 H618 0.960 . S
C632 H619 0.961 . S
C632 H620 0.959 . S
C632 C630 1.561 . S
C633 C630 1.526 1_655 S
C633 C634 1.396 . S
C633 C638 1.390 . S
C634 C628 1.465 1_655 S
C634 C633 1.396 . S
C634 C635 1.399 . S
C635 H621 0.929 . S
C635 C634 1.399 . S
C635 C636 1.385 . S
C636 H622 0.931 . S
C636 C635 1.385 . S
C636 C637 1.389 . S
C637 C636 1.389 . S
C637 C638 1.387 . S
C638 H623 0.930 . S
C638 C633 1.390 . S
C638 C637 1.387 . S
H639 C651 0.930 . S
H640 C653 0.930 . S
H641 C654 0.930 . S
H642 C658 0.959 . S
H643 C658 0.959 . S
H644 C658 0.961 . S
H645 C659 0.960 . S
H646 C659 0.961 . S
H647 C659 0.959 . S
H648 C662 0.929 1_545 S
H649 C663 0.931 . S
H650 C665 0.930 . S
C651 H639 0.930 . S
C651 C652 1.399 . S
C651 C656 1.399 . S
C652 C651 1.399 . S
C652 C653 1.376 . S
C653 H640 0.930 . S
C653 C652 1.376 . S
C653 C654 1.388 . S
C654 H641 0.930 . S
C654 C653 1.388 . S
C654 C655 1.390 . S
C655 C654 1.390 . S
C655 C656 1.394 . S
C655 C661 1.465 1_545 S
C656 C651 1.399 . S
C656 C655 1.394 . S
C656 C657 1.516 1_545 S
C657 C656 1.516 1_565 S
C657 C658 1.502 . S
C657 C659 1.561 . S
C657 C660 1.526 . S
C658 H642 0.959 . S
C658 H643 0.959 . S
C658 H644 0.961 . S
C658 C657 1.502 . S
C659 H645 0.960 . S
C659 H646 0.961 . S
C659 H647 0.959 . S
C659 C657 1.561 . S
C660 C657 1.526 . S
C660 C661 1.396 . S
C660 C665 1.390 . S
C661 C655 1.465 1_565 S
C661 C660 1.396 . S
C661 C662 1.399 . S
C662 H648 0.929 1_565 S
C662 C661 1.399 . S
C662 C663 1.385 . S
C663 H649 0.931 . S
C663 C662 1.385 . S
C663 C664 1.389 . S
C664 C663 1.389 . S
C664 C665 1.387 . S
C665 H650 0.930 . S
C665 C660 1.390 . S
C665 C664 1.387 . S
H666 C678 0.930 . S
H667 C680 0.930 . S
H668 C681 0.930 . S
H669 C685 0.959 . S
H670 C685 0.959 . S
H671 C685 0.961 . S
H672 C686 0.960 . S
H673 C686 0.961 . S
H674 C686 0.959 . S
H675 C689 0.929 . S
H676 C690 0.931 . S
H677 C692 0.930 . S
C678 H666 0.930 . S
C678 C679 1.399 . S
C678 C683 1.399 . S
C679 C678 1.399 . S
C679 C680 1.376 . S
C680 H667 0.930 . S
C680 C679 1.376 . S
C680 C681 1.388 . S
C681 H668 0.930 . S
C681 C680 1.388 . S
C681 C682 1.390 . S
C682 C681 1.390 . S
C682 C683 1.394 . S
C682 C688 1.465 . S
C683 C678 1.399 . S
C683 C682 1.394 . S
C683 C684 1.516 . S
C684 C683 1.516 . S
C684 C685 1.502 . S
C684 C686 1.561 . S
C684 C687 1.526 . S
C685 H669 0.959 . S
C685 H670 0.959 . S
C685 H671 0.961 . S
C685 C684 1.502 . S
C686 H672 0.960 . S
C686 H673 0.961 . S
C686 H674 0.959 . S
C686 C684 1.561 . S
C687 C684 1.526 . S
C687 C688 1.396 . S
C687 C692 1.390 . S
C688 C682 1.465 . S
C688 C687 1.396 . S
C688 C689 1.399 . S
C689 H675 0.929 . S
C689 C688 1.399 . S
C689 C690 1.385 . S
C690 H676 0.931 . S
C690 C689 1.385 . S
C690 C691 1.389 . S
C691 C690 1.389 . S
C691 C692 1.387 . S
C692 H677 0.930 . S
C692 C687 1.390 . S
C692 C691 1.387 . S
H693 C705 0.930 . S
H694 C707 0.930 . S
H695 C708 0.930 . S
H696 C712 0.959 . S
H697 C712 0.959 . S
H698 C712 0.961 . S
H699 C713 0.960 . S
H700 C713 0.961 . S
H701 C713 0.959 . S
H702 C716 0.929 . S
H703 C717 0.931 . S
H704 C719 0.930 . S
C705 H693 0.930 . S
C705 C706 1.399 . S
C705 C710 1.399 . S
C706 C705 1.399 . S
C706 C707 1.376 . S
C707 H694 0.930 . S
C707 C706 1.376 . S
C707 C708 1.388 . S
C708 H695 0.930 . S
C708 C707 1.388 . S
C708 C709 1.390 . S
C709 C708 1.390 . S
C709 C710 1.394 . S
C709 C715 1.465 . S
C710 C705 1.399 . S
C710 C709 1.394 . S
C710 C711 1.516 . S
C711 C710 1.516 . S
C711 C712 1.502 . S
C711 C713 1.561 . S
C711 C714 1.526 . S
C712 H696 0.959 . S
C712 H697 0.959 . S
C712 H698 0.961 . S
C712 C711 1.502 . S
C713 H699 0.960 . S
C713 H700 0.961 . S
C713 H701 0.959 . S
C713 C711 1.561 . S
C714 C711 1.526 . S
C714 C715 1.396 . S
C714 C719 1.390 . S
C715 C709 1.465 . S
C715 C714 1.396 . S
C715 C716 1.399 . S
C716 H702 0.929 . S
C716 C715 1.399 . S
C716 C717 1.385 . S
C717 H703 0.931 . S
C717 C716 1.385 . S
C717 C718 1.389 . S
C718 C717 1.389 . S
C718 C719 1.387 . S
C719 H704 0.930 . S
C719 C714 1.390 . S
C719 C718 1.387 . S
H720 C732 0.930 . S
H721 C734 0.930 . S
H722 C735 0.930 . S
H723 C739 0.959 . S
H724 C739 0.959 . S
H725 C739 0.961 . S
H726 C740 0.960 . S
H727 C740 0.961 . S
H728 C740 0.959 . S
H729 C743 0.929 . S
H730 C744 0.931 . S
H731 C746 0.930 . S
C732 H720 0.930 . S
C732 C733 1.399 . S
C732 C737 1.399 . S
C733 C732 1.399 . S
C733 C734 1.376 . S
C734 H721 0.930 . S
C734 C733 1.376 . S
C734 C735 1.388 . S
C735 H722 0.930 . S
C735 C734 1.388 . S
C735 C736 1.390 . S
C736 C735 1.390 . S
C736 C737 1.394 . S
C736 C742 1.465 . S
C737 C732 1.399 . S
C737 C736 1.394 . S
C737 C738 1.516 . S
C738 C737 1.516 . S
C738 C739 1.502 . S
C738 C740 1.561 . S
C738 C741 1.526 . S
C739 H723 0.959 . S
C739 H724 0.959 . S
C739 H725 0.961 . S
C739 C738 1.502 . S
C740 H726 0.960 . S
C740 H727 0.961 . S
C740 H728 0.959 . S
C740 C738 1.561 . S
C741 C738 1.526 . S
C741 C742 1.396 . S
C741 C746 1.390 . S
C742 C736 1.465 . S
C742 C741 1.396 . S
C742 C743 1.399 . S
C743 H729 0.929 . S
C743 C742 1.399 . S
C743 C744 1.385 . S
C744 H730 0.931 . S
C744 C743 1.385 . S
C744 C745 1.389 . S
C745 C744 1.389 . S
C745 C746 1.387 . S
C746 H731 0.930 . S
C746 C741 1.390 . S
C746 C745 1.387 . S
H747 C759 0.930 . S
H748 C761 0.930 . S
H749 C762 0.930 . S
H750 C766 0.959 . S
H751 C766 0.959 . S
H752 C766 0.961 . S
H753 C767 0.960 . S
H754 C767 0.961 . S
H755 C767 0.959 . S
H756 C770 0.929 . S
H757 C771 0.931 . S
H758 C773 0.930 . S
C759 H747 0.930 . S
C759 C760 1.399 . S
C759 C764 1.399 . S
C760 C759 1.399 . S
C760 C761 1.376 . S
C761 H748 0.930 . S
C761 C760 1.376 . S
C761 C762 1.388 . S
C762 H749 0.930 . S
C762 C761 1.388 . S
C762 C763 1.390 . S
C763 C762 1.390 . S
C763 C764 1.394 . S
C763 C769 1.465 . S
C764 C759 1.399 . S
C764 C763 1.394 . S
C764 C765 1.516 . S
C765 C764 1.516 . S
C765 C766 1.502 . S
C765 C767 1.561 . S
C765 C768 1.526 . S
C766 H750 0.959 . S
C766 H751 0.959 . S
C766 H752 0.961 . S
C766 C765 1.502 . S
C767 H753 0.960 . S
C767 H754 0.961 . S
C767 H755 0.959 . S
C767 C765 1.561 . S
C768 C765 1.526 . S
C768 C769 1.396 . S
C768 C773 1.390 . S
C769 C763 1.465 . S
C769 C768 1.396 . S
C769 C770 1.399 . S
C770 H756 0.929 . S
C770 C769 1.399 . S
C770 C771 1.385 . S
C771 H757 0.931 . S
C771 C770 1.385 . S
C771 C772 1.389 . S
C772 C771 1.389 . S
C772 C773 1.387 . S
C773 H758 0.930 . S
C773 C768 1.390 . S
C773 C772 1.387 . S
H774 C786 0.930 . S
H775 C788 0.930 . S
H776 C789 0.930 . S
H777 C793 0.959 . S
H778 C793 0.959 . S
H779 C793 0.961 . S
H780 C794 0.960 . S
H781 C794 0.961 . S
H782 C794 0.959 . S
H783 C797 0.929 . S
H784 C798 0.931 . S
H785 C800 0.930 . S
C786 H774 0.930 . S
C786 C787 1.399 . S
C786 C791 1.399 . S
C787 C786 1.399 . S
C787 C788 1.376 . S
C788 H775 0.930 . S
C788 C787 1.376 . S
C788 C789 1.388 . S
C789 H776 0.930 . S
C789 C788 1.388 . S
C789 C790 1.390 . S
C790 C789 1.390 . S
C790 C791 1.394 . S
C790 C796 1.465 . S
C791 C786 1.399 . S
C791 C790 1.394 . S
C791 C792 1.516 . S
C792 C791 1.516 . S
C792 C793 1.502 . S
C792 C794 1.561 . S
C792 C795 1.526 . S
C793 H777 0.959 . S
C793 H778 0.959 . S
C793 H779 0.961 . S
C793 C792 1.502 . S
C794 H780 0.960 . S
C794 H781 0.961 . S
C794 H782 0.959 . S
C794 C792 1.561 . S
C795 C792 1.526 . S
C795 C796 1.396 . S
C795 C800 1.390 . S
C796 C790 1.465 . S
C796 C795 1.396 . S
C796 C797 1.399 . S
C797 H783 0.929 . S
C797 C796 1.399 . S
C797 C798 1.385 . S
C798 H784 0.931 . S
C798 C797 1.385 . S
C798 C799 1.389 . S
C799 C798 1.389 . S
C799 C800 1.387 . S
C800 H785 0.930 . S
C800 C795 1.390 . S
C800 C799 1.387 . S
H801 C813 0.930 . S
H802 C815 0.930 . S
H803 C816 0.930 . S
H804 C820 0.959 . S
H805 C820 0.959 . S
H806 C820 0.961 . S
H807 C821 0.960 . S
H808 C821 0.961 . S
H809 C821 0.959 . S
H810 C824 0.929 . S
H811 C825 0.931 . S
H812 C827 0.930 . S
C813 H801 0.930 . S
C813 C814 1.399 . S
C813 C818 1.399 . S
C814 C813 1.399 . S
C814 C815 1.376 . S
C815 H802 0.930 . S
C815 C814 1.376 . S
C815 C816 1.388 . S
C816 H803 0.930 . S
C816 C815 1.388 . S
C816 C817 1.390 . S
C817 C816 1.390 . S
C817 C818 1.394 . S
C817 C823 1.465 . S
C818 C813 1.399 . S
C818 C817 1.394 . S
C818 C819 1.516 . S
C819 C818 1.516 . S
C819 C820 1.502 . S
C819 C821 1.561 . S
C819 C822 1.526 . S
C820 H804 0.959 . S
C820 H805 0.959 . S
C820 H806 0.961 . S
C820 C819 1.502 . S
C821 H807 0.960 . S
C821 H808 0.961 . S
C821 H809 0.959 . S
C821 C819 1.561 . S
C822 C819 1.526 . S
C822 C823 1.396 . S
C822 C827 1.390 . S
C823 C817 1.465 . S
C823 C822 1.396 . S
C823 C824 1.399 . S
C824 H810 0.929 . S
C824 C823 1.399 . S
C824 C825 1.385 . S
C825 H811 0.931 . S
C825 C824 1.385 . S
C825 C826 1.389 . S
C826 C825 1.389 . S
C826 C827 1.387 . S
C827 H812 0.930 . S
C827 C822 1.390 . S
C827 C826 1.387 . S
H828 C840 0.930 . S
H829 C842 0.930 . S
H830 C843 0.930 . S
H831 C847 0.959 . S
H832 C847 0.959 . S
H833 C847 0.961 . S
H834 C848 0.960 . S
H835 C848 0.961 . S
H836 C848 0.959 . S
H837 C851 0.929 . S
H838 C852 0.931 . S
H839 C854 0.930 . S
C840 H828 0.930 . S
C840 C841 1.399 . S
C840 C845 1.399 . S
C841 C840 1.399 . S
C841 C842 1.376 . S
C842 H829 0.930 . S
C842 C841 1.376 . S
C842 C843 1.388 . S
C843 H830 0.930 . S
C843 C842 1.388 . S
C843 C844 1.390 . S
C844 C843 1.390 . S
C844 C845 1.394 . S
C844 C850 1.465 . S
C845 C840 1.399 . S
C845 C844 1.394 . S
C845 C846 1.516 . S
C846 C845 1.516 . S
C846 C847 1.502 . S
C846 C848 1.561 . S
C846 C849 1.526 . S
C847 H831 0.959 . S
C847 H832 0.959 . S
C847 H833 0.961 . S
C847 C846 1.502 . S
C848 H834 0.960 . S
C848 H835 0.961 . S
C848 H836 0.959 . S
C848 C846 1.561 . S
C849 C846 1.526 . S
C849 C850 1.396 . S
C849 C854 1.390 . S
C850 C844 1.465 . S
C850 C849 1.396 . S
C850 C851 1.399 . S
C851 H837 0.929 . S
C851 C850 1.399 . S
C851 C852 1.385 . S
C852 H838 0.931 . S
C852 C851 1.385 . S
C852 C853 1.389 . S
C853 C852 1.389 . S
C853 C854 1.387 . S
C854 H839 0.930 . S
C854 C849 1.390 . S
C854 C853 1.387 . S
H855 C867 0.930 . S
H856 C869 0.930 . S
H857 C870 0.930 . S
H858 C874 0.959 . S
H859 C874 0.959 . S
H860 C874 0.961 . S
H861 C875 0.960 . S
H862 C875 0.961 . S
H863 C875 0.959 . S
H864 C878 0.929 . S
H865 C879 0.931 . S
H866 C881 0.930 . S
C867 H855 0.930 . S
C867 C868 1.399 . S
C867 C872 1.399 . S
C868 C867 1.399 . S
C868 C869 1.376 . S
C869 H856 0.930 . S
C869 C868 1.376 . S
C869 C870 1.388 . S
C870 H857 0.930 . S
C870 C869 1.388 . S
C870 C871 1.390 . S
C871 C870 1.390 . S
C871 C872 1.394 . S
C871 C877 1.465 . S
C872 C867 1.399 . S
C872 C871 1.394 . S
C872 C873 1.516 . S
C873 C872 1.516 . S
C873 C874 1.502 . S
C873 C875 1.561 . S
C873 C876 1.526 . S
C874 H858 0.959 . S
C874 H859 0.959 . S
C874 H860 0.961 . S
C874 C873 1.502 . S
C875 H861 0.960 . S
C875 H862 0.961 . S
C875 H863 0.959 . S
C875 C873 1.561 . S
C876 C873 1.526 . S
C876 C877 1.396 . S
C876 C881 1.390 . S
C877 C871 1.465 . S
C877 C876 1.396 . S
C877 C878 1.399 . S
C878 H864 0.929 . S
C878 C877 1.399 . S
C878 C879 1.385 . S
C879 H865 0.931 . S
C879 C878 1.385 . S
C879 C880 1.389 . S
C880 C879 1.389 . S
C880 C881 1.387 . S
C881 H866 0.930 . S
C881 C876 1.390 . S
C881 C880 1.387 . S
H882 C894 0.930 . S
H883 C896 0.930 . S
H884 C897 0.930 . S
H885 C901 0.959 . S
H886 C901 0.959 . S
H887 C901 0.961 . S
H888 C902 0.960 . S
H889 C902 0.961 . S
H890 C902 0.959 . S
H891 C905 0.929 . S
H892 C906 0.931 . S
H893 C908 0.930 . S
C894 H882 0.930 . S
C894 C895 1.399 . S
C894 C899 1.399 . S
C895 C894 1.399 . S
C895 C896 1.376 . S
C896 H883 0.930 . S
C896 C895 1.376 . S
C896 C897 1.388 . S
C897 H884 0.930 . S
C897 C896 1.388 . S
C897 C898 1.390 . S
C898 C897 1.390 . S
C898 C899 1.394 . S
C898 C904 1.465 . S
C899 C894 1.399 . S
C899 C898 1.394 . S
C899 C900 1.516 . S
C900 C899 1.516 . S
C900 C901 1.502 . S
C900 C902 1.561 . S
C900 C903 1.526 . S
C901 H885 0.959 . S
C901 H886 0.959 . S
C901 H887 0.961 . S
C901 C900 1.502 . S
C902 H888 0.960 . S
C902 H889 0.961 . S
C902 H890 0.959 . S
C902 C900 1.561 . S
C903 C900 1.526 . S
C903 C904 1.396 . S
C903 C908 1.390 . S
C904 C898 1.465 . S
C904 C903 1.396 . S
C904 C905 1.399 . S
C905 H891 0.929 . S
C905 C904 1.399 . S
C905 C906 1.385 . S
C906 H892 0.931 . S
C906 C905 1.385 . S
C906 C907 1.389 . S
C907 C906 1.389 . S
C907 C908 1.387 . S
C908 H893 0.930 . S
C908 C903 1.390 . S
C908 C907 1.387 . S
H909 C921 0.930 . S
H910 C923 0.930 . S
H911 C924 0.930 . S
H912 C928 0.959 . S
H913 C928 0.959 . S
H914 C928 0.961 . S
H915 C929 0.960 . S
H916 C929 0.961 . S
H917 C929 0.959 . S
H918 C932 0.929 . S
H919 C933 0.931 . S
H920 C935 0.930 . S
C921 H909 0.930 . S
C921 C922 1.399 . S
C921 C926 1.399 . S
C922 C921 1.399 . S
C922 C923 1.376 . S
C923 H910 0.930 . S
C923 C922 1.376 . S
C923 C924 1.388 . S
C924 H911 0.930 . S
C924 C923 1.388 . S
C924 C925 1.390 . S
C925 C924 1.390 . S
C925 C926 1.394 . S
C925 C931 1.465 . S
C926 C921 1.399 . S
C926 C925 1.394 . S
C926 C927 1.516 . S
C927 C926 1.516 . S
C927 C928 1.502 . S
C927 C929 1.561 . S
C927 C930 1.526 . S
C928 H912 0.959 . S
C928 H913 0.959 . S
C928 H914 0.961 . S
C928 C927 1.502 . S
C929 H915 0.960 . S
C929 H916 0.961 . S
C929 H917 0.959 . S
C929 C927 1.561 . S
C930 C927 1.526 . S
C930 C931 1.396 . S
C930 C935 1.390 . S
C931 C925 1.465 . S
C931 C930 1.396 . S
C931 C932 1.399 . S
C932 H918 0.929 . S
C932 C931 1.399 . S
C932 C933 1.385 . S
C933 H919 0.931 . S
C933 C932 1.385 . S
C933 C934 1.389 . S
C934 C933 1.389 . S
C934 C935 1.387 . S
C935 H920 0.930 . S
C935 C930 1.390 . S
C935 C934 1.387 . S
H936 C948 0.930 . S
H937 C950 0.930 . S
H938 C951 0.930 . S
H939 C955 0.959 . S
H940 C955 0.959 . S
H941 C955 0.961 . S
H942 C956 0.960 . S
H943 C956 0.961 . S
H944 C956 0.959 . S
H945 C959 0.929 . S
H946 C960 0.931 . S
H947 C962 0.930 . S
C948 H936 0.930 . S
C948 C949 1.399 . S
C948 C953 1.399 . S
C949 C948 1.399 . S
C949 C950 1.376 . S
C950 H937 0.930 . S
C950 C949 1.376 . S
C950 C951 1.388 . S
C951 H938 0.930 . S
C951 C950 1.388 . S
C951 C952 1.390 . S
C952 C951 1.390 . S
C952 C953 1.394 . S
C952 C958 1.465 . S
C953 C948 1.399 . S
C953 C952 1.394 . S
C953 C954 1.516 . S
C954 C953 1.516 . S
C954 C955 1.502 . S
C954 C956 1.561 . S
C954 C957 1.526 . S
C955 H939 0.959 . S
C955 H940 0.959 . S
C955 H941 0.961 . S
C955 C954 1.502 . S
C956 H942 0.960 . S
C956 H943 0.961 . S
C956 H944 0.959 . S
C956 C954 1.561 . S
C957 C954 1.526 . S
C957 C958 1.396 . S
C957 C962 1.390 . S
C958 C952 1.465 . S
C958 C957 1.396 . S
C958 C959 1.399 . S
C959 H945 0.929 . S
C959 C958 1.399 . S
C959 C960 1.385 . S
C960 H946 0.931 . S
C960 C959 1.385 . S
C960 C961 1.389 . S
C961 C960 1.389 . S
C961 C962 1.387 . S
C962 H947 0.930 . S
C962 C957 1.390 . S
C962 C961 1.387 . S
H963 C975 0.930 . S
H964 C977 0.930 . S
H965 C978 0.930 . S
H966 C982 0.959 . S
H967 C982 0.959 . S
H968 C982 0.961 . S
H969 C983 0.960 . S
H970 C983 0.961 . S
H971 C983 0.959 . S
H972 C986 0.929 . S
H973 C987 0.931 . S
H974 C989 0.930 . S
C975 H963 0.930 . S
C975 C976 1.399 . S
C975 C980 1.399 . S
C976 C975 1.399 . S
C976 C977 1.376 . S
C977 H964 0.930 . S
C977 C976 1.376 . S
C977 C978 1.388 . S
C978 H965 0.930 . S
C978 C977 1.388 . S
C978 C979 1.390 . S
C979 C978 1.390 . S
C979 C980 1.394 . S
C979 C985 1.465 . S
C980 C975 1.399 . S
C980 C979 1.394 . S
C980 C981 1.516 . S
C981 C980 1.516 . S
C981 C982 1.502 . S
C981 C983 1.561 . S
C981 C984 1.526 . S
C982 H966 0.959 . S
C982 H967 0.959 . S
C982 H968 0.961 . S
C982 C981 1.502 . S
C983 H969 0.960 . S
C983 H970 0.961 . S
C983 H971 0.959 . S
C983 C981 1.561 . S
C984 C981 1.526 . S
C984 C985 1.396 . S
C984 C989 1.390 . S
C985 C979 1.465 . S
C985 C984 1.396 . S
C985 C986 1.399 . S
C986 H972 0.929 . S
C986 C985 1.399 . S
C986 C987 1.385 . S
C987 H973 0.931 . S
C987 C986 1.385 . S
C987 C988 1.389 . S
C988 C987 1.389 . S
C988 C989 1.387 . S
C989 H974 0.930 . S
C989 C984 1.390 . S
C989 C988 1.387 . S
C517 C494 1.446 . S
C529 C56 1.396 . S
C544 C74 1.426 . S
C556 C140 1.387 . S
C571 C158 1.437 . S
C583 C224 1.422 . S
C598 C242 1.438 . S
C610 C308 1.364 . S
C625 C392 1.421 . S
C637 C326 1.448 . S
C652 C476 1.358 . S
C664 C410 1.424 . S
C679 C58 1.357 . S
C691 C70 1.265 . S
C706 C142 1.361 1_556 S
C718 C154 1.275 . S
C733 C226 1.262 . S
C745 C238 1.361 1_554 S
C760 C310 1.296 . S
C772 C322 1.317 . S
C787 C406 1.346 . S
C799 C394 1.273 1_556 S
C814 C478 1.365 . S
C826 C490 1.265 1_554 S
C841 C67 1.423 . S
C853 C399 1.458 . S
C868 C151 1.428 . S
C880 C483 1.463 . S
C895 C63 1.466 . S
C907 C235 1.427 . S
C922 C147 1.432 . S
C934 C319 1.376 . S
C949 C403 1.319 . S
C961 C231 1.387 . S
C976 C315 1.465 . S
C988 C487 1.426 . S
