# Generated by pormake.
# Topology vmh, (6)-cn, num edge types: 1
# Building blocks:
#     Node 0, Type 0, BuildingBlock: OJICUG_clean_sbu_0, # of connection points: 6
#     Node 1, Type 0, BuildingBlock: OJICUG_clean_sbu_0, # of connection points: 6
#     Node 2, Type 0, BuildingBlock: OJICUG_clean_sbu_0, # of connection points: 6
#     Node 3, Type 0, BuildingBlock: OJICUG_clean_sbu_0, # of connection points: 6
#     Node 4, Type 0, BuildingBlock: OJICUG_clean_sbu_0, # of connection points: 6
#     Node 5, Type 0, BuildingBlock: OJICUG_clean_sbu_0, # of connection points: 6
#     Node 6, Type 0, BuildingBlock: OJICUG_clean_sbu_0, # of connection points: 6
#     Node 7, Type 0, BuildingBlock: OJICUG_clean_sbu_0, # of connection points: 6
#     Edge 8, Type (0, 0), BuildingBlock: CIFDUS_clean_linker_0, # of connection points: 2
#     Edge 9, Type (0, 0), BuildingBlock: CIFDUS_clean_linker_0, # of connection points: 2
#     Edge 10, Type (0, 0), BuildingBlock: CIFDUS_clean_linker_0, # of connection points: 2
#     Edge 11, Type (0, 0), BuildingBlock: CIFDUS_clean_linker_0, # of connection points: 2
#     Edge 12, Type (0, 0), BuildingBlock: CIFDUS_clean_linker_0, # of connection points: 2
#     Edge 13, Type (0, 0), BuildingBlock: CIFDUS_clean_linker_0, # of connection points: 2
#     Edge 14, Type (0, 0), BuildingBlock: CIFDUS_clean_linker_0, # of connection points: 2
#     Edge 15, Type (0, 0), BuildingBlock: CIFDUS_clean_linker_0, # of connection points: 2
#     Edge 16, Type (0, 0), BuildingBlock: CIFDUS_clean_linker_0, # of connection points: 2
#     Edge 17, Type (0, 0), BuildingBlock: CIFDUS_clean_linker_0, # of connection points: 2
#     Edge 18, Type (0, 0), BuildingBlock: CIFDUS_clean_linker_0, # of connection points: 2
#     Edge 19, Type (0, 0), BuildingBlock: CIFDUS_clean_linker_0, # of connection points: 2
#     Edge 20, Type (0, 0), BuildingBlock: CIFDUS_clean_linker_0, # of connection points: 2
#     Edge 21, Type (0, 0), BuildingBlock: CIFDUS_clean_linker_0, # of connection points: 2
#     Edge 22, Type (0, 0), BuildingBlock: CIFDUS_clean_linker_0, # of connection points: 2
#     Edge 23, Type (0, 0), BuildingBlock: CIFDUS_clean_linker_0, # of connection points: 2
#     Edge 24, Type (0, 0), BuildingBlock: CIFDUS_clean_linker_0, # of connection points: 2
#     Edge 25, Type (0, 0), BuildingBlock: CIFDUS_clean_linker_0, # of connection points: 2
#     Edge 26, Type (0, 0), BuildingBlock: CIFDUS_clean_linker_0, # of connection points: 2
#     Edge 27, Type (0, 0), BuildingBlock: CIFDUS_clean_linker_0, # of connection points: 2
#     Edge 28, Type (0, 0), BuildingBlock: CIFDUS_clean_linker_0, # of connection points: 2
#     Edge 29, Type (0, 0), BuildingBlock: CIFDUS_clean_linker_0, # of connection points: 2
#     Edge 30, Type (0, 0), BuildingBlock: CIFDUS_clean_linker_0, # of connection points: 2
#     Edge 31, Type (0, 0), BuildingBlock: CIFDUS_clean_linker_0, # of connection points: 2
# Relax obj value: 0.243
# Max RMSD: 0.270
# Mean RMSD: 0.270
data_MOF--net-vmh--node1-OJICUG_clean_sbu_0--edge1-CIFDUS_clean_linker_0
_symmetry_space_group_name_H-M    P1
_symmetry_Int_Tables_number       1
_symmetry_cell_setting            triclinic
loop_
_symmetry_equiv_pos_as_xyz
'x, y, z'
_cell_length_a     25.462977
_cell_length_b     38.092018
_cell_length_c     27.104088
_cell_angle_alpha  90.464669
_cell_angle_beta   102.82623
_cell_angle_gamma 89.866558
loop_
_atom_site_label
_atom_site_type_symbol
_atom_site_fract_x
_atom_site_fract_y
_atom_site_fract_z
_atom_type_partial_charge
Sc0 Sc 0.22521 0.09605 0.12727 0.0
Sc1 Sc 0.2468 0.01875 0.06818 0.0
Sc2 Sc 0.30108 0.09682 0.03783 0.0
O3 O 0.25723 0.07044 0.07695 0.0
C4 C 0.22298 0.15507 0.0435 0.0
C5 C 0.1316 0.04742 0.07273 0.0
C6 C 0.23556 0.04202 0.95695 0.0
C7 C 0.25538 0.023 0.18131 0.0
C8 C 0.34509 0.12175 0.14917 0.0
C9 C 0.36675 0.02871 0.0547 0.0
O10 O 0.2205 0.14626 0.08815 0.0
O11 O 0.16591 0.02254 0.07952 0.0
O12 O 0.27021 0.06635 0.97029 0.0
O13 O 0.22687 0.05071 0.17441 0.0
O14 O 0.3368 0.12923 0.10235 0.0
O15 O 0.32543 0.00981 0.0536 0.0
O16 O 0.30786 0.10833 0.16808 0.0
O17 O 0.27761 0.01039 0.14754 0.0
O18 O 0.36657 0.06173 0.06038 0.0
O19 O 0.14538 0.07951 0.08395 0.0
O20 O 0.23784 0.13355 0.01352 0.0
O21 O 0.21586 0.02465 0.98845 0.0
Sc22 Sc 0.75417 0.0901 0.36687 0.0
Sc23 Sc 0.73043 0.01567 0.43038 0.0
Sc24 Sc 0.67799 0.09648 0.45636 0.0
O25 O 0.72142 0.06727 0.41868 0.0
C26 C 0.75933 0.15239 0.44798 0.0
C27 C 0.8475 0.04159 0.42338 0.0
C28 C 0.74071 0.04416 0.54064 0.0
C29 C 0.72469 0.0149 0.31676 0.0
C30 C 0.6349 0.1178 0.3438 0.0
C31 C 0.60966 0.02868 0.44069 0.0
O32 O 0.76167 0.14138 0.40403 0.0
O33 O 0.81269 0.01748 0.42253 0.0
O34 O 0.70767 0.06904 0.52599 0.0
O35 O 0.75105 0.04343 0.32154 0.0
O36 O 0.64318 0.12675 0.39021 0.0
O37 O 0.65018 0.0089 0.44181 0.0
O38 O 0.67176 0.10291 0.32559 0.0
O39 O 0.70265 0.00348 0.35112 0.0
O40 O 0.61148 0.06174 0.43657 0.0
O41 O 0.8341 0.07325 0.40956 0.0
O42 O 0.74165 0.13329 0.47866 0.0
O43 O 0.75879 0.02433 0.5102 0.0
Sc44 Sc 0.76022 0.91184 0.86977 0.0
Sc45 Sc 0.73015 0.98711 0.93034 0.0
Sc46 Sc 0.66894 0.90769 0.94699 0.0
O47 O 0.72007 0.93549 0.91628 0.0
C48 C 0.64029 0.8843 0.83182 0.0
C49 C 0.73575 0.98701 0.81871 0.0
C50 C 0.60566 0.9776 0.92796 0.0
C51 C 0.84957 0.96041 0.93385 0.0
C52 C 0.75317 0.84981 0.94737 0.0
C53 C 0.72819 0.9576 0.03752 0.0
O54 O 0.68249 0.89735 0.82056 0.0
O55 O 0.71149 0.99941 0.85119 0.0
O56 O 0.60623 0.94457 0.92313 0.0
O57 O 0.83699 0.92886 0.91866 0.0
O58 O 0.72684 0.86784 0.97299 0.0
O59 O 0.74966 0.97752 0.01007 0.0
O60 O 0.76474 0.86132 0.90712 0.0
O61 O 0.81448 0.98456 0.93096 0.0
O62 O 0.69463 0.9335 0.01955 0.0
O63 O 0.7609 0.95796 0.82479 0.0
O64 O 0.63674 0.8797 0.87743 0.0
O65 O 0.64784 0.99626 0.93385 0.0
Sc66 Sc 0.22233 0.90719 0.61899 0.0
Sc67 Sc 0.24745 0.98652 0.56826 0.0
Sc68 Sc 0.31576 0.91223 0.5452 0.0
O69 O 0.26118 0.93512 0.57681 0.0
C70 C 0.34283 0.88196 0.65528 0.0
C71 C 0.24413 0.98003 0.67923 0.0
C72 C 0.37247 0.98175 0.57141 0.0
C73 C 0.13094 0.95575 0.55974 0.0
C74 C 0.23492 0.85215 0.53163 0.0
C75 C 0.25376 0.96451 0.46028 0.0
O76 O 0.3003 0.89349 0.66785 0.0
O77 O 0.26818 0.99431 0.64821 0.0
O78 O 0.37426 0.9493 0.58094 0.0
O79 O 0.14542 0.92379 0.56994 0.0
O80 O 0.25935 0.87382 0.5095 0.0
O81 O 0.22612 0.9794 0.4882 0.0
O82 O 0.22364 0.85896 0.57436 0.0
O83 O 0.16403 0.98107 0.57053 0.0
O84 O 0.29251 0.94356 0.47753 0.0
O85 O 0.21833 0.95121 0.66945 0.0
O86 O 0.34557 0.87872 0.60917 0.0
O87 O 0.32844 0.9987 0.56214 0.0
Sc88 Sc 0.7481 0.58841 0.11039 0.0
Sc89 Sc 0.7753 0.51355 0.04687 0.0
Sc90 Sc 0.83965 0.59186 0.03336 0.0
O91 O 0.78704 0.56481 0.06295 0.0
C92 C 0.75539 0.65009 0.0319 0.0
C93 C 0.65675 0.54027 0.04939 0.0
C94 C 0.77751 0.54395 0.94135 0.0
C95 C 0.77351 0.51244 0.15954 0.0
C96 C 0.86755 0.61651 0.14789 0.0
C97 C 0.89998 0.52195 0.04853 0.0
O98 O 0.74309 0.63863 0.07194 0.0
O99 O 0.69147 0.51615 0.04969 0.0
O100 O 0.81434 0.56585 0.96052 0.0
O101 O 0.74917 0.54185 0.15494 0.0
O102 O 0.87167 0.62031 0.10235 0.0
O103 O 0.85667 0.50423 0.03827 0.0
O104 O 0.82559 0.60326 0.1591 0.0
O105 O 0.79642 0.50004 0.12591 0.0
O106 O 0.90084 0.5542 0.05981 0.0
O107 O 0.67031 0.57178 0.06373 0.0
O108 O 0.78269 0.63219 0.00688 0.0
O109 O 0.75302 0.52535 0.96795 0.0
Sc110 Sc 0.278 0.59993 0.37362 0.0
Sc111 Sc 0.2439 0.51842 0.41309 0.0
Sc112 Sc 0.17294 0.59251 0.43302 0.0
O113 O 0.2333 0.57025 0.40835 0.0
C114 C 0.25491 0.65009 0.46338 0.0
C115 C 0.36415 0.54918 0.4363 0.0
C116 C 0.21606 0.53492 0.51701 0.0
C117 C 0.26446 0.53086 0.30544 0.0
C118 C 0.16123 0.62701 0.3292 0.0
C119 C 0.11617 0.52596 0.38993 0.0
O120 O 0.27089 0.64529 0.42224 0.0
O121 O 0.33022 0.52411 0.42657 0.0
O122 O 0.18057 0.55684 0.49571 0.0
O123 O 0.28893 0.55935 0.32074 0.0
O124 O 0.1575 0.63146 0.37463 0.0
O125 O 0.15881 0.5077 0.40339 0.0
O126 O 0.20431 0.61463 0.3191 0.0
O127 O 0.2376 0.51401 0.33203 0.0
O128 O 0.11803 0.55881 0.38393 0.0
O129 O 0.35102 0.58132 0.42577 0.0
O130 O 0.22756 0.62729 0.48057 0.0
O131 O 0.24992 0.52112 0.4942 0.0
Sc132 Sc 0.28114 0.40432 0.86757 0.0
Sc133 Sc 0.24635 0.48365 0.91463 0.0
Sc134 Sc 0.17794 0.40766 0.93038 0.0
O135 O 0.23694 0.43178 0.90626 0.0
C136 C 0.16376 0.37754 0.82248 0.0
C137 C 0.26424 0.47503 0.80545 0.0
C138 C 0.11905 0.47505 0.89645 0.0
C139 C 0.36741 0.45413 0.93201 0.0
C140 C 0.26085 0.34955 0.95197 0.0
C141 C 0.22335 0.46344 0.01884 0.0
O142 O 0.20666 0.39057 0.8131 0.0
O143 O 0.23661 0.49023 0.83333 0.0
O144 O 0.12097 0.44267 0.88668 0.0
O145 O 0.35461 0.42209 0.91987 0.0
O146 O 0.2331 0.37078 0.97211 0.0
O147 O 0.25525 0.47886 -0.0043 0.0
O148 O 0.27676 0.35712 0.91178 0.0
O149 O 0.33285 0.47897 0.92473 0.0
O150 O 0.18898 0.4407 -0.00273 0.0
O151 O 0.29041 0.44695 0.81865 0.0
O152 O 0.16019 0.37158 0.86753 0.0
O153 O 0.16158 0.49342 0.90989 0.0
Sc154 Sc 0.74733 0.41589 0.60952 0.0
Sc155 Sc 0.76817 0.49071 0.54452 0.0
Sc156 Sc 0.83509 0.4135 0.5282 0.0
O157 O 0.78306 0.43969 0.56022 0.0
C158 C 0.8691 0.38998 0.64316 0.0
C159 C 0.77483 0.49227 0.65859 0.0
C160 C 0.88966 0.48499 0.53465 0.0
C161 C 0.65283 0.46311 0.55318 0.0
C162 C 0.75426 0.35311 0.53123 0.0
C163 C 0.76493 0.45894 0.43785 0.0
O164 O 0.82636 0.40131 0.65556 0.0
O165 O 0.79477 0.50476 0.62332 0.0
O166 O 0.89413 0.45343 0.54888 0.0
O167 O 0.66759 0.43161 0.5657 0.0
O168 O 0.78142 0.37059 0.50606 0.0
O169 O 0.74141 0.47777 0.46562 0.0
O170 O 0.74136 0.36532 0.57085 0.0
O171 O 0.68673 0.48755 0.55353 0.0
O172 O 0.8026 0.43738 0.4558 0.0
O173 O 0.75034 0.4629 0.65477 0.0
O174 O 0.8735 0.38815 0.59739 0.0
O175 O 0.8458 0.50175 0.52948 0.0
H176 H 0.28013 0.0665 0.88206 0.0
H177 H 0.16361 0.99175 0.91163 0.0
H178 H 0.15435 0.967 0.82682 0.0
H179 H 0.185 0.96347 0.74758 0.0
H180 H 0.30354 0.03722 0.71944 0.0
H181 H 0.30638 0.06543 0.80102 0.0
C182 C 0.2521 0.0451 0.8699 0.0
C183 C 0.22309 0.03075 0.90342 0.0
C184 C 0.24789 0.0305 0.82172 0.0
C185 C 0.18676 0.00315 0.88675 0.0
C186 C 0.18161 0.98886 0.83836 0.0
C187 C 0.21144 0.98575 0.75917 0.0
C188 C 0.2445 0.99793 0.72772 0.0
C189 C 0.21306 0.00175 0.80612 0.0
C190 C 0.27792 0.02715 0.74306 0.0
C191 C 0.27955 0.04333 0.78966 0.0
H192 H 0.80186 0.97638 0.75501 0.0
H193 H 0.66916 0.04094 0.77706 0.0
H194 H 0.66361 0.06773 0.69424 0.0
H195 H 0.69044 0.06794 0.61281 0.0
H196 H 0.8205 1.00095 0.59029 0.0
H197 H 0.83336 0.98006 0.67693 0.0
C198 C 0.77175 0.99642 0.74192 0.0
C199 C 0.73526 0.00621 0.77164 0.0
C200 C 0.76829 0.01112 0.69433 0.0
C201 C 0.69741 0.03277 0.75464 0.0
C202 C 0.69416 0.04799 0.70732 0.0
C203 C 0.72222 0.0492 0.62703 0.0
C204 C 0.75405 0.03567 0.59494 0.0
C205 C 0.72854 0.03668 0.6764 0.0
C206 C 0.79507 0.01146 0.61403 0.0
C207 C 0.80239 0.99947 0.6635 0.0
H208 H 0.79631 0.01665 0.25804 0.0
H209 H 0.64654 0.96835 0.26982 0.0
H210 H 0.63739 0.94255 0.18499 0.0
H211 H 0.66747 0.93979 0.10444 0.0
H212 H 0.81552 0.99123 0.09353 0.0
H213 H 0.82993 0.00982 0.18166 0.0
C214 C 0.7617 1.00031 0.24223 0.0
C215 C 0.72156 0.99492 0.26949 0.0
C216 C 0.75635 0.9864 0.19365 0.0
C217 C 0.67775 0.97298 0.24923 0.0
C218 C 0.67244 0.95844 0.20075 0.0
C219 C 0.70332 0.95456 0.12164 0.0
C220 C 0.74007 0.96452 0.0924 0.0
C221 C 0.7108 0.96584 0.17211 0.0
C222 C 0.7863 0.98367 0.11508 0.0
C223 C 0.7946 0.99428 0.16543 0.0
H224 H 0.18707 0.02829 0.24334 0.0
H225 H 0.33354 0.97671 0.22729 0.0
H226 H 0.34384 0.95152 0.3119 0.0
H227 H 0.31448 0.94837 0.39229 0.0
H228 H 0.16851 1.00162 0.40712 0.0
H229 H 0.15477 0.02202 0.32041 0.0
C230 C 0.22129 0.01148 0.25823 0.0
C231 C 0.26001 0.00477 0.22967 0.0
C232 C 0.22708 0.99757 0.30652 0.0
C233 C 0.30338 0.98232 0.24885 0.0
C234 C 0.30933 0.96807 0.29716 0.0
C235 C 0.27934 0.96412 0.37641 0.0
C236 C 0.24293 0.97382 0.40635 0.0
C237 C 0.27192 0.97612 0.32665 0.0
C238 C 0.19751 0.99412 0.38513 0.0
C239 C 0.18955 0.00579 0.33556 0.0
H240 H 0.70367 0.49088 0.71773 0.0
H241 H 0.85514 0.5369 0.70656 0.0
H242 H 0.86702 0.56041 0.79301 0.0
H243 H 0.83857 0.56163 0.87443 0.0
H244 H 0.68816 0.51289 0.88434 0.0
H245 H 0.67162 0.49659 0.79525 0.0
C246 C 0.73913 0.50635 0.73403 0.0
C247 C 0.77896 0.51172 0.70642 0.0
C248 C 0.74601 0.51894 0.78351 0.0
C249 C 0.82406 0.53241 0.72735 0.0
C250 C 0.83096 0.54558 0.77677 0.0
C251 C 0.80179 0.54793 0.85688 0.0
C252 C 0.76497 0.53807 0.88613 0.0
C253 C 0.79287 0.53809 0.80567 0.0
C254 C 0.7175 0.52034 0.86287 0.0
C255 C 0.70793 0.51105 0.81192 0.0
H256 H 0.29811 0.50505 0.58629 0.0
H257 H 0.13656 0.54558 0.56835 0.0
H258 H 0.13855 0.53374 0.65691 0.0
H259 H 0.18519 0.51027 0.73963 0.0
H260 H 0.34609 0.46901 0.7569 0.0
H261 H 0.34554 0.48321 0.66928 0.0
C262 C 0.26327 0.51112 0.60168 0.0
C263 C 0.21732 0.52608 0.57051 0.0
C264 C 0.26467 0.50446 0.65295 0.0
C265 C 0.17267 0.53411 0.59137 0.0
C266 C 0.1737 0.52741 0.64216 0.0
C267 C 0.2204 0.50502 0.72439 0.0
C268 C 0.26556 0.48869 0.75476 0.0
C269 C 0.21948 0.5126 0.67341 0.0
C270 C 0.31068 0.48152 0.73424 0.0
C271 C 0.31038 0.48948 0.68403 0.0
H272 H 0.19363 0.48766 0.24247 0.0
H273 H 0.34016 0.54663 0.25229 0.0
H274 H 0.34083 0.53105 0.16508 0.0
H275 H 0.29847 0.50228 0.08474 0.0
H276 H 0.15071 0.44438 0.07424 0.0
H277 H 0.15195 0.45806 0.16232 0.0
C278 C 0.22604 0.49671 0.22571 0.0
C279 C 0.26672 0.51826 0.254 0.0
C280 C 0.22582 0.48812 0.17503 0.0
C281 C 0.30813 0.53011 0.2314 0.0
C282 C 0.30857 0.52126 0.18141 0.0
C283 C 0.26654 0.49264 0.10167 0.0
C284 C 0.22476 0.47224 0.07265 0.0
C285 C 0.2673 0.50064 0.15261 0.0
C286 C 0.18374 0.45996 0.09551 0.0
C287 C 0.18428 0.46778 0.14605 0.0
H288 H 0.70127 0.51764 0.21785 0.0
H289 H 0.84699 0.46337 0.206 0.0
H290 H 0.8533 0.43816 0.29012 0.0
H291 H 0.8229 0.43757 0.37004 0.0
H292 H 0.67919 0.49459 0.38197 0.0
H293 H 0.66641 0.51263 0.29403 0.0
C294 C 0.73432 0.5001 0.23347 0.0
C295 C 0.77426 0.49288 0.20635 0.0
C296 C 0.7381 0.48642 0.28175 0.0
C297 C 0.81599 0.46944 0.22641 0.0
C298 C 0.81969 0.45521 0.2745 0.0
C299 C 0.78821 0.45343 0.35323 0.0
C300 C 0.75239 0.46511 0.38278 0.0
C301 C 0.78178 0.46438 0.30301 0.0
C302 C 0.70767 0.48559 0.36029 0.0
C303 C 0.70037 0.49595 0.31005 0.0
H304 H 0.4441 0.0638 0.02184 0.0
H305 H 0.38877 0.95916 0.0446 0.0
H306 H 0.45305 0.93452 -0.00094 0.0
H307 H 0.52368 0.94288 0.95338 0.0
H308 H 0.58095 0.0473 0.93255 0.0
H309 H 0.51382 0.07222 0.97469 0.0
C310 C 0.44654 0.03553 0.01767 0.0
C311 C 0.41198 0.01327 0.03685 0.0
C312 C 0.48221 0.02172 -0.00961 0.0
C313 C 0.4153 0.97678 0.0305 0.0
C314 C 0.45144 0.96275 0.00395 0.0
C315 C 0.521 0.97117 0.95704 0.0
C316 C 0.55741 0.99327 0.94013 0.0
C317 C 0.48446 0.98506 0.98327 0.0
C318 C 0.55329 0.0298 0.94531 0.0
C319 C 0.51555 0.04398 0.96997 0.0
H320 H 0.45126 0.946 0.54164 0.0
H321 H 0.39482 0.05113 0.56159 0.0
H322 H 0.46022 0.07474 0.51672 0.0
H323 H 0.53053 0.065 0.47024 0.0
H324 H 0.58537 0.95952 0.44923 0.0
H325 H 0.52036 0.93621 0.49433 0.0
C326 C 0.45382 0.97419 0.53718 0.0
C327 C 0.41864 0.99691 0.55523 0.0
C328 C 0.48949 0.98727 0.50968 0.0
C329 C 0.42193 0.03324 0.54835 0.0
C330 C 0.45867 0.04664 0.52217 0.0
C331 C 0.52779 0.03682 0.47464 0.0
C332 C 0.56285 0.01399 0.45653 0.0
C333 C 0.49178 0.02376 0.50187 0.0
C334 C 0.55874 0.97761 0.46276 0.0
C335 C 0.52216 0.96432 0.48907 0.0
H336 H 0.89983 0.48675 0.96263 0.0
H337 H 0.00476 0.5313 0.09532 0.0
H338 H 0.08189 0.5246 0.05592 0.0
H339 H 0.11777 0.50893 0.98261 0.0
H340 H 0.01409 0.46311 0.85021 0.0
H341 H 0.93664 0.46931 0.88967 0.0
C342 C 0.93993 0.4939 0.98345 0.0
C343 C 0.94724 0.5088 0.03204 0.0
C344 C 0.98328 0.49145 0.95972 0.0
C345 C 0.99883 0.51914 0.05821 0.0
C346 C 0.04251 0.51593 0.03538 0.0
C347 C 0.07792 0.50124 0.9618 0.0
C348 C 0.07095 0.48661 0.91308 0.0
C349 C 0.03478 0.50306 0.98568 0.0
C350 C 0.0197 0.47537 0.88724 0.0
C351 C 0.97588 0.47828 0.91014 0.0
H352 H 0.03379 0.56316 0.41176 0.0
H353 H 0.08875 0.45709 0.39592 0.0
H354 H 0.02409 0.43522 0.44276 0.0
H355 H 0.96021 0.44713 0.4956 0.0
H356 H 0.90802 0.55342 0.51455 0.0
H357 H 0.96634 0.57473 0.4607 0.0
C358 C 0.03087 0.53512 0.41733 0.0
C359 C 0.06651 0.51175 0.40099 0.0
C360 C 0.99621 0.52308 0.44672 0.0
C361 C 0.06183 0.47555 0.40834 0.0
C362 C 0.02561 0.46315 0.43581 0.0
C363 C 0.96224 0.47507 0.48881 0.0
C364 C 0.93086 0.49884 0.50991 0.0
C365 C 0.99449 0.48689 0.45699 0.0
C366 C 0.93268 0.53478 0.49942 0.0
C367 C 0.96532 0.54686 0.46815 0.0
H368 H 0.09516 0.98236 0.03971 0.0
H369 H 0.04006 0.08887 0.05159 0.0
H370 H 0.94877 0.07095 0.00866 0.0
H371 H 0.88574 0.02552 0.96745 0.0
H372 H 0.94115 0.91913 0.95516 0.0
H373 H 0.03227 0.93702 -0.00155 0.0
C374 C 0.06337 0.00189 0.0334 0.0
C375 C 0.07485 0.03714 0.04942 0.0
C376 C 0.01135 0.99147 0.00823 0.0
C377 C 0.03269 0.06169 0.04016 0.0
C378 C 0.98052 0.05142 0.0154 0.0
C379 C 0.91753 0.006 0.97393 0.0
C380 C 0.90616 0.97077 0.95771 0.0
C381 C 0.96956 0.01644 -0.00089 0.0
C382 C 0.9484 0.94627 0.96681 0.0
C383 C 0.00048 0.95653 -0.00822 0.0
H384 H 0.88582 0.97593 0.45008 0.0
H385 H 0.93863 0.08331 0.44484 0.0
H386 H 0.0303 0.06566 0.48654 0.0
H387 H 0.09395 0.02049 0.52668 0.0
H388 H 0.04096 0.91323 0.5329 0.0
H389 H 0.94989 0.93051 0.48872 0.0
C390 C 0.91718 0.99571 0.45767 0.0
C391 C 0.90481 0.03118 0.44416 0.0
C392 C 0.96948 0.98544 0.4823 0.0
C393 C 0.9466 0.05598 0.45443 0.0
C394 C 0.999 0.04586 0.47857 0.0
C395 C 0.06267 1.00066 0.51875 0.0
C396 C 0.07464 0.96541 0.53382 0.0
C397 C 0.01065 0.01077 0.49318 0.0
C398 C 0.0332 0.94042 0.5223 0.0
C399 C 0.98114 0.95034 0.49687 0.0
H400 H 0.40578 0.51901 0.96546 0.0
H401 H 0.45786 0.41214 0.95062 0.0
H402 H 0.55096 0.42961 0.98674 0.0
H403 H 0.61725 0.47502 0.02076 0.0
H404 H 0.56582 0.58207 0.03516 0.0
H405 H 0.47223 0.56441 0.00095 0.0
C406 C 0.4373 0.49934 0.97001 0.0
C407 C 0.42439 0.46413 0.95493 0.0
C408 C 0.49078 0.5096 -0.00926 0.0
C409 C 0.46622 0.43931 0.96164 0.0
C410 C 0.51955 0.44933 0.98231 0.0
C411 C 0.5858 0.49472 0.01665 0.0
C412 C 0.59906 0.53006 0.03061 0.0
C413 C 0.53225 0.4844 -0.00326 0.0
C414 C 0.55719 0.55481 0.02492 0.0
C415 C 0.50362 0.54468 0.00522 0.0
H416 H 0.61236 0.52875 0.53185 0.0
H417 H 0.56247 0.42056 0.53452 0.0
H418 H 0.46891 0.4382 0.49973 0.0
H419 H 0.40259 0.48386 0.46582 0.0
H420 H 0.45362 0.59176 0.46189 0.0
H421 H 0.54621 0.57434 0.5 0.0
C422 C 0.58127 0.50877 0.52512 0.0
C423 C 0.59492 0.47312 0.53578 0.0
C424 C 0.52793 0.51905 0.5046 0.0
C425 C 0.55348 0.44804 0.52688 0.0
C426 C 0.49999 0.45817 0.50677 0.0
C427 C 0.43376 0.50378 0.47321 0.0
C428 C 0.42076 0.53927 0.46052 0.0
C429 C 0.48693 0.49353 0.49499 0.0
C430 C 0.4621 0.56439 0.47092 0.0
C431 C 0.5151 0.55439 0.49277 0.0
H432 H 0.38253 0.12117 0.25306 0.0
H433 H 0.43619 0.12936 0.11331 0.0
H434 H 0.52957 0.12888 0.1595 0.0
H435 H 0.59785 0.12363 0.23995 0.0
H436 H 0.54383 0.11921 0.37984 0.0
H437 H 0.45051 0.12076 0.33369 0.0
C438 C 0.41458 0.12328 0.23276 0.0
C439 C 0.40163 0.12538 0.17962 0.0
C440 C 0.46899 0.12348 0.25972 0.0
C441 C 0.44426 0.12805 0.15421 0.0
C442 C 0.49813 0.12756 0.1806 0.0
C443 C 0.56567 0.12331 0.26027 0.0
C444 C 0.57844 0.1214 0.31343 0.0
C445 C 0.51122 0.12491 0.23341 0.0
C446 C 0.53577 0.12107 0.33898 0.0
C447 C 0.48198 0.12178 0.31259 0.0
H448 H 0.53845 0.87401 0.84519 0.0
H449 H 0.62843 0.88165 0.72809 0.0
H450 H 0.54425 0.87808 0.66355 0.0
H451 H 0.44521 0.87734 0.64076 0.0
H452 H 0.35528 0.87438 0.75828 0.0
H453 H 0.43975 0.87133 0.82237 0.0
C454 C 0.5401 0.87431 0.80556 0.0
C455 C 0.59032 0.87787 0.79176 0.0
C456 C 0.49141 0.8733 0.76874 0.0
C457 C 0.59082 0.87877 0.74004 0.0
C458 C 0.54255 0.87685 0.7031 0.0
C459 C 0.44377 0.8754 0.68033 0.0
C460 C 0.39343 0.87581 0.69445 0.0
C461 C 0.49258 0.87473 0.71705 0.0
C462 C 0.39302 0.87394 0.74611 0.0
C463 C 0.44144 0.87231 0.7828 0.0
H464 H 0.96971 0.62678 0.13585 0.0
H465 H 0.87667 0.62246 0.2509 0.0
H466 H 0.95946 0.62893 0.31657 0.0
H467 H 0.05819 0.63146 0.34118 0.0
H468 H 0.15149 0.63091 0.22618 0.0
H469 H 0.06816 0.63102 0.16037 0.0
C470 C 0.96711 0.62783 0.17523 0.0
C471 C 0.91652 0.62436 0.18822 0.0
C472 C 0.015 0.63053 0.21274 0.0
C473 C 0.91467 0.6252 0.23964 0.0
C474 C 0.96211 0.62881 0.27721 0.0
C475 C 0.06056 0.63202 0.30174 0.0
C476 C 0.11142 0.63151 0.28876 0.0
C477 C 0.01252 0.63093 0.26419 0.0
C478 C 0.11321 0.63152 0.23735 0.0
C479 C 0.06549 0.63145 0.19972 0.0
H480 H 0.97135 0.38122 0.62997 0.0
H481 H 0.87906 0.38196 0.74585 0.0
H482 H 0.96222 0.37472 0.81066 0.0
H483 H 0.06094 0.37225 0.83459 0.0
H484 H 0.15348 0.37624 0.71916 0.0
H485 H 0.06986 0.37721 0.65372 0.0
C486 C 0.96899 0.37928 0.66931 0.0
C487 C 0.91848 0.38197 0.68278 0.0
C488 C 0.01707 0.37606 0.70641 0.0
C489 C 0.91698 0.37988 0.73418 0.0
C490 C 0.96462 0.37581 0.77128 0.0
C491 C 0.0631 0.37268 0.79509 0.0
C492 C 0.11383 0.3738 0.78191 0.0
C493 C 0.0149 0.37439 0.75785 0.0
C494 C 0.11531 0.37511 0.73047 0.0
C495 C 0.06743 0.37581 0.69308 0.0
H496 H 0.27434 0.18598 0.97846 0.0
H497 H 0.17158 0.2088 0.08166 0.0
H498 H 0.17816 0.27174 0.06571 0.0
H499 H 0.21261 0.31977 0.02175 0.0
H500 H 0.31747 0.29607 0.92045 0.0
H501 H 0.31171 0.2337 0.93775 0.0
C502 C 0.25263 0.20462 -0.00302 0.0
C503 C 0.22158 0.19271 0.03046 0.0
C504 C 0.25794 0.24054 0.98882 0.0
C505 C 0.19509 0.21732 0.05521 0.0
C506 C 0.19922 0.25326 0.04639 0.0
C507 C 0.23494 0.30109 0.00398 0.0
C508 C 0.26532 0.31273 0.96962 0.0
C509 C 0.23078 0.26514 0.01345 0.0
C510 C 0.29378 0.28797 0.94699 0.0
C511 C 0.29017 0.25224 0.95653 0.0
H512 H 0.72105 0.18934 0.51835 0.0
H513 H 0.81221 0.20067 0.4027 0.0
H514 H 0.81472 0.26429 0.41574 0.0
H515 H 0.79056 0.3162 0.4593 0.0
H516 H 0.69884 0.30494 0.57466 0.0
H517 H 0.69574 0.24144 0.56112 0.0
C518 C 0.74221 0.20561 0.49643 0.0
C519 C 0.76698 0.19021 0.45995 0.0
C520 C 0.74236 0.24211 0.50326 0.0
C521 C 0.79322 0.21183 0.43127 0.0
C522 C 0.79431 0.24819 0.43845 0.0
C523 C 0.76925 0.30004 0.4812 0.0
C524 C 0.74491 0.31548 0.518 0.0
C525 C 0.76858 0.26358 0.474 0.0
C526 C 0.71776 0.29388 0.54599 0.0
C527 C 0.71637 0.25753 0.53857 0.0
H528 H 0.71004 0.81233 0.01323 0.0
H529 H 0.81658 0.80294 0.90996 0.0
H530 H 0.82327 0.7397 0.92453 0.0
H531 H 0.79802 0.68747 0.96552 0.0
H532 H 0.69144 0.69688 0.06877 0.0
H533 H 0.68457 0.76008 0.054 0.0
C534 C 0.73536 0.79663 -0.0057 0.0
C535 C 0.76308 0.81246 0.96074 0.0
C536 C 0.7381 0.76031 0.00201 0.0
C537 C 0.79506 0.7915 0.93616 0.0
C538 C 0.79858 0.75532 0.94419 0.0
C539 C 0.77265 0.70316 0.9844 0.0
C540 C 0.74505 0.68735 0.01808 0.0
C541 C 0.76979 0.73946 0.97659 0.0
C542 C 0.71292 0.7083 0.04251 0.0
C543 C 0.70929 0.74446 0.03438 0.0
H544 H 0.24726 0.7113 0.41315 0.0
H545 H 0.26249 0.66834 0.56234 0.0
H546 H 0.25204 0.72712 0.59635 0.0
H547 H 0.23879 0.79087 0.58327 0.0
H548 H 0.22126 0.83282 0.43306 0.0
H549 H 0.23071 0.7741 0.39954 0.0
C550 C 0.24936 0.71491 0.45329 0.0
C551 C 0.25681 0.68573 0.48543 0.0
C552 C 0.24143 0.74844 0.4721 0.0
C553 C 0.25764 0.69059 0.53706 0.0
C554 C 0.25112 0.72408 0.55637 0.0
C555 C 0.23575 0.787 0.54304 0.0
C556 C 0.22903 0.81611 0.51064 0.0
C557 C 0.24245 0.75318 0.52413 0.0
C558 C 0.2262 0.81079 0.45872 0.0
C559 C 0.23213 0.77729 0.43959 0.0
loop_
_geom_bond_atom_site_label_1
_geom_bond_atom_site_label_2
_geom_bond_distance
_geom_bond_site_symmetry_2
_ccdc_geom_bond_type
Sc0 O3 2.025 . S
Sc0 O10 2.105 . S
Sc0 O13 2.105 . S
Sc0 O16 2.105 . S
Sc0 O19 2.105 . S
Sc1 O3 2.025 . S
Sc1 O11 2.105 . S
Sc1 O15 2.105 . S
Sc1 O17 2.107 . S
Sc1 O21 2.105 1_554 S
Sc2 O3 2.025 . S
Sc2 O12 2.105 1_554 S
Sc2 O14 2.105 . S
Sc2 O18 2.105 . S
Sc2 O20 2.105 . S
O3 Sc0 2.025 . S
O3 Sc1 2.025 . S
O3 Sc2 2.025 . S
C4 O10 1.268 . S
C4 O20 1.268 . S
C5 O11 1.268 . S
C5 O19 1.268 . S
C6 O12 1.268 . S
C6 O21 1.268 . S
C7 O13 1.268 . S
C7 O17 1.272 . S
C8 O14 1.268 . S
C8 O16 1.268 . S
C9 O15 1.268 . S
C9 O18 1.268 . S
O10 Sc0 2.105 . S
O10 C4 1.268 . S
O11 Sc1 2.105 . S
O11 C5 1.268 . S
O12 Sc2 2.105 1_556 S
O12 C6 1.268 . S
O13 Sc0 2.105 . S
O13 C7 1.268 . S
O14 Sc2 2.105 . S
O14 C8 1.268 . S
O15 Sc1 2.105 . S
O15 C9 1.268 . S
O16 Sc0 2.105 . S
O16 C8 1.268 . S
O17 Sc1 2.107 . S
O17 C7 1.272 . S
O18 Sc2 2.105 . S
O18 C9 1.268 . S
O19 Sc0 2.105 . S
O19 C5 1.268 . S
O20 Sc2 2.105 . S
O20 C4 1.268 . S
O21 Sc1 2.105 1_556 S
O21 C6 1.268 . S
Sc22 O25 2.025 . S
Sc22 O32 2.105 . S
Sc22 O35 2.105 . S
Sc22 O38 2.105 . S
Sc22 O41 2.105 . S
Sc23 O25 2.025 . S
Sc23 O33 2.105 . S
Sc23 O37 2.105 . S
Sc23 O39 2.107 . S
Sc23 O43 2.105 . S
Sc24 O25 2.025 . S
Sc24 O34 2.105 . S
Sc24 O36 2.105 . S
Sc24 O40 2.105 . S
Sc24 O42 2.105 . S
O25 Sc22 2.025 . S
O25 Sc23 2.025 . S
O25 Sc24 2.025 . S
C26 O32 1.268 . S
C26 O42 1.268 . S
C27 O33 1.268 . S
C27 O41 1.268 . S
C28 O34 1.268 . S
C28 O43 1.268 . S
C29 O35 1.268 . S
C29 O39 1.272 . S
C30 O36 1.268 . S
C30 O38 1.268 . S
C31 O37 1.268 . S
C31 O40 1.268 . S
O32 Sc22 2.105 . S
O32 C26 1.268 . S
O33 Sc23 2.105 . S
O33 C27 1.268 . S
O34 Sc24 2.105 . S
O34 C28 1.268 . S
O35 Sc22 2.105 . S
O35 C29 1.268 . S
O36 Sc24 2.105 . S
O36 C30 1.268 . S
O37 Sc23 2.105 . S
O37 C31 1.268 . S
O38 Sc22 2.105 . S
O38 C30 1.268 . S
O39 Sc23 2.107 . S
O39 C29 1.272 . S
O40 Sc24 2.105 . S
O40 C31 1.268 . S
O41 Sc22 2.105 . S
O41 C27 1.268 . S
O42 Sc24 2.105 . S
O42 C26 1.268 . S
O43 Sc23 2.105 . S
O43 C28 1.268 . S
Sc44 O47 2.025 . S
Sc44 O54 2.105 . S
Sc44 O57 2.105 . S
Sc44 O60 2.105 . S
Sc44 O63 2.105 . S
Sc45 O47 2.025 . S
Sc45 O55 2.107 . S
Sc45 O59 2.105 1_556 S
Sc45 O61 2.105 . S
Sc45 O65 2.105 . S
Sc46 O47 2.025 . S
Sc46 O56 2.105 . S
Sc46 O58 2.105 . S
Sc46 O62 2.105 1_556 S
Sc46 O64 2.105 . S
O47 Sc44 2.025 . S
O47 Sc45 2.025 . S
O47 Sc46 2.025 . S
C48 O54 1.268 . S
C48 O64 1.268 . S
C49 O55 1.272 . S
C49 O63 1.268 . S
C50 O56 1.268 . S
C50 O65 1.268 . S
C51 O57 1.268 . S
C51 O61 1.268 . S
C52 O58 1.268 . S
C52 O60 1.268 . S
C53 O59 1.268 . S
C53 O62 1.268 . S
O54 Sc44 2.105 . S
O54 C48 1.268 . S
O55 Sc45 2.107 . S
O55 C49 1.272 . S
O56 Sc46 2.105 . S
O56 C50 1.268 . S
O57 Sc44 2.105 . S
O57 C51 1.268 . S
O58 Sc46 2.105 . S
O58 C52 1.268 . S
O59 Sc45 2.105 1_554 S
O59 C53 1.268 . S
O60 Sc44 2.105 . S
O60 C52 1.268 . S
O61 Sc45 2.105 . S
O61 C51 1.268 . S
O62 Sc46 2.105 1_554 S
O62 C53 1.268 . S
O63 Sc44 2.105 . S
O63 C49 1.268 . S
O64 Sc46 2.105 . S
O64 C48 1.268 . S
O65 Sc45 2.105 . S
O65 C50 1.268 . S
Sc66 O69 2.025 . S
Sc66 O76 2.105 . S
Sc66 O79 2.105 . S
Sc66 O82 2.105 . S
Sc66 O85 2.105 . S
Sc67 O69 2.025 . S
Sc67 O77 2.107 . S
Sc67 O81 2.105 . S
Sc67 O83 2.105 . S
Sc67 O87 2.105 . S
Sc68 O69 2.025 . S
Sc68 O78 2.105 . S
Sc68 O80 2.105 . S
Sc68 O84 2.105 . S
Sc68 O86 2.105 . S
O69 Sc66 2.025 . S
O69 Sc67 2.025 . S
O69 Sc68 2.025 . S
C70 O76 1.268 . S
C70 O86 1.268 . S
C71 O77 1.272 . S
C71 O85 1.268 . S
C72 O78 1.268 . S
C72 O87 1.268 . S
C73 O79 1.268 . S
C73 O83 1.268 . S
C74 O80 1.268 . S
C74 O82 1.268 . S
C75 O81 1.268 . S
C75 O84 1.268 . S
O76 Sc66 2.105 . S
O76 C70 1.268 . S
O77 Sc67 2.107 . S
O77 C71 1.272 . S
O78 Sc68 2.105 . S
O78 C72 1.268 . S
O79 Sc66 2.105 . S
O79 C73 1.268 . S
O80 Sc68 2.105 . S
O80 C74 1.268 . S
O81 Sc67 2.105 . S
O81 C75 1.268 . S
O82 Sc66 2.105 . S
O82 C74 1.268 . S
O83 Sc67 2.105 . S
O83 C73 1.268 . S
O84 Sc68 2.105 . S
O84 C75 1.268 . S
O85 Sc66 2.105 . S
O85 C71 1.268 . S
O86 Sc68 2.105 . S
O86 C70 1.268 . S
O87 Sc67 2.105 . S
O87 C72 1.268 . S
Sc88 O91 2.025 . S
Sc88 O98 2.105 . S
Sc88 O101 2.105 . S
Sc88 O104 2.105 . S
Sc88 O107 2.105 . S
Sc89 O91 2.025 . S
Sc89 O99 2.105 . S
Sc89 O103 2.105 . S
Sc89 O105 2.105 . S
Sc89 O109 2.105 1_554 S
Sc90 O91 2.025 . S
Sc90 O100 2.105 1_554 S
Sc90 O102 2.105 . S
Sc90 O106 2.105 . S
Sc90 O108 2.105 . S
O91 Sc88 2.025 . S
O91 Sc89 2.025 . S
O91 Sc90 2.025 . S
C92 O98 1.268 . S
C92 O108 1.268 . S
C93 O99 1.268 . S
C93 O107 1.268 . S
C94 O100 1.268 . S
C94 O109 1.268 . S
C95 O101 1.268 . S
C95 O105 1.268 . S
C96 O102 1.268 . S
C96 O104 1.268 . S
C97 O103 1.268 . S
C97 O106 1.268 . S
O98 Sc88 2.105 . S
O98 C92 1.268 . S
O99 Sc89 2.105 . S
O99 C93 1.268 . S
O100 Sc90 2.105 1_556 S
O100 C94 1.268 . S
O101 Sc88 2.105 . S
O101 C95 1.268 . S
O102 Sc90 2.105 . S
O102 C96 1.268 . S
O103 Sc89 2.105 . S
O103 C97 1.268 . S
O104 Sc88 2.105 . S
O104 C96 1.268 . S
O105 Sc89 2.105 . S
O105 C95 1.268 . S
O106 Sc90 2.105 . S
O106 C97 1.268 . S
O107 Sc88 2.105 . S
O107 C93 1.268 . S
O108 Sc90 2.105 . S
O108 C92 1.268 . S
O109 Sc89 2.105 1_556 S
O109 C94 1.268 . S
Sc110 O113 2.025 . S
Sc110 O120 2.105 . S
Sc110 O123 2.105 . S
Sc110 O126 2.105 . S
Sc110 O129 2.105 . S
Sc111 O113 2.025 . S
Sc111 O121 2.105 . S
Sc111 O125 2.105 . S
Sc111 O127 2.105 . S
Sc111 O131 2.105 . S
Sc112 O113 2.025 . S
Sc112 O122 2.105 . S
Sc112 O124 2.105 . S
Sc112 O128 2.105 . S
Sc112 O130 2.105 . S
O113 Sc110 2.025 . S
O113 Sc111 2.025 . S
O113 Sc112 2.025 . S
C114 O120 1.268 . S
C114 O130 1.268 . S
C115 O121 1.268 . S
C115 O129 1.268 . S
C116 O122 1.268 . S
C116 O131 1.268 . S
C117 O123 1.268 . S
C117 O127 1.268 . S
C118 O124 1.268 . S
C118 O126 1.268 . S
C119 O125 1.268 . S
C119 O128 1.268 . S
O120 Sc110 2.105 . S
O120 C114 1.268 . S
O121 Sc111 2.105 . S
O121 C115 1.268 . S
O122 Sc112 2.105 . S
O122 C116 1.268 . S
O123 Sc110 2.105 . S
O123 C117 1.268 . S
O124 Sc112 2.105 . S
O124 C118 1.268 . S
O125 Sc111 2.105 . S
O125 C119 1.268 . S
O126 Sc110 2.105 . S
O126 C118 1.268 . S
O127 Sc111 2.105 . S
O127 C117 1.268 . S
O128 Sc112 2.105 . S
O128 C119 1.268 . S
O129 Sc110 2.105 . S
O129 C115 1.268 . S
O130 Sc112 2.105 . S
O130 C114 1.268 . S
O131 Sc111 2.105 . S
O131 C116 1.268 . S
Sc132 O135 2.025 . S
Sc132 O142 2.105 . S
Sc132 O145 2.105 . S
Sc132 O148 2.105 . S
Sc132 O151 2.105 . S
Sc133 O135 2.025 . S
Sc133 O143 2.105 . S
Sc133 O147 2.105 1_556 S
Sc133 O149 2.105 . S
Sc133 O153 2.105 . S
Sc134 O135 2.025 . S
Sc134 O144 2.105 . S
Sc134 O146 2.105 . S
Sc134 O150 2.105 1_556 S
Sc134 O152 2.105 . S
O135 Sc132 2.025 . S
O135 Sc133 2.025 . S
O135 Sc134 2.025 . S
C136 O142 1.268 . S
C136 O152 1.268 . S
C137 O143 1.268 . S
C137 O151 1.268 . S
C138 O144 1.268 . S
C138 O153 1.268 . S
C139 O145 1.268 . S
C139 O149 1.268 . S
C140 O146 1.268 . S
C140 O148 1.268 . S
C141 O147 1.268 . S
C141 O150 1.268 . S
O142 Sc132 2.105 . S
O142 C136 1.268 . S
O143 Sc133 2.105 . S
O143 C137 1.268 . S
O144 Sc134 2.105 . S
O144 C138 1.268 . S
O145 Sc132 2.105 . S
O145 C139 1.268 . S
O146 Sc134 2.105 . S
O146 C140 1.268 . S
O147 Sc133 2.105 1_554 S
O147 C141 1.268 . S
O148 Sc132 2.105 . S
O148 C140 1.268 . S
O149 Sc133 2.105 . S
O149 C139 1.268 . S
O150 Sc134 2.105 1_554 S
O150 C141 1.268 . S
O151 Sc132 2.105 . S
O151 C137 1.268 . S
O152 Sc134 2.105 . S
O152 C136 1.268 . S
O153 Sc133 2.105 . S
O153 C138 1.268 . S
Sc154 O157 2.025 . S
Sc154 O164 2.105 . S
Sc154 O167 2.105 . S
Sc154 O170 2.105 . S
Sc154 O173 2.105 . S
Sc155 O157 2.025 . S
Sc155 O165 2.105 . S
Sc155 O169 2.105 . S
Sc155 O171 2.105 . S
Sc155 O175 2.105 . S
Sc156 O157 2.025 . S
Sc156 O166 2.105 . S
Sc156 O168 2.105 . S
Sc156 O172 2.105 . S
Sc156 O174 2.105 . S
O157 Sc154 2.025 . S
O157 Sc155 2.025 . S
O157 Sc156 2.025 . S
C158 O164 1.268 . S
C158 O174 1.268 . S
C159 O165 1.268 . S
C159 O173 1.268 . S
C160 O166 1.268 . S
C160 O175 1.268 . S
C161 O167 1.268 . S
C161 O171 1.268 . S
C162 O168 1.268 . S
C162 O170 1.268 . S
C163 O169 1.268 . S
C163 O172 1.268 . S
O164 Sc154 2.105 . S
O164 C158 1.268 . S
O165 Sc155 2.105 . S
O165 C159 1.268 . S
O166 Sc156 2.105 . S
O166 C160 1.268 . S
O167 Sc154 2.105 . S
O167 C161 1.268 . S
O168 Sc156 2.105 . S
O168 C162 1.268 . S
O169 Sc155 2.105 . S
O169 C163 1.268 . S
O170 Sc154 2.105 . S
O170 C162 1.268 . S
O171 Sc155 2.105 . S
O171 C161 1.268 . S
O172 Sc156 2.105 . S
O172 C163 1.268 . S
O173 Sc154 2.105 . S
O173 C159 1.268 . S
O174 Sc156 2.105 . S
O174 C158 1.268 . S
O175 Sc155 2.105 . S
O175 C160 1.268 . S
H176 C182 0.930 . S
H177 C185 0.930 . S
H178 C186 0.930 . S
H179 C187 0.930 . S
H180 C190 0.930 . S
H181 C191 0.930 . S
C182 H176 0.930 . S
C182 C183 1.355 . S
C182 C184 1.415 . S
C183 C182 1.355 . S
C183 C185 1.419 . S
C184 C182 1.415 . S
C184 C189 1.425 . S
C184 C191 1.409 . S
C185 H177 0.930 . S
C185 C183 1.419 . S
C185 C186 1.362 . S
C186 H178 0.930 . S
C186 C185 1.362 . S
C186 C189 1.409 . S
C187 H179 0.930 . S
C187 C188 1.355 1_545 S
C187 C189 1.415 . S
C188 C187 1.355 1_565 S
C188 C190 1.419 . S
C189 C184 1.425 . S
C189 C186 1.409 . S
C189 C187 1.415 . S
C190 H180 0.930 . S
C190 C188 1.419 . S
C190 C191 1.362 1_565 S
C191 H181 0.930 . S
C191 C184 1.409 . S
C191 C190 1.362 1_545 S
H192 C198 0.930 . S
H193 C201 0.930 . S
H194 C202 0.930 . S
H195 C203 0.930 . S
H196 C206 0.930 1_565 S
H197 C207 0.930 . S
C198 H192 0.930 . S
C198 C199 1.355 1_565 S
C198 C200 1.415 1_565 S
C199 C198 1.355 1_545 S
C199 C201 1.419 . S
C200 C198 1.415 1_545 S
C200 C205 1.425 . S
C200 C207 1.409 1_545 S
C201 H193 0.930 . S
C201 C199 1.419 . S
C201 C202 1.362 . S
C202 H194 0.930 . S
C202 C201 1.362 . S
C202 C205 1.409 . S
C203 H195 0.930 . S
C203 C204 1.355 . S
C203 C205 1.415 . S
C204 C203 1.355 . S
C204 C206 1.419 . S
C205 C200 1.425 . S
C205 C202 1.409 . S
C205 C203 1.415 . S
C206 H196 0.930 1_545 S
C206 C204 1.419 . S
C206 C207 1.362 1_545 S
C207 H197 0.930 . S
C207 C200 1.409 1_565 S
C207 C206 1.362 1_565 S
H208 C214 0.930 . S
H209 C217 0.930 . S
H210 C218 0.930 . S
H211 C219 0.930 . S
H212 C222 0.930 . S
H213 C223 0.930 . S
C214 H208 0.930 . S
C214 C215 1.355 1_545 S
C214 C216 1.415 1_545 S
C215 C214 1.355 1_565 S
C215 C217 1.419 . S
C216 C214 1.415 1_565 S
C216 C221 1.425 . S
C216 C223 1.409 1_565 S
C217 H209 0.930 . S
C217 C215 1.419 . S
C217 C218 1.362 . S
C218 H210 0.930 . S
C218 C217 1.362 . S
C218 C221 1.409 . S
C219 H211 0.930 . S
C219 C220 1.355 . S
C219 C221 1.415 . S
C220 C219 1.355 . S
C220 C222 1.419 . S
C221 C216 1.425 . S
C221 C218 1.409 . S
C221 C219 1.415 . S
C222 H212 0.930 . S
C222 C220 1.419 . S
C222 C223 1.362 1_565 S
C223 H213 0.930 . S
C223 C216 1.409 1_545 S
C223 C222 1.362 1_545 S
H224 C230 0.930 . S
H225 C233 0.930 . S
H226 C234 0.930 . S
H227 C235 0.930 . S
H228 C238 0.930 . S
H229 C239 0.922 1_545 S
C230 H224 0.930 . S
C230 C231 1.355 1_545 S
C230 C232 1.415 1_545 S
C231 C230 1.355 1_565 S
C231 C233 1.419 . S
C232 C230 1.415 1_565 S
C232 C237 1.425 . S
C232 C239 1.412 . S
C233 H225 0.930 . S
C233 C231 1.419 . S
C233 C234 1.362 . S
C234 H226 0.930 . S
C234 C233 1.362 . S
C234 C237 1.409 . S
C235 H227 0.930 . S
C235 C236 1.355 . S
C235 C237 1.415 . S
C236 C235 1.355 . S
C236 C238 1.419 . S
C237 C232 1.425 . S
C237 C234 1.409 . S
C237 C235 1.415 . S
C238 H228 0.930 . S
C238 C236 1.419 . S
C238 C239 1.368 . S
C239 H229 0.922 1_565 S
C239 C232 1.412 . S
C239 C238 1.368 . S
H240 C246 0.930 . S
H241 C249 0.930 . S
H242 C250 0.930 . S
H243 C251 0.930 . S
H244 C254 0.930 . S
H245 C255 0.930 . S
C246 H240 0.930 . S
C246 C247 1.355 . S
C246 C248 1.415 . S
C247 C246 1.355 . S
C247 C249 1.419 . S
C248 C246 1.415 . S
C248 C253 1.425 . S
C248 C255 1.409 . S
C249 H241 0.930 . S
C249 C247 1.419 . S
C249 C250 1.362 . S
C250 H242 0.930 . S
C250 C249 1.362 . S
C250 C253 1.409 . S
C251 H243 0.930 . S
C251 C252 1.355 . S
C251 C253 1.415 . S
C252 C251 1.355 . S
C252 C254 1.419 . S
C253 C248 1.425 . S
C253 C250 1.409 . S
C253 C251 1.415 . S
C254 H244 0.930 . S
C254 C252 1.419 . S
C254 C255 1.362 . S
C255 H245 0.930 . S
C255 C248 1.409 . S
C255 C254 1.362 . S
H256 C262 0.930 . S
H257 C265 0.930 . S
H258 C266 0.930 . S
H259 C267 0.930 . S
H260 C270 0.930 . S
H261 C271 0.930 . S
C262 H256 0.930 . S
C262 C263 1.355 . S
C262 C264 1.415 . S
C263 C262 1.355 . S
C263 C265 1.419 . S
C264 C262 1.415 . S
C264 C269 1.425 . S
C264 C271 1.409 . S
C265 H257 0.930 . S
C265 C263 1.419 . S
C265 C266 1.362 . S
C266 H258 0.930 . S
C266 C265 1.362 . S
C266 C269 1.409 . S
C267 H259 0.930 . S
C267 C268 1.355 . S
C267 C269 1.415 . S
C268 C267 1.355 . S
C268 C270 1.419 . S
C269 C264 1.425 . S
C269 C266 1.409 . S
C269 C267 1.415 . S
C270 H260 0.930 . S
C270 C268 1.419 . S
C270 C271 1.362 . S
C271 H261 0.930 . S
C271 C264 1.409 . S
C271 C270 1.362 . S
H272 C278 0.930 . S
H273 C281 0.930 . S
H274 C282 0.930 . S
H275 C283 0.930 . S
H276 C286 0.930 . S
H277 C287 0.930 . S
C278 H272 0.930 . S
C278 C279 1.355 . S
C278 C280 1.415 . S
C279 C278 1.355 . S
C279 C281 1.419 . S
C280 C278 1.415 . S
C280 C285 1.425 . S
C280 C287 1.409 . S
C281 H273 0.930 . S
C281 C279 1.419 . S
C281 C282 1.362 . S
C282 H274 0.930 . S
C282 C281 1.362 . S
C282 C285 1.409 . S
C283 H275 0.930 . S
C283 C284 1.355 . S
C283 C285 1.415 . S
C284 C283 1.355 . S
C284 C286 1.419 . S
C285 C280 1.425 . S
C285 C282 1.409 . S
C285 C283 1.415 . S
C286 H276 0.930 . S
C286 C284 1.419 . S
C286 C287 1.362 . S
C287 H277 0.930 . S
C287 C280 1.409 . S
C287 C286 1.362 . S
H288 C294 0.930 . S
H289 C297 0.930 . S
H290 C298 0.930 . S
H291 C299 0.930 . S
H292 C302 0.930 . S
H293 C303 0.930 . S
C294 H288 0.930 . S
C294 C295 1.355 . S
C294 C296 1.415 . S
C295 C294 1.355 . S
C295 C297 1.419 . S
C296 C294 1.415 . S
C296 C301 1.425 . S
C296 C303 1.409 . S
C297 H289 0.930 . S
C297 C295 1.419 . S
C297 C298 1.362 . S
C298 H290 0.930 . S
C298 C297 1.362 . S
C298 C301 1.409 . S
C299 H291 0.930 . S
C299 C300 1.355 . S
C299 C301 1.415 . S
C300 C299 1.355 . S
C300 C302 1.419 . S
C301 C296 1.425 . S
C301 C298 1.409 . S
C301 C299 1.415 . S
C302 H292 0.930 . S
C302 C300 1.419 . S
C302 C303 1.362 . S
C303 H293 0.930 . S
C303 C296 1.409 . S
C303 C302 1.362 . S
H304 C310 0.930 . S
H305 C313 0.930 . S
H306 C314 0.930 . S
H307 C315 0.930 . S
H308 C318 0.930 . S
H309 C319 0.930 . S
C310 H304 0.930 . S
C310 C311 1.355 . S
C310 C312 1.415 1_545 S
C311 C310 1.355 . S
C311 C313 1.419 1_554 S
C312 C310 1.415 1_565 S
C312 C317 1.425 1_564 S
C312 C319 1.409 . S
C313 H305 0.930 . S
C313 C311 1.419 1_556 S
C313 C314 1.362 . S
C314 H306 0.930 . S
C314 C313 1.362 . S
C314 C317 1.409 . S
C315 H307 0.930 . S
C315 C316 1.355 . S
C315 C317 1.415 1_565 S
C316 C315 1.355 . S
C316 C318 1.419 1_556 S
C317 C312 1.425 1_546 S
C317 C314 1.409 . S
C317 C315 1.415 1_545 S
C318 H308 0.930 . S
C318 C316 1.419 1_554 S
C318 C319 1.362 . S
C319 H309 0.930 . S
C319 C312 1.409 . S
C319 C318 1.362 . S
H320 C326 0.930 . S
H321 C329 0.930 . S
H322 C330 0.930 . S
H323 C331 0.930 . S
H324 C334 0.930 . S
H325 C335 0.930 . S
C326 H320 0.930 . S
C326 C327 1.355 1_545 S
C326 C328 1.415 . S
C327 C326 1.355 1_565 S
C327 C329 1.419 . S
C328 C326 1.415 . S
C328 C333 1.425 1_545 S
C328 C335 1.409 . S
C329 H321 0.930 . S
C329 C327 1.419 . S
C329 C330 1.362 . S
C330 H322 0.930 . S
C330 C329 1.362 . S
C330 C333 1.409 . S
C331 H323 0.930 . S
C331 C332 1.355 1_565 S
C331 C333 1.415 . S
C332 C331 1.355 1_545 S
C332 C334 1.419 . S
C333 C328 1.425 1_565 S
C333 C330 1.409 . S
C333 C331 1.415 . S
C334 H324 0.930 . S
C334 C332 1.419 . S
C334 C335 1.362 . S
C335 H325 0.930 . S
C335 C328 1.409 . S
C335 C334 1.362 . S
H336 C342 0.930 . S
H337 C345 0.930 . S
H338 C346 0.930 . S
H339 C347 0.930 . S
H340 C350 0.930 . S
H341 C351 0.930 . S
C342 H336 0.930 . S
C342 C343 1.355 1_556 S
C342 C344 1.415 . S
C343 C342 1.355 1_554 S
C343 C345 1.419 . S
C344 C342 1.415 . S
C344 C349 1.425 1_656 S
C344 C351 1.409 . S
C345 H337 0.930 . S
C345 C343 1.419 . S
C345 C346 1.362 1_655 S
C346 H338 0.930 . S
C346 C345 1.362 1_455 S
C346 C349 1.409 . S
C347 H339 0.930 . S
C347 C348 1.355 1_554 S
C347 C349 1.415 . S
C348 C347 1.355 1_556 S
C348 C350 1.419 . S
C349 C344 1.425 1_454 S
C349 C346 1.409 . S
C349 C347 1.415 . S
C350 H340 0.930 . S
C350 C348 1.419 . S
C350 C351 1.362 1_455 S
C351 H341 0.930 . S
C351 C344 1.409 . S
C351 C350 1.362 1_655 S
H352 C358 0.930 . S
H353 C361 0.930 . S
H354 C362 0.930 . S
H355 C363 0.930 . S
H356 C366 0.930 . S
H357 C367 0.930 . S
C358 H352 0.930 . S
C358 C359 1.355 . S
C358 C360 1.415 1_455 S
C359 C358 1.355 . S
C359 C361 1.419 . S
C360 C358 1.415 1_655 S
C360 C365 1.425 1_655 S
C360 C367 1.409 . S
C361 H353 0.930 . S
C361 C359 1.419 . S
C361 C362 1.362 . S
C362 H354 0.930 . S
C362 C361 1.362 . S
C362 C365 1.409 . S
C363 H355 0.930 . S
C363 C364 1.355 . S
C363 C365 1.415 1_655 S
C364 C363 1.355 . S
C364 C366 1.419 . S
C365 C360 1.425 1_455 S
C365 C362 1.409 . S
C365 C363 1.415 1_455 S
C366 H356 0.930 . S
C366 C364 1.419 . S
C366 C367 1.362 . S
C367 H357 0.930 . S
C367 C360 1.409 . S
C367 C366 1.362 . S
H368 C374 0.930 . S
H369 C377 0.930 . S
H370 C378 0.924 1_655 S
H371 C379 0.930 . S
H372 C382 0.930 . S
H373 C383 0.924 1_455 S
C374 H368 0.930 . S
C374 C375 1.355 . S
C374 C376 1.415 1_545 S
C375 C374 1.355 . S
C375 C377 1.419 1_554 S
C376 C374 1.415 1_565 S
C376 C381 1.425 1_464 S
C376 C383 1.409 1_455 S
C377 H369 0.930 . S
C377 C375 1.419 1_556 S
C377 C378 1.362 . S
C378 H370 0.924 1_455 S
C378 C377 1.362 . S
C378 C381 1.409 1_455 S
C379 H371 0.930 . S
C379 C380 1.355 . S
C379 C381 1.415 1_565 S
C380 C379 1.355 . S
C380 C382 1.419 1_556 S
C381 C376 1.425 1_646 S
C381 C378 1.409 1_655 S
C381 C379 1.415 1_545 S
C382 H372 0.930 . S
C382 C380 1.419 1_554 S
C382 C383 1.362 . S
C383 H373 0.924 1_655 S
C383 C376 1.409 1_655 S
C383 C382 1.362 . S
H384 C390 0.930 . S
H385 C393 0.930 . S
H386 C394 0.930 . S
H387 C395 0.930 . S
H388 C398 0.930 . S
H389 C399 0.930 . S
C390 H384 0.930 . S
C390 C391 1.355 . S
C390 C392 1.415 1_655 S
C391 C390 1.355 . S
C391 C393 1.419 1_545 S
C392 C390 1.415 1_455 S
C392 C397 1.425 1_445 S
C392 C399 1.409 . S
C393 H385 0.930 . S
C393 C391 1.419 1_565 S
C393 C394 1.362 . S
C394 H386 0.930 . S
C394 C393 1.362 . S
C394 C397 1.409 . S
C395 H387 0.930 . S
C395 C396 1.355 . S
C395 C397 1.415 1_455 S
C396 C395 1.355 . S
C396 C398 1.419 1_565 S
C397 C392 1.425 1_665 S
C397 C394 1.409 . S
C397 C395 1.415 1_655 S
C398 H388 0.930 . S
C398 C396 1.419 1_545 S
C398 C399 1.362 . S
C399 H389 0.930 . S
C399 C392 1.409 . S
C399 C398 1.362 . S
H400 C406 0.930 . S
H401 C409 0.930 . S
H402 C410 0.930 1_554 S
H403 C411 0.930 . S
H404 C414 0.930 . S
H405 C415 0.930 1_556 S
C406 H400 0.930 . S
C406 C407 1.355 . S
C406 C408 1.415 . S
C407 C406 1.355 . S
C407 C409 1.419 . S
C408 C406 1.415 . S
C408 C413 1.425 1_556 S
C408 C415 1.409 1_556 S
C409 H401 0.930 . S
C409 C407 1.419 . S
C409 C410 1.362 . S
C410 H402 0.930 1_556 S
C410 C409 1.362 . S
C410 C413 1.409 1_556 S
C411 H403 0.930 . S
C411 C412 1.355 . S
C411 C413 1.415 . S
C412 C411 1.355 . S
C412 C414 1.419 . S
C413 C408 1.425 1_554 S
C413 C410 1.409 1_554 S
C413 C411 1.415 . S
C414 H404 0.930 . S
C414 C412 1.419 . S
C414 C415 1.362 . S
C415 H405 0.930 1_554 S
C415 C408 1.409 1_554 S
C415 C414 1.362 . S
H416 C422 0.930 . S
H417 C425 0.930 . S
H418 C426 0.930 . S
H419 C427 0.930 . S
H420 C430 0.930 . S
H421 C431 0.930 . S
C422 H416 0.930 . S
C422 C423 1.355 . S
C422 C424 1.415 . S
C423 C422 1.355 . S
C423 C425 1.419 . S
C424 C422 1.415 . S
C424 C429 1.425 . S
C424 C431 1.409 . S
C425 H417 0.930 . S
C425 C423 1.419 . S
C425 C426 1.362 . S
C426 H418 0.930 . S
C426 C425 1.362 . S
C426 C429 1.409 . S
C427 H419 0.930 . S
C427 C428 1.355 . S
C427 C429 1.415 . S
C428 C427 1.355 . S
C428 C430 1.419 . S
C429 C424 1.425 . S
C429 C426 1.409 . S
C429 C427 1.415 . S
C430 H420 0.930 . S
C430 C428 1.419 . S
C430 C431 1.362 . S
C431 H421 0.930 . S
C431 C424 1.409 . S
C431 C430 1.362 . S
H432 C438 0.930 . S
H433 C441 0.930 . S
H434 C442 0.930 . S
H435 C443 0.930 . S
H436 C446 0.930 . S
H437 C447 0.930 . S
C438 H432 0.930 . S
C438 C439 1.355 . S
C438 C440 1.415 . S
C439 C438 1.355 . S
C439 C441 1.419 . S
C440 C438 1.415 . S
C440 C445 1.425 . S
C440 C447 1.409 . S
C441 H433 0.930 . S
C441 C439 1.419 . S
C441 C442 1.362 . S
C442 H434 0.930 . S
C442 C441 1.362 . S
C442 C445 1.409 . S
C443 H435 0.930 . S
C443 C444 1.355 . S
C443 C445 1.415 . S
C444 C443 1.355 . S
C444 C446 1.419 . S
C445 C440 1.425 . S
C445 C442 1.409 . S
C445 C443 1.415 . S
C446 H436 0.930 . S
C446 C444 1.419 . S
C446 C447 1.362 . S
C447 H437 0.930 . S
C447 C440 1.409 . S
C447 C446 1.362 . S
H448 C454 0.930 . S
H449 C457 0.930 . S
H450 C458 0.930 . S
H451 C459 0.930 . S
H452 C462 0.930 . S
H453 C463 0.930 . S
C454 H448 0.930 . S
C454 C455 1.355 . S
C454 C456 1.415 . S
C455 C454 1.355 . S
C455 C457 1.419 . S
C456 C454 1.415 . S
C456 C461 1.425 . S
C456 C463 1.409 . S
C457 H449 0.930 . S
C457 C455 1.419 . S
C457 C458 1.362 . S
C458 H450 0.930 . S
C458 C457 1.362 . S
C458 C461 1.409 . S
C459 H451 0.930 . S
C459 C460 1.355 . S
C459 C461 1.415 . S
C460 C459 1.355 . S
C460 C462 1.419 . S
C461 C456 1.425 . S
C461 C458 1.409 . S
C461 C459 1.415 . S
C462 H452 0.930 . S
C462 C460 1.419 . S
C462 C463 1.362 . S
C463 H453 0.930 . S
C463 C456 1.409 . S
C463 C462 1.362 . S
H464 C470 0.930 . S
H465 C473 0.930 . S
H466 C474 0.930 . S
H467 C475 0.930 . S
H468 C478 0.930 . S
H469 C479 0.930 . S
C470 H464 0.930 . S
C470 C471 1.355 . S
C470 C472 1.415 1_655 S
C471 C470 1.355 . S
C471 C473 1.419 . S
C472 C470 1.415 1_455 S
C472 C477 1.425 1_455 S
C472 C479 1.409 . S
C473 H465 0.930 . S
C473 C471 1.419 . S
C473 C474 1.362 . S
C474 H466 0.930 . S
C474 C473 1.362 . S
C474 C477 1.409 . S
C475 H467 0.930 . S
C475 C476 1.355 . S
C475 C477 1.415 1_455 S
C476 C475 1.355 . S
C476 C478 1.419 . S
C477 C472 1.425 1_655 S
C477 C474 1.409 . S
C477 C475 1.415 1_655 S
C478 H468 0.930 . S
C478 C476 1.419 . S
C478 C479 1.362 . S
C479 H469 0.930 . S
C479 C472 1.409 . S
C479 C478 1.362 . S
H480 C486 0.930 . S
H481 C489 0.930 . S
H482 C490 0.930 . S
H483 C491 0.930 . S
H484 C494 0.930 . S
H485 C495 0.930 . S
C486 H480 0.930 . S
C486 C487 1.355 . S
C486 C488 1.415 . S
C487 C486 1.355 . S
C487 C489 1.419 . S
C488 C486 1.415 . S
C488 C493 1.425 1_655 S
C488 C495 1.409 . S
C489 H481 0.930 . S
C489 C487 1.419 . S
C489 C490 1.362 1_655 S
C490 H482 0.930 . S
C490 C489 1.362 1_455 S
C490 C493 1.409 . S
C491 H483 0.930 . S
C491 C492 1.355 . S
C491 C493 1.415 . S
C492 C491 1.355 . S
C492 C494 1.419 . S
C493 C488 1.425 1_455 S
C493 C490 1.409 . S
C493 C491 1.415 . S
C494 H484 0.930 . S
C494 C492 1.419 . S
C494 C495 1.362 1_455 S
C495 H485 0.930 . S
C495 C488 1.409 . S
C495 C494 1.362 1_655 S
H496 C502 0.930 . S
H497 C505 0.930 . S
H498 C506 0.930 . S
H499 C507 0.930 . S
H500 C510 0.930 . S
H501 C511 0.930 . S
C502 H496 0.930 . S
C502 C503 1.355 1_556 S
C502 C504 1.415 . S
C503 C502 1.355 1_554 S
C503 C505 1.419 . S
C504 C502 1.415 . S
C504 C509 1.425 1_556 S
C504 C511 1.409 . S
C505 H497 0.930 . S
C505 C503 1.419 . S
C505 C506 1.362 . S
C506 H498 0.930 . S
C506 C505 1.362 . S
C506 C509 1.409 . S
C507 H499 0.930 . S
C507 C508 1.355 1_554 S
C507 C509 1.415 . S
C508 C507 1.355 1_556 S
C508 C510 1.419 . S
C509 C504 1.425 1_554 S
C509 C506 1.409 . S
C509 C507 1.415 . S
C510 H500 0.930 . S
C510 C508 1.419 . S
C510 C511 1.362 . S
C511 H501 0.930 . S
C511 C504 1.409 . S
C511 C510 1.362 . S
H512 C518 0.930 . S
H513 C521 0.930 . S
H514 C522 0.930 . S
H515 C523 0.930 . S
H516 C526 0.930 . S
H517 C527 0.930 . S
C518 H512 0.930 . S
C518 C519 1.355 . S
C518 C520 1.415 . S
C519 C518 1.355 . S
C519 C521 1.419 . S
C520 C518 1.415 . S
C520 C525 1.425 . S
C520 C527 1.409 . S
C521 H513 0.930 . S
C521 C519 1.419 . S
C521 C522 1.362 . S
C522 H514 0.930 . S
C522 C521 1.362 . S
C522 C525 1.409 . S
C523 H515 0.930 . S
C523 C524 1.355 . S
C523 C525 1.415 . S
C524 C523 1.355 . S
C524 C526 1.419 . S
C525 C520 1.425 . S
C525 C522 1.409 . S
C525 C523 1.415 . S
C526 H516 0.930 . S
C526 C524 1.419 . S
C526 C527 1.362 . S
C527 H517 0.930 . S
C527 C520 1.409 . S
C527 C526 1.362 . S
H528 C534 0.930 . S
H529 C537 0.930 . S
H530 C538 0.930 . S
H531 C539 0.930 . S
H532 C542 0.930 . S
H533 C543 0.930 . S
C534 H528 0.930 . S
C534 C535 1.355 . S
C534 C536 1.415 . S
C535 C534 1.355 . S
C535 C537 1.419 1_556 S
C536 C534 1.415 . S
C536 C541 1.425 1_556 S
C536 C543 1.409 . S
C537 H529 0.930 . S
C537 C535 1.419 1_554 S
C537 C538 1.362 . S
C538 H530 0.930 . S
C538 C537 1.362 . S
C538 C541 1.409 . S
C539 H531 0.930 . S
C539 C540 1.355 . S
C539 C541 1.415 . S
C540 C539 1.355 . S
C540 C542 1.419 1_554 S
C541 C536 1.425 1_554 S
C541 C538 1.409 . S
C541 C539 1.415 . S
C542 H532 0.930 . S
C542 C540 1.419 1_556 S
C542 C543 1.362 . S
C543 H533 0.930 . S
C543 C536 1.409 . S
C543 C542 1.362 . S
H544 C550 0.930 . S
H545 C553 0.930 . S
H546 C554 0.930 . S
H547 C555 0.930 . S
H548 C558 0.930 . S
H549 C559 0.930 . S
C550 H544 0.930 . S
C550 C551 1.355 . S
C550 C552 1.415 . S
C551 C550 1.355 . S
C551 C553 1.419 . S
C552 C550 1.415 . S
C552 C557 1.425 . S
C552 C559 1.409 . S
C553 H545 0.930 . S
C553 C551 1.419 . S
C553 C554 1.362 . S
C554 H546 0.930 . S
C554 C553 1.362 . S
C554 C557 1.409 . S
C555 H547 0.930 . S
C555 C556 1.355 . S
C555 C557 1.415 . S
C556 C555 1.355 . S
C556 C558 1.419 . S
C557 C552 1.425 . S
C557 C554 1.409 . S
C557 C555 1.415 . S
C558 H548 0.930 . S
C558 C556 1.419 . S
C558 C559 1.362 . S
C559 H549 0.930 . S
C559 C552 1.409 . S
C559 C558 1.362 . S
C183 C6 1.350 . S
C188 C71 1.356 . S
C199 C49 1.350 1_545 S
C204 C28 1.260 . S
C215 C29 1.360 1_565 S
C220 C53 1.269 . S
C231 C7 1.374 1_565 S
C236 C75 1.319 . S
C247 C159 1.370 . S
C252 C94 1.337 . S
C263 C116 1.267 . S
C268 C137 1.326 . S
C279 C117 1.325 . S
C284 C141 1.325 . S
C295 C95 1.326 . S
C300 C163 1.326 . S
C311 C9 0.715 . S
C316 C50 0.715 . S
C327 C72 0.741 . S
C332 C31 0.741 . S
C343 C97 0.899 . S
C348 C138 0.899 . S
C359 C119 0.712 . S
C364 C160 0.712 . S
C375 C5 2.082 . S
C380 C51 2.082 . S
C391 C27 2.039 . S
C396 C73 2.039 . S
C407 C139 2.047 . S
C412 C93 2.047 . S
C423 C161 2.055 . S
C428 C115 2.055 . S
C439 C8 1.724 . S
C444 C30 1.719 . S
C455 C48 1.715 . S
C460 C70 1.730 . S
C471 C96 1.722 . S
C476 C118 1.731 . S
C487 C158 1.715 . S
C492 C136 1.730 . S
C503 C4 1.392 . S
C508 C140 1.392 . S
C519 C26 1.457 . S
C524 C162 1.457 . S
C535 C52 1.470 . S
C540 C92 1.470 . S
C551 C114 1.425 . S
C556 C74 1.425 . S
