# Generated by pormake.
# Topology snk, (6)-cn, num edge types: 1
# Building blocks:
#     Node 0, Type 0, BuildingBlock: CUWYAW_clean_sbu_0, # of connection points: 6
#     Node 1, Type 0, BuildingBlock: CUWYAW_clean_sbu_0, # of connection points: 6
#     Node 2, Type 0, BuildingBlock: CUWYAW_clean_sbu_0, # of connection points: 6
#     Node 3, Type 0, BuildingBlock: CUWYAW_clean_sbu_0, # of connection points: 6
#     Node 4, Type 0, BuildingBlock: CUWYAW_clean_sbu_0, # of connection points: 6
#     Node 5, Type 0, BuildingBlock: CUWYAW_clean_sbu_0, # of connection points: 6
#     Node 6, Type 0, BuildingBlock: CUWYAW_clean_sbu_0, # of connection points: 6
#     Node 7, Type 0, BuildingBlock: CUWYAW_clean_sbu_0, # of connection points: 6
#     Edge 8, Type (0, 0), BuildingBlock: CIFDUS_clean_linker_0, # of connection points: 2
#     Edge 9, Type (0, 0), BuildingBlock: CIFDUS_clean_linker_0, # of connection points: 2
#     Edge 10, Type (0, 0), BuildingBlock: CIFDUS_clean_linker_0, # of connection points: 2
#     Edge 11, Type (0, 0), BuildingBlock: CIFDUS_clean_linker_0, # of connection points: 2
#     Edge 12, Type (0, 0), BuildingBlock: CIFDUS_clean_linker_0, # of connection points: 2
#     Edge 13, Type (0, 0), BuildingBlock: CIFDUS_clean_linker_0, # of connection points: 2
#     Edge 14, Type (0, 0), BuildingBlock: CIFDUS_clean_linker_0, # of connection points: 2
#     Edge 15, Type (0, 0), BuildingBlock: CIFDUS_clean_linker_0, # of connection points: 2
#     Edge 16, Type (0, 0), BuildingBlock: CIFDUS_clean_linker_0, # of connection points: 2
#     Edge 17, Type (0, 0), BuildingBlock: CIFDUS_clean_linker_0, # of connection points: 2
#     Edge 18, Type (0, 0), BuildingBlock: CIFDUS_clean_linker_0, # of connection points: 2
#     Edge 19, Type (0, 0), BuildingBlock: CIFDUS_clean_linker_0, # of connection points: 2
#     Edge 20, Type (0, 0), BuildingBlock: CIFDUS_clean_linker_0, # of connection points: 2
#     Edge 21, Type (0, 0), BuildingBlock: CIFDUS_clean_linker_0, # of connection points: 2
#     Edge 22, Type (0, 0), BuildingBlock: CIFDUS_clean_linker_0, # of connection points: 2
#     Edge 23, Type (0, 0), BuildingBlock: CIFDUS_clean_linker_0, # of connection points: 2
#     Edge 24, Type (0, 0), BuildingBlock: CIFDUS_clean_linker_0, # of connection points: 2
#     Edge 25, Type (0, 0), BuildingBlock: CIFDUS_clean_linker_0, # of connection points: 2
#     Edge 26, Type (0, 0), BuildingBlock: CIFDUS_clean_linker_0, # of connection points: 2
#     Edge 27, Type (0, 0), BuildingBlock: CIFDUS_clean_linker_0, # of connection points: 2
#     Edge 28, Type (0, 0), BuildingBlock: CIFDUS_clean_linker_0, # of connection points: 2
#     Edge 29, Type (0, 0), BuildingBlock: CIFDUS_clean_linker_0, # of connection points: 2
#     Edge 30, Type (0, 0), BuildingBlock: CIFDUS_clean_linker_0, # of connection points: 2
#     Edge 31, Type (0, 0), BuildingBlock: CIFDUS_clean_linker_0, # of connection points: 2
# Relax obj value: 0.092
# Max RMSD: 0.170
# Mean RMSD: 0.136
data_MOF--net-snk--node1-CUWYAW_clean_sbu_0--edge1-CIFDUS_clean_linker_0
_symmetry_space_group_name_H-M    P1
_symmetry_Int_Tables_number       1
_symmetry_cell_setting            triclinic
loop_
_symmetry_equiv_pos_as_xyz
'x, y, z'
_cell_length_a     32.20639
_cell_length_b     32.712327
_cell_length_c     23.428155
_cell_angle_alpha  95.525829
_cell_angle_beta   95.568952
_cell_angle_gamma 90.167182
loop_
_atom_site_label
_atom_site_type_symbol
_atom_site_fract_x
_atom_site_fract_y
_atom_site_fract_z
_atom_type_partial_charge
C0 C 0.05183 0.05521 0.69477 0.0
Eu1 Eu 0.02693 0.0323 0.58671 0.0
C2 C 0.04444 0.04368 0.75263 0.0
C3 C 0.04906 0.07346 0.80014 0.0
C4 C 0.04293 0.0632 0.8555 0.0
C5 C 0.03198 0.0228 0.86472 0.0
C6 C 0.02698 0.99307 0.81668 0.0
C7 C 0.03316 1.00339 0.76131 0.0
C8 C 0.97136 0.07071 0.5176 0.0
C9 C 0.95228 0.96207 0.57982 0.0
C10 C 0.96901 0.96252 0.36234 0.0
Eu11 Eu 0.99544 0.98334 0.4704 0.0
C12 C 0.97658 0.97426 0.30463 0.0
C13 C 0.97253 0.9445 0.25708 0.0
C14 C 0.97877 0.9549 0.20184 0.0
C15 C 0.98932 0.99544 0.19274 0.0
C16 C 0.99375 0.02516 0.24082 0.0
C17 C 0.98739 0.01471 0.29607 0.0
C18 C 0.05284 0.94546 0.53863 0.0
C19 C 0.07061 0.05247 0.47654 0.0
O20 O 0.07173 0.0288 0.66208 0.0
O21 O 0.02076 0.07217 0.66587 0.0
O22 O 1.00261 0.08952 0.54855 0.0
O23 O 0.96984 0.03333 0.5261 0.0
O24 O 0.98327 0.98315 0.61081 0.0
O25 O 0.94691 0.96108 0.52303 0.0
O26 O 0.95044 0.98946 0.39601 0.0
O27 O 0.99936 0.94387 0.39027 0.0
O28 O 0.02265 0.92594 0.50611 0.0
O29 O 0.05273 0.98295 0.53068 0.0
O30 O 0.03934 0.03169 0.44594 0.0
O31 O 0.07608 0.05371 0.53349 0.0
H32 H 0.05781 0.10472 0.79451 0.0
H33 H 0.04764 0.08682 0.89128 0.0
H34 H 0.018 0.9618 0.82175 0.0
H35 H 0.02929 0.97985 0.72533 0.0
H36 H 0.96411 0.91312 0.26259 0.0
H37 H 0.97446 0.93126 0.16605 0.0
H38 H 1.00241 0.05655 0.23589 0.0
H39 H 0.99079 0.03829 0.33205 0.0
C40 C 0.22794 0.77671 0.92307 0.0
Eu41 Eu 0.24889 0.75996 0.81899 0.0
C42 C 0.24551 0.775 0.98295 0.0
C43 C 0.2225 0.79082 0.02757 0.0
C44 C 0.23723 0.78737 0.08493 0.0
C45 C 0.2753 0.76791 0.09868 0.0
C46 C 0.29873 0.75276 0.05367 0.0
C47 C 0.28397 0.75636 0.99618 0.0
C48 C 0.20919 0.70933 0.73331 0.0
C49 C 0.32908 0.70066 0.81576 0.0
C50 C 0.32671 0.72896 0.6134 0.0
Eu51 Eu 0.29341 0.75076 0.7087 0.0
C52 C 0.32365 0.74171 0.55473 0.0
C53 C 0.35292 0.72781 0.51705 0.0
C54 C 0.349 0.73792 0.46012 0.0
C55 C 0.3156 0.76204 0.43991 0.0
C56 C 0.28676 0.77652 0.4784 0.0
C57 C 0.2908 0.7665 0.53532 0.0
C58 C 0.3141 0.81796 0.78367 0.0
C59 C 0.21274 0.80589 0.71045 0.0
O60 O 0.2444 0.80397 0.89408 0.0
O61 O 0.22034 0.74123 0.89276 0.0
O62 O 0.19035 0.73301 0.76997 0.0
O63 O 0.24832 0.71149 0.74527 0.0
O64 O 0.29816 0.71474 0.84488 0.0
O65 O 0.33426 0.71057 0.7635 0.0
O66 O 0.29312 0.71181 0.62811 0.0
O67 O 0.34434 0.75517 0.65431 0.0
O68 O 0.30916 0.81939 0.72815 0.0
O69 O 0.30842 0.782 0.79553 0.0
O70 O 0.23334 0.77958 0.67796 0.0
O71 O 0.21971 0.80987 0.76737 0.0
H72 H 0.19267 0.80517 1.018 0.0
H73 H 0.21813 0.79882 0.11843 0.0
H74 H 0.32834 0.73798 0.06289 0.0
H75 H 0.30221 0.7441 0.96213 0.0
H76 H 0.37854 0.70873 0.53147 0.0
H77 H 0.37208 0.72676 0.43193 0.0
H78 H 0.26037 0.79469 0.46416 0.0
H79 H 0.26786 0.77746 0.5639 0.0
C80 C 0.45296 0.02597 0.8517 0.0
Eu81 Eu 0.48811 0.02131 0.95625 0.0
C82 C 0.46625 0.02583 0.79334 0.0
C83 C 0.50866 0.0246 0.78422 0.0
C84 C 0.5208 0.02413 0.72836 0.0
C85 C 0.49072 0.02476 0.68058 0.0
C86 C 0.44823 0.02586 0.69019 0.0
C87 C 0.43616 0.02638 0.74605 0.0
C88 C 0.5539 0.06863 1.00562 0.0
C89 C 0.56374 0.95452 0.95527 0.0
C90 C 0.56753 0.9933 0.174 0.0
Eu91 Eu 0.53067 0.99522 0.06999 0.0
C92 C 0.55458 0.99654 0.23279 0.0
C93 C 0.51224 0.99906 0.24209 0.0
C94 C 0.50018 1.0009 0.2981 0.0
C95 C 0.53026 1.00037 0.34588 0.0
C96 C 0.5727 0.99843 0.33618 0.0
C97 C 0.58471 0.9965 0.28013 0.0
C98 C 0.4654 0.94673 0.02229 0.0
C99 C 0.45439 0.06085 0.07127 0.0
O100 O 0.45784 0.99157 0.87552 0.0
O101 O 0.46402 0.05806 0.88771 0.0
O102 O 0.52104 0.08326 0.97875 0.0
O103 O 0.5513 0.03024 1.0023 0.0
O104 O 0.52868 0.96725 0.92861 0.0
O105 O 0.57577 0.96764 1.00954 0.0
O106 O 0.56425 0.02666 0.14731 0.0
O107 O 0.55458 0.96046 0.14065 0.0
O108 O 0.49757 0.93348 0.05239 0.0
O109 O 0.46731 0.98519 0.0231 0.0
O110 O 0.48985 0.04881 0.09747 0.0
O111 O 0.44217 0.04742 1.01708 0.0
H112 H 0.53232 0.02387 0.82029 0.0
H113 H 0.55373 0.02274 0.72252 0.0
H114 H 0.42427 0.02689 0.6546 0.0
H115 H 0.40327 0.02726 0.75234 0.0
H116 H 0.48854 0.99934 0.20599 0.0
H117 H 0.46729 1.00295 0.30401 0.0
H118 H 0.59665 0.99751 0.37182 0.0
H119 H 0.61754 0.99454 0.27371 0.0
C120 C 0.23657 0.21584 0.13594 0.0
Eu121 Eu 0.25822 0.23977 0.24458 0.0
C122 C 0.24814 0.22443 0.07884 0.0
C123 C 0.21835 0.21824 0.03102 0.0
C124 C 0.22792 0.22726 0.97659 0.0
C125 C 0.26761 0.2427 0.96874 0.0
C126 C 0.2975 0.24881 1.01699 0.0
C127 C 0.28785 0.23976 0.07154 0.0
C128 C 0.21199 0.2903 0.31063 0.0
C129 C 0.32404 0.31763 0.25598 0.0
C130 C 0.32583 0.29462 0.46871 0.0
Eu131 Eu 0.30305 0.27035 0.36055 0.0
C132 C 0.3148 0.2865 0.52626 0.0
C133 C 0.34497 0.29282 0.57363 0.0
C134 C 0.33584 0.28418 0.62844 0.0
C135 C 0.29623 0.26895 0.63706 0.0
C136 C 0.26592 0.26288 0.58929 0.0
C137 C 0.27512 0.27155 0.53442 0.0
C138 C 0.3484 0.21994 0.29224 0.0
C139 C 0.2359 0.19458 0.35191 0.0
O140 O 0.26389 0.19682 0.16854 0.0
O141 O 0.21846 0.24564 0.16493 0.0
O142 O 0.19728 0.2588 0.27688 0.0
O143 O 0.25053 0.29529 0.30626 0.0
O144 O 0.30552 0.28639 0.223 0.0
O145 O 0.32281 0.32162 0.31231 0.0
O146 O 0.29831 0.3137 0.43641 0.0
O147 O 0.34347 0.26451 0.43961 0.0
O148 O 0.36384 0.25142 0.32547 0.0
O149 O 0.31025 0.21516 0.29856 0.0
O150 O 0.25556 0.22554 0.38367 0.0
O151 O 0.236 0.18991 0.29517 0.0
H152 H 0.18743 0.20675 0.03588 0.0
H153 H 0.20386 0.22285 0.94084 0.0
H154 H 0.32849 0.26027 1.01258 0.0
H155 H 0.31131 0.24485 0.10796 0.0
H156 H 0.37586 0.3041 0.56812 0.0
H157 H 0.36016 0.28862 0.66383 0.0
H158 H 0.23495 0.25164 0.59432 0.0
H159 H 0.25134 0.26644 0.4984 0.0
C160 C 0.71629 0.28401 0.43758 0.0
Eu161 Eu 0.73197 0.26011 0.3326 0.0
C162 C 0.7328 0.27807 0.49708 0.0
C163 C 0.75382 0.24206 0.51011 0.0
C164 C 0.76587 0.23532 0.56743 0.0
C165 C 0.75719 0.26448 0.61284 0.0
C166 C 0.73736 0.3011 0.59928 0.0
C167 C 0.72525 0.30776 0.54197 0.0
C168 C 0.67957 0.21661 0.25209 0.0
C169 C 0.79569 0.18251 0.33212 0.0
C170 C 0.78647 0.19322 0.12084 0.0
Eu171 Eu 0.76955 0.22965 0.21957 0.0
C172 C 0.78379 0.2057 0.06196 0.0
C173 C 0.76855 0.24454 0.05069 0.0
C174 C 0.76314 0.2554 0.99419 0.0
C175 C 0.77288 0.2276 0.94784 0.0
C176 C 0.78901 0.189 0.9596 0.0
C177 C 0.7943 0.17813 1.01621 0.0
C178 C 0.80915 0.29495 0.28164 0.0
C179 C 0.71062 0.30864 0.22191 0.0
O180 O 0.73931 0.30553 0.40793 0.0
O181 O 0.69882 0.25174 0.40706 0.0
O182 O 0.668 0.24789 0.28483 0.0
O183 O 0.71748 0.2089 0.26469 0.0
O184 O 0.77068 0.20679 0.36115 0.0
O185 O 0.80101 0.18542 0.27743 0.0
O186 O 0.75058 0.18956 0.14186 0.0
O187 O 0.81474 0.2122 0.15815 0.0
O188 O 0.80505 0.29021 0.22566 0.0
O189 O 0.79414 0.26439 0.30162 0.0
O190 O 0.72163 0.27521 0.19095 0.0
O191 O 0.71849 0.3134 0.27876 0.0
H192 H 0.75995 0.21866 0.47614 0.0
H193 H 0.78074 0.20663 0.5762 0.0
H194 H 0.73086 0.32454 0.63302 0.0
H195 H 0.7092 0.3358 0.53276 0.0
H196 H 0.76023 0.26624 0.08553 0.0
H197 H 0.75117 0.28554 0.98678 0.0
H198 H 0.79637 0.16672 0.9249 0.0
H199 H 0.80585 0.14792 0.02415 0.0
C200 C 0.69807 0.71253 0.57505 0.0
Eu201 Eu 0.72021 0.73749 0.6832 0.0
C202 C 0.70994 0.71858 0.51728 0.0
C203 C 0.68181 0.70691 0.46898 0.0
C204 C 0.69194 0.71283 0.41362 0.0
C205 C 0.73046 0.73071 0.40542 0.0
C206 C 0.75866 0.74233 0.4542 0.0
C207 C 0.74849 0.73629 0.50963 0.0
C208 C 0.67395 0.78822 0.74941 0.0
C209 C 0.78801 0.813 0.69397 0.0
C210 C 0.78448 0.79311 0.90855 0.0
Eu211 Eu 0.76356 0.76792 0.80015 0.0
C212 C 0.77256 0.7861 0.96598 0.0
C213 C 0.80032 0.79781 1.01464 0.0
C214 C 0.79012 0.79111 0.06969 0.0
C215 C 0.75187 0.77242 0.0772 0.0
C216 C 0.72404 0.76067 0.02808 0.0
C217 C 0.73431 0.76745 0.97295 0.0
C218 C 0.81018 0.71684 0.73517 0.0
C219 C 0.69793 0.69009 0.78769 0.0
O220 O 0.72447 0.69305 0.60842 0.0
O221 O 0.68162 0.74402 0.60281 0.0
O222 O 0.65887 0.7567 0.71599 0.0
O223 O 0.71238 0.79281 0.74472 0.0
O224 O 0.76886 0.78198 0.66151 0.0
O225 O 0.78666 0.81768 0.75043 0.0
O226 O 0.75746 0.81177 0.87505 0.0
O227 O 0.80228 0.76251 0.88078 0.0
O228 O 0.8249 0.74836 0.76892 0.0
O229 O 0.77157 0.71233 0.73901 0.0
O230 O 0.71609 0.7213 0.82112 0.0
O231 O 0.69948 0.68642 0.73138 0.0
H232 H 0.65193 0.69313 0.47407 0.0
H233 H 0.66975 0.7029 0.37717 0.0
H234 H 0.78839 0.7566 0.44965 0.0
H235 H 0.77062 0.74553 0.54645 0.0
H236 H 0.82998 0.81228 1.01008 0.0
H237 H 0.81201 0.80112 0.10646 0.0
H238 H 0.69454 0.74579 0.03216 0.0
H239 H 0.71248 0.75808 0.93583 0.0
C240 C 0.55104 0.54621 0.18767 0.0
Eu241 Eu 0.52814 0.52232 0.07945 0.0
C242 C 0.54174 0.53604 0.245 0.0
C243 C 0.50284 0.51946 0.25351 0.0
C244 C 0.49377 0.51194 0.30878 0.0
C245 C 0.52339 0.52105 0.35667 0.0
C246 C 0.56263 0.53695 0.34762 0.0
C247 C 0.57168 0.54433 0.29228 0.0
C248 C 0.47107 0.56251 1.0144 0.0
C249 C 0.45478 0.45187 0.06735 0.0
C250 C 0.47009 0.46166 0.85433 0.0
Eu251 Eu 0.4987 0.47932 0.96211 0.0
C252 C 0.48133 0.46869 0.79669 0.0
C253 C 0.52104 0.48351 0.78868 0.0
C254 C 0.53124 0.48963 0.73335 0.0
C255 C 0.50192 0.48078 0.68501 0.0
C256 C 0.46215 0.46591 0.69357 0.0
C257 C 0.45197 0.46003 0.74889 0.0
C258 C 0.55441 0.4358 0.02447 0.0
C259 C 0.57449 0.54812 0.97516 0.0
O260 O 0.57103 0.51873 0.15708 0.0
O261 O 0.52099 0.56308 0.15683 0.0
O262 O 0.50346 0.58045 0.04345 0.0
O263 O 0.47019 0.52486 1.02085 0.0
O264 O 0.48601 0.47096 0.10041 0.0
O265 O 0.44913 0.45534 1.01149 0.0
O266 O 0.45867 0.49389 0.88629 0.0
O267 O 0.49461 0.43763 0.88344 0.0
O268 O 0.52401 0.41962 0.98908 0.0
O269 O 0.55644 0.47429 0.02239 0.0
O270 O 0.54458 0.52753 0.94141 0.0
O271 O 0.57826 0.54686 0.03156 0.0
H272 H 0.47927 0.51296 0.21755 0.0
H273 H 0.46349 0.49912 0.31401 0.0
H274 H 0.58598 0.54477 0.3835 0.0
H275 H 0.60184 0.55725 0.28654 0.0
H276 H 0.54416 0.49013 0.82516 0.0
H277 H 0.56198 0.50156 0.72852 0.0
H278 H 0.43902 0.45813 0.65739 0.0
H279 H 0.42121 0.44837 0.75429 0.0
C280 C 0.95974 0.53205 0.3671 0.0
Eu281 Eu 0.99239 0.51154 0.46639 0.0
C282 C 0.96899 0.52307 0.3072 0.0
C283 C 1.00289 0.49831 0.29397 0.0
C284 C 0.01304 0.49175 0.23722 0.0
C285 C 0.98941 0.50984 0.19281 0.0
C286 C 0.95499 0.53404 0.20629 0.0
C287 C 0.94492 0.54063 0.26312 0.0
C288 C 0.05114 0.55588 0.53689 0.0
C289 C 0.06937 0.45173 0.47503 0.0
C290 C 0.0487 0.46113 0.6822 0.0
Eu291 Eu 0.01514 0.47987 0.58254 0.0
C292 C 0.03807 0.46796 0.74175 0.0
C293 C 1.00325 0.49136 0.75498 0.0
C294 C 0.99244 0.4966 0.81152 0.0
C295 C 0.01629 0.47848 0.85571 0.0
C296 C 0.05136 0.45529 0.84211 0.0
C297 C 0.06212 0.45008 0.78553 0.0
C298 C 0.95421 0.43668 0.51533 0.0
C299 C 0.93848 0.54054 0.57413 0.0
O300 O 0.94614 0.50117 0.39188 0.0
O301 O 0.98785 0.55423 0.40044 0.0
O302 O 0.05334 0.54839 0.48189 0.0
O303 O 0.01834 0.54069 0.55107 0.0
O304 O 0.03874 0.46423 0.4395 0.0
O305 O 0.0695 0.45928 0.53158 0.0
O306 O 0.05919 0.49386 0.65864 0.0
O307 O 0.02338 0.43661 0.6476 0.0
O308 O 0.95451 0.44387 0.57082 0.0
O309 O 0.98686 0.45068 0.49826 0.0
O310 O 0.96877 0.52717 0.60943 0.0
O311 O 0.93823 0.53346 0.51745 0.0
H312 H 0.02178 0.4845 0.32761 0.0
H313 H 0.03938 0.47253 0.2281 0.0
H314 H 0.93647 0.54873 0.17315 0.0
H315 H 0.91875 0.55997 0.27279 0.0
H316 H 0.98432 0.50536 0.72154 0.0
H317 H 0.96559 0.51507 0.82069 0.0
H318 H 0.07005 0.44052 0.87501 0.0
H319 H 0.08898 0.43174 0.77584 0.0
H320 H 0.139 0.09913 0.52065 0.0
H321 H 0.06769 0.05625 0.36028 0.0
H322 H 0.11368 0.09399 0.30718 0.0
H323 H 0.17289 0.14155 0.30594 0.0
H324 H 0.2436 0.18497 0.46646 0.0
H325 H 0.19958 0.1446 0.51912 0.0
C326 C 0.13356 0.09792 0.4741 0.0
C327 C 0.09968 0.07498 0.44484 0.0
C328 C 0.1602 0.11985 0.44348 0.0
C329 C 0.09332 0.07376 0.38432 0.0
C330 C 0.11971 0.09534 0.35366 0.0
C331 C 0.17897 0.14174 0.35232 0.0
C332 C 0.21142 0.16642 0.38203 0.0
C333 C 0.15312 0.11874 0.38275 0.0
C334 C 0.21865 0.16652 0.44232 0.0
C335 C 0.19345 0.14342 0.47267 0.0
H336 H 0.05712 0.86541 0.55889 0.0
H337 H 0.12081 0.98201 0.60185 0.0
H338 H 0.1739 0.95009 0.66431 0.0
H339 H 0.20435 0.88786 0.70316 0.0
H340 H 0.14389 0.77058 0.65246 0.0
H341 H 0.08745 0.80359 0.59686 0.0
C342 C 0.08255 0.8838 0.58213 0.0
C343 C 0.08474 0.92606 0.5765 0.0
C344 C 0.1136 0.865 0.61659 0.0
C345 C 0.11802 0.94953 0.60641 0.0
C346 C 0.14854 0.93125 0.64187 0.0
C347 C 0.17841 0.86987 0.68049 0.0
C348 C 0.17766 0.82715 0.68207 0.0
C349 C 0.14684 0.88894 0.64702 0.0
C350 C 0.14462 0.80367 0.65182 0.0
C351 C 0.11253 0.82247 0.61997 0.0
H352 H 0.35736 0.80424 0.88322 0.0
H353 H 0.31966 0.90135 0.77799 0.0
H354 H 0.35894 0.95158 0.84807 0.0
H355 H 0.40669 0.96656 0.93759 0.0
H356 H 0.45233 0.86617 0.03162 0.0
H357 H 0.40567 0.81854 0.96918 0.0
C358 C 0.35745 0.83647 0.87568 0.0
C359 C 0.33572 0.84927 0.82569 0.0
C360 C 0.38128 0.86444 0.91451 0.0
C361 C 0.33636 0.89095 0.81622 0.0
C362 C 0.3587 0.91953 0.85626 0.0
C363 C 0.40683 0.93418 0.94362 0.0
C364 C 0.43365 0.91966 0.98806 0.0
C365 C 0.38182 0.90647 0.90516 0.0
C366 C 0.43232 0.87794 0.9972 0.0
C367 C 0.40578 0.85068 0.96144 0.0
H368 H 0.48021 0.12295 0.15076 0.0
H369 H 0.36919 0.06054 0.06791 0.0
H370 H 0.32627 0.10289 0.13107 0.0
H371 H 0.3212 0.15591 0.21311 0.0
H372 H 0.43197 0.22304 0.28736 0.0
H373 H 0.47437 0.17981 0.22573 0.0
C374 C 0.44656 0.1188 0.1464 0.0
C375 C 0.42781 0.08857 0.10517 0.0
C376 C 0.42221 0.14376 0.18185 0.0
C377 C 0.38422 0.08378 0.09927 0.0
C378 C 0.35977 0.10779 0.1356 0.0
C379 C 0.3544 0.16165 0.21482 0.0
C380 C 0.37324 0.19298 0.25436 0.0
C381 C 0.37848 0.13769 0.17742 0.0
C382 C 0.41662 0.1992 0.25728 0.0
C383 C 0.44092 0.17456 0.22193 0.0
H384 H 0.88698 0.91281 0.53243 0.0
H385 H 0.9523 0.95816 0.69607 0.0
H386 H 0.90618 0.91791 0.74618 0.0
H387 H 0.8485 0.86777 0.74357 0.0
H388 H 0.78413 0.82221 0.5794 0.0
H389 H 0.82839 0.86464 0.52997 0.0
C390 C 0.89112 0.91406 0.57907 0.0
C391 C 0.92331 0.93841 0.61019 0.0
C392 C 0.86454 0.8907 0.60776 0.0
C393 C 0.92799 0.93959 0.67073 0.0
C394 C 0.90154 0.91657 0.69958 0.0
C395 C 0.8439 0.86746 0.69706 0.0
C396 C 0.81312 0.84162 0.66539 0.0
C397 C 0.86985 0.89177 0.66855 0.0
C398 C 0.80778 0.84147 0.60501 0.0
C399 C 0.83309 0.86579 0.57655 0.0
H400 H 0.88723 0.06764 0.504 0.0
H401 H 0.99434 0.11673 0.43591 0.0
H402 H 0.94871 0.15156 0.3665 0.0
H403 H 0.87836 0.17204 0.33023 0.0
H404 H 0.77164 0.13127 0.40789 0.0
H405 H 0.81664 0.08905 0.46851 0.0
C406 C 0.90031 0.08575 0.47351 0.0
C407 C 0.94375 0.0898 0.47451 0.0
C408 C 0.8739 0.10718 0.43576 0.0
C409 C 0.96081 0.11358 0.4357 0.0
C410 C 0.93479 0.13337 0.39611 0.0
C411 C 0.86503 0.15328 0.35976 0.0
C412 C 0.82189 0.15402 0.36422 0.0
C413 C 0.8913 0.13093 0.39638 0.0
C414 C 0.80484 0.13069 0.40364 0.0
C415 C 0.83053 0.10674 0.43832 0.0
H416 H 0.693 0.14275 0.19469 0.0
H417 H 0.60585 0.24248 0.2026 0.0
H418 H 0.56029 0.20668 0.1238 0.0
H419 H 0.54423 0.14591 0.05478 0.0
H420 H 0.62982 0.04481 0.04995 0.0
H421 H 0.67738 0.08238 0.12482 0.0
C422 C 0.66416 0.15667 0.17877 0.0
C423 C 0.65268 0.19506 0.20413 0.0
C424 C 0.63801 0.13574 0.13392 0.0
C425 C 0.61513 0.21276 0.18375 0.0
C426 C 0.58917 0.1924 0.13864 0.0
C427 C 0.57358 0.13244 0.06965 0.0
C428 C 0.58382 0.09292 0.04688 0.0
C429 C 0.60019 0.15378 0.11362 0.0
C430 C 0.62152 0.07536 0.06695 0.0
C431 C 0.64859 0.09673 0.10979 0.0
H432 H 0.69993 0.85226 0.82861 0.0
H433 H 0.58955 0.78891 0.74514 0.0
H434 H 0.54572 0.83549 0.80004 0.0
H435 H 0.53861 0.89381 0.87264 0.0
H436 H 0.64881 0.95222 0.96466 0.0
H437 H 0.69303 0.90732 0.907 0.0
C438 C 0.6664 0.84819 0.82328 0.0
C439 C 0.64812 0.8169 0.78326 0.0
C440 C 0.64138 0.87412 0.85674 0.0
C441 C 0.60445 0.81267 0.77579 0.0
C442 C 0.57932 0.83927 0.80721 0.0
C443 C 0.57233 0.89664 0.87999 0.0
C444 C 0.59052 0.92638 0.92239 0.0
C445 C 0.59743 0.87003 0.84789 0.0
C446 C 0.63418 0.92942 0.93226 0.0
C447 C 0.65942 0.9039 0.89917 0.0
H448 H 0.58003 0.55419 0.86111 0.0
H449 H 0.63274 0.6032 0.03045 0.0
H450 H 0.67602 0.65094 0.98739 0.0
H451 H 0.69726 0.68022 0.9018 0.0
H452 H 0.645 0.6303 0.7326 0.0
H453 H 0.60343 0.58123 0.77567 0.0
C454 C 0.60119 0.57501 0.88873 0.0
C455 C 0.60299 0.57501 0.94899 0.0
C456 C 0.62603 0.60234 0.86372 0.0
C457 C 0.6307 0.60236 0.98393 0.0
C458 C 0.65542 0.62979 0.95935 0.0
C459 C 0.67683 0.6586 0.87428 0.0
C460 C 0.67413 0.6592 0.81401 0.0
C461 C 0.65305 0.63031 0.89931 0.0
C462 C 0.64777 0.63061 0.77909 0.0
C463 C 0.62388 0.60254 0.80368 0.0
H464 H 0.67404 0.29953 0.11268 0.0
H465 H 0.69126 0.38713 0.26332 0.0
H466 H 0.6473 0.43625 0.21332 0.0
H467 H 0.60108 0.45245 0.12788 0.0
H468 H 0.5802 0.36175 0.98188 0.0
H469 H 0.62923 0.31577 0.02855 0.0
C470 C 0.66863 0.32949 0.13464 0.0
C471 C 0.68602 0.33965 0.19169 0.0
C472 C 0.64272 0.357 0.10627 0.0
C473 C 0.6782 0.37851 0.21943 0.0
C474 C 0.65311 0.40659 0.19084 0.0
C475 C 0.60768 0.42293 0.10625 0.0
C476 C 0.58717 0.41058 0.05162 0.0
C477 C 0.63482 0.39598 0.13441 0.0
C478 C 0.59557 0.37187 0.0241 0.0
C479 C 0.62353 0.34555 0.05076 0.0
H480 H 0.94553 0.42302 0.39857 0.0
H481 H 0.89436 0.38941 0.55124 0.0
H482 H 0.8448 0.34248 0.49215 0.0
H483 H 0.81773 0.3096 0.39746 0.0
H484 H 0.86329 0.34832 0.24395 0.0
H485 H 0.91324 0.39525 0.30293 0.0
C486 C 0.92304 0.40598 0.41875 0.0
C487 C 0.92344 0.40972 0.47904 0.0
C488 C 0.89379 0.38006 0.38442 0.0
C489 C 0.89458 0.38702 0.50483 0.0
C490 C 0.86627 0.36021 0.47112 0.0
C491 C 0.83798 0.3289 0.37691 0.0
C492 C 0.83678 0.3257 0.3166 0.0
C493 C 0.86575 0.35638 0.41094 0.0
C494 C 0.86362 0.35041 0.29041 0.0
C495 C 0.89223 0.3771 0.32408 0.0
H496 H 0.79238 0.65824 0.64449 0.0
H497 H 0.88976 0.70285 0.77525 0.0
H498 H 0.93664 0.65021 0.7395 0.0
H499 H 0.95101 0.5931 0.66978 0.0
H500 H 0.85738 0.55213 0.53187 0.0
H501 H 0.80792 0.60171 0.57133 0.0
C502 C 0.82381 0.65632 0.66496 0.0
C503 C 0.83754 0.68433 0.7124 0.0
C504 C 0.85124 0.62666 0.64288 0.0
C505 C 0.87849 0.68174 0.73849 0.0
C506 C 0.90533 0.65159 0.71819 0.0
C507 C 0.91961 0.59469 0.64867 0.0
C508 C 0.90759 0.56873 0.59848 0.0
C509 C 0.89213 0.62409 0.67029 0.0
C510 C 0.86719 0.57176 0.57078 0.0
C511 C 0.83899 0.60009 0.5933 0.0
H512 H 0.32656 0.32537 0.14161 0.0
H513 H 0.37787 0.37679 0.31057 0.0
H514 H 0.42235 0.42297 0.26703 0.0
H515 H 0.44845 0.44707 0.18135 0.0
H516 H 0.39628 0.39712 1.01225 0.0
H517 H 0.35052 0.35185 0.05564 0.0
C518 C 0.34735 0.34676 0.16897 0.0
C519 C 0.34895 0.34741 0.22931 0.0
C520 C 0.37284 0.37337 0.14367 0.0
C521 C 0.37588 0.3756 0.26403 0.0
C522 C 0.40148 0.40197 0.23918 0.0
C523 C 0.42696 0.42651 0.15389 0.0
C524 C 0.42592 0.42554 0.09363 0.0
C525 C 0.40048 0.40086 0.17909 0.0
C526 C 0.39772 0.39863 0.05879 0.0
C527 C 0.37156 0.37266 0.08355 0.0
H528 H 0.48464 0.62138 0.94496 0.0
H529 H 0.38772 0.5485 1.00166 0.0
H530 H 0.33457 0.58477 0.94449 0.0
H531 H 0.3158 0.63909 0.88105 0.0
H532 H 0.41307 0.70687 0.81618 0.0
H533 H 0.46621 0.67056 0.87326 0.0
C534 C 0.45183 0.61359 0.94457 0.0
C535 C 0.43971 0.58309 0.97793 0.0
C536 C 0.42173 0.63349 0.91003 0.0
C537 C 0.39743 0.57224 0.97639 0.0
C538 C 0.36715 0.59292 0.94382 0.0
C539 C 0.34869 0.64551 0.87915 0.0
C540 C 0.36074 0.67556 0.84496 0.0
C541 C 0.37893 0.62384 0.91087 0.0
C542 C 0.40329 0.68356 0.84209 0.0
C543 C 0.43358 0.66304 0.87493 0.0
H544 H 0.12685 0.695 0.72005 0.0
H545 H 0.24109 0.65598 0.65091 0.0
H546 H 0.20182 0.60668 0.58002 0.0
H547 H 0.13428 0.57318 0.53997 0.0
H548 H 0.02239 0.60876 0.6184 0.0
H549 H 0.06136 0.66082 0.68362 0.0
C550 C 0.14325 0.67578 0.68942 0.0
C551 C 0.18668 0.67942 0.69009 0.0
C552 C 0.12077 0.64679 0.65063 0.0
C553 C 0.20754 0.65411 0.65054 0.0
C554 C 0.18511 0.62581 0.61028 0.0
C555 C 0.11868 0.59262 0.57121 0.0
C556 C 0.07568 0.5875 0.57442 0.0
C557 C 0.14164 0.62174 0.6101 0.0
C558 C 0.05556 0.61222 0.61541 0.0
C559 C 0.07776 0.64199 0.65264 0.0
H560 H 0.22118 0.33875 0.41282 0.0
H561 H 0.13997 0.31389 0.2558 0.0
H562 H 0.09027 0.36405 0.29099 0.0
H563 H 0.06786 0.4119 0.36804 0.0
H564 H 0.14564 0.43372 0.52882 0.0
H565 H 0.19865 0.38806 0.49074 0.0
C566 C 0.19286 0.34484 0.38628 0.0
C567 C 0.18426 0.32291 0.33183 0.0
C568 C 0.16366 0.37293 0.40762 0.0
C569 C 0.14714 0.33039 0.298 0.0
C570 C 0.11871 0.35906 0.31805 0.0
C571 C 0.09657 0.40706 0.39465 0.0
C572 C 0.10275 0.42624 0.45117 0.0
C573 C 0.12633 0.38005 0.37307 0.0
C574 C 0.14001 0.41922 0.48519 0.0
C575 C 0.17036 0.39312 0.46344 0.0
H576 H 0.9958 0.06777 0.95143 0.0
H577 H 0.05662 0.95242 0.91263 0.0
H578 H 0.0488 0.93387 1.00948 0.0
H579 H 0.02579 0.95063 0.10611 0.0
H580 H 0.96475 0.06589 0.14483 0.0
H581 H 0.97271 0.0845 0.04808 0.0
C582 C 1.00768 0.03869 0.96418 0.0
C583 C 0.0267 0.01157 0.92421 0.0
C584 C 1.00338 0.02824 1.02038 0.0
C585 C 0.04126 0.97374 0.94175 0.0
C586 C 0.03708 0.96318 0.99746 0.0
C587 C 0.01387 0.9797 0.09338 0.0
C588 C 0.99476 0.00677 0.13332 0.0
C589 C 0.01819 0.99016 0.03719 0.0
C590 C 0.98019 0.0446 0.11577 0.0
C591 C 0.98445 0.0552 0.0601 0.0
H592 H 0.32695 0.71004 0.34473 0.0
H593 H 0.29126 0.83412 0.39694 0.0
H594 H 0.27734 0.84736 0.29613 0.0
H595 H 0.27299 0.82302 0.19319 0.0
H596 H 0.30851 0.69892 0.14112 0.0
H597 H 0.32616 0.68688 0.24182 0.0
C598 C 0.31681 0.74022 0.33416 0.0
C599 C 0.30994 0.77093 0.37852 0.0
C600 C 0.30898 0.7477 0.27607 0.0
C601 C 0.29616 0.80967 0.36379 0.0
C602 C 0.2884 0.81736 0.30611 0.0
C603 C 0.28459 0.79333 0.20389 0.0
C604 C 0.28923 0.76188 0.15965 0.0
C605 C 0.29419 0.78644 0.26192 0.0
C606 C 0.30501 0.72381 0.17422 0.0
C607 C 0.3148 0.71679 0.23185 0.0
H608 H 0.45486 0.98212 0.58207 0.0
H609 H 0.55554 0.06696 0.64502 0.0
H610 H 0.57673 0.06676 0.5477 0.0
H611 H 0.56617 0.04325 0.44429 0.0
H612 H 0.46536 0.95852 0.3815 0.0
H613 H 0.44419 0.95878 0.47878 0.0
C614 C 0.48121 1.00088 0.57449 0.0
C615 C 0.50355 0.02448 0.62104 0.0
C616 C 0.49309 1.00086 0.51827 0.0
C617 C 0.53807 0.04805 0.61031 0.0
C618 C 0.55008 0.04817 0.55453 0.0
C619 C 0.53975 0.0246 0.45192 0.0
C620 C 0.51737 1.00099 0.40542 0.0
C621 C 0.52784 0.02468 0.50816 0.0
C622 C 0.48283 0.97747 0.41617 0.0
C623 C 0.47083 0.97737 0.47193 0.0
H624 H 0.24458 0.20011 0.86417 0.0
H625 H 0.31254 0.30851 0.94223 0.0
H626 H 0.32745 0.32597 0.84723 0.0
H627 H 0.31994 0.31141 0.74168 0.0
H628 H 0.25182 0.20304 0.66386 0.0
H629 H 0.23716 0.18551 0.75885 0.0
C630 C 0.26235 0.22778 0.86051 0.0
C631 C 0.27736 0.25289 0.91062 0.0
C632 C 0.27047 0.23793 0.80561 0.0
C633 C 0.30101 0.28822 0.90473 0.0
C634 C 0.30932 0.29844 0.85028 0.0
C635 C 0.30218 0.28375 0.74543 0.0
C636 C 0.28697 0.2587 0.69535 0.0
C637 C 0.29414 0.27358 0.80039 0.0
C638 C 0.26343 0.22332 0.70133 0.0
C639 C 0.25527 0.21305 0.75578 0.0
H640 H 0.82232 0.21315 0.85967 0.0
H641 H 0.70475 0.26594 0.9 0.0
H642 H 0.69024 0.28289 0.80097 0.0
H643 H 0.70972 0.28095 0.70223 0.0
H644 H 0.82728 0.22854 0.66117 0.0
H645 H 0.84249 0.21245 0.76072 0.0
C646 C 0.79343 0.22818 0.8467 0.0
C647 C 0.76476 0.23832 0.88741 0.0
C648 C 0.78512 0.23769 0.78941 0.0
C649 C 0.72769 0.25828 0.86993 0.0
C650 C 0.71921 0.26777 0.81314 0.0
C651 C 0.73898 0.26654 0.71513 0.0
C652 C 0.76729 0.25604 0.67405 0.0
C653 C 0.74763 0.25755 0.77249 0.0
C654 C 0.80465 0.23659 0.69156 0.0
C655 C 0.81349 0.22753 0.74861 0.0
H656 H 0.67939 0.75628 0.31599 0.0
H657 H 0.80574 0.71879 0.36138 0.0
H658 H 0.82338 0.72835 0.26448 0.0
H659 H 0.80279 0.74636 0.16632 0.0
H660 H 0.6764 0.78361 0.12082 0.0
H661 H 0.6587 0.7739 0.21768 0.0
C662 C 0.71071 0.7498 0.30462 0.0
C663 C 0.74116 0.73686 0.34623 0.0
C664 C 0.72059 0.755 0.24855 0.0
C665 C 0.78177 0.72934 0.33072 0.0
C666 C 0.79184 0.73452 0.27509 0.0
C667 C 0.77144 0.75268 0.17766 0.0
C668 C 0.74101 0.76572 0.13611 0.0
C669 C 0.76151 0.74734 0.23366 0.0
C670 C 0.70035 0.77304 0.15151 0.0
C671 C 0.69025 0.76777 0.20709 0.0
H672 H 0.45275 0.51101 0.59768 0.0
H673 H 0.57564 0.46322 0.639 0.0
H674 H 0.59316 0.47156 0.54167 0.0
H675 H 0.57314 0.49113 0.44404 0.0
H676 H 0.45004 0.53857 0.40299 0.0
H677 H 0.43272 0.53039 0.50035 0.0
C678 C 0.48325 0.50203 0.58533 0.0
C679 C 0.51277 0.48649 0.62583 0.0
C680 C 0.493 0.50647 0.52905 0.0
C681 C 0.55244 0.47578 0.60914 0.0
C682 C 0.56241 0.48025 0.55327 0.0
C683 C 0.54262 0.49996 0.45648 0.0
C684 C 0.51293 0.51532 0.41599 0.0
C685 C 0.53291 0.4955 0.51283 0.0
C686 C 0.47332 0.52605 0.43281 0.0
C687 C 0.46346 0.52169 0.48869 0.0
H688 H 0.06766 0.49343 0.95484 0.0
H689 H 0.93808 0.4745 0.89108 0.0
H690 H 0.91833 0.48268 0.98953 0.0
H691 H 0.93794 0.4944 0.0938 0.0
H692 H 0.06756 0.51308 0.15743 0.0
H693 H 0.08729 0.50475 0.059 0.0
C694 C 0.03513 0.49071 0.9625 0.0
C695 C 1.00442 0.48342 0.91564 0.0
C696 C 0.02402 0.49514 1.0192 0.0
C697 C 0.96232 0.48065 0.92631 0.0
C698 C 0.95101 0.48507 0.98261 0.0
C699 C 0.97047 0.49692 0.08608 0.0
C700 C 1.00121 0.50427 0.13289 0.0
C701 C 0.98159 0.49235 0.02937 0.0
C702 C 0.04331 0.50688 0.12221 0.0
C703 C 0.05461 0.50239 0.06593 0.0
loop_
_geom_bond_atom_site_label_1
_geom_bond_atom_site_label_2
_geom_bond_distance
_geom_bond_site_symmetry_2
_ccdc_geom_bond_type
C0 Eu1 2.835 1_655 S
C0 C2 1.500 . S
C0 O20 1.257 1_655 S
C0 O21 1.260 . S
Eu1 C0 2.835 1_455 S
Eu1 O20 2.473 . S
Eu1 O21 2.480 1_455 S
Eu1 O22 2.430 1_455 S
Eu1 O23 2.670 1_455 S
Eu1 O24 2.394 1_445 S
Eu1 O29 2.355 1_545 S
Eu1 O31 2.374 . S
C2 C0 1.500 . S
C2 C3 1.377 . S
C2 C7 1.354 1_645 S
C3 C2 1.377 . S
C3 C4 1.395 . S
C3 H32 0.931 . S
C4 C3 1.395 . S
C4 C5 1.383 . S
C4 H33 0.931 . S
C5 C4 1.383 . S
C5 C6 1.376 1_545 S
C6 C5 1.376 1_565 S
C6 C7 1.372 1_655 S
C6 H34 0.953 1_655 S
C7 C2 1.354 1_465 S
C7 C6 1.372 1_455 S
C7 H35 0.956 . S
C8 O22 1.259 . S
C8 O23 1.270 . S
C9 O24 1.251 . S
C9 O25 1.251 . S
C10 Eu11 2.835 1_455 S
C10 C12 1.500 . S
C10 O26 1.257 1_455 S
C10 O27 1.260 . S
Eu11 C10 2.835 1_655 S
Eu11 O23 2.355 1_565 S
Eu11 O25 2.374 . S
Eu11 O26 2.473 . S
Eu11 O27 2.480 1_655 S
Eu11 O28 2.430 1_655 S
Eu11 O29 2.670 1_655 S
Eu11 O30 2.394 1_665 S
C12 C10 1.500 . S
C12 C13 1.377 . S
C12 C17 1.350 1_465 S
C13 C12 1.377 . S
C13 C14 1.395 . S
C13 H36 0.931 . S
C14 C13 1.395 . S
C14 C15 1.383 . S
C14 H37 0.931 . S
C15 C14 1.383 . S
C15 C16 1.394 1_565 S
C16 C15 1.394 1_545 S
C16 C17 1.379 1_455 S
C16 H38 0.931 1_455 S
C17 C12 1.350 1_645 S
C17 C16 1.379 1_655 S
C17 H39 0.957 . S
C18 O28 1.259 . S
C18 O29 1.270 . S
C19 O30 1.251 . S
C19 O31 1.251 . S
O20 C0 1.257 1_455 S
O20 Eu1 2.473 . S
O21 C0 1.260 . S
O21 Eu1 2.480 1_655 S
O22 Eu1 2.430 1_655 S
O22 C8 1.259 . S
O23 Eu1 2.670 1_655 S
O23 C8 1.270 . S
O23 Eu11 2.355 1_545 S
O24 Eu1 2.394 1_665 S
O24 C9 1.251 . S
O25 C9 1.251 . S
O25 Eu11 2.374 . S
O26 C10 1.257 1_655 S
O26 Eu11 2.473 . S
O27 C10 1.260 . S
O27 Eu11 2.480 1_455 S
O28 Eu11 2.430 1_455 S
O28 C18 1.259 . S
O29 Eu1 2.355 1_565 S
O29 Eu11 2.670 1_455 S
O29 C18 1.270 . S
O30 Eu11 2.394 1_445 S
O30 C19 1.251 . S
O31 Eu1 2.374 . S
O31 C19 1.251 . S
H32 C3 0.931 . S
H33 C4 0.931 . S
H34 C6 0.953 1_455 S
H35 C7 0.956 . S
H36 C13 0.931 . S
H37 C14 0.931 . S
H38 C16 0.931 1_655 S
H39 C17 0.957 . S
C40 Eu41 2.835 . S
C40 C42 1.500 . S
C40 O60 1.257 . S
C40 O61 1.260 . S
Eu41 C40 2.835 . S
Eu41 O60 2.473 . S
Eu41 O61 2.480 . S
Eu41 O62 2.430 . S
Eu41 O63 2.670 . S
Eu41 O64 2.394 . S
Eu41 O69 2.355 . S
Eu41 O71 2.374 . S
C42 C40 1.500 . S
C42 C43 1.375 1_556 S
C42 C47 1.377 1_556 S
C43 C42 1.375 1_554 S
C43 C44 1.398 . S
C43 H72 0.929 1_554 S
C44 C43 1.398 . S
C44 C45 1.383 . S
C44 H73 0.931 . S
C45 C44 1.383 . S
C45 C46 1.394 . S
C46 C45 1.394 . S
C46 C47 1.378 . S
C46 H74 0.931 . S
C47 C42 1.377 1_554 S
C47 C46 1.378 . S
C47 H75 0.931 . S
C48 O62 1.259 . S
C48 O63 1.270 . S
C49 O64 1.251 . S
C49 O65 1.251 . S
C50 Eu51 2.835 . S
C50 C52 1.500 . S
C50 O66 1.257 . S
C50 O67 1.260 . S
Eu51 C50 2.835 . S
Eu51 O63 2.355 . S
Eu51 O65 2.374 . S
Eu51 O66 2.473 . S
Eu51 O67 2.480 . S
Eu51 O68 2.430 . S
Eu51 O69 2.670 . S
Eu51 O70 2.394 . S
C52 C50 1.500 . S
C52 C53 1.377 . S
C52 C57 1.377 . S
C53 C52 1.377 . S
C53 C54 1.395 . S
C53 H76 0.931 . S
C54 C53 1.395 . S
C54 C55 1.383 . S
C54 H77 0.931 . S
C55 C54 1.383 . S
C55 C56 1.394 . S
C56 C55 1.394 . S
C56 C57 1.378 . S
C56 H78 0.931 . S
C57 C52 1.377 . S
C57 C56 1.378 . S
C57 H79 0.931 . S
C58 O68 1.259 . S
C58 O69 1.270 . S
C59 O70 1.251 . S
C59 O71 1.251 . S
O60 C40 1.257 . S
O60 Eu41 2.473 . S
O61 C40 1.260 . S
O61 Eu41 2.480 . S
O62 Eu41 2.430 . S
O62 C48 1.259 . S
O63 Eu41 2.670 . S
O63 C48 1.270 . S
O63 Eu51 2.355 . S
O64 Eu41 2.394 . S
O64 C49 1.251 . S
O65 C49 1.251 . S
O65 Eu51 2.374 . S
O66 C50 1.257 . S
O66 Eu51 2.473 . S
O67 C50 1.260 . S
O67 Eu51 2.480 . S
O68 Eu51 2.430 . S
O68 C58 1.259 . S
O69 Eu41 2.355 . S
O69 Eu51 2.670 . S
O69 C58 1.270 . S
O70 Eu51 2.394 . S
O70 C59 1.251 . S
O71 Eu41 2.374 . S
O71 C59 1.251 . S
H72 C43 0.929 1_556 S
H73 C44 0.931 . S
H74 C46 0.931 . S
H75 C47 0.931 . S
H76 C53 0.931 . S
H77 C54 0.931 . S
H78 C56 0.931 . S
H79 C57 0.931 . S
C80 Eu81 2.835 . S
C80 C82 1.500 . S
C80 O100 1.257 1_545 S
C80 O101 1.260 . S
Eu81 C80 2.835 . S
Eu81 O100 2.473 1_545 S
Eu81 O101 2.480 . S
Eu81 O102 2.430 . S
Eu81 O103 2.670 1_556 S
Eu81 O104 2.394 1_545 S
Eu81 O109 2.355 1_545 S
Eu81 O111 2.374 1_556 S
C82 C80 1.500 . S
C82 C83 1.377 . S
C82 C87 1.377 1_545 S
C83 C82 1.377 . S
C83 C84 1.395 . S
C83 H112 0.931 . S
C84 C83 1.395 . S
C84 C85 1.383 . S
C84 H113 0.931 . S
C85 C84 1.383 . S
C85 C86 1.394 1_545 S
C86 C85 1.394 1_565 S
C86 C87 1.378 . S
C86 H114 0.931 . S
C87 C82 1.377 1_565 S
C87 C86 1.378 . S
C87 H115 0.931 . S
C88 O102 1.259 1_554 S
C88 O103 1.270 . S
C89 O104 1.251 . S
C89 O105 1.251 . S
C90 Eu91 2.835 . S
C90 C92 1.500 . S
C90 O106 1.257 1_565 S
C90 O107 1.260 . S
Eu91 C90 2.835 . S
Eu91 O103 2.355 1_565 S
Eu91 O105 2.374 1_554 S
Eu91 O106 2.473 1_565 S
Eu91 O107 2.480 . S
Eu91 O108 2.430 . S
Eu91 O109 2.670 1_554 S
Eu91 O110 2.394 1_565 S
C92 C90 1.500 . S
C92 C93 1.377 . S
C92 C97 1.377 1_565 S
C93 C92 1.377 . S
C93 C94 1.395 . S
C93 H116 0.931 . S
C94 C93 1.395 . S
C94 C95 1.383 . S
C94 H117 0.931 . S
C95 C94 1.383 . S
C95 C96 1.394 1_565 S
C96 C95 1.394 1_545 S
C96 C97 1.378 . S
C96 H118 0.931 . S
C97 C92 1.377 1_545 S
C97 C96 1.378 . S
C97 H119 0.931 . S
C98 O108 1.259 1_556 S
C98 O109 1.270 . S
C99 O110 1.251 . S
C99 O111 1.251 . S
O100 C80 1.257 1_565 S
O100 Eu81 2.473 1_565 S
O101 C80 1.260 . S
O101 Eu81 2.480 . S
O102 Eu81 2.430 . S
O102 C88 1.259 1_556 S
O103 Eu81 2.670 1_554 S
O103 C88 1.270 . S
O103 Eu91 2.355 1_545 S
O104 Eu81 2.394 1_565 S
O104 C89 1.251 . S
O105 C89 1.251 . S
O105 Eu91 2.374 1_556 S
O106 C90 1.257 1_545 S
O106 Eu91 2.473 1_545 S
O107 C90 1.260 . S
O107 Eu91 2.480 . S
O108 Eu91 2.430 . S
O108 C98 1.259 1_554 S
O109 Eu81 2.355 1_565 S
O109 Eu91 2.670 1_556 S
O109 C98 1.270 . S
O110 Eu91 2.394 1_545 S
O110 C99 1.251 . S
O111 Eu81 2.374 1_554 S
O111 C99 1.251 . S
H112 C83 0.931 . S
H113 C84 0.931 . S
H114 C86 0.931 . S
H115 C87 0.931 . S
H116 C93 0.931 . S
H117 C94 0.931 . S
H118 C96 0.931 . S
H119 C97 0.931 . S
C120 Eu121 2.835 . S
C120 C122 1.500 . S
C120 O140 1.257 . S
C120 O141 1.260 . S
Eu121 C120 2.835 . S
Eu121 O140 2.473 . S
Eu121 O141 2.480 . S
Eu121 O142 2.430 . S
Eu121 O143 2.670 . S
Eu121 O144 2.394 . S
Eu121 O149 2.355 . S
Eu121 O151 2.374 . S
C122 C120 1.500 . S
C122 C123 1.377 1_554 S
C122 C127 1.377 1_554 S
C123 C122 1.377 1_556 S
C123 C124 1.395 . S
C123 H152 0.931 1_556 S
C124 C123 1.395 . S
C124 C125 1.383 . S
C124 H153 0.931 . S
C125 C124 1.383 . S
C125 C126 1.394 . S
C126 C125 1.394 . S
C126 C127 1.378 . S
C126 H154 0.931 . S
C127 C122 1.377 1_556 S
C127 C126 1.378 . S
C127 H155 0.931 1_556 S
C128 O142 1.259 . S
C128 O143 1.270 . S
C129 O144 1.251 . S
C129 O145 1.251 . S
C130 Eu131 2.835 . S
C130 C132 1.500 . S
C130 O146 1.257 . S
C130 O147 1.260 . S
Eu131 C130 2.835 . S
Eu131 O143 2.355 . S
Eu131 O145 2.374 . S
Eu131 O146 2.473 . S
Eu131 O147 2.480 . S
Eu131 O148 2.430 . S
Eu131 O149 2.670 . S
Eu131 O150 2.394 . S
C132 C130 1.500 . S
C132 C133 1.377 . S
C132 C137 1.377 . S
C133 C132 1.377 . S
C133 C134 1.395 . S
C133 H156 0.931 . S
C134 C133 1.395 . S
C134 C135 1.383 . S
C134 H157 0.931 . S
C135 C134 1.383 . S
C135 C136 1.394 . S
C136 C135 1.394 . S
C136 C137 1.378 . S
C136 H158 0.931 . S
C137 C132 1.377 . S
C137 C136 1.378 . S
C137 H159 0.931 . S
C138 O148 1.259 . S
C138 O149 1.270 . S
C139 O150 1.251 . S
C139 O151 1.251 . S
O140 C120 1.257 . S
O140 Eu121 2.473 . S
O141 C120 1.260 . S
O141 Eu121 2.480 . S
O142 Eu121 2.430 . S
O142 C128 1.259 . S
O143 Eu121 2.670 . S
O143 C128 1.270 . S
O143 Eu131 2.355 . S
O144 Eu121 2.394 . S
O144 C129 1.251 . S
O145 C129 1.251 . S
O145 Eu131 2.374 . S
O146 C130 1.257 . S
O146 Eu131 2.473 . S
O147 C130 1.260 . S
O147 Eu131 2.480 . S
O148 Eu131 2.430 . S
O148 C138 1.259 . S
O149 Eu121 2.355 . S
O149 Eu131 2.670 . S
O149 C138 1.270 . S
O150 Eu131 2.394 . S
O150 C139 1.251 . S
O151 Eu121 2.374 . S
O151 C139 1.251 . S
H152 C123 0.931 1_554 S
H153 C124 0.931 . S
H154 C126 0.931 . S
H155 C127 0.931 1_554 S
H156 C133 0.931 . S
H157 C134 0.931 . S
H158 C136 0.931 . S
H159 C137 0.931 . S
C160 Eu161 2.835 . S
C160 C162 1.500 . S
C160 O180 1.257 . S
C160 O181 1.260 . S
Eu161 C160 2.835 . S
Eu161 O180 2.473 . S
Eu161 O181 2.480 . S
Eu161 O182 2.430 . S
Eu161 O183 2.670 . S
Eu161 O184 2.394 . S
Eu161 O189 2.355 . S
Eu161 O191 2.374 . S
C162 C160 1.500 . S
C162 C163 1.377 . S
C162 C167 1.377 . S
C163 C162 1.377 . S
C163 C164 1.395 . S
C163 H192 0.931 . S
C164 C163 1.395 . S
C164 C165 1.383 . S
C164 H193 0.931 . S
C165 C164 1.383 . S
C165 C166 1.394 . S
C166 C165 1.394 . S
C166 C167 1.378 . S
C166 H194 0.931 . S
C167 C162 1.377 . S
C167 C166 1.378 . S
C167 H195 0.931 . S
C168 O182 1.259 . S
C168 O183 1.270 . S
C169 O184 1.251 . S
C169 O185 1.251 . S
C170 Eu171 2.835 . S
C170 C172 1.500 . S
C170 O186 1.257 . S
C170 O187 1.260 . S
Eu171 C170 2.835 . S
Eu171 O183 2.355 . S
Eu171 O185 2.374 . S
Eu171 O186 2.473 . S
Eu171 O187 2.480 . S
Eu171 O188 2.430 . S
Eu171 O189 2.670 . S
Eu171 O190 2.394 . S
C172 C170 1.500 . S
C172 C173 1.376 1_554 S
C172 C177 1.377 1_554 S
C173 C172 1.376 1_556 S
C173 C174 1.396 . S
C173 H196 0.930 1_556 S
C174 C173 1.396 . S
C174 C175 1.383 . S
C174 H197 0.931 . S
C175 C174 1.383 . S
C175 C176 1.394 . S
C176 C175 1.394 . S
C176 C177 1.378 . S
C176 H198 0.931 . S
C177 C172 1.377 1_556 S
C177 C176 1.378 . S
C177 H199 0.931 . S
C178 O188 1.259 . S
C178 O189 1.270 . S
C179 O190 1.251 . S
C179 O191 1.251 . S
O180 C160 1.257 . S
O180 Eu161 2.473 . S
O181 C160 1.260 . S
O181 Eu161 2.480 . S
O182 Eu161 2.430 . S
O182 C168 1.259 . S
O183 Eu161 2.670 . S
O183 C168 1.270 . S
O183 Eu171 2.355 . S
O184 Eu161 2.394 . S
O184 C169 1.251 . S
O185 C169 1.251 . S
O185 Eu171 2.374 . S
O186 C170 1.257 . S
O186 Eu171 2.473 . S
O187 C170 1.260 . S
O187 Eu171 2.480 . S
O188 Eu171 2.430 . S
O188 C178 1.259 . S
O189 Eu161 2.355 . S
O189 Eu171 2.670 . S
O189 C178 1.270 . S
O190 Eu171 2.394 . S
O190 C179 1.251 . S
O191 Eu161 2.374 . S
O191 C179 1.251 . S
H192 C163 0.931 . S
H193 C164 0.931 . S
H194 C166 0.931 . S
H195 C167 0.931 . S
H196 C173 0.930 1_554 S
H197 C174 0.931 . S
H198 C176 0.931 . S
H199 C177 0.931 . S
C200 Eu201 2.835 . S
C200 C202 1.500 . S
C200 O220 1.257 . S
C200 O221 1.260 . S
Eu201 C200 2.835 . S
Eu201 O220 2.473 . S
Eu201 O221 2.480 . S
Eu201 O222 2.430 . S
Eu201 O223 2.670 . S
Eu201 O224 2.394 . S
Eu201 O229 2.355 . S
Eu201 O231 2.374 . S
C202 C200 1.500 . S
C202 C203 1.377 . S
C202 C207 1.377 . S
C203 C202 1.377 . S
C203 C204 1.395 . S
C203 H232 0.931 . S
C204 C203 1.395 . S
C204 C205 1.383 . S
C204 H233 0.931 . S
C205 C204 1.383 . S
C205 C206 1.394 . S
C206 C205 1.394 . S
C206 C207 1.378 . S
C206 H234 0.931 . S
C207 C202 1.377 . S
C207 C206 1.378 . S
C207 H235 0.931 . S
C208 O222 1.259 . S
C208 O223 1.270 . S
C209 O224 1.251 . S
C209 O225 1.251 . S
C210 Eu211 2.835 . S
C210 C212 1.500 . S
C210 O226 1.257 . S
C210 O227 1.260 . S
Eu211 C210 2.835 . S
Eu211 O223 2.355 . S
Eu211 O225 2.374 . S
Eu211 O226 2.473 . S
Eu211 O227 2.480 . S
Eu211 O228 2.430 . S
Eu211 O229 2.670 . S
Eu211 O230 2.394 . S
C212 C210 1.500 . S
C212 C213 1.377 1_556 S
C212 C217 1.377 1_556 S
C213 C212 1.377 1_554 S
C213 C214 1.395 . S
C213 H236 0.931 1_554 S
C214 C213 1.395 . S
C214 C215 1.383 . S
C214 H237 0.931 . S
C215 C214 1.383 . S
C215 C216 1.394 . S
C216 C215 1.394 . S
C216 C217 1.378 . S
C216 H238 0.931 . S
C217 C212 1.377 1_554 S
C217 C216 1.378 . S
C217 H239 0.931 1_554 S
C218 O228 1.259 . S
C218 O229 1.270 . S
C219 O230 1.251 . S
C219 O231 1.251 . S
O220 C200 1.257 . S
O220 Eu201 2.473 . S
O221 C200 1.260 . S
O221 Eu201 2.480 . S
O222 Eu201 2.430 . S
O222 C208 1.259 . S
O223 Eu201 2.670 . S
O223 C208 1.270 . S
O223 Eu211 2.355 . S
O224 Eu201 2.394 . S
O224 C209 1.251 . S
O225 C209 1.251 . S
O225 Eu211 2.374 . S
O226 C210 1.257 . S
O226 Eu211 2.473 . S
O227 C210 1.260 . S
O227 Eu211 2.480 . S
O228 Eu211 2.430 . S
O228 C218 1.259 . S
O229 Eu201 2.355 . S
O229 Eu211 2.670 . S
O229 C218 1.270 . S
O230 Eu211 2.394 . S
O230 C219 1.251 . S
O231 Eu201 2.374 . S
O231 C219 1.251 . S
H232 C203 0.931 . S
H233 C204 0.931 . S
H234 C206 0.931 . S
H235 C207 0.931 . S
H236 C213 0.931 1_556 S
H237 C214 0.931 . S
H238 C216 0.931 . S
H239 C217 0.931 1_556 S
C240 Eu241 2.835 . S
C240 C242 1.500 . S
C240 O260 1.257 . S
C240 O261 1.260 . S
Eu241 C240 2.835 . S
Eu241 O260 2.473 . S
Eu241 O261 2.480 . S
Eu241 O262 2.430 . S
Eu241 O263 2.670 1_554 S
Eu241 O264 2.394 . S
Eu241 O269 2.355 . S
Eu241 O271 2.374 . S
C242 C240 1.500 . S
C242 C243 1.377 . S
C242 C247 1.377 . S
C243 C242 1.377 . S
C243 C244 1.395 . S
C243 H272 0.931 . S
C244 C243 1.395 . S
C244 C245 1.383 . S
C244 H273 0.931 . S
C245 C244 1.383 . S
C245 C246 1.394 . S
C246 C245 1.394 . S
C246 C247 1.378 . S
C246 H274 0.931 . S
C247 C242 1.377 . S
C247 C246 1.378 . S
C247 H275 0.931 . S
C248 O262 1.259 1_556 S
C248 O263 1.270 . S
C249 O264 1.251 . S
C249 O265 1.251 1_554 S
C250 Eu251 2.835 . S
C250 C252 1.500 . S
C250 O266 1.257 . S
C250 O267 1.260 . S
Eu251 C250 2.835 . S
Eu251 O263 2.355 . S
Eu251 O265 2.374 . S
Eu251 O266 2.473 . S
Eu251 O267 2.480 . S
Eu251 O268 2.430 . S
Eu251 O269 2.670 1_556 S
Eu251 O270 2.394 . S
C252 C250 1.500 . S
C252 C253 1.377 . S
C252 C257 1.377 . S
C253 C252 1.377 . S
C253 C254 1.395 . S
C253 H276 0.931 . S
C254 C253 1.395 . S
C254 C255 1.383 . S
C254 H277 0.931 . S
C255 C254 1.383 . S
C255 C256 1.394 . S
C256 C255 1.394 . S
C256 C257 1.378 . S
C256 H278 0.931 . S
C257 C252 1.377 . S
C257 C256 1.378 . S
C257 H279 0.931 . S
C258 O268 1.259 1_554 S
C258 O269 1.270 . S
C259 O270 1.251 . S
C259 O271 1.251 1_556 S
O260 C240 1.257 . S
O260 Eu241 2.473 . S
O261 C240 1.260 . S
O261 Eu241 2.480 . S
O262 Eu241 2.430 . S
O262 C248 1.259 1_554 S
O263 Eu241 2.670 1_556 S
O263 C248 1.270 . S
O263 Eu251 2.355 . S
O264 Eu241 2.394 . S
O264 C249 1.251 . S
O265 C249 1.251 1_556 S
O265 Eu251 2.374 . S
O266 C250 1.257 . S
O266 Eu251 2.473 . S
O267 C250 1.260 . S
O267 Eu251 2.480 . S
O268 Eu251 2.430 . S
O268 C258 1.259 1_556 S
O269 Eu241 2.355 . S
O269 Eu251 2.670 1_554 S
O269 C258 1.270 . S
O270 Eu251 2.394 . S
O270 C259 1.251 . S
O271 Eu241 2.374 . S
O271 C259 1.251 1_554 S
H272 C243 0.931 . S
H273 C244 0.931 . S
H274 C246 0.931 . S
H275 C247 0.931 . S
H276 C253 0.931 . S
H277 C254 0.931 . S
H278 C256 0.931 . S
H279 C257 0.931 . S
C280 Eu281 2.835 1_455 S
C280 C282 1.500 . S
C280 O300 1.257 1_455 S
C280 O301 1.260 . S
Eu281 C280 2.835 1_655 S
Eu281 O300 2.473 . S
Eu281 O301 2.480 1_655 S
Eu281 O302 2.430 1_655 S
Eu281 O303 2.670 1_655 S
Eu281 O304 2.394 1_655 S
Eu281 O309 2.355 . S
Eu281 O311 2.374 . S
C282 C280 1.500 . S
C282 C283 1.377 . S
C282 C287 1.371 1_455 S
C283 C282 1.377 . S
C283 C284 1.395 . S
C283 H312 0.931 . S
C284 C283 1.395 . S
C284 C285 1.383 . S
C284 H313 0.931 . S
C285 C284 1.383 . S
C285 C286 1.394 . S
C286 C285 1.394 . S
C286 C287 1.372 1_455 S
C286 H314 0.931 1_455 S
C287 C282 1.371 1_655 S
C287 C286 1.372 1_655 S
C287 H315 0.944 . S
C288 O302 1.259 . S
C288 O303 1.270 . S
C289 O304 1.251 . S
C289 O305 1.251 . S
C290 Eu291 2.835 1_655 S
C290 C292 1.500 . S
C290 O306 1.257 1_655 S
C290 O307 1.260 . S
Eu291 C290 2.835 1_455 S
Eu291 O303 2.355 . S
Eu291 O305 2.374 . S
Eu291 O306 2.473 . S
Eu291 O307 2.480 1_455 S
Eu291 O308 2.430 1_455 S
Eu291 O309 2.670 1_455 S
Eu291 O310 2.394 1_455 S
C292 C290 1.500 . S
C292 C293 1.377 . S
C292 C297 1.369 1_655 S
C293 C292 1.377 . S
C293 C294 1.395 . S
C293 H316 0.931 . S
C294 C293 1.395 . S
C294 C295 1.383 . S
C294 H317 0.931 . S
C295 C294 1.383 . S
C295 C296 1.394 . S
C296 C295 1.394 . S
C296 C297 1.371 1_655 S
C296 H318 0.931 1_655 S
C297 C292 1.369 1_455 S
C297 C296 1.371 1_455 S
C297 H319 0.947 . S
C298 O308 1.259 . S
C298 O309 1.270 . S
C299 O310 1.251 . S
C299 O311 1.251 . S
O300 C280 1.257 1_655 S
O300 Eu281 2.473 . S
O301 C280 1.260 . S
O301 Eu281 2.480 1_455 S
O302 Eu281 2.430 1_455 S
O302 C288 1.259 . S
O303 Eu281 2.670 1_455 S
O303 C288 1.270 . S
O303 Eu291 2.355 . S
O304 Eu281 2.394 1_455 S
O304 C289 1.251 . S
O305 C289 1.251 . S
O305 Eu291 2.374 . S
O306 C290 1.257 1_455 S
O306 Eu291 2.473 . S
O307 C290 1.260 . S
O307 Eu291 2.480 1_655 S
O308 Eu291 2.430 1_655 S
O308 C298 1.259 . S
O309 Eu281 2.355 . S
O309 Eu291 2.670 1_655 S
O309 C298 1.270 . S
O310 Eu291 2.394 1_655 S
O310 C299 1.251 . S
O311 Eu281 2.374 . S
O311 C299 1.251 . S
H312 C283 0.931 . S
H313 C284 0.931 . S
H314 C286 0.931 1_655 S
H315 C287 0.944 . S
H316 C293 0.931 . S
H317 C294 0.931 . S
H318 C296 0.931 1_455 S
H319 C297 0.947 . S
H320 C326 0.930 . S
H321 C329 0.930 . S
H322 C330 0.930 . S
H323 C331 0.930 . S
H324 C334 0.930 . S
H325 C335 0.930 . S
C326 H320 0.930 . S
C326 C327 1.355 . S
C326 C328 1.415 . S
C327 C326 1.355 . S
C327 C329 1.419 . S
C328 C326 1.415 . S
C328 C333 1.425 . S
C328 C335 1.409 . S
C329 H321 0.930 . S
C329 C327 1.419 . S
C329 C330 1.362 . S
C330 H322 0.930 . S
C330 C329 1.362 . S
C330 C333 1.409 . S
C331 H323 0.930 . S
C331 C332 1.355 . S
C331 C333 1.415 . S
C332 C331 1.355 . S
C332 C334 1.419 . S
C333 C328 1.425 . S
C333 C330 1.409 . S
C333 C331 1.415 . S
C334 H324 0.930 . S
C334 C332 1.419 . S
C334 C335 1.362 . S
C335 H325 0.930 . S
C335 C328 1.409 . S
C335 C334 1.362 . S
H336 C342 0.930 . S
H337 C345 0.930 . S
H338 C346 0.930 . S
H339 C347 0.930 . S
H340 C350 0.930 . S
H341 C351 0.930 . S
C342 H336 0.930 . S
C342 C343 1.355 . S
C342 C344 1.415 . S
C343 C342 1.355 . S
C343 C345 1.419 . S
C344 C342 1.415 . S
C344 C349 1.425 . S
C344 C351 1.409 . S
C345 H337 0.930 . S
C345 C343 1.419 . S
C345 C346 1.362 . S
C346 H338 0.930 . S
C346 C345 1.362 . S
C346 C349 1.409 . S
C347 H339 0.930 . S
C347 C348 1.355 . S
C347 C349 1.415 . S
C348 C347 1.355 . S
C348 C350 1.419 . S
C349 C344 1.425 . S
C349 C346 1.409 . S
C349 C347 1.415 . S
C350 H340 0.930 . S
C350 C348 1.419 . S
C350 C351 1.362 . S
C351 H341 0.930 . S
C351 C344 1.409 . S
C351 C350 1.362 . S
H352 C358 0.930 . S
H353 C361 0.930 . S
H354 C362 0.930 . S
H355 C363 0.930 . S
H356 C366 0.930 . S
H357 C367 0.930 . S
C358 H352 0.930 . S
C358 C359 1.355 . S
C358 C360 1.415 . S
C359 C358 1.355 . S
C359 C361 1.419 . S
C360 C358 1.415 . S
C360 C365 1.425 . S
C360 C367 1.409 . S
C361 H353 0.930 . S
C361 C359 1.419 . S
C361 C362 1.362 . S
C362 H354 0.930 . S
C362 C361 1.362 . S
C362 C365 1.409 . S
C363 H355 0.930 . S
C363 C364 1.355 . S
C363 C365 1.415 . S
C364 C363 1.355 . S
C364 C366 1.419 . S
C365 C360 1.425 . S
C365 C362 1.409 . S
C365 C363 1.415 . S
C366 H356 0.930 . S
C366 C364 1.419 . S
C366 C367 1.362 . S
C367 H357 0.930 . S
C367 C360 1.409 . S
C367 C366 1.362 . S
H368 C374 0.930 . S
H369 C377 0.930 . S
H370 C378 0.930 . S
H371 C379 0.930 . S
H372 C382 0.930 . S
H373 C383 0.930 . S
C374 H368 0.930 . S
C374 C375 1.355 . S
C374 C376 1.415 . S
C375 C374 1.355 . S
C375 C377 1.419 . S
C376 C374 1.415 . S
C376 C381 1.425 . S
C376 C383 1.409 . S
C377 H369 0.930 . S
C377 C375 1.419 . S
C377 C378 1.362 . S
C378 H370 0.930 . S
C378 C377 1.362 . S
C378 C381 1.409 . S
C379 H371 0.930 . S
C379 C380 1.355 . S
C379 C381 1.415 . S
C380 C379 1.355 . S
C380 C382 1.419 . S
C381 C376 1.425 . S
C381 C378 1.409 . S
C381 C379 1.415 . S
C382 H372 0.930 . S
C382 C380 1.419 . S
C382 C383 1.362 . S
C383 H373 0.930 . S
C383 C376 1.409 . S
C383 C382 1.362 . S
H384 C390 0.930 . S
H385 C393 0.930 . S
H386 C394 0.930 . S
H387 C395 0.930 . S
H388 C398 0.930 . S
H389 C399 0.930 . S
C390 H384 0.930 . S
C390 C391 1.355 . S
C390 C392 1.415 . S
C391 C390 1.355 . S
C391 C393 1.419 . S
C392 C390 1.415 . S
C392 C397 1.425 . S
C392 C399 1.409 . S
C393 H385 0.930 . S
C393 C391 1.419 . S
C393 C394 1.362 . S
C394 H386 0.930 . S
C394 C393 1.362 . S
C394 C397 1.409 . S
C395 H387 0.930 . S
C395 C396 1.355 . S
C395 C397 1.415 . S
C396 C395 1.355 . S
C396 C398 1.419 . S
C397 C392 1.425 . S
C397 C394 1.409 . S
C397 C395 1.415 . S
C398 H388 0.930 . S
C398 C396 1.419 . S
C398 C399 1.362 . S
C399 H389 0.930 . S
C399 C392 1.409 . S
C399 C398 1.362 . S
H400 C406 0.930 . S
H401 C409 0.930 . S
H402 C410 0.930 . S
H403 C411 0.930 . S
H404 C414 0.930 . S
H405 C415 0.930 . S
C406 H400 0.930 . S
C406 C407 1.355 . S
C406 C408 1.415 . S
C407 C406 1.355 . S
C407 C409 1.419 . S
C408 C406 1.415 . S
C408 C413 1.425 . S
C408 C415 1.409 . S
C409 H401 0.930 . S
C409 C407 1.419 . S
C409 C410 1.362 . S
C410 H402 0.930 . S
C410 C409 1.362 . S
C410 C413 1.409 . S
C411 H403 0.930 . S
C411 C412 1.355 . S
C411 C413 1.415 . S
C412 C411 1.355 . S
C412 C414 1.419 . S
C413 C408 1.425 . S
C413 C410 1.409 . S
C413 C411 1.415 . S
C414 H404 0.930 . S
C414 C412 1.419 . S
C414 C415 1.362 . S
C415 H405 0.930 . S
C415 C408 1.409 . S
C415 C414 1.362 . S
H416 C422 0.930 . S
H417 C425 0.930 . S
H418 C426 0.930 . S
H419 C427 0.930 . S
H420 C430 0.930 . S
H421 C431 0.930 . S
C422 H416 0.930 . S
C422 C423 1.355 . S
C422 C424 1.415 . S
C423 C422 1.355 . S
C423 C425 1.419 . S
C424 C422 1.415 . S
C424 C429 1.425 . S
C424 C431 1.409 . S
C425 H417 0.930 . S
C425 C423 1.419 . S
C425 C426 1.362 . S
C426 H418 0.930 . S
C426 C425 1.362 . S
C426 C429 1.409 . S
C427 H419 0.930 . S
C427 C428 1.355 . S
C427 C429 1.415 . S
C428 C427 1.355 . S
C428 C430 1.419 . S
C429 C424 1.425 . S
C429 C426 1.409 . S
C429 C427 1.415 . S
C430 H420 0.930 . S
C430 C428 1.419 . S
C430 C431 1.362 . S
C431 H421 0.930 . S
C431 C424 1.409 . S
C431 C430 1.362 . S
H432 C438 0.930 . S
H433 C441 0.930 . S
H434 C442 0.930 . S
H435 C443 0.930 . S
H436 C446 0.930 . S
H437 C447 0.930 . S
C438 H432 0.930 . S
C438 C439 1.355 . S
C438 C440 1.415 . S
C439 C438 1.355 . S
C439 C441 1.419 . S
C440 C438 1.415 . S
C440 C445 1.425 . S
C440 C447 1.409 . S
C441 H433 0.930 . S
C441 C439 1.419 . S
C441 C442 1.362 . S
C442 H434 0.930 . S
C442 C441 1.362 . S
C442 C445 1.409 . S
C443 H435 0.930 . S
C443 C444 1.355 . S
C443 C445 1.415 . S
C444 C443 1.355 . S
C444 C446 1.419 . S
C445 C440 1.425 . S
C445 C442 1.409 . S
C445 C443 1.415 . S
C446 H436 0.930 . S
C446 C444 1.419 . S
C446 C447 1.362 . S
C447 H437 0.930 . S
C447 C440 1.409 . S
C447 C446 1.362 . S
H448 C454 0.930 . S
H449 C457 0.930 . S
H450 C458 0.930 . S
H451 C459 0.930 . S
H452 C462 0.930 . S
H453 C463 0.930 . S
C454 H448 0.930 . S
C454 C455 1.355 . S
C454 C456 1.415 . S
C455 C454 1.355 . S
C455 C457 1.419 . S
C456 C454 1.415 . S
C456 C461 1.425 . S
C456 C463 1.409 . S
C457 H449 0.930 . S
C457 C455 1.419 . S
C457 C458 1.362 . S
C458 H450 0.930 . S
C458 C457 1.362 . S
C458 C461 1.409 . S
C459 H451 0.930 . S
C459 C460 1.355 . S
C459 C461 1.415 . S
C460 C459 1.355 . S
C460 C462 1.419 . S
C461 C456 1.425 . S
C461 C458 1.409 . S
C461 C459 1.415 . S
C462 H452 0.930 . S
C462 C460 1.419 . S
C462 C463 1.362 . S
C463 H453 0.930 . S
C463 C456 1.409 . S
C463 C462 1.362 . S
H464 C470 0.930 . S
H465 C473 0.930 . S
H466 C474 0.930 . S
H467 C475 0.930 . S
H468 C478 0.930 . S
H469 C479 0.930 . S
C470 H464 0.930 . S
C470 C471 1.355 . S
C470 C472 1.415 . S
C471 C470 1.355 . S
C471 C473 1.419 . S
C472 C470 1.415 . S
C472 C477 1.425 . S
C472 C479 1.409 . S
C473 H465 0.930 . S
C473 C471 1.419 . S
C473 C474 1.362 . S
C474 H466 0.930 . S
C474 C473 1.362 . S
C474 C477 1.409 . S
C475 H467 0.930 . S
C475 C476 1.355 . S
C475 C477 1.415 . S
C476 C475 1.355 . S
C476 C478 1.419 . S
C477 C472 1.425 . S
C477 C474 1.409 . S
C477 C475 1.415 . S
C478 H468 0.930 . S
C478 C476 1.419 . S
C478 C479 1.362 . S
C479 H469 0.930 . S
C479 C472 1.409 . S
C479 C478 1.362 . S
H480 C486 0.930 . S
H481 C489 0.930 . S
H482 C490 0.930 . S
H483 C491 0.930 . S
H484 C494 0.930 . S
H485 C495 0.930 . S
C486 H480 0.930 . S
C486 C487 1.355 . S
C486 C488 1.415 . S
C487 C486 1.355 . S
C487 C489 1.419 . S
C488 C486 1.415 . S
C488 C493 1.425 . S
C488 C495 1.409 . S
C489 H481 0.930 . S
C489 C487 1.419 . S
C489 C490 1.362 . S
C490 H482 0.930 . S
C490 C489 1.362 . S
C490 C493 1.409 . S
C491 H483 0.930 . S
C491 C492 1.355 . S
C491 C493 1.415 . S
C492 C491 1.355 . S
C492 C494 1.419 . S
C493 C488 1.425 . S
C493 C490 1.409 . S
C493 C491 1.415 . S
C494 H484 0.930 . S
C494 C492 1.419 . S
C494 C495 1.362 . S
C495 H485 0.930 . S
C495 C488 1.409 . S
C495 C494 1.362 . S
H496 C502 0.930 . S
H497 C505 0.930 . S
H498 C506 0.930 . S
H499 C507 0.930 . S
H500 C510 0.930 . S
H501 C511 0.930 . S
C502 H496 0.930 . S
C502 C503 1.355 . S
C502 C504 1.415 . S
C503 C502 1.355 . S
C503 C505 1.419 . S
C504 C502 1.415 . S
C504 C509 1.425 . S
C504 C511 1.409 . S
C505 H497 0.930 . S
C505 C503 1.419 . S
C505 C506 1.362 . S
C506 H498 0.930 . S
C506 C505 1.362 . S
C506 C509 1.409 . S
C507 H499 0.930 . S
C507 C508 1.355 . S
C507 C509 1.415 . S
C508 C507 1.355 . S
C508 C510 1.419 . S
C509 C504 1.425 . S
C509 C506 1.409 . S
C509 C507 1.415 . S
C510 H500 0.930 . S
C510 C508 1.419 . S
C510 C511 1.362 . S
C511 H501 0.930 . S
C511 C504 1.409 . S
C511 C510 1.362 . S
H512 C518 0.930 . S
H513 C521 0.930 . S
H514 C522 0.930 . S
H515 C523 0.930 . S
H516 C526 0.930 . S
H517 C527 0.930 . S
C518 H512 0.930 . S
C518 C519 1.355 . S
C518 C520 1.415 . S
C519 C518 1.355 . S
C519 C521 1.419 . S
C520 C518 1.415 . S
C520 C525 1.425 . S
C520 C527 1.409 . S
C521 H513 0.930 . S
C521 C519 1.419 . S
C521 C522 1.362 . S
C522 H514 0.930 . S
C522 C521 1.362 . S
C522 C525 1.409 . S
C523 H515 0.930 . S
C523 C524 1.355 . S
C523 C525 1.415 . S
C524 C523 1.355 . S
C524 C526 1.419 . S
C525 C520 1.425 . S
C525 C522 1.409 . S
C525 C523 1.415 . S
C526 H516 0.930 . S
C526 C524 1.419 . S
C526 C527 1.362 . S
C527 H517 0.930 . S
C527 C520 1.409 . S
C527 C526 1.362 . S
H528 C534 0.930 . S
H529 C537 0.930 . S
H530 C538 0.930 . S
H531 C539 0.930 . S
H532 C542 0.930 . S
H533 C543 0.930 . S
C534 H528 0.930 . S
C534 C535 1.355 . S
C534 C536 1.415 . S
C535 C534 1.355 . S
C535 C537 1.419 . S
C536 C534 1.415 . S
C536 C541 1.425 . S
C536 C543 1.409 . S
C537 H529 0.930 . S
C537 C535 1.419 . S
C537 C538 1.362 . S
C538 H530 0.930 . S
C538 C537 1.362 . S
C538 C541 1.409 . S
C539 H531 0.930 . S
C539 C540 1.355 . S
C539 C541 1.415 . S
C540 C539 1.355 . S
C540 C542 1.419 . S
C541 C536 1.425 . S
C541 C538 1.409 . S
C541 C539 1.415 . S
C542 H532 0.930 . S
C542 C540 1.419 . S
C542 C543 1.362 . S
C543 H533 0.930 . S
C543 C536 1.409 . S
C543 C542 1.362 . S
H544 C550 0.930 . S
H545 C553 0.930 . S
H546 C554 0.930 . S
H547 C555 0.930 . S
H548 C558 0.930 . S
H549 C559 0.930 . S
C550 H544 0.930 . S
C550 C551 1.355 . S
C550 C552 1.415 . S
C551 C550 1.355 . S
C551 C553 1.419 . S
C552 C550 1.415 . S
C552 C557 1.425 . S
C552 C559 1.409 . S
C553 H545 0.930 . S
C553 C551 1.419 . S
C553 C554 1.362 . S
C554 H546 0.930 . S
C554 C553 1.362 . S
C554 C557 1.409 . S
C555 H547 0.930 . S
C555 C556 1.355 . S
C555 C557 1.415 . S
C556 C555 1.355 . S
C556 C558 1.419 . S
C557 C552 1.425 . S
C557 C554 1.409 . S
C557 C555 1.415 . S
C558 H548 0.930 . S
C558 C556 1.419 . S
C558 C559 1.362 . S
C559 H549 0.930 . S
C559 C552 1.409 . S
C559 C558 1.362 . S
H560 C566 0.930 . S
H561 C569 0.930 . S
H562 C570 0.930 . S
H563 C571 0.930 . S
H564 C574 0.930 . S
H565 C575 0.930 . S
C566 H560 0.930 . S
C566 C567 1.355 . S
C566 C568 1.415 . S
C567 C566 1.355 . S
C567 C569 1.419 . S
C568 C566 1.415 . S
C568 C573 1.425 . S
C568 C575 1.409 . S
C569 H561 0.930 . S
C569 C567 1.419 . S
C569 C570 1.362 . S
C570 H562 0.930 . S
C570 C569 1.362 . S
C570 C573 1.409 . S
C571 H563 0.930 . S
C571 C572 1.355 . S
C571 C573 1.415 . S
C572 C571 1.355 . S
C572 C574 1.419 . S
C573 C568 1.425 . S
C573 C570 1.409 . S
C573 C571 1.415 . S
C574 H564 0.930 . S
C574 C572 1.419 . S
C574 C575 1.362 . S
C575 H565 0.930 . S
C575 C568 1.409 . S
C575 C574 1.362 . S
H576 C582 0.930 . S
H577 C585 0.930 . S
H578 C586 0.930 . S
H579 C587 0.930 . S
H580 C590 0.930 . S
H581 C591 0.930 . S
C582 H576 0.930 . S
C582 C583 1.355 . S
C582 C584 1.415 1_556 S
C583 C582 1.355 . S
C583 C585 1.419 1_645 S
C584 C582 1.415 1_554 S
C584 C589 1.425 1_644 S
C584 C591 1.409 . S
C585 H577 0.930 . S
C585 C583 1.419 1_465 S
C585 C586 1.362 . S
C586 H578 0.930 . S
C586 C585 1.362 . S
C586 C589 1.409 . S
C587 H579 0.930 . S
C587 C588 1.355 . S
C587 C589 1.415 1_554 S
C588 C587 1.355 . S
C588 C590 1.419 1_465 S
C589 C584 1.425 1_466 S
C589 C586 1.409 . S
C589 C587 1.415 1_556 S
C590 H580 0.930 . S
C590 C588 1.419 1_645 S
C590 C591 1.362 . S
C591 H581 0.930 . S
C591 C584 1.409 . S
C591 C590 1.362 . S
H592 C598 0.930 . S
H593 C601 0.930 . S
H594 C602 0.930 . S
H595 C603 0.930 . S
H596 C606 0.930 . S
H597 C607 0.930 . S
C598 H592 0.930 . S
C598 C599 1.355 . S
C598 C600 1.415 . S
C599 C598 1.355 . S
C599 C601 1.419 . S
C600 C598 1.415 . S
C600 C605 1.425 . S
C600 C607 1.409 . S
C601 H593 0.930 . S
C601 C599 1.419 . S
C601 C602 1.362 . S
C602 H594 0.930 . S
C602 C601 1.362 . S
C602 C605 1.409 . S
C603 H595 0.930 . S
C603 C604 1.355 . S
C603 C605 1.415 . S
C604 C603 1.355 . S
C604 C606 1.419 . S
C605 C600 1.425 . S
C605 C602 1.409 . S
C605 C603 1.415 . S
C606 H596 0.930 . S
C606 C604 1.419 . S
C606 C607 1.362 . S
C607 H597 0.930 . S
C607 C600 1.409 . S
C607 C606 1.362 . S
H608 C614 0.930 . S
H609 C617 0.930 . S
H610 C618 0.930 . S
H611 C619 0.930 . S
H612 C622 0.930 . S
H613 C623 0.930 . S
C614 H608 0.930 . S
C614 C615 1.355 1_565 S
C614 C616 1.415 . S
C615 C614 1.355 1_545 S
C615 C617 1.419 . S
C616 C614 1.415 . S
C616 C621 1.425 1_565 S
C616 C623 1.409 . S
C617 H609 0.930 . S
C617 C615 1.419 . S
C617 C618 1.362 . S
C618 H610 0.930 . S
C618 C617 1.362 . S
C618 C621 1.409 . S
C619 H611 0.930 . S
C619 C620 1.355 1_545 S
C619 C621 1.415 . S
C620 C619 1.355 1_565 S
C620 C622 1.419 . S
C621 C616 1.425 1_545 S
C621 C618 1.409 . S
C621 C619 1.415 . S
C622 H612 0.930 . S
C622 C620 1.419 . S
C622 C623 1.362 . S
C623 H613 0.930 . S
C623 C616 1.409 . S
C623 C622 1.362 . S
H624 C630 0.930 . S
H625 C633 0.930 . S
H626 C634 0.930 . S
H627 C635 0.930 . S
H628 C638 0.930 . S
H629 C639 0.930 . S
C630 H624 0.930 . S
C630 C631 1.355 . S
C630 C632 1.415 . S
C631 C630 1.355 . S
C631 C633 1.419 . S
C632 C630 1.415 . S
C632 C637 1.425 . S
C632 C639 1.409 . S
C633 H625 0.930 . S
C633 C631 1.419 . S
C633 C634 1.362 . S
C634 H626 0.930 . S
C634 C633 1.362 . S
C634 C637 1.409 . S
C635 H627 0.930 . S
C635 C636 1.355 . S
C635 C637 1.415 . S
C636 C635 1.355 . S
C636 C638 1.419 . S
C637 C632 1.425 . S
C637 C634 1.409 . S
C637 C635 1.415 . S
C638 H628 0.930 . S
C638 C636 1.419 . S
C638 C639 1.362 . S
C639 H629 0.930 . S
C639 C632 1.409 . S
C639 C638 1.362 . S
H640 C646 0.930 . S
H641 C649 0.930 . S
H642 C650 0.930 . S
H643 C651 0.930 . S
H644 C654 0.930 . S
H645 C655 0.930 . S
C646 H640 0.930 . S
C646 C647 1.355 . S
C646 C648 1.415 . S
C647 C646 1.355 . S
C647 C649 1.419 . S
C648 C646 1.415 . S
C648 C653 1.425 . S
C648 C655 1.409 . S
C649 H641 0.930 . S
C649 C647 1.419 . S
C649 C650 1.362 . S
C650 H642 0.930 . S
C650 C649 1.362 . S
C650 C653 1.409 . S
C651 H643 0.930 . S
C651 C652 1.355 . S
C651 C653 1.415 . S
C652 C651 1.355 . S
C652 C654 1.419 . S
C653 C648 1.425 . S
C653 C650 1.409 . S
C653 C651 1.415 . S
C654 H644 0.930 . S
C654 C652 1.419 . S
C654 C655 1.362 . S
C655 H645 0.930 . S
C655 C648 1.409 . S
C655 C654 1.362 . S
H656 C662 0.930 . S
H657 C665 0.930 . S
H658 C666 0.930 . S
H659 C667 0.930 . S
H660 C670 0.930 . S
H661 C671 0.930 . S
C662 H656 0.930 . S
C662 C663 1.355 . S
C662 C664 1.415 . S
C663 C662 1.355 . S
C663 C665 1.419 . S
C664 C662 1.415 . S
C664 C669 1.425 . S
C664 C671 1.409 . S
C665 H657 0.930 . S
C665 C663 1.419 . S
C665 C666 1.362 . S
C666 H658 0.930 . S
C666 C665 1.362 . S
C666 C669 1.409 . S
C667 H659 0.930 . S
C667 C668 1.355 . S
C667 C669 1.415 . S
C668 C667 1.355 . S
C668 C670 1.419 . S
C669 C664 1.425 . S
C669 C666 1.409 . S
C669 C667 1.415 . S
C670 H660 0.930 . S
C670 C668 1.419 . S
C670 C671 1.362 . S
C671 H661 0.930 . S
C671 C664 1.409 . S
C671 C670 1.362 . S
H672 C678 0.930 . S
H673 C681 0.930 . S
H674 C682 0.930 . S
H675 C683 0.930 . S
H676 C686 0.930 . S
H677 C687 0.930 . S
C678 H672 0.930 . S
C678 C679 1.355 . S
C678 C680 1.415 . S
C679 C678 1.355 . S
C679 C681 1.419 . S
C680 C678 1.415 . S
C680 C685 1.425 . S
C680 C687 1.409 . S
C681 H673 0.930 . S
C681 C679 1.419 . S
C681 C682 1.362 . S
C682 H674 0.930 . S
C682 C681 1.362 . S
C682 C685 1.409 . S
C683 H675 0.930 . S
C683 C684 1.355 . S
C683 C685 1.415 . S
C684 C683 1.355 . S
C684 C686 1.419 . S
C685 C680 1.425 . S
C685 C682 1.409 . S
C685 C683 1.415 . S
C686 H676 0.930 . S
C686 C684 1.419 . S
C686 C687 1.362 . S
C687 H677 0.930 . S
C687 C680 1.409 . S
C687 C686 1.362 . S
H688 C694 0.930 . S
H689 C697 0.936 . S
H690 C698 0.930 . S
H691 C699 0.930 . S
H692 C702 0.934 . S
H693 C703 0.930 . S
C694 H688 0.930 . S
C694 C695 1.355 . S
C694 C696 1.415 . S
C695 C694 1.355 . S
C695 C697 1.408 1_655 S
C696 C694 1.415 . S
C696 C701 1.425 1_656 S
C696 C703 1.409 1_556 S
C697 H689 0.936 . S
C697 C695 1.408 1_455 S
C697 C698 1.368 . S
C698 H690 0.930 . S
C698 C697 1.368 . S
C698 C701 1.409 1_556 S
C699 H691 0.930 . S
C699 C700 1.355 . S
C699 C701 1.415 . S
C700 C699 1.355 . S
C700 C702 1.411 1_455 S
C701 C696 1.425 1_454 S
C701 C698 1.409 1_554 S
C701 C699 1.415 . S
C702 H692 0.934 . S
C702 C700 1.411 1_655 S
C702 C703 1.366 . S
C703 H693 0.930 . S
C703 C696 1.409 1_554 S
C703 C702 1.366 . S
C327 C19 1.938 . S
C332 C139 1.927 . S
C343 C18 1.539 . S
C348 C59 1.553 . S
C359 C58 1.029 . S
C364 C98 1.064 . S
C375 C99 1.538 . S
C380 C138 1.486 . S
C391 C9 1.937 . S
C396 C209 1.936 . S
C407 C8 1.520 . S
C412 C169 1.551 . S
C423 C168 1.079 . S
C428 C88 1.072 . S
C439 C208 1.497 . S
C444 C89 1.539 . S
C455 C259 1.932 . S
C460 C219 1.932 . S
C471 C179 1.557 . S
C476 C258 1.539 . S
C487 C298 1.094 . S
C492 C178 1.025 . S
C503 C218 1.484 . S
C508 C299 1.536 . S
C519 C129 1.938 . S
C524 C249 1.926 . S
C535 C248 1.538 . S
C540 C49 1.558 . S
C551 C48 1.086 . S
C556 C288 1.019 . S
C567 C128 1.485 . S
C572 C289 1.534 . S
C583 C5 1.519 . S
C588 C15 1.519 . S
C599 C55 1.382 . S
C604 C45 1.382 . S
C615 C85 1.340 . S
C620 C95 1.340 . S
C631 C125 1.531 . S
C636 C135 1.531 . S
C647 C175 1.378 . S
C652 C165 1.378 . S
C663 C205 1.532 . S
C668 C215 1.532 . S
C679 C255 1.565 . S
C684 C245 1.565 . S
C695 C295 1.340 . S
C700 C285 1.340 . S
