# Generated by pormake.
# Topology pbg, (3)-cn, num edge types: 1
# Building blocks:
#     Node 0, Type 0, BuildingBlock: WUSLED_clean_sbu_0, # of connection points: 3
#     Node 1, Type 0, BuildingBlock: WUSLED_clean_sbu_0, # of connection points: 3
#     Node 2, Type 0, BuildingBlock: WUSLED_clean_sbu_0, # of connection points: 3
#     Node 3, Type 0, BuildingBlock: WUSLED_clean_sbu_0, # of connection points: 3
#     Node 4, Type 0, BuildingBlock: WUSLED_clean_sbu_0, # of connection points: 3
#     Node 5, Type 0, BuildingBlock: WUSLED_clean_sbu_0, # of connection points: 3
#     Node 6, Type 0, BuildingBlock: WUSLED_clean_sbu_0, # of connection points: 3
#     Node 7, Type 0, BuildingBlock: WUSLED_clean_sbu_0, # of connection points: 3
#     Node 8, Type 0, BuildingBlock: WUSLED_clean_sbu_0, # of connection points: 3
#     Node 9, Type 0, BuildingBlock: WUSLED_clean_sbu_0, # of connection points: 3
#     Node 10, Type 0, BuildingBlock: WUSLED_clean_sbu_0, # of connection points: 3
#     Node 11, Type 0, BuildingBlock: WUSLED_clean_sbu_0, # of connection points: 3
#     Node 12, Type 0, BuildingBlock: WUSLED_clean_sbu_0, # of connection points: 3
#     Node 13, Type 0, BuildingBlock: WUSLED_clean_sbu_0, # of connection points: 3
#     Node 14, Type 0, BuildingBlock: WUSLED_clean_sbu_0, # of connection points: 3
#     Node 15, Type 0, BuildingBlock: WUSLED_clean_sbu_0, # of connection points: 3
#     Node 16, Type 0, BuildingBlock: WUSLED_clean_sbu_0, # of connection points: 3
#     Node 17, Type 0, BuildingBlock: WUSLED_clean_sbu_0, # of connection points: 3
#     Node 18, Type 0, BuildingBlock: WUSLED_clean_sbu_0, # of connection points: 3
#     Node 19, Type 0, BuildingBlock: WUSLED_clean_sbu_0, # of connection points: 3
#     Node 20, Type 0, BuildingBlock: WUSLED_clean_sbu_0, # of connection points: 3
#     Node 21, Type 0, BuildingBlock: WUSLED_clean_sbu_0, # of connection points: 3
#     Node 22, Type 0, BuildingBlock: WUSLED_clean_sbu_0, # of connection points: 3
#     Node 23, Type 0, BuildingBlock: WUSLED_clean_sbu_0, # of connection points: 3
#     Node 24, Type 0, BuildingBlock: WUSLED_clean_sbu_0, # of connection points: 3
#     Node 25, Type 0, BuildingBlock: WUSLED_clean_sbu_0, # of connection points: 3
#     Node 26, Type 0, BuildingBlock: WUSLED_clean_sbu_0, # of connection points: 3
#     Node 27, Type 0, BuildingBlock: WUSLED_clean_sbu_0, # of connection points: 3
#     Node 28, Type 0, BuildingBlock: WUSLED_clean_sbu_0, # of connection points: 3
#     Node 29, Type 0, BuildingBlock: WUSLED_clean_sbu_0, # of connection points: 3
#     Node 30, Type 0, BuildingBlock: WUSLED_clean_sbu_0, # of connection points: 3
#     Node 31, Type 0, BuildingBlock: WUSLED_clean_sbu_0, # of connection points: 3
#     Node 32, Type 0, BuildingBlock: WUSLED_clean_sbu_0, # of connection points: 3
#     Node 33, Type 0, BuildingBlock: WUSLED_clean_sbu_0, # of connection points: 3
#     Node 34, Type 0, BuildingBlock: WUSLED_clean_sbu_0, # of connection points: 3
#     Node 35, Type 0, BuildingBlock: WUSLED_clean_sbu_0, # of connection points: 3
#     Node 36, Type 0, BuildingBlock: WUSLED_clean_sbu_0, # of connection points: 3
#     Node 37, Type 0, BuildingBlock: WUSLED_clean_sbu_0, # of connection points: 3
#     Node 38, Type 0, BuildingBlock: WUSLED_clean_sbu_0, # of connection points: 3
#     Node 39, Type 0, BuildingBlock: WUSLED_clean_sbu_0, # of connection points: 3
#     Node 40, Type 0, BuildingBlock: WUSLED_clean_sbu_0, # of connection points: 3
#     Node 41, Type 0, BuildingBlock: WUSLED_clean_sbu_0, # of connection points: 3
#     Node 42, Type 0, BuildingBlock: WUSLED_clean_sbu_0, # of connection points: 3
#     Node 43, Type 0, BuildingBlock: WUSLED_clean_sbu_0, # of connection points: 3
#     Node 44, Type 0, BuildingBlock: WUSLED_clean_sbu_0, # of connection points: 3
#     Node 45, Type 0, BuildingBlock: WUSLED_clean_sbu_0, # of connection points: 3
#     Node 46, Type 0, BuildingBlock: WUSLED_clean_sbu_0, # of connection points: 3
#     Node 47, Type 0, BuildingBlock: WUSLED_clean_sbu_0, # of connection points: 3
#     Node 48, Type 0, BuildingBlock: WUSLED_clean_sbu_0, # of connection points: 3
#     Node 49, Type 0, BuildingBlock: WUSLED_clean_sbu_0, # of connection points: 3
#     Node 50, Type 0, BuildingBlock: WUSLED_clean_sbu_0, # of connection points: 3
#     Node 51, Type 0, BuildingBlock: WUSLED_clean_sbu_0, # of connection points: 3
#     Node 52, Type 0, BuildingBlock: WUSLED_clean_sbu_0, # of connection points: 3
#     Node 53, Type 0, BuildingBlock: WUSLED_clean_sbu_0, # of connection points: 3
#     Node 54, Type 0, BuildingBlock: WUSLED_clean_sbu_0, # of connection points: 3
#     Node 55, Type 0, BuildingBlock: WUSLED_clean_sbu_0, # of connection points: 3
#     Node 56, Type 0, BuildingBlock: WUSLED_clean_sbu_0, # of connection points: 3
#     Node 57, Type 0, BuildingBlock: WUSLED_clean_sbu_0, # of connection points: 3
#     Node 58, Type 0, BuildingBlock: WUSLED_clean_sbu_0, # of connection points: 3
#     Node 59, Type 0, BuildingBlock: WUSLED_clean_sbu_0, # of connection points: 3
#     Node 60, Type 0, BuildingBlock: WUSLED_clean_sbu_0, # of connection points: 3
#     Node 61, Type 0, BuildingBlock: WUSLED_clean_sbu_0, # of connection points: 3
#     Node 62, Type 0, BuildingBlock: WUSLED_clean_sbu_0, # of connection points: 3
#     Node 63, Type 0, BuildingBlock: WUSLED_clean_sbu_0, # of connection points: 3
#     Node 64, Type 0, BuildingBlock: WUSLED_clean_sbu_0, # of connection points: 3
#     Node 65, Type 0, BuildingBlock: WUSLED_clean_sbu_0, # of connection points: 3
#     Node 66, Type 0, BuildingBlock: WUSLED_clean_sbu_0, # of connection points: 3
#     Node 67, Type 0, BuildingBlock: WUSLED_clean_sbu_0, # of connection points: 3
#     Node 68, Type 0, BuildingBlock: WUSLED_clean_sbu_0, # of connection points: 3
#     Node 69, Type 0, BuildingBlock: WUSLED_clean_sbu_0, # of connection points: 3
#     Node 70, Type 0, BuildingBlock: WUSLED_clean_sbu_0, # of connection points: 3
#     Node 71, Type 0, BuildingBlock: WUSLED_clean_sbu_0, # of connection points: 3
#     Node 72, Type 0, BuildingBlock: WUSLED_clean_sbu_0, # of connection points: 3
#     Node 73, Type 0, BuildingBlock: WUSLED_clean_sbu_0, # of connection points: 3
#     Node 74, Type 0, BuildingBlock: WUSLED_clean_sbu_0, # of connection points: 3
#     Node 75, Type 0, BuildingBlock: WUSLED_clean_sbu_0, # of connection points: 3
#     Node 76, Type 0, BuildingBlock: WUSLED_clean_sbu_0, # of connection points: 3
#     Node 77, Type 0, BuildingBlock: WUSLED_clean_sbu_0, # of connection points: 3
#     Node 78, Type 0, BuildingBlock: WUSLED_clean_sbu_0, # of connection points: 3
#     Node 79, Type 0, BuildingBlock: WUSLED_clean_sbu_0, # of connection points: 3
#     Node 80, Type 0, BuildingBlock: WUSLED_clean_sbu_0, # of connection points: 3
#     Node 81, Type 0, BuildingBlock: WUSLED_clean_sbu_0, # of connection points: 3
#     Node 82, Type 0, BuildingBlock: WUSLED_clean_sbu_0, # of connection points: 3
#     Node 83, Type 0, BuildingBlock: WUSLED_clean_sbu_0, # of connection points: 3
#     Node 84, Type 0, BuildingBlock: WUSLED_clean_sbu_0, # of connection points: 3
#     Node 85, Type 0, BuildingBlock: WUSLED_clean_sbu_0, # of connection points: 3
#     Node 86, Type 0, BuildingBlock: WUSLED_clean_sbu_0, # of connection points: 3
#     Node 87, Type 0, BuildingBlock: WUSLED_clean_sbu_0, # of connection points: 3
#     Node 88, Type 0, BuildingBlock: WUSLED_clean_sbu_0, # of connection points: 3
#     Node 89, Type 0, BuildingBlock: WUSLED_clean_sbu_0, # of connection points: 3
#     Node 90, Type 0, BuildingBlock: WUSLED_clean_sbu_0, # of connection points: 3
#     Node 91, Type 0, BuildingBlock: WUSLED_clean_sbu_0, # of connection points: 3
#     Node 92, Type 0, BuildingBlock: WUSLED_clean_sbu_0, # of connection points: 3
#     Node 93, Type 0, BuildingBlock: WUSLED_clean_sbu_0, # of connection points: 3
#     Node 94, Type 0, BuildingBlock: WUSLED_clean_sbu_0, # of connection points: 3
#     Node 95, Type 0, BuildingBlock: WUSLED_clean_sbu_0, # of connection points: 3
#     Edge 96, Type (0, 0), BuildingBlock: KIFKEQ_clean_linker_1, # of connection points: 2
#     Edge 97, Type (0, 0), BuildingBlock: KIFKEQ_clean_linker_1, # of connection points: 2
#     Edge 98, Type (0, 0), BuildingBlock: KIFKEQ_clean_linker_1, # of connection points: 2
#     Edge 99, Type (0, 0), BuildingBlock: KIFKEQ_clean_linker_1, # of connection points: 2
#     Edge 100, Type (0, 0), BuildingBlock: KIFKEQ_clean_linker_1, # of connection points: 2
#     Edge 101, Type (0, 0), BuildingBlock: KIFKEQ_clean_linker_1, # of connection points: 2
#     Edge 102, Type (0, 0), BuildingBlock: KIFKEQ_clean_linker_1, # of connection points: 2
#     Edge 103, Type (0, 0), BuildingBlock: KIFKEQ_clean_linker_1, # of connection points: 2
#     Edge 104, Type (0, 0), BuildingBlock: KIFKEQ_clean_linker_1, # of connection points: 2
#     Edge 105, Type (0, 0), BuildingBlock: KIFKEQ_clean_linker_1, # of connection points: 2
#     Edge 106, Type (0, 0), BuildingBlock: KIFKEQ_clean_linker_1, # of connection points: 2
#     Edge 107, Type (0, 0), BuildingBlock: KIFKEQ_clean_linker_1, # of connection points: 2
#     Edge 108, Type (0, 0), BuildingBlock: KIFKEQ_clean_linker_1, # of connection points: 2
#     Edge 109, Type (0, 0), BuildingBlock: KIFKEQ_clean_linker_1, # of connection points: 2
#     Edge 110, Type (0, 0), BuildingBlock: KIFKEQ_clean_linker_1, # of connection points: 2
#     Edge 111, Type (0, 0), BuildingBlock: KIFKEQ_clean_linker_1, # of connection points: 2
#     Edge 112, Type (0, 0), BuildingBlock: KIFKEQ_clean_linker_1, # of connection points: 2
#     Edge 113, Type (0, 0), BuildingBlock: KIFKEQ_clean_linker_1, # of connection points: 2
#     Edge 114, Type (0, 0), BuildingBlock: KIFKEQ_clean_linker_1, # of connection points: 2
#     Edge 115, Type (0, 0), BuildingBlock: KIFKEQ_clean_linker_1, # of connection points: 2
#     Edge 116, Type (0, 0), BuildingBlock: KIFKEQ_clean_linker_1, # of connection points: 2
#     Edge 117, Type (0, 0), BuildingBlock: KIFKEQ_clean_linker_1, # of connection points: 2
#     Edge 118, Type (0, 0), BuildingBlock: KIFKEQ_clean_linker_1, # of connection points: 2
#     Edge 119, Type (0, 0), BuildingBlock: KIFKEQ_clean_linker_1, # of connection points: 2
#     Edge 120, Type (0, 0), BuildingBlock: KIFKEQ_clean_linker_1, # of connection points: 2
#     Edge 121, Type (0, 0), BuildingBlock: KIFKEQ_clean_linker_1, # of connection points: 2
#     Edge 122, Type (0, 0), BuildingBlock: KIFKEQ_clean_linker_1, # of connection points: 2
#     Edge 123, Type (0, 0), BuildingBlock: KIFKEQ_clean_linker_1, # of connection points: 2
#     Edge 124, Type (0, 0), BuildingBlock: KIFKEQ_clean_linker_1, # of connection points: 2
#     Edge 125, Type (0, 0), BuildingBlock: KIFKEQ_clean_linker_1, # of connection points: 2
#     Edge 126, Type (0, 0), BuildingBlock: KIFKEQ_clean_linker_1, # of connection points: 2
#     Edge 127, Type (0, 0), BuildingBlock: KIFKEQ_clean_linker_1, # of connection points: 2
#     Edge 128, Type (0, 0), BuildingBlock: KIFKEQ_clean_linker_1, # of connection points: 2
#     Edge 129, Type (0, 0), BuildingBlock: KIFKEQ_clean_linker_1, # of connection points: 2
#     Edge 130, Type (0, 0), BuildingBlock: KIFKEQ_clean_linker_1, # of connection points: 2
#     Edge 131, Type (0, 0), BuildingBlock: KIFKEQ_clean_linker_1, # of connection points: 2
#     Edge 132, Type (0, 0), BuildingBlock: KIFKEQ_clean_linker_1, # of connection points: 2
#     Edge 133, Type (0, 0), BuildingBlock: KIFKEQ_clean_linker_1, # of connection points: 2
#     Edge 134, Type (0, 0), BuildingBlock: KIFKEQ_clean_linker_1, # of connection points: 2
#     Edge 135, Type (0, 0), BuildingBlock: KIFKEQ_clean_linker_1, # of connection points: 2
#     Edge 136, Type (0, 0), BuildingBlock: KIFKEQ_clean_linker_1, # of connection points: 2
#     Edge 137, Type (0, 0), BuildingBlock: KIFKEQ_clean_linker_1, # of connection points: 2
#     Edge 138, Type (0, 0), BuildingBlock: KIFKEQ_clean_linker_1, # of connection points: 2
#     Edge 139, Type (0, 0), BuildingBlock: KIFKEQ_clean_linker_1, # of connection points: 2
#     Edge 140, Type (0, 0), BuildingBlock: KIFKEQ_clean_linker_1, # of connection points: 2
#     Edge 141, Type (0, 0), BuildingBlock: KIFKEQ_clean_linker_1, # of connection points: 2
#     Edge 142, Type (0, 0), BuildingBlock: KIFKEQ_clean_linker_1, # of connection points: 2
#     Edge 143, Type (0, 0), BuildingBlock: KIFKEQ_clean_linker_1, # of connection points: 2
#     Edge 144, Type (0, 0), BuildingBlock: KIFKEQ_clean_linker_1, # of connection points: 2
#     Edge 145, Type (0, 0), BuildingBlock: KIFKEQ_clean_linker_1, # of connection points: 2
#     Edge 146, Type (0, 0), BuildingBlock: KIFKEQ_clean_linker_1, # of connection points: 2
#     Edge 147, Type (0, 0), BuildingBlock: KIFKEQ_clean_linker_1, # of connection points: 2
#     Edge 148, Type (0, 0), BuildingBlock: KIFKEQ_clean_linker_1, # of connection points: 2
#     Edge 149, Type (0, 0), BuildingBlock: KIFKEQ_clean_linker_1, # of connection points: 2
#     Edge 150, Type (0, 0), BuildingBlock: KIFKEQ_clean_linker_1, # of connection points: 2
#     Edge 151, Type (0, 0), BuildingBlock: KIFKEQ_clean_linker_1, # of connection points: 2
#     Edge 152, Type (0, 0), BuildingBlock: KIFKEQ_clean_linker_1, # of connection points: 2
#     Edge 153, Type (0, 0), BuildingBlock: KIFKEQ_clean_linker_1, # of connection points: 2
#     Edge 154, Type (0, 0), BuildingBlock: KIFKEQ_clean_linker_1, # of connection points: 2
#     Edge 155, Type (0, 0), BuildingBlock: KIFKEQ_clean_linker_1, # of connection points: 2
#     Edge 156, Type (0, 0), BuildingBlock: KIFKEQ_clean_linker_1, # of connection points: 2
#     Edge 157, Type (0, 0), BuildingBlock: KIFKEQ_clean_linker_1, # of connection points: 2
#     Edge 158, Type (0, 0), BuildingBlock: KIFKEQ_clean_linker_1, # of connection points: 2
#     Edge 159, Type (0, 0), BuildingBlock: KIFKEQ_clean_linker_1, # of connection points: 2
#     Edge 160, Type (0, 0), BuildingBlock: KIFKEQ_clean_linker_1, # of connection points: 2
#     Edge 161, Type (0, 0), BuildingBlock: KIFKEQ_clean_linker_1, # of connection points: 2
#     Edge 162, Type (0, 0), BuildingBlock: KIFKEQ_clean_linker_1, # of connection points: 2
#     Edge 163, Type (0, 0), BuildingBlock: KIFKEQ_clean_linker_1, # of connection points: 2
#     Edge 164, Type (0, 0), BuildingBlock: KIFKEQ_clean_linker_1, # of connection points: 2
#     Edge 165, Type (0, 0), BuildingBlock: KIFKEQ_clean_linker_1, # of connection points: 2
#     Edge 166, Type (0, 0), BuildingBlock: KIFKEQ_clean_linker_1, # of connection points: 2
#     Edge 167, Type (0, 0), BuildingBlock: KIFKEQ_clean_linker_1, # of connection points: 2
#     Edge 168, Type (0, 0), BuildingBlock: KIFKEQ_clean_linker_1, # of connection points: 2
#     Edge 169, Type (0, 0), BuildingBlock: KIFKEQ_clean_linker_1, # of connection points: 2
#     Edge 170, Type (0, 0), BuildingBlock: KIFKEQ_clean_linker_1, # of connection points: 2
#     Edge 171, Type (0, 0), BuildingBlock: KIFKEQ_clean_linker_1, # of connection points: 2
#     Edge 172, Type (0, 0), BuildingBlock: KIFKEQ_clean_linker_1, # of connection points: 2
#     Edge 173, Type (0, 0), BuildingBlock: KIFKEQ_clean_linker_1, # of connection points: 2
#     Edge 174, Type (0, 0), BuildingBlock: KIFKEQ_clean_linker_1, # of connection points: 2
#     Edge 175, Type (0, 0), BuildingBlock: KIFKEQ_clean_linker_1, # of connection points: 2
#     Edge 176, Type (0, 0), BuildingBlock: KIFKEQ_clean_linker_1, # of connection points: 2
#     Edge 177, Type (0, 0), BuildingBlock: KIFKEQ_clean_linker_1, # of connection points: 2
#     Edge 178, Type (0, 0), BuildingBlock: KIFKEQ_clean_linker_1, # of connection points: 2
#     Edge 179, Type (0, 0), BuildingBlock: KIFKEQ_clean_linker_1, # of connection points: 2
#     Edge 180, Type (0, 0), BuildingBlock: KIFKEQ_clean_linker_1, # of connection points: 2
#     Edge 181, Type (0, 0), BuildingBlock: KIFKEQ_clean_linker_1, # of connection points: 2
#     Edge 182, Type (0, 0), BuildingBlock: KIFKEQ_clean_linker_1, # of connection points: 2
#     Edge 183, Type (0, 0), BuildingBlock: KIFKEQ_clean_linker_1, # of connection points: 2
#     Edge 184, Type (0, 0), BuildingBlock: KIFKEQ_clean_linker_1, # of connection points: 2
#     Edge 185, Type (0, 0), BuildingBlock: KIFKEQ_clean_linker_1, # of connection points: 2
#     Edge 186, Type (0, 0), BuildingBlock: KIFKEQ_clean_linker_1, # of connection points: 2
#     Edge 187, Type (0, 0), BuildingBlock: KIFKEQ_clean_linker_1, # of connection points: 2
#     Edge 188, Type (0, 0), BuildingBlock: KIFKEQ_clean_linker_1, # of connection points: 2
#     Edge 189, Type (0, 0), BuildingBlock: KIFKEQ_clean_linker_1, # of connection points: 2
#     Edge 190, Type (0, 0), BuildingBlock: KIFKEQ_clean_linker_1, # of connection points: 2
#     Edge 191, Type (0, 0), BuildingBlock: KIFKEQ_clean_linker_1, # of connection points: 2
#     Edge 192, Type (0, 0), BuildingBlock: KIFKEQ_clean_linker_1, # of connection points: 2
#     Edge 193, Type (0, 0), BuildingBlock: KIFKEQ_clean_linker_1, # of connection points: 2
#     Edge 194, Type (0, 0), BuildingBlock: KIFKEQ_clean_linker_1, # of connection points: 2
#     Edge 195, Type (0, 0), BuildingBlock: KIFKEQ_clean_linker_1, # of connection points: 2
#     Edge 196, Type (0, 0), BuildingBlock: KIFKEQ_clean_linker_1, # of connection points: 2
#     Edge 197, Type (0, 0), BuildingBlock: KIFKEQ_clean_linker_1, # of connection points: 2
#     Edge 198, Type (0, 0), BuildingBlock: KIFKEQ_clean_linker_1, # of connection points: 2
#     Edge 199, Type (0, 0), BuildingBlock: KIFKEQ_clean_linker_1, # of connection points: 2
#     Edge 200, Type (0, 0), BuildingBlock: KIFKEQ_clean_linker_1, # of connection points: 2
#     Edge 201, Type (0, 0), BuildingBlock: KIFKEQ_clean_linker_1, # of connection points: 2
#     Edge 202, Type (0, 0), BuildingBlock: KIFKEQ_clean_linker_1, # of connection points: 2
#     Edge 203, Type (0, 0), BuildingBlock: KIFKEQ_clean_linker_1, # of connection points: 2
#     Edge 204, Type (0, 0), BuildingBlock: KIFKEQ_clean_linker_1, # of connection points: 2
#     Edge 205, Type (0, 0), BuildingBlock: KIFKEQ_clean_linker_1, # of connection points: 2
#     Edge 206, Type (0, 0), BuildingBlock: KIFKEQ_clean_linker_1, # of connection points: 2
#     Edge 207, Type (0, 0), BuildingBlock: KIFKEQ_clean_linker_1, # of connection points: 2
#     Edge 208, Type (0, 0), BuildingBlock: KIFKEQ_clean_linker_1, # of connection points: 2
#     Edge 209, Type (0, 0), BuildingBlock: KIFKEQ_clean_linker_1, # of connection points: 2
#     Edge 210, Type (0, 0), BuildingBlock: KIFKEQ_clean_linker_1, # of connection points: 2
#     Edge 211, Type (0, 0), BuildingBlock: KIFKEQ_clean_linker_1, # of connection points: 2
#     Edge 212, Type (0, 0), BuildingBlock: KIFKEQ_clean_linker_1, # of connection points: 2
#     Edge 213, Type (0, 0), BuildingBlock: KIFKEQ_clean_linker_1, # of connection points: 2
#     Edge 214, Type (0, 0), BuildingBlock: KIFKEQ_clean_linker_1, # of connection points: 2
#     Edge 215, Type (0, 0), BuildingBlock: KIFKEQ_clean_linker_1, # of connection points: 2
#     Edge 216, Type (0, 0), BuildingBlock: KIFKEQ_clean_linker_1, # of connection points: 2
#     Edge 217, Type (0, 0), BuildingBlock: KIFKEQ_clean_linker_1, # of connection points: 2
#     Edge 218, Type (0, 0), BuildingBlock: KIFKEQ_clean_linker_1, # of connection points: 2
#     Edge 219, Type (0, 0), BuildingBlock: KIFKEQ_clean_linker_1, # of connection points: 2
#     Edge 220, Type (0, 0), BuildingBlock: KIFKEQ_clean_linker_1, # of connection points: 2
#     Edge 221, Type (0, 0), BuildingBlock: KIFKEQ_clean_linker_1, # of connection points: 2
#     Edge 222, Type (0, 0), BuildingBlock: KIFKEQ_clean_linker_1, # of connection points: 2
#     Edge 223, Type (0, 0), BuildingBlock: KIFKEQ_clean_linker_1, # of connection points: 2
#     Edge 224, Type (0, 0), BuildingBlock: KIFKEQ_clean_linker_1, # of connection points: 2
#     Edge 225, Type (0, 0), BuildingBlock: KIFKEQ_clean_linker_1, # of connection points: 2
#     Edge 226, Type (0, 0), BuildingBlock: KIFKEQ_clean_linker_1, # of connection points: 2
#     Edge 227, Type (0, 0), BuildingBlock: KIFKEQ_clean_linker_1, # of connection points: 2
#     Edge 228, Type (0, 0), BuildingBlock: KIFKEQ_clean_linker_1, # of connection points: 2
#     Edge 229, Type (0, 0), BuildingBlock: KIFKEQ_clean_linker_1, # of connection points: 2
#     Edge 230, Type (0, 0), BuildingBlock: KIFKEQ_clean_linker_1, # of connection points: 2
#     Edge 231, Type (0, 0), BuildingBlock: KIFKEQ_clean_linker_1, # of connection points: 2
#     Edge 232, Type (0, 0), BuildingBlock: KIFKEQ_clean_linker_1, # of connection points: 2
#     Edge 233, Type (0, 0), BuildingBlock: KIFKEQ_clean_linker_1, # of connection points: 2
#     Edge 234, Type (0, 0), BuildingBlock: KIFKEQ_clean_linker_1, # of connection points: 2
#     Edge 235, Type (0, 0), BuildingBlock: KIFKEQ_clean_linker_1, # of connection points: 2
#     Edge 236, Type (0, 0), BuildingBlock: KIFKEQ_clean_linker_1, # of connection points: 2
#     Edge 237, Type (0, 0), BuildingBlock: KIFKEQ_clean_linker_1, # of connection points: 2
#     Edge 238, Type (0, 0), BuildingBlock: KIFKEQ_clean_linker_1, # of connection points: 2
#     Edge 239, Type (0, 0), BuildingBlock: KIFKEQ_clean_linker_1, # of connection points: 2
# Relax obj value: 0.000
# Max RMSD: 0.005
# Mean RMSD: 0.005
data_MOF--net-pbg--node1-WUSLED_clean_sbu_0--edge1-KIFKEQ_clean_linker_1
_symmetry_space_group_name_H-M    P1
_symmetry_Int_Tables_number       1
_symmetry_cell_setting            triclinic
loop_
_symmetry_equiv_pos_as_xyz
'x, y, z'
_cell_length_a     156.06119
_cell_length_b     155.9491
_cell_length_c     156.0527
_cell_angle_alpha  89.950636
_cell_angle_beta   89.971303
_cell_angle_gamma 90.017706
loop_
_atom_site_label
_atom_site_type_symbol
_atom_site_fract_x
_atom_site_fract_y
_atom_site_fract_z
_atom_type_partial_charge
C0 C 0.18047 0.23207 0.37544 0.0
C1 C 0.18568 0.23466 0.36857 0.0
C2 C 0.17827 0.24848 0.36791 0.0
C3 C 0.18459 0.24279 0.36484 0.0
C4 C 0.1732 0.24586 0.37491 0.0
C5 C 0.17429 0.23776 0.37861 0.0
U6 U 0.19215 0.21066 0.38032 0.0
O7 O 0.19224 0.20321 0.39235 0.0
O8 O 0.18684 0.19759 0.38066 0.0
C9 C 0.1881 0.19671 0.38895 0.0
C10 C 0.18115 0.22343 0.37931 0.0
C11 C 0.18088 0.19317 0.394 0.0
C12 C 0.16562 0.1916 0.39695 0.0
C13 C 0.17233 0.19544 0.39233 0.0
C14 C 0.17592 0.18331 0.40506 0.0
C15 C 0.16732 0.18544 0.40335 0.0
C16 C 0.1826 0.18713 0.40043 0.0
C17 C 0.21513 0.20694 0.37137 0.0
C18 C 0.22588 0.19662 0.37607 0.0
C19 C 0.22791 0.20439 0.36279 0.0
C20 C 0.2201 0.20861 0.36407 0.0
C21 C 0.23095 0.19837 0.36879 0.0
C22 C 0.21803 0.20086 0.37734 0.0
C23 C 0.20716 0.21192 0.37269 0.0
O24 O 0.18123 0.21692 0.37396 0.0
O25 O 0.18668 0.22258 0.3856 0.0
O26 O 0.20567 0.21467 0.38051 0.0
O27 O 0.20025 0.20904 0.36883 0.0
H28 H 0.1905 0.23036 0.36602 0.0
H29 H 0.18857 0.24454 0.35943 0.0
H30 H 0.16838 0.2501 0.37756 0.0
H31 H 0.17023 0.23591 0.38394 0.0
H32 H 0.15909 0.19348 0.39553 0.0
H33 H 0.17083 0.20011 0.38742 0.0
H34 H 0.1775 0.17853 0.40984 0.0
H35 H 0.18915 0.18526 0.4018 0.0
H36 H 0.22795 0.19196 0.38078 0.0
H37 H 0.23167 0.20601 0.35718 0.0
H38 H 0.21801 0.21331 0.3594 0.0
H39 H 0.21429 0.19944 0.38301 0.0
C40 C 0.05632 0.93065 0.62381 0.0
C41 C 0.05124 0.93788 0.6221 0.0
C42 C 0.03976 0.92874 0.61657 0.0
C43 C 0.04304 0.93694 0.61851 0.0
C44 C 0.04497 0.92154 0.61819 0.0
C45 C 0.05313 0.9225 0.62177 0.0
U46 U 0.07747 0.94243 0.62943 0.0
O47 O 0.08457 0.94252 0.64167 0.0
O48 O 0.09056 0.93723 0.63011 0.0
C49 C 0.09119 0.93845 0.63842 0.0
C50 C 0.06483 0.93134 0.62795 0.0
C51 C 0.09475 0.9313 0.64357 0.0
C52 C 0.09785 0.91613 0.64582 0.0
C53 C 0.0938 0.92267 0.64113 0.0
C54 C 0.10364 0.92671 0.65555 0.0
C55 C 0.10293 0.91807 0.65304 0.0
C56 C 0.09962 0.93322 0.65087 0.0
C57 C 0.08127 0.96549 0.62062 0.0
C58 C 0.09128 0.9764 0.62562 0.0
C59 C 0.08406 0.97822 0.61202 0.0
C60 C 0.07986 0.97038 0.61322 0.0
C61 C 0.0898 0.98138 0.61822 0.0
C62 C 0.08707 0.96852 0.6268 0.0
C63 C 0.07633 0.95747 0.62182 0.0
O64 O 0.07149 0.93146 0.6228 0.0
O65 O 0.06549 0.93681 0.63432 0.0
O66 O 0.07337 0.95593 0.62956 0.0
O67 O 0.07936 0.95059 0.61802 0.0
H68 H 0.05357 0.94425 0.62362 0.0
H69 H 0.03921 0.94262 0.61744 0.0
H70 H 0.04276 0.91515 0.61664 0.0
H71 H 0.05695 0.91683 0.623 0.0
H72 H 0.09719 0.90957 0.64364 0.0
H73 H 0.09008 0.92099 0.63552 0.0
H74 H 0.10735 0.92846 0.66115 0.0
H75 H 0.10043 0.93982 0.65289 0.0
H76 H 0.09573 0.97856 0.63048 0.0
H77 H 0.08264 0.98191 0.60631 0.0
H78 H 0.07538 0.96819 0.60839 0.0
H79 H 0.08829 0.96484 0.63257 0.0
C80 C 0.35734 0.80704 0.87375 0.0
C81 C 0.35011 0.80189 0.87222 0.0
C82 C 0.35919 0.79053 0.86635 0.0
C83 C 0.35103 0.79371 0.86858 0.0
C84 C 0.36638 0.79578 0.86783 0.0
C85 C 0.36546 0.80392 0.87149 0.0
U86 U 0.34533 0.8279 0.87985 0.0
O87 O 0.34574 0.8351 0.89199 0.0
O88 O 0.35019 0.84118 0.88012 0.0
C89 C 0.34932 0.84187 0.88847 0.0
C90 C 0.35667 0.81556 0.87785 0.0
C91 C 0.3566 0.84571 0.89315 0.0
C92 C 0.37092 0.84501 0.89935 0.0
C93 C 0.36417 0.84113 0.89482 0.0
C94 C 0.3626 0.85805 0.90056 0.0
C95 C 0.37023 0.85355 0.90227 0.0
C96 C 0.35589 0.85418 0.89606 0.0
C97 C 0.32169 0.83107 0.87256 0.0
C98 C 0.31344 0.84394 0.86924 0.0
C99 C 0.30608 0.83068 0.87254 0.0
C100 C 0.31398 0.82658 0.87366 0.0
C101 C 0.30569 0.83941 0.87025 0.0
C102 C 0.32136 0.83982 0.8704 0.0
C103 C 0.3299 0.82631 0.87322 0.0
O104 O 0.35606 0.82217 0.87265 0.0
O105 O 0.35155 0.81613 0.88452 0.0
O106 O 0.33196 0.82338 0.88084 0.0
O107 O 0.33649 0.82942 0.86898 0.0
H108 H 0.34377 0.80418 0.87388 0.0
H109 H 0.34534 0.78991 0.86744 0.0
H110 H 0.37277 0.79353 0.86633 0.0
H111 H 0.37112 0.80776 0.87264 0.0
H112 H 0.37671 0.84136 0.90047 0.0
H113 H 0.36485 0.83458 0.89261 0.0
H114 H 0.36175 0.86456 0.90281 0.0
H115 H 0.35009 0.85781 0.89487 0.0
H116 H 0.3134 0.85068 0.86759 0.0
H117 H 0.30028 0.82695 0.87326 0.0
H118 H 0.31406 0.81981 0.87526 0.0
H119 H 0.32721 0.84346 0.86952 0.0
C120 C 0.48138 0.10726 0.12403 0.0
C121 C 0.48686 0.10017 0.12309 0.0
C122 C 0.49794 0.10932 0.11678 0.0
C123 C 0.49505 0.10119 0.1195 0.0
C124 C 0.49234 0.11635 0.1176 0.0
C125 C 0.48418 0.11532 0.12119 0.0
U126 U 0.46053 0.09525 0.13034 0.0
O127 O 0.45358 0.09553 0.14267 0.0
O128 O 0.44733 0.10018 0.13097 0.0
C129 C 0.44683 0.09932 0.13934 0.0
C130 C 0.4729 0.10655 0.12823 0.0
C131 C 0.44323 0.10663 0.14422 0.0
C132 C 0.43979 0.12181 0.14578 0.0
C133 C 0.4438 0.11513 0.14127 0.0
C134 C 0.43475 0.11163 0.15635 0.0
C135 C 0.43514 0.12014 0.15335 0.0
C136 C 0.43873 0.10497 0.15183 0.0
C137 C 0.45726 0.07167 0.12282 0.0
C138 C 0.44412 0.06342 0.12086 0.0
C139 C 0.4578 0.05613 0.12133 0.0
C140 C 0.46194 0.064 0.1225 0.0
C141 C 0.44883 0.05572 0.12042 0.0
C142 C 0.44829 0.07132 0.12206 0.0
C143 C 0.46197 0.07988 0.12351 0.0
O144 O 0.46622 0.10603 0.12313 0.0
O145 O 0.4724 0.10138 0.13487 0.0
O146 O 0.46501 0.08185 0.13111 0.0
O147 O 0.45874 0.08651 0.11943 0.0
H148 H 0.48485 0.09387 0.12523 0.0
H149 H 0.49919 0.09564 0.11905 0.0
H150 H 0.49424 0.12267 0.11544 0.0
H151 H 0.48005 0.12088 0.12182 0.0
H152 H 0.44033 0.12829 0.14333 0.0
H153 H 0.44726 0.11661 0.13543 0.0
H154 H 0.43115 0.11006 0.16208 0.0
H155 H 0.43816 0.09847 0.15422 0.0
H156 H 0.43721 0.06335 0.1203 0.0
H157 H 0.46167 0.05038 0.12091 0.0
H158 H 0.46887 0.06411 0.12302 0.0
H159 H 0.44452 0.07714 0.1223 0.0
C160 C 0.1803 0.80662 0.16368 0.0
C161 C 0.18753 0.8014 0.16498 0.0
C162 C 0.17853 0.79011 0.17114 0.0
C163 C 0.18665 0.79323 0.16866 0.0
C164 C 0.17136 0.79545 0.16994 0.0
C165 C 0.17224 0.80359 0.16625 0.0
U166 U 0.19218 0.82747 0.1572 0.0
O167 O 0.19181 0.8344 0.14486 0.0
O168 O 0.18726 0.84068 0.15657 0.0
C169 C 0.18806 0.84116 0.1482 0.0
C170 C 0.18091 0.81509 0.15943 0.0
C171 C 0.18072 0.84475 0.14336 0.0
C172 C 0.16548 0.84783 0.14173 0.0
C173 C 0.17221 0.84387 0.1462 0.0
C174 C 0.17562 0.85346 0.13143 0.0
C175 C 0.1671 0.85274 0.13431 0.0
C176 C 0.18233 0.84952 0.13591 0.0
C177 C 0.21581 0.83067 0.16456 0.0
C178 C 0.22415 0.84384 0.16575 0.0
C179 C 0.23128 0.83009 0.16653 0.0
C180 C 0.2234 0.82594 0.16545 0.0
C181 C 0.23178 0.8391 0.16675 0.0
C182 C 0.21625 0.83967 0.16465 0.0
C183 C 0.20758 0.82599 0.16393 0.0
O184 O 0.18147 0.82179 0.16451 0.0
O185 O 0.18602 0.81559 0.15275 0.0
O186 O 0.20556 0.82296 0.15634 0.0
O187 O 0.20101 0.82929 0.16804 0.0
H188 H 0.19383 0.8036 0.16304 0.0
H189 H 0.19231 0.78929 0.16941 0.0
H190 H 0.16503 0.79338 0.1719 0.0
H191 H 0.16659 0.80752 0.16534 0.0
H192 H 0.159 0.84704 0.14409 0.0
H193 H 0.17078 0.84019 0.15192 0.0
H194 H 0.17716 0.85725 0.12582 0.0
H195 H 0.18884 0.85033 0.13361 0.0
H196 H 0.22429 0.85078 0.16578 0.0
H197 H 0.23696 0.8262 0.16741 0.0
H198 H 0.22321 0.819 0.16545 0.0
H199 H 0.21048 0.84347 0.16395 0.0
C200 C 0.48141 0.93104 0.41444 0.0
C201 C 0.48766 0.93746 0.41337 0.0
C202 C 0.49785 0.92926 0.42201 0.0
C203 C 0.49579 0.93656 0.4171 0.0
C204 C 0.49153 0.92292 0.42313 0.0
C205 C 0.48343 0.9238 0.41938 0.0
U206 U 0.46036 0.94251 0.40776 0.0
O207 O 0.45323 0.94166 0.39562 0.0
O208 O 0.44717 0.93737 0.40757 0.0
C209 C 0.44658 0.93789 0.39918 0.0
C210 C 0.47291 0.93149 0.41019 0.0
C211 C 0.44292 0.93032 0.39472 0.0
C212 C 0.4436 0.91903 0.38391 0.0
C213 C 0.4475 0.92575 0.38844 0.0
C214 C 0.43053 0.9212 0.39196 0.0
C215 C 0.43503 0.91669 0.38558 0.0
C216 C 0.43442 0.92793 0.39645 0.0
C217 C 0.45689 0.96628 0.41467 0.0
C218 C 0.44368 0.97443 0.41641 0.0
C219 C 0.45732 0.98182 0.41615 0.0
C220 C 0.46153 0.97397 0.41505 0.0
C221 C 0.44833 0.98217 0.41691 0.0
C222 C 0.44791 0.96656 0.41529 0.0
C223 C 0.46168 0.9581 0.4141 0.0
O224 O 0.46622 0.93205 0.41528 0.0
O225 O 0.47228 0.93638 0.40335 0.0
O226 O 0.46461 0.95595 0.4065 0.0
O227 O 0.45859 0.95155 0.41843 0.0
H228 H 0.48629 0.94313 0.40961 0.0
H229 H 0.50046 0.94162 0.41618 0.0
H230 H 0.49289 0.91716 0.42677 0.0
H231 H 0.47875 0.91873 0.42025 0.0
H232 H 0.4473 0.91564 0.37912 0.0
H233 H 0.45407 0.92743 0.38695 0.0
H234 H 0.4239 0.91969 0.39336 0.0
H235 H 0.43072 0.93139 0.4012 0.0
H236 H 0.43675 0.97446 0.41686 0.0
H237 H 0.46115 0.98759 0.41663 0.0
H238 H 0.46846 0.9739 0.41465 0.0
H239 H 0.44419 0.96071 0.415 0.0
C240 C 0.35721 0.23225 0.6625 0.0
C241 C 0.3519 0.23491 0.66927 0.0
C242 C 0.35947 0.24864 0.67004 0.0
C243 C 0.35302 0.24303 0.673 0.0
C244 C 0.36465 0.24595 0.66316 0.0
C245 C 0.36353 0.23786 0.65945 0.0
U246 U 0.34517 0.21114 0.65729 0.0
O247 O 0.34512 0.2038 0.6452 0.0
O248 O 0.35016 0.19794 0.65694 0.0
C249 C 0.34903 0.19717 0.64863 0.0
C250 C 0.35645 0.22364 0.65861 0.0
C251 C 0.35619 0.19342 0.64363 0.0
C252 C 0.37135 0.19032 0.64146 0.0
C253 C 0.3648 0.19447 0.64604 0.0
C254 C 0.36079 0.18419 0.63191 0.0
C255 C 0.36943 0.18503 0.63439 0.0
C256 C 0.35427 0.18833 0.63648 0.0
C257 C 0.32186 0.20807 0.66559 0.0
C258 C 0.31349 0.19488 0.66602 0.0
C259 C 0.30669 0.20845 0.66923 0.0
C260 C 0.31448 0.21267 0.66784 0.0
C261 C 0.30608 0.19948 0.66841 0.0
C262 C 0.32131 0.19913 0.66463 0.0
C263 C 0.33001 0.21279 0.66452 0.0
O264 O 0.35609 0.21711 0.66394 0.0
O265 O 0.35108 0.22293 0.65216 0.0
O266 O 0.33176 0.21555 0.65676 0.0
O267 O 0.33674 0.20965 0.6685 0.0
H268 H 0.34696 0.23068 0.67172 0.0
H269 H 0.34895 0.24484 0.67832 0.0
H270 H 0.36957 0.25013 0.66059 0.0
H271 H 0.36767 0.23596 0.65421 0.0
H272 H 0.37791 0.19107 0.64361 0.0
H273 H 0.36646 0.19837 0.65153 0.0
H274 H 0.35905 0.18033 0.62642 0.0
H275 H 0.34768 0.18744 0.63449 0.0
H276 H 0.31329 0.18796 0.66538 0.0
H277 H 0.30112 0.21224 0.67089 0.0
H278 H 0.31475 0.21958 0.66859 0.0
H279 H 0.32693 0.19545 0.66289 0.0
C280 C 0.05654 0.10796 0.91392 0.0
C281 C 0.05165 0.10066 0.9159 0.0
C282 C 0.04008 0.10969 0.92142 0.0
C283 C 0.04349 0.10152 0.9196 0.0
C284 C 0.04507 0.11696 0.91945 0.0
C285 C 0.05319 0.11609 0.91575 0.0
U286 U 0.07746 0.09607 0.90771 0.0
O287 O 0.08473 0.0967 0.89563 0.0
O288 O 0.09071 0.10103 0.90759 0.0
C289 C 0.09139 0.10043 0.89922 0.0
C290 C 0.06507 0.10734 0.90982 0.0
C291 C 0.09514 0.10793 0.89471 0.0
C292 C 0.09444 0.11947 0.88415 0.0
C293 C 0.09048 0.11276 0.88869 0.0
C294 C 0.10771 0.11672 0.89167 0.0
C295 C 0.10313 0.12151 0.88555 0.0
C296 C 0.10377 0.11001 0.89617 0.0
C297 C 0.08059 0.07235 0.91489 0.0
C298 C 0.09374 0.06411 0.91679 0.0
C299 C 0.08006 0.05681 0.91642 0.0
C300 C 0.07591 0.06468 0.91525 0.0
C301 C 0.08903 0.0564 0.91727 0.0
C302 C 0.08956 0.07201 0.9156 0.0
C303 C 0.07588 0.08056 0.91421 0.0
O304 O 0.07165 0.10668 0.91503 0.0
O305 O 0.06566 0.10229 0.90311 0.0
O306 O 0.07305 0.08267 0.90656 0.0
O307 O 0.07899 0.08711 0.9185 0.0
H308 H 0.05413 0.09431 0.91457 0.0
H309 H 0.03988 0.09577 0.92111 0.0
H310 H 0.04263 0.12335 0.92063 0.0
H311 H 0.05684 0.12181 0.91424 0.0
H312 H 0.09068 0.12308 0.87957 0.0
H313 H 0.08381 0.11133 0.88743 0.0
H314 H 0.11443 0.118 0.89285 0.0
H315 H 0.10752 0.10635 0.90072 0.0
H316 H 0.10065 0.06405 0.91731 0.0
H317 H 0.07619 0.05107 0.91687 0.0
H318 H 0.06898 0.0648 0.91477 0.0
H319 H 0.09333 0.07783 0.91533 0.0
C320 C 0.37298 0.1801 0.23102 0.0
C321 C 0.37225 0.18724 0.23646 0.0
C322 C 0.36569 0.17832 0.24758 0.0
C323 C 0.36866 0.18635 0.24467 0.0
C324 C 0.36637 0.17123 0.24205 0.0
C325 C 0.36998 0.17212 0.23388 0.0
U326 U 0.37921 0.1919 0.21003 0.0
O327 O 0.39126 0.19119 0.20272 0.0
O328 O 0.37925 0.18695 0.19679 0.0
C329 C 0.38762 0.18759 0.19604 0.0
C330 C 0.37705 0.18068 0.22247 0.0
C331 C 0.3921 0.18016 0.1922 0.0
C332 C 0.40084 0.16724 0.19328 0.0
C333 C 0.3963 0.17395 0.19721 0.0
C334 C 0.39694 0.17278 0.17933 0.0
C335 C 0.40124 0.16657 0.18427 0.0
C336 C 0.39243 0.17947 0.18325 0.0
C337 C 0.3723 0.21567 0.20674 0.0
C338 C 0.36859 0.22395 0.19399 0.0
C339 C 0.3728 0.2313 0.20697 0.0
C340 C 0.37388 0.22339 0.21108 0.0
C341 C 0.37006 0.2317 0.19838 0.0
C342 C 0.3697 0.21602 0.19811 0.0
C343 C 0.37287 0.20748 0.21154 0.0
O344 O 0.37183 0.18134 0.21589 0.0
O345 O 0.38382 0.18566 0.22181 0.0
O346 O 0.38049 0.20531 0.21441 0.0
O347 O 0.36848 0.20093 0.20855 0.0
H348 H 0.37449 0.19348 0.23438 0.0
H349 H 0.36814 0.19198 0.2487 0.0
H350 H 0.36427 0.16493 0.24409 0.0
H351 H 0.37051 0.16652 0.22981 0.0
H352 H 0.40398 0.16253 0.1973 0.0
H353 H 0.39612 0.17433 0.20413 0.0
H354 H 0.39719 0.17258 0.1724 0.0
H355 H 0.38929 0.18421 0.17926 0.0
H356 H 0.36658 0.224 0.18734 0.0
H357 H 0.37389 0.2371 0.2106 0.0
H358 H 0.37581 0.2233 0.21775 0.0
H359 H 0.36844 0.21018 0.19458 0.0
C360 C 0.10756 0.12516 0.48124 0.0
C361 C 0.10147 0.11934 0.48444 0.0
C362 C 0.10976 0.11765 0.49765 0.0
C363 C 0.10256 0.11563 0.49257 0.0
C364 C 0.11575 0.12358 0.49441 0.0
C365 C 0.11466 0.12728 0.48631 0.0
U366 U 0.09535 0.13049 0.46029 0.0
O367 O 0.09554 0.14244 0.45277 0.0
O368 O 0.10018 0.1305 0.447 0.0
C369 C 0.0992 0.13882 0.4461 0.0
C370 C 0.10678 0.12901 0.47262 0.0
C371 C 0.10645 0.14353 0.4422 0.0
C372 C 0.12028 0.15073 0.44308 0.0
C373 C 0.11364 0.14606 0.44698 0.0
C374 C 0.11265 0.15032 0.42959 0.0
C375 C 0.11985 0.15298 0.43433 0.0
C376 C 0.10604 0.14567 0.43349 0.0
C377 C 0.07182 0.12278 0.45753 0.0
C378 C 0.06351 0.12167 0.44435 0.0
C379 C 0.05642 0.12035 0.45808 0.0
C380 C 0.06427 0.12155 0.46224 0.0
C381 C 0.05591 0.12036 0.44907 0.0
C382 C 0.07139 0.12289 0.44853 0.0
C383 C 0.08003 0.12366 0.46219 0.0
O384 O 0.10618 0.12362 0.46617 0.0
O385 O 0.10155 0.13557 0.47192 0.0
O386 O 0.082 0.1314 0.46486 0.0
O387 O 0.08663 0.11946 0.45908 0.0
H388 H 0.09594 0.11762 0.48062 0.0
H389 H 0.09785 0.11104 0.49481 0.0
H390 H 0.12128 0.12543 0.49817 0.0
H391 H 0.11941 0.13178 0.48398 0.0
H392 H 0.12568 0.15272 0.44696 0.0
H393 H 0.11407 0.14448 0.45373 0.0
H394 H 0.11214 0.15178 0.42282 0.0
H395 H 0.10057 0.14375 0.42967 0.0
H396 H 0.06337 0.12182 0.43741 0.0
H397 H 0.05076 0.11924 0.46195 0.0
H398 H 0.06447 0.1214 0.46918 0.0
H399 H 0.07713 0.12385 0.44475 0.0
C400 C 0.1626 0.85712 0.73173 0.0
C401 C 0.16961 0.85207 0.73428 0.0
C402 C 0.16994 0.85924 0.74822 0.0
C403 C 0.17324 0.85312 0.74245 0.0
C404 C 0.1628 0.86413 0.74566 0.0
C405 C 0.15919 0.86308 0.73752 0.0
U406 U 0.1574 0.84553 0.71034 0.0
O407 O 0.1456 0.84618 0.70264 0.0
O408 O 0.15773 0.85075 0.69719 0.0
C409 C 0.14939 0.85007 0.69619 0.0
C410 C 0.1589 0.85657 0.72302 0.0
C411 C 0.14494 0.85759 0.69243 0.0
C412 C 0.13446 0.86918 0.6931 0.0
C413 C 0.13893 0.86245 0.69707 0.0
C414 C 0.14203 0.86642 0.67986 0.0
C415 C 0.13591 0.87123 0.68442 0.0
C416 C 0.14646 0.85969 0.68381 0.0
C417 C 0.16478 0.82187 0.70712 0.0
C418 C 0.16784 0.81378 0.69411 0.0
C419 C 0.16582 0.80629 0.70754 0.0
C420 C 0.16441 0.81412 0.71168 0.0
C421 C 0.16766 0.806 0.69871 0.0
C422 C 0.16642 0.82164 0.69827 0.0
C423 C 0.16389 0.83002 0.71191 0.0
O424 O 0.16437 0.85606 0.71662 0.0
O425 O 0.15225 0.8515 0.72208 0.0
O426 O 0.15614 0.83206 0.7145 0.0
O427 O 0.16828 0.83665 0.70907 0.0
H428 H 0.17235 0.84742 0.72992 0.0
H429 H 0.17876 0.84928 0.74416 0.0
H430 H 0.15997 0.86879 0.74996 0.0
H431 H 0.15377 0.86702 0.7357 0.0
H432 H 0.12988 0.87281 0.69685 0.0
H433 H 0.13764 0.861 0.70373 0.0
H434 H 0.14325 0.86771 0.67315 0.0
H435 H 0.15101 0.85601 0.68007 0.0
H436 H 0.1693 0.81383 0.68732 0.0
H437 H 0.16545 0.80045 0.71128 0.0
H438 H 0.16314 0.81413 0.71851 0.0
H439 H 0.16675 0.82753 0.6946 0.0
C440 C 0.43005 0.9118 0.98183 0.0
C441 C 0.43604 0.91777 0.98492 0.0
C442 C 0.42779 0.91942 0.99817 0.0
C443 C 0.43492 0.92154 0.99302 0.0
C444 C 0.4219 0.91334 0.99503 0.0
C445 C 0.42302 0.90959 0.98697 0.0
U446 U 0.44228 0.90648 0.96089 0.0
O447 O 0.44232 0.8944 0.95354 0.0
O448 O 0.43743 0.90619 0.94765 0.0
C449 C 0.43853 0.89786 0.94687 0.0
C450 C 0.43087 0.90787 0.97325 0.0
C451 C 0.43132 0.89297 0.94312 0.0
C452 C 0.41612 0.88958 0.94196 0.0
C453 C 0.42284 0.8941 0.9459 0.0
C454 C 0.42631 0.88267 0.93253 0.0
C455 C 0.41777 0.88382 0.93519 0.0
C456 C 0.43299 0.8872 0.93645 0.0
C457 C 0.46567 0.91466 0.958 0.0
C458 C 0.47397 0.91615 0.94484 0.0
C459 C 0.48102 0.91739 0.95859 0.0
C460 C 0.47319 0.91594 0.96273 0.0
C461 C 0.48152 0.9176 0.94959 0.0
C462 C 0.46612 0.9147 0.94901 0.0
C463 C 0.45747 0.91363 0.96266 0.0
O464 O 0.43134 0.9132 0.96673 0.0
O465 O 0.43623 0.90141 0.97261 0.0
O466 O 0.45566 0.90588 0.96542 0.0
O467 O 0.45078 0.91766 0.9595 0.0
H468 H 0.44152 0.91956 0.98105 0.0
H469 H 0.43955 0.92624 0.99518 0.0
H470 H 0.41642 0.91142 0.99884 0.0
H471 H 0.41835 0.90497 0.98472 0.0
H472 H 0.40965 0.89056 0.94425 0.0
H473 H 0.4214 0.89851 0.95107 0.0
H474 H 0.42784 0.87841 0.92727 0.0
H475 H 0.43949 0.88625 0.93418 0.0
H476 H 0.47408 0.91633 0.93791 0.0
H477 H 0.4867 0.91831 0.96248 0.0
H478 H 0.47301 0.91591 0.96967 0.0
H479 H 0.46039 0.91372 0.94521 0.0
C480 C 0.37546 0.85752 0.30506 0.0
C481 C 0.36954 0.85141 0.30214 0.0
C482 C 0.36787 0.85923 0.28864 0.0
C483 C 0.36577 0.85226 0.29402 0.0
C484 C 0.37385 0.86529 0.29162 0.0
C485 C 0.37759 0.86444 0.29973 0.0
U486 U 0.38094 0.84567 0.32614 0.0
O487 O 0.39309 0.84568 0.33338 0.0
O488 O 0.38136 0.85068 0.33932 0.0
C489 C 0.38969 0.8496 0.34002 0.0
C490 C 0.37946 0.85691 0.31362 0.0
C491 C 0.3947 0.85678 0.34372 0.0
C492 C 0.39659 0.87191 0.34725 0.0
C493 C 0.392 0.86536 0.3431 0.0
C494 C 0.40674 0.86143 0.35251 0.0
C495 C 0.40397 0.87002 0.35211 0.0
C496 C 0.40215 0.85492 0.34838 0.0
C497 C 0.37276 0.82229 0.32931 0.0
C498 C 0.37184 0.814 0.34253 0.0
C499 C 0.36966 0.80699 0.32887 0.0
C500 C 0.37104 0.8148 0.32465 0.0
C501 C 0.36996 0.80648 0.33787 0.0
C502 C 0.37322 0.82183 0.33829 0.0
C503 C 0.37377 0.83046 0.32459 0.0
O504 O 0.37418 0.85654 0.32019 0.0
O505 O 0.38593 0.85158 0.31431 0.0
O506 O 0.3815 0.83223 0.32175 0.0
O507 O 0.36978 0.83718 0.32773 0.0
H508 H 0.36783 0.84599 0.30615 0.0
H509 H 0.36126 0.84742 0.29191 0.0
H510 H 0.37554 0.87081 0.28775 0.0
H511 H 0.38213 0.86924 0.30187 0.0
H512 H 0.39421 0.87842 0.34683 0.0
H513 H 0.38626 0.867 0.33955 0.0
H514 H 0.41246 0.85973 0.35603 0.0
H515 H 0.40437 0.84836 0.34894 0.0
H516 H 0.37206 0.81388 0.34946 0.0
H517 H 0.36841 0.80134 0.32504 0.0
H518 H 0.37069 0.81499 0.31772 0.0
H519 H 0.37454 0.82754 0.34201 0.0
C520 C 0.4296 0.12388 0.55646 0.0
C521 C 0.43687 0.12222 0.55142 0.0
C522 C 0.42784 0.11677 0.53982 0.0
C523 C 0.436 0.1187 0.54318 0.0
C524 C 0.4206 0.11835 0.54498 0.0
C525 C 0.42148 0.12187 0.55318 0.0
U526 U 0.44149 0.12974 0.57746 0.0
O527 O 0.44095 0.14173 0.58488 0.0
O528 O 0.43654 0.12971 0.59071 0.0
C529 C 0.43721 0.13808 0.59149 0.0
C530 C 0.43022 0.12785 0.56504 0.0
C531 C 0.42974 0.14258 0.59528 0.0
C532 C 0.41809 0.15301 0.59456 0.0
C533 C 0.42478 0.14848 0.59059 0.0
C534 C 0.42109 0.14571 0.60791 0.0
C535 C 0.41618 0.15171 0.60329 0.0
C536 C 0.42778 0.14123 0.60395 0.0
C537 C 0.46513 0.12233 0.58043 0.0
C538 C 0.47346 0.12164 0.59363 0.0
C539 C 0.48043 0.11933 0.57997 0.0
C540 C 0.47261 0.1206 0.57577 0.0
C541 C 0.48097 0.11975 0.58896 0.0
C542 C 0.46561 0.12291 0.5894 0.0
C543 C 0.45694 0.12315 0.57574 0.0
O544 O 0.43084 0.12255 0.57156 0.0
O545 O 0.4353 0.13454 0.56572 0.0
O546 O 0.45489 0.13087 0.57305 0.0
O547 O 0.45037 0.11887 0.57885 0.0
H548 H 0.44321 0.12372 0.55383 0.0
H549 H 0.44172 0.11765 0.53939 0.0
H550 H 0.41423 0.11681 0.54271 0.0
H551 H 0.41579 0.12306 0.55697 0.0
H552 H 0.41439 0.15749 0.59077 0.0
H553 H 0.42612 0.14965 0.58387 0.0
H554 H 0.41991 0.14461 0.61466 0.0
H555 H 0.43154 0.13677 0.60773 0.0
H556 H 0.4736 0.12196 0.60056 0.0
H557 H 0.48608 0.11805 0.57614 0.0
H558 H 0.47239 0.12014 0.56884 0.0
H559 H 0.45991 0.12423 0.59314 0.0
C560 C 0.16263 0.18105 0.80502 0.0
C561 C 0.16997 0.18578 0.8028 0.0
C562 C 0.17024 0.1791 0.78862 0.0
C563 C 0.17375 0.18479 0.79469 0.0
C564 C 0.16281 0.17448 0.79087 0.0
C565 C 0.15907 0.17545 0.79897 0.0
U566 U 0.15715 0.1928 0.82619 0.0
O567 O 0.145 0.19272 0.83344 0.0
O568 O 0.15673 0.18771 0.83935 0.0
C569 C 0.14841 0.18879 0.84007 0.0
C570 C 0.15867 0.18165 0.81361 0.0
C571 C 0.14342 0.1816 0.84378 0.0
C572 C 0.14138 0.16642 0.84702 0.0
C573 C 0.14595 0.17299 0.84288 0.0
C574 C 0.13157 0.17693 0.85283 0.0
C575 C 0.13418 0.16831 0.85215 0.0
C576 C 0.13614 0.18347 0.84871 0.0
C577 C 0.16519 0.21624 0.82941 0.0
C578 C 0.1673 0.22441 0.84256 0.0
C579 C 0.16722 0.23171 0.82887 0.0
C580 C 0.16581 0.22389 0.82473 0.0
C581 C 0.16809 0.23209 0.83784 0.0
C582 C 0.16587 0.21656 0.83839 0.0
C583 C 0.16424 0.20806 0.82469 0.0
O584 O 0.16393 0.18198 0.82019 0.0
O585 O 0.15215 0.18694 0.81434 0.0
O586 O 0.15653 0.20626 0.82183 0.0
O587 O 0.16827 0.20134 0.8278 0.0
H588 H 0.17281 0.19018 0.80735 0.0
H589 H 0.17939 0.18853 0.79316 0.0
H590 H 0.15999 0.16995 0.78644 0.0
H591 H 0.15343 0.17172 0.80055 0.0
H592 H 0.14363 0.15989 0.84639 0.0
H593 H 0.15155 0.17136 0.83911 0.0
H594 H 0.12598 0.17864 0.85657 0.0
H595 H 0.13404 0.19005 0.84948 0.0
H596 H 0.16798 0.22443 0.84947 0.0
H597 H 0.16762 0.23748 0.82503 0.0
H598 H 0.16528 0.2238 0.8178 0.0
H599 H 0.16542 0.21074 0.84216 0.0
C600 C 0.10747 0.9147 0.05675 0.0
C601 C 0.10031 0.91577 0.05141 0.0
C602 C 0.10934 0.92201 0.0402 0.0
C603 C 0.10124 0.91937 0.0432 0.0
C604 C 0.11647 0.92099 0.04564 0.0
C605 C 0.11553 0.91737 0.0538 0.0
U606 U 0.09547 0.90866 0.07764 0.0
O607 O 0.09591 0.89661 0.08498 0.0
O608 O 0.10031 0.90856 0.09093 0.0
C609 C 0.09952 0.9002 0.09169 0.0
C610 C 0.10682 0.91064 0.0653 0.0
C611 C 0.10684 0.89559 0.09558 0.0
C612 C 0.11978 0.88689 0.09456 0.0
C613 C 0.11318 0.89158 0.09061 0.0
C614 C 0.11385 0.8903 0.10848 0.0
C615 C 0.12016 0.88611 0.10356 0.0
C616 C 0.10729 0.89496 0.10453 0.0
C617 C 0.0718 0.91596 0.08059 0.0
C618 C 0.06353 0.91773 0.09373 0.0
C619 C 0.0563 0.91763 0.08002 0.0
C620 C 0.06417 0.91646 0.07588 0.0
C621 C 0.05585 0.91834 0.089 0.0
C622 C 0.07142 0.91653 0.08957 0.0
C623 C 0.08002 0.91524 0.0759 0.0
O624 O 0.10617 0.91588 0.07186 0.0
O625 O 0.10175 0.90393 0.06593 0.0
O626 O 0.08211 0.90757 0.07312 0.0
O627 O 0.08657 0.91952 0.07903 0.0
H628 H 0.09401 0.91378 0.05356 0.0
H629 H 0.09559 0.92014 0.03925 0.0
H630 H 0.12282 0.92282 0.04353 0.0
H631 H 0.12116 0.91658 0.0578 0.0
H632 H 0.12448 0.88372 0.09056 0.0
H633 H 0.11298 0.89198 0.08368 0.0
H634 H 0.114 0.89 0.11541 0.0
H635 H 0.10248 0.89803 0.1085 0.0
H636 H 0.06344 0.91814 0.10065 0.0
H637 H 0.05057 0.91819 0.07614 0.0
H638 H 0.06431 0.91609 0.06894 0.0
H639 H 0.07723 0.91614 0.09335 0.0
C640 C 0.23157 0.37417 0.18015 0.0
C641 C 0.23685 0.3729 0.18733 0.0
C642 C 0.248 0.36661 0.17828 0.0
C643 C 0.24498 0.36917 0.1864 0.0
C644 C 0.24262 0.36783 0.17114 0.0
C645 C 0.23452 0.37157 0.17207 0.0
U646 U 0.21075 0.38062 0.19208 0.0
O647 O 0.20386 0.39298 0.19176 0.0
O648 O 0.19756 0.38128 0.18716 0.0
C649 C 0.1971 0.38966 0.18799 0.0
C650 C 0.22313 0.37844 0.1808 0.0
C651 C 0.19352 0.39455 0.18066 0.0
C652 C 0.19012 0.3961 0.16548 0.0
C653 C 0.19412 0.39159 0.17217 0.0
C654 C 0.18504 0.40667 0.17562 0.0
C655 C 0.18546 0.40367 0.16712 0.0
C656 C 0.18901 0.40216 0.18229 0.0
C657 C 0.2075 0.37306 0.21569 0.0
C658 C 0.19447 0.37066 0.224 0.0
C659 C 0.20816 0.37163 0.23122 0.0
C660 C 0.21222 0.37296 0.22333 0.0
C661 C 0.19924 0.37035 0.23167 0.0
C662 C 0.19856 0.37199 0.21608 0.0
C663 C 0.21218 0.37378 0.20745 0.0
O664 O 0.21641 0.37338 0.18133 0.0
O665 O 0.22266 0.38509 0.18596 0.0
O666 O 0.21523 0.38138 0.20548 0.0
O667 O 0.20892 0.3697 0.20083 0.0
H668 H 0.2347 0.37483 0.19365 0.0
H669 H 0.24889 0.36824 0.19206 0.0
H670 H 0.24474 0.36606 0.16477 0.0
H671 H 0.23058 0.37253 0.16644 0.0
H672 H 0.19068 0.39365 0.15901 0.0
H673 H 0.19758 0.38576 0.17072 0.0
H674 H 0.18144 0.4124 0.17717 0.0
H675 H 0.18841 0.40454 0.18879 0.0
H676 H 0.18761 0.36965 0.22407 0.0
H677 H 0.21202 0.37161 0.23698 0.0
H678 H 0.21912 0.37377 0.22319 0.0
H679 H 0.19477 0.37204 0.21028 0.0
C680 C 0.73177 0.16428 0.85754 0.0
C681 C 0.7371 0.1654 0.85037 0.0
C682 C 0.74841 0.17136 0.85945 0.0
C683 C 0.74534 0.16891 0.85132 0.0
C684 C 0.74295 0.17033 0.86657 0.0
C685 C 0.73475 0.16683 0.86562 0.0
U686 U 0.71075 0.15825 0.84569 0.0
O687 O 0.70343 0.14619 0.84627 0.0
O688 O 0.69753 0.15815 0.85073 0.0
C689 C 0.69683 0.14977 0.85011 0.0
C690 C 0.72321 0.16025 0.85689 0.0
C691 C 0.69314 0.14522 0.85764 0.0
C692 C 0.6932 0.13354 0.86808 0.0
C693 C 0.69719 0.13809 0.86141 0.0
C694 C 0.68111 0.14322 0.86743 0.0
C695 C 0.68508 0.13601 0.87115 0.0
C696 C 0.68508 0.14773 0.86076 0.0
C697 C 0.7076 0.16561 0.82201 0.0
C698 C 0.69451 0.16784 0.81377 0.0
C699 C 0.7082 0.1673 0.8065 0.0
C700 C 0.7123 0.16595 0.81436 0.0
C701 C 0.69925 0.16839 0.80609 0.0
C702 C 0.69864 0.16648 0.82165 0.0
C703 C 0.7123 0.16484 0.83021 0.0
O704 O 0.71665 0.1655 0.8563 0.0
O705 O 0.72255 0.15355 0.85182 0.0
O706 O 0.71509 0.15715 0.83227 0.0
O707 O 0.70922 0.1691 0.83679 0.0
H708 H 0.73493 0.16348 0.84406 0.0
H709 H 0.74936 0.16953 0.84569 0.0
H710 H 0.745 0.17229 0.87291 0.0
H711 H 0.73074 0.16606 0.87124 0.0
H712 H 0.6965 0.12809 0.87084 0.0
H713 H 0.7034 0.13596 0.85916 0.0
H714 H 0.67482 0.14525 0.86953 0.0
H715 H 0.68176 0.15313 0.85792 0.0
H716 H 0.68762 0.1687 0.81372 0.0
H717 H 0.71206 0.16751 0.80074 0.0
H718 H 0.71921 0.16528 0.81447 0.0
H719 H 0.69486 0.16626 0.82747 0.0
C720 C 0.12348 0.48141 0.10739 0.0
C721 C 0.12273 0.48689 0.10028 0.0
C722 C 0.11621 0.49799 0.10925 0.0
C723 C 0.11915 0.49511 0.1012 0.0
C724 C 0.11691 0.49241 0.11631 0.0
C725 C 0.1205 0.48424 0.11539 0.0
U726 U 0.1296 0.46049 0.09546 0.0
O727 O 0.14164 0.45316 0.09605 0.0
O728 O 0.12965 0.4472 0.10034 0.0
C729 C 0.13801 0.44645 0.09965 0.0
C730 C 0.12753 0.47286 0.10676 0.0
C731 C 0.14252 0.44258 0.10705 0.0
C732 C 0.15123 0.44363 0.11998 0.0
C733 C 0.14669 0.44758 0.11327 0.0
C734 C 0.14739 0.42968 0.11438 0.0
C735 C 0.15167 0.43462 0.12061 0.0
C736 C 0.14289 0.43362 0.1077 0.0
C737 C 0.12245 0.45749 0.07176 0.0
C738 C 0.12083 0.44432 0.06351 0.0
C739 C 0.12072 0.45804 0.05626 0.0
C740 C 0.12186 0.4622 0.06412 0.0
C741 C 0.12012 0.44904 0.05582 0.0
C742 C 0.12199 0.4485 0.07139 0.0
C743 C 0.12313 0.46219 0.07997 0.0
O744 O 0.1223 0.46628 0.1061 0.0
O745 O 0.13427 0.47223 0.10175 0.0
O746 O 0.13079 0.46498 0.08209 0.0
O747 O 0.11882 0.45907 0.0865 0.0
H748 H 0.12494 0.48485 0.09403 0.0
H749 H 0.11862 0.49917 0.0956 0.0
H750 H 0.11484 0.49442 0.12262 0.0
H751 H 0.12105 0.48014 0.12097 0.0
H752 H 0.15435 0.44765 0.1247 0.0
H753 H 0.14648 0.45451 0.11293 0.0
H754 H 0.14768 0.42275 0.11455 0.0
H755 H 0.13976 0.42964 0.10295 0.0
H756 H 0.12051 0.43738 0.06342 0.0
H757 H 0.12008 0.46192 0.05053 0.0
H758 H 0.12214 0.46914 0.06425 0.0
H759 H 0.12245 0.44472 0.0772 0.0
C760 C 0.80647 0.87417 0.35768 0.0
C761 C 0.80103 0.87333 0.35056 0.0
C762 C 0.78992 0.86686 0.35956 0.0
C763 C 0.79283 0.86973 0.35149 0.0
C764 C 0.79546 0.86765 0.36663 0.0
C765 C 0.80362 0.87126 0.36569 0.0
U766 U 0.82734 0.88024 0.34565 0.0
O767 O 0.83471 0.89227 0.34616 0.0
O768 O 0.84064 0.88027 0.35045 0.0
C769 C 0.84141 0.88863 0.34974 0.0
C770 C 0.81502 0.87822 0.35702 0.0
C771 C 0.8453 0.89315 0.35712 0.0
C772 C 0.84429 0.9019 0.37002 0.0
C773 C 0.84033 0.89736 0.36333 0.0
C774 C 0.85821 0.89796 0.36444 0.0
C775 C 0.8533 0.90228 0.37066 0.0
C776 C 0.85426 0.89346 0.35777 0.0
C777 C 0.83014 0.87296 0.32194 0.0
C778 C 0.84325 0.87153 0.31356 0.0
C779 C 0.82946 0.87063 0.30653 0.0
C780 C 0.82537 0.87193 0.31441 0.0
C781 C 0.83846 0.87031 0.30599 0.0
C782 C 0.83913 0.87283 0.32146 0.0
C783 C 0.82552 0.87372 0.33019 0.0
O784 O 0.82158 0.87298 0.35634 0.0
O785 O 0.81565 0.88496 0.35199 0.0
O786 O 0.82281 0.88141 0.3323 0.0
O787 O 0.82868 0.86942 0.33672 0.0
H788 H 0.80309 0.87549 0.34429 0.0
H789 H 0.78879 0.86913 0.34588 0.0
H790 H 0.79343 0.86563 0.37296 0.0
H791 H 0.8077 0.87187 0.37128 0.0
H792 H 0.8403 0.90506 0.37473 0.0
H793 H 0.8334 0.8972 0.36299 0.0
H794 H 0.86515 0.89819 0.36462 0.0
H795 H 0.85822 0.89029 0.35303 0.0
H796 H 0.85018 0.87127 0.31341 0.0
H797 H 0.82555 0.86989 0.30085 0.0
H798 H 0.81843 0.87203 0.31462 0.0
H799 H 0.84296 0.87361 0.3272 0.0
C800 C 0.91255 0.05668 0.1072 0.0
C801 C 0.92001 0.05441 0.10271 0.0
C802 C 0.91996 0.04022 0.10942 0.0
C803 C 0.92368 0.04626 0.1038 0.0
C804 C 0.91238 0.0425 0.11375 0.0
C805 C 0.90874 0.05063 0.11266 0.0
U806 U 0.90719 0.07803 0.09556 0.0
O807 O 0.89511 0.0854 0.09592 0.0
O808 O 0.90699 0.09116 0.10075 0.0
C809 C 0.89864 0.09192 0.09993 0.0
C810 C 0.90872 0.06535 0.1066 0.0
C811 C 0.89382 0.09544 0.10735 0.0
C812 C 0.89288 0.09977 0.12235 0.0
C813 C 0.89738 0.09583 0.11563 0.0
C814 C 0.88113 0.10282 0.11272 0.0
C815 C 0.88472 0.10337 0.12097 0.0
C816 C 0.88564 0.09892 0.106 0.0
C817 C 0.91494 0.08135 0.07203 0.0
C818 C 0.91694 0.09454 0.06386 0.0
C819 C 0.917 0.08086 0.05656 0.0
C820 C 0.9156 0.07668 0.06438 0.0
C821 C 0.91779 0.08984 0.05618 0.0
C822 C 0.91555 0.09034 0.07171 0.0
C823 C 0.91402 0.0766 0.08019 0.0
O824 O 0.91407 0.07185 0.10621 0.0
O825 O 0.90215 0.06617 0.10141 0.0
O826 O 0.9063 0.07382 0.08209 0.0
O827 O 0.91819 0.07962 0.08686 0.0
H828 H 0.92307 0.05897 0.09845 0.0
H829 H 0.92955 0.04477 0.10041 0.0
H830 H 0.90923 0.038 0.11799 0.0
H831 H 0.90296 0.05222 0.11616 0.0
H832 H 0.8958 0.09998 0.12864 0.0
H833 H 0.90367 0.09319 0.11689 0.0
H834 H 0.87492 0.1056 0.11137 0.0
H835 H 0.88278 0.09877 0.09968 0.0
H836 H 0.91757 0.10146 0.06384 0.0
H837 H 0.91743 0.07702 0.0508 0.0
H838 H 0.91514 0.06975 0.06447 0.0
H839 H 0.91506 0.09409 0.07752 0.0
C840 C 0.30679 0.66387 0.68008 0.0
C841 C 0.30164 0.66537 0.68731 0.0
C842 C 0.29026 0.6712 0.67823 0.0
C843 C 0.29345 0.66898 0.68639 0.0
C844 C 0.29551 0.66973 0.67104 0.0
C845 C 0.30366 0.66611 0.67196 0.0
U846 U 0.32764 0.65796 0.69216 0.0
O847 O 0.33496 0.64589 0.69186 0.0
O848 O 0.34093 0.6578 0.68736 0.0
C849 C 0.34169 0.64945 0.68826 0.0
C850 C 0.31534 0.65982 0.68076 0.0
C851 C 0.34557 0.64477 0.68099 0.0
C852 C 0.34462 0.63742 0.66724 0.0
C853 C 0.34074 0.64208 0.67389 0.0
C854 C 0.35821 0.63816 0.67467 0.0
C855 C 0.35342 0.63534 0.66757 0.0
C856 C 0.35433 0.64281 0.68128 0.0
C857 C 0.33049 0.66545 0.71577 0.0
C858 C 0.34362 0.6671 0.72407 0.0
C859 C 0.32987 0.66736 0.73124 0.0
C860 C 0.32575 0.66615 0.72337 0.0
C861 C 0.33886 0.6679 0.73172 0.0
C862 C 0.33948 0.66587 0.71618 0.0
C863 C 0.32584 0.66467 0.70754 0.0
O864 O 0.3219 0.66508 0.68137 0.0
O865 O 0.31595 0.65316 0.68589 0.0
O866 O 0.32305 0.65698 0.70551 0.0
O867 O 0.32901 0.66889 0.70096 0.0
H868 H 0.30394 0.66373 0.69366 0.0
H869 H 0.28964 0.67011 0.69209 0.0
H870 H 0.29326 0.67124 0.66465 0.0
H871 H 0.30752 0.66498 0.6663 0.0
H872 H 0.3407 0.63531 0.66192 0.0
H873 H 0.33396 0.64353 0.67354 0.0
H874 H 0.36501 0.63684 0.6751 0.0
H875 H 0.35819 0.64485 0.68668 0.0
H876 H 0.35055 0.66738 0.72419 0.0
H877 H 0.32597 0.66807 0.73694 0.0
H878 H 0.31881 0.6659 0.7232 0.0
H879 H 0.34328 0.66532 0.7104 0.0
C880 C 0.12529 0.55589 0.43117 0.0
C881 C 0.11771 0.55385 0.43559 0.0
C882 C 0.11767 0.53947 0.42932 0.0
C883 C 0.11393 0.54573 0.43466 0.0
C884 C 0.12533 0.54154 0.42501 0.0
C885 C 0.12908 0.54964 0.42593 0.0
U886 U 0.13096 0.57721 0.44261 0.0
O887 O 0.14314 0.58441 0.44228 0.0
O888 O 0.13138 0.59031 0.43736 0.0
C889 C 0.13972 0.591 0.43831 0.0
C890 C 0.12926 0.5645 0.43165 0.0
C891 C 0.14463 0.59456 0.43099 0.0
C892 C 0.14647 0.59749 0.41574 0.0
C893 C 0.14195 0.59354 0.42245 0.0
C894 C 0.15652 0.60337 0.42597 0.0
C895 C 0.15379 0.60252 0.41741 0.0
C896 C 0.15199 0.59945 0.43266 0.0
C897 C 0.12335 0.58089 0.46611 0.0
C898 C 0.11954 0.59373 0.47419 0.0
C899 C 0.12363 0.58081 0.48173 0.0
C900 C 0.12482 0.57662 0.47389 0.0
C901 C 0.12092 0.58941 0.482 0.0
C902 C 0.12076 0.58953 0.46632 0.0
C903 C 0.1241 0.576 0.45799 0.0
O904 O 0.12402 0.57109 0.43197 0.0
O905 O 0.13585 0.56526 0.43684 0.0
O906 O 0.13174 0.57301 0.4561 0.0
O907 O 0.11996 0.57898 0.45128 0.0
H908 H 0.11469 0.55855 0.43971 0.0
H909 H 0.1081 0.54435 0.43816 0.0
H910 H 0.12834 0.53695 0.42076 0.0
H911 H 0.1349 0.55108 0.42243 0.0
H912 H 0.14423 0.5966 0.40923 0.0
H913 H 0.13631 0.58977 0.42097 0.0
H914 H 0.16204 0.60728 0.42754 0.0
H915 H 0.15416 0.60037 0.43919 0.0
H916 H 0.11755 0.60038 0.47414 0.0
H917 H 0.12465 0.57723 0.48759 0.0
H918 H 0.12674 0.56994 0.47391 0.0
H919 H 0.11958 0.59301 0.46043 0.0
C920 C 0.41412 0.48136 0.9299 0.0
C921 C 0.41552 0.48656 0.93711 0.0
C922 C 0.42115 0.49804 0.928 0.0
C923 C 0.419 0.49481 0.93617 0.0
C924 C 0.41983 0.49272 0.92083 0.0
C925 C 0.41635 0.48449 0.92178 0.0
U926 U 0.40827 0.46044 0.94199 0.0
O927 O 0.39626 0.45304 0.94158 0.0
O928 O 0.40823 0.44714 0.93718 0.0
C929 C 0.39989 0.44634 0.93799 0.0
C930 C 0.41015 0.47277 0.93059 0.0
C931 C 0.39528 0.44243 0.93068 0.0
C932 C 0.38686 0.44343 0.91756 0.0
C933 C 0.39153 0.44739 0.92416 0.0
C934 C 0.38975 0.42954 0.92383 0.0
C935 C 0.38583 0.43444 0.91735 0.0
C936 C 0.39441 0.43348 0.9304 0.0
C937 C 0.41558 0.45762 0.96566 0.0
C938 C 0.41696 0.44447 0.97401 0.0
C939 C 0.41759 0.45825 0.98112 0.0
C940 C 0.41644 0.46237 0.97324 0.0
C941 C 0.41791 0.44924 0.98164 0.0
C942 C 0.41579 0.44862 0.9661 0.0
C943 C 0.41485 0.46227 0.95742 0.0
O944 O 0.41544 0.46625 0.93126 0.0
O945 O 0.40346 0.47211 0.93567 0.0
O946 O 0.40716 0.46501 0.95533 0.0
O947 O 0.41913 0.45912 0.95089 0.0
H948 H 0.41384 0.48427 0.94345 0.0
H949 H 0.41984 0.49873 0.94183 0.0
H950 H 0.42155 0.49488 0.91446 0.0
H951 H 0.41536 0.48058 0.91613 0.0
H952 H 0.38389 0.44743 0.91273 0.0
H953 H 0.39212 0.45431 0.92424 0.0
H954 H 0.38927 0.42261 0.92382 0.0
H955 H 0.39727 0.42953 0.93534 0.0
H956 H 0.41707 0.43753 0.97416 0.0
H957 H 0.41842 0.46215 0.9868 0.0
H958 H 0.41635 0.46932 0.97304 0.0
H959 H 0.41512 0.44481 0.96034 0.0
C960 C 0.85714 0.80609 0.66319 0.0
C961 C 0.85264 0.8039 0.67068 0.0
C962 C 0.85913 0.78961 0.67066 0.0
C963 C 0.85364 0.79575 0.67438 0.0
C964 C 0.86352 0.79184 0.66309 0.0
C965 C 0.86254 0.79998 0.65942 0.0
U966 U 0.84549 0.82739 0.65782 0.0
O967 O 0.85064 0.84053 0.65752 0.0
O968 O 0.84569 0.83473 0.64572 0.0
C969 C 0.84966 0.8413 0.64918 0.0
C970 C 0.85656 0.81473 0.6593 0.0
C971 C 0.85697 0.8449 0.64428 0.0
C972 C 0.87219 0.84805 0.64256 0.0
C973 C 0.86549 0.84407 0.64708 0.0
C974 C 0.86198 0.85359 0.63229 0.0
C975 C 0.87051 0.85293 0.63513 0.0
C976 C 0.85531 0.84964 0.63682 0.0
C977 C 0.82207 0.83067 0.66586 0.0
C978 C 0.81387 0.84393 0.667 0.0
C979 C 0.80676 0.83025 0.6688 0.0
C980 C 0.81454 0.82602 0.6674 0.0
C981 C 0.80631 0.83926 0.66871 0.0
C982 C 0.82168 0.83967 0.6656 0.0
C983 C 0.83021 0.82592 0.66487 0.0
O984 O 0.85131 0.81553 0.65277 0.0
O985 O 0.85624 0.82127 0.66461 0.0
O986 O 0.83693 0.82898 0.66893 0.0
O987 O 0.83202 0.82314 0.65713 0.0
H988 H 0.8484 0.8085 0.67369 0.0
H989 H 0.85007 0.79424 0.68014 0.0
H990 H 0.86789 0.78736 0.66009 0.0
H991 H 0.8661 0.80153 0.65366 0.0
H992 H 0.87868 0.84729 0.64488 0.0
H993 H 0.86698 0.84042 0.6528 0.0
H994 H 0.86041 0.85736 0.62668 0.0
H995 H 0.84879 0.85042 0.63456 0.0
H996 H 0.81379 0.85087 0.66694 0.0
H997 H 0.80107 0.82643 0.66992 0.0
H998 H 0.81468 0.81908 0.6676 0.0
H999 H 0.82742 0.8434 0.66442 0.0
C1000 C 0.98164 0.10782 0.41332 0.0
C1001 C 0.98394 0.10285 0.42047 0.0
C1002 C 0.99806 0.10966 0.42089 0.0
C1003 C 0.99206 0.10378 0.42423 0.0
C1004 C 0.99572 0.11454 0.41366 0.0
C1005 C 0.98761 0.11362 0.40994 0.0
U1006 U 0.96042 0.09616 0.40778 0.0
O1007 O 0.94729 0.10131 0.40738 0.0
O1008 O 0.95319 0.09636 0.39563 0.0
C1009 C 0.94657 0.10028 0.39905 0.0
C1010 C 0.97304 0.10726 0.40937 0.0
C1011 C 0.94299 0.10758 0.39413 0.0
C1012 C 0.94113 0.12288 0.39155 0.0
C1013 C 0.94499 0.11614 0.3961 0.0
C1014 C 0.93337 0.1126 0.38291 0.0
C1015 C 0.93523 0.12121 0.38491 0.0
C1016 C 0.9372 0.10589 0.38747 0.0
C1017 C 0.95702 0.07268 0.41561 0.0
C1018 C 0.94382 0.06457 0.41772 0.0
C1019 C 0.95742 0.05714 0.41716 0.0
C1020 C 0.96163 0.06497 0.41592 0.0
C1021 C 0.94846 0.05681 0.41813 0.0
C1022 C 0.94806 0.07242 0.41646 0.0
C1023 C 0.96181 0.08083 0.41475 0.0
O1024 O 0.9723 0.10202 0.40282 0.0
O1025 O 0.96647 0.10689 0.41464 0.0
O1026 O 0.95874 0.08754 0.41883 0.0
O1027 O 0.96472 0.0827 0.40707 0.0
H1028 H 0.97944 0.09829 0.42318 0.0
H1029 H 0.99366 0.09985 0.42972 0.0
H1030 H 1.0001 0.11921 0.41097 0.0
H1031 H 0.98597 0.11754 0.40444 0.0
H1032 H 0.9428 0.12942 0.3932 0.0
H1033 H 0.94947 0.11761 0.40119 0.0
H1034 H 0.92879 0.11104 0.37795 0.0
H1035 H 0.93554 0.09934 0.38586 0.0
H1036 H 0.93691 0.06457 0.41834 0.0
H1037 H 0.96123 0.05135 0.41756 0.0
H1038 H 0.96855 0.06501 0.41533 0.0
H1039 H 0.94434 0.07828 0.41621 0.0
C1040 C 0.6805 0.2316 0.16392 0.0
C1041 C 0.68579 0.2341 0.17076 0.0
C1042 C 0.67879 0.24813 0.1713 0.0
C1043 C 0.68493 0.24227 0.17442 0.0
C1044 C 0.6736 0.2456 0.16437 0.0
C1045 C 0.67445 0.23744 0.16074 0.0
U1046 U 0.69215 0.21036 0.15854 0.0
O1047 O 0.68713 0.19713 0.15878 0.0
O1048 O 0.69163 0.20273 0.14669 0.0
C1049 C 0.68792 0.19616 0.15045 0.0
C1050 C 0.68098 0.22293 0.16012 0.0
C1051 C 0.68054 0.19225 0.14595 0.0
C1052 C 0.66764 0.19323 0.13719 0.0
C1053 C 0.67432 0.19721 0.14173 0.0
C1054 C 0.67325 0.17932 0.14114 0.0
C1055 C 0.66703 0.18421 0.13681 0.0
C1056 C 0.67991 0.18329 0.14564 0.0
C1057 C 0.71579 0.20738 0.16591 0.0
C1058 C 0.72398 0.19422 0.16793 0.0
C1059 C 0.7313 0.20789 0.16755 0.0
C1060 C 0.72345 0.21206 0.16631 0.0
C1061 C 0.73169 0.19892 0.16842 0.0
C1062 C 0.71611 0.1984 0.16667 0.0
C1063 C 0.70761 0.21211 0.16507 0.0
O1064 O 0.68604 0.22206 0.15344 0.0
O1065 O 0.68153 0.21648 0.16553 0.0
O1066 O 0.70103 0.20914 0.16943 0.0
O1067 O 0.70555 0.21472 0.15733 0.0
H1068 H 0.69054 0.22971 0.17329 0.0
H1069 H 0.68911 0.24402 0.17967 0.0
H1070 H 0.66874 0.24986 0.16186 0.0
H1071 H 0.67029 0.23564 0.15548 0.0
H1072 H 0.66292 0.19722 0.13403 0.0
H1073 H 0.67466 0.20415 0.14189 0.0
H1074 H 0.6731 0.17238 0.1409 0.0
H1075 H 0.68466 0.17933 0.1488 0.0
H1076 H 0.72403 0.18729 0.16847 0.0
H1077 H 0.73705 0.21175 0.16802 0.0
H1078 H 0.72336 0.21899 0.1658 0.0
H1079 H 0.71028 0.19464 0.16636 0.0
C1080 C 0.55573 0.93039 0.91367 0.0
C1081 C 0.55343 0.93533 0.92084 0.0
C1082 C 0.53934 0.92846 0.92129 0.0
C1083 C 0.54532 0.93436 0.92462 0.0
C1084 C 0.54168 0.92361 0.91405 0.0
C1085 C 0.54978 0.92457 0.91031 0.0
U1086 U 0.57689 0.94216 0.90809 0.0
O1087 O 0.59004 0.93709 0.90763 0.0
O1088 O 0.58408 0.94205 0.8959 0.0
C1089 C 0.5907 0.93809 0.89928 0.0
C1090 C 0.56432 0.931 0.90969 0.0
C1091 C 0.59432 0.93084 0.89429 0.0
C1092 C 0.5987 0.91588 0.89291 0.0
C1093 C 0.59462 0.92243 0.89754 0.0
C1094 C 0.60209 0.92598 0.88164 0.0
C1095 C 0.6026 0.91759 0.88493 0.0
C1096 C 0.59803 0.93251 0.88627 0.0
C1097 C 0.58018 0.96561 0.91605 0.0
C1098 C 0.59336 0.97379 0.91798 0.0
C1099 C 0.57967 0.98108 0.91813 0.0
C1100 C 0.5755 0.97325 0.91675 0.0
C1101 C 0.58866 0.98146 0.91887 0.0
C1102 C 0.58916 0.96594 0.9166 0.0
C1103 C 0.57544 0.95744 0.91513 0.0
O1104 O 0.56502 0.93628 0.90316 0.0
O1105 O 0.5709 0.93136 0.91493 0.0
O1106 O 0.57855 0.95072 0.91917 0.0
O1107 O 0.57255 0.95562 0.90744 0.0
H1108 H 0.55792 0.9399 0.92353 0.0
H1109 H 0.54372 0.93828 0.93012 0.0
H1110 H 0.53732 0.91893 0.91137 0.0
H1111 H 0.55143 0.92067 0.9048 0.0
H1112 H 0.59902 0.90953 0.89571 0.0
H1113 H 0.59183 0.92093 0.90372 0.0
H1114 H 0.60486 0.92753 0.87546 0.0
H1115 H 0.5979 0.93893 0.88361 0.0
H1116 H 0.60027 0.97381 0.91857 0.0
H1117 H 0.57584 0.98684 0.9186 0.0
H1118 H 0.56857 0.97316 0.91633 0.0
H1119 H 0.59292 0.96012 0.91608 0.0
C1120 C 0.85769 0.23168 0.87487 0.0
C1121 C 0.85367 0.2337 0.86706 0.0
C1122 C 0.85988 0.24812 0.86735 0.0
C1123 C 0.85476 0.24183 0.86334 0.0
C1124 C 0.86373 0.24608 0.87525 0.0
C1125 C 0.86265 0.23796 0.87894 0.0
U1126 U 0.8462 0.21017 0.87978 0.0
O1127 O 0.85159 0.19714 0.88023 0.0
O1128 O 0.84606 0.20278 0.89185 0.0
C1129 C 0.85025 0.19628 0.88851 0.0
C1130 C 0.85708 0.22304 0.87877 0.0
C1131 C 0.85742 0.19278 0.89364 0.0
C1132 C 0.87265 0.19131 0.89679 0.0
C1133 C 0.86598 0.19513 0.89211 0.0
C1134 C 0.86228 0.18288 0.90469 0.0
C1135 C 0.87089 0.18509 0.90312 0.0
C1136 C 0.85565 0.18668 0.9 0.0
C1137 C 0.82331 0.20623 0.87075 0.0
C1138 C 0.81258 0.19591 0.87552 0.0
C1139 C 0.81061 0.20347 0.86212 0.0
C1140 C 0.81838 0.20776 0.86339 0.0
C1141 C 0.80755 0.19752 0.86818 0.0
C1142 C 0.82039 0.20021 0.87678 0.0
C1143 C 0.83123 0.21128 0.87207 0.0
O1144 O 0.85155 0.22216 0.88506 0.0
O1145 O 0.85713 0.21649 0.87347 0.0
O1146 O 0.83818 0.20843 0.86826 0.0
O1147 O 0.83265 0.2141 0.87988 0.0
H1148 H 0.8498 0.22896 0.86379 0.0
H1149 H 0.85175 0.24312 0.85722 0.0
H1150 H 0.86758 0.25077 0.87862 0.0
H1151 H 0.86578 0.23656 0.88498 0.0
H1152 H 0.87918 0.19326 0.89548 0.0
H1153 H 0.86751 0.19985 0.88725 0.0
H1154 H 0.86067 0.17805 0.90941 0.0
H1155 H 0.8491 0.18474 0.90126 0.0
H1156 H 0.8105 0.1913 0.88027 0.0
H1157 H 0.80689 0.20499 0.85646 0.0
H1158 H 0.82049 0.21241 0.85868 0.0
H1159 H 0.8241 0.19889 0.8825 0.0
C1160 C 0.55543 0.10811 0.62472 0.0
C1161 C 0.55286 0.10281 0.61792 0.0
C1162 C 0.53902 0.11016 0.61717 0.0
C1163 C 0.54474 0.10382 0.61418 0.0
C1164 C 0.54163 0.11536 0.62407 0.0
C1165 C 0.54973 0.11434 0.62778 0.0
U1166 U 0.57659 0.09623 0.63003 0.0
O1167 O 0.58975 0.1013 0.63043 0.0
O1168 O 0.58386 0.09621 0.64216 0.0
C1169 C 0.59047 0.1002 0.63876 0.0
C1170 C 0.56403 0.10743 0.62864 0.0
C1171 C 0.59415 0.10739 0.6438 0.0
C1172 C 0.59842 0.12236 0.64538 0.0
C1173 C 0.59425 0.11587 0.64073 0.0
C1174 C 0.60225 0.11204 0.65631 0.0
C1175 C 0.60258 0.12051 0.65318 0.0
C1176 C 0.59811 0.10558 0.65167 0.0
C1177 C 0.57982 0.07291 0.62176 0.0
C1178 C 0.59307 0.06466 0.62113 0.0
C1179 C 0.57949 0.05769 0.61835 0.0
C1180 C 0.57523 0.06546 0.61973 0.0
C1181 C 0.58848 0.05717 0.61895 0.0
C1182 C 0.58878 0.07246 0.62252 0.0
C1183 C 0.57506 0.08105 0.6228 0.0
O1184 O 0.56475 0.10206 0.6351 0.0
O1185 O 0.57057 0.10711 0.62334 0.0
O1186 O 0.57818 0.0878 0.61883 0.0
O1187 O 0.57225 0.08278 0.63055 0.0
H1188 H 0.55716 0.09794 0.61545 0.0
H1189 H 0.543 0.09975 0.60884 0.0
H1190 H 0.53738 0.12019 0.62666 0.0
H1191 H 0.55156 0.11847 0.63305 0.0
H1192 H 0.59859 0.12877 0.64272 0.0
H1193 H 0.59126 0.11747 0.63468 0.0
H1194 H 0.60522 0.11038 0.66235 0.0
H1195 H 0.59811 0.0991 0.65418 0.0
H1196 H 0.59999 0.06453 0.62159 0.0
H1197 H 0.57571 0.05206 0.61685 0.0
H1198 H 0.56832 0.06566 0.61915 0.0
H1199 H 0.59245 0.07814 0.62408 0.0
C1200 C 0.67979 0.80747 0.3729 0.0
C1201 C 0.68689 0.80197 0.37216 0.0
C1202 C 0.6779 0.79092 0.36559 0.0
C1203 C 0.68594 0.79377 0.36857 0.0
C1204 C 0.67086 0.79652 0.36627 0.0
C1205 C 0.6718 0.80468 0.36989 0.0
U1206 U 0.69142 0.82872 0.37863 0.0
O1207 O 0.68615 0.84184 0.3788 0.0
O1208 O 0.69102 0.83608 0.39066 0.0
C1209 C 0.68699 0.84261 0.38714 0.0
C1210 C 0.68042 0.81602 0.37697 0.0
C1211 C 0.67954 0.84623 0.39184 0.0
C1212 C 0.66908 0.84589 0.40348 0.0
C1213 C 0.67571 0.84197 0.39882 0.0
C1214 C 0.66989 0.8583 0.39421 0.0
C1215 C 0.6661 0.85413 0.40126 0.0
C1216 C 0.67652 0.85441 0.38958 0.0
C1217 C 0.71466 0.83254 0.37035 0.0
C1218 C 0.7256 0.84243 0.37553 0.0
C1219 C 0.72732 0.83558 0.36173 0.0
C1220 C 0.7195 0.83134 0.36287 0.0
C1221 C 0.73053 0.84115 0.36805 0.0
C1222 C 0.71774 0.83818 0.37666 0.0
C1223 C 0.70667 0.82755 0.37147 0.0
O1224 O 0.68571 0.81676 0.38349 0.0
O1225 O 0.68067 0.82263 0.37176 0.0
O1226 O 0.69987 0.83042 0.36741 0.0
O1227 O 0.70495 0.82475 0.37924 0.0
H1228 H 0.69314 0.80398 0.37441 0.0
H1229 H 0.69153 0.78968 0.36806 0.0
H1230 H 0.66455 0.79454 0.36418 0.0
H1231 H 0.66623 0.80879 0.37042 0.0
H1232 H 0.66626 0.84244 0.4088 0.0
H1233 H 0.67788 0.83566 0.40074 0.0
H1234 H 0.66788 0.86468 0.39237 0.0
H1235 H 0.67941 0.85787 0.3843 0.0
H1236 H 0.72781 0.84674 0.3805 0.0
H1237 H 0.73095 0.83431 0.35595 0.0
H1238 H 0.71727 0.82699 0.35794 0.0
H1239 H 0.71412 0.83924 0.38249 0.0
C1240 C 0.98144 0.93125 0.12438 0.0
C1241 C 0.98352 0.9357 0.11683 0.0
C1242 C 0.99788 0.9294 0.11685 0.0
C1243 C 0.99166 0.93477 0.11309 0.0
C1244 C 0.99576 0.92506 0.12448 0.0
C1245 C 0.98764 0.92598 0.12818 0.0
U1246 U 0.96005 0.94265 0.12999 0.0
O1247 O 0.94699 0.93734 0.13037 0.0
O1248 O 0.95284 0.94226 0.14216 0.0
C1249 C 0.94628 0.93826 0.13872 0.0
C1250 C 0.97281 0.93173 0.12831 0.0
C1251 C 0.94274 0.93091 0.14361 0.0
C1252 C 0.93944 0.9157 0.14521 0.0
C1253 C 0.9434 0.92241 0.14068 0.0
C1254 C 0.93429 0.92584 0.15574 0.0
C1255 C 0.93477 0.91733 0.15277 0.0
C1256 C 0.93821 0.93253 0.15121 0.0
C1257 C 0.95624 0.96618 0.12247 0.0
C1258 C 0.94362 0.97428 0.11802 0.0
C1259 C 0.95607 0.98178 0.12341 0.0
C1260 C 0.96028 0.97394 0.12458 0.0
C1261 C 0.94771 0.98208 0.12005 0.0
C1262 C 0.94783 0.96642 0.11922 0.0
C1263 C 0.96119 0.95807 0.12319 0.0
O1264 O 0.972 0.93691 0.1349 0.0
O1265 O 0.96624 0.93205 0.12304 0.0
O1266 O 0.95828 0.95135 0.11901 0.0
O1267 O 0.96418 0.95616 0.13082 0.0
H1268 H 0.97885 0.93985 0.1138 0.0
H1269 H 0.99308 0.9383 0.10728 0.0
H1270 H 1.00032 0.92079 0.1275 0.0
H1271 H 0.98617 0.92245 0.13398 0.0
H1272 H 0.94005 0.90922 0.14278 0.0
H1273 H 0.94688 0.92096 0.13486 0.0
H1274 H 0.93067 0.92738 0.16146 0.0
H1275 H 0.93757 0.93903 0.15357 0.0
H1276 H 0.93715 0.97425 0.11552 0.0
H1277 H 0.95948 0.98763 0.12494 0.0
H1278 H 0.96678 0.97395 0.127 0.0
H1279 H 0.94454 0.96055 0.11752 0.0
C1280 C 0.66375 0.85758 0.80628 0.0
C1281 C 0.67149 0.8535 0.80417 0.0
C1282 C 0.67104 0.85964 0.78973 0.0
C1283 C 0.6751 0.85452 0.79598 0.0
C1284 C 0.66319 0.86355 0.79186 0.0
C1285 C 0.65961 0.86254 0.80002 0.0
U1286 U 0.65844 0.8461 0.82771 0.0
O1287 O 0.65864 0.85131 0.84086 0.0
O1288 O 0.64659 0.84667 0.83532 0.0
C1289 C 0.65032 0.85049 0.84184 0.0
C1290 C 0.66 0.85711 0.81499 0.0
C1291 C 0.64574 0.85788 0.84567 0.0
C1292 C 0.63607 0.87012 0.84472 0.0
C1293 C 0.64076 0.86354 0.84075 0.0
C1294 C 0.64141 0.86556 0.85855 0.0
C1295 C 0.63625 0.87116 0.8537 0.0
C1296 C 0.64608 0.85901 0.85458 0.0
C1297 C 0.66572 0.82247 0.83113 0.0
C1298 C 0.66921 0.81442 0.84408 0.0
C1299 C 0.66568 0.80685 0.83103 0.0
C1300 C 0.66453 0.81468 0.8268 0.0
C1301 C 0.66809 0.80659 0.83971 0.0
C1302 C 0.66802 0.82228 0.83984 0.0
C1303 C 0.66496 0.8306 0.82624 0.0
O1304 O 0.65333 0.85205 0.81593 0.0
O1305 O 0.66541 0.85665 0.82143 0.0
O1306 O 0.66933 0.83723 0.82907 0.0
O1307 O 0.65725 0.83263 0.82354 0.0
H1308 H 0.67482 0.84963 0.80887 0.0
H1309 H 0.68118 0.85146 0.79463 0.0
H1310 H 0.65978 0.8674 0.7872 0.0
H1311 H 0.65362 0.86573 0.80149 0.0
H1312 H 0.63213 0.87426 0.84078 0.0
H1313 H 0.64039 0.86281 0.83386 0.0
H1314 H 0.64186 0.86624 0.86544 0.0
H1315 H 0.64989 0.85473 0.85851 0.0
H1316 H 0.67096 0.81448 0.85079 0.0
H1317 H 0.66488 0.80098 0.82741 0.0
H1318 H 0.66283 0.81465 0.82007 0.0
H1319 H 0.66897 0.82819 0.84335 0.0
C1320 C 0.93009 0.91373 0.55672 0.0
C1321 C 0.93471 0.92107 0.55427 0.0
C1322 C 0.92781 0.92096 0.54018 0.0
C1323 C 0.93358 0.92465 0.54608 0.0
C1324 C 0.92336 0.9135 0.54265 0.0
C1325 C 0.92448 0.90994 0.55081 0.0
U1326 U 0.94174 0.90915 0.57819 0.0
O1327 O 0.93647 0.90932 0.59131 0.0
O1328 O 0.94162 0.89738 0.58599 0.0
C1329 C 0.93764 0.90105 0.59244 0.0
C1330 C 0.93071 0.91005 0.56544 0.0
C1331 C 0.93043 0.89625 0.5963 0.0
C1332 C 0.91763 0.88733 0.59524 0.0
C1333 C 0.92418 0.89213 0.59131 0.0
C1334 C 0.92345 0.89082 0.60917 0.0
C1335 C 0.91723 0.88655 0.60424 0.0
C1336 C 0.92996 0.8956 0.60525 0.0
C1337 C 0.96486 0.91776 0.58162 0.0
C1338 C 0.97534 0.91325 0.59228 0.0
C1339 C 0.97788 0.92606 0.58389 0.0
C1340 C 0.97008 0.9248 0.57964 0.0
C1341 C 0.98066 0.92028 0.59024 0.0
C1342 C 0.96751 0.91201 0.58802 0.0
C1343 C 0.95688 0.91646 0.57667 0.0
O1344 O 0.9361 0.90365 0.56644 0.0
O1345 O 0.9309 0.91554 0.57183 0.0
O1346 O 0.95005 0.92053 0.57943 0.0
O1347 O 0.95524 0.90858 0.57415 0.0
H1348 H 0.93908 0.9241 0.55872 0.0
H1349 H 0.93707 0.93043 0.54446 0.0
H1350 H 0.91899 0.91037 0.53825 0.0
H1351 H 0.92088 0.90426 0.55255 0.0
H1352 H 0.913 0.88409 0.59122 0.0
H1353 H 0.92441 0.89254 0.58438 0.0
H1354 H 0.92328 0.89053 0.6161 0.0
H1355 H 0.93469 0.89875 0.60923 0.0
H1356 H 0.97721 0.90872 0.5972 0.0
H1357 H 0.98183 0.93147 0.58204 0.0
H1358 H 0.96818 0.9293 0.5747 0.0
H1359 H 0.96357 0.90653 0.58968 0.0
C1360 C 0.87491 0.18136 0.30695 0.0
C1361 C 0.86808 0.18664 0.3044 0.0
C1362 C 0.86755 0.17952 0.29044 0.0
C1363 C 0.86442 0.18571 0.29623 0.0
C1364 C 0.87447 0.17434 0.29302 0.0
C1365 C 0.87809 0.17525 0.30118 0.0
U1366 U 0.87959 0.19296 0.32836 0.0
O1367 O 0.87959 0.1877 0.34148 0.0
O1368 O 0.89143 0.19298 0.33605 0.0
C1369 C 0.88784 0.18899 0.34255 0.0
C1370 C 0.87869 0.18192 0.31562 0.0
C1371 C 0.89275 0.18183 0.34636 0.0
C1372 C 0.90041 0.16825 0.34532 0.0
C1373 C 0.89561 0.17484 0.34147 0.0
C1374 C 0.89947 0.17555 0.35896 0.0
C1375 C 0.90245 0.16855 0.35412 0.0
C1376 C 0.89468 0.1821 0.35512 0.0
C1377 C 0.87078 0.216 0.33183 0.0
C1378 C 0.875 0.22627 0.34282 0.0
C1379 C 0.86264 0.22916 0.3339 0.0
C1380 C 0.86394 0.22139 0.32961 0.0
C1381 C 0.86817 0.23175 0.34055 0.0
C1382 C 0.87629 0.21847 0.33851 0.0
C1383 C 0.87212 0.20803 0.32688 0.0
O1384 O 0.88505 0.18737 0.31657 0.0
O1385 O 0.87326 0.18204 0.32206 0.0
O1386 O 0.86815 0.20115 0.3297 0.0
O1387 O 0.87999 0.20647 0.3243 0.0
H1388 H 0.86554 0.19143 0.30874 0.0
H1389 H 0.85918 0.18989 0.29444 0.0
H1390 H 0.87699 0.16943 0.28881 0.0
H1391 H 0.88334 0.1711 0.30303 0.0
H1392 H 0.90265 0.16301 0.34136 0.0
H1393 H 0.89419 0.17451 0.33468 0.0
H1394 H 0.90075 0.17595 0.36577 0.0
H1395 H 0.8925 0.18742 0.35902 0.0
H1396 H 0.87933 0.22799 0.34796 0.0
H1397 H 0.8574 0.23322 0.33187 0.0
H1398 H 0.85964 0.21963 0.32445 0.0
H1399 H 0.8816 0.2144 0.34035 0.0
C1400 C 0.60704 0.12456 0.05622 0.0
C1401 C 0.6031 0.11668 0.05432 0.0
C1402 C 0.60896 0.11704 0.03978 0.0
C1403 C 0.60407 0.11295 0.04619 0.0
C1404 C 0.61276 0.125 0.0417 0.0
C1405 C 0.61182 0.12869 0.04982 0.0
U1406 U 0.59585 0.12962 0.07784 0.0
O1407 O 0.60137 0.13002 0.0908 0.0
O1408 O 0.59594 0.14171 0.08519 0.0
C1409 C 0.60019 0.13832 0.09163 0.0
C1410 C 0.60658 0.12848 0.06485 0.0
C1411 C 0.60745 0.14341 0.09507 0.0
C1412 C 0.62262 0.14523 0.09842 0.0
C1413 C 0.61599 0.14059 0.09446 0.0
C1414 C 0.61232 0.15567 0.10344 0.0
C1415 C 0.62086 0.15279 0.10303 0.0
C1416 C 0.60572 0.15103 0.09953 0.0
C1417 C 0.57289 0.12075 0.082 0.0
C1418 C 0.56202 0.12571 0.09207 0.0
C1419 C 0.56033 0.11199 0.08503 0.0
C1420 C 0.5681 0.11325 0.08074 0.0
C1421 C 0.55712 0.11823 0.09071 0.0
C1422 C 0.56983 0.12696 0.08777 0.0
C1423 C 0.58079 0.12204 0.07691 0.0
O1424 O 0.60113 0.13483 0.06578 0.0
O1425 O 0.60664 0.12319 0.07142 0.0
O1426 O 0.58774 0.11817 0.07968 0.0
O1427 O 0.58227 0.12985 0.07408 0.0
H1428 H 0.59934 0.11338 0.05914 0.0
H1429 H 0.60095 0.10688 0.04492 0.0
H1430 H 0.61666 0.12829 0.03699 0.0
H1431 H 0.61494 0.13476 0.05114 0.0
H1432 H 0.62912 0.14287 0.09786 0.0
H1433 H 0.61754 0.13475 0.09105 0.0
H1434 H 0.61069 0.16139 0.10702 0.0
H1435 H 0.59919 0.1533 0.10014 0.0
H1436 H 0.55982 0.13061 0.09647 0.0
H1437 H 0.55671 0.10621 0.08371 0.0
H1438 H 0.57031 0.1084 0.07629 0.0
H1439 H 0.57342 0.1328 0.08887 0.0
C1440 C 0.66392 0.18111 0.73162 0.0
C1441 C 0.67151 0.1855 0.73369 0.0
C1442 C 0.67135 0.17933 0.74812 0.0
C1443 C 0.67519 0.1846 0.74185 0.0
C1444 C 0.66367 0.17508 0.74602 0.0
C1445 C 0.66002 0.17596 0.73787 0.0
U1446 U 0.65895 0.19217 0.70991 0.0
O1447 O 0.65908 0.1866 0.69692 0.0
O1448 O 0.64712 0.19172 0.70224 0.0
C1449 C 0.65077 0.18753 0.6959 0.0
C1450 C 0.66013 0.18148 0.72293 0.0
C1451 C 0.64608 0.18006 0.6923 0.0
C1452 C 0.63453 0.1695 0.69274 0.0
C1453 C 0.6392 0.17614 0.69663 0.0
C1454 C 0.64361 0.17049 0.68021 0.0
C1455 C 0.63665 0.16661 0.68445 0.0
C1456 C 0.64824 0.17713 0.68408 0.0
C1457 C 0.66736 0.21535 0.70586 0.0
C1458 C 0.66238 0.22615 0.69573 0.0
C1459 C 0.67598 0.22804 0.70292 0.0
C1460 C 0.67478 0.22024 0.70721 0.0
C1461 C 0.66977 0.23115 0.69716 0.0
C1462 C 0.66119 0.21832 0.70002 0.0
C1463 C 0.66612 0.20743 0.71096 0.0
O1464 O 0.65366 0.18677 0.72188 0.0
O1465 O 0.66553 0.18155 0.71646 0.0
O1466 O 0.67023 0.20057 0.70833 0.0
O1467 O 0.65829 0.20578 0.7136 0.0
H1468 H 0.67463 0.18955 0.72898 0.0
H1469 H 0.68104 0.18806 0.74326 0.0
H1470 H 0.66058 0.17089 0.75061 0.0
H1471 H 0.65419 0.17248 0.73641 0.0
H1472 H 0.62928 0.16661 0.69624 0.0
H1473 H 0.63736 0.17825 0.70298 0.0
H1474 H 0.64537 0.16854 0.67379 0.0
H1475 H 0.65345 0.18009 0.68057 0.0
H1476 H 0.65751 0.22828 0.69127 0.0
H1477 H 0.68169 0.23173 0.7043 0.0
H1478 H 0.6796 0.2181 0.71172 0.0
H1479 H 0.65542 0.21464 0.69885 0.0
C1480 C 0.60717 0.91433 0.48222 0.0
C1481 C 0.60279 0.92191 0.4843 0.0
C1482 C 0.60913 0.92187 0.49864 0.0
C1483 C 0.60377 0.92566 0.49243 0.0
C1484 C 0.6134 0.9142 0.49653 0.0
C1485 C 0.61243 0.91049 0.48842 0.0
U1486 U 0.59576 0.90933 0.46073 0.0
O1487 O 0.60116 0.90885 0.44771 0.0
O1488 O 0.59565 0.89722 0.4534 0.0
C1489 C 0.59989 0.90055 0.44693 0.0
C1490 C 0.60662 0.9104 0.47361 0.0
C1491 C 0.60706 0.89536 0.44341 0.0
C1492 C 0.622 0.89364 0.43911 0.0
C1493 C 0.61554 0.8984 0.44319 0.0
C1494 C 0.61166 0.88264 0.4356 0.0
C1495 C 0.62012 0.88574 0.43515 0.0
C1496 C 0.60522 0.8874 0.43965 0.0
C1497 C 0.5728 0.91836 0.45689 0.0
C1498 C 0.56195 0.91366 0.44668 0.0
C1499 C 0.55995 0.92689 0.45453 0.0
C1500 C 0.56783 0.92564 0.45863 0.0
C1501 C 0.55684 0.92087 0.44858 0.0
C1502 C 0.56986 0.91241 0.45081 0.0
C1503 C 0.58077 0.91702 0.46184 0.0
O1504 O 0.60111 0.90409 0.47273 0.0
O1505 O 0.60665 0.91569 0.46704 0.0
O1506 O 0.58771 0.92083 0.45895 0.0
O1507 O 0.58221 0.9092 0.46466 0.0
H1508 H 0.59866 0.92497 0.47964 0.0
H1509 H 0.60031 0.9315 0.49385 0.0
H1510 H 0.61766 0.91115 0.50108 0.0
H1511 H 0.6159 0.90466 0.48694 0.0
H1512 H 0.62841 0.89629 0.43884 0.0
H1513 H 0.61717 0.90453 0.44601 0.0
H1514 H 0.60998 0.87653 0.43277 0.0
H1515 H 0.59874 0.88491 0.43972 0.0
H1516 H 0.55974 0.90887 0.44218 0.0
H1517 H 0.5563 0.9326 0.45604 0.0
H1518 H 0.56998 0.93033 0.46327 0.0
H1519 H 0.57359 0.90674 0.44936 0.0
C1520 C 0.87355 0.85805 0.23132 0.0
C1521 C 0.8664 0.85313 0.2337 0.0
C1522 C 0.86621 0.8599 0.24785 0.0
C1523 C 0.86275 0.85406 0.24188 0.0
C1524 C 0.87346 0.86471 0.24543 0.0
C1525 C 0.87707 0.86379 0.23726 0.0
U1526 U 0.87827 0.84647 0.20991 0.0
O1527 O 0.87817 0.85168 0.19676 0.0
O1528 O 0.89007 0.84652 0.20217 0.0
C1529 C 0.88643 0.85048 0.19568 0.0
C1530 C 0.87732 0.85752 0.22263 0.0
C1531 C 0.89126 0.85767 0.1918 0.0
C1532 C 0.90039 0.87032 0.19281 0.0
C1533 C 0.89556 0.86382 0.19677 0.0
C1534 C 0.89657 0.86467 0.17889 0.0
C1535 C 0.90103 0.87079 0.1838 0.0
C1536 C 0.89177 0.8582 0.18284 0.0
C1537 C 0.86957 0.82332 0.2066 0.0
C1538 C 0.87415 0.81256 0.19624 0.0
C1539 C 0.86117 0.81035 0.20444 0.0
C1540 C 0.86242 0.81823 0.20853 0.0
C1541 C 0.86705 0.80734 0.19829 0.0
C1542 C 0.8754 0.82047 0.20036 0.0
C1543 C 0.87091 0.83134 0.21147 0.0
O1544 O 0.88372 0.85213 0.22167 0.0
O1545 O 0.87189 0.85735 0.2162 0.0
O1546 O 0.86688 0.83818 0.20865 0.0
O1547 O 0.87877 0.83297 0.21401 0.0
H1548 H 0.86359 0.84862 0.22923 0.0
H1549 H 0.85725 0.85017 0.24354 0.0
H1550 H 0.87624 0.86934 0.24978 0.0
H1551 H 0.88257 0.86767 0.23554 0.0
H1552 H 0.90377 0.87487 0.19681 0.0
H1553 H 0.89527 0.86354 0.2037 0.0
H1554 H 0.89675 0.8649 0.17196 0.0
H1555 H 0.88848 0.85355 0.17888 0.0
H1556 H 0.87885 0.81045 0.19159 0.0
H1557 H 0.85555 0.80661 0.20608 0.0
H1558 H 0.85783 0.82031 0.21331 0.0
H1559 H 0.88097 0.8243 0.19876 0.0
C1560 C 0.93059 0.1249 0.98152 0.0
C1561 C 0.93506 0.11744 0.98386 0.0
C1562 C 0.92841 0.11766 0.99807 0.0
C1563 C 0.93398 0.11385 0.99205 0.0
C1564 C 0.92408 0.12522 0.9957 0.0
C1565 C 0.92516 0.12878 0.98753 0.0
U1566 U 0.94225 0.12942 0.96006 0.0
O1567 O 0.937 0.12943 0.94694 0.0
O1568 O 0.94236 0.14125 0.95234 0.0
C1569 C 0.93835 0.13768 0.94585 0.0
C1570 C 0.93122 0.12862 0.97281 0.0
C1571 C 0.93124 0.14263 0.94204 0.0
C1572 C 0.91745 0.14991 0.94296 0.0
C1573 C 0.92401 0.14509 0.94681 0.0
C1574 C 0.92524 0.14981 0.92955 0.0
C1575 C 0.91799 0.15238 0.93428 0.0
C1576 C 0.93177 0.14501 0.93339 0.0
C1577 C 0.96524 0.12054 0.95657 0.0
C1578 C 0.97554 0.12483 0.94563 0.0
C1579 C 0.97838 0.11239 0.95445 0.0
C1580 C 0.9706 0.11366 0.95874 0.0
C1581 C 0.981 0.11798 0.94786 0.0
C1582 C 0.96773 0.12609 0.94992 0.0
C1583 C 0.95728 0.12188 0.96154 0.0
O1584 O 0.93669 0.13495 0.97183 0.0
O1585 O 0.93131 0.12316 0.96639 0.0
O1586 O 0.9504 0.11793 0.95873 0.0
O1587 O 0.95575 0.12975 0.96413 0.0
H1588 H 0.9393 0.11432 0.97933 0.0
H1589 H 0.93737 0.10799 0.99359 0.0
H1590 H 0.91987 0.12844 1.00018 0.0
H1591 H 0.92167 0.13455 0.98587 0.0
H1592 H 0.91201 0.15181 0.94683 0.0
H1593 H 0.92348 0.14332 0.95351 0.0
H1594 H 0.92584 0.15143 0.92283 0.0
H1595 H 0.93727 0.14315 0.92958 0.0
H1596 H 0.97728 0.12921 0.94052 0.0
H1597 H 0.98244 0.10713 0.95646 0.0
H1598 H 0.96883 0.10932 0.96387 0.0
H1599 H 0.96367 0.13143 0.94812 0.0
C1600 C 0.80667 0.66476 0.85753 0.0
C1601 C 0.80132 0.66594 0.85038 0.0
C1602 C 0.79022 0.67226 0.85948 0.0
C1603 C 0.79317 0.66963 0.85135 0.0
C1604 C 0.79568 0.67114 0.86658 0.0
C1605 C 0.80379 0.66743 0.8656 0.0
U1606 U 0.82775 0.65881 0.84576 0.0
O1607 O 0.84084 0.65811 0.85093 0.0
O1608 O 0.83476 0.6465 0.84584 0.0
C1609 C 0.8414 0.64976 0.84986 0.0
C1610 C 0.81513 0.66052 0.85684 0.0
C1611 C 0.84486 0.64471 0.85713 0.0
C1612 C 0.84779 0.64275 0.87236 0.0
C1613 C 0.84389 0.64736 0.86569 0.0
C1614 C 0.85351 0.63267 0.86206 0.0
C1615 C 0.85272 0.63537 0.87063 0.0
C1616 C 0.84964 0.63729 0.85541 0.0
C1617 C 0.83162 0.6674 0.82264 0.0
C1618 C 0.84154 0.66224 0.81173 0.0
C1619 C 0.83456 0.67598 0.80993 0.0
C1620 C 0.83034 0.67484 0.81777 0.0
C1621 C 0.84019 0.66968 0.80676 0.0
C1622 C 0.83731 0.66112 0.8196 0.0
C1623 C 0.82667 0.66629 0.83066 0.0
O1624 O 0.81573 0.65409 0.85144 0.0
O1625 O 0.82185 0.66561 0.85667 0.0
O1626 O 0.82971 0.67014 0.8375 0.0
O1627 O 0.82366 0.65857 0.83226 0.0
H1628 H 0.80341 0.66396 0.84406 0.0
H1629 H 0.7892 0.67048 0.84573 0.0
H1630 H 0.79361 0.67297 0.87295 0.0
H1631 H 0.80779 0.66655 0.87121 0.0
H1632 H 0.84694 0.64497 0.87888 0.0
H1633 H 0.84021 0.65305 0.86721 0.0
H1634 H 0.85733 0.6271 0.86045 0.0
H1635 H 0.85052 0.63515 0.84886 0.0
H1636 H 0.8459 0.6573 0.80956 0.0
H1637 H 0.83324 0.68173 0.80627 0.0
H1638 H 0.82595 0.67975 0.81996 0.0
H1639 H 0.83842 0.65532 0.82327 0.0
C1640 C 0.30646 0.87388 0.17972 0.0
C1641 C 0.30403 0.86666 0.18454 0.0
C1642 C 0.28991 0.86663 0.17773 0.0
C1643 C 0.29585 0.86306 0.18354 0.0
C1644 C 0.29236 0.87394 0.17303 0.0
C1645 C 0.30054 0.8775 0.17402 0.0
U1646 U 0.32768 0.87892 0.19154 0.0
O1647 O 0.34092 0.87866 0.18658 0.0
O1648 O 0.33541 0.89072 0.19123 0.0
C1649 C 0.34196 0.88697 0.1875 0.0
C1650 C 0.31516 0.87761 0.18031 0.0
C1651 C 0.3459 0.89157 0.18019 0.0
C1652 C 0.34495 0.90014 0.16715 0.0
C1653 C 0.34096 0.89556 0.17381 0.0
C1654 C 0.35884 0.89668 0.17311 0.0
C1655 C 0.35396 0.90078 0.16672 0.0
C1656 C 0.35485 0.89214 0.17975 0.0
C1657 C 0.3305 0.87111 0.21503 0.0
C1658 C 0.34354 0.87184 0.2236 0.0
C1659 C 0.3303 0.86695 0.23006 0.0
C1660 C 0.32608 0.86809 0.22224 0.0
C1661 C 0.33909 0.86881 0.23088 0.0
C1662 C 0.33927 0.873 0.21575 0.0
C1663 C 0.32579 0.87211 0.20688 0.0
O1664 O 0.31605 0.8842 0.18547 0.0
O1665 O 0.32157 0.87215 0.18079 0.0
O1666 O 0.3288 0.86786 0.20026 0.0
O1667 O 0.3233 0.87992 0.20494 0.0
H1668 H 0.30848 0.86377 0.18902 0.0
H1669 H 0.29415 0.8575 0.18734 0.0
H1670 H 0.28803 0.8768 0.16843 0.0
H1671 H 0.30228 0.88306 0.17022 0.0
H1672 H 0.34098 0.90312 0.1623 0.0
H1673 H 0.33403 0.89518 0.174 0.0
H1674 H 0.36577 0.89712 0.1731 0.0
H1675 H 0.35879 0.88914 0.18462 0.0
H1676 H 0.35028 0.87342 0.22399 0.0
H1677 H 0.32669 0.86447 0.23545 0.0
H1678 H 0.31931 0.86656 0.22182 0.0
H1679 H 0.34281 0.87535 0.21026 0.0
C1680 C 0.9137 0.55674 0.93023 0.0
C1681 C 0.92102 0.55447 0.93494 0.0
C1682 C 0.92109 0.54022 0.92839 0.0
C1683 C 0.92469 0.54631 0.93402 0.0
C1684 C 0.91367 0.54251 0.92379 0.0
C1685 C 0.91004 0.55067 0.9247 0.0
U1686 U 0.9089 0.57821 0.94169 0.0
O1687 O 0.90899 0.59134 0.9364 0.0
O1688 O 0.89708 0.58592 0.94156 0.0
C1689 C 0.90072 0.59241 0.93759 0.0
C1690 C 0.90991 0.56542 0.93072 0.0
C1691 C 0.8959 0.59627 0.93039 0.0
C1692 C 0.88706 0.59521 0.91756 0.0
C1693 C 0.89187 0.59128 0.92408 0.0
C1694 C 0.89036 0.60914 0.92352 0.0
C1695 C 0.88617 0.60421 0.91723 0.0
C1696 C 0.89515 0.60522 0.93 0.0
C1697 C 0.9175 0.58174 0.9648 0.0
C1698 C 0.91287 0.59229 0.97535 0.0
C1699 C 0.92586 0.58416 0.97774 0.0
C1700 C 0.92462 0.5799 0.96994 0.0
C1701 C 0.91998 0.59038 0.9806 0.0
C1702 C 0.91165 0.58802 0.96752 0.0
C1703 C 0.91622 0.57677 0.95683 0.0
O1704 O 0.90349 0.56639 0.93609 0.0
O1705 O 0.91533 0.57188 0.93085 0.0
O1706 O 0.92027 0.57955 0.94998 0.0
O1707 O 0.90837 0.57419 0.9552 0.0
H1708 H 0.92394 0.55903 0.93928 0.0
H1709 H 0.93033 0.54474 0.93775 0.0
H1710 H 0.91078 0.53807 0.91933 0.0
H1711 H 0.9044 0.55229 0.92098 0.0
H1712 H 0.88389 0.59119 0.91287 0.0
H1713 H 0.89236 0.58435 0.92425 0.0
H1714 H 0.88998 0.61608 0.92341 0.0
H1715 H 0.89823 0.6092 0.93478 0.0
H1716 H 0.90827 0.5971 0.97728 0.0
H1717 H 0.93134 0.58241 0.98163 0.0
H1718 H 0.92919 0.57505 0.96799 0.0
H1719 H 0.90611 0.58957 0.96364 0.0
C1720 C 0.23171 0.16345 0.6799 0.0
C1721 C 0.23433 0.16995 0.68554 0.0
C1722 C 0.24816 0.171 0.67819 0.0
C1723 C 0.24247 0.17371 0.68468 0.0
C1724 C 0.24548 0.16443 0.67262 0.0
C1725 C 0.23736 0.16071 0.67347 0.0
U1726 U 0.21055 0.15784 0.69162 0.0
O1727 O 0.1974 0.15749 0.68654 0.0
O1728 O 0.2033 0.14569 0.69141 0.0
C1729 C 0.19668 0.14914 0.6875 0.0
C1730 C 0.22312 0.15948 0.68046 0.0
C1731 C 0.19306 0.14425 0.68021 0.0
C1732 C 0.19008 0.14241 0.66498 0.0
C1733 C 0.19407 0.14692 0.67167 0.0
C1734 C 0.18417 0.1324 0.67525 0.0
C1735 C 0.18502 0.13511 0.66669 0.0
C1736 C 0.18813 0.13692 0.68192 0.0
C1737 C 0.20725 0.1656 0.71509 0.0
C1738 C 0.19399 0.16704 0.72324 0.0
C1739 C 0.20765 0.16769 0.73055 0.0
C1740 C 0.21188 0.1665 0.72273 0.0
C1741 C 0.19864 0.16802 0.73093 0.0
C1742 C 0.19825 0.16582 0.7154 0.0
C1743 C 0.21202 0.16477 0.70694 0.0
O1744 O 0.2224 0.15292 0.6857 0.0
O1745 O 0.21657 0.16477 0.68088 0.0
O1746 O 0.20892 0.16888 0.70026 0.0
O1747 O 0.21489 0.15708 0.70505 0.0
H1748 H 0.23009 0.17214 0.69058 0.0
H1749 H 0.24434 0.17867 0.68915 0.0
H1750 H 0.2496 0.16226 0.66748 0.0
H1751 H 0.23545 0.15572 0.66903 0.0
H1752 H 0.19098 0.14463 0.65847 0.0
H1753 H 0.19787 0.15254 0.67016 0.0
H1754 H 0.18025 0.12689 0.67685 0.0
H1755 H 0.18721 0.13475 0.68846 0.0
H1756 H 0.18705 0.16716 0.72329 0.0
H1757 H 0.21147 0.16855 0.73628 0.0
H1758 H 0.21882 0.1664 0.72264 0.0
H1759 H 0.19452 0.16512 0.70959 0.0
C1760 C 0.12419 0.98192 0.93061 0.0
C1761 C 0.11657 0.98401 0.93494 0.0
C1762 C 0.11672 0.99839 0.92865 0.0
C1763 C 0.11287 0.99216 0.93395 0.0
C1764 C 0.12442 0.99626 0.92444 0.0
C1765 C 0.12809 0.98813 0.92541 0.0
U1766 U 0.12919 0.96036 0.94198 0.0
O1767 O 0.12955 0.94734 0.93655 0.0
O1768 O 0.14126 0.95297 0.94193 0.0
C1769 C 0.13785 0.94651 0.93773 0.0
C1770 C 0.12807 0.97327 0.93115 0.0
C1771 C 0.14292 0.94301 0.93048 0.0
C1772 C 0.14474 0.93967 0.91532 0.0
C1773 C 0.14013 0.94365 0.92193 0.0
C1774 C 0.15512 0.93454 0.92563 0.0
C1775 C 0.15227 0.93498 0.91708 0.0
C1776 C 0.15049 0.93849 0.93223 0.0
C1777 C 0.12038 0.95635 0.96498 0.0
C1778 C 0.12531 0.9462 0.9758 0.0
C1779 C 0.11175 0.95349 0.97767 0.0
C1780 C 0.11297 0.95775 0.96987 0.0
C1781 C 0.11793 0.94769 0.98079 0.0
C1782 C 0.12652 0.95048 0.96796 0.0
C1783 C 0.12165 0.96141 0.95705 0.0
O1784 O 0.13442 0.97236 0.9366 0.0
O1785 O 0.12276 0.96673 0.93116 0.0
O1786 O 0.11776 0.9586 0.95013 0.0
O1787 O 0.12945 0.96422 0.95553 0.0
H1788 H 0.11346 0.97933 0.93902 0.0
H1789 H 0.10701 0.99359 0.93737 0.0
H1790 H 0.12752 1.00082 0.92022 0.0
H1791 H 0.13394 0.98665 0.92198 0.0
H1792 H 0.14241 0.94025 0.90881 0.0
H1793 H 0.13432 0.94712 0.92037 0.0
H1794 H 0.1608 0.93092 0.92728 0.0
H1795 H 0.15275 0.93786 0.93877 0.0
H1796 H 0.13016 0.94172 0.97793 0.0
H1797 H 0.10605 0.95491 0.98136 0.0
H1798 H 0.10817 0.96229 0.96772 0.0
H1799 H 0.13229 0.94927 0.96429 0.0
C1800 C 0.73106 0.37418 0.3577 0.0
C1801 C 0.73356 0.36716 0.35265 0.0
C1802 C 0.7476 0.36688 0.35962 0.0
C1803 C 0.74174 0.36353 0.35361 0.0
C1804 C 0.74507 0.374 0.36456 0.0
C1805 C 0.7369 0.37759 0.36361 0.0
U1806 U 0.70981 0.37935 0.34596 0.0
O1807 O 0.69659 0.37906 0.35098 0.0
O1808 O 0.70211 0.39116 0.3464 0.0
C1809 C 0.69556 0.38739 0.35014 0.0
C1810 C 0.72236 0.37792 0.35714 0.0
C1811 C 0.69166 0.39192 0.3575 0.0
C1812 C 0.69267 0.40048 0.37053 0.0
C1813 C 0.69664 0.39594 0.36384 0.0
C1814 C 0.67876 0.39693 0.36469 0.0
C1815 C 0.68367 0.40106 0.37104 0.0
C1816 C 0.68271 0.39243 0.35802 0.0
C1817 C 0.70686 0.37178 0.32239 0.0
C1818 C 0.69363 0.3704 0.31421 0.0
C1819 C 0.70731 0.36929 0.307 0.0
C1820 C 0.71152 0.37062 0.3148 0.0
C1821 C 0.6983 0.36907 0.30659 0.0
C1822 C 0.69787 0.37173 0.32204 0.0
C1823 C 0.7116 0.37271 0.33055 0.0
O1824 O 0.72147 0.38456 0.35203 0.0
O1825 O 0.71596 0.37246 0.35663 0.0
O1826 O 0.70865 0.36839 0.33716 0.0
O1827 O 0.71414 0.38049 0.33254 0.0
H1828 H 0.72917 0.36444 0.34801 0.0
H1829 H 0.74349 0.35813 0.34962 0.0
H1830 H 0.74933 0.37669 0.36933 0.0
H1831 H 0.7351 0.38299 0.36759 0.0
H1832 H 0.69667 0.40348 0.37534 0.0
H1833 H 0.70356 0.39561 0.36358 0.0
H1834 H 0.67183 0.39733 0.36476 0.0
H1835 H 0.67875 0.38941 0.35318 0.0
H1836 H 0.68669 0.37022 0.31417 0.0
H1837 H 0.71114 0.36847 0.30127 0.0
H1838 H 0.71847 0.37066 0.31491 0.0
H1839 H 0.69413 0.37262 0.32782 0.0
C1840 C 0.91456 0.48158 0.60761 0.0
C1841 C 0.9175 0.48604 0.60037 0.0
C1842 C 0.92165 0.49824 0.60932 0.0
C1843 C 0.92102 0.4943 0.60121 0.0
C1844 C 0.91875 0.49366 0.61654 0.0
C1845 C 0.91525 0.48544 0.61569 0.0
U1846 U 0.90935 0.4603 0.59588 0.0
O1847 O 0.9094 0.44714 0.6011 0.0
O1848 O 0.89746 0.4527 0.5962 0.0
C1849 C 0.90108 0.44622 0.6002 0.0
C1850 C 0.9107 0.47295 0.60698 0.0
C1851 C 0.89641 0.44249 0.60762 0.0
C1852 C 0.88541 0.44311 0.61872 0.0
C1853 C 0.89004 0.44705 0.61207 0.0
C1854 C 0.89354 0.43007 0.61666 0.0
C1855 C 0.88708 0.43454 0.62108 0.0
C1856 C 0.89813 0.43399 0.61001 0.0
C1857 C 0.91766 0.45678 0.57264 0.0
C1858 C 0.913 0.44614 0.56221 0.0
C1859 C 0.92583 0.45445 0.55955 0.0
C1860 C 0.92466 0.45872 0.56736 0.0
C1861 C 0.91999 0.44813 0.55683 0.0
C1862 C 0.91185 0.45042 0.57005 0.0
C1863 C 0.91649 0.46172 0.58065 0.0
O1864 O 0.90423 0.47212 0.60165 0.0
O1865 O 0.91608 0.46648 0.60666 0.0
O1866 O 0.9206 0.45888 0.58743 0.0
O1867 O 0.90868 0.46436 0.58238 0.0
H1868 H 0.91704 0.48317 0.59406 0.0
H1869 H 0.92311 0.49764 0.5955 0.0
H1870 H 0.91927 0.49638 0.6229 0.0
H1871 H 0.91306 0.48209 0.62137 0.0
H1872 H 0.88056 0.44679 0.62204 0.0
H1873 H 0.88858 0.45363 0.61039 0.0
H1874 H 0.89494 0.42344 0.61819 0.0
H1875 H 0.90296 0.43031 0.60664 0.0
H1876 H 0.90843 0.44125 0.56038 0.0
H1877 H 0.93121 0.45627 0.55556 0.0
H1878 H 0.9292 0.46363 0.56921 0.0
H1879 H 0.9064 0.44879 0.57404 0.0
C1880 C 0.62323 0.55692 0.10825 0.0
C1881 C 0.62293 0.55119 0.10131 0.0
C1882 C 0.6159 0.54038 0.11026 0.0
C1883 C 0.61931 0.54301 0.10231 0.0
C1884 C 0.61608 0.54623 0.11713 0.0
C1885 C 0.61971 0.55439 0.11613 0.0
U1886 U 0.62966 0.57782 0.09637 0.0
O1887 O 0.63028 0.59102 0.10131 0.0
O1888 O 0.64199 0.58476 0.09671 0.0
C1889 C 0.63865 0.5915 0.10049 0.0
C1890 C 0.62746 0.56541 0.10761 0.0
C1891 C 0.64351 0.59509 0.10783 0.0
C1892 C 0.64498 0.59855 0.12299 0.0
C1893 C 0.64049 0.59456 0.1163 0.0
C1894 C 0.65568 0.60347 0.1129 0.0
C1895 C 0.65261 0.60312 0.12138 0.0
C1896 C 0.65117 0.59952 0.10622 0.0
C1897 C 0.62222 0.58112 0.07277 0.0
C1898 C 0.62048 0.59429 0.06452 0.0
C1899 C 0.6206 0.58059 0.05726 0.0
C1900 C 0.62175 0.57643 0.06512 0.0
C1901 C 0.61989 0.58958 0.05683 0.0
C1902 C 0.62165 0.59011 0.07241 0.0
C1903 C 0.62288 0.5764 0.08098 0.0
O1904 O 0.63414 0.56593 0.1025 0.0
O1905 O 0.62238 0.57211 0.10709 0.0
O1906 O 0.61878 0.57964 0.08759 0.0
O1907 O 0.63047 0.57335 0.08297 0.0
H1908 H 0.6256 0.55299 0.09516 0.0
H1909 H 0.61937 0.53867 0.09689 0.0
H1910 H 0.61338 0.54454 0.12329 0.0
H1911 H 0.61984 0.5587 0.12157 0.0
H1912 H 0.64248 0.59804 0.12945 0.0
H1913 H 0.63461 0.59116 0.11774 0.0
H1914 H 0.66145 0.607 0.11136 0.0
H1915 H 0.65361 0.60005 0.09974 0.0
H1916 H 0.62006 0.60122 0.06444 0.0
H1917 H 0.62006 0.57672 0.05152 0.0
H1918 H 0.62212 0.56949 0.06525 0.0
H1919 H 0.62201 0.59388 0.07822 0.0
C1920 C 0.68062 0.73203 0.87509 0.0
C1921 C 0.68576 0.73465 0.86817 0.0
C1922 C 0.67848 0.74855 0.86777 0.0
C1923 C 0.6847 0.74283 0.86455 0.0
C1924 C 0.6735 0.74592 0.87483 0.0
C1925 C 0.67456 0.73776 0.87843 0.0
U1926 U 0.69205 0.71042 0.87973 0.0
O1927 O 0.69172 0.70259 0.89147 0.0
O1928 O 0.68661 0.69736 0.87947 0.0
C1929 C 0.68757 0.69626 0.88776 0.0
C1930 C 0.68118 0.72331 0.87877 0.0
C1931 C 0.68014 0.69257 0.89243 0.0
C1932 C 0.66909 0.69321 0.90348 0.0
C1933 C 0.67576 0.69712 0.89886 0.0
C1934 C 0.67098 0.68022 0.89524 0.0
C1935 C 0.66663 0.68468 0.90175 0.0
C1936 C 0.67765 0.68411 0.89066 0.0
C1937 C 0.71519 0.7067 0.87116 0.0
C1938 C 0.72602 0.6965 0.87595 0.0
C1939 C 0.72785 0.70395 0.86246 0.0
C1940 C 0.72005 0.70819 0.86375 0.0
C1941 C 0.73099 0.69808 0.86856 0.0
C1942 C 0.71819 0.70076 0.87723 0.0
C1943 C 0.70725 0.71173 0.87249 0.0
O1944 O 0.68134 0.71693 0.87327 0.0
O1945 O 0.68654 0.72226 0.88517 0.0
O1946 O 0.70561 0.71425 0.88036 0.0
O1947 O 0.7004 0.70908 0.86838 0.0
H1948 H 0.69048 0.73033 0.86549 0.0
H1949 H 0.68861 0.7446 0.85909 0.0
H1950 H 0.66877 0.75017 0.8776 0.0
H1951 H 0.67056 0.73589 0.88379 0.0
H1952 H 0.66582 0.69688 0.90838 0.0
H1953 H 0.67752 0.70366 0.90037 0.0
H1954 H 0.66937 0.67362 0.89379 0.0
H1955 H 0.68097 0.68044 0.88579 0.0
H1956 H 0.72816 0.69196 0.88074 0.0
H1957 H 0.73152 0.70544 0.85676 0.0
H1958 H 0.71789 0.71278 0.85901 0.0
H1959 H 0.71453 0.69947 0.88299 0.0
C1960 C 0.5565 0.43034 0.1243 0.0
C1961 C 0.55125 0.43756 0.12308 0.0
C1962 C 0.53999 0.42857 0.11689 0.0
C1963 C 0.54308 0.43668 0.11942 0.0
C1964 C 0.54536 0.4214 0.11801 0.0
C1965 C 0.5535 0.42228 0.12167 0.0
U1966 U 0.57768 0.44194 0.13013 0.0
O1967 O 0.58474 0.44189 0.14239 0.0
O1968 O 0.59074 0.43669 0.1308 0.0
C1969 C 0.59135 0.43783 0.13913 0.0
C1970 C 0.56498 0.43093 0.1285 0.0
C1971 C 0.5948 0.43057 0.14419 0.0
C1972 C 0.59705 0.41528 0.1466 0.0
C1973 C 0.59321 0.42198 0.14198 0.0
C1974 C 0.60398 0.42563 0.15583 0.0
C1975 C 0.60255 0.41701 0.15356 0.0
C1976 C 0.60016 0.43231 0.15119 0.0
C1977 C 0.58156 0.46507 0.12141 0.0
C1978 C 0.59066 0.47661 0.12675 0.0
C1979 C 0.58488 0.47738 0.11239 0.0
C1980 C 0.58083 0.46946 0.1136 0.0
C1981 C 0.58976 0.48113 0.11897 0.0
C1982 C 0.58659 0.46866 0.12797 0.0
C1983 C 0.57663 0.45703 0.12261 0.0
O1984 O 0.57168 0.43105 0.12339 0.0
O1985 O 0.56565 0.43634 0.13492 0.0
O1986 O 0.57364 0.45547 0.13033 0.0
O1987 O 0.57964 0.45016 0.11877 0.0
H1988 H 0.55343 0.44385 0.12505 0.0
H1989 H 0.53912 0.44234 0.11874 0.0
H1990 H 0.5433 0.41508 0.116 0.0
H1991 H 0.55745 0.41663 0.12252 0.0
H1992 H 0.5957 0.40873 0.14473 0.0
H1993 H 0.58907 0.42046 0.13662 0.0
H1994 H 0.60825 0.42725 0.16105 0.0
H1995 H 0.60152 0.43888 0.153 0.0
H1996 H 0.59431 0.47931 0.13199 0.0
H1997 H 0.58417 0.48056 0.10626 0.0
H1998 H 0.57701 0.46682 0.10845 0.0
H1999 H 0.58726 0.4654 0.13406 0.0
C2000 C 0.85732 0.30709 0.37474 0.0
C2001 C 0.85011 0.30213 0.37265 0.0
C2002 C 0.85934 0.29058 0.3674 0.0
C2003 C 0.85111 0.29395 0.36902 0.0
C2004 C 0.86652 0.29568 0.3694 0.0
C2005 C 0.86551 0.30382 0.37303 0.0
U2006 U 0.84507 0.32782 0.38079 0.0
O2007 O 0.84509 0.33484 0.39307 0.0
O2008 O 0.84982 0.34109 0.3814 0.0
C2009 C 0.84878 0.34165 0.38974 0.0
C2010 C 0.85654 0.31558 0.3789 0.0
C2011 C 0.85595 0.3454 0.39468 0.0
C2012 C 0.87118 0.34721 0.39766 0.0
C2013 C 0.86453 0.34319 0.39311 0.0
C2014 C 0.86073 0.35557 0.40551 0.0
C2015 C 0.86937 0.35352 0.40388 0.0
C2016 C 0.85412 0.35156 0.40096 0.0
C2017 C 0.82158 0.33076 0.37298 0.0
C2018 C 0.81318 0.3439 0.37205 0.0
C2019 C 0.80619 0.33014 0.37049 0.0
C2020 C 0.81407 0.32601 0.37165 0.0
C2021 C 0.80562 0.33915 0.37063 0.0
C2022 C 0.82108 0.33975 0.37323 0.0
C2023 C 0.82981 0.32612 0.37377 0.0
O2024 O 0.85599 0.32223 0.37375 0.0
O2025 O 0.85128 0.31604 0.38547 0.0
O2026 O 0.83173 0.32315 0.38141 0.0
O2027 O 0.83644 0.32945 0.36976 0.0
H2028 H 0.84372 0.30453 0.37392 0.0
H2029 H 0.84544 0.29021 0.36764 0.0
H2030 H 0.87295 0.2934 0.36811 0.0
H2031 H 0.87116 0.30756 0.37456 0.0
H2032 H 0.87773 0.3455 0.39618 0.0
H2033 H 0.8661 0.33844 0.38829 0.0
H2034 H 0.85906 0.36026 0.41033 0.0
H2035 H 0.84754 0.35334 0.4023 0.0
H2036 H 0.81298 0.35084 0.3723 0.0
H2037 H 0.80057 0.32625 0.36929 0.0
H2038 H 0.81431 0.31907 0.37139 0.0
H2039 H 0.82679 0.34355 0.37428 0.0
C2040 C 0.98187 0.60767 0.62448 0.0
C2041 C 0.98474 0.60186 0.61824 0.0
C2042 C 0.99843 0.60947 0.6172 0.0
C2043 C 0.99294 0.60276 0.61462 0.0
C2044 C 0.9955 0.6152 0.62352 0.0
C2045 C 0.98732 0.61431 0.62711 0.0
U2046 U 0.9605 0.59598 0.62912 0.0
O2047 O 0.95266 0.59609 0.64085 0.0
O2048 O 0.94734 0.60112 0.62886 0.0
C2049 C 0.9462 0.6 0.63713 0.0
C2050 C 0.97317 0.60711 0.62819 0.0
C2051 C 0.9423 0.60725 0.64185 0.0
C2052 C 0.94331 0.62019 0.65054 0.0
C2053 C 0.94727 0.61356 0.6459 0.0
C2054 C 0.9294 0.61432 0.64703 0.0
C2055 C 0.9343 0.62066 0.65117 0.0
C2056 C 0.93335 0.60771 0.64243 0.0
C2057 C 0.95734 0.5728 0.62052 0.0
C2058 C 0.9457 0.56299 0.62402 0.0
C2059 C 0.95597 0.55918 0.61304 0.0
C2060 C 0.96025 0.56695 0.61436 0.0
C2061 C 0.94864 0.55706 0.61786 0.0
C2062 C 0.95 0.57079 0.62533 0.0
C2063 C 0.9622 0.58083 0.62185 0.0
O2064 O 0.96679 0.60686 0.62269 0.0
O2065 O 0.97219 0.60173 0.6346 0.0
O2066 O 0.96462 0.58249 0.62974 0.0
O2067 O 0.95938 0.58764 0.61777 0.0
H2068 H 0.98064 0.59667 0.61614 0.0
H2069 H 0.99499 0.59816 0.60985 0.0
H2070 H 0.99947 0.62051 0.62559 0.0
H2071 H 0.98522 0.61888 0.63189 0.0
H2072 H 0.9473 0.625 0.65355 0.0
H2073 H 0.9542 0.61335 0.64551 0.0
H2074 H 0.92247 0.61436 0.64747 0.0
H2075 H 0.92939 0.60289 0.63939 0.0
H2076 H 0.94003 0.56163 0.62779 0.0
H2077 H 0.95852 0.55476 0.60834 0.0
H2078 H 0.96592 0.56837 0.61061 0.0
H2079 H 0.94762 0.57523 0.63011 0.0
C2080 C 0.67997 0.30719 0.66419 0.0
C2081 C 0.68715 0.30185 0.66519 0.0
C2082 C 0.67817 0.29062 0.67149 0.0
C2083 C 0.68625 0.29364 0.66879 0.0
C2084 C 0.67103 0.29606 0.67053 0.0
C2085 C 0.67193 0.30423 0.66692 0.0
U2086 U 0.69186 0.32814 0.65804 0.0
O2087 O 0.69124 0.33547 0.64599 0.0
O2088 O 0.68697 0.34142 0.65798 0.0
C2089 C 0.68767 0.34218 0.64962 0.0
C2090 C 0.68058 0.31575 0.66013 0.0
C2091 C 0.6803 0.34606 0.6451 0.0
C2092 C 0.66688 0.34502 0.63717 0.0
C2093 C 0.67361 0.34109 0.6417 0.0
C2094 C 0.67341 0.3589 0.6395 0.0
C2095 C 0.6667 0.35399 0.636 0.0
C2096 C 0.68011 0.35498 0.64399 0.0
C2097 C 0.71558 0.33134 0.66504 0.0
C2098 C 0.72382 0.34419 0.66846 0.0
C2099 C 0.73119 0.33103 0.66484 0.0
C2100 C 0.7233 0.3269 0.66376 0.0
C2101 C 0.73158 0.33971 0.66728 0.0
C2102 C 0.71591 0.34005 0.66734 0.0
C2103 C 0.70739 0.32655 0.66445 0.0
O2104 O 0.68125 0.32232 0.66536 0.0
O2105 O 0.68559 0.31639 0.65338 0.0
O2106 O 0.70524 0.3237 0.65682 0.0
O2107 O 0.70084 0.32958 0.66881 0.0
H2108 H 0.69343 0.30401 0.66316 0.0
H2109 H 0.6919 0.28968 0.66952 0.0
H2110 H 0.6647 0.29394 0.67241 0.0
H2111 H 0.6663 0.30823 0.66617 0.0
H2112 H 0.66178 0.34104 0.63466 0.0
H2113 H 0.67361 0.33419 0.6425 0.0
H2114 H 0.6736 0.36579 0.63863 0.0
H2115 H 0.68523 0.35893 0.64652 0.0
H2116 H 0.72386 0.3509 0.67022 0.0
H2117 H 0.737 0.32734 0.66398 0.0
H2118 H 0.72322 0.32017 0.66206 0.0
H2119 H 0.71006 0.34365 0.66836 0.0
C2120 C 0.9819 0.4312 0.91254 0.0
C2121 C 0.98415 0.43584 0.91992 0.0
C2122 C 0.99841 0.42931 0.91991 0.0
C2123 C 0.99231 0.43489 0.92358 0.0
C2124 C 0.99614 0.42481 0.91243 0.0
C2125 C 0.98799 0.42574 0.90881 0.0
U2126 U 0.96057 0.44276 0.90726 0.0
O2127 O 0.9529 0.44223 0.89544 0.0
O2128 O 0.94738 0.43765 0.90753 0.0
C2129 C 0.94638 0.43844 0.89921 0.0
C2130 C 0.97321 0.43167 0.90876 0.0
C2131 C 0.94253 0.43104 0.89469 0.0
C2132 C 0.94355 0.41837 0.88559 0.0
C2133 C 0.9475 0.42507 0.89013 0.0
C2134 C 0.92964 0.42344 0.89022 0.0
C2135 C 0.93455 0.41748 0.88554 0.0
C2136 C 0.93359 0.43012 0.89473 0.0
C2137 C 0.95754 0.46638 0.9148 0.0
C2138 C 0.94437 0.47458 0.91668 0.0
C2139 C 0.95808 0.48182 0.91703 0.0
C2140 C 0.96224 0.474 0.91562 0.0
C2141 C 0.94909 0.48223 0.91768 0.0
C2142 C 0.94855 0.46673 0.91527 0.0
C2143 C 0.96226 0.45821 0.91386 0.0
O2144 O 0.96677 0.43214 0.91418 0.0
O2145 O 0.9723 0.43675 0.90211 0.0
O2146 O 0.96482 0.45621 0.90609 0.0
O2147 O 0.95933 0.45159 0.91819 0.0
H2148 H 0.97958 0.44013 0.92289 0.0
H2149 H 0.99386 0.43854 0.92927 0.0
H2150 H 1.0006 0.42038 0.90948 0.0
H2151 H 0.98639 0.42207 0.90313 0.0
H2152 H 0.94755 0.41386 0.88215 0.0
H2153 H 0.95442 0.42563 0.89002 0.0
H2154 H 0.92272 0.42306 0.89026 0.0
H2155 H 0.92962 0.43467 0.89816 0.0
H2156 H 0.93745 0.47462 0.9172 0.0
H2157 H 0.96193 0.48757 0.91759 0.0
H2158 H 0.96917 0.47389 0.91526 0.0
H2159 H 0.94479 0.46092 0.91466 0.0
C2160 C 0.85708 0.73182 0.16419 0.0
C2161 C 0.84981 0.7369 0.16572 0.0
C2162 C 0.85881 0.74838 0.17151 0.0
C2163 C 0.85066 0.7451 0.16935 0.0
C2164 C 0.86603 0.74317 0.17007 0.0
C2165 C 0.86517 0.73501 0.16645 0.0
U2166 U 0.84535 0.71083 0.15786 0.0
O2167 O 0.84584 0.70386 0.14557 0.0
O2168 O 0.8504 0.69767 0.15734 0.0
C2169 C 0.84973 0.69719 0.14895 0.0
C2170 C 0.8565 0.72333 0.16001 0.0
C2171 C 0.85719 0.6937 0.14414 0.0
C2172 C 0.86292 0.68775 0.13086 0.0
C2173 C 0.85626 0.69169 0.13541 0.0
C2174 C 0.87167 0.68778 0.14364 0.0
C2175 C 0.87069 0.68565 0.13493 0.0
C2176 C 0.86501 0.69177 0.14819 0.0
C2177 C 0.82172 0.70743 0.1653 0.0
C2178 C 0.8135 0.69431 0.16753 0.0
C2179 C 0.8062 0.70798 0.16684 0.0
C2180 C 0.81405 0.71211 0.16554 0.0
C2181 C 0.8058 0.69903 0.16797 0.0
C2182 C 0.82138 0.69847 0.16622 0.0
C2183 C 0.82992 0.71216 0.16458 0.0
O2184 O 0.85598 0.71666 0.16514 0.0
O2185 O 0.85137 0.72277 0.15335 0.0
O2186 O 0.83191 0.71517 0.15697 0.0
O2187 O 0.83653 0.70899 0.16872 0.0
H2188 H 0.84349 0.73458 0.16403 0.0
H2189 H 0.84496 0.74893 0.17029 0.0
H2190 H 0.87238 0.74537 0.17179 0.0
H2191 H 0.87086 0.73119 0.16535 0.0
H2192 H 0.86188 0.68612 0.1242 0.0
H2193 H 0.85028 0.69301 0.13214 0.0
H2194 H 0.87759 0.68636 0.14697 0.0
H2195 H 0.86596 0.69321 0.15491 0.0
H2196 H 0.81346 0.68742 0.16843 0.0
H2197 H 0.80042 0.71182 0.16697 0.0
H2198 H 0.81415 0.71902 0.16483 0.0
H2199 H 0.82721 0.6947 0.16607 0.0
C2200 C 0.55559 0.60712 0.41251 0.0
C2201 C 0.55336 0.60254 0.41994 0.0
C2202 C 0.53909 0.60903 0.4199 0.0
C2203 C 0.5452 0.6035 0.42361 0.0
C2204 C 0.54134 0.61348 0.41238 0.0
C2205 C 0.54949 0.61254 0.40874 0.0
U2206 U 0.57688 0.5955 0.40718 0.0
O2207 O 0.58443 0.59593 0.39526 0.0
O2208 O 0.59007 0.6006 0.40725 0.0
C2209 C 0.59102 0.59968 0.39894 0.0
C2210 C 0.56427 0.60661 0.4087 0.0
C2211 C 0.59486 0.60701 0.39429 0.0
C2212 C 0.59381 0.62075 0.38691 0.0
C2213 C 0.58996 0.61404 0.39154 0.0
C2214 C 0.60749 0.61349 0.3878 0.0
C2215 C 0.60263 0.62053 0.38493 0.0
C2216 C 0.60364 0.60682 0.39241 0.0
C2217 C 0.5801 0.57189 0.41462 0.0
C2218 C 0.59309 0.56378 0.41777 0.0
C2219 C 0.57982 0.55627 0.41497 0.0
C2220 C 0.57564 0.56413 0.41379 0.0
C2221 C 0.5886 0.55597 0.41702 0.0
C2222 C 0.5889 0.57166 0.41656 0.0
C2223 C 0.57529 0.58005 0.41382 0.0
O2224 O 0.57073 0.60614 0.41409 0.0
O2225 O 0.56514 0.6015 0.40207 0.0
O2226 O 0.57257 0.58206 0.40611 0.0
O2227 O 0.57822 0.58668 0.41812 0.0
H2228 H 0.55795 0.59827 0.42295 0.0
H2229 H 0.54367 0.59989 0.42934 0.0
H2230 H 0.53687 0.61787 0.40939 0.0
H2231 H 0.55108 0.61615 0.40303 0.0
H2232 H 0.58985 0.62603 0.38476 0.0
H2233 H 0.58316 0.61431 0.39292 0.0
H2234 H 0.6143 0.61314 0.38656 0.0
H2235 H 0.60754 0.60146 0.3945 0.0
H2236 H 0.59987 0.5638 0.41924 0.0
H2237 H 0.57611 0.55043 0.41445 0.0
H2238 H 0.56885 0.56414 0.41236 0.0
H2239 H 0.59251 0.57755 0.41721 0.0
C2240 C 0.87364 0.6801 0.73101 0.0
C2241 C 0.87265 0.68724 0.73642 0.0
C2242 C 0.86611 0.67821 0.74746 0.0
C2243 C 0.86895 0.6863 0.74457 0.0
C2244 C 0.86702 0.67113 0.74195 0.0
C2245 C 0.87074 0.67207 0.73384 0.0
U2246 U 0.88015 0.69202 0.71019 0.0
O2247 O 0.89253 0.69172 0.70333 0.0
O2248 O 0.88087 0.68709 0.697 0.0
C2249 C 0.88924 0.68794 0.69656 0.0
C2250 C 0.87792 0.68075 0.72257 0.0
C2251 C 0.89414 0.68062 0.693 0.0
C2252 C 0.89582 0.66541 0.6898 0.0
C2253 C 0.8913 0.6721 0.69377 0.0
C2254 C 0.90619 0.67562 0.68441 0.0
C2255 C 0.9033 0.66708 0.685 0.0
C2256 C 0.90166 0.68229 0.68835 0.0
C2257 C 0.87266 0.71562 0.70687 0.0
C2258 C 0.87103 0.7239 0.6937 0.0
C2259 C 0.87096 0.73114 0.70741 0.0
C2260 C 0.87209 0.72326 0.71157 0.0
C2261 C 0.87035 0.73158 0.69842 0.0
C2262 C 0.87219 0.716 0.69788 0.0
C2263 C 0.87332 0.7074 0.71158 0.0
O2264 O 0.87288 0.68126 0.71584 0.0
O2265 O 0.88458 0.6859 0.7221 0.0
O2266 O 0.8809 0.70542 0.71467 0.0
O2267 O 0.86926 0.70078 0.7083 0.0
H2268 H 0.87481 0.69352 0.73437 0.0
H2269 H 0.86826 0.69191 0.74858 0.0
H2270 H 0.86502 0.66479 0.74397 0.0
H2271 H 0.87147 0.66647 0.72979 0.0
H2272 H 0.89346 0.65892 0.6905 0.0
H2273 H 0.88554 0.67063 0.69735 0.0
H2274 H 0.91184 0.67719 0.68069 0.0
H2275 H 0.90396 0.68881 0.68762 0.0
H2276 H 0.87069 0.72399 0.68677 0.0
H2277 H 0.87034 0.73686 0.71129 0.0
H2278 H 0.87239 0.72312 0.7185 0.0
H2279 H 0.87263 0.71019 0.6941 0.0
C2280 C 0.60677 0.62493 0.98241 0.0
C2281 C 0.60235 0.61736 0.98452 0.0
C2282 C 0.60868 0.61742 0.99886 0.0
C2283 C 0.60332 0.61363 0.99265 0.0
C2284 C 0.61298 0.62506 0.99672 0.0
C2285 C 0.61204 0.62876 0.9886 0.0
U2286 U 0.5955 0.62997 0.96083 0.0
O2287 O 0.59549 0.64209 0.9535 0.0
O2288 O 0.60103 0.63046 0.94786 0.0
C2289 C 0.59976 0.63876 0.94705 0.0
C2290 C 0.60625 0.62884 0.97378 0.0
C2291 C 0.60693 0.64394 0.94355 0.0
C2292 C 0.62202 0.64591 0.93994 0.0
C2293 C 0.61551 0.6412 0.94399 0.0
C2294 C 0.61154 0.65628 0.93513 0.0
C2295 C 0.62011 0.65346 0.93534 0.0
C2296 C 0.60505 0.65157 0.93917 0.0
C2297 C 0.57259 0.62112 0.95651 0.0
C2298 C 0.56113 0.62658 0.94739 0.0
C2299 C 0.56062 0.61193 0.95249 0.0
C2300 C 0.56839 0.61317 0.95681 0.0
C2301 C 0.55683 0.61863 0.94779 0.0
C2302 C 0.56894 0.6278 0.95169 0.0
C2303 C 0.58046 0.62234 0.96169 0.0
O2304 O 0.60631 0.62355 0.96722 0.0
O2305 O 0.60076 0.63517 0.97287 0.0
O2306 O 0.58192 0.63011 0.96463 0.0
O2307 O 0.58742 0.61849 0.95893 0.0
H2308 H 0.59822 0.61431 0.97986 0.0
H2309 H 0.59982 0.60781 0.9941 0.0
H2310 H 0.61726 0.62811 1.00126 0.0
H2311 H 0.61553 0.63458 0.9871 0.0
H2312 H 0.62852 0.6435 0.94019 0.0
H2313 H 0.61716 0.63533 0.94732 0.0
H2314 H 0.60982 0.66213 0.93181 0.0
H2315 H 0.5985 0.65383 0.93874 0.0
H2316 H 0.55847 0.63185 0.94374 0.0
H2317 H 0.55747 0.60577 0.95305 0.0
H2318 H 0.57105 0.60794 0.96052 0.0
H2319 H 0.57205 0.634 0.95133 0.0
C2320 C 0.66282 0.35722 0.23204 0.0
C2321 C 0.66996 0.35232 0.23448 0.0
C2322 C 0.67015 0.35923 0.24855 0.0
C2323 C 0.67359 0.35332 0.24265 0.0
C2324 C 0.66289 0.364 0.24609 0.0
C2325 C 0.65929 0.36301 0.23794 0.0
U2326 U 0.65777 0.34541 0.21082 0.0
O2327 O 0.64593 0.34563 0.20316 0.0
O2328 O 0.65792 0.35042 0.19759 0.0
C2329 C 0.64962 0.3494 0.19658 0.0
C2330 C 0.65905 0.35663 0.22335 0.0
C2331 C 0.64492 0.35665 0.19266 0.0
C2332 C 0.6369 0.37002 0.19362 0.0
C2333 C 0.6416 0.36342 0.19757 0.0
C2334 C 0.63888 0.36318 0.17985 0.0
C2335 C 0.63541 0.36995 0.1847 0.0
C2336 C 0.64357 0.35662 0.18378 0.0
C2337 C 0.66572 0.32193 0.20795 0.0
C2338 C 0.6668 0.31364 0.19476 0.0
C2339 C 0.66879 0.30664 0.20845 0.0
C2340 C 0.66737 0.31444 0.21264 0.0
C2341 C 0.6686 0.30612 0.19945 0.0
C2342 C 0.66537 0.32148 0.19897 0.0
C2343 C 0.66467 0.3301 0.21264 0.0
O2344 O 0.66449 0.35621 0.21693 0.0
O2345 O 0.6525 0.35142 0.22249 0.0
O2346 O 0.65686 0.33198 0.2152 0.0
O2347 O 0.66886 0.33677 0.20964 0.0
H2348 H 0.6728 0.3478 0.23004 0.0
H2349 H 0.67922 0.34959 0.24427 0.0
H2350 H 0.65994 0.36849 0.25048 0.0
H2351 H 0.65375 0.36683 0.23621 0.0
H2352 H 0.63428 0.37508 0.19758 0.0
H2353 H 0.64257 0.36357 0.20444 0.0
H2354 H 0.63803 0.36297 0.17297 0.0
H2355 H 0.6461 0.35147 0.17987 0.0
H2356 H 0.66666 0.31352 0.18782 0.0
H2357 H 0.66999 0.30098 0.2123 0.0
H2358 H 0.66763 0.31464 0.21957 0.0
H2359 H 0.66411 0.32719 0.19522 0.0
C2360 C 0.92987 0.41448 0.48115 0.0
C2361 C 0.93714 0.41618 0.48618 0.0
C2362 C 0.92809 0.42191 0.49764 0.0
C2363 C 0.93625 0.41984 0.49436 0.0
C2364 C 0.92086 0.42024 0.49251 0.0
C2365 C 0.92175 0.41657 0.48437 0.0
U2366 U 0.94184 0.4084 0.46026 0.0
O2367 O 0.94144 0.39626 0.45306 0.0
O2368 O 0.93694 0.40813 0.44701 0.0
C2369 C 0.93782 0.39978 0.44631 0.0
C2370 C 0.93052 0.41038 0.47263 0.0
C2371 C 0.93054 0.39507 0.4425 0.0
C2372 C 0.91658 0.38811 0.44348 0.0
C2373 C 0.92328 0.39277 0.44731 0.0
C2374 C 0.92431 0.38807 0.43003 0.0
C2375 C 0.91704 0.38565 0.43479 0.0
C2376 C 0.93097 0.39271 0.43385 0.0
C2377 C 0.96546 0.41572 0.45703 0.0
C2378 C 0.97369 0.41914 0.44418 0.0
C2379 C 0.98107 0.41562 0.45734 0.0
C2380 C 0.97318 0.4145 0.46147 0.0
C2381 C 0.98145 0.41802 0.44865 0.0
C2382 C 0.96578 0.41799 0.44831 0.0
C2383 C 0.95727 0.41506 0.46181 0.0
O2384 O 0.93111 0.41558 0.46603 0.0
O2385 O 0.93564 0.40371 0.47205 0.0
O2386 O 0.95522 0.40742 0.46475 0.0
O2387 O 0.95067 0.41929 0.45873 0.0
H2388 H 0.94348 0.41465 0.48381 0.0
H2389 H 0.94197 0.42112 0.49807 0.0
H2390 H 0.91447 0.42163 0.49484 0.0
H2391 H 0.91606 0.41529 0.48061 0.0
H2392 H 0.91112 0.38631 0.44737 0.0
H2393 H 0.92282 0.39452 0.45401 0.0
H2394 H 0.92485 0.38645 0.42331 0.0
H2395 H 0.9365 0.39445 0.43002 0.0
H2396 H 0.97372 0.42089 0.43746 0.0
H2397 H 0.98689 0.41481 0.46104 0.0
H2398 H 0.97311 0.41282 0.46821 0.0
H2399 H 0.95993 0.41896 0.44471 0.0
C2400 C 0.87371 0.35701 0.80583 0.0
C2401 C 0.87511 0.35088 0.79937 0.0
C2402 C 0.86604 0.35893 0.78944 0.0
C2403 C 0.87133 0.35184 0.79127 0.0
C2404 C 0.86456 0.36497 0.79598 0.0
C2405 C 0.86837 0.36403 0.80405 0.0
U2406 U 0.88048 0.34557 0.82688 0.0
O2407 O 0.89287 0.3461 0.83369 0.0
O2408 O 0.88118 0.35073 0.83998 0.0
C2409 C 0.88956 0.34996 0.84041 0.0
C2410 C 0.87808 0.35655 0.81428 0.0
C2411 C 0.89442 0.35737 0.84388 0.0
C2412 C 0.89568 0.3725 0.84761 0.0
C2413 C 0.89119 0.36578 0.84366 0.0
C2414 C 0.90679 0.36257 0.85187 0.0
C2415 C 0.90352 0.37098 0.85184 0.0
C2416 C 0.90229 0.35586 0.84795 0.0
C2417 C 0.87313 0.32193 0.83057 0.0
C2418 C 0.87074 0.31379 0.84371 0.0
C2419 C 0.87188 0.30637 0.83015 0.0
C2420 C 0.87314 0.31421 0.82597 0.0
C2421 C 0.87055 0.30604 0.83906 0.0
C2422 C 0.87201 0.32166 0.8395 0.0
C2423 C 0.87377 0.33011 0.82577 0.0
O2424 O 0.87311 0.35616 0.82107 0.0
O2425 O 0.88483 0.35153 0.81485 0.0
O2426 O 0.88134 0.33209 0.82264 0.0
O2427 O 0.86966 0.33675 0.82893 0.0
H2428 H 0.87918 0.34538 0.80054 0.0
H2429 H 0.87252 0.34701 0.78644 0.0
H2430 H 0.86062 0.37057 0.7948 0.0
H2431 H 0.86724 0.36889 0.80888 0.0
H2432 H 0.89301 0.37891 0.84736 0.0
H2433 H 0.88514 0.36715 0.84054 0.0
H2434 H 0.91273 0.3611 0.85514 0.0
H2435 H 0.9049 0.34943 0.84826 0.0
H2436 H 0.86968 0.31381 0.85057 0.0
H2437 H 0.87195 0.30055 0.82637 0.0
H2438 H 0.874 0.31425 0.81908 0.0
H2439 H 0.87196 0.32753 0.84321 0.0
C2440 C 0.93025 0.6238 0.05632 0.0
C2441 C 0.93748 0.62229 0.05117 0.0
C2442 C 0.92838 0.6166 0.03974 0.0
C2443 C 0.93656 0.61872 0.04296 0.0
C2444 C 0.9212 0.61801 0.04502 0.0
C2445 C 0.92213 0.62157 0.05319 0.0
U2446 U 0.9419 0.62955 0.07752 0.0
O2447 O 0.94178 0.6418 0.08461 0.0
O2448 O 0.93664 0.63015 0.09059 0.0
C2449 C 0.93766 0.6385 0.09118 0.0
C2450 C 0.9309 0.62794 0.06483 0.0
C2451 C 0.93034 0.64354 0.09459 0.0
C2452 C 0.91533 0.64488 0.0988 0.0
C2453 C 0.92196 0.64022 0.09489 0.0
C2454 C 0.92527 0.65634 0.10199 0.0
C2455 C 0.91691 0.65298 0.10248 0.0
C2456 C 0.93189 0.65167 0.09813 0.0
C2457 C 0.96501 0.62095 0.08145 0.0
C2458 C 0.97606 0.62615 0.09118 0.0
C2459 C 0.97758 0.61222 0.08452 0.0
C2460 C 0.96974 0.61339 0.08032 0.0
C2461 C 0.9809 0.6186 0.08997 0.0
C2462 C 0.96819 0.6273 0.08697 0.0
C2463 C 0.95701 0.62209 0.07647 0.0
O2464 O 0.93104 0.62278 0.07149 0.0
O2465 O 0.93632 0.63437 0.0655 0.0
O2466 O 0.95543 0.62983 0.07352 0.0
O2467 O 0.95015 0.61822 0.07945 0.0
H2468 H 0.94382 0.62396 0.05345 0.0
H2469 H 0.94223 0.6178 0.03907 0.0
H2470 H 0.91483 0.61632 0.04285 0.0
H2471 H 0.91647 0.62265 0.05706 0.0
H2472 H 0.90896 0.64213 0.09895 0.0
H2473 H 0.92054 0.63397 0.0922 0.0
H2474 H 0.92677 0.66249 0.10483 0.0
H2475 H 0.9383 0.65435 0.09805 0.0
H2476 H 0.97835 0.63115 0.0954 0.0
H2477 H 0.98114 0.60639 0.08331 0.0
H2478 H 0.96744 0.60842 0.07605 0.0
H2479 H 0.96464 0.63319 0.08797 0.0
C2480 C 0.66332 0.68081 0.30674 0.0
C2481 C 0.66519 0.68807 0.30173 0.0
C2482 C 0.67091 0.67895 0.29033 0.0
C2483 C 0.66893 0.68714 0.2936 0.0
C2484 C 0.6691 0.67173 0.29544 0.0
C2485 C 0.66534 0.67266 0.30354 0.0
U2486 U 0.65758 0.69261 0.32782 0.0
O2487 O 0.6453 0.69276 0.33485 0.0
O2488 O 0.65681 0.68743 0.34092 0.0
C2489 C 0.6485 0.68871 0.34151 0.0
C2490 C 0.6591 0.6815 0.31521 0.0
C2491 C 0.64333 0.68157 0.34504 0.0
C2492 C 0.64042 0.66633 0.34705 0.0
C2493 C 0.64513 0.67295 0.34314 0.0
C2494 C 0.63195 0.67687 0.35465 0.0
C2495 C 0.63382 0.6682 0.35294 0.0
C2496 C 0.63665 0.68345 0.35075 0.0
C2497 C 0.66651 0.7156 0.33165 0.0
C2498 C 0.66141 0.72666 0.34143 0.0
C2499 C 0.67529 0.72815 0.33466 0.0
C2500 C 0.67407 0.72031 0.33047 0.0
C2501 C 0.66897 0.73148 0.34017 0.0
C2502 C 0.6602 0.71879 0.33723 0.0
C2503 C 0.6653 0.70759 0.3267 0.0
O2504 O 0.66419 0.68158 0.32191 0.0
O2505 O 0.65275 0.68701 0.31581 0.0
O2506 O 0.65757 0.70611 0.32369 0.0
O2507 O 0.66903 0.70069 0.32975 0.0
H2508 H 0.66372 0.69443 0.30409 0.0
H2509 H 0.67032 0.69285 0.28989 0.0
H2510 H 0.67042 0.66533 0.29312 0.0
H2511 H 0.66393 0.66698 0.30728 0.0
H2512 H 0.64211 0.65975 0.34562 0.0
H2513 H 0.65025 0.67133 0.33875 0.0
H2514 H 0.62683 0.67859 0.359 0.0
H2515 H 0.63513 0.69006 0.35229 0.0
H2516 H 0.65645 0.72896 0.3457 0.0
H2517 H 0.68112 0.73169 0.33341 0.0
H2518 H 0.679 0.71799 0.32616 0.0
H2519 H 0.65432 0.71525 0.33827 0.0
C2520 C 0.60687 0.41304 0.55551 0.0
C2521 C 0.60148 0.41979 0.55297 0.0
C2522 C 0.60869 0.42058 0.53906 0.0
C2523 C 0.60239 0.42354 0.54483 0.0
C2524 C 0.614 0.41376 0.54164 0.0
C2525 C 0.61309 0.41004 0.54977 0.0
U2526 U 0.59538 0.40806 0.57696 0.0
O2527 O 0.59532 0.39598 0.58435 0.0
O2528 O 0.60075 0.40766 0.58999 0.0
C2529 C 0.5995 0.39936 0.59083 0.0
C2530 C 0.60629 0.40913 0.56412 0.0
C2531 C 0.60671 0.39427 0.59435 0.0
C2532 C 0.62195 0.39196 0.59693 0.0
C2533 C 0.61531 0.39658 0.59298 0.0
C2534 C 0.6115 0.38255 0.6035 0.0
C2535 C 0.62013 0.38492 0.60232 0.0
C2536 C 0.60489 0.38717 0.59958 0.0
C2537 C 0.57243 0.41705 0.58093 0.0
C2538 C 0.56045 0.41172 0.58946 0.0
C2539 C 0.56075 0.42658 0.585 0.0
C2540 C 0.56859 0.42518 0.58088 0.0
C2541 C 0.55649 0.41985 0.58926 0.0
C2542 C 0.56833 0.41033 0.58535 0.0
C2543 C 0.58037 0.4157 0.57589 0.0
O2544 O 0.60628 0.41444 0.57065 0.0
O2545 O 0.60077 0.40282 0.56499 0.0
O2546 O 0.58184 0.40791 0.57303 0.0
O2547 O 0.58732 0.41956 0.57868 0.0
H2548 H 0.5966 0.42219 0.5573 0.0
H2549 H 0.59812 0.42871 0.54304 0.0
H2550 H 0.619 0.41138 0.53746 0.0
H2551 H 0.61734 0.40486 0.5516 0.0
H2552 H 0.6285 0.39391 0.59578 0.0
H2553 H 0.6169 0.40201 0.58895 0.0
H2554 H 0.60983 0.37725 0.60767 0.0
H2555 H 0.59831 0.3853 0.60077 0.0
H2556 H 0.55735 0.40636 0.59261 0.0
H2557 H 0.55801 0.43296 0.58482 0.0
H2558 H 0.57162 0.43046 0.57752 0.0
H2559 H 0.57113 0.40398 0.58549 0.0
C2560 C 0.73196 0.87511 0.68066 0.0
C2561 C 0.7344 0.86819 0.68589 0.0
C2562 C 0.74845 0.86767 0.67895 0.0
C2563 C 0.74255 0.8645 0.68503 0.0
C2564 C 0.74598 0.87468 0.67382 0.0
C2565 C 0.73783 0.87834 0.67467 0.0
U2566 U 0.71066 0.8805 0.69222 0.0
O2567 O 0.70305 0.89237 0.69167 0.0
O2568 O 0.69747 0.88029 0.68713 0.0
C2569 C 0.6965 0.88862 0.68792 0.0
C2570 C 0.72329 0.87893 0.68112 0.0
C2571 C 0.69265 0.89316 0.68052 0.0
C2572 C 0.69368 0.90211 0.66774 0.0
C2573 C 0.69763 0.89754 0.67443 0.0
C2574 C 0.67976 0.89786 0.67309 0.0
C2575 C 0.68468 0.90236 0.667 0.0
C2576 C 0.6837 0.89333 0.67976 0.0
C2577 C 0.70752 0.87304 0.71585 0.0
C2578 C 0.69439 0.87054 0.72396 0.0
C2579 C 0.70796 0.87155 0.73138 0.0
C2580 C 0.71213 0.87292 0.72356 0.0
C2581 C 0.69904 0.87024 0.73171 0.0
C2582 C 0.69858 0.87192 0.71611 0.0
C2583 C 0.71229 0.87392 0.70769 0.0
O2584 O 0.71683 0.87352 0.68163 0.0
O2585 O 0.72241 0.88559 0.6862 0.0
O2586 O 0.71491 0.88167 0.70566 0.0
O2587 O 0.70938 0.86958 0.70108 0.0
H2588 H 0.72998 0.86562 0.69059 0.0
H2589 H 0.74426 0.85919 0.68916 0.0
H2590 H 0.75027 0.87723 0.669 0.0
H2591 H 0.73607 0.88365 0.67056 0.0
H2592 H 0.69769 0.9054 0.66313 0.0
H2593 H 0.70456 0.89748 0.67487 0.0
H2594 H 0.67283 0.89799 0.67284 0.0
H2595 H 0.67972 0.89004 0.68441 0.0
H2596 H 0.68753 0.86951 0.72394 0.0
H2597 H 0.71175 0.87154 0.73719 0.0
H2598 H 0.71903 0.87378 0.72352 0.0
H2599 H 0.69487 0.87198 0.71025 0.0
C2600 C 0.23174 0.66371 0.35794 0.0
C2601 C 0.23524 0.66882 0.35141 0.0
C2602 C 0.24814 0.67125 0.35999 0.0
C2603 C 0.24338 0.67255 0.35242 0.0
C2604 C 0.2446 0.66602 0.36644 0.0
C2605 C 0.2365 0.66231 0.36542 0.0
U2606 U 0.21077 0.6582 0.34583 0.0
O2607 O 0.20325 0.64626 0.34626 0.0
O2608 O 0.19749 0.65829 0.35069 0.0
C2609 C 0.1966 0.64995 0.34989 0.0
C2610 C 0.22312 0.65984 0.35721 0.0
C2611 C 0.19269 0.64539 0.35723 0.0
C2612 C 0.19368 0.63705 0.37042 0.0
C2613 C 0.19765 0.64161 0.36373 0.0
C2614 C 0.17979 0.64008 0.36425 0.0
C2615 C 0.18469 0.63621 0.37076 0.0
C2616 C 0.18374 0.64461 0.35758 0.0
C2617 C 0.20782 0.66554 0.32219 0.0
C2618 C 0.19491 0.66872 0.31397 0.0
C2619 C 0.20823 0.6658 0.30659 0.0
C2620 C 0.21234 0.66465 0.31447 0.0
C2621 C 0.19947 0.66791 0.30621 0.0
C2622 C 0.19904 0.66753 0.32188 0.0
C2623 C 0.21256 0.66478 0.33039 0.0
O2624 O 0.21668 0.66523 0.35654 0.0
O2625 O 0.22243 0.65322 0.35206 0.0
O2626 O 0.21527 0.65708 0.33247 0.0
O2627 O 0.20956 0.66911 0.33697 0.0
H2628 H 0.23166 0.66999 0.34558 0.0
H2629 H 0.24585 0.67659 0.34734 0.0
H2630 H 0.24811 0.66474 0.37229 0.0
H2631 H 0.23393 0.65835 0.37052 0.0
H2632 H 0.19767 0.63424 0.37536 0.0
H2633 H 0.20457 0.64215 0.36361 0.0
H2634 H 0.17288 0.63948 0.36419 0.0
H2635 H 0.1798 0.64743 0.35261 0.0
H2636 H 0.18814 0.67023 0.31394 0.0
H2637 H 0.21199 0.66524 0.30078 0.0
H2638 H 0.21913 0.66318 0.31454 0.0
H2639 H 0.19538 0.66823 0.32774 0.0
C2640 C 0.62493 0.98302 0.60743 0.0
C2641 C 0.61828 0.98552 0.60191 0.0
C2642 C 0.61727 0.99942 0.60911 0.0
C2643 C 0.61447 0.99363 0.60276 0.0
C2644 C 0.624 0.99687 0.61455 0.0
C2645 C 0.62777 0.98877 0.61371 0.0
U2646 U 0.63069 0.96186 0.59578 0.0
O2647 O 0.64289 0.9547 0.59604 0.0
O2648 O 0.63113 0.9487 0.6009 0.0
C2649 C 0.63949 0.94806 0.59997 0.0
C2650 C 0.62895 0.97445 0.60689 0.0
C2651 C 0.6444 0.94448 0.60728 0.0
C2652 C 0.6459 0.94086 0.62242 0.0
C2653 C 0.64137 0.94488 0.61576 0.0
C2654 C 0.65664 0.93616 0.61227 0.0
C2655 C 0.65357 0.93637 0.62075 0.0
C2656 C 0.6521 0.94014 0.60563 0.0
C2657 C 0.62297 0.95847 0.57228 0.0
C2658 C 0.62108 0.94526 0.56415 0.0
C2659 C 0.62128 0.95892 0.55677 0.0
C2660 C 0.62249 0.96312 0.5646 0.0
C2661 C 0.62051 0.94993 0.55643 0.0
C2662 C 0.62232 0.94949 0.572 0.0
C2663 C 0.62378 0.96325 0.58044 0.0
O2664 O 0.62372 0.96785 0.60648 0.0
O2665 O 0.63553 0.97376 0.60167 0.0
O2666 O 0.63145 0.96618 0.58233 0.0
O2667 O 0.61969 0.96013 0.58712 0.0
H2668 H 0.61601 0.98119 0.59698 0.0
H2669 H 0.60938 0.9954 0.59839 0.0
H2670 H 0.62626 1.00107 0.61959 0.0
H2671 H 0.63288 0.98696 0.61805 0.0
H2672 H 0.6434 0.94126 0.62887 0.0
H2673 H 0.63546 0.9482 0.61723 0.0
H2674 H 0.66245 0.93269 0.6107 0.0
H2675 H 0.65454 0.93969 0.59915 0.0
H2676 H 0.62062 0.93833 0.56413 0.0
H2677 H 0.62075 0.96275 0.55101 0.0
H2678 H 0.62293 0.97006 0.56466 0.0
H2679 H 0.62269 0.94575 0.57784 0.0
C2680 C 0.30637 0.37459 0.85742 0.0
C2681 C 0.30125 0.37303 0.85019 0.0
C2682 C 0.28981 0.36731 0.85929 0.0
C2683 C 0.29305 0.36942 0.85111 0.0
C2684 C 0.29506 0.36877 0.86647 0.0
C2685 C 0.30322 0.37238 0.86554 0.0
U2686 U 0.32725 0.38076 0.84545 0.0
O2687 O 0.33428 0.39304 0.84569 0.0
O2688 O 0.34046 0.38131 0.85036 0.0
C2689 C 0.34101 0.38968 0.84948 0.0
C2690 C 0.31487 0.37875 0.85675 0.0
C2691 C 0.34463 0.39454 0.85679 0.0
C2692 C 0.34746 0.39639 0.87204 0.0
C2693 C 0.3435 0.3919 0.86533 0.0
C2694 C 0.35357 0.40632 0.8618 0.0
C2695 C 0.3526 0.40364 0.87037 0.0
C2696 C 0.34964 0.40182 0.85511 0.0
C2697 C 0.33036 0.37308 0.82189 0.0
C2698 C 0.34346 0.37133 0.81354 0.0
C2699 C 0.32968 0.37094 0.80645 0.0
C2700 C 0.32559 0.37228 0.81431 0.0
C2701 C 0.33867 0.37033 0.80594 0.0
C2702 C 0.33934 0.37268 0.82144 0.0
C2703 C 0.32571 0.37388 0.83012 0.0
O2704 O 0.32151 0.37361 0.85624 0.0
O2705 O 0.31541 0.38538 0.85157 0.0
O2706 O 0.32276 0.38152 0.83206 0.0
O2707 O 0.32896 0.3698 0.83675 0.0
H2708 H 0.30354 0.37469 0.84385 0.0
H2709 H 0.28918 0.36846 0.84543 0.0
H2710 H 0.29289 0.36709 0.87285 0.0
H2711 H 0.30708 0.3735 0.87121 0.0
H2712 H 0.34647 0.3942 0.87855 0.0
H2713 H 0.33963 0.38632 0.86681 0.0
H2714 H 0.35755 0.41179 0.86023 0.0
H2715 H 0.35064 0.40396 0.84858 0.0
H2716 H 0.35038 0.37085 0.81343 0.0
H2717 H 0.32577 0.37037 0.80074 0.0
H2718 H 0.31866 0.37259 0.8145 0.0
H2719 H 0.34317 0.37327 0.8272 0.0
C2720 C 0.41359 0.55705 0.60703 0.0
C2721 C 0.41497 0.55181 0.59984 0.0
C2722 C 0.42114 0.54061 0.60893 0.0
C2723 C 0.41869 0.54367 0.60079 0.0
C2724 C 0.41982 0.54596 0.61608 0.0
C2725 C 0.41608 0.55406 0.61513 0.0
U2726 U 0.4072 0.57785 0.59503 0.0
O2727 O 0.39487 0.58478 0.59529 0.0
O2728 O 0.40654 0.59107 0.59993 0.0
C2729 C 0.39818 0.59156 0.59902 0.0
C2730 C 0.40933 0.5655 0.60636 0.0
C2731 C 0.3933 0.59515 0.60632 0.0
C2732 C 0.3907 0.59689 0.62163 0.0
C2733 C 0.39522 0.59304 0.61486 0.0
C2734 C 0.3822 0.60487 0.6114 0.0
C2735 C 0.38414 0.6029 0.61999 0.0
C2736 C 0.38672 0.60105 0.60467 0.0
C2737 C 0.41474 0.5811 0.57146 0.0
C2738 C 0.41654 0.59425 0.56319 0.0
C2739 C 0.41632 0.58054 0.55594 0.0
C2740 C 0.41517 0.57639 0.56382 0.0
C2741 C 0.41709 0.58952 0.5555 0.0
C2742 C 0.41537 0.59008 0.57109 0.0
C2743 C 0.41406 0.57639 0.57968 0.0
O2744 O 0.41441 0.57221 0.60582 0.0
O2745 O 0.4027 0.56597 0.60118 0.0
O2746 O 0.40647 0.57333 0.58165 0.0
O2747 O 0.41813 0.57966 0.58629 0.0
H2748 H 0.41312 0.55399 0.59352 0.0
H2749 H 0.4197 0.53979 0.59513 0.0
H2750 H 0.4215 0.54381 0.62246 0.0
H2751 H 0.41505 0.55798 0.62077 0.0
H2752 H 0.39231 0.59513 0.62814 0.0
H2753 H 0.40025 0.58848 0.6163 0.0
H2754 H 0.3773 0.60954 0.60986 0.0
H2755 H 0.38516 0.6028 0.59813 0.0
H2756 H 0.417 0.60118 0.5631 0.0
H2757 H 0.41683 0.57666 0.55021 0.0
H2758 H 0.41476 0.56946 0.56395 0.0
H2759 H 0.41503 0.59387 0.57689 0.0
C2760 C 0.80609 0.16373 0.1818 0.0
C2761 C 0.80398 0.17134 0.18615 0.0
C2762 C 0.78961 0.17118 0.17988 0.0
C2763 C 0.79583 0.17503 0.18518 0.0
C2764 C 0.79175 0.16349 0.17566 0.0
C2765 C 0.79988 0.15983 0.17661 0.0
U2766 U 0.82748 0.15831 0.19326 0.0
O2767 O 0.83483 0.14622 0.19286 0.0
O2768 O 0.84057 0.15811 0.188 0.0
C2769 C 0.84132 0.14974 0.18879 0.0
C2770 C 0.81474 0.15987 0.18231 0.0
C2771 C 0.84479 0.14492 0.18132 0.0
C2772 C 0.85087 0.13168 0.17562 0.0
C2773 C 0.84696 0.13623 0.18231 0.0
C2774 C 0.8505 0.1444 0.16676 0.0
C2775 C 0.85278 0.13572 0.16778 0.0
C2776 C 0.84655 0.14894 0.17344 0.0
C2777 C 0.83084 0.16618 0.21675 0.0
C2778 C 0.84408 0.16724 0.22498 0.0
C2779 C 0.83041 0.16925 0.23203 0.0
C2780 C 0.82619 0.16783 0.22425 0.0
C2781 C 0.83941 0.16907 0.23251 0.0
C2782 C 0.83983 0.16583 0.21716 0.0
C2783 C 0.82609 0.1652 0.2086 0.0
O2784 O 0.82126 0.16519 0.18263 0.0
O2785 O 0.81558 0.15328 0.1875 0.0
O2786 O 0.82335 0.15745 0.20676 0.0
O2787 O 0.82911 0.16933 0.20191 0.0
H2788 H 0.80865 0.17445 0.19024 0.0
H2789 H 0.79439 0.18088 0.18861 0.0
H2790 H 0.7872 0.1604 0.17143 0.0
H2791 H 0.80137 0.15399 0.17317 0.0
H2792 H 0.85262 0.12504 0.1767 0.0
H2793 H 0.84579 0.13299 0.18833 0.0
H2794 H 0.85178 0.14769 0.16078 0.0
H2795 H 0.84499 0.15564 0.17244 0.0
H2796 H 0.85101 0.1671 0.22508 0.0
H2797 H 0.82659 0.17046 0.2377 0.0
H2798 H 0.81926 0.1681 0.22409 0.0
H2799 H 0.84355 0.16457 0.21144 0.0
C2800 C 0.62473 0.05571 0.93109 0.0
C2801 C 0.61728 0.05363 0.93571 0.0
C2802 C 0.61707 0.0393 0.92934 0.0
C2803 C 0.61348 0.04552 0.93483 0.0
C2804 C 0.6246 0.04141 0.92483 0.0
C2805 C 0.62836 0.04951 0.9257 0.0
U2806 U 0.63047 0.07701 0.94254 0.0
O2807 O 0.64267 0.08416 0.94223 0.0
O2808 O 0.63093 0.09011 0.93729 0.0
C2809 C 0.63929 0.09075 0.93823 0.0
C2810 C 0.62873 0.0643 0.93157 0.0
C2811 C 0.64425 0.09432 0.93092 0.0
C2812 C 0.64552 0.0988 0.91598 0.0
C2813 C 0.64091 0.09472 0.92256 0.0
C2814 C 0.65694 0.10198 0.92596 0.0
C2815 C 0.65355 0.1026 0.91762 0.0
C2816 C 0.65234 0.09792 0.93251 0.0
C2817 C 0.62281 0.08058 0.96605 0.0
C2818 C 0.62034 0.09375 0.97411 0.0
C2819 C 0.62172 0.08024 0.98162 0.0
C2820 C 0.62292 0.07602 0.9738 0.0
C2821 C 0.62036 0.08915 0.9819 0.0
C2822 C 0.62157 0.08951 0.96626 0.0
C2823 C 0.62359 0.07576 0.95791 0.0
O2824 O 0.6235 0.07091 0.9319 0.0
O2825 O 0.63531 0.06505 0.93676 0.0
O2826 O 0.63123 0.07278 0.95602 0.0
O2827 O 0.61948 0.07881 0.95121 0.0
H2828 H 0.61437 0.0583 0.93996 0.0
H2829 H 0.60775 0.0441 0.93849 0.0
H2830 H 0.62749 0.03686 0.92046 0.0
H2831 H 0.63409 0.05098 0.92205 0.0
H2832 H 0.64266 0.0992 0.90967 0.0
H2833 H 0.63468 0.09202 0.92113 0.0
H2834 H 0.66316 0.10467 0.92745 0.0
H2835 H 0.65506 0.09771 0.9389 0.0
H2836 H 0.61942 0.10063 0.97408 0.0
H2837 H 0.62165 0.07645 0.98744 0.0
H2838 H 0.62381 0.06913 0.97379 0.0
H2839 H 0.62148 0.09319 0.96038 0.0
C2840 C 0.91274 0.98254 0.43133 0.0
C2841 C 0.92042 0.98452 0.43558 0.0
C2842 C 0.92032 0.99898 0.42947 0.0
C2843 C 0.92418 0.99265 0.43465 0.0
C2844 C 0.91256 0.99697 0.42534 0.0
C2845 C 0.90883 0.98886 0.42625 0.0
U2846 U 0.90705 0.96109 0.44264 0.0
O2847 O 0.89487 0.9539 0.4422 0.0
O2848 O 0.90666 0.94805 0.43727 0.0
C2849 C 0.89831 0.94735 0.43817 0.0
C2850 C 0.90879 0.97392 0.43178 0.0
C2851 C 0.89343 0.94386 0.4308 0.0
C2852 C 0.89194 0.94049 0.41561 0.0
C2853 C 0.89644 0.94443 0.42233 0.0
C2854 C 0.88124 0.93552 0.42569 0.0
C2855 C 0.8843 0.93591 0.41721 0.0
C2856 C 0.88576 0.93943 0.43239 0.0
C2857 C 0.91453 0.95718 0.46615 0.0
C2858 C 0.91883 0.94447 0.47422 0.0
C2859 C 0.91374 0.95703 0.48176 0.0
C2860 C 0.91257 0.96125 0.47392 0.0
C2861 C 0.91696 0.9486 0.48203 0.0
C2862 C 0.91763 0.94871 0.46637 0.0
C2863 C 0.91382 0.96214 0.45806 0.0
O2864 O 0.91404 0.96733 0.43207 0.0
O2865 O 0.90219 0.9731 0.43694 0.0
O2866 O 0.90619 0.96515 0.45615 0.0
O2867 O 0.918 0.95924 0.45133 0.0
H2868 H 0.92355 0.97977 0.43957 0.0
H2869 H 0.9301 0.99399 0.43801 0.0
H2870 H 0.90945 1.00161 0.42121 0.0
H2871 H 0.90292 0.98746 0.42288 0.0
H2872 H 0.89443 0.94103 0.40916 0.0
H2873 H 0.90233 0.94783 0.4209 0.0
H2874 H 0.87547 0.93197 0.42721 0.0
H2875 H 0.88333 0.93885 0.43887 0.0
H2876 H 0.92122 0.93795 0.47417 0.0
H2877 H 0.91234 0.96047 0.48761 0.0
H2878 H 0.91026 0.96781 0.47395 0.0
H2879 H 0.91921 0.94538 0.46049 0.0
C2880 C 0.35753 0.30644 0.16332 0.0
C2881 C 0.35261 0.30399 0.17046 0.0
C2882 C 0.35974 0.29001 0.17081 0.0
C2883 C 0.3537 0.29585 0.17417 0.0
C2884 C 0.36451 0.29248 0.16356 0.0
C2885 C 0.36342 0.30059 0.15988 0.0
U2886 U 0.34597 0.32792 0.15835 0.0
O2887 O 0.35135 0.34097 0.158 0.0
O2888 O 0.34602 0.33534 0.14628 0.0
C2889 C 0.35022 0.3418 0.14969 0.0
C2890 C 0.35688 0.31508 0.15946 0.0
C2891 C 0.35749 0.3453 0.14465 0.0
C2892 C 0.37256 0.3492 0.14311 0.0
C2893 C 0.36596 0.34518 0.14773 0.0
C2894 C 0.36241 0.35333 0.13216 0.0
C2895 C 0.37087 0.3534 0.1353 0.0
C2896 C 0.35582 0.34935 0.13679 0.0
C2897 C 0.32296 0.33183 0.16714 0.0
C2898 C 0.31224 0.34212 0.1623 0.0
C2899 C 0.31021 0.33457 0.17571 0.0
C2900 C 0.318 0.33029 0.17447 0.0
C2901 C 0.30718 0.3405 0.16962 0.0
C2902 C 0.32007 0.33783 0.16108 0.0
C2903 C 0.3309 0.3268 0.16588 0.0
O2904 O 0.3514 0.31596 0.15313 0.0
O2905 O 0.35681 0.3216 0.1648 0.0
O2906 O 0.33781 0.32963 0.16978 0.0
O2907 O 0.33243 0.32401 0.15807 0.0
H2908 H 0.34802 0.3084 0.17322 0.0
H2909 H 0.34996 0.29421 0.17978 0.0
H2910 H 0.36909 0.28813 0.16069 0.0
H2911 H 0.36725 0.30234 0.15435 0.0
H2912 H 0.37901 0.34902 0.14568 0.0
H2913 H 0.36747 0.34209 0.15376 0.0
H2914 H 0.36082 0.35658 0.12623 0.0
H2915 H 0.34934 0.34959 0.1343 0.0
H2916 H 0.31018 0.34671 0.15753 0.0
H2917 H 0.30646 0.33305 0.18135 0.0
H2918 H 0.32008 0.32566 0.17921 0.0
H2919 H 0.32381 0.33915 0.15538 0.0
C2920 C 0.48161 0.60739 0.91346 0.0
C2921 C 0.48371 0.6033 0.9212 0.0
C2922 C 0.49818 0.60935 0.92069 0.0
C2923 C 0.49191 0.60427 0.92478 0.0
C2924 C 0.49606 0.61326 0.91284 0.0
C2925 C 0.48788 0.61231 0.90929 0.0
U2926 U 0.45988 0.59626 0.90869 0.0
O2927 O 0.44688 0.6018 0.90897 0.0
O2928 O 0.45209 0.59674 0.89694 0.0
C2929 C 0.44578 0.6009 0.90067 0.0
C2930 C 0.47287 0.60699 0.90976 0.0
C2931 C 0.44211 0.60836 0.89603 0.0
C2932 C 0.44259 0.61921 0.88475 0.0
C2933 C 0.44652 0.61254 0.88936 0.0
C2934 C 0.42987 0.61774 0.89349 0.0
C2935 C 0.43419 0.62187 0.88673 0.0
C2936 C 0.43378 0.61107 0.89806 0.0
C2937 C 0.45601 0.57306 0.91708 0.0
C2938 C 0.44551 0.5625 0.91238 0.0
C2939 C 0.45342 0.56017 0.92551 0.0
C2940 C 0.45772 0.56795 0.92428 0.0
C2941 C 0.44728 0.55729 0.91956 0.0
C2942 C 0.44982 0.57031 0.91116 0.0
C2943 C 0.46107 0.58099 0.91581 0.0
O2944 O 0.47178 0.60173 0.90329 0.0
O2945 O 0.46646 0.60688 0.91523 0.0
O2946 O 0.45846 0.58783 0.91996 0.0
O2947 O 0.46361 0.58267 0.90795 0.0
H2948 H 0.47899 0.59946 0.92455 0.0
H2949 H 0.49326 0.60121 0.93086 0.0
H2950 H 0.50073 0.61708 0.9094 0.0
H2951 H 0.48641 0.6155 0.9033 0.0
H2952 H 0.44616 0.62231 0.87966 0.0
H2953 H 0.45296 0.61061 0.88764 0.0
H2954 H 0.42337 0.6195 0.89514 0.0
H2955 H 0.43021 0.60791 0.90312 0.0
H2956 H 0.44076 0.56055 0.90771 0.0
H2957 H 0.45507 0.55631 0.93104 0.0
H2958 H 0.4625 0.56992 0.92891 0.0
H2959 H 0.44837 0.57416 0.90556 0.0
C2960 C 0.18076 0.73128 0.66392 0.0
C2961 C 0.18443 0.73332 0.67189 0.0
C2962 C 0.17868 0.74789 0.67106 0.0
C2963 C 0.1834 0.74153 0.67542 0.0
C2964 C 0.17519 0.74585 0.663 0.0
C2965 C 0.17621 0.73765 0.65949 0.0
U2966 U 0.19201 0.70961 0.65922 0.0
O2967 O 0.18659 0.69654 0.65954 0.0
O2968 O 0.1916 0.70178 0.64749 0.0
C2969 C 0.18759 0.69539 0.65126 0.0
C2970 C 0.1812 0.72253 0.66025 0.0
C2971 C 0.18023 0.69161 0.64662 0.0
C2972 C 0.16773 0.69274 0.63731 0.0
C2973 C 0.17441 0.69663 0.64192 0.0
C2974 C 0.17252 0.6788 0.64214 0.0
C2975 C 0.1667 0.68375 0.63734 0.0
C2976 C 0.17919 0.68268 0.64671 0.0
C2977 C 0.21521 0.7059 0.66756 0.0
C2978 C 0.22574 0.69537 0.66284 0.0
C2979 C 0.22814 0.70335 0.67591 0.0
C2980 C 0.22035 0.70764 0.67471 0.0
C2981 C 0.23099 0.69719 0.66997 0.0
C2982 C 0.21792 0.69967 0.66165 0.0
C2983 C 0.20727 0.71093 0.66631 0.0
O2984 O 0.18647 0.72144 0.65377 0.0
O2985 O 0.18134 0.71612 0.66573 0.0
O2986 O 0.20045 0.70828 0.67049 0.0
O2987 O 0.20556 0.71345 0.65845 0.0
H2988 H 0.18798 0.72853 0.67544 0.0
H2989 H 0.18612 0.74282 0.68167 0.0
H2990 H 0.17166 0.75059 0.65937 0.0
H2991 H 0.17334 0.73624 0.65333 0.0
H2992 H 0.16332 0.69678 0.63378 0.0
H2993 H 0.17507 0.70355 0.64177 0.0
H2994 H 0.17205 0.67187 0.64223 0.0
H2995 H 0.18362 0.67868 0.65025 0.0
H2996 H 0.22766 0.6906 0.65818 0.0
H2997 H 0.23203 0.70504 0.6814 0.0
H2998 H 0.21841 0.71245 0.67933 0.0
H2999 H 0.21404 0.69819 0.65609 0.0
C3000 C 0.05612 0.4306 0.4136 0.0
C3001 C 0.05351 0.43575 0.42051 0.0
C3002 C 0.03965 0.42842 0.42098 0.0
C3003 C 0.04535 0.43467 0.42416 0.0
C3004 C 0.04227 0.42342 0.41394 0.0
C3005 C 0.05041 0.4245 0.41032 0.0
U3006 U 0.07744 0.44231 0.40834 0.0
O3007 O 0.09061 0.43715 0.40856 0.0
O3008 O 0.08508 0.44178 0.39649 0.0
C3009 C 0.09155 0.43787 0.40022 0.0
C3010 C 0.06481 0.4312 0.40987 0.0
C3011 C 0.09531 0.43038 0.3957 0.0
C3012 C 0.09494 0.4194 0.38456 0.0
C3013 C 0.09093 0.42606 0.38911 0.0
C3014 C 0.10767 0.42115 0.39322 0.0
C3015 C 0.10339 0.41689 0.38652 0.0
C3016 C 0.10369 0.42782 0.39772 0.0
C3017 C 0.08066 0.46592 0.41575 0.0
C3018 C 0.09391 0.474 0.41766 0.0
C3019 C 0.08031 0.48144 0.41742 0.0
C3020 C 0.07606 0.47363 0.41622 0.0
C3021 C 0.08929 0.48175 0.41821 0.0
C3022 C 0.08964 0.46616 0.41643 0.0
C3023 C 0.07585 0.45778 0.41491 0.0
O3024 O 0.0657 0.43632 0.40323 0.0
O3025 O 0.07122 0.43173 0.41531 0.0
O3026 O 0.07876 0.45116 0.41925 0.0
O3027 O 0.07322 0.45577 0.40718 0.0
H3028 H 0.05782 0.44051 0.42315 0.0
H3029 H 0.04359 0.4386 0.4296 0.0
H3030 H 0.03803 0.41866 0.41121 0.0
H3031 H 0.05227 0.42048 0.40497 0.0
H3032 H 0.0914 0.4162 0.37953 0.0
H3033 H 0.08446 0.42787 0.38739 0.0
H3034 H 0.11421 0.4195 0.39485 0.0
H3035 H 0.10723 0.43109 0.40271 0.0
H3036 H 0.10083 0.47398 0.41813 0.0
H3037 H 0.07651 0.48723 0.41794 0.0
H3038 H 0.06913 0.4736 0.41576 0.0
H3039 H 0.09334 0.46029 0.41607 0.0
C3040 C 0.3578 0.73187 0.37333 0.0
C3041 C 0.35259 0.7345 0.36648 0.0
C3042 C 0.3599 0.74838 0.36598 0.0
C3043 C 0.35363 0.74267 0.36284 0.0
C3044 C 0.36498 0.74572 0.37295 0.0
C3045 C 0.36394 0.73757 0.37656 0.0
U3046 U 0.34583 0.71074 0.37863 0.0
O3047 O 0.35071 0.69746 0.37843 0.0
O3048 O 0.34622 0.7031 0.39049 0.0
C3049 C 0.34988 0.6965 0.38676 0.0
C3050 C 0.35715 0.72318 0.3771 0.0
C3051 C 0.35722 0.69256 0.3913 0.0
C3052 C 0.37015 0.69351 0.40001 0.0
C3053 C 0.36349 0.69751 0.39545 0.0
C3054 C 0.3644 0.6796 0.39622 0.0
C3055 C 0.37068 0.68449 0.40048 0.0
C3056 C 0.35777 0.6836 0.3917 0.0
C3057 C 0.3222 0.70797 0.37125 0.0
C3058 C 0.31385 0.69478 0.37037 0.0
C3059 C 0.30678 0.70852 0.36897 0.0
C3060 C 0.31465 0.71268 0.37002 0.0
C3061 C 0.30625 0.6995 0.36911 0.0
C3062 C 0.32175 0.69897 0.37145 0.0
C3063 C 0.33041 0.71265 0.37205 0.0
O3064 O 0.35205 0.72237 0.38375 0.0
O3065 O 0.35653 0.71677 0.37167 0.0
O3066 O 0.33696 0.70959 0.36773 0.0
O3067 O 0.33248 0.71524 0.37979 0.0
H3068 H 0.34779 0.7302 0.36388 0.0
H3069 H 0.34965 0.74445 0.35744 0.0
H3070 H 0.36976 0.74997 0.37566 0.0
H3071 H 0.368 0.73569 0.38187 0.0
H3072 H 0.37491 0.69748 0.40312 0.0
H3073 H 0.36322 0.70444 0.39521 0.0
H3074 H 0.3645 0.67267 0.39652 0.0
H3075 H 0.35298 0.67966 0.38858 0.0
H3076 H 0.31369 0.68784 0.37061 0.0
H3077 H 0.30112 0.71238 0.36789 0.0
H3078 H 0.31485 0.71962 0.3698 0.0
H3079 H 0.3275 0.6952 0.37241 0.0
C3080 C 0.05695 0.60814 0.12259 0.0
C3081 C 0.05147 0.60103 0.1219 0.0
C3082 C 0.04039 0.60997 0.11532 0.0
C3083 C 0.04326 0.60194 0.11832 0.0
C3084 C 0.04597 0.61704 0.11596 0.0
C3085 C 0.05414 0.61612 0.11956 0.0
U3086 U 0.07825 0.59661 0.12832 0.0
O3087 O 0.09133 0.60195 0.12849 0.0
O3088 O 0.08561 0.59703 0.14035 0.0
C3089 C 0.0921 0.60111 0.13683 0.0
C3090 C 0.0655 0.60755 0.12667 0.0
C3091 C 0.0957 0.60858 0.14154 0.0
C3092 C 0.09565 0.61862 0.15354 0.0
C3093 C 0.09172 0.612 0.14888 0.0
C3094 C 0.1075 0.61864 0.14356 0.0
C3095 C 0.10362 0.622 0.15097 0.0
C3096 C 0.1036 0.61201 0.13893 0.0
C3097 C 0.08214 0.57336 0.12005 0.0
C3098 C 0.09195 0.56236 0.12525 0.0
C3099 C 0.08522 0.56075 0.11138 0.0
C3100 C 0.08099 0.56858 0.11253 0.0
C3101 C 0.09072 0.55749 0.11774 0.0
C3102 C 0.08771 0.57023 0.12639 0.0
C3103 C 0.07714 0.58135 0.12117 0.0
O3104 O 0.06627 0.60226 0.13319 0.0
O3105 O 0.07211 0.60734 0.12144 0.0
O3106 O 0.07998 0.58817 0.11711 0.0
O3107 O 0.07434 0.58305 0.12894 0.0
H3108 H 0.0535 0.59478 0.12416 0.0
H3109 H 0.03919 0.59633 0.11784 0.0
H3110 H 0.04397 0.62334 0.11384 0.0
H3111 H 0.05824 0.62171 0.12006 0.0
H3112 H 0.09242 0.62111 0.15915 0.0
H3113 H 0.08564 0.6095 0.15109 0.0
H3114 H 0.11369 0.62097 0.14144 0.0
H3115 H 0.10687 0.60944 0.13336 0.0
H3116 H 0.09621 0.56012 0.13025 0.0
H3117 H 0.084 0.55715 0.10558 0.0
H3118 H 0.07669 0.57084 0.10757 0.0
H3119 H 0.08873 0.57382 0.13224 0.0
C3120 C 0.18075 0.30635 0.87373 0.0
C3121 C 0.18523 0.3043 0.8662 0.0
C3122 C 0.17889 0.28994 0.86611 0.0
C3123 C 0.1843 0.29618 0.86241 0.0
C3124 C 0.17452 0.29202 0.87372 0.0
C3125 C 0.17543 0.30013 0.87747 0.0
U3126 U 0.19209 0.32785 0.87885 0.0
O3127 O 0.18666 0.34086 0.87938 0.0
O3128 O 0.19217 0.33514 0.89098 0.0
C3129 C 0.18795 0.34164 0.88767 0.0
C3130 C 0.18126 0.31495 0.8777 0.0
C3131 C 0.18081 0.34517 0.89286 0.0
C3132 C 0.16572 0.34869 0.89496 0.0
C3133 C 0.17221 0.34463 0.89023 0.0
C3134 C 0.17628 0.35369 0.90514 0.0
C3135 C 0.16768 0.35339 0.90242 0.0
C3136 C 0.18274 0.34965 0.90041 0.0
C3137 C 0.21503 0.33191 0.86994 0.0
C3138 C 0.22549 0.34252 0.87464 0.0
C3139 C 0.22797 0.33449 0.8616 0.0
C3140 C 0.2202 0.33016 0.86281 0.0
C3141 C 0.23077 0.3407 0.86752 0.0
C3142 C 0.21769 0.33817 0.87583 0.0
C3143 C 0.20711 0.32684 0.87119 0.0
O3144 O 0.18675 0.31581 0.88402 0.0
O3145 O 0.18122 0.32155 0.87245 0.0
O3146 O 0.20017 0.32972 0.86738 0.0
O3147 O 0.20565 0.32397 0.87898 0.0
H3148 H 0.1894 0.30898 0.86321 0.0
H3149 H 0.18785 0.29478 0.85662 0.0
H3150 H 0.17022 0.28746 0.8767 0.0
H3151 H 0.17189 0.30158 0.88326 0.0
H3152 H 0.15919 0.34836 0.89262 0.0
H3153 H 0.17052 0.34121 0.88442 0.0
H3154 H 0.17804 0.35709 0.91092 0.0
H3155 H 0.18932 0.35016 0.90259 0.0
H3156 H 0.22738 0.34732 0.87927 0.0
H3157 H 0.23188 0.3328 0.85612 0.0
H3158 H 0.2183 0.32532 0.85821 0.0
H3159 H 0.21379 0.33965 0.88138 0.0
C3160 C 0.48149 0.43135 0.62399 0.0
C3161 C 0.48358 0.43583 0.61645 0.0
C3162 C 0.49796 0.42956 0.61649 0.0
C3163 C 0.49172 0.43492 0.61272 0.0
C3164 C 0.49583 0.42519 0.6241 0.0
C3165 C 0.4877 0.42608 0.62779 0.0
U3166 U 0.45996 0.44267 0.62903 0.0
O3167 O 0.44696 0.43722 0.62948 0.0
O3168 O 0.45262 0.44269 0.64113 0.0
C3169 C 0.44616 0.43843 0.63779 0.0
C3170 C 0.47287 0.43185 0.62791 0.0
C3171 C 0.44269 0.4312 0.64293 0.0
C3172 C 0.43857 0.41619 0.64458 0.0
C3173 C 0.44257 0.42273 0.63985 0.0
C3174 C 0.43493 0.42643 0.65563 0.0
C3175 C 0.4346 0.41797 0.6525 0.0
C3176 C 0.4389 0.43295 0.6509 0.0
C3177 C 0.45596 0.46564 0.62012 0.0
C3178 C 0.44559 0.4763 0.6249 0.0
C3179 C 0.45327 0.47844 0.61158 0.0
C3180 C 0.45755 0.47065 0.61283 0.0
C3181 C 0.44726 0.48142 0.61762 0.0
C3182 C 0.44988 0.46848 0.62613 0.0
C3183 C 0.461 0.45771 0.62141 0.0
O3184 O 0.47197 0.43733 0.63424 0.0
O3185 O 0.46631 0.43182 0.62263 0.0
O3186 O 0.45817 0.45077 0.61757 0.0
O3187 O 0.46383 0.45624 0.62921 0.0
H3188 H 0.47891 0.43997 0.61342 0.0
H3189 H 0.49316 0.43846 0.60693 0.0
H3190 H 0.5004 0.42092 0.62712 0.0
H3191 H 0.48622 0.42254 0.63358 0.0
H3192 H 0.43839 0.40979 0.64191 0.0
H3193 H 0.44542 0.42117 0.63372 0.0
H3194 H 0.43209 0.42804 0.66176 0.0
H3195 H 0.43889 0.43942 0.65342 0.0
H3196 H 0.44094 0.47833 0.62963 0.0
H3197 H 0.45484 0.48222 0.60598 0.0
H3198 H 0.46224 0.4686 0.60813 0.0
H3199 H 0.44853 0.46471 0.6318 0.0
C3200 C 0.16375 0.35738 0.30608 0.0
C3201 C 0.17149 0.35322 0.30412 0.0
C3202 C 0.17134 0.35932 0.28967 0.0
C3203 C 0.17526 0.35419 0.296 0.0
C3204 C 0.16353 0.36336 0.29166 0.0
C3205 C 0.1598 0.36241 0.29976 0.0
U3206 U 0.15808 0.34585 0.32739 0.0
O3207 O 0.15758 0.35109 0.34048 0.0
O3208 O 0.14587 0.34607 0.33453 0.0
C3209 C 0.14923 0.35006 0.34114 0.0
C3210 C 0.15977 0.35685 0.31468 0.0
C3211 C 0.14422 0.35729 0.34475 0.0
C3212 C 0.14257 0.37235 0.34865 0.0
C3213 C 0.14719 0.3658 0.34453 0.0
C3214 C 0.13187 0.36202 0.35306 0.0
C3215 C 0.1349 0.37052 0.35307 0.0
C3216 C 0.13648 0.3555 0.34896 0.0
C3217 C 0.16573 0.32236 0.33109 0.0
C3218 C 0.16909 0.31431 0.34407 0.0
C3219 C 0.16572 0.30674 0.33097 0.0
C3220 C 0.1646 0.31457 0.32674 0.0
C3221 C 0.16804 0.30648 0.33969 0.0
C3222 C 0.16793 0.32217 0.33983 0.0
C3223 C 0.165 0.33049 0.3262 0.0
O3224 O 0.1532 0.35163 0.31544 0.0
O3225 O 0.16499 0.35654 0.32129 0.0
O3226 O 0.1691 0.33722 0.32921 0.0
O3227 O 0.15737 0.33237 0.32317 0.0
H3228 H 0.17465 0.34926 0.30887 0.0
H3229 H 0.18122 0.3509 0.29468 0.0
H3230 H 0.16038 0.36744 0.28701 0.0
H3231 H 0.15384 0.3657 0.30113 0.0
H3232 H 0.14514 0.3788 0.34856 0.0
H3233 H 0.15314 0.36738 0.34134 0.0
H3234 H 0.12593 0.36037 0.35624 0.0
H3235 H 0.13406 0.34899 0.34922 0.0
H3236 H 0.17078 0.31437 0.3508 0.0
H3237 H 0.16497 0.30087 0.32734 0.0
H3238 H 0.16297 0.31455 0.31999 0.0
H3239 H 0.16884 0.32808 0.34336 0.0
C3240 C 0.43063 0.41436 0.05635 0.0
C3241 C 0.43538 0.42166 0.05402 0.0
C3242 C 0.42881 0.42164 0.03978 0.0
C3243 C 0.43446 0.42527 0.04583 0.0
C3244 C 0.42418 0.41425 0.04214 0.0
C3245 C 0.42508 0.41067 0.05032 0.0
U3246 U 0.44196 0.40958 0.07792 0.0
O3247 O 0.43661 0.40986 0.091 0.0
O3248 O 0.4416 0.39782 0.08573 0.0
C3249 C 0.43762 0.40157 0.09214 0.0
C3250 C 0.43107 0.41064 0.06507 0.0
C3251 C 0.43028 0.39691 0.09596 0.0
C3252 C 0.41778 0.38758 0.09491 0.0
C3253 C 0.42444 0.39221 0.09098 0.0
C3254 C 0.42265 0.39239 0.10882 0.0
C3255 C 0.4168 0.38759 0.1039 0.0
C3256 C 0.42929 0.39698 0.10489 0.0
C3257 C 0.46518 0.41799 0.08149 0.0
C3258 C 0.47609 0.41311 0.09156 0.0
C3259 C 0.47794 0.4266 0.0841 0.0
C3260 C 0.47009 0.42538 0.07996 0.0
C3261 C 0.48112 0.42044 0.08989 0.0
C3262 C 0.4682 0.4119 0.08739 0.0
C3263 C 0.4572 0.41672 0.07652 0.0
O3264 O 0.43636 0.40417 0.06612 0.0
O3265 O 0.43126 0.41612 0.07147 0.0
O3266 O 0.45039 0.42088 0.07921 0.0
O3267 O 0.45549 0.40886 0.07401 0.0
H3268 H 0.43973 0.4246 0.05855 0.0
H3269 H 0.43821 0.43089 0.04422 0.0
H3270 H 0.41969 0.41134 0.03773 0.0
H3271 H 0.42133 0.40507 0.05199 0.0
H3272 H 0.41335 0.38405 0.0909 0.0
H3273 H 0.42505 0.39207 0.08406 0.0
H3274 H 0.42223 0.39247 0.11574 0.0
H3275 H 0.43375 0.40052 0.10887 0.0
H3276 H 0.47834 0.4082 0.09592 0.0
H3277 H 0.48153 0.43239 0.08276 0.0
H3278 H 0.46788 0.43018 0.07545 0.0
H3279 H 0.46453 0.40614 0.08869 0.0
C3280 C 0.3741 0.68116 0.80611 0.0
C3281 C 0.36664 0.6857 0.80393 0.0
C3282 C 0.36661 0.6792 0.78966 0.0
C3283 C 0.36292 0.68472 0.7958 0.0
C3284 C 0.37415 0.67477 0.79187 0.0
C3285 C 0.37784 0.67574 0.79999 0.0
U3286 U 0.37907 0.69258 0.8276 0.0
O3287 O 0.37955 0.68715 0.84062 0.0
O3288 O 0.39116 0.69269 0.83494 0.0
C3289 C 0.38784 0.68843 0.84141 0.0
C3290 C 0.37801 0.68172 0.81473 0.0
C3291 C 0.39303 0.68127 0.84494 0.0
C3292 C 0.39493 0.66623 0.84881 0.0
C3293 C 0.39019 0.67271 0.84475 0.0
C3294 C 0.40553 0.6767 0.85311 0.0
C3295 C 0.40262 0.66815 0.85316 0.0
C3296 C 0.40078 0.68317 0.84907 0.0
C3297 C 0.3701 0.71551 0.83158 0.0
C3298 C 0.37478 0.72606 0.84211 0.0
C3299 C 0.3617 0.72841 0.83413 0.0
C3300 C 0.36293 0.72063 0.82984 0.0
C3301 C 0.36763 0.73128 0.8403 0.0
C3302 C 0.376 0.71824 0.83781 0.0
C3303 C 0.37139 0.70759 0.82654 0.0
O3304 O 0.38431 0.68724 0.8156 0.0
O3305 O 0.37271 0.68169 0.82128 0.0
O3306 O 0.36758 0.70063 0.8294 0.0
O3307 O 0.37919 0.70614 0.8237 0.0
H3308 H 0.36366 0.68996 0.80854 0.0
H3309 H 0.35718 0.68831 0.7943 0.0
H3310 H 0.37712 0.67038 0.78739 0.0
H3311 H 0.38358 0.67215 0.80154 0.0
H3312 H 0.39244 0.65975 0.84876 0.0
H3313 H 0.38422 0.67105 0.84162 0.0
H3314 H 0.41148 0.67843 0.85623 0.0
H3315 H 0.40312 0.68971 0.8493 0.0
H3316 H 0.37943 0.72799 0.84688 0.0
H3317 H 0.35619 0.73229 0.83245 0.0
H3318 H 0.35832 0.71868 0.82503 0.0
H3319 H 0.38158 0.71438 0.83928 0.0
C3320 C 0.10775 0.62475 0.55641 0.0
C3321 C 0.10281 0.61766 0.55389 0.0
C3322 C 0.11011 0.61727 0.54001 0.0
C3323 C 0.10397 0.61395 0.54577 0.0
C3324 C 0.11492 0.62447 0.54255 0.0
C3325 C 0.11375 0.62815 0.55064 0.0
U3326 U 0.09572 0.63009 0.57751 0.0
O3327 O 0.10068 0.63038 0.5907 0.0
O3328 O 0.09584 0.6422 0.58482 0.0
C3329 C 0.09974 0.63873 0.59143 0.0
C3330 C 0.10699 0.62862 0.56503 0.0
C3331 C 0.10705 0.64362 0.59507 0.0
C3332 C 0.12211 0.64494 0.59904 0.0
C3333 C 0.11547 0.64043 0.59497 0.0
C3334 C 0.11207 0.656 0.60318 0.0
C3335 C 0.12049 0.65276 0.60326 0.0
C3336 C 0.10544 0.65147 0.59915 0.0
C3337 C 0.07228 0.6221 0.58052 0.0
C3338 C 0.06375 0.62233 0.5936 0.0
C3339 C 0.05714 0.61839 0.58014 0.0
C3340 C 0.06498 0.61955 0.57595 0.0
C3341 C 0.05639 0.61976 0.58903 0.0
C3342 C 0.07162 0.62351 0.58938 0.0
C3343 C 0.08047 0.62305 0.57584 0.0
O3344 O 0.10171 0.63514 0.56573 0.0
O3345 O 0.10655 0.62328 0.57154 0.0
O3346 O 0.08713 0.61898 0.57901 0.0
O3347 O 0.08233 0.63079 0.57307 0.0
H3348 H 0.09813 0.61493 0.55824 0.0
H3349 H 0.1002 0.60838 0.54408 0.0
H3350 H 0.11958 0.62732 0.53826 0.0
H3351 H 0.1176 0.63365 0.55243 0.0
H3352 H 0.12853 0.6423 0.59886 0.0
H3353 H 0.11693 0.6344 0.59185 0.0
H3354 H 0.11053 0.66193 0.60644 0.0
H3355 H 0.099 0.65404 0.59937 0.0
H3356 H 0.06341 0.62353 0.60043 0.0
H3357 H 0.05169 0.61627 0.57641 0.0
H3358 H 0.06536 0.61839 0.56912 0.0
H3359 H 0.07718 0.6255 0.59303 0.0
C3360 C 0.16402 0.6805 0.23177 0.0
C3361 C 0.17079 0.68582 0.2344 0.0
C3362 C 0.17161 0.67826 0.24813 0.0
C3363 C 0.17455 0.68472 0.2425 0.0
C3364 C 0.16473 0.67307 0.24547 0.0
C3365 C 0.16099 0.67418 0.23739 0.0
U3366 U 0.159 0.69224 0.21041 0.0
O3367 O 0.15853 0.68695 0.19735 0.0
O3368 O 0.1469 0.69235 0.2031 0.0
C3369 C 0.15023 0.68815 0.1966 0.0
C3370 C 0.16012 0.68122 0.22317 0.0
C3371 C 0.14507 0.68095 0.19308 0.0
C3372 C 0.14359 0.66612 0.18832 0.0
C3373 C 0.14835 0.67258 0.19239 0.0
C3374 C 0.13212 0.67622 0.18573 0.0
C3375 C 0.13545 0.66788 0.18482 0.0
C3376 C 0.13688 0.68266 0.18978 0.0
C3377 C 0.16791 0.71526 0.20664 0.0
C3378 C 0.16308 0.72614 0.1965 0.0
C3379 C 0.17647 0.72807 0.20408 0.0
C3380 C 0.17524 0.72021 0.20823 0.0
C3381 C 0.17036 0.73121 0.19823 0.0
C3382 C 0.16186 0.71824 0.20067 0.0
C3383 C 0.16663 0.70727 0.21159 0.0
O3384 O 0.15382 0.68676 0.22237 0.0
O3385 O 0.16542 0.68131 0.21662 0.0
O3386 O 0.17047 0.70036 0.20867 0.0
O3387 O 0.15884 0.70576 0.21443 0.0
H3388 H 0.17323 0.69075 0.23015 0.0
H3389 H 0.17987 0.68879 0.24429 0.0
H3390 H 0.16218 0.66815 0.24965 0.0
H3391 H 0.15575 0.67003 0.23551 0.0
H3392 H 0.14641 0.65981 0.18768 0.0
H3393 H 0.15466 0.67104 0.19484 0.0
H3394 H 0.12583 0.6778 0.18328 0.0
H3395 H 0.1342 0.68906 0.1902 0.0
H3396 H 0.15821 0.72836 0.19209 0.0
H3397 H 0.18222 0.73169 0.20547 0.0
H3398 H 0.18001 0.71802 0.21279 0.0
H3399 H 0.15615 0.71453 0.19934 0.0
C3400 C 0.1071 0.4139 0.98134 0.0
C3401 C 0.10254 0.42135 0.98355 0.0
C3402 C 0.10897 0.42128 0.99785 0.0
C3403 C 0.10348 0.42501 0.99171 0.0
C3404 C 0.1134 0.41374 0.99562 0.0
C3405 C 0.11248 0.41011 0.98747 0.0
U3406 U 0.0957 0.40847 0.95993 0.0
O3407 O 0.10094 0.40869 0.94679 0.0
O3408 O 0.09637 0.3966 0.95234 0.0
C3409 C 0.10026 0.40034 0.94587 0.0
C3410 C 0.10666 0.41012 0.97265 0.0
C3411 C 0.10778 0.39586 0.94213 0.0
C3412 C 0.11901 0.38497 0.94265 0.0
C3413 C 0.11232 0.3895 0.94663 0.0
C3414 C 0.11684 0.39319 0.92968 0.0
C3415 C 0.12133 0.38672 0.93409 0.0
C3416 C 0.11015 0.39767 0.93364 0.0
C3417 C 0.07205 0.41576 0.95662 0.0
C3418 C 0.06395 0.4174 0.94336 0.0
C3419 C 0.05656 0.41761 0.95699 0.0
C3420 C 0.06437 0.41643 0.96124 0.0
C3421 C 0.05623 0.41815 0.94799 0.0
C3422 C 0.07179 0.4162 0.94763 0.0
C3423 C 0.08018 0.41496 0.96143 0.0
O3424 O 0.10164 0.40342 0.97174 0.0
O3425 O 0.10618 0.41552 0.96619 0.0
O3426 O 0.08678 0.41932 0.95851 0.0
O3427 O 0.08223 0.40723 0.96408 0.0
H3428 H 0.09832 0.42438 0.97894 0.0
H3429 H 0.09988 0.43075 0.99323 0.0
H3430 H 0.11776 0.41074 1.00011 0.0
H3431 H 0.11608 0.40439 0.9859 0.0
H3432 H 0.12238 0.38012 0.94629 0.0
H3433 H 0.11066 0.38795 0.95319 0.0
H3434 H 0.11834 0.39465 0.92306 0.0
H3435 H 0.10671 0.40249 0.93 0.0
H3436 H 0.06395 0.41769 0.93643 0.0
H3437 H 0.0508 0.41829 0.9608 0.0
H3438 H 0.06442 0.41616 0.96818 0.0
H3439 H 0.07764 0.41569 0.94392 0.0
C3440 C 0.37376 0.35776 0.73132 0.0
C3441 C 0.36645 0.35302 0.73361 0.0
C3442 C 0.3664 0.35959 0.74785 0.0
C3443 C 0.3628 0.35395 0.74178 0.0
C3444 C 0.37381 0.3642 0.74554 0.0
C3445 C 0.37743 0.3633 0.73737 0.0
U3446 U 0.37916 0.34625 0.70997 0.0
O3447 O 0.37896 0.35142 0.6968 0.0
O3448 O 0.39103 0.34686 0.70237 0.0
C3449 C 0.38729 0.35065 0.69584 0.0
C3450 C 0.37754 0.3573 0.72263 0.0
C3451 C 0.39183 0.35805 0.69198 0.0
C3452 C 0.40134 0.37043 0.69293 0.0
C3453 C 0.39669 0.36382 0.69691 0.0
C3454 C 0.39622 0.3657 0.67909 0.0
C3455 C 0.40125 0.3714 0.68394 0.0
C3456 C 0.39159 0.35911 0.68306 0.0
C3457 C 0.37199 0.32258 0.70666 0.0
C3458 C 0.36876 0.31449 0.69368 0.0
C3459 C 0.37189 0.30695 0.70686 0.0
C3460 C 0.37301 0.3148 0.71107 0.0
C3461 C 0.3697 0.30667 0.69812 0.0
C3462 C 0.36991 0.32237 0.69789 0.0
C3463 C 0.37271 0.33072 0.71151 0.0
O3464 O 0.38423 0.35226 0.72173 0.0
O3465 O 0.37214 0.35679 0.71618 0.0
O3466 O 0.36832 0.33732 0.70864 0.0
O3467 O 0.38041 0.3328 0.71421 0.0
H3468 H 0.36352 0.34867 0.72906 0.0
H3469 H 0.35716 0.3502 0.74336 0.0
H3470 H 0.37671 0.36868 0.74997 0.0
H3471 H 0.38305 0.36704 0.73574 0.0
H3472 H 0.40518 0.37465 0.69688 0.0
H3473 H 0.39698 0.36314 0.70381 0.0
H3474 H 0.39584 0.36632 0.67219 0.0
H3475 H 0.38787 0.35476 0.67913 0.0
H3476 H 0.36718 0.31454 0.68692 0.0
H3477 H 0.37255 0.3011 0.71054 0.0
H3478 H 0.37454 0.31479 0.71784 0.0
H3479 H 0.3691 0.32827 0.69432 0.0
C3480 C 0.43022 0.62484 0.48105 0.0
C3481 C 0.43461 0.61726 0.48316 0.0
C3482 C 0.42825 0.61732 0.4975 0.0
C3483 C 0.43362 0.61353 0.49129 0.0
C3484 C 0.42397 0.62497 0.49535 0.0
C3485 C 0.42495 0.62867 0.48723 0.0
U3486 U 0.44188 0.63041 0.4598 0.0
O3487 O 0.43676 0.63079 0.44667 0.0
O3488 O 0.44166 0.64258 0.45257 0.0
C3489 C 0.43772 0.63914 0.44597 0.0
C3490 C 0.43079 0.62878 0.47243 0.0
C3491 C 0.43043 0.64406 0.44237 0.0
C3492 C 0.41525 0.64572 0.43901 0.0
C3493 C 0.42191 0.64118 0.44301 0.0
C3494 C 0.42547 0.65619 0.43384 0.0
C3495 C 0.41695 0.65326 0.43431 0.0
C3496 C 0.43211 0.65164 0.43781 0.0
C3497 C 0.46536 0.62265 0.45644 0.0
C3498 C 0.4735 0.62096 0.44321 0.0
C3499 C 0.48085 0.62081 0.45686 0.0
C3500 C 0.47303 0.62199 0.46108 0.0
C3501 C 0.48121 0.62023 0.44787 0.0
C3502 C 0.46565 0.62218 0.44745 0.0
C3503 C 0.45721 0.62348 0.46122 0.0
O3504 O 0.43601 0.63536 0.47167 0.0
O3505 O 0.43116 0.62351 0.46587 0.0
O3506 O 0.45052 0.61937 0.45814 0.0
O3507 O 0.45533 0.63116 0.46411 0.0
H3508 H 0.43876 0.6142 0.47851 0.0
H3509 H 0.4371 0.6077 0.49274 0.0
H3510 H 0.4197 0.62802 0.49989 0.0
H3511 H 0.42147 0.6345 0.48574 0.0
H3512 H 0.40876 0.64332 0.43961 0.0
H3513 H 0.42041 0.63537 0.44651 0.0
H3514 H 0.42706 0.66188 0.4302 0.0
H3515 H 0.43862 0.65397 0.43718 0.0
H3516 H 0.47354 0.62065 0.43628 0.0
H3517 H 0.4866 0.62014 0.46069 0.0
H3518 H 0.47295 0.62229 0.46802 0.0
H3519 H 0.45982 0.62268 0.44372 0.0
C3520 C 0.30665 0.16505 0.35787 0.0
C3521 C 0.3014 0.16644 0.35069 0.0
C3522 C 0.29021 0.17255 0.35982 0.0
C3523 C 0.29325 0.17013 0.35166 0.0
C3524 C 0.29557 0.17122 0.36695 0.0
C3525 C 0.30368 0.16751 0.36598 0.0
U3526 U 0.32773 0.15912 0.34608 0.0
O3527 O 0.34082 0.15837 0.35126 0.0
O3528 O 0.33471 0.1468 0.34611 0.0
C3529 C 0.34136 0.15003 0.35014 0.0
C3530 C 0.31511 0.16081 0.35717 0.0
C3531 C 0.34481 0.14495 0.35739 0.0
C3532 C 0.34756 0.14283 0.37263 0.0
C3533 C 0.34368 0.14747 0.36597 0.0
C3534 C 0.35357 0.13297 0.36228 0.0
C3535 C 0.35263 0.13555 0.37088 0.0
C3536 C 0.34973 0.13762 0.35564 0.0
C3537 C 0.33163 0.16775 0.32299 0.0
C3538 C 0.34142 0.16251 0.312 0.0
C3539 C 0.33468 0.17639 0.31034 0.0
C3540 C 0.33046 0.17526 0.31818 0.0
C3541 C 0.34017 0.17001 0.30709 0.0
C3542 C 0.3372 0.1614 0.31988 0.0
C3543 C 0.32666 0.16664 0.331 0.0
O3544 O 0.3157 0.15439 0.35174 0.0
O3545 O 0.32183 0.16589 0.35701 0.0
O3546 O 0.32971 0.17046 0.33786 0.0
O3547 O 0.32363 0.15893 0.33259 0.0
H3548 H 0.30357 0.16462 0.34435 0.0
H3549 H 0.28935 0.17115 0.34601 0.0
H3550 H 0.29343 0.17288 0.37334 0.0
H3551 H 0.30761 0.16647 0.37161 0.0
H3552 H 0.34659 0.14494 0.37917 0.0
H3553 H 0.33989 0.15308 0.36751 0.0
H3554 H 0.3575 0.12749 0.36065 0.0
H3555 H 0.35073 0.13558 0.34908 0.0
H3556 H 0.34568 0.15751 0.30976 0.0
H3557 H 0.33344 0.18218 0.30672 0.0
H3558 H 0.32616 0.18022 0.32043 0.0
H3559 H 0.33823 0.15555 0.32349 0.0
C3560 C 0.8062 0.37485 0.67986 0.0
C3561 C 0.80363 0.36789 0.68497 0.0
C3562 C 0.7898 0.36735 0.6776 0.0
C3563 C 0.7955 0.36418 0.68385 0.0
C3564 C 0.79239 0.37443 0.67262 0.0
C3565 C 0.80049 0.37812 0.67374 0.0
U3566 U 0.82757 0.37967 0.6916 0.0
O3567 O 0.84064 0.38012 0.68631 0.0
O3568 O 0.83496 0.39175 0.69181 0.0
C3569 C 0.84147 0.38841 0.68762 0.0
C3570 C 0.81482 0.37872 0.68058 0.0
C3571 C 0.84506 0.39359 0.6805 0.0
C3572 C 0.84866 0.39568 0.66542 0.0
C3573 C 0.84456 0.39095 0.6719 0.0
C3574 C 0.85364 0.40585 0.676 0.0
C3575 C 0.85337 0.40314 0.6674 0.0
C3576 C 0.84956 0.40113 0.68245 0.0
C3577 C 0.83126 0.37054 0.71453 0.0
C3578 C 0.84114 0.37536 0.72563 0.0
C3579 C 0.83388 0.36172 0.72715 0.0
C3580 C 0.8298 0.36304 0.71927 0.0
C3581 C 0.83952 0.36791 0.73051 0.0
C3582 C 0.83704 0.37667 0.71772 0.0
C3583 C 0.82633 0.37192 0.70655 0.0
O3584 O 0.81565 0.38498 0.68615 0.0
O3585 O 0.82134 0.37338 0.68062 0.0
O3586 O 0.82923 0.36812 0.69962 0.0
O3587 O 0.82353 0.37974 0.70511 0.0
H3588 H 0.80794 0.36527 0.68974 0.0
H3589 H 0.79377 0.3587 0.68776 0.0
H3590 H 0.78814 0.37716 0.66787 0.0
H3591 H 0.80232 0.38351 0.66976 0.0
H3592 H 0.84835 0.39334 0.6589 0.0
H3593 H 0.84113 0.38516 0.6702 0.0
H3594 H 0.85705 0.41164 0.67777 0.0
H3595 H 0.85004 0.40331 0.68903 0.0
H3596 H 0.84539 0.38029 0.72803 0.0
H3597 H 0.83259 0.35584 0.73061 0.0
H3598 H 0.82539 0.35821 0.71692 0.0
H3599 H 0.83827 0.38252 0.71418 0.0
C3600 C 0.41329 0.05668 0.43034 0.0
C3601 C 0.4208 0.05444 0.43478 0.0
C3602 C 0.42061 0.04015 0.42831 0.0
C3603 C 0.42443 0.04627 0.43376 0.0
C3604 C 0.413 0.0424 0.42401 0.0
C3605 C 0.40941 0.05057 0.42501 0.0
U3606 U 0.40857 0.07814 0.44188 0.0
O3607 O 0.40869 0.09128 0.43663 0.0
O3608 O 0.39677 0.08588 0.44178 0.0
C3609 C 0.40043 0.09237 0.43783 0.0
C3610 C 0.40954 0.06538 0.43088 0.0
C3611 C 0.3956 0.09626 0.43065 0.0
C3612 C 0.38693 0.09523 0.41769 0.0
C3613 C 0.39173 0.09129 0.42422 0.0
C3614 C 0.38992 0.10913 0.4239 0.0
C3615 C 0.3859 0.10422 0.41749 0.0
C3616 C 0.3947 0.10519 0.43039 0.0
C3617 C 0.41717 0.08163 0.46499 0.0
C3618 C 0.41266 0.09235 0.4754 0.0
C3619 C 0.42541 0.08392 0.47803 0.0
C3620 C 0.42417 0.07964 0.47025 0.0
C3621 C 0.41965 0.09031 0.48076 0.0
C3622 C 0.41144 0.08807 0.46758 0.0
C3623 C 0.4159 0.07666 0.45702 0.0
O3624 O 0.40313 0.06635 0.43626 0.0
O3625 O 0.41497 0.07182 0.43103 0.0
O3626 O 0.41995 0.07944 0.45017 0.0
O3627 O 0.40804 0.07409 0.45539 0.0
H3628 H 0.42389 0.05903 0.43896 0.0
H3629 H 0.43021 0.04473 0.43726 0.0
H3630 H 0.40993 0.03793 0.41969 0.0
H3631 H 0.40363 0.05216 0.4215 0.0
H3632 H 0.38389 0.09123 0.41291 0.0
H3633 H 0.39235 0.08437 0.42429 0.0
H3634 H 0.38943 0.11606 0.42389 0.0
H3635 H 0.39766 0.10915 0.43526 0.0
H3636 H 0.40815 0.0973 0.47723 0.0
H3637 H 0.43078 0.08206 0.48201 0.0
H3638 H 0.42865 0.07467 0.46839 0.0
H3639 H 0.406 0.08973 0.46361 0.0
C3640 C 0.73111 0.66408 0.18085 0.0
C3641 C 0.73334 0.67172 0.18507 0.0
C3642 C 0.74767 0.6713 0.1787 0.0
C3643 C 0.74153 0.67529 0.184 0.0
C3644 C 0.74542 0.66355 0.17465 0.0
C3645 C 0.73724 0.66001 0.17571 0.0
U3646 U 0.70958 0.65947 0.19238 0.0
O3647 O 0.69647 0.65965 0.18709 0.0
O3648 O 0.70179 0.6477 0.19225 0.0
C3649 C 0.69535 0.65138 0.18825 0.0
C3650 C 0.72238 0.66039 0.18141 0.0
C3651 C 0.69149 0.64659 0.18104 0.0
C3652 C 0.69253 0.63735 0.16848 0.0
C3653 C 0.69648 0.64216 0.17499 0.0
C3654 C 0.6786 0.64146 0.1739 0.0
C3655 C 0.68353 0.63687 0.1679 0.0
C3656 C 0.68254 0.64624 0.18039 0.0
C3657 C 0.70605 0.66805 0.21549 0.0
C3658 C 0.69531 0.66356 0.22591 0.0
C3659 C 0.70377 0.67629 0.22854 0.0
C3660 C 0.70805 0.67505 0.22076 0.0
C3661 C 0.69736 0.67054 0.23127 0.0
C3662 C 0.6996 0.66233 0.21809 0.0
C3663 C 0.71104 0.66676 0.20753 0.0
O3664 O 0.72136 0.65397 0.18678 0.0
O3665 O 0.71598 0.66586 0.18155 0.0
O3666 O 0.7083 0.67084 0.20069 0.0
O3667 O 0.71357 0.65889 0.2059 0.0
H3668 H 0.72872 0.67499 0.18908 0.0
H3669 H 0.74298 0.6813 0.18716 0.0
H3670 H 0.74999 0.66019 0.17066 0.0
H3671 H 0.73568 0.65409 0.17242 0.0
H3672 H 0.69654 0.63387 0.16401 0.0
H3673 H 0.70341 0.64233 0.17537 0.0
H3674 H 0.67167 0.6414 0.17359 0.0
H3675 H 0.67856 0.64963 0.18496 0.0
H3676 H 0.69035 0.65905 0.22774 0.0
H3677 H 0.70563 0.68166 0.23252 0.0
H3678 H 0.71303 0.67952 0.2189 0.0
H3679 H 0.69793 0.65689 0.21411 0.0
C3680 C 0.62428 0.48162 0.42984 0.0
C3681 C 0.61759 0.48432 0.43522 0.0
C3682 C 0.61668 0.49798 0.42751 0.0
C3683 C 0.61383 0.49243 0.43407 0.0
C3684 C 0.62349 0.49524 0.42226 0.0
C3685 C 0.62722 0.48716 0.42341 0.0
U3686 U 0.62971 0.46059 0.44197 0.0
O3687 O 0.6301 0.44737 0.43706 0.0
O3688 O 0.64185 0.45334 0.44193 0.0
C3689 C 0.63844 0.44668 0.43806 0.0
C3690 C 0.62821 0.47302 0.43063 0.0
C3691 C 0.64337 0.44301 0.43081 0.0
C3692 C 0.64516 0.43974 0.41564 0.0
C3693 C 0.64061 0.44378 0.42227 0.0
C3694 C 0.65537 0.43428 0.42595 0.0
C3695 C 0.65257 0.43488 0.41739 0.0
C3696 C 0.65081 0.43829 0.43256 0.0
C3697 C 0.6217 0.45756 0.46538 0.0
C3698 C 0.62124 0.44437 0.47376 0.0
C3699 C 0.61859 0.458 0.48066 0.0
C3700 C 0.61979 0.4622 0.47283 0.0
C3701 C 0.61928 0.44902 0.48126 0.0
C3702 C 0.62246 0.4486 0.4659 0.0
C3703 C 0.62262 0.46225 0.4572 0.0
O3704 O 0.6347 0.47238 0.43595 0.0
O3705 O 0.62291 0.46648 0.43109 0.0
O3706 O 0.61859 0.45906 0.45053 0.0
O3707 O 0.63034 0.46508 0.45535 0.0
H3708 H 0.61522 0.48014 0.44024 0.0
H3709 H 0.60857 0.49428 0.4382 0.0
H3710 H 0.62598 0.49936 0.41726 0.0
H3711 H 0.63241 0.48522 0.41922 0.0
H3712 H 0.64287 0.44044 0.40912 0.0
H3713 H 0.63491 0.44742 0.42073 0.0
H3714 H 0.66097 0.43052 0.42758 0.0
H3715 H 0.65304 0.43756 0.4391 0.0
H3716 H 0.62192 0.43746 0.47399 0.0
H3717 H 0.61696 0.46181 0.48623 0.0
H3718 H 0.61913 0.46912 0.47257 0.0
H3719 H 0.62395 0.44488 0.46023 0.0
C3720 C 0.23091 0.87415 0.85756 0.0
C3721 C 0.23362 0.86733 0.85234 0.0
C3722 C 0.24742 0.86686 0.85978 0.0
C3723 C 0.2418 0.86372 0.85343 0.0
C3724 C 0.24469 0.8738 0.86486 0.0
C3725 C 0.23655 0.87739 0.86376 0.0
U3726 U 0.20963 0.87932 0.84576 0.0
O3727 O 0.19643 0.87903 0.85084 0.0
O3728 O 0.20196 0.89114 0.8463 0.0
C3729 C 0.19542 0.88736 0.85004 0.0
C3730 C 0.2222 0.87784 0.85692 0.0
C3731 C 0.19154 0.89187 0.85743 0.0
C3732 C 0.19255 0.9006 0.87034 0.0
C3733 C 0.19651 0.89605 0.86365 0.0
C3734 C 0.17863 0.89674 0.86472 0.0
C3735 C 0.18354 0.90103 0.87095 0.0
C3736 C 0.18258 0.89223 0.85806 0.0
C3737 C 0.20641 0.87205 0.82214 0.0
C3738 C 0.19354 0.86837 0.81405 0.0
C3739 C 0.20654 0.87224 0.80652 0.0
C3740 C 0.21073 0.87341 0.81436 0.0
C3741 C 0.1979 0.86965 0.80624 0.0
C3742 C 0.19774 0.86958 0.82192 0.0
C3743 C 0.21126 0.87282 0.83027 0.0
O3744 O 0.22132 0.88448 0.85182 0.0
O3745 O 0.21583 0.87236 0.85635 0.0
O3746 O 0.20842 0.86842 0.83688 0.0
O3747 O 0.21392 0.88055 0.83233 0.0
H3748 H 0.22938 0.86473 0.8475 0.0
H3749 H 0.24363 0.85835 0.84945 0.0
H3750 H 0.24887 0.87651 0.86969 0.0
H3751 H 0.2346 0.88267 0.86783 0.0
H3752 H 0.19655 0.90373 0.87507 0.0
H3753 H 0.20344 0.89585 0.86332 0.0
H3754 H 0.1717 0.89702 0.86487 0.0
H3755 H 0.17862 0.88909 0.8533 0.0
H3756 H 0.18687 0.86648 0.81409 0.0
H3757 H 0.21014 0.87317 0.80066 0.0
H3758 H 0.21742 0.87525 0.81435 0.0
H3759 H 0.19424 0.8685 0.82781 0.0
C3760 C 0.41359 0.98128 0.10698 0.0
C3761 C 0.42124 0.98336 0.1027 0.0
C3762 C 0.4211 0.99773 0.109 0.0
C3763 C 0.42497 0.99149 0.10372 0.0
C3764 C 0.41338 0.99562 0.11316 0.0
C3765 C 0.40968 0.9875 0.11216 0.0
U3766 U 0.40799 0.96003 0.09534 0.0
O3767 O 0.40758 0.94689 0.10049 0.0
O3768 O 0.39582 0.95282 0.09558 0.0
C3769 C 0.39924 0.9462 0.09952 0.0
C3770 C 0.40965 0.97266 0.1064 0.0
C3771 C 0.39432 0.94261 0.10682 0.0
C3772 C 0.39255 0.93943 0.12203 0.0
C3773 C 0.39709 0.94342 0.11535 0.0
C3774 C 0.3823 0.93393 0.11178 0.0
C3775 C 0.38512 0.93457 0.12033 0.0
C3776 C 0.38685 0.93789 0.10513 0.0
C3777 C 0.41564 0.95657 0.07185 0.0
C3778 C 0.41764 0.94334 0.06378 0.0
C3779 C 0.4169 0.95691 0.05629 0.0
C3780 C 0.41581 0.96116 0.06412 0.0
C3781 C 0.41786 0.94794 0.056 0.0
C3782 C 0.41652 0.94761 0.07162 0.0
C3783 C 0.41488 0.9614 0.07999 0.0
O3784 O 0.40308 0.97192 0.1012 0.0
O3785 O 0.41492 0.96608 0.10603 0.0
O3786 O 0.419 0.95832 0.08667 0.0
O3787 O 0.40723 0.96434 0.08189 0.0
H3788 H 0.42436 0.97869 0.09863 0.0
H3789 H 0.43086 0.99291 0.10033 0.0
H3790 H 0.41027 1.00018 0.11736 0.0
H3791 H 0.4038 0.98603 0.11555 0.0
H3792 H 0.39486 0.94016 0.12853 0.0
H3793 H 0.40281 0.94705 0.11685 0.0
H3794 H 0.37669 0.93017 0.11018 0.0
H3795 H 0.38461 0.93713 0.0986 0.0
H3796 H 0.41826 0.93642 0.0638 0.0
H3797 H 0.41716 0.9607 0.05048 0.0
H3798 H 0.4152 0.96808 0.06413 0.0
H3799 H 0.41639 0.94391 0.0775 0.0
C3800 C 0.12261 0.05743 0.60758 0.0
C3801 C 0.12157 0.05205 0.60044 0.0
C3802 C 0.11531 0.04087 0.60951 0.0
C3803 C 0.11798 0.04385 0.6014 0.0
C3804 C 0.1163 0.04635 0.61661 0.0
C3805 C 0.11991 0.05452 0.61564 0.0
U3806 U 0.12873 0.07828 0.5955 0.0
O3807 O 0.1289 0.09159 0.6003 0.0
O3808 O 0.14082 0.08555 0.59593 0.0
C3809 C 0.13725 0.09231 0.5995 0.0
C3810 C 0.12669 0.06598 0.60689 0.0
C3811 C 0.14188 0.09622 0.60679 0.0
C3812 C 0.15049 0.09523 0.61979 0.0
C3813 C 0.14577 0.09126 0.61323 0.0
C3814 C 0.14737 0.10913 0.61363 0.0
C3815 C 0.15143 0.10422 0.62003 0.0
C3816 C 0.14268 0.10517 0.6071 0.0
C3817 C 0.12156 0.08124 0.57182 0.0
C3818 C 0.1198 0.09439 0.56352 0.0
C3819 C 0.12027 0.08068 0.55627 0.0
C3820 C 0.1213 0.07654 0.56417 0.0
C3821 C 0.11946 0.08966 0.55583 0.0
C3822 C 0.12086 0.09022 0.57144 0.0
C3823 C 0.12219 0.07655 0.58004 0.0
O3824 O 0.1334 0.06656 0.60183 0.0
O3825 O 0.12147 0.07256 0.60621 0.0
O3826 O 0.11791 0.07972 0.58658 0.0
O3827 O 0.12983 0.0737 0.58217 0.0
H3828 H 0.12357 0.05417 0.59413 0.0
H3829 H 0.11723 0.03986 0.59577 0.0
H3830 H 0.11445 0.04427 0.62296 0.0
H3831 H 0.12068 0.05855 0.62125 0.0
H3832 H 0.15356 0.09123 0.62457 0.0
H3833 H 0.14525 0.08434 0.61312 0.0
H3834 H 0.1478 0.11606 0.61367 0.0
H3835 H 0.13971 0.10912 0.60222 0.0
H3836 H 0.11931 0.10131 0.56342 0.0
H3837 H 0.11992 0.07681 0.55053 0.0
H3838 H 0.12177 0.06961 0.5643 0.0
H3839 H 0.12107 0.09401 0.57725 0.0
H3840 H 0.19028 0.25988 0.36175 0.0
H3841 H 0.16297 0.25652 0.3647 0.0
H3842 H 0.18783 0.27382 0.35502 0.0
H3843 H 0.16054 0.27054 0.3583 0.0
H3844 H 0.1587 0.29165 0.33806 0.0
H3845 H 0.16133 0.27777 0.34471 0.0
H3846 H 0.18308 0.28833 0.35817 0.0
H3847 H 0.18062 0.30217 0.35127 0.0
C3848 C 0.18375 0.26209 0.36096 0.0
C3849 C 0.17683 0.25704 0.3638 0.0
C3850 C 0.18235 0.27015 0.35719 0.0
C3851 C 0.17398 0.27335 0.35611 0.0
C3852 C 0.16707 0.26827 0.35893 0.0
C3853 C 0.16847 0.26025 0.36271 0.0
C3854 C 0.16409 0.29102 0.34239 0.0
C3855 C 0.16946 0.29807 0.34409 0.0
C3856 C 0.16554 0.28305 0.34629 0.0
C3857 C 0.17242 0.28189 0.352 0.0
C3858 C 0.17777 0.28895 0.35374 0.0
C3859 C 0.1763 0.29693 0.34986 0.0
H3860 H 0.03151 0.93874 0.60459 0.0
H3861 H 0.02793 0.91624 0.62035 0.0
H3862 H 1.01724 0.93674 0.59854 0.0
H3863 H 1.01369 0.91423 0.61428 0.0
H3864 H 0.99256 0.90805 0.59467 0.0
H3865 H 1.00662 0.91016 0.60114 0.0
H3866 H 1.00214 0.93747 0.60201 0.0
H3867 H 0.98808 0.93536 0.59555 0.0
C3868 C 0.02766 0.93341 0.60683 0.0
C3869 C 0.03094 0.92764 0.61295 0.0
C3870 C 0.01946 0.93226 0.60336 0.0
C3871 C 1.01428 0.92531 0.60589 0.0
C3872 C 1.01753 0.91958 0.61205 0.0
C3873 C 0.02572 0.92073 0.61553 0.0
C3874 C 0.99451 0.9145 0.59634 0.0
C3875 C 0.98915 0.92152 0.59455 0.0
C3876 C 1.0026 0.91571 0.60005 0.0
C3877 C 1.00557 0.92399 0.60208 0.0
C3878 C 1.00016 0.93101 0.60039 0.0
C3879 C 0.99207 0.92979 0.59669 0.0
H3880 H 0.35264 0.73857 0.84602 0.0
H3881 H 0.37986 0.74332 0.84432 0.0
H3882 H 0.35055 0.75276 0.85219 0.0
H3883 H 0.3778 0.75738 0.85083 0.0
H3884 H 0.37 0.78556 0.85338 0.0
H3885 H 0.37205 0.77127 0.84745 0.0
H3886 H 0.35291 0.76129 0.8648 0.0
H3887 H 0.35084 0.77562 0.87072 0.0
C3888 C 0.35819 0.74263 0.84698 0.0
C3889 C 0.36642 0.73977 0.8446 0.0
C3890 C 0.357 0.75075 0.85062 0.0
C3891 C 0.36399 0.75628 0.85201 0.0
C3892 C 0.37224 0.75337 0.84976 0.0
C3893 C 0.37344 0.74524 0.84612 0.0
C3894 C 0.36626 0.78031 0.85598 0.0
C3895 C 0.36026 0.78178 0.86256 0.0
C3896 C 0.36746 0.77209 0.85258 0.0
C3897 C 0.36268 0.76506 0.85565 0.0
C3898 C 0.35663 0.76654 0.86218 0.0
C3899 C 0.35543 0.77478 0.86558 0.0
H3900 H 0.55037 0.10339 0.09745 0.0
H3901 H 0.54453 0.13019 0.09367 0.0
H3902 H 0.53629 0.1012 0.10384 0.0
H3903 H 0.53044 0.128 0.10008 0.0
H3904 H 0.50902 0.12275 0.11944 0.0
H3905 H 0.52328 0.12489 0.11346 0.0
H3906 H 0.52125 0.10077 0.10003 0.0
H3907 H 0.50696 0.09864 0.106 0.0
C3908 C 0.54608 0.10882 0.09793 0.0
C3909 C 0.54863 0.11697 0.095 0.0
C3910 C 0.53797 0.10755 0.1016 0.0
C3911 C 0.53217 0.11441 0.10247 0.0
C3912 C 0.53476 0.12259 0.09964 0.0
C3913 C 0.54287 0.12385 0.09596 0.0
C3914 C 0.51156 0.11793 0.11515 0.0
C3915 C 0.50677 0.11053 0.11319 0.0
C3916 C 0.51977 0.11916 0.11171 0.0
C3917 C 0.52345 0.11303 0.10623 0.0
C3918 C 0.51869 0.10559 0.10432 0.0
C3919 C 0.51047 0.10436 0.10776 0.0
H3920 H 0.18912 0.78174 0.1825 0.0
H3921 H 0.16559 0.77849 0.16831 0.0
H3922 H 0.18732 0.76749 0.1887 0.0
H3923 H 0.1636 0.76442 0.17479 0.0
H3924 H 0.1669 0.73599 0.18159 0.0
H3925 H 0.16902 0.75 0.17492 0.0
H3926 H 0.17859 0.75996 0.1989 0.0
H3927 H 0.17649 0.74599 0.20554 0.0
C3928 C 0.18357 0.77799 0.18068 0.0
C3929 C 0.1775 0.78133 0.1749 0.0
C3930 C 0.18248 0.76984 0.18432 0.0
C3931 C 0.17529 0.76477 0.1823 0.0
C3932 C 0.16926 0.76808 0.17646 0.0
C3933 C 0.17035 0.77622 0.17281 0.0
C3934 C 0.1694 0.74118 0.18546 0.0
C3935 C 0.17155 0.73981 0.19411 0.0
C3936 C 0.17062 0.74924 0.18163 0.0
C3937 C 0.17401 0.75615 0.18634 0.0
C3938 C 0.17612 0.75477 0.195 0.0
C3939 C 0.17491 0.74673 0.19882 0.0
H3940 H 0.51354 0.93298 0.41488 0.0
H3941 H 0.50192 0.92303 0.43795 0.0
H3942 H 0.52773 0.93102 0.42119 0.0
H3943 H 0.51608 0.92082 0.44414 0.0
H3944 H 0.54208 0.9266 0.4562 0.0
H3945 H 0.52807 0.92884 0.44974 0.0
H3946 H 0.5378 0.91979 0.42547 0.0
H3947 H 0.55195 0.91782 0.43189 0.0
C3948 C 0.514 0.93041 0.42131 0.0
C3949 C 0.50655 0.92818 0.42589 0.0
C3950 C 0.52215 0.92918 0.42489 0.0
C3951 C 0.52308 0.92575 0.43318 0.0
C3952 C 0.51563 0.92356 0.43778 0.0
C3953 C 0.50749 0.92475 0.43419 0.0
C3954 C 0.54128 0.92517 0.44946 0.0
C3955 C 0.5482 0.92206 0.44457 0.0
C3956 C 0.53319 0.92636 0.44577 0.0
C3957 C 0.53176 0.92449 0.43707 0.0
C3958 C 0.53867 0.92138 0.43216 0.0
C3959 C 0.54677 0.92016 0.43587 0.0
H3960 H 0.3789 0.29179 0.69998 0.0
H3961 H 0.35727 0.30241 0.68637 0.0
H3962 H 0.37627 0.2779 0.69337 0.0
H3963 H 0.35482 0.28855 0.6795 0.0
H3964 H 0.34745 0.26017 0.67593 0.0
H3965 H 0.34991 0.2741 0.68263 0.0
H3966 H 0.37722 0.27058 0.67987 0.0
H3967 H 0.37478 0.25656 0.67349 0.0
C3968 C 0.37358 0.29117 0.69557 0.0
C3969 C 0.36829 0.29825 0.69374 0.0
C3970 C 0.37212 0.2832 0.6917 0.0
C3971 C 0.36533 0.28206 0.68588 0.0
C3972 C 0.36006 0.28915 0.68401 0.0
C3973 C 0.36153 0.29714 0.68787 0.0
C3974 C 0.35398 0.26232 0.67682 0.0
C3975 C 0.36091 0.2572 0.67414 0.0
C3976 C 0.3554 0.27038 0.68058 0.0
C3977 C 0.36377 0.27351 0.6818 0.0
C3978 C 0.37069 0.26837 0.67913 0.0
C3979 C 0.36928 0.26035 0.67537 0.0
H3980 H 0.98866 0.10286 0.94304 0.0
H3981 H 0.99262 0.13027 0.94288 0.0
H3982 H 1.00282 0.10078 0.93678 0.0
H3983 H 1.00664 0.12821 0.9363 0.0
H3984 H 0.03497 0.12106 0.93383 0.0
H3985 H 0.02072 0.12304 0.93987 0.0
H3986 H 1.01109 0.10262 0.92387 0.0
H3987 H 0.02538 0.10063 0.91783 0.0
C3988 C 0.99253 0.10845 0.94166 0.0
C3989 C 0.98947 0.11674 0.94353 0.0
C3990 C 1.00064 0.10726 0.93796 0.0
C3991 C 1.00593 0.11431 0.93604 0.0
C3992 C 1.00281 0.1226 0.93779 0.0
C3993 C 0.9947 0.1238 0.94147 0.0
C3994 C 0.02981 0.11703 0.93154 0.0
C3995 C 0.03136 0.1107 0.9253 0.0
C3996 C 0.02161 0.11818 0.93501 0.0
C3997 C 1.01469 0.11303 0.93234 0.0
C3998 C 1.01626 0.10664 0.92616 0.0
C3999 C 0.02447 0.10549 0.9227 0.0
H4000 H 0.37115 0.18559 0.26268 0.0
H4001 H 0.35181 0.16864 0.25246 0.0
H4002 H 0.36535 0.18351 0.27705 0.0
H4003 H 0.34599 0.16659 0.26681 0.0
H4004 H 0.34271 0.15795 0.2945 0.0
H4005 H 0.34909 0.15995 0.28037 0.0
H4006 H 0.35321 0.18675 0.28598 0.0
H4007 H 0.34716 0.18467 0.30023 0.0
C4008 C 0.3656 0.18149 0.26347 0.0
C4009 C 0.36198 0.17727 0.25637 0.0
C4010 C 0.36227 0.18029 0.27174 0.0
C4011 C 0.35521 0.17484 0.27314 0.0
C4012 C 0.35154 0.17069 0.26603 0.0
C4013 C 0.35488 0.17188 0.25777 0.0
C4014 C 0.34509 0.16425 0.29278 0.0
C4015 C 0.34439 0.17115 0.29854 0.0
C4016 C 0.34865 0.16542 0.28461 0.0
C4017 C 0.35163 0.17353 0.28196 0.0
C4018 C 0.35106 0.1804 0.28778 0.0
C4019 C 0.34749 0.17922 0.29594 0.0
H4020 H 0.12484 0.11195 0.50465 0.0
H4021 H 0.09779 0.11403 0.51013 0.0
H4022 H 0.12721 0.1056 0.51869 0.0
H4023 H 0.10013 0.10735 0.5241 0.0
H4024 H 0.10879 0.10317 0.55197 0.0
H4025 H 0.10649 0.11 0.53807 0.0
H4026 H 0.12464 0.09259 0.52653 0.0
H4027 H 0.12716 0.08598 0.54045 0.0
C4028 C 0.11939 0.11107 0.50885 0.0
C4029 C 0.11112 0.11355 0.50622 0.0
C4030 C 0.12074 0.10732 0.51689 0.0
C4031 C 0.11387 0.10593 0.52257 0.0
C4032 C 0.10559 0.1084 0.51995 0.0
C4033 C 0.10424 0.11214 0.51188 0.0
C4034 C 0.11237 0.10087 0.54649 0.0
C4035 C 0.11817 0.09401 0.54736 0.0
C4036 C 0.11097 0.10472 0.53848 0.0
C4037 C 0.11535 0.10185 0.53114 0.0
C4038 C 0.1212 0.09504 0.53204 0.0
C4039 C 0.12258 0.09118 0.54002 0.0
H4040 H 0.17263 0.87454 0.75647 0.0
H4041 H 0.17648 0.84727 0.75945 0.0
H4042 H 0.17899 0.87699 0.77049 0.0
H4043 H 0.18315 0.84977 0.77339 0.0
H4044 H 0.18673 0.85674 0.80182 0.0
H4045 H 0.17989 0.85423 0.78797 0.0
H4046 H 0.19263 0.87654 0.77764 0.0
H4047 H 0.19922 0.87921 0.79152 0.0
C4048 C 0.17481 0.86905 0.76012 0.0
C4049 C 0.17399 0.86069 0.7568 0.0
C4050 C 0.17856 0.87047 0.76814 0.0
C4051 C 0.18162 0.86359 0.77311 0.0
C4052 C 0.1808 0.85522 0.7698 0.0
C4053 C 0.17706 0.8538 0.76175 0.0
C4054 C 0.188 0.86117 0.79662 0.0
C4055 C 0.19355 0.86819 0.79782 0.0
C4056 C 0.18415 0.85966 0.78864 0.0
C4057 C 0.1857 0.86516 0.78164 0.0
C4058 C 0.1912 0.87221 0.78287 0.0
C4059 C 0.19506 0.8737 0.79083 0.0
H4060 H 0.43974 0.9234 1.01053 0.0
H4061 H 0.41263 0.92488 1.0052 0.0
H4062 H 0.43735 0.93019 0.02443 0.0
H4063 H 0.4102 0.93134 0.01918 0.0
H4064 H 0.41 0.95125 0.04062 0.0
H4065 H 0.41257 0.9445 0.0268 0.0
H4066 H 0.43111 0.92759 0.03848 0.0
H4067 H 0.42876 0.93457 0.05229 0.0
C4068 C 0.43327 0.92518 1.0123 0.0
C4069 C 0.42639 0.92357 1.0067 0.0
C4070 C 0.43188 0.92898 0.02033 0.0
C4071 C 0.42357 0.93132 0.02297 0.0
C4072 C 0.4167 0.92972 1.01736 0.0
C4073 C 0.41809 0.92591 1.00935 0.0
C4074 C 0.41467 0.94613 0.04025 0.0
C4075 C 0.41918 0.94349 0.04761 0.0
C4076 C 0.41609 0.94219 0.03232 0.0
C4077 C 0.42206 0.93548 0.03148 0.0
C4078 C 0.42654 0.93279 0.03884 0.0
C4079 C 0.4251 0.93673 0.0468 0.0
H4080 H 0.35524 0.86234 0.23385 0.0
H4081 H 0.33305 0.87237 0.24701 0.0
H4082 H 0.36223 0.85981 0.24762 0.0
H4083 H 0.34001 0.86984 0.26073 0.0
H4084 H 0.35112 0.85626 0.28408 0.0
H4085 H 0.34439 0.85837 0.27014 0.0
H4086 H 0.36854 0.86706 0.25977 0.0
H4087 H 0.37534 0.86463 0.27362 0.0
C4088 C 0.35187 0.86409 0.23967 0.0
C4089 C 0.34354 0.86753 0.23928 0.0
C4090 C 0.35588 0.86263 0.24758 0.0
C4091 C 0.35168 0.86456 0.25533 0.0
C4092 C 0.34339 0.8681 0.25493 0.0
C4093 C 0.33939 0.86956 0.24703 0.0
C4094 C 0.35503 0.85851 0.27881 0.0
C4095 C 0.36379 0.86029 0.28002 0.0
C4096 C 0.35114 0.85983 0.27082 0.0
C4097 C 0.35589 0.86294 0.2638 0.0
C4098 C 0.36468 0.86459 0.26498 0.0
C4099 C 0.36856 0.86329 0.27297 0.0
H4100 H 0.43787 0.10479 0.53164 0.0
H4101 H 0.41546 0.1206 0.5279 0.0
H4102 H 0.43595 0.09872 0.51736 0.0
H4103 H 0.41354 0.11452 0.51366 0.0
H4104 H 0.40738 0.09482 0.49258 0.0
H4105 H 0.40945 0.10135 0.50662 0.0
H4106 H 0.43676 0.10212 0.50225 0.0
H4107 H 0.4347 0.09561 0.48821 0.0
C4108 C 0.43259 0.10704 0.52775 0.0
C4109 C 0.42681 0.11317 0.53098 0.0
C4110 C 0.43148 0.10355 0.51954 0.0
C4111 C 0.42457 0.10609 0.51433 0.0
C4112 C 0.41884 0.11228 0.51753 0.0
C4113 C 0.41995 0.11577 0.52572 0.0
C4114 C 0.41383 0.09648 0.49456 0.0
C4115 C 0.42087 0.09465 0.48923 0.0
C4116 C 0.41502 0.10023 0.50264 0.0
C4117 C 0.42328 0.10225 0.50563 0.0
C4118 C 0.43032 0.10052 0.50025 0.0
C4119 C 0.42913 0.09678 0.49218 0.0
H4120 H 0.1845 0.17805 0.73417 0.0
H4121 H 0.20271 0.1614 0.74673 0.0
H4122 H 0.17765 0.18091 0.74794 0.0
H4123 H 0.19588 0.16426 0.76047 0.0
H4124 H 0.1874 0.17806 0.7848 0.0
H4125 H 0.19407 0.17556 0.7709 0.0
H4126 H 0.16907 0.17437 0.7591 0.0
H4127 H 0.16241 0.17718 0.77296 0.0
C4128 C 0.18699 0.17491 0.73984 0.0
C4129 C 0.1942 0.16951 0.7393 0.0
C4130 C 0.18306 0.17657 0.74776 0.0
C4131 C 0.18623 0.17287 0.75536 0.0
C4132 C 0.19336 0.16738 0.7548 0.0
C4133 C 0.19728 0.16572 0.74689 0.0
C4134 C 0.18332 0.17738 0.77923 0.0
C4135 C 0.17435 0.17782 0.78004 0.0
C4136 C 0.18715 0.17583 0.77125 0.0
C4137 C 0.18213 0.1747 0.76384 0.0
C4138 C 0.17316 0.17527 0.76463 0.0
C4139 C 0.16933 0.17679 0.77262 0.0
H4140 H 0.10308 0.94124 0.98778 0.0
H4141 H 0.13001 0.94454 0.99321 0.0
H4142 H 0.10094 0.93515 1.00201 0.0
H4143 H 0.12794 0.93812 1.00731 0.0
H4144 H 0.11953 0.93551 0.0353 0.0
H4145 H 0.12162 0.94137 0.02097 0.0
H4146 H 0.10378 0.92281 1.0108 0.0
H4147 H 0.10166 0.91697 0.02516 0.0
C4148 C 0.10856 0.94065 0.99199 0.0
C4149 C 0.11672 0.94344 0.98932 0.0
C4150 C 0.10735 0.93706 1.00014 0.0
C4151 C 0.11425 0.93615 1.00587 0.0
C4152 C 0.12244 0.93882 1.00314 0.0
C4153 C 0.12366 0.9424 0.99499 0.0
C4154 C 0.11609 0.93263 0.03 0.0
C4155 C 0.11043 0.92574 0.03142 0.0
C4156 C 0.11731 0.93599 0.02176 0.0
C4157 C 0.11291 0.93256 1.01467 0.0
C4158 C 0.1072 0.92571 1.0161 0.0
C4159 C 0.10597 0.92235 0.02435 0.0
H4160 H 0.30014 0.34671 0.18453 0.0
H4161 H 0.29487 0.34399 0.15751 0.0
H4162 H 0.28596 0.35288 0.18669 0.0
H4163 H 0.28082 0.35049 0.15961 0.0
H4164 H 0.2528 0.35323 0.16789 0.0
H4165 H 0.26707 0.34726 0.16578 0.0
H4166 H 0.27734 0.36537 0.18401 0.0
H4167 H 0.26304 0.37133 0.18615 0.0
C4168 C 0.29597 0.34744 0.17904 0.0
C4169 C 0.29868 0.34479 0.17084 0.0
C4170 C 0.28785 0.35108 0.18026 0.0
C4171 C 0.28218 0.35218 0.17334 0.0
C4172 C 0.28494 0.34965 0.16512 0.0
C4173 C 0.29306 0.34601 0.16389 0.0
C4174 C 0.2581 0.35599 0.17141 0.0
C4175 C 0.25673 0.36279 0.17718 0.0
C4176 C 0.26631 0.35257 0.17019 0.0
C4177 C 0.27341 0.35584 0.17469 0.0
C4178 C 0.27203 0.3626 0.18051 0.0
C4179 C 0.26381 0.36602 0.18175 0.0
H4180 H 0.79518 0.194 0.88023 0.0
H4181 H 0.80062 0.1913 0.85323 0.0
H4182 H 0.78112 0.18754 0.87805 0.0
H4183 H 0.78655 0.18485 0.85105 0.0
H4184 H 0.75718 0.18252 0.84895 0.0
H4185 H 0.77148 0.18851 0.85101 0.0
H4186 H 0.77403 0.17422 0.87459 0.0
H4187 H 0.75978 0.16823 0.87252 0.0
C4188 C 0.79344 0.19193 0.87384 0.0
C4189 C 0.79907 0.19321 0.86691 0.0
C4190 C 0.78535 0.18823 0.87259 0.0
C4191 C 0.78265 0.18569 0.86436 0.0
C4192 C 0.78832 0.18687 0.85745 0.0
C4193 C 0.79641 0.19057 0.85871 0.0
C4194 C 0.76082 0.18058 0.85453 0.0
C4195 C 0.75726 0.17491 0.86058 0.0
C4196 C 0.76904 0.18402 0.85572 0.0
C4197 C 0.77394 0.18189 0.86299 0.0
C4198 C 0.77041 0.17615 0.869 0.0
C4199 C 0.76221 0.17271 0.8678 0.0
H4200 H 0.09327 0.54484 0.12977 0.0
H4201 H 0.09772 0.55069 0.10308 0.0
H4202 H 0.09965 0.53071 0.12774 0.0
H4203 H 0.10377 0.53644 0.10096 0.0
H4204 H 0.12168 0.51312 0.10202 0.0
H4205 H 0.11589 0.5275 0.10415 0.0
H4206 H 0.09656 0.51717 0.12108 0.0
H4207 H 0.10237 0.50283 0.11898 0.0
C4208 C 0.09565 0.54315 0.12347 0.0
C4209 C 0.09495 0.54894 0.11659 0.0
C4210 C 0.09922 0.53498 0.12227 0.0
C4211 C 0.10219 0.53237 0.11416 0.0
C4212 C 0.10162 0.53822 0.10732 0.0
C4213 C 0.09805 0.54638 0.10851 0.0
C4214 C 0.11614 0.5139 0.10613 0.0
C4215 C 0.11252 0.50678 0.11034 0.0
C4216 C 0.11282 0.52217 0.10737 0.0
C4217 C 0.10576 0.52355 0.11283 0.0
C4218 C 0.1021 0.51641 0.11697 0.0
C4219 C 0.10543 0.50816 0.11575 0.0
H4220 H 0.77481 0.8722 0.35224 0.0
H4221 H 0.7851 0.85307 0.3694 0.0
H4222 H 0.76046 0.86636 0.35437 0.0
H4223 H 0.77078 0.84721 0.37151 0.0
H4224 H 0.74309 0.84385 0.3801 0.0
H4225 H 0.75719 0.85028 0.37808 0.0
H4226 H 0.7516 0.85415 0.35125 0.0
H4227 H 0.73738 0.84805 0.35335 0.0
C4228 C 0.77404 0.86669 0.3564 0.0
C4229 C 0.78115 0.86313 0.36066 0.0
C4230 C 0.76579 0.86333 0.35763 0.0
C4231 C 0.76441 0.85631 0.36315 0.0
C4232 C 0.77154 0.85272 0.36735 0.0
C4233 C 0.77977 0.85608 0.36613 0.0
C4234 C 0.74481 0.84619 0.3738 0.0
C4235 C 0.73906 0.8454 0.3669 0.0
C4236 C 0.75296 0.84978 0.3726 0.0
C4237 C 0.75561 0.8527 0.36448 0.0
C4238 C 0.7498 0.85204 0.35761 0.0
C4239 C 0.74165 0.84845 0.3588 0.0
H4240 H 0.93772 0.98695 0.10637 0.0
H4241 H 0.94791 0.99639 0.13029 0.0
H4242 H 0.93093 1.00082 0.1038 0.0
H4243 H 0.9414 1.01032 0.12758 0.0
H4244 H 0.9214 0.03139 0.12457 0.0
H4245 H 0.92771 1.01734 0.12705 0.0
H4246 H 0.93436 1.01559 0.10024 0.0
H4247 H 0.92773 0.02955 0.09769 0.0
C4248 C 0.93849 0.99196 0.1111 0.0
C4249 C 0.94338 0.99051 0.11854 0.0
C4250 C 0.93468 0.99997 0.10958 0.0
C4251 C 0.93562 1.00674 0.11546 0.0
C4252 C 0.94045 1.00526 0.12293 0.0
C4253 C 0.94428 0.99727 0.12445 0.0
C4254 C 0.92412 0.02799 0.11917 0.0
C4255 C 0.924 0.03164 0.11091 0.0
C4256 C 0.92784 0.01995 0.12062 0.0
C4257 C 0.93158 1.0153 0.11386 0.0
C4258 C 0.93147 1.01893 0.10559 0.0
C4259 C 0.92775 0.027 0.10414 0.0
H4260 H 0.27538 0.66677 0.68659 0.0
H4261 H 0.28524 0.68417 0.66744 0.0
H4262 H 0.26104 0.67266 0.68454 0.0
H4263 H 0.27094 0.69008 0.66542 0.0
H4264 H 0.24299 0.6932 0.65769 0.0
H4265 H 0.25705 0.68669 0.65969 0.0
H4266 H 0.25251 0.68527 0.68696 0.0
H4267 H 0.23832 0.69144 0.68492 0.0
C4268 C 0.27452 0.67191 0.682 0.0
C4269 C 0.2815 0.67496 0.67717 0.0
C4270 C 0.26628 0.6753 0.68082 0.0
C4271 C 0.26478 0.68185 0.67478 0.0
C4272 C 0.27178 0.68494 0.67 0.0
C4273 C 0.28001 0.68155 0.67117 0.0
C4274 C 0.24493 0.69139 0.6641 0.0
C4275 C 0.23948 0.69288 0.67114 0.0
C4276 C 0.25306 0.68775 0.66527 0.0
C4277 C 0.25599 0.68549 0.67351 0.0
C4278 C 0.25048 0.68685 0.68052 0.0
C4279 C 0.24236 0.6905 0.67935 0.0
H4280 H 0.10292 0.48511 0.42888 0.0
H4281 H 0.08574 0.49743 0.41102 0.0
H4282 H 0.10975 0.49889 0.43176 0.0
H4283 H 0.09255 0.51118 0.4139 0.0
H4284 H 0.10055 0.53578 0.42752 0.0
H4285 H 0.09387 0.52187 0.42503 0.0
H4286 H 0.11877 0.50981 0.42542 0.0
H4287 H 0.12543 0.52369 0.42821 0.0
C4288 C 0.10065 0.49073 0.42549 0.0
C4289 C 0.09374 0.49012 0.41973 0.0
C4290 C 0.10457 0.49865 0.42716 0.0
C4291 C 0.10169 0.50619 0.42311 0.0
C4292 C 0.09484 0.50556 0.41728 0.0
C4293 C 0.09093 0.49765 0.41561 0.0
C4294 C 0.1046 0.53016 0.42719 0.0
C4295 C 0.11354 0.5309 0.42806 0.0
C4296 C 0.10077 0.52217 0.42565 0.0
C4297 C 0.10577 0.51469 0.42496 0.0
C4298 C 0.1147 0.51541 0.42596 0.0
C4299 C 0.11853 0.5234 0.42748 0.0
H4300 H 0.41764 0.50968 0.91524 0.0
H4301 H 0.4327 0.50656 0.93825 0.0
H4302 H 0.42362 0.52397 0.91323 0.0
H4303 H 0.43867 0.52089 0.93625 0.0
H4304 H 0.44145 0.55006 0.93454 0.0
H4305 H 0.43502 0.53597 0.93664 0.0
H4306 H 0.43686 0.53111 0.90947 0.0
H4307 H 0.44332 0.5452 0.90737 0.0
C4308 C 0.42228 0.512 0.91985 0.0
C4309 C 0.4247 0.5069 0.9269 0.0
C4310 C 0.42572 0.52022 0.91869 0.0
C4311 C 0.43166 0.52361 0.92456 0.0
C4312 C 0.43402 0.51855 0.93165 0.0
C4313 C 0.43059 0.51032 0.93281 0.0
C4314 C 0.44054 0.54598 0.92901 0.0
C4315 C 0.44295 0.5488 0.92078 0.0
C4316 C 0.43684 0.53787 0.93022 0.0
C4317 C 0.43543 0.53235 0.92324 0.0
C4318 C 0.43773 0.53522 0.91499 0.0
C4319 C 0.44143 0.54332 0.91378 0.0
H4320 H 0.87732 0.74727 0.70235 0.0
H4321 H 0.85992 0.73506 0.68463 0.0
H4322 H 0.87443 0.7611 0.69568 0.0
H4323 H 0.85704 0.74891 0.67795 0.0
H4324 H 0.86059 0.77396 0.66271 0.0
H4325 H 0.86344 0.76003 0.66921 0.0
H4326 H 0.86324 0.77171 0.69429 0.0
H4327 H 0.86069 0.7857 0.68776 0.0
C4328 C 0.87283 0.74753 0.69706 0.0
C4329 C 0.86884 0.74001 0.69407 0.0
C4330 C 0.87116 0.75549 0.69324 0.0
C4331 C 0.86545 0.75617 0.68629 0.0
C4332 C 0.86155 0.74864 0.68321 0.0
C4333 C 0.86322 0.74067 0.68705 0.0
C4334 C 0.8612 0.77358 0.66961 0.0
C4335 C 0.86043 0.781 0.67469 0.0
C4336 C 0.86275 0.76555 0.67335 0.0
C4337 C 0.8636 0.76471 0.68229 0.0
C4338 C 0.86274 0.77211 0.68738 0.0
C4339 C 0.86116 0.78013 0.68364 0.0
H4340 H 0.04007 0.12654 0.45362 0.0
H4341 H 0.05263 0.11083 0.43461 0.0
H4342 H 0.02629 0.12375 0.44685 0.0
H4343 H 0.03882 0.10803 0.42783 0.0
H4344 H 1.01364 0.11205 0.413 0.0
H4345 H 0.02752 0.11474 0.41964 0.0
H4346 H 1.01596 0.11244 0.44469 0.0
H4347 H 1.00202 0.11006 0.43804 0.0
C4348 C 0.0399 0.12244 0.44803 0.0
C4349 C 0.0475 0.11889 0.4447 0.0
C4350 C 0.03197 0.12082 0.44414 0.0
C4351 C 0.0314 0.11562 0.4368 0.0
C4352 C 0.03901 0.11215 0.4334 0.0
C4353 C 0.04695 0.11377 0.4373 0.0
C4354 C 1.01403 0.11217 0.41993 0.0
C4355 C 1.00666 0.11086 0.42497 0.0
C4356 C 0.02203 0.11362 0.42374 0.0
C4357 C 0.0229 0.11384 0.43272 0.0
C4358 C 1.01554 0.11244 0.43776 0.0
C4359 C 1.00754 0.11096 0.43394 0.0
H4360 H 0.67578 0.26357 0.16334 0.0
H4361 H 0.6792 0.25231 0.18839 0.0
H4362 H 0.6735 0.27757 0.16991 0.0
H4363 H 0.6769 0.26629 0.19497 0.0
H4364 H 0.68061 0.29397 0.20365 0.0
H4365 H 0.68326 0.2802 0.19681 0.0
H4366 H 0.6633 0.28551 0.17839 0.0
H4367 H 0.66065 0.29933 0.18524 0.0
C4368 C 0.67599 0.26406 0.17026 0.0
C4369 C 0.67767 0.25677 0.17532 0.0
C4370 C 0.67467 0.2721 0.17404 0.0
C4371 C 0.67499 0.27311 0.18299 0.0
C4372 C 0.67673 0.26583 0.18805 0.0
C4373 C 0.67806 0.25778 0.18427 0.0
C4374 C 0.67673 0.29219 0.19818 0.0
C4375 C 0.67037 0.29778 0.19505 0.0
C4376 C 0.67825 0.28426 0.19425 0.0
C4377 C 0.67348 0.28167 0.18706 0.0
C4378 C 0.66719 0.28731 0.18385 0.0
C4379 C 0.66567 0.29525 0.18778 0.0
H4380 H 0.53539 0.92802 0.93845 0.0
H4381 H 0.52376 0.92607 0.91343 0.0
H4382 H 0.52148 0.92554 0.94511 0.0
H4383 H 0.50984 0.92361 0.92008 0.0
H4384 H 0.48812 0.91024 0.93497 0.0
H4385 H 0.50191 0.91304 0.92813 0.0
H4386 H 0.50767 0.93196 0.94748 0.0
H4387 H 0.49392 0.92917 0.9543 0.0
C4388 C 0.52986 0.92717 0.93436 0.0
C4389 C 0.53074 0.92724 0.92539 0.0
C4390 C 0.52185 0.92574 0.93819 0.0
C4391 C 0.51449 0.92435 0.93316 0.0
C4392 C 0.51537 0.9245 0.92418 0.0
C4393 C 0.52337 0.92592 0.92035 0.0
C4394 C 0.49229 0.91506 0.93773 0.0
C4395 C 0.48988 0.91943 0.94524 0.0
C4396 C 0.50021 0.91667 0.93379 0.0
C4397 C 0.50596 0.92271 0.93725 0.0
C4398 C 0.50351 0.92715 0.94471 0.0
C4399 C 0.4956 0.92554 0.94863 0.0
H4400 H 0.87471 0.25761 0.86691 0.0
H4401 H 0.84835 0.25815 0.85852 0.0
H4402 H 0.8771 0.27158 0.86035 0.0
H4403 H 0.85076 0.27214 0.85193 0.0
H4404 H 0.8607 0.29265 0.83329 0.0
H4405 H 0.85816 0.27883 0.8401 0.0
H4406 H 0.87359 0.28663 0.8617 0.0
H4407 H 0.87639 0.30037 0.85473 0.0
C4408 C 0.86938 0.26074 0.86375 0.0
C4409 C 0.86132 0.25671 0.86329 0.0
C4410 C 0.87077 0.26878 0.85998 0.0
C4411 C 0.86413 0.27303 0.8556 0.0
C4412 C 0.85606 0.26901 0.85513 0.0
C4413 C 0.85467 0.26097 0.85892 0.0
C4414 C 0.86363 0.29141 0.83946 0.0
C4415 C 0.86881 0.29765 0.84341 0.0
C4416 C 0.86207 0.28349 0.84342 0.0
C4417 C 0.86566 0.28157 0.85147 0.0
C4418 C 0.87079 0.28783 0.85546 0.0
C4419 C 0.87233 0.29576 0.8515 0.0
H4420 H 0.49317 0.10769 0.58505 0.0
H4421 H 0.48776 0.12811 0.60293 0.0
H4422 H 0.50704 0.1054 0.59182 0.0
H4423 H 0.50152 0.12559 0.60993 0.0
H4424 H 0.53072 0.12533 0.61385 0.0
H4425 H 0.51669 0.12748 0.60736 0.0
H4426 H 0.51374 0.10007 0.60469 0.0
H4427 H 0.52779 0.09792 0.61121 0.0
C4428 C 0.49493 0.1117 0.59043 0.0
C4429 C 0.48933 0.11813 0.59339 0.0
C4430 C 0.50286 0.11031 0.59439 0.0
C4431 C 0.50545 0.11531 0.60143 0.0
C4432 C 0.49981 0.12168 0.60446 0.0
C4433 C 0.49186 0.12306 0.6005 0.0
C4434 C 0.52705 0.11974 0.61197 0.0
C4435 C 0.53043 0.11144 0.6131 0.0
C4436 C 0.51898 0.12098 0.60824 0.0
C4437 C 0.51403 0.11396 0.60551 0.0
C4438 C 0.5174 0.10565 0.60661 0.0
C4439 C 0.52548 0.10441 0.61035 0.0
H4440 H 0.6837 0.73817 0.34713 0.0
H4441 H 0.65707 0.74423 0.34268 0.0
H4442 H 0.68594 0.75241 0.35314 0.0
H4443 H 0.65922 0.75835 0.34903 0.0
H4444 H 0.66821 0.78616 0.3517 0.0
H4445 H 0.66602 0.77183 0.3459 0.0
H4446 H 0.6828 0.76138 0.36527 0.0
H4447 H 0.68501 0.77574 0.37107 0.0
C4448 C 0.6783 0.74252 0.34745 0.0
C4449 C 0.6702 0.74002 0.34436 0.0
C4450 C 0.67957 0.75068 0.351 0.0
C4451 C 0.67278 0.75659 0.35157 0.0
C4452 C 0.66465 0.75403 0.3486 0.0
C4453 C 0.66337 0.74587 0.34506 0.0
C4454 C 0.6714 0.7808 0.35477 0.0
C4455 C 0.67678 0.78214 0.36188 0.0
C4456 C 0.67012 0.77256 0.35144 0.0
C4457 C 0.67419 0.76539 0.35512 0.0
C4458 C 0.67964 0.76674 0.36219 0.0
C4459 C 0.68092 0.77499 0.36552 0.0
H4460 H 1.00172 0.92771 0.09974 0.0
H4461 H 1.01359 0.92822 0.12473 0.0
H4462 H 1.01568 0.92523 0.09317 0.0
H4463 H 0.0275 0.92543 0.11819 0.0
H4464 H 0.05235 0.92892 0.10265 0.0
H4465 H 0.03851 0.9318 0.10934 0.0
H4466 H 0.02638 0.91413 0.09184 0.0
H4467 H 0.0402 0.91125 0.08517 0.0
C4468 C 1.00731 0.92734 0.10384 0.0
C4469 C 1.00649 0.92816 0.11278 0.0
C4470 C 1.01532 0.92581 0.10007 0.0
C4471 C 0.02275 0.92507 0.10513 0.0
C4472 C 0.02195 0.92602 0.11406 0.0
C4473 C 1.01394 0.92753 0.11783 0.0
C4474 C 0.04675 0.92557 0.10029 0.0
C4475 C 0.04743 0.91986 0.09334 0.0
C4476 C 0.03879 0.92724 0.10412 0.0
C4477 C 0.03128 0.92324 0.10112 0.0
C4478 C 0.03198 0.91746 0.09423 0.0
C4479 C 0.03993 0.9158 0.0904 0.0
H4480 H 0.70479 0.86027 0.74502 0.0
H4481 H 0.68341 0.87612 0.73742 0.0
H4482 H 0.69802 0.85773 0.75885 0.0
H4483 H 0.67647 0.8733 0.75116 0.0
H4484 H 0.67144 0.87446 0.7802 0.0
H4485 H 0.6779 0.8768 0.76618 0.0
H4486 H 0.6862 0.85039 0.76562 0.0
H4487 H 0.67971 0.84803 0.77964 0.0
C4488 C 0.69864 0.86323 0.74629 0.0
C4489 C 0.6947 0.86846 0.74008 0.0
C4490 C 0.6947 0.86167 0.75421 0.0
C4491 C 0.68668 0.8653 0.75617 0.0
C4492 C 0.68269 0.87047 0.74993 0.0
C4493 C 0.68663 0.87201 0.742 0.0
C4494 C 0.67455 0.8691 0.77706 0.0
C4495 C 0.67501 0.86104 0.7811 0.0
C4496 C 0.67827 0.87046 0.76899 0.0
C4497 C 0.68258 0.86379 0.76472 0.0
C4498 C 0.68305 0.85572 0.76875 0.0
C4499 C 0.67932 0.85436 0.77682 0.0
H4500 H 0.90689 0.94902 0.49647 0.0
H4501 H 0.9305 0.93835 0.48675 0.0
H4502 H 0.90965 0.9425 0.51038 0.0
H4503 H 0.93311 0.93154 0.50061 0.0
H4504 H 0.93955 0.92839 0.52925 0.0
H4505 H 0.93693 0.93496 0.51529 0.0
H4506 H 0.91003 0.92884 0.5175 0.0
H4507 H 0.91258 0.9226 0.53156 0.0
C4508 C 0.91267 0.94527 0.49728 0.0
C4509 C 0.91848 0.94425 0.49045 0.0
C4510 C 0.91421 0.94144 0.50526 0.0
C4511 C 0.92161 0.93647 0.50666 0.0
C4512 C 0.92739 0.9354 0.49982 0.0
C4513 C 0.92584 0.93921 0.49182 0.0
C4514 C 0.93306 0.92851 0.5268 0.0
C4515 C 0.92628 0.92493 0.53158 0.0
C4516 C 0.93157 0.9322 0.51873 0.0
C4517 C 0.92326 0.93244 0.51522 0.0
C4518 C 0.91649 0.92887 0.52 0.0
C4519 C 0.91798 0.92518 0.52805 0.0
H4520 H 0.85362 0.16111 0.23933 0.0
H4521 H 0.83528 0.18117 0.24457 0.0
H4522 H 0.86048 0.1638 0.25313 0.0
H4523 H 0.84213 0.18387 0.25832 0.0
H4524 H 0.85047 0.17994 0.28621 0.0
H4525 H 0.84391 0.17757 0.27224 0.0
H4526 H 0.86898 0.17398 0.26106 0.0
H4527 H 0.87553 0.17633 0.27505 0.0
C4528 C 0.8511 0.16615 0.24338 0.0
C4529 C 0.84385 0.17087 0.24083 0.0
C4530 C 0.85504 0.1677 0.25131 0.0
C4531 C 0.85184 0.17403 0.25691 0.0
C4532 C 0.84467 0.17883 0.25429 0.0
C4533 C 0.84074 0.17727 0.24637 0.0
C4534 C 0.8546 0.17875 0.28076 0.0
C4535 C 0.86355 0.17833 0.2818 0.0
C4536 C 0.85083 0.17738 0.27272 0.0
C4537 C 0.8559 0.17557 0.26547 0.0
C4538 C 0.86485 0.17521 0.2665 0.0
C4539 C 0.86862 0.17658 0.27454 0.0
H4540 H 0.60911 0.12479 0.02394 0.0
H4541 H 0.61187 0.10006 0.0361 0.0
H4542 H 0.61199 0.11828 1.01003 0.0
H4543 H 0.61444 0.0935 0.02216 0.0
H4544 H 0.62824 0.08619 0.99736 0.0
H4545 H 0.62531 0.09288 1.01115 0.0
H4546 H 0.60598 0.10878 0.99934 0.0
H4547 H 0.60891 0.10207 0.98552 0.0
C4548 C 0.61031 0.11796 0.02366 0.0
C4549 C 0.61028 0.11297 0.03119 0.0
C4550 C 0.61188 0.1142 1.01565 0.0
C4551 C 0.61348 0.10535 1.01493 0.0
C4552 C 0.61335 0.10035 0.02245 0.0
C4553 C 0.61176 0.1041 0.03046 0.0
C4554 C 0.62332 0.09108 0.99769 0.0
C4555 C 0.6188 0.09355 0.99029 0.0
C4556 C 0.62163 0.09491 1.00563 0.0
C4557 C 0.61536 0.10135 1.00641 0.0
C4558 C 0.61092 0.10392 0.99899 0.0
C4559 C 0.61261 0.10007 0.99104 0.0
H4560 H 0.68387 0.16219 0.80004 0.0
H4561 H 0.7049 0.17881 0.79309 0.0
H4562 H 0.67712 0.16501 0.7862 0.0
H4563 H 0.69817 0.18163 0.77931 0.0
H4564 H 0.68842 0.1774 0.75193 0.0
H4565 H 0.69499 0.17488 0.76587 0.0
H4566 H 0.67004 0.17588 0.77782 0.0
H4567 H 0.66347 0.17837 0.76385 0.0
C4568 C 0.68703 0.16651 0.7956 0.0
C4569 C 0.69497 0.17022 0.7977 0.0
C4570 C 0.68315 0.16813 0.78765 0.0
C4571 C 0.6871 0.17353 0.78158 0.0
C4572 C 0.695 0.17731 0.78372 0.0
C4573 C 0.69887 0.17568 0.79165 0.0
C4574 C 0.68434 0.17719 0.75753 0.0
C4575 C 0.6754 0.17809 0.75672 0.0
C4576 C 0.68811 0.17573 0.76556 0.0
C4577 C 0.68306 0.17516 0.77302 0.0
C4578 C 0.67413 0.17613 0.77222 0.0
C4579 C 0.67036 0.17757 0.76419 0.0
H4580 H 0.61031 0.91401 0.51438 0.0
H4581 H 0.61098 0.93898 0.5024 0.0
H4582 H 0.61318 0.92059 0.52826 0.0
H4583 H 0.61355 0.94558 0.51633 0.0
H4584 H 0.62763 0.95359 0.54075 0.0
H4585 H 0.6247 0.94685 0.52698 0.0
H4586 H 0.6069 0.92954 0.53925 0.0
H4587 H 0.60984 0.93629 0.55304 0.0
C4588 C 0.61106 0.92091 0.5147 0.0
C4589 C 0.61044 0.92595 0.50723 0.0
C4590 C 0.61262 0.9247 0.52269 0.0
C4591 C 0.61363 0.93363 0.52345 0.0
C4592 C 0.61292 0.93868 0.516 0.0
C4593 C 0.61133 0.93489 0.50801 0.0
C4594 C 0.62305 0.94838 0.54052 0.0
C4595 C 0.61896 0.94553 0.54804 0.0
C4596 C 0.62135 0.94452 0.5326 0.0
C4597 C 0.61551 0.93767 0.53195 0.0
C4598 C 0.61151 0.93473 0.53949 0.0
C4599 C 0.6132 0.9386 0.54742 0.0
H4600 H 0.85313 0.87763 0.29942 0.0
H4601 H 0.83355 0.85899 0.29348 0.0
H4602 H 0.85986 0.87497 0.28555 0.0
H4603 H 0.84027 0.85632 0.27966 0.0
H4604 H 0.84911 0.86047 0.25195 0.0
H4605 H 0.8426 0.86288 0.26594 0.0
H4606 H 0.86774 0.86451 0.27737 0.0
H4607 H 0.87425 0.86214 0.26336 0.0
C4608 C 0.8503 0.8729 0.2952 0.0
C4609 C 0.84275 0.86857 0.29759 0.0
C4610 C 0.85417 0.87137 0.28723 0.0
C4611 C 0.85061 0.86545 0.28142 0.0
C4612 C 0.84312 0.86105 0.28386 0.0
C4613 C 0.83925 0.86258 0.29181 0.0
C4614 C 0.85326 0.86124 0.25746 0.0
C4615 C 0.86222 0.86111 0.25649 0.0
C4616 C 0.84952 0.86263 0.26551 0.0
C4617 C 0.85462 0.8639 0.27284 0.0
C4618 C 0.86359 0.86371 0.27187 0.0
C4619 C 0.86733 0.86233 0.26382 0.0
H4620 H 0.91114 0.10502 0.05007 0.0
H4621 H 0.92854 0.08459 0.0433 0.0
H4622 H 0.91395 0.11194 0.0363 0.0
H4623 H 0.93109 0.09132 0.02945 0.0
H4624 H 0.94022 0.10992 1.00866 0.0
H4625 H 0.93785 0.1035 0.02272 0.0
H4626 H 0.91101 0.11005 0.0212 0.0
H4627 H 0.91337 0.11643 1.00715 0.0
C4628 C 0.91559 0.10201 0.04567 0.0
C4629 C 0.91958 0.09421 0.04782 0.0
C4630 C 0.91712 0.10593 0.03772 0.0
C4631 C 0.92273 0.10219 0.03171 0.0
C4632 C 0.9268 0.09445 0.03392 0.0
C4633 C 0.92525 0.09052 0.04185 0.0
C4634 C 0.9338 0.10994 1.01128 0.0
C4635 C 0.927 0.11373 1.00672 0.0
C4636 C 0.93244 0.10625 0.01937 0.0
C4637 C 0.92423 0.10625 0.02314 0.0
C4638 C 0.91744 0.11005 1.01859 0.0
C4639 C 0.9188 0.11372 1.0105 0.0
H4640 H 0.74346 0.69479 0.88056 0.0
H4641 H 0.73788 0.69178 0.85362 0.0
H4642 H 0.75753 0.68837 0.87835 0.0
H4643 H 0.75207 0.68567 0.85135 0.0
H4644 H 0.77512 0.66737 0.85183 0.0
H4645 H 0.76081 0.67326 0.85406 0.0
H4646 H 0.77118 0.69163 0.87198 0.0
H4647 H 0.78546 0.68572 0.86977 0.0
C4648 C 0.7452 0.69272 0.87417 0.0
C4649 C 0.7395 0.69384 0.86727 0.0
C4650 C 0.75333 0.68913 0.87288 0.0
C4651 C 0.75601 0.68653 0.86466 0.0
C4652 C 0.75025 0.68752 0.85779 0.0
C4653 C 0.74212 0.69112 0.85908 0.0
C4654 C 0.77437 0.67273 0.85618 0.0
C4655 C 0.78148 0.67604 0.86063 0.0
C4656 C 0.76614 0.67611 0.85747 0.0
C4657 C 0.76479 0.68292 0.86324 0.0
C4658 C 0.77192 0.68628 0.86762 0.0
C4659 C 0.78013 0.6829 0.86634 0.0
H4660 H 0.24752 0.83472 0.16018 0.0
H4661 H 0.23524 0.85333 0.17657 0.0
H4662 H 0.26136 0.84136 0.16299 0.0
H4663 H 0.24911 0.86 0.17937 0.0
H4664 H 0.27442 0.87475 0.17556 0.0
H4665 H 0.26046 0.86831 0.17274 0.0
H4666 H 0.27175 0.84309 0.17435 0.0
H4667 H 0.28577 0.84953 0.17687 0.0
C4668 C 0.24776 0.8402 0.16443 0.0
C4669 C 0.24022 0.84345 0.16817 0.0
C4670 C 0.25572 0.84401 0.16605 0.0
C4671 C 0.2564 0.8512 0.17145 0.0
C4672 C 0.24884 0.85454 0.1751 0.0
C4673 C 0.24087 0.85071 0.17348 0.0
C4674 C 0.27395 0.86783 0.17526 0.0
C4675 C 0.28127 0.86267 0.17642 0.0
C4676 C 0.2659 0.86413 0.17373 0.0
C4677 C 0.26494 0.85516 0.17328 0.0
C4678 C 0.27225 0.85001 0.17453 0.0
C4679 C 0.28028 0.85371 0.17609 0.0
H4680 H 0.93408 0.48853 0.91086 0.0
H4681 H 0.95422 0.49492 0.92872 0.0
H4682 H 0.92729 0.50236 0.91361 0.0
H4683 H 0.94743 0.50869 0.93148 0.0
H4684 H 0.9382 0.53627 0.92729 0.0
H4685 H 0.94476 0.5223 0.92484 0.0
H4686 H 0.91968 0.5106 0.92423 0.0
H4687 H 0.91312 0.52459 0.92663 0.0
C4688 C 0.93702 0.49284 0.91543 0.0
C4689 C 0.94475 0.49059 0.91951 0.0
C4690 C 0.93312 0.50078 0.91702 0.0
C4691 C 0.93681 0.50671 0.92274 0.0
C4692 C 0.94447 0.5044 0.9269 0.0
C4693 C 0.94837 0.49647 0.92531 0.0
C4694 C 0.93408 0.53071 0.92673 0.0
C4695 C 0.92512 0.5316 0.92716 0.0
C4696 C 0.93785 0.52267 0.92532 0.0
C4697 C 0.93277 0.51527 0.92432 0.0
C4698 C 0.92381 0.51615 0.92482 0.0
C4699 C 0.92004 0.52419 0.92621 0.0
H4700 H 0.29892 0.18592 0.65966 0.0
H4701 H 0.29432 0.20288 0.68104 0.0
H4702 H 0.28512 0.179 0.66221 0.0
H4703 H 0.28056 0.19597 0.68359 0.0
H4704 H 0.25249 0.18802 0.67969 0.0
H4705 H 0.26646 0.19468 0.67749 0.0
H4706 H 0.27742 0.16985 0.67204 0.0
H4707 H 0.26345 0.1632 0.67423 0.0
C4708 C 0.29502 0.18812 0.66496 0.0
C4709 C 0.29775 0.19501 0.6701 0.0
C4710 C 0.28709 0.18414 0.66643 0.0
C4711 C 0.28166 0.18693 0.67309 0.0
C4712 C 0.28446 0.19374 0.67829 0.0
C4713 C 0.29237 0.19772 0.67683 0.0
C4714 C 0.25789 0.18396 0.67812 0.0
C4715 C 0.2568 0.17506 0.67713 0.0
C4716 C 0.26593 0.18778 0.67685 0.0
C4717 C 0.27311 0.18282 0.67456 0.0
C4718 C 0.27203 0.17391 0.67364 0.0
C4719 C 0.26399 0.17009 0.67491 0.0
H4720 H 0.08536 0.04077 0.91004 0.0
H4721 H 0.10253 0.05288 0.92804 0.0
H4722 H 0.092 0.02694 0.91297 0.0
H4723 H 0.10919 0.03903 0.93097 0.0
H4724 H 0.12464 1.01411 0.92759 0.0
H4725 H 0.11815 0.02804 0.92471 0.0
H4726 H 0.09313 1.01621 0.92409 0.0
H4727 H 0.09966 1.00223 0.92666 0.0
C4728 C 0.09052 0.04049 0.91467 0.0
C4729 C 0.09337 0.04798 0.91881 0.0
C4730 C 0.09433 0.03253 0.91637 0.0
C4731 C 0.10112 0.03182 0.92225 0.0
C4732 C 0.10405 0.03932 0.92632 0.0
C4733 C 0.10023 0.04729 0.92462 0.0
C4734 C 0.11776 1.01446 0.92679 0.0
C4735 C 0.11269 1.007 0.92733 0.0
C4736 C 0.11402 0.02248 0.92522 0.0
C4737 C 0.1051 0.02329 0.92413 0.0
C4738 C 0.10003 1.01584 0.92477 0.0
C4739 C 0.10376 1.00782 0.92636 0.0
H4740 H 0.80231 0.35376 0.3613 0.0
H4741 H 0.78976 0.33438 0.37661 0.0
H4742 H 0.78847 0.36047 0.35846 0.0
H4743 H 0.77595 0.34107 0.37377 0.0
H4744 H 0.75178 0.34977 0.35985 0.0
H4745 H 0.76576 0.34327 0.36234 0.0
H4746 H 0.77696 0.36844 0.36515 0.0
H4747 H 0.76303 0.37494 0.36235 0.0
C4748 C 0.79662 0.35097 0.36415 0.0
C4749 C 0.79719 0.34349 0.36917 0.0
C4750 C 0.78866 0.35482 0.36251 0.0
C4751 C 0.78104 0.3513 0.36584 0.0
C4752 C 0.78164 0.34388 0.37095 0.0
C4753 C 0.78958 0.34004 0.37259 0.0
C4754 C 0.75723 0.35393 0.36088 0.0
C4755 C 0.75623 0.3629 0.3609 0.0
C4756 C 0.76526 0.35019 0.36242 0.0
C4757 C 0.77252 0.35531 0.364 0.0
C4758 C 0.77154 0.36428 0.3639 0.0
C4759 C 0.76352 0.36802 0.36238 0.0
H4760 H 0.94559 0.5487 0.60266 0.0
H4761 H 0.94166 0.54628 0.62996 0.0
H4762 H 0.93895 0.53473 0.60047 0.0
H4763 H 0.935 0.53231 0.62776 0.0
H4764 H 0.91622 0.51114 0.62 0.0
H4765 H 0.92242 0.52534 0.62197 0.0
H4766 H 0.9416 0.51963 0.60286 0.0
H4767 H 0.93541 0.5054 0.6009 0.0
C4768 C 0.94336 0.54518 0.60821 0.0
C4769 C 0.94421 0.54865 0.6165 0.0
C4770 C 0.93954 0.53714 0.60695 0.0
C4771 C 0.93645 0.53233 0.61393 0.0
C4772 C 0.93719 0.53585 0.62221 0.0
C4773 C 0.94101 0.54389 0.62347 0.0
C4774 C 0.9218 0.51287 0.61625 0.0
C4775 C 0.92532 0.50706 0.61031 0.0
C4776 C 0.92537 0.52104 0.61739 0.0
C4777 C 0.93255 0.52366 0.6126 0.0
C4778 C 0.93601 0.5179 0.60658 0.0
C4779 C 0.93245 0.50971 0.60545 0.0
H4780 H 0.61731 0.52978 0.12428 0.0
H4781 H 0.60621 0.53092 0.09895 0.0
H4782 H 0.61103 0.51564 0.12642 0.0
H4783 H 0.60025 0.51661 0.10095 0.0
H4784 H 0.58286 0.49518 0.11094 0.0
H4785 H 0.58926 0.50925 0.10878 0.0
H4786 H 0.61206 0.5009 0.12206 0.0
H4787 H 0.60563 0.4868 0.12425 0.0
C4788 C 0.61352 0.52703 0.11916 0.0
C4789 C 0.61224 0.53157 0.11145 0.0
C4790 C 0.61001 0.51885 0.12035 0.0
C4791 C 0.60511 0.51493 0.11387 0.0
C4792 C 0.60389 0.51944 0.10613 0.0
C4793 C 0.60741 0.52763 0.10494 0.0
C4794 C 0.58928 0.49629 0.11333 0.0
C4795 C 0.59373 0.48979 0.11774 0.0
C4796 C 0.59296 0.50439 0.11208 0.0
C4797 C 0.60121 0.50625 0.11521 0.0
C4798 C 0.60565 0.49977 0.11966 0.0
C4799 C 0.60196 0.49166 0.12092 0.0
H4800 H 0.65869 0.79179 0.83822 0.0
H4801 H 0.6808 0.80226 0.85114 0.0
H4802 H 0.66136 0.77791 0.84485 0.0
H4803 H 0.6833 0.78842 0.85803 0.0
H4804 H 0.69046 0.75992 0.86148 0.0
H4805 H 0.68796 0.77388 0.85481 0.0
H4806 H 0.66071 0.77071 0.85848 0.0
H4807 H 0.66318 0.75668 0.86484 0.0
C4808 C 0.66412 0.79114 0.84248 0.0
C4809 C 0.66953 0.79818 0.84411 0.0
C4810 C 0.66561 0.78318 0.84637 0.0
C4811 C 0.67255 0.782 0.852 0.0
C4812 C 0.67794 0.78905 0.85367 0.0
C4813 C 0.67644 0.79703 0.84979 0.0
C4814 C 0.68393 0.76217 0.8608 0.0
C4815 C 0.67703 0.75714 0.86373 0.0
C4816 C 0.6825 0.77023 0.85706 0.0
C4817 C 0.67413 0.77346 0.8561 0.0
C4818 C 0.66724 0.76842 0.85902 0.0
C4819 C 0.66867 0.76039 0.86277 0.0
H4820 H 0.53155 0.43926 0.10566 0.0
H4821 H 0.52844 0.41553 0.11961 0.0
H4822 H 0.51731 0.43747 0.09949 0.0
H4823 H 0.51438 0.41355 0.11315 0.0
H4824 H 0.48594 0.4168 0.10647 0.0
H4825 H 0.49994 0.41891 0.11312 0.0
H4826 H 0.5098 0.42883 0.08923 0.0
H4827 H 0.49584 0.42675 0.08261 0.0
C4828 C 0.52784 0.43367 0.10744 0.0
C4829 C 0.53121 0.42754 0.11314 0.0
C4830 C 0.51969 0.43259 0.10381 0.0
C4831 C 0.51466 0.42534 0.10577 0.0
C4832 C 0.518 0.41925 0.11154 0.0
C4833 C 0.52614 0.42034 0.11516 0.0
C4834 C 0.49111 0.41937 0.10262 0.0
C4835 C 0.48971 0.42163 0.094 0.0
C4836 C 0.49916 0.42059 0.10644 0.0
C4837 C 0.50604 0.42408 0.10174 0.0
C4838 C 0.50464 0.42629 0.09311 0.0
C4839 C 0.4966 0.42509 0.0893 0.0
H4840 H 0.88035 0.24338 0.34572 0.0
H4841 H 0.85298 0.23931 0.34529 0.0
H4842 H 0.87816 0.25738 0.35232 0.0
H4843 H 0.85079 0.25331 0.35187 0.0
H4844 H 0.84982 0.28266 0.35484 0.0
H4845 H 0.8519 0.26844 0.34867 0.0
H4846 H 0.87357 0.26433 0.36537 0.0
H4847 H 0.87148 0.27851 0.37156 0.0
C4848 C 0.87387 0.24541 0.34713 0.0
C4849 C 0.86685 0.24018 0.34493 0.0
C4850 C 0.8726 0.25347 0.35091 0.0
C4851 C 0.86428 0.25653 0.35261 0.0
C4852 C 0.85728 0.25125 0.35052 0.0
C4853 C 0.85854 0.2432 0.34674 0.0
C4854 C 0.85497 0.2787 0.35727 0.0
C4855 C 0.86049 0.2818 0.3637 0.0
C4856 C 0.85617 0.27052 0.35372 0.0
C4857 C 0.86292 0.26521 0.35649 0.0
C4858 C 0.8684 0.26828 0.36296 0.0
C4859 C 0.86719 0.27644 0.36651 0.0
H4860 H 0.04034 0.62405 0.58327 0.0
H4861 H 0.05329 0.61241 0.60478 0.0
H4862 H 0.02657 0.62137 0.5901 0.0
H4863 H 0.03948 0.60972 0.61163 0.0
H4864 H 1.01351 0.61413 0.62502 0.0
H4865 H 0.02742 0.61676 0.6184 0.0
H4866 H 1.01699 0.60979 0.59374 0.0
H4867 H 1.003 0.60748 0.60031 0.0
C4868 C 0.04026 0.62086 0.58943 0.0
C4869 C 0.04797 0.61841 0.59343 0.0
C4870 C 0.03234 0.61931 0.59335 0.0
C4871 C 0.03186 0.61527 0.60141 0.0
C4872 C 0.03958 0.61293 0.60547 0.0
C4873 C 0.04752 0.61448 0.60154 0.0
C4874 C 1.01416 0.61321 0.61817 0.0
C4875 C 1.00708 0.61063 0.61321 0.0
C4876 C 0.02218 0.61463 0.61438 0.0
C4877 C 0.02336 0.61352 0.60551 0.0
C4878 C 1.01631 0.61083 0.60057 0.0
C4879 C 1.0083 0.60939 0.60436 0.0
H4880 H 0.66808 0.28569 0.68505 0.0
H4881 H 0.68583 0.27559 0.66639 0.0
H4882 H 0.66603 0.27135 0.6909 0.0
H4883 H 0.68375 0.26121 0.67222 0.0
H4884 H 0.68457 0.23815 0.69062 0.0
H4885 H 0.68667 0.25239 0.68452 0.0
H4886 H 0.65969 0.25769 0.68766 0.0
H4887 H 0.65766 0.24357 0.69408 0.0
C4888 C 0.6715 0.2804 0.68214 0.0
C4889 C 0.67711 0.28183 0.67522 0.0
C4890 C 0.67031 0.27215 0.68549 0.0
C4891 C 0.67468 0.26506 0.68202 0.0
C4892 C 0.68035 0.2665 0.67514 0.0
C4893 C 0.68155 0.27477 0.67179 0.0
C4894 C 0.67908 0.24236 0.69006 0.0
C4895 C 0.67094 0.23968 0.6929 0.0
C4896 C 0.68027 0.25052 0.68647 0.0
C4897 C 0.67336 0.25625 0.68561 0.0
C4898 C 0.66519 0.25352 0.68832 0.0
C4899 C 0.664 0.24536 0.69191 0.0
H4900 H 0.0529 0.42844 0.93404 0.0
H4901 H 0.0405 0.41124 0.95186 0.0
H4902 H 0.03911 0.4313 0.92723 0.0
H4903 H 0.02675 0.41411 0.94509 0.0
H4904 H 1.0023 0.42795 0.93702 0.0
H4905 H 1.01625 0.42542 0.94359 0.0
H4906 H 0.02797 0.42483 0.91852 0.0
H4907 H 1.01406 0.42767 0.91197 0.0
C4908 C 0.04726 0.42519 0.93645 0.0
C4909 C 0.04785 0.41963 0.94355 0.0
C4910 C 0.03933 0.42684 0.93255 0.0
C4911 C 0.03177 0.42299 0.93563 0.0
C4912 C 0.03239 0.41734 0.94264 0.0
C4913 C 0.0403 0.41568 0.94653 0.0
C4914 C 1.00786 0.4274 0.93291 0.0
C4915 C 1.00702 0.42802 0.92395 0.0
C4916 C 1.01586 0.42583 0.93667 0.0
C4917 C 0.02326 0.42486 0.9316 0.0
C4918 C 0.02244 0.4256 0.92265 0.0
C4919 C 1.01443 0.42714 0.91888 0.0
H4920 H 0.86984 0.80269 0.1815 0.0
H4921 H 0.86152 0.79243 0.20583 0.0
H4922 H 0.86768 0.78867 0.1749 0.0
H4923 H 0.85938 0.77845 0.19926 0.0
H4924 H 0.84852 0.75655 0.18329 0.0
H4925 H 0.85031 0.77082 0.18942 0.0
H4926 H 0.87338 0.77434 0.17452 0.0
H4927 H 0.87139 0.76024 0.16813 0.0
C4928 C 0.86762 0.79744 0.18547 0.0
C4929 C 0.86583 0.79874 0.19421 0.0
C4930 C 0.86637 0.78938 0.18167 0.0
C4931 C 0.86331 0.78239 0.18652 0.0
C4932 C 0.86157 0.7837 0.19527 0.0
C4933 C 0.86281 0.79174 0.19905 0.0
C4934 C 0.85392 0.7604 0.18123 0.0
C4935 C 0.85982 0.75718 0.17521 0.0
C4936 C 0.85501 0.76856 0.18483 0.0
C4937 C 0.86202 0.77376 0.18251 0.0
C4938 C 0.86786 0.77058 0.17642 0.0
C4939 C 0.86677 0.76242 0.17283 0.0
H4940 H 0.52344 0.61056 0.41195 0.0
H4941 H 0.53519 0.61051 0.437 0.0
H4942 H 0.50953 0.61341 0.41848 0.0
H4943 H 0.52123 0.61305 0.44355 0.0
H4944 H 0.49691 0.6272 0.45171 0.0
H4945 H 0.51069 0.62431 0.44497 0.0
H4946 H 0.4984 0.60698 0.42724 0.0
H4947 H 0.48459 0.60986 0.43401 0.0
C4948 C 0.52307 0.61114 0.41886 0.0
C4949 C 0.53048 0.61033 0.42393 0.0
C4950 C 0.51505 0.61269 0.42262 0.0
C4951 C 0.51422 0.6135 0.43156 0.0
C4952 C 0.52162 0.61259 0.43664 0.0
C4953 C 0.52963 0.61101 0.43288 0.0
C4954 C 0.49714 0.62272 0.44641 0.0
C4955 C 0.4896 0.61874 0.44345 0.0
C4956 C 0.50506 0.62106 0.44254 0.0
C4957 C 0.50571 0.61536 0.43558 0.0
C4958 C 0.49816 0.61147 0.43252 0.0
C4959 C 0.49022 0.61314 0.4364 0.0
H4960 H 0.8524 0.66824 0.75223 0.0
H4961 H 0.87127 0.68562 0.76258 0.0
H4962 H 0.84646 0.66612 0.76652 0.0
H4963 H 0.86537 0.68348 0.7769 0.0
H4964 H 0.84696 0.68443 0.79987 0.0
H4965 H 0.85309 0.68653 0.78566 0.0
H4966 H 0.84951 0.65963 0.78017 0.0
H4967 H 0.84305 0.6576 0.79426 0.0
C4968 C 0.85533 0.67157 0.75756 0.0
C4969 C 0.86233 0.6771 0.75621 0.0
C4970 C 0.85193 0.67034 0.76579 0.0
C4971 C 0.85544 0.6746 0.77292 0.0
C4972 C 0.86241 0.68017 0.77157 0.0
C4973 C 0.8658 0.68141 0.76333 0.0
C4974 C 0.84742 0.67896 0.79562 0.0
C4975 C 0.84445 0.67084 0.79824 0.0
C4976 C 0.85104 0.68015 0.78748 0.0
C4977 C 0.85179 0.67327 0.78171 0.0
C4978 C 0.84893 0.66512 0.78437 0.0
C4979 C 0.84532 0.66392 0.79252 0.0
H4980 H 0.61044 0.60031 1.00272 0.0
H4981 H 0.60988 0.62532 1.01456 0.0
H4982 H 0.61296 0.59375 1.01668 0.0
H4983 H 0.61272 0.61879 0.02847 0.0
H4984 H 0.6093 0.60324 0.05334 0.0
H4985 H 0.6064 0.60993 0.0395 0.0
H4986 H 0.62409 0.59246 0.02736 0.0
H4987 H 0.62699 0.58578 0.04117 0.0
C4988 C 0.61081 0.60442 1.0083 0.0
C4989 C 0.60996 0.61336 1.00747 0.0
C4990 C 0.61237 0.60066 1.01631 0.0
C4991 C 0.61311 0.60573 0.02374 0.0
C4992 C 0.61214 0.61466 0.02293 0.0
C4993 C 0.6106 0.61842 1.01491 0.0
C4994 C 0.61265 0.60088 0.04774 0.0
C4995 C 0.61836 0.59393 0.04841 0.0
C4996 C 0.61097 0.60472 0.03978 0.0
C4997 C 0.61496 0.60172 0.03226 0.0
C4998 C 0.62076 0.59484 0.03296 0.0
C4999 C 0.62243 0.59101 0.04091 0.0
H5000 H 0.67707 0.34712 0.25938 0.0
H5001 H 0.67232 0.37433 0.25735 0.0
H5002 H 0.68356 0.34931 0.27343 0.0
H5003 H 0.67878 0.37651 0.27138 0.0
H5004 H 0.68363 0.37657 0.30026 0.0
H5005 H 0.67663 0.37397 0.28652 0.0
H5006 H 0.69611 0.35539 0.28011 0.0
H5007 H 0.70291 0.35774 0.29395 0.0
C5008 C 0.67746 0.35358 0.26189 0.0
C5009 C 0.67413 0.36054 0.25719 0.0
C5010 C 0.68118 0.35484 0.26996 0.0
C5011 C 0.6817 0.3631 0.27359 0.0
C5012 C 0.67837 0.37005 0.26889 0.0
C5013 C 0.67466 0.36879 0.26082 0.0
C5014 C 0.68637 0.37186 0.29597 0.0
C5015 C 0.69388 0.3674 0.29824 0.0
C5016 C 0.6824 0.37043 0.28803 0.0
C5017 C 0.6858 0.36448 0.28215 0.0
C5018 C 0.69324 0.35995 0.28448 0.0
C5019 C 0.69722 0.36139 0.29239 0.0
H5020 H 0.93498 0.44273 0.54931 0.0
H5021 H 0.90766 0.44376 0.54503 0.0
H5022 H 0.93698 0.4365 0.53514 0.0
H5023 H 0.90963 0.43721 0.53099 0.0
H5024 H 0.91708 0.43467 0.5027 0.0
H5025 H 0.9151 0.44064 0.51698 0.0
H5026 H 0.93475 0.42377 0.52675 0.0
H5027 H 0.93674 0.4178 0.51244 0.0
C5028 C 0.92939 0.44161 0.54536 0.0
C5029 C 0.92116 0.44381 0.54834 0.0
C5030 C 0.93053 0.43794 0.53725 0.0
C5031 C 0.92348 0.43636 0.53186 0.0
C5032 C 0.91524 0.43843 0.53489 0.0
C5033 C 0.91409 0.44209 0.54301 0.0
C5034 C 0.92094 0.43218 0.5079 0.0
C5035 C 0.92706 0.42572 0.50638 0.0
C5036 C 0.91979 0.4356 0.51612 0.0
C5037 C 0.92473 0.43268 0.52308 0.0
C5038 C 0.9309 0.42627 0.52155 0.0
C5039 C 0.93205 0.42285 0.51332 0.0
H5040 H 0.85599 0.37165 0.73566 0.0
H5041 H 0.83207 0.3613 0.745 0.0
H5042 H 0.86238 0.36955 0.74981 0.0
H5043 H 0.83852 0.35894 0.759 0.0
H5044 H 0.84982 0.36444 0.78545 0.0
H5045 H 0.84361 0.3668 0.77132 0.0
H5046 H 0.86715 0.35826 0.75954 0.0
H5047 H 0.87346 0.35616 0.7737 0.0
C5048 C 0.85208 0.36894 0.74072 0.0
C5049 C 0.84351 0.36663 0.73914 0.0
C5050 C 0.85578 0.36764 0.74882 0.0
C5051 C 0.85098 0.36406 0.75558 0.0
C5052 C 0.8424 0.36179 0.754 0.0
C5053 C 0.83872 0.36306 0.74591 0.0
C5054 C 0.8537 0.36312 0.77986 0.0
C5055 C 0.86215 0.36011 0.78075 0.0
C5056 C 0.8501 0.36439 0.77173 0.0
C5057 C 0.85486 0.36271 0.76425 0.0
C5058 C 0.86331 0.3597 0.76514 0.0
C5059 C 0.8669 0.3584 0.77328 0.0
H5060 H 0.93857 0.60489 0.03133 0.0
H5061 H 0.91573 0.62017 0.02804 0.0
H5062 H 0.93658 0.59887 1.01705 0.0
H5063 H 0.91374 0.61414 1.01379 0.0
H5064 H 0.90778 0.59448 0.99262 0.0
H5065 H 0.90987 0.60093 1.00669 0.0
H5066 H 0.9371 0.60243 1.00196 0.0
H5067 H 0.935 0.59599 0.98788 0.0
C5068 C 0.93317 0.60704 0.02755 0.0
C5069 C 0.9273 0.61301 0.0309 0.0
C5070 C 0.93202 0.60358 0.01933 0.0
C5071 C 0.92498 0.60599 1.01423 0.0
C5072 C 0.91915 0.61201 1.01756 0.0
C5073 C 0.9203 0.61547 0.02576 0.0
C5074 C 0.9142 0.59629 0.99452 0.0
C5075 C 0.92122 0.59468 0.98908 0.0
C5076 C 0.91541 0.59999 1.00262 0.0
C5077 C 0.92367 0.60219 1.00552 0.0
C5078 C 0.93067 0.60068 1.00003 0.0
C5079 C 0.92946 0.59699 0.99194 0.0
H5080 H 0.68357 0.66778 0.28535 0.0
H5081 H 0.66703 0.68767 0.27551 0.0
H5082 H 0.68962 0.66574 0.27111 0.0
H5083 H 0.67307 0.68561 0.26123 0.0
H5084 H 0.69213 0.68561 0.23875 0.0
H5085 H 0.68587 0.68769 0.2529 0.0
H5086 H 0.68622 0.66032 0.2571 0.0
H5087 H 0.6928 0.65826 0.24308 0.0
C5088 C 0.68117 0.67168 0.28014 0.0
C5089 C 0.67478 0.67788 0.28161 0.0
C5090 C 0.68464 0.6705 0.27194 0.0
C5091 C 0.68183 0.67548 0.26496 0.0
C5092 C 0.67549 0.68173 0.26645 0.0
C5093 C 0.67202 0.68292 0.27466 0.0
C5094 C 0.69093 0.68003 0.2427 0.0
C5095 C 0.69303 0.67176 0.23975 0.0
C5096 C 0.68724 0.68122 0.25081 0.0
C5097 C 0.68554 0.67418 0.2562 0.0
C5098 C 0.68753 0.66591 0.25319 0.0
C5099 C 0.69121 0.66471 0.24508 0.0
H5100 H 0.61079 0.43386 0.48437 0.0
H5101 H 0.6245 0.45415 0.49725 0.0
H5102 H 0.60801 0.42698 0.49815 0.0
H5103 H 0.62173 0.4473 0.511 0.0
H5104 H 0.6079 0.43769 0.53488 0.0
H5105 H 0.61026 0.44436 0.52094 0.0
H5106 H 0.61487 0.41944 0.50981 0.0
H5107 H 0.6122 0.41275 0.52368 0.0
C5108 C 0.6133 0.43682 0.49012 0.0
C5109 C 0.61785 0.4446 0.48966 0.0
C5110 C 0.61169 0.43287 0.49805 0.0
C5111 C 0.61459 0.4366 0.50574 0.0
C5112 C 0.61924 0.44432 0.50525 0.0
C5113 C 0.62084 0.44825 0.49734 0.0
C5114 C 0.6093 0.43361 0.52945 0.0
C5115 C 0.60987 0.42466 0.53045 0.0
C5116 C 0.61076 0.43746 0.52145 0.0
C5117 C 0.61282 0.43246 0.51422 0.0
C5118 C 0.61325 0.4235 0.5152 0.0
C5119 C 0.6118 0.41966 0.52319 0.0
H5120 H 0.75255 0.85054 0.67919 0.0
H5121 H 0.76394 0.87558 0.67606 0.0
H5122 H 0.76649 0.8439 0.67687 0.0
H5123 H 0.7779 0.86895 0.67377 0.0
H5124 H 0.79965 0.85363 0.66088 0.0
H5125 H 0.78586 0.86054 0.66353 0.0
H5126 H 0.78034 0.8419 0.68327 0.0
H5127 H 0.79407 0.83501 0.68061 0.0
C5128 C 0.75804 0.85464 0.67812 0.0
C5129 C 0.75707 0.86361 0.67781 0.0
C5130 C 0.76606 0.85083 0.67678 0.0
C5131 C 0.77337 0.85587 0.67511 0.0
C5132 C 0.77242 0.86484 0.67488 0.0
C5133 C 0.76439 0.86865 0.67621 0.0
C5134 C 0.79553 0.85105 0.66585 0.0
C5135 C 0.79799 0.84371 0.67048 0.0
C5136 C 0.78761 0.85502 0.66737 0.0
C5137 C 0.78192 0.85177 0.6736 0.0
C5138 C 0.78444 0.8445 0.67831 0.0
C5139 C 0.79235 0.84054 0.67678 0.0
H5140 H 0.2546 0.67849 0.37464 0.0
H5141 H 0.26115 0.6734 0.34824 0.0
H5142 H 0.26863 0.6849 0.3769 0.0
H5143 H 0.27512 0.68013 0.35042 0.0
H5144 H 0.30268 0.68493 0.35982 0.0
H5145 H 0.28879 0.67803 0.35765 0.0
H5146 H 0.27673 0.69748 0.37322 0.0
H5147 H 0.29061 0.70417 0.37564 0.0
C5148 C 0.25903 0.67872 0.3693 0.0
C5149 C 0.25671 0.67538 0.36125 0.0
C5150 C 0.26707 0.6825 0.37058 0.0
C5151 C 0.27305 0.68306 0.36385 0.0
C5152 C 0.27073 0.67973 0.35579 0.0
C5153 C 0.26267 0.67596 0.3545 0.0
C5154 C 0.29708 0.68768 0.36287 0.0
C5155 C 0.2978 0.69513 0.36791 0.0
C5156 C 0.28909 0.68378 0.36154 0.0
C5157 C 0.2816 0.68719 0.36524 0.0
C5158 C 0.28234 0.6946 0.37033 0.0
C5159 C 0.29032 0.6985 0.37164 0.0
H5160 H 0.60231 0.05024 0.62743 0.0
H5161 H 0.58487 0.04523 0.60656 0.0
H5162 H 0.6093 0.03648 0.62487 0.0
H5163 H 0.59185 0.03151 0.60399 0.0
H5164 H 0.60019 1.00355 0.60799 0.0
H5165 H 0.59345 1.01747 0.6102 0.0
H5166 H 0.61827 0.02877 0.6149 0.0
H5167 H 0.62501 1.01485 0.6127 0.0
C5168 C 0.60001 0.04626 0.62224 0.0
C5169 C 0.59297 0.04886 0.61724 0.0
C5170 C 0.60403 0.03834 0.62076 0.0
C5171 C 0.60113 0.03282 0.61424 0.0
C5172 C 0.59416 0.03549 0.60918 0.0
C5173 C 0.59015 0.04338 0.61066 0.0
C5174 C 0.60423 1.00902 0.60939 0.0
C5175 C 0.61316 1.00803 0.61017 0.0
C5176 C 0.60035 1.01703 0.61067 0.0
C5177 C 0.60529 0.02429 0.61276 0.0
C5178 C 0.61423 0.02332 0.61346 0.0
C5179 C 0.6181 1.01531 0.61218 0.0
H5180 H 0.23808 0.34642 0.85253 0.0
H5181 H 0.24272 0.34487 0.87977 0.0
H5182 H 0.25213 0.35295 0.85049 0.0
H5183 H 0.25677 0.35142 0.87772 0.0
H5184 H 0.27805 0.3708 0.87192 0.0
H5185 H 0.26382 0.36469 0.87388 0.0
H5186 H 0.26723 0.34944 0.85105 0.0
H5187 H 0.2815 0.35553 0.8491 0.0
C5188 C 0.2421 0.34742 0.85809 0.0
C5189 C 0.23923 0.34507 0.86632 0.0
C5190 C 0.25018 0.35117 0.85691 0.0
C5191 C 0.25563 0.3527 0.86393 0.0
C5192 C 0.25272 0.35046 0.87217 0.0
C5193 C 0.24464 0.3467 0.87335 0.0
C5194 C 0.27582 0.36609 0.86735 0.0
C5195 C 0.28099 0.36366 0.86036 0.0
C5196 C 0.26763 0.36258 0.86848 0.0
C5197 C 0.26434 0.35654 0.86265 0.0
C5198 C 0.26948 0.35416 0.85562 0.0
C5199 C 0.27768 0.35766 0.85449 0.0
H5200 H 0.4436 0.49366 0.62976 0.0
H5201 H 0.44121 0.48852 0.60267 0.0
H5202 H 0.43709 0.50771 0.62765 0.0
H5203 H 0.43503 0.5027 0.60051 0.0
H5204 H 0.41655 0.52559 0.60094 0.0
H5205 H 0.4225 0.51129 0.60308 0.0
H5206 H 0.44036 0.52151 0.62158 0.0
H5207 H 0.43438 0.53579 0.61947 0.0
C5208 C 0.44165 0.49549 0.62336 0.0
C5209 C 0.44297 0.48992 0.61639 0.0
C5210 C 0.43801 0.50362 0.62212 0.0
C5211 C 0.43557 0.50641 0.61389 0.0
C5212 C 0.43676 0.50078 0.60695 0.0
C5213 C 0.4404 0.49266 0.60818 0.0
C5214 C 0.4218 0.52481 0.6054 0.0
C5215 C 0.42496 0.53188 0.61004 0.0
C5216 C 0.42522 0.51658 0.60664 0.0
C5217 C 0.43191 0.51519 0.61254 0.0
C5218 C 0.43511 0.52228 0.61712 0.0
C5219 C 0.43168 0.53049 0.61589 0.0
H5220 H 0.74733 0.20255 0.1612 0.0
H5221 H 0.73516 0.18541 0.17923 0.0
H5222 H 0.76113 0.19589 0.16416 0.0
H5223 H 0.74899 0.17873 0.18219 0.0
H5224 H 0.77391 0.16325 0.17884 0.0
H5225 H 0.75999 0.16975 0.17595 0.0
H5226 H 0.77181 0.19478 0.1753 0.0
H5227 H 0.78577 0.18826 0.17789 0.0
C5228 C 0.74759 0.1974 0.16584 0.0
C5229 C 0.74009 0.19456 0.16999 0.0
C5230 C 0.75553 0.19358 0.16755 0.0
C5231 C 0.75622 0.18679 0.17346 0.0
C5232 C 0.74871 0.18387 0.17753 0.0
C5233 C 0.74076 0.1877 0.17582 0.0
C5234 C 0.77356 0.17014 0.17803 0.0
C5235 C 0.78101 0.17521 0.17857 0.0
C5236 C 0.76554 0.17388 0.17646 0.0
C5237 C 0.76474 0.1828 0.17536 0.0
C5238 C 0.77218 0.18788 0.176 0.0
C5239 C 0.78019 0.18414 0.1776 0.0
H5240 H 0.60379 0.9876 0.91216 0.0
H5241 H 0.58345 0.99431 0.92968 0.0
H5242 H 0.61066 1.0014 0.91488 0.0
H5243 H 0.5903 1.00807 0.9324 0.0
H5244 H 0.59992 0.03553 0.92805 0.0
H5245 H 0.59323 0.02161 0.92566 0.0
H5246 H 0.61818 1.00962 0.92559 0.0
H5247 H 0.62486 0.02355 0.92794 0.0
C5248 C 0.60082 0.99197 0.91666 0.0
C5249 C 0.59302 0.98982 0.92065 0.0
C5250 C 0.60476 0.9999 0.91822 0.0
C5251 C 0.60103 1.00591 0.92384 0.0
C5252 C 0.59329 1.00371 0.92791 0.0
C5253 C 0.58935 0.99579 0.92634 0.0
C5254 C 0.60398 0.02992 0.92762 0.0
C5255 C 0.61295 0.03071 0.92818 0.0
C5256 C 0.60014 0.02191 0.92625 0.0
C5257 C 0.60515 1.01444 0.92541 0.0
C5258 C 0.61411 1.01522 0.92605 0.0
C5259 C 0.61795 0.02323 0.92741 0.0
H5260 H 0.91255 1.01479 0.42868 0.0
H5261 H 0.9374 1.00269 0.4273 0.0
H5262 H 0.91914 0.02868 0.42583 0.0
H5263 H 0.94403 1.01662 0.42476 0.0
H5264 H 0.95187 0.04119 0.41077 0.0
H5265 H 0.94512 0.02741 0.41371 0.0
H5266 H 0.92829 0.03955 0.43202 0.0
H5267 H 0.93505 0.05336 0.42907 0.0
C5268 C 0.91943 1.01508 0.42779 0.0
C5269 C 0.92442 1.00757 0.42819 0.0
C5270 C 0.92323 0.02308 0.42624 0.0
C5271 C 0.93214 0.02381 0.42503 0.0
C5272 C 0.93714 1.01632 0.42554 0.0
C5273 C 0.93335 1.00832 0.42711 0.0
C5274 C 0.94677 0.04093 0.41547 0.0
C5275 C 0.94405 0.04843 0.41969 0.0
C5276 C 0.9429 0.03301 0.41717 0.0
C5277 C 0.93618 0.03232 0.42315 0.0
C5278 C 0.93337 0.03983 0.4273 0.0
C5279 C 0.93725 0.04777 0.4256 0.0
H5280 H 0.35701 0.23639 0.18751 0.0
H5281 H 0.3798 0.24632 0.19965 0.0
H5282 H 0.35452 0.25032 0.18081 0.0
H5283 H 0.37716 0.2603 0.19321 0.0
H5284 H 0.375 0.28165 0.17331 0.0
H5285 H 0.37743 0.26758 0.17961 0.0
H5286 H 0.35028 0.26492 0.18424 0.0
H5287 H 0.3478 0.2789 0.17762 0.0
C5288 C 0.36152 0.24152 0.18872 0.0
C5289 C 0.36862 0.24019 0.19413 0.0
C5290 C 0.36003 0.24956 0.18497 0.0
C5291 C 0.36562 0.25648 0.18647 0.0
C5292 C 0.37275 0.25512 0.19182 0.0
C5293 C 0.37422 0.2471 0.1956 0.0
C5294 C 0.36952 0.27804 0.17558 0.0
C5295 C 0.36119 0.28144 0.17489 0.0
C5296 C 0.37093 0.26999 0.1793 0.0
C5297 C 0.36406 0.26507 0.18247 0.0
C5298 C 0.35572 0.26846 0.1818 0.0
C5299 C 0.35431 0.27654 0.17809 0.0
H5300 H 0.55104 0.60452 0.93898 0.0
H5301 H 0.54329 0.62985 0.94697 0.0
H5302 H 0.53703 0.60228 0.93245 0.0
H5303 H 0.52926 0.62761 0.94051 0.0
H5304 H 0.50782 0.62409 0.92097 0.0
H5305 H 0.52198 0.62628 0.92711 0.0
H5306 H 0.52222 0.60001 0.93591 0.0
H5307 H 0.5082 0.5977 0.9294 0.0
C5308 C 0.54633 0.6096 0.9394 0.0
C5309 C 0.54833 0.61737 0.94352 0.0
C5310 C 0.53827 0.60831 0.93566 0.0
C5311 C 0.53195 0.61474 0.93595 0.0
C5312 C 0.53398 0.62254 0.94002 0.0
C5313 C 0.54205 0.62384 0.94374 0.0
C5314 C 0.51092 0.61873 0.92411 0.0
C5315 C 0.50683 0.61069 0.92463 0.0
C5316 C 0.51903 0.62003 0.92775 0.0
C5317 C 0.5233 0.61333 0.93204 0.0
C5318 C 0.5192 0.6053 0.93258 0.0
C5319 C 0.51109 0.604 0.92893 0.0
H5320 H 0.18996 0.75772 0.68043 0.0
H5321 H 0.1641 0.75776 0.67058 0.0
H5322 H 0.1875 0.77177 0.68685 0.0
H5323 H 0.16167 0.77179 0.67695 0.0
H5324 H 0.16264 0.80053 0.68271 0.0
H5325 H 0.16558 0.78677 0.67585 0.0
H5326 H 0.17959 0.77858 0.69826 0.0
H5327 H 0.17694 0.79241 0.70497 0.0
C5328 C 0.18373 0.76068 0.67967 0.0
C5329 C 0.17724 0.75656 0.67495 0.0
C5330 C 0.18232 0.76876 0.68336 0.0
C5331 C 0.17438 0.77296 0.68243 0.0
C5332 C 0.16791 0.76885 0.67769 0.0
C5333 C 0.16931 0.76077 0.67402 0.0
C5334 C 0.16642 0.79583 0.68614 0.0
C5335 C 0.16951 0.79761 0.69442 0.0
C5336 C 0.16803 0.78789 0.68224 0.0
C5337 C 0.17281 0.78151 0.68649 0.0
C5338 C 0.17597 0.78334 0.69474 0.0
C5339 C 0.17434 0.79126 0.69864 0.0
H5340 H 0.02828 0.4404 0.42722 0.0
H5341 H 0.03153 0.4131 0.42398 0.0
H5342 H 1.01431 0.43791 0.43385 0.0
H5343 H 1.01749 0.41064 0.4303 0.0
H5344 H 0.99623 0.40863 0.45036 0.0
H5345 H 1.01018 0.4113 0.44386 0.0
H5346 H 0.99981 0.43325 0.43053 0.0
H5347 H 0.98591 0.43074 0.43727 0.0
C5348 C 0.02603 0.43387 0.42792 0.0
C5349 C 0.03107 0.42696 0.42503 0.0
C5350 C 1.01797 0.43244 0.43164 0.0
C5351 C 1.01473 0.42407 0.43262 0.0
C5352 C 0.01978 0.41717 0.42975 0.0
C5353 C 0.02782 0.41859 0.42602 0.0
C5354 C 0.99693 0.41407 0.44609 0.0
C5355 C 0.98991 0.41948 0.44437 0.0
C5356 C 1.00492 0.41555 0.44228 0.0
C5357 C 1.00616 0.4225 0.43665 0.0
C5358 C 0.99914 0.42789 0.4349 0.0
C5359 C 0.99113 0.42639 0.43869 0.0
H5360 H 0.37808 0.79971 0.352 0.0
H5361 H 0.35794 0.79428 0.33382 0.0
H5362 H 0.37544 0.78596 0.359 0.0
H5363 H 0.35553 0.78042 0.3406 0.0
H5364 H 0.34776 0.75964 0.35986 0.0
H5365 H 0.35001 0.77371 0.35339 0.0
H5366 H 0.37735 0.77079 0.35653 0.0
H5367 H 0.3751 0.75674 0.36297 0.0
C5368 C 0.37307 0.79561 0.34951 0.0
C5369 C 0.36826 0.79813 0.34231 0.0
C5370 C 0.37161 0.78766 0.35347 0.0
C5371 C 0.36529 0.78202 0.35036 0.0
C5372 C 0.3604 0.7846 0.34324 0.0
C5373 C 0.36187 0.79253 0.33927 0.0
C5374 C 0.35426 0.76196 0.35911 0.0
C5375 C 0.36124 0.75701 0.36198 0.0
C5376 C 0.35555 0.77005 0.3554 0.0
C5377 C 0.36387 0.77344 0.35444 0.0
C5378 C 0.37084 0.76849 0.3573 0.0
C5379 C 0.36955 0.7604 0.361 0.0
H5380 H 0.02526 0.60282 0.12086 0.0
H5381 H 0.03556 0.61962 0.1014 0.0
H5382 H 1.01089 0.60497 0.11509 0.0
H5383 H 0.02122 0.62174 0.09562 0.0
H5384 H 0.9936 0.63057 0.0924 0.0
H5385 H 1.00773 0.62849 0.09873 0.0
H5386 H 1.0019 0.60176 0.10302 0.0
H5387 H 0.98765 0.60392 0.09701 0.0
C5388 C 0.02448 0.6069 0.11529 0.0
C5389 C 0.0316 0.61105 0.11163 0.0
C5390 C 1.01622 0.60815 0.11198 0.0
C5391 C 1.01484 0.61357 0.1049 0.0
C5392 C 0.02198 0.61766 0.10118 0.0
C5393 C 0.03023 0.61642 0.1045 0.0
C5394 C 0.99527 0.62427 0.0948 0.0
C5395 C 0.98945 0.61742 0.09416 0.0
C5396 C 1.00344 0.62305 0.09834 0.0
C5397 C 1.00603 0.61494 0.10135 0.0
C5398 C 1.00014 0.60811 0.10084 0.0
C5399 C 0.99198 0.60933 0.0973 0.0
H5400 H 0.16161 0.2382 0.85309 0.0
H5401 H 0.17878 0.245 0.83246 0.0
H5402 H 0.16439 0.25199 0.85991 0.0
H5403 H 0.18157 0.25876 0.83927 0.0
H5404 H 0.17731 0.28619 0.84898 0.0
H5405 H 0.17484 0.27228 0.84232 0.0
H5406 H 0.17521 0.26024 0.86726 0.0
H5407 H 0.17765 0.27417 0.87391 0.0
C5408 C 0.16604 0.24259 0.85004 0.0
C5409 C 0.16992 0.24046 0.84218 0.0
C5410 C 0.16765 0.25052 0.85396 0.0
C5411 C 0.17319 0.25655 0.85015 0.0
C5412 C 0.17713 0.25438 0.84233 0.0
C5413 C 0.17553 0.24646 0.83842 0.0
C5414 C 0.17697 0.28057 0.85304 0.0
C5415 C 0.17768 0.28135 0.862 0.0
C5416 C 0.17554 0.27257 0.84922 0.0
C5417 C 0.1748 0.26509 0.85424 0.0
C5418 C 0.17559 0.26586 0.86319 0.0
C5419 C 0.177 0.27386 0.86701 0.0
H5420 H 0.55023 0.4133 0.60442 0.0
H5421 H 0.54317 0.42965 0.58321 0.0
H5422 H 0.53616 0.41558 0.61084 0.0
H5423 H 0.52929 0.43224 0.58981 0.0
H5424 H 0.50188 0.42785 0.5994 0.0
H5425 H 0.51588 0.42548 0.59289 0.0
H5426 H 0.52764 0.42625 0.61793 0.0
H5427 H 0.51363 0.42856 0.62444 0.0
C5428 C 0.54569 0.41738 0.60111 0.0
C5429 C 0.54789 0.42129 0.59328 0.0
C5430 C 0.53764 0.41878 0.60486 0.0
C5431 C 0.53154 0.42413 0.60088 0.0
C5432 C 0.53375 0.42802 0.59304 0.0
C5433 C 0.54179 0.42661 0.5893 0.0
C5434 C 0.50746 0.42761 0.60352 0.0
C5435 C 0.50658 0.42839 0.61246 0.0
C5436 C 0.51551 0.42624 0.59978 0.0
C5437 C 0.52294 0.42564 0.60487 0.0
C5438 C 0.52207 0.42651 0.61381 0.0
C5439 C 0.51402 0.42785 0.61754 0.0
H5440 H 0.18839 0.3617 0.28595 0.0
H5441 H 0.16357 0.35989 0.27387 0.0
H5442 H 0.19498 0.36426 0.27201 0.0
H5443 H 0.17016 0.36242 0.25993 0.0
H5444 H 0.1837 0.37624 0.23764 0.0
H5445 H 0.17699 0.37342 0.25149 0.0
H5446 H 0.19845 0.35748 0.25865 0.0
H5447 H 0.20515 0.3603 0.24484 0.0
C5448 C 0.18434 0.36174 0.28031 0.0
C5449 C 0.17543 0.36059 0.28107 0.0
C5450 C 0.18813 0.36322 0.2723 0.0
C5451 C 0.18312 0.36357 0.2648 0.0
C5452 C 0.17422 0.36235 0.26555 0.0
C5453 C 0.17043 0.36088 0.27357 0.0
C5454 C 0.18696 0.37207 0.24213 0.0
C5455 C 0.195 0.36855 0.2401 0.0
C5456 C 0.1831 0.37045 0.2501 0.0
C5457 C 0.18717 0.36524 0.25625 0.0
C5458 C 0.19518 0.36165 0.25417 0.0
C5459 C 0.19903 0.36328 0.24622 0.0
H5460 H 0.4278 0.43876 0.0357 0.0
H5461 H 0.42693 0.41358 0.02423 0.0
H5462 H 0.42534 0.44523 0.02168 0.0
H5463 H 0.42416 0.42004 1.01027 0.0
H5464 H 0.4279 0.43512 0.98512 0.0
H5465 H 0.43071 0.42846 0.99899 0.0
H5466 H 0.41408 0.4469 1.0112 0.0
H5467 H 0.41126 0.45354 0.99736 0.0
C5468 C 0.42713 0.43459 0.03019 0.0
C5469 C 0.42756 0.42563 0.03114 0.0
C5470 C 0.42561 0.43831 0.02215 0.0
C5471 C 0.42449 0.43317 1.01481 0.0
C5472 C 0.42504 0.42421 1.01574 0.0
C5473 C 0.42654 0.4205 0.02379 0.0
C5474 C 0.42476 0.4377 0.99074 0.0
C5475 C 0.41937 0.44491 0.99008 0.0
C5476 C 0.42639 0.43388 0.99872 0.0
C5477 C 0.42267 0.43715 1.00627 0.0
C5478 C 0.4172 0.44429 1.00558 0.0
C5479 C 0.41557 0.4481 0.99761 0.0
H5480 H 0.3527 0.67828 0.73514 0.0
H5481 H 0.33481 0.66109 0.74744 0.0
H5482 H 0.35937 0.68121 0.74897 0.0
H5483 H 0.34146 0.66402 0.76125 0.0
H5484 H 0.3495 0.67776 0.78577 0.0
H5485 H 0.34295 0.67522 0.77181 0.0
H5486 H 0.36803 0.67483 0.76011 0.0
H5487 H 0.37455 0.67768 0.77401 0.0
C5488 C 0.35024 0.67504 0.74077 0.0
C5489 C 0.34318 0.66946 0.74014 0.0
C5490 C 0.35407 0.67674 0.74873 0.0
C5491 C 0.35094 0.6729 0.75628 0.0
C5492 C 0.34395 0.66724 0.75562 0.0
C5493 C 0.34013 0.66554 0.74768 0.0
C5494 C 0.35362 0.67725 0.78021 0.0
C5495 C 0.36257 0.67792 0.78106 0.0
C5496 C 0.34986 0.67568 0.7722 0.0
C5497 C 0.35495 0.67476 0.7648 0.0
C5498 C 0.36389 0.67556 0.76563 0.0
C5499 C 0.36765 0.6771 0.77364 0.0
H5500 H 0.13051 0.58824 0.4967 0.0
H5501 H 0.10787 0.6004 0.48645 0.0
H5502 H 0.12775 0.59477 0.51059 0.0
H5503 H 0.10527 0.60721 0.5003 0.0
H5504 H 0.09826 0.61055 0.52878 0.0
H5505 H 0.10086 0.60389 0.51486 0.0
H5506 H 0.12801 0.60838 0.51779 0.0
H5507 H 0.12545 0.6147 0.53181 0.0
C5508 C 0.12494 0.59231 0.4974 0.0
C5509 C 0.11941 0.59376 0.49042 0.0
C5510 C 0.12341 0.59615 0.50536 0.0
C5511 C 0.11628 0.60154 0.50661 0.0
C5512 C 0.11077 0.60303 0.49962 0.0
C5513 C 0.11232 0.59921 0.49164 0.0
C5514 C 0.10479 0.61004 0.5265 0.0
C5515 C 0.11163 0.61319 0.53146 0.0
C5516 C 0.10628 0.60631 0.51845 0.0
C5517 C 0.11465 0.60559 0.51515 0.0
C5518 C 0.12148 0.60872 0.52013 0.0
C5519 C 0.12 0.61246 0.52815 0.0
H5520 H 0.18768 0.6803 0.30191 0.0
H5521 H 0.20158 0.65885 0.29128 0.0
H5522 H 0.18092 0.6828 0.28802 0.0
H5523 H 0.19506 0.66153 0.27736 0.0
H5524 H 0.17517 0.66293 0.25599 0.0
H5525 H 0.18155 0.66048 0.27 0.0
H5526 H 0.18414 0.68782 0.2736 0.0
H5527 H 0.17745 0.69029 0.25966 0.0
C5528 C 0.18927 0.67609 0.29663 0.0
C5529 C 0.19518 0.66937 0.29775 0.0
C5530 C 0.18547 0.67759 0.28862 0.0
C5531 C 0.18744 0.67238 0.28152 0.0
C5532 C 0.19331 0.66563 0.28267 0.0
C5533 C 0.19713 0.66415 0.29066 0.0
C5534 C 0.17702 0.66844 0.25979 0.0
C5535 C 0.17574 0.67682 0.25666 0.0
C5536 C 0.18078 0.66703 0.26781 0.0
C5537 C 0.18339 0.67394 0.27297 0.0
C5538 C 0.18213 0.68233 0.26985 0.0
C5539 C 0.17838 0.68375 0.2618 0.0
H5540 H 0.12707 0.45301 0.04013 0.0
H5541 H 0.10974 0.43521 0.05238 0.0
H5542 H 0.12419 0.44633 0.02632 0.0
H5543 H 0.10687 0.42851 0.03854 0.0
H5544 H 0.11045 0.4133 1.0135 0.0
H5545 H 0.11328 0.4198 0.02742 0.0
H5546 H 0.11299 0.44491 1.01574 0.0
H5547 H 0.11046 0.43839 1.00177 0.0
C5548 C 0.1226 0.4477 0.03988 0.0
C5549 C 0.11862 0.44469 0.04741 0.0
C5550 C 0.12093 0.44387 0.03194 0.0
C5551 C 0.11525 0.4369 0.03127 0.0
C5552 C 0.11136 0.4338 0.0388 0.0
C5553 C 0.11302 0.43764 0.04676 0.0
C5554 C 0.11104 0.42021 1.01388 0.0
C5555 C 0.11025 0.4253 1.00647 0.0
C5556 C 0.11257 0.42395 0.0219 0.0
C5557 C 0.1134 0.4329 0.02274 0.0
C5558 C 0.11251 0.438 1.01534 0.0
C5559 C 0.11095 0.43425 1.00733 0.0
H5560 H 0.37442 0.36137 0.76344 0.0
H5561 H 0.3493 0.36066 0.75187 0.0
H5562 H 0.3679 0.36381 0.77743 0.0
H5563 H 0.34279 0.36313 0.76584 0.0
H5564 H 0.33346 0.3593 0.79329 0.0
H5565 H 0.34016 0.35653 0.77949 0.0
H5566 H 0.36033 0.37446 0.78566 0.0
H5567 H 0.35361 0.37722 0.79952 0.0
C5568 C 0.3675 0.36179 0.76386 0.0
C5569 C 0.3624 0.36081 0.75648 0.0
C5570 C 0.36376 0.3632 0.7719 0.0
C5571 C 0.3548 0.36369 0.77282 0.0
C5572 C 0.3497 0.36266 0.76544 0.0
C5573 C 0.35344 0.36123 0.7574 0.0
C5574 C 0.33928 0.36272 0.79169 0.0
C5575 C 0.34294 0.36853 0.79754 0.0
C5576 C 0.34314 0.36112 0.78375 0.0
C5577 C 0.35078 0.36529 0.78139 0.0
C5578 C 0.35451 0.37104 0.78727 0.0
C5579 C 0.35064 0.37263 0.79524 0.0
H5580 H 0.40991 0.58575 0.53988 0.0
H5581 H 0.42774 0.60313 0.55196 0.0
H5582 H 0.41279 0.59242 0.52605 0.0
H5583 H 0.43062 0.60981 0.53811 0.0
H5584 H 0.4271 0.62523 0.51319 0.0
H5585 H 0.42427 0.61871 0.52711 0.0
H5586 H 0.42389 0.59366 0.51532 0.0
H5587 H 0.42642 0.60022 0.50135 0.0
C5588 C 0.41449 0.59096 0.53959 0.0
C5589 C 0.4186 0.59387 0.54707 0.0
C5590 C 0.41616 0.59478 0.53163 0.0
C5591 C 0.42198 0.60164 0.53091 0.0
C5592 C 0.42602 0.60462 0.53841 0.0
C5593 C 0.42435 0.60079 0.54637 0.0
C5594 C 0.42636 0.61833 0.51355 0.0
C5595 C 0.42696 0.61327 0.5061 0.0
C5596 C 0.42483 0.61458 0.52156 0.0
C5597 C 0.42382 0.60564 0.52238 0.0
C5598 C 0.42452 0.60057 0.51495 0.0
C5599 C 0.42608 0.60433 0.50693 0.0
H5600 H 0.23803 0.19243 0.35379 0.0
H5601 H 0.24325 0.19472 0.38087 0.0
H5602 H 0.25223 0.18633 0.35156 0.0
H5603 H 0.25732 0.18829 0.37869 0.0
H5604 H 0.28536 0.18575 0.37041 0.0
H5605 H 0.27108 0.19165 0.37259 0.0
H5606 H 0.26088 0.17382 0.35405 0.0
H5607 H 0.27519 0.16793 0.35184 0.0
C5608 C 0.24219 0.19161 0.35928 0.0
C5609 C 0.23947 0.19413 0.36751 0.0
C5610 C 0.25032 0.18802 0.35801 0.0
C5611 C 0.25598 0.18682 0.36493 0.0
C5612 C 0.25321 0.18922 0.37318 0.0
C5613 C 0.24507 0.19281 0.37445 0.0
C5614 C 0.28007 0.18303 0.36683 0.0
C5615 C 0.28147 0.17633 0.36096 0.0
C5616 C 0.27185 0.18642 0.3681 0.0
C5617 C 0.26477 0.18321 0.36353 0.0
C5618 C 0.26617 0.17655 0.35761 0.0
C5619 C 0.2744 0.17317 0.35633 0.0
H5620 H 0.78168 0.36438 0.66229 0.0
H5621 H 0.77845 0.36103 0.68958 0.0
H5622 H 0.76763 0.35807 0.65984 0.0
H5623 H 0.76449 0.3544 0.6871 0.0
H5624 H 0.73608 0.35104 0.68001 0.0
H5625 H 0.74999 0.35776 0.68248 0.0
H5626 H 0.76029 0.34452 0.66048 0.0
H5627 H 0.74634 0.33805 0.65783 0.0
C5628 C 0.77798 0.36232 0.66779 0.0
C5629 C 0.78123 0.36327 0.67614 0.0
C5630 C 0.76993 0.35859 0.66637 0.0
C5631 C 0.76489 0.3557 0.67326 0.0
C5632 C 0.76814 0.35663 0.68163 0.0
C5633 C 0.7762 0.36035 0.68305 0.0
C5634 C 0.74128 0.34964 0.67563 0.0
C5635 C 0.74005 0.34399 0.66871 0.0
C5636 C 0.74931 0.35342 0.67712 0.0
C5637 C 0.75631 0.35168 0.6717 0.0
C5638 C 0.75505 0.34608 0.66474 0.0
C5639 C 0.74705 0.34229 0.66327 0.0
H5640 H 0.45203 0.99783 0.40973 0.0
H5641 H 0.43466 0.98563 0.4275 0.0
H5642 H 0.44534 1.01164 0.41263 0.0
H5643 H 0.42794 0.99946 0.43039 0.0
H5644 H 0.41261 0.02449 0.42697 0.0
H5645 H 0.41907 1.01055 0.42405 0.0
H5646 H 0.44415 0.02225 0.42388 0.0
H5647 H 0.43767 0.03623 0.4265 0.0
C5648 C 0.44681 0.99809 0.4143 0.0
C5649 C 0.44393 0.99057 0.4184 0.0
C5650 C 0.44298 1.00603 0.41598 0.0
C5651 C 0.43612 1.00671 0.4218 0.0
C5652 C 0.43314 0.99918 0.4258 0.0
C5653 C 0.43699 0.99123 0.42413 0.0
C5654 C 0.4195 0.02411 0.42625 0.0
C5655 C 0.4246 0.03153 0.42695 0.0
C5656 C 0.42322 1.01608 0.42467 0.0
C5657 C 0.43215 1.01524 0.42369 0.0
C5658 C 0.43725 0.02265 0.42447 0.0
C5659 C 0.43353 0.03067 0.42609 0.0
H5660 H 0.79265 0.70469 0.17819 0.0
H5661 H 0.79988 0.68357 0.16183 0.0
H5662 H 0.77879 0.69799 0.18075 0.0
H5663 H 0.7861 0.67669 0.16465 0.0
H5664 H 0.757 0.67195 0.16377 0.0
H5665 H 0.77103 0.67834 0.16138 0.0
H5666 H 0.77205 0.68604 0.18793 0.0
H5667 H 0.758 0.67961 0.19035 0.0
C5668 C 0.79129 0.69861 0.17512 0.0
C5669 C 0.7974 0.69472 0.16974 0.0
C5670 C 0.78336 0.69471 0.17669 0.0
C5671 C 0.78128 0.68678 0.17292 0.0
C5672 C 0.78742 0.68284 0.1676 0.0
C5673 C 0.79537 0.68675 0.16604 0.0
C5674 C 0.76024 0.67491 0.16914 0.0
C5675 C 0.75632 0.67523 0.17727 0.0
C5676 C 0.76832 0.67859 0.16776 0.0
C5677 C 0.77272 0.68272 0.17445 0.0
C5678 C 0.76881 0.68303 0.18258 0.0
C5679 C 0.76073 0.67934 0.18397 0.0
H5680 H 0.60052 0.5518 0.42932 0.0
H5681 H 0.58652 0.54098 0.40806 0.0
H5682 H 0.60737 0.53795 0.43184 0.0
H5683 H 0.59311 0.52709 0.41076 0.0
H5684 H 0.61297 0.50572 0.41217 0.0
H5685 H 0.60658 0.51973 0.40967 0.0
H5686 H 0.60427 0.52356 0.43698 0.0
H5687 H 0.61099 0.50964 0.43949 0.0
C5688 C 0.59893 0.54649 0.42515 0.0
C5689 C 0.59295 0.54755 0.41848 0.0
C5690 C 0.60278 0.5385 0.42667 0.0
C5691 C 0.6008 0.53136 0.42152 0.0
C5692 C 0.59487 0.53244 0.41481 0.0
C5693 C 0.59101 0.54041 0.41331 0.0
C5694 C 0.61119 0.50957 0.41766 0.0
C5695 C 0.61255 0.50652 0.42604 0.0
C5696 C 0.60742 0.51759 0.41622 0.0
C5697 C 0.60488 0.52281 0.42311 0.0
C5698 C 0.60623 0.51977 0.4315 0.0
C5699 C 0.60999 0.51172 0.43295 0.0
H5700 H 0.29084 0.8375 0.87949 0.0
H5701 H 0.30128 0.85095 0.85766 0.0
H5702 H 0.27688 0.84395 0.87681 0.0
H5703 H 0.28737 0.85766 0.85515 0.0
H5704 H 0.25894 0.86088 0.84781 0.0
H5705 H 0.27293 0.85431 0.85032 0.0
H5706 H 0.26948 0.85746 0.8776 0.0
H5707 H 0.25542 0.8637 0.87511 0.0
C5708 C 0.29017 0.84184 0.87412 0.0
C5709 C 0.29722 0.84367 0.86879 0.0
C5710 C 0.28217 0.84562 0.87263 0.0
C5711 C 0.28096 0.85135 0.86575 0.0
C5712 C 0.28801 0.85321 0.86044 0.0
C5713 C 0.29604 0.84945 0.86196 0.0
C5714 C 0.26113 0.8601 0.85435 0.0
C5715 C 0.25601 0.86285 0.86125 0.0
C5716 C 0.26921 0.85642 0.85579 0.0
C5717 C 0.27238 0.85535 0.86417 0.0
C5718 C 0.26725 0.85808 0.87106 0.0
C5719 C 0.25919 0.86177 0.86962 0.0
H5720 H 0.41322 1.01346 0.10997 0.0
H5721 H 0.43817 1.00154 0.11109 0.0
H5722 H 0.41972 0.02738 0.11286 0.0
H5723 H 0.44471 1.01551 0.11368 0.0
H5724 H 0.45244 0.04008 0.12771 0.0
H5725 H 0.4458 0.02626 0.12476 0.0
H5726 H 0.42874 0.03834 0.10663 0.0
H5727 H 0.4354 0.05219 0.10957 0.0
C5728 C 0.4201 1.0138 0.11082 0.0
C5729 C 0.42515 1.00633 0.11032 0.0
C5730 C 0.42385 0.02182 0.11239 0.0
C5731 C 0.43276 0.02261 0.11353 0.0
C5732 C 0.43782 1.01515 0.11294 0.0
C5733 C 0.43407 1.00714 0.11135 0.0
C5734 C 0.44731 0.0398 0.12305 0.0
C5735 C 0.4445 0.04729 0.11887 0.0
C5736 C 0.4435 0.03185 0.12134 0.0
C5737 C 0.43675 0.03113 0.11541 0.0
C5738 C 0.43385 0.03864 0.11131 0.0
C5739 C 0.43767 0.0466 0.11301 0.0
H5740 H 0.10181 0.03598 0.61969 0.0
H5741 H 0.12041 0.02581 0.60191 0.0
H5742 H 0.09599 0.02164 0.62183 0.0
H5743 H 0.11461 1.01144 0.60408 0.0
H5744 H 0.09628 0.98837 0.60339 0.0
H5745 H 0.10232 1.00261 0.60123 0.0
H5746 H 0.09923 1.00798 0.6282 0.0
H5747 H 0.09285 0.99385 0.63029 0.0
C5748 C 0.10471 0.03067 0.61628 0.0
C5749 C 0.11161 0.03209 0.61063 0.0
C5750 C 0.10138 0.02242 0.61753 0.0
C5751 C 0.10484 1.01532 0.61317 0.0
C5752 C 0.11169 1.01674 0.60747 0.0
C5753 C 0.11503 0.025 0.60621 0.0
C5754 C 0.09683 0.9926 0.60886 0.0
C5755 C 0.09401 0.98993 0.61701 0.0
C5756 C 0.1004 1.00075 0.60763 0.0
C5757 C 0.10126 1.00651 0.61453 0.0
C5758 C 0.09857 1.00379 0.62271 0.0
C5759 C 0.095 0.99563 0.62394 0.0
H5760 H 0.1373 0.15167 0.43659 0.0
H5761 H 0.11822 0.16591 0.42249 0.0
H5762 H 0.14861 0.15969 0.42932 0.0
H5763 H 0.12949 0.17392 0.41525 0.0
H5764 H 0.15189 0.17974 0.39705 0.0
H5765 H 0.14054 0.17217 0.40466 0.0
H5766 H 0.15522 0.17361 0.42807 0.0
H5767 H 0.16659 0.18117 0.42045 0.0
C5768 C 0.1355 0.15657 0.43202 0.0
C5769 C 0.12682 0.15809 0.43012 0.0
C5770 C 0.142 0.16119 0.42783 0.0
C5771 C 0.14 0.16745 0.42164 0.0
C5772 C 0.13131 0.16904 0.41984 0.0
C5773 C 0.12482 0.16443 0.42401 0.0
C5774 C 0.15267 0.17854 0.40385 0.0
C5775 C 0.1602 0.18108 0.40811 0.0
C5776 C 0.14614 0.17418 0.40822 0.0
C5777 C 0.14693 0.17224 0.41701 0.0
C5778 C 0.15442 0.17485 0.42129 0.0
C5779 C 0.16096 0.17921 0.4169 0.0
H5780 H 0.11883 0.8753 0.68604 0.0
H5781 H 0.14189 0.88311 0.67288 0.0
H5782 H 0.11085 0.8866 0.67871 0.0
H5783 H 0.13387 0.89419 0.66534 0.0
H5784 H 0.11915 0.91877 0.65978 0.0
H5785 H 0.12688 0.90772 0.66762 0.0
H5786 H 0.10539 0.89052 0.66465 0.0
H5787 H 0.09751 0.90172 0.65707 0.0
C5788 C 0.12222 0.87944 0.68162 0.0
C5789 C 0.13103 0.87827 0.68008 0.0
C5790 C 0.11761 0.88587 0.67732 0.0
C5791 C 0.12169 0.89133 0.6714 0.0
C5792 C 0.13051 0.89018 0.66991 0.0
C5793 C 0.13511 0.88375 0.67418 0.0
C5794 C 0.11601 0.91268 0.66088 0.0
C5795 C 0.10766 0.91119 0.6578 0.0
C5796 C 0.1205 0.90628 0.6653 0.0
C5797 C 0.1168 0.89818 0.66678 0.0
C5798 C 0.10844 0.89669 0.66372 0.0
C5799 C 0.10394 0.9031 0.65928 0.0
H5800 H 0.41753 0.86715 0.92944 0.0
H5801 H 0.40182 0.88989 0.93083 0.0
H5802 H 0.40625 0.85982 0.92151 0.0
H5803 H 0.39041 0.88245 0.92318 0.0
H5804 H 0.37592 0.87015 0.90087 0.0
H5805 H 0.38718 0.87725 0.90901 0.0
H5806 H 0.39206 0.85372 0.92277 0.0
H5807 H 0.38077 0.8466 0.91461 0.0
C5808 C 0.41167 0.87059 0.92808 0.0
C5809 C 0.41064 0.87915 0.93076 0.0
C5810 C 0.40514 0.86634 0.9236 0.0
C5811 C 0.39739 0.87053 0.92165 0.0
C5812 C 0.39632 0.87905 0.92445 0.0
C5813 C 0.40283 0.88329 0.92894 0.0
C5814 C 0.37934 0.86649 0.90568 0.0
C5815 C 0.37737 0.85779 0.90709 0.0
C5816 C 0.38581 0.87058 0.91037 0.0
C5817 C 0.39053 0.8661 0.91661 0.0
C5818 C 0.38864 0.85736 0.91796 0.0
C5819 C 0.38216 0.85327 0.91326 0.0
H5820 H 0.39695 0.15742 0.16987 0.0
H5821 H 0.41685 0.15979 0.18893 0.0
H5822 H 0.40526 0.14644 0.16254 0.0
H5823 H 0.42518 0.14877 0.18159 0.0
H5824 H 0.4337 0.12262 0.17075 0.0
H5825 H 0.42551 0.1336 0.17829 0.0
H5826 H 0.41808 0.14471 0.15405 0.0
H5827 H 0.42601 0.13356 0.14651 0.0
C5828 C 0.40312 0.15565 0.17248 0.0
C5829 C 0.40622 0.15956 0.18 0.0
C5830 C 0.40791 0.14934 0.16825 0.0
C5831 C 0.41594 0.14672 0.17142 0.0
C5832 C 0.41899 0.15053 0.17901 0.0
C5833 C 0.41419 0.15686 0.18324 0.0
C5834 C 0.43028 0.12737 0.16701 0.0
C5835 C 0.43052 0.12715 0.15799 0.0
C5836 C 0.42565 0.13374 0.17135 0.0
C5837 C 0.42109 0.14005 0.1668 0.0
C5838 C 0.42141 0.1399 0.15779 0.0
C5839 C 0.42606 0.13355 0.15345 0.0
H5840 H 0.13726 0.8849 0.09937 0.0
H5841 H 0.11858 0.87547 0.1175 0.0
H5842 H 0.14841 0.87668 0.10665 0.0
H5843 H 0.12969 0.86727 0.12475 0.0
H5844 H 0.15332 0.86127 0.14119 0.0
H5845 H 0.14206 0.86909 0.1337 0.0
H5846 H 0.15353 0.86236 0.10942 0.0
H5847 H 0.1648 0.85456 0.11692 0.0
C5848 C 0.1355 0.88101 0.10485 0.0
C5849 C 0.127 0.88091 0.10785 0.0
C5850 C 0.14191 0.87628 0.10904 0.0
C5851 C 0.14 0.87131 0.11633 0.0
C5852 C 0.13147 0.87114 0.11926 0.0
C5853 C 0.12507 0.87586 0.11509 0.0
C5854 C 0.15339 0.86136 0.13425 0.0
C5855 C 0.16001 0.85726 0.12969 0.0
C5856 C 0.14692 0.86586 0.12994 0.0
C5857 C 0.14686 0.8664 0.12092 0.0
C5858 C 0.15343 0.86223 0.11636 0.0
C5859 C 0.1599 0.85773 0.12067 0.0
H5860 H 0.41114 0.86903 0.36813 0.0
H5861 H 0.40741 0.88662 0.34707 0.0
H5862 H 0.41889 0.88005 0.37597 0.0
H5863 H 0.4149 0.89779 0.35508 0.0
H5864 H 0.43624 0.91317 0.36834 0.0
H5865 H 0.42897 0.90192 0.36025 0.0
H5866 H 0.4165 0.8933 0.38342 0.0
H5867 H 0.42399 0.90433 0.39154 0.0
C5868 C 0.41199 0.87524 0.36514 0.0
C5869 C 0.40865 0.87688 0.35692 0.0
C5870 C 0.41636 0.88162 0.3697 0.0
C5871 C 0.41753 0.88985 0.3662 0.0
C5872 C 0.41421 0.89151 0.35797 0.0
C5873 C 0.40982 0.88512 0.3534 0.0
C5874 C 0.43203 0.90881 0.37174 0.0
C5875 C 0.43073 0.90968 0.38062 0.0
C5876 C 0.42777 0.90241 0.36707 0.0
C5877 C 0.42211 0.89668 0.37115 0.0
C5878 C 0.42086 0.89752 0.38005 0.0
C5879 C 0.4251 0.90393 0.38471 0.0
H5880 H 0.36882 0.16863 0.62807 0.0
H5881 H 0.3857 0.19048 0.63016 0.0
H5882 H 0.37987 0.16081 0.62032 0.0
H5883 H 0.3969 0.18251 0.62267 0.0
H5884 H 0.41198 0.16875 0.60139 0.0
H5885 H 0.40072 0.1768 0.6087 0.0
H5886 H 0.39347 0.15397 0.62261 0.0
H5887 H 0.4045 0.14587 0.61511 0.0
C5888 C 0.37488 0.17179 0.62686 0.0
C5889 C 0.37632 0.18023 0.62973 0.0
C5890 C 0.38128 0.16725 0.62249 0.0
C5891 C 0.38932 0.17099 0.62087 0.0
C5892 C 0.39077 0.17943 0.62372 0.0
C5893 C 0.38436 0.18398 0.62811 0.0
C5894 C 0.40792 0.16542 0.60593 0.0
C5895 C 0.40918 0.15664 0.60764 0.0
C5896 C 0.40152 0.17007 0.61021 0.0
C5897 C 0.39617 0.16606 0.61628 0.0
C5898 C 0.39739 0.15727 0.61793 0.0
C5899 C 0.4038 0.15263 0.61368 0.0
H5900 H 0.12756 0.16902 0.86843 0.0
H5901 H 0.13025 0.15192 0.84684 0.0
H5902 H 0.11983 0.15796 0.87626 0.0
H5903 H 0.12278 0.1407 0.85483 0.0
H5904 H 0.10145 0.1255 0.86845 0.0
H5905 H 0.10875 0.13677 0.86037 0.0
H5906 H 0.12219 0.14445 0.8833 0.0
H5907 H 0.1147 0.13341 0.89141 0.0
C5908 C 0.12649 0.16291 0.86532 0.0
C5909 C 0.12953 0.16142 0.85696 0.0
C5910 C 0.12213 0.15651 0.86987 0.0
C5911 C 0.12067 0.14839 0.86621 0.0
C5912 C 0.12369 0.14689 0.85784 0.0
C5913 C 0.12808 0.1533 0.85329 0.0
C5914 C 0.10589 0.12966 0.87179 0.0
C5915 C 0.10746 0.12852 0.88061 0.0
C5916 C 0.11016 0.13606 0.86713 0.0
C5917 C 0.11609 0.14154 0.87115 0.0
C5918 C 0.11761 0.14043 0.87998 0.0
C5919 C 0.11337 0.13402 0.88463 0.0
H5920 H 0.18401 0.42108 0.16462 0.0
H5921 H 0.1764 0.39682 0.15368 0.0
H5922 H 0.17585 0.42862 0.15362 0.0
H5923 H 0.1685 0.40436 0.14251 0.0
H5924 H 0.14739 0.42015 0.12971 0.0
H5925 H 0.15568 0.41281 0.14071 0.0
H5926 H 0.17555 0.43196 0.13847 0.0
H5927 H 0.16725 0.43931 0.12744 0.0
C5928 C 0.18061 0.41734 0.15986 0.0
C5929 C 0.18086 0.40832 0.16009 0.0
C5930 C 0.176 0.42168 0.15348 0.0
C5931 C 0.17147 0.41712 0.14716 0.0
C5932 C 0.1718 0.4081 0.14732 0.0
C5933 C 0.17644 0.40376 0.15369 0.0
C5934 C 0.15355 0.42278 0.1315 0.0
C5935 C 0.15664 0.43033 0.12762 0.0
C5936 C 0.15833 0.41855 0.13782 0.0
C5937 C 0.16634 0.42174 0.14048 0.0
C5938 C 0.16938 0.42935 0.13668 0.0
C5939 C 0.1646 0.43358 0.13035 0.0
H5940 H 0.66269 0.11757 0.91916 0.0
H5941 H 0.65516 0.09858 0.90049 0.0
H5942 H 0.6705 0.12536 0.90813 0.0
H5943 H 0.66273 0.10658 0.88936 0.0
H5944 H 0.68439 0.11851 0.87331 0.0
H5945 H 0.677 0.11042 0.88449 0.0
H5946 H 0.66807 0.13411 0.89568 0.0
H5947 H 0.67569 0.14219 0.88469 0.0
C5948 C 0.66272 0.11502 0.91271 0.0
C5949 C 0.6583 0.10739 0.91077 0.0
C5950 C 0.66713 0.11957 0.90634 0.0
C5951 C 0.66725 0.11664 0.89782 0.0
C5952 C 0.66285 0.109 0.89586 0.0
C5953 C 0.65842 0.10445 0.90224 0.0
C5954 C 0.68093 0.122 0.87821 0.0
C5955 C 0.68066 0.13103 0.87808 0.0
C5956 C 0.6766 0.11735 0.88458 0.0
C5957 C 0.6719 0.12158 0.89101 0.0
C5958 C 0.67168 0.13061 0.8909 0.0
C5959 C 0.67599 0.13526 0.88452 0.0
H5960 H 0.8677 0.89791 0.37979 0.0
H5961 H 0.84873 0.91792 0.37742 0.0
H5962 H 0.87506 0.90617 0.39079 0.0
H5963 H 0.8561 0.92621 0.38845 0.0
H5964 H 0.86691 0.93462 0.41462 0.0
H5965 H 0.85937 0.92652 0.4036 0.0
H5966 H 0.88361 0.91893 0.39261 0.0
H5967 H 0.89115 0.92677 0.40381 0.0
C5968 C 0.86512 0.9041 0.38156 0.0
C5969 C 0.85761 0.90724 0.37766 0.0
C5970 C 0.86936 0.90886 0.38788 0.0
C5971 C 0.86623 0.91691 0.39051 0.0
C5972 C 0.85866 0.92 0.38668 0.0
C5973 C 0.85442 0.91524 0.38035 0.0
C5974 C 0.87064 0.93119 0.40988 0.0
C5975 C 0.87966 0.93135 0.41015 0.0
C5976 C 0.8663 0.9266 0.40349 0.0
C5977 C 0.87085 0.92202 0.39719 0.0
C5978 C 0.87987 0.92227 0.3974 0.0
C5979 C 0.88421 0.92688 0.40378 0.0
H5980 H 0.86571 0.14146 0.15731 0.0
H5981 H 0.85021 0.11911 0.16247 0.0
H5982 H 0.87329 0.13362 0.1461 0.0
H5983 H 0.85795 0.11119 0.15142 0.0
H5984 H 0.86753 0.10272 0.1248 0.0
H5985 H 0.8598 0.11053 0.13592 0.0
H5986 H 0.88354 0.12194 0.1444 0.0
H5987 H 0.89124 0.11431 0.13312 0.0
C5988 C 0.86388 0.13489 0.15603 0.0
C5989 C 0.85732 0.13094 0.16081 0.0
C5990 C 0.86831 0.13035 0.14966 0.0
C5991 C 0.86627 0.12174 0.14785 0.0
C5992 C 0.85966 0.11782 0.15258 0.0
C5993 C 0.85527 0.12234 0.15898 0.0
C5994 C 0.87111 0.10693 0.129 0.0
C5995 C 0.88003 0.10788 0.12803 0.0
C5996 C 0.86668 0.11135 0.13545 0.0
C5997 C 0.87103 0.1169 0.14107 0.0
C5998 C 0.87995 0.11781 0.14013 0.0
C5999 C 0.88439 0.11334 0.13372 0.0
H6000 H 0.39063 0.6089 0.63522 0.0
H6001 H 0.36699 0.60681 0.62101 0.0
H6002 H 0.3831 0.61647 0.64662 0.0
H6003 H 0.35945 0.61436 0.63242 0.0
H6004 H 0.35086 0.63639 0.65014 0.0
H6005 H 0.35809 0.62837 0.63883 0.0
H6006 H 0.37273 0.61466 0.65789 0.0
H6007 H 0.36552 0.62266 0.66918 0.0
C6008 C 0.3838 0.60995 0.63456 0.0
C6009 C 0.37945 0.60724 0.62715 0.0
C6010 C 0.37947 0.61431 0.64112 0.0
C6011 C 0.37064 0.61607 0.64047 0.0
C6012 C 0.36626 0.61327 0.6331 0.0
C6013 C 0.3706 0.60892 0.62654 0.0
C6014 C 0.35555 0.6316 0.65193 0.0
C6015 C 0.35762 0.63024 0.66061 0.0
C6016 C 0.35971 0.62699 0.64543 0.0
C6017 C 0.36605 0.62087 0.64741 0.0
C6018 C 0.36802 0.61942 0.65609 0.0
C6019 C 0.36387 0.62403 0.66258 0.0
H6020 H 0.14697 0.61082 0.40345 0.0
H6021 H 0.17117 0.60464 0.41536 0.0
H6022 H 0.1545 0.61867 0.39222 0.0
H6023 H 0.17868 0.61276 0.4043 0.0
H6024 H 0.18981 0.62105 0.37822 0.0
H6025 H 0.18248 0.61274 0.38927 0.0
H6026 H 0.16244 0.6318 0.39026 0.0
H6027 H 0.16976 0.64009 0.37923 0.0
C6028 C 0.1539 0.61108 0.40366 0.0
C6029 C 0.15844 0.60708 0.41035 0.0
C6030 C 0.15823 0.61569 0.39727 0.0
C6031 C 0.16722 0.61642 0.39736 0.0
C6032 C 0.17177 0.6123 0.40397 0.0
C6033 C 0.16744 0.60771 0.41037 0.0
C6034 C 0.18389 0.62352 0.38085 0.0
C6035 C 0.18039 0.63125 0.37777 0.0
C6036 C 0.17967 0.61874 0.3872 0.0
C6037 C 0.17181 0.62155 0.39065 0.0
C6038 C 0.16837 0.62933 0.38764 0.0
C6039 C 0.17259 0.6341 0.38131 0.0
H6040 H 0.36065 0.39682 0.88447 0.0
H6041 H 0.35486 0.42103 0.87233 0.0
H6042 H 0.36844 0.40433 0.89572 0.0
H6043 H 0.36263 0.42855 0.88361 0.0
H6044 H 0.38508 0.43832 0.90014 0.0
H6045 H 0.3769 0.43104 0.88897 0.0
H6046 H 0.36661 0.41359 0.90787 0.0
H6047 H 0.37478 0.42084 0.919 0.0
C6048 C 0.36093 0.40375 0.88425 0.0
C6049 C 0.35711 0.40829 0.87746 0.0
C6050 C 0.36542 0.40808 0.89072 0.0
C6051 C 0.3662 0.41708 0.89061 0.0
C6052 C 0.36231 0.42162 0.88385 0.0
C6053 C 0.35783 0.41729 0.87738 0.0
C6054 C 0.38101 0.43298 0.90193 0.0
C6055 C 0.38065 0.43016 0.9105 0.0
C6056 C 0.3763 0.4288 0.89551 0.0
C6057 C 0.3711 0.42167 0.89747 0.0
C6058 C 0.37067 0.41893 0.90606 0.0
C6059 C 0.37537 0.42311 0.91246 0.0
H6060 H 0.88425 0.86157 0.64194 0.0
H6061 H 0.87277 0.8547 0.61773 0.0
H6062 H 0.89545 0.86943 0.63439 0.0
H6063 H 0.88399 0.86253 0.61017 0.0
H6064 H 0.90015 0.88514 0.60001 0.0
H6065 H 0.88905 0.87686 0.60731 0.0
H6066 H 0.90782 0.86765 0.62544 0.0
H6067 H 0.91888 0.87592 0.61817 0.0
C6068 C 0.88417 0.86163 0.635 0.0
C6069 C 0.87757 0.85748 0.63047 0.0
C6070 C 0.89061 0.86616 0.63065 0.0
C6071 C 0.89066 0.86665 0.62164 0.0
C6072 C 0.8841 0.86243 0.6171 0.0
C6073 C 0.87765 0.85792 0.62145 0.0
C6074 C 0.90193 0.88128 0.6055 0.0
C6075 C 0.91043 0.88127 0.60851 0.0
C6076 C 0.89555 0.87652 0.6097 0.0
C6077 C 0.89749 0.87159 0.61702 0.0
C6078 C 0.90602 0.87149 0.61994 0.0
C6079 C 0.91239 0.87625 0.61576 0.0
H6080 H 0.92897 0.13635 0.39139 0.0
H6081 H 0.93152 0.12227 0.36771 0.0
H6082 H 0.92136 0.1477 0.38382 0.0
H6083 H 0.92391 0.13363 0.36014 0.0
H6084 H 0.90172 0.15112 0.35143 0.0
H6085 H 0.90984 0.13987 0.35865 0.0
H6086 H 0.92313 0.15906 0.37352 0.0
H6087 H 0.91502 0.17028 0.36631 0.0
C6088 C 0.92802 0.13572 0.38455 0.0
C6089 C 0.93087 0.12835 0.38019 0.0
C6090 C 0.92363 0.14224 0.38019 0.0
C6091 C 0.92198 0.14161 0.37134 0.0
C6092 C 0.92492 0.13429 0.36697 0.0
C6093 C 0.9293 0.12776 0.37133 0.0
C6094 C 0.90644 0.15295 0.35617 0.0
C6095 C 0.90765 0.16163 0.3583 0.0
C6096 C 0.91111 0.14648 0.36033 0.0
C6097 C 0.91714 0.14852 0.36673 0.0
C6098 C 0.91843 0.15721 0.36876 0.0
C6099 C 0.91377 0.16366 0.36461 0.0
H6100 H 0.62317 0.17023 0.10443 0.0
H6101 H 0.63434 0.14611 0.11217 0.0
H6102 H 0.63407 0.17791 0.11259 0.0
H6103 H 0.64541 0.15378 0.12007 0.0
H6104 H 0.65797 0.16975 0.14117 0.0
H6105 H 0.64703 0.16231 0.13288 0.0
H6106 H 0.64923 0.18136 0.1129 0.0
H6107 H 0.66021 0.1888 0.1212 0.0
C6108 C 0.62796 0.16655 0.10785 0.0
C6109 C 0.62783 0.15753 0.10764 0.0
C6110 C 0.63428 0.17097 0.11247 0.0
C6111 C 0.64064 0.16649 0.11704 0.0
C6112 C 0.64056 0.15747 0.11674 0.0
C6113 C 0.63426 0.15305 0.1121 0.0
C6114 C 0.65618 0.17233 0.13498 0.0
C6115 C 0.66004 0.17988 0.13186 0.0
C6116 C 0.64989 0.16805 0.13021 0.0
C6117 C 0.64726 0.17118 0.12217 0.0
C6118 C 0.65102 0.1788 0.1191 0.0
C6119 C 0.65732 0.18309 0.12387 0.0
H6120 H 0.63324 0.88775 0.84843 0.0
H6121 H 0.62736 0.86998 0.86885 0.0
H6122 H 0.62484 0.8988 0.85566 0.0
H6123 H 0.61927 0.8811 0.87622 0.0
H6124 H 0.59841 0.90051 0.8832 0.0
H6125 H 0.60624 0.88938 0.8755 0.0
H6126 H 0.62539 0.90796 0.86813 0.0
H6127 H 0.6176 0.91906 0.87583 0.0
C6128 C 0.63014 0.88618 0.85444 0.0
C6129 C 0.63103 0.87795 0.85805 0.0
C6130 C 0.6254 0.89256 0.85865 0.0
C6131 C 0.62138 0.89089 0.86656 0.0
C6132 C 0.62219 0.88263 0.87011 0.0
C6133 C 0.62694 0.87626 0.86592 0.0
C6134 C 0.60432 0.90222 0.87999 0.0
C6135 C 0.60733 0.91073 0.88015 0.0
C6136 C 0.60882 0.89582 0.87556 0.0
C6137 C 0.61647 0.89774 0.87116 0.0
C6138 C 0.61946 0.90625 0.8713 0.0
C6139 C 0.61497 0.91264 0.87573 0.0
H6140 H 0.90052 0.15101 0.9363 0.0
H6141 H 0.91978 0.16557 0.92275 0.0
H6142 H 0.88931 0.15913 0.92902 0.0
H6143 H 0.9086 0.17367 0.91548 0.0
H6144 H 0.88646 0.17958 0.89699 0.0
H6145 H 0.89774 0.17199 0.90469 0.0
H6146 H 0.88267 0.17307 0.92789 0.0
H6147 H 0.87139 0.18066 0.92018 0.0
C6148 C 0.90238 0.15601 0.93185 0.0
C6149 C 0.91109 0.15757 0.9301 0.0
C6150 C 0.89593 0.16068 0.92766 0.0
C6151 C 0.89801 0.16705 0.9216 0.0
C6152 C 0.90672 0.16871 0.91996 0.0
C6153 C 0.91316 0.16405 0.92415 0.0
C6154 C 0.88559 0.1783 0.90376 0.0
C6155 C 0.87797 0.18074 0.90794 0.0
C6156 C 0.89207 0.17393 0.90819 0.0
C6157 C 0.89115 0.17188 0.91693 0.0
C6158 C 0.88357 0.1744 0.92113 0.0
C6159 C 0.87709 0.17877 0.9167 0.0
H6160 H 0.61918 0.1642 0.68455 0.0
H6161 H 0.64257 0.15335 0.67452 0.0
H6162 H 0.61091 0.15308 0.67727 0.0
H6163 H 0.63431 0.14245 0.667 0.0
H6164 H 0.61792 0.11891 0.66164 0.0
H6165 H 0.62586 0.12981 0.66946 0.0
H6166 H 0.60651 0.14854 0.66307 0.0
H6167 H 0.59836 0.13752 0.65552 0.0
C6168 C 0.62257 0.15942 0.68083 0.0
C6169 C 0.63157 0.1597 0.68014 0.0
C6170 C 0.61781 0.1531 0.67656 0.0
C6171 C 0.62192 0.14684 0.67151 0.0
C6172 C 0.63091 0.14708 0.67089 0.0
C6173 C 0.63566 0.15341 0.67513 0.0
C6174 C 0.61528 0.12532 0.66198 0.0
C6175 C 0.60745 0.12729 0.65794 0.0
C6176 C 0.61991 0.13162 0.66639 0.0
C6177 C 0.61687 0.1401 0.6669 0.0
C6178 C 0.60902 0.14207 0.6629 0.0
C6179 C 0.60439 0.13576 0.65847 0.0
H6180 H 0.66383 0.85427 0.41875 0.0
H6181 H 0.65271 0.86386 0.39529 0.0
H6182 H 0.65273 0.86159 0.42699 0.0
H6183 H 0.64182 0.87142 0.40352 0.0
H6184 H 0.61842 0.87695 0.42001 0.0
H6185 H 0.62929 0.86902 0.41213 0.0
H6186 H 0.64813 0.87584 0.4312 0.0
H6187 H 0.63715 0.88351 0.43929 0.0
C6188 C 0.659 0.8579 0.41533 0.0
C6189 C 0.6592 0.85845 0.40633 0.0
C6190 C 0.65268 0.8622 0.42008 0.0
C6191 C 0.64635 0.86714 0.41595 0.0
C6192 C 0.64652 0.86762 0.40694 0.0
C6193 C 0.65284 0.86335 0.40221 0.0
C6194 C 0.62485 0.87668 0.4226 0.0
C6195 C 0.62686 0.88087 0.43033 0.0
C6196 C 0.63113 0.8722 0.41801 0.0
C6197 C 0.63963 0.87179 0.42098 0.0
C6198 C 0.64165 0.87594 0.42873 0.0
C6199 C 0.63536 0.88043 0.43334 0.0
H6200 H 0.91137 0.8691 0.16967 0.0
H6201 H 0.90279 0.88782 0.18815 0.0
H6202 H 0.91968 0.8801 0.16236 0.0
H6203 H 0.91112 0.89886 0.18082 0.0
H6204 H 0.93335 0.91487 0.17017 0.0
H6205 H 0.92549 0.90368 0.17776 0.0
H6206 H 0.91793 0.89261 0.15356 0.0
H6207 H 0.9258 0.90379 0.14598 0.0
C6208 C 0.91119 0.87558 0.17215 0.0
C6209 C 0.90633 0.87754 0.1795 0.0
C6210 C 0.91598 0.88191 0.16794 0.0
C6211 C 0.91607 0.89041 0.17094 0.0
C6212 C 0.91131 0.89237 0.17836 0.0
C6213 C 0.90651 0.88602 0.18258 0.0
C6214 C 0.92998 0.91008 0.16646 0.0
C6215 C 0.93023 0.91027 0.15744 0.0
C6216 C 0.92545 0.90365 0.17082 0.0
C6217 C 0.92103 0.89721 0.1663 0.0
C6218 C 0.92135 0.89736 0.15728 0.0
C6219 C 0.92588 0.90379 0.15292 0.0
H6220 H 0.87537 0.61798 0.91898 0.0
H6221 H 0.88493 0.60015 0.9001 0.0
H6222 H 0.86712 0.62529 0.90794 0.0
H6223 H 0.87667 0.60749 0.88902 0.0
H6224 H 0.85461 0.61795 0.87266 0.0
H6225 H 0.86238 0.61029 0.88386 0.0
H6226 H 0.86895 0.63443 0.89571 0.0
H6227 H 0.86116 0.64207 0.88454 0.0
C6228 C 0.87577 0.61565 0.91245 0.0
C6229 C 0.88089 0.60848 0.91045 0.0
C6230 C 0.87102 0.61986 0.9061 0.0
C6231 C 0.87123 0.61704 0.89754 0.0
C6232 C 0.87625 0.6098 0.89555 0.0
C6233 C 0.881 0.60558 0.90192 0.0
C6234 C 0.85774 0.62163 0.87763 0.0
C6235 C 0.85723 0.63065 0.87767 0.0
C6236 C 0.86222 0.61723 0.88406 0.0
C6237 C 0.86633 0.62171 0.89073 0.0
C6238 C 0.86576 0.63073 0.89079 0.0
C6239 C 0.86128 0.63512 0.88437 0.0
H6240 H 0.34911 0.91618 0.15958 0.0
H6241 H 0.3687 0.89669 0.15801 0.0
H6242 H 0.35651 0.9245 0.14858 0.0
H6243 H 0.37609 0.905 0.14704 0.0
H6244 H 0.39189 0.92588 0.13406 0.0
H6245 H 0.3843 0.91799 0.14522 0.0
H6246 H 0.36014 0.92464 0.1335 0.0
H6247 H 0.36772 0.93279 0.12251 0.0
C6248 C 0.35494 0.91361 0.15683 0.0
C6249 C 0.3583 0.90575 0.15974 0.0
C6250 C 0.3592 0.9184 0.15052 0.0
C6251 C 0.36695 0.91547 0.14693 0.0
C6252 C 0.37024 0.90756 0.14977 0.0
C6253 C 0.36598 0.90278 0.15607 0.0
C6254 C 0.38496 0.92577 0.13392 0.0
C6255 C 0.38044 0.92999 0.12735 0.0
C6256 C 0.38059 0.92114 0.14027 0.0
C6257 C 0.37158 0.9206 0.14026 0.0
C6258 C 0.36706 0.92494 0.13377 0.0
C6259 C 0.37143 0.92955 0.1274 0.0
H6260 H 0.17674 0.14192 0.65272 0.0
H6261 H 0.18288 0.11772 0.66468 0.0
H6262 H 0.16887 0.13439 0.64154 0.0
H6263 H 0.17503 0.11017 0.65348 0.0
H6264 H 0.15245 0.10029 0.63722 0.0
H6265 H 0.16071 0.10759 0.6483 0.0
H6266 H 0.17061 0.12519 0.62934 0.0
H6267 H 0.16235 0.11792 0.61829 0.0
C6268 C 0.17652 0.13499 0.65291 0.0
C6269 C 0.18047 0.13046 0.65964 0.0
C6270 C 0.17198 0.13065 0.64649 0.0
C6271 C 0.17128 0.12164 0.64657 0.0
C6272 C 0.1753 0.11711 0.65326 0.0
C6273 C 0.17982 0.12145 0.65969 0.0
C6274 C 0.15645 0.10566 0.63539 0.0
C6275 C 0.15666 0.10852 0.62684 0.0
C6276 C 0.16121 0.10986 0.64176 0.0
C6277 C 0.16633 0.11703 0.63976 0.0
C6278 C 0.16662 0.11981 0.63118 0.0
C6279 C 0.16187 0.11562 0.62482 0.0
H6280 H 0.18821 0.91662 0.87779 0.0
H6281 H 0.16906 0.89675 0.88 0.0
H6282 H 0.1808 0.92496 0.88876 0.0
H6283 H 0.16166 0.90507 0.89093 0.0
H6284 H 0.14556 0.9259 0.90359 0.0
H6285 H 0.1532 0.91795 0.89253 0.0
H6286 H 0.17733 0.92527 0.90392 0.0
H6287 H 0.16969 0.93347 0.91482 0.0
C6288 C 0.18248 0.91397 0.88067 0.0
C6289 C 0.17923 0.906 0.87794 0.0
C6290 C 0.17821 0.91877 0.88697 0.0
C6291 C 0.17058 0.91574 0.89072 0.0
C6292 C 0.16741 0.90772 0.88808 0.0
C6293 C 0.17167 0.90292 0.88179 0.0
C6294 C 0.1525 0.92592 0.90368 0.0
C6295 C 0.15698 0.93035 0.91013 0.0
C6296 C 0.15689 0.92126 0.89739 0.0
C6297 C 0.16591 0.9209 0.89733 0.0
C6298 C 0.1704 0.92543 0.9037 0.0
C6299 C 0.166 0.93007 0.91002 0.0
H6300 H 0.68851 0.41648 0.37813 0.0
H6301 H 0.66901 0.3969 0.37986 0.0
H6302 H 0.68114 0.42477 0.38915 0.0
H6303 H 0.66164 0.40519 0.39084 0.0
H6304 H 0.6458 0.42609 0.40373 0.0
H6305 H 0.65339 0.41817 0.3926 0.0
H6306 H 0.67756 0.42491 0.40427 0.0
H6307 H 0.66997 0.43308 0.41523 0.0
C6308 C 0.68271 0.41388 0.38092 0.0
C6309 C 0.67936 0.40601 0.37804 0.0
C6310 C 0.67846 0.41866 0.38724 0.0
C6311 C 0.67074 0.4157 0.39088 0.0
C6312 C 0.66746 0.40777 0.38808 0.0
C6313 C 0.67171 0.403 0.38177 0.0
C6314 C 0.65274 0.42599 0.40386 0.0
C6315 C 0.65725 0.43025 0.41041 0.0
C6316 C 0.6571 0.42135 0.39753 0.0
C6317 C 0.66611 0.42083 0.39753 0.0
C6318 C 0.67063 0.4252 0.404 0.0
C6319 C 0.66626 0.42982 0.41035 0.0
H6320 H 0.86979 0.43563 0.6244 0.0
H6321 H 0.89297 0.42359 0.63353 0.0
H6322 H 0.86161 0.42832 0.63559 0.0
H6323 H 0.88477 0.41607 0.64449 0.0
H6324 H 0.86926 0.41059 0.66858 0.0
H6325 H 0.87713 0.41845 0.65764 0.0
H6326 H 0.85652 0.41418 0.6397 0.0
H6327 H 0.84846 0.40658 0.65077 0.0
C6328 C 0.87316 0.43146 0.62881 0.0
C6329 C 0.88206 0.43022 0.62804 0.0
C6330 C 0.86844 0.42718 0.63517 0.0
C6331 C 0.8725 0.42157 0.64096 0.0
C6332 C 0.88142 0.42039 0.64022 0.0
C6333 C 0.88612 0.42465 0.63386 0.0
C6334 C 0.86633 0.4114 0.66234 0.0
C6335 C 0.85818 0.40795 0.66061 0.0
C6336 C 0.87092 0.41584 0.65602 0.0
C6337 C 0.8675 0.41695 0.64775 0.0
C6338 C 0.85933 0.41353 0.64601 0.0
C6339 C 0.85474 0.40908 0.65234 0.0
H6340 H 0.66921 0.62677 0.16951 0.0
H6341 H 0.68808 0.6349 0.15095 0.0
H6342 H 0.66192 0.61846 0.1585 0.0
H6343 H 0.68077 0.62659 0.13991 0.0
H6344 H 0.67 0.60436 0.12399 0.0
H6345 H 0.67756 0.61222 0.13518 0.0
H6346 H 0.65332 0.62023 0.14588 0.0
H6347 H 0.64578 0.61234 0.13472 0.0
C6348 C 0.67178 0.62685 0.16306 0.0
C6349 C 0.67923 0.63158 0.16114 0.0
C6350 C 0.66758 0.62207 0.15673 0.0
C6351 C 0.6707 0.62186 0.14827 0.0
C6352 C 0.67822 0.62649 0.14636 0.0
C6353 C 0.68243 0.63128 0.15271 0.0
C6354 C 0.66628 0.60783 0.1287 0.0
C6355 C 0.65726 0.60769 0.12842 0.0
C6356 C 0.67062 0.61236 0.13513 0.0
C6357 C 0.66608 0.6169 0.14146 0.0
C6358 C 0.65706 0.61671 0.14121 0.0
C6359 C 0.65272 0.61217 0.1348 0.0
H6360 H 0.61895 0.6611 0.91953 0.0
H6361 H 0.63679 0.65666 0.94021 0.0
H6362 H 0.62993 0.66892 0.91169 0.0
H6363 H 0.64791 0.66423 0.93219 0.0
H6364 H 0.66338 0.68565 0.91906 0.0
H6365 H 0.65215 0.67839 0.92722 0.0
H6366 H 0.64303 0.66645 0.90398 0.0
H6367 H 0.65404 0.67392 0.89581 0.0
C6368 C 0.6252 0.66181 0.92244 0.0
C6369 C 0.62693 0.65825 0.93055 0.0
C6370 C 0.63156 0.66622 0.91788 0.0
C6371 C 0.63985 0.66721 0.92127 0.0
C6372 C 0.64159 0.66368 0.9294 0.0
C6373 C 0.63522 0.65924 0.93396 0.0
C6374 C 0.65891 0.68156 0.91567 0.0
C6375 C 0.65964 0.68039 0.90676 0.0
C6376 C 0.65253 0.6773 0.92037 0.0
C6377 C 0.64666 0.6718 0.91629 0.0
C6378 C 0.64736 0.6707 0.90736 0.0
C6379 C 0.65375 0.67492 0.90267 0.0
H6380 H 0.60971 0.40232 0.147 0.0
H6381 H 0.60549 0.41563 0.17089 0.0
H6382 H 0.61737 0.39105 0.15464 0.0
H6383 H 0.61314 0.40434 0.17853 0.0
H6384 H 0.63541 0.38731 0.18793 0.0
H6385 H 0.6273 0.39851 0.1806 0.0
H6386 H 0.6155 0.37936 0.16448 0.0
H6387 H 0.62361 0.3682 0.17178 0.0
C6388 C 0.61031 0.4028 0.1539 0.0
C6389 C 0.60696 0.40992 0.1583 0.0
C6390 C 0.61472 0.39632 0.1583 0.0
C6391 C 0.61591 0.39675 0.16723 0.0
C6392 C 0.61249 0.40384 0.17165 0.0
C6393 C 0.60808 0.41032 0.16725 0.0
C6394 C 0.63102 0.38547 0.18288 0.0
C6395 C 0.63023 0.37683 0.18044 0.0
C6396 C 0.62635 0.39191 0.17867 0.0
C6397 C 0.62075 0.38988 0.17189 0.0
C6398 C 0.61987 0.38121 0.16954 0.0
C6399 C 0.62454 0.37479 0.17374 0.0
H6400 H 0.87027 0.37055 0.40826 0.0
H6401 H 0.88448 0.34686 0.41013 0.0
H6402 H 0.8816 0.37799 0.41596 0.0
H6403 H 0.89584 0.35433 0.41785 0.0
H6404 H 0.91847 0.37247 0.42321 0.0
H6405 H 0.90707 0.36475 0.41588 0.0
H6406 H 0.88818 0.37938 0.42985 0.0
H6407 H 0.89961 0.38735 0.43694 0.0
C6408 C 0.87576 0.36689 0.41039 0.0
C6409 C 0.8764 0.35807 0.40857 0.0
C6410 C 0.88228 0.37117 0.41483 0.0
C6411 C 0.88966 0.36678 0.41758 0.0
C6412 C 0.89032 0.35796 0.41574 0.0
C6413 C 0.88379 0.35367 0.4113 0.0
C6414 C 0.91189 0.3741 0.42469 0.0
C6415 C 0.91 0.38061 0.43065 0.0
C6416 C 0.90533 0.36958 0.42054 0.0
C6417 C 0.89666 0.37142 0.42223 0.0
C6418 C 0.89476 0.37784 0.42829 0.0
C6419 C 0.90133 0.38236 0.43245 0.0
H6420 H 0.9207 0.66479 0.68331 0.0
H6421 H 0.89649 0.65341 0.67625 0.0
H6422 H 0.92825 0.65379 0.67516 0.0
H6423 H 0.90404 0.64223 0.66837 0.0
H6424 H 0.91963 0.62947 0.64709 0.0
H6425 H 0.91228 0.64043 0.65542 0.0
H6426 H 0.9318 0.63868 0.67496 0.0
H6427 H 0.93916 0.62769 0.66661 0.0
C6428 C 0.91698 0.65993 0.68004 0.0
C6429 C 0.90796 0.66004 0.68043 0.0
C6430 C 0.92132 0.65356 0.67543 0.0
C6431 C 0.91678 0.64711 0.67106 0.0
C6432 C 0.90777 0.64715 0.67155 0.0
C6433 C 0.90342 0.65351 0.67617 0.0
C6434 C 0.92234 0.63137 0.65319 0.0
C6435 C 0.92999 0.62763 0.65617 0.0
C6436 C 0.9181 0.63766 0.65799 0.0
C6437 C 0.92139 0.64044 0.66591 0.0
C6438 C 0.92911 0.63679 0.66885 0.0
C6439 C 0.93335 0.63048 0.66404 0.0
H6440 H 0.6345 0.3916 0.60997 0.0
H6441 H 0.62164 0.36756 0.60512 0.0
H6442 H 0.64566 0.38402 0.61785 0.0
H6443 H 0.63265 0.36001 0.61327 0.0
H6444 H 0.65869 0.34846 0.62129 0.0
H6445 H 0.6476 0.35576 0.613 0.0
H6446 H 0.64764 0.37655 0.63127 0.0
H6447 H 0.65867 0.36926 0.63954 0.0
C6448 C 0.63407 0.38469 0.61053 0.0
C6449 C 0.62714 0.38022 0.60689 0.0
C6450 C 0.64043 0.38034 0.61516 0.0
C6451 C 0.64006 0.37139 0.61627 0.0
C6452 C 0.6332 0.3669 0.61251 0.0
C6453 C 0.62682 0.37125 0.60791 0.0
C6454 C 0.65627 0.35454 0.6236 0.0
C6455 C 0.65964 0.35826 0.63109 0.0
C6456 C 0.6499 0.35874 0.61883 0.0
C6457 C 0.64674 0.3668 0.62141 0.0
C6458 C 0.65003 0.37045 0.62896 0.0
C6459 C 0.65637 0.36625 0.63373 0.0
H6460 H 0.92087 0.374 0.85255 0.0
H6461 H 0.89669 0.38393 0.86162 0.0
H6462 H 0.92844 0.385 0.86068 0.0
H6463 H 0.90424 0.39512 0.86949 0.0
H6464 H 0.92059 0.40782 0.89022 0.0
H6465 H 0.91321 0.39683 0.88195 0.0
H6466 H 0.93132 0.40023 0.86129 0.0
H6467 H 0.93871 0.41125 0.86957 0.0
C6468 C 0.91716 0.37854 0.85626 0.0
C6469 C 0.90815 0.37803 0.85643 0.0
C6470 C 0.9215 0.38492 0.86086 0.0
C6471 C 0.91698 0.39097 0.86579 0.0
C6472 C 0.90796 0.39052 0.86587 0.0
C6473 C 0.90361 0.38415 0.86125 0.0
C6474 C 0.92298 0.40628 0.88388 0.0
C6475 C 0.93025 0.41048 0.88057 0.0
C6476 C 0.91873 0.39996 0.87912 0.0
C6477 C 0.92161 0.39764 0.8709 0.0
C6478 C 0.92895 0.40176 0.86763 0.0
C6479 C 0.93321 0.40809 0.8724 0.0
H6480 H 0.88085 0.67244 0.14059 0.0
H6481 H 0.87621 0.68833 0.1184 0.0
H6482 H 0.89194 0.66471 0.13273 0.0
H6483 H 0.88713 0.68044 0.11046 0.0
H6484 H 0.91355 0.67027 0.10199 0.0
H6485 H 0.90259 0.67821 0.10984 0.0
H6486 H 0.89343 0.65455 0.12095 0.0
H6487 H 0.90454 0.64665 0.11329 0.0
C6488 C 0.88222 0.67432 0.13405 0.0
C6489 C 0.87762 0.68104 0.13015 0.0
C6490 C 0.88852 0.66981 0.1295 0.0
C6491 C 0.89043 0.67191 0.12093 0.0
C6492 C 0.88589 0.67868 0.11706 0.0
C6493 C 0.87956 0.68316 0.1216 0.0
C6494 C 0.90923 0.66676 0.10614 0.0
C6495 C 0.90996 0.6578 0.107 0.0
C6496 C 0.90288 0.67131 0.11059 0.0
C6497 C 0.89712 0.66704 0.11606 0.0
C6498 C 0.89782 0.65808 0.11688 0.0
C6499 C 0.90413 0.65352 0.11239 0.0
H6500 H 0.59984 0.63793 0.38598 0.0
H6501 H 0.61492 0.61911 0.3724 0.0
H6502 H 0.60697 0.64937 0.37801 0.0
H6503 H 0.62227 0.63054 0.3647 0.0
H6504 H 0.62827 0.65275 0.34644 0.0
H6505 H 0.62047 0.64138 0.35385 0.0
H6506 H 0.62071 0.65638 0.3771 0.0
H6507 H 0.6285 0.66772 0.36971 0.0
C6508 C 0.60465 0.63622 0.38127 0.0
C6509 C 0.60681 0.62757 0.37989 0.0
C6510 C 0.60882 0.6428 0.37676 0.0
C6511 C 0.61525 0.64092 0.37071 0.0
C6512 C 0.61731 0.63226 0.36924 0.0
C6513 C 0.61316 0.62569 0.37375 0.0
C6514 C 0.62672 0.65361 0.35315 0.0
C6515 C 0.62902 0.6612 0.35744 0.0
C6516 C 0.62223 0.64707 0.35741 0.0
C6517 C 0.61991 0.64794 0.36609 0.0
C6518 C 0.62222 0.65553 0.37038 0.0
C6519 C 0.6267 0.66205 0.36613 0.0
H6520 H 0.67044 0.89793 0.65766 0.0
H6521 H 0.68912 0.91816 0.66048 0.0
H6522 H 0.66306 0.90627 0.64672 0.0
H6523 H 0.68173 0.92651 0.6495 0.0
H6524 H 0.67097 0.93522 0.62338 0.0
H6525 H 0.67856 0.92701 0.63431 0.0
H6526 H 0.65436 0.91896 0.64508 0.0
H6527 H 0.64678 0.92692 0.63398 0.0
C6528 C 0.67295 0.90418 0.656 0.0
C6529 C 0.68038 0.90736 0.66002 0.0
C6530 C 0.6687 0.90898 0.64971 0.0
C6531 C 0.67174 0.91711 0.64723 0.0
C6532 C 0.67924 0.92025 0.65115 0.0
C6533 C 0.6835 0.91544 0.65746 0.0
C6534 C 0.66726 0.93166 0.62804 0.0
C6535 C 0.65824 0.93173 0.62774 0.0
C6536 C 0.67162 0.92701 0.63438 0.0
C6537 C 0.6671 0.92227 0.64059 0.0
C6538 C 0.65808 0.92243 0.64035 0.0
C6539 C 0.65372 0.9271 0.63403 0.0
H6540 H 0.407 0.39227 0.11775 0.0
H6541 H 0.41076 0.37151 0.09984 0.0
H6542 H 0.39611 0.3839 0.12517 0.0
H6543 H 0.39982 0.36313 0.10727 0.0
H6544 H 0.3737 0.35411 0.1179 0.0
H6545 H 0.38455 0.36236 0.1102 0.0
H6546 H 0.39472 0.37142 0.13427 0.0
H6547 H 0.38371 0.36342 0.14195 0.0
C6548 C 0.40555 0.38589 0.11541 0.0
C6549 C 0.40983 0.38257 0.1082 0.0
C6550 C 0.39929 0.38107 0.11969 0.0
C6551 C 0.3971 0.37279 0.11688 0.0
C6552 C 0.40127 0.36951 0.10958 0.0
C6553 C 0.40755 0.37433 0.1053 0.0
C6554 C 0.37822 0.3579 0.12156 0.0
C6555 C 0.37779 0.35809 0.13057 0.0
C6556 C 0.38451 0.36257 0.11713 0.0
C6557 C 0.39052 0.36761 0.12159 0.0
C6558 C 0.39014 0.36772 0.1306 0.0
C6559 C 0.38388 0.36303 0.13503 0.0
H6560 H 0.42385 0.63477 0.89275 0.0
H6561 H 0.43465 0.62475 0.86933 0.0
H6562 H 0.41629 0.64573 0.88459 0.0
H6563 H 0.42732 0.63592 0.86118 0.0
H6564 H 0.40546 0.65133 0.84855 0.0
H6565 H 0.41311 0.64027 0.85657 0.0
H6566 H 0.41865 0.65862 0.87652 0.0
H6567 H 0.41074 0.66955 0.86869 0.0
C6568 C 0.42463 0.6349 0.88586 0.0
C6569 C 0.42986 0.62883 0.88172 0.0
C6570 C 0.42035 0.64126 0.88117 0.0
C6571 C 0.42117 0.64175 0.8722 0.0
C6572 C 0.42645 0.63571 0.86806 0.0
C6573 C 0.43075 0.62935 0.87276 0.0
C6574 C 0.40825 0.65299 0.85468 0.0
C6575 C 0.40746 0.66137 0.85794 0.0
C6576 C 0.41274 0.64666 0.85924 0.0
C6577 C 0.41653 0.64852 0.86721 0.0
C6578 C 0.41575 0.6569 0.87046 0.0
C6579 C 0.41129 0.66322 0.8659 0.0
H6580 H 0.12349 0.67013 0.60395 0.0
H6581 H 0.13326 0.64596 0.61327 0.0
H6582 H 0.13441 0.67773 0.61218 0.0
H6583 H 0.14434 0.65353 0.62126 0.0
H6584 H 0.1568 0.66996 0.64204 0.0
H6585 H 0.14585 0.66262 0.6337 0.0
H6586 H 0.1497 0.6805 0.61291 0.0
H6587 H 0.1607 0.68785 0.62126 0.0
C6588 C 0.12797 0.66642 0.60774 0.0
C6589 C 0.12745 0.65741 0.60795 0.0
C6590 C 0.1343 0.67079 0.6124 0.0
C6591 C 0.14027 0.66626 0.61743 0.0
C6592 C 0.1398 0.65725 0.61756 0.0
C6593 C 0.1335 0.65289 0.61288 0.0
C6594 C 0.15537 0.67231 0.63567 0.0
C6595 C 0.1597 0.6795 0.63234 0.0
C6596 C 0.14908 0.66808 0.63087 0.0
C6597 C 0.1469 0.67091 0.62259 0.0
C6598 C 0.15113 0.67818 0.61929 0.0
C6599 C 0.15744 0.68241 0.6241 0.0
H6600 H 0.13214 0.38735 0.34841 0.0
H6601 H 0.12696 0.36924 0.36871 0.0
H6602 H 0.12456 0.39847 0.35642 0.0
H6603 H 0.11914 0.38022 0.37654 0.0
H6604 H 0.11392 0.40416 0.3926 0.0
H6605 H 0.12154 0.39321 0.38449 0.0
H6606 H 0.11031 0.40275 0.36106 0.0
H6607 H 0.10291 0.4139 0.36916 0.0
C6608 C 0.12939 0.38573 0.35457 0.0
C6609 C 0.13018 0.37736 0.35788 0.0
C6610 C 0.12495 0.39209 0.35913 0.0
C6611 C 0.12121 0.39027 0.36715 0.0
C6612 C 0.122 0.38191 0.37044 0.0
C6613 C 0.12641 0.37556 0.36589 0.0
C6614 C 0.11312 0.40398 0.38571 0.0
C6615 C 0.10779 0.40996 0.38156 0.0
C6616 C 0.11743 0.39762 0.38106 0.0
C6617 C 0.11656 0.39706 0.3721 0.0
C6618 C 0.11121 0.40302 0.36793 0.0
C6619 C 0.10688 0.40937 0.3726 0.0
H6620 H 0.41459 0.67067 0.4328 0.0
H6621 H 0.40343 0.64648 0.4253 0.0
H6622 H 0.40363 0.67828 0.42464 0.0
H6623 H 0.3923 0.65408 0.4174 0.0
H6624 H 0.37963 0.66993 0.39624 0.0
H6625 H 0.39057 0.66252 0.40454 0.0
H6626 H 0.38851 0.68171 0.42437 0.0
H6627 H 0.37754 0.68914 0.41605 0.0
C6628 C 0.40979 0.66696 0.42943 0.0
C6629 C 0.40994 0.65794 0.42971 0.0
C6630 C 0.40344 0.67134 0.42481 0.0
C6631 C 0.39707 0.66681 0.42031 0.0
C6632 C 0.39716 0.65779 0.42068 0.0
C6633 C 0.40349 0.65342 0.42532 0.0
C6634 C 0.38145 0.67256 0.4024 0.0
C6635 C 0.37764 0.68014 0.40546 0.0
C6636 C 0.38774 0.66828 0.40718 0.0
C6637 C 0.39042 0.67146 0.41518 0.0
C6638 C 0.3867 0.67911 0.4182 0.0
C6639 C 0.3804 0.68339 0.41341 0.0
H6640 H 0.1258 0.66982 0.17023 0.0
H6641 H 0.13399 0.65063 0.18844 0.0
H6642 H 0.11783 0.65896 0.16238 0.0
H6643 H 0.12629 0.63968 0.18035 0.0
H6644 H 0.10467 0.62364 0.16849 0.0
H6645 H 0.11204 0.63471 0.17674 0.0
H6646 H 0.12014 0.64685 0.1532 0.0
H6647 H 0.11252 0.63598 0.14498 0.0
C6648 C 0.12588 0.66329 0.1726 0.0
C6649 C 0.13055 0.66115 0.18002 0.0
C6650 C 0.12138 0.65702 0.16801 0.0
C6651 C 0.12141 0.6484 0.17069 0.0
C6652 C 0.12604 0.64625 0.17813 0.0
C6653 C 0.13055 0.65253 0.18273 0.0
C6654 C 0.10793 0.62873 0.16507 0.0
C6655 C 0.10798 0.62889 0.15605 0.0
C6656 C 0.11226 0.63503 0.16981 0.0
C6657 C 0.11672 0.64169 0.16566 0.0
C6658 C 0.11671 0.64188 0.15664 0.0
C6659 C 0.11241 0.63558 0.15191 0.0
H6660 H 0.13368 0.39276 0.9231 0.0
H6661 H 0.12475 0.36944 0.93509 0.0
H6662 H 0.14464 0.38466 0.91549 0.0
H6663 H 0.13594 0.36137 0.92769 0.0
H6664 H 0.15108 0.34839 0.90588 0.0
H6665 H 0.13999 0.35636 0.91353 0.0
H6666 H 0.15785 0.37708 0.91777 0.0
H6667 H 0.1688 0.36929 0.90987 0.0
C6668 C 0.13405 0.3859 0.92412 0.0
C6669 C 0.12829 0.38178 0.92971 0.0
C6670 C 0.14042 0.38125 0.91982 0.0
C6671 C 0.14121 0.37233 0.92096 0.0
C6672 C 0.13548 0.36821 0.92658 0.0
C6673 C 0.12912 0.37286 0.93091 0.0
C6674 C 0.15263 0.35468 0.90838 0.0
C6675 C 0.16087 0.35816 0.90723 0.0
C6676 C 0.14629 0.35922 0.91286 0.0
C6677 C 0.148 0.36739 0.91629 0.0
C6678 C 0.15625 0.37086 0.91515 0.0
C6679 C 0.16258 0.36632 0.9107 0.0
H6680 H 0.41034 0.37021 0.66892 0.0
H6681 H 0.40399 0.38807 0.68908 0.0
H6682 H 0.41838 0.38137 0.66154 0.0
H6683 H 0.41232 0.39918 0.68184 0.0
H6684 H 0.4195 0.41934 0.66147 0.0
H6685 H 0.41179 0.40821 0.66925 0.0
H6686 H 0.4313 0.38984 0.66233 0.0
H6687 H 0.43904 0.40099 0.65456 0.0
C6688 C 0.41065 0.37652 0.67179 0.0
C6689 C 0.40644 0.37822 0.6796 0.0
C6690 C 0.41537 0.38291 0.6676 0.0
C6691 C 0.41603 0.39121 0.67107 0.0
C6692 C 0.41189 0.3929 0.67891 0.0
C6693 C 0.40718 0.38649 0.68312 0.0
C6694 C 0.42223 0.41296 0.66169 0.0
C6695 C 0.42994 0.41111 0.65737 0.0
C6696 C 0.41778 0.40655 0.66616 0.0
C6697 C 0.4209 0.39809 0.66645 0.0
C6698 C 0.42862 0.39624 0.66216 0.0
C6699 C 0.43307 0.40265 0.65769 0.0
H6700 H 0.35474 0.11812 0.37269 0.0
H6701 H 0.36076 0.14216 0.38501 0.0
H6702 H 0.36246 0.11042 0.38389 0.0
H6703 H 0.3685 0.13448 0.39618 0.0
H6704 H 0.37485 0.11778 0.41929 0.0
H6705 H 0.36663 0.12513 0.40825 0.0
H6706 H 0.37673 0.10777 0.3892 0.0
H6707 H 0.38495 0.1004 0.40029 0.0
C6708 C 0.35774 0.12178 0.37776 0.0
C6709 C 0.3571 0.13079 0.37791 0.0
C6710 C 0.3622 0.11735 0.38419 0.0
C6711 C 0.36615 0.1218 0.39097 0.0
C6712 C 0.36544 0.1308 0.39116 0.0
C6713 C 0.36098 0.13523 0.38473 0.0
C6714 C 0.37538 0.11556 0.41274 0.0
C6715 C 0.38063 0.10851 0.4107 0.0
C6716 C 0.37065 0.11978 0.40639 0.0
C6717 C 0.37102 0.1171 0.39779 0.0
C6718 C 0.37618 0.10997 0.39576 0.0
C6719 C 0.38091 0.10573 0.40213 0.0
loop_
_geom_bond_atom_site_label_1
_geom_bond_atom_site_label_2
_geom_bond_distance
_geom_bond_site_symmetry_2
_ccdc_geom_bond_type
C0 C1 1.264 . S
C0 C5 1.479 . S
C0 C10 1.465 . S
C1 C0 1.264 . S
C1 C3 1.339 . S
C1 H28 0.931 . S
C2 C3 1.395 . S
C2 C4 1.320 . S
C3 C1 1.339 . S
C3 C2 1.395 . S
C3 H29 0.929 . S
C4 C2 1.320 . S
C4 C5 1.405 . S
C4 H30 0.930 . S
C5 C0 1.479 . S
C5 C4 1.405 . S
C5 H31 0.931 . S
U6 O7 2.454 . S
U6 O8 2.458 . S
U6 C9 2.984 . S
U6 C10 2.847 . S
U6 C23 2.882 . S
U6 O24 2.441 . S
U6 O25 2.420 . S
U6 O26 2.455 . S
U6 O27 2.449 . S
O7 U6 2.454 . S
O7 C9 1.353 . S
O8 U6 2.458 . S
O8 C9 1.286 . S
C9 U6 2.984 . S
C9 O7 1.353 . S
C9 O8 1.286 . S
C9 C11 1.363 . S
C10 C0 1.465 . S
C10 U6 2.847 . S
C10 O24 1.249 . S
C10 O25 1.202 . S
C11 C9 1.363 . S
C11 C13 1.408 . S
C11 C16 1.342 . S
C12 C13 1.310 . S
C12 C15 1.461 . S
C12 H32 0.932 . S
C13 C11 1.408 . S
C13 C12 1.310 . S
C13 H33 0.930 . S
C14 C15 1.474 . S
C14 C16 1.285 . S
C14 H34 0.929 . S
C15 C12 1.461 . S
C15 C14 1.474 . S
C16 C11 1.342 . S
C16 C14 1.285 . S
C16 H35 0.930 . S
C17 C20 1.424 . S
C17 C22 1.245 . S
C17 C23 1.428 . S
C18 C21 1.260 . S
C18 C22 1.477 . S
C18 H36 0.932 . S
C19 C20 1.384 . S
C19 C21 1.479 . S
C19 H37 0.929 . S
C20 C17 1.424 . S
C20 C19 1.384 . S
C20 H38 0.928 . S
C21 C18 1.260 . S
C21 C19 1.479 . S
C22 C17 1.245 . S
C22 C18 1.477 . S
C22 H39 0.932 . S
C23 U6 2.882 . S
C23 C17 1.428 . S
C23 O26 1.301 . S
C23 O27 1.282 . S
O24 U6 2.441 . S
O24 C10 1.249 . S
O25 U6 2.420 . S
O25 C10 1.202 . S
O26 U6 2.455 . S
O26 C23 1.301 . S
O27 U6 2.449 . S
O27 C23 1.282 . S
H28 C1 0.931 . S
H29 C3 0.929 . S
H30 C4 0.930 . S
H31 C5 0.931 . S
H32 C12 0.932 . S
H33 C13 0.930 . S
H34 C14 0.929 . S
H35 C16 0.930 . S
H36 C18 0.932 . S
H37 C19 0.929 . S
H38 C20 0.928 . S
H39 C22 0.932 . S
C40 C41 1.264 . S
C40 C45 1.479 . S
C40 C50 1.465 . S
C41 C40 1.264 . S
C41 C43 1.339 . S
C41 H68 0.931 . S
C42 C43 1.395 . S
C42 C44 1.320 . S
C43 C41 1.339 . S
C43 C42 1.395 . S
C43 H69 0.929 . S
C44 C42 1.320 . S
C44 C45 1.405 . S
C44 H70 0.930 . S
C45 C40 1.479 . S
C45 C44 1.405 . S
C45 H71 0.931 . S
U46 O47 2.454 . S
U46 O48 2.458 . S
U46 C49 2.984 . S
U46 C50 2.847 . S
U46 C63 2.882 . S
U46 O64 2.441 . S
U46 O65 2.420 . S
U46 O66 2.455 . S
U46 O67 2.449 . S
O47 U46 2.454 . S
O47 C49 1.353 . S
O48 U46 2.458 . S
O48 C49 1.286 . S
C49 U46 2.984 . S
C49 O47 1.353 . S
C49 O48 1.286 . S
C49 C51 1.363 . S
C50 C40 1.465 . S
C50 U46 2.847 . S
C50 O64 1.249 . S
C50 O65 1.202 . S
C51 C49 1.363 . S
C51 C53 1.408 . S
C51 C56 1.342 . S
C52 C53 1.310 . S
C52 C55 1.461 . S
C52 H72 0.932 . S
C53 C51 1.408 . S
C53 C52 1.310 . S
C53 H73 0.930 . S
C54 C55 1.474 . S
C54 C56 1.285 . S
C54 H74 0.929 . S
C55 C52 1.461 . S
C55 C54 1.474 . S
C56 C51 1.342 . S
C56 C54 1.285 . S
C56 H75 0.930 . S
C57 C60 1.424 . S
C57 C62 1.245 . S
C57 C63 1.428 . S
C58 C61 1.260 . S
C58 C62 1.477 . S
C58 H76 0.932 . S
C59 C60 1.384 . S
C59 C61 1.479 . S
C59 H77 0.929 . S
C60 C57 1.424 . S
C60 C59 1.384 . S
C60 H78 0.928 . S
C61 C58 1.260 . S
C61 C59 1.479 . S
C62 C57 1.245 . S
C62 C58 1.477 . S
C62 H79 0.932 . S
C63 U46 2.882 . S
C63 C57 1.428 . S
C63 O66 1.301 . S
C63 O67 1.282 . S
O64 U46 2.441 . S
O64 C50 1.249 . S
O65 U46 2.420 . S
O65 C50 1.202 . S
O66 U46 2.455 . S
O66 C63 1.301 . S
O67 U46 2.449 . S
O67 C63 1.282 . S
H68 C41 0.931 . S
H69 C43 0.929 . S
H70 C44 0.930 . S
H71 C45 0.931 . S
H72 C52 0.932 . S
H73 C53 0.930 . S
H74 C54 0.929 . S
H75 C56 0.930 . S
H76 C58 0.932 . S
H77 C59 0.929 . S
H78 C60 0.928 . S
H79 C62 0.932 . S
C80 C81 1.264 . S
C80 C85 1.479 . S
C80 C90 1.465 . S
C81 C80 1.264 . S
C81 C83 1.339 . S
C81 H108 0.931 . S
C82 C83 1.395 . S
C82 C84 1.320 . S
C83 C81 1.339 . S
C83 C82 1.395 . S
C83 H109 0.929 . S
C84 C82 1.320 . S
C84 C85 1.405 . S
C84 H110 0.930 . S
C85 C80 1.479 . S
C85 C84 1.405 . S
C85 H111 0.931 . S
U86 O87 2.454 . S
U86 O88 2.458 . S
U86 C89 2.984 . S
U86 C90 2.847 . S
U86 C103 2.882 . S
U86 O104 2.441 . S
U86 O105 2.420 . S
U86 O106 2.455 . S
U86 O107 2.449 . S
O87 U86 2.454 . S
O87 C89 1.353 . S
O88 U86 2.458 . S
O88 C89 1.286 . S
C89 U86 2.984 . S
C89 O87 1.353 . S
C89 O88 1.286 . S
C89 C91 1.363 . S
C90 C80 1.465 . S
C90 U86 2.847 . S
C90 O104 1.249 . S
C90 O105 1.202 . S
C91 C89 1.363 . S
C91 C93 1.408 . S
C91 C96 1.342 . S
C92 C93 1.310 . S
C92 C95 1.461 . S
C92 H112 0.932 . S
C93 C91 1.408 . S
C93 C92 1.310 . S
C93 H113 0.930 . S
C94 C95 1.474 . S
C94 C96 1.285 . S
C94 H114 0.929 . S
C95 C92 1.461 . S
C95 C94 1.474 . S
C96 C91 1.342 . S
C96 C94 1.285 . S
C96 H115 0.930 . S
C97 C100 1.424 . S
C97 C102 1.245 . S
C97 C103 1.428 . S
C98 C101 1.260 . S
C98 C102 1.477 . S
C98 H116 0.932 . S
C99 C100 1.384 . S
C99 C101 1.479 . S
C99 H117 0.929 . S
C100 C97 1.424 . S
C100 C99 1.384 . S
C100 H118 0.928 . S
C101 C98 1.260 . S
C101 C99 1.479 . S
C102 C97 1.245 . S
C102 C98 1.477 . S
C102 H119 0.932 . S
C103 U86 2.882 . S
C103 C97 1.428 . S
C103 O106 1.301 . S
C103 O107 1.282 . S
O104 U86 2.441 . S
O104 C90 1.249 . S
O105 U86 2.420 . S
O105 C90 1.202 . S
O106 U86 2.455 . S
O106 C103 1.301 . S
O107 U86 2.449 . S
O107 C103 1.282 . S
H108 C81 0.931 . S
H109 C83 0.929 . S
H110 C84 0.930 . S
H111 C85 0.931 . S
H112 C92 0.932 . S
H113 C93 0.930 . S
H114 C94 0.929 . S
H115 C96 0.930 . S
H116 C98 0.932 . S
H117 C99 0.929 . S
H118 C100 0.928 . S
H119 C102 0.932 . S
C120 C121 1.264 . S
C120 C125 1.479 . S
C120 C130 1.465 . S
C121 C120 1.264 . S
C121 C123 1.339 . S
C121 H148 0.931 . S
C122 C123 1.395 . S
C122 C124 1.320 . S
C123 C121 1.339 . S
C123 C122 1.395 . S
C123 H149 0.929 . S
C124 C122 1.320 . S
C124 C125 1.405 . S
C124 H150 0.930 . S
C125 C120 1.479 . S
C125 C124 1.405 . S
C125 H151 0.931 . S
U126 O127 2.454 . S
U126 O128 2.458 . S
U126 C129 2.984 . S
U126 C130 2.847 . S
U126 C143 2.882 . S
U126 O144 2.441 . S
U126 O145 2.420 . S
U126 O146 2.455 . S
U126 O147 2.449 . S
O127 U126 2.454 . S
O127 C129 1.353 . S
O128 U126 2.458 . S
O128 C129 1.286 . S
C129 U126 2.984 . S
C129 O127 1.353 . S
C129 O128 1.286 . S
C129 C131 1.363 . S
C130 C120 1.465 . S
C130 U126 2.847 . S
C130 O144 1.249 . S
C130 O145 1.202 . S
C131 C129 1.363 . S
C131 C133 1.408 . S
C131 C136 1.342 . S
C132 C133 1.310 . S
C132 C135 1.461 . S
C132 H152 0.932 . S
C133 C131 1.408 . S
C133 C132 1.310 . S
C133 H153 0.930 . S
C134 C135 1.474 . S
C134 C136 1.285 . S
C134 H154 0.929 . S
C135 C132 1.461 . S
C135 C134 1.474 . S
C136 C131 1.342 . S
C136 C134 1.285 . S
C136 H155 0.930 . S
C137 C140 1.424 . S
C137 C142 1.245 . S
C137 C143 1.428 . S
C138 C141 1.260 . S
C138 C142 1.477 . S
C138 H156 0.932 . S
C139 C140 1.384 . S
C139 C141 1.479 . S
C139 H157 0.929 . S
C140 C137 1.424 . S
C140 C139 1.384 . S
C140 H158 0.928 . S
C141 C138 1.260 . S
C141 C139 1.479 . S
C142 C137 1.245 . S
C142 C138 1.477 . S
C142 H159 0.932 . S
C143 U126 2.882 . S
C143 C137 1.428 . S
C143 O146 1.301 . S
C143 O147 1.282 . S
O144 U126 2.441 . S
O144 C130 1.249 . S
O145 U126 2.420 . S
O145 C130 1.202 . S
O146 U126 2.455 . S
O146 C143 1.301 . S
O147 U126 2.449 . S
O147 C143 1.282 . S
H148 C121 0.931 . S
H149 C123 0.929 . S
H150 C124 0.930 . S
H151 C125 0.931 . S
H152 C132 0.932 . S
H153 C133 0.930 . S
H154 C134 0.929 . S
H155 C136 0.930 . S
H156 C138 0.932 . S
H157 C139 0.929 . S
H158 C140 0.928 . S
H159 C142 0.932 . S
C160 C161 1.264 . S
C160 C165 1.479 . S
C160 C170 1.465 . S
C161 C160 1.264 . S
C161 C163 1.339 . S
C161 H188 0.931 . S
C162 C163 1.395 . S
C162 C164 1.320 . S
C163 C161 1.339 . S
C163 C162 1.395 . S
C163 H189 0.929 . S
C164 C162 1.320 . S
C164 C165 1.405 . S
C164 H190 0.930 . S
C165 C160 1.479 . S
C165 C164 1.405 . S
C165 H191 0.931 . S
U166 O167 2.454 . S
U166 O168 2.458 . S
U166 C169 2.984 . S
U166 C170 2.847 . S
U166 C183 2.882 . S
U166 O184 2.441 . S
U166 O185 2.420 . S
U166 O186 2.455 . S
U166 O187 2.449 . S
O167 U166 2.454 . S
O167 C169 1.353 . S
O168 U166 2.458 . S
O168 C169 1.286 . S
C169 U166 2.984 . S
C169 O167 1.353 . S
C169 O168 1.286 . S
C169 C171 1.363 . S
C170 C160 1.465 . S
C170 U166 2.847 . S
C170 O184 1.249 . S
C170 O185 1.202 . S
C171 C169 1.363 . S
C171 C173 1.408 . S
C171 C176 1.342 . S
C172 C173 1.310 . S
C172 C175 1.461 . S
C172 H192 0.932 . S
C173 C171 1.408 . S
C173 C172 1.310 . S
C173 H193 0.930 . S
C174 C175 1.474 . S
C174 C176 1.285 . S
C174 H194 0.929 . S
C175 C172 1.461 . S
C175 C174 1.474 . S
C176 C171 1.342 . S
C176 C174 1.285 . S
C176 H195 0.930 . S
C177 C180 1.424 . S
C177 C182 1.245 . S
C177 C183 1.428 . S
C178 C181 1.260 . S
C178 C182 1.477 . S
C178 H196 0.932 . S
C179 C180 1.384 . S
C179 C181 1.479 . S
C179 H197 0.929 . S
C180 C177 1.424 . S
C180 C179 1.384 . S
C180 H198 0.928 . S
C181 C178 1.260 . S
C181 C179 1.479 . S
C182 C177 1.245 . S
C182 C178 1.477 . S
C182 H199 0.932 . S
C183 U166 2.882 . S
C183 C177 1.428 . S
C183 O186 1.301 . S
C183 O187 1.282 . S
O184 U166 2.441 . S
O184 C170 1.249 . S
O185 U166 2.420 . S
O185 C170 1.202 . S
O186 U166 2.455 . S
O186 C183 1.301 . S
O187 U166 2.449 . S
O187 C183 1.282 . S
H188 C161 0.931 . S
H189 C163 0.929 . S
H190 C164 0.930 . S
H191 C165 0.931 . S
H192 C172 0.932 . S
H193 C173 0.930 . S
H194 C174 0.929 . S
H195 C176 0.930 . S
H196 C178 0.932 . S
H197 C179 0.929 . S
H198 C180 0.928 . S
H199 C182 0.932 . S
C200 C201 1.264 . S
C200 C205 1.479 . S
C200 C210 1.465 . S
C201 C200 1.264 . S
C201 C203 1.339 . S
C201 H228 0.931 . S
C202 C203 1.395 . S
C202 C204 1.320 . S
C203 C201 1.339 . S
C203 C202 1.395 . S
C203 H229 0.929 . S
C204 C202 1.320 . S
C204 C205 1.405 . S
C204 H230 0.930 . S
C205 C200 1.479 . S
C205 C204 1.405 . S
C205 H231 0.931 . S
U206 O207 2.454 . S
U206 O208 2.458 . S
U206 C209 2.984 . S
U206 C210 2.847 . S
U206 C223 2.882 . S
U206 O224 2.441 . S
U206 O225 2.420 . S
U206 O226 2.455 . S
U206 O227 2.449 . S
O207 U206 2.454 . S
O207 C209 1.353 . S
O208 U206 2.458 . S
O208 C209 1.286 . S
C209 U206 2.984 . S
C209 O207 1.353 . S
C209 O208 1.286 . S
C209 C211 1.363 . S
C210 C200 1.465 . S
C210 U206 2.847 . S
C210 O224 1.249 . S
C210 O225 1.202 . S
C211 C209 1.363 . S
C211 C213 1.408 . S
C211 C216 1.342 . S
C212 C213 1.310 . S
C212 C215 1.461 . S
C212 H232 0.932 . S
C213 C211 1.408 . S
C213 C212 1.310 . S
C213 H233 0.930 . S
C214 C215 1.474 . S
C214 C216 1.285 . S
C214 H234 0.929 . S
C215 C212 1.461 . S
C215 C214 1.474 . S
C216 C211 1.342 . S
C216 C214 1.285 . S
C216 H235 0.930 . S
C217 C220 1.424 . S
C217 C222 1.245 . S
C217 C223 1.428 . S
C218 C221 1.260 . S
C218 C222 1.477 . S
C218 H236 0.932 . S
C219 C220 1.384 . S
C219 C221 1.479 . S
C219 H237 0.929 . S
C220 C217 1.424 . S
C220 C219 1.384 . S
C220 H238 0.928 . S
C221 C218 1.260 . S
C221 C219 1.479 . S
C222 C217 1.245 . S
C222 C218 1.477 . S
C222 H239 0.932 . S
C223 U206 2.882 . S
C223 C217 1.428 . S
C223 O226 1.301 . S
C223 O227 1.282 . S
O224 U206 2.441 . S
O224 C210 1.249 . S
O225 U206 2.420 . S
O225 C210 1.202 . S
O226 U206 2.455 . S
O226 C223 1.301 . S
O227 U206 2.449 . S
O227 C223 1.282 . S
H228 C201 0.931 . S
H229 C203 0.929 . S
H230 C204 0.930 . S
H231 C205 0.931 . S
H232 C212 0.932 . S
H233 C213 0.930 . S
H234 C214 0.929 . S
H235 C216 0.930 . S
H236 C218 0.932 . S
H237 C219 0.929 . S
H238 C220 0.928 . S
H239 C222 0.932 . S
C240 C241 1.264 . S
C240 C245 1.479 . S
C240 C250 1.465 . S
C241 C240 1.264 . S
C241 C243 1.339 . S
C241 H268 0.931 . S
C242 C243 1.395 . S
C242 C244 1.320 . S
C243 C241 1.339 . S
C243 C242 1.395 . S
C243 H269 0.929 . S
C244 C242 1.320 . S
C244 C245 1.405 . S
C244 H270 0.930 . S
C245 C240 1.479 . S
C245 C244 1.405 . S
C245 H271 0.931 . S
U246 O247 2.454 . S
U246 O248 2.458 . S
U246 C249 2.984 . S
U246 C250 2.847 . S
U246 C263 2.882 . S
U246 O264 2.441 . S
U246 O265 2.420 . S
U246 O266 2.455 . S
U246 O267 2.449 . S
O247 U246 2.454 . S
O247 C249 1.353 . S
O248 U246 2.458 . S
O248 C249 1.286 . S
C249 U246 2.984 . S
C249 O247 1.353 . S
C249 O248 1.286 . S
C249 C251 1.363 . S
C250 C240 1.465 . S
C250 U246 2.847 . S
C250 O264 1.249 . S
C250 O265 1.202 . S
C251 C249 1.363 . S
C251 C253 1.408 . S
C251 C256 1.342 . S
C252 C253 1.310 . S
C252 C255 1.461 . S
C252 H272 0.932 . S
C253 C251 1.408 . S
C253 C252 1.310 . S
C253 H273 0.930 . S
C254 C255 1.474 . S
C254 C256 1.285 . S
C254 H274 0.929 . S
C255 C252 1.461 . S
C255 C254 1.474 . S
C256 C251 1.342 . S
C256 C254 1.285 . S
C256 H275 0.930 . S
C257 C260 1.424 . S
C257 C262 1.245 . S
C257 C263 1.428 . S
C258 C261 1.260 . S
C258 C262 1.477 . S
C258 H276 0.932 . S
C259 C260 1.384 . S
C259 C261 1.479 . S
C259 H277 0.929 . S
C260 C257 1.424 . S
C260 C259 1.384 . S
C260 H278 0.928 . S
C261 C258 1.260 . S
C261 C259 1.479 . S
C262 C257 1.245 . S
C262 C258 1.477 . S
C262 H279 0.932 . S
C263 U246 2.882 . S
C263 C257 1.428 . S
C263 O266 1.301 . S
C263 O267 1.282 . S
O264 U246 2.441 . S
O264 C250 1.249 . S
O265 U246 2.420 . S
O265 C250 1.202 . S
O266 U246 2.455 . S
O266 C263 1.301 . S
O267 U246 2.449 . S
O267 C263 1.282 . S
H268 C241 0.931 . S
H269 C243 0.929 . S
H270 C244 0.930 . S
H271 C245 0.931 . S
H272 C252 0.932 . S
H273 C253 0.930 . S
H274 C254 0.929 . S
H275 C256 0.930 . S
H276 C258 0.932 . S
H277 C259 0.929 . S
H278 C260 0.928 . S
H279 C262 0.932 . S
C280 C281 1.264 . S
C280 C285 1.479 . S
C280 C290 1.465 . S
C281 C280 1.264 . S
C281 C283 1.339 . S
C281 H308 0.931 . S
C282 C283 1.395 . S
C282 C284 1.320 . S
C283 C281 1.339 . S
C283 C282 1.395 . S
C283 H309 0.929 . S
C284 C282 1.320 . S
C284 C285 1.405 . S
C284 H310 0.930 . S
C285 C280 1.479 . S
C285 C284 1.405 . S
C285 H311 0.931 . S
U286 O287 2.454 . S
U286 O288 2.458 . S
U286 C289 2.984 . S
U286 C290 2.847 . S
U286 C303 2.882 . S
U286 O304 2.441 . S
U286 O305 2.420 . S
U286 O306 2.455 . S
U286 O307 2.449 . S
O287 U286 2.454 . S
O287 C289 1.353 . S
O288 U286 2.458 . S
O288 C289 1.286 . S
C289 U286 2.984 . S
C289 O287 1.353 . S
C289 O288 1.286 . S
C289 C291 1.363 . S
C290 C280 1.465 . S
C290 U286 2.847 . S
C290 O304 1.249 . S
C290 O305 1.202 . S
C291 C289 1.363 . S
C291 C293 1.408 . S
C291 C296 1.342 . S
C292 C293 1.310 . S
C292 C295 1.461 . S
C292 H312 0.932 . S
C293 C291 1.408 . S
C293 C292 1.310 . S
C293 H313 0.930 . S
C294 C295 1.474 . S
C294 C296 1.285 . S
C294 H314 0.929 . S
C295 C292 1.461 . S
C295 C294 1.474 . S
C296 C291 1.342 . S
C296 C294 1.285 . S
C296 H315 0.930 . S
C297 C300 1.424 . S
C297 C302 1.245 . S
C297 C303 1.428 . S
C298 C301 1.260 . S
C298 C302 1.477 . S
C298 H316 0.932 . S
C299 C300 1.384 . S
C299 C301 1.479 . S
C299 H317 0.929 . S
C300 C297 1.424 . S
C300 C299 1.384 . S
C300 H318 0.928 . S
C301 C298 1.260 . S
C301 C299 1.479 . S
C302 C297 1.245 . S
C302 C298 1.477 . S
C302 H319 0.932 . S
C303 U286 2.882 . S
C303 C297 1.428 . S
C303 O306 1.301 . S
C303 O307 1.282 . S
O304 U286 2.441 . S
O304 C290 1.249 . S
O305 U286 2.420 . S
O305 C290 1.202 . S
O306 U286 2.455 . S
O306 C303 1.301 . S
O307 U286 2.449 . S
O307 C303 1.282 . S
H308 C281 0.931 . S
H309 C283 0.929 . S
H310 C284 0.930 . S
H311 C285 0.931 . S
H312 C292 0.932 . S
H313 C293 0.930 . S
H314 C294 0.929 . S
H315 C296 0.930 . S
H316 C298 0.932 . S
H317 C299 0.929 . S
H318 C300 0.928 . S
H319 C302 0.932 . S
C320 C321 1.264 . S
C320 C325 1.479 . S
C320 C330 1.465 . S
C321 C320 1.264 . S
C321 C323 1.339 . S
C321 H348 0.931 . S
C322 C323 1.395 . S
C322 C324 1.320 . S
C323 C321 1.339 . S
C323 C322 1.395 . S
C323 H349 0.929 . S
C324 C322 1.320 . S
C324 C325 1.405 . S
C324 H350 0.930 . S
C325 C320 1.479 . S
C325 C324 1.405 . S
C325 H351 0.931 . S
U326 O327 2.454 . S
U326 O328 2.458 . S
U326 C329 2.984 . S
U326 C330 2.847 . S
U326 C343 2.882 . S
U326 O344 2.441 . S
U326 O345 2.420 . S
U326 O346 2.455 . S
U326 O347 2.449 . S
O327 U326 2.454 . S
O327 C329 1.353 . S
O328 U326 2.458 . S
O328 C329 1.286 . S
C329 U326 2.984 . S
C329 O327 1.353 . S
C329 O328 1.286 . S
C329 C331 1.363 . S
C330 C320 1.465 . S
C330 U326 2.847 . S
C330 O344 1.249 . S
C330 O345 1.202 . S
C331 C329 1.363 . S
C331 C333 1.408 . S
C331 C336 1.342 . S
C332 C333 1.310 . S
C332 C335 1.461 . S
C332 H352 0.932 . S
C333 C331 1.408 . S
C333 C332 1.310 . S
C333 H353 0.930 . S
C334 C335 1.474 . S
C334 C336 1.285 . S
C334 H354 0.929 . S
C335 C332 1.461 . S
C335 C334 1.474 . S
C336 C331 1.342 . S
C336 C334 1.285 . S
C336 H355 0.930 . S
C337 C340 1.424 . S
C337 C342 1.245 . S
C337 C343 1.428 . S
C338 C341 1.260 . S
C338 C342 1.477 . S
C338 H356 0.932 . S
C339 C340 1.384 . S
C339 C341 1.479 . S
C339 H357 0.929 . S
C340 C337 1.424 . S
C340 C339 1.384 . S
C340 H358 0.928 . S
C341 C338 1.260 . S
C341 C339 1.479 . S
C342 C337 1.245 . S
C342 C338 1.477 . S
C342 H359 0.932 . S
C343 U326 2.882 . S
C343 C337 1.428 . S
C343 O346 1.301 . S
C343 O347 1.282 . S
O344 U326 2.441 . S
O344 C330 1.249 . S
O345 U326 2.420 . S
O345 C330 1.202 . S
O346 U326 2.455 . S
O346 C343 1.301 . S
O347 U326 2.449 . S
O347 C343 1.282 . S
H348 C321 0.931 . S
H349 C323 0.929 . S
H350 C324 0.930 . S
H351 C325 0.931 . S
H352 C332 0.932 . S
H353 C333 0.930 . S
H354 C334 0.929 . S
H355 C336 0.930 . S
H356 C338 0.932 . S
H357 C339 0.929 . S
H358 C340 0.928 . S
H359 C342 0.932 . S
C360 C361 1.264 . S
C360 C365 1.479 . S
C360 C370 1.465 . S
C361 C360 1.264 . S
C361 C363 1.339 . S
C361 H388 0.931 . S
C362 C363 1.395 . S
C362 C364 1.320 . S
C363 C361 1.339 . S
C363 C362 1.395 . S
C363 H389 0.929 . S
C364 C362 1.320 . S
C364 C365 1.405 . S
C364 H390 0.930 . S
C365 C360 1.479 . S
C365 C364 1.405 . S
C365 H391 0.931 . S
U366 O367 2.454 . S
U366 O368 2.458 . S
U366 C369 2.984 . S
U366 C370 2.847 . S
U366 C383 2.882 . S
U366 O384 2.441 . S
U366 O385 2.420 . S
U366 O386 2.455 . S
U366 O387 2.449 . S
O367 U366 2.454 . S
O367 C369 1.353 . S
O368 U366 2.458 . S
O368 C369 1.286 . S
C369 U366 2.984 . S
C369 O367 1.353 . S
C369 O368 1.286 . S
C369 C371 1.363 . S
C370 C360 1.465 . S
C370 U366 2.847 . S
C370 O384 1.249 . S
C370 O385 1.202 . S
C371 C369 1.363 . S
C371 C373 1.408 . S
C371 C376 1.342 . S
C372 C373 1.310 . S
C372 C375 1.461 . S
C372 H392 0.932 . S
C373 C371 1.408 . S
C373 C372 1.310 . S
C373 H393 0.930 . S
C374 C375 1.474 . S
C374 C376 1.285 . S
C374 H394 0.929 . S
C375 C372 1.461 . S
C375 C374 1.474 . S
C376 C371 1.342 . S
C376 C374 1.285 . S
C376 H395 0.930 . S
C377 C380 1.424 . S
C377 C382 1.245 . S
C377 C383 1.428 . S
C378 C381 1.260 . S
C378 C382 1.477 . S
C378 H396 0.932 . S
C379 C380 1.384 . S
C379 C381 1.479 . S
C379 H397 0.929 . S
C380 C377 1.424 . S
C380 C379 1.384 . S
C380 H398 0.928 . S
C381 C378 1.260 . S
C381 C379 1.479 . S
C382 C377 1.245 . S
C382 C378 1.477 . S
C382 H399 0.932 . S
C383 U366 2.882 . S
C383 C377 1.428 . S
C383 O386 1.301 . S
C383 O387 1.282 . S
O384 U366 2.441 . S
O384 C370 1.249 . S
O385 U366 2.420 . S
O385 C370 1.202 . S
O386 U366 2.455 . S
O386 C383 1.301 . S
O387 U366 2.449 . S
O387 C383 1.282 . S
H388 C361 0.931 . S
H389 C363 0.929 . S
H390 C364 0.930 . S
H391 C365 0.931 . S
H392 C372 0.932 . S
H393 C373 0.930 . S
H394 C374 0.929 . S
H395 C376 0.930 . S
H396 C378 0.932 . S
H397 C379 0.929 . S
H398 C380 0.928 . S
H399 C382 0.932 . S
C400 C401 1.264 . S
C400 C405 1.479 . S
C400 C410 1.465 . S
C401 C400 1.264 . S
C401 C403 1.339 . S
C401 H428 0.931 . S
C402 C403 1.395 . S
C402 C404 1.320 . S
C403 C401 1.339 . S
C403 C402 1.395 . S
C403 H429 0.929 . S
C404 C402 1.320 . S
C404 C405 1.405 . S
C404 H430 0.930 . S
C405 C400 1.479 . S
C405 C404 1.405 . S
C405 H431 0.931 . S
U406 O407 2.454 . S
U406 O408 2.458 . S
U406 C409 2.984 . S
U406 C410 2.847 . S
U406 C423 2.882 . S
U406 O424 2.441 . S
U406 O425 2.420 . S
U406 O426 2.455 . S
U406 O427 2.449 . S
O407 U406 2.454 . S
O407 C409 1.353 . S
O408 U406 2.458 . S
O408 C409 1.286 . S
C409 U406 2.984 . S
C409 O407 1.353 . S
C409 O408 1.286 . S
C409 C411 1.363 . S
C410 C400 1.465 . S
C410 U406 2.847 . S
C410 O424 1.249 . S
C410 O425 1.202 . S
C411 C409 1.363 . S
C411 C413 1.408 . S
C411 C416 1.342 . S
C412 C413 1.310 . S
C412 C415 1.461 . S
C412 H432 0.932 . S
C413 C411 1.408 . S
C413 C412 1.310 . S
C413 H433 0.930 . S
C414 C415 1.474 . S
C414 C416 1.285 . S
C414 H434 0.929 . S
C415 C412 1.461 . S
C415 C414 1.474 . S
C416 C411 1.342 . S
C416 C414 1.285 . S
C416 H435 0.930 . S
C417 C420 1.424 . S
C417 C422 1.245 . S
C417 C423 1.428 . S
C418 C421 1.260 . S
C418 C422 1.477 . S
C418 H436 0.932 . S
C419 C420 1.384 . S
C419 C421 1.479 . S
C419 H437 0.929 . S
C420 C417 1.424 . S
C420 C419 1.384 . S
C420 H438 0.928 . S
C421 C418 1.260 . S
C421 C419 1.479 . S
C422 C417 1.245 . S
C422 C418 1.477 . S
C422 H439 0.932 . S
C423 U406 2.882 . S
C423 C417 1.428 . S
C423 O426 1.301 . S
C423 O427 1.282 . S
O424 U406 2.441 . S
O424 C410 1.249 . S
O425 U406 2.420 . S
O425 C410 1.202 . S
O426 U406 2.455 . S
O426 C423 1.301 . S
O427 U406 2.449 . S
O427 C423 1.282 . S
H428 C401 0.931 . S
H429 C403 0.929 . S
H430 C404 0.930 . S
H431 C405 0.931 . S
H432 C412 0.932 . S
H433 C413 0.930 . S
H434 C414 0.929 . S
H435 C416 0.930 . S
H436 C418 0.932 . S
H437 C419 0.929 . S
H438 C420 0.928 . S
H439 C422 0.932 . S
C440 C441 1.264 . S
C440 C445 1.479 . S
C440 C450 1.465 . S
C441 C440 1.264 . S
C441 C443 1.339 . S
C441 H468 0.931 . S
C442 C443 1.395 . S
C442 C444 1.320 . S
C443 C441 1.339 . S
C443 C442 1.395 . S
C443 H469 0.929 . S
C444 C442 1.320 . S
C444 C445 1.405 . S
C444 H470 0.930 . S
C445 C440 1.479 . S
C445 C444 1.405 . S
C445 H471 0.931 . S
U446 O447 2.454 . S
U446 O448 2.458 . S
U446 C449 2.984 . S
U446 C450 2.847 . S
U446 C463 2.882 . S
U446 O464 2.441 . S
U446 O465 2.420 . S
U446 O466 2.455 . S
U446 O467 2.449 . S
O447 U446 2.454 . S
O447 C449 1.353 . S
O448 U446 2.458 . S
O448 C449 1.286 . S
C449 U446 2.984 . S
C449 O447 1.353 . S
C449 O448 1.286 . S
C449 C451 1.363 . S
C450 C440 1.465 . S
C450 U446 2.847 . S
C450 O464 1.249 . S
C450 O465 1.202 . S
C451 C449 1.363 . S
C451 C453 1.408 . S
C451 C456 1.342 . S
C452 C453 1.310 . S
C452 C455 1.461 . S
C452 H472 0.932 . S
C453 C451 1.408 . S
C453 C452 1.310 . S
C453 H473 0.930 . S
C454 C455 1.474 . S
C454 C456 1.285 . S
C454 H474 0.929 . S
C455 C452 1.461 . S
C455 C454 1.474 . S
C456 C451 1.342 . S
C456 C454 1.285 . S
C456 H475 0.930 . S
C457 C460 1.424 . S
C457 C462 1.245 . S
C457 C463 1.428 . S
C458 C461 1.260 . S
C458 C462 1.477 . S
C458 H476 0.932 . S
C459 C460 1.384 . S
C459 C461 1.479 . S
C459 H477 0.929 . S
C460 C457 1.424 . S
C460 C459 1.384 . S
C460 H478 0.928 . S
C461 C458 1.260 . S
C461 C459 1.479 . S
C462 C457 1.245 . S
C462 C458 1.477 . S
C462 H479 0.932 . S
C463 U446 2.882 . S
C463 C457 1.428 . S
C463 O466 1.301 . S
C463 O467 1.282 . S
O464 U446 2.441 . S
O464 C450 1.249 . S
O465 U446 2.420 . S
O465 C450 1.202 . S
O466 U446 2.455 . S
O466 C463 1.301 . S
O467 U446 2.449 . S
O467 C463 1.282 . S
H468 C441 0.931 . S
H469 C443 0.929 . S
H470 C444 0.930 . S
H471 C445 0.931 . S
H472 C452 0.932 . S
H473 C453 0.930 . S
H474 C454 0.929 . S
H475 C456 0.930 . S
H476 C458 0.932 . S
H477 C459 0.929 . S
H478 C460 0.928 . S
H479 C462 0.932 . S
C480 C481 1.264 . S
C480 C485 1.479 . S
C480 C490 1.465 . S
C481 C480 1.264 . S
C481 C483 1.339 . S
C481 H508 0.931 . S
C482 C483 1.395 . S
C482 C484 1.320 . S
C483 C481 1.339 . S
C483 C482 1.395 . S
C483 H509 0.929 . S
C484 C482 1.320 . S
C484 C485 1.405 . S
C484 H510 0.930 . S
C485 C480 1.479 . S
C485 C484 1.405 . S
C485 H511 0.931 . S
U486 O487 2.454 . S
U486 O488 2.458 . S
U486 C489 2.984 . S
U486 C490 2.847 . S
U486 C503 2.882 . S
U486 O504 2.441 . S
U486 O505 2.420 . S
U486 O506 2.455 . S
U486 O507 2.449 . S
O487 U486 2.454 . S
O487 C489 1.353 . S
O488 U486 2.458 . S
O488 C489 1.286 . S
C489 U486 2.984 . S
C489 O487 1.353 . S
C489 O488 1.286 . S
C489 C491 1.363 . S
C490 C480 1.465 . S
C490 U486 2.847 . S
C490 O504 1.249 . S
C490 O505 1.202 . S
C491 C489 1.363 . S
C491 C493 1.408 . S
C491 C496 1.342 . S
C492 C493 1.310 . S
C492 C495 1.461 . S
C492 H512 0.932 . S
C493 C491 1.408 . S
C493 C492 1.310 . S
C493 H513 0.930 . S
C494 C495 1.474 . S
C494 C496 1.285 . S
C494 H514 0.929 . S
C495 C492 1.461 . S
C495 C494 1.474 . S
C496 C491 1.342 . S
C496 C494 1.285 . S
C496 H515 0.930 . S
C497 C500 1.424 . S
C497 C502 1.245 . S
C497 C503 1.428 . S
C498 C501 1.260 . S
C498 C502 1.477 . S
C498 H516 0.932 . S
C499 C500 1.384 . S
C499 C501 1.479 . S
C499 H517 0.929 . S
C500 C497 1.424 . S
C500 C499 1.384 . S
C500 H518 0.928 . S
C501 C498 1.260 . S
C501 C499 1.479 . S
C502 C497 1.245 . S
C502 C498 1.477 . S
C502 H519 0.932 . S
C503 U486 2.882 . S
C503 C497 1.428 . S
C503 O506 1.301 . S
C503 O507 1.282 . S
O504 U486 2.441 . S
O504 C490 1.249 . S
O505 U486 2.420 . S
O505 C490 1.202 . S
O506 U486 2.455 . S
O506 C503 1.301 . S
O507 U486 2.449 . S
O507 C503 1.282 . S
H508 C481 0.931 . S
H509 C483 0.929 . S
H510 C484 0.930 . S
H511 C485 0.931 . S
H512 C492 0.932 . S
H513 C493 0.930 . S
H514 C494 0.929 . S
H515 C496 0.930 . S
H516 C498 0.932 . S
H517 C499 0.929 . S
H518 C500 0.928 . S
H519 C502 0.932 . S
C520 C521 1.264 . S
C520 C525 1.479 . S
C520 C530 1.465 . S
C521 C520 1.264 . S
C521 C523 1.339 . S
C521 H548 0.931 . S
C522 C523 1.395 . S
C522 C524 1.320 . S
C523 C521 1.339 . S
C523 C522 1.395 . S
C523 H549 0.929 . S
C524 C522 1.320 . S
C524 C525 1.405 . S
C524 H550 0.930 . S
C525 C520 1.479 . S
C525 C524 1.405 . S
C525 H551 0.931 . S
U526 O527 2.454 . S
U526 O528 2.458 . S
U526 C529 2.984 . S
U526 C530 2.847 . S
U526 C543 2.882 . S
U526 O544 2.441 . S
U526 O545 2.420 . S
U526 O546 2.455 . S
U526 O547 2.449 . S
O527 U526 2.454 . S
O527 C529 1.353 . S
O528 U526 2.458 . S
O528 C529 1.286 . S
C529 U526 2.984 . S
C529 O527 1.353 . S
C529 O528 1.286 . S
C529 C531 1.363 . S
C530 C520 1.465 . S
C530 U526 2.847 . S
C530 O544 1.249 . S
C530 O545 1.202 . S
C531 C529 1.363 . S
C531 C533 1.408 . S
C531 C536 1.342 . S
C532 C533 1.310 . S
C532 C535 1.461 . S
C532 H552 0.932 . S
C533 C531 1.408 . S
C533 C532 1.310 . S
C533 H553 0.930 . S
C534 C535 1.474 . S
C534 C536 1.285 . S
C534 H554 0.929 . S
C535 C532 1.461 . S
C535 C534 1.474 . S
C536 C531 1.342 . S
C536 C534 1.285 . S
C536 H555 0.930 . S
C537 C540 1.424 . S
C537 C542 1.245 . S
C537 C543 1.428 . S
C538 C541 1.260 . S
C538 C542 1.477 . S
C538 H556 0.932 . S
C539 C540 1.384 . S
C539 C541 1.479 . S
C539 H557 0.929 . S
C540 C537 1.424 . S
C540 C539 1.384 . S
C540 H558 0.928 . S
C541 C538 1.260 . S
C541 C539 1.479 . S
C542 C537 1.245 . S
C542 C538 1.477 . S
C542 H559 0.932 . S
C543 U526 2.882 . S
C543 C537 1.428 . S
C543 O546 1.301 . S
C543 O547 1.282 . S
O544 U526 2.441 . S
O544 C530 1.249 . S
O545 U526 2.420 . S
O545 C530 1.202 . S
O546 U526 2.455 . S
O546 C543 1.301 . S
O547 U526 2.449 . S
O547 C543 1.282 . S
H548 C521 0.931 . S
H549 C523 0.929 . S
H550 C524 0.930 . S
H551 C525 0.931 . S
H552 C532 0.932 . S
H553 C533 0.930 . S
H554 C534 0.929 . S
H555 C536 0.930 . S
H556 C538 0.932 . S
H557 C539 0.929 . S
H558 C540 0.928 . S
H559 C542 0.932 . S
C560 C561 1.264 . S
C560 C565 1.479 . S
C560 C570 1.465 . S
C561 C560 1.264 . S
C561 C563 1.339 . S
C561 H588 0.931 . S
C562 C563 1.395 . S
C562 C564 1.320 . S
C563 C561 1.339 . S
C563 C562 1.395 . S
C563 H589 0.929 . S
C564 C562 1.320 . S
C564 C565 1.405 . S
C564 H590 0.930 . S
C565 C560 1.479 . S
C565 C564 1.405 . S
C565 H591 0.931 . S
U566 O567 2.454 . S
U566 O568 2.458 . S
U566 C569 2.984 . S
U566 C570 2.847 . S
U566 C583 2.882 . S
U566 O584 2.441 . S
U566 O585 2.420 . S
U566 O586 2.455 . S
U566 O587 2.449 . S
O567 U566 2.454 . S
O567 C569 1.353 . S
O568 U566 2.458 . S
O568 C569 1.286 . S
C569 U566 2.984 . S
C569 O567 1.353 . S
C569 O568 1.286 . S
C569 C571 1.363 . S
C570 C560 1.465 . S
C570 U566 2.847 . S
C570 O584 1.249 . S
C570 O585 1.202 . S
C571 C569 1.363 . S
C571 C573 1.408 . S
C571 C576 1.342 . S
C572 C573 1.310 . S
C572 C575 1.461 . S
C572 H592 0.932 . S
C573 C571 1.408 . S
C573 C572 1.310 . S
C573 H593 0.930 . S
C574 C575 1.474 . S
C574 C576 1.285 . S
C574 H594 0.929 . S
C575 C572 1.461 . S
C575 C574 1.474 . S
C576 C571 1.342 . S
C576 C574 1.285 . S
C576 H595 0.930 . S
C577 C580 1.424 . S
C577 C582 1.245 . S
C577 C583 1.428 . S
C578 C581 1.260 . S
C578 C582 1.477 . S
C578 H596 0.932 . S
C579 C580 1.384 . S
C579 C581 1.479 . S
C579 H597 0.929 . S
C580 C577 1.424 . S
C580 C579 1.384 . S
C580 H598 0.928 . S
C581 C578 1.260 . S
C581 C579 1.479 . S
C582 C577 1.245 . S
C582 C578 1.477 . S
C582 H599 0.932 . S
C583 U566 2.882 . S
C583 C577 1.428 . S
C583 O586 1.301 . S
C583 O587 1.282 . S
O584 U566 2.441 . S
O584 C570 1.249 . S
O585 U566 2.420 . S
O585 C570 1.202 . S
O586 U566 2.455 . S
O586 C583 1.301 . S
O587 U566 2.449 . S
O587 C583 1.282 . S
H588 C561 0.931 . S
H589 C563 0.929 . S
H590 C564 0.930 . S
H591 C565 0.931 . S
H592 C572 0.932 . S
H593 C573 0.930 . S
H594 C574 0.929 . S
H595 C576 0.930 . S
H596 C578 0.932 . S
H597 C579 0.929 . S
H598 C580 0.928 . S
H599 C582 0.932 . S
C600 C601 1.264 . S
C600 C605 1.479 . S
C600 C610 1.465 . S
C601 C600 1.264 . S
C601 C603 1.339 . S
C601 H628 0.931 . S
C602 C603 1.395 . S
C602 C604 1.320 . S
C603 C601 1.339 . S
C603 C602 1.395 . S
C603 H629 0.929 . S
C604 C602 1.320 . S
C604 C605 1.405 . S
C604 H630 0.930 . S
C605 C600 1.479 . S
C605 C604 1.405 . S
C605 H631 0.931 . S
U606 O607 2.454 . S
U606 O608 2.458 . S
U606 C609 2.984 . S
U606 C610 2.847 . S
U606 C623 2.882 . S
U606 O624 2.441 . S
U606 O625 2.420 . S
U606 O626 2.455 . S
U606 O627 2.449 . S
O607 U606 2.454 . S
O607 C609 1.353 . S
O608 U606 2.458 . S
O608 C609 1.286 . S
C609 U606 2.984 . S
C609 O607 1.353 . S
C609 O608 1.286 . S
C609 C611 1.363 . S
C610 C600 1.465 . S
C610 U606 2.847 . S
C610 O624 1.249 . S
C610 O625 1.202 . S
C611 C609 1.363 . S
C611 C613 1.408 . S
C611 C616 1.342 . S
C612 C613 1.310 . S
C612 C615 1.461 . S
C612 H632 0.932 . S
C613 C611 1.408 . S
C613 C612 1.310 . S
C613 H633 0.930 . S
C614 C615 1.474 . S
C614 C616 1.285 . S
C614 H634 0.929 . S
C615 C612 1.461 . S
C615 C614 1.474 . S
C616 C611 1.342 . S
C616 C614 1.285 . S
C616 H635 0.930 . S
C617 C620 1.424 . S
C617 C622 1.245 . S
C617 C623 1.428 . S
C618 C621 1.260 . S
C618 C622 1.477 . S
C618 H636 0.932 . S
C619 C620 1.384 . S
C619 C621 1.479 . S
C619 H637 0.929 . S
C620 C617 1.424 . S
C620 C619 1.384 . S
C620 H638 0.928 . S
C621 C618 1.260 . S
C621 C619 1.479 . S
C622 C617 1.245 . S
C622 C618 1.477 . S
C622 H639 0.932 . S
C623 U606 2.882 . S
C623 C617 1.428 . S
C623 O626 1.301 . S
C623 O627 1.282 . S
O624 U606 2.441 . S
O624 C610 1.249 . S
O625 U606 2.420 . S
O625 C610 1.202 . S
O626 U606 2.455 . S
O626 C623 1.301 . S
O627 U606 2.449 . S
O627 C623 1.282 . S
H628 C601 0.931 . S
H629 C603 0.929 . S
H630 C604 0.930 . S
H631 C605 0.931 . S
H632 C612 0.932 . S
H633 C613 0.930 . S
H634 C614 0.929 . S
H635 C616 0.930 . S
H636 C618 0.932 . S
H637 C619 0.929 . S
H638 C620 0.928 . S
H639 C622 0.932 . S
C640 C641 1.264 . S
C640 C645 1.479 . S
C640 C650 1.465 . S
C641 C640 1.264 . S
C641 C643 1.339 . S
C641 H668 0.931 . S
C642 C643 1.395 . S
C642 C644 1.320 . S
C643 C641 1.339 . S
C643 C642 1.395 . S
C643 H669 0.929 . S
C644 C642 1.320 . S
C644 C645 1.405 . S
C644 H670 0.930 . S
C645 C640 1.479 . S
C645 C644 1.405 . S
C645 H671 0.931 . S
U646 O647 2.454 . S
U646 O648 2.458 . S
U646 C649 2.984 . S
U646 C650 2.847 . S
U646 C663 2.882 . S
U646 O664 2.441 . S
U646 O665 2.420 . S
U646 O666 2.455 . S
U646 O667 2.449 . S
O647 U646 2.454 . S
O647 C649 1.353 . S
O648 U646 2.458 . S
O648 C649 1.286 . S
C649 U646 2.984 . S
C649 O647 1.353 . S
C649 O648 1.286 . S
C649 C651 1.363 . S
C650 C640 1.465 . S
C650 U646 2.847 . S
C650 O664 1.249 . S
C650 O665 1.202 . S
C651 C649 1.363 . S
C651 C653 1.408 . S
C651 C656 1.342 . S
C652 C653 1.310 . S
C652 C655 1.461 . S
C652 H672 0.932 . S
C653 C651 1.408 . S
C653 C652 1.310 . S
C653 H673 0.930 . S
C654 C655 1.474 . S
C654 C656 1.285 . S
C654 H674 0.929 . S
C655 C652 1.461 . S
C655 C654 1.474 . S
C656 C651 1.342 . S
C656 C654 1.285 . S
C656 H675 0.930 . S
C657 C660 1.424 . S
C657 C662 1.245 . S
C657 C663 1.428 . S
C658 C661 1.260 . S
C658 C662 1.477 . S
C658 H676 0.932 . S
C659 C660 1.384 . S
C659 C661 1.479 . S
C659 H677 0.929 . S
C660 C657 1.424 . S
C660 C659 1.384 . S
C660 H678 0.928 . S
C661 C658 1.260 . S
C661 C659 1.479 . S
C662 C657 1.245 . S
C662 C658 1.477 . S
C662 H679 0.932 . S
C663 U646 2.882 . S
C663 C657 1.428 . S
C663 O666 1.301 . S
C663 O667 1.282 . S
O664 U646 2.441 . S
O664 C650 1.249 . S
O665 U646 2.420 . S
O665 C650 1.202 . S
O666 U646 2.455 . S
O666 C663 1.301 . S
O667 U646 2.449 . S
O667 C663 1.282 . S
H668 C641 0.931 . S
H669 C643 0.929 . S
H670 C644 0.930 . S
H671 C645 0.931 . S
H672 C652 0.932 . S
H673 C653 0.930 . S
H674 C654 0.929 . S
H675 C656 0.930 . S
H676 C658 0.932 . S
H677 C659 0.929 . S
H678 C660 0.928 . S
H679 C662 0.932 . S
C680 C681 1.264 . S
C680 C685 1.479 . S
C680 C690 1.465 . S
C681 C680 1.264 . S
C681 C683 1.339 . S
C681 H708 0.931 . S
C682 C683 1.395 . S
C682 C684 1.320 . S
C683 C681 1.339 . S
C683 C682 1.395 . S
C683 H709 0.929 . S
C684 C682 1.320 . S
C684 C685 1.405 . S
C684 H710 0.930 . S
C685 C680 1.479 . S
C685 C684 1.405 . S
C685 H711 0.931 . S
U686 O687 2.454 . S
U686 O688 2.458 . S
U686 C689 2.984 . S
U686 C690 2.847 . S
U686 C703 2.882 . S
U686 O704 2.441 . S
U686 O705 2.420 . S
U686 O706 2.455 . S
U686 O707 2.449 . S
O687 U686 2.454 . S
O687 C689 1.353 . S
O688 U686 2.458 . S
O688 C689 1.286 . S
C689 U686 2.984 . S
C689 O687 1.353 . S
C689 O688 1.286 . S
C689 C691 1.363 . S
C690 C680 1.465 . S
C690 U686 2.847 . S
C690 O704 1.249 . S
C690 O705 1.202 . S
C691 C689 1.363 . S
C691 C693 1.408 . S
C691 C696 1.342 . S
C692 C693 1.310 . S
C692 C695 1.461 . S
C692 H712 0.932 . S
C693 C691 1.408 . S
C693 C692 1.310 . S
C693 H713 0.930 . S
C694 C695 1.474 . S
C694 C696 1.285 . S
C694 H714 0.929 . S
C695 C692 1.461 . S
C695 C694 1.474 . S
C696 C691 1.342 . S
C696 C694 1.285 . S
C696 H715 0.930 . S
C697 C700 1.424 . S
C697 C702 1.245 . S
C697 C703 1.428 . S
C698 C701 1.260 . S
C698 C702 1.477 . S
C698 H716 0.932 . S
C699 C700 1.384 . S
C699 C701 1.479 . S
C699 H717 0.929 . S
C700 C697 1.424 . S
C700 C699 1.384 . S
C700 H718 0.928 . S
C701 C698 1.260 . S
C701 C699 1.479 . S
C702 C697 1.245 . S
C702 C698 1.477 . S
C702 H719 0.932 . S
C703 U686 2.882 . S
C703 C697 1.428 . S
C703 O706 1.301 . S
C703 O707 1.282 . S
O704 U686 2.441 . S
O704 C690 1.249 . S
O705 U686 2.420 . S
O705 C690 1.202 . S
O706 U686 2.455 . S
O706 C703 1.301 . S
O707 U686 2.449 . S
O707 C703 1.282 . S
H708 C681 0.931 . S
H709 C683 0.929 . S
H710 C684 0.930 . S
H711 C685 0.931 . S
H712 C692 0.932 . S
H713 C693 0.930 . S
H714 C694 0.929 . S
H715 C696 0.930 . S
H716 C698 0.932 . S
H717 C699 0.929 . S
H718 C700 0.928 . S
H719 C702 0.932 . S
C720 C721 1.264 . S
C720 C725 1.479 . S
C720 C730 1.465 . S
C721 C720 1.264 . S
C721 C723 1.339 . S
C721 H748 0.931 . S
C722 C723 1.395 . S
C722 C724 1.320 . S
C723 C721 1.339 . S
C723 C722 1.395 . S
C723 H749 0.929 . S
C724 C722 1.320 . S
C724 C725 1.405 . S
C724 H750 0.930 . S
C725 C720 1.479 . S
C725 C724 1.405 . S
C725 H751 0.931 . S
U726 O727 2.454 . S
U726 O728 2.458 . S
U726 C729 2.984 . S
U726 C730 2.847 . S
U726 C743 2.882 . S
U726 O744 2.441 . S
U726 O745 2.420 . S
U726 O746 2.455 . S
U726 O747 2.449 . S
O727 U726 2.454 . S
O727 C729 1.353 . S
O728 U726 2.458 . S
O728 C729 1.286 . S
C729 U726 2.984 . S
C729 O727 1.353 . S
C729 O728 1.286 . S
C729 C731 1.363 . S
C730 C720 1.465 . S
C730 U726 2.847 . S
C730 O744 1.249 . S
C730 O745 1.202 . S
C731 C729 1.363 . S
C731 C733 1.408 . S
C731 C736 1.342 . S
C732 C733 1.310 . S
C732 C735 1.461 . S
C732 H752 0.932 . S
C733 C731 1.408 . S
C733 C732 1.310 . S
C733 H753 0.930 . S
C734 C735 1.474 . S
C734 C736 1.285 . S
C734 H754 0.929 . S
C735 C732 1.461 . S
C735 C734 1.474 . S
C736 C731 1.342 . S
C736 C734 1.285 . S
C736 H755 0.930 . S
C737 C740 1.424 . S
C737 C742 1.245 . S
C737 C743 1.428 . S
C738 C741 1.260 . S
C738 C742 1.477 . S
C738 H756 0.932 . S
C739 C740 1.384 . S
C739 C741 1.479 . S
C739 H757 0.929 . S
C740 C737 1.424 . S
C740 C739 1.384 . S
C740 H758 0.928 . S
C741 C738 1.260 . S
C741 C739 1.479 . S
C742 C737 1.245 . S
C742 C738 1.477 . S
C742 H759 0.932 . S
C743 U726 2.882 . S
C743 C737 1.428 . S
C743 O746 1.301 . S
C743 O747 1.282 . S
O744 U726 2.441 . S
O744 C730 1.249 . S
O745 U726 2.420 . S
O745 C730 1.202 . S
O746 U726 2.455 . S
O746 C743 1.301 . S
O747 U726 2.449 . S
O747 C743 1.282 . S
H748 C721 0.931 . S
H749 C723 0.929 . S
H750 C724 0.930 . S
H751 C725 0.931 . S
H752 C732 0.932 . S
H753 C733 0.930 . S
H754 C734 0.929 . S
H755 C736 0.930 . S
H756 C738 0.932 . S
H757 C739 0.929 . S
H758 C740 0.928 . S
H759 C742 0.932 . S
C760 C761 1.264 . S
C760 C765 1.479 . S
C760 C770 1.465 . S
C761 C760 1.264 . S
C761 C763 1.339 . S
C761 H788 0.931 . S
C762 C763 1.395 . S
C762 C764 1.320 . S
C763 C761 1.339 . S
C763 C762 1.395 . S
C763 H789 0.929 . S
C764 C762 1.320 . S
C764 C765 1.405 . S
C764 H790 0.930 . S
C765 C760 1.479 . S
C765 C764 1.405 . S
C765 H791 0.931 . S
U766 O767 2.454 . S
U766 O768 2.458 . S
U766 C769 2.984 . S
U766 C770 2.847 . S
U766 C783 2.882 . S
U766 O784 2.441 . S
U766 O785 2.420 . S
U766 O786 2.455 . S
U766 O787 2.449 . S
O767 U766 2.454 . S
O767 C769 1.353 . S
O768 U766 2.458 . S
O768 C769 1.286 . S
C769 U766 2.984 . S
C769 O767 1.353 . S
C769 O768 1.286 . S
C769 C771 1.363 . S
C770 C760 1.465 . S
C770 U766 2.847 . S
C770 O784 1.249 . S
C770 O785 1.202 . S
C771 C769 1.363 . S
C771 C773 1.408 . S
C771 C776 1.342 . S
C772 C773 1.310 . S
C772 C775 1.461 . S
C772 H792 0.932 . S
C773 C771 1.408 . S
C773 C772 1.310 . S
C773 H793 0.930 . S
C774 C775 1.474 . S
C774 C776 1.285 . S
C774 H794 0.929 . S
C775 C772 1.461 . S
C775 C774 1.474 . S
C776 C771 1.342 . S
C776 C774 1.285 . S
C776 H795 0.930 . S
C777 C780 1.424 . S
C777 C782 1.245 . S
C777 C783 1.428 . S
C778 C781 1.260 . S
C778 C782 1.477 . S
C778 H796 0.932 . S
C779 C780 1.384 . S
C779 C781 1.479 . S
C779 H797 0.929 . S
C780 C777 1.424 . S
C780 C779 1.384 . S
C780 H798 0.928 . S
C781 C778 1.260 . S
C781 C779 1.479 . S
C782 C777 1.245 . S
C782 C778 1.477 . S
C782 H799 0.932 . S
C783 U766 2.882 . S
C783 C777 1.428 . S
C783 O786 1.301 . S
C783 O787 1.282 . S
O784 U766 2.441 . S
O784 C770 1.249 . S
O785 U766 2.420 . S
O785 C770 1.202 . S
O786 U766 2.455 . S
O786 C783 1.301 . S
O787 U766 2.449 . S
O787 C783 1.282 . S
H788 C761 0.931 . S
H789 C763 0.929 . S
H790 C764 0.930 . S
H791 C765 0.931 . S
H792 C772 0.932 . S
H793 C773 0.930 . S
H794 C774 0.929 . S
H795 C776 0.930 . S
H796 C778 0.932 . S
H797 C779 0.929 . S
H798 C780 0.928 . S
H799 C782 0.932 . S
C800 C801 1.264 . S
C800 C805 1.479 . S
C800 C810 1.465 . S
C801 C800 1.264 . S
C801 C803 1.339 . S
C801 H828 0.931 . S
C802 C803 1.395 . S
C802 C804 1.320 . S
C803 C801 1.339 . S
C803 C802 1.395 . S
C803 H829 0.929 . S
C804 C802 1.320 . S
C804 C805 1.405 . S
C804 H830 0.930 . S
C805 C800 1.479 . S
C805 C804 1.405 . S
C805 H831 0.931 . S
U806 O807 2.454 . S
U806 O808 2.458 . S
U806 C809 2.984 . S
U806 C810 2.847 . S
U806 C823 2.882 . S
U806 O824 2.441 . S
U806 O825 2.420 . S
U806 O826 2.455 . S
U806 O827 2.449 . S
O807 U806 2.454 . S
O807 C809 1.353 . S
O808 U806 2.458 . S
O808 C809 1.286 . S
C809 U806 2.984 . S
C809 O807 1.353 . S
C809 O808 1.286 . S
C809 C811 1.363 . S
C810 C800 1.465 . S
C810 U806 2.847 . S
C810 O824 1.249 . S
C810 O825 1.202 . S
C811 C809 1.363 . S
C811 C813 1.408 . S
C811 C816 1.342 . S
C812 C813 1.310 . S
C812 C815 1.461 . S
C812 H832 0.932 . S
C813 C811 1.408 . S
C813 C812 1.310 . S
C813 H833 0.930 . S
C814 C815 1.474 . S
C814 C816 1.285 . S
C814 H834 0.929 . S
C815 C812 1.461 . S
C815 C814 1.474 . S
C816 C811 1.342 . S
C816 C814 1.285 . S
C816 H835 0.930 . S
C817 C820 1.424 . S
C817 C822 1.245 . S
C817 C823 1.428 . S
C818 C821 1.260 . S
C818 C822 1.477 . S
C818 H836 0.932 . S
C819 C820 1.384 . S
C819 C821 1.479 . S
C819 H837 0.929 . S
C820 C817 1.424 . S
C820 C819 1.384 . S
C820 H838 0.928 . S
C821 C818 1.260 . S
C821 C819 1.479 . S
C822 C817 1.245 . S
C822 C818 1.477 . S
C822 H839 0.932 . S
C823 U806 2.882 . S
C823 C817 1.428 . S
C823 O826 1.301 . S
C823 O827 1.282 . S
O824 U806 2.441 . S
O824 C810 1.249 . S
O825 U806 2.420 . S
O825 C810 1.202 . S
O826 U806 2.455 . S
O826 C823 1.301 . S
O827 U806 2.449 . S
O827 C823 1.282 . S
H828 C801 0.931 . S
H829 C803 0.929 . S
H830 C804 0.930 . S
H831 C805 0.931 . S
H832 C812 0.932 . S
H833 C813 0.930 . S
H834 C814 0.929 . S
H835 C816 0.930 . S
H836 C818 0.932 . S
H837 C819 0.929 . S
H838 C820 0.928 . S
H839 C822 0.932 . S
C840 C841 1.264 . S
C840 C845 1.479 . S
C840 C850 1.465 . S
C841 C840 1.264 . S
C841 C843 1.339 . S
C841 H868 0.931 . S
C842 C843 1.395 . S
C842 C844 1.320 . S
C843 C841 1.339 . S
C843 C842 1.395 . S
C843 H869 0.929 . S
C844 C842 1.320 . S
C844 C845 1.405 . S
C844 H870 0.930 . S
C845 C840 1.479 . S
C845 C844 1.405 . S
C845 H871 0.931 . S
U846 O847 2.454 . S
U846 O848 2.458 . S
U846 C849 2.984 . S
U846 C850 2.847 . S
U846 C863 2.882 . S
U846 O864 2.441 . S
U846 O865 2.420 . S
U846 O866 2.455 . S
U846 O867 2.449 . S
O847 U846 2.454 . S
O847 C849 1.353 . S
O848 U846 2.458 . S
O848 C849 1.286 . S
C849 U846 2.984 . S
C849 O847 1.353 . S
C849 O848 1.286 . S
C849 C851 1.363 . S
C850 C840 1.465 . S
C850 U846 2.847 . S
C850 O864 1.249 . S
C850 O865 1.202 . S
C851 C849 1.363 . S
C851 C853 1.408 . S
C851 C856 1.342 . S
C852 C853 1.310 . S
C852 C855 1.461 . S
C852 H872 0.932 . S
C853 C851 1.408 . S
C853 C852 1.310 . S
C853 H873 0.930 . S
C854 C855 1.474 . S
C854 C856 1.285 . S
C854 H874 0.929 . S
C855 C852 1.461 . S
C855 C854 1.474 . S
C856 C851 1.342 . S
C856 C854 1.285 . S
C856 H875 0.930 . S
C857 C860 1.424 . S
C857 C862 1.245 . S
C857 C863 1.428 . S
C858 C861 1.260 . S
C858 C862 1.477 . S
C858 H876 0.932 . S
C859 C860 1.384 . S
C859 C861 1.479 . S
C859 H877 0.929 . S
C860 C857 1.424 . S
C860 C859 1.384 . S
C860 H878 0.928 . S
C861 C858 1.260 . S
C861 C859 1.479 . S
C862 C857 1.245 . S
C862 C858 1.477 . S
C862 H879 0.932 . S
C863 U846 2.882 . S
C863 C857 1.428 . S
C863 O866 1.301 . S
C863 O867 1.282 . S
O864 U846 2.441 . S
O864 C850 1.249 . S
O865 U846 2.420 . S
O865 C850 1.202 . S
O866 U846 2.455 . S
O866 C863 1.301 . S
O867 U846 2.449 . S
O867 C863 1.282 . S
H868 C841 0.931 . S
H869 C843 0.929 . S
H870 C844 0.930 . S
H871 C845 0.931 . S
H872 C852 0.932 . S
H873 C853 0.930 . S
H874 C854 0.929 . S
H875 C856 0.930 . S
H876 C858 0.932 . S
H877 C859 0.929 . S
H878 C860 0.928 . S
H879 C862 0.932 . S
C880 C881 1.264 . S
C880 C885 1.479 . S
C880 C890 1.465 . S
C881 C880 1.264 . S
C881 C883 1.339 . S
C881 H908 0.931 . S
C882 C883 1.395 . S
C882 C884 1.320 . S
C883 C881 1.339 . S
C883 C882 1.395 . S
C883 H909 0.929 . S
C884 C882 1.320 . S
C884 C885 1.405 . S
C884 H910 0.930 . S
C885 C880 1.479 . S
C885 C884 1.405 . S
C885 H911 0.931 . S
U886 O887 2.454 . S
U886 O888 2.458 . S
U886 C889 2.984 . S
U886 C890 2.847 . S
U886 C903 2.882 . S
U886 O904 2.441 . S
U886 O905 2.420 . S
U886 O906 2.455 . S
U886 O907 2.449 . S
O887 U886 2.454 . S
O887 C889 1.353 . S
O888 U886 2.458 . S
O888 C889 1.286 . S
C889 U886 2.984 . S
C889 O887 1.353 . S
C889 O888 1.286 . S
C889 C891 1.363 . S
C890 C880 1.465 . S
C890 U886 2.847 . S
C890 O904 1.249 . S
C890 O905 1.202 . S
C891 C889 1.363 . S
C891 C893 1.408 . S
C891 C896 1.342 . S
C892 C893 1.310 . S
C892 C895 1.461 . S
C892 H912 0.932 . S
C893 C891 1.408 . S
C893 C892 1.310 . S
C893 H913 0.930 . S
C894 C895 1.474 . S
C894 C896 1.285 . S
C894 H914 0.929 . S
C895 C892 1.461 . S
C895 C894 1.474 . S
C896 C891 1.342 . S
C896 C894 1.285 . S
C896 H915 0.930 . S
C897 C900 1.424 . S
C897 C902 1.245 . S
C897 C903 1.428 . S
C898 C901 1.260 . S
C898 C902 1.477 . S
C898 H916 0.932 . S
C899 C900 1.384 . S
C899 C901 1.479 . S
C899 H917 0.929 . S
C900 C897 1.424 . S
C900 C899 1.384 . S
C900 H918 0.928 . S
C901 C898 1.260 . S
C901 C899 1.479 . S
C902 C897 1.245 . S
C902 C898 1.477 . S
C902 H919 0.932 . S
C903 U886 2.882 . S
C903 C897 1.428 . S
C903 O906 1.301 . S
C903 O907 1.282 . S
O904 U886 2.441 . S
O904 C890 1.249 . S
O905 U886 2.420 . S
O905 C890 1.202 . S
O906 U886 2.455 . S
O906 C903 1.301 . S
O907 U886 2.449 . S
O907 C903 1.282 . S
H908 C881 0.931 . S
H909 C883 0.929 . S
H910 C884 0.930 . S
H911 C885 0.931 . S
H912 C892 0.932 . S
H913 C893 0.930 . S
H914 C894 0.929 . S
H915 C896 0.930 . S
H916 C898 0.932 . S
H917 C899 0.929 . S
H918 C900 0.928 . S
H919 C902 0.932 . S
C920 C921 1.264 . S
C920 C925 1.479 . S
C920 C930 1.465 . S
C921 C920 1.264 . S
C921 C923 1.339 . S
C921 H948 0.931 . S
C922 C923 1.395 . S
C922 C924 1.320 . S
C923 C921 1.339 . S
C923 C922 1.395 . S
C923 H949 0.929 . S
C924 C922 1.320 . S
C924 C925 1.405 . S
C924 H950 0.930 . S
C925 C920 1.479 . S
C925 C924 1.405 . S
C925 H951 0.931 . S
U926 O927 2.454 . S
U926 O928 2.458 . S
U926 C929 2.984 . S
U926 C930 2.847 . S
U926 C943 2.882 . S
U926 O944 2.441 . S
U926 O945 2.420 . S
U926 O946 2.455 . S
U926 O947 2.449 . S
O927 U926 2.454 . S
O927 C929 1.353 . S
O928 U926 2.458 . S
O928 C929 1.286 . S
C929 U926 2.984 . S
C929 O927 1.353 . S
C929 O928 1.286 . S
C929 C931 1.363 . S
C930 C920 1.465 . S
C930 U926 2.847 . S
C930 O944 1.249 . S
C930 O945 1.202 . S
C931 C929 1.363 . S
C931 C933 1.408 . S
C931 C936 1.342 . S
C932 C933 1.310 . S
C932 C935 1.461 . S
C932 H952 0.932 . S
C933 C931 1.408 . S
C933 C932 1.310 . S
C933 H953 0.930 . S
C934 C935 1.474 . S
C934 C936 1.285 . S
C934 H954 0.929 . S
C935 C932 1.461 . S
C935 C934 1.474 . S
C936 C931 1.342 . S
C936 C934 1.285 . S
C936 H955 0.930 . S
C937 C940 1.424 . S
C937 C942 1.245 . S
C937 C943 1.428 . S
C938 C941 1.260 . S
C938 C942 1.477 . S
C938 H956 0.932 . S
C939 C940 1.384 . S
C939 C941 1.479 . S
C939 H957 0.929 . S
C940 C937 1.424 . S
C940 C939 1.384 . S
C940 H958 0.928 . S
C941 C938 1.260 . S
C941 C939 1.479 . S
C942 C937 1.245 . S
C942 C938 1.477 . S
C942 H959 0.932 . S
C943 U926 2.882 . S
C943 C937 1.428 . S
C943 O946 1.301 . S
C943 O947 1.282 . S
O944 U926 2.441 . S
O944 C930 1.249 . S
O945 U926 2.420 . S
O945 C930 1.202 . S
O946 U926 2.455 . S
O946 C943 1.301 . S
O947 U926 2.449 . S
O947 C943 1.282 . S
H948 C921 0.931 . S
H949 C923 0.929 . S
H950 C924 0.930 . S
H951 C925 0.931 . S
H952 C932 0.932 . S
H953 C933 0.930 . S
H954 C934 0.929 . S
H955 C936 0.930 . S
H956 C938 0.932 . S
H957 C939 0.929 . S
H958 C940 0.928 . S
H959 C942 0.932 . S
C960 C961 1.264 . S
C960 C965 1.479 . S
C960 C970 1.465 . S
C961 C960 1.264 . S
C961 C963 1.339 . S
C961 H988 0.931 . S
C962 C963 1.395 . S
C962 C964 1.320 . S
C963 C961 1.339 . S
C963 C962 1.395 . S
C963 H989 0.929 . S
C964 C962 1.320 . S
C964 C965 1.405 . S
C964 H990 0.930 . S
C965 C960 1.479 . S
C965 C964 1.405 . S
C965 H991 0.931 . S
U966 O967 2.454 . S
U966 O968 2.458 . S
U966 C969 2.984 . S
U966 C970 2.847 . S
U966 C983 2.882 . S
U966 O984 2.441 . S
U966 O985 2.420 . S
U966 O986 2.455 . S
U966 O987 2.449 . S
O967 U966 2.454 . S
O967 C969 1.353 . S
O968 U966 2.458 . S
O968 C969 1.286 . S
C969 U966 2.984 . S
C969 O967 1.353 . S
C969 O968 1.286 . S
C969 C971 1.363 . S
C970 C960 1.465 . S
C970 U966 2.847 . S
C970 O984 1.249 . S
C970 O985 1.202 . S
C971 C969 1.363 . S
C971 C973 1.408 . S
C971 C976 1.342 . S
C972 C973 1.310 . S
C972 C975 1.461 . S
C972 H992 0.932 . S
C973 C971 1.408 . S
C973 C972 1.310 . S
C973 H993 0.930 . S
C974 C975 1.474 . S
C974 C976 1.285 . S
C974 H994 0.929 . S
C975 C972 1.461 . S
C975 C974 1.474 . S
C976 C971 1.342 . S
C976 C974 1.285 . S
C976 H995 0.930 . S
C977 C980 1.424 . S
C977 C982 1.245 . S
C977 C983 1.428 . S
C978 C981 1.260 . S
C978 C982 1.477 . S
C978 H996 0.932 . S
C979 C980 1.384 . S
C979 C981 1.479 . S
C979 H997 0.929 . S
C980 C977 1.424 . S
C980 C979 1.384 . S
C980 H998 0.928 . S
C981 C978 1.260 . S
C981 C979 1.479 . S
C982 C977 1.245 . S
C982 C978 1.477 . S
C982 H999 0.932 . S
C983 U966 2.882 . S
C983 C977 1.428 . S
C983 O986 1.301 . S
C983 O987 1.282 . S
O984 U966 2.441 . S
O984 C970 1.249 . S
O985 U966 2.420 . S
O985 C970 1.202 . S
O986 U966 2.455 . S
O986 C983 1.301 . S
O987 U966 2.449 . S
O987 C983 1.282 . S
H988 C961 0.931 . S
H989 C963 0.929 . S
H990 C964 0.930 . S
H991 C965 0.931 . S
H992 C972 0.932 . S
H993 C973 0.930 . S
H994 C974 0.929 . S
H995 C976 0.930 . S
H996 C978 0.932 . S
H997 C979 0.929 . S
H998 C980 0.928 . S
H999 C982 0.932 . S
C1000 C1001 1.264 . S
C1000 C1005 1.479 . S
C1000 C1010 1.465 . S
C1001 C1000 1.264 . S
C1001 C1003 1.339 . S
C1001 H1028 0.931 . S
C1002 C1003 1.395 . S
C1002 C1004 1.320 . S
C1003 C1001 1.339 . S
C1003 C1002 1.395 . S
C1003 H1029 0.929 . S
C1004 C1002 1.320 . S
C1004 C1005 1.405 . S
C1004 H1030 0.930 . S
C1005 C1000 1.479 . S
C1005 C1004 1.405 . S
C1005 H1031 0.931 . S
U1006 O1007 2.454 . S
U1006 O1008 2.458 . S
U1006 C1009 2.984 . S
U1006 C1010 2.847 . S
U1006 C1023 2.882 . S
U1006 O1024 2.441 . S
U1006 O1025 2.420 . S
U1006 O1026 2.455 . S
U1006 O1027 2.449 . S
O1007 U1006 2.454 . S
O1007 C1009 1.353 . S
O1008 U1006 2.458 . S
O1008 C1009 1.286 . S
C1009 U1006 2.984 . S
C1009 O1007 1.353 . S
C1009 O1008 1.286 . S
C1009 C1011 1.363 . S
C1010 C1000 1.465 . S
C1010 U1006 2.847 . S
C1010 O1024 1.249 . S
C1010 O1025 1.202 . S
C1011 C1009 1.363 . S
C1011 C1013 1.408 . S
C1011 C1016 1.342 . S
C1012 C1013 1.310 . S
C1012 C1015 1.461 . S
C1012 H1032 0.932 . S
C1013 C1011 1.408 . S
C1013 C1012 1.310 . S
C1013 H1033 0.930 . S
C1014 C1015 1.474 . S
C1014 C1016 1.285 . S
C1014 H1034 0.929 . S
C1015 C1012 1.461 . S
C1015 C1014 1.474 . S
C1016 C1011 1.342 . S
C1016 C1014 1.285 . S
C1016 H1035 0.930 . S
C1017 C1020 1.424 . S
C1017 C1022 1.245 . S
C1017 C1023 1.428 . S
C1018 C1021 1.260 . S
C1018 C1022 1.477 . S
C1018 H1036 0.932 . S
C1019 C1020 1.384 . S
C1019 C1021 1.479 . S
C1019 H1037 0.929 . S
C1020 C1017 1.424 . S
C1020 C1019 1.384 . S
C1020 H1038 0.928 . S
C1021 C1018 1.260 . S
C1021 C1019 1.479 . S
C1022 C1017 1.245 . S
C1022 C1018 1.477 . S
C1022 H1039 0.932 . S
C1023 U1006 2.882 . S
C1023 C1017 1.428 . S
C1023 O1026 1.301 . S
C1023 O1027 1.282 . S
O1024 U1006 2.441 . S
O1024 C1010 1.249 . S
O1025 U1006 2.420 . S
O1025 C1010 1.202 . S
O1026 U1006 2.455 . S
O1026 C1023 1.301 . S
O1027 U1006 2.449 . S
O1027 C1023 1.282 . S
H1028 C1001 0.931 . S
H1029 C1003 0.929 . S
H1030 C1004 0.930 . S
H1031 C1005 0.931 . S
H1032 C1012 0.932 . S
H1033 C1013 0.930 . S
H1034 C1014 0.929 . S
H1035 C1016 0.930 . S
H1036 C1018 0.932 . S
H1037 C1019 0.929 . S
H1038 C1020 0.928 . S
H1039 C1022 0.932 . S
C1040 C1041 1.264 . S
C1040 C1045 1.479 . S
C1040 C1050 1.465 . S
C1041 C1040 1.264 . S
C1041 C1043 1.339 . S
C1041 H1068 0.931 . S
C1042 C1043 1.395 . S
C1042 C1044 1.320 . S
C1043 C1041 1.339 . S
C1043 C1042 1.395 . S
C1043 H1069 0.929 . S
C1044 C1042 1.320 . S
C1044 C1045 1.405 . S
C1044 H1070 0.930 . S
C1045 C1040 1.479 . S
C1045 C1044 1.405 . S
C1045 H1071 0.931 . S
U1046 O1047 2.454 . S
U1046 O1048 2.458 . S
U1046 C1049 2.984 . S
U1046 C1050 2.847 . S
U1046 C1063 2.882 . S
U1046 O1064 2.441 . S
U1046 O1065 2.420 . S
U1046 O1066 2.455 . S
U1046 O1067 2.449 . S
O1047 U1046 2.454 . S
O1047 C1049 1.353 . S
O1048 U1046 2.458 . S
O1048 C1049 1.286 . S
C1049 U1046 2.984 . S
C1049 O1047 1.353 . S
C1049 O1048 1.286 . S
C1049 C1051 1.363 . S
C1050 C1040 1.465 . S
C1050 U1046 2.847 . S
C1050 O1064 1.249 . S
C1050 O1065 1.202 . S
C1051 C1049 1.363 . S
C1051 C1053 1.408 . S
C1051 C1056 1.342 . S
C1052 C1053 1.310 . S
C1052 C1055 1.461 . S
C1052 H1072 0.932 . S
C1053 C1051 1.408 . S
C1053 C1052 1.310 . S
C1053 H1073 0.930 . S
C1054 C1055 1.474 . S
C1054 C1056 1.285 . S
C1054 H1074 0.929 . S
C1055 C1052 1.461 . S
C1055 C1054 1.474 . S
C1056 C1051 1.342 . S
C1056 C1054 1.285 . S
C1056 H1075 0.930 . S
C1057 C1060 1.424 . S
C1057 C1062 1.245 . S
C1057 C1063 1.428 . S
C1058 C1061 1.260 . S
C1058 C1062 1.477 . S
C1058 H1076 0.932 . S
C1059 C1060 1.384 . S
C1059 C1061 1.479 . S
C1059 H1077 0.929 . S
C1060 C1057 1.424 . S
C1060 C1059 1.384 . S
C1060 H1078 0.928 . S
C1061 C1058 1.260 . S
C1061 C1059 1.479 . S
C1062 C1057 1.245 . S
C1062 C1058 1.477 . S
C1062 H1079 0.932 . S
C1063 U1046 2.882 . S
C1063 C1057 1.428 . S
C1063 O1066 1.301 . S
C1063 O1067 1.282 . S
O1064 U1046 2.441 . S
O1064 C1050 1.249 . S
O1065 U1046 2.420 . S
O1065 C1050 1.202 . S
O1066 U1046 2.455 . S
O1066 C1063 1.301 . S
O1067 U1046 2.449 . S
O1067 C1063 1.282 . S
H1068 C1041 0.931 . S
H1069 C1043 0.929 . S
H1070 C1044 0.930 . S
H1071 C1045 0.931 . S
H1072 C1052 0.932 . S
H1073 C1053 0.930 . S
H1074 C1054 0.929 . S
H1075 C1056 0.930 . S
H1076 C1058 0.932 . S
H1077 C1059 0.929 . S
H1078 C1060 0.928 . S
H1079 C1062 0.932 . S
C1080 C1081 1.264 . S
C1080 C1085 1.479 . S
C1080 C1090 1.465 . S
C1081 C1080 1.264 . S
C1081 C1083 1.339 . S
C1081 H1108 0.931 . S
C1082 C1083 1.395 . S
C1082 C1084 1.320 . S
C1083 C1081 1.339 . S
C1083 C1082 1.395 . S
C1083 H1109 0.929 . S
C1084 C1082 1.320 . S
C1084 C1085 1.405 . S
C1084 H1110 0.930 . S
C1085 C1080 1.479 . S
C1085 C1084 1.405 . S
C1085 H1111 0.931 . S
U1086 O1087 2.454 . S
U1086 O1088 2.458 . S
U1086 C1089 2.984 . S
U1086 C1090 2.847 . S
U1086 C1103 2.882 . S
U1086 O1104 2.441 . S
U1086 O1105 2.420 . S
U1086 O1106 2.455 . S
U1086 O1107 2.449 . S
O1087 U1086 2.454 . S
O1087 C1089 1.353 . S
O1088 U1086 2.458 . S
O1088 C1089 1.286 . S
C1089 U1086 2.984 . S
C1089 O1087 1.353 . S
C1089 O1088 1.286 . S
C1089 C1091 1.363 . S
C1090 C1080 1.465 . S
C1090 U1086 2.847 . S
C1090 O1104 1.249 . S
C1090 O1105 1.202 . S
C1091 C1089 1.363 . S
C1091 C1093 1.408 . S
C1091 C1096 1.342 . S
C1092 C1093 1.310 . S
C1092 C1095 1.461 . S
C1092 H1112 0.932 . S
C1093 C1091 1.408 . S
C1093 C1092 1.310 . S
C1093 H1113 0.930 . S
C1094 C1095 1.474 . S
C1094 C1096 1.285 . S
C1094 H1114 0.929 . S
C1095 C1092 1.461 . S
C1095 C1094 1.474 . S
C1096 C1091 1.342 . S
C1096 C1094 1.285 . S
C1096 H1115 0.930 . S
C1097 C1100 1.424 . S
C1097 C1102 1.245 . S
C1097 C1103 1.428 . S
C1098 C1101 1.260 . S
C1098 C1102 1.477 . S
C1098 H1116 0.932 . S
C1099 C1100 1.384 . S
C1099 C1101 1.479 . S
C1099 H1117 0.929 . S
C1100 C1097 1.424 . S
C1100 C1099 1.384 . S
C1100 H1118 0.928 . S
C1101 C1098 1.260 . S
C1101 C1099 1.479 . S
C1102 C1097 1.245 . S
C1102 C1098 1.477 . S
C1102 H1119 0.932 . S
C1103 U1086 2.882 . S
C1103 C1097 1.428 . S
C1103 O1106 1.301 . S
C1103 O1107 1.282 . S
O1104 U1086 2.441 . S
O1104 C1090 1.249 . S
O1105 U1086 2.420 . S
O1105 C1090 1.202 . S
O1106 U1086 2.455 . S
O1106 C1103 1.301 . S
O1107 U1086 2.449 . S
O1107 C1103 1.282 . S
H1108 C1081 0.931 . S
H1109 C1083 0.929 . S
H1110 C1084 0.930 . S
H1111 C1085 0.931 . S
H1112 C1092 0.932 . S
H1113 C1093 0.930 . S
H1114 C1094 0.929 . S
H1115 C1096 0.930 . S
H1116 C1098 0.932 . S
H1117 C1099 0.929 . S
H1118 C1100 0.928 . S
H1119 C1102 0.932 . S
C1120 C1121 1.264 . S
C1120 C1125 1.479 . S
C1120 C1130 1.465 . S
C1121 C1120 1.264 . S
C1121 C1123 1.339 . S
C1121 H1148 0.931 . S
C1122 C1123 1.395 . S
C1122 C1124 1.320 . S
C1123 C1121 1.339 . S
C1123 C1122 1.395 . S
C1123 H1149 0.929 . S
C1124 C1122 1.320 . S
C1124 C1125 1.405 . S
C1124 H1150 0.930 . S
C1125 C1120 1.479 . S
C1125 C1124 1.405 . S
C1125 H1151 0.931 . S
U1126 O1127 2.454 . S
U1126 O1128 2.458 . S
U1126 C1129 2.984 . S
U1126 C1130 2.847 . S
U1126 C1143 2.882 . S
U1126 O1144 2.441 . S
U1126 O1145 2.420 . S
U1126 O1146 2.455 . S
U1126 O1147 2.449 . S
O1127 U1126 2.454 . S
O1127 C1129 1.353 . S
O1128 U1126 2.458 . S
O1128 C1129 1.286 . S
C1129 U1126 2.984 . S
C1129 O1127 1.353 . S
C1129 O1128 1.286 . S
C1129 C1131 1.363 . S
C1130 C1120 1.465 . S
C1130 U1126 2.847 . S
C1130 O1144 1.249 . S
C1130 O1145 1.202 . S
C1131 C1129 1.363 . S
C1131 C1133 1.408 . S
C1131 C1136 1.342 . S
C1132 C1133 1.310 . S
C1132 C1135 1.461 . S
C1132 H1152 0.932 . S
C1133 C1131 1.408 . S
C1133 C1132 1.310 . S
C1133 H1153 0.930 . S
C1134 C1135 1.474 . S
C1134 C1136 1.285 . S
C1134 H1154 0.929 . S
C1135 C1132 1.461 . S
C1135 C1134 1.474 . S
C1136 C1131 1.342 . S
C1136 C1134 1.285 . S
C1136 H1155 0.930 . S
C1137 C1140 1.424 . S
C1137 C1142 1.245 . S
C1137 C1143 1.428 . S
C1138 C1141 1.260 . S
C1138 C1142 1.477 . S
C1138 H1156 0.932 . S
C1139 C1140 1.384 . S
C1139 C1141 1.479 . S
C1139 H1157 0.929 . S
C1140 C1137 1.424 . S
C1140 C1139 1.384 . S
C1140 H1158 0.928 . S
C1141 C1138 1.260 . S
C1141 C1139 1.479 . S
C1142 C1137 1.245 . S
C1142 C1138 1.477 . S
C1142 H1159 0.932 . S
C1143 U1126 2.882 . S
C1143 C1137 1.428 . S
C1143 O1146 1.301 . S
C1143 O1147 1.282 . S
O1144 U1126 2.441 . S
O1144 C1130 1.249 . S
O1145 U1126 2.420 . S
O1145 C1130 1.202 . S
O1146 U1126 2.455 . S
O1146 C1143 1.301 . S
O1147 U1126 2.449 . S
O1147 C1143 1.282 . S
H1148 C1121 0.931 . S
H1149 C1123 0.929 . S
H1150 C1124 0.930 . S
H1151 C1125 0.931 . S
H1152 C1132 0.932 . S
H1153 C1133 0.930 . S
H1154 C1134 0.929 . S
H1155 C1136 0.930 . S
H1156 C1138 0.932 . S
H1157 C1139 0.929 . S
H1158 C1140 0.928 . S
H1159 C1142 0.932 . S
C1160 C1161 1.264 . S
C1160 C1165 1.479 . S
C1160 C1170 1.465 . S
C1161 C1160 1.264 . S
C1161 C1163 1.339 . S
C1161 H1188 0.931 . S
C1162 C1163 1.395 . S
C1162 C1164 1.320 . S
C1163 C1161 1.339 . S
C1163 C1162 1.395 . S
C1163 H1189 0.929 . S
C1164 C1162 1.320 . S
C1164 C1165 1.405 . S
C1164 H1190 0.930 . S
C1165 C1160 1.479 . S
C1165 C1164 1.405 . S
C1165 H1191 0.931 . S
U1166 O1167 2.454 . S
U1166 O1168 2.458 . S
U1166 C1169 2.984 . S
U1166 C1170 2.847 . S
U1166 C1183 2.882 . S
U1166 O1184 2.441 . S
U1166 O1185 2.420 . S
U1166 O1186 2.455 . S
U1166 O1187 2.449 . S
O1167 U1166 2.454 . S
O1167 C1169 1.353 . S
O1168 U1166 2.458 . S
O1168 C1169 1.286 . S
C1169 U1166 2.984 . S
C1169 O1167 1.353 . S
C1169 O1168 1.286 . S
C1169 C1171 1.363 . S
C1170 C1160 1.465 . S
C1170 U1166 2.847 . S
C1170 O1184 1.249 . S
C1170 O1185 1.202 . S
C1171 C1169 1.363 . S
C1171 C1173 1.408 . S
C1171 C1176 1.342 . S
C1172 C1173 1.310 . S
C1172 C1175 1.461 . S
C1172 H1192 0.932 . S
C1173 C1171 1.408 . S
C1173 C1172 1.310 . S
C1173 H1193 0.930 . S
C1174 C1175 1.474 . S
C1174 C1176 1.285 . S
C1174 H1194 0.929 . S
C1175 C1172 1.461 . S
C1175 C1174 1.474 . S
C1176 C1171 1.342 . S
C1176 C1174 1.285 . S
C1176 H1195 0.930 . S
C1177 C1180 1.424 . S
C1177 C1182 1.245 . S
C1177 C1183 1.428 . S
C1178 C1181 1.260 . S
C1178 C1182 1.477 . S
C1178 H1196 0.932 . S
C1179 C1180 1.384 . S
C1179 C1181 1.479 . S
C1179 H1197 0.929 . S
C1180 C1177 1.424 . S
C1180 C1179 1.384 . S
C1180 H1198 0.928 . S
C1181 C1178 1.260 . S
C1181 C1179 1.479 . S
C1182 C1177 1.245 . S
C1182 C1178 1.477 . S
C1182 H1199 0.932 . S
C1183 U1166 2.882 . S
C1183 C1177 1.428 . S
C1183 O1186 1.301 . S
C1183 O1187 1.282 . S
O1184 U1166 2.441 . S
O1184 C1170 1.249 . S
O1185 U1166 2.420 . S
O1185 C1170 1.202 . S
O1186 U1166 2.455 . S
O1186 C1183 1.301 . S
O1187 U1166 2.449 . S
O1187 C1183 1.282 . S
H1188 C1161 0.931 . S
H1189 C1163 0.929 . S
H1190 C1164 0.930 . S
H1191 C1165 0.931 . S
H1192 C1172 0.932 . S
H1193 C1173 0.930 . S
H1194 C1174 0.929 . S
H1195 C1176 0.930 . S
H1196 C1178 0.932 . S
H1197 C1179 0.929 . S
H1198 C1180 0.928 . S
H1199 C1182 0.932 . S
C1200 C1201 1.264 . S
C1200 C1205 1.479 . S
C1200 C1210 1.465 . S
C1201 C1200 1.264 . S
C1201 C1203 1.339 . S
C1201 H1228 0.931 . S
C1202 C1203 1.395 . S
C1202 C1204 1.320 . S
C1203 C1201 1.339 . S
C1203 C1202 1.395 . S
C1203 H1229 0.929 . S
C1204 C1202 1.320 . S
C1204 C1205 1.405 . S
C1204 H1230 0.930 . S
C1205 C1200 1.479 . S
C1205 C1204 1.405 . S
C1205 H1231 0.931 . S
U1206 O1207 2.454 . S
U1206 O1208 2.458 . S
U1206 C1209 2.984 . S
U1206 C1210 2.847 . S
U1206 C1223 2.882 . S
U1206 O1224 2.441 . S
U1206 O1225 2.420 . S
U1206 O1226 2.455 . S
U1206 O1227 2.449 . S
O1207 U1206 2.454 . S
O1207 C1209 1.353 . S
O1208 U1206 2.458 . S
O1208 C1209 1.286 . S
C1209 U1206 2.984 . S
C1209 O1207 1.353 . S
C1209 O1208 1.286 . S
C1209 C1211 1.363 . S
C1210 C1200 1.465 . S
C1210 U1206 2.847 . S
C1210 O1224 1.249 . S
C1210 O1225 1.202 . S
C1211 C1209 1.363 . S
C1211 C1213 1.408 . S
C1211 C1216 1.342 . S
C1212 C1213 1.310 . S
C1212 C1215 1.461 . S
C1212 H1232 0.932 . S
C1213 C1211 1.408 . S
C1213 C1212 1.310 . S
C1213 H1233 0.930 . S
C1214 C1215 1.474 . S
C1214 C1216 1.285 . S
C1214 H1234 0.929 . S
C1215 C1212 1.461 . S
C1215 C1214 1.474 . S
C1216 C1211 1.342 . S
C1216 C1214 1.285 . S
C1216 H1235 0.930 . S
C1217 C1220 1.424 . S
C1217 C1222 1.245 . S
C1217 C1223 1.428 . S
C1218 C1221 1.260 . S
C1218 C1222 1.477 . S
C1218 H1236 0.932 . S
C1219 C1220 1.384 . S
C1219 C1221 1.479 . S
C1219 H1237 0.929 . S
C1220 C1217 1.424 . S
C1220 C1219 1.384 . S
C1220 H1238 0.928 . S
C1221 C1218 1.260 . S
C1221 C1219 1.479 . S
C1222 C1217 1.245 . S
C1222 C1218 1.477 . S
C1222 H1239 0.932 . S
C1223 U1206 2.882 . S
C1223 C1217 1.428 . S
C1223 O1226 1.301 . S
C1223 O1227 1.282 . S
O1224 U1206 2.441 . S
O1224 C1210 1.249 . S
O1225 U1206 2.420 . S
O1225 C1210 1.202 . S
O1226 U1206 2.455 . S
O1226 C1223 1.301 . S
O1227 U1206 2.449 . S
O1227 C1223 1.282 . S
H1228 C1201 0.931 . S
H1229 C1203 0.929 . S
H1230 C1204 0.930 . S
H1231 C1205 0.931 . S
H1232 C1212 0.932 . S
H1233 C1213 0.930 . S
H1234 C1214 0.929 . S
H1235 C1216 0.930 . S
H1236 C1218 0.932 . S
H1237 C1219 0.929 . S
H1238 C1220 0.928 . S
H1239 C1222 0.932 . S
C1240 C1241 1.264 . S
C1240 C1245 1.479 . S
C1240 C1250 1.465 . S
C1241 C1240 1.264 . S
C1241 C1243 1.339 . S
C1241 H1268 0.931 . S
C1242 C1243 1.395 . S
C1242 C1244 1.320 . S
C1243 C1241 1.339 . S
C1243 C1242 1.395 . S
C1243 H1269 0.929 . S
C1244 C1242 1.320 . S
C1244 C1245 1.405 . S
C1244 H1270 0.930 . S
C1245 C1240 1.479 . S
C1245 C1244 1.405 . S
C1245 H1271 0.931 . S
U1246 O1247 2.454 . S
U1246 O1248 2.458 . S
U1246 C1249 2.984 . S
U1246 C1250 2.847 . S
U1246 C1263 2.882 . S
U1246 O1264 2.441 . S
U1246 O1265 2.420 . S
U1246 O1266 2.455 . S
U1246 O1267 2.449 . S
O1247 U1246 2.454 . S
O1247 C1249 1.353 . S
O1248 U1246 2.458 . S
O1248 C1249 1.286 . S
C1249 U1246 2.984 . S
C1249 O1247 1.353 . S
C1249 O1248 1.286 . S
C1249 C1251 1.363 . S
C1250 C1240 1.465 . S
C1250 U1246 2.847 . S
C1250 O1264 1.249 . S
C1250 O1265 1.202 . S
C1251 C1249 1.363 . S
C1251 C1253 1.408 . S
C1251 C1256 1.342 . S
C1252 C1253 1.310 . S
C1252 C1255 1.461 . S
C1252 H1272 0.932 . S
C1253 C1251 1.408 . S
C1253 C1252 1.310 . S
C1253 H1273 0.930 . S
C1254 C1255 1.474 . S
C1254 C1256 1.285 . S
C1254 H1274 0.929 . S
C1255 C1252 1.461 . S
C1255 C1254 1.474 . S
C1256 C1251 1.342 . S
C1256 C1254 1.285 . S
C1256 H1275 0.930 . S
C1257 C1260 1.424 . S
C1257 C1262 1.245 . S
C1257 C1263 1.428 . S
C1258 C1261 1.260 . S
C1258 C1262 1.477 . S
C1258 H1276 0.932 . S
C1259 C1260 1.384 . S
C1259 C1261 1.479 . S
C1259 H1277 0.929 . S
C1260 C1257 1.424 . S
C1260 C1259 1.384 . S
C1260 H1278 0.928 . S
C1261 C1258 1.260 . S
C1261 C1259 1.479 . S
C1262 C1257 1.245 . S
C1262 C1258 1.477 . S
C1262 H1279 0.932 . S
C1263 U1246 2.882 . S
C1263 C1257 1.428 . S
C1263 O1266 1.301 . S
C1263 O1267 1.282 . S
O1264 U1246 2.441 . S
O1264 C1250 1.249 . S
O1265 U1246 2.420 . S
O1265 C1250 1.202 . S
O1266 U1246 2.455 . S
O1266 C1263 1.301 . S
O1267 U1246 2.449 . S
O1267 C1263 1.282 . S
H1268 C1241 0.931 . S
H1269 C1243 0.929 . S
H1270 C1244 0.930 . S
H1271 C1245 0.931 . S
H1272 C1252 0.932 . S
H1273 C1253 0.930 . S
H1274 C1254 0.929 . S
H1275 C1256 0.930 . S
H1276 C1258 0.932 . S
H1277 C1259 0.929 . S
H1278 C1260 0.928 . S
H1279 C1262 0.932 . S
C1280 C1281 1.264 . S
C1280 C1285 1.479 . S
C1280 C1290 1.465 . S
C1281 C1280 1.264 . S
C1281 C1283 1.339 . S
C1281 H1308 0.931 . S
C1282 C1283 1.395 . S
C1282 C1284 1.320 . S
C1283 C1281 1.339 . S
C1283 C1282 1.395 . S
C1283 H1309 0.929 . S
C1284 C1282 1.320 . S
C1284 C1285 1.405 . S
C1284 H1310 0.930 . S
C1285 C1280 1.479 . S
C1285 C1284 1.405 . S
C1285 H1311 0.931 . S
U1286 O1287 2.454 . S
U1286 O1288 2.458 . S
U1286 C1289 2.984 . S
U1286 C1290 2.847 . S
U1286 C1303 2.882 . S
U1286 O1304 2.441 . S
U1286 O1305 2.420 . S
U1286 O1306 2.455 . S
U1286 O1307 2.449 . S
O1287 U1286 2.454 . S
O1287 C1289 1.353 . S
O1288 U1286 2.458 . S
O1288 C1289 1.286 . S
C1289 U1286 2.984 . S
C1289 O1287 1.353 . S
C1289 O1288 1.286 . S
C1289 C1291 1.363 . S
C1290 C1280 1.465 . S
C1290 U1286 2.847 . S
C1290 O1304 1.249 . S
C1290 O1305 1.202 . S
C1291 C1289 1.363 . S
C1291 C1293 1.408 . S
C1291 C1296 1.342 . S
C1292 C1293 1.310 . S
C1292 C1295 1.461 . S
C1292 H1312 0.932 . S
C1293 C1291 1.408 . S
C1293 C1292 1.310 . S
C1293 H1313 0.930 . S
C1294 C1295 1.474 . S
C1294 C1296 1.285 . S
C1294 H1314 0.929 . S
C1295 C1292 1.461 . S
C1295 C1294 1.474 . S
C1296 C1291 1.342 . S
C1296 C1294 1.285 . S
C1296 H1315 0.930 . S
C1297 C1300 1.424 . S
C1297 C1302 1.245 . S
C1297 C1303 1.428 . S
C1298 C1301 1.260 . S
C1298 C1302 1.477 . S
C1298 H1316 0.932 . S
C1299 C1300 1.384 . S
C1299 C1301 1.479 . S
C1299 H1317 0.929 . S
C1300 C1297 1.424 . S
C1300 C1299 1.384 . S
C1300 H1318 0.928 . S
C1301 C1298 1.260 . S
C1301 C1299 1.479 . S
C1302 C1297 1.245 . S
C1302 C1298 1.477 . S
C1302 H1319 0.932 . S
C1303 U1286 2.882 . S
C1303 C1297 1.428 . S
C1303 O1306 1.301 . S
C1303 O1307 1.282 . S
O1304 U1286 2.441 . S
O1304 C1290 1.249 . S
O1305 U1286 2.420 . S
O1305 C1290 1.202 . S
O1306 U1286 2.455 . S
O1306 C1303 1.301 . S
O1307 U1286 2.449 . S
O1307 C1303 1.282 . S
H1308 C1281 0.931 . S
H1309 C1283 0.929 . S
H1310 C1284 0.930 . S
H1311 C1285 0.931 . S
H1312 C1292 0.932 . S
H1313 C1293 0.930 . S
H1314 C1294 0.929 . S
H1315 C1296 0.930 . S
H1316 C1298 0.932 . S
H1317 C1299 0.929 . S
H1318 C1300 0.928 . S
H1319 C1302 0.932 . S
C1320 C1321 1.264 . S
C1320 C1325 1.479 . S
C1320 C1330 1.465 . S
C1321 C1320 1.264 . S
C1321 C1323 1.339 . S
C1321 H1348 0.931 . S
C1322 C1323 1.395 . S
C1322 C1324 1.320 . S
C1323 C1321 1.339 . S
C1323 C1322 1.395 . S
C1323 H1349 0.929 . S
C1324 C1322 1.320 . S
C1324 C1325 1.405 . S
C1324 H1350 0.930 . S
C1325 C1320 1.479 . S
C1325 C1324 1.405 . S
C1325 H1351 0.931 . S
U1326 O1327 2.454 . S
U1326 O1328 2.458 . S
U1326 C1329 2.984 . S
U1326 C1330 2.847 . S
U1326 C1343 2.882 . S
U1326 O1344 2.441 . S
U1326 O1345 2.420 . S
U1326 O1346 2.455 . S
U1326 O1347 2.449 . S
O1327 U1326 2.454 . S
O1327 C1329 1.353 . S
O1328 U1326 2.458 . S
O1328 C1329 1.286 . S
C1329 U1326 2.984 . S
C1329 O1327 1.353 . S
C1329 O1328 1.286 . S
C1329 C1331 1.363 . S
C1330 C1320 1.465 . S
C1330 U1326 2.847 . S
C1330 O1344 1.249 . S
C1330 O1345 1.202 . S
C1331 C1329 1.363 . S
C1331 C1333 1.408 . S
C1331 C1336 1.342 . S
C1332 C1333 1.310 . S
C1332 C1335 1.461 . S
C1332 H1352 0.932 . S
C1333 C1331 1.408 . S
C1333 C1332 1.310 . S
C1333 H1353 0.930 . S
C1334 C1335 1.474 . S
C1334 C1336 1.285 . S
C1334 H1354 0.929 . S
C1335 C1332 1.461 . S
C1335 C1334 1.474 . S
C1336 C1331 1.342 . S
C1336 C1334 1.285 . S
C1336 H1355 0.930 . S
C1337 C1340 1.424 . S
C1337 C1342 1.245 . S
C1337 C1343 1.428 . S
C1338 C1341 1.260 . S
C1338 C1342 1.477 . S
C1338 H1356 0.932 . S
C1339 C1340 1.384 . S
C1339 C1341 1.479 . S
C1339 H1357 0.929 . S
C1340 C1337 1.424 . S
C1340 C1339 1.384 . S
C1340 H1358 0.928 . S
C1341 C1338 1.260 . S
C1341 C1339 1.479 . S
C1342 C1337 1.245 . S
C1342 C1338 1.477 . S
C1342 H1359 0.932 . S
C1343 U1326 2.882 . S
C1343 C1337 1.428 . S
C1343 O1346 1.301 . S
C1343 O1347 1.282 . S
O1344 U1326 2.441 . S
O1344 C1330 1.249 . S
O1345 U1326 2.420 . S
O1345 C1330 1.202 . S
O1346 U1326 2.455 . S
O1346 C1343 1.301 . S
O1347 U1326 2.449 . S
O1347 C1343 1.282 . S
H1348 C1321 0.931 . S
H1349 C1323 0.929 . S
H1350 C1324 0.930 . S
H1351 C1325 0.931 . S
H1352 C1332 0.932 . S
H1353 C1333 0.930 . S
H1354 C1334 0.929 . S
H1355 C1336 0.930 . S
H1356 C1338 0.932 . S
H1357 C1339 0.929 . S
H1358 C1340 0.928 . S
H1359 C1342 0.932 . S
C1360 C1361 1.264 . S
C1360 C1365 1.479 . S
C1360 C1370 1.465 . S
C1361 C1360 1.264 . S
C1361 C1363 1.339 . S
C1361 H1388 0.931 . S
C1362 C1363 1.395 . S
C1362 C1364 1.320 . S
C1363 C1361 1.339 . S
C1363 C1362 1.395 . S
C1363 H1389 0.929 . S
C1364 C1362 1.320 . S
C1364 C1365 1.405 . S
C1364 H1390 0.930 . S
C1365 C1360 1.479 . S
C1365 C1364 1.405 . S
C1365 H1391 0.931 . S
U1366 O1367 2.454 . S
U1366 O1368 2.458 . S
U1366 C1369 2.984 . S
U1366 C1370 2.847 . S
U1366 C1383 2.882 . S
U1366 O1384 2.441 . S
U1366 O1385 2.420 . S
U1366 O1386 2.455 . S
U1366 O1387 2.449 . S
O1367 U1366 2.454 . S
O1367 C1369 1.353 . S
O1368 U1366 2.458 . S
O1368 C1369 1.286 . S
C1369 U1366 2.984 . S
C1369 O1367 1.353 . S
C1369 O1368 1.286 . S
C1369 C1371 1.363 . S
C1370 C1360 1.465 . S
C1370 U1366 2.847 . S
C1370 O1384 1.249 . S
C1370 O1385 1.202 . S
C1371 C1369 1.363 . S
C1371 C1373 1.408 . S
C1371 C1376 1.342 . S
C1372 C1373 1.310 . S
C1372 C1375 1.461 . S
C1372 H1392 0.932 . S
C1373 C1371 1.408 . S
C1373 C1372 1.310 . S
C1373 H1393 0.930 . S
C1374 C1375 1.474 . S
C1374 C1376 1.285 . S
C1374 H1394 0.929 . S
C1375 C1372 1.461 . S
C1375 C1374 1.474 . S
C1376 C1371 1.342 . S
C1376 C1374 1.285 . S
C1376 H1395 0.930 . S
C1377 C1380 1.424 . S
C1377 C1382 1.245 . S
C1377 C1383 1.428 . S
C1378 C1381 1.260 . S
C1378 C1382 1.477 . S
C1378 H1396 0.932 . S
C1379 C1380 1.384 . S
C1379 C1381 1.479 . S
C1379 H1397 0.929 . S
C1380 C1377 1.424 . S
C1380 C1379 1.384 . S
C1380 H1398 0.928 . S
C1381 C1378 1.260 . S
C1381 C1379 1.479 . S
C1382 C1377 1.245 . S
C1382 C1378 1.477 . S
C1382 H1399 0.932 . S
C1383 U1366 2.882 . S
C1383 C1377 1.428 . S
C1383 O1386 1.301 . S
C1383 O1387 1.282 . S
O1384 U1366 2.441 . S
O1384 C1370 1.249 . S
O1385 U1366 2.420 . S
O1385 C1370 1.202 . S
O1386 U1366 2.455 . S
O1386 C1383 1.301 . S
O1387 U1366 2.449 . S
O1387 C1383 1.282 . S
H1388 C1361 0.931 . S
H1389 C1363 0.929 . S
H1390 C1364 0.930 . S
H1391 C1365 0.931 . S
H1392 C1372 0.932 . S
H1393 C1373 0.930 . S
H1394 C1374 0.929 . S
H1395 C1376 0.930 . S
H1396 C1378 0.932 . S
H1397 C1379 0.929 . S
H1398 C1380 0.928 . S
H1399 C1382 0.932 . S
C1400 C1401 1.264 . S
C1400 C1405 1.479 . S
C1400 C1410 1.465 . S
C1401 C1400 1.264 . S
C1401 C1403 1.339 . S
C1401 H1428 0.931 . S
C1402 C1403 1.395 . S
C1402 C1404 1.320 . S
C1403 C1401 1.339 . S
C1403 C1402 1.395 . S
C1403 H1429 0.929 . S
C1404 C1402 1.320 . S
C1404 C1405 1.405 . S
C1404 H1430 0.930 . S
C1405 C1400 1.479 . S
C1405 C1404 1.405 . S
C1405 H1431 0.931 . S
U1406 O1407 2.454 . S
U1406 O1408 2.458 . S
U1406 C1409 2.984 . S
U1406 C1410 2.847 . S
U1406 C1423 2.882 . S
U1406 O1424 2.441 . S
U1406 O1425 2.420 . S
U1406 O1426 2.455 . S
U1406 O1427 2.449 . S
O1407 U1406 2.454 . S
O1407 C1409 1.353 . S
O1408 U1406 2.458 . S
O1408 C1409 1.286 . S
C1409 U1406 2.984 . S
C1409 O1407 1.353 . S
C1409 O1408 1.286 . S
C1409 C1411 1.363 . S
C1410 C1400 1.465 . S
C1410 U1406 2.847 . S
C1410 O1424 1.249 . S
C1410 O1425 1.202 . S
C1411 C1409 1.363 . S
C1411 C1413 1.408 . S
C1411 C1416 1.342 . S
C1412 C1413 1.310 . S
C1412 C1415 1.461 . S
C1412 H1432 0.932 . S
C1413 C1411 1.408 . S
C1413 C1412 1.310 . S
C1413 H1433 0.930 . S
C1414 C1415 1.474 . S
C1414 C1416 1.285 . S
C1414 H1434 0.929 . S
C1415 C1412 1.461 . S
C1415 C1414 1.474 . S
C1416 C1411 1.342 . S
C1416 C1414 1.285 . S
C1416 H1435 0.930 . S
C1417 C1420 1.424 . S
C1417 C1422 1.245 . S
C1417 C1423 1.428 . S
C1418 C1421 1.260 . S
C1418 C1422 1.477 . S
C1418 H1436 0.932 . S
C1419 C1420 1.384 . S
C1419 C1421 1.479 . S
C1419 H1437 0.929 . S
C1420 C1417 1.424 . S
C1420 C1419 1.384 . S
C1420 H1438 0.928 . S
C1421 C1418 1.260 . S
C1421 C1419 1.479 . S
C1422 C1417 1.245 . S
C1422 C1418 1.477 . S
C1422 H1439 0.932 . S
C1423 U1406 2.882 . S
C1423 C1417 1.428 . S
C1423 O1426 1.301 . S
C1423 O1427 1.282 . S
O1424 U1406 2.441 . S
O1424 C1410 1.249 . S
O1425 U1406 2.420 . S
O1425 C1410 1.202 . S
O1426 U1406 2.455 . S
O1426 C1423 1.301 . S
O1427 U1406 2.449 . S
O1427 C1423 1.282 . S
H1428 C1401 0.931 . S
H1429 C1403 0.929 . S
H1430 C1404 0.930 . S
H1431 C1405 0.931 . S
H1432 C1412 0.932 . S
H1433 C1413 0.930 . S
H1434 C1414 0.929 . S
H1435 C1416 0.930 . S
H1436 C1418 0.932 . S
H1437 C1419 0.929 . S
H1438 C1420 0.928 . S
H1439 C1422 0.932 . S
C1440 C1441 1.264 . S
C1440 C1445 1.479 . S
C1440 C1450 1.465 . S
C1441 C1440 1.264 . S
C1441 C1443 1.339 . S
C1441 H1468 0.931 . S
C1442 C1443 1.395 . S
C1442 C1444 1.320 . S
C1443 C1441 1.339 . S
C1443 C1442 1.395 . S
C1443 H1469 0.929 . S
C1444 C1442 1.320 . S
C1444 C1445 1.405 . S
C1444 H1470 0.930 . S
C1445 C1440 1.479 . S
C1445 C1444 1.405 . S
C1445 H1471 0.931 . S
U1446 O1447 2.454 . S
U1446 O1448 2.458 . S
U1446 C1449 2.984 . S
U1446 C1450 2.847 . S
U1446 C1463 2.882 . S
U1446 O1464 2.441 . S
U1446 O1465 2.420 . S
U1446 O1466 2.455 . S
U1446 O1467 2.449 . S
O1447 U1446 2.454 . S
O1447 C1449 1.353 . S
O1448 U1446 2.458 . S
O1448 C1449 1.286 . S
C1449 U1446 2.984 . S
C1449 O1447 1.353 . S
C1449 O1448 1.286 . S
C1449 C1451 1.363 . S
C1450 C1440 1.465 . S
C1450 U1446 2.847 . S
C1450 O1464 1.249 . S
C1450 O1465 1.202 . S
C1451 C1449 1.363 . S
C1451 C1453 1.408 . S
C1451 C1456 1.342 . S
C1452 C1453 1.310 . S
C1452 C1455 1.461 . S
C1452 H1472 0.932 . S
C1453 C1451 1.408 . S
C1453 C1452 1.310 . S
C1453 H1473 0.930 . S
C1454 C1455 1.474 . S
C1454 C1456 1.285 . S
C1454 H1474 0.929 . S
C1455 C1452 1.461 . S
C1455 C1454 1.474 . S
C1456 C1451 1.342 . S
C1456 C1454 1.285 . S
C1456 H1475 0.930 . S
C1457 C1460 1.424 . S
C1457 C1462 1.245 . S
C1457 C1463 1.428 . S
C1458 C1461 1.260 . S
C1458 C1462 1.477 . S
C1458 H1476 0.932 . S
C1459 C1460 1.384 . S
C1459 C1461 1.479 . S
C1459 H1477 0.929 . S
C1460 C1457 1.424 . S
C1460 C1459 1.384 . S
C1460 H1478 0.928 . S
C1461 C1458 1.260 . S
C1461 C1459 1.479 . S
C1462 C1457 1.245 . S
C1462 C1458 1.477 . S
C1462 H1479 0.932 . S
C1463 U1446 2.882 . S
C1463 C1457 1.428 . S
C1463 O1466 1.301 . S
C1463 O1467 1.282 . S
O1464 U1446 2.441 . S
O1464 C1450 1.249 . S
O1465 U1446 2.420 . S
O1465 C1450 1.202 . S
O1466 U1446 2.455 . S
O1466 C1463 1.301 . S
O1467 U1446 2.449 . S
O1467 C1463 1.282 . S
H1468 C1441 0.931 . S
H1469 C1443 0.929 . S
H1470 C1444 0.930 . S
H1471 C1445 0.931 . S
H1472 C1452 0.932 . S
H1473 C1453 0.930 . S
H1474 C1454 0.929 . S
H1475 C1456 0.930 . S
H1476 C1458 0.932 . S
H1477 C1459 0.929 . S
H1478 C1460 0.928 . S
H1479 C1462 0.932 . S
C1480 C1481 1.264 . S
C1480 C1485 1.479 . S
C1480 C1490 1.465 . S
C1481 C1480 1.264 . S
C1481 C1483 1.339 . S
C1481 H1508 0.931 . S
C1482 C1483 1.395 . S
C1482 C1484 1.320 . S
C1483 C1481 1.339 . S
C1483 C1482 1.395 . S
C1483 H1509 0.929 . S
C1484 C1482 1.320 . S
C1484 C1485 1.405 . S
C1484 H1510 0.930 . S
C1485 C1480 1.479 . S
C1485 C1484 1.405 . S
C1485 H1511 0.931 . S
U1486 O1487 2.454 . S
U1486 O1488 2.458 . S
U1486 C1489 2.984 . S
U1486 C1490 2.847 . S
U1486 C1503 2.882 . S
U1486 O1504 2.441 . S
U1486 O1505 2.420 . S
U1486 O1506 2.455 . S
U1486 O1507 2.449 . S
O1487 U1486 2.454 . S
O1487 C1489 1.353 . S
O1488 U1486 2.458 . S
O1488 C1489 1.286 . S
C1489 U1486 2.984 . S
C1489 O1487 1.353 . S
C1489 O1488 1.286 . S
C1489 C1491 1.363 . S
C1490 C1480 1.465 . S
C1490 U1486 2.847 . S
C1490 O1504 1.249 . S
C1490 O1505 1.202 . S
C1491 C1489 1.363 . S
C1491 C1493 1.408 . S
C1491 C1496 1.342 . S
C1492 C1493 1.310 . S
C1492 C1495 1.461 . S
C1492 H1512 0.932 . S
C1493 C1491 1.408 . S
C1493 C1492 1.310 . S
C1493 H1513 0.930 . S
C1494 C1495 1.474 . S
C1494 C1496 1.285 . S
C1494 H1514 0.929 . S
C1495 C1492 1.461 . S
C1495 C1494 1.474 . S
C1496 C1491 1.342 . S
C1496 C1494 1.285 . S
C1496 H1515 0.930 . S
C1497 C1500 1.424 . S
C1497 C1502 1.245 . S
C1497 C1503 1.428 . S
C1498 C1501 1.260 . S
C1498 C1502 1.477 . S
C1498 H1516 0.932 . S
C1499 C1500 1.384 . S
C1499 C1501 1.479 . S
C1499 H1517 0.929 . S
C1500 C1497 1.424 . S
C1500 C1499 1.384 . S
C1500 H1518 0.928 . S
C1501 C1498 1.260 . S
C1501 C1499 1.479 . S
C1502 C1497 1.245 . S
C1502 C1498 1.477 . S
C1502 H1519 0.932 . S
C1503 U1486 2.882 . S
C1503 C1497 1.428 . S
C1503 O1506 1.301 . S
C1503 O1507 1.282 . S
O1504 U1486 2.441 . S
O1504 C1490 1.249 . S
O1505 U1486 2.420 . S
O1505 C1490 1.202 . S
O1506 U1486 2.455 . S
O1506 C1503 1.301 . S
O1507 U1486 2.449 . S
O1507 C1503 1.282 . S
H1508 C1481 0.931 . S
H1509 C1483 0.929 . S
H1510 C1484 0.930 . S
H1511 C1485 0.931 . S
H1512 C1492 0.932 . S
H1513 C1493 0.930 . S
H1514 C1494 0.929 . S
H1515 C1496 0.930 . S
H1516 C1498 0.932 . S
H1517 C1499 0.929 . S
H1518 C1500 0.928 . S
H1519 C1502 0.932 . S
C1520 C1521 1.264 . S
C1520 C1525 1.479 . S
C1520 C1530 1.465 . S
C1521 C1520 1.264 . S
C1521 C1523 1.339 . S
C1521 H1548 0.931 . S
C1522 C1523 1.395 . S
C1522 C1524 1.320 . S
C1523 C1521 1.339 . S
C1523 C1522 1.395 . S
C1523 H1549 0.929 . S
C1524 C1522 1.320 . S
C1524 C1525 1.405 . S
C1524 H1550 0.930 . S
C1525 C1520 1.479 . S
C1525 C1524 1.405 . S
C1525 H1551 0.931 . S
U1526 O1527 2.454 . S
U1526 O1528 2.458 . S
U1526 C1529 2.984 . S
U1526 C1530 2.847 . S
U1526 C1543 2.882 . S
U1526 O1544 2.441 . S
U1526 O1545 2.420 . S
U1526 O1546 2.455 . S
U1526 O1547 2.449 . S
O1527 U1526 2.454 . S
O1527 C1529 1.353 . S
O1528 U1526 2.458 . S
O1528 C1529 1.286 . S
C1529 U1526 2.984 . S
C1529 O1527 1.353 . S
C1529 O1528 1.286 . S
C1529 C1531 1.363 . S
C1530 C1520 1.465 . S
C1530 U1526 2.847 . S
C1530 O1544 1.249 . S
C1530 O1545 1.202 . S
C1531 C1529 1.363 . S
C1531 C1533 1.408 . S
C1531 C1536 1.342 . S
C1532 C1533 1.310 . S
C1532 C1535 1.461 . S
C1532 H1552 0.932 . S
C1533 C1531 1.408 . S
C1533 C1532 1.310 . S
C1533 H1553 0.930 . S
C1534 C1535 1.474 . S
C1534 C1536 1.285 . S
C1534 H1554 0.929 . S
C1535 C1532 1.461 . S
C1535 C1534 1.474 . S
C1536 C1531 1.342 . S
C1536 C1534 1.285 . S
C1536 H1555 0.930 . S
C1537 C1540 1.424 . S
C1537 C1542 1.245 . S
C1537 C1543 1.428 . S
C1538 C1541 1.260 . S
C1538 C1542 1.477 . S
C1538 H1556 0.932 . S
C1539 C1540 1.384 . S
C1539 C1541 1.479 . S
C1539 H1557 0.929 . S
C1540 C1537 1.424 . S
C1540 C1539 1.384 . S
C1540 H1558 0.928 . S
C1541 C1538 1.260 . S
C1541 C1539 1.479 . S
C1542 C1537 1.245 . S
C1542 C1538 1.477 . S
C1542 H1559 0.932 . S
C1543 U1526 2.882 . S
C1543 C1537 1.428 . S
C1543 O1546 1.301 . S
C1543 O1547 1.282 . S
O1544 U1526 2.441 . S
O1544 C1530 1.249 . S
O1545 U1526 2.420 . S
O1545 C1530 1.202 . S
O1546 U1526 2.455 . S
O1546 C1543 1.301 . S
O1547 U1526 2.449 . S
O1547 C1543 1.282 . S
H1548 C1521 0.931 . S
H1549 C1523 0.929 . S
H1550 C1524 0.930 . S
H1551 C1525 0.931 . S
H1552 C1532 0.932 . S
H1553 C1533 0.930 . S
H1554 C1534 0.929 . S
H1555 C1536 0.930 . S
H1556 C1538 0.932 . S
H1557 C1539 0.929 . S
H1558 C1540 0.928 . S
H1559 C1542 0.932 . S
C1560 C1561 1.264 . S
C1560 C1565 1.479 . S
C1560 C1570 1.465 . S
C1561 C1560 1.264 . S
C1561 C1563 1.339 . S
C1561 H1588 0.931 . S
C1562 C1563 1.395 . S
C1562 C1564 1.320 . S
C1563 C1561 1.339 . S
C1563 C1562 1.395 . S
C1563 H1589 0.929 . S
C1564 C1562 1.320 . S
C1564 C1565 1.405 . S
C1564 H1590 0.930 . S
C1565 C1560 1.479 . S
C1565 C1564 1.405 . S
C1565 H1591 0.931 . S
U1566 O1567 2.454 . S
U1566 O1568 2.458 . S
U1566 C1569 2.984 . S
U1566 C1570 2.847 . S
U1566 C1583 2.882 . S
U1566 O1584 2.441 . S
U1566 O1585 2.420 . S
U1566 O1586 2.455 . S
U1566 O1587 2.449 . S
O1567 U1566 2.454 . S
O1567 C1569 1.353 . S
O1568 U1566 2.458 . S
O1568 C1569 1.286 . S
C1569 U1566 2.984 . S
C1569 O1567 1.353 . S
C1569 O1568 1.286 . S
C1569 C1571 1.363 . S
C1570 C1560 1.465 . S
C1570 U1566 2.847 . S
C1570 O1584 1.249 . S
C1570 O1585 1.202 . S
C1571 C1569 1.363 . S
C1571 C1573 1.408 . S
C1571 C1576 1.342 . S
C1572 C1573 1.310 . S
C1572 C1575 1.461 . S
C1572 H1592 0.932 . S
C1573 C1571 1.408 . S
C1573 C1572 1.310 . S
C1573 H1593 0.930 . S
C1574 C1575 1.474 . S
C1574 C1576 1.285 . S
C1574 H1594 0.929 . S
C1575 C1572 1.461 . S
C1575 C1574 1.474 . S
C1576 C1571 1.342 . S
C1576 C1574 1.285 . S
C1576 H1595 0.930 . S
C1577 C1580 1.424 . S
C1577 C1582 1.245 . S
C1577 C1583 1.428 . S
C1578 C1581 1.260 . S
C1578 C1582 1.477 . S
C1578 H1596 0.932 . S
C1579 C1580 1.384 . S
C1579 C1581 1.479 . S
C1579 H1597 0.929 . S
C1580 C1577 1.424 . S
C1580 C1579 1.384 . S
C1580 H1598 0.928 . S
C1581 C1578 1.260 . S
C1581 C1579 1.479 . S
C1582 C1577 1.245 . S
C1582 C1578 1.477 . S
C1582 H1599 0.932 . S
C1583 U1566 2.882 . S
C1583 C1577 1.428 . S
C1583 O1586 1.301 . S
C1583 O1587 1.282 . S
O1584 U1566 2.441 . S
O1584 C1570 1.249 . S
O1585 U1566 2.420 . S
O1585 C1570 1.202 . S
O1586 U1566 2.455 . S
O1586 C1583 1.301 . S
O1587 U1566 2.449 . S
O1587 C1583 1.282 . S
H1588 C1561 0.931 . S
H1589 C1563 0.929 . S
H1590 C1564 0.930 . S
H1591 C1565 0.931 . S
H1592 C1572 0.932 . S
H1593 C1573 0.930 . S
H1594 C1574 0.929 . S
H1595 C1576 0.930 . S
H1596 C1578 0.932 . S
H1597 C1579 0.929 . S
H1598 C1580 0.928 . S
H1599 C1582 0.932 . S
C1600 C1601 1.264 . S
C1600 C1605 1.479 . S
C1600 C1610 1.465 . S
C1601 C1600 1.264 . S
C1601 C1603 1.339 . S
C1601 H1628 0.931 . S
C1602 C1603 1.395 . S
C1602 C1604 1.320 . S
C1603 C1601 1.339 . S
C1603 C1602 1.395 . S
C1603 H1629 0.929 . S
C1604 C1602 1.320 . S
C1604 C1605 1.405 . S
C1604 H1630 0.930 . S
C1605 C1600 1.479 . S
C1605 C1604 1.405 . S
C1605 H1631 0.931 . S
U1606 O1607 2.454 . S
U1606 O1608 2.458 . S
U1606 C1609 2.984 . S
U1606 C1610 2.847 . S
U1606 C1623 2.882 . S
U1606 O1624 2.441 . S
U1606 O1625 2.420 . S
U1606 O1626 2.455 . S
U1606 O1627 2.449 . S
O1607 U1606 2.454 . S
O1607 C1609 1.353 . S
O1608 U1606 2.458 . S
O1608 C1609 1.286 . S
C1609 U1606 2.984 . S
C1609 O1607 1.353 . S
C1609 O1608 1.286 . S
C1609 C1611 1.363 . S
C1610 C1600 1.465 . S
C1610 U1606 2.847 . S
C1610 O1624 1.249 . S
C1610 O1625 1.202 . S
C1611 C1609 1.363 . S
C1611 C1613 1.408 . S
C1611 C1616 1.342 . S
C1612 C1613 1.310 . S
C1612 C1615 1.461 . S
C1612 H1632 0.932 . S
C1613 C1611 1.408 . S
C1613 C1612 1.310 . S
C1613 H1633 0.930 . S
C1614 C1615 1.474 . S
C1614 C1616 1.285 . S
C1614 H1634 0.929 . S
C1615 C1612 1.461 . S
C1615 C1614 1.474 . S
C1616 C1611 1.342 . S
C1616 C1614 1.285 . S
C1616 H1635 0.930 . S
C1617 C1620 1.424 . S
C1617 C1622 1.245 . S
C1617 C1623 1.428 . S
C1618 C1621 1.260 . S
C1618 C1622 1.477 . S
C1618 H1636 0.932 . S
C1619 C1620 1.384 . S
C1619 C1621 1.479 . S
C1619 H1637 0.929 . S
C1620 C1617 1.424 . S
C1620 C1619 1.384 . S
C1620 H1638 0.928 . S
C1621 C1618 1.260 . S
C1621 C1619 1.479 . S
C1622 C1617 1.245 . S
C1622 C1618 1.477 . S
C1622 H1639 0.932 . S
C1623 U1606 2.882 . S
C1623 C1617 1.428 . S
C1623 O1626 1.301 . S
C1623 O1627 1.282 . S
O1624 U1606 2.441 . S
O1624 C1610 1.249 . S
O1625 U1606 2.420 . S
O1625 C1610 1.202 . S
O1626 U1606 2.455 . S
O1626 C1623 1.301 . S
O1627 U1606 2.449 . S
O1627 C1623 1.282 . S
H1628 C1601 0.931 . S
H1629 C1603 0.929 . S
H1630 C1604 0.930 . S
H1631 C1605 0.931 . S
H1632 C1612 0.932 . S
H1633 C1613 0.930 . S
H1634 C1614 0.929 . S
H1635 C1616 0.930 . S
H1636 C1618 0.932 . S
H1637 C1619 0.929 . S
H1638 C1620 0.928 . S
H1639 C1622 0.932 . S
C1640 C1641 1.264 . S
C1640 C1645 1.479 . S
C1640 C1650 1.465 . S
C1641 C1640 1.264 . S
C1641 C1643 1.339 . S
C1641 H1668 0.931 . S
C1642 C1643 1.395 . S
C1642 C1644 1.320 . S
C1643 C1641 1.339 . S
C1643 C1642 1.395 . S
C1643 H1669 0.929 . S
C1644 C1642 1.320 . S
C1644 C1645 1.405 . S
C1644 H1670 0.930 . S
C1645 C1640 1.479 . S
C1645 C1644 1.405 . S
C1645 H1671 0.931 . S
U1646 O1647 2.454 . S
U1646 O1648 2.458 . S
U1646 C1649 2.984 . S
U1646 C1650 2.847 . S
U1646 C1663 2.882 . S
U1646 O1664 2.441 . S
U1646 O1665 2.420 . S
U1646 O1666 2.455 . S
U1646 O1667 2.449 . S
O1647 U1646 2.454 . S
O1647 C1649 1.353 . S
O1648 U1646 2.458 . S
O1648 C1649 1.286 . S
C1649 U1646 2.984 . S
C1649 O1647 1.353 . S
C1649 O1648 1.286 . S
C1649 C1651 1.363 . S
C1650 C1640 1.465 . S
C1650 U1646 2.847 . S
C1650 O1664 1.249 . S
C1650 O1665 1.202 . S
C1651 C1649 1.363 . S
C1651 C1653 1.408 . S
C1651 C1656 1.342 . S
C1652 C1653 1.310 . S
C1652 C1655 1.461 . S
C1652 H1672 0.932 . S
C1653 C1651 1.408 . S
C1653 C1652 1.310 . S
C1653 H1673 0.930 . S
C1654 C1655 1.474 . S
C1654 C1656 1.285 . S
C1654 H1674 0.929 . S
C1655 C1652 1.461 . S
C1655 C1654 1.474 . S
C1656 C1651 1.342 . S
C1656 C1654 1.285 . S
C1656 H1675 0.930 . S
C1657 C1660 1.424 . S
C1657 C1662 1.245 . S
C1657 C1663 1.428 . S
C1658 C1661 1.260 . S
C1658 C1662 1.477 . S
C1658 H1676 0.932 . S
C1659 C1660 1.384 . S
C1659 C1661 1.479 . S
C1659 H1677 0.929 . S
C1660 C1657 1.424 . S
C1660 C1659 1.384 . S
C1660 H1678 0.928 . S
C1661 C1658 1.260 . S
C1661 C1659 1.479 . S
C1662 C1657 1.245 . S
C1662 C1658 1.477 . S
C1662 H1679 0.932 . S
C1663 U1646 2.882 . S
C1663 C1657 1.428 . S
C1663 O1666 1.301 . S
C1663 O1667 1.282 . S
O1664 U1646 2.441 . S
O1664 C1650 1.249 . S
O1665 U1646 2.420 . S
O1665 C1650 1.202 . S
O1666 U1646 2.455 . S
O1666 C1663 1.301 . S
O1667 U1646 2.449 . S
O1667 C1663 1.282 . S
H1668 C1641 0.931 . S
H1669 C1643 0.929 . S
H1670 C1644 0.930 . S
H1671 C1645 0.931 . S
H1672 C1652 0.932 . S
H1673 C1653 0.930 . S
H1674 C1654 0.929 . S
H1675 C1656 0.930 . S
H1676 C1658 0.932 . S
H1677 C1659 0.929 . S
H1678 C1660 0.928 . S
H1679 C1662 0.932 . S
C1680 C1681 1.264 . S
C1680 C1685 1.479 . S
C1680 C1690 1.465 . S
C1681 C1680 1.264 . S
C1681 C1683 1.339 . S
C1681 H1708 0.931 . S
C1682 C1683 1.395 . S
C1682 C1684 1.320 . S
C1683 C1681 1.339 . S
C1683 C1682 1.395 . S
C1683 H1709 0.929 . S
C1684 C1682 1.320 . S
C1684 C1685 1.405 . S
C1684 H1710 0.930 . S
C1685 C1680 1.479 . S
C1685 C1684 1.405 . S
C1685 H1711 0.931 . S
U1686 O1687 2.454 . S
U1686 O1688 2.458 . S
U1686 C1689 2.984 . S
U1686 C1690 2.847 . S
U1686 C1703 2.882 . S
U1686 O1704 2.441 . S
U1686 O1705 2.420 . S
U1686 O1706 2.455 . S
U1686 O1707 2.449 . S
O1687 U1686 2.454 . S
O1687 C1689 1.353 . S
O1688 U1686 2.458 . S
O1688 C1689 1.286 . S
C1689 U1686 2.984 . S
C1689 O1687 1.353 . S
C1689 O1688 1.286 . S
C1689 C1691 1.363 . S
C1690 C1680 1.465 . S
C1690 U1686 2.847 . S
C1690 O1704 1.249 . S
C1690 O1705 1.202 . S
C1691 C1689 1.363 . S
C1691 C1693 1.408 . S
C1691 C1696 1.342 . S
C1692 C1693 1.310 . S
C1692 C1695 1.461 . S
C1692 H1712 0.932 . S
C1693 C1691 1.408 . S
C1693 C1692 1.310 . S
C1693 H1713 0.930 . S
C1694 C1695 1.474 . S
C1694 C1696 1.285 . S
C1694 H1714 0.929 . S
C1695 C1692 1.461 . S
C1695 C1694 1.474 . S
C1696 C1691 1.342 . S
C1696 C1694 1.285 . S
C1696 H1715 0.930 . S
C1697 C1700 1.424 . S
C1697 C1702 1.245 . S
C1697 C1703 1.428 . S
C1698 C1701 1.260 . S
C1698 C1702 1.477 . S
C1698 H1716 0.932 . S
C1699 C1700 1.384 . S
C1699 C1701 1.479 . S
C1699 H1717 0.929 . S
C1700 C1697 1.424 . S
C1700 C1699 1.384 . S
C1700 H1718 0.928 . S
C1701 C1698 1.260 . S
C1701 C1699 1.479 . S
C1702 C1697 1.245 . S
C1702 C1698 1.477 . S
C1702 H1719 0.932 . S
C1703 U1686 2.882 . S
C1703 C1697 1.428 . S
C1703 O1706 1.301 . S
C1703 O1707 1.282 . S
O1704 U1686 2.441 . S
O1704 C1690 1.249 . S
O1705 U1686 2.420 . S
O1705 C1690 1.202 . S
O1706 U1686 2.455 . S
O1706 C1703 1.301 . S
O1707 U1686 2.449 . S
O1707 C1703 1.282 . S
H1708 C1681 0.931 . S
H1709 C1683 0.929 . S
H1710 C1684 0.930 . S
H1711 C1685 0.931 . S
H1712 C1692 0.932 . S
H1713 C1693 0.930 . S
H1714 C1694 0.929 . S
H1715 C1696 0.930 . S
H1716 C1698 0.932 . S
H1717 C1699 0.929 . S
H1718 C1700 0.928 . S
H1719 C1702 0.932 . S
C1720 C1721 1.264 . S
C1720 C1725 1.479 . S
C1720 C1730 1.465 . S
C1721 C1720 1.264 . S
C1721 C1723 1.339 . S
C1721 H1748 0.931 . S
C1722 C1723 1.395 . S
C1722 C1724 1.320 . S
C1723 C1721 1.339 . S
C1723 C1722 1.395 . S
C1723 H1749 0.929 . S
C1724 C1722 1.320 . S
C1724 C1725 1.405 . S
C1724 H1750 0.930 . S
C1725 C1720 1.479 . S
C1725 C1724 1.405 . S
C1725 H1751 0.931 . S
U1726 O1727 2.454 . S
U1726 O1728 2.458 . S
U1726 C1729 2.984 . S
U1726 C1730 2.847 . S
U1726 C1743 2.882 . S
U1726 O1744 2.441 . S
U1726 O1745 2.420 . S
U1726 O1746 2.455 . S
U1726 O1747 2.449 . S
O1727 U1726 2.454 . S
O1727 C1729 1.353 . S
O1728 U1726 2.458 . S
O1728 C1729 1.286 . S
C1729 U1726 2.984 . S
C1729 O1727 1.353 . S
C1729 O1728 1.286 . S
C1729 C1731 1.363 . S
C1730 C1720 1.465 . S
C1730 U1726 2.847 . S
C1730 O1744 1.249 . S
C1730 O1745 1.202 . S
C1731 C1729 1.363 . S
C1731 C1733 1.408 . S
C1731 C1736 1.342 . S
C1732 C1733 1.310 . S
C1732 C1735 1.461 . S
C1732 H1752 0.932 . S
C1733 C1731 1.408 . S
C1733 C1732 1.310 . S
C1733 H1753 0.930 . S
C1734 C1735 1.474 . S
C1734 C1736 1.285 . S
C1734 H1754 0.929 . S
C1735 C1732 1.461 . S
C1735 C1734 1.474 . S
C1736 C1731 1.342 . S
C1736 C1734 1.285 . S
C1736 H1755 0.930 . S
C1737 C1740 1.424 . S
C1737 C1742 1.245 . S
C1737 C1743 1.428 . S
C1738 C1741 1.260 . S
C1738 C1742 1.477 . S
C1738 H1756 0.932 . S
C1739 C1740 1.384 . S
C1739 C1741 1.479 . S
C1739 H1757 0.929 . S
C1740 C1737 1.424 . S
C1740 C1739 1.384 . S
C1740 H1758 0.928 . S
C1741 C1738 1.260 . S
C1741 C1739 1.479 . S
C1742 C1737 1.245 . S
C1742 C1738 1.477 . S
C1742 H1759 0.932 . S
C1743 U1726 2.882 . S
C1743 C1737 1.428 . S
C1743 O1746 1.301 . S
C1743 O1747 1.282 . S
O1744 U1726 2.441 . S
O1744 C1730 1.249 . S
O1745 U1726 2.420 . S
O1745 C1730 1.202 . S
O1746 U1726 2.455 . S
O1746 C1743 1.301 . S
O1747 U1726 2.449 . S
O1747 C1743 1.282 . S
H1748 C1721 0.931 . S
H1749 C1723 0.929 . S
H1750 C1724 0.930 . S
H1751 C1725 0.931 . S
H1752 C1732 0.932 . S
H1753 C1733 0.930 . S
H1754 C1734 0.929 . S
H1755 C1736 0.930 . S
H1756 C1738 0.932 . S
H1757 C1739 0.929 . S
H1758 C1740 0.928 . S
H1759 C1742 0.932 . S
C1760 C1761 1.264 . S
C1760 C1765 1.479 . S
C1760 C1770 1.465 . S
C1761 C1760 1.264 . S
C1761 C1763 1.339 . S
C1761 H1788 0.931 . S
C1762 C1763 1.395 . S
C1762 C1764 1.320 . S
C1763 C1761 1.339 . S
C1763 C1762 1.395 . S
C1763 H1789 0.929 . S
C1764 C1762 1.320 . S
C1764 C1765 1.405 . S
C1764 H1790 0.930 . S
C1765 C1760 1.479 . S
C1765 C1764 1.405 . S
C1765 H1791 0.931 . S
U1766 O1767 2.454 . S
U1766 O1768 2.458 . S
U1766 C1769 2.984 . S
U1766 C1770 2.847 . S
U1766 C1783 2.882 . S
U1766 O1784 2.441 . S
U1766 O1785 2.420 . S
U1766 O1786 2.455 . S
U1766 O1787 2.449 . S
O1767 U1766 2.454 . S
O1767 C1769 1.353 . S
O1768 U1766 2.458 . S
O1768 C1769 1.286 . S
C1769 U1766 2.984 . S
C1769 O1767 1.353 . S
C1769 O1768 1.286 . S
C1769 C1771 1.363 . S
C1770 C1760 1.465 . S
C1770 U1766 2.847 . S
C1770 O1784 1.249 . S
C1770 O1785 1.202 . S
C1771 C1769 1.363 . S
C1771 C1773 1.408 . S
C1771 C1776 1.342 . S
C1772 C1773 1.310 . S
C1772 C1775 1.461 . S
C1772 H1792 0.932 . S
C1773 C1771 1.408 . S
C1773 C1772 1.310 . S
C1773 H1793 0.930 . S
C1774 C1775 1.474 . S
C1774 C1776 1.285 . S
C1774 H1794 0.929 . S
C1775 C1772 1.461 . S
C1775 C1774 1.474 . S
C1776 C1771 1.342 . S
C1776 C1774 1.285 . S
C1776 H1795 0.930 . S
C1777 C1780 1.424 . S
C1777 C1782 1.245 . S
C1777 C1783 1.428 . S
C1778 C1781 1.260 . S
C1778 C1782 1.477 . S
C1778 H1796 0.932 . S
C1779 C1780 1.384 . S
C1779 C1781 1.479 . S
C1779 H1797 0.929 . S
C1780 C1777 1.424 . S
C1780 C1779 1.384 . S
C1780 H1798 0.928 . S
C1781 C1778 1.260 . S
C1781 C1779 1.479 . S
C1782 C1777 1.245 . S
C1782 C1778 1.477 . S
C1782 H1799 0.932 . S
C1783 U1766 2.882 . S
C1783 C1777 1.428 . S
C1783 O1786 1.301 . S
C1783 O1787 1.282 . S
O1784 U1766 2.441 . S
O1784 C1770 1.249 . S
O1785 U1766 2.420 . S
O1785 C1770 1.202 . S
O1786 U1766 2.455 . S
O1786 C1783 1.301 . S
O1787 U1766 2.449 . S
O1787 C1783 1.282 . S
H1788 C1761 0.931 . S
H1789 C1763 0.929 . S
H1790 C1764 0.930 . S
H1791 C1765 0.931 . S
H1792 C1772 0.932 . S
H1793 C1773 0.930 . S
H1794 C1774 0.929 . S
H1795 C1776 0.930 . S
H1796 C1778 0.932 . S
H1797 C1779 0.929 . S
H1798 C1780 0.928 . S
H1799 C1782 0.932 . S
C1800 C1801 1.264 . S
C1800 C1805 1.479 . S
C1800 C1810 1.465 . S
C1801 C1800 1.264 . S
C1801 C1803 1.339 . S
C1801 H1828 0.931 . S
C1802 C1803 1.395 . S
C1802 C1804 1.320 . S
C1803 C1801 1.339 . S
C1803 C1802 1.395 . S
C1803 H1829 0.929 . S
C1804 C1802 1.320 . S
C1804 C1805 1.405 . S
C1804 H1830 0.930 . S
C1805 C1800 1.479 . S
C1805 C1804 1.405 . S
C1805 H1831 0.931 . S
U1806 O1807 2.454 . S
U1806 O1808 2.458 . S
U1806 C1809 2.984 . S
U1806 C1810 2.847 . S
U1806 C1823 2.882 . S
U1806 O1824 2.441 . S
U1806 O1825 2.420 . S
U1806 O1826 2.455 . S
U1806 O1827 2.449 . S
O1807 U1806 2.454 . S
O1807 C1809 1.353 . S
O1808 U1806 2.458 . S
O1808 C1809 1.286 . S
C1809 U1806 2.984 . S
C1809 O1807 1.353 . S
C1809 O1808 1.286 . S
C1809 C1811 1.363 . S
C1810 C1800 1.465 . S
C1810 U1806 2.847 . S
C1810 O1824 1.249 . S
C1810 O1825 1.202 . S
C1811 C1809 1.363 . S
C1811 C1813 1.408 . S
C1811 C1816 1.342 . S
C1812 C1813 1.310 . S
C1812 C1815 1.461 . S
C1812 H1832 0.932 . S
C1813 C1811 1.408 . S
C1813 C1812 1.310 . S
C1813 H1833 0.930 . S
C1814 C1815 1.474 . S
C1814 C1816 1.285 . S
C1814 H1834 0.929 . S
C1815 C1812 1.461 . S
C1815 C1814 1.474 . S
C1816 C1811 1.342 . S
C1816 C1814 1.285 . S
C1816 H1835 0.930 . S
C1817 C1820 1.424 . S
C1817 C1822 1.245 . S
C1817 C1823 1.428 . S
C1818 C1821 1.260 . S
C1818 C1822 1.477 . S
C1818 H1836 0.932 . S
C1819 C1820 1.384 . S
C1819 C1821 1.479 . S
C1819 H1837 0.929 . S
C1820 C1817 1.424 . S
C1820 C1819 1.384 . S
C1820 H1838 0.928 . S
C1821 C1818 1.260 . S
C1821 C1819 1.479 . S
C1822 C1817 1.245 . S
C1822 C1818 1.477 . S
C1822 H1839 0.932 . S
C1823 U1806 2.882 . S
C1823 C1817 1.428 . S
C1823 O1826 1.301 . S
C1823 O1827 1.282 . S
O1824 U1806 2.441 . S
O1824 C1810 1.249 . S
O1825 U1806 2.420 . S
O1825 C1810 1.202 . S
O1826 U1806 2.455 . S
O1826 C1823 1.301 . S
O1827 U1806 2.449 . S
O1827 C1823 1.282 . S
H1828 C1801 0.931 . S
H1829 C1803 0.929 . S
H1830 C1804 0.930 . S
H1831 C1805 0.931 . S
H1832 C1812 0.932 . S
H1833 C1813 0.930 . S
H1834 C1814 0.929 . S
H1835 C1816 0.930 . S
H1836 C1818 0.932 . S
H1837 C1819 0.929 . S
H1838 C1820 0.928 . S
H1839 C1822 0.932 . S
C1840 C1841 1.264 . S
C1840 C1845 1.479 . S
C1840 C1850 1.465 . S
C1841 C1840 1.264 . S
C1841 C1843 1.339 . S
C1841 H1868 0.931 . S
C1842 C1843 1.395 . S
C1842 C1844 1.320 . S
C1843 C1841 1.339 . S
C1843 C1842 1.395 . S
C1843 H1869 0.929 . S
C1844 C1842 1.320 . S
C1844 C1845 1.405 . S
C1844 H1870 0.930 . S
C1845 C1840 1.479 . S
C1845 C1844 1.405 . S
C1845 H1871 0.931 . S
U1846 O1847 2.454 . S
U1846 O1848 2.458 . S
U1846 C1849 2.984 . S
U1846 C1850 2.847 . S
U1846 C1863 2.882 . S
U1846 O1864 2.441 . S
U1846 O1865 2.420 . S
U1846 O1866 2.455 . S
U1846 O1867 2.449 . S
O1847 U1846 2.454 . S
O1847 C1849 1.353 . S
O1848 U1846 2.458 . S
O1848 C1849 1.286 . S
C1849 U1846 2.984 . S
C1849 O1847 1.353 . S
C1849 O1848 1.286 . S
C1849 C1851 1.363 . S
C1850 C1840 1.465 . S
C1850 U1846 2.847 . S
C1850 O1864 1.249 . S
C1850 O1865 1.202 . S
C1851 C1849 1.363 . S
C1851 C1853 1.408 . S
C1851 C1856 1.342 . S
C1852 C1853 1.310 . S
C1852 C1855 1.461 . S
C1852 H1872 0.932 . S
C1853 C1851 1.408 . S
C1853 C1852 1.310 . S
C1853 H1873 0.930 . S
C1854 C1855 1.474 . S
C1854 C1856 1.285 . S
C1854 H1874 0.929 . S
C1855 C1852 1.461 . S
C1855 C1854 1.474 . S
C1856 C1851 1.342 . S
C1856 C1854 1.285 . S
C1856 H1875 0.930 . S
C1857 C1860 1.424 . S
C1857 C1862 1.245 . S
C1857 C1863 1.428 . S
C1858 C1861 1.260 . S
C1858 C1862 1.477 . S
C1858 H1876 0.932 . S
C1859 C1860 1.384 . S
C1859 C1861 1.479 . S
C1859 H1877 0.929 . S
C1860 C1857 1.424 . S
C1860 C1859 1.384 . S
C1860 H1878 0.928 . S
C1861 C1858 1.260 . S
C1861 C1859 1.479 . S
C1862 C1857 1.245 . S
C1862 C1858 1.477 . S
C1862 H1879 0.932 . S
C1863 U1846 2.882 . S
C1863 C1857 1.428 . S
C1863 O1866 1.301 . S
C1863 O1867 1.282 . S
O1864 U1846 2.441 . S
O1864 C1850 1.249 . S
O1865 U1846 2.420 . S
O1865 C1850 1.202 . S
O1866 U1846 2.455 . S
O1866 C1863 1.301 . S
O1867 U1846 2.449 . S
O1867 C1863 1.282 . S
H1868 C1841 0.931 . S
H1869 C1843 0.929 . S
H1870 C1844 0.930 . S
H1871 C1845 0.931 . S
H1872 C1852 0.932 . S
H1873 C1853 0.930 . S
H1874 C1854 0.929 . S
H1875 C1856 0.930 . S
H1876 C1858 0.932 . S
H1877 C1859 0.929 . S
H1878 C1860 0.928 . S
H1879 C1862 0.932 . S
C1880 C1881 1.264 . S
C1880 C1885 1.479 . S
C1880 C1890 1.465 . S
C1881 C1880 1.264 . S
C1881 C1883 1.339 . S
C1881 H1908 0.931 . S
C1882 C1883 1.395 . S
C1882 C1884 1.320 . S
C1883 C1881 1.339 . S
C1883 C1882 1.395 . S
C1883 H1909 0.929 . S
C1884 C1882 1.320 . S
C1884 C1885 1.405 . S
C1884 H1910 0.930 . S
C1885 C1880 1.479 . S
C1885 C1884 1.405 . S
C1885 H1911 0.931 . S
U1886 O1887 2.454 . S
U1886 O1888 2.458 . S
U1886 C1889 2.984 . S
U1886 C1890 2.847 . S
U1886 C1903 2.882 . S
U1886 O1904 2.441 . S
U1886 O1905 2.420 . S
U1886 O1906 2.455 . S
U1886 O1907 2.449 . S
O1887 U1886 2.454 . S
O1887 C1889 1.353 . S
O1888 U1886 2.458 . S
O1888 C1889 1.286 . S
C1889 U1886 2.984 . S
C1889 O1887 1.353 . S
C1889 O1888 1.286 . S
C1889 C1891 1.363 . S
C1890 C1880 1.465 . S
C1890 U1886 2.847 . S
C1890 O1904 1.249 . S
C1890 O1905 1.202 . S
C1891 C1889 1.363 . S
C1891 C1893 1.408 . S
C1891 C1896 1.342 . S
C1892 C1893 1.310 . S
C1892 C1895 1.461 . S
C1892 H1912 0.932 . S
C1893 C1891 1.408 . S
C1893 C1892 1.310 . S
C1893 H1913 0.930 . S
C1894 C1895 1.474 . S
C1894 C1896 1.285 . S
C1894 H1914 0.929 . S
C1895 C1892 1.461 . S
C1895 C1894 1.474 . S
C1896 C1891 1.342 . S
C1896 C1894 1.285 . S
C1896 H1915 0.930 . S
C1897 C1900 1.424 . S
C1897 C1902 1.245 . S
C1897 C1903 1.428 . S
C1898 C1901 1.260 . S
C1898 C1902 1.477 . S
C1898 H1916 0.932 . S
C1899 C1900 1.384 . S
C1899 C1901 1.479 . S
C1899 H1917 0.929 . S
C1900 C1897 1.424 . S
C1900 C1899 1.384 . S
C1900 H1918 0.928 . S
C1901 C1898 1.260 . S
C1901 C1899 1.479 . S
C1902 C1897 1.245 . S
C1902 C1898 1.477 . S
C1902 H1919 0.932 . S
C1903 U1886 2.882 . S
C1903 C1897 1.428 . S
C1903 O1906 1.301 . S
C1903 O1907 1.282 . S
O1904 U1886 2.441 . S
O1904 C1890 1.249 . S
O1905 U1886 2.420 . S
O1905 C1890 1.202 . S
O1906 U1886 2.455 . S
O1906 C1903 1.301 . S
O1907 U1886 2.449 . S
O1907 C1903 1.282 . S
H1908 C1881 0.931 . S
H1909 C1883 0.929 . S
H1910 C1884 0.930 . S
H1911 C1885 0.931 . S
H1912 C1892 0.932 . S
H1913 C1893 0.930 . S
H1914 C1894 0.929 . S
H1915 C1896 0.930 . S
H1916 C1898 0.932 . S
H1917 C1899 0.929 . S
H1918 C1900 0.928 . S
H1919 C1902 0.932 . S
C1920 C1921 1.264 . S
C1920 C1925 1.479 . S
C1920 C1930 1.465 . S
C1921 C1920 1.264 . S
C1921 C1923 1.339 . S
C1921 H1948 0.931 . S
C1922 C1923 1.395 . S
C1922 C1924 1.320 . S
C1923 C1921 1.339 . S
C1923 C1922 1.395 . S
C1923 H1949 0.929 . S
C1924 C1922 1.320 . S
C1924 C1925 1.405 . S
C1924 H1950 0.930 . S
C1925 C1920 1.479 . S
C1925 C1924 1.405 . S
C1925 H1951 0.931 . S
U1926 O1927 2.454 . S
U1926 O1928 2.458 . S
U1926 C1929 2.984 . S
U1926 C1930 2.847 . S
U1926 C1943 2.882 . S
U1926 O1944 2.441 . S
U1926 O1945 2.420 . S
U1926 O1946 2.455 . S
U1926 O1947 2.449 . S
O1927 U1926 2.454 . S
O1927 C1929 1.353 . S
O1928 U1926 2.458 . S
O1928 C1929 1.286 . S
C1929 U1926 2.984 . S
C1929 O1927 1.353 . S
C1929 O1928 1.286 . S
C1929 C1931 1.363 . S
C1930 C1920 1.465 . S
C1930 U1926 2.847 . S
C1930 O1944 1.249 . S
C1930 O1945 1.202 . S
C1931 C1929 1.363 . S
C1931 C1933 1.408 . S
C1931 C1936 1.342 . S
C1932 C1933 1.310 . S
C1932 C1935 1.461 . S
C1932 H1952 0.932 . S
C1933 C1931 1.408 . S
C1933 C1932 1.310 . S
C1933 H1953 0.930 . S
C1934 C1935 1.474 . S
C1934 C1936 1.285 . S
C1934 H1954 0.929 . S
C1935 C1932 1.461 . S
C1935 C1934 1.474 . S
C1936 C1931 1.342 . S
C1936 C1934 1.285 . S
C1936 H1955 0.930 . S
C1937 C1940 1.424 . S
C1937 C1942 1.245 . S
C1937 C1943 1.428 . S
C1938 C1941 1.260 . S
C1938 C1942 1.477 . S
C1938 H1956 0.932 . S
C1939 C1940 1.384 . S
C1939 C1941 1.479 . S
C1939 H1957 0.929 . S
C1940 C1937 1.424 . S
C1940 C1939 1.384 . S
C1940 H1958 0.928 . S
C1941 C1938 1.260 . S
C1941 C1939 1.479 . S
C1942 C1937 1.245 . S
C1942 C1938 1.477 . S
C1942 H1959 0.932 . S
C1943 U1926 2.882 . S
C1943 C1937 1.428 . S
C1943 O1946 1.301 . S
C1943 O1947 1.282 . S
O1944 U1926 2.441 . S
O1944 C1930 1.249 . S
O1945 U1926 2.420 . S
O1945 C1930 1.202 . S
O1946 U1926 2.455 . S
O1946 C1943 1.301 . S
O1947 U1926 2.449 . S
O1947 C1943 1.282 . S
H1948 C1921 0.931 . S
H1949 C1923 0.929 . S
H1950 C1924 0.930 . S
H1951 C1925 0.931 . S
H1952 C1932 0.932 . S
H1953 C1933 0.930 . S
H1954 C1934 0.929 . S
H1955 C1936 0.930 . S
H1956 C1938 0.932 . S
H1957 C1939 0.929 . S
H1958 C1940 0.928 . S
H1959 C1942 0.932 . S
C1960 C1961 1.264 . S
C1960 C1965 1.479 . S
C1960 C1970 1.465 . S
C1961 C1960 1.264 . S
C1961 C1963 1.339 . S
C1961 H1988 0.931 . S
C1962 C1963 1.395 . S
C1962 C1964 1.320 . S
C1963 C1961 1.339 . S
C1963 C1962 1.395 . S
C1963 H1989 0.929 . S
C1964 C1962 1.320 . S
C1964 C1965 1.405 . S
C1964 H1990 0.930 . S
C1965 C1960 1.479 . S
C1965 C1964 1.405 . S
C1965 H1991 0.931 . S
U1966 O1967 2.454 . S
U1966 O1968 2.458 . S
U1966 C1969 2.984 . S
U1966 C1970 2.847 . S
U1966 C1983 2.882 . S
U1966 O1984 2.441 . S
U1966 O1985 2.420 . S
U1966 O1986 2.455 . S
U1966 O1987 2.449 . S
O1967 U1966 2.454 . S
O1967 C1969 1.353 . S
O1968 U1966 2.458 . S
O1968 C1969 1.286 . S
C1969 U1966 2.984 . S
C1969 O1967 1.353 . S
C1969 O1968 1.286 . S
C1969 C1971 1.363 . S
C1970 C1960 1.465 . S
C1970 U1966 2.847 . S
C1970 O1984 1.249 . S
C1970 O1985 1.202 . S
C1971 C1969 1.363 . S
C1971 C1973 1.408 . S
C1971 C1976 1.342 . S
C1972 C1973 1.310 . S
C1972 C1975 1.461 . S
C1972 H1992 0.932 . S
C1973 C1971 1.408 . S
C1973 C1972 1.310 . S
C1973 H1993 0.930 . S
C1974 C1975 1.474 . S
C1974 C1976 1.285 . S
C1974 H1994 0.929 . S
C1975 C1972 1.461 . S
C1975 C1974 1.474 . S
C1976 C1971 1.342 . S
C1976 C1974 1.285 . S
C1976 H1995 0.930 . S
C1977 C1980 1.424 . S
C1977 C1982 1.245 . S
C1977 C1983 1.428 . S
C1978 C1981 1.260 . S
C1978 C1982 1.477 . S
C1978 H1996 0.932 . S
C1979 C1980 1.384 . S
C1979 C1981 1.479 . S
C1979 H1997 0.929 . S
C1980 C1977 1.424 . S
C1980 C1979 1.384 . S
C1980 H1998 0.928 . S
C1981 C1978 1.260 . S
C1981 C1979 1.479 . S
C1982 C1977 1.245 . S
C1982 C1978 1.477 . S
C1982 H1999 0.932 . S
C1983 U1966 2.882 . S
C1983 C1977 1.428 . S
C1983 O1986 1.301 . S
C1983 O1987 1.282 . S
O1984 U1966 2.441 . S
O1984 C1970 1.249 . S
O1985 U1966 2.420 . S
O1985 C1970 1.202 . S
O1986 U1966 2.455 . S
O1986 C1983 1.301 . S
O1987 U1966 2.449 . S
O1987 C1983 1.282 . S
H1988 C1961 0.931 . S
H1989 C1963 0.929 . S
H1990 C1964 0.930 . S
H1991 C1965 0.931 . S
H1992 C1972 0.932 . S
H1993 C1973 0.930 . S
H1994 C1974 0.929 . S
H1995 C1976 0.930 . S
H1996 C1978 0.932 . S
H1997 C1979 0.929 . S
H1998 C1980 0.928 . S
H1999 C1982 0.932 . S
C2000 C2001 1.264 . S
C2000 C2005 1.479 . S
C2000 C2010 1.465 . S
C2001 C2000 1.264 . S
C2001 C2003 1.339 . S
C2001 H2028 0.931 . S
C2002 C2003 1.395 . S
C2002 C2004 1.320 . S
C2003 C2001 1.339 . S
C2003 C2002 1.395 . S
C2003 H2029 0.929 . S
C2004 C2002 1.320 . S
C2004 C2005 1.405 . S
C2004 H2030 0.930 . S
C2005 C2000 1.479 . S
C2005 C2004 1.405 . S
C2005 H2031 0.931 . S
U2006 O2007 2.454 . S
U2006 O2008 2.458 . S
U2006 C2009 2.984 . S
U2006 C2010 2.847 . S
U2006 C2023 2.882 . S
U2006 O2024 2.441 . S
U2006 O2025 2.420 . S
U2006 O2026 2.455 . S
U2006 O2027 2.449 . S
O2007 U2006 2.454 . S
O2007 C2009 1.353 . S
O2008 U2006 2.458 . S
O2008 C2009 1.286 . S
C2009 U2006 2.984 . S
C2009 O2007 1.353 . S
C2009 O2008 1.286 . S
C2009 C2011 1.363 . S
C2010 C2000 1.465 . S
C2010 U2006 2.847 . S
C2010 O2024 1.249 . S
C2010 O2025 1.202 . S
C2011 C2009 1.363 . S
C2011 C2013 1.408 . S
C2011 C2016 1.342 . S
C2012 C2013 1.310 . S
C2012 C2015 1.461 . S
C2012 H2032 0.932 . S
C2013 C2011 1.408 . S
C2013 C2012 1.310 . S
C2013 H2033 0.930 . S
C2014 C2015 1.474 . S
C2014 C2016 1.285 . S
C2014 H2034 0.929 . S
C2015 C2012 1.461 . S
C2015 C2014 1.474 . S
C2016 C2011 1.342 . S
C2016 C2014 1.285 . S
C2016 H2035 0.930 . S
C2017 C2020 1.424 . S
C2017 C2022 1.245 . S
C2017 C2023 1.428 . S
C2018 C2021 1.260 . S
C2018 C2022 1.477 . S
C2018 H2036 0.932 . S
C2019 C2020 1.384 . S
C2019 C2021 1.479 . S
C2019 H2037 0.929 . S
C2020 C2017 1.424 . S
C2020 C2019 1.384 . S
C2020 H2038 0.928 . S
C2021 C2018 1.260 . S
C2021 C2019 1.479 . S
C2022 C2017 1.245 . S
C2022 C2018 1.477 . S
C2022 H2039 0.932 . S
C2023 U2006 2.882 . S
C2023 C2017 1.428 . S
C2023 O2026 1.301 . S
C2023 O2027 1.282 . S
O2024 U2006 2.441 . S
O2024 C2010 1.249 . S
O2025 U2006 2.420 . S
O2025 C2010 1.202 . S
O2026 U2006 2.455 . S
O2026 C2023 1.301 . S
O2027 U2006 2.449 . S
O2027 C2023 1.282 . S
H2028 C2001 0.931 . S
H2029 C2003 0.929 . S
H2030 C2004 0.930 . S
H2031 C2005 0.931 . S
H2032 C2012 0.932 . S
H2033 C2013 0.930 . S
H2034 C2014 0.929 . S
H2035 C2016 0.930 . S
H2036 C2018 0.932 . S
H2037 C2019 0.929 . S
H2038 C2020 0.928 . S
H2039 C2022 0.932 . S
C2040 C2041 1.264 . S
C2040 C2045 1.479 . S
C2040 C2050 1.465 . S
C2041 C2040 1.264 . S
C2041 C2043 1.339 . S
C2041 H2068 0.931 . S
C2042 C2043 1.395 . S
C2042 C2044 1.320 . S
C2043 C2041 1.339 . S
C2043 C2042 1.395 . S
C2043 H2069 0.929 . S
C2044 C2042 1.320 . S
C2044 C2045 1.405 . S
C2044 H2070 0.930 . S
C2045 C2040 1.479 . S
C2045 C2044 1.405 . S
C2045 H2071 0.931 . S
U2046 O2047 2.454 . S
U2046 O2048 2.458 . S
U2046 C2049 2.984 . S
U2046 C2050 2.847 . S
U2046 C2063 2.882 . S
U2046 O2064 2.441 . S
U2046 O2065 2.420 . S
U2046 O2066 2.455 . S
U2046 O2067 2.449 . S
O2047 U2046 2.454 . S
O2047 C2049 1.353 . S
O2048 U2046 2.458 . S
O2048 C2049 1.286 . S
C2049 U2046 2.984 . S
C2049 O2047 1.353 . S
C2049 O2048 1.286 . S
C2049 C2051 1.363 . S
C2050 C2040 1.465 . S
C2050 U2046 2.847 . S
C2050 O2064 1.249 . S
C2050 O2065 1.202 . S
C2051 C2049 1.363 . S
C2051 C2053 1.408 . S
C2051 C2056 1.342 . S
C2052 C2053 1.310 . S
C2052 C2055 1.461 . S
C2052 H2072 0.932 . S
C2053 C2051 1.408 . S
C2053 C2052 1.310 . S
C2053 H2073 0.930 . S
C2054 C2055 1.474 . S
C2054 C2056 1.285 . S
C2054 H2074 0.929 . S
C2055 C2052 1.461 . S
C2055 C2054 1.474 . S
C2056 C2051 1.342 . S
C2056 C2054 1.285 . S
C2056 H2075 0.930 . S
C2057 C2060 1.424 . S
C2057 C2062 1.245 . S
C2057 C2063 1.428 . S
C2058 C2061 1.260 . S
C2058 C2062 1.477 . S
C2058 H2076 0.932 . S
C2059 C2060 1.384 . S
C2059 C2061 1.479 . S
C2059 H2077 0.929 . S
C2060 C2057 1.424 . S
C2060 C2059 1.384 . S
C2060 H2078 0.928 . S
C2061 C2058 1.260 . S
C2061 C2059 1.479 . S
C2062 C2057 1.245 . S
C2062 C2058 1.477 . S
C2062 H2079 0.932 . S
C2063 U2046 2.882 . S
C2063 C2057 1.428 . S
C2063 O2066 1.301 . S
C2063 O2067 1.282 . S
O2064 U2046 2.441 . S
O2064 C2050 1.249 . S
O2065 U2046 2.420 . S
O2065 C2050 1.202 . S
O2066 U2046 2.455 . S
O2066 C2063 1.301 . S
O2067 U2046 2.449 . S
O2067 C2063 1.282 . S
H2068 C2041 0.931 . S
H2069 C2043 0.929 . S
H2070 C2044 0.930 . S
H2071 C2045 0.931 . S
H2072 C2052 0.932 . S
H2073 C2053 0.930 . S
H2074 C2054 0.929 . S
H2075 C2056 0.930 . S
H2076 C2058 0.932 . S
H2077 C2059 0.929 . S
H2078 C2060 0.928 . S
H2079 C2062 0.932 . S
C2080 C2081 1.264 . S
C2080 C2085 1.479 . S
C2080 C2090 1.465 . S
C2081 C2080 1.264 . S
C2081 C2083 1.339 . S
C2081 H2108 0.931 . S
C2082 C2083 1.395 . S
C2082 C2084 1.320 . S
C2083 C2081 1.339 . S
C2083 C2082 1.395 . S
C2083 H2109 0.929 . S
C2084 C2082 1.320 . S
C2084 C2085 1.405 . S
C2084 H2110 0.930 . S
C2085 C2080 1.479 . S
C2085 C2084 1.405 . S
C2085 H2111 0.931 . S
U2086 O2087 2.454 . S
U2086 O2088 2.458 . S
U2086 C2089 2.984 . S
U2086 C2090 2.847 . S
U2086 C2103 2.882 . S
U2086 O2104 2.441 . S
U2086 O2105 2.420 . S
U2086 O2106 2.455 . S
U2086 O2107 2.449 . S
O2087 U2086 2.454 . S
O2087 C2089 1.353 . S
O2088 U2086 2.458 . S
O2088 C2089 1.286 . S
C2089 U2086 2.984 . S
C2089 O2087 1.353 . S
C2089 O2088 1.286 . S
C2089 C2091 1.363 . S
C2090 C2080 1.465 . S
C2090 U2086 2.847 . S
C2090 O2104 1.249 . S
C2090 O2105 1.202 . S
C2091 C2089 1.363 . S
C2091 C2093 1.408 . S
C2091 C2096 1.342 . S
C2092 C2093 1.310 . S
C2092 C2095 1.461 . S
C2092 H2112 0.932 . S
C2093 C2091 1.408 . S
C2093 C2092 1.310 . S
C2093 H2113 0.930 . S
C2094 C2095 1.474 . S
C2094 C2096 1.285 . S
C2094 H2114 0.929 . S
C2095 C2092 1.461 . S
C2095 C2094 1.474 . S
C2096 C2091 1.342 . S
C2096 C2094 1.285 . S
C2096 H2115 0.930 . S
C2097 C2100 1.424 . S
C2097 C2102 1.245 . S
C2097 C2103 1.428 . S
C2098 C2101 1.260 . S
C2098 C2102 1.477 . S
C2098 H2116 0.932 . S
C2099 C2100 1.384 . S
C2099 C2101 1.479 . S
C2099 H2117 0.929 . S
C2100 C2097 1.424 . S
C2100 C2099 1.384 . S
C2100 H2118 0.928 . S
C2101 C2098 1.260 . S
C2101 C2099 1.479 . S
C2102 C2097 1.245 . S
C2102 C2098 1.477 . S
C2102 H2119 0.932 . S
C2103 U2086 2.882 . S
C2103 C2097 1.428 . S
C2103 O2106 1.301 . S
C2103 O2107 1.282 . S
O2104 U2086 2.441 . S
O2104 C2090 1.249 . S
O2105 U2086 2.420 . S
O2105 C2090 1.202 . S
O2106 U2086 2.455 . S
O2106 C2103 1.301 . S
O2107 U2086 2.449 . S
O2107 C2103 1.282 . S
H2108 C2081 0.931 . S
H2109 C2083 0.929 . S
H2110 C2084 0.930 . S
H2111 C2085 0.931 . S
H2112 C2092 0.932 . S
H2113 C2093 0.930 . S
H2114 C2094 0.929 . S
H2115 C2096 0.930 . S
H2116 C2098 0.932 . S
H2117 C2099 0.929 . S
H2118 C2100 0.928 . S
H2119 C2102 0.932 . S
C2120 C2121 1.264 . S
C2120 C2125 1.479 . S
C2120 C2130 1.465 . S
C2121 C2120 1.264 . S
C2121 C2123 1.339 . S
C2121 H2148 0.931 . S
C2122 C2123 1.395 . S
C2122 C2124 1.320 . S
C2123 C2121 1.339 . S
C2123 C2122 1.395 . S
C2123 H2149 0.929 . S
C2124 C2122 1.320 . S
C2124 C2125 1.405 . S
C2124 H2150 0.930 . S
C2125 C2120 1.479 . S
C2125 C2124 1.405 . S
C2125 H2151 0.931 . S
U2126 O2127 2.454 . S
U2126 O2128 2.458 . S
U2126 C2129 2.984 . S
U2126 C2130 2.847 . S
U2126 C2143 2.882 . S
U2126 O2144 2.441 . S
U2126 O2145 2.420 . S
U2126 O2146 2.455 . S
U2126 O2147 2.449 . S
O2127 U2126 2.454 . S
O2127 C2129 1.353 . S
O2128 U2126 2.458 . S
O2128 C2129 1.286 . S
C2129 U2126 2.984 . S
C2129 O2127 1.353 . S
C2129 O2128 1.286 . S
C2129 C2131 1.363 . S
C2130 C2120 1.465 . S
C2130 U2126 2.847 . S
C2130 O2144 1.249 . S
C2130 O2145 1.202 . S
C2131 C2129 1.363 . S
C2131 C2133 1.408 . S
C2131 C2136 1.342 . S
C2132 C2133 1.310 . S
C2132 C2135 1.461 . S
C2132 H2152 0.932 . S
C2133 C2131 1.408 . S
C2133 C2132 1.310 . S
C2133 H2153 0.930 . S
C2134 C2135 1.474 . S
C2134 C2136 1.285 . S
C2134 H2154 0.929 . S
C2135 C2132 1.461 . S
C2135 C2134 1.474 . S
C2136 C2131 1.342 . S
C2136 C2134 1.285 . S
C2136 H2155 0.930 . S
C2137 C2140 1.424 . S
C2137 C2142 1.245 . S
C2137 C2143 1.428 . S
C2138 C2141 1.260 . S
C2138 C2142 1.477 . S
C2138 H2156 0.932 . S
C2139 C2140 1.384 . S
C2139 C2141 1.479 . S
C2139 H2157 0.929 . S
C2140 C2137 1.424 . S
C2140 C2139 1.384 . S
C2140 H2158 0.928 . S
C2141 C2138 1.260 . S
C2141 C2139 1.479 . S
C2142 C2137 1.245 . S
C2142 C2138 1.477 . S
C2142 H2159 0.932 . S
C2143 U2126 2.882 . S
C2143 C2137 1.428 . S
C2143 O2146 1.301 . S
C2143 O2147 1.282 . S
O2144 U2126 2.441 . S
O2144 C2130 1.249 . S
O2145 U2126 2.420 . S
O2145 C2130 1.202 . S
O2146 U2126 2.455 . S
O2146 C2143 1.301 . S
O2147 U2126 2.449 . S
O2147 C2143 1.282 . S
H2148 C2121 0.931 . S
H2149 C2123 0.929 . S
H2150 C2124 0.930 . S
H2151 C2125 0.931 . S
H2152 C2132 0.932 . S
H2153 C2133 0.930 . S
H2154 C2134 0.929 . S
H2155 C2136 0.930 . S
H2156 C2138 0.932 . S
H2157 C2139 0.929 . S
H2158 C2140 0.928 . S
H2159 C2142 0.932 . S
C2160 C2161 1.264 . S
C2160 C2165 1.479 . S
C2160 C2170 1.465 . S
C2161 C2160 1.264 . S
C2161 C2163 1.339 . S
C2161 H2188 0.931 . S
C2162 C2163 1.395 . S
C2162 C2164 1.320 . S
C2163 C2161 1.339 . S
C2163 C2162 1.395 . S
C2163 H2189 0.929 . S
C2164 C2162 1.320 . S
C2164 C2165 1.405 . S
C2164 H2190 0.930 . S
C2165 C2160 1.479 . S
C2165 C2164 1.405 . S
C2165 H2191 0.931 . S
U2166 O2167 2.454 . S
U2166 O2168 2.458 . S
U2166 C2169 2.984 . S
U2166 C2170 2.847 . S
U2166 C2183 2.882 . S
U2166 O2184 2.441 . S
U2166 O2185 2.420 . S
U2166 O2186 2.455 . S
U2166 O2187 2.449 . S
O2167 U2166 2.454 . S
O2167 C2169 1.353 . S
O2168 U2166 2.458 . S
O2168 C2169 1.286 . S
C2169 U2166 2.984 . S
C2169 O2167 1.353 . S
C2169 O2168 1.286 . S
C2169 C2171 1.363 . S
C2170 C2160 1.465 . S
C2170 U2166 2.847 . S
C2170 O2184 1.249 . S
C2170 O2185 1.202 . S
C2171 C2169 1.363 . S
C2171 C2173 1.408 . S
C2171 C2176 1.342 . S
C2172 C2173 1.310 . S
C2172 C2175 1.461 . S
C2172 H2192 0.932 . S
C2173 C2171 1.408 . S
C2173 C2172 1.310 . S
C2173 H2193 0.930 . S
C2174 C2175 1.474 . S
C2174 C2176 1.285 . S
C2174 H2194 0.929 . S
C2175 C2172 1.461 . S
C2175 C2174 1.474 . S
C2176 C2171 1.342 . S
C2176 C2174 1.285 . S
C2176 H2195 0.930 . S
C2177 C2180 1.424 . S
C2177 C2182 1.245 . S
C2177 C2183 1.428 . S
C2178 C2181 1.260 . S
C2178 C2182 1.477 . S
C2178 H2196 0.932 . S
C2179 C2180 1.384 . S
C2179 C2181 1.479 . S
C2179 H2197 0.929 . S
C2180 C2177 1.424 . S
C2180 C2179 1.384 . S
C2180 H2198 0.928 . S
C2181 C2178 1.260 . S
C2181 C2179 1.479 . S
C2182 C2177 1.245 . S
C2182 C2178 1.477 . S
C2182 H2199 0.932 . S
C2183 U2166 2.882 . S
C2183 C2177 1.428 . S
C2183 O2186 1.301 . S
C2183 O2187 1.282 . S
O2184 U2166 2.441 . S
O2184 C2170 1.249 . S
O2185 U2166 2.420 . S
O2185 C2170 1.202 . S
O2186 U2166 2.455 . S
O2186 C2183 1.301 . S
O2187 U2166 2.449 . S
O2187 C2183 1.282 . S
H2188 C2161 0.931 . S
H2189 C2163 0.929 . S
H2190 C2164 0.930 . S
H2191 C2165 0.931 . S
H2192 C2172 0.932 . S
H2193 C2173 0.930 . S
H2194 C2174 0.929 . S
H2195 C2176 0.930 . S
H2196 C2178 0.932 . S
H2197 C2179 0.929 . S
H2198 C2180 0.928 . S
H2199 C2182 0.932 . S
C2200 C2201 1.264 . S
C2200 C2205 1.479 . S
C2200 C2210 1.465 . S
C2201 C2200 1.264 . S
C2201 C2203 1.339 . S
C2201 H2228 0.931 . S
C2202 C2203 1.395 . S
C2202 C2204 1.320 . S
C2203 C2201 1.339 . S
C2203 C2202 1.395 . S
C2203 H2229 0.929 . S
C2204 C2202 1.320 . S
C2204 C2205 1.405 . S
C2204 H2230 0.930 . S
C2205 C2200 1.479 . S
C2205 C2204 1.405 . S
C2205 H2231 0.931 . S
U2206 O2207 2.454 . S
U2206 O2208 2.458 . S
U2206 C2209 2.984 . S
U2206 C2210 2.847 . S
U2206 C2223 2.882 . S
U2206 O2224 2.441 . S
U2206 O2225 2.420 . S
U2206 O2226 2.455 . S
U2206 O2227 2.449 . S
O2207 U2206 2.454 . S
O2207 C2209 1.353 . S
O2208 U2206 2.458 . S
O2208 C2209 1.286 . S
C2209 U2206 2.984 . S
C2209 O2207 1.353 . S
C2209 O2208 1.286 . S
C2209 C2211 1.363 . S
C2210 C2200 1.465 . S
C2210 U2206 2.847 . S
C2210 O2224 1.249 . S
C2210 O2225 1.202 . S
C2211 C2209 1.363 . S
C2211 C2213 1.408 . S
C2211 C2216 1.342 . S
C2212 C2213 1.310 . S
C2212 C2215 1.461 . S
C2212 H2232 0.932 . S
C2213 C2211 1.408 . S
C2213 C2212 1.310 . S
C2213 H2233 0.930 . S
C2214 C2215 1.474 . S
C2214 C2216 1.285 . S
C2214 H2234 0.929 . S
C2215 C2212 1.461 . S
C2215 C2214 1.474 . S
C2216 C2211 1.342 . S
C2216 C2214 1.285 . S
C2216 H2235 0.930 . S
C2217 C2220 1.424 . S
C2217 C2222 1.245 . S
C2217 C2223 1.428 . S
C2218 C2221 1.260 . S
C2218 C2222 1.477 . S
C2218 H2236 0.932 . S
C2219 C2220 1.384 . S
C2219 C2221 1.479 . S
C2219 H2237 0.929 . S
C2220 C2217 1.424 . S
C2220 C2219 1.384 . S
C2220 H2238 0.928 . S
C2221 C2218 1.260 . S
C2221 C2219 1.479 . S
C2222 C2217 1.245 . S
C2222 C2218 1.477 . S
C2222 H2239 0.932 . S
C2223 U2206 2.882 . S
C2223 C2217 1.428 . S
C2223 O2226 1.301 . S
C2223 O2227 1.282 . S
O2224 U2206 2.441 . S
O2224 C2210 1.249 . S
O2225 U2206 2.420 . S
O2225 C2210 1.202 . S
O2226 U2206 2.455 . S
O2226 C2223 1.301 . S
O2227 U2206 2.449 . S
O2227 C2223 1.282 . S
H2228 C2201 0.931 . S
H2229 C2203 0.929 . S
H2230 C2204 0.930 . S
H2231 C2205 0.931 . S
H2232 C2212 0.932 . S
H2233 C2213 0.930 . S
H2234 C2214 0.929 . S
H2235 C2216 0.930 . S
H2236 C2218 0.932 . S
H2237 C2219 0.929 . S
H2238 C2220 0.928 . S
H2239 C2222 0.932 . S
C2240 C2241 1.264 . S
C2240 C2245 1.479 . S
C2240 C2250 1.465 . S
C2241 C2240 1.264 . S
C2241 C2243 1.339 . S
C2241 H2268 0.931 . S
C2242 C2243 1.395 . S
C2242 C2244 1.320 . S
C2243 C2241 1.339 . S
C2243 C2242 1.395 . S
C2243 H2269 0.929 . S
C2244 C2242 1.320 . S
C2244 C2245 1.405 . S
C2244 H2270 0.930 . S
C2245 C2240 1.479 . S
C2245 C2244 1.405 . S
C2245 H2271 0.931 . S
U2246 O2247 2.454 . S
U2246 O2248 2.458 . S
U2246 C2249 2.984 . S
U2246 C2250 2.847 . S
U2246 C2263 2.882 . S
U2246 O2264 2.441 . S
U2246 O2265 2.420 . S
U2246 O2266 2.455 . S
U2246 O2267 2.449 . S
O2247 U2246 2.454 . S
O2247 C2249 1.353 . S
O2248 U2246 2.458 . S
O2248 C2249 1.286 . S
C2249 U2246 2.984 . S
C2249 O2247 1.353 . S
C2249 O2248 1.286 . S
C2249 C2251 1.363 . S
C2250 C2240 1.465 . S
C2250 U2246 2.847 . S
C2250 O2264 1.249 . S
C2250 O2265 1.202 . S
C2251 C2249 1.363 . S
C2251 C2253 1.408 . S
C2251 C2256 1.342 . S
C2252 C2253 1.310 . S
C2252 C2255 1.461 . S
C2252 H2272 0.932 . S
C2253 C2251 1.408 . S
C2253 C2252 1.310 . S
C2253 H2273 0.930 . S
C2254 C2255 1.474 . S
C2254 C2256 1.285 . S
C2254 H2274 0.929 . S
C2255 C2252 1.461 . S
C2255 C2254 1.474 . S
C2256 C2251 1.342 . S
C2256 C2254 1.285 . S
C2256 H2275 0.930 . S
C2257 C2260 1.424 . S
C2257 C2262 1.245 . S
C2257 C2263 1.428 . S
C2258 C2261 1.260 . S
C2258 C2262 1.477 . S
C2258 H2276 0.932 . S
C2259 C2260 1.384 . S
C2259 C2261 1.479 . S
C2259 H2277 0.929 . S
C2260 C2257 1.424 . S
C2260 C2259 1.384 . S
C2260 H2278 0.928 . S
C2261 C2258 1.260 . S
C2261 C2259 1.479 . S
C2262 C2257 1.245 . S
C2262 C2258 1.477 . S
C2262 H2279 0.932 . S
C2263 U2246 2.882 . S
C2263 C2257 1.428 . S
C2263 O2266 1.301 . S
C2263 O2267 1.282 . S
O2264 U2246 2.441 . S
O2264 C2250 1.249 . S
O2265 U2246 2.420 . S
O2265 C2250 1.202 . S
O2266 U2246 2.455 . S
O2266 C2263 1.301 . S
O2267 U2246 2.449 . S
O2267 C2263 1.282 . S
H2268 C2241 0.931 . S
H2269 C2243 0.929 . S
H2270 C2244 0.930 . S
H2271 C2245 0.931 . S
H2272 C2252 0.932 . S
H2273 C2253 0.930 . S
H2274 C2254 0.929 . S
H2275 C2256 0.930 . S
H2276 C2258 0.932 . S
H2277 C2259 0.929 . S
H2278 C2260 0.928 . S
H2279 C2262 0.932 . S
C2280 C2281 1.264 . S
C2280 C2285 1.479 . S
C2280 C2290 1.465 . S
C2281 C2280 1.264 . S
C2281 C2283 1.339 . S
C2281 H2308 0.931 . S
C2282 C2283 1.395 . S
C2282 C2284 1.320 . S
C2283 C2281 1.339 . S
C2283 C2282 1.395 . S
C2283 H2309 0.929 . S
C2284 C2282 1.320 . S
C2284 C2285 1.405 . S
C2284 H2310 0.930 . S
C2285 C2280 1.479 . S
C2285 C2284 1.405 . S
C2285 H2311 0.931 . S
U2286 O2287 2.454 . S
U2286 O2288 2.458 . S
U2286 C2289 2.984 . S
U2286 C2290 2.847 . S
U2286 C2303 2.882 . S
U2286 O2304 2.441 . S
U2286 O2305 2.420 . S
U2286 O2306 2.455 . S
U2286 O2307 2.449 . S
O2287 U2286 2.454 . S
O2287 C2289 1.353 . S
O2288 U2286 2.458 . S
O2288 C2289 1.286 . S
C2289 U2286 2.984 . S
C2289 O2287 1.353 . S
C2289 O2288 1.286 . S
C2289 C2291 1.363 . S
C2290 C2280 1.465 . S
C2290 U2286 2.847 . S
C2290 O2304 1.249 . S
C2290 O2305 1.202 . S
C2291 C2289 1.363 . S
C2291 C2293 1.408 . S
C2291 C2296 1.342 . S
C2292 C2293 1.310 . S
C2292 C2295 1.461 . S
C2292 H2312 0.932 . S
C2293 C2291 1.408 . S
C2293 C2292 1.310 . S
C2293 H2313 0.930 . S
C2294 C2295 1.474 . S
C2294 C2296 1.285 . S
C2294 H2314 0.929 . S
C2295 C2292 1.461 . S
C2295 C2294 1.474 . S
C2296 C2291 1.342 . S
C2296 C2294 1.285 . S
C2296 H2315 0.930 . S
C2297 C2300 1.424 . S
C2297 C2302 1.245 . S
C2297 C2303 1.428 . S
C2298 C2301 1.260 . S
C2298 C2302 1.477 . S
C2298 H2316 0.932 . S
C2299 C2300 1.384 . S
C2299 C2301 1.479 . S
C2299 H2317 0.929 . S
C2300 C2297 1.424 . S
C2300 C2299 1.384 . S
C2300 H2318 0.928 . S
C2301 C2298 1.260 . S
C2301 C2299 1.479 . S
C2302 C2297 1.245 . S
C2302 C2298 1.477 . S
C2302 H2319 0.932 . S
C2303 U2286 2.882 . S
C2303 C2297 1.428 . S
C2303 O2306 1.301 . S
C2303 O2307 1.282 . S
O2304 U2286 2.441 . S
O2304 C2290 1.249 . S
O2305 U2286 2.420 . S
O2305 C2290 1.202 . S
O2306 U2286 2.455 . S
O2306 C2303 1.301 . S
O2307 U2286 2.449 . S
O2307 C2303 1.282 . S
H2308 C2281 0.931 . S
H2309 C2283 0.929 . S
H2310 C2284 0.930 . S
H2311 C2285 0.931 . S
H2312 C2292 0.932 . S
H2313 C2293 0.930 . S
H2314 C2294 0.929 . S
H2315 C2296 0.930 . S
H2316 C2298 0.932 . S
H2317 C2299 0.929 . S
H2318 C2300 0.928 . S
H2319 C2302 0.932 . S
C2320 C2321 1.264 . S
C2320 C2325 1.479 . S
C2320 C2330 1.465 . S
C2321 C2320 1.264 . S
C2321 C2323 1.339 . S
C2321 H2348 0.931 . S
C2322 C2323 1.395 . S
C2322 C2324 1.320 . S
C2323 C2321 1.339 . S
C2323 C2322 1.395 . S
C2323 H2349 0.929 . S
C2324 C2322 1.320 . S
C2324 C2325 1.405 . S
C2324 H2350 0.930 . S
C2325 C2320 1.479 . S
C2325 C2324 1.405 . S
C2325 H2351 0.931 . S
U2326 O2327 2.454 . S
U2326 O2328 2.458 . S
U2326 C2329 2.984 . S
U2326 C2330 2.847 . S
U2326 C2343 2.882 . S
U2326 O2344 2.441 . S
U2326 O2345 2.420 . S
U2326 O2346 2.455 . S
U2326 O2347 2.449 . S
O2327 U2326 2.454 . S
O2327 C2329 1.353 . S
O2328 U2326 2.458 . S
O2328 C2329 1.286 . S
C2329 U2326 2.984 . S
C2329 O2327 1.353 . S
C2329 O2328 1.286 . S
C2329 C2331 1.363 . S
C2330 C2320 1.465 . S
C2330 U2326 2.847 . S
C2330 O2344 1.249 . S
C2330 O2345 1.202 . S
C2331 C2329 1.363 . S
C2331 C2333 1.408 . S
C2331 C2336 1.342 . S
C2332 C2333 1.310 . S
C2332 C2335 1.461 . S
C2332 H2352 0.932 . S
C2333 C2331 1.408 . S
C2333 C2332 1.310 . S
C2333 H2353 0.930 . S
C2334 C2335 1.474 . S
C2334 C2336 1.285 . S
C2334 H2354 0.929 . S
C2335 C2332 1.461 . S
C2335 C2334 1.474 . S
C2336 C2331 1.342 . S
C2336 C2334 1.285 . S
C2336 H2355 0.930 . S
C2337 C2340 1.424 . S
C2337 C2342 1.245 . S
C2337 C2343 1.428 . S
C2338 C2341 1.260 . S
C2338 C2342 1.477 . S
C2338 H2356 0.932 . S
C2339 C2340 1.384 . S
C2339 C2341 1.479 . S
C2339 H2357 0.929 . S
C2340 C2337 1.424 . S
C2340 C2339 1.384 . S
C2340 H2358 0.928 . S
C2341 C2338 1.260 . S
C2341 C2339 1.479 . S
C2342 C2337 1.245 . S
C2342 C2338 1.477 . S
C2342 H2359 0.932 . S
C2343 U2326 2.882 . S
C2343 C2337 1.428 . S
C2343 O2346 1.301 . S
C2343 O2347 1.282 . S
O2344 U2326 2.441 . S
O2344 C2330 1.249 . S
O2345 U2326 2.420 . S
O2345 C2330 1.202 . S
O2346 U2326 2.455 . S
O2346 C2343 1.301 . S
O2347 U2326 2.449 . S
O2347 C2343 1.282 . S
H2348 C2321 0.931 . S
H2349 C2323 0.929 . S
H2350 C2324 0.930 . S
H2351 C2325 0.931 . S
H2352 C2332 0.932 . S
H2353 C2333 0.930 . S
H2354 C2334 0.929 . S
H2355 C2336 0.930 . S
H2356 C2338 0.932 . S
H2357 C2339 0.929 . S
H2358 C2340 0.928 . S
H2359 C2342 0.932 . S
C2360 C2361 1.264 . S
C2360 C2365 1.479 . S
C2360 C2370 1.465 . S
C2361 C2360 1.264 . S
C2361 C2363 1.339 . S
C2361 H2388 0.931 . S
C2362 C2363 1.395 . S
C2362 C2364 1.320 . S
C2363 C2361 1.339 . S
C2363 C2362 1.395 . S
C2363 H2389 0.929 . S
C2364 C2362 1.320 . S
C2364 C2365 1.405 . S
C2364 H2390 0.930 . S
C2365 C2360 1.479 . S
C2365 C2364 1.405 . S
C2365 H2391 0.931 . S
U2366 O2367 2.454 . S
U2366 O2368 2.458 . S
U2366 C2369 2.984 . S
U2366 C2370 2.847 . S
U2366 C2383 2.882 . S
U2366 O2384 2.441 . S
U2366 O2385 2.420 . S
U2366 O2386 2.455 . S
U2366 O2387 2.449 . S
O2367 U2366 2.454 . S
O2367 C2369 1.353 . S
O2368 U2366 2.458 . S
O2368 C2369 1.286 . S
C2369 U2366 2.984 . S
C2369 O2367 1.353 . S
C2369 O2368 1.286 . S
C2369 C2371 1.363 . S
C2370 C2360 1.465 . S
C2370 U2366 2.847 . S
C2370 O2384 1.249 . S
C2370 O2385 1.202 . S
C2371 C2369 1.363 . S
C2371 C2373 1.408 . S
C2371 C2376 1.342 . S
C2372 C2373 1.310 . S
C2372 C2375 1.461 . S
C2372 H2392 0.932 . S
C2373 C2371 1.408 . S
C2373 C2372 1.310 . S
C2373 H2393 0.930 . S
C2374 C2375 1.474 . S
C2374 C2376 1.285 . S
C2374 H2394 0.929 . S
C2375 C2372 1.461 . S
C2375 C2374 1.474 . S
C2376 C2371 1.342 . S
C2376 C2374 1.285 . S
C2376 H2395 0.930 . S
C2377 C2380 1.424 . S
C2377 C2382 1.245 . S
C2377 C2383 1.428 . S
C2378 C2381 1.260 . S
C2378 C2382 1.477 . S
C2378 H2396 0.932 . S
C2379 C2380 1.384 . S
C2379 C2381 1.479 . S
C2379 H2397 0.929 . S
C2380 C2377 1.424 . S
C2380 C2379 1.384 . S
C2380 H2398 0.928 . S
C2381 C2378 1.260 . S
C2381 C2379 1.479 . S
C2382 C2377 1.245 . S
C2382 C2378 1.477 . S
C2382 H2399 0.932 . S
C2383 U2366 2.882 . S
C2383 C2377 1.428 . S
C2383 O2386 1.301 . S
C2383 O2387 1.282 . S
O2384 U2366 2.441 . S
O2384 C2370 1.249 . S
O2385 U2366 2.420 . S
O2385 C2370 1.202 . S
O2386 U2366 2.455 . S
O2386 C2383 1.301 . S
O2387 U2366 2.449 . S
O2387 C2383 1.282 . S
H2388 C2361 0.931 . S
H2389 C2363 0.929 . S
H2390 C2364 0.930 . S
H2391 C2365 0.931 . S
H2392 C2372 0.932 . S
H2393 C2373 0.930 . S
H2394 C2374 0.929 . S
H2395 C2376 0.930 . S
H2396 C2378 0.932 . S
H2397 C2379 0.929 . S
H2398 C2380 0.928 . S
H2399 C2382 0.932 . S
C2400 C2401 1.264 . S
C2400 C2405 1.479 . S
C2400 C2410 1.465 . S
C2401 C2400 1.264 . S
C2401 C2403 1.339 . S
C2401 H2428 0.931 . S
C2402 C2403 1.395 . S
C2402 C2404 1.320 . S
C2403 C2401 1.339 . S
C2403 C2402 1.395 . S
C2403 H2429 0.929 . S
C2404 C2402 1.320 . S
C2404 C2405 1.405 . S
C2404 H2430 0.930 . S
C2405 C2400 1.479 . S
C2405 C2404 1.405 . S
C2405 H2431 0.931 . S
U2406 O2407 2.454 . S
U2406 O2408 2.458 . S
U2406 C2409 2.984 . S
U2406 C2410 2.847 . S
U2406 C2423 2.882 . S
U2406 O2424 2.441 . S
U2406 O2425 2.420 . S
U2406 O2426 2.455 . S
U2406 O2427 2.449 . S
O2407 U2406 2.454 . S
O2407 C2409 1.353 . S
O2408 U2406 2.458 . S
O2408 C2409 1.286 . S
C2409 U2406 2.984 . S
C2409 O2407 1.353 . S
C2409 O2408 1.286 . S
C2409 C2411 1.363 . S
C2410 C2400 1.465 . S
C2410 U2406 2.847 . S
C2410 O2424 1.249 . S
C2410 O2425 1.202 . S
C2411 C2409 1.363 . S
C2411 C2413 1.408 . S
C2411 C2416 1.342 . S
C2412 C2413 1.310 . S
C2412 C2415 1.461 . S
C2412 H2432 0.932 . S
C2413 C2411 1.408 . S
C2413 C2412 1.310 . S
C2413 H2433 0.930 . S
C2414 C2415 1.474 . S
C2414 C2416 1.285 . S
C2414 H2434 0.929 . S
C2415 C2412 1.461 . S
C2415 C2414 1.474 . S
C2416 C2411 1.342 . S
C2416 C2414 1.285 . S
C2416 H2435 0.930 . S
C2417 C2420 1.424 . S
C2417 C2422 1.245 . S
C2417 C2423 1.428 . S
C2418 C2421 1.260 . S
C2418 C2422 1.477 . S
C2418 H2436 0.932 . S
C2419 C2420 1.384 . S
C2419 C2421 1.479 . S
C2419 H2437 0.929 . S
C2420 C2417 1.424 . S
C2420 C2419 1.384 . S
C2420 H2438 0.928 . S
C2421 C2418 1.260 . S
C2421 C2419 1.479 . S
C2422 C2417 1.245 . S
C2422 C2418 1.477 . S
C2422 H2439 0.932 . S
C2423 U2406 2.882 . S
C2423 C2417 1.428 . S
C2423 O2426 1.301 . S
C2423 O2427 1.282 . S
O2424 U2406 2.441 . S
O2424 C2410 1.249 . S
O2425 U2406 2.420 . S
O2425 C2410 1.202 . S
O2426 U2406 2.455 . S
O2426 C2423 1.301 . S
O2427 U2406 2.449 . S
O2427 C2423 1.282 . S
H2428 C2401 0.931 . S
H2429 C2403 0.929 . S
H2430 C2404 0.930 . S
H2431 C2405 0.931 . S
H2432 C2412 0.932 . S
H2433 C2413 0.930 . S
H2434 C2414 0.929 . S
H2435 C2416 0.930 . S
H2436 C2418 0.932 . S
H2437 C2419 0.929 . S
H2438 C2420 0.928 . S
H2439 C2422 0.932 . S
C2440 C2441 1.264 . S
C2440 C2445 1.479 . S
C2440 C2450 1.465 . S
C2441 C2440 1.264 . S
C2441 C2443 1.339 . S
C2441 H2468 0.931 . S
C2442 C2443 1.395 . S
C2442 C2444 1.320 . S
C2443 C2441 1.339 . S
C2443 C2442 1.395 . S
C2443 H2469 0.929 . S
C2444 C2442 1.320 . S
C2444 C2445 1.405 . S
C2444 H2470 0.930 . S
C2445 C2440 1.479 . S
C2445 C2444 1.405 . S
C2445 H2471 0.931 . S
U2446 O2447 2.454 . S
U2446 O2448 2.458 . S
U2446 C2449 2.984 . S
U2446 C2450 2.847 . S
U2446 C2463 2.882 . S
U2446 O2464 2.441 . S
U2446 O2465 2.420 . S
U2446 O2466 2.455 . S
U2446 O2467 2.449 . S
O2447 U2446 2.454 . S
O2447 C2449 1.353 . S
O2448 U2446 2.458 . S
O2448 C2449 1.286 . S
C2449 U2446 2.984 . S
C2449 O2447 1.353 . S
C2449 O2448 1.286 . S
C2449 C2451 1.363 . S
C2450 C2440 1.465 . S
C2450 U2446 2.847 . S
C2450 O2464 1.249 . S
C2450 O2465 1.202 . S
C2451 C2449 1.363 . S
C2451 C2453 1.408 . S
C2451 C2456 1.342 . S
C2452 C2453 1.310 . S
C2452 C2455 1.461 . S
C2452 H2472 0.932 . S
C2453 C2451 1.408 . S
C2453 C2452 1.310 . S
C2453 H2473 0.930 . S
C2454 C2455 1.474 . S
C2454 C2456 1.285 . S
C2454 H2474 0.929 . S
C2455 C2452 1.461 . S
C2455 C2454 1.474 . S
C2456 C2451 1.342 . S
C2456 C2454 1.285 . S
C2456 H2475 0.930 . S
C2457 C2460 1.424 . S
C2457 C2462 1.245 . S
C2457 C2463 1.428 . S
C2458 C2461 1.260 . S
C2458 C2462 1.477 . S
C2458 H2476 0.932 . S
C2459 C2460 1.384 . S
C2459 C2461 1.479 . S
C2459 H2477 0.929 . S
C2460 C2457 1.424 . S
C2460 C2459 1.384 . S
C2460 H2478 0.928 . S
C2461 C2458 1.260 . S
C2461 C2459 1.479 . S
C2462 C2457 1.245 . S
C2462 C2458 1.477 . S
C2462 H2479 0.932 . S
C2463 U2446 2.882 . S
C2463 C2457 1.428 . S
C2463 O2466 1.301 . S
C2463 O2467 1.282 . S
O2464 U2446 2.441 . S
O2464 C2450 1.249 . S
O2465 U2446 2.420 . S
O2465 C2450 1.202 . S
O2466 U2446 2.455 . S
O2466 C2463 1.301 . S
O2467 U2446 2.449 . S
O2467 C2463 1.282 . S
H2468 C2441 0.931 . S
H2469 C2443 0.929 . S
H2470 C2444 0.930 . S
H2471 C2445 0.931 . S
H2472 C2452 0.932 . S
H2473 C2453 0.930 . S
H2474 C2454 0.929 . S
H2475 C2456 0.930 . S
H2476 C2458 0.932 . S
H2477 C2459 0.929 . S
H2478 C2460 0.928 . S
H2479 C2462 0.932 . S
C2480 C2481 1.264 . S
C2480 C2485 1.479 . S
C2480 C2490 1.465 . S
C2481 C2480 1.264 . S
C2481 C2483 1.339 . S
C2481 H2508 0.931 . S
C2482 C2483 1.395 . S
C2482 C2484 1.320 . S
C2483 C2481 1.339 . S
C2483 C2482 1.395 . S
C2483 H2509 0.929 . S
C2484 C2482 1.320 . S
C2484 C2485 1.405 . S
C2484 H2510 0.930 . S
C2485 C2480 1.479 . S
C2485 C2484 1.405 . S
C2485 H2511 0.931 . S
U2486 O2487 2.454 . S
U2486 O2488 2.458 . S
U2486 C2489 2.984 . S
U2486 C2490 2.847 . S
U2486 C2503 2.882 . S
U2486 O2504 2.441 . S
U2486 O2505 2.420 . S
U2486 O2506 2.455 . S
U2486 O2507 2.449 . S
O2487 U2486 2.454 . S
O2487 C2489 1.353 . S
O2488 U2486 2.458 . S
O2488 C2489 1.286 . S
C2489 U2486 2.984 . S
C2489 O2487 1.353 . S
C2489 O2488 1.286 . S
C2489 C2491 1.363 . S
C2490 C2480 1.465 . S
C2490 U2486 2.847 . S
C2490 O2504 1.249 . S
C2490 O2505 1.202 . S
C2491 C2489 1.363 . S
C2491 C2493 1.408 . S
C2491 C2496 1.342 . S
C2492 C2493 1.310 . S
C2492 C2495 1.461 . S
C2492 H2512 0.932 . S
C2493 C2491 1.408 . S
C2493 C2492 1.310 . S
C2493 H2513 0.930 . S
C2494 C2495 1.474 . S
C2494 C2496 1.285 . S
C2494 H2514 0.929 . S
C2495 C2492 1.461 . S
C2495 C2494 1.474 . S
C2496 C2491 1.342 . S
C2496 C2494 1.285 . S
C2496 H2515 0.930 . S
C2497 C2500 1.424 . S
C2497 C2502 1.245 . S
C2497 C2503 1.428 . S
C2498 C2501 1.260 . S
C2498 C2502 1.477 . S
C2498 H2516 0.932 . S
C2499 C2500 1.384 . S
C2499 C2501 1.479 . S
C2499 H2517 0.929 . S
C2500 C2497 1.424 . S
C2500 C2499 1.384 . S
C2500 H2518 0.928 . S
C2501 C2498 1.260 . S
C2501 C2499 1.479 . S
C2502 C2497 1.245 . S
C2502 C2498 1.477 . S
C2502 H2519 0.932 . S
C2503 U2486 2.882 . S
C2503 C2497 1.428 . S
C2503 O2506 1.301 . S
C2503 O2507 1.282 . S
O2504 U2486 2.441 . S
O2504 C2490 1.249 . S
O2505 U2486 2.420 . S
O2505 C2490 1.202 . S
O2506 U2486 2.455 . S
O2506 C2503 1.301 . S
O2507 U2486 2.449 . S
O2507 C2503 1.282 . S
H2508 C2481 0.931 . S
H2509 C2483 0.929 . S
H2510 C2484 0.930 . S
H2511 C2485 0.931 . S
H2512 C2492 0.932 . S
H2513 C2493 0.930 . S
H2514 C2494 0.929 . S
H2515 C2496 0.930 . S
H2516 C2498 0.932 . S
H2517 C2499 0.929 . S
H2518 C2500 0.928 . S
H2519 C2502 0.932 . S
C2520 C2521 1.264 . S
C2520 C2525 1.479 . S
C2520 C2530 1.465 . S
C2521 C2520 1.264 . S
C2521 C2523 1.339 . S
C2521 H2548 0.931 . S
C2522 C2523 1.395 . S
C2522 C2524 1.320 . S
C2523 C2521 1.339 . S
C2523 C2522 1.395 . S
C2523 H2549 0.929 . S
C2524 C2522 1.320 . S
C2524 C2525 1.405 . S
C2524 H2550 0.930 . S
C2525 C2520 1.479 . S
C2525 C2524 1.405 . S
C2525 H2551 0.931 . S
U2526 O2527 2.454 . S
U2526 O2528 2.458 . S
U2526 C2529 2.984 . S
U2526 C2530 2.847 . S
U2526 C2543 2.882 . S
U2526 O2544 2.441 . S
U2526 O2545 2.420 . S
U2526 O2546 2.455 . S
U2526 O2547 2.449 . S
O2527 U2526 2.454 . S
O2527 C2529 1.353 . S
O2528 U2526 2.458 . S
O2528 C2529 1.286 . S
C2529 U2526 2.984 . S
C2529 O2527 1.353 . S
C2529 O2528 1.286 . S
C2529 C2531 1.363 . S
C2530 C2520 1.465 . S
C2530 U2526 2.847 . S
C2530 O2544 1.249 . S
C2530 O2545 1.202 . S
C2531 C2529 1.363 . S
C2531 C2533 1.408 . S
C2531 C2536 1.342 . S
C2532 C2533 1.310 . S
C2532 C2535 1.461 . S
C2532 H2552 0.932 . S
C2533 C2531 1.408 . S
C2533 C2532 1.310 . S
C2533 H2553 0.930 . S
C2534 C2535 1.474 . S
C2534 C2536 1.285 . S
C2534 H2554 0.929 . S
C2535 C2532 1.461 . S
C2535 C2534 1.474 . S
C2536 C2531 1.342 . S
C2536 C2534 1.285 . S
C2536 H2555 0.930 . S
C2537 C2540 1.424 . S
C2537 C2542 1.245 . S
C2537 C2543 1.428 . S
C2538 C2541 1.260 . S
C2538 C2542 1.477 . S
C2538 H2556 0.932 . S
C2539 C2540 1.384 . S
C2539 C2541 1.479 . S
C2539 H2557 0.929 . S
C2540 C2537 1.424 . S
C2540 C2539 1.384 . S
C2540 H2558 0.928 . S
C2541 C2538 1.260 . S
C2541 C2539 1.479 . S
C2542 C2537 1.245 . S
C2542 C2538 1.477 . S
C2542 H2559 0.932 . S
C2543 U2526 2.882 . S
C2543 C2537 1.428 . S
C2543 O2546 1.301 . S
C2543 O2547 1.282 . S
O2544 U2526 2.441 . S
O2544 C2530 1.249 . S
O2545 U2526 2.420 . S
O2545 C2530 1.202 . S
O2546 U2526 2.455 . S
O2546 C2543 1.301 . S
O2547 U2526 2.449 . S
O2547 C2543 1.282 . S
H2548 C2521 0.931 . S
H2549 C2523 0.929 . S
H2550 C2524 0.930 . S
H2551 C2525 0.931 . S
H2552 C2532 0.932 . S
H2553 C2533 0.930 . S
H2554 C2534 0.929 . S
H2555 C2536 0.930 . S
H2556 C2538 0.932 . S
H2557 C2539 0.929 . S
H2558 C2540 0.928 . S
H2559 C2542 0.932 . S
C2560 C2561 1.264 . S
C2560 C2565 1.479 . S
C2560 C2570 1.465 . S
C2561 C2560 1.264 . S
C2561 C2563 1.339 . S
C2561 H2588 0.931 . S
C2562 C2563 1.395 . S
C2562 C2564 1.320 . S
C2563 C2561 1.339 . S
C2563 C2562 1.395 . S
C2563 H2589 0.929 . S
C2564 C2562 1.320 . S
C2564 C2565 1.405 . S
C2564 H2590 0.930 . S
C2565 C2560 1.479 . S
C2565 C2564 1.405 . S
C2565 H2591 0.931 . S
U2566 O2567 2.454 . S
U2566 O2568 2.458 . S
U2566 C2569 2.984 . S
U2566 C2570 2.847 . S
U2566 C2583 2.882 . S
U2566 O2584 2.441 . S
U2566 O2585 2.420 . S
U2566 O2586 2.455 . S
U2566 O2587 2.449 . S
O2567 U2566 2.454 . S
O2567 C2569 1.353 . S
O2568 U2566 2.458 . S
O2568 C2569 1.286 . S
C2569 U2566 2.984 . S
C2569 O2567 1.353 . S
C2569 O2568 1.286 . S
C2569 C2571 1.363 . S
C2570 C2560 1.465 . S
C2570 U2566 2.847 . S
C2570 O2584 1.249 . S
C2570 O2585 1.202 . S
C2571 C2569 1.363 . S
C2571 C2573 1.408 . S
C2571 C2576 1.342 . S
C2572 C2573 1.310 . S
C2572 C2575 1.461 . S
C2572 H2592 0.932 . S
C2573 C2571 1.408 . S
C2573 C2572 1.310 . S
C2573 H2593 0.930 . S
C2574 C2575 1.474 . S
C2574 C2576 1.285 . S
C2574 H2594 0.929 . S
C2575 C2572 1.461 . S
C2575 C2574 1.474 . S
C2576 C2571 1.342 . S
C2576 C2574 1.285 . S
C2576 H2595 0.930 . S
C2577 C2580 1.424 . S
C2577 C2582 1.245 . S
C2577 C2583 1.428 . S
C2578 C2581 1.260 . S
C2578 C2582 1.477 . S
C2578 H2596 0.932 . S
C2579 C2580 1.384 . S
C2579 C2581 1.479 . S
C2579 H2597 0.929 . S
C2580 C2577 1.424 . S
C2580 C2579 1.384 . S
C2580 H2598 0.928 . S
C2581 C2578 1.260 . S
C2581 C2579 1.479 . S
C2582 C2577 1.245 . S
C2582 C2578 1.477 . S
C2582 H2599 0.932 . S
C2583 U2566 2.882 . S
C2583 C2577 1.428 . S
C2583 O2586 1.301 . S
C2583 O2587 1.282 . S
O2584 U2566 2.441 . S
O2584 C2570 1.249 . S
O2585 U2566 2.420 . S
O2585 C2570 1.202 . S
O2586 U2566 2.455 . S
O2586 C2583 1.301 . S
O2587 U2566 2.449 . S
O2587 C2583 1.282 . S
H2588 C2561 0.931 . S
H2589 C2563 0.929 . S
H2590 C2564 0.930 . S
H2591 C2565 0.931 . S
H2592 C2572 0.932 . S
H2593 C2573 0.930 . S
H2594 C2574 0.929 . S
H2595 C2576 0.930 . S
H2596 C2578 0.932 . S
H2597 C2579 0.929 . S
H2598 C2580 0.928 . S
H2599 C2582 0.932 . S
C2600 C2601 1.264 . S
C2600 C2605 1.479 . S
C2600 C2610 1.465 . S
C2601 C2600 1.264 . S
C2601 C2603 1.339 . S
C2601 H2628 0.931 . S
C2602 C2603 1.395 . S
C2602 C2604 1.320 . S
C2603 C2601 1.339 . S
C2603 C2602 1.395 . S
C2603 H2629 0.929 . S
C2604 C2602 1.320 . S
C2604 C2605 1.405 . S
C2604 H2630 0.930 . S
C2605 C2600 1.479 . S
C2605 C2604 1.405 . S
C2605 H2631 0.931 . S
U2606 O2607 2.454 . S
U2606 O2608 2.458 . S
U2606 C2609 2.984 . S
U2606 C2610 2.847 . S
U2606 C2623 2.882 . S
U2606 O2624 2.441 . S
U2606 O2625 2.420 . S
U2606 O2626 2.455 . S
U2606 O2627 2.449 . S
O2607 U2606 2.454 . S
O2607 C2609 1.353 . S
O2608 U2606 2.458 . S
O2608 C2609 1.286 . S
C2609 U2606 2.984 . S
C2609 O2607 1.353 . S
C2609 O2608 1.286 . S
C2609 C2611 1.363 . S
C2610 C2600 1.465 . S
C2610 U2606 2.847 . S
C2610 O2624 1.249 . S
C2610 O2625 1.202 . S
C2611 C2609 1.363 . S
C2611 C2613 1.408 . S
C2611 C2616 1.342 . S
C2612 C2613 1.310 . S
C2612 C2615 1.461 . S
C2612 H2632 0.932 . S
C2613 C2611 1.408 . S
C2613 C2612 1.310 . S
C2613 H2633 0.930 . S
C2614 C2615 1.474 . S
C2614 C2616 1.285 . S
C2614 H2634 0.929 . S
C2615 C2612 1.461 . S
C2615 C2614 1.474 . S
C2616 C2611 1.342 . S
C2616 C2614 1.285 . S
C2616 H2635 0.930 . S
C2617 C2620 1.424 . S
C2617 C2622 1.245 . S
C2617 C2623 1.428 . S
C2618 C2621 1.260 . S
C2618 C2622 1.477 . S
C2618 H2636 0.932 . S
C2619 C2620 1.384 . S
C2619 C2621 1.479 . S
C2619 H2637 0.929 . S
C2620 C2617 1.424 . S
C2620 C2619 1.384 . S
C2620 H2638 0.928 . S
C2621 C2618 1.260 . S
C2621 C2619 1.479 . S
C2622 C2617 1.245 . S
C2622 C2618 1.477 . S
C2622 H2639 0.932 . S
C2623 U2606 2.882 . S
C2623 C2617 1.428 . S
C2623 O2626 1.301 . S
C2623 O2627 1.282 . S
O2624 U2606 2.441 . S
O2624 C2610 1.249 . S
O2625 U2606 2.420 . S
O2625 C2610 1.202 . S
O2626 U2606 2.455 . S
O2626 C2623 1.301 . S
O2627 U2606 2.449 . S
O2627 C2623 1.282 . S
H2628 C2601 0.931 . S
H2629 C2603 0.929 . S
H2630 C2604 0.930 . S
H2631 C2605 0.931 . S
H2632 C2612 0.932 . S
H2633 C2613 0.930 . S
H2634 C2614 0.929 . S
H2635 C2616 0.930 . S
H2636 C2618 0.932 . S
H2637 C2619 0.929 . S
H2638 C2620 0.928 . S
H2639 C2622 0.932 . S
C2640 C2641 1.264 . S
C2640 C2645 1.479 . S
C2640 C2650 1.465 . S
C2641 C2640 1.264 . S
C2641 C2643 1.339 . S
C2641 H2668 0.931 . S
C2642 C2643 1.395 . S
C2642 C2644 1.320 . S
C2643 C2641 1.339 . S
C2643 C2642 1.395 . S
C2643 H2669 0.929 . S
C2644 C2642 1.320 . S
C2644 C2645 1.405 . S
C2644 H2670 0.930 . S
C2645 C2640 1.479 . S
C2645 C2644 1.405 . S
C2645 H2671 0.931 . S
U2646 O2647 2.454 . S
U2646 O2648 2.458 . S
U2646 C2649 2.984 . S
U2646 C2650 2.847 . S
U2646 C2663 2.882 . S
U2646 O2664 2.441 . S
U2646 O2665 2.420 . S
U2646 O2666 2.455 . S
U2646 O2667 2.449 . S
O2647 U2646 2.454 . S
O2647 C2649 1.353 . S
O2648 U2646 2.458 . S
O2648 C2649 1.286 . S
C2649 U2646 2.984 . S
C2649 O2647 1.353 . S
C2649 O2648 1.286 . S
C2649 C2651 1.363 . S
C2650 C2640 1.465 . S
C2650 U2646 2.847 . S
C2650 O2664 1.249 . S
C2650 O2665 1.202 . S
C2651 C2649 1.363 . S
C2651 C2653 1.408 . S
C2651 C2656 1.342 . S
C2652 C2653 1.310 . S
C2652 C2655 1.461 . S
C2652 H2672 0.932 . S
C2653 C2651 1.408 . S
C2653 C2652 1.310 . S
C2653 H2673 0.930 . S
C2654 C2655 1.474 . S
C2654 C2656 1.285 . S
C2654 H2674 0.929 . S
C2655 C2652 1.461 . S
C2655 C2654 1.474 . S
C2656 C2651 1.342 . S
C2656 C2654 1.285 . S
C2656 H2675 0.930 . S
C2657 C2660 1.424 . S
C2657 C2662 1.245 . S
C2657 C2663 1.428 . S
C2658 C2661 1.260 . S
C2658 C2662 1.477 . S
C2658 H2676 0.932 . S
C2659 C2660 1.384 . S
C2659 C2661 1.479 . S
C2659 H2677 0.929 . S
C2660 C2657 1.424 . S
C2660 C2659 1.384 . S
C2660 H2678 0.928 . S
C2661 C2658 1.260 . S
C2661 C2659 1.479 . S
C2662 C2657 1.245 . S
C2662 C2658 1.477 . S
C2662 H2679 0.932 . S
C2663 U2646 2.882 . S
C2663 C2657 1.428 . S
C2663 O2666 1.301 . S
C2663 O2667 1.282 . S
O2664 U2646 2.441 . S
O2664 C2650 1.249 . S
O2665 U2646 2.420 . S
O2665 C2650 1.202 . S
O2666 U2646 2.455 . S
O2666 C2663 1.301 . S
O2667 U2646 2.449 . S
O2667 C2663 1.282 . S
H2668 C2641 0.931 . S
H2669 C2643 0.929 . S
H2670 C2644 0.930 . S
H2671 C2645 0.931 . S
H2672 C2652 0.932 . S
H2673 C2653 0.930 . S
H2674 C2654 0.929 . S
H2675 C2656 0.930 . S
H2676 C2658 0.932 . S
H2677 C2659 0.929 . S
H2678 C2660 0.928 . S
H2679 C2662 0.932 . S
C2680 C2681 1.264 . S
C2680 C2685 1.479 . S
C2680 C2690 1.465 . S
C2681 C2680 1.264 . S
C2681 C2683 1.339 . S
C2681 H2708 0.931 . S
C2682 C2683 1.395 . S
C2682 C2684 1.320 . S
C2683 C2681 1.339 . S
C2683 C2682 1.395 . S
C2683 H2709 0.929 . S
C2684 C2682 1.320 . S
C2684 C2685 1.405 . S
C2684 H2710 0.930 . S
C2685 C2680 1.479 . S
C2685 C2684 1.405 . S
C2685 H2711 0.931 . S
U2686 O2687 2.454 . S
U2686 O2688 2.458 . S
U2686 C2689 2.984 . S
U2686 C2690 2.847 . S
U2686 C2703 2.882 . S
U2686 O2704 2.441 . S
U2686 O2705 2.420 . S
U2686 O2706 2.455 . S
U2686 O2707 2.449 . S
O2687 U2686 2.454 . S
O2687 C2689 1.353 . S
O2688 U2686 2.458 . S
O2688 C2689 1.286 . S
C2689 U2686 2.984 . S
C2689 O2687 1.353 . S
C2689 O2688 1.286 . S
C2689 C2691 1.363 . S
C2690 C2680 1.465 . S
C2690 U2686 2.847 . S
C2690 O2704 1.249 . S
C2690 O2705 1.202 . S
C2691 C2689 1.363 . S
C2691 C2693 1.408 . S
C2691 C2696 1.342 . S
C2692 C2693 1.310 . S
C2692 C2695 1.461 . S
C2692 H2712 0.932 . S
C2693 C2691 1.408 . S
C2693 C2692 1.310 . S
C2693 H2713 0.930 . S
C2694 C2695 1.474 . S
C2694 C2696 1.285 . S
C2694 H2714 0.929 . S
C2695 C2692 1.461 . S
C2695 C2694 1.474 . S
C2696 C2691 1.342 . S
C2696 C2694 1.285 . S
C2696 H2715 0.930 . S
C2697 C2700 1.424 . S
C2697 C2702 1.245 . S
C2697 C2703 1.428 . S
C2698 C2701 1.260 . S
C2698 C2702 1.477 . S
C2698 H2716 0.932 . S
C2699 C2700 1.384 . S
C2699 C2701 1.479 . S
C2699 H2717 0.929 . S
C2700 C2697 1.424 . S
C2700 C2699 1.384 . S
C2700 H2718 0.928 . S
C2701 C2698 1.260 . S
C2701 C2699 1.479 . S
C2702 C2697 1.245 . S
C2702 C2698 1.477 . S
C2702 H2719 0.932 . S
C2703 U2686 2.882 . S
C2703 C2697 1.428 . S
C2703 O2706 1.301 . S
C2703 O2707 1.282 . S
O2704 U2686 2.441 . S
O2704 C2690 1.249 . S
O2705 U2686 2.420 . S
O2705 C2690 1.202 . S
O2706 U2686 2.455 . S
O2706 C2703 1.301 . S
O2707 U2686 2.449 . S
O2707 C2703 1.282 . S
H2708 C2681 0.931 . S
H2709 C2683 0.929 . S
H2710 C2684 0.930 . S
H2711 C2685 0.931 . S
H2712 C2692 0.932 . S
H2713 C2693 0.930 . S
H2714 C2694 0.929 . S
H2715 C2696 0.930 . S
H2716 C2698 0.932 . S
H2717 C2699 0.929 . S
H2718 C2700 0.928 . S
H2719 C2702 0.932 . S
C2720 C2721 1.264 . S
C2720 C2725 1.479 . S
C2720 C2730 1.465 . S
C2721 C2720 1.264 . S
C2721 C2723 1.339 . S
C2721 H2748 0.931 . S
C2722 C2723 1.395 . S
C2722 C2724 1.320 . S
C2723 C2721 1.339 . S
C2723 C2722 1.395 . S
C2723 H2749 0.929 . S
C2724 C2722 1.320 . S
C2724 C2725 1.405 . S
C2724 H2750 0.930 . S
C2725 C2720 1.479 . S
C2725 C2724 1.405 . S
C2725 H2751 0.931 . S
U2726 O2727 2.454 . S
U2726 O2728 2.458 . S
U2726 C2729 2.984 . S
U2726 C2730 2.847 . S
U2726 C2743 2.882 . S
U2726 O2744 2.441 . S
U2726 O2745 2.420 . S
U2726 O2746 2.455 . S
U2726 O2747 2.449 . S
O2727 U2726 2.454 . S
O2727 C2729 1.353 . S
O2728 U2726 2.458 . S
O2728 C2729 1.286 . S
C2729 U2726 2.984 . S
C2729 O2727 1.353 . S
C2729 O2728 1.286 . S
C2729 C2731 1.363 . S
C2730 C2720 1.465 . S
C2730 U2726 2.847 . S
C2730 O2744 1.249 . S
C2730 O2745 1.202 . S
C2731 C2729 1.363 . S
C2731 C2733 1.408 . S
C2731 C2736 1.342 . S
C2732 C2733 1.310 . S
C2732 C2735 1.461 . S
C2732 H2752 0.932 . S
C2733 C2731 1.408 . S
C2733 C2732 1.310 . S
C2733 H2753 0.930 . S
C2734 C2735 1.474 . S
C2734 C2736 1.285 . S
C2734 H2754 0.929 . S
C2735 C2732 1.461 . S
C2735 C2734 1.474 . S
C2736 C2731 1.342 . S
C2736 C2734 1.285 . S
C2736 H2755 0.930 . S
C2737 C2740 1.424 . S
C2737 C2742 1.245 . S
C2737 C2743 1.428 . S
C2738 C2741 1.260 . S
C2738 C2742 1.477 . S
C2738 H2756 0.932 . S
C2739 C2740 1.384 . S
C2739 C2741 1.479 . S
C2739 H2757 0.929 . S
C2740 C2737 1.424 . S
C2740 C2739 1.384 . S
C2740 H2758 0.928 . S
C2741 C2738 1.260 . S
C2741 C2739 1.479 . S
C2742 C2737 1.245 . S
C2742 C2738 1.477 . S
C2742 H2759 0.932 . S
C2743 U2726 2.882 . S
C2743 C2737 1.428 . S
C2743 O2746 1.301 . S
C2743 O2747 1.282 . S
O2744 U2726 2.441 . S
O2744 C2730 1.249 . S
O2745 U2726 2.420 . S
O2745 C2730 1.202 . S
O2746 U2726 2.455 . S
O2746 C2743 1.301 . S
O2747 U2726 2.449 . S
O2747 C2743 1.282 . S
H2748 C2721 0.931 . S
H2749 C2723 0.929 . S
H2750 C2724 0.930 . S
H2751 C2725 0.931 . S
H2752 C2732 0.932 . S
H2753 C2733 0.930 . S
H2754 C2734 0.929 . S
H2755 C2736 0.930 . S
H2756 C2738 0.932 . S
H2757 C2739 0.929 . S
H2758 C2740 0.928 . S
H2759 C2742 0.932 . S
C2760 C2761 1.264 . S
C2760 C2765 1.479 . S
C2760 C2770 1.465 . S
C2761 C2760 1.264 . S
C2761 C2763 1.339 . S
C2761 H2788 0.931 . S
C2762 C2763 1.395 . S
C2762 C2764 1.320 . S
C2763 C2761 1.339 . S
C2763 C2762 1.395 . S
C2763 H2789 0.929 . S
C2764 C2762 1.320 . S
C2764 C2765 1.405 . S
C2764 H2790 0.930 . S
C2765 C2760 1.479 . S
C2765 C2764 1.405 . S
C2765 H2791 0.931 . S
U2766 O2767 2.454 . S
U2766 O2768 2.458 . S
U2766 C2769 2.984 . S
U2766 C2770 2.847 . S
U2766 C2783 2.882 . S
U2766 O2784 2.441 . S
U2766 O2785 2.420 . S
U2766 O2786 2.455 . S
U2766 O2787 2.449 . S
O2767 U2766 2.454 . S
O2767 C2769 1.353 . S
O2768 U2766 2.458 . S
O2768 C2769 1.286 . S
C2769 U2766 2.984 . S
C2769 O2767 1.353 . S
C2769 O2768 1.286 . S
C2769 C2771 1.363 . S
C2770 C2760 1.465 . S
C2770 U2766 2.847 . S
C2770 O2784 1.249 . S
C2770 O2785 1.202 . S
C2771 C2769 1.363 . S
C2771 C2773 1.408 . S
C2771 C2776 1.342 . S
C2772 C2773 1.310 . S
C2772 C2775 1.461 . S
C2772 H2792 0.932 . S
C2773 C2771 1.408 . S
C2773 C2772 1.310 . S
C2773 H2793 0.930 . S
C2774 C2775 1.474 . S
C2774 C2776 1.285 . S
C2774 H2794 0.929 . S
C2775 C2772 1.461 . S
C2775 C2774 1.474 . S
C2776 C2771 1.342 . S
C2776 C2774 1.285 . S
C2776 H2795 0.930 . S
C2777 C2780 1.424 . S
C2777 C2782 1.245 . S
C2777 C2783 1.428 . S
C2778 C2781 1.260 . S
C2778 C2782 1.477 . S
C2778 H2796 0.932 . S
C2779 C2780 1.384 . S
C2779 C2781 1.479 . S
C2779 H2797 0.929 . S
C2780 C2777 1.424 . S
C2780 C2779 1.384 . S
C2780 H2798 0.928 . S
C2781 C2778 1.260 . S
C2781 C2779 1.479 . S
C2782 C2777 1.245 . S
C2782 C2778 1.477 . S
C2782 H2799 0.932 . S
C2783 U2766 2.882 . S
C2783 C2777 1.428 . S
C2783 O2786 1.301 . S
C2783 O2787 1.282 . S
O2784 U2766 2.441 . S
O2784 C2770 1.249 . S
O2785 U2766 2.420 . S
O2785 C2770 1.202 . S
O2786 U2766 2.455 . S
O2786 C2783 1.301 . S
O2787 U2766 2.449 . S
O2787 C2783 1.282 . S
H2788 C2761 0.931 . S
H2789 C2763 0.929 . S
H2790 C2764 0.930 . S
H2791 C2765 0.931 . S
H2792 C2772 0.932 . S
H2793 C2773 0.930 . S
H2794 C2774 0.929 . S
H2795 C2776 0.930 . S
H2796 C2778 0.932 . S
H2797 C2779 0.929 . S
H2798 C2780 0.928 . S
H2799 C2782 0.932 . S
C2800 C2801 1.264 . S
C2800 C2805 1.479 . S
C2800 C2810 1.465 . S
C2801 C2800 1.264 . S
C2801 C2803 1.339 . S
C2801 H2828 0.931 . S
C2802 C2803 1.395 . S
C2802 C2804 1.320 . S
C2803 C2801 1.339 . S
C2803 C2802 1.395 . S
C2803 H2829 0.929 . S
C2804 C2802 1.320 . S
C2804 C2805 1.405 . S
C2804 H2830 0.930 . S
C2805 C2800 1.479 . S
C2805 C2804 1.405 . S
C2805 H2831 0.931 . S
U2806 O2807 2.454 . S
U2806 O2808 2.458 . S
U2806 C2809 2.984 . S
U2806 C2810 2.847 . S
U2806 C2823 2.882 . S
U2806 O2824 2.441 . S
U2806 O2825 2.420 . S
U2806 O2826 2.455 . S
U2806 O2827 2.449 . S
O2807 U2806 2.454 . S
O2807 C2809 1.353 . S
O2808 U2806 2.458 . S
O2808 C2809 1.286 . S
C2809 U2806 2.984 . S
C2809 O2807 1.353 . S
C2809 O2808 1.286 . S
C2809 C2811 1.363 . S
C2810 C2800 1.465 . S
C2810 U2806 2.847 . S
C2810 O2824 1.249 . S
C2810 O2825 1.202 . S
C2811 C2809 1.363 . S
C2811 C2813 1.408 . S
C2811 C2816 1.342 . S
C2812 C2813 1.310 . S
C2812 C2815 1.461 . S
C2812 H2832 0.932 . S
C2813 C2811 1.408 . S
C2813 C2812 1.310 . S
C2813 H2833 0.930 . S
C2814 C2815 1.474 . S
C2814 C2816 1.285 . S
C2814 H2834 0.929 . S
C2815 C2812 1.461 . S
C2815 C2814 1.474 . S
C2816 C2811 1.342 . S
C2816 C2814 1.285 . S
C2816 H2835 0.930 . S
C2817 C2820 1.424 . S
C2817 C2822 1.245 . S
C2817 C2823 1.428 . S
C2818 C2821 1.260 . S
C2818 C2822 1.477 . S
C2818 H2836 0.932 . S
C2819 C2820 1.384 . S
C2819 C2821 1.479 . S
C2819 H2837 0.929 . S
C2820 C2817 1.424 . S
C2820 C2819 1.384 . S
C2820 H2838 0.928 . S
C2821 C2818 1.260 . S
C2821 C2819 1.479 . S
C2822 C2817 1.245 . S
C2822 C2818 1.477 . S
C2822 H2839 0.932 . S
C2823 U2806 2.882 . S
C2823 C2817 1.428 . S
C2823 O2826 1.301 . S
C2823 O2827 1.282 . S
O2824 U2806 2.441 . S
O2824 C2810 1.249 . S
O2825 U2806 2.420 . S
O2825 C2810 1.202 . S
O2826 U2806 2.455 . S
O2826 C2823 1.301 . S
O2827 U2806 2.449 . S
O2827 C2823 1.282 . S
H2828 C2801 0.931 . S
H2829 C2803 0.929 . S
H2830 C2804 0.930 . S
H2831 C2805 0.931 . S
H2832 C2812 0.932 . S
H2833 C2813 0.930 . S
H2834 C2814 0.929 . S
H2835 C2816 0.930 . S
H2836 C2818 0.932 . S
H2837 C2819 0.929 . S
H2838 C2820 0.928 . S
H2839 C2822 0.932 . S
C2840 C2841 1.264 . S
C2840 C2845 1.479 . S
C2840 C2850 1.465 . S
C2841 C2840 1.264 . S
C2841 C2843 1.339 . S
C2841 H2868 0.931 . S
C2842 C2843 1.395 . S
C2842 C2844 1.320 . S
C2843 C2841 1.339 . S
C2843 C2842 1.395 . S
C2843 H2869 0.929 . S
C2844 C2842 1.320 . S
C2844 C2845 1.405 . S
C2844 H2870 0.930 . S
C2845 C2840 1.479 . S
C2845 C2844 1.405 . S
C2845 H2871 0.931 . S
U2846 O2847 2.454 . S
U2846 O2848 2.458 . S
U2846 C2849 2.984 . S
U2846 C2850 2.847 . S
U2846 C2863 2.882 . S
U2846 O2864 2.441 . S
U2846 O2865 2.420 . S
U2846 O2866 2.455 . S
U2846 O2867 2.449 . S
O2847 U2846 2.454 . S
O2847 C2849 1.353 . S
O2848 U2846 2.458 . S
O2848 C2849 1.286 . S
C2849 U2846 2.984 . S
C2849 O2847 1.353 . S
C2849 O2848 1.286 . S
C2849 C2851 1.363 . S
C2850 C2840 1.465 . S
C2850 U2846 2.847 . S
C2850 O2864 1.249 . S
C2850 O2865 1.202 . S
C2851 C2849 1.363 . S
C2851 C2853 1.408 . S
C2851 C2856 1.342 . S
C2852 C2853 1.310 . S
C2852 C2855 1.461 . S
C2852 H2872 0.932 . S
C2853 C2851 1.408 . S
C2853 C2852 1.310 . S
C2853 H2873 0.930 . S
C2854 C2855 1.474 . S
C2854 C2856 1.285 . S
C2854 H2874 0.929 . S
C2855 C2852 1.461 . S
C2855 C2854 1.474 . S
C2856 C2851 1.342 . S
C2856 C2854 1.285 . S
C2856 H2875 0.930 . S
C2857 C2860 1.424 . S
C2857 C2862 1.245 . S
C2857 C2863 1.428 . S
C2858 C2861 1.260 . S
C2858 C2862 1.477 . S
C2858 H2876 0.932 . S
C2859 C2860 1.384 . S
C2859 C2861 1.479 . S
C2859 H2877 0.929 . S
C2860 C2857 1.424 . S
C2860 C2859 1.384 . S
C2860 H2878 0.928 . S
C2861 C2858 1.260 . S
C2861 C2859 1.479 . S
C2862 C2857 1.245 . S
C2862 C2858 1.477 . S
C2862 H2879 0.932 . S
C2863 U2846 2.882 . S
C2863 C2857 1.428 . S
C2863 O2866 1.301 . S
C2863 O2867 1.282 . S
O2864 U2846 2.441 . S
O2864 C2850 1.249 . S
O2865 U2846 2.420 . S
O2865 C2850 1.202 . S
O2866 U2846 2.455 . S
O2866 C2863 1.301 . S
O2867 U2846 2.449 . S
O2867 C2863 1.282 . S
H2868 C2841 0.931 . S
H2869 C2843 0.929 . S
H2870 C2844 0.930 . S
H2871 C2845 0.931 . S
H2872 C2852 0.932 . S
H2873 C2853 0.930 . S
H2874 C2854 0.929 . S
H2875 C2856 0.930 . S
H2876 C2858 0.932 . S
H2877 C2859 0.929 . S
H2878 C2860 0.928 . S
H2879 C2862 0.932 . S
C2880 C2881 1.264 . S
C2880 C2885 1.479 . S
C2880 C2890 1.465 . S
C2881 C2880 1.264 . S
C2881 C2883 1.339 . S
C2881 H2908 0.931 . S
C2882 C2883 1.395 . S
C2882 C2884 1.320 . S
C2883 C2881 1.339 . S
C2883 C2882 1.395 . S
C2883 H2909 0.929 . S
C2884 C2882 1.320 . S
C2884 C2885 1.405 . S
C2884 H2910 0.930 . S
C2885 C2880 1.479 . S
C2885 C2884 1.405 . S
C2885 H2911 0.931 . S
U2886 O2887 2.454 . S
U2886 O2888 2.458 . S
U2886 C2889 2.984 . S
U2886 C2890 2.847 . S
U2886 C2903 2.882 . S
U2886 O2904 2.441 . S
U2886 O2905 2.420 . S
U2886 O2906 2.455 . S
U2886 O2907 2.449 . S
O2887 U2886 2.454 . S
O2887 C2889 1.353 . S
O2888 U2886 2.458 . S
O2888 C2889 1.286 . S
C2889 U2886 2.984 . S
C2889 O2887 1.353 . S
C2889 O2888 1.286 . S
C2889 C2891 1.363 . S
C2890 C2880 1.465 . S
C2890 U2886 2.847 . S
C2890 O2904 1.249 . S
C2890 O2905 1.202 . S
C2891 C2889 1.363 . S
C2891 C2893 1.408 . S
C2891 C2896 1.342 . S
C2892 C2893 1.310 . S
C2892 C2895 1.461 . S
C2892 H2912 0.932 . S
C2893 C2891 1.408 . S
C2893 C2892 1.310 . S
C2893 H2913 0.930 . S
C2894 C2895 1.474 . S
C2894 C2896 1.285 . S
C2894 H2914 0.929 . S
C2895 C2892 1.461 . S
C2895 C2894 1.474 . S
C2896 C2891 1.342 . S
C2896 C2894 1.285 . S
C2896 H2915 0.930 . S
C2897 C2900 1.424 . S
C2897 C2902 1.245 . S
C2897 C2903 1.428 . S
C2898 C2901 1.260 . S
C2898 C2902 1.477 . S
C2898 H2916 0.932 . S
C2899 C2900 1.384 . S
C2899 C2901 1.479 . S
C2899 H2917 0.929 . S
C2900 C2897 1.424 . S
C2900 C2899 1.384 . S
C2900 H2918 0.928 . S
C2901 C2898 1.260 . S
C2901 C2899 1.479 . S
C2902 C2897 1.245 . S
C2902 C2898 1.477 . S
C2902 H2919 0.932 . S
C2903 U2886 2.882 . S
C2903 C2897 1.428 . S
C2903 O2906 1.301 . S
C2903 O2907 1.282 . S
O2904 U2886 2.441 . S
O2904 C2890 1.249 . S
O2905 U2886 2.420 . S
O2905 C2890 1.202 . S
O2906 U2886 2.455 . S
O2906 C2903 1.301 . S
O2907 U2886 2.449 . S
O2907 C2903 1.282 . S
H2908 C2881 0.931 . S
H2909 C2883 0.929 . S
H2910 C2884 0.930 . S
H2911 C2885 0.931 . S
H2912 C2892 0.932 . S
H2913 C2893 0.930 . S
H2914 C2894 0.929 . S
H2915 C2896 0.930 . S
H2916 C2898 0.932 . S
H2917 C2899 0.929 . S
H2918 C2900 0.928 . S
H2919 C2902 0.932 . S
C2920 C2921 1.264 . S
C2920 C2925 1.479 . S
C2920 C2930 1.465 . S
C2921 C2920 1.264 . S
C2921 C2923 1.339 . S
C2921 H2948 0.931 . S
C2922 C2923 1.395 . S
C2922 C2924 1.320 . S
C2923 C2921 1.339 . S
C2923 C2922 1.395 . S
C2923 H2949 0.929 . S
C2924 C2922 1.320 . S
C2924 C2925 1.405 . S
C2924 H2950 0.930 . S
C2925 C2920 1.479 . S
C2925 C2924 1.405 . S
C2925 H2951 0.931 . S
U2926 O2927 2.454 . S
U2926 O2928 2.458 . S
U2926 C2929 2.984 . S
U2926 C2930 2.847 . S
U2926 C2943 2.882 . S
U2926 O2944 2.441 . S
U2926 O2945 2.420 . S
U2926 O2946 2.455 . S
U2926 O2947 2.449 . S
O2927 U2926 2.454 . S
O2927 C2929 1.353 . S
O2928 U2926 2.458 . S
O2928 C2929 1.286 . S
C2929 U2926 2.984 . S
C2929 O2927 1.353 . S
C2929 O2928 1.286 . S
C2929 C2931 1.363 . S
C2930 C2920 1.465 . S
C2930 U2926 2.847 . S
C2930 O2944 1.249 . S
C2930 O2945 1.202 . S
C2931 C2929 1.363 . S
C2931 C2933 1.408 . S
C2931 C2936 1.342 . S
C2932 C2933 1.310 . S
C2932 C2935 1.461 . S
C2932 H2952 0.932 . S
C2933 C2931 1.408 . S
C2933 C2932 1.310 . S
C2933 H2953 0.930 . S
C2934 C2935 1.474 . S
C2934 C2936 1.285 . S
C2934 H2954 0.929 . S
C2935 C2932 1.461 . S
C2935 C2934 1.474 . S
C2936 C2931 1.342 . S
C2936 C2934 1.285 . S
C2936 H2955 0.930 . S
C2937 C2940 1.424 . S
C2937 C2942 1.245 . S
C2937 C2943 1.428 . S
C2938 C2941 1.260 . S
C2938 C2942 1.477 . S
C2938 H2956 0.932 . S
C2939 C2940 1.384 . S
C2939 C2941 1.479 . S
C2939 H2957 0.929 . S
C2940 C2937 1.424 . S
C2940 C2939 1.384 . S
C2940 H2958 0.928 . S
C2941 C2938 1.260 . S
C2941 C2939 1.479 . S
C2942 C2937 1.245 . S
C2942 C2938 1.477 . S
C2942 H2959 0.932 . S
C2943 U2926 2.882 . S
C2943 C2937 1.428 . S
C2943 O2946 1.301 . S
C2943 O2947 1.282 . S
O2944 U2926 2.441 . S
O2944 C2930 1.249 . S
O2945 U2926 2.420 . S
O2945 C2930 1.202 . S
O2946 U2926 2.455 . S
O2946 C2943 1.301 . S
O2947 U2926 2.449 . S
O2947 C2943 1.282 . S
H2948 C2921 0.931 . S
H2949 C2923 0.929 . S
H2950 C2924 0.930 . S
H2951 C2925 0.931 . S
H2952 C2932 0.932 . S
H2953 C2933 0.930 . S
H2954 C2934 0.929 . S
H2955 C2936 0.930 . S
H2956 C2938 0.932 . S
H2957 C2939 0.929 . S
H2958 C2940 0.928 . S
H2959 C2942 0.932 . S
C2960 C2961 1.264 . S
C2960 C2965 1.479 . S
C2960 C2970 1.465 . S
C2961 C2960 1.264 . S
C2961 C2963 1.339 . S
C2961 H2988 0.931 . S
C2962 C2963 1.395 . S
C2962 C2964 1.320 . S
C2963 C2961 1.339 . S
C2963 C2962 1.395 . S
C2963 H2989 0.929 . S
C2964 C2962 1.320 . S
C2964 C2965 1.405 . S
C2964 H2990 0.930 . S
C2965 C2960 1.479 . S
C2965 C2964 1.405 . S
C2965 H2991 0.931 . S
U2966 O2967 2.454 . S
U2966 O2968 2.458 . S
U2966 C2969 2.984 . S
U2966 C2970 2.847 . S
U2966 C2983 2.882 . S
U2966 O2984 2.441 . S
U2966 O2985 2.420 . S
U2966 O2986 2.455 . S
U2966 O2987 2.449 . S
O2967 U2966 2.454 . S
O2967 C2969 1.353 . S
O2968 U2966 2.458 . S
O2968 C2969 1.286 . S
C2969 U2966 2.984 . S
C2969 O2967 1.353 . S
C2969 O2968 1.286 . S
C2969 C2971 1.363 . S
C2970 C2960 1.465 . S
C2970 U2966 2.847 . S
C2970 O2984 1.249 . S
C2970 O2985 1.202 . S
C2971 C2969 1.363 . S
C2971 C2973 1.408 . S
C2971 C2976 1.342 . S
C2972 C2973 1.310 . S
C2972 C2975 1.461 . S
C2972 H2992 0.932 . S
C2973 C2971 1.408 . S
C2973 C2972 1.310 . S
C2973 H2993 0.930 . S
C2974 C2975 1.474 . S
C2974 C2976 1.285 . S
C2974 H2994 0.929 . S
C2975 C2972 1.461 . S
C2975 C2974 1.474 . S
C2976 C2971 1.342 . S
C2976 C2974 1.285 . S
C2976 H2995 0.930 . S
C2977 C2980 1.424 . S
C2977 C2982 1.245 . S
C2977 C2983 1.428 . S
C2978 C2981 1.260 . S
C2978 C2982 1.477 . S
C2978 H2996 0.932 . S
C2979 C2980 1.384 . S
C2979 C2981 1.479 . S
C2979 H2997 0.929 . S
C2980 C2977 1.424 . S
C2980 C2979 1.384 . S
C2980 H2998 0.928 . S
C2981 C2978 1.260 . S
C2981 C2979 1.479 . S
C2982 C2977 1.245 . S
C2982 C2978 1.477 . S
C2982 H2999 0.932 . S
C2983 U2966 2.882 . S
C2983 C2977 1.428 . S
C2983 O2986 1.301 . S
C2983 O2987 1.282 . S
O2984 U2966 2.441 . S
O2984 C2970 1.249 . S
O2985 U2966 2.420 . S
O2985 C2970 1.202 . S
O2986 U2966 2.455 . S
O2986 C2983 1.301 . S
O2987 U2966 2.449 . S
O2987 C2983 1.282 . S
H2988 C2961 0.931 . S
H2989 C2963 0.929 . S
H2990 C2964 0.930 . S
H2991 C2965 0.931 . S
H2992 C2972 0.932 . S
H2993 C2973 0.930 . S
H2994 C2974 0.929 . S
H2995 C2976 0.930 . S
H2996 C2978 0.932 . S
H2997 C2979 0.929 . S
H2998 C2980 0.928 . S
H2999 C2982 0.932 . S
C3000 C3001 1.264 . S
C3000 C3005 1.479 . S
C3000 C3010 1.465 . S
C3001 C3000 1.264 . S
C3001 C3003 1.339 . S
C3001 H3028 0.931 . S
C3002 C3003 1.395 . S
C3002 C3004 1.320 . S
C3003 C3001 1.339 . S
C3003 C3002 1.395 . S
C3003 H3029 0.929 . S
C3004 C3002 1.320 . S
C3004 C3005 1.405 . S
C3004 H3030 0.930 . S
C3005 C3000 1.479 . S
C3005 C3004 1.405 . S
C3005 H3031 0.931 . S
U3006 O3007 2.454 . S
U3006 O3008 2.458 . S
U3006 C3009 2.984 . S
U3006 C3010 2.847 . S
U3006 C3023 2.882 . S
U3006 O3024 2.441 . S
U3006 O3025 2.420 . S
U3006 O3026 2.455 . S
U3006 O3027 2.449 . S
O3007 U3006 2.454 . S
O3007 C3009 1.353 . S
O3008 U3006 2.458 . S
O3008 C3009 1.286 . S
C3009 U3006 2.984 . S
C3009 O3007 1.353 . S
C3009 O3008 1.286 . S
C3009 C3011 1.363 . S
C3010 C3000 1.465 . S
C3010 U3006 2.847 . S
C3010 O3024 1.249 . S
C3010 O3025 1.202 . S
C3011 C3009 1.363 . S
C3011 C3013 1.408 . S
C3011 C3016 1.342 . S
C3012 C3013 1.310 . S
C3012 C3015 1.461 . S
C3012 H3032 0.932 . S
C3013 C3011 1.408 . S
C3013 C3012 1.310 . S
C3013 H3033 0.930 . S
C3014 C3015 1.474 . S
C3014 C3016 1.285 . S
C3014 H3034 0.929 . S
C3015 C3012 1.461 . S
C3015 C3014 1.474 . S
C3016 C3011 1.342 . S
C3016 C3014 1.285 . S
C3016 H3035 0.930 . S
C3017 C3020 1.424 . S
C3017 C3022 1.245 . S
C3017 C3023 1.428 . S
C3018 C3021 1.260 . S
C3018 C3022 1.477 . S
C3018 H3036 0.932 . S
C3019 C3020 1.384 . S
C3019 C3021 1.479 . S
C3019 H3037 0.929 . S
C3020 C3017 1.424 . S
C3020 C3019 1.384 . S
C3020 H3038 0.928 . S
C3021 C3018 1.260 . S
C3021 C3019 1.479 . S
C3022 C3017 1.245 . S
C3022 C3018 1.477 . S
C3022 H3039 0.932 . S
C3023 U3006 2.882 . S
C3023 C3017 1.428 . S
C3023 O3026 1.301 . S
C3023 O3027 1.282 . S
O3024 U3006 2.441 . S
O3024 C3010 1.249 . S
O3025 U3006 2.420 . S
O3025 C3010 1.202 . S
O3026 U3006 2.455 . S
O3026 C3023 1.301 . S
O3027 U3006 2.449 . S
O3027 C3023 1.282 . S
H3028 C3001 0.931 . S
H3029 C3003 0.929 . S
H3030 C3004 0.930 . S
H3031 C3005 0.931 . S
H3032 C3012 0.932 . S
H3033 C3013 0.930 . S
H3034 C3014 0.929 . S
H3035 C3016 0.930 . S
H3036 C3018 0.932 . S
H3037 C3019 0.929 . S
H3038 C3020 0.928 . S
H3039 C3022 0.932 . S
C3040 C3041 1.264 . S
C3040 C3045 1.479 . S
C3040 C3050 1.465 . S
C3041 C3040 1.264 . S
C3041 C3043 1.339 . S
C3041 H3068 0.931 . S
C3042 C3043 1.395 . S
C3042 C3044 1.320 . S
C3043 C3041 1.339 . S
C3043 C3042 1.395 . S
C3043 H3069 0.929 . S
C3044 C3042 1.320 . S
C3044 C3045 1.405 . S
C3044 H3070 0.930 . S
C3045 C3040 1.479 . S
C3045 C3044 1.405 . S
C3045 H3071 0.931 . S
U3046 O3047 2.454 . S
U3046 O3048 2.458 . S
U3046 C3049 2.984 . S
U3046 C3050 2.847 . S
U3046 C3063 2.882 . S
U3046 O3064 2.441 . S
U3046 O3065 2.420 . S
U3046 O3066 2.455 . S
U3046 O3067 2.449 . S
O3047 U3046 2.454 . S
O3047 C3049 1.353 . S
O3048 U3046 2.458 . S
O3048 C3049 1.286 . S
C3049 U3046 2.984 . S
C3049 O3047 1.353 . S
C3049 O3048 1.286 . S
C3049 C3051 1.363 . S
C3050 C3040 1.465 . S
C3050 U3046 2.847 . S
C3050 O3064 1.249 . S
C3050 O3065 1.202 . S
C3051 C3049 1.363 . S
C3051 C3053 1.408 . S
C3051 C3056 1.342 . S
C3052 C3053 1.310 . S
C3052 C3055 1.461 . S
C3052 H3072 0.932 . S
C3053 C3051 1.408 . S
C3053 C3052 1.310 . S
C3053 H3073 0.930 . S
C3054 C3055 1.474 . S
C3054 C3056 1.285 . S
C3054 H3074 0.929 . S
C3055 C3052 1.461 . S
C3055 C3054 1.474 . S
C3056 C3051 1.342 . S
C3056 C3054 1.285 . S
C3056 H3075 0.930 . S
C3057 C3060 1.424 . S
C3057 C3062 1.245 . S
C3057 C3063 1.428 . S
C3058 C3061 1.260 . S
C3058 C3062 1.477 . S
C3058 H3076 0.932 . S
C3059 C3060 1.384 . S
C3059 C3061 1.479 . S
C3059 H3077 0.929 . S
C3060 C3057 1.424 . S
C3060 C3059 1.384 . S
C3060 H3078 0.928 . S
C3061 C3058 1.260 . S
C3061 C3059 1.479 . S
C3062 C3057 1.245 . S
C3062 C3058 1.477 . S
C3062 H3079 0.932 . S
C3063 U3046 2.882 . S
C3063 C3057 1.428 . S
C3063 O3066 1.301 . S
C3063 O3067 1.282 . S
O3064 U3046 2.441 . S
O3064 C3050 1.249 . S
O3065 U3046 2.420 . S
O3065 C3050 1.202 . S
O3066 U3046 2.455 . S
O3066 C3063 1.301 . S
O3067 U3046 2.449 . S
O3067 C3063 1.282 . S
H3068 C3041 0.931 . S
H3069 C3043 0.929 . S
H3070 C3044 0.930 . S
H3071 C3045 0.931 . S
H3072 C3052 0.932 . S
H3073 C3053 0.930 . S
H3074 C3054 0.929 . S
H3075 C3056 0.930 . S
H3076 C3058 0.932 . S
H3077 C3059 0.929 . S
H3078 C3060 0.928 . S
H3079 C3062 0.932 . S
C3080 C3081 1.264 . S
C3080 C3085 1.479 . S
C3080 C3090 1.465 . S
C3081 C3080 1.264 . S
C3081 C3083 1.339 . S
C3081 H3108 0.931 . S
C3082 C3083 1.395 . S
C3082 C3084 1.320 . S
C3083 C3081 1.339 . S
C3083 C3082 1.395 . S
C3083 H3109 0.929 . S
C3084 C3082 1.320 . S
C3084 C3085 1.405 . S
C3084 H3110 0.930 . S
C3085 C3080 1.479 . S
C3085 C3084 1.405 . S
C3085 H3111 0.931 . S
U3086 O3087 2.454 . S
U3086 O3088 2.458 . S
U3086 C3089 2.984 . S
U3086 C3090 2.847 . S
U3086 C3103 2.882 . S
U3086 O3104 2.441 . S
U3086 O3105 2.420 . S
U3086 O3106 2.455 . S
U3086 O3107 2.449 . S
O3087 U3086 2.454 . S
O3087 C3089 1.353 . S
O3088 U3086 2.458 . S
O3088 C3089 1.286 . S
C3089 U3086 2.984 . S
C3089 O3087 1.353 . S
C3089 O3088 1.286 . S
C3089 C3091 1.363 . S
C3090 C3080 1.465 . S
C3090 U3086 2.847 . S
C3090 O3104 1.249 . S
C3090 O3105 1.202 . S
C3091 C3089 1.363 . S
C3091 C3093 1.408 . S
C3091 C3096 1.342 . S
C3092 C3093 1.310 . S
C3092 C3095 1.461 . S
C3092 H3112 0.932 . S
C3093 C3091 1.408 . S
C3093 C3092 1.310 . S
C3093 H3113 0.930 . S
C3094 C3095 1.474 . S
C3094 C3096 1.285 . S
C3094 H3114 0.929 . S
C3095 C3092 1.461 . S
C3095 C3094 1.474 . S
C3096 C3091 1.342 . S
C3096 C3094 1.285 . S
C3096 H3115 0.930 . S
C3097 C3100 1.424 . S
C3097 C3102 1.245 . S
C3097 C3103 1.428 . S
C3098 C3101 1.260 . S
C3098 C3102 1.477 . S
C3098 H3116 0.932 . S
C3099 C3100 1.384 . S
C3099 C3101 1.479 . S
C3099 H3117 0.929 . S
C3100 C3097 1.424 . S
C3100 C3099 1.384 . S
C3100 H3118 0.928 . S
C3101 C3098 1.260 . S
C3101 C3099 1.479 . S
C3102 C3097 1.245 . S
C3102 C3098 1.477 . S
C3102 H3119 0.932 . S
C3103 U3086 2.882 . S
C3103 C3097 1.428 . S
C3103 O3106 1.301 . S
C3103 O3107 1.282 . S
O3104 U3086 2.441 . S
O3104 C3090 1.249 . S
O3105 U3086 2.420 . S
O3105 C3090 1.202 . S
O3106 U3086 2.455 . S
O3106 C3103 1.301 . S
O3107 U3086 2.449 . S
O3107 C3103 1.282 . S
H3108 C3081 0.931 . S
H3109 C3083 0.929 . S
H3110 C3084 0.930 . S
H3111 C3085 0.931 . S
H3112 C3092 0.932 . S
H3113 C3093 0.930 . S
H3114 C3094 0.929 . S
H3115 C3096 0.930 . S
H3116 C3098 0.932 . S
H3117 C3099 0.929 . S
H3118 C3100 0.928 . S
H3119 C3102 0.932 . S
C3120 C3121 1.264 . S
C3120 C3125 1.479 . S
C3120 C3130 1.465 . S
C3121 C3120 1.264 . S
C3121 C3123 1.339 . S
C3121 H3148 0.931 . S
C3122 C3123 1.395 . S
C3122 C3124 1.320 . S
C3123 C3121 1.339 . S
C3123 C3122 1.395 . S
C3123 H3149 0.929 . S
C3124 C3122 1.320 . S
C3124 C3125 1.405 . S
C3124 H3150 0.930 . S
C3125 C3120 1.479 . S
C3125 C3124 1.405 . S
C3125 H3151 0.931 . S
U3126 O3127 2.454 . S
U3126 O3128 2.458 . S
U3126 C3129 2.984 . S
U3126 C3130 2.847 . S
U3126 C3143 2.882 . S
U3126 O3144 2.441 . S
U3126 O3145 2.420 . S
U3126 O3146 2.455 . S
U3126 O3147 2.449 . S
O3127 U3126 2.454 . S
O3127 C3129 1.353 . S
O3128 U3126 2.458 . S
O3128 C3129 1.286 . S
C3129 U3126 2.984 . S
C3129 O3127 1.353 . S
C3129 O3128 1.286 . S
C3129 C3131 1.363 . S
C3130 C3120 1.465 . S
C3130 U3126 2.847 . S
C3130 O3144 1.249 . S
C3130 O3145 1.202 . S
C3131 C3129 1.363 . S
C3131 C3133 1.408 . S
C3131 C3136 1.342 . S
C3132 C3133 1.310 . S
C3132 C3135 1.461 . S
C3132 H3152 0.932 . S
C3133 C3131 1.408 . S
C3133 C3132 1.310 . S
C3133 H3153 0.930 . S
C3134 C3135 1.474 . S
C3134 C3136 1.285 . S
C3134 H3154 0.929 . S
C3135 C3132 1.461 . S
C3135 C3134 1.474 . S
C3136 C3131 1.342 . S
C3136 C3134 1.285 . S
C3136 H3155 0.930 . S
C3137 C3140 1.424 . S
C3137 C3142 1.245 . S
C3137 C3143 1.428 . S
C3138 C3141 1.260 . S
C3138 C3142 1.477 . S
C3138 H3156 0.932 . S
C3139 C3140 1.384 . S
C3139 C3141 1.479 . S
C3139 H3157 0.929 . S
C3140 C3137 1.424 . S
C3140 C3139 1.384 . S
C3140 H3158 0.928 . S
C3141 C3138 1.260 . S
C3141 C3139 1.479 . S
C3142 C3137 1.245 . S
C3142 C3138 1.477 . S
C3142 H3159 0.932 . S
C3143 U3126 2.882 . S
C3143 C3137 1.428 . S
C3143 O3146 1.301 . S
C3143 O3147 1.282 . S
O3144 U3126 2.441 . S
O3144 C3130 1.249 . S
O3145 U3126 2.420 . S
O3145 C3130 1.202 . S
O3146 U3126 2.455 . S
O3146 C3143 1.301 . S
O3147 U3126 2.449 . S
O3147 C3143 1.282 . S
H3148 C3121 0.931 . S
H3149 C3123 0.929 . S
H3150 C3124 0.930 . S
H3151 C3125 0.931 . S
H3152 C3132 0.932 . S
H3153 C3133 0.930 . S
H3154 C3134 0.929 . S
H3155 C3136 0.930 . S
H3156 C3138 0.932 . S
H3157 C3139 0.929 . S
H3158 C3140 0.928 . S
H3159 C3142 0.932 . S
C3160 C3161 1.264 . S
C3160 C3165 1.479 . S
C3160 C3170 1.465 . S
C3161 C3160 1.264 . S
C3161 C3163 1.339 . S
C3161 H3188 0.931 . S
C3162 C3163 1.395 . S
C3162 C3164 1.320 . S
C3163 C3161 1.339 . S
C3163 C3162 1.395 . S
C3163 H3189 0.929 . S
C3164 C3162 1.320 . S
C3164 C3165 1.405 . S
C3164 H3190 0.930 . S
C3165 C3160 1.479 . S
C3165 C3164 1.405 . S
C3165 H3191 0.931 . S
U3166 O3167 2.454 . S
U3166 O3168 2.458 . S
U3166 C3169 2.984 . S
U3166 C3170 2.847 . S
U3166 C3183 2.882 . S
U3166 O3184 2.441 . S
U3166 O3185 2.420 . S
U3166 O3186 2.455 . S
U3166 O3187 2.449 . S
O3167 U3166 2.454 . S
O3167 C3169 1.353 . S
O3168 U3166 2.458 . S
O3168 C3169 1.286 . S
C3169 U3166 2.984 . S
C3169 O3167 1.353 . S
C3169 O3168 1.286 . S
C3169 C3171 1.363 . S
C3170 C3160 1.465 . S
C3170 U3166 2.847 . S
C3170 O3184 1.249 . S
C3170 O3185 1.202 . S
C3171 C3169 1.363 . S
C3171 C3173 1.408 . S
C3171 C3176 1.342 . S
C3172 C3173 1.310 . S
C3172 C3175 1.461 . S
C3172 H3192 0.932 . S
C3173 C3171 1.408 . S
C3173 C3172 1.310 . S
C3173 H3193 0.930 . S
C3174 C3175 1.474 . S
C3174 C3176 1.285 . S
C3174 H3194 0.929 . S
C3175 C3172 1.461 . S
C3175 C3174 1.474 . S
C3176 C3171 1.342 . S
C3176 C3174 1.285 . S
C3176 H3195 0.930 . S
C3177 C3180 1.424 . S
C3177 C3182 1.245 . S
C3177 C3183 1.428 . S
C3178 C3181 1.260 . S
C3178 C3182 1.477 . S
C3178 H3196 0.932 . S
C3179 C3180 1.384 . S
C3179 C3181 1.479 . S
C3179 H3197 0.929 . S
C3180 C3177 1.424 . S
C3180 C3179 1.384 . S
C3180 H3198 0.928 . S
C3181 C3178 1.260 . S
C3181 C3179 1.479 . S
C3182 C3177 1.245 . S
C3182 C3178 1.477 . S
C3182 H3199 0.932 . S
C3183 U3166 2.882 . S
C3183 C3177 1.428 . S
C3183 O3186 1.301 . S
C3183 O3187 1.282 . S
O3184 U3166 2.441 . S
O3184 C3170 1.249 . S
O3185 U3166 2.420 . S
O3185 C3170 1.202 . S
O3186 U3166 2.455 . S
O3186 C3183 1.301 . S
O3187 U3166 2.449 . S
O3187 C3183 1.282 . S
H3188 C3161 0.931 . S
H3189 C3163 0.929 . S
H3190 C3164 0.930 . S
H3191 C3165 0.931 . S
H3192 C3172 0.932 . S
H3193 C3173 0.930 . S
H3194 C3174 0.929 . S
H3195 C3176 0.930 . S
H3196 C3178 0.932 . S
H3197 C3179 0.929 . S
H3198 C3180 0.928 . S
H3199 C3182 0.932 . S
C3200 C3201 1.264 . S
C3200 C3205 1.479 . S
C3200 C3210 1.465 . S
C3201 C3200 1.264 . S
C3201 C3203 1.339 . S
C3201 H3228 0.931 . S
C3202 C3203 1.395 . S
C3202 C3204 1.320 . S
C3203 C3201 1.339 . S
C3203 C3202 1.395 . S
C3203 H3229 0.929 . S
C3204 C3202 1.320 . S
C3204 C3205 1.405 . S
C3204 H3230 0.930 . S
C3205 C3200 1.479 . S
C3205 C3204 1.405 . S
C3205 H3231 0.931 . S
U3206 O3207 2.454 . S
U3206 O3208 2.458 . S
U3206 C3209 2.984 . S
U3206 C3210 2.847 . S
U3206 C3223 2.882 . S
U3206 O3224 2.441 . S
U3206 O3225 2.420 . S
U3206 O3226 2.455 . S
U3206 O3227 2.449 . S
O3207 U3206 2.454 . S
O3207 C3209 1.353 . S
O3208 U3206 2.458 . S
O3208 C3209 1.286 . S
C3209 U3206 2.984 . S
C3209 O3207 1.353 . S
C3209 O3208 1.286 . S
C3209 C3211 1.363 . S
C3210 C3200 1.465 . S
C3210 U3206 2.847 . S
C3210 O3224 1.249 . S
C3210 O3225 1.202 . S
C3211 C3209 1.363 . S
C3211 C3213 1.408 . S
C3211 C3216 1.342 . S
C3212 C3213 1.310 . S
C3212 C3215 1.461 . S
C3212 H3232 0.932 . S
C3213 C3211 1.408 . S
C3213 C3212 1.310 . S
C3213 H3233 0.930 . S
C3214 C3215 1.474 . S
C3214 C3216 1.285 . S
C3214 H3234 0.929 . S
C3215 C3212 1.461 . S
C3215 C3214 1.474 . S
C3216 C3211 1.342 . S
C3216 C3214 1.285 . S
C3216 H3235 0.930 . S
C3217 C3220 1.424 . S
C3217 C3222 1.245 . S
C3217 C3223 1.428 . S
C3218 C3221 1.260 . S
C3218 C3222 1.477 . S
C3218 H3236 0.932 . S
C3219 C3220 1.384 . S
C3219 C3221 1.479 . S
C3219 H3237 0.929 . S
C3220 C3217 1.424 . S
C3220 C3219 1.384 . S
C3220 H3238 0.928 . S
C3221 C3218 1.260 . S
C3221 C3219 1.479 . S
C3222 C3217 1.245 . S
C3222 C3218 1.477 . S
C3222 H3239 0.932 . S
C3223 U3206 2.882 . S
C3223 C3217 1.428 . S
C3223 O3226 1.301 . S
C3223 O3227 1.282 . S
O3224 U3206 2.441 . S
O3224 C3210 1.249 . S
O3225 U3206 2.420 . S
O3225 C3210 1.202 . S
O3226 U3206 2.455 . S
O3226 C3223 1.301 . S
O3227 U3206 2.449 . S
O3227 C3223 1.282 . S
H3228 C3201 0.931 . S
H3229 C3203 0.929 . S
H3230 C3204 0.930 . S
H3231 C3205 0.931 . S
H3232 C3212 0.932 . S
H3233 C3213 0.930 . S
H3234 C3214 0.929 . S
H3235 C3216 0.930 . S
H3236 C3218 0.932 . S
H3237 C3219 0.929 . S
H3238 C3220 0.928 . S
H3239 C3222 0.932 . S
C3240 C3241 1.264 . S
C3240 C3245 1.479 . S
C3240 C3250 1.465 . S
C3241 C3240 1.264 . S
C3241 C3243 1.339 . S
C3241 H3268 0.931 . S
C3242 C3243 1.395 . S
C3242 C3244 1.320 . S
C3243 C3241 1.339 . S
C3243 C3242 1.395 . S
C3243 H3269 0.929 . S
C3244 C3242 1.320 . S
C3244 C3245 1.405 . S
C3244 H3270 0.930 . S
C3245 C3240 1.479 . S
C3245 C3244 1.405 . S
C3245 H3271 0.931 . S
U3246 O3247 2.454 . S
U3246 O3248 2.458 . S
U3246 C3249 2.984 . S
U3246 C3250 2.847 . S
U3246 C3263 2.882 . S
U3246 O3264 2.441 . S
U3246 O3265 2.420 . S
U3246 O3266 2.455 . S
U3246 O3267 2.449 . S
O3247 U3246 2.454 . S
O3247 C3249 1.353 . S
O3248 U3246 2.458 . S
O3248 C3249 1.286 . S
C3249 U3246 2.984 . S
C3249 O3247 1.353 . S
C3249 O3248 1.286 . S
C3249 C3251 1.363 . S
C3250 C3240 1.465 . S
C3250 U3246 2.847 . S
C3250 O3264 1.249 . S
C3250 O3265 1.202 . S
C3251 C3249 1.363 . S
C3251 C3253 1.408 . S
C3251 C3256 1.342 . S
C3252 C3253 1.310 . S
C3252 C3255 1.461 . S
C3252 H3272 0.932 . S
C3253 C3251 1.408 . S
C3253 C3252 1.310 . S
C3253 H3273 0.930 . S
C3254 C3255 1.474 . S
C3254 C3256 1.285 . S
C3254 H3274 0.929 . S
C3255 C3252 1.461 . S
C3255 C3254 1.474 . S
C3256 C3251 1.342 . S
C3256 C3254 1.285 . S
C3256 H3275 0.930 . S
C3257 C3260 1.424 . S
C3257 C3262 1.245 . S
C3257 C3263 1.428 . S
C3258 C3261 1.260 . S
C3258 C3262 1.477 . S
C3258 H3276 0.932 . S
C3259 C3260 1.384 . S
C3259 C3261 1.479 . S
C3259 H3277 0.929 . S
C3260 C3257 1.424 . S
C3260 C3259 1.384 . S
C3260 H3278 0.928 . S
C3261 C3258 1.260 . S
C3261 C3259 1.479 . S
C3262 C3257 1.245 . S
C3262 C3258 1.477 . S
C3262 H3279 0.932 . S
C3263 U3246 2.882 . S
C3263 C3257 1.428 . S
C3263 O3266 1.301 . S
C3263 O3267 1.282 . S
O3264 U3246 2.441 . S
O3264 C3250 1.249 . S
O3265 U3246 2.420 . S
O3265 C3250 1.202 . S
O3266 U3246 2.455 . S
O3266 C3263 1.301 . S
O3267 U3246 2.449 . S
O3267 C3263 1.282 . S
H3268 C3241 0.931 . S
H3269 C3243 0.929 . S
H3270 C3244 0.930 . S
H3271 C3245 0.931 . S
H3272 C3252 0.932 . S
H3273 C3253 0.930 . S
H3274 C3254 0.929 . S
H3275 C3256 0.930 . S
H3276 C3258 0.932 . S
H3277 C3259 0.929 . S
H3278 C3260 0.928 . S
H3279 C3262 0.932 . S
C3280 C3281 1.264 . S
C3280 C3285 1.479 . S
C3280 C3290 1.465 . S
C3281 C3280 1.264 . S
C3281 C3283 1.339 . S
C3281 H3308 0.931 . S
C3282 C3283 1.395 . S
C3282 C3284 1.320 . S
C3283 C3281 1.339 . S
C3283 C3282 1.395 . S
C3283 H3309 0.929 . S
C3284 C3282 1.320 . S
C3284 C3285 1.405 . S
C3284 H3310 0.930 . S
C3285 C3280 1.479 . S
C3285 C3284 1.405 . S
C3285 H3311 0.931 . S
U3286 O3287 2.454 . S
U3286 O3288 2.458 . S
U3286 C3289 2.984 . S
U3286 C3290 2.847 . S
U3286 C3303 2.882 . S
U3286 O3304 2.441 . S
U3286 O3305 2.420 . S
U3286 O3306 2.455 . S
U3286 O3307 2.449 . S
O3287 U3286 2.454 . S
O3287 C3289 1.353 . S
O3288 U3286 2.458 . S
O3288 C3289 1.286 . S
C3289 U3286 2.984 . S
C3289 O3287 1.353 . S
C3289 O3288 1.286 . S
C3289 C3291 1.363 . S
C3290 C3280 1.465 . S
C3290 U3286 2.847 . S
C3290 O3304 1.249 . S
C3290 O3305 1.202 . S
C3291 C3289 1.363 . S
C3291 C3293 1.408 . S
C3291 C3296 1.342 . S
C3292 C3293 1.310 . S
C3292 C3295 1.461 . S
C3292 H3312 0.932 . S
C3293 C3291 1.408 . S
C3293 C3292 1.310 . S
C3293 H3313 0.930 . S
C3294 C3295 1.474 . S
C3294 C3296 1.285 . S
C3294 H3314 0.929 . S
C3295 C3292 1.461 . S
C3295 C3294 1.474 . S
C3296 C3291 1.342 . S
C3296 C3294 1.285 . S
C3296 H3315 0.930 . S
C3297 C3300 1.424 . S
C3297 C3302 1.245 . S
C3297 C3303 1.428 . S
C3298 C3301 1.260 . S
C3298 C3302 1.477 . S
C3298 H3316 0.932 . S
C3299 C3300 1.384 . S
C3299 C3301 1.479 . S
C3299 H3317 0.929 . S
C3300 C3297 1.424 . S
C3300 C3299 1.384 . S
C3300 H3318 0.928 . S
C3301 C3298 1.260 . S
C3301 C3299 1.479 . S
C3302 C3297 1.245 . S
C3302 C3298 1.477 . S
C3302 H3319 0.932 . S
C3303 U3286 2.882 . S
C3303 C3297 1.428 . S
C3303 O3306 1.301 . S
C3303 O3307 1.282 . S
O3304 U3286 2.441 . S
O3304 C3290 1.249 . S
O3305 U3286 2.420 . S
O3305 C3290 1.202 . S
O3306 U3286 2.455 . S
O3306 C3303 1.301 . S
O3307 U3286 2.449 . S
O3307 C3303 1.282 . S
H3308 C3281 0.931 . S
H3309 C3283 0.929 . S
H3310 C3284 0.930 . S
H3311 C3285 0.931 . S
H3312 C3292 0.932 . S
H3313 C3293 0.930 . S
H3314 C3294 0.929 . S
H3315 C3296 0.930 . S
H3316 C3298 0.932 . S
H3317 C3299 0.929 . S
H3318 C3300 0.928 . S
H3319 C3302 0.932 . S
C3320 C3321 1.264 . S
C3320 C3325 1.479 . S
C3320 C3330 1.465 . S
C3321 C3320 1.264 . S
C3321 C3323 1.339 . S
C3321 H3348 0.931 . S
C3322 C3323 1.395 . S
C3322 C3324 1.320 . S
C3323 C3321 1.339 . S
C3323 C3322 1.395 . S
C3323 H3349 0.929 . S
C3324 C3322 1.320 . S
C3324 C3325 1.405 . S
C3324 H3350 0.930 . S
C3325 C3320 1.479 . S
C3325 C3324 1.405 . S
C3325 H3351 0.931 . S
U3326 O3327 2.454 . S
U3326 O3328 2.458 . S
U3326 C3329 2.984 . S
U3326 C3330 2.847 . S
U3326 C3343 2.882 . S
U3326 O3344 2.441 . S
U3326 O3345 2.420 . S
U3326 O3346 2.455 . S
U3326 O3347 2.449 . S
O3327 U3326 2.454 . S
O3327 C3329 1.353 . S
O3328 U3326 2.458 . S
O3328 C3329 1.286 . S
C3329 U3326 2.984 . S
C3329 O3327 1.353 . S
C3329 O3328 1.286 . S
C3329 C3331 1.363 . S
C3330 C3320 1.465 . S
C3330 U3326 2.847 . S
C3330 O3344 1.249 . S
C3330 O3345 1.202 . S
C3331 C3329 1.363 . S
C3331 C3333 1.408 . S
C3331 C3336 1.342 . S
C3332 C3333 1.310 . S
C3332 C3335 1.461 . S
C3332 H3352 0.932 . S
C3333 C3331 1.408 . S
C3333 C3332 1.310 . S
C3333 H3353 0.930 . S
C3334 C3335 1.474 . S
C3334 C3336 1.285 . S
C3334 H3354 0.929 . S
C3335 C3332 1.461 . S
C3335 C3334 1.474 . S
C3336 C3331 1.342 . S
C3336 C3334 1.285 . S
C3336 H3355 0.930 . S
C3337 C3340 1.424 . S
C3337 C3342 1.245 . S
C3337 C3343 1.428 . S
C3338 C3341 1.260 . S
C3338 C3342 1.477 . S
C3338 H3356 0.932 . S
C3339 C3340 1.384 . S
C3339 C3341 1.479 . S
C3339 H3357 0.929 . S
C3340 C3337 1.424 . S
C3340 C3339 1.384 . S
C3340 H3358 0.928 . S
C3341 C3338 1.260 . S
C3341 C3339 1.479 . S
C3342 C3337 1.245 . S
C3342 C3338 1.477 . S
C3342 H3359 0.932 . S
C3343 U3326 2.882 . S
C3343 C3337 1.428 . S
C3343 O3346 1.301 . S
C3343 O3347 1.282 . S
O3344 U3326 2.441 . S
O3344 C3330 1.249 . S
O3345 U3326 2.420 . S
O3345 C3330 1.202 . S
O3346 U3326 2.455 . S
O3346 C3343 1.301 . S
O3347 U3326 2.449 . S
O3347 C3343 1.282 . S
H3348 C3321 0.931 . S
H3349 C3323 0.929 . S
H3350 C3324 0.930 . S
H3351 C3325 0.931 . S
H3352 C3332 0.932 . S
H3353 C3333 0.930 . S
H3354 C3334 0.929 . S
H3355 C3336 0.930 . S
H3356 C3338 0.932 . S
H3357 C3339 0.929 . S
H3358 C3340 0.928 . S
H3359 C3342 0.932 . S
C3360 C3361 1.264 . S
C3360 C3365 1.479 . S
C3360 C3370 1.465 . S
C3361 C3360 1.264 . S
C3361 C3363 1.339 . S
C3361 H3388 0.931 . S
C3362 C3363 1.395 . S
C3362 C3364 1.320 . S
C3363 C3361 1.339 . S
C3363 C3362 1.395 . S
C3363 H3389 0.929 . S
C3364 C3362 1.320 . S
C3364 C3365 1.405 . S
C3364 H3390 0.930 . S
C3365 C3360 1.479 . S
C3365 C3364 1.405 . S
C3365 H3391 0.931 . S
U3366 O3367 2.454 . S
U3366 O3368 2.458 . S
U3366 C3369 2.984 . S
U3366 C3370 2.847 . S
U3366 C3383 2.882 . S
U3366 O3384 2.441 . S
U3366 O3385 2.420 . S
U3366 O3386 2.455 . S
U3366 O3387 2.449 . S
O3367 U3366 2.454 . S
O3367 C3369 1.353 . S
O3368 U3366 2.458 . S
O3368 C3369 1.286 . S
C3369 U3366 2.984 . S
C3369 O3367 1.353 . S
C3369 O3368 1.286 . S
C3369 C3371 1.363 . S
C3370 C3360 1.465 . S
C3370 U3366 2.847 . S
C3370 O3384 1.249 . S
C3370 O3385 1.202 . S
C3371 C3369 1.363 . S
C3371 C3373 1.408 . S
C3371 C3376 1.342 . S
C3372 C3373 1.310 . S
C3372 C3375 1.461 . S
C3372 H3392 0.932 . S
C3373 C3371 1.408 . S
C3373 C3372 1.310 . S
C3373 H3393 0.930 . S
C3374 C3375 1.474 . S
C3374 C3376 1.285 . S
C3374 H3394 0.929 . S
C3375 C3372 1.461 . S
C3375 C3374 1.474 . S
C3376 C3371 1.342 . S
C3376 C3374 1.285 . S
C3376 H3395 0.930 . S
C3377 C3380 1.424 . S
C3377 C3382 1.245 . S
C3377 C3383 1.428 . S
C3378 C3381 1.260 . S
C3378 C3382 1.477 . S
C3378 H3396 0.932 . S
C3379 C3380 1.384 . S
C3379 C3381 1.479 . S
C3379 H3397 0.929 . S
C3380 C3377 1.424 . S
C3380 C3379 1.384 . S
C3380 H3398 0.928 . S
C3381 C3378 1.260 . S
C3381 C3379 1.479 . S
C3382 C3377 1.245 . S
C3382 C3378 1.477 . S
C3382 H3399 0.932 . S
C3383 U3366 2.882 . S
C3383 C3377 1.428 . S
C3383 O3386 1.301 . S
C3383 O3387 1.282 . S
O3384 U3366 2.441 . S
O3384 C3370 1.249 . S
O3385 U3366 2.420 . S
O3385 C3370 1.202 . S
O3386 U3366 2.455 . S
O3386 C3383 1.301 . S
O3387 U3366 2.449 . S
O3387 C3383 1.282 . S
H3388 C3361 0.931 . S
H3389 C3363 0.929 . S
H3390 C3364 0.930 . S
H3391 C3365 0.931 . S
H3392 C3372 0.932 . S
H3393 C3373 0.930 . S
H3394 C3374 0.929 . S
H3395 C3376 0.930 . S
H3396 C3378 0.932 . S
H3397 C3379 0.929 . S
H3398 C3380 0.928 . S
H3399 C3382 0.932 . S
C3400 C3401 1.264 . S
C3400 C3405 1.479 . S
C3400 C3410 1.465 . S
C3401 C3400 1.264 . S
C3401 C3403 1.339 . S
C3401 H3428 0.931 . S
C3402 C3403 1.395 . S
C3402 C3404 1.320 . S
C3403 C3401 1.339 . S
C3403 C3402 1.395 . S
C3403 H3429 0.929 . S
C3404 C3402 1.320 . S
C3404 C3405 1.405 . S
C3404 H3430 0.930 . S
C3405 C3400 1.479 . S
C3405 C3404 1.405 . S
C3405 H3431 0.931 . S
U3406 O3407 2.454 . S
U3406 O3408 2.458 . S
U3406 C3409 2.984 . S
U3406 C3410 2.847 . S
U3406 C3423 2.882 . S
U3406 O3424 2.441 . S
U3406 O3425 2.420 . S
U3406 O3426 2.455 . S
U3406 O3427 2.449 . S
O3407 U3406 2.454 . S
O3407 C3409 1.353 . S
O3408 U3406 2.458 . S
O3408 C3409 1.286 . S
C3409 U3406 2.984 . S
C3409 O3407 1.353 . S
C3409 O3408 1.286 . S
C3409 C3411 1.363 . S
C3410 C3400 1.465 . S
C3410 U3406 2.847 . S
C3410 O3424 1.249 . S
C3410 O3425 1.202 . S
C3411 C3409 1.363 . S
C3411 C3413 1.408 . S
C3411 C3416 1.342 . S
C3412 C3413 1.310 . S
C3412 C3415 1.461 . S
C3412 H3432 0.932 . S
C3413 C3411 1.408 . S
C3413 C3412 1.310 . S
C3413 H3433 0.930 . S
C3414 C3415 1.474 . S
C3414 C3416 1.285 . S
C3414 H3434 0.929 . S
C3415 C3412 1.461 . S
C3415 C3414 1.474 . S
C3416 C3411 1.342 . S
C3416 C3414 1.285 . S
C3416 H3435 0.930 . S
C3417 C3420 1.424 . S
C3417 C3422 1.245 . S
C3417 C3423 1.428 . S
C3418 C3421 1.260 . S
C3418 C3422 1.477 . S
C3418 H3436 0.932 . S
C3419 C3420 1.384 . S
C3419 C3421 1.479 . S
C3419 H3437 0.929 . S
C3420 C3417 1.424 . S
C3420 C3419 1.384 . S
C3420 H3438 0.928 . S
C3421 C3418 1.260 . S
C3421 C3419 1.479 . S
C3422 C3417 1.245 . S
C3422 C3418 1.477 . S
C3422 H3439 0.932 . S
C3423 U3406 2.882 . S
C3423 C3417 1.428 . S
C3423 O3426 1.301 . S
C3423 O3427 1.282 . S
O3424 U3406 2.441 . S
O3424 C3410 1.249 . S
O3425 U3406 2.420 . S
O3425 C3410 1.202 . S
O3426 U3406 2.455 . S
O3426 C3423 1.301 . S
O3427 U3406 2.449 . S
O3427 C3423 1.282 . S
H3428 C3401 0.931 . S
H3429 C3403 0.929 . S
H3430 C3404 0.930 . S
H3431 C3405 0.931 . S
H3432 C3412 0.932 . S
H3433 C3413 0.930 . S
H3434 C3414 0.929 . S
H3435 C3416 0.930 . S
H3436 C3418 0.932 . S
H3437 C3419 0.929 . S
H3438 C3420 0.928 . S
H3439 C3422 0.932 . S
C3440 C3441 1.264 . S
C3440 C3445 1.479 . S
C3440 C3450 1.465 . S
C3441 C3440 1.264 . S
C3441 C3443 1.339 . S
C3441 H3468 0.931 . S
C3442 C3443 1.395 . S
C3442 C3444 1.320 . S
C3443 C3441 1.339 . S
C3443 C3442 1.395 . S
C3443 H3469 0.929 . S
C3444 C3442 1.320 . S
C3444 C3445 1.405 . S
C3444 H3470 0.930 . S
C3445 C3440 1.479 . S
C3445 C3444 1.405 . S
C3445 H3471 0.931 . S
U3446 O3447 2.454 . S
U3446 O3448 2.458 . S
U3446 C3449 2.984 . S
U3446 C3450 2.847 . S
U3446 C3463 2.882 . S
U3446 O3464 2.441 . S
U3446 O3465 2.420 . S
U3446 O3466 2.455 . S
U3446 O3467 2.449 . S
O3447 U3446 2.454 . S
O3447 C3449 1.353 . S
O3448 U3446 2.458 . S
O3448 C3449 1.286 . S
C3449 U3446 2.984 . S
C3449 O3447 1.353 . S
C3449 O3448 1.286 . S
C3449 C3451 1.363 . S
C3450 C3440 1.465 . S
C3450 U3446 2.847 . S
C3450 O3464 1.249 . S
C3450 O3465 1.202 . S
C3451 C3449 1.363 . S
C3451 C3453 1.408 . S
C3451 C3456 1.342 . S
C3452 C3453 1.310 . S
C3452 C3455 1.461 . S
C3452 H3472 0.932 . S
C3453 C3451 1.408 . S
C3453 C3452 1.310 . S
C3453 H3473 0.930 . S
C3454 C3455 1.474 . S
C3454 C3456 1.285 . S
C3454 H3474 0.929 . S
C3455 C3452 1.461 . S
C3455 C3454 1.474 . S
C3456 C3451 1.342 . S
C3456 C3454 1.285 . S
C3456 H3475 0.930 . S
C3457 C3460 1.424 . S
C3457 C3462 1.245 . S
C3457 C3463 1.428 . S
C3458 C3461 1.260 . S
C3458 C3462 1.477 . S
C3458 H3476 0.932 . S
C3459 C3460 1.384 . S
C3459 C3461 1.479 . S
C3459 H3477 0.929 . S
C3460 C3457 1.424 . S
C3460 C3459 1.384 . S
C3460 H3478 0.928 . S
C3461 C3458 1.260 . S
C3461 C3459 1.479 . S
C3462 C3457 1.245 . S
C3462 C3458 1.477 . S
C3462 H3479 0.932 . S
C3463 U3446 2.882 . S
C3463 C3457 1.428 . S
C3463 O3466 1.301 . S
C3463 O3467 1.282 . S
O3464 U3446 2.441 . S
O3464 C3450 1.249 . S
O3465 U3446 2.420 . S
O3465 C3450 1.202 . S
O3466 U3446 2.455 . S
O3466 C3463 1.301 . S
O3467 U3446 2.449 . S
O3467 C3463 1.282 . S
H3468 C3441 0.931 . S
H3469 C3443 0.929 . S
H3470 C3444 0.930 . S
H3471 C3445 0.931 . S
H3472 C3452 0.932 . S
H3473 C3453 0.930 . S
H3474 C3454 0.929 . S
H3475 C3456 0.930 . S
H3476 C3458 0.932 . S
H3477 C3459 0.929 . S
H3478 C3460 0.928 . S
H3479 C3462 0.932 . S
C3480 C3481 1.264 . S
C3480 C3485 1.479 . S
C3480 C3490 1.465 . S
C3481 C3480 1.264 . S
C3481 C3483 1.339 . S
C3481 H3508 0.931 . S
C3482 C3483 1.395 . S
C3482 C3484 1.320 . S
C3483 C3481 1.339 . S
C3483 C3482 1.395 . S
C3483 H3509 0.929 . S
C3484 C3482 1.320 . S
C3484 C3485 1.405 . S
C3484 H3510 0.930 . S
C3485 C3480 1.479 . S
C3485 C3484 1.405 . S
C3485 H3511 0.931 . S
U3486 O3487 2.454 . S
U3486 O3488 2.458 . S
U3486 C3489 2.984 . S
U3486 C3490 2.847 . S
U3486 C3503 2.882 . S
U3486 O3504 2.441 . S
U3486 O3505 2.420 . S
U3486 O3506 2.455 . S
U3486 O3507 2.449 . S
O3487 U3486 2.454 . S
O3487 C3489 1.353 . S
O3488 U3486 2.458 . S
O3488 C3489 1.286 . S
C3489 U3486 2.984 . S
C3489 O3487 1.353 . S
C3489 O3488 1.286 . S
C3489 C3491 1.363 . S
C3490 C3480 1.465 . S
C3490 U3486 2.847 . S
C3490 O3504 1.249 . S
C3490 O3505 1.202 . S
C3491 C3489 1.363 . S
C3491 C3493 1.408 . S
C3491 C3496 1.342 . S
C3492 C3493 1.310 . S
C3492 C3495 1.461 . S
C3492 H3512 0.932 . S
C3493 C3491 1.408 . S
C3493 C3492 1.310 . S
C3493 H3513 0.930 . S
C3494 C3495 1.474 . S
C3494 C3496 1.285 . S
C3494 H3514 0.929 . S
C3495 C3492 1.461 . S
C3495 C3494 1.474 . S
C3496 C3491 1.342 . S
C3496 C3494 1.285 . S
C3496 H3515 0.930 . S
C3497 C3500 1.424 . S
C3497 C3502 1.245 . S
C3497 C3503 1.428 . S
C3498 C3501 1.260 . S
C3498 C3502 1.477 . S
C3498 H3516 0.932 . S
C3499 C3500 1.384 . S
C3499 C3501 1.479 . S
C3499 H3517 0.929 . S
C3500 C3497 1.424 . S
C3500 C3499 1.384 . S
C3500 H3518 0.928 . S
C3501 C3498 1.260 . S
C3501 C3499 1.479 . S
C3502 C3497 1.245 . S
C3502 C3498 1.477 . S
C3502 H3519 0.932 . S
C3503 U3486 2.882 . S
C3503 C3497 1.428 . S
C3503 O3506 1.301 . S
C3503 O3507 1.282 . S
O3504 U3486 2.441 . S
O3504 C3490 1.249 . S
O3505 U3486 2.420 . S
O3505 C3490 1.202 . S
O3506 U3486 2.455 . S
O3506 C3503 1.301 . S
O3507 U3486 2.449 . S
O3507 C3503 1.282 . S
H3508 C3481 0.931 . S
H3509 C3483 0.929 . S
H3510 C3484 0.930 . S
H3511 C3485 0.931 . S
H3512 C3492 0.932 . S
H3513 C3493 0.930 . S
H3514 C3494 0.929 . S
H3515 C3496 0.930 . S
H3516 C3498 0.932 . S
H3517 C3499 0.929 . S
H3518 C3500 0.928 . S
H3519 C3502 0.932 . S
C3520 C3521 1.264 . S
C3520 C3525 1.479 . S
C3520 C3530 1.465 . S
C3521 C3520 1.264 . S
C3521 C3523 1.339 . S
C3521 H3548 0.931 . S
C3522 C3523 1.395 . S
C3522 C3524 1.320 . S
C3523 C3521 1.339 . S
C3523 C3522 1.395 . S
C3523 H3549 0.929 . S
C3524 C3522 1.320 . S
C3524 C3525 1.405 . S
C3524 H3550 0.930 . S
C3525 C3520 1.479 . S
C3525 C3524 1.405 . S
C3525 H3551 0.931 . S
U3526 O3527 2.454 . S
U3526 O3528 2.458 . S
U3526 C3529 2.984 . S
U3526 C3530 2.847 . S
U3526 C3543 2.882 . S
U3526 O3544 2.441 . S
U3526 O3545 2.420 . S
U3526 O3546 2.455 . S
U3526 O3547 2.449 . S
O3527 U3526 2.454 . S
O3527 C3529 1.353 . S
O3528 U3526 2.458 . S
O3528 C3529 1.286 . S
C3529 U3526 2.984 . S
C3529 O3527 1.353 . S
C3529 O3528 1.286 . S
C3529 C3531 1.363 . S
C3530 C3520 1.465 . S
C3530 U3526 2.847 . S
C3530 O3544 1.249 . S
C3530 O3545 1.202 . S
C3531 C3529 1.363 . S
C3531 C3533 1.408 . S
C3531 C3536 1.342 . S
C3532 C3533 1.310 . S
C3532 C3535 1.461 . S
C3532 H3552 0.932 . S
C3533 C3531 1.408 . S
C3533 C3532 1.310 . S
C3533 H3553 0.930 . S
C3534 C3535 1.474 . S
C3534 C3536 1.285 . S
C3534 H3554 0.929 . S
C3535 C3532 1.461 . S
C3535 C3534 1.474 . S
C3536 C3531 1.342 . S
C3536 C3534 1.285 . S
C3536 H3555 0.930 . S
C3537 C3540 1.424 . S
C3537 C3542 1.245 . S
C3537 C3543 1.428 . S
C3538 C3541 1.260 . S
C3538 C3542 1.477 . S
C3538 H3556 0.932 . S
C3539 C3540 1.384 . S
C3539 C3541 1.479 . S
C3539 H3557 0.929 . S
C3540 C3537 1.424 . S
C3540 C3539 1.384 . S
C3540 H3558 0.928 . S
C3541 C3538 1.260 . S
C3541 C3539 1.479 . S
C3542 C3537 1.245 . S
C3542 C3538 1.477 . S
C3542 H3559 0.932 . S
C3543 U3526 2.882 . S
C3543 C3537 1.428 . S
C3543 O3546 1.301 . S
C3543 O3547 1.282 . S
O3544 U3526 2.441 . S
O3544 C3530 1.249 . S
O3545 U3526 2.420 . S
O3545 C3530 1.202 . S
O3546 U3526 2.455 . S
O3546 C3543 1.301 . S
O3547 U3526 2.449 . S
O3547 C3543 1.282 . S
H3548 C3521 0.931 . S
H3549 C3523 0.929 . S
H3550 C3524 0.930 . S
H3551 C3525 0.931 . S
H3552 C3532 0.932 . S
H3553 C3533 0.930 . S
H3554 C3534 0.929 . S
H3555 C3536 0.930 . S
H3556 C3538 0.932 . S
H3557 C3539 0.929 . S
H3558 C3540 0.928 . S
H3559 C3542 0.932 . S
C3560 C3561 1.264 . S
C3560 C3565 1.479 . S
C3560 C3570 1.465 . S
C3561 C3560 1.264 . S
C3561 C3563 1.339 . S
C3561 H3588 0.931 . S
C3562 C3563 1.395 . S
C3562 C3564 1.320 . S
C3563 C3561 1.339 . S
C3563 C3562 1.395 . S
C3563 H3589 0.929 . S
C3564 C3562 1.320 . S
C3564 C3565 1.405 . S
C3564 H3590 0.930 . S
C3565 C3560 1.479 . S
C3565 C3564 1.405 . S
C3565 H3591 0.931 . S
U3566 O3567 2.454 . S
U3566 O3568 2.458 . S
U3566 C3569 2.984 . S
U3566 C3570 2.847 . S
U3566 C3583 2.882 . S
U3566 O3584 2.441 . S
U3566 O3585 2.420 . S
U3566 O3586 2.455 . S
U3566 O3587 2.449 . S
O3567 U3566 2.454 . S
O3567 C3569 1.353 . S
O3568 U3566 2.458 . S
O3568 C3569 1.286 . S
C3569 U3566 2.984 . S
C3569 O3567 1.353 . S
C3569 O3568 1.286 . S
C3569 C3571 1.363 . S
C3570 C3560 1.465 . S
C3570 U3566 2.847 . S
C3570 O3584 1.249 . S
C3570 O3585 1.202 . S
C3571 C3569 1.363 . S
C3571 C3573 1.408 . S
C3571 C3576 1.342 . S
C3572 C3573 1.310 . S
C3572 C3575 1.461 . S
C3572 H3592 0.932 . S
C3573 C3571 1.408 . S
C3573 C3572 1.310 . S
C3573 H3593 0.930 . S
C3574 C3575 1.474 . S
C3574 C3576 1.285 . S
C3574 H3594 0.929 . S
C3575 C3572 1.461 . S
C3575 C3574 1.474 . S
C3576 C3571 1.342 . S
C3576 C3574 1.285 . S
C3576 H3595 0.930 . S
C3577 C3580 1.424 . S
C3577 C3582 1.245 . S
C3577 C3583 1.428 . S
C3578 C3581 1.260 . S
C3578 C3582 1.477 . S
C3578 H3596 0.932 . S
C3579 C3580 1.384 . S
C3579 C3581 1.479 . S
C3579 H3597 0.929 . S
C3580 C3577 1.424 . S
C3580 C3579 1.384 . S
C3580 H3598 0.928 . S
C3581 C3578 1.260 . S
C3581 C3579 1.479 . S
C3582 C3577 1.245 . S
C3582 C3578 1.477 . S
C3582 H3599 0.932 . S
C3583 U3566 2.882 . S
C3583 C3577 1.428 . S
C3583 O3586 1.301 . S
C3583 O3587 1.282 . S
O3584 U3566 2.441 . S
O3584 C3570 1.249 . S
O3585 U3566 2.420 . S
O3585 C3570 1.202 . S
O3586 U3566 2.455 . S
O3586 C3583 1.301 . S
O3587 U3566 2.449 . S
O3587 C3583 1.282 . S
H3588 C3561 0.931 . S
H3589 C3563 0.929 . S
H3590 C3564 0.930 . S
H3591 C3565 0.931 . S
H3592 C3572 0.932 . S
H3593 C3573 0.930 . S
H3594 C3574 0.929 . S
H3595 C3576 0.930 . S
H3596 C3578 0.932 . S
H3597 C3579 0.929 . S
H3598 C3580 0.928 . S
H3599 C3582 0.932 . S
C3600 C3601 1.264 . S
C3600 C3605 1.479 . S
C3600 C3610 1.465 . S
C3601 C3600 1.264 . S
C3601 C3603 1.339 . S
C3601 H3628 0.931 . S
C3602 C3603 1.395 . S
C3602 C3604 1.320 . S
C3603 C3601 1.339 . S
C3603 C3602 1.395 . S
C3603 H3629 0.929 . S
C3604 C3602 1.320 . S
C3604 C3605 1.405 . S
C3604 H3630 0.930 . S
C3605 C3600 1.479 . S
C3605 C3604 1.405 . S
C3605 H3631 0.931 . S
U3606 O3607 2.454 . S
U3606 O3608 2.458 . S
U3606 C3609 2.984 . S
U3606 C3610 2.847 . S
U3606 C3623 2.882 . S
U3606 O3624 2.441 . S
U3606 O3625 2.420 . S
U3606 O3626 2.455 . S
U3606 O3627 2.449 . S
O3607 U3606 2.454 . S
O3607 C3609 1.353 . S
O3608 U3606 2.458 . S
O3608 C3609 1.286 . S
C3609 U3606 2.984 . S
C3609 O3607 1.353 . S
C3609 O3608 1.286 . S
C3609 C3611 1.363 . S
C3610 C3600 1.465 . S
C3610 U3606 2.847 . S
C3610 O3624 1.249 . S
C3610 O3625 1.202 . S
C3611 C3609 1.363 . S
C3611 C3613 1.408 . S
C3611 C3616 1.342 . S
C3612 C3613 1.310 . S
C3612 C3615 1.461 . S
C3612 H3632 0.932 . S
C3613 C3611 1.408 . S
C3613 C3612 1.310 . S
C3613 H3633 0.930 . S
C3614 C3615 1.474 . S
C3614 C3616 1.285 . S
C3614 H3634 0.929 . S
C3615 C3612 1.461 . S
C3615 C3614 1.474 . S
C3616 C3611 1.342 . S
C3616 C3614 1.285 . S
C3616 H3635 0.930 . S
C3617 C3620 1.424 . S
C3617 C3622 1.245 . S
C3617 C3623 1.428 . S
C3618 C3621 1.260 . S
C3618 C3622 1.477 . S
C3618 H3636 0.932 . S
C3619 C3620 1.384 . S
C3619 C3621 1.479 . S
C3619 H3637 0.929 . S
C3620 C3617 1.424 . S
C3620 C3619 1.384 . S
C3620 H3638 0.928 . S
C3621 C3618 1.260 . S
C3621 C3619 1.479 . S
C3622 C3617 1.245 . S
C3622 C3618 1.477 . S
C3622 H3639 0.932 . S
C3623 U3606 2.882 . S
C3623 C3617 1.428 . S
C3623 O3626 1.301 . S
C3623 O3627 1.282 . S
O3624 U3606 2.441 . S
O3624 C3610 1.249 . S
O3625 U3606 2.420 . S
O3625 C3610 1.202 . S
O3626 U3606 2.455 . S
O3626 C3623 1.301 . S
O3627 U3606 2.449 . S
O3627 C3623 1.282 . S
H3628 C3601 0.931 . S
H3629 C3603 0.929 . S
H3630 C3604 0.930 . S
H3631 C3605 0.931 . S
H3632 C3612 0.932 . S
H3633 C3613 0.930 . S
H3634 C3614 0.929 . S
H3635 C3616 0.930 . S
H3636 C3618 0.932 . S
H3637 C3619 0.929 . S
H3638 C3620 0.928 . S
H3639 C3622 0.932 . S
C3640 C3641 1.264 . S
C3640 C3645 1.479 . S
C3640 C3650 1.465 . S
C3641 C3640 1.264 . S
C3641 C3643 1.339 . S
C3641 H3668 0.931 . S
C3642 C3643 1.395 . S
C3642 C3644 1.320 . S
C3643 C3641 1.339 . S
C3643 C3642 1.395 . S
C3643 H3669 0.929 . S
C3644 C3642 1.320 . S
C3644 C3645 1.405 . S
C3644 H3670 0.930 . S
C3645 C3640 1.479 . S
C3645 C3644 1.405 . S
C3645 H3671 0.931 . S
U3646 O3647 2.454 . S
U3646 O3648 2.458 . S
U3646 C3649 2.984 . S
U3646 C3650 2.847 . S
U3646 C3663 2.882 . S
U3646 O3664 2.441 . S
U3646 O3665 2.420 . S
U3646 O3666 2.455 . S
U3646 O3667 2.449 . S
O3647 U3646 2.454 . S
O3647 C3649 1.353 . S
O3648 U3646 2.458 . S
O3648 C3649 1.286 . S
C3649 U3646 2.984 . S
C3649 O3647 1.353 . S
C3649 O3648 1.286 . S
C3649 C3651 1.363 . S
C3650 C3640 1.465 . S
C3650 U3646 2.847 . S
C3650 O3664 1.249 . S
C3650 O3665 1.202 . S
C3651 C3649 1.363 . S
C3651 C3653 1.408 . S
C3651 C3656 1.342 . S
C3652 C3653 1.310 . S
C3652 C3655 1.461 . S
C3652 H3672 0.932 . S
C3653 C3651 1.408 . S
C3653 C3652 1.310 . S
C3653 H3673 0.930 . S
C3654 C3655 1.474 . S
C3654 C3656 1.285 . S
C3654 H3674 0.929 . S
C3655 C3652 1.461 . S
C3655 C3654 1.474 . S
C3656 C3651 1.342 . S
C3656 C3654 1.285 . S
C3656 H3675 0.930 . S
C3657 C3660 1.424 . S
C3657 C3662 1.245 . S
C3657 C3663 1.428 . S
C3658 C3661 1.260 . S
C3658 C3662 1.477 . S
C3658 H3676 0.932 . S
C3659 C3660 1.384 . S
C3659 C3661 1.479 . S
C3659 H3677 0.929 . S
C3660 C3657 1.424 . S
C3660 C3659 1.384 . S
C3660 H3678 0.928 . S
C3661 C3658 1.260 . S
C3661 C3659 1.479 . S
C3662 C3657 1.245 . S
C3662 C3658 1.477 . S
C3662 H3679 0.932 . S
C3663 U3646 2.882 . S
C3663 C3657 1.428 . S
C3663 O3666 1.301 . S
C3663 O3667 1.282 . S
O3664 U3646 2.441 . S
O3664 C3650 1.249 . S
O3665 U3646 2.420 . S
O3665 C3650 1.202 . S
O3666 U3646 2.455 . S
O3666 C3663 1.301 . S
O3667 U3646 2.449 . S
O3667 C3663 1.282 . S
H3668 C3641 0.931 . S
H3669 C3643 0.929 . S
H3670 C3644 0.930 . S
H3671 C3645 0.931 . S
H3672 C3652 0.932 . S
H3673 C3653 0.930 . S
H3674 C3654 0.929 . S
H3675 C3656 0.930 . S
H3676 C3658 0.932 . S
H3677 C3659 0.929 . S
H3678 C3660 0.928 . S
H3679 C3662 0.932 . S
C3680 C3681 1.264 . S
C3680 C3685 1.479 . S
C3680 C3690 1.465 . S
C3681 C3680 1.264 . S
C3681 C3683 1.339 . S
C3681 H3708 0.931 . S
C3682 C3683 1.395 . S
C3682 C3684 1.320 . S
C3683 C3681 1.339 . S
C3683 C3682 1.395 . S
C3683 H3709 0.929 . S
C3684 C3682 1.320 . S
C3684 C3685 1.405 . S
C3684 H3710 0.930 . S
C3685 C3680 1.479 . S
C3685 C3684 1.405 . S
C3685 H3711 0.931 . S
U3686 O3687 2.454 . S
U3686 O3688 2.458 . S
U3686 C3689 2.984 . S
U3686 C3690 2.847 . S
U3686 C3703 2.882 . S
U3686 O3704 2.441 . S
U3686 O3705 2.420 . S
U3686 O3706 2.455 . S
U3686 O3707 2.449 . S
O3687 U3686 2.454 . S
O3687 C3689 1.353 . S
O3688 U3686 2.458 . S
O3688 C3689 1.286 . S
C3689 U3686 2.984 . S
C3689 O3687 1.353 . S
C3689 O3688 1.286 . S
C3689 C3691 1.363 . S
C3690 C3680 1.465 . S
C3690 U3686 2.847 . S
C3690 O3704 1.249 . S
C3690 O3705 1.202 . S
C3691 C3689 1.363 . S
C3691 C3693 1.408 . S
C3691 C3696 1.342 . S
C3692 C3693 1.310 . S
C3692 C3695 1.461 . S
C3692 H3712 0.932 . S
C3693 C3691 1.408 . S
C3693 C3692 1.310 . S
C3693 H3713 0.930 . S
C3694 C3695 1.474 . S
C3694 C3696 1.285 . S
C3694 H3714 0.929 . S
C3695 C3692 1.461 . S
C3695 C3694 1.474 . S
C3696 C3691 1.342 . S
C3696 C3694 1.285 . S
C3696 H3715 0.930 . S
C3697 C3700 1.424 . S
C3697 C3702 1.245 . S
C3697 C3703 1.428 . S
C3698 C3701 1.260 . S
C3698 C3702 1.477 . S
C3698 H3716 0.932 . S
C3699 C3700 1.384 . S
C3699 C3701 1.479 . S
C3699 H3717 0.929 . S
C3700 C3697 1.424 . S
C3700 C3699 1.384 . S
C3700 H3718 0.928 . S
C3701 C3698 1.260 . S
C3701 C3699 1.479 . S
C3702 C3697 1.245 . S
C3702 C3698 1.477 . S
C3702 H3719 0.932 . S
C3703 U3686 2.882 . S
C3703 C3697 1.428 . S
C3703 O3706 1.301 . S
C3703 O3707 1.282 . S
O3704 U3686 2.441 . S
O3704 C3690 1.249 . S
O3705 U3686 2.420 . S
O3705 C3690 1.202 . S
O3706 U3686 2.455 . S
O3706 C3703 1.301 . S
O3707 U3686 2.449 . S
O3707 C3703 1.282 . S
H3708 C3681 0.931 . S
H3709 C3683 0.929 . S
H3710 C3684 0.930 . S
H3711 C3685 0.931 . S
H3712 C3692 0.932 . S
H3713 C3693 0.930 . S
H3714 C3694 0.929 . S
H3715 C3696 0.930 . S
H3716 C3698 0.932 . S
H3717 C3699 0.929 . S
H3718 C3700 0.928 . S
H3719 C3702 0.932 . S
C3720 C3721 1.264 . S
C3720 C3725 1.479 . S
C3720 C3730 1.465 . S
C3721 C3720 1.264 . S
C3721 C3723 1.339 . S
C3721 H3748 0.931 . S
C3722 C3723 1.395 . S
C3722 C3724 1.320 . S
C3723 C3721 1.339 . S
C3723 C3722 1.395 . S
C3723 H3749 0.929 . S
C3724 C3722 1.320 . S
C3724 C3725 1.405 . S
C3724 H3750 0.930 . S
C3725 C3720 1.479 . S
C3725 C3724 1.405 . S
C3725 H3751 0.931 . S
U3726 O3727 2.454 . S
U3726 O3728 2.458 . S
U3726 C3729 2.984 . S
U3726 C3730 2.847 . S
U3726 C3743 2.882 . S
U3726 O3744 2.441 . S
U3726 O3745 2.420 . S
U3726 O3746 2.455 . S
U3726 O3747 2.449 . S
O3727 U3726 2.454 . S
O3727 C3729 1.353 . S
O3728 U3726 2.458 . S
O3728 C3729 1.286 . S
C3729 U3726 2.984 . S
C3729 O3727 1.353 . S
C3729 O3728 1.286 . S
C3729 C3731 1.363 . S
C3730 C3720 1.465 . S
C3730 U3726 2.847 . S
C3730 O3744 1.249 . S
C3730 O3745 1.202 . S
C3731 C3729 1.363 . S
C3731 C3733 1.408 . S
C3731 C3736 1.342 . S
C3732 C3733 1.310 . S
C3732 C3735 1.461 . S
C3732 H3752 0.932 . S
C3733 C3731 1.408 . S
C3733 C3732 1.310 . S
C3733 H3753 0.930 . S
C3734 C3735 1.474 . S
C3734 C3736 1.285 . S
C3734 H3754 0.929 . S
C3735 C3732 1.461 . S
C3735 C3734 1.474 . S
C3736 C3731 1.342 . S
C3736 C3734 1.285 . S
C3736 H3755 0.930 . S
C3737 C3740 1.424 . S
C3737 C3742 1.245 . S
C3737 C3743 1.428 . S
C3738 C3741 1.260 . S
C3738 C3742 1.477 . S
C3738 H3756 0.932 . S
C3739 C3740 1.384 . S
C3739 C3741 1.479 . S
C3739 H3757 0.929 . S
C3740 C3737 1.424 . S
C3740 C3739 1.384 . S
C3740 H3758 0.928 . S
C3741 C3738 1.260 . S
C3741 C3739 1.479 . S
C3742 C3737 1.245 . S
C3742 C3738 1.477 . S
C3742 H3759 0.932 . S
C3743 U3726 2.882 . S
C3743 C3737 1.428 . S
C3743 O3746 1.301 . S
C3743 O3747 1.282 . S
O3744 U3726 2.441 . S
O3744 C3730 1.249 . S
O3745 U3726 2.420 . S
O3745 C3730 1.202 . S
O3746 U3726 2.455 . S
O3746 C3743 1.301 . S
O3747 U3726 2.449 . S
O3747 C3743 1.282 . S
H3748 C3721 0.931 . S
H3749 C3723 0.929 . S
H3750 C3724 0.930 . S
H3751 C3725 0.931 . S
H3752 C3732 0.932 . S
H3753 C3733 0.930 . S
H3754 C3734 0.929 . S
H3755 C3736 0.930 . S
H3756 C3738 0.932 . S
H3757 C3739 0.929 . S
H3758 C3740 0.928 . S
H3759 C3742 0.932 . S
C3760 C3761 1.264 . S
C3760 C3765 1.479 . S
C3760 C3770 1.465 . S
C3761 C3760 1.264 . S
C3761 C3763 1.339 . S
C3761 H3788 0.931 . S
C3762 C3763 1.395 . S
C3762 C3764 1.320 . S
C3763 C3761 1.339 . S
C3763 C3762 1.395 . S
C3763 H3789 0.929 . S
C3764 C3762 1.320 . S
C3764 C3765 1.405 . S
C3764 H3790 0.930 . S
C3765 C3760 1.479 . S
C3765 C3764 1.405 . S
C3765 H3791 0.931 . S
U3766 O3767 2.454 . S
U3766 O3768 2.458 . S
U3766 C3769 2.984 . S
U3766 C3770 2.847 . S
U3766 C3783 2.882 . S
U3766 O3784 2.441 . S
U3766 O3785 2.420 . S
U3766 O3786 2.455 . S
U3766 O3787 2.449 . S
O3767 U3766 2.454 . S
O3767 C3769 1.353 . S
O3768 U3766 2.458 . S
O3768 C3769 1.286 . S
C3769 U3766 2.984 . S
C3769 O3767 1.353 . S
C3769 O3768 1.286 . S
C3769 C3771 1.363 . S
C3770 C3760 1.465 . S
C3770 U3766 2.847 . S
C3770 O3784 1.249 . S
C3770 O3785 1.202 . S
C3771 C3769 1.363 . S
C3771 C3773 1.408 . S
C3771 C3776 1.342 . S
C3772 C3773 1.310 . S
C3772 C3775 1.461 . S
C3772 H3792 0.932 . S
C3773 C3771 1.408 . S
C3773 C3772 1.310 . S
C3773 H3793 0.930 . S
C3774 C3775 1.474 . S
C3774 C3776 1.285 . S
C3774 H3794 0.929 . S
C3775 C3772 1.461 . S
C3775 C3774 1.474 . S
C3776 C3771 1.342 . S
C3776 C3774 1.285 . S
C3776 H3795 0.930 . S
C3777 C3780 1.424 . S
C3777 C3782 1.245 . S
C3777 C3783 1.428 . S
C3778 C3781 1.260 . S
C3778 C3782 1.477 . S
C3778 H3796 0.932 . S
C3779 C3780 1.384 . S
C3779 C3781 1.479 . S
C3779 H3797 0.929 . S
C3780 C3777 1.424 . S
C3780 C3779 1.384 . S
C3780 H3798 0.928 . S
C3781 C3778 1.260 . S
C3781 C3779 1.479 . S
C3782 C3777 1.245 . S
C3782 C3778 1.477 . S
C3782 H3799 0.932 . S
C3783 U3766 2.882 . S
C3783 C3777 1.428 . S
C3783 O3786 1.301 . S
C3783 O3787 1.282 . S
O3784 U3766 2.441 . S
O3784 C3770 1.249 . S
O3785 U3766 2.420 . S
O3785 C3770 1.202 . S
O3786 U3766 2.455 . S
O3786 C3783 1.301 . S
O3787 U3766 2.449 . S
O3787 C3783 1.282 . S
H3788 C3761 0.931 . S
H3789 C3763 0.929 . S
H3790 C3764 0.930 . S
H3791 C3765 0.931 . S
H3792 C3772 0.932 . S
H3793 C3773 0.930 . S
H3794 C3774 0.929 . S
H3795 C3776 0.930 . S
H3796 C3778 0.932 . S
H3797 C3779 0.929 . S
H3798 C3780 0.928 . S
H3799 C3782 0.932 . S
C3800 C3801 1.264 . S
C3800 C3805 1.479 . S
C3800 C3810 1.465 . S
C3801 C3800 1.264 . S
C3801 C3803 1.339 . S
C3801 H3828 0.931 . S
C3802 C3803 1.395 . S
C3802 C3804 1.320 . S
C3803 C3801 1.339 . S
C3803 C3802 1.395 . S
C3803 H3829 0.929 . S
C3804 C3802 1.320 . S
C3804 C3805 1.405 . S
C3804 H3830 0.930 . S
C3805 C3800 1.479 . S
C3805 C3804 1.405 . S
C3805 H3831 0.931 . S
U3806 O3807 2.454 . S
U3806 O3808 2.458 . S
U3806 C3809 2.984 . S
U3806 C3810 2.847 . S
U3806 C3823 2.882 . S
U3806 O3824 2.441 . S
U3806 O3825 2.420 . S
U3806 O3826 2.455 . S
U3806 O3827 2.449 . S
O3807 U3806 2.454 . S
O3807 C3809 1.353 . S
O3808 U3806 2.458 . S
O3808 C3809 1.286 . S
C3809 U3806 2.984 . S
C3809 O3807 1.353 . S
C3809 O3808 1.286 . S
C3809 C3811 1.363 . S
C3810 C3800 1.465 . S
C3810 U3806 2.847 . S
C3810 O3824 1.249 . S
C3810 O3825 1.202 . S
C3811 C3809 1.363 . S
C3811 C3813 1.408 . S
C3811 C3816 1.342 . S
C3812 C3813 1.310 . S
C3812 C3815 1.461 . S
C3812 H3832 0.932 . S
C3813 C3811 1.408 . S
C3813 C3812 1.310 . S
C3813 H3833 0.930 . S
C3814 C3815 1.474 . S
C3814 C3816 1.285 . S
C3814 H3834 0.929 . S
C3815 C3812 1.461 . S
C3815 C3814 1.474 . S
C3816 C3811 1.342 . S
C3816 C3814 1.285 . S
C3816 H3835 0.930 . S
C3817 C3820 1.424 . S
C3817 C3822 1.245 . S
C3817 C3823 1.428 . S
C3818 C3821 1.260 . S
C3818 C3822 1.477 . S
C3818 H3836 0.932 . S
C3819 C3820 1.384 . S
C3819 C3821 1.479 . S
C3819 H3837 0.929 . S
C3820 C3817 1.424 . S
C3820 C3819 1.384 . S
C3820 H3838 0.928 . S
C3821 C3818 1.260 . S
C3821 C3819 1.479 . S
C3822 C3817 1.245 . S
C3822 C3818 1.477 . S
C3822 H3839 0.932 . S
C3823 U3806 2.882 . S
C3823 C3817 1.428 . S
C3823 O3826 1.301 . S
C3823 O3827 1.282 . S
O3824 U3806 2.441 . S
O3824 C3810 1.249 . S
O3825 U3806 2.420 . S
O3825 C3810 1.202 . S
O3826 U3806 2.455 . S
O3826 C3823 1.301 . S
O3827 U3806 2.449 . S
O3827 C3823 1.282 . S
H3828 C3801 0.931 . S
H3829 C3803 0.929 . S
H3830 C3804 0.930 . S
H3831 C3805 0.931 . S
H3832 C3812 0.932 . S
H3833 C3813 0.930 . S
H3834 C3814 0.929 . S
H3835 C3816 0.930 . S
H3836 C3818 0.932 . S
H3837 C3819 0.929 . S
H3838 C3820 0.928 . S
H3839 C3822 0.932 . S
H3840 C3848 0.950 . S
H3841 C3853 0.950 . S
H3842 C3850 0.950 . S
H3843 C3852 0.950 . S
H3844 C3854 0.950 . S
H3845 C3856 0.950 . S
H3846 C3858 0.950 . S
H3847 C3859 0.950 . S
C3848 H3840 0.950 . S
C3848 C3849 1.386 . S
C3848 C3850 1.391 . S
C3849 C3848 1.386 . S
C3849 C3853 1.393 . S
C3850 H3842 0.950 . S
C3850 C3848 1.391 . S
C3850 C3851 1.400 . S
C3851 C3850 1.400 . S
C3851 C3852 1.398 . S
C3851 C3857 1.491 . S
C3852 H3843 0.950 . S
C3852 C3851 1.398 . S
C3852 C3853 1.391 . S
C3853 H3841 0.950 . S
C3853 C3849 1.393 . S
C3853 C3852 1.391 . S
C3854 H3844 0.950 . S
C3854 C3855 1.386 . S
C3854 C3856 1.391 . S
C3855 C3854 1.386 . S
C3855 C3859 1.393 . S
C3856 H3845 0.950 . S
C3856 C3854 1.391 . S
C3856 C3857 1.400 . S
C3857 C3851 1.491 . S
C3857 C3856 1.400 . S
C3857 C3858 1.398 . S
C3858 H3846 0.950 . S
C3858 C3857 1.398 . S
C3858 C3859 1.391 . S
C3859 H3847 0.950 . S
C3859 C3855 1.393 . S
C3859 C3858 1.391 . S
H3860 C3868 0.950 . S
H3861 C3873 0.950 . S
H3862 C3870 0.950 . S
H3863 C3872 0.950 . S
H3864 C3874 0.950 . S
H3865 C3876 0.950 . S
H3866 C3878 0.950 . S
H3867 C3879 0.950 . S
C3868 H3860 0.950 . S
C3868 C3869 1.386 . S
C3868 C3870 1.391 1_455 S
C3869 C3868 1.386 . S
C3869 C3873 1.393 . S
C3870 H3862 0.950 . S
C3870 C3868 1.391 1_655 S
C3870 C3871 1.400 . S
C3871 C3870 1.400 . S
C3871 C3872 1.398 . S
C3871 C3877 1.491 . S
C3872 H3863 0.950 . S
C3872 C3871 1.398 . S
C3872 C3873 1.391 1_655 S
C3873 H3861 0.950 . S
C3873 C3869 1.393 . S
C3873 C3872 1.391 1_455 S
C3874 H3864 0.950 . S
C3874 C3875 1.386 . S
C3874 C3876 1.391 . S
C3875 C3874 1.386 . S
C3875 C3879 1.393 . S
C3876 H3865 0.950 . S
C3876 C3874 1.391 . S
C3876 C3877 1.400 . S
C3877 C3871 1.491 . S
C3877 C3876 1.400 . S
C3877 C3878 1.398 . S
C3878 H3866 0.950 . S
C3878 C3877 1.398 . S
C3878 C3879 1.391 . S
C3879 H3867 0.950 . S
C3879 C3875 1.393 . S
C3879 C3878 1.391 . S
H3880 C3888 0.950 . S
H3881 C3893 0.950 . S
H3882 C3890 0.950 . S
H3883 C3892 0.950 . S
H3884 C3894 0.950 . S
H3885 C3896 0.950 . S
H3886 C3898 0.950 . S
H3887 C3899 0.950 . S
C3888 H3880 0.950 . S
C3888 C3889 1.386 . S
C3888 C3890 1.391 . S
C3889 C3888 1.386 . S
C3889 C3893 1.393 . S
C3890 H3882 0.950 . S
C3890 C3888 1.391 . S
C3890 C3891 1.400 . S
C3891 C3890 1.400 . S
C3891 C3892 1.398 . S
C3891 C3897 1.491 . S
C3892 H3883 0.950 . S
C3892 C3891 1.398 . S
C3892 C3893 1.391 . S
C3893 H3881 0.950 . S
C3893 C3889 1.393 . S
C3893 C3892 1.391 . S
C3894 H3884 0.950 . S
C3894 C3895 1.386 . S
C3894 C3896 1.391 . S
C3895 C3894 1.386 . S
C3895 C3899 1.393 . S
C3896 H3885 0.950 . S
C3896 C3894 1.391 . S
C3896 C3897 1.400 . S
C3897 C3891 1.491 . S
C3897 C3896 1.400 . S
C3897 C3898 1.398 . S
C3898 H3886 0.950 . S
C3898 C3897 1.398 . S
C3898 C3899 1.391 . S
C3899 H3887 0.950 . S
C3899 C3895 1.393 . S
C3899 C3898 1.391 . S
H3900 C3908 0.950 . S
H3901 C3913 0.950 . S
H3902 C3910 0.950 . S
H3903 C3912 0.950 . S
H3904 C3914 0.950 . S
H3905 C3916 0.950 . S
H3906 C3918 0.950 . S
H3907 C3919 0.950 . S
C3908 H3900 0.950 . S
C3908 C3909 1.386 . S
C3908 C3910 1.391 . S
C3909 C3908 1.386 . S
C3909 C3913 1.393 . S
C3910 H3902 0.950 . S
C3910 C3908 1.391 . S
C3910 C3911 1.400 . S
C3911 C3910 1.400 . S
C3911 C3912 1.398 . S
C3911 C3917 1.491 . S
C3912 H3903 0.950 . S
C3912 C3911 1.398 . S
C3912 C3913 1.391 . S
C3913 H3901 0.950 . S
C3913 C3909 1.393 . S
C3913 C3912 1.391 . S
C3914 H3904 0.950 . S
C3914 C3915 1.386 . S
C3914 C3916 1.391 . S
C3915 C3914 1.386 . S
C3915 C3919 1.393 . S
C3916 H3905 0.950 . S
C3916 C3914 1.391 . S
C3916 C3917 1.400 . S
C3917 C3911 1.491 . S
C3917 C3916 1.400 . S
C3917 C3918 1.398 . S
C3918 H3906 0.950 . S
C3918 C3917 1.398 . S
C3918 C3919 1.391 . S
C3919 H3907 0.950 . S
C3919 C3915 1.393 . S
C3919 C3918 1.391 . S
H3920 C3928 0.950 . S
H3921 C3933 0.950 . S
H3922 C3930 0.950 . S
H3923 C3932 0.950 . S
H3924 C3934 0.950 . S
H3925 C3936 0.950 . S
H3926 C3938 0.950 . S
H3927 C3939 0.950 . S
C3928 H3920 0.950 . S
C3928 C3929 1.386 . S
C3928 C3930 1.391 . S
C3929 C3928 1.386 . S
C3929 C3933 1.393 . S
C3930 H3922 0.950 . S
C3930 C3928 1.391 . S
C3930 C3931 1.400 . S
C3931 C3930 1.400 . S
C3931 C3932 1.398 . S
C3931 C3937 1.491 . S
C3932 H3923 0.950 . S
C3932 C3931 1.398 . S
C3932 C3933 1.391 . S
C3933 H3921 0.950 . S
C3933 C3929 1.393 . S
C3933 C3932 1.391 . S
C3934 H3924 0.950 . S
C3934 C3935 1.386 . S
C3934 C3936 1.391 . S
C3935 C3934 1.386 . S
C3935 C3939 1.393 . S
C3936 H3925 0.950 . S
C3936 C3934 1.391 . S
C3936 C3937 1.400 . S
C3937 C3931 1.491 . S
C3937 C3936 1.400 . S
C3937 C3938 1.398 . S
C3938 H3926 0.950 . S
C3938 C3937 1.398 . S
C3938 C3939 1.391 . S
C3939 H3927 0.950 . S
C3939 C3935 1.393 . S
C3939 C3938 1.391 . S
H3940 C3948 0.950 . S
H3941 C3953 0.950 . S
H3942 C3950 0.950 . S
H3943 C3952 0.950 . S
H3944 C3954 0.950 . S
H3945 C3956 0.950 . S
H3946 C3958 0.950 . S
H3947 C3959 0.950 . S
C3948 H3940 0.950 . S
C3948 C3949 1.386 . S
C3948 C3950 1.391 . S
C3949 C3948 1.386 . S
C3949 C3953 1.393 . S
C3950 H3942 0.950 . S
C3950 C3948 1.391 . S
C3950 C3951 1.400 . S
C3951 C3950 1.400 . S
C3951 C3952 1.398 . S
C3951 C3957 1.491 . S
C3952 H3943 0.950 . S
C3952 C3951 1.398 . S
C3952 C3953 1.391 . S
C3953 H3941 0.950 . S
C3953 C3949 1.393 . S
C3953 C3952 1.391 . S
C3954 H3944 0.950 . S
C3954 C3955 1.386 . S
C3954 C3956 1.391 . S
C3955 C3954 1.386 . S
C3955 C3959 1.393 . S
C3956 H3945 0.950 . S
C3956 C3954 1.391 . S
C3956 C3957 1.400 . S
C3957 C3951 1.491 . S
C3957 C3956 1.400 . S
C3957 C3958 1.398 . S
C3958 H3946 0.950 . S
C3958 C3957 1.398 . S
C3958 C3959 1.391 . S
C3959 H3947 0.950 . S
C3959 C3955 1.393 . S
C3959 C3958 1.391 . S
H3960 C3968 0.950 . S
H3961 C3973 0.950 . S
H3962 C3970 0.950 . S
H3963 C3972 0.950 . S
H3964 C3974 0.950 . S
H3965 C3976 0.950 . S
H3966 C3978 0.950 . S
H3967 C3979 0.950 . S
C3968 H3960 0.950 . S
C3968 C3969 1.386 . S
C3968 C3970 1.391 . S
C3969 C3968 1.386 . S
C3969 C3973 1.393 . S
C3970 H3962 0.950 . S
C3970 C3968 1.391 . S
C3970 C3971 1.400 . S
C3971 C3970 1.400 . S
C3971 C3972 1.398 . S
C3971 C3977 1.491 . S
C3972 H3963 0.950 . S
C3972 C3971 1.398 . S
C3972 C3973 1.391 . S
C3973 H3961 0.950 . S
C3973 C3969 1.393 . S
C3973 C3972 1.391 . S
C3974 H3964 0.950 . S
C3974 C3975 1.386 . S
C3974 C3976 1.391 . S
C3975 C3974 1.386 . S
C3975 C3979 1.393 . S
C3976 H3965 0.950 . S
C3976 C3974 1.391 . S
C3976 C3977 1.400 . S
C3977 C3971 1.491 . S
C3977 C3976 1.400 . S
C3977 C3978 1.398 . S
C3978 H3966 0.950 . S
C3978 C3977 1.398 . S
C3978 C3979 1.391 . S
C3979 H3967 0.950 . S
C3979 C3975 1.393 . S
C3979 C3978 1.391 . S
H3980 C3988 0.950 . S
H3981 C3993 0.950 . S
H3982 C3990 0.950 . S
H3983 C3992 0.950 . S
H3984 C3994 0.950 . S
H3985 C3996 0.950 . S
H3986 C3998 0.950 . S
H3987 C3999 0.950 . S
C3988 H3980 0.950 . S
C3988 C3989 1.386 . S
C3988 C3990 1.391 . S
C3989 C3988 1.386 . S
C3989 C3993 1.393 . S
C3990 H3982 0.950 . S
C3990 C3988 1.391 . S
C3990 C3991 1.400 . S
C3991 C3990 1.400 . S
C3991 C3992 1.398 . S
C3991 C3997 1.491 . S
C3992 H3983 0.950 . S
C3992 C3991 1.398 . S
C3992 C3993 1.391 . S
C3993 H3981 0.950 . S
C3993 C3989 1.393 . S
C3993 C3992 1.391 . S
C3994 H3984 0.950 . S
C3994 C3995 1.386 . S
C3994 C3996 1.391 1_455 S
C3995 C3994 1.386 . S
C3995 C3999 1.393 . S
C3996 H3985 0.950 . S
C3996 C3994 1.391 1_655 S
C3996 C3997 1.400 . S
C3997 C3991 1.491 . S
C3997 C3996 1.400 . S
C3997 C3998 1.398 . S
C3998 H3986 0.950 . S
C3998 C3997 1.398 . S
C3998 C3999 1.391 1_655 S
C3999 H3987 0.950 . S
C3999 C3995 1.393 . S
C3999 C3998 1.391 1_455 S
H4000 C4008 0.950 . S
H4001 C4013 0.950 . S
H4002 C4010 0.950 . S
H4003 C4012 0.950 . S
H4004 C4014 0.950 . S
H4005 C4016 0.950 . S
H4006 C4018 0.950 . S
H4007 C4019 0.950 . S
C4008 H4000 0.950 . S
C4008 C4009 1.386 . S
C4008 C4010 1.391 . S
C4009 C4008 1.386 . S
C4009 C4013 1.393 . S
C4010 H4002 0.950 . S
C4010 C4008 1.391 . S
C4010 C4011 1.400 . S
C4011 C4010 1.400 . S
C4011 C4012 1.398 . S
C4011 C4017 1.491 . S
C4012 H4003 0.950 . S
C4012 C4011 1.398 . S
C4012 C4013 1.391 . S
C4013 H4001 0.950 . S
C4013 C4009 1.393 . S
C4013 C4012 1.391 . S
C4014 H4004 0.950 . S
C4014 C4015 1.386 . S
C4014 C4016 1.391 . S
C4015 C4014 1.386 . S
C4015 C4019 1.393 . S
C4016 H4005 0.950 . S
C4016 C4014 1.391 . S
C4016 C4017 1.400 . S
C4017 C4011 1.491 . S
C4017 C4016 1.400 . S
C4017 C4018 1.398 . S
C4018 H4006 0.950 . S
C4018 C4017 1.398 . S
C4018 C4019 1.391 . S
C4019 H4007 0.950 . S
C4019 C4015 1.393 . S
C4019 C4018 1.391 . S
H4020 C4028 0.950 . S
H4021 C4033 0.950 . S
H4022 C4030 0.950 . S
H4023 C4032 0.950 . S
H4024 C4034 0.950 . S
H4025 C4036 0.950 . S
H4026 C4038 0.950 . S
H4027 C4039 0.950 . S
C4028 H4020 0.950 . S
C4028 C4029 1.386 . S
C4028 C4030 1.391 . S
C4029 C4028 1.386 . S
C4029 C4033 1.393 . S
C4030 H4022 0.950 . S
C4030 C4028 1.391 . S
C4030 C4031 1.400 . S
C4031 C4030 1.400 . S
C4031 C4032 1.398 . S
C4031 C4037 1.491 . S
C4032 H4023 0.950 . S
C4032 C4031 1.398 . S
C4032 C4033 1.391 . S
C4033 H4021 0.950 . S
C4033 C4029 1.393 . S
C4033 C4032 1.391 . S
C4034 H4024 0.950 . S
C4034 C4035 1.386 . S
C4034 C4036 1.391 . S
C4035 C4034 1.386 . S
C4035 C4039 1.393 . S
C4036 H4025 0.950 . S
C4036 C4034 1.391 . S
C4036 C4037 1.400 . S
C4037 C4031 1.491 . S
C4037 C4036 1.400 . S
C4037 C4038 1.398 . S
C4038 H4026 0.950 . S
C4038 C4037 1.398 . S
C4038 C4039 1.391 . S
C4039 H4027 0.950 . S
C4039 C4035 1.393 . S
C4039 C4038 1.391 . S
H4040 C4048 0.950 . S
H4041 C4053 0.950 . S
H4042 C4050 0.950 . S
H4043 C4052 0.950 . S
H4044 C4054 0.950 . S
H4045 C4056 0.950 . S
H4046 C4058 0.950 . S
H4047 C4059 0.950 . S
C4048 H4040 0.950 . S
C4048 C4049 1.386 . S
C4048 C4050 1.391 . S
C4049 C4048 1.386 . S
C4049 C4053 1.393 . S
C4050 H4042 0.950 . S
C4050 C4048 1.391 . S
C4050 C4051 1.400 . S
C4051 C4050 1.400 . S
C4051 C4052 1.398 . S
C4051 C4057 1.491 . S
C4052 H4043 0.950 . S
C4052 C4051 1.398 . S
C4052 C4053 1.391 . S
C4053 H4041 0.950 . S
C4053 C4049 1.393 . S
C4053 C4052 1.391 . S
C4054 H4044 0.950 . S
C4054 C4055 1.386 . S
C4054 C4056 1.391 . S
C4055 C4054 1.386 . S
C4055 C4059 1.393 . S
C4056 H4045 0.950 . S
C4056 C4054 1.391 . S
C4056 C4057 1.400 . S
C4057 C4051 1.491 . S
C4057 C4056 1.400 . S
C4057 C4058 1.398 . S
C4058 H4046 0.950 . S
C4058 C4057 1.398 . S
C4058 C4059 1.391 . S
C4059 H4047 0.950 . S
C4059 C4055 1.393 . S
C4059 C4058 1.391 . S
H4060 C4068 0.949 . S
H4061 C4073 0.950 . S
H4062 C4070 0.950 . S
H4063 C4072 0.950 . S
H4064 C4074 0.950 . S
H4065 C4076 0.950 . S
H4066 C4078 0.950 . S
H4067 C4079 0.950 . S
C4068 H4060 0.949 . S
C4068 C4069 1.433 . S
C4068 C4070 1.346 1_556 S
C4069 C4068 1.433 . S
C4069 C4073 1.393 . S
C4070 H4062 0.950 . S
C4070 C4068 1.346 1_554 S
C4070 C4071 1.400 . S
C4071 C4070 1.400 . S
C4071 C4072 1.328 1_554 S
C4071 C4077 1.491 . S
C4072 H4063 0.950 . S
C4072 C4071 1.328 1_556 S
C4072 C4073 1.460 . S
C4073 H4061 0.950 . S
C4073 C4069 1.393 . S
C4073 C4072 1.460 . S
C4074 H4064 0.950 . S
C4074 C4075 1.386 . S
C4074 C4076 1.391 . S
C4075 C4074 1.386 . S
C4075 C4079 1.393 . S
C4076 H4065 0.950 . S
C4076 C4074 1.391 . S
C4076 C4077 1.400 . S
C4077 C4071 1.491 . S
C4077 C4076 1.400 . S
C4077 C4078 1.398 . S
C4078 H4066 0.950 . S
C4078 C4077 1.398 . S
C4078 C4079 1.391 . S
C4079 H4067 0.950 . S
C4079 C4075 1.393 . S
C4079 C4078 1.391 . S
H4080 C4088 0.950 . S
H4081 C4093 0.950 . S
H4082 C4090 0.950 . S
H4083 C4092 0.950 . S
H4084 C4094 0.950 . S
H4085 C4096 0.950 . S
H4086 C4098 0.950 . S
H4087 C4099 0.950 . S
C4088 H4080 0.950 . S
C4088 C4089 1.386 . S
C4088 C4090 1.391 . S
C4089 C4088 1.386 . S
C4089 C4093 1.393 . S
C4090 H4082 0.950 . S
C4090 C4088 1.391 . S
C4090 C4091 1.400 . S
C4091 C4090 1.400 . S
C4091 C4092 1.398 . S
C4091 C4097 1.491 . S
C4092 H4083 0.950 . S
C4092 C4091 1.398 . S
C4092 C4093 1.391 . S
C4093 H4081 0.950 . S
C4093 C4089 1.393 . S
C4093 C4092 1.391 . S
C4094 H4084 0.950 . S
C4094 C4095 1.386 . S
C4094 C4096 1.391 . S
C4095 C4094 1.386 . S
C4095 C4099 1.393 . S
C4096 H4085 0.950 . S
C4096 C4094 1.391 . S
C4096 C4097 1.400 . S
C4097 C4091 1.491 . S
C4097 C4096 1.400 . S
C4097 C4098 1.398 . S
C4098 H4086 0.950 . S
C4098 C4097 1.398 . S
C4098 C4099 1.391 . S
C4099 H4087 0.950 . S
C4099 C4095 1.393 . S
C4099 C4098 1.391 . S
H4100 C4108 0.950 . S
H4101 C4113 0.950 . S
H4102 C4110 0.950 . S
H4103 C4112 0.950 . S
H4104 C4114 0.950 . S
H4105 C4116 0.950 . S
H4106 C4118 0.950 . S
H4107 C4119 0.950 . S
C4108 H4100 0.950 . S
C4108 C4109 1.386 . S
C4108 C4110 1.391 . S
C4109 C4108 1.386 . S
C4109 C4113 1.393 . S
C4110 H4102 0.950 . S
C4110 C4108 1.391 . S
C4110 C4111 1.400 . S
C4111 C4110 1.400 . S
C4111 C4112 1.398 . S
C4111 C4117 1.491 . S
C4112 H4103 0.950 . S
C4112 C4111 1.398 . S
C4112 C4113 1.391 . S
C4113 H4101 0.950 . S
C4113 C4109 1.393 . S
C4113 C4112 1.391 . S
C4114 H4104 0.950 . S
C4114 C4115 1.386 . S
C4114 C4116 1.391 . S
C4115 C4114 1.386 . S
C4115 C4119 1.393 . S
C4116 H4105 0.950 . S
C4116 C4114 1.391 . S
C4116 C4117 1.400 . S
C4117 C4111 1.491 . S
C4117 C4116 1.400 . S
C4117 C4118 1.398 . S
C4118 H4106 0.950 . S
C4118 C4117 1.398 . S
C4118 C4119 1.391 . S
C4119 H4107 0.950 . S
C4119 C4115 1.393 . S
C4119 C4118 1.391 . S
H4120 C4128 0.950 . S
H4121 C4133 0.950 . S
H4122 C4130 0.950 . S
H4123 C4132 0.950 . S
H4124 C4134 0.950 . S
H4125 C4136 0.950 . S
H4126 C4138 0.950 . S
H4127 C4139 0.950 . S
C4128 H4120 0.950 . S
C4128 C4129 1.386 . S
C4128 C4130 1.391 . S
C4129 C4128 1.386 . S
C4129 C4133 1.393 . S
C4130 H4122 0.950 . S
C4130 C4128 1.391 . S
C4130 C4131 1.400 . S
C4131 C4130 1.400 . S
C4131 C4132 1.398 . S
C4131 C4137 1.491 . S
C4132 H4123 0.950 . S
C4132 C4131 1.398 . S
C4132 C4133 1.391 . S
C4133 H4121 0.950 . S
C4133 C4129 1.393 . S
C4133 C4132 1.391 . S
C4134 H4124 0.950 . S
C4134 C4135 1.386 . S
C4134 C4136 1.391 . S
C4135 C4134 1.386 . S
C4135 C4139 1.393 . S
C4136 H4125 0.950 . S
C4136 C4134 1.391 . S
C4136 C4137 1.400 . S
C4137 C4131 1.491 . S
C4137 C4136 1.400 . S
C4137 C4138 1.398 . S
C4138 H4126 0.950 . S
C4138 C4137 1.398 . S
C4138 C4139 1.391 . S
C4139 H4127 0.950 . S
C4139 C4135 1.393 . S
C4139 C4138 1.391 . S
H4140 C4148 0.950 . S
H4141 C4153 0.950 . S
H4142 C4150 0.950 . S
H4143 C4152 0.950 . S
H4144 C4154 0.950 . S
H4145 C4156 0.945 . S
H4146 C4158 0.950 . S
H4147 C4159 0.950 . S
C4148 H4140 0.950 . S
C4148 C4149 1.386 . S
C4148 C4150 1.391 . S
C4149 C4148 1.386 . S
C4149 C4153 1.393 . S
C4150 H4142 0.950 . S
C4150 C4148 1.391 . S
C4150 C4151 1.400 . S
C4151 C4150 1.400 . S
C4151 C4152 1.398 . S
C4151 C4157 1.491 . S
C4152 H4143 0.950 . S
C4152 C4151 1.398 . S
C4152 C4153 1.391 . S
C4153 H4141 0.950 . S
C4153 C4149 1.393 . S
C4153 C4152 1.391 . S
C4154 H4144 0.950 . S
C4154 C4155 1.386 . S
C4154 C4156 1.350 1_554 S
C4155 C4154 1.386 . S
C4155 C4159 1.393 . S
C4156 H4145 0.945 . S
C4156 C4154 1.350 1_556 S
C4156 C4157 1.437 . S
C4157 C4151 1.491 . S
C4157 C4156 1.437 . S
C4157 C4158 1.398 . S
C4158 H4146 0.950 . S
C4158 C4157 1.398 . S
C4158 C4159 1.391 1_556 S
C4159 H4147 0.950 . S
C4159 C4155 1.393 . S
C4159 C4158 1.391 1_554 S
H4160 C4168 0.950 . S
H4161 C4173 0.950 . S
H4162 C4170 0.950 . S
H4163 C4172 0.950 . S
H4164 C4174 0.950 . S
H4165 C4176 0.950 . S
H4166 C4178 0.950 . S
H4167 C4179 0.950 . S
C4168 H4160 0.950 . S
C4168 C4169 1.386 . S
C4168 C4170 1.391 . S
C4169 C4168 1.386 . S
C4169 C4173 1.393 . S
C4170 H4162 0.950 . S
C4170 C4168 1.391 . S
C4170 C4171 1.400 . S
C4171 C4170 1.400 . S
C4171 C4172 1.398 . S
C4171 C4177 1.491 . S
C4172 H4163 0.950 . S
C4172 C4171 1.398 . S
C4172 C4173 1.391 . S
C4173 H4161 0.950 . S
C4173 C4169 1.393 . S
C4173 C4172 1.391 . S
C4174 H4164 0.950 . S
C4174 C4175 1.386 . S
C4174 C4176 1.391 . S
C4175 C4174 1.386 . S
C4175 C4179 1.393 . S
C4176 H4165 0.950 . S
C4176 C4174 1.391 . S
C4176 C4177 1.400 . S
C4177 C4171 1.491 . S
C4177 C4176 1.400 . S
C4177 C4178 1.398 . S
C4178 H4166 0.950 . S
C4178 C4177 1.398 . S
C4178 C4179 1.391 . S
C4179 H4167 0.950 . S
C4179 C4175 1.393 . S
C4179 C4178 1.391 . S
H4180 C4188 0.950 . S
H4181 C4193 0.950 . S
H4182 C4190 0.950 . S
H4183 C4192 0.950 . S
H4184 C4194 0.950 . S
H4185 C4196 0.950 . S
H4186 C4198 0.950 . S
H4187 C4199 0.950 . S
C4188 H4180 0.950 . S
C4188 C4189 1.386 . S
C4188 C4190 1.391 . S
C4189 C4188 1.386 . S
C4189 C4193 1.393 . S
C4190 H4182 0.950 . S
C4190 C4188 1.391 . S
C4190 C4191 1.400 . S
C4191 C4190 1.400 . S
C4191 C4192 1.398 . S
C4191 C4197 1.491 . S
C4192 H4183 0.950 . S
C4192 C4191 1.398 . S
C4192 C4193 1.391 . S
C4193 H4181 0.950 . S
C4193 C4189 1.393 . S
C4193 C4192 1.391 . S
C4194 H4184 0.950 . S
C4194 C4195 1.386 . S
C4194 C4196 1.391 . S
C4195 C4194 1.386 . S
C4195 C4199 1.393 . S
C4196 H4185 0.950 . S
C4196 C4194 1.391 . S
C4196 C4197 1.400 . S
C4197 C4191 1.491 . S
C4197 C4196 1.400 . S
C4197 C4198 1.398 . S
C4198 H4186 0.950 . S
C4198 C4197 1.398 . S
C4198 C4199 1.391 . S
C4199 H4187 0.950 . S
C4199 C4195 1.393 . S
C4199 C4198 1.391 . S
H4200 C4208 0.950 . S
H4201 C4213 0.950 . S
H4202 C4210 0.950 . S
H4203 C4212 0.950 . S
H4204 C4214 0.950 . S
H4205 C4216 0.950 . S
H4206 C4218 0.950 . S
H4207 C4219 0.950 . S
C4208 H4200 0.950 . S
C4208 C4209 1.386 . S
C4208 C4210 1.391 . S
C4209 C4208 1.386 . S
C4209 C4213 1.393 . S
C4210 H4202 0.950 . S
C4210 C4208 1.391 . S
C4210 C4211 1.400 . S
C4211 C4210 1.400 . S
C4211 C4212 1.398 . S
C4211 C4217 1.491 . S
C4212 H4203 0.950 . S
C4212 C4211 1.398 . S
C4212 C4213 1.391 . S
C4213 H4201 0.950 . S
C4213 C4209 1.393 . S
C4213 C4212 1.391 . S
C4214 H4204 0.950 . S
C4214 C4215 1.386 . S
C4214 C4216 1.391 . S
C4215 C4214 1.386 . S
C4215 C4219 1.393 . S
C4216 H4205 0.950 . S
C4216 C4214 1.391 . S
C4216 C4217 1.400 . S
C4217 C4211 1.491 . S
C4217 C4216 1.400 . S
C4217 C4218 1.398 . S
C4218 H4206 0.950 . S
C4218 C4217 1.398 . S
C4218 C4219 1.391 . S
C4219 H4207 0.950 . S
C4219 C4215 1.393 . S
C4219 C4218 1.391 . S
H4220 C4228 0.950 . S
H4221 C4233 0.950 . S
H4222 C4230 0.950 . S
H4223 C4232 0.950 . S
H4224 C4234 0.950 . S
H4225 C4236 0.950 . S
H4226 C4238 0.950 . S
H4227 C4239 0.950 . S
C4228 H4220 0.950 . S
C4228 C4229 1.386 . S
C4228 C4230 1.391 . S
C4229 C4228 1.386 . S
C4229 C4233 1.393 . S
C4230 H4222 0.950 . S
C4230 C4228 1.391 . S
C4230 C4231 1.400 . S
C4231 C4230 1.400 . S
C4231 C4232 1.398 . S
C4231 C4237 1.491 . S
C4232 H4223 0.950 . S
C4232 C4231 1.398 . S
C4232 C4233 1.391 . S
C4233 H4221 0.950 . S
C4233 C4229 1.393 . S
C4233 C4232 1.391 . S
C4234 H4224 0.950 . S
C4234 C4235 1.386 . S
C4234 C4236 1.391 . S
C4235 C4234 1.386 . S
C4235 C4239 1.393 . S
C4236 H4225 0.950 . S
C4236 C4234 1.391 . S
C4236 C4237 1.400 . S
C4237 C4231 1.491 . S
C4237 C4236 1.400 . S
C4237 C4238 1.398 . S
C4238 H4226 0.950 . S
C4238 C4237 1.398 . S
C4238 C4239 1.391 . S
C4239 H4227 0.950 . S
C4239 C4235 1.393 . S
C4239 C4238 1.391 . S
H4240 C4248 0.950 . S
H4241 C4253 0.950 . S
H4242 C4250 0.950 . S
H4243 C4252 0.950 . S
H4244 C4254 0.950 . S
H4245 C4256 0.950 1_565 S
H4246 C4258 0.950 . S
H4247 C4259 0.965 . S
C4248 H4240 0.950 . S
C4248 C4249 1.386 . S
C4248 C4250 1.391 . S
C4249 C4248 1.386 . S
C4249 C4253 1.393 . S
C4250 H4242 0.950 . S
C4250 C4248 1.391 . S
C4250 C4251 1.400 . S
C4251 C4250 1.400 . S
C4251 C4252 1.398 . S
C4251 C4257 1.491 . S
C4252 H4243 0.950 . S
C4252 C4251 1.398 . S
C4252 C4253 1.391 . S
C4253 H4241 0.950 . S
C4253 C4249 1.393 . S
C4253 C4252 1.391 . S
C4254 H4244 0.950 . S
C4254 C4255 1.386 . S
C4254 C4256 1.395 . S
C4255 C4254 1.386 . S
C4255 C4259 1.507 . S
C4256 H4245 0.950 1_545 S
C4256 C4254 1.395 . S
C4256 C4257 1.396 1_545 S
C4257 C4251 1.491 . S
C4257 C4256 1.396 1_565 S
C4257 C4258 1.398 . S
C4258 H4246 0.950 . S
C4258 C4257 1.398 . S
C4258 C4259 1.275 1_565 S
C4259 H4247 0.965 . S
C4259 C4255 1.507 . S
C4259 C4258 1.275 1_545 S
H4260 C4268 0.950 . S
H4261 C4273 0.950 . S
H4262 C4270 0.950 . S
H4263 C4272 0.950 . S
H4264 C4274 0.950 . S
H4265 C4276 0.950 . S
H4266 C4278 0.950 . S
H4267 C4279 0.950 . S
C4268 H4260 0.950 . S
C4268 C4269 1.386 . S
C4268 C4270 1.391 . S
C4269 C4268 1.386 . S
C4269 C4273 1.393 . S
C4270 H4262 0.950 . S
C4270 C4268 1.391 . S
C4270 C4271 1.400 . S
C4271 C4270 1.400 . S
C4271 C4272 1.398 . S
C4271 C4277 1.491 . S
C4272 H4263 0.950 . S
C4272 C4271 1.398 . S
C4272 C4273 1.391 . S
C4273 H4261 0.950 . S
C4273 C4269 1.393 . S
C4273 C4272 1.391 . S
C4274 H4264 0.950 . S
C4274 C4275 1.386 . S
C4274 C4276 1.391 . S
C4275 C4274 1.386 . S
C4275 C4279 1.393 . S
C4276 H4265 0.950 . S
C4276 C4274 1.391 . S
C4276 C4277 1.400 . S
C4277 C4271 1.491 . S
C4277 C4276 1.400 . S
C4277 C4278 1.398 . S
C4278 H4266 0.950 . S
C4278 C4277 1.398 . S
C4278 C4279 1.391 . S
C4279 H4267 0.950 . S
C4279 C4275 1.393 . S
C4279 C4278 1.391 . S
H4280 C4288 0.950 . S
H4281 C4293 0.950 . S
H4282 C4290 0.950 . S
H4283 C4292 0.950 . S
H4284 C4294 0.950 . S
H4285 C4296 0.950 . S
H4286 C4298 0.950 . S
H4287 C4299 0.950 . S
C4288 H4280 0.950 . S
C4288 C4289 1.386 . S
C4288 C4290 1.391 . S
C4289 C4288 1.386 . S
C4289 C4293 1.393 . S
C4290 H4282 0.950 . S
C4290 C4288 1.391 . S
C4290 C4291 1.400 . S
C4291 C4290 1.400 . S
C4291 C4292 1.398 . S
C4291 C4297 1.491 . S
C4292 H4283 0.950 . S
C4292 C4291 1.398 . S
C4292 C4293 1.391 . S
C4293 H4281 0.950 . S
C4293 C4289 1.393 . S
C4293 C4292 1.391 . S
C4294 H4284 0.950 . S
C4294 C4295 1.386 . S
C4294 C4296 1.391 . S
C4295 C4294 1.386 . S
C4295 C4299 1.393 . S
C4296 H4285 0.950 . S
C4296 C4294 1.391 . S
C4296 C4297 1.400 . S
C4297 C4291 1.491 . S
C4297 C4296 1.400 . S
C4297 C4298 1.398 . S
C4298 H4286 0.950 . S
C4298 C4297 1.398 . S
C4298 C4299 1.391 . S
C4299 H4287 0.950 . S
C4299 C4295 1.393 . S
C4299 C4298 1.391 . S
H4300 C4308 0.950 . S
H4301 C4313 0.950 . S
H4302 C4310 0.950 . S
H4303 C4312 0.950 . S
H4304 C4314 0.950 . S
H4305 C4316 0.950 . S
H4306 C4318 0.950 . S
H4307 C4319 0.950 . S
C4308 H4300 0.950 . S
C4308 C4309 1.386 . S
C4308 C4310 1.391 . S
C4309 C4308 1.386 . S
C4309 C4313 1.393 . S
C4310 H4302 0.950 . S
C4310 C4308 1.391 . S
C4310 C4311 1.400 . S
C4311 C4310 1.400 . S
C4311 C4312 1.398 . S
C4311 C4317 1.491 . S
C4312 H4303 0.950 . S
C4312 C4311 1.398 . S
C4312 C4313 1.391 . S
C4313 H4301 0.950 . S
C4313 C4309 1.393 . S
C4313 C4312 1.391 . S
C4314 H4304 0.950 . S
C4314 C4315 1.386 . S
C4314 C4316 1.391 . S
C4315 C4314 1.386 . S
C4315 C4319 1.393 . S
C4316 H4305 0.950 . S
C4316 C4314 1.391 . S
C4316 C4317 1.400 . S
C4317 C4311 1.491 . S
C4317 C4316 1.400 . S
C4317 C4318 1.398 . S
C4318 H4306 0.950 . S
C4318 C4317 1.398 . S
C4318 C4319 1.391 . S
C4319 H4307 0.950 . S
C4319 C4315 1.393 . S
C4319 C4318 1.391 . S
H4320 C4328 0.950 . S
H4321 C4333 0.950 . S
H4322 C4330 0.950 . S
H4323 C4332 0.950 . S
H4324 C4334 0.950 . S
H4325 C4336 0.950 . S
H4326 C4338 0.950 . S
H4327 C4339 0.950 . S
C4328 H4320 0.950 . S
C4328 C4329 1.386 . S
C4328 C4330 1.391 . S
C4329 C4328 1.386 . S
C4329 C4333 1.393 . S
C4330 H4322 0.950 . S
C4330 C4328 1.391 . S
C4330 C4331 1.400 . S
C4331 C4330 1.400 . S
C4331 C4332 1.398 . S
C4331 C4337 1.491 . S
C4332 H4323 0.950 . S
C4332 C4331 1.398 . S
C4332 C4333 1.391 . S
C4333 H4321 0.950 . S
C4333 C4329 1.393 . S
C4333 C4332 1.391 . S
C4334 H4324 0.950 . S
C4334 C4335 1.386 . S
C4334 C4336 1.391 . S
C4335 C4334 1.386 . S
C4335 C4339 1.393 . S
C4336 H4325 0.950 . S
C4336 C4334 1.391 . S
C4336 C4337 1.400 . S
C4337 C4331 1.491 . S
C4337 C4336 1.400 . S
C4337 C4338 1.398 . S
C4338 H4326 0.950 . S
C4338 C4337 1.398 . S
C4338 C4339 1.391 . S
C4339 H4327 0.950 . S
C4339 C4335 1.393 . S
C4339 C4338 1.391 . S
H4340 C4348 0.950 . S
H4341 C4353 0.950 . S
H4342 C4350 0.950 . S
H4343 C4352 0.950 . S
H4344 C4354 0.949 . S
H4345 C4356 0.950 . S
H4346 C4358 0.950 1_455 S
H4347 C4359 0.950 . S
C4348 H4340 0.950 . S
C4348 C4349 1.386 . S
C4348 C4350 1.391 . S
C4349 C4348 1.386 . S
C4349 C4353 1.393 . S
C4350 H4342 0.950 . S
C4350 C4348 1.391 . S
C4350 C4351 1.400 . S
C4351 C4350 1.400 . S
C4351 C4352 1.398 . S
C4351 C4357 1.491 . S
C4352 H4343 0.950 . S
C4352 C4351 1.398 . S
C4352 C4353 1.391 . S
C4353 H4341 0.950 . S
C4353 C4349 1.393 . S
C4353 C4352 1.391 . S
C4354 H4344 0.949 . S
C4354 C4355 1.469 . S
C4354 C4356 1.307 1_655 S
C4355 C4354 1.469 . S
C4355 C4359 1.393 . S
C4356 H4345 0.950 . S
C4356 C4354 1.307 1_455 S
C4356 C4357 1.400 . S
C4357 C4351 1.491 . S
C4357 C4356 1.400 . S
C4357 C4358 1.399 1_455 S
C4358 H4346 0.950 1_655 S
C4358 C4357 1.399 1_655 S
C4358 C4359 1.390 . S
C4359 H4347 0.950 . S
C4359 C4355 1.393 . S
C4359 C4358 1.390 . S
H4360 C4368 0.950 . S
H4361 C4373 0.950 . S
H4362 C4370 0.950 . S
H4363 C4372 0.950 . S
H4364 C4374 0.950 . S
H4365 C4376 0.950 . S
H4366 C4378 0.950 . S
H4367 C4379 0.950 . S
C4368 H4360 0.950 . S
C4368 C4369 1.386 . S
C4368 C4370 1.391 . S
C4369 C4368 1.386 . S
C4369 C4373 1.393 . S
C4370 H4362 0.950 . S
C4370 C4368 1.391 . S
C4370 C4371 1.400 . S
C4371 C4370 1.400 . S
C4371 C4372 1.398 . S
C4371 C4377 1.491 . S
C4372 H4363 0.950 . S
C4372 C4371 1.398 . S
C4372 C4373 1.391 . S
C4373 H4361 0.950 . S
C4373 C4369 1.393 . S
C4373 C4372 1.391 . S
C4374 H4364 0.950 . S
C4374 C4375 1.386 . S
C4374 C4376 1.391 . S
C4375 C4374 1.386 . S
C4375 C4379 1.393 . S
C4376 H4365 0.950 . S
C4376 C4374 1.391 . S
C4376 C4377 1.400 . S
C4377 C4371 1.491 . S
C4377 C4376 1.400 . S
C4377 C4378 1.398 . S
C4378 H4366 0.950 . S
C4378 C4377 1.398 . S
C4378 C4379 1.391 . S
C4379 H4367 0.950 . S
C4379 C4375 1.393 . S
C4379 C4378 1.391 . S
H4380 C4388 0.950 . S
H4381 C4393 0.950 . S
H4382 C4390 0.950 . S
H4383 C4392 0.950 . S
H4384 C4394 0.950 . S
H4385 C4396 0.950 . S
H4386 C4398 0.950 . S
H4387 C4399 0.950 . S
C4388 H4380 0.950 . S
C4388 C4389 1.386 . S
C4388 C4390 1.391 . S
C4389 C4388 1.386 . S
C4389 C4393 1.393 . S
C4390 H4382 0.950 . S
C4390 C4388 1.391 . S
C4390 C4391 1.400 . S
C4391 C4390 1.400 . S
C4391 C4392 1.398 . S
C4391 C4397 1.491 . S
C4392 H4383 0.950 . S
C4392 C4391 1.398 . S
C4392 C4393 1.391 . S
C4393 H4381 0.950 . S
C4393 C4389 1.393 . S
C4393 C4392 1.391 . S
C4394 H4384 0.950 . S
C4394 C4395 1.386 . S
C4394 C4396 1.391 . S
C4395 C4394 1.386 . S
C4395 C4399 1.393 . S
C4396 H4385 0.950 . S
C4396 C4394 1.391 . S
C4396 C4397 1.400 . S
C4397 C4391 1.491 . S
C4397 C4396 1.400 . S
C4397 C4398 1.398 . S
C4398 H4386 0.950 . S
C4398 C4397 1.398 . S
C4398 C4399 1.391 . S
C4399 H4387 0.950 . S
C4399 C4395 1.393 . S
C4399 C4398 1.391 . S
H4400 C4408 0.950 . S
H4401 C4413 0.950 . S
H4402 C4410 0.950 . S
H4403 C4412 0.950 . S
H4404 C4414 0.950 . S
H4405 C4416 0.950 . S
H4406 C4418 0.950 . S
H4407 C4419 0.950 . S
C4408 H4400 0.950 . S
C4408 C4409 1.386 . S
C4408 C4410 1.391 . S
C4409 C4408 1.386 . S
C4409 C4413 1.393 . S
C4410 H4402 0.950 . S
C4410 C4408 1.391 . S
C4410 C4411 1.400 . S
C4411 C4410 1.400 . S
C4411 C4412 1.398 . S
C4411 C4417 1.491 . S
C4412 H4403 0.950 . S
C4412 C4411 1.398 . S
C4412 C4413 1.391 . S
C4413 H4401 0.950 . S
C4413 C4409 1.393 . S
C4413 C4412 1.391 . S
C4414 H4404 0.950 . S
C4414 C4415 1.386 . S
C4414 C4416 1.391 . S
C4415 C4414 1.386 . S
C4415 C4419 1.393 . S
C4416 H4405 0.950 . S
C4416 C4414 1.391 . S
C4416 C4417 1.400 . S
C4417 C4411 1.491 . S
C4417 C4416 1.400 . S
C4417 C4418 1.398 . S
C4418 H4406 0.950 . S
C4418 C4417 1.398 . S
C4418 C4419 1.391 . S
C4419 H4407 0.950 . S
C4419 C4415 1.393 . S
C4419 C4418 1.391 . S
H4420 C4428 0.950 . S
H4421 C4433 0.950 . S
H4422 C4430 0.950 . S
H4423 C4432 0.950 . S
H4424 C4434 0.950 . S
H4425 C4436 0.950 . S
H4426 C4438 0.950 . S
H4427 C4439 0.950 . S
C4428 H4420 0.950 . S
C4428 C4429 1.386 . S
C4428 C4430 1.391 . S
C4429 C4428 1.386 . S
C4429 C4433 1.393 . S
C4430 H4422 0.950 . S
C4430 C4428 1.391 . S
C4430 C4431 1.400 . S
C4431 C4430 1.400 . S
C4431 C4432 1.398 . S
C4431 C4437 1.491 . S
C4432 H4423 0.950 . S
C4432 C4431 1.398 . S
C4432 C4433 1.391 . S
C4433 H4421 0.950 . S
C4433 C4429 1.393 . S
C4433 C4432 1.391 . S
C4434 H4424 0.950 . S
C4434 C4435 1.386 . S
C4434 C4436 1.391 . S
C4435 C4434 1.386 . S
C4435 C4439 1.393 . S
C4436 H4425 0.950 . S
C4436 C4434 1.391 . S
C4436 C4437 1.400 . S
C4437 C4431 1.491 . S
C4437 C4436 1.400 . S
C4437 C4438 1.398 . S
C4438 H4426 0.950 . S
C4438 C4437 1.398 . S
C4438 C4439 1.391 . S
C4439 H4427 0.950 . S
C4439 C4435 1.393 . S
C4439 C4438 1.391 . S
H4440 C4448 0.950 . S
H4441 C4453 0.950 . S
H4442 C4450 0.950 . S
H4443 C4452 0.950 . S
H4444 C4454 0.950 . S
H4445 C4456 0.950 . S
H4446 C4458 0.950 . S
H4447 C4459 0.950 . S
C4448 H4440 0.950 . S
C4448 C4449 1.386 . S
C4448 C4450 1.391 . S
C4449 C4448 1.386 . S
C4449 C4453 1.393 . S
C4450 H4442 0.950 . S
C4450 C4448 1.391 . S
C4450 C4451 1.400 . S
C4451 C4450 1.400 . S
C4451 C4452 1.398 . S
C4451 C4457 1.491 . S
C4452 H4443 0.950 . S
C4452 C4451 1.398 . S
C4452 C4453 1.391 . S
C4453 H4441 0.950 . S
C4453 C4449 1.393 . S
C4453 C4452 1.391 . S
C4454 H4444 0.950 . S
C4454 C4455 1.386 . S
C4454 C4456 1.391 . S
C4455 C4454 1.386 . S
C4455 C4459 1.393 . S
C4456 H4445 0.950 . S
C4456 C4454 1.391 . S
C4456 C4457 1.400 . S
C4457 C4451 1.491 . S
C4457 C4456 1.400 . S
C4457 C4458 1.398 . S
C4458 H4446 0.950 . S
C4458 C4457 1.398 . S
C4458 C4459 1.391 . S
C4459 H4447 0.950 . S
C4459 C4455 1.393 . S
C4459 C4458 1.391 . S
H4460 C4468 0.950 . S
H4461 C4473 0.950 . S
H4462 C4470 0.959 . S
H4463 C4472 0.950 . S
H4464 C4474 0.950 . S
H4465 C4476 0.950 . S
H4466 C4478 0.950 . S
H4467 C4479 0.950 . S
C4468 H4460 0.950 . S
C4468 C4469 1.386 . S
C4468 C4470 1.330 1_655 S
C4469 C4468 1.386 . S
C4469 C4473 1.393 . S
C4470 H4462 0.959 . S
C4470 C4468 1.330 1_455 S
C4470 C4471 1.456 . S
C4471 C4470 1.456 . S
C4471 C4472 1.398 . S
C4471 C4477 1.491 . S
C4472 H4463 0.950 . S
C4472 C4471 1.398 . S
C4472 C4473 1.391 1_455 S
C4473 H4461 0.950 . S
C4473 C4469 1.393 . S
C4473 C4472 1.391 1_655 S
C4474 H4464 0.950 . S
C4474 C4475 1.386 . S
C4474 C4476 1.391 . S
C4475 C4474 1.386 . S
C4475 C4479 1.393 . S
C4476 H4465 0.950 . S
C4476 C4474 1.391 . S
C4476 C4477 1.400 . S
C4477 C4471 1.491 . S
C4477 C4476 1.400 . S
C4477 C4478 1.398 . S
C4478 H4466 0.950 . S
C4478 C4477 1.398 . S
C4478 C4479 1.391 . S
C4479 H4467 0.950 . S
C4479 C4475 1.393 . S
C4479 C4478 1.391 . S
H4480 C4488 0.950 . S
H4481 C4493 0.950 . S
H4482 C4490 0.950 . S
H4483 C4492 0.950 . S
H4484 C4494 0.950 . S
H4485 C4496 0.950 . S
H4486 C4498 0.950 . S
H4487 C4499 0.950 . S
C4488 H4480 0.950 . S
C4488 C4489 1.386 . S
C4488 C4490 1.391 . S
C4489 C4488 1.386 . S
C4489 C4493 1.393 . S
C4490 H4482 0.950 . S
C4490 C4488 1.391 . S
C4490 C4491 1.400 . S
C4491 C4490 1.400 . S
C4491 C4492 1.398 . S
C4491 C4497 1.491 . S
C4492 H4483 0.950 . S
C4492 C4491 1.398 . S
C4492 C4493 1.391 . S
C4493 H4481 0.950 . S
C4493 C4489 1.393 . S
C4493 C4492 1.391 . S
C4494 H4484 0.950 . S
C4494 C4495 1.386 . S
C4494 C4496 1.391 . S
C4495 C4494 1.386 . S
C4495 C4499 1.393 . S
C4496 H4485 0.950 . S
C4496 C4494 1.391 . S
C4496 C4497 1.400 . S
C4497 C4491 1.491 . S
C4497 C4496 1.400 . S
C4497 C4498 1.398 . S
C4498 H4486 0.950 . S
C4498 C4497 1.398 . S
C4498 C4499 1.391 . S
C4499 H4487 0.950 . S
C4499 C4495 1.393 . S
C4499 C4498 1.391 . S
H4500 C4508 0.950 . S
H4501 C4513 0.950 . S
H4502 C4510 0.950 . S
H4503 C4512 0.950 . S
H4504 C4514 0.950 . S
H4505 C4516 0.950 . S
H4506 C4518 0.950 . S
H4507 C4519 0.950 . S
C4508 H4500 0.950 . S
C4508 C4509 1.386 . S
C4508 C4510 1.391 . S
C4509 C4508 1.386 . S
C4509 C4513 1.393 . S
C4510 H4502 0.950 . S
C4510 C4508 1.391 . S
C4510 C4511 1.400 . S
C4511 C4510 1.400 . S
C4511 C4512 1.398 . S
C4511 C4517 1.491 . S
C4512 H4503 0.950 . S
C4512 C4511 1.398 . S
C4512 C4513 1.391 . S
C4513 H4501 0.950 . S
C4513 C4509 1.393 . S
C4513 C4512 1.391 . S
C4514 H4504 0.950 . S
C4514 C4515 1.386 . S
C4514 C4516 1.391 . S
C4515 C4514 1.386 . S
C4515 C4519 1.393 . S
C4516 H4505 0.950 . S
C4516 C4514 1.391 . S
C4516 C4517 1.400 . S
C4517 C4511 1.491 . S
C4517 C4516 1.400 . S
C4517 C4518 1.398 . S
C4518 H4506 0.950 . S
C4518 C4517 1.398 . S
C4518 C4519 1.391 . S
C4519 H4507 0.950 . S
C4519 C4515 1.393 . S
C4519 C4518 1.391 . S
H4520 C4528 0.950 . S
H4521 C4533 0.950 . S
H4522 C4530 0.950 . S
H4523 C4532 0.950 . S
H4524 C4534 0.950 . S
H4525 C4536 0.950 . S
H4526 C4538 0.950 . S
H4527 C4539 0.950 . S
C4528 H4520 0.950 . S
C4528 C4529 1.386 . S
C4528 C4530 1.391 . S
C4529 C4528 1.386 . S
C4529 C4533 1.393 . S
C4530 H4522 0.950 . S
C4530 C4528 1.391 . S
C4530 C4531 1.400 . S
C4531 C4530 1.400 . S
C4531 C4532 1.398 . S
C4531 C4537 1.491 . S
C4532 H4523 0.950 . S
C4532 C4531 1.398 . S
C4532 C4533 1.391 . S
C4533 H4521 0.950 . S
C4533 C4529 1.393 . S
C4533 C4532 1.391 . S
C4534 H4524 0.950 . S
C4534 C4535 1.386 . S
C4534 C4536 1.391 . S
C4535 C4534 1.386 . S
C4535 C4539 1.393 . S
C4536 H4525 0.950 . S
C4536 C4534 1.391 . S
C4536 C4537 1.400 . S
C4537 C4531 1.491 . S
C4537 C4536 1.400 . S
C4537 C4538 1.398 . S
C4538 H4526 0.950 . S
C4538 C4537 1.398 . S
C4538 C4539 1.391 . S
C4539 H4527 0.950 . S
C4539 C4535 1.393 . S
C4539 C4538 1.391 . S
H4540 C4548 0.949 . S
H4541 C4553 0.950 . S
H4542 C4550 0.950 . S
H4543 C4552 0.950 . S
H4544 C4554 0.950 . S
H4545 C4556 0.950 . S
H4546 C4558 0.950 . S
H4547 C4559 0.950 . S
C4548 H4540 0.949 . S
C4548 C4549 1.445 . S
C4548 C4550 1.334 1_554 S
C4549 C4548 1.445 . S
C4549 C4553 1.393 . S
C4550 H4542 0.950 . S
C4550 C4548 1.334 1_556 S
C4550 C4551 1.400 . S
C4551 C4550 1.400 . S
C4551 C4552 1.334 1_556 S
C4551 C4557 1.491 . S
C4552 H4543 0.950 . S
C4552 C4551 1.334 1_554 S
C4552 C4553 1.454 . S
C4553 H4541 0.950 . S
C4553 C4549 1.393 . S
C4553 C4552 1.454 . S
C4554 H4544 0.950 . S
C4554 C4555 1.386 . S
C4554 C4556 1.391 . S
C4555 C4554 1.386 . S
C4555 C4559 1.393 . S
C4556 H4545 0.950 . S
C4556 C4554 1.391 . S
C4556 C4557 1.400 . S
C4557 C4551 1.491 . S
C4557 C4556 1.400 . S
C4557 C4558 1.398 . S
C4558 H4546 0.950 . S
C4558 C4557 1.398 . S
C4558 C4559 1.391 . S
C4559 H4547 0.950 . S
C4559 C4555 1.393 . S
C4559 C4558 1.391 . S
H4560 C4568 0.950 . S
H4561 C4573 0.950 . S
H4562 C4570 0.950 . S
H4563 C4572 0.950 . S
H4564 C4574 0.950 . S
H4565 C4576 0.950 . S
H4566 C4578 0.950 . S
H4567 C4579 0.950 . S
C4568 H4560 0.950 . S
C4568 C4569 1.386 . S
C4568 C4570 1.391 . S
C4569 C4568 1.386 . S
C4569 C4573 1.393 . S
C4570 H4562 0.950 . S
C4570 C4568 1.391 . S
C4570 C4571 1.400 . S
C4571 C4570 1.400 . S
C4571 C4572 1.398 . S
C4571 C4577 1.491 . S
C4572 H4563 0.950 . S
C4572 C4571 1.398 . S
C4572 C4573 1.391 . S
C4573 H4561 0.950 . S
C4573 C4569 1.393 . S
C4573 C4572 1.391 . S
C4574 H4564 0.950 . S
C4574 C4575 1.386 . S
C4574 C4576 1.391 . S
C4575 C4574 1.386 . S
C4575 C4579 1.393 . S
C4576 H4565 0.950 . S
C4576 C4574 1.391 . S
C4576 C4577 1.400 . S
C4577 C4571 1.491 . S
C4577 C4576 1.400 . S
C4577 C4578 1.398 . S
C4578 H4566 0.950 . S
C4578 C4577 1.398 . S
C4578 C4579 1.391 . S
C4579 H4567 0.950 . S
C4579 C4575 1.393 . S
C4579 C4578 1.391 . S
H4580 C4588 0.950 . S
H4581 C4593 0.950 . S
H4582 C4590 0.950 . S
H4583 C4592 0.950 . S
H4584 C4594 0.950 . S
H4585 C4596 0.950 . S
H4586 C4598 0.950 . S
H4587 C4599 0.950 . S
C4588 H4580 0.950 . S
C4588 C4589 1.386 . S
C4588 C4590 1.391 . S
C4589 C4588 1.386 . S
C4589 C4593 1.393 . S
C4590 H4582 0.950 . S
C4590 C4588 1.391 . S
C4590 C4591 1.400 . S
C4591 C4590 1.400 . S
C4591 C4592 1.398 . S
C4591 C4597 1.491 . S
C4592 H4583 0.950 . S
C4592 C4591 1.398 . S
C4592 C4593 1.391 . S
C4593 H4581 0.950 . S
C4593 C4589 1.393 . S
C4593 C4592 1.391 . S
C4594 H4584 0.950 . S
C4594 C4595 1.386 . S
C4594 C4596 1.391 . S
C4595 C4594 1.386 . S
C4595 C4599 1.393 . S
C4596 H4585 0.950 . S
C4596 C4594 1.391 . S
C4596 C4597 1.400 . S
C4597 C4591 1.491 . S
C4597 C4596 1.400 . S
C4597 C4598 1.398 . S
C4598 H4586 0.950 . S
C4598 C4597 1.398 . S
C4598 C4599 1.391 . S
C4599 H4587 0.950 . S
C4599 C4595 1.393 . S
C4599 C4598 1.391 . S
H4600 C4608 0.950 . S
H4601 C4613 0.950 . S
H4602 C4610 0.950 . S
H4603 C4612 0.950 . S
H4604 C4614 0.950 . S
H4605 C4616 0.950 . S
H4606 C4618 0.950 . S
H4607 C4619 0.950 . S
C4608 H4600 0.950 . S
C4608 C4609 1.386 . S
C4608 C4610 1.391 . S
C4609 C4608 1.386 . S
C4609 C4613 1.393 . S
C4610 H4602 0.950 . S
C4610 C4608 1.391 . S
C4610 C4611 1.400 . S
C4611 C4610 1.400 . S
C4611 C4612 1.398 . S
C4611 C4617 1.491 . S
C4612 H4603 0.950 . S
C4612 C4611 1.398 . S
C4612 C4613 1.391 . S
C4613 H4601 0.950 . S
C4613 C4609 1.393 . S
C4613 C4612 1.391 . S
C4614 H4604 0.950 . S
C4614 C4615 1.386 . S
C4614 C4616 1.391 . S
C4615 C4614 1.386 . S
C4615 C4619 1.393 . S
C4616 H4605 0.950 . S
C4616 C4614 1.391 . S
C4616 C4617 1.400 . S
C4617 C4611 1.491 . S
C4617 C4616 1.400 . S
C4617 C4618 1.398 . S
C4618 H4606 0.950 . S
C4618 C4617 1.398 . S
C4618 C4619 1.391 . S
C4619 H4607 0.950 . S
C4619 C4615 1.393 . S
C4619 C4618 1.391 . S
H4620 C4628 0.950 . S
H4621 C4633 0.950 . S
H4622 C4630 0.950 . S
H4623 C4632 0.950 . S
H4624 C4634 0.950 . S
H4625 C4636 0.950 . S
H4626 C4638 0.950 . S
H4627 C4639 0.950 . S
C4628 H4620 0.950 . S
C4628 C4629 1.386 . S
C4628 C4630 1.391 . S
C4629 C4628 1.386 . S
C4629 C4633 1.393 . S
C4630 H4622 0.950 . S
C4630 C4628 1.391 . S
C4630 C4631 1.400 . S
C4631 C4630 1.400 . S
C4631 C4632 1.398 . S
C4631 C4637 1.491 . S
C4632 H4623 0.950 . S
C4632 C4631 1.398 . S
C4632 C4633 1.391 . S
C4633 H4621 0.950 . S
C4633 C4629 1.393 . S
C4633 C4632 1.391 . S
C4634 H4624 0.950 . S
C4634 C4635 1.386 . S
C4634 C4636 1.391 1_556 S
C4635 C4634 1.386 . S
C4635 C4639 1.393 . S
C4636 H4625 0.950 . S
C4636 C4634 1.391 1_554 S
C4636 C4637 1.400 . S
C4637 C4631 1.491 . S
C4637 C4636 1.400 . S
C4637 C4638 1.398 . S
C4638 H4626 0.950 . S
C4638 C4637 1.398 . S
C4638 C4639 1.391 1_554 S
C4639 H4627 0.950 . S
C4639 C4635 1.393 . S
C4639 C4638 1.391 1_556 S
H4640 C4648 0.950 . S
H4641 C4653 0.950 . S
H4642 C4650 0.950 . S
H4643 C4652 0.950 . S
H4644 C4654 0.950 . S
H4645 C4656 0.950 . S
H4646 C4658 0.950 . S
H4647 C4659 0.950 . S
C4648 H4640 0.950 . S
C4648 C4649 1.386 . S
C4648 C4650 1.391 . S
C4649 C4648 1.386 . S
C4649 C4653 1.393 . S
C4650 H4642 0.950 . S
C4650 C4648 1.391 . S
C4650 C4651 1.400 . S
C4651 C4650 1.400 . S
C4651 C4652 1.398 . S
C4651 C4657 1.491 . S
C4652 H4643 0.950 . S
C4652 C4651 1.398 . S
C4652 C4653 1.391 . S
C4653 H4641 0.950 . S
C4653 C4649 1.393 . S
C4653 C4652 1.391 . S
C4654 H4644 0.950 . S
C4654 C4655 1.386 . S
C4654 C4656 1.391 . S
C4655 C4654 1.386 . S
C4655 C4659 1.393 . S
C4656 H4645 0.950 . S
C4656 C4654 1.391 . S
C4656 C4657 1.400 . S
C4657 C4651 1.491 . S
C4657 C4656 1.400 . S
C4657 C4658 1.398 . S
C4658 H4646 0.950 . S
C4658 C4657 1.398 . S
C4658 C4659 1.391 . S
C4659 H4647 0.950 . S
C4659 C4655 1.393 . S
C4659 C4658 1.391 . S
H4660 C4668 0.950 . S
H4661 C4673 0.950 . S
H4662 C4670 0.950 . S
H4663 C4672 0.950 . S
H4664 C4674 0.950 . S
H4665 C4676 0.950 . S
H4666 C4678 0.950 . S
H4667 C4679 0.950 . S
C4668 H4660 0.950 . S
C4668 C4669 1.386 . S
C4668 C4670 1.391 . S
C4669 C4668 1.386 . S
C4669 C4673 1.393 . S
C4670 H4662 0.950 . S
C4670 C4668 1.391 . S
C4670 C4671 1.400 . S
C4671 C4670 1.400 . S
C4671 C4672 1.398 . S
C4671 C4677 1.491 . S
C4672 H4663 0.950 . S
C4672 C4671 1.398 . S
C4672 C4673 1.391 . S
C4673 H4661 0.950 . S
C4673 C4669 1.393 . S
C4673 C4672 1.391 . S
C4674 H4664 0.950 . S
C4674 C4675 1.386 . S
C4674 C4676 1.391 . S
C4675 C4674 1.386 . S
C4675 C4679 1.393 . S
C4676 H4665 0.950 . S
C4676 C4674 1.391 . S
C4676 C4677 1.400 . S
C4677 C4671 1.491 . S
C4677 C4676 1.400 . S
C4677 C4678 1.398 . S
C4678 H4666 0.950 . S
C4678 C4677 1.398 . S
C4678 C4679 1.391 . S
C4679 H4667 0.950 . S
C4679 C4675 1.393 . S
C4679 C4678 1.391 . S
H4680 C4688 0.950 . S
H4681 C4693 0.950 . S
H4682 C4690 0.950 . S
H4683 C4692 0.950 . S
H4684 C4694 0.950 . S
H4685 C4696 0.950 . S
H4686 C4698 0.950 . S
H4687 C4699 0.950 . S
C4688 H4680 0.950 . S
C4688 C4689 1.386 . S
C4688 C4690 1.391 . S
C4689 C4688 1.386 . S
C4689 C4693 1.393 . S
C4690 H4682 0.950 . S
C4690 C4688 1.391 . S
C4690 C4691 1.400 . S
C4691 C4690 1.400 . S
C4691 C4692 1.398 . S
C4691 C4697 1.491 . S
C4692 H4683 0.950 . S
C4692 C4691 1.398 . S
C4692 C4693 1.391 . S
C4693 H4681 0.950 . S
C4693 C4689 1.393 . S
C4693 C4692 1.391 . S
C4694 H4684 0.950 . S
C4694 C4695 1.386 . S
C4694 C4696 1.391 . S
C4695 C4694 1.386 . S
C4695 C4699 1.393 . S
C4696 H4685 0.950 . S
C4696 C4694 1.391 . S
C4696 C4697 1.400 . S
C4697 C4691 1.491 . S
C4697 C4696 1.400 . S
C4697 C4698 1.398 . S
C4698 H4686 0.950 . S
C4698 C4697 1.398 . S
C4698 C4699 1.391 . S
C4699 H4687 0.950 . S
C4699 C4695 1.393 . S
C4699 C4698 1.391 . S
H4700 C4708 0.950 . S
H4701 C4713 0.950 . S
H4702 C4710 0.950 . S
H4703 C4712 0.950 . S
H4704 C4714 0.950 . S
H4705 C4716 0.950 . S
H4706 C4718 0.950 . S
H4707 C4719 0.950 . S
C4708 H4700 0.950 . S
C4708 C4709 1.386 . S
C4708 C4710 1.391 . S
C4709 C4708 1.386 . S
C4709 C4713 1.393 . S
C4710 H4702 0.950 . S
C4710 C4708 1.391 . S
C4710 C4711 1.400 . S
C4711 C4710 1.400 . S
C4711 C4712 1.398 . S
C4711 C4717 1.491 . S
C4712 H4703 0.950 . S
C4712 C4711 1.398 . S
C4712 C4713 1.391 . S
C4713 H4701 0.950 . S
C4713 C4709 1.393 . S
C4713 C4712 1.391 . S
C4714 H4704 0.950 . S
C4714 C4715 1.386 . S
C4714 C4716 1.391 . S
C4715 C4714 1.386 . S
C4715 C4719 1.393 . S
C4716 H4705 0.950 . S
C4716 C4714 1.391 . S
C4716 C4717 1.400 . S
C4717 C4711 1.491 . S
C4717 C4716 1.400 . S
C4717 C4718 1.398 . S
C4718 H4706 0.950 . S
C4718 C4717 1.398 . S
C4718 C4719 1.391 . S
C4719 H4707 0.950 . S
C4719 C4715 1.393 . S
C4719 C4718 1.391 . S
H4720 C4728 0.950 . S
H4721 C4733 0.950 . S
H4722 C4730 0.950 . S
H4723 C4732 0.950 . S
H4724 C4734 0.949 . S
H4725 C4736 0.950 . S
H4726 C4738 0.950 . S
H4727 C4739 0.950 . S
C4728 H4720 0.950 . S
C4728 C4729 1.386 . S
C4728 C4730 1.391 . S
C4729 C4728 1.386 . S
C4729 C4733 1.393 . S
C4730 H4722 0.950 . S
C4730 C4728 1.391 . S
C4730 C4731 1.400 . S
C4731 C4730 1.400 . S
C4731 C4732 1.398 . S
C4731 C4737 1.491 . S
C4732 H4723 0.950 . S
C4732 C4731 1.398 . S
C4732 C4733 1.391 . S
C4733 H4721 0.950 . S
C4733 C4729 1.393 . S
C4733 C4732 1.391 . S
C4734 H4724 0.949 . S
C4734 C4735 1.429 . S
C4734 C4736 1.349 1_565 S
C4735 C4734 1.429 . S
C4735 C4739 1.393 . S
C4736 H4725 0.950 . S
C4736 C4734 1.349 1_545 S
C4736 C4737 1.400 . S
C4737 C4731 1.491 . S
C4737 C4736 1.400 . S
C4737 C4738 1.338 1_545 S
C4738 H4726 0.950 . S
C4738 C4737 1.338 1_565 S
C4738 C4739 1.451 . S
C4739 H4727 0.950 . S
C4739 C4735 1.393 . S
C4739 C4738 1.451 . S
H4740 C4748 0.950 . S
H4741 C4753 0.950 . S
H4742 C4750 0.950 . S
H4743 C4752 0.950 . S
H4744 C4754 0.950 . S
H4745 C4756 0.950 . S
H4746 C4758 0.950 . S
H4747 C4759 0.950 . S
C4748 H4740 0.950 . S
C4748 C4749 1.386 . S
C4748 C4750 1.391 . S
C4749 C4748 1.386 . S
C4749 C4753 1.393 . S
C4750 H4742 0.950 . S
C4750 C4748 1.391 . S
C4750 C4751 1.400 . S
C4751 C4750 1.400 . S
C4751 C4752 1.398 . S
C4751 C4757 1.491 . S
C4752 H4743 0.950 . S
C4752 C4751 1.398 . S
C4752 C4753 1.391 . S
C4753 H4741 0.950 . S
C4753 C4749 1.393 . S
C4753 C4752 1.391 . S
C4754 H4744 0.950 . S
C4754 C4755 1.386 . S
C4754 C4756 1.391 . S
C4755 C4754 1.386 . S
C4755 C4759 1.393 . S
C4756 H4745 0.950 . S
C4756 C4754 1.391 . S
C4756 C4757 1.400 . S
C4757 C4751 1.491 . S
C4757 C4756 1.400 . S
C4757 C4758 1.398 . S
C4758 H4746 0.950 . S
C4758 C4757 1.398 . S
C4758 C4759 1.391 . S
C4759 H4747 0.950 . S
C4759 C4755 1.393 . S
C4759 C4758 1.391 . S
H4760 C4768 0.950 . S
H4761 C4773 0.950 . S
H4762 C4770 0.950 . S
H4763 C4772 0.950 . S
H4764 C4774 0.950 . S
H4765 C4776 0.950 . S
H4766 C4778 0.950 . S
H4767 C4779 0.950 . S
C4768 H4760 0.950 . S
C4768 C4769 1.386 . S
C4768 C4770 1.391 . S
C4769 C4768 1.386 . S
C4769 C4773 1.393 . S
C4770 H4762 0.950 . S
C4770 C4768 1.391 . S
C4770 C4771 1.400 . S
C4771 C4770 1.400 . S
C4771 C4772 1.398 . S
C4771 C4777 1.491 . S
C4772 H4763 0.950 . S
C4772 C4771 1.398 . S
C4772 C4773 1.391 . S
C4773 H4761 0.950 . S
C4773 C4769 1.393 . S
C4773 C4772 1.391 . S
C4774 H4764 0.950 . S
C4774 C4775 1.386 . S
C4774 C4776 1.391 . S
C4775 C4774 1.386 . S
C4775 C4779 1.393 . S
C4776 H4765 0.950 . S
C4776 C4774 1.391 . S
C4776 C4777 1.400 . S
C4777 C4771 1.491 . S
C4777 C4776 1.400 . S
C4777 C4778 1.398 . S
C4778 H4766 0.950 . S
C4778 C4777 1.398 . S
C4778 C4779 1.391 . S
C4779 H4767 0.950 . S
C4779 C4775 1.393 . S
C4779 C4778 1.391 . S
H4780 C4788 0.950 . S
H4781 C4793 0.950 . S
H4782 C4790 0.950 . S
H4783 C4792 0.950 . S
H4784 C4794 0.950 . S
H4785 C4796 0.950 . S
H4786 C4798 0.950 . S
H4787 C4799 0.950 . S
C4788 H4780 0.950 . S
C4788 C4789 1.386 . S
C4788 C4790 1.391 . S
C4789 C4788 1.386 . S
C4789 C4793 1.393 . S
C4790 H4782 0.950 . S
C4790 C4788 1.391 . S
C4790 C4791 1.400 . S
C4791 C4790 1.400 . S
C4791 C4792 1.398 . S
C4791 C4797 1.491 . S
C4792 H4783 0.950 . S
C4792 C4791 1.398 . S
C4792 C4793 1.391 . S
C4793 H4781 0.950 . S
C4793 C4789 1.393 . S
C4793 C4792 1.391 . S
C4794 H4784 0.950 . S
C4794 C4795 1.386 . S
C4794 C4796 1.391 . S
C4795 C4794 1.386 . S
C4795 C4799 1.393 . S
C4796 H4785 0.950 . S
C4796 C4794 1.391 . S
C4796 C4797 1.400 . S
C4797 C4791 1.491 . S
C4797 C4796 1.400 . S
C4797 C4798 1.398 . S
C4798 H4786 0.950 . S
C4798 C4797 1.398 . S
C4798 C4799 1.391 . S
C4799 H4787 0.950 . S
C4799 C4795 1.393 . S
C4799 C4798 1.391 . S
H4800 C4808 0.950 . S
H4801 C4813 0.950 . S
H4802 C4810 0.950 . S
H4803 C4812 0.950 . S
H4804 C4814 0.950 . S
H4805 C4816 0.950 . S
H4806 C4818 0.950 . S
H4807 C4819 0.950 . S
C4808 H4800 0.950 . S
C4808 C4809 1.386 . S
C4808 C4810 1.391 . S
C4809 C4808 1.386 . S
C4809 C4813 1.393 . S
C4810 H4802 0.950 . S
C4810 C4808 1.391 . S
C4810 C4811 1.400 . S
C4811 C4810 1.400 . S
C4811 C4812 1.398 . S
C4811 C4817 1.491 . S
C4812 H4803 0.950 . S
C4812 C4811 1.398 . S
C4812 C4813 1.391 . S
C4813 H4801 0.950 . S
C4813 C4809 1.393 . S
C4813 C4812 1.391 . S
C4814 H4804 0.950 . S
C4814 C4815 1.386 . S
C4814 C4816 1.391 . S
C4815 C4814 1.386 . S
C4815 C4819 1.393 . S
C4816 H4805 0.950 . S
C4816 C4814 1.391 . S
C4816 C4817 1.400 . S
C4817 C4811 1.491 . S
C4817 C4816 1.400 . S
C4817 C4818 1.398 . S
C4818 H4806 0.950 . S
C4818 C4817 1.398 . S
C4818 C4819 1.391 . S
C4819 H4807 0.950 . S
C4819 C4815 1.393 . S
C4819 C4818 1.391 . S
H4820 C4828 0.950 . S
H4821 C4833 0.950 . S
H4822 C4830 0.950 . S
H4823 C4832 0.950 . S
H4824 C4834 0.950 . S
H4825 C4836 0.950 . S
H4826 C4838 0.950 . S
H4827 C4839 0.950 . S
C4828 H4820 0.950 . S
C4828 C4829 1.386 . S
C4828 C4830 1.391 . S
C4829 C4828 1.386 . S
C4829 C4833 1.393 . S
C4830 H4822 0.950 . S
C4830 C4828 1.391 . S
C4830 C4831 1.400 . S
C4831 C4830 1.400 . S
C4831 C4832 1.398 . S
C4831 C4837 1.491 . S
C4832 H4823 0.950 . S
C4832 C4831 1.398 . S
C4832 C4833 1.391 . S
C4833 H4821 0.950 . S
C4833 C4829 1.393 . S
C4833 C4832 1.391 . S
C4834 H4824 0.950 . S
C4834 C4835 1.386 . S
C4834 C4836 1.391 . S
C4835 C4834 1.386 . S
C4835 C4839 1.393 . S
C4836 H4825 0.950 . S
C4836 C4834 1.391 . S
C4836 C4837 1.400 . S
C4837 C4831 1.491 . S
C4837 C4836 1.400 . S
C4837 C4838 1.398 . S
C4838 H4826 0.950 . S
C4838 C4837 1.398 . S
C4838 C4839 1.391 . S
C4839 H4827 0.950 . S
C4839 C4835 1.393 . S
C4839 C4838 1.391 . S
H4840 C4848 0.950 . S
H4841 C4853 0.950 . S
H4842 C4850 0.950 . S
H4843 C4852 0.950 . S
H4844 C4854 0.950 . S
H4845 C4856 0.950 . S
H4846 C4858 0.950 . S
H4847 C4859 0.950 . S
C4848 H4840 0.950 . S
C4848 C4849 1.386 . S
C4848 C4850 1.391 . S
C4849 C4848 1.386 . S
C4849 C4853 1.393 . S
C4850 H4842 0.950 . S
C4850 C4848 1.391 . S
C4850 C4851 1.400 . S
C4851 C4850 1.400 . S
C4851 C4852 1.398 . S
C4851 C4857 1.491 . S
C4852 H4843 0.950 . S
C4852 C4851 1.398 . S
C4852 C4853 1.391 . S
C4853 H4841 0.950 . S
C4853 C4849 1.393 . S
C4853 C4852 1.391 . S
C4854 H4844 0.950 . S
C4854 C4855 1.386 . S
C4854 C4856 1.391 . S
C4855 C4854 1.386 . S
C4855 C4859 1.393 . S
C4856 H4845 0.950 . S
C4856 C4854 1.391 . S
C4856 C4857 1.400 . S
C4857 C4851 1.491 . S
C4857 C4856 1.400 . S
C4857 C4858 1.398 . S
C4858 H4846 0.950 . S
C4858 C4857 1.398 . S
C4858 C4859 1.391 . S
C4859 H4847 0.950 . S
C4859 C4855 1.393 . S
C4859 C4858 1.391 . S
H4860 C4868 0.950 . S
H4861 C4873 0.950 . S
H4862 C4870 0.950 . S
H4863 C4872 0.950 . S
H4864 C4874 0.950 . S
H4865 C4876 0.950 . S
H4866 C4878 0.963 . S
H4867 C4879 0.950 . S
C4868 H4860 0.950 . S
C4868 C4869 1.386 . S
C4868 C4870 1.391 . S
C4869 C4868 1.386 . S
C4869 C4873 1.393 . S
C4870 H4862 0.950 . S
C4870 C4868 1.391 . S
C4870 C4871 1.400 . S
C4871 C4870 1.400 . S
C4871 C4872 1.398 . S
C4871 C4877 1.491 . S
C4872 H4863 0.950 . S
C4872 C4871 1.398 . S
C4872 C4873 1.391 . S
C4873 H4861 0.950 . S
C4873 C4869 1.393 . S
C4873 C4872 1.391 . S
C4874 H4864 0.950 . S
C4874 C4875 1.386 . S
C4874 C4876 1.391 1_655 S
C4875 C4874 1.386 . S
C4875 C4879 1.393 . S
C4876 H4865 0.950 . S
C4876 C4874 1.391 1_455 S
C4876 C4877 1.400 . S
C4877 C4871 1.491 . S
C4877 C4876 1.400 . S
C4877 C4878 1.459 . S
C4878 H4866 0.963 . S
C4878 C4877 1.459 . S
C4878 C4879 1.322 1_455 S
C4879 H4867 0.950 . S
C4879 C4875 1.393 . S
C4879 C4878 1.322 1_655 S
H4880 C4888 0.950 . S
H4881 C4893 0.950 . S
H4882 C4890 0.950 . S
H4883 C4892 0.950 . S
H4884 C4894 0.950 . S
H4885 C4896 0.950 . S
H4886 C4898 0.950 . S
H4887 C4899 0.950 . S
C4888 H4880 0.950 . S
C4888 C4889 1.386 . S
C4888 C4890 1.391 . S
C4889 C4888 1.386 . S
C4889 C4893 1.393 . S
C4890 H4882 0.950 . S
C4890 C4888 1.391 . S
C4890 C4891 1.400 . S
C4891 C4890 1.400 . S
C4891 C4892 1.398 . S
C4891 C4897 1.491 . S
C4892 H4883 0.950 . S
C4892 C4891 1.398 . S
C4892 C4893 1.391 . S
C4893 H4881 0.950 . S
C4893 C4889 1.393 . S
C4893 C4892 1.391 . S
C4894 H4884 0.950 . S
C4894 C4895 1.386 . S
C4894 C4896 1.391 . S
C4895 C4894 1.386 . S
C4895 C4899 1.393 . S
C4896 H4885 0.950 . S
C4896 C4894 1.391 . S
C4896 C4897 1.400 . S
C4897 C4891 1.491 . S
C4897 C4896 1.400 . S
C4897 C4898 1.398 . S
C4898 H4886 0.950 . S
C4898 C4897 1.398 . S
C4898 C4899 1.391 . S
C4899 H4887 0.950 . S
C4899 C4895 1.393 . S
C4899 C4898 1.391 . S
H4900 C4908 0.950 . S
H4901 C4913 0.950 . S
H4902 C4910 0.950 . S
H4903 C4912 0.950 . S
H4904 C4914 0.950 . S
H4905 C4916 0.964 . S
H4906 C4918 0.950 . S
H4907 C4919 0.950 . S
C4908 H4900 0.950 . S
C4908 C4909 1.386 . S
C4908 C4910 1.391 . S
C4909 C4908 1.386 . S
C4909 C4913 1.393 . S
C4910 H4902 0.950 . S
C4910 C4908 1.391 . S
C4910 C4911 1.400 . S
C4911 C4910 1.400 . S
C4911 C4912 1.398 . S
C4911 C4917 1.491 . S
C4912 H4903 0.950 . S
C4912 C4911 1.398 . S
C4912 C4913 1.391 . S
C4913 H4901 0.950 . S
C4913 C4909 1.393 . S
C4913 C4912 1.391 . S
C4914 H4904 0.950 . S
C4914 C4915 1.386 . S
C4914 C4916 1.314 1_655 S
C4915 C4914 1.386 . S
C4915 C4919 1.393 . S
C4916 H4905 0.964 . S
C4916 C4914 1.314 1_455 S
C4916 C4917 1.470 . S
C4917 C4911 1.491 . S
C4917 C4916 1.470 . S
C4917 C4918 1.398 . S
C4918 H4906 0.950 . S
C4918 C4917 1.398 . S
C4918 C4919 1.391 1_455 S
C4919 H4907 0.950 . S
C4919 C4915 1.393 . S
C4919 C4918 1.391 1_655 S
H4920 C4928 0.950 . S
H4921 C4933 0.950 . S
H4922 C4930 0.950 . S
H4923 C4932 0.950 . S
H4924 C4934 0.950 . S
H4925 C4936 0.950 . S
H4926 C4938 0.950 . S
H4927 C4939 0.950 . S
C4928 H4920 0.950 . S
C4928 C4929 1.386 . S
C4928 C4930 1.391 . S
C4929 C4928 1.386 . S
C4929 C4933 1.393 . S
C4930 H4922 0.950 . S
C4930 C4928 1.391 . S
C4930 C4931 1.400 . S
C4931 C4930 1.400 . S
C4931 C4932 1.398 . S
C4931 C4937 1.491 . S
C4932 H4923 0.950 . S
C4932 C4931 1.398 . S
C4932 C4933 1.391 . S
C4933 H4921 0.950 . S
C4933 C4929 1.393 . S
C4933 C4932 1.391 . S
C4934 H4924 0.950 . S
C4934 C4935 1.386 . S
C4934 C4936 1.391 . S
C4935 C4934 1.386 . S
C4935 C4939 1.393 . S
C4936 H4925 0.950 . S
C4936 C4934 1.391 . S
C4936 C4937 1.400 . S
C4937 C4931 1.491 . S
C4937 C4936 1.400 . S
C4937 C4938 1.398 . S
C4938 H4926 0.950 . S
C4938 C4937 1.398 . S
C4938 C4939 1.391 . S
C4939 H4927 0.950 . S
C4939 C4935 1.393 . S
C4939 C4938 1.391 . S
H4940 C4948 0.950 . S
H4941 C4953 0.950 . S
H4942 C4950 0.950 . S
H4943 C4952 0.950 . S
H4944 C4954 0.950 . S
H4945 C4956 0.950 . S
H4946 C4958 0.950 . S
H4947 C4959 0.950 . S
C4948 H4940 0.950 . S
C4948 C4949 1.386 . S
C4948 C4950 1.391 . S
C4949 C4948 1.386 . S
C4949 C4953 1.393 . S
C4950 H4942 0.950 . S
C4950 C4948 1.391 . S
C4950 C4951 1.400 . S
C4951 C4950 1.400 . S
C4951 C4952 1.398 . S
C4951 C4957 1.491 . S
C4952 H4943 0.950 . S
C4952 C4951 1.398 . S
C4952 C4953 1.391 . S
C4953 H4941 0.950 . S
C4953 C4949 1.393 . S
C4953 C4952 1.391 . S
C4954 H4944 0.950 . S
C4954 C4955 1.386 . S
C4954 C4956 1.391 . S
C4955 C4954 1.386 . S
C4955 C4959 1.393 . S
C4956 H4945 0.950 . S
C4956 C4954 1.391 . S
C4956 C4957 1.400 . S
C4957 C4951 1.491 . S
C4957 C4956 1.400 . S
C4957 C4958 1.398 . S
C4958 H4946 0.950 . S
C4958 C4957 1.398 . S
C4958 C4959 1.391 . S
C4959 H4947 0.950 . S
C4959 C4955 1.393 . S
C4959 C4958 1.391 . S
H4960 C4968 0.950 . S
H4961 C4973 0.950 . S
H4962 C4970 0.950 . S
H4963 C4972 0.950 . S
H4964 C4974 0.950 . S
H4965 C4976 0.950 . S
H4966 C4978 0.950 . S
H4967 C4979 0.950 . S
C4968 H4960 0.950 . S
C4968 C4969 1.386 . S
C4968 C4970 1.391 . S
C4969 C4968 1.386 . S
C4969 C4973 1.393 . S
C4970 H4962 0.950 . S
C4970 C4968 1.391 . S
C4970 C4971 1.400 . S
C4971 C4970 1.400 . S
C4971 C4972 1.398 . S
C4971 C4977 1.491 . S
C4972 H4963 0.950 . S
C4972 C4971 1.398 . S
C4972 C4973 1.391 . S
C4973 H4961 0.950 . S
C4973 C4969 1.393 . S
C4973 C4972 1.391 . S
C4974 H4964 0.950 . S
C4974 C4975 1.386 . S
C4974 C4976 1.391 . S
C4975 C4974 1.386 . S
C4975 C4979 1.393 . S
C4976 H4965 0.950 . S
C4976 C4974 1.391 . S
C4976 C4977 1.400 . S
C4977 C4971 1.491 . S
C4977 C4976 1.400 . S
C4977 C4978 1.398 . S
C4978 H4966 0.950 . S
C4978 C4977 1.398 . S
C4978 C4979 1.391 . S
C4979 H4967 0.950 . S
C4979 C4975 1.393 . S
C4979 C4978 1.391 . S
H4980 C4988 0.950 . S
H4981 C4993 0.950 . S
H4982 C4990 0.947 . S
H4983 C4992 0.950 . S
H4984 C4994 0.950 . S
H4985 C4996 0.950 . S
H4986 C4998 0.950 . S
H4987 C4999 0.950 . S
C4988 H4980 0.950 . S
C4988 C4989 1.386 . S
C4988 C4990 1.375 1_556 S
C4989 C4988 1.386 . S
C4989 C4993 1.393 . S
C4990 H4982 0.947 . S
C4990 C4988 1.375 1_554 S
C4990 C4991 1.415 . S
C4991 C4990 1.415 . S
C4991 C4992 1.398 . S
C4991 C4997 1.491 . S
C4992 H4983 0.950 . S
C4992 C4991 1.398 . S
C4992 C4993 1.391 1_554 S
C4993 H4981 0.950 . S
C4993 C4989 1.393 . S
C4993 C4992 1.391 1_556 S
C4994 H4984 0.950 . S
C4994 C4995 1.386 . S
C4994 C4996 1.391 . S
C4995 C4994 1.386 . S
C4995 C4999 1.393 . S
C4996 H4985 0.950 . S
C4996 C4994 1.391 . S
C4996 C4997 1.400 . S
C4997 C4991 1.491 . S
C4997 C4996 1.400 . S
C4997 C4998 1.398 . S
C4998 H4986 0.950 . S
C4998 C4997 1.398 . S
C4998 C4999 1.391 . S
C4999 H4987 0.950 . S
C4999 C4995 1.393 . S
C4999 C4998 1.391 . S
H5000 C5008 0.950 . S
H5001 C5013 0.950 . S
H5002 C5010 0.950 . S
H5003 C5012 0.950 . S
H5004 C5014 0.950 . S
H5005 C5016 0.950 . S
H5006 C5018 0.950 . S
H5007 C5019 0.950 . S
C5008 H5000 0.950 . S
C5008 C5009 1.386 . S
C5008 C5010 1.391 . S
C5009 C5008 1.386 . S
C5009 C5013 1.393 . S
C5010 H5002 0.950 . S
C5010 C5008 1.391 . S
C5010 C5011 1.400 . S
C5011 C5010 1.400 . S
C5011 C5012 1.398 . S
C5011 C5017 1.491 . S
C5012 H5003 0.950 . S
C5012 C5011 1.398 . S
C5012 C5013 1.391 . S
C5013 H5001 0.950 . S
C5013 C5009 1.393 . S
C5013 C5012 1.391 . S
C5014 H5004 0.950 . S
C5014 C5015 1.386 . S
C5014 C5016 1.391 . S
C5015 C5014 1.386 . S
C5015 C5019 1.393 . S
C5016 H5005 0.950 . S
C5016 C5014 1.391 . S
C5016 C5017 1.400 . S
C5017 C5011 1.491 . S
C5017 C5016 1.400 . S
C5017 C5018 1.398 . S
C5018 H5006 0.950 . S
C5018 C5017 1.398 . S
C5018 C5019 1.391 . S
C5019 H5007 0.950 . S
C5019 C5015 1.393 . S
C5019 C5018 1.391 . S
H5020 C5028 0.950 . S
H5021 C5033 0.950 . S
H5022 C5030 0.950 . S
H5023 C5032 0.950 . S
H5024 C5034 0.950 . S
H5025 C5036 0.950 . S
H5026 C5038 0.950 . S
H5027 C5039 0.950 . S
C5028 H5020 0.950 . S
C5028 C5029 1.386 . S
C5028 C5030 1.391 . S
C5029 C5028 1.386 . S
C5029 C5033 1.393 . S
C5030 H5022 0.950 . S
C5030 C5028 1.391 . S
C5030 C5031 1.400 . S
C5031 C5030 1.400 . S
C5031 C5032 1.398 . S
C5031 C5037 1.491 . S
C5032 H5023 0.950 . S
C5032 C5031 1.398 . S
C5032 C5033 1.391 . S
C5033 H5021 0.950 . S
C5033 C5029 1.393 . S
C5033 C5032 1.391 . S
C5034 H5024 0.950 . S
C5034 C5035 1.386 . S
C5034 C5036 1.391 . S
C5035 C5034 1.386 . S
C5035 C5039 1.393 . S
C5036 H5025 0.950 . S
C5036 C5034 1.391 . S
C5036 C5037 1.400 . S
C5037 C5031 1.491 . S
C5037 C5036 1.400 . S
C5037 C5038 1.398 . S
C5038 H5026 0.950 . S
C5038 C5037 1.398 . S
C5038 C5039 1.391 . S
C5039 H5027 0.950 . S
C5039 C5035 1.393 . S
C5039 C5038 1.391 . S
H5040 C5048 0.950 . S
H5041 C5053 0.950 . S
H5042 C5050 0.950 . S
H5043 C5052 0.950 . S
H5044 C5054 0.950 . S
H5045 C5056 0.950 . S
H5046 C5058 0.950 . S
H5047 C5059 0.950 . S
C5048 H5040 0.950 . S
C5048 C5049 1.386 . S
C5048 C5050 1.391 . S
C5049 C5048 1.386 . S
C5049 C5053 1.393 . S
C5050 H5042 0.950 . S
C5050 C5048 1.391 . S
C5050 C5051 1.400 . S
C5051 C5050 1.400 . S
C5051 C5052 1.398 . S
C5051 C5057 1.491 . S
C5052 H5043 0.950 . S
C5052 C5051 1.398 . S
C5052 C5053 1.391 . S
C5053 H5041 0.950 . S
C5053 C5049 1.393 . S
C5053 C5052 1.391 . S
C5054 H5044 0.950 . S
C5054 C5055 1.386 . S
C5054 C5056 1.391 . S
C5055 C5054 1.386 . S
C5055 C5059 1.393 . S
C5056 H5045 0.950 . S
C5056 C5054 1.391 . S
C5056 C5057 1.400 . S
C5057 C5051 1.491 . S
C5057 C5056 1.400 . S
C5057 C5058 1.398 . S
C5058 H5046 0.950 . S
C5058 C5057 1.398 . S
C5058 C5059 1.391 . S
C5059 H5047 0.950 . S
C5059 C5055 1.393 . S
C5059 C5058 1.391 . S
H5060 C5068 0.950 . S
H5061 C5073 0.950 . S
H5062 C5070 0.950 . S
H5063 C5072 0.950 . S
H5064 C5074 0.950 . S
H5065 C5076 0.950 . S
H5066 C5078 0.950 . S
H5067 C5079 0.950 . S
C5068 H5060 0.950 . S
C5068 C5069 1.386 . S
C5068 C5070 1.391 1_554 S
C5069 C5068 1.386 . S
C5069 C5073 1.393 . S
C5070 H5062 0.950 . S
C5070 C5068 1.391 1_556 S
C5070 C5071 1.400 . S
C5071 C5070 1.400 . S
C5071 C5072 1.398 . S
C5071 C5077 1.491 . S
C5072 H5063 0.950 . S
C5072 C5071 1.398 . S
C5072 C5073 1.391 1_556 S
C5073 H5061 0.950 . S
C5073 C5069 1.393 . S
C5073 C5072 1.391 1_554 S
C5074 H5064 0.950 . S
C5074 C5075 1.386 . S
C5074 C5076 1.391 . S
C5075 C5074 1.386 . S
C5075 C5079 1.393 . S
C5076 H5065 0.950 . S
C5076 C5074 1.391 . S
C5076 C5077 1.400 . S
C5077 C5071 1.491 . S
C5077 C5076 1.400 . S
C5077 C5078 1.398 . S
C5078 H5066 0.950 . S
C5078 C5077 1.398 . S
C5078 C5079 1.391 . S
C5079 H5067 0.950 . S
C5079 C5075 1.393 . S
C5079 C5078 1.391 . S
H5080 C5088 0.950 . S
H5081 C5093 0.950 . S
H5082 C5090 0.950 . S
H5083 C5092 0.950 . S
H5084 C5094 0.950 . S
H5085 C5096 0.950 . S
H5086 C5098 0.950 . S
H5087 C5099 0.950 . S
C5088 H5080 0.950 . S
C5088 C5089 1.386 . S
C5088 C5090 1.391 . S
C5089 C5088 1.386 . S
C5089 C5093 1.393 . S
C5090 H5082 0.950 . S
C5090 C5088 1.391 . S
C5090 C5091 1.400 . S
C5091 C5090 1.400 . S
C5091 C5092 1.398 . S
C5091 C5097 1.491 . S
C5092 H5083 0.950 . S
C5092 C5091 1.398 . S
C5092 C5093 1.391 . S
C5093 H5081 0.950 . S
C5093 C5089 1.393 . S
C5093 C5092 1.391 . S
C5094 H5084 0.950 . S
C5094 C5095 1.386 . S
C5094 C5096 1.391 . S
C5095 C5094 1.386 . S
C5095 C5099 1.393 . S
C5096 H5085 0.950 . S
C5096 C5094 1.391 . S
C5096 C5097 1.400 . S
C5097 C5091 1.491 . S
C5097 C5096 1.400 . S
C5097 C5098 1.398 . S
C5098 H5086 0.950 . S
C5098 C5097 1.398 . S
C5098 C5099 1.391 . S
C5099 H5087 0.950 . S
C5099 C5095 1.393 . S
C5099 C5098 1.391 . S
H5100 C5108 0.950 . S
H5101 C5113 0.950 . S
H5102 C5110 0.950 . S
H5103 C5112 0.950 . S
H5104 C5114 0.950 . S
H5105 C5116 0.950 . S
H5106 C5118 0.950 . S
H5107 C5119 0.950 . S
C5108 H5100 0.950 . S
C5108 C5109 1.386 . S
C5108 C5110 1.391 . S
C5109 C5108 1.386 . S
C5109 C5113 1.393 . S
C5110 H5102 0.950 . S
C5110 C5108 1.391 . S
C5110 C5111 1.400 . S
C5111 C5110 1.400 . S
C5111 C5112 1.398 . S
C5111 C5117 1.491 . S
C5112 H5103 0.950 . S
C5112 C5111 1.398 . S
C5112 C5113 1.391 . S
C5113 H5101 0.950 . S
C5113 C5109 1.393 . S
C5113 C5112 1.391 . S
C5114 H5104 0.950 . S
C5114 C5115 1.386 . S
C5114 C5116 1.391 . S
C5115 C5114 1.386 . S
C5115 C5119 1.393 . S
C5116 H5105 0.950 . S
C5116 C5114 1.391 . S
C5116 C5117 1.400 . S
C5117 C5111 1.491 . S
C5117 C5116 1.400 . S
C5117 C5118 1.398 . S
C5118 H5106 0.950 . S
C5118 C5117 1.398 . S
C5118 C5119 1.391 . S
C5119 H5107 0.950 . S
C5119 C5115 1.393 . S
C5119 C5118 1.391 . S
H5120 C5128 0.950 . S
H5121 C5133 0.950 . S
H5122 C5130 0.950 . S
H5123 C5132 0.950 . S
H5124 C5134 0.950 . S
H5125 C5136 0.950 . S
H5126 C5138 0.950 . S
H5127 C5139 0.950 . S
C5128 H5120 0.950 . S
C5128 C5129 1.386 . S
C5128 C5130 1.391 . S
C5129 C5128 1.386 . S
C5129 C5133 1.393 . S
C5130 H5122 0.950 . S
C5130 C5128 1.391 . S
C5130 C5131 1.400 . S
C5131 C5130 1.400 . S
C5131 C5132 1.398 . S
C5131 C5137 1.491 . S
C5132 H5123 0.950 . S
C5132 C5131 1.398 . S
C5132 C5133 1.391 . S
C5133 H5121 0.950 . S
C5133 C5129 1.393 . S
C5133 C5132 1.391 . S
C5134 H5124 0.950 . S
C5134 C5135 1.386 . S
C5134 C5136 1.391 . S
C5135 C5134 1.386 . S
C5135 C5139 1.393 . S
C5136 H5125 0.950 . S
C5136 C5134 1.391 . S
C5136 C5137 1.400 . S
C5137 C5131 1.491 . S
C5137 C5136 1.400 . S
C5137 C5138 1.398 . S
C5138 H5126 0.950 . S
C5138 C5137 1.398 . S
C5138 C5139 1.391 . S
C5139 H5127 0.950 . S
C5139 C5135 1.393 . S
C5139 C5138 1.391 . S
H5140 C5148 0.950 . S
H5141 C5153 0.950 . S
H5142 C5150 0.950 . S
H5143 C5152 0.950 . S
H5144 C5154 0.950 . S
H5145 C5156 0.950 . S
H5146 C5158 0.950 . S
H5147 C5159 0.950 . S
C5148 H5140 0.950 . S
C5148 C5149 1.386 . S
C5148 C5150 1.391 . S
C5149 C5148 1.386 . S
C5149 C5153 1.393 . S
C5150 H5142 0.950 . S
C5150 C5148 1.391 . S
C5150 C5151 1.400 . S
C5151 C5150 1.400 . S
C5151 C5152 1.398 . S
C5151 C5157 1.491 . S
C5152 H5143 0.950 . S
C5152 C5151 1.398 . S
C5152 C5153 1.391 . S
C5153 H5141 0.950 . S
C5153 C5149 1.393 . S
C5153 C5152 1.391 . S
C5154 H5144 0.950 . S
C5154 C5155 1.386 . S
C5154 C5156 1.391 . S
C5155 C5154 1.386 . S
C5155 C5159 1.393 . S
C5156 H5145 0.950 . S
C5156 C5154 1.391 . S
C5156 C5157 1.400 . S
C5157 C5151 1.491 . S
C5157 C5156 1.400 . S
C5157 C5158 1.398 . S
C5158 H5146 0.950 . S
C5158 C5157 1.398 . S
C5158 C5159 1.391 . S
C5159 H5147 0.950 . S
C5159 C5155 1.393 . S
C5159 C5158 1.391 . S
H5160 C5168 0.950 . S
H5161 C5173 0.950 . S
H5162 C5170 0.950 . S
H5163 C5172 0.950 . S
H5164 C5174 0.950 . S
H5165 C5176 0.950 . S
H5166 C5178 0.950 . S
H5167 C5179 0.950 . S
C5168 H5160 0.950 . S
C5168 C5169 1.386 . S
C5168 C5170 1.391 . S
C5169 C5168 1.386 . S
C5169 C5173 1.393 . S
C5170 H5162 0.950 . S
C5170 C5168 1.391 . S
C5170 C5171 1.400 . S
C5171 C5170 1.400 . S
C5171 C5172 1.398 . S
C5171 C5177 1.491 . S
C5172 H5163 0.950 . S
C5172 C5171 1.398 . S
C5172 C5173 1.391 . S
C5173 H5161 0.950 . S
C5173 C5169 1.393 . S
C5173 C5172 1.391 . S
C5174 H5164 0.950 . S
C5174 C5175 1.386 . S
C5174 C5176 1.391 1_565 S
C5175 C5174 1.386 . S
C5175 C5179 1.393 . S
C5176 H5165 0.950 . S
C5176 C5174 1.391 1_545 S
C5176 C5177 1.400 . S
C5177 C5171 1.491 . S
C5177 C5176 1.400 . S
C5177 C5178 1.398 . S
C5178 H5166 0.950 . S
C5178 C5177 1.398 . S
C5178 C5179 1.391 1_545 S
C5179 H5167 0.950 . S
C5179 C5175 1.393 . S
C5179 C5178 1.391 1_565 S
H5180 C5188 0.950 . S
H5181 C5193 0.950 . S
H5182 C5190 0.950 . S
H5183 C5192 0.950 . S
H5184 C5194 0.950 . S
H5185 C5196 0.950 . S
H5186 C5198 0.950 . S
H5187 C5199 0.950 . S
C5188 H5180 0.950 . S
C5188 C5189 1.386 . S
C5188 C5190 1.391 . S
C5189 C5188 1.386 . S
C5189 C5193 1.393 . S
C5190 H5182 0.950 . S
C5190 C5188 1.391 . S
C5190 C5191 1.400 . S
C5191 C5190 1.400 . S
C5191 C5192 1.398 . S
C5191 C5197 1.491 . S
C5192 H5183 0.950 . S
C5192 C5191 1.398 . S
C5192 C5193 1.391 . S
C5193 H5181 0.950 . S
C5193 C5189 1.393 . S
C5193 C5192 1.391 . S
C5194 H5184 0.950 . S
C5194 C5195 1.386 . S
C5194 C5196 1.391 . S
C5195 C5194 1.386 . S
C5195 C5199 1.393 . S
C5196 H5185 0.950 . S
C5196 C5194 1.391 . S
C5196 C5197 1.400 . S
C5197 C5191 1.491 . S
C5197 C5196 1.400 . S
C5197 C5198 1.398 . S
C5198 H5186 0.950 . S
C5198 C5197 1.398 . S
C5198 C5199 1.391 . S
C5199 H5187 0.950 . S
C5199 C5195 1.393 . S
C5199 C5198 1.391 . S
H5200 C5208 0.950 . S
H5201 C5213 0.950 . S
H5202 C5210 0.950 . S
H5203 C5212 0.950 . S
H5204 C5214 0.950 . S
H5205 C5216 0.950 . S
H5206 C5218 0.950 . S
H5207 C5219 0.950 . S
C5208 H5200 0.950 . S
C5208 C5209 1.386 . S
C5208 C5210 1.391 . S
C5209 C5208 1.386 . S
C5209 C5213 1.393 . S
C5210 H5202 0.950 . S
C5210 C5208 1.391 . S
C5210 C5211 1.400 . S
C5211 C5210 1.400 . S
C5211 C5212 1.398 . S
C5211 C5217 1.491 . S
C5212 H5203 0.950 . S
C5212 C5211 1.398 . S
C5212 C5213 1.391 . S
C5213 H5201 0.950 . S
C5213 C5209 1.393 . S
C5213 C5212 1.391 . S
C5214 H5204 0.950 . S
C5214 C5215 1.386 . S
C5214 C5216 1.391 . S
C5215 C5214 1.386 . S
C5215 C5219 1.393 . S
C5216 H5205 0.950 . S
C5216 C5214 1.391 . S
C5216 C5217 1.400 . S
C5217 C5211 1.491 . S
C5217 C5216 1.400 . S
C5217 C5218 1.398 . S
C5218 H5206 0.950 . S
C5218 C5217 1.398 . S
C5218 C5219 1.391 . S
C5219 H5207 0.950 . S
C5219 C5215 1.393 . S
C5219 C5218 1.391 . S
H5220 C5228 0.950 . S
H5221 C5233 0.950 . S
H5222 C5230 0.950 . S
H5223 C5232 0.950 . S
H5224 C5234 0.950 . S
H5225 C5236 0.950 . S
H5226 C5238 0.950 . S
H5227 C5239 0.950 . S
C5228 H5220 0.950 . S
C5228 C5229 1.386 . S
C5228 C5230 1.391 . S
C5229 C5228 1.386 . S
C5229 C5233 1.393 . S
C5230 H5222 0.950 . S
C5230 C5228 1.391 . S
C5230 C5231 1.400 . S
C5231 C5230 1.400 . S
C5231 C5232 1.398 . S
C5231 C5237 1.491 . S
C5232 H5223 0.950 . S
C5232 C5231 1.398 . S
C5232 C5233 1.391 . S
C5233 H5221 0.950 . S
C5233 C5229 1.393 . S
C5233 C5232 1.391 . S
C5234 H5224 0.950 . S
C5234 C5235 1.386 . S
C5234 C5236 1.391 . S
C5235 C5234 1.386 . S
C5235 C5239 1.393 . S
C5236 H5225 0.950 . S
C5236 C5234 1.391 . S
C5236 C5237 1.400 . S
C5237 C5231 1.491 . S
C5237 C5236 1.400 . S
C5237 C5238 1.398 . S
C5238 H5226 0.950 . S
C5238 C5237 1.398 . S
C5238 C5239 1.391 . S
C5239 H5227 0.950 . S
C5239 C5235 1.393 . S
C5239 C5238 1.391 . S
H5240 C5248 0.950 . S
H5241 C5253 0.950 . S
H5242 C5250 0.950 . S
H5243 C5252 0.950 . S
H5244 C5254 0.950 . S
H5245 C5256 0.950 . S
H5246 C5258 0.950 . S
H5247 C5259 0.950 . S
C5248 H5240 0.950 . S
C5248 C5249 1.386 . S
C5248 C5250 1.391 . S
C5249 C5248 1.386 . S
C5249 C5253 1.393 . S
C5250 H5242 0.950 . S
C5250 C5248 1.391 . S
C5250 C5251 1.400 . S
C5251 C5250 1.400 . S
C5251 C5252 1.398 . S
C5251 C5257 1.491 . S
C5252 H5243 0.950 . S
C5252 C5251 1.398 . S
C5252 C5253 1.391 . S
C5253 H5241 0.950 . S
C5253 C5249 1.393 . S
C5253 C5252 1.391 . S
C5254 H5244 0.950 . S
C5254 C5255 1.386 . S
C5254 C5256 1.391 1_545 S
C5255 C5254 1.386 . S
C5255 C5259 1.393 . S
C5256 H5245 0.950 . S
C5256 C5254 1.391 1_565 S
C5256 C5257 1.400 . S
C5257 C5251 1.491 . S
C5257 C5256 1.400 . S
C5257 C5258 1.398 . S
C5258 H5246 0.950 . S
C5258 C5257 1.398 . S
C5258 C5259 1.391 1_565 S
C5259 H5247 0.950 . S
C5259 C5255 1.393 . S
C5259 C5258 1.391 1_545 S
H5260 C5268 0.949 . S
H5261 C5273 0.950 . S
H5262 C5270 0.950 . S
H5263 C5272 0.950 1_545 S
H5264 C5274 0.950 . S
H5265 C5276 0.950 . S
H5266 C5278 0.950 . S
H5267 C5279 0.950 . S
C5268 H5260 0.949 . S
C5268 C5269 1.478 . S
C5268 C5270 1.298 1_565 S
C5269 C5268 1.478 . S
C5269 C5273 1.393 . S
C5270 H5262 0.950 . S
C5270 C5268 1.298 1_545 S
C5270 C5271 1.400 . S
C5271 C5270 1.400 . S
C5271 C5272 1.411 1_545 S
C5271 C5277 1.491 . S
C5272 H5263 0.950 1_565 S
C5272 C5271 1.411 1_565 S
C5272 C5273 1.378 . S
C5273 H5261 0.950 . S
C5273 C5269 1.393 . S
C5273 C5272 1.378 . S
C5274 H5264 0.950 . S
C5274 C5275 1.386 . S
C5274 C5276 1.391 . S
C5275 C5274 1.386 . S
C5275 C5279 1.393 . S
C5276 H5265 0.950 . S
C5276 C5274 1.391 . S
C5276 C5277 1.400 . S
C5277 C5271 1.491 . S
C5277 C5276 1.400 . S
C5277 C5278 1.398 . S
C5278 H5266 0.950 . S
C5278 C5277 1.398 . S
C5278 C5279 1.391 . S
C5279 H5267 0.950 . S
C5279 C5275 1.393 . S
C5279 C5278 1.391 . S
H5280 C5288 0.950 . S
H5281 C5293 0.950 . S
H5282 C5290 0.950 . S
H5283 C5292 0.950 . S
H5284 C5294 0.950 . S
H5285 C5296 0.950 . S
H5286 C5298 0.950 . S
H5287 C5299 0.950 . S
C5288 H5280 0.950 . S
C5288 C5289 1.386 . S
C5288 C5290 1.391 . S
C5289 C5288 1.386 . S
C5289 C5293 1.393 . S
C5290 H5282 0.950 . S
C5290 C5288 1.391 . S
C5290 C5291 1.400 . S
C5291 C5290 1.400 . S
C5291 C5292 1.398 . S
C5291 C5297 1.491 . S
C5292 H5283 0.950 . S
C5292 C5291 1.398 . S
C5292 C5293 1.391 . S
C5293 H5281 0.950 . S
C5293 C5289 1.393 . S
C5293 C5292 1.391 . S
C5294 H5284 0.950 . S
C5294 C5295 1.386 . S
C5294 C5296 1.391 . S
C5295 C5294 1.386 . S
C5295 C5299 1.393 . S
C5296 H5285 0.950 . S
C5296 C5294 1.391 . S
C5296 C5297 1.400 . S
C5297 C5291 1.491 . S
C5297 C5296 1.400 . S
C5297 C5298 1.398 . S
C5298 H5286 0.950 . S
C5298 C5297 1.398 . S
C5298 C5299 1.391 . S
C5299 H5287 0.950 . S
C5299 C5295 1.393 . S
C5299 C5298 1.391 . S
H5300 C5308 0.950 . S
H5301 C5313 0.950 . S
H5302 C5310 0.950 . S
H5303 C5312 0.950 . S
H5304 C5314 0.950 . S
H5305 C5316 0.950 . S
H5306 C5318 0.950 . S
H5307 C5319 0.950 . S
C5308 H5300 0.950 . S
C5308 C5309 1.386 . S
C5308 C5310 1.391 . S
C5309 C5308 1.386 . S
C5309 C5313 1.393 . S
C5310 H5302 0.950 . S
C5310 C5308 1.391 . S
C5310 C5311 1.400 . S
C5311 C5310 1.400 . S
C5311 C5312 1.398 . S
C5311 C5317 1.491 . S
C5312 H5303 0.950 . S
C5312 C5311 1.398 . S
C5312 C5313 1.391 . S
C5313 H5301 0.950 . S
C5313 C5309 1.393 . S
C5313 C5312 1.391 . S
C5314 H5304 0.950 . S
C5314 C5315 1.386 . S
C5314 C5316 1.391 . S
C5315 C5314 1.386 . S
C5315 C5319 1.393 . S
C5316 H5305 0.950 . S
C5316 C5314 1.391 . S
C5316 C5317 1.400 . S
C5317 C5311 1.491 . S
C5317 C5316 1.400 . S
C5317 C5318 1.398 . S
C5318 H5306 0.950 . S
C5318 C5317 1.398 . S
C5318 C5319 1.391 . S
C5319 H5307 0.950 . S
C5319 C5315 1.393 . S
C5319 C5318 1.391 . S
H5320 C5328 0.950 . S
H5321 C5333 0.950 . S
H5322 C5330 0.950 . S
H5323 C5332 0.950 . S
H5324 C5334 0.950 . S
H5325 C5336 0.950 . S
H5326 C5338 0.950 . S
H5327 C5339 0.950 . S
C5328 H5320 0.950 . S
C5328 C5329 1.386 . S
C5328 C5330 1.391 . S
C5329 C5328 1.386 . S
C5329 C5333 1.393 . S
C5330 H5322 0.950 . S
C5330 C5328 1.391 . S
C5330 C5331 1.400 . S
C5331 C5330 1.400 . S
C5331 C5332 1.398 . S
C5331 C5337 1.491 . S
C5332 H5323 0.950 . S
C5332 C5331 1.398 . S
C5332 C5333 1.391 . S
C5333 H5321 0.950 . S
C5333 C5329 1.393 . S
C5333 C5332 1.391 . S
C5334 H5324 0.950 . S
C5334 C5335 1.386 . S
C5334 C5336 1.391 . S
C5335 C5334 1.386 . S
C5335 C5339 1.393 . S
C5336 H5325 0.950 . S
C5336 C5334 1.391 . S
C5336 C5337 1.400 . S
C5337 C5331 1.491 . S
C5337 C5336 1.400 . S
C5337 C5338 1.398 . S
C5338 H5326 0.950 . S
C5338 C5337 1.398 . S
C5338 C5339 1.391 . S
C5339 H5327 0.950 . S
C5339 C5335 1.393 . S
C5339 C5338 1.391 . S
H5340 C5348 0.949 . S
H5341 C5353 0.950 . S
H5342 C5350 0.950 . S
H5343 C5352 0.950 . S
H5344 C5354 0.950 . S
H5345 C5356 0.950 . S
H5346 C5358 0.950 . S
H5347 C5359 0.950 . S
C5348 H5340 0.949 . S
C5348 C5349 1.438 . S
C5348 C5350 1.340 1_455 S
C5349 C5348 1.438 . S
C5349 C5353 1.393 . S
C5350 H5342 0.950 . S
C5350 C5348 1.340 1_655 S
C5350 C5351 1.400 . S
C5351 C5350 1.400 . S
C5351 C5352 1.354 1_655 S
C5351 C5357 1.491 . S
C5352 H5343 0.950 . S
C5352 C5351 1.354 1_455 S
C5352 C5353 1.435 . S
C5353 H5341 0.950 . S
C5353 C5349 1.393 . S
C5353 C5352 1.435 . S
C5354 H5344 0.950 . S
C5354 C5355 1.386 . S
C5354 C5356 1.391 . S
C5355 C5354 1.386 . S
C5355 C5359 1.393 . S
C5356 H5345 0.950 . S
C5356 C5354 1.391 . S
C5356 C5357 1.400 . S
C5357 C5351 1.491 . S
C5357 C5356 1.400 . S
C5357 C5358 1.398 . S
C5358 H5346 0.950 . S
C5358 C5357 1.398 . S
C5358 C5359 1.391 . S
C5359 H5347 0.950 . S
C5359 C5355 1.393 . S
C5359 C5358 1.391 . S
H5360 C5368 0.950 . S
H5361 C5373 0.950 . S
H5362 C5370 0.950 . S
H5363 C5372 0.950 . S
H5364 C5374 0.950 . S
H5365 C5376 0.950 . S
H5366 C5378 0.950 . S
H5367 C5379 0.950 . S
C5368 H5360 0.950 . S
C5368 C5369 1.386 . S
C5368 C5370 1.391 . S
C5369 C5368 1.386 . S
C5369 C5373 1.393 . S
C5370 H5362 0.950 . S
C5370 C5368 1.391 . S
C5370 C5371 1.400 . S
C5371 C5370 1.400 . S
C5371 C5372 1.398 . S
C5371 C5377 1.491 . S
C5372 H5363 0.950 . S
C5372 C5371 1.398 . S
C5372 C5373 1.391 . S
C5373 H5361 0.950 . S
C5373 C5369 1.393 . S
C5373 C5372 1.391 . S
C5374 H5364 0.950 . S
C5374 C5375 1.386 . S
C5374 C5376 1.391 . S
C5375 C5374 1.386 . S
C5375 C5379 1.393 . S
C5376 H5365 0.950 . S
C5376 C5374 1.391 . S
C5376 C5377 1.400 . S
C5377 C5371 1.491 . S
C5377 C5376 1.400 . S
C5377 C5378 1.398 . S
C5378 H5366 0.950 . S
C5378 C5377 1.398 . S
C5378 C5379 1.391 . S
C5379 H5367 0.950 . S
C5379 C5375 1.393 . S
C5379 C5378 1.391 . S
H5380 C5388 0.950 . S
H5381 C5393 0.950 . S
H5382 C5390 0.950 . S
H5383 C5392 0.969 . S
H5384 C5394 0.950 . S
H5385 C5396 0.950 . S
H5386 C5398 0.950 . S
H5387 C5399 0.950 . S
C5388 H5380 0.950 . S
C5388 C5389 1.386 . S
C5388 C5390 1.391 1_455 S
C5389 C5388 1.386 . S
C5389 C5393 1.393 . S
C5390 H5382 0.950 . S
C5390 C5388 1.391 1_655 S
C5390 C5391 1.400 . S
C5391 C5390 1.400 . S
C5391 C5392 1.477 . S
C5391 C5397 1.491 . S
C5392 H5383 0.969 . S
C5392 C5391 1.477 . S
C5392 C5393 1.301 1_655 S
C5393 H5381 0.950 . S
C5393 C5389 1.393 . S
C5393 C5392 1.301 1_455 S
C5394 H5384 0.950 . S
C5394 C5395 1.386 . S
C5394 C5396 1.391 . S
C5395 C5394 1.386 . S
C5395 C5399 1.393 . S
C5396 H5385 0.950 . S
C5396 C5394 1.391 . S
C5396 C5397 1.400 . S
C5397 C5391 1.491 . S
C5397 C5396 1.400 . S
C5397 C5398 1.398 . S
C5398 H5386 0.950 . S
C5398 C5397 1.398 . S
C5398 C5399 1.391 . S
C5399 H5387 0.950 . S
C5399 C5395 1.393 . S
C5399 C5398 1.391 . S
H5400 C5408 0.950 . S
H5401 C5413 0.950 . S
H5402 C5410 0.950 . S
H5403 C5412 0.950 . S
H5404 C5414 0.950 . S
H5405 C5416 0.950 . S
H5406 C5418 0.950 . S
H5407 C5419 0.950 . S
C5408 H5400 0.950 . S
C5408 C5409 1.386 . S
C5408 C5410 1.391 . S
C5409 C5408 1.386 . S
C5409 C5413 1.393 . S
C5410 H5402 0.950 . S
C5410 C5408 1.391 . S
C5410 C5411 1.400 . S
C5411 C5410 1.400 . S
C5411 C5412 1.398 . S
C5411 C5417 1.491 . S
C5412 H5403 0.950 . S
C5412 C5411 1.398 . S
C5412 C5413 1.391 . S
C5413 H5401 0.950 . S
C5413 C5409 1.393 . S
C5413 C5412 1.391 . S
C5414 H5404 0.950 . S
C5414 C5415 1.386 . S
C5414 C5416 1.391 . S
C5415 C5414 1.386 . S
C5415 C5419 1.393 . S
C5416 H5405 0.950 . S
C5416 C5414 1.391 . S
C5416 C5417 1.400 . S
C5417 C5411 1.491 . S
C5417 C5416 1.400 . S
C5417 C5418 1.398 . S
C5418 H5406 0.950 . S
C5418 C5417 1.398 . S
C5418 C5419 1.391 . S
C5419 H5407 0.950 . S
C5419 C5415 1.393 . S
C5419 C5418 1.391 . S
H5420 C5428 0.950 . S
H5421 C5433 0.950 . S
H5422 C5430 0.950 . S
H5423 C5432 0.950 . S
H5424 C5434 0.950 . S
H5425 C5436 0.950 . S
H5426 C5438 0.950 . S
H5427 C5439 0.950 . S
C5428 H5420 0.950 . S
C5428 C5429 1.386 . S
C5428 C5430 1.391 . S
C5429 C5428 1.386 . S
C5429 C5433 1.393 . S
C5430 H5422 0.950 . S
C5430 C5428 1.391 . S
C5430 C5431 1.400 . S
C5431 C5430 1.400 . S
C5431 C5432 1.398 . S
C5431 C5437 1.491 . S
C5432 H5423 0.950 . S
C5432 C5431 1.398 . S
C5432 C5433 1.391 . S
C5433 H5421 0.950 . S
C5433 C5429 1.393 . S
C5433 C5432 1.391 . S
C5434 H5424 0.950 . S
C5434 C5435 1.386 . S
C5434 C5436 1.391 . S
C5435 C5434 1.386 . S
C5435 C5439 1.393 . S
C5436 H5425 0.950 . S
C5436 C5434 1.391 . S
C5436 C5437 1.400 . S
C5437 C5431 1.491 . S
C5437 C5436 1.400 . S
C5437 C5438 1.398 . S
C5438 H5426 0.950 . S
C5438 C5437 1.398 . S
C5438 C5439 1.391 . S
C5439 H5427 0.950 . S
C5439 C5435 1.393 . S
C5439 C5438 1.391 . S
H5440 C5448 0.950 . S
H5441 C5453 0.950 . S
H5442 C5450 0.950 . S
H5443 C5452 0.950 . S
H5444 C5454 0.950 . S
H5445 C5456 0.950 . S
H5446 C5458 0.950 . S
H5447 C5459 0.950 . S
C5448 H5440 0.950 . S
C5448 C5449 1.386 . S
C5448 C5450 1.391 . S
C5449 C5448 1.386 . S
C5449 C5453 1.393 . S
C5450 H5442 0.950 . S
C5450 C5448 1.391 . S
C5450 C5451 1.400 . S
C5451 C5450 1.400 . S
C5451 C5452 1.398 . S
C5451 C5457 1.491 . S
C5452 H5443 0.950 . S
C5452 C5451 1.398 . S
C5452 C5453 1.391 . S
C5453 H5441 0.950 . S
C5453 C5449 1.393 . S
C5453 C5452 1.391 . S
C5454 H5444 0.950 . S
C5454 C5455 1.386 . S
C5454 C5456 1.391 . S
C5455 C5454 1.386 . S
C5455 C5459 1.393 . S
C5456 H5445 0.950 . S
C5456 C5454 1.391 . S
C5456 C5457 1.400 . S
C5457 C5451 1.491 . S
C5457 C5456 1.400 . S
C5457 C5458 1.398 . S
C5458 H5446 0.950 . S
C5458 C5457 1.398 . S
C5458 C5459 1.391 . S
C5459 H5447 0.950 . S
C5459 C5455 1.393 . S
C5459 C5458 1.391 . S
H5460 C5468 0.950 . S
H5461 C5473 0.950 . S
H5462 C5470 0.950 . S
H5463 C5472 0.950 . S
H5464 C5474 0.950 . S
H5465 C5476 0.950 . S
H5466 C5478 0.950 . S
H5467 C5479 0.950 . S
C5468 H5460 0.950 . S
C5468 C5469 1.386 . S
C5468 C5470 1.436 . S
C5469 C5468 1.386 . S
C5469 C5473 1.436 . S
C5470 H5462 0.950 . S
C5470 C5468 1.436 . S
C5470 C5471 1.356 1_554 S
C5471 C5470 1.356 1_556 S
C5471 C5472 1.398 . S
C5471 C5477 1.491 . S
C5472 H5463 0.950 . S
C5472 C5471 1.398 . S
C5472 C5473 1.348 1_556 S
C5473 H5461 0.950 . S
C5473 C5469 1.436 . S
C5473 C5472 1.348 1_554 S
C5474 H5464 0.950 . S
C5474 C5475 1.386 . S
C5474 C5476 1.391 . S
C5475 C5474 1.386 . S
C5475 C5479 1.393 . S
C5476 H5465 0.950 . S
C5476 C5474 1.391 . S
C5476 C5477 1.400 . S
C5477 C5471 1.491 . S
C5477 C5476 1.400 . S
C5477 C5478 1.398 . S
C5478 H5466 0.950 . S
C5478 C5477 1.398 . S
C5478 C5479 1.391 . S
C5479 H5467 0.950 . S
C5479 C5475 1.393 . S
C5479 C5478 1.391 . S
H5480 C5488 0.950 . S
H5481 C5493 0.950 . S
H5482 C5490 0.950 . S
H5483 C5492 0.950 . S
H5484 C5494 0.950 . S
H5485 C5496 0.950 . S
H5486 C5498 0.950 . S
H5487 C5499 0.950 . S
C5488 H5480 0.950 . S
C5488 C5489 1.386 . S
C5488 C5490 1.391 . S
C5489 C5488 1.386 . S
C5489 C5493 1.393 . S
C5490 H5482 0.950 . S
C5490 C5488 1.391 . S
C5490 C5491 1.400 . S
C5491 C5490 1.400 . S
C5491 C5492 1.398 . S
C5491 C5497 1.491 . S
C5492 H5483 0.950 . S
C5492 C5491 1.398 . S
C5492 C5493 1.391 . S
C5493 H5481 0.950 . S
C5493 C5489 1.393 . S
C5493 C5492 1.391 . S
C5494 H5484 0.950 . S
C5494 C5495 1.386 . S
C5494 C5496 1.391 . S
C5495 C5494 1.386 . S
C5495 C5499 1.393 . S
C5496 H5485 0.950 . S
C5496 C5494 1.391 . S
C5496 C5497 1.400 . S
C5497 C5491 1.491 . S
C5497 C5496 1.400 . S
C5497 C5498 1.398 . S
C5498 H5486 0.950 . S
C5498 C5497 1.398 . S
C5498 C5499 1.391 . S
C5499 H5487 0.950 . S
C5499 C5495 1.393 . S
C5499 C5498 1.391 . S
H5500 C5508 0.950 . S
H5501 C5513 0.950 . S
H5502 C5510 0.950 . S
H5503 C5512 0.950 . S
H5504 C5514 0.950 . S
H5505 C5516 0.950 . S
H5506 C5518 0.950 . S
H5507 C5519 0.950 . S
C5508 H5500 0.950 . S
C5508 C5509 1.386 . S
C5508 C5510 1.391 . S
C5509 C5508 1.386 . S
C5509 C5513 1.393 . S
C5510 H5502 0.950 . S
C5510 C5508 1.391 . S
C5510 C5511 1.400 . S
C5511 C5510 1.400 . S
C5511 C5512 1.398 . S
C5511 C5517 1.491 . S
C5512 H5503 0.950 . S
C5512 C5511 1.398 . S
C5512 C5513 1.391 . S
C5513 H5501 0.950 . S
C5513 C5509 1.393 . S
C5513 C5512 1.391 . S
C5514 H5504 0.950 . S
C5514 C5515 1.386 . S
C5514 C5516 1.391 . S
C5515 C5514 1.386 . S
C5515 C5519 1.393 . S
C5516 H5505 0.950 . S
C5516 C5514 1.391 . S
C5516 C5517 1.400 . S
C5517 C5511 1.491 . S
C5517 C5516 1.400 . S
C5517 C5518 1.398 . S
C5518 H5506 0.950 . S
C5518 C5517 1.398 . S
C5518 C5519 1.391 . S
C5519 H5507 0.950 . S
C5519 C5515 1.393 . S
C5519 C5518 1.391 . S
H5520 C5528 0.950 . S
H5521 C5533 0.950 . S
H5522 C5530 0.950 . S
H5523 C5532 0.950 . S
H5524 C5534 0.950 . S
H5525 C5536 0.950 . S
H5526 C5538 0.950 . S
H5527 C5539 0.950 . S
C5528 H5520 0.950 . S
C5528 C5529 1.386 . S
C5528 C5530 1.391 . S
C5529 C5528 1.386 . S
C5529 C5533 1.393 . S
C5530 H5522 0.950 . S
C5530 C5528 1.391 . S
C5530 C5531 1.400 . S
C5531 C5530 1.400 . S
C5531 C5532 1.398 . S
C5531 C5537 1.491 . S
C5532 H5523 0.950 . S
C5532 C5531 1.398 . S
C5532 C5533 1.391 . S
C5533 H5521 0.950 . S
C5533 C5529 1.393 . S
C5533 C5532 1.391 . S
C5534 H5524 0.950 . S
C5534 C5535 1.386 . S
C5534 C5536 1.391 . S
C5535 C5534 1.386 . S
C5535 C5539 1.393 . S
C5536 H5525 0.950 . S
C5536 C5534 1.391 . S
C5536 C5537 1.400 . S
C5537 C5531 1.491 . S
C5537 C5536 1.400 . S
C5537 C5538 1.398 . S
C5538 H5526 0.950 . S
C5538 C5537 1.398 . S
C5538 C5539 1.391 . S
C5539 H5527 0.950 . S
C5539 C5535 1.393 . S
C5539 C5538 1.391 . S
H5540 C5548 0.950 . S
H5541 C5553 0.950 . S
H5542 C5550 0.950 . S
H5543 C5552 0.950 . S
H5544 C5554 0.950 . S
H5545 C5556 0.950 . S
H5546 C5558 0.946 . S
H5547 C5559 0.950 . S
C5548 H5540 0.950 . S
C5548 C5549 1.386 . S
C5548 C5550 1.391 . S
C5549 C5548 1.386 . S
C5549 C5553 1.393 . S
C5550 H5542 0.950 . S
C5550 C5548 1.391 . S
C5550 C5551 1.400 . S
C5551 C5550 1.400 . S
C5551 C5552 1.398 . S
C5551 C5557 1.491 . S
C5552 H5543 0.950 . S
C5552 C5551 1.398 . S
C5552 C5553 1.391 . S
C5553 H5541 0.950 . S
C5553 C5549 1.393 . S
C5553 C5552 1.391 . S
C5554 H5544 0.950 . S
C5554 C5555 1.386 . S
C5554 C5556 1.391 1_556 S
C5555 C5554 1.386 . S
C5555 C5559 1.393 . S
C5556 H5545 0.950 . S
C5556 C5554 1.391 1_554 S
C5556 C5557 1.400 . S
C5557 C5551 1.491 . S
C5557 C5556 1.400 . S
C5557 C5558 1.433 . S
C5558 H5546 0.946 . S
C5558 C5557 1.433 . S
C5558 C5559 1.353 1_554 S
C5559 H5547 0.950 . S
C5559 C5555 1.393 . S
C5559 C5558 1.353 1_556 S
H5560 C5568 0.950 . S
H5561 C5573 0.950 . S
H5562 C5570 0.950 . S
H5563 C5572 0.950 . S
H5564 C5574 0.950 . S
H5565 C5576 0.950 . S
H5566 C5578 0.950 . S
H5567 C5579 0.950 . S
C5568 H5560 0.950 . S
C5568 C5569 1.386 . S
C5568 C5570 1.391 . S
C5569 C5568 1.386 . S
C5569 C5573 1.393 . S
C5570 H5562 0.950 . S
C5570 C5568 1.391 . S
C5570 C5571 1.400 . S
C5571 C5570 1.400 . S
C5571 C5572 1.398 . S
C5571 C5577 1.491 . S
C5572 H5563 0.950 . S
C5572 C5571 1.398 . S
C5572 C5573 1.391 . S
C5573 H5561 0.950 . S
C5573 C5569 1.393 . S
C5573 C5572 1.391 . S
C5574 H5564 0.950 . S
C5574 C5575 1.386 . S
C5574 C5576 1.391 . S
C5575 C5574 1.386 . S
C5575 C5579 1.393 . S
C5576 H5565 0.950 . S
C5576 C5574 1.391 . S
C5576 C5577 1.400 . S
C5577 C5571 1.491 . S
C5577 C5576 1.400 . S
C5577 C5578 1.398 . S
C5578 H5566 0.950 . S
C5578 C5577 1.398 . S
C5578 C5579 1.391 . S
C5579 H5567 0.950 . S
C5579 C5575 1.393 . S
C5579 C5578 1.391 . S
H5580 C5588 0.950 . S
H5581 C5593 0.950 . S
H5582 C5590 0.950 . S
H5583 C5592 0.950 . S
H5584 C5594 0.950 . S
H5585 C5596 0.950 . S
H5586 C5598 0.950 . S
H5587 C5599 0.950 . S
C5588 H5580 0.950 . S
C5588 C5589 1.386 . S
C5588 C5590 1.391 . S
C5589 C5588 1.386 . S
C5589 C5593 1.393 . S
C5590 H5582 0.950 . S
C5590 C5588 1.391 . S
C5590 C5591 1.400 . S
C5591 C5590 1.400 . S
C5591 C5592 1.398 . S
C5591 C5597 1.491 . S
C5592 H5583 0.950 . S
C5592 C5591 1.398 . S
C5592 C5593 1.391 . S
C5593 H5581 0.950 . S
C5593 C5589 1.393 . S
C5593 C5592 1.391 . S
C5594 H5584 0.950 . S
C5594 C5595 1.386 . S
C5594 C5596 1.391 . S
C5595 C5594 1.386 . S
C5595 C5599 1.393 . S
C5596 H5585 0.950 . S
C5596 C5594 1.391 . S
C5596 C5597 1.400 . S
C5597 C5591 1.491 . S
C5597 C5596 1.400 . S
C5597 C5598 1.398 . S
C5598 H5586 0.950 . S
C5598 C5597 1.398 . S
C5598 C5599 1.391 . S
C5599 H5587 0.950 . S
C5599 C5595 1.393 . S
C5599 C5598 1.391 . S
H5600 C5608 0.950 . S
H5601 C5613 0.950 . S
H5602 C5610 0.950 . S
H5603 C5612 0.950 . S
H5604 C5614 0.950 . S
H5605 C5616 0.950 . S
H5606 C5618 0.950 . S
H5607 C5619 0.950 . S
C5608 H5600 0.950 . S
C5608 C5609 1.386 . S
C5608 C5610 1.391 . S
C5609 C5608 1.386 . S
C5609 C5613 1.393 . S
C5610 H5602 0.950 . S
C5610 C5608 1.391 . S
C5610 C5611 1.400 . S
C5611 C5610 1.400 . S
C5611 C5612 1.398 . S
C5611 C5617 1.491 . S
C5612 H5603 0.950 . S
C5612 C5611 1.398 . S
C5612 C5613 1.391 . S
C5613 H5601 0.950 . S
C5613 C5609 1.393 . S
C5613 C5612 1.391 . S
C5614 H5604 0.950 . S
C5614 C5615 1.386 . S
C5614 C5616 1.391 . S
C5615 C5614 1.386 . S
C5615 C5619 1.393 . S
C5616 H5605 0.950 . S
C5616 C5614 1.391 . S
C5616 C5617 1.400 . S
C5617 C5611 1.491 . S
C5617 C5616 1.400 . S
C5617 C5618 1.398 . S
C5618 H5606 0.950 . S
C5618 C5617 1.398 . S
C5618 C5619 1.391 . S
C5619 H5607 0.950 . S
C5619 C5615 1.393 . S
C5619 C5618 1.391 . S
H5620 C5628 0.950 . S
H5621 C5633 0.950 . S
H5622 C5630 0.950 . S
H5623 C5632 0.950 . S
H5624 C5634 0.950 . S
H5625 C5636 0.950 . S
H5626 C5638 0.950 . S
H5627 C5639 0.950 . S
C5628 H5620 0.950 . S
C5628 C5629 1.386 . S
C5628 C5630 1.391 . S
C5629 C5628 1.386 . S
C5629 C5633 1.393 . S
C5630 H5622 0.950 . S
C5630 C5628 1.391 . S
C5630 C5631 1.400 . S
C5631 C5630 1.400 . S
C5631 C5632 1.398 . S
C5631 C5637 1.491 . S
C5632 H5623 0.950 . S
C5632 C5631 1.398 . S
C5632 C5633 1.391 . S
C5633 H5621 0.950 . S
C5633 C5629 1.393 . S
C5633 C5632 1.391 . S
C5634 H5624 0.950 . S
C5634 C5635 1.386 . S
C5634 C5636 1.391 . S
C5635 C5634 1.386 . S
C5635 C5639 1.393 . S
C5636 H5625 0.950 . S
C5636 C5634 1.391 . S
C5636 C5637 1.400 . S
C5637 C5631 1.491 . S
C5637 C5636 1.400 . S
C5637 C5638 1.398 . S
C5638 H5626 0.950 . S
C5638 C5637 1.398 . S
C5638 C5639 1.391 . S
C5639 H5627 0.950 . S
C5639 C5635 1.393 . S
C5639 C5638 1.391 . S
H5640 C5648 0.950 . S
H5641 C5653 0.950 . S
H5642 C5650 0.950 . S
H5643 C5652 0.950 . S
H5644 C5654 0.950 . S
H5645 C5656 0.950 . S
H5646 C5658 0.947 . S
H5647 C5659 0.950 . S
C5648 H5640 0.950 . S
C5648 C5649 1.386 . S
C5648 C5650 1.391 . S
C5649 C5648 1.386 . S
C5649 C5653 1.393 . S
C5650 H5642 0.950 . S
C5650 C5648 1.391 . S
C5650 C5651 1.400 . S
C5651 C5650 1.400 . S
C5651 C5652 1.398 . S
C5651 C5657 1.491 . S
C5652 H5643 0.950 . S
C5652 C5651 1.398 . S
C5652 C5653 1.391 . S
C5653 H5641 0.950 . S
C5653 C5649 1.393 . S
C5653 C5652 1.391 . S
C5654 H5644 0.950 . S
C5654 C5655 1.386 . S
C5654 C5656 1.391 1_545 S
C5655 C5654 1.386 . S
C5655 C5659 1.393 . S
C5656 H5645 0.950 . S
C5656 C5654 1.391 1_565 S
C5656 C5657 1.400 . S
C5657 C5651 1.491 . S
C5657 C5656 1.400 . S
C5657 C5658 1.423 . S
C5658 H5646 0.947 . S
C5658 C5657 1.423 . S
C5658 C5659 1.364 1_565 S
C5659 H5647 0.950 . S
C5659 C5655 1.393 . S
C5659 C5658 1.364 1_545 S
H5660 C5668 0.950 . S
H5661 C5673 0.950 . S
H5662 C5670 0.950 . S
H5663 C5672 0.950 . S
H5664 C5674 0.950 . S
H5665 C5676 0.950 . S
H5666 C5678 0.950 . S
H5667 C5679 0.950 . S
C5668 H5660 0.950 . S
C5668 C5669 1.386 . S
C5668 C5670 1.391 . S
C5669 C5668 1.386 . S
C5669 C5673 1.393 . S
C5670 H5662 0.950 . S
C5670 C5668 1.391 . S
C5670 C5671 1.400 . S
C5671 C5670 1.400 . S
C5671 C5672 1.398 . S
C5671 C5677 1.491 . S
C5672 H5663 0.950 . S
C5672 C5671 1.398 . S
C5672 C5673 1.391 . S
C5673 H5661 0.950 . S
C5673 C5669 1.393 . S
C5673 C5672 1.391 . S
C5674 H5664 0.950 . S
C5674 C5675 1.386 . S
C5674 C5676 1.391 . S
C5675 C5674 1.386 . S
C5675 C5679 1.393 . S
C5676 H5665 0.950 . S
C5676 C5674 1.391 . S
C5676 C5677 1.400 . S
C5677 C5671 1.491 . S
C5677 C5676 1.400 . S
C5677 C5678 1.398 . S
C5678 H5666 0.950 . S
C5678 C5677 1.398 . S
C5678 C5679 1.391 . S
C5679 H5667 0.950 . S
C5679 C5675 1.393 . S
C5679 C5678 1.391 . S
H5680 C5688 0.950 . S
H5681 C5693 0.950 . S
H5682 C5690 0.950 . S
H5683 C5692 0.950 . S
H5684 C5694 0.950 . S
H5685 C5696 0.950 . S
H5686 C5698 0.950 . S
H5687 C5699 0.950 . S
C5688 H5680 0.950 . S
C5688 C5689 1.386 . S
C5688 C5690 1.391 . S
C5689 C5688 1.386 . S
C5689 C5693 1.393 . S
C5690 H5682 0.950 . S
C5690 C5688 1.391 . S
C5690 C5691 1.400 . S
C5691 C5690 1.400 . S
C5691 C5692 1.398 . S
C5691 C5697 1.491 . S
C5692 H5683 0.950 . S
C5692 C5691 1.398 . S
C5692 C5693 1.391 . S
C5693 H5681 0.950 . S
C5693 C5689 1.393 . S
C5693 C5692 1.391 . S
C5694 H5684 0.950 . S
C5694 C5695 1.386 . S
C5694 C5696 1.391 . S
C5695 C5694 1.386 . S
C5695 C5699 1.393 . S
C5696 H5685 0.950 . S
C5696 C5694 1.391 . S
C5696 C5697 1.400 . S
C5697 C5691 1.491 . S
C5697 C5696 1.400 . S
C5697 C5698 1.398 . S
C5698 H5686 0.950 . S
C5698 C5697 1.398 . S
C5698 C5699 1.391 . S
C5699 H5687 0.950 . S
C5699 C5695 1.393 . S
C5699 C5698 1.391 . S
H5700 C5708 0.950 . S
H5701 C5713 0.950 . S
H5702 C5710 0.950 . S
H5703 C5712 0.950 . S
H5704 C5714 0.950 . S
H5705 C5716 0.950 . S
H5706 C5718 0.950 . S
H5707 C5719 0.950 . S
C5708 H5700 0.950 . S
C5708 C5709 1.386 . S
C5708 C5710 1.391 . S
C5709 C5708 1.386 . S
C5709 C5713 1.393 . S
C5710 H5702 0.950 . S
C5710 C5708 1.391 . S
C5710 C5711 1.400 . S
C5711 C5710 1.400 . S
C5711 C5712 1.398 . S
C5711 C5717 1.491 . S
C5712 H5703 0.950 . S
C5712 C5711 1.398 . S
C5712 C5713 1.391 . S
C5713 H5701 0.950 . S
C5713 C5709 1.393 . S
C5713 C5712 1.391 . S
C5714 H5704 0.950 . S
C5714 C5715 1.386 . S
C5714 C5716 1.391 . S
C5715 C5714 1.386 . S
C5715 C5719 1.393 . S
C5716 H5705 0.950 . S
C5716 C5714 1.391 . S
C5716 C5717 1.400 . S
C5717 C5711 1.491 . S
C5717 C5716 1.400 . S
C5717 C5718 1.398 . S
C5718 H5706 0.950 . S
C5718 C5717 1.398 . S
C5718 C5719 1.391 . S
C5719 H5707 0.950 . S
C5719 C5715 1.393 . S
C5719 C5718 1.391 . S
H5720 C5728 0.949 . S
H5721 C5733 0.950 . S
H5722 C5730 0.950 . S
H5723 C5732 0.950 . S
H5724 C5734 0.950 . S
H5725 C5736 0.950 . S
H5726 C5738 0.950 . S
H5727 C5739 0.950 . S
C5728 H5720 0.949 . S
C5728 C5729 1.477 . S
C5728 C5730 1.301 1_565 S
C5729 C5728 1.477 . S
C5729 C5733 1.393 . S
C5730 H5722 0.950 . S
C5730 C5728 1.301 1_545 S
C5730 C5731 1.400 . S
C5731 C5730 1.400 . S
C5731 C5732 1.359 1_545 S
C5731 C5737 1.491 . S
C5732 H5723 0.950 . S
C5732 C5731 1.359 1_565 S
C5732 C5733 1.430 . S
C5733 H5721 0.950 . S
C5733 C5729 1.393 . S
C5733 C5732 1.430 . S
C5734 H5724 0.950 . S
C5734 C5735 1.386 . S
C5734 C5736 1.391 . S
C5735 C5734 1.386 . S
C5735 C5739 1.393 . S
C5736 H5725 0.950 . S
C5736 C5734 1.391 . S
C5736 C5737 1.400 . S
C5737 C5731 1.491 . S
C5737 C5736 1.400 . S
C5737 C5738 1.398 . S
C5738 H5726 0.950 . S
C5738 C5737 1.398 . S
C5738 C5739 1.391 . S
C5739 H5727 0.950 . S
C5739 C5735 1.393 . S
C5739 C5738 1.391 . S
H5740 C5748 0.950 . S
H5741 C5753 0.950 . S
H5742 C5750 0.975 . S
H5743 C5752 0.950 . S
H5744 C5754 0.950 . S
H5745 C5756 0.950 . S
H5746 C5758 0.950 . S
H5747 C5759 0.950 . S
C5748 H5740 0.950 . S
C5748 C5749 1.386 . S
C5748 C5750 1.289 1_545 S
C5749 C5748 1.386 . S
C5749 C5753 1.393 . S
C5750 H5742 0.975 . S
C5750 C5748 1.289 1_565 S
C5750 C5751 1.488 . S
C5751 C5750 1.488 . S
C5751 C5752 1.398 . S
C5751 C5757 1.491 . S
C5752 H5743 0.950 . S
C5752 C5751 1.398 . S
C5752 C5753 1.391 1_565 S
C5753 H5741 0.950 . S
C5753 C5749 1.393 . S
C5753 C5752 1.391 1_545 S
C5754 H5744 0.950 . S
C5754 C5755 1.386 . S
C5754 C5756 1.391 . S
C5755 C5754 1.386 . S
C5755 C5759 1.393 . S
C5756 H5745 0.950 . S
C5756 C5754 1.391 . S
C5756 C5757 1.400 . S
C5757 C5751 1.491 . S
C5757 C5756 1.400 . S
C5757 C5758 1.398 . S
C5758 H5746 0.950 . S
C5758 C5757 1.398 . S
C5758 C5759 1.391 . S
C5759 H5747 0.950 . S
C5759 C5755 1.393 . S
C5759 C5758 1.391 . S
H5760 C5768 0.950 . S
H5761 C5773 0.950 . S
H5762 C5770 0.950 . S
H5763 C5772 0.950 . S
H5764 C5774 0.950 . S
H5765 C5776 0.950 . S
H5766 C5778 0.950 . S
H5767 C5779 0.950 . S
C5768 H5760 0.950 . S
C5768 C5769 1.386 . S
C5768 C5770 1.391 . S
C5769 C5768 1.386 . S
C5769 C5773 1.393 . S
C5770 H5762 0.950 . S
C5770 C5768 1.391 . S
C5770 C5771 1.400 . S
C5771 C5770 1.400 . S
C5771 C5772 1.398 . S
C5771 C5777 1.491 . S
C5772 H5763 0.950 . S
C5772 C5771 1.398 . S
C5772 C5773 1.391 . S
C5773 H5761 0.950 . S
C5773 C5769 1.393 . S
C5773 C5772 1.391 . S
C5774 H5764 0.950 . S
C5774 C5775 1.386 . S
C5774 C5776 1.391 . S
C5775 C5774 1.386 . S
C5775 C5779 1.393 . S
C5776 H5765 0.950 . S
C5776 C5774 1.391 . S
C5776 C5777 1.400 . S
C5777 C5771 1.491 . S
C5777 C5776 1.400 . S
C5777 C5778 1.398 . S
C5778 H5766 0.950 . S
C5778 C5777 1.398 . S
C5778 C5779 1.391 . S
C5779 H5767 0.950 . S
C5779 C5775 1.393 . S
C5779 C5778 1.391 . S
H5780 C5788 0.950 . S
H5781 C5793 0.950 . S
H5782 C5790 0.950 . S
H5783 C5792 0.950 . S
H5784 C5794 0.950 . S
H5785 C5796 0.950 . S
H5786 C5798 0.950 . S
H5787 C5799 0.950 . S
C5788 H5780 0.950 . S
C5788 C5789 1.386 . S
C5788 C5790 1.391 . S
C5789 C5788 1.386 . S
C5789 C5793 1.393 . S
C5790 H5782 0.950 . S
C5790 C5788 1.391 . S
C5790 C5791 1.400 . S
C5791 C5790 1.400 . S
C5791 C5792 1.398 . S
C5791 C5797 1.491 . S
C5792 H5783 0.950 . S
C5792 C5791 1.398 . S
C5792 C5793 1.391 . S
C5793 H5781 0.950 . S
C5793 C5789 1.393 . S
C5793 C5792 1.391 . S
C5794 H5784 0.950 . S
C5794 C5795 1.386 . S
C5794 C5796 1.391 . S
C5795 C5794 1.386 . S
C5795 C5799 1.393 . S
C5796 H5785 0.950 . S
C5796 C5794 1.391 . S
C5796 C5797 1.400 . S
C5797 C5791 1.491 . S
C5797 C5796 1.400 . S
C5797 C5798 1.398 . S
C5798 H5786 0.950 . S
C5798 C5797 1.398 . S
C5798 C5799 1.391 . S
C5799 H5787 0.950 . S
C5799 C5795 1.393 . S
C5799 C5798 1.391 . S
H5800 C5808 0.950 . S
H5801 C5813 0.950 . S
H5802 C5810 0.950 . S
H5803 C5812 0.950 . S
H5804 C5814 0.950 . S
H5805 C5816 0.950 . S
H5806 C5818 0.950 . S
H5807 C5819 0.950 . S
C5808 H5800 0.950 . S
C5808 C5809 1.386 . S
C5808 C5810 1.391 . S
C5809 C5808 1.386 . S
C5809 C5813 1.393 . S
C5810 H5802 0.950 . S
C5810 C5808 1.391 . S
C5810 C5811 1.400 . S
C5811 C5810 1.400 . S
C5811 C5812 1.398 . S
C5811 C5817 1.491 . S
C5812 H5803 0.950 . S
C5812 C5811 1.398 . S
C5812 C5813 1.391 . S
C5813 H5801 0.950 . S
C5813 C5809 1.393 . S
C5813 C5812 1.391 . S
C5814 H5804 0.950 . S
C5814 C5815 1.386 . S
C5814 C5816 1.391 . S
C5815 C5814 1.386 . S
C5815 C5819 1.393 . S
C5816 H5805 0.950 . S
C5816 C5814 1.391 . S
C5816 C5817 1.400 . S
C5817 C5811 1.491 . S
C5817 C5816 1.400 . S
C5817 C5818 1.398 . S
C5818 H5806 0.950 . S
C5818 C5817 1.398 . S
C5818 C5819 1.391 . S
C5819 H5807 0.950 . S
C5819 C5815 1.393 . S
C5819 C5818 1.391 . S
H5820 C5828 0.950 . S
H5821 C5833 0.950 . S
H5822 C5830 0.950 . S
H5823 C5832 0.950 . S
H5824 C5834 0.950 . S
H5825 C5836 0.950 . S
H5826 C5838 0.950 . S
H5827 C5839 0.950 . S
C5828 H5820 0.950 . S
C5828 C5829 1.386 . S
C5828 C5830 1.391 . S
C5829 C5828 1.386 . S
C5829 C5833 1.393 . S
C5830 H5822 0.950 . S
C5830 C5828 1.391 . S
C5830 C5831 1.400 . S
C5831 C5830 1.400 . S
C5831 C5832 1.398 . S
C5831 C5837 1.491 . S
C5832 H5823 0.950 . S
C5832 C5831 1.398 . S
C5832 C5833 1.391 . S
C5833 H5821 0.950 . S
C5833 C5829 1.393 . S
C5833 C5832 1.391 . S
C5834 H5824 0.950 . S
C5834 C5835 1.386 . S
C5834 C5836 1.391 . S
C5835 C5834 1.386 . S
C5835 C5839 1.393 . S
C5836 H5825 0.950 . S
C5836 C5834 1.391 . S
C5836 C5837 1.400 . S
C5837 C5831 1.491 . S
C5837 C5836 1.400 . S
C5837 C5838 1.398 . S
C5838 H5826 0.950 . S
C5838 C5837 1.398 . S
C5838 C5839 1.391 . S
C5839 H5827 0.950 . S
C5839 C5835 1.393 . S
C5839 C5838 1.391 . S
H5840 C5848 0.950 . S
H5841 C5853 0.950 . S
H5842 C5850 0.950 . S
H5843 C5852 0.950 . S
H5844 C5854 0.950 . S
H5845 C5856 0.950 . S
H5846 C5858 0.950 . S
H5847 C5859 0.950 . S
C5848 H5840 0.950 . S
C5848 C5849 1.386 . S
C5848 C5850 1.391 . S
C5849 C5848 1.386 . S
C5849 C5853 1.393 . S
C5850 H5842 0.950 . S
C5850 C5848 1.391 . S
C5850 C5851 1.400 . S
C5851 C5850 1.400 . S
C5851 C5852 1.398 . S
C5851 C5857 1.491 . S
C5852 H5843 0.950 . S
C5852 C5851 1.398 . S
C5852 C5853 1.391 . S
C5853 H5841 0.950 . S
C5853 C5849 1.393 . S
C5853 C5852 1.391 . S
C5854 H5844 0.950 . S
C5854 C5855 1.386 . S
C5854 C5856 1.391 . S
C5855 C5854 1.386 . S
C5855 C5859 1.393 . S
C5856 H5845 0.950 . S
C5856 C5854 1.391 . S
C5856 C5857 1.400 . S
C5857 C5851 1.491 . S
C5857 C5856 1.400 . S
C5857 C5858 1.398 . S
C5858 H5846 0.950 . S
C5858 C5857 1.398 . S
C5858 C5859 1.391 . S
C5859 H5847 0.950 . S
C5859 C5855 1.393 . S
C5859 C5858 1.391 . S
H5860 C5868 0.950 . S
H5861 C5873 0.950 . S
H5862 C5870 0.950 . S
H5863 C5872 0.950 . S
H5864 C5874 0.950 . S
H5865 C5876 0.950 . S
H5866 C5878 0.950 . S
H5867 C5879 0.950 . S
C5868 H5860 0.950 . S
C5868 C5869 1.386 . S
C5868 C5870 1.391 . S
C5869 C5868 1.386 . S
C5869 C5873 1.393 . S
C5870 H5862 0.950 . S
C5870 C5868 1.391 . S
C5870 C5871 1.400 . S
C5871 C5870 1.400 . S
C5871 C5872 1.398 . S
C5871 C5877 1.491 . S
C5872 H5863 0.950 . S
C5872 C5871 1.398 . S
C5872 C5873 1.391 . S
C5873 H5861 0.950 . S
C5873 C5869 1.393 . S
C5873 C5872 1.391 . S
C5874 H5864 0.950 . S
C5874 C5875 1.386 . S
C5874 C5876 1.391 . S
C5875 C5874 1.386 . S
C5875 C5879 1.393 . S
C5876 H5865 0.950 . S
C5876 C5874 1.391 . S
C5876 C5877 1.400 . S
C5877 C5871 1.491 . S
C5877 C5876 1.400 . S
C5877 C5878 1.398 . S
C5878 H5866 0.950 . S
C5878 C5877 1.398 . S
C5878 C5879 1.391 . S
C5879 H5867 0.950 . S
C5879 C5875 1.393 . S
C5879 C5878 1.391 . S
H5880 C5888 0.950 . S
H5881 C5893 0.950 . S
H5882 C5890 0.950 . S
H5883 C5892 0.950 . S
H5884 C5894 0.950 . S
H5885 C5896 0.950 . S
H5886 C5898 0.950 . S
H5887 C5899 0.950 . S
C5888 H5880 0.950 . S
C5888 C5889 1.386 . S
C5888 C5890 1.391 . S
C5889 C5888 1.386 . S
C5889 C5893 1.393 . S
C5890 H5882 0.950 . S
C5890 C5888 1.391 . S
C5890 C5891 1.400 . S
C5891 C5890 1.400 . S
C5891 C5892 1.398 . S
C5891 C5897 1.491 . S
C5892 H5883 0.950 . S
C5892 C5891 1.398 . S
C5892 C5893 1.391 . S
C5893 H5881 0.950 . S
C5893 C5889 1.393 . S
C5893 C5892 1.391 . S
C5894 H5884 0.950 . S
C5894 C5895 1.386 . S
C5894 C5896 1.391 . S
C5895 C5894 1.386 . S
C5895 C5899 1.393 . S
C5896 H5885 0.950 . S
C5896 C5894 1.391 . S
C5896 C5897 1.400 . S
C5897 C5891 1.491 . S
C5897 C5896 1.400 . S
C5897 C5898 1.398 . S
C5898 H5886 0.950 . S
C5898 C5897 1.398 . S
C5898 C5899 1.391 . S
C5899 H5887 0.950 . S
C5899 C5895 1.393 . S
C5899 C5898 1.391 . S
H5900 C5908 0.950 . S
H5901 C5913 0.950 . S
H5902 C5910 0.950 . S
H5903 C5912 0.950 . S
H5904 C5914 0.950 . S
H5905 C5916 0.950 . S
H5906 C5918 0.950 . S
H5907 C5919 0.950 . S
C5908 H5900 0.950 . S
C5908 C5909 1.386 . S
C5908 C5910 1.391 . S
C5909 C5908 1.386 . S
C5909 C5913 1.393 . S
C5910 H5902 0.950 . S
C5910 C5908 1.391 . S
C5910 C5911 1.400 . S
C5911 C5910 1.400 . S
C5911 C5912 1.398 . S
C5911 C5917 1.491 . S
C5912 H5903 0.950 . S
C5912 C5911 1.398 . S
C5912 C5913 1.391 . S
C5913 H5901 0.950 . S
C5913 C5909 1.393 . S
C5913 C5912 1.391 . S
C5914 H5904 0.950 . S
C5914 C5915 1.386 . S
C5914 C5916 1.391 . S
C5915 C5914 1.386 . S
C5915 C5919 1.393 . S
C5916 H5905 0.950 . S
C5916 C5914 1.391 . S
C5916 C5917 1.400 . S
C5917 C5911 1.491 . S
C5917 C5916 1.400 . S
C5917 C5918 1.398 . S
C5918 H5906 0.950 . S
C5918 C5917 1.398 . S
C5918 C5919 1.391 . S
C5919 H5907 0.950 . S
C5919 C5915 1.393 . S
C5919 C5918 1.391 . S
H5920 C5928 0.950 . S
H5921 C5933 0.950 . S
H5922 C5930 0.950 . S
H5923 C5932 0.950 . S
H5924 C5934 0.950 . S
H5925 C5936 0.950 . S
H5926 C5938 0.950 . S
H5927 C5939 0.950 . S
C5928 H5920 0.950 . S
C5928 C5929 1.386 . S
C5928 C5930 1.391 . S
C5929 C5928 1.386 . S
C5929 C5933 1.393 . S
C5930 H5922 0.950 . S
C5930 C5928 1.391 . S
C5930 C5931 1.400 . S
C5931 C5930 1.400 . S
C5931 C5932 1.398 . S
C5931 C5937 1.491 . S
C5932 H5923 0.950 . S
C5932 C5931 1.398 . S
C5932 C5933 1.391 . S
C5933 H5921 0.950 . S
C5933 C5929 1.393 . S
C5933 C5932 1.391 . S
C5934 H5924 0.950 . S
C5934 C5935 1.386 . S
C5934 C5936 1.391 . S
C5935 C5934 1.386 . S
C5935 C5939 1.393 . S
C5936 H5925 0.950 . S
C5936 C5934 1.391 . S
C5936 C5937 1.400 . S
C5937 C5931 1.491 . S
C5937 C5936 1.400 . S
C5937 C5938 1.398 . S
C5938 H5926 0.950 . S
C5938 C5937 1.398 . S
C5938 C5939 1.391 . S
C5939 H5927 0.950 . S
C5939 C5935 1.393 . S
C5939 C5938 1.391 . S
H5940 C5948 0.950 . S
H5941 C5953 0.950 . S
H5942 C5950 0.950 . S
H5943 C5952 0.950 . S
H5944 C5954 0.950 . S
H5945 C5956 0.950 . S
H5946 C5958 0.950 . S
H5947 C5959 0.950 . S
C5948 H5940 0.950 . S
C5948 C5949 1.386 . S
C5948 C5950 1.391 . S
C5949 C5948 1.386 . S
C5949 C5953 1.393 . S
C5950 H5942 0.950 . S
C5950 C5948 1.391 . S
C5950 C5951 1.400 . S
C5951 C5950 1.400 . S
C5951 C5952 1.398 . S
C5951 C5957 1.491 . S
C5952 H5943 0.950 . S
C5952 C5951 1.398 . S
C5952 C5953 1.391 . S
C5953 H5941 0.950 . S
C5953 C5949 1.393 . S
C5953 C5952 1.391 . S
C5954 H5944 0.950 . S
C5954 C5955 1.386 . S
C5954 C5956 1.391 . S
C5955 C5954 1.386 . S
C5955 C5959 1.393 . S
C5956 H5945 0.950 . S
C5956 C5954 1.391 . S
C5956 C5957 1.400 . S
C5957 C5951 1.491 . S
C5957 C5956 1.400 . S
C5957 C5958 1.398 . S
C5958 H5946 0.950 . S
C5958 C5957 1.398 . S
C5958 C5959 1.391 . S
C5959 H5947 0.950 . S
C5959 C5955 1.393 . S
C5959 C5958 1.391 . S
H5960 C5968 0.950 . S
H5961 C5973 0.950 . S
H5962 C5970 0.950 . S
H5963 C5972 0.950 . S
H5964 C5974 0.950 . S
H5965 C5976 0.950 . S
H5966 C5978 0.950 . S
H5967 C5979 0.950 . S
C5968 H5960 0.950 . S
C5968 C5969 1.386 . S
C5968 C5970 1.391 . S
C5969 C5968 1.386 . S
C5969 C5973 1.393 . S
C5970 H5962 0.950 . S
C5970 C5968 1.391 . S
C5970 C5971 1.400 . S
C5971 C5970 1.400 . S
C5971 C5972 1.398 . S
C5971 C5977 1.491 . S
C5972 H5963 0.950 . S
C5972 C5971 1.398 . S
C5972 C5973 1.391 . S
C5973 H5961 0.950 . S
C5973 C5969 1.393 . S
C5973 C5972 1.391 . S
C5974 H5964 0.950 . S
C5974 C5975 1.386 . S
C5974 C5976 1.391 . S
C5975 C5974 1.386 . S
C5975 C5979 1.393 . S
C5976 H5965 0.950 . S
C5976 C5974 1.391 . S
C5976 C5977 1.400 . S
C5977 C5971 1.491 . S
C5977 C5976 1.400 . S
C5977 C5978 1.398 . S
C5978 H5966 0.950 . S
C5978 C5977 1.398 . S
C5978 C5979 1.391 . S
C5979 H5967 0.950 . S
C5979 C5975 1.393 . S
C5979 C5978 1.391 . S
H5980 C5988 0.950 . S
H5981 C5993 0.950 . S
H5982 C5990 0.950 . S
H5983 C5992 0.950 . S
H5984 C5994 0.950 . S
H5985 C5996 0.950 . S
H5986 C5998 0.950 . S
H5987 C5999 0.950 . S
C5988 H5980 0.950 . S
C5988 C5989 1.386 . S
C5988 C5990 1.391 . S
C5989 C5988 1.386 . S
C5989 C5993 1.393 . S
C5990 H5982 0.950 . S
C5990 C5988 1.391 . S
C5990 C5991 1.400 . S
C5991 C5990 1.400 . S
C5991 C5992 1.398 . S
C5991 C5997 1.491 . S
C5992 H5983 0.950 . S
C5992 C5991 1.398 . S
C5992 C5993 1.391 . S
C5993 H5981 0.950 . S
C5993 C5989 1.393 . S
C5993 C5992 1.391 . S
C5994 H5984 0.950 . S
C5994 C5995 1.386 . S
C5994 C5996 1.391 . S
C5995 C5994 1.386 . S
C5995 C5999 1.393 . S
C5996 H5985 0.950 . S
C5996 C5994 1.391 . S
C5996 C5997 1.400 . S
C5997 C5991 1.491 . S
C5997 C5996 1.400 . S
C5997 C5998 1.398 . S
C5998 H5986 0.950 . S
C5998 C5997 1.398 . S
C5998 C5999 1.391 . S
C5999 H5987 0.950 . S
C5999 C5995 1.393 . S
C5999 C5998 1.391 . S
H6000 C6008 0.950 . S
H6001 C6013 0.950 . S
H6002 C6010 0.950 . S
H6003 C6012 0.950 . S
H6004 C6014 0.950 . S
H6005 C6016 0.950 . S
H6006 C6018 0.950 . S
H6007 C6019 0.950 . S
C6008 H6000 0.950 . S
C6008 C6009 1.386 . S
C6008 C6010 1.391 . S
C6009 C6008 1.386 . S
C6009 C6013 1.393 . S
C6010 H6002 0.950 . S
C6010 C6008 1.391 . S
C6010 C6011 1.400 . S
C6011 C6010 1.400 . S
C6011 C6012 1.398 . S
C6011 C6017 1.491 . S
C6012 H6003 0.950 . S
C6012 C6011 1.398 . S
C6012 C6013 1.391 . S
C6013 H6001 0.950 . S
C6013 C6009 1.393 . S
C6013 C6012 1.391 . S
C6014 H6004 0.950 . S
C6014 C6015 1.386 . S
C6014 C6016 1.391 . S
C6015 C6014 1.386 . S
C6015 C6019 1.393 . S
C6016 H6005 0.950 . S
C6016 C6014 1.391 . S
C6016 C6017 1.400 . S
C6017 C6011 1.491 . S
C6017 C6016 1.400 . S
C6017 C6018 1.398 . S
C6018 H6006 0.950 . S
C6018 C6017 1.398 . S
C6018 C6019 1.391 . S
C6019 H6007 0.950 . S
C6019 C6015 1.393 . S
C6019 C6018 1.391 . S
H6020 C6028 0.950 . S
H6021 C6033 0.950 . S
H6022 C6030 0.950 . S
H6023 C6032 0.950 . S
H6024 C6034 0.950 . S
H6025 C6036 0.950 . S
H6026 C6038 0.950 . S
H6027 C6039 0.950 . S
C6028 H6020 0.950 . S
C6028 C6029 1.386 . S
C6028 C6030 1.391 . S
C6029 C6028 1.386 . S
C6029 C6033 1.393 . S
C6030 H6022 0.950 . S
C6030 C6028 1.391 . S
C6030 C6031 1.400 . S
C6031 C6030 1.400 . S
C6031 C6032 1.398 . S
C6031 C6037 1.491 . S
C6032 H6023 0.950 . S
C6032 C6031 1.398 . S
C6032 C6033 1.391 . S
C6033 H6021 0.950 . S
C6033 C6029 1.393 . S
C6033 C6032 1.391 . S
C6034 H6024 0.950 . S
C6034 C6035 1.386 . S
C6034 C6036 1.391 . S
C6035 C6034 1.386 . S
C6035 C6039 1.393 . S
C6036 H6025 0.950 . S
C6036 C6034 1.391 . S
C6036 C6037 1.400 . S
C6037 C6031 1.491 . S
C6037 C6036 1.400 . S
C6037 C6038 1.398 . S
C6038 H6026 0.950 . S
C6038 C6037 1.398 . S
C6038 C6039 1.391 . S
C6039 H6027 0.950 . S
C6039 C6035 1.393 . S
C6039 C6038 1.391 . S
H6040 C6048 0.950 . S
H6041 C6053 0.950 . S
H6042 C6050 0.950 . S
H6043 C6052 0.950 . S
H6044 C6054 0.950 . S
H6045 C6056 0.950 . S
H6046 C6058 0.950 . S
H6047 C6059 0.950 . S
C6048 H6040 0.950 . S
C6048 C6049 1.386 . S
C6048 C6050 1.391 . S
C6049 C6048 1.386 . S
C6049 C6053 1.393 . S
C6050 H6042 0.950 . S
C6050 C6048 1.391 . S
C6050 C6051 1.400 . S
C6051 C6050 1.400 . S
C6051 C6052 1.398 . S
C6051 C6057 1.491 . S
C6052 H6043 0.950 . S
C6052 C6051 1.398 . S
C6052 C6053 1.391 . S
C6053 H6041 0.950 . S
C6053 C6049 1.393 . S
C6053 C6052 1.391 . S
C6054 H6044 0.950 . S
C6054 C6055 1.386 . S
C6054 C6056 1.391 . S
C6055 C6054 1.386 . S
C6055 C6059 1.393 . S
C6056 H6045 0.950 . S
C6056 C6054 1.391 . S
C6056 C6057 1.400 . S
C6057 C6051 1.491 . S
C6057 C6056 1.400 . S
C6057 C6058 1.398 . S
C6058 H6046 0.950 . S
C6058 C6057 1.398 . S
C6058 C6059 1.391 . S
C6059 H6047 0.950 . S
C6059 C6055 1.393 . S
C6059 C6058 1.391 . S
H6060 C6068 0.950 . S
H6061 C6073 0.950 . S
H6062 C6070 0.950 . S
H6063 C6072 0.950 . S
H6064 C6074 0.950 . S
H6065 C6076 0.950 . S
H6066 C6078 0.950 . S
H6067 C6079 0.950 . S
C6068 H6060 0.950 . S
C6068 C6069 1.386 . S
C6068 C6070 1.391 . S
C6069 C6068 1.386 . S
C6069 C6073 1.393 . S
C6070 H6062 0.950 . S
C6070 C6068 1.391 . S
C6070 C6071 1.400 . S
C6071 C6070 1.400 . S
C6071 C6072 1.398 . S
C6071 C6077 1.491 . S
C6072 H6063 0.950 . S
C6072 C6071 1.398 . S
C6072 C6073 1.391 . S
C6073 H6061 0.950 . S
C6073 C6069 1.393 . S
C6073 C6072 1.391 . S
C6074 H6064 0.950 . S
C6074 C6075 1.386 . S
C6074 C6076 1.391 . S
C6075 C6074 1.386 . S
C6075 C6079 1.393 . S
C6076 H6065 0.950 . S
C6076 C6074 1.391 . S
C6076 C6077 1.400 . S
C6077 C6071 1.491 . S
C6077 C6076 1.400 . S
C6077 C6078 1.398 . S
C6078 H6066 0.950 . S
C6078 C6077 1.398 . S
C6078 C6079 1.391 . S
C6079 H6067 0.950 . S
C6079 C6075 1.393 . S
C6079 C6078 1.391 . S
H6080 C6088 0.950 . S
H6081 C6093 0.950 . S
H6082 C6090 0.950 . S
H6083 C6092 0.950 . S
H6084 C6094 0.950 . S
H6085 C6096 0.950 . S
H6086 C6098 0.950 . S
H6087 C6099 0.950 . S
C6088 H6080 0.950 . S
C6088 C6089 1.386 . S
C6088 C6090 1.391 . S
C6089 C6088 1.386 . S
C6089 C6093 1.393 . S
C6090 H6082 0.950 . S
C6090 C6088 1.391 . S
C6090 C6091 1.400 . S
C6091 C6090 1.400 . S
C6091 C6092 1.398 . S
C6091 C6097 1.491 . S
C6092 H6083 0.950 . S
C6092 C6091 1.398 . S
C6092 C6093 1.391 . S
C6093 H6081 0.950 . S
C6093 C6089 1.393 . S
C6093 C6092 1.391 . S
C6094 H6084 0.950 . S
C6094 C6095 1.386 . S
C6094 C6096 1.391 . S
C6095 C6094 1.386 . S
C6095 C6099 1.393 . S
C6096 H6085 0.950 . S
C6096 C6094 1.391 . S
C6096 C6097 1.400 . S
C6097 C6091 1.491 . S
C6097 C6096 1.400 . S
C6097 C6098 1.398 . S
C6098 H6086 0.950 . S
C6098 C6097 1.398 . S
C6098 C6099 1.391 . S
C6099 H6087 0.950 . S
C6099 C6095 1.393 . S
C6099 C6098 1.391 . S
H6100 C6108 0.950 . S
H6101 C6113 0.950 . S
H6102 C6110 0.950 . S
H6103 C6112 0.950 . S
H6104 C6114 0.950 . S
H6105 C6116 0.950 . S
H6106 C6118 0.950 . S
H6107 C6119 0.950 . S
C6108 H6100 0.950 . S
C6108 C6109 1.386 . S
C6108 C6110 1.391 . S
C6109 C6108 1.386 . S
C6109 C6113 1.393 . S
C6110 H6102 0.950 . S
C6110 C6108 1.391 . S
C6110 C6111 1.400 . S
C6111 C6110 1.400 . S
C6111 C6112 1.398 . S
C6111 C6117 1.491 . S
C6112 H6103 0.950 . S
C6112 C6111 1.398 . S
C6112 C6113 1.391 . S
C6113 H6101 0.950 . S
C6113 C6109 1.393 . S
C6113 C6112 1.391 . S
C6114 H6104 0.950 . S
C6114 C6115 1.386 . S
C6114 C6116 1.391 . S
C6115 C6114 1.386 . S
C6115 C6119 1.393 . S
C6116 H6105 0.950 . S
C6116 C6114 1.391 . S
C6116 C6117 1.400 . S
C6117 C6111 1.491 . S
C6117 C6116 1.400 . S
C6117 C6118 1.398 . S
C6118 H6106 0.950 . S
C6118 C6117 1.398 . S
C6118 C6119 1.391 . S
C6119 H6107 0.950 . S
C6119 C6115 1.393 . S
C6119 C6118 1.391 . S
H6120 C6128 0.950 . S
H6121 C6133 0.950 . S
H6122 C6130 0.950 . S
H6123 C6132 0.950 . S
H6124 C6134 0.950 . S
H6125 C6136 0.950 . S
H6126 C6138 0.950 . S
H6127 C6139 0.950 . S
C6128 H6120 0.950 . S
C6128 C6129 1.386 . S
C6128 C6130 1.391 . S
C6129 C6128 1.386 . S
C6129 C6133 1.393 . S
C6130 H6122 0.950 . S
C6130 C6128 1.391 . S
C6130 C6131 1.400 . S
C6131 C6130 1.400 . S
C6131 C6132 1.398 . S
C6131 C6137 1.491 . S
C6132 H6123 0.950 . S
C6132 C6131 1.398 . S
C6132 C6133 1.391 . S
C6133 H6121 0.950 . S
C6133 C6129 1.393 . S
C6133 C6132 1.391 . S
C6134 H6124 0.950 . S
C6134 C6135 1.386 . S
C6134 C6136 1.391 . S
C6135 C6134 1.386 . S
C6135 C6139 1.393 . S
C6136 H6125 0.950 . S
C6136 C6134 1.391 . S
C6136 C6137 1.400 . S
C6137 C6131 1.491 . S
C6137 C6136 1.400 . S
C6137 C6138 1.398 . S
C6138 H6126 0.950 . S
C6138 C6137 1.398 . S
C6138 C6139 1.391 . S
C6139 H6127 0.950 . S
C6139 C6135 1.393 . S
C6139 C6138 1.391 . S
H6140 C6148 0.950 . S
H6141 C6153 0.950 . S
H6142 C6150 0.950 . S
H6143 C6152 0.950 . S
H6144 C6154 0.950 . S
H6145 C6156 0.950 . S
H6146 C6158 0.950 . S
H6147 C6159 0.950 . S
C6148 H6140 0.950 . S
C6148 C6149 1.386 . S
C6148 C6150 1.391 . S
C6149 C6148 1.386 . S
C6149 C6153 1.393 . S
C6150 H6142 0.950 . S
C6150 C6148 1.391 . S
C6150 C6151 1.400 . S
C6151 C6150 1.400 . S
C6151 C6152 1.398 . S
C6151 C6157 1.491 . S
C6152 H6143 0.950 . S
C6152 C6151 1.398 . S
C6152 C6153 1.391 . S
C6153 H6141 0.950 . S
C6153 C6149 1.393 . S
C6153 C6152 1.391 . S
C6154 H6144 0.950 . S
C6154 C6155 1.386 . S
C6154 C6156 1.391 . S
C6155 C6154 1.386 . S
C6155 C6159 1.393 . S
C6156 H6145 0.950 . S
C6156 C6154 1.391 . S
C6156 C6157 1.400 . S
C6157 C6151 1.491 . S
C6157 C6156 1.400 . S
C6157 C6158 1.398 . S
C6158 H6146 0.950 . S
C6158 C6157 1.398 . S
C6158 C6159 1.391 . S
C6159 H6147 0.950 . S
C6159 C6155 1.393 . S
C6159 C6158 1.391 . S
H6160 C6168 0.950 . S
H6161 C6173 0.950 . S
H6162 C6170 0.950 . S
H6163 C6172 0.950 . S
H6164 C6174 0.950 . S
H6165 C6176 0.950 . S
H6166 C6178 0.950 . S
H6167 C6179 0.950 . S
C6168 H6160 0.950 . S
C6168 C6169 1.386 . S
C6168 C6170 1.391 . S
C6169 C6168 1.386 . S
C6169 C6173 1.393 . S
C6170 H6162 0.950 . S
C6170 C6168 1.391 . S
C6170 C6171 1.400 . S
C6171 C6170 1.400 . S
C6171 C6172 1.398 . S
C6171 C6177 1.491 . S
C6172 H6163 0.950 . S
C6172 C6171 1.398 . S
C6172 C6173 1.391 . S
C6173 H6161 0.950 . S
C6173 C6169 1.393 . S
C6173 C6172 1.391 . S
C6174 H6164 0.950 . S
C6174 C6175 1.386 . S
C6174 C6176 1.391 . S
C6175 C6174 1.386 . S
C6175 C6179 1.393 . S
C6176 H6165 0.950 . S
C6176 C6174 1.391 . S
C6176 C6177 1.400 . S
C6177 C6171 1.491 . S
C6177 C6176 1.400 . S
C6177 C6178 1.398 . S
C6178 H6166 0.950 . S
C6178 C6177 1.398 . S
C6178 C6179 1.391 . S
C6179 H6167 0.950 . S
C6179 C6175 1.393 . S
C6179 C6178 1.391 . S
H6180 C6188 0.950 . S
H6181 C6193 0.950 . S
H6182 C6190 0.950 . S
H6183 C6192 0.950 . S
H6184 C6194 0.950 . S
H6185 C6196 0.950 . S
H6186 C6198 0.950 . S
H6187 C6199 0.950 . S
C6188 H6180 0.950 . S
C6188 C6189 1.386 . S
C6188 C6190 1.391 . S
C6189 C6188 1.386 . S
C6189 C6193 1.393 . S
C6190 H6182 0.950 . S
C6190 C6188 1.391 . S
C6190 C6191 1.400 . S
C6191 C6190 1.400 . S
C6191 C6192 1.398 . S
C6191 C6197 1.491 . S
C6192 H6183 0.950 . S
C6192 C6191 1.398 . S
C6192 C6193 1.391 . S
C6193 H6181 0.950 . S
C6193 C6189 1.393 . S
C6193 C6192 1.391 . S
C6194 H6184 0.950 . S
C6194 C6195 1.386 . S
C6194 C6196 1.391 . S
C6195 C6194 1.386 . S
C6195 C6199 1.393 . S
C6196 H6185 0.950 . S
C6196 C6194 1.391 . S
C6196 C6197 1.400 . S
C6197 C6191 1.491 . S
C6197 C6196 1.400 . S
C6197 C6198 1.398 . S
C6198 H6186 0.950 . S
C6198 C6197 1.398 . S
C6198 C6199 1.391 . S
C6199 H6187 0.950 . S
C6199 C6195 1.393 . S
C6199 C6198 1.391 . S
H6200 C6208 0.950 . S
H6201 C6213 0.950 . S
H6202 C6210 0.950 . S
H6203 C6212 0.950 . S
H6204 C6214 0.950 . S
H6205 C6216 0.950 . S
H6206 C6218 0.950 . S
H6207 C6219 0.950 . S
C6208 H6200 0.950 . S
C6208 C6209 1.386 . S
C6208 C6210 1.391 . S
C6209 C6208 1.386 . S
C6209 C6213 1.393 . S
C6210 H6202 0.950 . S
C6210 C6208 1.391 . S
C6210 C6211 1.400 . S
C6211 C6210 1.400 . S
C6211 C6212 1.398 . S
C6211 C6217 1.491 . S
C6212 H6203 0.950 . S
C6212 C6211 1.398 . S
C6212 C6213 1.391 . S
C6213 H6201 0.950 . S
C6213 C6209 1.393 . S
C6213 C6212 1.391 . S
C6214 H6204 0.950 . S
C6214 C6215 1.386 . S
C6214 C6216 1.391 . S
C6215 C6214 1.386 . S
C6215 C6219 1.393 . S
C6216 H6205 0.950 . S
C6216 C6214 1.391 . S
C6216 C6217 1.400 . S
C6217 C6211 1.491 . S
C6217 C6216 1.400 . S
C6217 C6218 1.398 . S
C6218 H6206 0.950 . S
C6218 C6217 1.398 . S
C6218 C6219 1.391 . S
C6219 H6207 0.950 . S
C6219 C6215 1.393 . S
C6219 C6218 1.391 . S
H6220 C6228 0.950 . S
H6221 C6233 0.950 . S
H6222 C6230 0.950 . S
H6223 C6232 0.950 . S
H6224 C6234 0.950 . S
H6225 C6236 0.950 . S
H6226 C6238 0.950 . S
H6227 C6239 0.950 . S
C6228 H6220 0.950 . S
C6228 C6229 1.386 . S
C6228 C6230 1.391 . S
C6229 C6228 1.386 . S
C6229 C6233 1.393 . S
C6230 H6222 0.950 . S
C6230 C6228 1.391 . S
C6230 C6231 1.400 . S
C6231 C6230 1.400 . S
C6231 C6232 1.398 . S
C6231 C6237 1.491 . S
C6232 H6223 0.950 . S
C6232 C6231 1.398 . S
C6232 C6233 1.391 . S
C6233 H6221 0.950 . S
C6233 C6229 1.393 . S
C6233 C6232 1.391 . S
C6234 H6224 0.950 . S
C6234 C6235 1.386 . S
C6234 C6236 1.391 . S
C6235 C6234 1.386 . S
C6235 C6239 1.393 . S
C6236 H6225 0.950 . S
C6236 C6234 1.391 . S
C6236 C6237 1.400 . S
C6237 C6231 1.491 . S
C6237 C6236 1.400 . S
C6237 C6238 1.398 . S
C6238 H6226 0.950 . S
C6238 C6237 1.398 . S
C6238 C6239 1.391 . S
C6239 H6227 0.950 . S
C6239 C6235 1.393 . S
C6239 C6238 1.391 . S
H6240 C6248 0.950 . S
H6241 C6253 0.950 . S
H6242 C6250 0.950 . S
H6243 C6252 0.950 . S
H6244 C6254 0.950 . S
H6245 C6256 0.950 . S
H6246 C6258 0.950 . S
H6247 C6259 0.950 . S
C6248 H6240 0.950 . S
C6248 C6249 1.386 . S
C6248 C6250 1.391 . S
C6249 C6248 1.386 . S
C6249 C6253 1.393 . S
C6250 H6242 0.950 . S
C6250 C6248 1.391 . S
C6250 C6251 1.400 . S
C6251 C6250 1.400 . S
C6251 C6252 1.398 . S
C6251 C6257 1.491 . S
C6252 H6243 0.950 . S
C6252 C6251 1.398 . S
C6252 C6253 1.391 . S
C6253 H6241 0.950 . S
C6253 C6249 1.393 . S
C6253 C6252 1.391 . S
C6254 H6244 0.950 . S
C6254 C6255 1.386 . S
C6254 C6256 1.391 . S
C6255 C6254 1.386 . S
C6255 C6259 1.393 . S
C6256 H6245 0.950 . S
C6256 C6254 1.391 . S
C6256 C6257 1.400 . S
C6257 C6251 1.491 . S
C6257 C6256 1.400 . S
C6257 C6258 1.398 . S
C6258 H6246 0.950 . S
C6258 C6257 1.398 . S
C6258 C6259 1.391 . S
C6259 H6247 0.950 . S
C6259 C6255 1.393 . S
C6259 C6258 1.391 . S
H6260 C6268 0.950 . S
H6261 C6273 0.950 . S
H6262 C6270 0.950 . S
H6263 C6272 0.950 . S
H6264 C6274 0.950 . S
H6265 C6276 0.950 . S
H6266 C6278 0.950 . S
H6267 C6279 0.950 . S
C6268 H6260 0.950 . S
C6268 C6269 1.386 . S
C6268 C6270 1.391 . S
C6269 C6268 1.386 . S
C6269 C6273 1.393 . S
C6270 H6262 0.950 . S
C6270 C6268 1.391 . S
C6270 C6271 1.400 . S
C6271 C6270 1.400 . S
C6271 C6272 1.398 . S
C6271 C6277 1.491 . S
C6272 H6263 0.950 . S
C6272 C6271 1.398 . S
C6272 C6273 1.391 . S
C6273 H6261 0.950 . S
C6273 C6269 1.393 . S
C6273 C6272 1.391 . S
C6274 H6264 0.950 . S
C6274 C6275 1.386 . S
C6274 C6276 1.391 . S
C6275 C6274 1.386 . S
C6275 C6279 1.393 . S
C6276 H6265 0.950 . S
C6276 C6274 1.391 . S
C6276 C6277 1.400 . S
C6277 C6271 1.491 . S
C6277 C6276 1.400 . S
C6277 C6278 1.398 . S
C6278 H6266 0.950 . S
C6278 C6277 1.398 . S
C6278 C6279 1.391 . S
C6279 H6267 0.950 . S
C6279 C6275 1.393 . S
C6279 C6278 1.391 . S
H6280 C6288 0.950 . S
H6281 C6293 0.950 . S
H6282 C6290 0.950 . S
H6283 C6292 0.950 . S
H6284 C6294 0.950 . S
H6285 C6296 0.950 . S
H6286 C6298 0.950 . S
H6287 C6299 0.950 . S
C6288 H6280 0.950 . S
C6288 C6289 1.386 . S
C6288 C6290 1.391 . S
C6289 C6288 1.386 . S
C6289 C6293 1.393 . S
C6290 H6282 0.950 . S
C6290 C6288 1.391 . S
C6290 C6291 1.400 . S
C6291 C6290 1.400 . S
C6291 C6292 1.398 . S
C6291 C6297 1.491 . S
C6292 H6283 0.950 . S
C6292 C6291 1.398 . S
C6292 C6293 1.391 . S
C6293 H6281 0.950 . S
C6293 C6289 1.393 . S
C6293 C6292 1.391 . S
C6294 H6284 0.950 . S
C6294 C6295 1.386 . S
C6294 C6296 1.391 . S
C6295 C6294 1.386 . S
C6295 C6299 1.393 . S
C6296 H6285 0.950 . S
C6296 C6294 1.391 . S
C6296 C6297 1.400 . S
C6297 C6291 1.491 . S
C6297 C6296 1.400 . S
C6297 C6298 1.398 . S
C6298 H6286 0.950 . S
C6298 C6297 1.398 . S
C6298 C6299 1.391 . S
C6299 H6287 0.950 . S
C6299 C6295 1.393 . S
C6299 C6298 1.391 . S
H6300 C6308 0.950 . S
H6301 C6313 0.950 . S
H6302 C6310 0.950 . S
H6303 C6312 0.950 . S
H6304 C6314 0.950 . S
H6305 C6316 0.950 . S
H6306 C6318 0.950 . S
H6307 C6319 0.950 . S
C6308 H6300 0.950 . S
C6308 C6309 1.386 . S
C6308 C6310 1.391 . S
C6309 C6308 1.386 . S
C6309 C6313 1.393 . S
C6310 H6302 0.950 . S
C6310 C6308 1.391 . S
C6310 C6311 1.400 . S
C6311 C6310 1.400 . S
C6311 C6312 1.398 . S
C6311 C6317 1.491 . S
C6312 H6303 0.950 . S
C6312 C6311 1.398 . S
C6312 C6313 1.391 . S
C6313 H6301 0.950 . S
C6313 C6309 1.393 . S
C6313 C6312 1.391 . S
C6314 H6304 0.950 . S
C6314 C6315 1.386 . S
C6314 C6316 1.391 . S
C6315 C6314 1.386 . S
C6315 C6319 1.393 . S
C6316 H6305 0.950 . S
C6316 C6314 1.391 . S
C6316 C6317 1.400 . S
C6317 C6311 1.491 . S
C6317 C6316 1.400 . S
C6317 C6318 1.398 . S
C6318 H6306 0.950 . S
C6318 C6317 1.398 . S
C6318 C6319 1.391 . S
C6319 H6307 0.950 . S
C6319 C6315 1.393 . S
C6319 C6318 1.391 . S
H6320 C6328 0.950 . S
H6321 C6333 0.950 . S
H6322 C6330 0.950 . S
H6323 C6332 0.950 . S
H6324 C6334 0.950 . S
H6325 C6336 0.950 . S
H6326 C6338 0.950 . S
H6327 C6339 0.950 . S
C6328 H6320 0.950 . S
C6328 C6329 1.386 . S
C6328 C6330 1.391 . S
C6329 C6328 1.386 . S
C6329 C6333 1.393 . S
C6330 H6322 0.950 . S
C6330 C6328 1.391 . S
C6330 C6331 1.400 . S
C6331 C6330 1.400 . S
C6331 C6332 1.398 . S
C6331 C6337 1.491 . S
C6332 H6323 0.950 . S
C6332 C6331 1.398 . S
C6332 C6333 1.391 . S
C6333 H6321 0.950 . S
C6333 C6329 1.393 . S
C6333 C6332 1.391 . S
C6334 H6324 0.950 . S
C6334 C6335 1.386 . S
C6334 C6336 1.391 . S
C6335 C6334 1.386 . S
C6335 C6339 1.393 . S
C6336 H6325 0.950 . S
C6336 C6334 1.391 . S
C6336 C6337 1.400 . S
C6337 C6331 1.491 . S
C6337 C6336 1.400 . S
C6337 C6338 1.398 . S
C6338 H6326 0.950 . S
C6338 C6337 1.398 . S
C6338 C6339 1.391 . S
C6339 H6327 0.950 . S
C6339 C6335 1.393 . S
C6339 C6338 1.391 . S
H6340 C6348 0.950 . S
H6341 C6353 0.950 . S
H6342 C6350 0.950 . S
H6343 C6352 0.950 . S
H6344 C6354 0.950 . S
H6345 C6356 0.950 . S
H6346 C6358 0.950 . S
H6347 C6359 0.950 . S
C6348 H6340 0.950 . S
C6348 C6349 1.386 . S
C6348 C6350 1.391 . S
C6349 C6348 1.386 . S
C6349 C6353 1.393 . S
C6350 H6342 0.950 . S
C6350 C6348 1.391 . S
C6350 C6351 1.400 . S
C6351 C6350 1.400 . S
C6351 C6352 1.398 . S
C6351 C6357 1.491 . S
C6352 H6343 0.950 . S
C6352 C6351 1.398 . S
C6352 C6353 1.391 . S
C6353 H6341 0.950 . S
C6353 C6349 1.393 . S
C6353 C6352 1.391 . S
C6354 H6344 0.950 . S
C6354 C6355 1.386 . S
C6354 C6356 1.391 . S
C6355 C6354 1.386 . S
C6355 C6359 1.393 . S
C6356 H6345 0.950 . S
C6356 C6354 1.391 . S
C6356 C6357 1.400 . S
C6357 C6351 1.491 . S
C6357 C6356 1.400 . S
C6357 C6358 1.398 . S
C6358 H6346 0.950 . S
C6358 C6357 1.398 . S
C6358 C6359 1.391 . S
C6359 H6347 0.950 . S
C6359 C6355 1.393 . S
C6359 C6358 1.391 . S
H6360 C6368 0.950 . S
H6361 C6373 0.950 . S
H6362 C6370 0.950 . S
H6363 C6372 0.950 . S
H6364 C6374 0.950 . S
H6365 C6376 0.950 . S
H6366 C6378 0.950 . S
H6367 C6379 0.950 . S
C6368 H6360 0.950 . S
C6368 C6369 1.386 . S
C6368 C6370 1.391 . S
C6369 C6368 1.386 . S
C6369 C6373 1.393 . S
C6370 H6362 0.950 . S
C6370 C6368 1.391 . S
C6370 C6371 1.400 . S
C6371 C6370 1.400 . S
C6371 C6372 1.398 . S
C6371 C6377 1.491 . S
C6372 H6363 0.950 . S
C6372 C6371 1.398 . S
C6372 C6373 1.391 . S
C6373 H6361 0.950 . S
C6373 C6369 1.393 . S
C6373 C6372 1.391 . S
C6374 H6364 0.950 . S
C6374 C6375 1.386 . S
C6374 C6376 1.391 . S
C6375 C6374 1.386 . S
C6375 C6379 1.393 . S
C6376 H6365 0.950 . S
C6376 C6374 1.391 . S
C6376 C6377 1.400 . S
C6377 C6371 1.491 . S
C6377 C6376 1.400 . S
C6377 C6378 1.398 . S
C6378 H6366 0.950 . S
C6378 C6377 1.398 . S
C6378 C6379 1.391 . S
C6379 H6367 0.950 . S
C6379 C6375 1.393 . S
C6379 C6378 1.391 . S
H6380 C6388 0.950 . S
H6381 C6393 0.950 . S
H6382 C6390 0.950 . S
H6383 C6392 0.950 . S
H6384 C6394 0.950 . S
H6385 C6396 0.950 . S
H6386 C6398 0.950 . S
H6387 C6399 0.950 . S
C6388 H6380 0.950 . S
C6388 C6389 1.386 . S
C6388 C6390 1.391 . S
C6389 C6388 1.386 . S
C6389 C6393 1.393 . S
C6390 H6382 0.950 . S
C6390 C6388 1.391 . S
C6390 C6391 1.400 . S
C6391 C6390 1.400 . S
C6391 C6392 1.398 . S
C6391 C6397 1.491 . S
C6392 H6383 0.950 . S
C6392 C6391 1.398 . S
C6392 C6393 1.391 . S
C6393 H6381 0.950 . S
C6393 C6389 1.393 . S
C6393 C6392 1.391 . S
C6394 H6384 0.950 . S
C6394 C6395 1.386 . S
C6394 C6396 1.391 . S
C6395 C6394 1.386 . S
C6395 C6399 1.393 . S
C6396 H6385 0.950 . S
C6396 C6394 1.391 . S
C6396 C6397 1.400 . S
C6397 C6391 1.491 . S
C6397 C6396 1.400 . S
C6397 C6398 1.398 . S
C6398 H6386 0.950 . S
C6398 C6397 1.398 . S
C6398 C6399 1.391 . S
C6399 H6387 0.950 . S
C6399 C6395 1.393 . S
C6399 C6398 1.391 . S
H6400 C6408 0.950 . S
H6401 C6413 0.950 . S
H6402 C6410 0.950 . S
H6403 C6412 0.950 . S
H6404 C6414 0.950 . S
H6405 C6416 0.950 . S
H6406 C6418 0.950 . S
H6407 C6419 0.950 . S
C6408 H6400 0.950 . S
C6408 C6409 1.386 . S
C6408 C6410 1.391 . S
C6409 C6408 1.386 . S
C6409 C6413 1.393 . S
C6410 H6402 0.950 . S
C6410 C6408 1.391 . S
C6410 C6411 1.400 . S
C6411 C6410 1.400 . S
C6411 C6412 1.398 . S
C6411 C6417 1.491 . S
C6412 H6403 0.950 . S
C6412 C6411 1.398 . S
C6412 C6413 1.391 . S
C6413 H6401 0.950 . S
C6413 C6409 1.393 . S
C6413 C6412 1.391 . S
C6414 H6404 0.950 . S
C6414 C6415 1.386 . S
C6414 C6416 1.391 . S
C6415 C6414 1.386 . S
C6415 C6419 1.393 . S
C6416 H6405 0.950 . S
C6416 C6414 1.391 . S
C6416 C6417 1.400 . S
C6417 C6411 1.491 . S
C6417 C6416 1.400 . S
C6417 C6418 1.398 . S
C6418 H6406 0.950 . S
C6418 C6417 1.398 . S
C6418 C6419 1.391 . S
C6419 H6407 0.950 . S
C6419 C6415 1.393 . S
C6419 C6418 1.391 . S
H6420 C6428 0.950 . S
H6421 C6433 0.950 . S
H6422 C6430 0.950 . S
H6423 C6432 0.950 . S
H6424 C6434 0.950 . S
H6425 C6436 0.950 . S
H6426 C6438 0.950 . S
H6427 C6439 0.950 . S
C6428 H6420 0.950 . S
C6428 C6429 1.386 . S
C6428 C6430 1.391 . S
C6429 C6428 1.386 . S
C6429 C6433 1.393 . S
C6430 H6422 0.950 . S
C6430 C6428 1.391 . S
C6430 C6431 1.400 . S
C6431 C6430 1.400 . S
C6431 C6432 1.398 . S
C6431 C6437 1.491 . S
C6432 H6423 0.950 . S
C6432 C6431 1.398 . S
C6432 C6433 1.391 . S
C6433 H6421 0.950 . S
C6433 C6429 1.393 . S
C6433 C6432 1.391 . S
C6434 H6424 0.950 . S
C6434 C6435 1.386 . S
C6434 C6436 1.391 . S
C6435 C6434 1.386 . S
C6435 C6439 1.393 . S
C6436 H6425 0.950 . S
C6436 C6434 1.391 . S
C6436 C6437 1.400 . S
C6437 C6431 1.491 . S
C6437 C6436 1.400 . S
C6437 C6438 1.398 . S
C6438 H6426 0.950 . S
C6438 C6437 1.398 . S
C6438 C6439 1.391 . S
C6439 H6427 0.950 . S
C6439 C6435 1.393 . S
C6439 C6438 1.391 . S
H6440 C6448 0.950 . S
H6441 C6453 0.950 . S
H6442 C6450 0.950 . S
H6443 C6452 0.950 . S
H6444 C6454 0.950 . S
H6445 C6456 0.950 . S
H6446 C6458 0.950 . S
H6447 C6459 0.950 . S
C6448 H6440 0.950 . S
C6448 C6449 1.386 . S
C6448 C6450 1.391 . S
C6449 C6448 1.386 . S
C6449 C6453 1.393 . S
C6450 H6442 0.950 . S
C6450 C6448 1.391 . S
C6450 C6451 1.400 . S
C6451 C6450 1.400 . S
C6451 C6452 1.398 . S
C6451 C6457 1.491 . S
C6452 H6443 0.950 . S
C6452 C6451 1.398 . S
C6452 C6453 1.391 . S
C6453 H6441 0.950 . S
C6453 C6449 1.393 . S
C6453 C6452 1.391 . S
C6454 H6444 0.950 . S
C6454 C6455 1.386 . S
C6454 C6456 1.391 . S
C6455 C6454 1.386 . S
C6455 C6459 1.393 . S
C6456 H6445 0.950 . S
C6456 C6454 1.391 . S
C6456 C6457 1.400 . S
C6457 C6451 1.491 . S
C6457 C6456 1.400 . S
C6457 C6458 1.398 . S
C6458 H6446 0.950 . S
C6458 C6457 1.398 . S
C6458 C6459 1.391 . S
C6459 H6447 0.950 . S
C6459 C6455 1.393 . S
C6459 C6458 1.391 . S
H6460 C6468 0.950 . S
H6461 C6473 0.950 . S
H6462 C6470 0.950 . S
H6463 C6472 0.950 . S
H6464 C6474 0.950 . S
H6465 C6476 0.950 . S
H6466 C6478 0.950 . S
H6467 C6479 0.950 . S
C6468 H6460 0.950 . S
C6468 C6469 1.386 . S
C6468 C6470 1.391 . S
C6469 C6468 1.386 . S
C6469 C6473 1.393 . S
C6470 H6462 0.950 . S
C6470 C6468 1.391 . S
C6470 C6471 1.400 . S
C6471 C6470 1.400 . S
C6471 C6472 1.398 . S
C6471 C6477 1.491 . S
C6472 H6463 0.950 . S
C6472 C6471 1.398 . S
C6472 C6473 1.391 . S
C6473 H6461 0.950 . S
C6473 C6469 1.393 . S
C6473 C6472 1.391 . S
C6474 H6464 0.950 . S
C6474 C6475 1.386 . S
C6474 C6476 1.391 . S
C6475 C6474 1.386 . S
C6475 C6479 1.393 . S
C6476 H6465 0.950 . S
C6476 C6474 1.391 . S
C6476 C6477 1.400 . S
C6477 C6471 1.491 . S
C6477 C6476 1.400 . S
C6477 C6478 1.398 . S
C6478 H6466 0.950 . S
C6478 C6477 1.398 . S
C6478 C6479 1.391 . S
C6479 H6467 0.950 . S
C6479 C6475 1.393 . S
C6479 C6478 1.391 . S
H6480 C6488 0.950 . S
H6481 C6493 0.950 . S
H6482 C6490 0.950 . S
H6483 C6492 0.950 . S
H6484 C6494 0.950 . S
H6485 C6496 0.950 . S
H6486 C6498 0.950 . S
H6487 C6499 0.950 . S
C6488 H6480 0.950 . S
C6488 C6489 1.386 . S
C6488 C6490 1.391 . S
C6489 C6488 1.386 . S
C6489 C6493 1.393 . S
C6490 H6482 0.950 . S
C6490 C6488 1.391 . S
C6490 C6491 1.400 . S
C6491 C6490 1.400 . S
C6491 C6492 1.398 . S
C6491 C6497 1.491 . S
C6492 H6483 0.950 . S
C6492 C6491 1.398 . S
C6492 C6493 1.391 . S
C6493 H6481 0.950 . S
C6493 C6489 1.393 . S
C6493 C6492 1.391 . S
C6494 H6484 0.950 . S
C6494 C6495 1.386 . S
C6494 C6496 1.391 . S
C6495 C6494 1.386 . S
C6495 C6499 1.393 . S
C6496 H6485 0.950 . S
C6496 C6494 1.391 . S
C6496 C6497 1.400 . S
C6497 C6491 1.491 . S
C6497 C6496 1.400 . S
C6497 C6498 1.398 . S
C6498 H6486 0.950 . S
C6498 C6497 1.398 . S
C6498 C6499 1.391 . S
C6499 H6487 0.950 . S
C6499 C6495 1.393 . S
C6499 C6498 1.391 . S
H6500 C6508 0.950 . S
H6501 C6513 0.950 . S
H6502 C6510 0.950 . S
H6503 C6512 0.950 . S
H6504 C6514 0.950 . S
H6505 C6516 0.950 . S
H6506 C6518 0.950 . S
H6507 C6519 0.950 . S
C6508 H6500 0.950 . S
C6508 C6509 1.386 . S
C6508 C6510 1.391 . S
C6509 C6508 1.386 . S
C6509 C6513 1.393 . S
C6510 H6502 0.950 . S
C6510 C6508 1.391 . S
C6510 C6511 1.400 . S
C6511 C6510 1.400 . S
C6511 C6512 1.398 . S
C6511 C6517 1.491 . S
C6512 H6503 0.950 . S
C6512 C6511 1.398 . S
C6512 C6513 1.391 . S
C6513 H6501 0.950 . S
C6513 C6509 1.393 . S
C6513 C6512 1.391 . S
C6514 H6504 0.950 . S
C6514 C6515 1.386 . S
C6514 C6516 1.391 . S
C6515 C6514 1.386 . S
C6515 C6519 1.393 . S
C6516 H6505 0.950 . S
C6516 C6514 1.391 . S
C6516 C6517 1.400 . S
C6517 C6511 1.491 . S
C6517 C6516 1.400 . S
C6517 C6518 1.398 . S
C6518 H6506 0.950 . S
C6518 C6517 1.398 . S
C6518 C6519 1.391 . S
C6519 H6507 0.950 . S
C6519 C6515 1.393 . S
C6519 C6518 1.391 . S
H6520 C6528 0.950 . S
H6521 C6533 0.950 . S
H6522 C6530 0.950 . S
H6523 C6532 0.950 . S
H6524 C6534 0.950 . S
H6525 C6536 0.950 . S
H6526 C6538 0.950 . S
H6527 C6539 0.950 . S
C6528 H6520 0.950 . S
C6528 C6529 1.386 . S
C6528 C6530 1.391 . S
C6529 C6528 1.386 . S
C6529 C6533 1.393 . S
C6530 H6522 0.950 . S
C6530 C6528 1.391 . S
C6530 C6531 1.400 . S
C6531 C6530 1.400 . S
C6531 C6532 1.398 . S
C6531 C6537 1.491 . S
C6532 H6523 0.950 . S
C6532 C6531 1.398 . S
C6532 C6533 1.391 . S
C6533 H6521 0.950 . S
C6533 C6529 1.393 . S
C6533 C6532 1.391 . S
C6534 H6524 0.950 . S
C6534 C6535 1.386 . S
C6534 C6536 1.391 . S
C6535 C6534 1.386 . S
C6535 C6539 1.393 . S
C6536 H6525 0.950 . S
C6536 C6534 1.391 . S
C6536 C6537 1.400 . S
C6537 C6531 1.491 . S
C6537 C6536 1.400 . S
C6537 C6538 1.398 . S
C6538 H6526 0.950 . S
C6538 C6537 1.398 . S
C6538 C6539 1.391 . S
C6539 H6527 0.950 . S
C6539 C6535 1.393 . S
C6539 C6538 1.391 . S
H6540 C6548 0.950 . S
H6541 C6553 0.950 . S
H6542 C6550 0.950 . S
H6543 C6552 0.950 . S
H6544 C6554 0.950 . S
H6545 C6556 0.950 . S
H6546 C6558 0.950 . S
H6547 C6559 0.950 . S
C6548 H6540 0.950 . S
C6548 C6549 1.386 . S
C6548 C6550 1.391 . S
C6549 C6548 1.386 . S
C6549 C6553 1.393 . S
C6550 H6542 0.950 . S
C6550 C6548 1.391 . S
C6550 C6551 1.400 . S
C6551 C6550 1.400 . S
C6551 C6552 1.398 . S
C6551 C6557 1.491 . S
C6552 H6543 0.950 . S
C6552 C6551 1.398 . S
C6552 C6553 1.391 . S
C6553 H6541 0.950 . S
C6553 C6549 1.393 . S
C6553 C6552 1.391 . S
C6554 H6544 0.950 . S
C6554 C6555 1.386 . S
C6554 C6556 1.391 . S
C6555 C6554 1.386 . S
C6555 C6559 1.393 . S
C6556 H6545 0.950 . S
C6556 C6554 1.391 . S
C6556 C6557 1.400 . S
C6557 C6551 1.491 . S
C6557 C6556 1.400 . S
C6557 C6558 1.398 . S
C6558 H6546 0.950 . S
C6558 C6557 1.398 . S
C6558 C6559 1.391 . S
C6559 H6547 0.950 . S
C6559 C6555 1.393 . S
C6559 C6558 1.391 . S
H6560 C6568 0.950 . S
H6561 C6573 0.950 . S
H6562 C6570 0.950 . S
H6563 C6572 0.950 . S
H6564 C6574 0.950 . S
H6565 C6576 0.950 . S
H6566 C6578 0.950 . S
H6567 C6579 0.950 . S
C6568 H6560 0.950 . S
C6568 C6569 1.386 . S
C6568 C6570 1.391 . S
C6569 C6568 1.386 . S
C6569 C6573 1.393 . S
C6570 H6562 0.950 . S
C6570 C6568 1.391 . S
C6570 C6571 1.400 . S
C6571 C6570 1.400 . S
C6571 C6572 1.398 . S
C6571 C6577 1.491 . S
C6572 H6563 0.950 . S
C6572 C6571 1.398 . S
C6572 C6573 1.391 . S
C6573 H6561 0.950 . S
C6573 C6569 1.393 . S
C6573 C6572 1.391 . S
C6574 H6564 0.950 . S
C6574 C6575 1.386 . S
C6574 C6576 1.391 . S
C6575 C6574 1.386 . S
C6575 C6579 1.393 . S
C6576 H6565 0.950 . S
C6576 C6574 1.391 . S
C6576 C6577 1.400 . S
C6577 C6571 1.491 . S
C6577 C6576 1.400 . S
C6577 C6578 1.398 . S
C6578 H6566 0.950 . S
C6578 C6577 1.398 . S
C6578 C6579 1.391 . S
C6579 H6567 0.950 . S
C6579 C6575 1.393 . S
C6579 C6578 1.391 . S
H6580 C6588 0.950 . S
H6581 C6593 0.950 . S
H6582 C6590 0.950 . S
H6583 C6592 0.950 . S
H6584 C6594 0.950 . S
H6585 C6596 0.950 . S
H6586 C6598 0.950 . S
H6587 C6599 0.950 . S
C6588 H6580 0.950 . S
C6588 C6589 1.386 . S
C6588 C6590 1.391 . S
C6589 C6588 1.386 . S
C6589 C6593 1.393 . S
C6590 H6582 0.950 . S
C6590 C6588 1.391 . S
C6590 C6591 1.400 . S
C6591 C6590 1.400 . S
C6591 C6592 1.398 . S
C6591 C6597 1.491 . S
C6592 H6583 0.950 . S
C6592 C6591 1.398 . S
C6592 C6593 1.391 . S
C6593 H6581 0.950 . S
C6593 C6589 1.393 . S
C6593 C6592 1.391 . S
C6594 H6584 0.950 . S
C6594 C6595 1.386 . S
C6594 C6596 1.391 . S
C6595 C6594 1.386 . S
C6595 C6599 1.393 . S
C6596 H6585 0.950 . S
C6596 C6594 1.391 . S
C6596 C6597 1.400 . S
C6597 C6591 1.491 . S
C6597 C6596 1.400 . S
C6597 C6598 1.398 . S
C6598 H6586 0.950 . S
C6598 C6597 1.398 . S
C6598 C6599 1.391 . S
C6599 H6587 0.950 . S
C6599 C6595 1.393 . S
C6599 C6598 1.391 . S
H6600 C6608 0.950 . S
H6601 C6613 0.950 . S
H6602 C6610 0.950 . S
H6603 C6612 0.950 . S
H6604 C6614 0.950 . S
H6605 C6616 0.950 . S
H6606 C6618 0.950 . S
H6607 C6619 0.950 . S
C6608 H6600 0.950 . S
C6608 C6609 1.386 . S
C6608 C6610 1.391 . S
C6609 C6608 1.386 . S
C6609 C6613 1.393 . S
C6610 H6602 0.950 . S
C6610 C6608 1.391 . S
C6610 C6611 1.400 . S
C6611 C6610 1.400 . S
C6611 C6612 1.398 . S
C6611 C6617 1.491 . S
C6612 H6603 0.950 . S
C6612 C6611 1.398 . S
C6612 C6613 1.391 . S
C6613 H6601 0.950 . S
C6613 C6609 1.393 . S
C6613 C6612 1.391 . S
C6614 H6604 0.950 . S
C6614 C6615 1.386 . S
C6614 C6616 1.391 . S
C6615 C6614 1.386 . S
C6615 C6619 1.393 . S
C6616 H6605 0.950 . S
C6616 C6614 1.391 . S
C6616 C6617 1.400 . S
C6617 C6611 1.491 . S
C6617 C6616 1.400 . S
C6617 C6618 1.398 . S
C6618 H6606 0.950 . S
C6618 C6617 1.398 . S
C6618 C6619 1.391 . S
C6619 H6607 0.950 . S
C6619 C6615 1.393 . S
C6619 C6618 1.391 . S
H6620 C6628 0.950 . S
H6621 C6633 0.950 . S
H6622 C6630 0.950 . S
H6623 C6632 0.950 . S
H6624 C6634 0.950 . S
H6625 C6636 0.950 . S
H6626 C6638 0.950 . S
H6627 C6639 0.950 . S
C6628 H6620 0.950 . S
C6628 C6629 1.386 . S
C6628 C6630 1.391 . S
C6629 C6628 1.386 . S
C6629 C6633 1.393 . S
C6630 H6622 0.950 . S
C6630 C6628 1.391 . S
C6630 C6631 1.400 . S
C6631 C6630 1.400 . S
C6631 C6632 1.398 . S
C6631 C6637 1.491 . S
C6632 H6623 0.950 . S
C6632 C6631 1.398 . S
C6632 C6633 1.391 . S
C6633 H6621 0.950 . S
C6633 C6629 1.393 . S
C6633 C6632 1.391 . S
C6634 H6624 0.950 . S
C6634 C6635 1.386 . S
C6634 C6636 1.391 . S
C6635 C6634 1.386 . S
C6635 C6639 1.393 . S
C6636 H6625 0.950 . S
C6636 C6634 1.391 . S
C6636 C6637 1.400 . S
C6637 C6631 1.491 . S
C6637 C6636 1.400 . S
C6637 C6638 1.398 . S
C6638 H6626 0.950 . S
C6638 C6637 1.398 . S
C6638 C6639 1.391 . S
C6639 H6627 0.950 . S
C6639 C6635 1.393 . S
C6639 C6638 1.391 . S
H6640 C6648 0.950 . S
H6641 C6653 0.950 . S
H6642 C6650 0.950 . S
H6643 C6652 0.950 . S
H6644 C6654 0.950 . S
H6645 C6656 0.950 . S
H6646 C6658 0.950 . S
H6647 C6659 0.950 . S
C6648 H6640 0.950 . S
C6648 C6649 1.386 . S
C6648 C6650 1.391 . S
C6649 C6648 1.386 . S
C6649 C6653 1.393 . S
C6650 H6642 0.950 . S
C6650 C6648 1.391 . S
C6650 C6651 1.400 . S
C6651 C6650 1.400 . S
C6651 C6652 1.398 . S
C6651 C6657 1.491 . S
C6652 H6643 0.950 . S
C6652 C6651 1.398 . S
C6652 C6653 1.391 . S
C6653 H6641 0.950 . S
C6653 C6649 1.393 . S
C6653 C6652 1.391 . S
C6654 H6644 0.950 . S
C6654 C6655 1.386 . S
C6654 C6656 1.391 . S
C6655 C6654 1.386 . S
C6655 C6659 1.393 . S
C6656 H6645 0.950 . S
C6656 C6654 1.391 . S
C6656 C6657 1.400 . S
C6657 C6651 1.491 . S
C6657 C6656 1.400 . S
C6657 C6658 1.398 . S
C6658 H6646 0.950 . S
C6658 C6657 1.398 . S
C6658 C6659 1.391 . S
C6659 H6647 0.950 . S
C6659 C6655 1.393 . S
C6659 C6658 1.391 . S
H6660 C6668 0.950 . S
H6661 C6673 0.950 . S
H6662 C6670 0.950 . S
H6663 C6672 0.950 . S
H6664 C6674 0.950 . S
H6665 C6676 0.950 . S
H6666 C6678 0.950 . S
H6667 C6679 0.950 . S
C6668 H6660 0.950 . S
C6668 C6669 1.386 . S
C6668 C6670 1.391 . S
C6669 C6668 1.386 . S
C6669 C6673 1.393 . S
C6670 H6662 0.950 . S
C6670 C6668 1.391 . S
C6670 C6671 1.400 . S
C6671 C6670 1.400 . S
C6671 C6672 1.398 . S
C6671 C6677 1.491 . S
C6672 H6663 0.950 . S
C6672 C6671 1.398 . S
C6672 C6673 1.391 . S
C6673 H6661 0.950 . S
C6673 C6669 1.393 . S
C6673 C6672 1.391 . S
C6674 H6664 0.950 . S
C6674 C6675 1.386 . S
C6674 C6676 1.391 . S
C6675 C6674 1.386 . S
C6675 C6679 1.393 . S
C6676 H6665 0.950 . S
C6676 C6674 1.391 . S
C6676 C6677 1.400 . S
C6677 C6671 1.491 . S
C6677 C6676 1.400 . S
C6677 C6678 1.398 . S
C6678 H6666 0.950 . S
C6678 C6677 1.398 . S
C6678 C6679 1.391 . S
C6679 H6667 0.950 . S
C6679 C6675 1.393 . S
C6679 C6678 1.391 . S
H6680 C6688 0.950 . S
H6681 C6693 0.950 . S
H6682 C6690 0.950 . S
H6683 C6692 0.950 . S
H6684 C6694 0.950 . S
H6685 C6696 0.950 . S
H6686 C6698 0.950 . S
H6687 C6699 0.950 . S
C6688 H6680 0.950 . S
C6688 C6689 1.386 . S
C6688 C6690 1.391 . S
C6689 C6688 1.386 . S
C6689 C6693 1.393 . S
C6690 H6682 0.950 . S
C6690 C6688 1.391 . S
C6690 C6691 1.400 . S
C6691 C6690 1.400 . S
C6691 C6692 1.398 . S
C6691 C6697 1.491 . S
C6692 H6683 0.950 . S
C6692 C6691 1.398 . S
C6692 C6693 1.391 . S
C6693 H6681 0.950 . S
C6693 C6689 1.393 . S
C6693 C6692 1.391 . S
C6694 H6684 0.950 . S
C6694 C6695 1.386 . S
C6694 C6696 1.391 . S
C6695 C6694 1.386 . S
C6695 C6699 1.393 . S
C6696 H6685 0.950 . S
C6696 C6694 1.391 . S
C6696 C6697 1.400 . S
C6697 C6691 1.491 . S
C6697 C6696 1.400 . S
C6697 C6698 1.398 . S
C6698 H6686 0.950 . S
C6698 C6697 1.398 . S
C6698 C6699 1.391 . S
C6699 H6687 0.950 . S
C6699 C6695 1.393 . S
C6699 C6698 1.391 . S
H6700 C6708 0.950 . S
H6701 C6713 0.950 . S
H6702 C6710 0.950 . S
H6703 C6712 0.950 . S
H6704 C6714 0.950 . S
H6705 C6716 0.950 . S
H6706 C6718 0.950 . S
H6707 C6719 0.950 . S
C6708 H6700 0.950 . S
C6708 C6709 1.386 . S
C6708 C6710 1.391 . S
C6709 C6708 1.386 . S
C6709 C6713 1.393 . S
C6710 H6702 0.950 . S
C6710 C6708 1.391 . S
C6710 C6711 1.400 . S
C6711 C6710 1.400 . S
C6711 C6712 1.398 . S
C6711 C6717 1.491 . S
C6712 H6703 0.950 . S
C6712 C6711 1.398 . S
C6712 C6713 1.391 . S
C6713 H6701 0.950 . S
C6713 C6709 1.393 . S
C6713 C6712 1.391 . S
C6714 H6704 0.950 . S
C6714 C6715 1.386 . S
C6714 C6716 1.391 . S
C6715 C6714 1.386 . S
C6715 C6719 1.393 . S
C6716 H6705 0.950 . S
C6716 C6714 1.391 . S
C6716 C6717 1.400 . S
C6717 C6711 1.491 . S
C6717 C6716 1.400 . S
C6717 C6718 1.398 . S
C6718 H6706 0.950 . S
C6718 C6717 1.398 . S
C6718 C6719 1.391 . S
C6719 H6707 0.950 . S
C6719 C6715 1.393 . S
C6719 C6718 1.391 . S
C3849 C2 1.513 . S
C3855 C3221 1.497 . S
C3869 C42 1.511 . S
C3875 C1341 1.487 . S
C3889 C3301 1.491 . S
C3895 C82 1.513 . S
C3909 C1421 1.489 . S
C3915 C122 1.512 . S
C3929 C162 1.507 . S
C3935 C3381 1.487 . S
C3949 C202 1.513 . S
C3955 C1501 1.498 . S
C3969 C3461 1.492 . S
C3975 C242 1.504 . S
C3989 C1581 1.491 . S
C3995 C282 1.513 . S
C4009 C322 1.513 . S
C4015 C3541 1.490 . S
C4029 C362 1.504 . S
C4035 C3821 1.492 . S
C4049 C402 1.504 . S
C4055 C3741 1.493 . S
C4069 C442 1.513 . S
C4075 C3781 1.497 . S
C4089 C1661 1.503 . S
C4095 C482 1.509 . S
C4109 C522 1.511 . S
C4115 C3621 1.488 . S
C4129 C1741 1.503 . S
C4135 C562 1.509 . S
C4149 C1781 1.494 . S
C4155 C602 1.513 . S
C4169 C2901 1.494 . S
C4175 C642 1.513 . S
C4189 C1141 1.501 . S
C4195 C682 1.505 . S
C4209 C3101 1.496 . S
C4215 C722 1.504 . S
C4229 C762 1.513 . S
C4235 C1221 1.492 . S
C4249 C1261 1.495 . S
C4255 C802 1.513 . S
C4269 C842 1.513 . S
C4275 C2981 1.490 . S
C4289 C3021 1.502 . S
C4295 C882 1.510 . S
C4309 C922 1.506 . S
C4315 C2941 1.502 . S
C4329 C2261 1.508 . S
C4335 C962 1.500 . S
C4349 C381 1.509 . S
C4355 C1002 1.498 . S
C4369 C1042 1.485 . S
C4375 C2341 1.515 . S
C4389 C1082 1.501 . S
C4395 C461 1.508 . S
C4409 C1122 1.488 . S
C4415 C2421 1.514 . S
C4429 C541 1.509 . S
C4435 C1162 1.499 . S
C4449 C2501 1.510 . S
C4455 C1202 1.497 . S
C4469 C1242 1.501 . S
C4475 C621 1.508 . S
C4489 C2581 1.508 . S
C4495 C1282 1.501 . S
C4509 C2861 1.512 . S
C4515 C1322 1.492 . S
C4529 C2781 1.515 . S
C4535 C1362 1.484 . S
C4549 C1402 1.488 . S
C4555 C2821 1.514 . S
C4569 C701 1.515 . S
C4575 C1442 1.484 . S
C4589 C1482 1.486 . S
C4595 C2661 1.515 . S
C4609 C781 1.515 . S
C4615 C1522 1.484 . S
C4629 C821 1.515 . S
C4635 C1562 1.486 . S
C4649 C1941 1.513 . S
C4655 C1602 1.488 . S
C4669 C181 1.511 . S
C4675 C1642 1.495 . S
C4689 C2141 1.515 . S
C4695 C1682 1.484 . S
C4709 C261 1.515 . S
C4715 C1722 1.484 . S
C4729 C301 1.510 . S
C4735 C1762 1.495 . S
C4749 C2021 1.515 . S
C4755 C1802 1.486 . S
C4769 C2061 1.508 . S
C4775 C1842 1.501 . S
C4789 C1882 1.484 . S
C4795 C1981 1.515 . S
C4809 C1301 1.490 . S
C4815 C1922 1.505 . S
C4829 C1962 1.508 . S
C4835 C3261 1.487 . S
C4849 C1381 1.501 . S
C4855 C2002 1.505 . S
C4869 C3341 1.487 . S
C4875 C2042 1.509 . S
C4889 C2082 1.504 . S
C4895 C1461 1.499 . S
C4909 C3421 1.503 . S
C4915 C2122 1.509 . S
C4929 C1541 1.503 . S
C4935 C2162 1.508 . S
C4949 C2202 1.511 . S
C4955 C3501 1.501 . S
C4969 C2242 1.504 . S
C4975 C1621 1.498 . S
C4989 C2282 1.507 . S
C4995 C1901 1.487 . S
C5009 C2322 1.512 . S
C5015 C1821 1.489 . S
C5029 C1861 1.492 . S
C5035 C2362 1.513 . S
C5049 C3581 1.501 . S
C5055 C2402 1.511 . S
C5069 C2442 1.511 . S
C5075 C1701 1.487 . S
C5089 C2482 1.504 . S
C5095 C3661 1.498 . S
C5109 C3701 1.503 . S
C5115 C2522 1.508 . S
C5129 C2562 1.510 . S
C5135 C981 1.487 . S
C5149 C2602 1.504 . S
C5155 C3061 1.492 . S
C5169 C1181 1.502 . S
C5175 C2642 1.506 . S
C5189 C3141 1.488 . S
C5195 C2682 1.511 . S
C5209 C3181 1.497 . S
C5215 C2722 1.504 . S
C5229 C1061 1.488 . S
C5235 C2762 1.507 . S
C5249 C1101 1.502 . S
C5255 C2802 1.506 . S
C5269 C2842 1.511 . S
C5275 C1021 1.501 . S
C5289 C341 1.511 . S
C5295 C2882 1.495 . S
C5309 C2301 1.510 . S
C5315 C2922 1.496 . S
C5329 C2962 1.500 . S
C5335 C421 1.509 . S
C5349 C3002 1.491 . S
C5355 C2381 1.513 . S
C5369 C501 1.514 . S
C5375 C3042 1.486 . S
C5389 C3082 1.496 . S
C5395 C2461 1.511 . S
C5409 C581 1.515 . S
C5415 C3122 1.484 . S
C5429 C2541 1.513 . S
C5435 C3162 1.491 . S
C5449 C3202 1.501 . S
C5455 C661 1.508 . S
C5469 C3242 1.498 . S
C5475 C941 1.509 . S
C5489 C861 1.515 . S
C5495 C3282 1.486 . S
C5509 C901 1.512 . S
C5515 C3322 1.492 . S
C5529 C2621 1.512 . S
C5535 C3362 1.493 . S
C5549 C741 1.509 . S
C5555 C3402 1.499 . S
C5569 C3442 1.484 . S
C5575 C2701 1.515 . S
C5589 C2741 1.509 . S
C5595 C3482 1.498 . S
C5609 C21 1.509 . S
C5615 C3522 1.499 . S
C5629 C3562 1.493 . S
C5635 C2101 1.511 . S
C5649 C221 1.509 . S
C5655 C3602 1.499 . S
C5669 C2181 1.509 . S
C5675 C3642 1.500 . S
C5689 C2221 1.512 . S
C5695 C3682 1.493 . S
C5709 C101 1.512 . S
C5715 C3722 1.491 . S
C5729 C3762 1.486 . S
C5735 C141 1.515 . S
C5749 C3802 1.489 . S
C5755 C61 1.513 . S
C5769 C375 1.509 . S
C5775 C15 1.510 . S
C5789 C415 1.508 . S
C5795 C55 1.508 . S
C5809 C455 1.509 . S
C5815 C95 1.508 . S
C5829 C335 1.510 . S
C5835 C135 1.510 . S
C5849 C615 1.509 . S
C5855 C175 1.509 . S
C5869 C495 1.510 . S
C5875 C215 1.510 . S
C5889 C255 1.510 . S
C5895 C535 1.510 . S
C5909 C575 1.510 . S
C5915 C295 1.510 . S
C5929 C655 1.509 . S
C5935 C735 1.508 . S
C5949 C2815 1.510 . S
C5955 C695 1.510 . S
C5969 C775 1.510 . S
C5975 C2855 1.510 . S
C5989 C2775 1.510 . S
C5995 C815 1.509 . S
C6009 C2735 1.509 . S
C6015 C855 1.510 . S
C6029 C895 1.510 . S
C6035 C2615 1.510 . S
C6049 C2695 1.509 . S
C6055 C935 1.510 . S
C6069 C975 1.509 . S
C6075 C1335 1.507 . S
C6089 C1015 1.510 . S
C6095 C1375 1.507 . S
C6109 C1415 1.509 . S
C6115 C1055 1.510 . S
C6129 C1295 1.509 . S
C6135 C1095 1.507 . S
C6149 C1575 1.510 . S
C6155 C1135 1.508 . S
C6169 C1455 1.509 . S
C6175 C1175 1.510 . S
C6189 C1215 1.509 . S
C6195 C1495 1.510 . S
C6209 C1535 1.507 . S
C6215 C1255 1.509 . S
C6229 C1695 1.507 . S
C6235 C1615 1.509 . S
C6249 C1655 1.510 . S
C6255 C3775 1.509 . S
C6269 C1735 1.509 . S
C6275 C3815 1.507 . S
C6289 C3735 1.510 . S
C6295 C1775 1.509 . S
C6309 C1815 1.510 . S
C6315 C3695 1.509 . S
C6329 C1855 1.510 . S
C6335 C3575 1.510 . S
C6349 C3655 1.507 . S
C6355 C1895 1.509 . S
C6369 C2295 1.510 . S
C6375 C1935 1.510 . S
C6389 C1975 1.509 . S
C6395 C2335 1.510 . S
C6409 C2015 1.510 . S
C6415 C2375 1.509 . S
C6429 C2255 1.508 . S
C6435 C2055 1.508 . S
C6449 C2535 1.510 . S
C6455 C2095 1.510 . S
C6469 C2415 1.508 . S
C6475 C2135 1.508 . S
C6489 C2175 1.510 . S
C6495 C2455 1.509 . S
C6509 C2215 1.510 . S
C6515 C2495 1.510 . S
C6529 C2575 1.510 . S
C6535 C2655 1.510 . S
C6549 C3255 1.507 . S
C6555 C2895 1.508 . S
C6569 C2935 1.508 . S
C6575 C3295 1.507 . S
C6589 C3335 1.509 . S
C6595 C2975 1.510 . S
C6609 C3215 1.510 . S
C6615 C3015 1.510 . S
C6629 C3495 1.509 . S
C6635 C3055 1.510 . S
C6649 C3375 1.507 . S
C6655 C3095 1.507 . S
C6669 C3415 1.508 . S
C6675 C3135 1.507 . S
C6689 C3455 1.508 . S
C6695 C3175 1.510 . S
C6709 C3535 1.508 . S
C6715 C3615 1.510 . S
