# Generated by pormake.
# Topology fnj, (5)-cn, num edge types: 1
# Building blocks:
#     Node 0, Type 0, BuildingBlock: XOMCOT_clean_sbu_1, # of connection points: 5
#     Node 1, Type 0, BuildingBlock: XOMCOT_clean_sbu_1, # of connection points: 5
#     Node 2, Type 0, BuildingBlock: XOMCOT_clean_sbu_1, # of connection points: 5
#     Node 3, Type 0, BuildingBlock: XOMCOT_clean_sbu_1, # of connection points: 5
#     Node 4, Type 0, BuildingBlock: XOMCOT_clean_sbu_1, # of connection points: 5
#     Node 5, Type 0, BuildingBlock: XOMCOT_clean_sbu_1, # of connection points: 5
#     Node 6, Type 0, BuildingBlock: XOMCOT_clean_sbu_1, # of connection points: 5
#     Node 7, Type 0, BuildingBlock: XOMCOT_clean_sbu_1, # of connection points: 5
#     Node 8, Type 0, BuildingBlock: XOMCOT_clean_sbu_1, # of connection points: 5
#     Node 9, Type 0, BuildingBlock: XOMCOT_clean_sbu_1, # of connection points: 5
#     Node 10, Type 0, BuildingBlock: XOMCOT_clean_sbu_1, # of connection points: 5
#     Node 11, Type 0, BuildingBlock: XOMCOT_clean_sbu_1, # of connection points: 5
#     Node 12, Type 0, BuildingBlock: XOMCOT_clean_sbu_1, # of connection points: 5
#     Node 13, Type 0, BuildingBlock: XOMCOT_clean_sbu_1, # of connection points: 5
#     Node 14, Type 0, BuildingBlock: XOMCOT_clean_sbu_1, # of connection points: 5
#     Node 15, Type 0, BuildingBlock: XOMCOT_clean_sbu_1, # of connection points: 5
#     Edge 16, Type (0, 0), None
#     Edge 17, Type (0, 0), None
#     Edge 18, Type (0, 0), None
#     Edge 19, Type (0, 0), None
#     Edge 20, Type (0, 0), None
#     Edge 21, Type (0, 0), None
#     Edge 22, Type (0, 0), None
#     Edge 23, Type (0, 0), None
#     Edge 24, Type (0, 0), None
#     Edge 25, Type (0, 0), None
#     Edge 26, Type (0, 0), None
#     Edge 27, Type (0, 0), None
#     Edge 28, Type (0, 0), None
#     Edge 29, Type (0, 0), None
#     Edge 30, Type (0, 0), None
#     Edge 31, Type (0, 0), None
#     Edge 32, Type (0, 0), None
#     Edge 33, Type (0, 0), None
#     Edge 34, Type (0, 0), None
#     Edge 35, Type (0, 0), None
#     Edge 36, Type (0, 0), None
#     Edge 37, Type (0, 0), None
#     Edge 38, Type (0, 0), None
#     Edge 39, Type (0, 0), None
#     Edge 40, Type (0, 0), None
#     Edge 41, Type (0, 0), None
#     Edge 42, Type (0, 0), None
#     Edge 43, Type (0, 0), None
#     Edge 44, Type (0, 0), None
#     Edge 45, Type (0, 0), None
#     Edge 46, Type (0, 0), None
#     Edge 47, Type (0, 0), None
#     Edge 48, Type (0, 0), None
#     Edge 49, Type (0, 0), None
#     Edge 50, Type (0, 0), None
#     Edge 51, Type (0, 0), None
#     Edge 52, Type (0, 0), None
#     Edge 53, Type (0, 0), None
#     Edge 54, Type (0, 0), None
#     Edge 55, Type (0, 0), None
# Relax obj value: 0.189
# Max RMSD: 0.162
# Mean RMSD: 0.161
data_MOF--net-fnj--node1-XOMCOT_clean_sbu_1--edge1-none
_symmetry_space_group_name_H-M    P1
_symmetry_Int_Tables_number       1
_symmetry_cell_setting            triclinic
loop_
_symmetry_equiv_pos_as_xyz
'x, y, z'
_cell_length_a     36.893981
_cell_length_b     36.861063
_cell_length_c     9.3476022
_cell_angle_alpha  90.75445
_cell_angle_beta   90.741178
_cell_angle_gamma 84.895983
loop_
_atom_site_label
_atom_site_type_symbol
_atom_site_fract_x
_atom_site_fract_y
_atom_site_fract_z
_atom_type_partial_charge
C0 C 0.43578 1.00991 0.34666 0.0
C1 C 0.43523 0.01341 0.49335 0.0
N2 N 0.43312 0.04914 0.52577 0.0
N3 N 0.43329 0.04336 0.28709 0.0
C4 C 0.43252 0.06664 0.40034 0.0
H5 H 0.43776 0.98428 0.28914 0.0
Co6 Co 0.42994 0.05679 0.09312 0.0
C7 C 0.39433 0.13438 0.17963 0.0
O8 O 0.42007 0.15632 0.16248 0.0
N9 N 0.42707 0.07053 0.90122 0.0
C10 C 0.43259 0.10043 0.69832 0.0
C11 C 0.43067 0.10361 0.84527 0.0
C12 C 0.42728 0.04765 0.78722 0.0
N13 N 0.43046 0.06516 0.66343 0.0
O14 O 0.47609 0.07497 0.10567 0.0
H15 H 0.4338 0.12807 0.90721 0.0
H16 H 0.42689 0.01852 0.79492 0.0
O17 O 0.40071 0.1006 0.15162 0.0
C18 C 0.49631 0.04837 0.04999 0.0
O19 O 0.48224 0.01787 0.01753 0.0
N20 N 0.38851 0.03474 0.06943 0.0
C21 C 0.34206 0.99065 0.93471 0.0
C22 C 0.32976 0.02673 0.97075 0.0
C23 C 0.35428 0.04909 0.03321 0.0
C24 C 0.39984 0.99958 0.04122 0.0
C25 C 0.37804 0.97787 0.96746 0.0
H26 H 0.34662 0.07792 0.04141 0.0
H27 H 0.4278 0.98962 0.05749 0.0
H28 H 0.43131 0.09589 0.39164 0.0
H29 H 0.43626 0.99146 0.56934 0.0
H30 H 0.43674 0.12195 0.62433 0.0
H31 H 0.30237 0.03801 0.94558 0.0
H32 H 0.39062 0.95185 0.93104 0.0
C33 C 0.27808 0.21243 0.60932 0.0
C34 C 0.27478 0.21128 0.75549 0.0
N35 N 0.24149 0.20123 0.784 0.0
N36 N 0.24714 0.20276 0.54609 0.0
C37 C 0.22513 0.1966 0.65619 0.0
H38 H 0.30177 0.21981 0.55419 0.0
Co39 Co 0.23612 0.19653 0.35211 0.0
C40 C 0.18613 0.139 0.42668 0.0
O41 O 0.15946 0.16508 0.42722 0.0
N42 N 0.22435 0.19087 0.15871 0.0
C43 C 0.19336 0.18815 0.9528 0.0
C44 C 0.19148 0.18584 0.09996 0.0
C45 C 0.24557 0.19665 0.04598 0.0
N46 N 0.22749 0.19503 0.92052 0.0
O47 O 0.24985 0.24623 0.30755 0.0
H48 H 0.16725 0.18231 0.15998 0.0
H49 H 0.27329 0.20346 0.05528 0.0
O50 O 0.21865 0.1469 0.39651 0.0
C51 C 0.24891 0.27843 0.36183 0.0
O52 O 0.23315 0.28551 0.48545 0.0
N53 N 0.28675 0.1762 0.31582 0.0
C54 C 0.35771 0.14848 0.23353 0.0
C55 C 0.33152 0.12515 0.27398 0.0
C56 C 0.29621 0.13941 0.31188 0.0
C57 C 0.31345 0.19896 0.28766 0.0
C58 C 0.3483 0.1858 0.24443 0.0
H59 H 0.27673 0.12037 0.33635 0.0
H60 H 0.30893 0.22802 0.29517 0.0
H61 H 0.19791 0.18842 0.6432 0.0
H62 H 0.29534 0.21717 0.83383 0.0
H63 H 0.17121 0.1862 0.87688 0.0
H64 H 0.33802 0.09597 0.27577 0.0
H65 H 0.36764 0.20509 0.2183 0.0
C66 C 0.08181 0.02826 0.28604 0.0
C67 C 0.08102 0.03347 0.13986 0.0
N68 N 0.09224 0.06656 0.11547 0.0
N69 N 0.0935 0.058 0.35186 0.0
C70 C 0.09973 0.0808 0.24456 0.0
H71 H 0.07472 1.00423 0.34066 0.0
Co72 Co 0.09976 0.06871 0.54546 0.0
C73 C 0.17798 0.10108 0.46619 0.0
O74 O 0.20467 0.07509 0.47189 0.0
N75 N 0.10596 0.08105 0.74247 0.0
C76 C 0.13154 0.09566 0.95128 0.0
C77 C 0.13458 0.09606 0.80457 0.0
C78 C 0.08537 0.07285 0.85493 0.0
N79 N 0.10084 0.08054 0.98165 0.0
O80 O 0.05321 0.04724 0.58947 0.0
H81 H 0.15758 0.10491 0.74895 0.0
H82 H 0.06054 0.05944 0.84592 0.0
O83 O 0.14517 0.09374 0.49452 0.0
C84 C 0.02089 0.05049 0.53651 0.0
O85 O 0.01351 0.07195 0.42693 0.0
N86 N 0.12571 0.02116 0.57897 0.0
C87 C 0.16363 0.95477 0.66173 0.0
C88 C 0.17433 0.9736 0.54115 0.0
C89 C 0.15511 1.00702 0.50227 0.0
C90 C 0.11308 1.00047 0.68557 0.0
C91 C 0.13187 0.96811 0.73003 0.0
H92 H 0.16427 0.02181 0.41256 0.0
H93 H 0.08881 1.00894 0.74309 0.0
H94 H 0.1098 0.10726 0.26028 0.0
H95 H 0.07426 0.01403 0.05814 0.0
H96 H 0.15165 0.10315 0.02904 0.0
H97 H 0.19856 0.96396 0.48303 0.0
H98 H 0.12246 0.95451 0.82289 0.0
C99 C 0.29889 0.86672 0.49145 0.0
C100 C 0.2959 0.86602 0.34458 0.0
N101 N 0.26027 0.86717 0.31012 0.0
N102 N 0.26527 0.86883 0.54779 0.0
C103 C 0.24228 0.86851 0.43438 0.0
H104 H 0.32392 0.8664 0.55298 0.0
Co105 Co 0.25306 0.873 0.73857 0.0
C106 C 0.18908 0.9285 0.74081 0.0
O107 O 0.19962 0.93895 0.86839 0.0
N108 N 0.24028 0.8755 0.93409 0.0
C109 C 0.20993 0.86652 0.13421 0.0
C110 C 0.20745 0.86925 0.98747 0.0
C111 C 0.26255 0.8747 0.05026 0.0
N112 N 0.24474 0.86988 0.17184 0.0
O113 O 0.23671 0.82623 0.73446 0.0
H114 H 0.1835 0.86542 0.923 0.0
H115 H 0.29161 0.87527 0.04707 0.0
O116 O 0.20603 0.90068 0.67972 0.0
C117 C 0.26408 0.80589 0.78435 0.0
O118 O 0.29608 0.81839 0.79455 0.0
N119 N 0.27521 0.91532 0.75174 0.0
C120 C 0.31868 0.96548 0.86405 0.0
C121 C 0.28884 0.97715 0.7757 0.0
C122 C 0.26712 0.95111 0.71925 0.0
C123 C 0.30732 0.90403 0.81388 0.0
C124 C 0.32749 0.92816 0.88191 0.0
H125 H 0.24413 0.95984 0.65302 0.0
H126 H 0.31543 0.87563 0.82577 0.0
H127 H 0.21298 0.87007 0.44235 0.0
H128 H 0.31811 0.86522 0.2699 0.0
H129 H 0.18839 0.86096 0.20601 0.0
H130 H 0.28211 1.00562 0.75185 0.0
H131 H 0.34905 0.91675 0.95155 0.0
C132 C 0.58746 0.07859 0.72454 0.0
C133 C 0.58842 0.07666 0.57715 0.0
N134 N 0.60152 0.04272 0.54101 0.0
N135 N 0.60054 0.04618 0.77962 0.0
C136 C 0.60784 0.02461 0.66364 0.0
H137 H 0.57641 0.10173 0.78731 0.0
Co138 Co 0.60204 0.03319 0.97319 0.0
C139 C 0.63357 0.95127 0.94654 0.0
O140 O 0.62093 0.93751 0.06247 0.0
N141 N 0.60168 0.02059 0.16667 0.0
C142 C 0.58418 0.99673 0.36977 0.0
C143 C 0.58417 0.99349 0.22337 0.0
C144 C 0.61039 0.04117 0.28062 0.0
N145 N 0.60056 0.02674 0.40415 0.0
O146 O 0.55326 0.02319 0.96003 0.0
H147 H 0.56927 0.97453 0.16211 0.0
H148 H 0.6219 0.06706 0.27289 0.0
O149 O 0.62462 0.98459 0.91589 0.0
C150 C 0.53444 0.05053 0.01688 0.0
O151 O 0.55042 0.07953 0.05665 0.0
N152 N 0.64846 0.04706 0.99404 0.0
C153 C 0.70499 0.07945 0.11966 0.0
C154 C 0.70516 0.04172 0.12215 0.0
C155 C 0.67628 0.02578 0.05764 0.0
C156 C 0.65031 0.08342 0.97852 0.0
C157 C 0.67908 0.10013 0.0373 0.0
H158 H 0.67411 0.99737 0.07746 0.0
H159 H 0.62743 0.10037 0.93702 0.0
H160 H 0.61581 0.99574 0.66672 0.0
H161 H 0.57807 0.09748 0.5029 0.0
H162 H 0.57064 0.98032 0.44408 0.0
H163 H 0.72478 0.02541 0.187 0.0
H164 H 0.67843 0.1296 0.03507 0.0
C165 C 0.74526 0.87235 0.49472 0.0
C166 C 0.75079 0.87158 0.34931 0.0
N167 N 0.78569 0.87741 0.32713 0.0
N168 N 0.77677 0.87803 0.56361 0.0
C169 C 0.80081 0.88164 0.45766 0.0
H170 H 0.71928 0.87109 0.54531 0.0
Co171 Co 0.78754 0.88417 0.75809 0.0
C172 C 0.81252 0.9655 0.68367 0.0
O173 O 0.78912 0.99448 0.68873 0.0
N174 N 0.80005 0.89054 0.95459 0.0
C175 C 0.81732 0.91475 0.16286 0.0
C176 C 0.81731 0.91787 0.01581 0.0
C177 C 0.79118 0.87047 0.06742 0.0
N178 N 0.80059 0.88501 0.19388 0.0
O179 O 0.77784 0.83194 0.79664 0.0
H180 H 0.82795 0.93982 0.95897 0.0
H181 H 0.77703 0.84614 0.0594 0.0
O182 O 0.80134 0.93431 0.71378 0.0
C183 C 0.75452 0.80851 0.77154 0.0
O184 O 0.72474 0.81775 0.69781 0.0
N185 N 0.73723 0.90249 0.7986 0.0
C186 C 0.66721 0.93264 0.88117 0.0
C187 C 0.68737 0.94961 0.77859 0.0
C188 C 0.72197 0.93395 0.73788 0.0
C189 C 0.71693 0.88504 0.89353 0.0
C190 C 0.68228 0.89937 0.93515 0.0
H191 H 0.73655 0.94757 0.65827 0.0
H192 H 0.72714 0.86 0.94199 0.0
H193 H 0.82846 0.88839 0.47583 0.0
H194 H 0.7303 0.86946 0.26641 0.0
H195 H 0.82641 0.93414 0.24046 0.0
H196 H 0.67725 0.97548 0.73344 0.0
H197 H 0.66811 0.88495 0.01435 0.0
C198 C 0.92136 0.06224 0.83642 0.0
C199 C 0.9199 0.05882 0.98245 0.0
N200 N 0.91227 0.02462 1.01028 0.0
N201 N 0.91425 0.03043 0.77309 0.0
C202 C 0.90936 1.00778 0.88246 0.0
H203 H 0.9271 0.08653 0.78077 0.0
Co204 Co 0.90969 0.01953 0.57941 0.0
C205 C 0.85099 0.97028 0.6446 0.0
O206 O 0.87549 0.94218 0.64655 0.0
N207 N 0.90564 1.0074 0.38552 0.0
C208 C 0.91232 0.97461 0.18346 0.0
C209 C 0.91103 0.97323 0.33105 0.0
C210 C 0.9035 0.02903 0.26955 0.0
N211 N 0.90783 1.00987 0.14673 0.0
O212 O 0.95941 0.03377 0.54338 0.0
H213 H 0.91584 0.949 0.39498 0.0
H214 H 0.90018 0.05828 0.27303 0.0
O215 O 0.86065 1.00217 0.61605 0.0
C216 C 0.99132 0.03088 0.60007 0.0
O217 O 0.99744 0.01233 0.7182 0.0
N218 N 0.88895 0.07007 0.54373 0.0
C219 C 0.86078 0.14269 0.48805 0.0
C220 C 0.83844 0.11703 0.54032 0.0
C221 C 0.853 0.08109 0.56801 0.0
C222 C 0.91086 0.09566 0.49602 0.0
C223 C 0.89744 0.13143 0.468 0.0
H224 H 0.83491 0.06255 0.60977 0.0
H225 H 0.93903 0.08923 0.47207 0.0
H226 H 0.90317 0.97983 0.86879 0.0
H227 H 0.92433 0.07972 0.06146 0.0
H228 H 0.91819 0.95189 0.1104 0.0
H229 H 0.80998 0.12458 0.56111 0.0
H230 H 0.91592 0.15003 0.42749 0.0
C231 C 0.72018 0.22275 0.61529 0.0
C232 C 0.72186 0.22156 0.76277 0.0
N233 N 0.75459 0.20522 0.79915 0.0
N234 N 0.75155 0.20682 0.56076 0.0
C235 C 0.77207 0.19677 0.67654 0.0
H236 H 0.69777 0.23501 0.55164 0.0
Co237 Co 0.76366 0.20337 0.3671 0.0
C238 C 0.84714 0.18103 0.45429 0.0
O239 O 0.87015 0.20621 0.45035 0.0
N240 N 0.77576 0.20146 0.17427 0.0
C241 C 0.80516 0.20654 0.97039 0.0
C242 C 0.80847 0.20609 0.11684 0.0
C243 C 0.75276 0.19985 0.06136 0.0
N244 N 0.77017 0.20277 0.93701 0.0
O245 O 0.76941 0.25319 0.36511 0.0
H246 H 0.83289 0.21058 0.17694 0.0
H247 H 0.72385 0.19751 0.07041 0.0
O248 O 0.81399 0.18979 0.41974 0.0
C249 C 0.74269 0.27177 0.30449 0.0
O250 O 0.71337 0.25615 0.26658 0.0
N251 N 0.755 0.15526 0.36024 0.0
C252 C 0.72473 0.09851 0.22815 0.0
C253 C 0.762 0.10111 0.2166 0.0
C254 C 0.77696 0.13002 0.28573 0.0
C255 C 0.71973 0.15 0.38661 0.0
C256 C 0.70417 0.121 0.32407 0.0
H257 H 0.80459 0.13502 0.26125 0.0
H258 H 0.70205 0.17083 0.43866 0.0
H259 H 0.79957 0.18426 0.67319 0.0
H260 H 0.70159 0.2332 0.83684 0.0
H261 H 0.82624 0.21117 0.89497 0.0
H262 H 0.77823 0.08392 0.14235 0.0
H263 H 0.67512 0.11927 0.33432 0.0
C264 C 0.9238 0.50615 0.8816 0.0
C265 C 0.92435 0.50931 0.02846 0.0
N266 N 0.92336 0.54496 0.06194 0.0
N267 N 0.92178 0.53972 0.82394 0.0
C268 C 0.92227 0.56279 0.93733 0.0
H269 H 0.92461 0.48085 0.82173 0.0
Co270 Co 0.91834 0.55263 0.63195 0.0
C271 C 0.86709 0.6213 0.63214 0.0
O272 O 0.85946 0.61663 0.49595 0.0
N273 N 0.91659 0.56583 0.43758 0.0
C274 C 0.9296 0.59437 0.23769 0.0
C275 C 0.92722 0.59718 0.38436 0.0
C276 C 0.91423 0.54389 0.32147 0.0
N277 N 0.92159 0.56071 0.19995 0.0
O278 O 0.96548 0.56837 0.64017 0.0
H279 H 0.93434 0.6201 0.44906 0.0
H280 H 0.90955 0.51553 0.32519 0.0
O281 O 0.89142 0.59961 0.69334 0.0
C282 C 0.98552 0.54163 0.58402 0.0
O283 O 0.97211 0.51045 0.5598 0.0
N284 N 0.87554 0.53125 0.61353 0.0
C285 C 0.82846 0.48806 0.47648 0.0
C286 C 0.81489 0.52083 0.54343 0.0
C287 C 0.8393 0.54253 0.6115 0.0
C288 C 0.88751 0.49727 0.57006 0.0
C289 C 0.86536 0.4764 0.49374 0.0
H290 H 0.82895 0.56816 0.6571 0.0
H291 H 0.91582 0.48804 0.57671 0.0
H292 H 0.92126 0.5921 0.92931 0.0
H293 H 0.92541 0.48724 0.10395 0.0
H294 H 0.93835 0.61459 0.16598 0.0
H295 H 0.78624 0.53016 0.54007 0.0
H296 H 0.87858 0.45258 0.44168 0.0
C297 C 0.76471 0.70978 0.1177 0.0
C298 C 0.75878 0.71124 0.26297 0.0
N299 N 0.72375 0.70572 0.28436 0.0
N300 N 0.73338 0.70376 0.04821 0.0
C301 C 0.70902 0.70089 0.15358 0.0
H302 H 0.79078 0.71086 0.06781 0.0
Co303 Co 0.7223 0.69774 0.85394 0.0
C304 C 0.70723 0.61409 0.88051 0.0
O305 O 0.73276 0.60037 0.7938 0.0
N306 N 0.70906 0.69211 0.6565 0.0
C307 C 0.69079 0.66931 0.44705 0.0
C308 C 0.69058 0.66584 0.59386 0.0
C309 C 0.71805 0.71244 0.54432 0.0
N310 N 0.70845 0.69845 0.41724 0.0
O311 O 0.73521 0.7488 0.81417 0.0
H312 H 0.67837 0.64468 0.64931 0.0
H313 H 0.73226 0.73673 0.55301 0.0
O314 O 0.70343 0.64875 0.90345 0.0
C315 C 0.75957 0.77142 0.83388 0.0
O316 O 0.78986 0.76149 0.90328 0.0
N317 N 0.77212 0.67705 0.81351 0.0
C318 C 0.83946 0.6439 0.71679 0.0
C319 C 0.82235 0.63029 0.8361 0.0
C320 C 0.78863 0.64735 0.8828 0.0
C321 C 0.79124 0.69255 0.70911 0.0
C322 C 0.8241 0.67624 0.65791 0.0
H323 H 0.77524 0.63583 0.97143 0.0
H324 H 0.78131 0.71739 0.65932 0.0
H325 H 0.68132 0.69432 0.1349 0.0
H326 H 0.77908 0.71365 0.34642 0.0
H327 H 0.68107 0.65067 0.36834 0.0
H328 H 0.8334 0.60528 0.88596 0.0
H329 H 0.83654 0.68808 0.56721 0.0
C330 C 0.58353 0.5357 0.75198 0.0
C331 C 0.5826 0.54199 0.60682 0.0
N332 N 0.59069 0.57635 0.58629 0.0
N333 N 0.59217 0.56604 0.82296 0.0
C334 C 0.59696 0.5901 0.71792 0.0
H335 H 0.58104 0.50965 0.80003 0.0
Co336 Co 0.6003 0.57613 0.01856 0.0
C337 C 0.6844 0.58823 0.95453 0.0
O338 O 0.70062 0.5573 0.99987 0.0
N339 N 0.60868 0.58807 0.21615 0.0
C340 C 0.63796 0.59186 0.42607 0.0
C341 C 0.64145 0.59117 0.27973 0.0
C342 C 0.58553 0.58786 0.32827 0.0
N343 N 0.60282 0.58962 0.45619 0.0
O344 O 0.54897 0.5641 0.06433 0.0
H345 H 0.66712 0.58961 0.22587 0.0
H346 H 0.55728 0.58247 0.31793 0.0
O347 O 0.64948 0.59408 0.96318 0.0
C348 C 0.52732 0.53858 0.05096 0.0
O349 O 0.53856 0.50736 0.9906 0.0
N350 N 0.61929 0.52612 0.05671 0.0
C351 C 0.64933 0.45809 0.15646 0.0
C352 C 0.66128 0.47232 0.02787 0.0
C353 C 0.64564 0.50642 0.97928 0.0
C354 C 0.60545 0.51029 0.17366 0.0
C355 C 0.62 0.47688 0.22495 0.0
H356 H 0.65564 0.51754 0.88248 0.0
H357 H 0.58341 0.52363 0.23334 0.0
H358 H 0.60667 0.61661 0.73707 0.0
H359 H 0.5795 0.522 0.52272 0.0
H360 H 0.66 0.58992 0.50389 0.0
H361 H 0.68405 0.45859 0.97095 0.0
H362 H 0.60952 0.4668 0.32326 0.0
C363 C 0.78482 0.37315 0.98238 0.0
C364 C 0.78162 0.37277 0.8356 0.0
N365 N 0.74603 0.37299 0.80239 0.0
N366 N 0.75131 0.37429 0.04012 0.0
C367 C 0.72827 0.37352 0.927 0.0
H368 H 0.81011 0.37269 0.04202 0.0
Co369 Co 0.73824 0.3768 0.23149 0.0
C370 C 0.67113 0.42921 0.23733 0.0
O371 O 0.67579 0.43522 0.37481 0.0
N372 N 0.72515 0.37779 0.42649 0.0
C373 C 0.69701 0.36468 0.62716 0.0
C374 C 0.69419 0.36648 0.48031 0.0
C375 C 0.74683 0.38132 0.54267 0.0
N376 N 0.73027 0.37387 0.66447 0.0
O377 O 0.71985 0.33054 0.2154 0.0
H378 H 0.67145 0.35878 0.41603 0.0
H379 H 0.77484 0.3871 0.53946 0.0
O380 O 0.69247 0.40534 0.17256 0.0
C381 C 0.74596 0.3096 0.26964 0.0
O382 O 0.77675 0.3229 0.30302 0.0
N383 N 0.76124 0.41871 0.25478 0.0
C384 C 0.8053 0.46519 0.39094 0.0
C385 C 0.77262 0.4792 0.32496 0.0
C386 C 0.75056 0.45513 0.2569 0.0
C387 C 0.79514 0.40622 0.29733 0.0
C388 C 0.81652 0.42815 0.37272 0.0
H389 H 0.72514 0.46592 0.21076 0.0
H390 H 0.80389 0.37771 0.2905 0.0
H391 H 0.69905 0.37383 0.93548 0.0
H392 H 0.80363 0.37216 0.76001 0.0
H393 H 0.67708 0.35564 0.69943 0.0
H394 H 0.76368 0.50797 0.3287 0.0
H395 H 0.84033 0.41463 0.42373 0.0
C396 C 0.08514 0.57973 0.23911 0.0
C397 C 0.08447 0.57677 0.09224 0.0
N398 N 0.08431 0.54121 0.05791 0.0
N399 N 0.08602 0.54613 0.2956 0.0
C400 C 0.0849 0.52324 0.18211 0.0
H401 H 0.08548 0.60478 0.30025 0.0
Co402 Co 0.0894 0.53358 0.48637 0.0
C403 C 0.14173 0.46711 0.49077 0.0
O404 O 0.15071 0.47567 0.62257 0.0
N405 N 0.09102 0.52073 0.68184 0.0
C406 C 0.07965 0.49144 0.88203 0.0
C407 C 0.08197 0.48878 0.73527 0.0
C408 C 0.09223 0.54285 0.79801 0.0
N409 N 0.086 0.5256 0.91965 0.0
O410 O 0.04207 0.51857 0.48006 0.0
H411 H 0.07611 0.46538 0.67076 0.0
H412 H 0.09516 0.57158 0.79457 0.0
O413 O 0.11562 0.48602 0.42708 0.0
C414 C 0.02209 0.54549 0.53521 0.0
O415 O 0.03543 0.57682 0.5569 0.0
N416 N 0.13265 0.55408 0.5016 0.0
C417 C 0.1822 0.59406 0.63747 0.0
C418 C 0.19453 0.56348 0.5543 0.0
C419 C 0.16878 0.54354 0.48537 0.0
C420 C 0.12164 0.58709 0.55683 0.0
C421 C 0.14509 0.60584 0.63528 0.0
H422 H 0.17801 0.51972 0.42439 0.0
H423 H 0.09334 0.59653 0.55861 0.0
H424 H 0.08525 0.49398 0.18997 0.0
H425 H 0.08436 0.59891 0.01744 0.0
H426 H 0.07226 0.47062 0.9539 0.0
H427 H 0.22319 0.55465 0.5453 0.0
H428 H 0.13295 0.62813 0.6997 0.0
C429 C 0.24755 0.36602 0.03091 0.0
C430 C 0.25314 0.36544 0.88479 0.0
N431 N 0.28562 0.3781 0.8615 0.0
N432 N 0.2764 0.37915 0.09806 0.0
C433 C 0.299 0.38641 0.99126 0.0
H434 H 0.22369 0.35814 0.08439 0.0
Co435 Co 0.28639 0.38708 0.29235 0.0
C436 C 0.30574 0.46887 0.22492 0.0
O437 O 0.27547 0.48666 0.26896 0.0
N438 N 0.29814 0.39499 0.48963 0.0
C439 C 0.30526 0.42353 0.69935 0.0
C440 C 0.30525 0.42689 0.55286 0.0
C441 C 0.29495 0.37235 0.60164 0.0
N442 N 0.29834 0.38936 0.72907 0.0
O443 O 0.26687 0.33959 0.34103 0.0
H444 H 0.30753 0.45209 0.49836 0.0
H445 H 0.28697 0.34491 0.59142 0.0
O446 O 0.30972 0.43382 0.23507 0.0
C447 C 0.26803 0.30711 0.28941 0.0
O448 O 0.28677 0.29876 0.17326 0.0
N449 N 0.23751 0.41041 0.3246 0.0
C450 C 0.16917 0.44311 0.41109 0.0
C451 C 0.18515 0.45365 0.28358 0.0
C452 C 0.21941 0.43666 0.2416 0.0
C453 C 0.2196 0.39763 0.43892 0.0
C454 C 0.18619 0.41362 0.48401 0.0
H455 H 0.23182 0.44543 0.14532 0.0
H456 H 0.23107 0.37533 0.50198 0.0
H457 H 0.32453 0.39829 1.0075 0.0
H458 H 0.23412 0.35826 0.80224 0.0
H459 H 0.30669 0.44533 0.77739 0.0
H460 H 0.17273 0.47638 0.22277 0.0
H461 H 0.17477 0.40422 0.58174 0.0
C462 C 0.42582 0.54957 0.38781 0.0
C463 C 0.42711 0.54379 0.53321 0.0
N464 N 0.42277 0.50846 0.55485 0.0
N465 N 0.42118 0.51784 0.3186 0.0
C466 C 0.41888 0.49337 0.42409 0.0
H467 H 0.42629 0.57569 0.33736 0.0
Co468 Co 0.41579 0.50634 0.12474 0.0
C469 C 0.33215 0.48989 0.14446 0.0
O470 O 0.319 0.51302 0.04719 0.0
N471 N 0.41072 0.49272 0.92752 0.0
C472 C 0.38903 0.47275 0.71858 0.0
C473 C 0.38598 0.47219 0.86568 0.0
C474 C 0.42992 0.5033 0.81477 0.0
N475 N 0.41648 0.49275 0.68805 0.0
O476 O 0.46734 0.51889 0.08706 0.0
H477 H 0.36619 0.45821 0.92221 0.0
H478 H 0.45331 0.51879 0.82272 0.0
O479 O 0.3665 0.48766 0.17391 0.0
C480 C 0.48991 0.54318 0.11075 0.0
O481 O 0.4796 0.57316 0.18172 0.0
N482 N 0.39529 0.55627 0.08127 0.0
C483 C 0.36289 0.62351 0.97867 0.0
C484 C 0.34735 0.60574 0.09218 0.0
C485 C 0.36408 0.57215 0.14212 0.0
C486 C 0.41222 0.57596 0.98244 0.0
C487 C 0.39637 0.60873 0.92841 0.0
H488 H 0.35125 0.55845 0.22669 0.0
H489 H 0.43793 0.5666 0.93873 0.0
H490 H 0.41349 0.4653 0.40539 0.0
H491 H 0.42878 0.56428 0.61649 0.0
H492 H 0.37127 0.46132 0.64048 0.0
H493 H 0.32132 0.61627 0.13506 0.0
H494 H 0.40964 0.62162 0.84228 0.0
C495 C 0.22558 0.70797 0.13721 0.0
C496 C 0.22894 0.7082 0.28389 0.0
N497 N 0.26459 0.707 0.31652 0.0
N498 N 0.25906 0.70584 0.07839 0.0
C499 C 0.28223 0.7061 0.19153 0.0
H500 H 0.2001 0.7091 0.07884 0.0
Co501 Co 0.27227 0.70222 0.88562 0.0
C502 C 0.34174 0.65158 0.89095 0.0
O503 O 0.33934 0.64467 0.75322 0.0
N504 N 0.28574 0.70026 0.69179 0.0
C505 C 0.31399 0.71353 0.49161 0.0
C506 C 0.31687 0.71127 0.6383 0.0
C507 C 0.26385 0.69754 0.57588 0.0
N508 N 0.28049 0.70508 0.45417 0.0
O509 O 0.28738 0.74973 0.89272 0.0
H510 H 0.33962 0.71883 0.70282 0.0
H511 H 0.23559 0.69255 0.58005 0.0
O512 O 0.31901 0.67546 0.94915 0.0
C513 C 0.2604 0.76962 0.83715 0.0
O514 O 0.22919 0.75617 0.81538 0.0
N515 N 0.25143 0.65925 0.86704 0.0
C516 C 0.20673 0.61519 0.72274 0.0
C517 C 0.2402 0.60017 0.77917 0.0
C518 C 0.26283 0.62319 0.85042 0.0
C519 C 0.21728 0.67221 0.83045 0.0
C520 C 0.1957 0.65177 0.75068 0.0
H521 H 0.28922 0.61207 0.88581 0.0
H522 H 0.20839 0.70037 0.84416 0.0
H523 H 0.3115 0.70507 0.18318 0.0
H524 H 0.207 0.70926 0.35988 0.0
H525 H 0.33399 0.72261 0.41972 0.0
H526 H 0.24928 0.57164 0.76462 0.0
H527 H 0.17167 0.66614 0.70427 0.0
loop_
_geom_bond_atom_site_label_1
_geom_bond_atom_site_label_2
_geom_bond_distance
_geom_bond_site_symmetry_2
_ccdc_geom_bond_type
C0 C1 1.351 . S
C0 N3 1.368 . S
C0 H5 0.931 . S
C1 C0 1.351 . S
C1 N2 1.373 . S
C1 H29 0.930 1_545 S
N2 C1 1.373 . S
N2 C4 1.340 . S
N3 C0 1.368 . S
N3 C4 1.321 . S
N3 Co6 2.135 . S
C4 N2 1.340 . S
C4 N3 1.321 . S
C4 H28 0.930 . S
H5 C0 0.931 . S
Co6 N3 2.135 . S
Co6 N9 2.121 1_554 S
Co6 O14 2.055 . S
Co6 O17 2.039 . S
Co6 N20 2.140 . S
C7 O8 1.227 . S
C7 O17 1.265 . S
O8 C7 1.227 . S
N9 Co6 2.121 1_556 S
N9 C11 1.375 . S
N9 C12 1.313 . S
C10 C11 1.338 . S
C10 N13 1.377 . S
C10 H30 0.930 . S
C11 N9 1.375 . S
C11 C10 1.338 . S
C11 H15 0.931 . S
C12 N9 1.313 . S
C12 N13 1.344 . S
C12 H16 0.930 . S
N13 C10 1.377 . S
N13 C12 1.344 . S
O14 Co6 2.055 . S
O14 C18 1.253 . S
H15 C11 0.931 . S
H16 C12 0.930 . S
O17 Co6 2.039 . S
O17 C7 1.265 . S
C18 O14 1.253 . S
C18 O19 1.227 . S
O19 C18 1.227 . S
N20 Co6 2.140 . S
N20 C23 1.346 1_545 S
N20 C24 1.345 1_544 S
C21 C22 1.387 1_556 S
C21 C25 1.391 . S
C22 C21 1.387 1_554 S
C22 C23 1.369 . S
C22 H31 0.929 . S
C23 N20 1.346 1_565 S
C23 C22 1.369 . S
C23 H26 0.928 1_565 S
C24 N20 1.345 1_566 S
C24 C25 1.371 . S
C24 H27 0.931 . S
C25 C21 1.391 . S
C25 C24 1.371 . S
C25 H32 0.930 . S
H26 C23 0.928 1_545 S
H27 C24 0.931 . S
H28 C4 0.930 . S
H29 C1 0.930 1_565 S
H30 C10 0.930 . S
H31 C22 0.929 . S
H32 C25 0.930 . S
C33 C34 1.351 . S
C33 N36 1.368 . S
C33 H38 0.931 . S
C34 C33 1.351 . S
C34 N35 1.373 . S
C34 H62 0.930 . S
N35 C34 1.373 . S
N35 C37 1.340 . S
N36 C33 1.368 . S
N36 C37 1.321 . S
N36 Co39 2.135 . S
C37 N35 1.340 . S
C37 N36 1.321 . S
C37 H61 0.930 . S
H38 C33 0.931 . S
Co39 N36 2.135 . S
Co39 N42 2.121 . S
Co39 O47 2.055 . S
Co39 O50 2.039 . S
Co39 N53 2.140 . S
C40 O41 1.227 . S
C40 O50 1.265 . S
O41 C40 1.227 . S
N42 Co39 2.121 . S
N42 C44 1.375 . S
N42 C45 1.313 . S
C43 C44 1.338 1_556 S
C43 N46 1.377 . S
C43 H63 0.930 . S
C44 N42 1.375 . S
C44 C43 1.338 1_554 S
C44 H48 0.931 . S
C45 N42 1.313 . S
C45 N46 1.344 1_554 S
C45 H49 0.930 . S
N46 C43 1.377 . S
N46 C45 1.344 1_556 S
O47 Co39 2.055 . S
O47 C51 1.253 . S
H48 C44 0.931 . S
H49 C45 0.930 . S
O50 Co39 2.039 . S
O50 C40 1.265 . S
C51 O47 1.253 . S
C51 O52 1.227 . S
O52 C51 1.227 . S
N53 Co39 2.140 . S
N53 C56 1.346 . S
N53 C57 1.345 . S
C54 C55 1.387 . S
C54 C58 1.391 . S
C55 C54 1.387 . S
C55 C56 1.369 . S
C55 H64 0.929 . S
C56 N53 1.346 . S
C56 C55 1.369 . S
C56 H59 0.928 . S
C57 N53 1.345 . S
C57 C58 1.371 . S
C57 H60 0.931 . S
C58 C54 1.391 . S
C58 C57 1.371 . S
C58 H65 0.930 . S
H59 C56 0.928 . S
H60 C57 0.931 . S
H61 C37 0.930 . S
H62 C34 0.930 . S
H63 C43 0.930 . S
H64 C55 0.929 . S
H65 C58 0.930 . S
C66 C67 1.351 . S
C66 N69 1.368 . S
C66 H71 0.931 1_545 S
C67 C66 1.351 . S
C67 N68 1.373 . S
C67 H95 0.930 1_545 S
N68 C67 1.373 . S
N68 C70 1.340 . S
N69 C66 1.368 . S
N69 C70 1.321 . S
N69 Co72 2.135 . S
C70 N68 1.340 . S
C70 N69 1.321 . S
C70 H94 0.930 . S
H71 C66 0.931 1_565 S
Co72 N69 2.135 . S
Co72 N75 2.121 . S
Co72 O80 2.055 . S
Co72 O83 2.039 . S
Co72 N86 2.140 . S
C73 O74 1.227 . S
C73 O83 1.265 . S
O74 C73 1.227 . S
N75 Co72 2.121 . S
N75 C77 1.375 . S
N75 C78 1.313 . S
C76 C77 1.338 . S
C76 N79 1.377 . S
C76 H96 0.930 . S
C77 N75 1.375 . S
C77 C76 1.338 . S
C77 H81 0.931 . S
C78 N75 1.313 . S
C78 N79 1.344 . S
C78 H82 0.930 . S
N79 C76 1.377 . S
N79 C78 1.344 . S
O80 Co72 2.055 . S
O80 C84 1.253 . S
H81 C77 0.931 . S
H82 C78 0.930 . S
O83 Co72 2.039 . S
O83 C73 1.265 . S
C84 O80 1.253 . S
C84 O85 1.227 . S
O85 C84 1.227 . S
N86 Co72 2.140 . S
N86 C89 1.346 1_545 S
N86 C90 1.345 1_545 S
C87 C88 1.387 . S
C87 C91 1.391 . S
C88 C87 1.387 . S
C88 C89 1.369 . S
C88 H97 0.929 . S
C89 N86 1.346 1_565 S
C89 C88 1.369 . S
C89 H92 0.928 1_565 S
C90 N86 1.345 1_565 S
C90 C91 1.371 . S
C90 H93 0.931 . S
C91 C87 1.391 . S
C91 C90 1.371 . S
C91 H98 0.930 . S
H92 C89 0.928 1_545 S
H93 C90 0.931 . S
H94 C70 0.930 . S
H95 C67 0.930 1_565 S
H96 C76 0.930 . S
H97 C88 0.929 . S
H98 C91 0.930 . S
C99 C100 1.351 . S
C99 N102 1.368 . S
C99 H104 0.931 . S
C100 C99 1.351 . S
C100 N101 1.373 . S
C100 H128 0.930 . S
N101 C100 1.373 . S
N101 C103 1.340 . S
N102 C99 1.368 . S
N102 C103 1.321 . S
N102 Co105 2.135 . S
C103 N101 1.340 . S
C103 N102 1.321 . S
C103 H127 0.930 . S
H104 C99 0.931 . S
Co105 N102 2.135 . S
Co105 N108 2.121 . S
Co105 O113 2.055 . S
Co105 O116 2.039 . S
Co105 N119 2.140 . S
C106 O107 1.227 . S
C106 O116 1.265 . S
O107 C106 1.227 . S
N108 Co105 2.121 . S
N108 C110 1.375 1_556 S
N108 C111 1.313 1_556 S
C109 C110 1.338 . S
C109 N112 1.377 . S
C109 H129 0.930 . S
C110 N108 1.375 1_554 S
C110 C109 1.338 . S
C110 H114 0.931 1_554 S
C111 N108 1.313 1_554 S
C111 N112 1.344 . S
C111 H115 0.930 . S
N112 C109 1.377 . S
N112 C111 1.344 . S
O113 Co105 2.055 . S
O113 C117 1.253 . S
H114 C110 0.931 1_556 S
H115 C111 0.930 . S
O116 Co105 2.039 . S
O116 C106 1.265 . S
C117 O113 1.253 . S
C117 O118 1.227 . S
O118 C117 1.227 . S
N119 Co105 2.140 . S
N119 C122 1.346 . S
N119 C123 1.345 . S
C120 C121 1.387 . S
C120 C124 1.391 . S
C121 C120 1.387 . S
C121 C122 1.369 . S
C121 H130 0.929 . S
C122 N119 1.346 . S
C122 C121 1.369 . S
C122 H125 0.928 . S
C123 N119 1.345 . S
C123 C124 1.371 . S
C123 H126 0.931 . S
C124 C120 1.391 . S
C124 C123 1.371 . S
C124 H131 0.930 1_556 S
H125 C122 0.928 . S
H126 C123 0.931 . S
H127 C103 0.930 . S
H128 C100 0.930 . S
H129 C109 0.930 . S
H130 C121 0.929 . S
H131 C124 0.930 1_554 S
C132 C133 1.351 . S
C132 N135 1.368 . S
C132 H137 0.931 . S
C133 C132 1.351 . S
C133 N134 1.373 . S
C133 H161 0.930 . S
N134 C133 1.373 . S
N134 C136 1.340 . S
N135 C132 1.368 . S
N135 C136 1.321 . S
N135 Co138 2.135 . S
C136 N134 1.340 . S
C136 N135 1.321 . S
C136 H160 0.930 1_545 S
H137 C132 0.931 . S
Co138 N135 2.135 . S
Co138 N141 2.121 1_546 S
Co138 O146 2.055 1_545 S
Co138 O149 2.039 1_545 S
Co138 N152 2.140 1_556 S
C139 O140 1.227 . S
C139 O149 1.265 . S
O140 C139 1.227 . S
N141 Co138 2.121 1_564 S
N141 C143 1.375 . S
N141 C144 1.313 . S
C142 C143 1.338 . S
C142 N145 1.377 . S
C142 H162 0.930 . S
C143 N141 1.375 . S
C143 C142 1.338 . S
C143 H147 0.931 . S
C144 N141 1.313 . S
C144 N145 1.344 . S
C144 H148 0.930 1_565 S
N145 C142 1.377 . S
N145 C144 1.344 . S
O146 Co138 2.055 1_565 S
O146 C150 1.253 1_566 S
H147 C143 0.931 . S
H148 C144 0.930 1_545 S
O149 Co138 2.039 1_565 S
O149 C139 1.265 . S
C150 O146 1.253 1_544 S
C150 O151 1.227 . S
O151 C150 1.227 . S
N152 Co138 2.140 1_554 S
N152 C155 1.346 1_554 S
N152 C156 1.345 . S
C153 C154 1.387 1_554 S
C153 C157 1.391 . S
C154 C153 1.387 1_556 S
C154 C155 1.369 . S
C154 H163 0.929 . S
C155 N152 1.346 1_556 S
C155 C154 1.369 . S
C155 H158 0.928 . S
C156 N152 1.345 . S
C156 C157 1.371 . S
C156 H159 0.931 . S
C157 C153 1.391 . S
C157 C156 1.371 . S
C157 H164 0.930 . S
H158 C155 0.928 . S
H159 C156 0.931 . S
H160 C136 0.930 1_565 S
H161 C133 0.930 . S
H162 C142 0.930 . S
H163 C154 0.929 . S
H164 C157 0.930 . S
C165 C166 1.351 . S
C165 N168 1.368 . S
C165 H170 0.931 . S
C166 C165 1.351 . S
C166 N167 1.373 . S
C166 H194 0.930 . S
N167 C166 1.373 . S
N167 C169 1.340 . S
N168 C165 1.368 . S
N168 C169 1.321 . S
N168 Co171 2.135 . S
C169 N167 1.340 . S
C169 N168 1.321 . S
C169 H193 0.930 . S
H170 C165 0.931 . S
Co171 N168 2.135 . S
Co171 N174 2.121 . S
Co171 O179 2.055 . S
Co171 O182 2.039 . S
Co171 N185 2.140 . S
C172 O173 1.227 . S
C172 O182 1.265 . S
O173 C172 1.227 . S
N174 Co171 2.121 . S
N174 C176 1.375 1_556 S
N174 C177 1.313 1_556 S
C175 C176 1.338 . S
C175 N178 1.377 . S
C175 H195 0.930 . S
C176 N174 1.375 1_554 S
C176 C175 1.338 . S
C176 H180 0.931 1_554 S
C177 N174 1.313 1_554 S
C177 N178 1.344 . S
C177 H181 0.930 . S
N178 C175 1.377 . S
N178 C177 1.344 . S
O179 Co171 2.055 . S
O179 C183 1.253 . S
H180 C176 0.931 1_556 S
H181 C177 0.930 . S
O182 Co171 2.039 . S
O182 C172 1.265 . S
C183 O179 1.253 . S
C183 O184 1.227 . S
O184 C183 1.227 . S
N185 Co171 2.140 . S
N185 C188 1.346 . S
N185 C189 1.345 . S
C186 C187 1.387 . S
C186 C190 1.391 . S
C187 C186 1.387 . S
C187 C188 1.369 . S
C187 H196 0.929 . S
C188 N185 1.346 . S
C188 C187 1.369 . S
C188 H191 0.928 . S
C189 N185 1.345 . S
C189 C190 1.371 . S
C189 H192 0.931 . S
C190 C186 1.391 . S
C190 C189 1.371 . S
C190 H197 0.930 . S
H191 C188 0.928 . S
H192 C189 0.931 . S
H193 C169 0.930 . S
H194 C166 0.930 . S
H195 C175 0.930 . S
H196 C187 0.929 . S
H197 C190 0.930 . S
C198 C199 1.343 1_556 S
C198 N201 1.368 . S
C198 H203 0.931 . S
C199 C198 1.343 1_554 S
C199 N200 1.376 . S
C199 H227 0.934 . S
N200 C199 1.376 . S
N200 C202 1.340 1_554 S
N201 C198 1.368 . S
N201 C202 1.321 . S
N201 Co204 2.135 . S
C202 N200 1.340 1_556 S
C202 N201 1.321 . S
C202 H226 0.930 1_545 S
H203 C198 0.931 . S
Co204 N201 2.135 . S
Co204 N207 2.121 1_545 S
Co204 O212 2.055 1_545 S
Co204 O215 2.039 1_545 S
Co204 N218 2.140 . S
C205 O206 1.227 . S
C205 O215 1.265 . S
O206 C205 1.227 . S
N207 Co204 2.121 1_565 S
N207 C209 1.375 . S
N207 C210 1.313 . S
C208 C209 1.338 . S
C208 N211 1.377 . S
C208 H228 0.930 . S
C209 N207 1.375 . S
C209 C208 1.338 . S
C209 H213 0.931 . S
C210 N207 1.313 . S
C210 N211 1.344 . S
C210 H214 0.930 1_565 S
N211 C208 1.377 . S
N211 C210 1.344 . S
O212 Co204 2.055 1_565 S
O212 C216 1.253 1_565 S
H213 C209 0.931 . S
H214 C210 0.930 1_545 S
O215 Co204 2.039 1_565 S
O215 C205 1.265 . S
C216 O212 1.253 1_545 S
C216 O217 1.227 . S
O217 C216 1.227 . S
N218 Co204 2.140 . S
N218 C221 1.346 . S
N218 C222 1.345 . S
C219 C220 1.387 . S
C219 C223 1.391 . S
C220 C219 1.387 . S
C220 C221 1.369 . S
C220 H229 0.929 . S
C221 N218 1.346 . S
C221 C220 1.369 . S
C221 H224 0.928 . S
C222 N218 1.345 . S
C222 C223 1.371 . S
C222 H225 0.931 . S
C223 C219 1.391 . S
C223 C222 1.371 . S
C223 H230 0.930 . S
H224 C221 0.928 . S
H225 C222 0.931 . S
H226 C202 0.930 1_565 S
H227 C199 0.934 . S
H228 C208 0.930 . S
H229 C220 0.929 . S
H230 C223 0.930 . S
C231 C232 1.351 . S
C231 N234 1.368 . S
C231 H236 0.931 . S
C232 C231 1.351 . S
C232 N233 1.373 . S
C232 H260 0.930 . S
N233 C232 1.373 . S
N233 C235 1.340 . S
N234 C231 1.368 . S
N234 C235 1.321 . S
N234 Co237 2.135 . S
C235 N233 1.340 . S
C235 N234 1.321 . S
C235 H259 0.930 . S
H236 C231 0.931 . S
Co237 N234 2.135 . S
Co237 N240 2.121 . S
Co237 O245 2.055 . S
Co237 O248 2.039 . S
Co237 N251 2.140 . S
C238 O239 1.227 . S
C238 O248 1.265 . S
O239 C238 1.227 . S
N240 Co237 2.121 . S
N240 C242 1.375 . S
N240 C243 1.313 . S
C241 C242 1.338 1_556 S
C241 N244 1.377 . S
C241 H261 0.930 . S
C242 N240 1.375 . S
C242 C241 1.338 1_554 S
C242 H246 0.931 . S
C243 N240 1.313 . S
C243 N244 1.344 1_554 S
C243 H247 0.930 . S
N244 C241 1.377 . S
N244 C243 1.344 1_556 S
O245 Co237 2.055 . S
O245 C249 1.253 . S
H246 C242 0.931 . S
H247 C243 0.930 . S
O248 Co237 2.039 . S
O248 C238 1.265 . S
C249 O245 1.253 . S
C249 O250 1.227 . S
O250 C249 1.227 . S
N251 Co237 2.140 . S
N251 C254 1.346 . S
N251 C255 1.345 . S
C252 C253 1.387 . S
C252 C256 1.391 . S
C253 C252 1.387 . S
C253 C254 1.369 . S
C253 H262 0.929 . S
C254 N251 1.346 . S
C254 C253 1.369 . S
C254 H257 0.928 . S
C255 N251 1.345 . S
C255 C256 1.371 . S
C255 H258 0.931 . S
C256 C252 1.391 . S
C256 C255 1.371 . S
C256 H263 0.930 . S
H257 C254 0.928 . S
H258 C255 0.931 . S
H259 C235 0.930 . S
H260 C232 0.930 . S
H261 C241 0.930 . S
H262 C253 0.929 . S
H263 C256 0.930 . S
C264 C265 1.351 . S
C264 N267 1.368 . S
C264 H269 0.931 . S
C265 C264 1.351 . S
C265 N266 1.373 1_556 S
C265 H293 0.930 1_556 S
N266 C265 1.373 1_554 S
N266 C268 1.340 1_554 S
N267 C264 1.368 . S
N267 C268 1.321 . S
N267 Co270 2.135 . S
C268 N266 1.340 1_556 S
C268 N267 1.321 . S
C268 H292 0.930 . S
H269 C264 0.931 . S
Co270 N267 2.135 . S
Co270 N273 2.121 . S
Co270 O278 2.055 . S
Co270 O281 2.039 . S
Co270 N284 2.140 . S
C271 O272 1.227 . S
C271 O281 1.265 . S
O272 C271 1.227 . S
N273 Co270 2.121 . S
N273 C275 1.375 . S
N273 C276 1.313 . S
C274 C275 1.338 . S
C274 N277 1.377 . S
C274 H294 0.930 . S
C275 N273 1.375 . S
C275 C274 1.338 . S
C275 H279 0.931 . S
C276 N273 1.313 . S
C276 N277 1.344 . S
C276 H280 0.930 . S
N277 C274 1.377 . S
N277 C276 1.344 . S
O278 Co270 2.055 . S
O278 C282 1.253 . S
H279 C275 0.931 . S
H280 C276 0.930 . S
O281 Co270 2.039 . S
O281 C271 1.265 . S
C282 O278 1.253 . S
C282 O283 1.227 . S
O283 C282 1.227 . S
N284 Co270 2.140 . S
N284 C287 1.346 . S
N284 C288 1.345 . S
C285 C286 1.387 . S
C285 C289 1.391 . S
C286 C285 1.387 . S
C286 C287 1.369 . S
C286 H295 0.929 . S
C287 N284 1.346 . S
C287 C286 1.369 . S
C287 H290 0.928 . S
C288 N284 1.345 . S
C288 C289 1.371 . S
C288 H291 0.931 . S
C289 C285 1.391 . S
C289 C288 1.371 . S
C289 H296 0.930 . S
H290 C287 0.928 . S
H291 C288 0.931 . S
H292 C268 0.930 . S
H293 C265 0.930 1_554 S
H294 C274 0.930 . S
H295 C286 0.929 . S
H296 C289 0.930 . S
C297 C298 1.351 . S
C297 N300 1.368 . S
C297 H302 0.931 . S
C298 C297 1.351 . S
C298 N299 1.373 . S
C298 H326 0.930 . S
N299 C298 1.373 . S
N299 C301 1.340 . S
N300 C297 1.368 . S
N300 C301 1.321 . S
N300 Co303 2.135 1_554 S
C301 N299 1.340 . S
C301 N300 1.321 . S
C301 H325 0.930 . S
H302 C297 0.931 . S
Co303 N300 2.135 1_556 S
Co303 N306 2.121 . S
Co303 O311 2.055 . S
Co303 O314 2.039 . S
Co303 N317 2.140 . S
C304 O305 1.227 . S
C304 O314 1.265 . S
O305 C304 1.227 . S
N306 Co303 2.121 . S
N306 C308 1.375 . S
N306 C309 1.313 . S
C307 C308 1.338 . S
C307 N310 1.377 . S
C307 H327 0.930 . S
C308 N306 1.375 . S
C308 C307 1.338 . S
C308 H312 0.931 . S
C309 N306 1.313 . S
C309 N310 1.344 . S
C309 H313 0.930 . S
N310 C307 1.377 . S
N310 C309 1.344 . S
O311 Co303 2.055 . S
O311 C315 1.253 . S
H312 C308 0.931 . S
H313 C309 0.930 . S
O314 Co303 2.039 . S
O314 C304 1.265 . S
C315 O311 1.253 . S
C315 O316 1.227 . S
O316 C315 1.227 . S
N317 Co303 2.140 . S
N317 C320 1.346 . S
N317 C321 1.345 . S
C318 C319 1.387 . S
C318 C322 1.391 . S
C319 C318 1.387 . S
C319 C320 1.369 . S
C319 H328 0.929 . S
C320 N317 1.346 . S
C320 C319 1.369 . S
C320 H323 0.928 . S
C321 N317 1.345 . S
C321 C322 1.371 . S
C321 H324 0.931 . S
C322 C318 1.391 . S
C322 C321 1.371 . S
C322 H329 0.930 . S
H323 C320 0.928 . S
H324 C321 0.931 . S
H325 C301 0.930 . S
H326 C298 0.930 . S
H327 C307 0.930 . S
H328 C319 0.929 . S
H329 C322 0.930 . S
C330 C331 1.351 . S
C330 N333 1.368 . S
C330 H335 0.931 . S
C331 C330 1.351 . S
C331 N332 1.373 . S
C331 H359 0.930 . S
N332 C331 1.373 . S
N332 C334 1.340 . S
N333 C330 1.368 . S
N333 C334 1.321 . S
N333 Co336 2.135 1_556 S
C334 N332 1.340 . S
C334 N333 1.321 . S
C334 H358 0.930 . S
H335 C330 0.931 . S
Co336 N333 2.135 1_554 S
Co336 N339 2.121 . S
Co336 O344 2.055 . S
Co336 O347 2.039 1_554 S
Co336 N350 2.140 . S
C337 O338 1.227 . S
C337 O347 1.265 . S
O338 C337 1.227 . S
N339 Co336 2.121 . S
N339 C341 1.375 . S
N339 C342 1.313 . S
C340 C341 1.338 . S
C340 N343 1.377 . S
C340 H360 0.930 . S
C341 N339 1.375 . S
C341 C340 1.338 . S
C341 H345 0.931 . S
C342 N339 1.313 . S
C342 N343 1.344 . S
C342 H346 0.930 . S
N343 C340 1.377 . S
N343 C342 1.344 . S
O344 Co336 2.055 . S
O344 C348 1.253 . S
H345 C341 0.931 . S
H346 C342 0.930 . S
O347 Co336 2.039 1_556 S
O347 C337 1.265 . S
C348 O344 1.253 . S
C348 O349 1.227 . S
O349 C348 1.227 . S
N350 Co336 2.140 . S
N350 C353 1.346 1_554 S
N350 C354 1.345 . S
C351 C352 1.387 1_554 S
C351 C355 1.391 . S
C352 C351 1.387 1_556 S
C352 C353 1.369 . S
C352 H361 0.929 . S
C353 N350 1.346 1_556 S
C353 C352 1.369 . S
C353 H356 0.928 . S
C354 N350 1.345 . S
C354 C355 1.371 . S
C354 H357 0.931 . S
C355 C351 1.391 . S
C355 C354 1.371 . S
C355 H362 0.930 . S
H356 C353 0.928 . S
H357 C354 0.931 . S
H358 C334 0.930 . S
H359 C331 0.930 . S
H360 C340 0.930 . S
H361 C352 0.929 . S
H362 C355 0.930 . S
C363 C364 1.351 . S
C363 N366 1.368 1_556 S
C363 H368 0.931 1_556 S
C364 C363 1.351 . S
C364 N365 1.373 . S
C364 H392 0.930 . S
N365 C364 1.373 . S
N365 C367 1.340 . S
N366 C363 1.368 1_554 S
N366 C367 1.321 1_554 S
N366 Co369 2.135 . S
C367 N365 1.340 . S
C367 N366 1.321 1_556 S
C367 H391 0.930 . S
H368 C363 0.931 1_554 S
Co369 N366 2.135 . S
Co369 N372 2.121 . S
Co369 O377 2.055 . S
Co369 O380 2.039 . S
Co369 N383 2.140 . S
C370 O371 1.227 . S
C370 O380 1.265 . S
O371 C370 1.227 . S
N372 Co369 2.121 . S
N372 C374 1.375 . S
N372 C375 1.313 . S
C373 C374 1.338 . S
C373 N376 1.377 . S
C373 H393 0.930 . S
C374 N372 1.375 . S
C374 C373 1.338 . S
C374 H378 0.931 . S
C375 N372 1.313 . S
C375 N376 1.344 . S
C375 H379 0.930 . S
N376 C373 1.377 . S
N376 C375 1.344 . S
O377 Co369 2.055 . S
O377 C381 1.253 . S
H378 C374 0.931 . S
H379 C375 0.930 . S
O380 Co369 2.039 . S
O380 C370 1.265 . S
C381 O377 1.253 . S
C381 O382 1.227 . S
O382 C381 1.227 . S
N383 Co369 2.140 . S
N383 C386 1.346 . S
N383 C387 1.345 . S
C384 C385 1.387 . S
C384 C388 1.391 . S
C385 C384 1.387 . S
C385 C386 1.369 . S
C385 H394 0.929 . S
C386 N383 1.346 . S
C386 C385 1.369 . S
C386 H389 0.928 . S
C387 N383 1.345 . S
C387 C388 1.371 . S
C387 H390 0.931 . S
C388 C384 1.391 . S
C388 C387 1.371 . S
C388 H395 0.930 . S
H389 C386 0.928 . S
H390 C387 0.931 . S
H391 C367 0.930 . S
H392 C364 0.930 . S
H393 C373 0.930 . S
H394 C385 0.929 . S
H395 C388 0.930 . S
C396 C397 1.351 . S
C396 N399 1.368 . S
C396 H401 0.931 . S
C397 C396 1.351 . S
C397 N398 1.373 . S
C397 H425 0.930 . S
N398 C397 1.373 . S
N398 C400 1.340 . S
N399 C396 1.368 . S
N399 C400 1.321 . S
N399 Co402 2.135 . S
C400 N398 1.340 . S
C400 N399 1.321 . S
C400 H424 0.930 . S
H401 C396 0.931 . S
Co402 N399 2.135 . S
Co402 N405 2.121 . S
Co402 O410 2.055 . S
Co402 O413 2.039 . S
Co402 N416 2.140 . S
C403 O404 1.227 . S
C403 O413 1.265 . S
O404 C403 1.227 . S
N405 Co402 2.121 . S
N405 C407 1.375 . S
N405 C408 1.313 . S
C406 C407 1.338 . S
C406 N409 1.377 . S
C406 H426 0.930 . S
C407 N405 1.375 . S
C407 C406 1.338 . S
C407 H411 0.931 . S
C408 N405 1.313 . S
C408 N409 1.344 . S
C408 H412 0.930 . S
N409 C406 1.377 . S
N409 C408 1.344 . S
O410 Co402 2.055 . S
O410 C414 1.253 . S
H411 C407 0.931 . S
H412 C408 0.930 . S
O413 Co402 2.039 . S
O413 C403 1.265 . S
C414 O410 1.253 . S
C414 O415 1.227 . S
O415 C414 1.227 . S
N416 Co402 2.140 . S
N416 C419 1.346 . S
N416 C420 1.345 . S
C417 C418 1.387 . S
C417 C421 1.391 . S
C418 C417 1.387 . S
C418 C419 1.369 . S
C418 H427 0.929 . S
C419 N416 1.346 . S
C419 C418 1.369 . S
C419 H422 0.928 . S
C420 N416 1.345 . S
C420 C421 1.371 . S
C420 H423 0.931 . S
C421 C417 1.391 . S
C421 C420 1.371 . S
C421 H428 0.930 . S
H422 C419 0.928 . S
H423 C420 0.931 . S
H424 C400 0.930 . S
H425 C397 0.930 . S
H426 C406 0.930 . S
H427 C418 0.929 . S
H428 C421 0.930 . S
C429 C430 1.351 . S
C429 N432 1.368 1_556 S
C429 H434 0.931 1_556 S
C430 C429 1.351 . S
C430 N431 1.373 . S
C430 H458 0.930 . S
N431 C430 1.373 . S
N431 C433 1.340 . S
N432 C429 1.368 1_554 S
N432 C433 1.321 1_554 S
N432 Co435 2.135 . S
C433 N431 1.340 . S
C433 N432 1.321 1_556 S
C433 H457 0.930 . S
H434 C429 0.931 1_554 S
Co435 N432 2.135 . S
Co435 N438 2.121 . S
Co435 O443 2.055 . S
Co435 O446 2.039 . S
Co435 N449 2.140 . S
C436 O437 1.227 . S
C436 O446 1.265 . S
O437 C436 1.227 . S
N438 Co435 2.121 . S
N438 C440 1.375 . S
N438 C441 1.313 . S
C439 C440 1.338 . S
C439 N442 1.377 . S
C439 H459 0.930 . S
C440 N438 1.375 . S
C440 C439 1.338 . S
C440 H444 0.931 . S
C441 N438 1.313 . S
C441 N442 1.344 . S
C441 H445 0.930 . S
N442 C439 1.377 . S
N442 C441 1.344 . S
O443 Co435 2.055 . S
O443 C447 1.253 . S
H444 C440 0.931 . S
H445 C441 0.930 . S
O446 Co435 2.039 . S
O446 C436 1.265 . S
C447 O443 1.253 . S
C447 O448 1.227 . S
O448 C447 1.227 . S
N449 Co435 2.140 . S
N449 C452 1.346 . S
N449 C453 1.345 . S
C450 C451 1.387 . S
C450 C454 1.391 . S
C451 C450 1.387 . S
C451 C452 1.369 . S
C451 H460 0.929 . S
C452 N449 1.346 . S
C452 C451 1.369 . S
C452 H455 0.928 . S
C453 N449 1.345 . S
C453 C454 1.371 . S
C453 H456 0.931 . S
C454 C450 1.391 . S
C454 C453 1.371 . S
C454 H461 0.930 . S
H455 C452 0.928 . S
H456 C453 0.931 . S
H457 C433 0.930 . S
H458 C430 0.930 . S
H459 C439 0.930 . S
H460 C451 0.929 . S
H461 C454 0.930 . S
C462 C463 1.351 . S
C462 N465 1.368 . S
C462 H467 0.931 . S
C463 C462 1.351 . S
C463 N464 1.373 . S
C463 H491 0.930 . S
N464 C463 1.373 . S
N464 C466 1.340 . S
N465 C462 1.368 . S
N465 C466 1.321 . S
N465 Co468 2.135 . S
C466 N464 1.340 . S
C466 N465 1.321 . S
C466 H490 0.930 . S
H467 C462 0.931 . S
Co468 N465 2.135 . S
Co468 N471 2.121 1_554 S
Co468 O476 2.055 . S
Co468 O479 2.039 . S
Co468 N482 2.140 . S
C469 O470 1.227 . S
C469 O479 1.265 . S
O470 C469 1.227 . S
N471 Co468 2.121 1_556 S
N471 C473 1.375 . S
N471 C474 1.313 . S
C472 C473 1.338 . S
C472 N475 1.377 . S
C472 H492 0.930 . S
C473 N471 1.375 . S
C473 C472 1.338 . S
C473 H477 0.931 . S
C474 N471 1.313 . S
C474 N475 1.344 . S
C474 H478 0.930 . S
N475 C472 1.377 . S
N475 C474 1.344 . S
O476 Co468 2.055 . S
O476 C480 1.253 . S
H477 C473 0.931 . S
H478 C474 0.930 . S
O479 Co468 2.039 . S
O479 C469 1.265 . S
C480 O476 1.253 . S
C480 O481 1.227 . S
O481 C480 1.227 . S
N482 Co468 2.140 . S
N482 C485 1.346 . S
N482 C486 1.345 1_554 S
C483 C484 1.387 . S
C483 C487 1.391 1_554 S
C484 C483 1.387 . S
C484 C485 1.369 . S
C484 H493 0.929 . S
C485 N482 1.346 . S
C485 C484 1.369 . S
C485 H488 0.928 . S
C486 N482 1.345 1_556 S
C486 C487 1.371 . S
C486 H489 0.931 . S
C487 C483 1.391 1_556 S
C487 C486 1.371 . S
C487 H494 0.930 . S
H488 C485 0.928 . S
H489 C486 0.931 . S
H490 C466 0.930 . S
H491 C463 0.930 . S
H492 C472 0.930 . S
H493 C484 0.929 . S
H494 C487 0.930 . S
C495 C496 1.351 . S
C495 N498 1.368 . S
C495 H500 0.931 . S
C496 C495 1.351 . S
C496 N497 1.373 . S
C496 H524 0.930 . S
N497 C496 1.373 . S
N497 C499 1.340 . S
N498 C495 1.368 . S
N498 C499 1.321 . S
N498 Co501 2.135 1_554 S
C499 N497 1.340 . S
C499 N498 1.321 . S
C499 H523 0.930 . S
H500 C495 0.931 . S
Co501 N498 2.135 1_556 S
Co501 N504 2.121 . S
Co501 O509 2.055 . S
Co501 O512 2.039 . S
Co501 N515 2.140 . S
C502 O503 1.227 . S
C502 O512 1.265 . S
O503 C502 1.227 . S
N504 Co501 2.121 . S
N504 C506 1.375 . S
N504 C507 1.313 . S
C505 C506 1.338 . S
C505 N508 1.377 . S
C505 H525 0.930 . S
C506 N504 1.375 . S
C506 C505 1.338 . S
C506 H510 0.931 . S
C507 N504 1.313 . S
C507 N508 1.344 . S
C507 H511 0.930 . S
N508 C505 1.377 . S
N508 C507 1.344 . S
O509 Co501 2.055 . S
O509 C513 1.253 . S
H510 C506 0.931 . S
H511 C507 0.930 . S
O512 Co501 2.039 . S
O512 C502 1.265 . S
C513 O509 1.253 . S
C513 O514 1.227 . S
O514 C513 1.227 . S
N515 Co501 2.140 . S
N515 C518 1.346 . S
N515 C519 1.345 . S
C516 C517 1.387 . S
C516 C520 1.391 . S
C517 C516 1.387 . S
C517 C518 1.369 . S
C517 H526 0.929 . S
C518 N515 1.346 . S
C518 C517 1.369 . S
C518 H521 0.928 . S
C519 N515 1.345 . S
C519 C520 1.371 . S
C519 H522 0.931 . S
C520 C516 1.391 . S
C520 C519 1.371 . S
C520 H527 0.930 . S
H521 C518 0.928 . S
H522 C519 0.931 . S
H523 C499 0.930 . S
H524 C496 0.930 . S
H525 C505 0.930 . S
H526 C517 0.929 . S
H527 C520 0.930 . S
N13 N2 1.788 . S
N46 N35 1.896 . S
N68 N79 1.896 1_554 S
N101 N112 1.788 . S
N134 N145 1.788 1_545 S
N167 N178 1.896 . S
N211 N200 1.896 1_565 S
N233 N244 1.788 . S
N277 N266 1.788 . S
N310 N299 1.896 . S
N332 N343 1.896 . S
N376 N365 1.788 . S
N409 N398 1.788 1_556 S
N431 N442 1.896 . S
N475 N464 1.896 . S
N497 N508 1.788 . S
C7 C54 1.811 . S
C73 C40 2.289 . S
C106 C87 1.811 . S
C21 C120 1.587 . S
C186 C139 1.811 . S
C172 C205 2.289 . S
C219 C238 1.811 . S
C252 C153 1.586 . S
C318 C271 1.811 . S
C304 C337 2.289 . S
C351 C370 1.811 . S
C384 C285 1.586 . S
C403 C450 1.811 . S
C436 C469 2.289 . S
C502 C483 1.811 1_556 S
C417 C516 1.586 . S
C18 C150 1.004 . S
C447 C51 1.527 . S
C84 C216 1.527 1_455 S
C513 C117 1.004 . S
C315 C183 1.527 . S
C249 C381 1.005 . S
C282 C414 1.005 1_655 S
C480 C348 1.527 . S
