# Generated by pormake.
# Topology whv, (6)-cn, num edge types: 1
# Building blocks:
#     Node 0, Type 0, BuildingBlock: VOLQOD_clean_sbu_1, # of connection points: 6
#     Node 1, Type 0, BuildingBlock: VOLQOD_clean_sbu_1, # of connection points: 6
#     Node 2, Type 0, BuildingBlock: VOLQOD_clean_sbu_1, # of connection points: 6
#     Node 3, Type 0, BuildingBlock: VOLQOD_clean_sbu_1, # of connection points: 6
#     Node 4, Type 0, BuildingBlock: VOLQOD_clean_sbu_1, # of connection points: 6
#     Node 5, Type 0, BuildingBlock: VOLQOD_clean_sbu_1, # of connection points: 6
#     Node 6, Type 0, BuildingBlock: VOLQOD_clean_sbu_1, # of connection points: 6
#     Node 7, Type 0, BuildingBlock: VOLQOD_clean_sbu_1, # of connection points: 6
#     Node 8, Type 0, BuildingBlock: VOLQOD_clean_sbu_1, # of connection points: 6
#     Node 9, Type 0, BuildingBlock: VOLQOD_clean_sbu_1, # of connection points: 6
#     Node 10, Type 0, BuildingBlock: VOLQOD_clean_sbu_1, # of connection points: 6
#     Node 11, Type 0, BuildingBlock: VOLQOD_clean_sbu_1, # of connection points: 6
#     Node 12, Type 0, BuildingBlock: VOLQOD_clean_sbu_1, # of connection points: 6
#     Node 13, Type 0, BuildingBlock: VOLQOD_clean_sbu_1, # of connection points: 6
#     Node 14, Type 0, BuildingBlock: VOLQOD_clean_sbu_1, # of connection points: 6
#     Node 15, Type 0, BuildingBlock: VOLQOD_clean_sbu_1, # of connection points: 6
#     Edge 16, Type (0, 0), BuildingBlock: OJICUG_clean_linker_0, # of connection points: 2
#     Edge 17, Type (0, 0), BuildingBlock: OJICUG_clean_linker_0, # of connection points: 2
#     Edge 18, Type (0, 0), BuildingBlock: OJICUG_clean_linker_0, # of connection points: 2
#     Edge 19, Type (0, 0), BuildingBlock: OJICUG_clean_linker_0, # of connection points: 2
#     Edge 20, Type (0, 0), BuildingBlock: OJICUG_clean_linker_0, # of connection points: 2
#     Edge 21, Type (0, 0), BuildingBlock: OJICUG_clean_linker_0, # of connection points: 2
#     Edge 22, Type (0, 0), BuildingBlock: OJICUG_clean_linker_0, # of connection points: 2
#     Edge 23, Type (0, 0), BuildingBlock: OJICUG_clean_linker_0, # of connection points: 2
#     Edge 24, Type (0, 0), BuildingBlock: OJICUG_clean_linker_0, # of connection points: 2
#     Edge 25, Type (0, 0), BuildingBlock: OJICUG_clean_linker_0, # of connection points: 2
#     Edge 26, Type (0, 0), BuildingBlock: OJICUG_clean_linker_0, # of connection points: 2
#     Edge 27, Type (0, 0), BuildingBlock: OJICUG_clean_linker_0, # of connection points: 2
#     Edge 28, Type (0, 0), BuildingBlock: OJICUG_clean_linker_0, # of connection points: 2
#     Edge 29, Type (0, 0), BuildingBlock: OJICUG_clean_linker_0, # of connection points: 2
#     Edge 30, Type (0, 0), BuildingBlock: OJICUG_clean_linker_0, # of connection points: 2
#     Edge 31, Type (0, 0), BuildingBlock: OJICUG_clean_linker_0, # of connection points: 2
#     Edge 32, Type (0, 0), BuildingBlock: OJICUG_clean_linker_0, # of connection points: 2
#     Edge 33, Type (0, 0), BuildingBlock: OJICUG_clean_linker_0, # of connection points: 2
#     Edge 34, Type (0, 0), BuildingBlock: OJICUG_clean_linker_0, # of connection points: 2
#     Edge 35, Type (0, 0), BuildingBlock: OJICUG_clean_linker_0, # of connection points: 2
#     Edge 36, Type (0, 0), BuildingBlock: OJICUG_clean_linker_0, # of connection points: 2
#     Edge 37, Type (0, 0), BuildingBlock: OJICUG_clean_linker_0, # of connection points: 2
#     Edge 38, Type (0, 0), BuildingBlock: OJICUG_clean_linker_0, # of connection points: 2
#     Edge 39, Type (0, 0), BuildingBlock: OJICUG_clean_linker_0, # of connection points: 2
#     Edge 40, Type (0, 0), BuildingBlock: OJICUG_clean_linker_0, # of connection points: 2
#     Edge 41, Type (0, 0), BuildingBlock: OJICUG_clean_linker_0, # of connection points: 2
#     Edge 42, Type (0, 0), BuildingBlock: OJICUG_clean_linker_0, # of connection points: 2
#     Edge 43, Type (0, 0), BuildingBlock: OJICUG_clean_linker_0, # of connection points: 2
#     Edge 44, Type (0, 0), BuildingBlock: OJICUG_clean_linker_0, # of connection points: 2
#     Edge 45, Type (0, 0), BuildingBlock: OJICUG_clean_linker_0, # of connection points: 2
#     Edge 46, Type (0, 0), BuildingBlock: OJICUG_clean_linker_0, # of connection points: 2
#     Edge 47, Type (0, 0), BuildingBlock: OJICUG_clean_linker_0, # of connection points: 2
#     Edge 48, Type (0, 0), BuildingBlock: OJICUG_clean_linker_0, # of connection points: 2
#     Edge 49, Type (0, 0), BuildingBlock: OJICUG_clean_linker_0, # of connection points: 2
#     Edge 50, Type (0, 0), BuildingBlock: OJICUG_clean_linker_0, # of connection points: 2
#     Edge 51, Type (0, 0), BuildingBlock: OJICUG_clean_linker_0, # of connection points: 2
#     Edge 52, Type (0, 0), BuildingBlock: OJICUG_clean_linker_0, # of connection points: 2
#     Edge 53, Type (0, 0), BuildingBlock: OJICUG_clean_linker_0, # of connection points: 2
#     Edge 54, Type (0, 0), BuildingBlock: OJICUG_clean_linker_0, # of connection points: 2
#     Edge 55, Type (0, 0), BuildingBlock: OJICUG_clean_linker_0, # of connection points: 2
#     Edge 56, Type (0, 0), BuildingBlock: OJICUG_clean_linker_0, # of connection points: 2
#     Edge 57, Type (0, 0), BuildingBlock: OJICUG_clean_linker_0, # of connection points: 2
#     Edge 58, Type (0, 0), BuildingBlock: OJICUG_clean_linker_0, # of connection points: 2
#     Edge 59, Type (0, 0), BuildingBlock: OJICUG_clean_linker_0, # of connection points: 2
#     Edge 60, Type (0, 0), BuildingBlock: OJICUG_clean_linker_0, # of connection points: 2
#     Edge 61, Type (0, 0), BuildingBlock: OJICUG_clean_linker_0, # of connection points: 2
#     Edge 62, Type (0, 0), BuildingBlock: OJICUG_clean_linker_0, # of connection points: 2
#     Edge 63, Type (0, 0), BuildingBlock: OJICUG_clean_linker_0, # of connection points: 2
# Relax obj value: 0.299
# Max RMSD: 0.250
# Mean RMSD: 0.250
data_MOF--net-whv--node1-VOLQOD_clean_sbu_1--edge1-OJICUG_clean_linker_0
_symmetry_space_group_name_H-M    P1
_symmetry_Int_Tables_number       1
_symmetry_cell_setting            triclinic
loop_
_symmetry_equiv_pos_as_xyz
'x, y, z'
_cell_length_a     41.36615
_cell_length_b     41.13657
_cell_length_c     20.769013
_cell_angle_alpha  89.997217
_cell_angle_beta   89.899876
_cell_angle_gamma 90.023433
loop_
_atom_site_label
_atom_site_type_symbol
_atom_site_fract_x
_atom_site_fract_y
_atom_site_fract_z
_atom_type_partial_charge
O0 O 0.29644 0.20166 0.88318 0.0
Zn1 Zn 0.30404 0.1642 0.93922 0.0
O2 O 0.30956 0.18059 0.02462 0.0
Zn3 Zn 0.35501 0.18108 0.04185 0.0
Zn4 Zn 0.29011 0.22262 0.0261 0.0
Zn5 Zn 0.28425 0.15587 0.08361 0.0
O6 O 0.36312 0.14421 0.10831 0.0
O7 O 0.3136 0.12269 0.12096 0.0
O8 O 0.34381 0.14322 0.89923 0.0
O9 O 0.37954 0.16781 0.96197 0.0
O10 O 0.3703 0.22877 0.053 0.0
O11 O 0.32545 0.25431 0.02144 0.0
O12 O 0.26674 0.23218 0.10886 0.0
O13 O 0.26162 0.14015 0.93364 0.0
O14 O 0.26848 0.18408 0.15656 0.0
O15 O 0.24542 0.13731 0.03594 0.0
C16 C 0.27326 0.22142 0.89083 0.0
C17 C 0.34407 0.12208 0.13037 0.0
C18 C 0.3553 0.25466 0.03565 0.0
C19 C 0.37279 0.15203 0.91102 0.0
C20 C 0.26185 0.2143 0.15793 0.0
C21 C 0.24024 0.13321 0.97586 0.0
O22 O 0.26299 0.22879 0.94687 0.0
O23 O 0.53411 0.55006 0.12945 0.0
Zn24 Zn 0.57118 0.55746 0.18572 0.0
O25 O 0.5545 0.56379 0.27058 0.0
Zn26 Zn 0.55425 0.6097 0.2858 0.0
Zn27 Zn 0.51264 0.54445 0.27269 0.0
Zn28 Zn 0.57899 0.5389 0.33032 0.0
O29 O 0.59126 0.61859 0.35079 0.0
O30 O 0.61216 0.56876 0.36571 0.0
O31 O 0.59289 0.59675 0.14516 0.0
O32 O 0.56745 0.63331 0.20496 0.0
O33 O 0.50701 0.62556 0.29683 0.0
O34 O 0.4813 0.5801 0.26839 0.0
O35 O 0.50328 0.52092 0.35543 0.0
O36 O 0.59465 0.51463 0.18143 0.0
O37 O 0.55088 0.5237 0.40377 0.0
O38 O 0.59742 0.49935 0.28424 0.0
C39 C 0.51343 0.52767 0.13727 0.0
C40 C 0.61317 0.59952 0.37325 0.0
C41 C 0.48112 0.6103 0.28101 0.0
C42 C 0.58377 0.62596 0.15507 0.0
C43 C 0.52091 0.51657 0.40484 0.0
C44 C 0.6015 0.49355 0.22436 0.0
O45 O 0.50583 0.51752 0.1933 0.0
O46 O 0.1859 0.78633 0.37808 0.0
Zn47 Zn 0.17973 0.82434 0.43349 0.0
O48 O 0.17422 0.80871 0.51949 0.0
Zn49 Zn 0.12922 0.81066 0.54202 0.0
Zn50 Zn 0.19225 0.76619 0.52177 0.0
Zn51 Zn 0.20115 0.83252 0.57566 0.0
O52 O 0.12418 0.84838 0.60992 0.0
O53 O 0.17456 0.86843 0.60851 0.0
O54 O 0.13995 0.8457 0.39509 0.0
O55 O 0.10419 0.8247 0.46323 0.0
O56 O 0.11215 0.76333 0.55367 0.0
O57 O 0.15574 0.73609 0.52021 0.0
O58 O 0.21588 0.75656 0.60376 0.0
O59 O 0.22277 0.84756 0.42539 0.0
O60 O 0.21531 0.80489 0.65059 0.0
O61 O 0.24025 0.84841 0.52682 0.0
C62 C 0.20792 0.76529 0.38574 0.0
C63 C 0.1448 0.87087 0.62358 0.0
C64 C 0.12609 0.73686 0.53598 0.0
C65 C 0.11081 0.83881 0.4102 0.0
C66 C 0.22113 0.77451 0.65251 0.0
C67 C 0.24488 0.85313 0.46682 0.0
O68 O 0.21823 0.75793 0.44168 0.0
O69 O 0.93777 0.45235 0.63523 0.0
Zn70 Zn 0.90541 0.4346 0.69419 0.0
O71 O 0.92711 0.4279 0.77517 0.0
Zn72 Zn 0.9276 0.38203 0.79286 0.0
Zn73 Zn 0.9693 0.4469 0.77643 0.0
Zn74 Zn 0.90413 0.45294 0.8368 0.0
O75 O 0.89081 0.37397 0.85944 0.0
O76 O 0.87035 0.42405 0.87331 0.0
O77 O 0.89031 0.39323 0.64991 0.0
O78 O 0.9145 0.35741 0.71328 0.0
O79 O 0.97502 0.36609 0.8029 0.0
O80 O 0.00053 0.41116 0.77157 0.0
O81 O 0.97958 0.47044 0.85905 0.0
O82 O 0.87321 0.47146 0.69807 0.0
O83 O 0.93254 0.46683 0.9094 0.0
O84 O 0.887 0.49318 0.79204 0.0
C85 C 0.96317 0.46926 0.64214 0.0
C86 C 0.86914 0.39337 0.88199 0.0
C87 C 0.00079 0.3811 0.78524 0.0
C88 C 0.89947 0.36422 0.66163 0.0
C89 C 0.96238 0.47416 0.90942 0.0
C90 C 0.87394 0.49558 0.7367 0.0
O91 O 0.97651 0.47323 0.69687 0.0
O92 O 0.68763 0.78752 0.16541 0.0
Zn93 Zn 0.68047 0.82507 0.10943 0.0
O94 O 0.67495 0.80892 0.02402 0.0
Zn95 Zn 0.62958 0.80861 0.00629 0.0
Zn96 Zn 0.69412 0.76681 0.02287 0.0
Zn97 Zn 0.70043 0.83363 0.9654 0.0
O98 O 0.62172 0.84559 0.93987 0.0
O99 O 0.67131 0.86702 0.92789 0.0
O100 O 0.64094 0.84631 0.14908 0.0
O101 O 0.60518 0.82187 0.08613 0.0
O102 O 0.61403 0.76098 -0.0049 0.0
O103 O 0.65865 0.73529 0.02741 0.0
O104 O 0.71737 0.75719 0.94034 0.0
O105 O 0.72294 0.84879 0.11546 0.0
O106 O 0.71591 0.8053 0.89257 0.0
O107 O 0.73937 0.8518 0.01333 0.0
C108 C 0.71074 0.76767 0.15795 0.0
C109 C 0.64088 0.8677 0.91809 0.0
C110 C 0.62885 0.73505 0.01281 0.0
C111 C 0.61197 0.83754 0.13719 0.0
C112 C 0.72229 0.77502 0.89125 0.0
C113 C 0.74444 0.85569 0.0735 0.0
O114 O 0.72118 0.76039 0.10199 0.0
O115 O 0.44876 0.44009 0.91821 0.0
Zn116 Zn 0.41174 0.43237 0.86202 0.0
O117 O 0.42846 0.42612 0.77722 0.0
Zn118 Zn 0.42919 0.3802 0.76226 0.0
Zn119 Zn 0.47016 0.44581 0.77522 0.0
Zn120 Zn 0.40371 0.45075 0.71745 0.0
O121 O 0.39218 0.37088 0.69741 0.0
O122 O 0.37077 0.42048 0.68235 0.0
O123 O 0.39032 0.39298 0.90268 0.0
O124 O 0.41617 0.35659 0.8432 0.0
O125 O 0.47663 0.36478 0.75154 0.0
O126 O 0.50189 0.41048 0.7801 0.0
O127 O 0.4793 0.46921 0.69226 0.0
O128 O 0.38799 0.47501 0.86629 0.0
O129 O 0.43172 0.46608 0.64389 0.0
O130 O 0.385 0.49025 0.76349 0.0
C131 C 0.46903 0.46285 0.91041 0.0
C132 C 0.37004 0.38969 0.67499 0.0
C133 C 0.50236 0.38026 0.76759 0.0
C134 C 0.39973 0.36386 0.89298 0.0
C135 C 0.46164 0.47338 0.64282 0.0
C136 C 0.38094 0.49603 0.82339 0.0
O137 O 0.47651 0.47307 0.85437 0.0
O138 O 0.79712 0.20178 0.67168 0.0
Zn139 Zn 0.80462 0.16454 0.61499 0.0
O140 O 0.81071 0.18124 0.52982 0.0
Zn141 Zn 0.85624 0.18094 0.51243 0.0
Zn142 Zn 0.792 0.22364 0.52814 0.0
Zn143 Zn 0.78529 0.15699 0.47042 0.0
O144 O 0.86394 0.14386 0.44601 0.0
O145 O 0.81407 0.12336 0.43297 0.0
O146 O 0.84413 0.1431 0.65505 0.0
O147 O 0.88025 0.16733 0.59236 0.0
O148 O 0.87254 0.22835 0.50149 0.0
O149 O 0.82789 0.25467 0.53178 0.0
O150 O 0.76852 0.23344 0.44574 0.0
O151 O 0.7619 0.14088 0.61984 0.0
O152 O 0.77013 0.18544 0.39764 0.0
O153 O 0.74606 0.13889 0.51736 0.0
C154 C 0.7753 0.22303 0.66395 0.0
C155 C 0.84453 0.12215 0.42371 0.0
C156 C 0.85782 0.25453 0.5181 0.0
C157 C 0.87322 0.15165 0.64332 0.0
C158 C 0.76363 0.21568 0.39653 0.0
C159 C 0.74059 0.1345 0.57727 0.0
O160 O 0.76549 0.23096 0.60794 0.0
O161 O 0.04571 0.53965 0.42122 0.0
Zn162 Zn 0.07848 0.55652 0.36216 0.0
O163 O 0.05713 0.56298 0.28071 0.0
Zn164 Zn 0.05664 0.6088 0.26244 0.0
Zn165 Zn 0.01499 0.54382 0.27931 0.0
Zn166 Zn 0.08019 0.53789 0.21931 0.0
O167 O 0.09339 0.61674 0.19572 0.0
O168 O 0.11393 0.56667 0.18237 0.0
O169 O 0.0937 0.5981 0.40589 0.0
O170 O 0.0695 0.63365 0.34195 0.0
O171 O 0.00926 0.62458 0.25144 0.0
O172 O 0.98374 0.57949 0.28259 0.0
O173 O 0.00494 0.5197 0.19727 0.0
O174 O 0.11002 0.51894 0.35942 0.0
O175 O 0.05188 0.52375 0.14675 0.0
O176 O 0.09721 0.49776 0.26436 0.0
C177 C 0.02033 0.5227 0.41441 0.0
C178 C 0.11505 0.59732 0.17325 0.0
C179 C 0.98344 0.6095 0.26854 0.0
C180 C 0.08443 0.62705 0.39382 0.0
C181 C 0.02212 0.51607 0.14688 0.0
C182 C 0.10962 0.49501 0.32023 0.0
O183 O 0.00735 0.51814 0.35953 0.0
O184 O 0.7976 0.70298 0.37766 0.0
Zn185 Zn 0.80394 0.66508 0.43326 0.0
O186 O 0.80918 0.68086 0.51914 0.0
Zn187 Zn 0.8541 0.67926 0.54194 0.0
Zn188 Zn 0.79085 0.72323 0.5212 0.0
Zn189 Zn 0.78226 0.65701 0.57538 0.0
O190 O 0.85915 0.64182 0.61036 0.0
O191 O 0.80895 0.62133 0.60848 0.0
O192 O 0.84399 0.64391 0.39518 0.0
O193 O 0.87946 0.66512 0.46344 0.0
O194 O 0.87077 0.72674 0.5533 0.0
O195 O 0.82709 0.7536 0.51943 0.0
O196 O 0.76711 0.73288 0.60313 0.0
O197 O 0.761 0.64164 0.42525 0.0
O198 O 0.76797 0.68462 0.65022 0.0
O199 O 0.74329 0.64096 0.52665 0.0
C200 C 0.77541 0.72386 0.38528 0.0
C201 C 0.83865 0.61919 0.62396 0.0
C202 C 0.85669 0.75308 0.53536 0.0
C203 C 0.87305 0.65089 0.41047 0.0
C204 C 0.762 0.71496 0.65202 0.0
C205 C 0.73881 0.63611 0.46668 0.0
O206 O 0.76495 0.73118 0.4412 0.0
O207 O 0.04721 0.0377 0.63342 0.0
Zn208 Zn 0.07888 0.05595 0.693 0.0
O209 O 0.05672 0.06234 0.77375 0.0
Zn210 Zn 0.05592 0.10812 0.79182 0.0
Zn211 Zn 0.01477 0.0428 0.77434 0.0
Zn212 Zn 0.07945 0.0374 0.8356 0.0
O213 O 0.09296 0.1163 0.85775 0.0
O214 O 0.11332 0.06622 0.87188 0.0
O215 O 0.09339 0.09767 0.64873 0.0
O216 O 0.06847 0.13307 0.71203 0.0
O217 O 0.00831 0.12331 0.80322 0.0
O218 O 0.98337 0.07835 0.76942 0.0
O219 O 0.00403 0.01937 0.85715 0.0
O220 O 0.11139 0.01925 0.69747 0.0
O221 O 0.05073 0.02366 0.90817 0.0
O222 O 0.09653 -0.00277 0.79065 0.0
C223 C 0.02221 0.02016 0.64012 0.0
C224 C 0.11463 0.09692 0.88024 0.0
C225 C 0.98275 0.10823 0.78465 0.0
C226 C 0.08367 0.12652 0.66033 0.0
C227 C 0.02093 0.01608 0.90791 0.0
C228 C 0.11006 -0.00507 0.73564 0.0
O229 O 0.0086 0.01609 0.69468 0.0
O230 O 0.68831 0.2888 0.88336 0.0
Zn231 Zn 0.68015 0.32589 0.94001 0.0
O232 O 0.67428 0.3091 0.02503 0.0
Zn233 Zn 0.62874 0.30848 0.04182 0.0
Zn234 Zn 0.69377 0.2671 0.02636 0.0
Zn235 Zn 0.69917 0.33382 0.08455 0.0
O236 O 0.62015 0.34529 0.10831 0.0
O237 O 0.66957 0.36688 0.12162 0.0
O238 O 0.64057 0.34686 0.89987 0.0
O239 O 0.60466 0.32187 0.96183 0.0
O240 O 0.61337 0.26073 0.05196 0.0
O241 O 0.6585 0.23534 0.02128 0.0
O242 O 0.71695 0.25759 0.10919 0.0
O243 O 0.72235 0.35019 0.93526 0.0
O244 O 0.71466 0.30554 0.15743 0.0
O245 O 0.7382 0.35258 0.03769 0.0
C246 C 0.71096 0.26845 0.89102 0.0
C247 C 0.63905 0.36745 0.13063 0.0
C248 C 0.62854 0.2349 0.03471 0.0
C249 C 0.61159 0.33784 0.91118 0.0
C250 C 0.7215 0.27537 0.15851 0.0
C251 C 0.74355 0.35698 0.97773 0.0
O252 O 0.72094 0.26077 0.94705 0.0
O253 O 0.44898 0.94032 0.12845 0.0
Zn254 Zn 0.41214 0.93242 0.18533 0.0
O255 O 0.42903 0.92611 0.26994 0.0
Zn256 Zn 0.42942 0.88019 0.28515 0.0
Zn257 Zn 0.47086 0.94554 0.27174 0.0
Zn258 Zn 0.4045 0.95086 0.33007 0.0
O259 O 0.39242 0.87113 0.35028 0.0
O260 O 0.37142 0.92089 0.36564 0.0
O261 O 0.39069 0.89301 0.1449 0.0
O262 O 0.41637 0.85654 0.20433 0.0
O263 O 0.47666 0.86446 0.29628 0.0
O264 O 0.50229 0.90995 0.26759 0.0
O265 O 0.48014 0.96911 0.35441 0.0
O266 O 0.38831 0.97502 0.18154 0.0
O267 O 0.43262 0.96605 0.40333 0.0
O268 O 0.38588 0.9904 0.28434 0.0
C269 C 0.46993 0.96244 0.13618 0.0
C270 C 0.37048 0.89011 0.37302 0.0
C271 C 0.50254 0.87977 0.28041 0.0
C272 C 0.39998 0.86385 0.15462 0.0
C273 C 0.46255 0.9733 0.40406 0.0
C274 C 0.38153 -0.0039 0.22454 0.0
O275 O 0.47777 0.97238 0.19218 0.0
O276 O 0.1852 0.28499 0.67213 0.0
Zn277 Zn 0.1792 0.32321 0.61726 0.0
O278 O 0.17347 0.3077 0.53123 0.0
Zn279 Zn 0.12837 0.30979 0.50982 0.0
Zn280 Zn 0.1914 0.26514 0.52828 0.0
Zn281 Zn 0.20038 0.33151 0.47473 0.0
O282 O 0.12324 0.34756 0.44216 0.0
O283 O 0.17369 0.36752 0.44284 0.0
O284 O 0.1396 0.34489 0.65639 0.0
O285 O 0.10355 0.32412 0.58889 0.0
O286 O 0.11106 0.2625 0.49894 0.0
O287 O 0.15482 0.23511 0.53076 0.0
O288 O 0.21483 0.25556 0.44567 0.0
O289 O 0.22244 0.34619 0.62486 0.0
O290 O 0.21444 0.304 0.39929 0.0
O291 O 0.2396 0.34734 0.52311 0.0
C292 C 0.20732 0.26407 0.66407 0.0
C293 C 0.14387 0.37005 0.42845 0.0
C294 C 0.12504 0.23597 0.51614 0.0
C295 C 0.11037 0.33827 0.64171 0.0
C296 C 0.22016 0.2736 0.39703 0.0
C297 C 0.24442 0.35189 0.58308 0.0
O298 O 0.2176 0.25686 0.60795 0.0
O299 O 0.94666 0.94124 0.42124 0.0
Zn300 Zn 0.91028 0.93211 0.36436 0.0
O301 O 0.92745 0.92631 0.27946 0.0
Zn302 Zn 0.92772 0.88047 0.26182 0.0
Zn303 Zn 0.96948 0.94558 0.27728 0.0
Zn304 Zn 0.90293 0.95161 0.2201 0.0
O305 O 0.89103 0.87233 0.19522 0.0
O306 O 0.86996 0.92222 0.18257 0.0
O307 O 0.89036 0.89186 0.40512 0.0
O308 O 0.91455 0.85598 0.34171 0.0
O309 O 0.97507 0.86459 0.251 0.0
O310 O 0.0008 0.90993 0.27985 0.0
O311 O 0.9786 0.96973 0.19518 0.0
O312 O 0.8855 0.97415 0.36917 0.0
O313 O 0.93093 0.96734 0.1471 0.0
O314 O 0.88439 0.9908 0.26708 0.0
C315 C 0.96898 0.96198 0.41346 0.0
C316 C 0.8692 0.8916 0.173 0.0
C317 C 0.00099 0.87979 0.26686 0.0
C318 C 0.8992 0.86276 0.39313 0.0
C319 C 0.96088 0.97441 0.14601 0.0
C320 C 0.87935 -0.0042 0.32694 0.0
O321 O 0.97756 0.97144 0.35752 0.0
O322 O 0.29617 0.70208 0.16548 0.0
Zn323 Zn 0.30359 0.66463 0.10934 0.0
O324 O 0.30913 0.68085 0.0239 0.0
Zn325 Zn 0.35454 0.68121 0.00617 0.0
Zn326 Zn 0.28984 0.72292 0.02282 0.0
Zn327 Zn 0.28376 0.65609 0.96529 0.0
O328 O 0.36258 0.64415 0.93993 0.0
O329 O 0.313 0.62278 0.92773 0.0
O330 O 0.34313 0.64353 0.14893 0.0
O331 O 0.37892 0.66809 0.08603 0.0
O332 O 0.36999 0.72885 -0.00527 0.0
O333 O 0.32529 0.75449 0.02715 0.0
O334 O 0.26656 0.73249 0.94035 0.0
O335 O 0.26128 0.64065 0.11543 0.0
O336 O 0.26813 0.68439 0.89255 0.0
O337 O 0.24491 0.63767 0.01337 0.0
C338 C 0.27305 0.72191 0.15811 0.0
C339 C 0.34347 0.62204 0.9181 0.0
C340 C 0.35511 0.75476 0.01244 0.0
C341 C 0.37209 0.65239 0.13708 0.0
C342 C 0.26165 0.71465 0.8913 0.0
C343 C 0.23986 0.63365 0.07355 0.0
O344 O 0.26272 0.72927 0.10218 0.0
O345 O 0.53595 0.04927 0.91675 0.0
Zn346 Zn 0.57284 0.05717 0.85999 0.0
O347 O 0.55603 0.06331 0.77524 0.0
Zn348 Zn 0.55561 0.1092 0.75931 0.0
Zn349 Zn 0.51416 0.04387 0.77396 0.0
Zn350 Zn 0.58044 0.03819 0.71541 0.0
O351 O 0.59249 0.11778 0.69301 0.0
O352 O 0.61344 0.06792 0.67871 0.0
O353 O 0.59413 0.09668 0.90035 0.0
O354 O 0.56913 0.13309 0.83962 0.0
O355 O 0.50805 0.1249 0.75006 0.0
O356 O 0.48267 0.07938 0.77953 0.0
O357 O 0.50454 0.02056 0.69115 0.0
O358 O 0.59674 0.01462 0.86431 0.0
O359 O 0.55219 0.02277 0.64256 0.0
O360 O 0.59912 -0.00119 0.76177 0.0
C361 C 0.5155 0.02667 0.90913 0.0
C362 C 0.61436 0.09863 0.67037 0.0
C363 C 0.48231 0.10958 0.76692 0.0
C364 C 0.5852 0.12588 0.88982 0.0
C365 C 0.52216 0.01595 0.64168 0.0
C366 C 0.60351 0.99336 0.82166 0.0
O367 O 0.5078 0.01661 0.85314 0.0
C368 C 0.19407 0.14065 0.89998 0.0
C369 C 0.20732 0.12468 0.95379 0.0
H370 H 0.15348 0.14543 0.83634 0.0
C371 C 0.1883 0.10202 0.98725 0.0
H372 H 0.208 0.15874 0.87403 0.0
C373 C 0.1573 0.09412 0.96504 0.0
C374 C 0.14428 0.10972 0.91062 0.0
H375 H 0.19779 0.08967 0.02922 0.0
H376 H 0.1437 0.07531 0.98959 0.0
C377 C 0.16268 0.13354 0.8791 0.0
C378 C 0.60172 0.41492 0.12964 0.0
C379 C 0.62578 0.39698 0.16111 0.0
H380 H 0.57605 0.46009 0.12402 0.0
C381 C 0.64118 0.41055 0.21519 0.0
H382 H 0.58997 0.40528 0.08713 0.0
C383 C 0.63293 0.44171 0.23695 0.0
C384 C 0.6101 0.46031 0.20335 0.0
H385 H 0.66018 0.39731 0.23966 0.0
H386 H 0.64521 0.4517 0.27853 0.0
C387 C 0.59425 0.44646 0.15005 0.0
C388 C 0.32833 0.89082 0.45876 0.0
C389 C 0.34085 0.87677 0.4023 0.0
H390 H 0.28815 0.89401 0.52401 0.0
C391 C 0.32186 0.85451 0.36787 0.0
H392 H 0.34238 0.9085 0.48542 0.0
C393 C 0.29037 0.84738 0.38829 0.0
C394 C 0.27767 0.86178 0.44434 0.0
H395 H 0.33073 0.84396 0.32343 0.0
H396 H 0.27596 0.83051 0.36035 0.0
C397 C 0.29725 0.88289 0.48032 0.0
C398 C 0.87259 0.58639 0.70185 0.0
C399 C 0.84865 0.58814 0.65418 0.0
H400 H 0.89859 0.55559 0.76742 0.0
C401 C 0.83226 0.55948 0.63645 0.0
H402 H 0.88541 0.60808 0.71675 0.0
C403 C 0.83981 0.52972 0.66473 0.0
C404 C 0.86352 0.52781 0.71261 0.0
H405 H 0.81372 0.55995 0.59965 0.0
H406 H 0.82721 0.5081 0.64871 0.0
C407 C 0.87971 0.55647 0.7314 0.0
C408 C 0.79025 0.84763 0.14987 0.0
C409 C 0.77733 0.8639 0.0961 0.0
H410 H 0.83038 0.84261 0.21455 0.0
C411 C 0.79653 0.88672 0.06353 0.0
H412 H 0.77616 0.82942 0.17513 0.0
C413 C 0.82736 0.89453 0.08673 0.0
C414 C 0.84 0.87871 0.14125 0.0
H415 H 0.78728 0.89931 0.02163 0.0
H416 H 0.84108 0.91353 0.06299 0.0
C417 C 0.82147 0.85466 0.17173 0.0
C418 C 0.34889 0.54758 0.81193 0.0
C419 C 0.37229 0.52923 0.84452 0.0
H420 H 0.32122 0.59174 0.81035 0.0
C421 C 0.38861 0.54328 0.89706 0.0
H422 H 0.33624 0.53744 0.77096 0.0
C423 C 0.38108 0.57476 0.91773 0.0
C424 C 0.35649 0.59245 0.88734 0.0
H425 H 0.40722 0.52984 0.9223 0.0
H426 H 0.39325 0.58454 0.95963 0.0
C427 C 0.34059 0.57868 0.83402 0.0
C428 C 0.65698 0.09671 0.58522 0.0
C429 C 0.64401 0.11173 0.64038 0.0
H430 H 0.69766 0.09247 0.52122 0.0
C431 C 0.66266 0.13477 0.6734 0.0
H432 H 0.6432 0.07843 0.5596 0.0
C433 C 0.69425 0.14165 0.65323 0.0
C434 C 0.70746 0.12621 0.5987 0.0
H435 H 0.6535 0.14613 0.71682 0.0
H436 H 0.70837 0.15911 0.68032 0.0
C437 C 0.6882 0.10439 0.56377 0.0
C438 C 0.14976 0.42998 0.42044 0.0
C439 C 0.13389 0.4015 0.39995 0.0
H440 H 0.15469 0.48156 0.41132 0.0
C441 C 0.11072 0.40379 0.35093 0.0
H442 H 0.16772 0.42904 0.45833 0.0
C443 C 0.10391 0.43407 0.32257 0.0
C444 C 0.11963 0.46256 0.34391 0.0
H445 H 0.09834 0.38224 0.33392 0.0
H446 H 0.08568 0.43533 0.28529 0.0
C447 C 0.14248 0.46011 0.39334 0.0
C448 C 0.66196 0.63488 0.36783 0.0
C449 C 0.64283 0.61275 0.4024 0.0
H450 H 0.70796 0.65869 0.36011 0.0
C451 C 0.65524 0.59868 0.45885 0.0
H452 H 0.65318 0.64544 0.32338 0.0
C453 C 0.68634 0.60649 0.4803 0.0
C454 C 0.70604 0.62749 0.4442 0.0
H455 H 0.64108 0.58108 0.48561 0.0
H456 H 0.69534 0.59537 0.52402 0.0
C457 C 0.69346 0.64189 0.38813 0.0
C458 C 0.11079 0.90408 0.70085 0.0
C459 C 0.1349 0.90208 0.65342 0.0
H460 H 0.0848 0.93515 0.76609 0.0
C461 C 0.15154 0.9306 0.63558 0.0
H462 H 0.09777 0.88252 0.71582 0.0
C463 C 0.14409 0.96048 0.66362 0.0
C464 C 0.12025 0.96263 0.71137 0.0
H465 H 0.17021 0.92993 0.59894 0.0
H466 H 0.15691 0.98199 0.64758 0.0
C467 C 0.10378 0.93409 0.73017 0.0
C468 C 0.82637 0.39629 0.96684 0.0
C469 C 0.83955 0.38055 0.91265 0.0
H470 H 0.7857 0.40082 0.03085 0.0
C471 C 0.82135 0.3565 0.8815 0.0
H472 H 0.83983 0.41527 0.99109 0.0
C473 C 0.78997 0.34934 0.90242 0.0
C474 C 0.77653 0.36549 0.95591 0.0
H475 H 0.8307 0.34449 0.83893 0.0
H476 H 0.77617 0.33111 0.87671 0.0
C477 C 0.79536 0.38834 0.98912 0.0
C478 C 0.34977 0.04777 0.23671 0.0
C479 C 0.37291 0.0293 0.20351 0.0
H480 H 0.32228 0.09204 0.2389 0.0
C481 C 0.38903 0.04324 0.15052 0.0
H482 H 0.33728 0.0377 0.27805 0.0
C483 C 0.38154 0.07473 0.12998 0.0
C484 C 0.35718 0.09254 0.16099 0.0
H485 H 0.40745 0.0297 0.12481 0.0
H486 H 0.39353 0.08444 0.08771 0.0
C487 C 0.34149 0.07889 0.21478 0.0
C488 C 0.32771 0.39007 0.58985 0.0
C489 C 0.34045 0.37611 0.64612 0.0
H490 H 0.28736 0.39299 0.52521 0.0
C491 C 0.32167 0.35372 0.68082 0.0
H492 H 0.34157 0.40785 0.56298 0.0
C493 C 0.29018 0.34636 0.66087 0.0
C494 C 0.27726 0.36067 0.60501 0.0
H495 H 0.33069 0.34323 0.72514 0.0
H496 H 0.27594 0.3294 0.68903 0.0
C497 C 0.29663 0.38191 0.56875 0.0
C498 C 0.8802 0.07345 0.4247 0.0
C499 C 0.85707 0.09241 0.39285 0.0
H500 H 0.90442 0.02748 0.42979 0.0
C501 C 0.84172 0.07974 0.33786 0.0
H502 H 0.89184 0.08238 0.46793 0.0
C503 C 0.84921 0.04851 0.31538 0.0
C504 C 0.87116 0.02894 0.34919 0.0
H505 H 0.8234 0.09379 0.31312 0.0
H506 H 0.8371 0.03927 0.27295 0.0
C507 C 0.88687 0.04185 0.40357 0.0
C508 C 0.16269 0.63439 0.17176 0.0
C509 C 0.14441 0.61008 0.14165 0.0
H510 H 0.20778 0.66004 0.17475 0.0
C511 C 0.15728 0.59411 0.08742 0.0
H512 H 0.15357 0.6466 0.21432 0.0
C513 C 0.18809 0.6021 0.0641 0.0
C514 C 0.20702 0.62523 0.09629 0.0
H515 H 0.14374 0.57494 0.06393 0.0
H516 H 0.19753 0.58942 0.0224 0.0
C517 C 0.19388 0.6416 0.1498 0.0
C518 C 0.64379 0.91072 0.83331 0.0
C519 C 0.62791 0.89721 0.88703 0.0
H520 H 0.64812 0.95168 0.76946 0.0
C521 C 0.60338 0.91507 0.91738 0.0
H522 H 0.66312 0.89753 0.80966 0.0
C523 C 0.59588 0.94647 0.89624 0.0
C524 C 0.61215 0.96025 0.84327 0.0
H525 H 0.59123 0.90548 0.95957 0.0
H526 H 0.57731 0.96004 0.92144 0.0
C527 C 0.6355 0.94173 0.81076 0.0
C528 C 0.42869 0.16213 0.86788 0.0
C529 C 0.39931 0.14479 0.86475 0.0
H530 H 0.47799 0.16554 0.83626 0.0
C531 C 0.39605 0.12027 0.81821 0.0
H532 H 0.43181 0.18167 0.90228 0.0
C533 C 0.42253 0.11126 0.78007 0.0
C534 C 0.45263 0.12693 0.78682 0.0
H535 H 0.37369 0.10676 0.81386 0.0
H536 H 0.42014 0.09043 0.74847 0.0
C537 C 0.45501 0.15344 0.82899 0.0
C538 C 0.57424 0.6816 0.10936 0.0
C539 C 0.59162 0.65211 0.1083 0.0
H540 H 0.57155 0.731 0.07673 0.0
C541 C 0.61698 0.64859 0.0639 0.0
H542 H 0.55407 0.68489 0.14205 0.0
C543 C 0.62678 0.67502 0.02614 0.0
C544 C 0.6111 0.70531 0.03126 0.0
H545 H 0.63055 0.62611 0.0612 0.0
H546 H 0.64819 0.67249 -0.00357 0.0
C547 C 0.58374 0.70787 0.07086 0.0
C548 C 0.06079 0.87749 0.27753 0.0
C549 C 0.03057 0.86232 0.28642 0.0
H550 H 0.10987 0.88212 0.30961 0.0
C551 C 0.0281 0.83684 0.33101 0.0
H552 H 0.06322 0.8976 0.24416 0.0
C553 C 0.05447 0.82877 0.37006 0.0
C554 C 0.08402 0.84566 0.36459 0.0
H555 H 0.00501 0.82522 0.33998 0.0
H556 H 0.05131 0.81004 0.40621 0.0
C557 C 0.08735 0.86902 0.31577 0.0
C558 C 0.86062 0.31459 0.52865 0.0
C559 C 0.87563 0.28415 0.53684 0.0
H560 H 0.85625 0.36379 0.5616 0.0
C561 C 0.90148 0.28157 0.58013 0.0
H562 H 0.84031 0.31712 0.49615 0.0
C563 C 0.90996 0.30803 0.61904 0.0
C564 C 0.89305 0.33771 0.61476 0.0
H565 H 0.91304 0.25831 0.58844 0.0
H566 H 0.92884 0.30475 0.65453 0.0
C567 C 0.86941 0.34119 0.56685 0.0
C568 C 0.55624 0.82716 0.18045 0.0
C569 C 0.58554 0.84463 0.18354 0.0
H570 H 0.50697 0.82363 0.21197 0.0
C571 C 0.58878 0.86912 0.23012 0.0
H572 H 0.55318 0.8076 0.14606 0.0
C573 C 0.56229 0.87806 0.26823 0.0
C574 C 0.53223 0.86236 0.26129 0.0
H575 H 0.61111 0.8827 0.23445 0.0
H576 H 0.56461 0.89891 0.29978 0.0
C577 C 0.52992 0.83578 0.21929 0.0
C578 C 0.35705 0.31469 0.02214 0.0
C579 C 0.37288 0.28447 0.01706 0.0
H580 H 0.353 0.36354 0.98694 0.0
C581 C 0.40024 0.28203 0.97743 0.0
H582 H 0.33565 0.31712 0.0519 0.0
C583 C 0.40959 0.30832 0.93885 0.0
C584 C 0.39205 0.3377 0.93984 0.0
H585 H 0.41255 0.25896 0.97162 0.0
H586 H 0.42977 0.30511 0.90613 0.0
C587 C 0.36669 0.34113 0.98428 0.0
C588 C 0.92886 0.16177 0.68707 0.0
C589 C 0.8996 0.14419 0.68953 0.0
H590 H 0.97814 0.16509 0.71851 0.0
C591 C 0.89644 0.11915 0.73499 0.0
H592 H 0.93189 0.18171 0.65352 0.0
C593 C 0.92297 0.10985 0.77253 0.0
C594 C 0.95299 0.12575 0.76624 0.0
H595 H 0.87416 0.10544 0.73877 0.0
H596 H 0.92072 0.08862 0.80311 0.0
C597 C 0.95522 0.15279 0.72539 0.0
C598 C 0.11334 0.65017 0.49008 0.0
C599 C 0.09054 0.65373 0.44059 0.0
H600 H 0.14175 0.67421 0.56191 0.0
C601 C 0.07412 0.68364 0.43478 0.0
H602 H 0.12607 0.62741 0.49661 0.0
C603 C 0.08242 0.7102 0.47363 0.0
C604 C 0.10757 0.70749 0.51848 0.0
H605 H 0.05586 0.68704 0.39808 0.0
H606 H 0.07145 0.73361 0.46397 0.0
C607 C 0.12191 0.67684 0.5283 0.0
C608 C 0.92958 0.66082 0.37075 0.0
C609 C 0.90004 0.64394 0.36517 0.0
H610 H 0.97918 0.66425 0.34111 0.0
C611 C 0.89691 0.62044 0.31657 0.0
H612 H 0.9326 0.67963 0.40675 0.0
C613 C 0.92362 0.61186 0.27869 0.0
C614 C 0.95381 0.62705 0.28767 0.0
H615 H 0.87442 0.60733 0.31034 0.0
H616 H 0.92133 0.59165 0.24552 0.0
C617 C 0.95612 0.65263 0.33203 0.0
C618 C 0.08159 0.20957 0.57992 0.0
C619 C 0.10655 0.20669 0.5345 0.0
H620 H 0.05524 0.18664 0.65626 0.0
C621 C 0.12076 0.17598 0.52465 0.0
H622 H 0.07071 0.23303 0.58961 0.0
C623 C 0.11227 0.14942 0.56331 0.0
C624 C 0.08966 0.15314 0.61326 0.0
H625 H 0.14045 0.17322 0.49059 0.0
H626 H 0.12491 0.12661 0.55665 0.0
C627 C 0.07335 0.1831 0.61918 0.0
C628 C 0.55608 0.32742 0.86713 0.0
C629 C 0.58529 0.34508 0.86474 0.0
H630 H 0.50694 0.32379 0.83509 0.0
C631 C 0.58852 0.36994 0.81891 0.0
H632 H 0.55301 0.3076 0.90094 0.0
C633 C 0.56211 0.37899 0.78085 0.0
C634 C 0.53212 0.36303 0.78705 0.0
H635 H 0.61078 0.38369 0.81514 0.0
H636 H 0.56443 0.40007 0.74986 0.0
C637 C 0.52983 0.33616 0.82833 0.0
C638 C 0.40015 0.78197 0.0703 0.0
C639 C 0.37281 0.78452 0.03083 0.0
H640 H 0.42977 0.80495 0.14138 0.0
C641 C 0.35711 0.81479 0.02583 0.0
H642 H 0.41236 0.75885 0.07607 0.0
C643 C 0.36686 0.84122 0.06358 0.0
C644 C 0.3922 0.8377 0.10785 0.0
H645 H 0.33571 0.81731 -0.00379 0.0
H646 H 0.35326 0.86367 0.06096 0.0
C647 C 0.40961 0.80824 0.10878 0.0
C648 C 0.08711 0.3695 0.73527 0.0
C649 C 0.08364 0.34568 0.68738 0.0
H650 H 0.06318 0.3989 0.80601 0.0
C651 C 0.05395 0.32899 0.6827 0.0
H652 H 0.10971 0.38249 0.74078 0.0
C653 C 0.02762 0.33761 0.72165 0.0
C654 C 0.03028 0.36345 0.76535 0.0
H655 H 0.05066 0.30997 0.64723 0.0
H656 H 0.00445 0.32605 0.71332 0.0
C657 C 0.0606 0.37852 0.77337 0.0
C658 C 0.86036 0.81311 0.52657 0.0
C659 C 0.87506 0.78254 0.51775 0.0
H660 H 0.85622 0.86242 0.49406 0.0
C661 C 0.90068 0.77985 0.47381 0.0
H662 H 0.84017 0.81571 0.55949 0.0
C663 C 0.90918 0.80633 0.43488 0.0
C664 C 0.8925 0.83614 0.43972 0.0
H665 H 0.91196 0.7565 0.46493 0.0
H666 H 0.92789 0.80294 0.39895 0.0
C667 C 0.86914 0.83972 0.48829 0.0
C668 C 0.4278 0.66272 0.18017 0.0
C669 C 0.39845 0.64536 0.18349 0.0
H670 H 0.47703 0.6662 0.21172 0.0
C671 C 0.39503 0.62107 0.23045 0.0
H672 H 0.43101 0.68214 0.14548 0.0
C673 C 0.4214 0.61219 0.26876 0.0
C674 C 0.45152 0.62777 0.26163 0.0
H675 H 0.37264 0.60759 0.23497 0.0
H676 H 0.41894 0.59147 0.30062 0.0
C677 C 0.45402 0.65416 0.2192 0.0
C678 C 0.57531 0.18158 0.93511 0.0
C679 C 0.5927 0.15211 0.93663 0.0
H680 H 0.57211 0.23088 0.96817 0.0
C681 C 0.61757 0.14855 0.98196 0.0
H682 H 0.5555 0.1849 0.9017 0.0
C683 C 0.62686 0.1749 0.02037 0.0
C684 C 0.61115 0.20516 0.01503 0.0
H685 H 0.63113 0.12608 0.98505 0.0
H686 H 0.64792 0.17234 0.05093 0.0
C687 C 0.58429 0.20777 0.97427 0.0
C688 C 0.2449 0.26306 0.22227 0.0
C689 C 0.25029 0.22934 0.21861 0.0
H690 H 0.23151 0.30352 0.28132 0.0
C691 C 0.24603 0.21042 0.27434 0.0
H692 H 0.2481 0.27842 0.18039 0.0
C693 C 0.23668 0.22486 0.33234 0.0
C694 C 0.23136 0.25859 0.33607 0.0
H695 H 0.25011 0.18442 0.27339 0.0
H696 H 0.23353 0.20949 0.37423 0.0
C697 C 0.23556 0.27751 0.28031 0.0
C698 C 0.45809 0.4885 0.52598 0.0
C699 C 0.47663 0.48512 0.58224 0.0
H700 H 0.45748 0.50075 0.42594 0.0
C701 C 0.50998 0.49172 0.57937 0.0
H702 H 0.43239 0.48348 0.52634 0.0
C703 C 0.52443 0.50146 0.52164 0.0
C704 C 0.50589 0.50485 0.46538 0.0
H705 H 0.52505 0.48922 0.62167 0.0
H706 H 0.55013 0.50648 0.5213 0.0
C707 C 0.47255 0.49825 0.46825 0.0
C708 C 0.23735 0.72561 0.71679 0.0
C709 C 0.23215 0.75936 0.71332 0.0
H710 H 0.25034 0.685 0.77555 0.0
C711 C 0.23613 0.77816 0.76925 0.0
H712 H 0.23434 0.71034 0.67474 0.0
C713 C 0.24512 0.76356 0.82726 0.0
C714 C 0.25037 0.72981 0.83068 0.0
H715 H 0.23214 0.80418 0.76842 0.0
H716 H 0.24815 0.77882 0.86931 0.0
C717 C 0.24635 0.71102 0.77477 0.0
C718 C 0.97367 0.49793 0.08418 0.0
C719 C 0.00696 0.50457 0.08656 0.0
H720 H 0.93344 0.48345 0.02645 0.0
C721 C 0.02542 0.50151 0.02994 0.0
H722 H 0.9587 0.50019 0.12679 0.0
C723 C 0.0109 0.49207 0.97224 0.0
C724 C 0.97759 0.48547 0.96984 0.0
H725 H 0.05112 0.50656 0.02997 0.0
H726 H 0.02586 0.48982 0.92961 0.0
C727 C 0.95915 0.48849 0.02648 0.0
C728 C 0.73718 0.77856 0.77444 0.0
C729 C 0.73337 0.75981 0.8305 0.0
H730 H 0.7488 0.77914 0.67416 0.0
C731 C 0.73857 0.72606 0.8271 0.0
H732 H 0.7332 0.80458 0.77522 0.0
C733 C 0.74732 0.7114 0.76897 0.0
C734 C 0.75109 0.73015 0.71291 0.0
H735 H 0.73568 0.71084 0.86928 0.0
H736 H 0.75129 0.68538 0.76816 0.0
C737 C 0.74593 0.76391 0.71633 0.0
C738 C 0.73682 0.27902 0.27513 0.0
C739 C 0.73301 0.26027 0.21906 0.0
H740 H 0.74913 0.27971 0.37508 0.0
C741 C 0.73888 0.22663 0.22218 0.0
H742 H 0.73236 0.30496 0.27458 0.0
C743 C 0.74831 0.21209 0.27996 0.0
C744 C 0.75214 0.23084 0.33603 0.0
H745 H 0.73602 0.2114 0.18003 0.0
H746 H 0.75277 0.18615 0.28049 0.0
C747 C 0.74628 0.26448 0.33292 0.0
C748 C 0.97211 -0.00146 0.97104 0.0
C749 C 0.00547 0.005 0.96845 0.0
H750 H 0.93177 0.98418 0.02912 0.0
C751 C 0.02381 0.00204 0.02509 0.0
H752 H 0.95722 0.00078 0.92842 0.0
C753 C 0.0092 0.99273 0.08285 0.0
C754 C 0.97588 0.98613 0.08547 0.0
H755 H 0.04953 0.00698 0.02499 0.0
H756 H 0.02417 0.99048 0.12537 0.0
C757 C 0.95748 0.98922 0.02892 0.0
C758 C 0.47366 -0.00201 0.5786 0.0
C759 C 0.50705 0.00433 0.58124 0.0
H760 H 0.43338 0.98357 0.52077 0.0
C761 C 0.52555 0.00084 0.52483 0.0
H762 H 0.45862 0.00058 0.62103 0.0
C763 C 0.51102 0.99127 0.46718 0.0
C764 C 0.47763 0.98492 0.46453 0.0
H765 H 0.5513 0.00567 0.52499 0.0
H766 H 0.52607 0.98868 0.42475 0.0
C767 C 0.45912 0.9884 0.52094 0.0
C768 C 0.25275 0.23485 0.71654 0.0
C769 C 0.22331 0.2514 0.72164 0.0
H770 H 0.29207 0.21306 0.76641 0.0
C771 C 0.21045 0.25834 0.78291 0.0
H772 H 0.26334 0.22949 0.66999 0.0
C773 C 0.22699 0.24925 0.83821 0.0
C774 C 0.25658 0.23298 0.8331 0.0
H775 H 0.18771 0.27111 0.7883 0.0
H776 H 0.21646 0.25472 0.88476 0.0
C777 C 0.26929 0.22576 0.77184 0.0
C778 C 0.49857 0.5082 0.96306 0.0
C779 C 0.48131 0.47906 0.96808 0.0
H780 H 0.52165 0.54689 0.01308 0.0
C781 C 0.47389 0.46635 0.02929 0.0
H782 H 0.50429 0.51867 0.91655 0.0
C783 C 0.48356 0.48258 0.08463 0.0
C784 C 0.50089 0.51168 0.0796 0.0
H785 H 0.4605 0.44387 0.03464 0.0
H786 H 0.47786 0.47209 0.13113 0.0
C787 C 0.50824 0.52442 0.0184 0.0
C788 C 0.2109 0.75972 0.26681 0.0
C789 C 0.22371 0.75252 0.32791 0.0
H790 H 0.21676 0.75609 0.16487 0.0
C791 C 0.25288 0.73551 0.33264 0.0
H792 H 0.18836 0.77286 0.2617 0.0
C793 C 0.26922 0.7262 0.27714 0.0
C794 C 0.25657 0.73365 0.21603 0.0
H795 H 0.26343 0.72991 0.37905 0.0
H796 H 0.2918 0.71313 0.2823 0.0
C797 C 0.22724 0.75041 0.21129 0.0
C798 C 0.97605 0.49248 0.46894 0.0
C799 C 0.00569 0.50878 0.47235 0.0
H800 H 0.93913 0.46748 0.52037 0.0
C801 C 0.02113 0.51249 0.53223 0.0
H802 H 0.96356 0.48944 0.42352 0.0
C803 C 0.00715 0.50003 0.58782 0.0
C804 C 0.97756 0.48362 0.58437 0.0
H805 H 0.04407 0.52501 0.53637 0.0
H806 H 0.01966 0.50303 0.63322 0.0
C807 C 0.96206 0.48003 0.52453 0.0
C808 C 0.75622 0.7387 0.21091 0.0
C809 C 0.72707 0.75577 0.21578 0.0
H810 H 0.79485 0.71586 0.26113 0.0
C811 C 0.71446 0.76336 0.27694 0.0
H812 H 0.76666 0.73288 0.16444 0.0
C813 C 0.73067 0.7539 0.33236 0.0
C814 C 0.75968 0.7366 0.32749 0.0
H815 H 0.69201 0.77668 0.2822 0.0
H816 H 0.72018 0.75965 0.37881 0.0
C817 C 0.77244 0.72923 0.26634 0.0
C818 C 0.77178 0.22806 0.78294 0.0
C819 C 0.75954 0.23593 0.72169 0.0
H820 H 0.76575 0.23183 0.88482 0.0
C821 C 0.73111 0.25416 0.71667 0.0
H822 H 0.79373 0.21397 0.78831 0.0
C823 C 0.71502 0.26413 0.772 0.0
C824 C 0.72717 0.25612 0.83325 0.0
H825 H 0.72101 0.26032 0.67014 0.0
H826 H 0.69305 0.27819 0.76659 0.0
C827 C 0.75569 0.23804 0.83829 0.0
C828 C 0.00946 -0.00221 0.46635 0.0
C829 C 0.98352 0.9761 0.47123 0.0
H830 H 0.04213 0.02875 0.51629 0.0
C831 C 0.9707 0.96846 0.53222 0.0
H832 H 0.0198 0.00404 0.42002 0.0
C833 C 0.98331 0.98266 0.58737 0.0
C834 C 0.00904 0.00459 0.58247 0.0
H835 H 0.95059 0.95179 0.53754 0.0
H836 H 0.97281 0.97652 0.63363 0.0
C837 C 0.02218 0.01188 0.52157 0.0
C838 C 0.48484 0.98204 0.96188 0.0
C839 C 0.50305 0.01059 0.9669 0.0
H840 H 0.46064 0.94398 0.01188 0.0
C841 C 0.51106 0.02284 0.02811 0.0
H842 H 0.47861 0.97192 0.91537 0.0
C843 C 0.50102 0.00678 0.08346 0.0
C844 C 0.48272 0.97829 0.07844 0.0
H845 H 0.5252 0.04484 0.03348 0.0
H846 H 0.50722 0.01692 0.12997 0.0
C847 C 0.4748 0.96598 0.01723 0.0
loop_
_geom_bond_atom_site_label_1
_geom_bond_atom_site_label_2
_geom_bond_distance
_geom_bond_site_symmetry_2
_ccdc_geom_bond_type
O0 Zn1 1.953 . S
O0 C16 1.225 . S
Zn1 O0 1.953 . S
Zn1 O2 1.949 1_556 S
Zn1 O8 1.919 . S
Zn1 O13 1.924 . S
O2 Zn1 1.949 1_554 S
O2 Zn3 1.923 . S
O2 Zn4 1.950 . S
O2 Zn5 1.945 . S
Zn3 O2 1.923 . S
Zn3 O6 1.933 . S
Zn3 O9 1.941 1_554 S
Zn3 O10 1.965 . S
Zn4 O2 1.950 . S
Zn4 O11 1.938 . S
Zn4 O12 1.906 . S
Zn4 O22 1.953 1_554 S
Zn5 O2 1.945 . S
Zn5 O7 1.932 . S
Zn5 O14 1.977 . S
Zn5 O15 1.910 . S
O6 Zn3 1.933 . S
O6 C17 1.226 . S
O7 Zn5 1.932 . S
O7 C17 1.307 . S
O8 Zn1 1.919 . S
O8 C19 1.253 . S
O9 Zn3 1.941 1_556 S
O9 C19 1.283 . S
O10 Zn3 1.965 . S
O10 C18 1.303 . S
O11 Zn4 1.938 . S
O11 C18 1.247 . S
O12 Zn4 1.906 . S
O12 C20 1.304 . S
O13 Zn1 1.924 . S
O13 C21 1.311 . S
O14 Zn5 1.977 . S
O14 C20 1.272 . S
O15 Zn5 1.910 . S
O15 C21 1.231 1_554 S
C16 O0 1.225 . S
C16 O22 1.298 . S
C17 O6 1.226 . S
C17 O7 1.307 . S
C18 O10 1.303 . S
C18 O11 1.247 . S
C19 O8 1.253 . S
C19 O9 1.283 . S
C20 O12 1.304 . S
C20 O14 1.272 . S
C21 O13 1.311 . S
C21 O15 1.231 1_556 S
O22 Zn4 1.953 1_556 S
O22 C16 1.298 . S
O23 Zn24 1.953 . S
O23 C39 1.225 . S
Zn24 O23 1.953 . S
Zn24 O25 1.949 . S
Zn24 O31 1.919 . S
Zn24 O36 1.924 . S
O25 Zn24 1.949 . S
O25 Zn26 1.923 . S
O25 Zn27 1.950 . S
O25 Zn28 1.945 . S
Zn26 O25 1.923 . S
Zn26 O29 1.933 . S
Zn26 O32 1.941 . S
Zn26 O33 1.965 . S
Zn27 O25 1.950 . S
Zn27 O34 1.938 . S
Zn27 O35 1.906 . S
Zn27 O45 1.953 . S
Zn28 O25 1.945 . S
Zn28 O30 1.932 . S
Zn28 O37 1.977 . S
Zn28 O38 1.910 . S
O29 Zn26 1.933 . S
O29 C40 1.226 . S
O30 Zn28 1.932 . S
O30 C40 1.307 . S
O31 Zn24 1.919 . S
O31 C42 1.253 . S
O32 Zn26 1.941 . S
O32 C42 1.283 . S
O33 Zn26 1.965 . S
O33 C41 1.303 . S
O34 Zn27 1.938 . S
O34 C41 1.247 . S
O35 Zn27 1.906 . S
O35 C43 1.304 . S
O36 Zn24 1.924 . S
O36 C44 1.311 . S
O37 Zn28 1.977 . S
O37 C43 1.272 . S
O38 Zn28 1.910 . S
O38 C44 1.231 . S
C39 O23 1.225 . S
C39 O45 1.298 . S
C40 O29 1.226 . S
C40 O30 1.307 . S
C41 O33 1.303 . S
C41 O34 1.247 . S
C42 O31 1.253 . S
C42 O32 1.283 . S
C43 O35 1.304 . S
C43 O37 1.272 . S
C44 O36 1.311 . S
C44 O38 1.231 . S
O45 Zn27 1.953 . S
O45 C39 1.298 . S
O46 Zn47 1.953 . S
O46 C62 1.225 . S
Zn47 O46 1.953 . S
Zn47 O48 1.949 . S
Zn47 O54 1.919 . S
Zn47 O59 1.924 . S
O48 Zn47 1.949 . S
O48 Zn49 1.923 . S
O48 Zn50 1.950 . S
O48 Zn51 1.945 . S
Zn49 O48 1.923 . S
Zn49 O52 1.933 . S
Zn49 O55 1.941 . S
Zn49 O56 1.965 . S
Zn50 O48 1.950 . S
Zn50 O57 1.938 . S
Zn50 O58 1.906 . S
Zn50 O68 1.953 . S
Zn51 O48 1.945 . S
Zn51 O53 1.932 . S
Zn51 O60 1.977 . S
Zn51 O61 1.910 . S
O52 Zn49 1.933 . S
O52 C63 1.226 . S
O53 Zn51 1.932 . S
O53 C63 1.307 . S
O54 Zn47 1.919 . S
O54 C65 1.253 . S
O55 Zn49 1.941 . S
O55 C65 1.283 . S
O56 Zn49 1.965 . S
O56 C64 1.303 . S
O57 Zn50 1.938 . S
O57 C64 1.247 . S
O58 Zn50 1.906 . S
O58 C66 1.304 . S
O59 Zn47 1.924 . S
O59 C67 1.311 . S
O60 Zn51 1.977 . S
O60 C66 1.272 . S
O61 Zn51 1.910 . S
O61 C67 1.231 . S
C62 O46 1.225 . S
C62 O68 1.298 . S
C63 O52 1.226 . S
C63 O53 1.307 . S
C64 O56 1.303 . S
C64 O57 1.247 . S
C65 O54 1.253 . S
C65 O55 1.283 . S
C66 O58 1.304 . S
C66 O60 1.272 . S
C67 O59 1.311 . S
C67 O61 1.231 . S
O68 Zn50 1.953 . S
O68 C62 1.298 . S
O69 Zn70 1.953 . S
O69 C85 1.225 . S
Zn70 O69 1.953 . S
Zn70 O71 1.949 . S
Zn70 O77 1.919 . S
Zn70 O82 1.924 . S
O71 Zn70 1.949 . S
O71 Zn72 1.923 . S
O71 Zn73 1.950 . S
O71 Zn74 1.945 . S
Zn72 O71 1.923 . S
Zn72 O75 1.933 . S
Zn72 O78 1.941 . S
Zn72 O79 1.965 . S
Zn73 O71 1.950 . S
Zn73 O80 1.938 1_655 S
Zn73 O81 1.906 . S
Zn73 O91 1.953 1_655 S
Zn74 O71 1.945 . S
Zn74 O76 1.932 . S
Zn74 O83 1.977 . S
Zn74 O84 1.910 . S
O75 Zn72 1.933 . S
O75 C86 1.226 . S
O76 Zn74 1.932 . S
O76 C86 1.307 . S
O77 Zn70 1.919 . S
O77 C88 1.253 . S
O78 Zn72 1.941 . S
O78 C88 1.283 . S
O79 Zn72 1.965 . S
O79 C87 1.303 1_655 S
O80 Zn73 1.938 1_455 S
O80 C87 1.247 . S
O81 Zn73 1.906 . S
O81 C89 1.304 . S
O82 Zn70 1.924 . S
O82 C90 1.311 . S
O83 Zn74 1.977 . S
O83 C89 1.272 . S
O84 Zn74 1.910 . S
O84 C90 1.231 . S
C85 O69 1.225 . S
C85 O91 1.298 1_655 S
C86 O75 1.226 . S
C86 O76 1.307 . S
C87 O79 1.303 1_455 S
C87 O80 1.247 . S
C88 O77 1.253 . S
C88 O78 1.283 . S
C89 O81 1.304 . S
C89 O83 1.272 . S
C90 O82 1.311 . S
C90 O84 1.231 . S
O91 Zn73 1.953 1_455 S
O91 C85 1.298 1_455 S
O92 Zn93 1.953 . S
O92 C108 1.225 . S
Zn93 O92 1.953 . S
Zn93 O94 1.949 . S
Zn93 O100 1.919 . S
Zn93 O105 1.924 . S
O94 Zn93 1.949 . S
O94 Zn95 1.923 . S
O94 Zn96 1.950 . S
O94 Zn97 1.945 1_554 S
Zn95 O94 1.923 . S
Zn95 O98 1.933 1_554 S
Zn95 O101 1.941 . S
Zn95 O102 1.965 . S
Zn96 O94 1.950 . S
Zn96 O103 1.938 . S
Zn96 O104 1.906 1_554 S
Zn96 O114 1.953 . S
Zn97 O94 1.945 1_556 S
Zn97 O99 1.932 . S
Zn97 O106 1.977 . S
Zn97 O107 1.910 1_556 S
O98 Zn95 1.933 1_556 S
O98 C109 1.226 . S
O99 Zn97 1.932 . S
O99 C109 1.307 . S
O100 Zn93 1.919 . S
O100 C111 1.253 . S
O101 Zn95 1.941 . S
O101 C111 1.283 . S
O102 Zn95 1.965 . S
O102 C110 1.303 . S
O103 Zn96 1.938 . S
O103 C110 1.247 . S
O104 Zn96 1.906 1_556 S
O104 C112 1.304 . S
O105 Zn93 1.924 . S
O105 C113 1.311 . S
O106 Zn97 1.977 . S
O106 C112 1.272 . S
O107 Zn97 1.910 1_554 S
O107 C113 1.231 . S
C108 O92 1.225 . S
C108 O114 1.298 . S
C109 O98 1.226 . S
C109 O99 1.307 . S
C110 O102 1.303 . S
C110 O103 1.247 . S
C111 O100 1.253 . S
C111 O101 1.283 . S
C112 O104 1.304 . S
C112 O106 1.272 . S
C113 O105 1.311 . S
C113 O107 1.231 . S
O114 Zn96 1.953 . S
O114 C108 1.298 . S
O115 Zn116 1.953 . S
O115 C131 1.225 . S
Zn116 O115 1.953 . S
Zn116 O117 1.949 . S
Zn116 O123 1.919 . S
Zn116 O128 1.924 . S
O117 Zn116 1.949 . S
O117 Zn118 1.923 . S
O117 Zn119 1.950 . S
O117 Zn120 1.945 . S
Zn118 O117 1.923 . S
Zn118 O121 1.933 . S
Zn118 O124 1.941 . S
Zn118 O125 1.965 . S
Zn119 O117 1.950 . S
Zn119 O126 1.938 . S
Zn119 O127 1.906 . S
Zn119 O137 1.953 . S
Zn120 O117 1.945 . S
Zn120 O122 1.932 . S
Zn120 O129 1.977 . S
Zn120 O130 1.910 . S
O121 Zn118 1.933 . S
O121 C132 1.226 . S
O122 Zn120 1.932 . S
O122 C132 1.307 . S
O123 Zn116 1.919 . S
O123 C134 1.253 . S
O124 Zn118 1.941 . S
O124 C134 1.283 . S
O125 Zn118 1.965 . S
O125 C133 1.303 . S
O126 Zn119 1.938 . S
O126 C133 1.247 . S
O127 Zn119 1.906 . S
O127 C135 1.304 . S
O128 Zn116 1.924 . S
O128 C136 1.311 . S
O129 Zn120 1.977 . S
O129 C135 1.272 . S
O130 Zn120 1.910 . S
O130 C136 1.231 . S
C131 O115 1.225 . S
C131 O137 1.298 . S
C132 O121 1.226 . S
C132 O122 1.307 . S
C133 O125 1.303 . S
C133 O126 1.247 . S
C134 O123 1.253 . S
C134 O124 1.283 . S
C135 O127 1.304 . S
C135 O129 1.272 . S
C136 O128 1.311 . S
C136 O130 1.231 . S
O137 Zn119 1.953 . S
O137 C131 1.298 . S
O138 Zn139 1.953 . S
O138 C154 1.225 . S
Zn139 O138 1.953 . S
Zn139 O140 1.949 . S
Zn139 O146 1.919 . S
Zn139 O151 1.924 . S
O140 Zn139 1.949 . S
O140 Zn141 1.923 . S
O140 Zn142 1.950 . S
O140 Zn143 1.945 . S
Zn141 O140 1.923 . S
Zn141 O144 1.933 . S
Zn141 O147 1.941 . S
Zn141 O148 1.965 . S
Zn142 O140 1.950 . S
Zn142 O149 1.938 . S
Zn142 O150 1.906 . S
Zn142 O160 1.953 . S
Zn143 O140 1.945 . S
Zn143 O145 1.932 . S
Zn143 O152 1.977 . S
Zn143 O153 1.910 . S
O144 Zn141 1.933 . S
O144 C155 1.226 . S
O145 Zn143 1.932 . S
O145 C155 1.307 . S
O146 Zn139 1.919 . S
O146 C157 1.253 . S
O147 Zn141 1.941 . S
O147 C157 1.283 . S
O148 Zn141 1.965 . S
O148 C156 1.303 . S
O149 Zn142 1.938 . S
O149 C156 1.247 . S
O150 Zn142 1.906 . S
O150 C158 1.304 . S
O151 Zn139 1.924 . S
O151 C159 1.311 . S
O152 Zn143 1.977 . S
O152 C158 1.272 . S
O153 Zn143 1.910 . S
O153 C159 1.231 . S
C154 O138 1.225 . S
C154 O160 1.298 . S
C155 O144 1.226 . S
C155 O145 1.307 . S
C156 O148 1.303 . S
C156 O149 1.247 . S
C157 O146 1.253 . S
C157 O147 1.283 . S
C158 O150 1.304 . S
C158 O152 1.272 . S
C159 O151 1.311 . S
C159 O153 1.231 . S
O160 Zn142 1.953 . S
O160 C154 1.298 . S
O161 Zn162 1.953 . S
O161 C177 1.225 . S
Zn162 O161 1.953 . S
Zn162 O163 1.949 . S
Zn162 O169 1.919 . S
Zn162 O174 1.924 . S
O163 Zn162 1.949 . S
O163 Zn164 1.923 . S
O163 Zn165 1.950 . S
O163 Zn166 1.945 . S
Zn164 O163 1.923 . S
Zn164 O167 1.933 . S
Zn164 O170 1.941 . S
Zn164 O171 1.965 . S
Zn165 O163 1.950 . S
Zn165 O172 1.938 1_455 S
Zn165 O173 1.906 . S
Zn165 O183 1.953 1_455 S
Zn166 O163 1.945 . S
Zn166 O168 1.932 . S
Zn166 O175 1.977 . S
Zn166 O176 1.910 . S
O167 Zn164 1.933 . S
O167 C178 1.226 . S
O168 Zn166 1.932 . S
O168 C178 1.307 . S
O169 Zn162 1.919 . S
O169 C180 1.253 . S
O170 Zn164 1.941 . S
O170 C180 1.283 . S
O171 Zn164 1.965 . S
O171 C179 1.303 1_455 S
O172 Zn165 1.938 1_655 S
O172 C179 1.247 . S
O173 Zn165 1.906 . S
O173 C181 1.304 . S
O174 Zn162 1.924 . S
O174 C182 1.311 . S
O175 Zn166 1.977 . S
O175 C181 1.272 . S
O176 Zn166 1.910 . S
O176 C182 1.231 . S
C177 O161 1.225 . S
C177 O183 1.298 1_455 S
C178 O167 1.226 . S
C178 O168 1.307 . S
C179 O171 1.303 1_655 S
C179 O172 1.247 . S
C180 O169 1.253 . S
C180 O170 1.283 . S
C181 O173 1.304 . S
C181 O175 1.272 . S
C182 O174 1.311 . S
C182 O176 1.231 . S
O183 Zn165 1.953 1_655 S
O183 C177 1.298 1_655 S
O184 Zn185 1.953 . S
O184 C200 1.225 . S
Zn185 O184 1.953 . S
Zn185 O186 1.949 . S
Zn185 O192 1.919 . S
Zn185 O197 1.924 . S
O186 Zn185 1.949 . S
O186 Zn187 1.923 . S
O186 Zn188 1.950 . S
O186 Zn189 1.945 . S
Zn187 O186 1.923 . S
Zn187 O190 1.933 . S
Zn187 O193 1.941 . S
Zn187 O194 1.965 . S
Zn188 O186 1.950 . S
Zn188 O195 1.938 . S
Zn188 O196 1.906 . S
Zn188 O206 1.953 . S
Zn189 O186 1.945 . S
Zn189 O191 1.932 . S
Zn189 O198 1.977 . S
Zn189 O199 1.910 . S
O190 Zn187 1.933 . S
O190 C201 1.226 . S
O191 Zn189 1.932 . S
O191 C201 1.307 . S
O192 Zn185 1.919 . S
O192 C203 1.253 . S
O193 Zn187 1.941 . S
O193 C203 1.283 . S
O194 Zn187 1.965 . S
O194 C202 1.303 . S
O195 Zn188 1.938 . S
O195 C202 1.247 . S
O196 Zn188 1.906 . S
O196 C204 1.304 . S
O197 Zn185 1.924 . S
O197 C205 1.311 . S
O198 Zn189 1.977 . S
O198 C204 1.272 . S
O199 Zn189 1.910 . S
O199 C205 1.231 . S
C200 O184 1.225 . S
C200 O206 1.298 . S
C201 O190 1.226 . S
C201 O191 1.307 . S
C202 O194 1.303 . S
C202 O195 1.247 . S
C203 O192 1.253 . S
C203 O193 1.283 . S
C204 O196 1.304 . S
C204 O198 1.272 . S
C205 O197 1.311 . S
C205 O199 1.231 . S
O206 Zn188 1.953 . S
O206 C200 1.298 . S
O207 Zn208 1.953 . S
O207 C223 1.225 . S
Zn208 O207 1.953 . S
Zn208 O209 1.949 . S
Zn208 O215 1.919 . S
Zn208 O220 1.924 . S
O209 Zn208 1.949 . S
O209 Zn210 1.923 . S
O209 Zn211 1.950 . S
O209 Zn212 1.945 . S
Zn210 O209 1.923 . S
Zn210 O213 1.933 . S
Zn210 O216 1.941 . S
Zn210 O217 1.965 . S
Zn211 O209 1.950 . S
Zn211 O218 1.938 1_455 S
Zn211 O219 1.906 . S
Zn211 O229 1.953 1_455 S
Zn212 O209 1.945 . S
Zn212 O214 1.932 . S
Zn212 O221 1.977 . S
Zn212 O222 1.921 . S
O213 Zn210 1.933 . S
O213 C224 1.226 . S
O214 Zn212 1.932 . S
O214 C224 1.307 . S
O215 Zn208 1.919 . S
O215 C226 1.253 . S
O216 Zn210 1.941 . S
O216 C226 1.283 . S
O217 Zn210 1.965 . S
O217 C225 1.303 1_455 S
O218 Zn211 1.938 1_655 S
O218 C225 1.247 . S
O219 Zn211 1.906 . S
O219 C227 1.304 . S
O220 Zn208 1.924 . S
O220 C228 1.311 1_545 S
O221 Zn212 1.977 . S
O221 C227 1.272 . S
O222 Zn212 1.921 . S
O222 C228 1.228 1_545 S
C223 O207 1.225 . S
C223 O229 1.298 1_455 S
C224 O213 1.226 . S
C224 O214 1.307 . S
C225 O217 1.303 1_655 S
C225 O218 1.247 . S
C226 O215 1.253 . S
C226 O216 1.283 . S
C227 O219 1.304 . S
C227 O221 1.272 . S
C228 O220 1.311 1_565 S
C228 O222 1.228 1_565 S
O229 Zn211 1.953 1_655 S
O229 C223 1.298 1_655 S
O230 Zn231 1.953 . S
O230 C246 1.225 . S
Zn231 O230 1.953 . S
Zn231 O232 1.949 1_556 S
Zn231 O238 1.919 . S
Zn231 O243 1.924 . S
O232 Zn231 1.949 1_554 S
O232 Zn233 1.923 . S
O232 Zn234 1.950 . S
O232 Zn235 1.945 . S
Zn233 O232 1.923 . S
Zn233 O236 1.933 . S
Zn233 O239 1.941 1_554 S
Zn233 O240 1.965 . S
Zn234 O232 1.950 . S
Zn234 O241 1.938 . S
Zn234 O242 1.906 . S
Zn234 O252 1.953 1_554 S
Zn235 O232 1.945 . S
Zn235 O237 1.932 . S
Zn235 O244 1.977 . S
Zn235 O245 1.910 . S
O236 Zn233 1.933 . S
O236 C247 1.226 . S
O237 Zn235 1.932 . S
O237 C247 1.307 . S
O238 Zn231 1.919 . S
O238 C249 1.253 . S
O239 Zn233 1.941 1_556 S
O239 C249 1.283 . S
O240 Zn233 1.965 . S
O240 C248 1.303 . S
O241 Zn234 1.938 . S
O241 C248 1.247 . S
O242 Zn234 1.906 . S
O242 C250 1.304 . S
O243 Zn231 1.924 . S
O243 C251 1.311 . S
O244 Zn235 1.977 . S
O244 C250 1.272 . S
O245 Zn235 1.910 . S
O245 C251 1.231 1_554 S
C246 O230 1.225 . S
C246 O252 1.298 . S
C247 O236 1.226 . S
C247 O237 1.307 . S
C248 O240 1.303 . S
C248 O241 1.247 . S
C249 O238 1.253 . S
C249 O239 1.283 . S
C250 O242 1.304 . S
C250 O244 1.272 . S
C251 O243 1.311 . S
C251 O245 1.231 1_556 S
O252 Zn234 1.953 1_556 S
O252 C246 1.298 . S
O253 Zn254 1.953 . S
O253 C269 1.225 . S
Zn254 O253 1.953 . S
Zn254 O255 1.949 . S
Zn254 O261 1.919 . S
Zn254 O266 1.924 . S
O255 Zn254 1.949 . S
O255 Zn256 1.923 . S
O255 Zn257 1.950 . S
O255 Zn258 1.945 . S
Zn256 O255 1.923 . S
Zn256 O259 1.933 . S
Zn256 O262 1.941 . S
Zn256 O263 1.965 . S
Zn257 O255 1.950 . S
Zn257 O264 1.938 . S
Zn257 O265 1.906 . S
Zn257 O275 1.953 . S
Zn258 O255 1.945 . S
Zn258 O260 1.932 . S
Zn258 O267 1.977 . S
Zn258 O268 1.921 . S
O259 Zn256 1.933 . S
O259 C270 1.226 . S
O260 Zn258 1.932 . S
O260 C270 1.307 . S
O261 Zn254 1.919 . S
O261 C272 1.253 . S
O262 Zn256 1.941 . S
O262 C272 1.283 . S
O263 Zn256 1.965 . S
O263 C271 1.303 . S
O264 Zn257 1.938 . S
O264 C271 1.247 . S
O265 Zn257 1.906 . S
O265 C273 1.304 . S
O266 Zn254 1.924 . S
O266 C274 1.311 1_565 S
O267 Zn258 1.977 . S
O267 C273 1.272 . S
O268 Zn258 1.921 . S
O268 C274 1.228 1_565 S
C269 O253 1.225 . S
C269 O275 1.298 . S
C270 O259 1.226 . S
C270 O260 1.307 . S
C271 O263 1.303 . S
C271 O264 1.247 . S
C272 O261 1.253 . S
C272 O262 1.283 . S
C273 O265 1.304 . S
C273 O267 1.272 . S
C274 O266 1.311 1_545 S
C274 O268 1.228 1_545 S
O275 Zn257 1.953 . S
O275 C269 1.298 . S
O276 Zn277 1.953 . S
O276 C292 1.225 . S
Zn277 O276 1.953 . S
Zn277 O278 1.949 . S
Zn277 O284 1.919 . S
Zn277 O289 1.924 . S
O278 Zn277 1.949 . S
O278 Zn279 1.923 . S
O278 Zn280 1.950 . S
O278 Zn281 1.945 . S
Zn279 O278 1.923 . S
Zn279 O282 1.933 . S
Zn279 O285 1.941 . S
Zn279 O286 1.965 . S
Zn280 O278 1.950 . S
Zn280 O287 1.938 . S
Zn280 O288 1.906 . S
Zn280 O298 1.953 . S
Zn281 O278 1.945 . S
Zn281 O283 1.932 . S
Zn281 O290 1.977 . S
Zn281 O291 1.910 . S
O282 Zn279 1.933 . S
O282 C293 1.226 . S
O283 Zn281 1.932 . S
O283 C293 1.307 . S
O284 Zn277 1.919 . S
O284 C295 1.253 . S
O285 Zn279 1.941 . S
O285 C295 1.283 . S
O286 Zn279 1.965 . S
O286 C294 1.303 . S
O287 Zn280 1.938 . S
O287 C294 1.247 . S
O288 Zn280 1.906 . S
O288 C296 1.304 . S
O289 Zn277 1.924 . S
O289 C297 1.311 . S
O290 Zn281 1.977 . S
O290 C296 1.272 . S
O291 Zn281 1.910 . S
O291 C297 1.231 . S
C292 O276 1.225 . S
C292 O298 1.298 . S
C293 O282 1.226 . S
C293 O283 1.307 . S
C294 O286 1.303 . S
C294 O287 1.247 . S
C295 O284 1.253 . S
C295 O285 1.283 . S
C296 O288 1.304 . S
C296 O290 1.272 . S
C297 O289 1.311 . S
C297 O291 1.231 . S
O298 Zn280 1.953 . S
O298 C292 1.298 . S
O299 Zn300 1.953 . S
O299 C315 1.225 . S
Zn300 O299 1.953 . S
Zn300 O301 1.949 . S
Zn300 O307 1.919 . S
Zn300 O312 1.924 . S
O301 Zn300 1.949 . S
O301 Zn302 1.923 . S
O301 Zn303 1.950 . S
O301 Zn304 1.945 . S
Zn302 O301 1.923 . S
Zn302 O305 1.933 . S
Zn302 O308 1.941 . S
Zn302 O309 1.965 . S
Zn303 O301 1.950 . S
Zn303 O310 1.938 1_655 S
Zn303 O311 1.906 . S
Zn303 O321 1.953 1_655 S
Zn304 O301 1.945 . S
Zn304 O306 1.932 . S
Zn304 O313 1.977 . S
Zn304 O314 1.921 . S
O305 Zn302 1.933 . S
O305 C316 1.226 . S
O306 Zn304 1.932 . S
O306 C316 1.307 . S
O307 Zn300 1.919 . S
O307 C318 1.253 . S
O308 Zn302 1.941 . S
O308 C318 1.283 . S
O309 Zn302 1.965 . S
O309 C317 1.303 1_655 S
O310 Zn303 1.938 1_455 S
O310 C317 1.247 . S
O311 Zn303 1.906 . S
O311 C319 1.304 . S
O312 Zn300 1.924 . S
O312 C320 1.311 1_565 S
O313 Zn304 1.977 . S
O313 C319 1.272 . S
O314 Zn304 1.921 . S
O314 C320 1.228 1_565 S
C315 O299 1.225 . S
C315 O321 1.298 1_655 S
C316 O305 1.226 . S
C316 O306 1.307 . S
C317 O309 1.303 1_455 S
C317 O310 1.247 . S
C318 O307 1.253 . S
C318 O308 1.283 . S
C319 O311 1.304 . S
C319 O313 1.272 . S
C320 O312 1.311 1_545 S
C320 O314 1.228 1_545 S
O321 Zn303 1.953 1_455 S
O321 C315 1.298 1_455 S
O322 Zn323 1.953 . S
O322 C338 1.225 . S
Zn323 O322 1.953 . S
Zn323 O324 1.949 . S
Zn323 O330 1.919 . S
Zn323 O335 1.924 . S
O324 Zn323 1.949 . S
O324 Zn325 1.923 . S
O324 Zn326 1.950 . S
O324 Zn327 1.945 1_554 S
Zn325 O324 1.923 . S
Zn325 O328 1.933 1_554 S
Zn325 O331 1.941 . S
Zn325 O332 1.965 . S
Zn326 O324 1.950 . S
Zn326 O333 1.938 . S
Zn326 O334 1.906 1_554 S
Zn326 O344 1.953 . S
Zn327 O324 1.945 1_556 S
Zn327 O329 1.932 . S
Zn327 O336 1.977 . S
Zn327 O337 1.910 1_556 S
O328 Zn325 1.933 1_556 S
O328 C339 1.226 . S
O329 Zn327 1.932 . S
O329 C339 1.307 . S
O330 Zn323 1.919 . S
O330 C341 1.253 . S
O331 Zn325 1.941 . S
O331 C341 1.283 . S
O332 Zn325 1.965 . S
O332 C340 1.303 . S
O333 Zn326 1.938 . S
O333 C340 1.247 . S
O334 Zn326 1.906 1_556 S
O334 C342 1.304 . S
O335 Zn323 1.924 . S
O335 C343 1.311 . S
O336 Zn327 1.977 . S
O336 C342 1.272 . S
O337 Zn327 1.910 1_554 S
O337 C343 1.231 . S
C338 O322 1.225 . S
C338 O344 1.298 . S
C339 O328 1.226 . S
C339 O329 1.307 . S
C340 O332 1.303 . S
C340 O333 1.247 . S
C341 O330 1.253 . S
C341 O331 1.283 . S
C342 O334 1.304 . S
C342 O336 1.272 . S
C343 O335 1.311 . S
C343 O337 1.231 . S
O344 Zn326 1.953 . S
O344 C338 1.298 . S
O345 Zn346 1.953 . S
O345 C361 1.225 . S
Zn346 O345 1.953 . S
Zn346 O347 1.949 . S
Zn346 O353 1.919 . S
Zn346 O358 1.924 . S
O347 Zn346 1.949 . S
O347 Zn348 1.923 . S
O347 Zn349 1.950 . S
O347 Zn350 1.945 . S
Zn348 O347 1.923 . S
Zn348 O351 1.933 . S
Zn348 O354 1.941 . S
Zn348 O355 1.965 . S
Zn349 O347 1.950 . S
Zn349 O356 1.938 . S
Zn349 O357 1.906 . S
Zn349 O367 1.953 . S
Zn350 O347 1.945 . S
Zn350 O352 1.932 . S
Zn350 O359 1.977 . S
Zn350 O360 1.921 . S
O351 Zn348 1.933 . S
O351 C362 1.226 . S
O352 Zn350 1.932 . S
O352 C362 1.307 . S
O353 Zn346 1.919 . S
O353 C364 1.253 . S
O354 Zn348 1.941 . S
O354 C364 1.283 . S
O355 Zn348 1.965 . S
O355 C363 1.303 . S
O356 Zn349 1.938 . S
O356 C363 1.247 . S
O357 Zn349 1.906 . S
O357 C365 1.304 . S
O358 Zn346 1.924 . S
O358 C366 1.311 1_545 S
O359 Zn350 1.977 . S
O359 C365 1.272 . S
O360 Zn350 1.921 . S
O360 C366 1.228 1_545 S
C361 O345 1.225 . S
C361 O367 1.298 . S
C362 O351 1.226 . S
C362 O352 1.307 . S
C363 O355 1.303 . S
C363 O356 1.247 . S
C364 O353 1.253 . S
C364 O354 1.283 . S
C365 O357 1.304 . S
C365 O359 1.272 . S
C366 O358 1.311 1_565 S
C366 O360 1.228 1_565 S
O367 Zn349 1.953 . S
O367 C361 1.298 . S
C368 C369 1.387 . S
C368 H372 0.950 . S
C368 C377 1.390 . S
C369 C368 1.387 . S
C369 C371 1.387 . S
H370 C377 0.950 . S
C371 C369 1.387 . S
C371 C373 1.390 . S
C371 H375 0.950 1_556 S
H372 C368 0.950 . S
C373 C371 1.390 . S
C373 C374 1.387 . S
C373 H376 0.950 . S
C374 C373 1.387 . S
C374 C377 1.387 . S
H375 C371 0.950 1_554 S
H376 C373 0.950 . S
C377 C368 1.390 . S
C377 H370 0.950 . S
C377 C374 1.387 . S
C378 C379 1.387 . S
C378 H382 0.950 . S
C378 C387 1.390 . S
C379 C378 1.387 . S
C379 C381 1.387 . S
H380 C387 0.950 . S
C381 C379 1.387 . S
C381 C383 1.390 . S
C381 H385 0.950 . S
H382 C378 0.950 . S
C383 C381 1.390 . S
C383 C384 1.387 . S
C383 H386 0.950 . S
C384 C383 1.387 . S
C384 C387 1.387 . S
H385 C381 0.950 . S
H386 C383 0.950 . S
C387 C378 1.390 . S
C387 H380 0.950 . S
C387 C384 1.387 . S
C388 C389 1.387 . S
C388 H392 0.950 . S
C388 C397 1.390 . S
C389 C388 1.387 . S
C389 C391 1.387 . S
H390 C397 0.950 . S
C391 C389 1.387 . S
C391 C393 1.390 . S
C391 H395 0.950 . S
H392 C388 0.950 . S
C393 C391 1.390 . S
C393 C394 1.387 . S
C393 H396 0.950 . S
C394 C393 1.387 . S
C394 C397 1.387 . S
H395 C391 0.950 . S
H396 C393 0.950 . S
C397 C388 1.390 . S
C397 H390 0.950 . S
C397 C394 1.387 . S
C398 C399 1.387 . S
C398 H402 0.950 . S
C398 C407 1.390 . S
C399 C398 1.387 . S
C399 C401 1.387 . S
H400 C407 0.950 . S
C401 C399 1.387 . S
C401 C403 1.390 . S
C401 H405 0.950 . S
H402 C398 0.950 . S
C403 C401 1.390 . S
C403 C404 1.387 . S
C403 H406 0.950 . S
C404 C403 1.387 . S
C404 C407 1.387 . S
H405 C401 0.950 . S
H406 C403 0.950 . S
C407 C398 1.390 . S
C407 H400 0.950 . S
C407 C404 1.387 . S
C408 C409 1.387 . S
C408 H412 0.950 . S
C408 C417 1.390 . S
C409 C408 1.387 . S
C409 C411 1.387 . S
H410 C417 0.950 . S
C411 C409 1.387 . S
C411 C413 1.390 . S
C411 H415 0.950 . S
H412 C408 0.950 . S
C413 C411 1.390 . S
C413 C414 1.387 . S
C413 H416 0.950 . S
C414 C413 1.387 . S
C414 C417 1.387 . S
H415 C411 0.950 . S
H416 C413 0.950 . S
C417 C408 1.390 . S
C417 H410 0.950 . S
C417 C414 1.387 . S
C418 C419 1.387 . S
C418 H422 0.950 . S
C418 C427 1.390 . S
C419 C418 1.387 . S
C419 C421 1.387 . S
H420 C427 0.950 . S
C421 C419 1.387 . S
C421 C423 1.390 . S
C421 H425 0.950 . S
H422 C418 0.950 . S
C423 C421 1.390 . S
C423 C424 1.387 . S
C423 H426 0.950 . S
C424 C423 1.387 . S
C424 C427 1.387 . S
H425 C421 0.950 . S
H426 C423 0.950 . S
C427 C418 1.390 . S
C427 H420 0.950 . S
C427 C424 1.387 . S
C428 C429 1.387 . S
C428 H432 0.950 . S
C428 C437 1.390 . S
C429 C428 1.387 . S
C429 C431 1.387 . S
H430 C437 0.950 . S
C431 C429 1.387 . S
C431 C433 1.390 . S
C431 H435 0.950 . S
H432 C428 0.950 . S
C433 C431 1.390 . S
C433 C434 1.387 . S
C433 H436 0.950 . S
C434 C433 1.387 . S
C434 C437 1.387 . S
H435 C431 0.950 . S
H436 C433 0.950 . S
C437 C428 1.390 . S
C437 H430 0.950 . S
C437 C434 1.387 . S
C438 C439 1.387 . S
C438 H442 0.950 . S
C438 C447 1.390 . S
C439 C438 1.387 . S
C439 C441 1.387 . S
H440 C447 0.950 . S
C441 C439 1.387 . S
C441 C443 1.390 . S
C441 H445 0.950 . S
H442 C438 0.950 . S
C443 C441 1.390 . S
C443 C444 1.387 . S
C443 H446 0.950 . S
C444 C443 1.387 . S
C444 C447 1.387 . S
H445 C441 0.950 . S
H446 C443 0.950 . S
C447 C438 1.390 . S
C447 H440 0.950 . S
C447 C444 1.387 . S
C448 C449 1.387 . S
C448 H452 0.950 . S
C448 C457 1.390 . S
C449 C448 1.387 . S
C449 C451 1.387 . S
H450 C457 0.950 . S
C451 C449 1.387 . S
C451 C453 1.390 . S
C451 H455 0.950 . S
H452 C448 0.950 . S
C453 C451 1.390 . S
C453 C454 1.387 . S
C453 H456 0.950 . S
C454 C453 1.387 . S
C454 C457 1.387 . S
H455 C451 0.950 . S
H456 C453 0.950 . S
C457 C448 1.390 . S
C457 H450 0.950 . S
C457 C454 1.387 . S
C458 C459 1.387 . S
C458 H462 0.950 . S
C458 C467 1.390 . S
C459 C458 1.387 . S
C459 C461 1.387 . S
H460 C467 0.950 . S
C461 C459 1.387 . S
C461 C463 1.390 . S
C461 H465 0.950 . S
H462 C458 0.950 . S
C463 C461 1.390 . S
C463 C464 1.387 . S
C463 H466 0.950 . S
C464 C463 1.387 . S
C464 C467 1.387 . S
H465 C461 0.950 . S
H466 C463 0.950 . S
C467 C458 1.390 . S
C467 H460 0.950 . S
C467 C464 1.387 . S
C468 C469 1.387 . S
C468 H472 0.950 . S
C468 C477 1.390 . S
C469 C468 1.387 . S
C469 C471 1.387 . S
H470 C477 0.950 1_554 S
C471 C469 1.387 . S
C471 C473 1.390 . S
C471 H475 0.950 . S
H472 C468 0.950 . S
C473 C471 1.390 . S
C473 C474 1.387 . S
C473 H476 0.950 . S
C474 C473 1.387 . S
C474 C477 1.387 . S
H475 C471 0.950 . S
H476 C473 0.950 . S
C477 C468 1.390 . S
C477 H470 0.950 1_556 S
C477 C474 1.387 . S
C478 C479 1.387 . S
C478 H482 0.950 . S
C478 C487 1.390 . S
C479 C478 1.387 . S
C479 C481 1.387 . S
H480 C487 0.950 . S
C481 C479 1.387 . S
C481 C483 1.390 . S
C481 H485 0.950 . S
H482 C478 0.950 . S
C483 C481 1.390 . S
C483 C484 1.387 . S
C483 H486 0.950 . S
C484 C483 1.387 . S
C484 C487 1.387 . S
H485 C481 0.950 . S
H486 C483 0.950 . S
C487 C478 1.390 . S
C487 H480 0.950 . S
C487 C484 1.387 . S
C488 C489 1.387 . S
C488 H492 0.950 . S
C488 C497 1.390 . S
C489 C488 1.387 . S
C489 C491 1.387 . S
H490 C497 0.950 . S
C491 C489 1.387 . S
C491 C493 1.390 . S
C491 H495 0.950 . S
H492 C488 0.950 . S
C493 C491 1.390 . S
C493 C494 1.387 . S
C493 H496 0.950 . S
C494 C493 1.387 . S
C494 C497 1.387 . S
H495 C491 0.950 . S
H496 C493 0.950 . S
C497 C488 1.390 . S
C497 H490 0.950 . S
C497 C494 1.387 . S
C498 C499 1.387 . S
C498 H502 0.950 . S
C498 C507 1.390 . S
C499 C498 1.387 . S
C499 C501 1.387 . S
H500 C507 0.950 . S
C501 C499 1.387 . S
C501 C503 1.390 . S
C501 H505 0.950 . S
H502 C498 0.950 . S
C503 C501 1.390 . S
C503 C504 1.387 . S
C503 H506 0.950 . S
C504 C503 1.387 . S
C504 C507 1.387 . S
H505 C501 0.950 . S
H506 C503 0.950 . S
C507 C498 1.390 . S
C507 H500 0.950 . S
C507 C504 1.387 . S
C508 C509 1.387 . S
C508 H512 0.950 . S
C508 C517 1.390 . S
C509 C508 1.387 . S
C509 C511 1.387 . S
H510 C517 0.950 . S
C511 C509 1.387 . S
C511 C513 1.390 . S
C511 H515 0.950 . S
H512 C508 0.950 . S
C513 C511 1.390 . S
C513 C514 1.387 . S
C513 H516 0.950 . S
C514 C513 1.387 . S
C514 C517 1.387 . S
H515 C511 0.950 . S
H516 C513 0.950 . S
C517 C508 1.390 . S
C517 H510 0.950 . S
C517 C514 1.387 . S
C518 C519 1.387 . S
C518 H522 0.950 . S
C518 C527 1.390 . S
C519 C518 1.387 . S
C519 C521 1.387 . S
H520 C527 0.950 . S
C521 C519 1.387 . S
C521 C523 1.390 . S
C521 H525 0.950 . S
H522 C518 0.950 . S
C523 C521 1.390 . S
C523 C524 1.387 . S
C523 H526 0.950 . S
C524 C523 1.387 . S
C524 C527 1.387 . S
H525 C521 0.950 . S
H526 C523 0.950 . S
C527 C518 1.390 . S
C527 H520 0.950 . S
C527 C524 1.387 . S
C528 C529 1.387 . S
C528 H532 0.950 . S
C528 C537 1.390 . S
C529 C528 1.387 . S
C529 C531 1.387 . S
H530 C537 0.950 . S
C531 C529 1.387 . S
C531 C533 1.390 . S
C531 H535 0.950 . S
H532 C528 0.950 . S
C533 C531 1.390 . S
C533 C534 1.387 . S
C533 H536 0.950 . S
C534 C533 1.387 . S
C534 C537 1.387 . S
H535 C531 0.950 . S
H536 C533 0.950 . S
C537 C528 1.390 . S
C537 H530 0.950 . S
C537 C534 1.387 . S
C538 C539 1.387 . S
C538 H542 0.950 . S
C538 C547 1.390 . S
C539 C538 1.387 . S
C539 C541 1.387 . S
H540 C547 0.950 . S
C541 C539 1.387 . S
C541 C543 1.390 . S
C541 H545 0.950 . S
H542 C538 0.950 . S
C543 C541 1.390 . S
C543 C544 1.387 . S
C543 H546 0.950 . S
C544 C543 1.387 . S
C544 C547 1.387 . S
H545 C541 0.950 . S
H546 C543 0.950 . S
C547 C538 1.390 . S
C547 H540 0.950 . S
C547 C544 1.387 . S
C548 C549 1.387 . S
C548 H552 0.950 . S
C548 C557 1.390 . S
C549 C548 1.387 . S
C549 C551 1.387 . S
H550 C557 0.950 . S
C551 C549 1.387 . S
C551 C553 1.390 . S
C551 H555 0.950 . S
H552 C548 0.950 . S
C553 C551 1.390 . S
C553 C554 1.387 . S
C553 H556 0.950 . S
C554 C553 1.387 . S
C554 C557 1.387 . S
H555 C551 0.950 . S
H556 C553 0.950 . S
C557 C548 1.390 . S
C557 H550 0.950 . S
C557 C554 1.387 . S
C558 C559 1.387 . S
C558 H562 0.950 . S
C558 C567 1.390 . S
C559 C558 1.387 . S
C559 C561 1.387 . S
H560 C567 0.950 . S
C561 C559 1.387 . S
C561 C563 1.390 . S
C561 H565 0.950 . S
H562 C558 0.950 . S
C563 C561 1.390 . S
C563 C564 1.387 . S
C563 H566 0.950 . S
C564 C563 1.387 . S
C564 C567 1.387 . S
H565 C561 0.950 . S
H566 C563 0.950 . S
C567 C558 1.390 . S
C567 H560 0.950 . S
C567 C564 1.387 . S
C568 C569 1.387 . S
C568 H572 0.950 . S
C568 C577 1.390 . S
C569 C568 1.387 . S
C569 C571 1.387 . S
H570 C577 0.950 . S
C571 C569 1.387 . S
C571 C573 1.390 . S
C571 H575 0.950 . S
H572 C568 0.950 . S
C573 C571 1.390 . S
C573 C574 1.387 . S
C573 H576 0.950 . S
C574 C573 1.387 . S
C574 C577 1.387 . S
H575 C571 0.950 . S
H576 C573 0.950 . S
C577 C568 1.390 . S
C577 H570 0.950 . S
C577 C574 1.387 . S
C578 C579 1.387 1_554 S
C578 H582 0.950 . S
C578 C587 1.390 1_554 S
C579 C578 1.387 1_556 S
C579 C581 1.387 . S
H580 C587 0.950 1_554 S
C581 C579 1.387 . S
C581 C583 1.390 . S
C581 H585 0.950 . S
H582 C578 0.950 . S
C583 C581 1.390 . S
C583 C584 1.387 . S
C583 H586 0.950 . S
C584 C583 1.387 . S
C584 C587 1.387 . S
H585 C581 0.950 . S
H586 C583 0.950 . S
C587 C578 1.390 1_556 S
C587 H580 0.950 1_556 S
C587 C584 1.387 . S
C588 C589 1.387 . S
C588 H592 0.950 . S
C588 C597 1.390 . S
C589 C588 1.387 . S
C589 C591 1.387 . S
H590 C597 0.950 . S
C591 C589 1.387 . S
C591 C593 1.390 . S
C591 H595 0.950 . S
H592 C588 0.950 . S
C593 C591 1.390 . S
C593 C594 1.387 . S
C593 H596 0.950 . S
C594 C593 1.387 . S
C594 C597 1.387 . S
H595 C591 0.950 . S
H596 C593 0.950 . S
C597 C588 1.390 . S
C597 H590 0.950 . S
C597 C594 1.387 . S
C598 C599 1.387 . S
C598 H602 0.950 . S
C598 C607 1.390 . S
C599 C598 1.387 . S
C599 C601 1.387 . S
H600 C607 0.950 . S
C601 C599 1.387 . S
C601 C603 1.390 . S
C601 H605 0.950 . S
H602 C598 0.950 . S
C603 C601 1.390 . S
C603 C604 1.387 . S
C603 H606 0.950 . S
C604 C603 1.387 . S
C604 C607 1.387 . S
H605 C601 0.950 . S
H606 C603 0.950 . S
C607 C598 1.390 . S
C607 H600 0.950 . S
C607 C604 1.387 . S
C608 C609 1.387 . S
C608 H612 0.950 . S
C608 C617 1.390 . S
C609 C608 1.387 . S
C609 C611 1.387 . S
H610 C617 0.950 . S
C611 C609 1.387 . S
C611 C613 1.390 . S
C611 H615 0.950 . S
H612 C608 0.950 . S
C613 C611 1.390 . S
C613 C614 1.387 . S
C613 H616 0.950 . S
C614 C613 1.387 . S
C614 C617 1.387 . S
H615 C611 0.950 . S
H616 C613 0.950 . S
C617 C608 1.390 . S
C617 H610 0.950 . S
C617 C614 1.387 . S
C618 C619 1.387 . S
C618 H622 0.950 . S
C618 C627 1.390 . S
C619 C618 1.387 . S
C619 C621 1.387 . S
H620 C627 0.950 . S
C621 C619 1.387 . S
C621 C623 1.390 . S
C621 H625 0.950 . S
H622 C618 0.950 . S
C623 C621 1.390 . S
C623 C624 1.387 . S
C623 H626 0.950 . S
C624 C623 1.387 . S
C624 C627 1.387 . S
H625 C621 0.950 . S
H626 C623 0.950 . S
C627 C618 1.390 . S
C627 H620 0.950 . S
C627 C624 1.387 . S
C628 C629 1.387 . S
C628 H632 0.950 . S
C628 C637 1.390 . S
C629 C628 1.387 . S
C629 C631 1.387 . S
H630 C637 0.950 . S
C631 C629 1.387 . S
C631 C633 1.390 . S
C631 H635 0.950 . S
H632 C628 0.950 . S
C633 C631 1.390 . S
C633 C634 1.387 . S
C633 H636 0.950 . S
C634 C633 1.387 . S
C634 C637 1.387 . S
H635 C631 0.950 . S
H636 C633 0.950 . S
C637 C628 1.390 . S
C637 H630 0.950 . S
C637 C634 1.387 . S
C638 C639 1.387 . S
C638 H642 0.950 . S
C638 C647 1.390 . S
C639 C638 1.387 . S
C639 C641 1.387 . S
H640 C647 0.950 . S
C641 C639 1.387 . S
C641 C643 1.390 . S
C641 H645 0.950 1_554 S
H642 C638 0.950 . S
C643 C641 1.390 . S
C643 C644 1.387 . S
C643 H646 0.950 . S
C644 C643 1.387 . S
C644 C647 1.387 . S
H645 C641 0.950 1_556 S
H646 C643 0.950 . S
C647 C638 1.390 . S
C647 H640 0.950 . S
C647 C644 1.387 . S
C648 C649 1.387 . S
C648 H652 0.950 . S
C648 C657 1.390 . S
C649 C648 1.387 . S
C649 C651 1.387 . S
H650 C657 0.950 . S
C651 C649 1.387 . S
C651 C653 1.390 . S
C651 H655 0.950 . S
H652 C648 0.950 . S
C653 C651 1.390 . S
C653 C654 1.387 . S
C653 H656 0.950 . S
C654 C653 1.387 . S
C654 C657 1.387 . S
H655 C651 0.950 . S
H656 C653 0.950 . S
C657 C648 1.390 . S
C657 H650 0.950 . S
C657 C654 1.387 . S
C658 C659 1.387 . S
C658 H662 0.950 . S
C658 C667 1.390 . S
C659 C658 1.387 . S
C659 C661 1.387 . S
H660 C667 0.950 . S
C661 C659 1.387 . S
C661 C663 1.390 . S
C661 H665 0.950 . S
H662 C658 0.950 . S
C663 C661 1.390 . S
C663 C664 1.387 . S
C663 H666 0.950 . S
C664 C663 1.387 . S
C664 C667 1.387 . S
H665 C661 0.950 . S
H666 C663 0.950 . S
C667 C658 1.390 . S
C667 H660 0.950 . S
C667 C664 1.387 . S
C668 C669 1.387 . S
C668 H672 0.950 . S
C668 C677 1.390 . S
C669 C668 1.387 . S
C669 C671 1.387 . S
H670 C677 0.950 . S
C671 C669 1.387 . S
C671 C673 1.390 . S
C671 H675 0.950 . S
H672 C668 0.950 . S
C673 C671 1.390 . S
C673 C674 1.387 . S
C673 H676 0.950 . S
C674 C673 1.387 . S
C674 C677 1.387 . S
H675 C671 0.950 . S
H676 C673 0.950 . S
C677 C668 1.390 . S
C677 H670 0.950 . S
C677 C674 1.387 . S
C678 C679 1.387 . S
C678 H682 0.950 . S
C678 C687 1.390 . S
C679 C678 1.387 . S
C679 C681 1.387 . S
H680 C687 0.950 . S
C681 C679 1.387 . S
C681 C683 1.390 1_556 S
C681 H685 0.950 1_556 S
H682 C678 0.950 . S
C683 C681 1.390 1_554 S
C683 C684 1.387 1_554 S
C683 H686 0.950 . S
C684 C683 1.387 1_556 S
C684 C687 1.387 . S
H685 C681 0.950 1_554 S
H686 C683 0.950 . S
C687 C678 1.390 . S
C687 H680 0.950 . S
C687 C684 1.387 . S
C688 C689 1.387 . S
C688 H692 0.950 . S
C688 C697 1.390 . S
C689 C688 1.387 . S
C689 C691 1.387 . S
H690 C697 0.950 . S
C691 C689 1.387 . S
C691 C693 1.390 . S
C691 H695 0.950 . S
H692 C688 0.950 . S
C693 C691 1.390 . S
C693 C694 1.387 . S
C693 H696 0.950 . S
C694 C693 1.387 . S
C694 C697 1.387 . S
H695 C691 0.950 . S
H696 C693 0.950 . S
C697 C688 1.390 . S
C697 H690 0.950 . S
C697 C694 1.387 . S
C698 C699 1.387 . S
C698 H702 0.950 . S
C698 C707 1.390 . S
C699 C698 1.387 . S
C699 C701 1.387 . S
H700 C707 0.950 . S
C701 C699 1.387 . S
C701 C703 1.390 . S
C701 H705 0.950 . S
H702 C698 0.950 . S
C703 C701 1.390 . S
C703 C704 1.387 . S
C703 H706 0.950 . S
C704 C703 1.387 . S
C704 C707 1.387 . S
H705 C701 0.950 . S
H706 C703 0.950 . S
C707 C698 1.390 . S
C707 H700 0.950 . S
C707 C704 1.387 . S
C708 C709 1.387 . S
C708 H712 0.950 . S
C708 C717 1.390 . S
C709 C708 1.387 . S
C709 C711 1.387 . S
H710 C717 0.950 . S
C711 C709 1.387 . S
C711 C713 1.390 . S
C711 H715 0.950 . S
H712 C708 0.950 . S
C713 C711 1.390 . S
C713 C714 1.387 . S
C713 H716 0.950 . S
C714 C713 1.387 . S
C714 C717 1.387 . S
H715 C711 0.950 . S
H716 C713 0.950 . S
C717 C708 1.390 . S
C717 H710 0.950 . S
C717 C714 1.387 . S
C718 C719 1.387 . S
C718 H722 0.950 . S
C718 C727 1.390 1_455 S
C719 C718 1.387 . S
C719 C721 1.387 . S
H720 C727 0.950 1_556 S
C721 C719 1.387 . S
C721 C723 1.390 1_454 S
C721 H725 0.950 . S
H722 C718 0.950 . S
C723 C721 1.390 1_656 S
C723 C724 1.387 . S
C723 H726 0.950 . S
C724 C723 1.387 . S
C724 C727 1.387 1_556 S
H725 C721 0.950 . S
H726 C723 0.950 . S
C727 C718 1.390 1_655 S
C727 H720 0.950 1_554 S
C727 C724 1.387 1_554 S
C728 C729 1.387 . S
C728 H732 0.950 . S
C728 C737 1.390 . S
C729 C728 1.387 . S
C729 C731 1.387 . S
H730 C737 0.950 . S
C731 C729 1.387 . S
C731 C733 1.390 . S
C731 H735 0.950 . S
H732 C728 0.950 . S
C733 C731 1.390 . S
C733 C734 1.387 . S
C733 H736 0.950 . S
C734 C733 1.387 . S
C734 C737 1.387 . S
H735 C731 0.950 . S
H736 C733 0.950 . S
C737 C728 1.390 . S
C737 H730 0.950 . S
C737 C734 1.387 . S
C738 C739 1.387 . S
C738 H742 0.950 . S
C738 C747 1.390 . S
C739 C738 1.387 . S
C739 C741 1.387 . S
H740 C747 0.950 . S
C741 C739 1.387 . S
C741 C743 1.390 . S
C741 H745 0.950 . S
H742 C738 0.950 . S
C743 C741 1.390 . S
C743 C744 1.387 . S
C743 H746 0.950 . S
C744 C743 1.387 . S
C744 C747 1.387 . S
H745 C741 0.950 . S
H746 C743 0.950 . S
C747 C738 1.390 . S
C747 H740 0.950 . S
C747 C744 1.387 . S
C748 C749 1.387 1_554 S
C748 H752 0.950 1_554 S
C748 C757 1.390 1_455 S
C749 C748 1.387 1_556 S
C749 C751 1.387 1_545 S
H750 C757 0.950 . S
C751 C749 1.387 1_565 S
C751 C753 1.390 1_456 S
C751 H755 0.950 . S
H752 C748 0.950 1_556 S
C753 C751 1.390 1_654 S
C753 C754 1.387 . S
C753 H756 0.950 . S
C754 C753 1.387 . S
C754 C757 1.387 1_565 S
H755 C751 0.950 . S
H756 C753 0.950 . S
C757 C748 1.390 1_655 S
C757 H750 0.950 . S
C757 C754 1.387 1_545 S
C758 C759 1.387 . S
C758 H762 0.950 . S
C758 C767 1.390 . S
C759 C758 1.387 . S
C759 C761 1.387 1_545 S
H760 C767 0.950 . S
C761 C759 1.387 1_565 S
C761 C763 1.390 . S
C761 H765 0.950 . S
H762 C758 0.950 . S
C763 C761 1.390 . S
C763 C764 1.387 . S
C763 H766 0.950 . S
C764 C763 1.387 . S
C764 C767 1.387 1_565 S
H765 C761 0.950 . S
H766 C763 0.950 . S
C767 C758 1.390 . S
C767 H760 0.950 . S
C767 C764 1.387 1_545 S
C768 C769 1.387 . S
C768 H772 0.950 . S
C768 C777 1.390 . S
C769 C768 1.387 . S
C769 C771 1.387 . S
H770 C777 0.950 . S
C771 C769 1.387 . S
C771 C773 1.390 . S
C771 H775 0.950 . S
H772 C768 0.950 . S
C773 C771 1.390 . S
C773 C774 1.387 . S
C773 H776 0.950 . S
C774 C773 1.387 . S
C774 C777 1.387 . S
H775 C771 0.950 . S
H776 C773 0.950 . S
C777 C768 1.390 . S
C777 H770 0.950 . S
C777 C774 1.387 . S
C778 C779 1.387 1_554 S
C778 H782 0.950 1_554 S
C778 C787 1.390 . S
C779 C778 1.387 1_556 S
C779 C781 1.387 . S
H780 C787 0.950 . S
C781 C779 1.387 . S
C781 C783 1.390 1_556 S
C781 H785 0.950 . S
H782 C778 0.950 1_556 S
C783 C781 1.390 1_554 S
C783 C784 1.387 . S
C783 H786 0.950 . S
C784 C783 1.387 . S
C784 C787 1.387 . S
H785 C781 0.950 . S
H786 C783 0.950 . S
C787 C778 1.390 . S
C787 H780 0.950 . S
C787 C784 1.387 . S
C788 C789 1.387 . S
C788 H792 0.950 . S
C788 C797 1.390 . S
C789 C788 1.387 . S
C789 C791 1.387 . S
H790 C797 0.950 . S
C791 C789 1.387 . S
C791 C793 1.390 . S
C791 H795 0.950 . S
H792 C788 0.950 . S
C793 C791 1.390 . S
C793 C794 1.387 . S
C793 H796 0.950 . S
C794 C793 1.387 . S
C794 C797 1.387 . S
H795 C791 0.950 . S
H796 C793 0.950 . S
C797 C788 1.390 . S
C797 H790 0.950 . S
C797 C794 1.387 . S
C798 C799 1.397 . S
C798 H802 0.950 . S
C798 C807 1.390 . S
C799 C798 1.397 . S
C799 C801 1.378 1_655 S
H800 C807 0.950 . S
C801 C799 1.378 1_455 S
C801 C803 1.390 . S
C801 H805 0.950 . S
H802 C798 0.950 . S
C803 C801 1.390 . S
C803 C804 1.397 . S
C803 H806 0.950 . S
C804 C803 1.397 . S
C804 C807 1.378 1_455 S
H805 C801 0.950 . S
H806 C803 0.950 . S
C807 C798 1.390 . S
C807 H800 0.950 . S
C807 C804 1.378 1_655 S
C808 C809 1.387 . S
C808 H812 0.950 . S
C808 C817 1.390 . S
C809 C808 1.387 . S
C809 C811 1.387 . S
H810 C817 0.950 . S
C811 C809 1.387 . S
C811 C813 1.390 . S
C811 H815 0.950 . S
H812 C808 0.950 . S
C813 C811 1.390 . S
C813 C814 1.387 . S
C813 H816 0.950 . S
C814 C813 1.387 . S
C814 C817 1.387 . S
H815 C811 0.950 . S
H816 C813 0.950 . S
C817 C808 1.390 . S
C817 H810 0.950 . S
C817 C814 1.387 . S
C818 C819 1.387 . S
C818 H822 0.950 . S
C818 C827 1.390 . S
C819 C818 1.387 . S
C819 C821 1.387 . S
H820 C827 0.950 . S
C821 C819 1.387 . S
C821 C823 1.390 . S
C821 H825 0.950 . S
H822 C818 0.950 . S
C823 C821 1.390 . S
C823 C824 1.387 . S
C823 H826 0.950 . S
C824 C823 1.387 . S
C824 C827 1.387 . S
H825 C821 0.950 . S
H826 C823 0.950 . S
C827 C818 1.390 . S
C827 H820 0.950 . S
C827 C824 1.387 . S
C828 C829 1.397 . S
C828 H832 0.950 . S
C828 C837 1.390 1_565 S
C829 C828 1.397 . S
C829 C831 1.378 1_455 S
H830 C837 0.950 . S
C831 C829 1.378 1_655 S
C831 C833 1.390 1_565 S
C831 H835 0.950 . S
H832 C828 0.950 . S
C833 C831 1.390 1_545 S
C833 C834 1.397 . S
C833 H836 0.950 . S
C834 C833 1.397 . S
C834 C837 1.378 1_655 S
H835 C831 0.950 . S
H836 C833 0.950 . S
C837 C828 1.390 1_545 S
C837 H830 0.950 . S
C837 C834 1.378 1_455 S
C838 C839 1.387 1_554 S
C838 H842 0.950 1_554 S
C838 C847 1.390 . S
C839 C838 1.387 1_556 S
C839 C841 1.387 1_545 S
H840 C847 0.950 . S
C841 C839 1.387 1_565 S
C841 C843 1.390 1_556 S
C841 H845 0.950 . S
H842 C838 0.950 1_556 S
C843 C841 1.390 1_554 S
C843 C844 1.387 . S
C843 H846 0.950 . S
C844 C843 1.387 . S
C844 C847 1.387 1_565 S
H845 C841 0.950 . S
H846 C843 0.950 . S
C847 C838 1.390 . S
C847 H840 0.950 . S
C847 C844 1.387 1_545 S
C369 C21 1.753 . S
C374 C224 1.679 . S
C379 C247 1.679 . S
C384 C44 1.753 . S
C389 C270 1.682 . S
C394 C67 1.754 . S
C399 C201 1.681 . S
C404 C90 1.753 . S
C409 C113 1.754 . S
C414 C316 1.682 . S
C419 C136 1.753 . S
C424 C339 1.679 . S
C429 C362 1.679 . S
C434 C159 1.753 . S
C439 C293 1.681 . S
C444 C182 1.754 . S
C449 C40 1.679 . S
C454 C205 1.753 . S
C459 C63 1.680 . S
C464 C228 1.753 . S
C469 C86 1.682 . S
C474 C251 1.754 . S
C479 C274 1.754 . S
C484 C17 1.682 . S
C489 C132 1.679 . S
C494 C297 1.753 . S
C499 C155 1.681 . S
C504 C320 1.754 . S
C509 C178 1.682 . S
C514 C343 1.754 . S
C519 C109 1.680 . S
C524 C366 1.753 . S
C529 C19 1.588 . S
C534 C363 1.619 . S
C539 C42 1.588 . S
C544 C110 1.619 . S
C549 C317 1.619 . S
C554 C65 1.589 . S
C559 C156 1.617 . S
C564 C88 1.586 . S
C569 C111 1.589 . S
C574 C271 1.619 . S
C579 C18 1.617 1_556 S
C584 C134 1.586 . S
C589 C157 1.589 . S
C594 C225 1.619 . S
C599 C180 1.586 . S
C604 C64 1.617 . S
C609 C203 1.588 . S
C614 C179 1.619 . S
C619 C294 1.618 . S
C624 C226 1.586 . S
C629 C249 1.586 . S
C634 C133 1.617 . S
C639 C340 1.617 . S
C644 C272 1.586 . S
C649 C295 1.588 . S
C654 C87 1.619 . S
C659 C202 1.617 . S
C664 C318 1.585 . S
C669 C341 1.586 . S
C674 C41 1.617 . S
C679 C364 1.588 . S
C684 C248 1.619 1_556 S
C689 C20 1.544 . S
C694 C296 1.544 . S
C699 C135 1.544 . S
C704 C43 1.544 . S
C709 C66 1.544 . S
C714 C342 1.544 . S
C719 C181 1.544 . S
C724 C89 1.544 . S
C729 C112 1.544 . S
C734 C204 1.544 . S
C739 C250 1.545 . S
C744 C158 1.545 . S
C749 C227 1.544 . S
C754 C319 1.544 . S
C759 C365 1.545 . S
C764 C273 1.545 . S
C769 C292 1.022 . S
C774 C16 1.022 . S
C779 C131 1.022 . S
C784 C39 1.022 . S
C789 C62 1.022 . S
C794 C338 1.022 . S
C799 C177 1.018 1_655 S
C804 C85 1.018 1_455 S
C809 C108 1.022 . S
C814 C200 1.022 . S
C819 C154 1.024 . S
C824 C246 1.024 . S
C829 C315 1.018 1_455 S
C834 C223 1.018 1_655 S
C839 C361 1.022 . S
C844 C269 1.022 . S
