# Generated by pormake.
# Topology snl, (6)-cn, num edge types: 1
# Building blocks:
#     Node 0, Type 0, BuildingBlock: KUMBUR_clean_sbu_0, # of connection points: 6
#     Node 1, Type 0, BuildingBlock: KUMBUR_clean_sbu_0, # of connection points: 6
#     Node 2, Type 0, BuildingBlock: KUMBUR_clean_sbu_0, # of connection points: 6
#     Node 3, Type 0, BuildingBlock: KUMBUR_clean_sbu_0, # of connection points: 6
#     Node 4, Type 0, BuildingBlock: KUMBUR_clean_sbu_0, # of connection points: 6
#     Node 5, Type 0, BuildingBlock: KUMBUR_clean_sbu_0, # of connection points: 6
#     Node 6, Type 0, BuildingBlock: KUMBUR_clean_sbu_0, # of connection points: 6
#     Node 7, Type 0, BuildingBlock: KUMBUR_clean_sbu_0, # of connection points: 6
#     Node 8, Type 0, BuildingBlock: KUMBUR_clean_sbu_0, # of connection points: 6
#     Node 9, Type 0, BuildingBlock: KUMBUR_clean_sbu_0, # of connection points: 6
#     Node 10, Type 0, BuildingBlock: KUMBUR_clean_sbu_0, # of connection points: 6
#     Node 11, Type 0, BuildingBlock: KUMBUR_clean_sbu_0, # of connection points: 6
#     Node 12, Type 0, BuildingBlock: KUMBUR_clean_sbu_0, # of connection points: 6
#     Node 13, Type 0, BuildingBlock: KUMBUR_clean_sbu_0, # of connection points: 6
#     Node 14, Type 0, BuildingBlock: KUMBUR_clean_sbu_0, # of connection points: 6
#     Node 15, Type 0, BuildingBlock: KUMBUR_clean_sbu_0, # of connection points: 6
#     Edge 16, Type (0, 0), BuildingBlock: AJUNOK_clean_linker_0, # of connection points: 2
#     Edge 17, Type (0, 0), BuildingBlock: AJUNOK_clean_linker_0, # of connection points: 2
#     Edge 18, Type (0, 0), BuildingBlock: AJUNOK_clean_linker_0, # of connection points: 2
#     Edge 19, Type (0, 0), BuildingBlock: AJUNOK_clean_linker_0, # of connection points: 2
#     Edge 20, Type (0, 0), BuildingBlock: AJUNOK_clean_linker_0, # of connection points: 2
#     Edge 21, Type (0, 0), BuildingBlock: AJUNOK_clean_linker_0, # of connection points: 2
#     Edge 22, Type (0, 0), BuildingBlock: AJUNOK_clean_linker_0, # of connection points: 2
#     Edge 23, Type (0, 0), BuildingBlock: AJUNOK_clean_linker_0, # of connection points: 2
#     Edge 24, Type (0, 0), BuildingBlock: AJUNOK_clean_linker_0, # of connection points: 2
#     Edge 25, Type (0, 0), BuildingBlock: AJUNOK_clean_linker_0, # of connection points: 2
#     Edge 26, Type (0, 0), BuildingBlock: AJUNOK_clean_linker_0, # of connection points: 2
#     Edge 27, Type (0, 0), BuildingBlock: AJUNOK_clean_linker_0, # of connection points: 2
#     Edge 28, Type (0, 0), BuildingBlock: AJUNOK_clean_linker_0, # of connection points: 2
#     Edge 29, Type (0, 0), BuildingBlock: AJUNOK_clean_linker_0, # of connection points: 2
#     Edge 30, Type (0, 0), BuildingBlock: AJUNOK_clean_linker_0, # of connection points: 2
#     Edge 31, Type (0, 0), BuildingBlock: AJUNOK_clean_linker_0, # of connection points: 2
#     Edge 32, Type (0, 0), BuildingBlock: AJUNOK_clean_linker_0, # of connection points: 2
#     Edge 33, Type (0, 0), BuildingBlock: AJUNOK_clean_linker_0, # of connection points: 2
#     Edge 34, Type (0, 0), BuildingBlock: AJUNOK_clean_linker_0, # of connection points: 2
#     Edge 35, Type (0, 0), BuildingBlock: AJUNOK_clean_linker_0, # of connection points: 2
#     Edge 36, Type (0, 0), BuildingBlock: AJUNOK_clean_linker_0, # of connection points: 2
#     Edge 37, Type (0, 0), BuildingBlock: AJUNOK_clean_linker_0, # of connection points: 2
#     Edge 38, Type (0, 0), BuildingBlock: AJUNOK_clean_linker_0, # of connection points: 2
#     Edge 39, Type (0, 0), BuildingBlock: AJUNOK_clean_linker_0, # of connection points: 2
#     Edge 40, Type (0, 0), BuildingBlock: AJUNOK_clean_linker_0, # of connection points: 2
#     Edge 41, Type (0, 0), BuildingBlock: AJUNOK_clean_linker_0, # of connection points: 2
#     Edge 42, Type (0, 0), BuildingBlock: AJUNOK_clean_linker_0, # of connection points: 2
#     Edge 43, Type (0, 0), BuildingBlock: AJUNOK_clean_linker_0, # of connection points: 2
#     Edge 44, Type (0, 0), BuildingBlock: AJUNOK_clean_linker_0, # of connection points: 2
#     Edge 45, Type (0, 0), BuildingBlock: AJUNOK_clean_linker_0, # of connection points: 2
#     Edge 46, Type (0, 0), BuildingBlock: AJUNOK_clean_linker_0, # of connection points: 2
#     Edge 47, Type (0, 0), BuildingBlock: AJUNOK_clean_linker_0, # of connection points: 2
#     Edge 48, Type (0, 0), BuildingBlock: AJUNOK_clean_linker_0, # of connection points: 2
#     Edge 49, Type (0, 0), BuildingBlock: AJUNOK_clean_linker_0, # of connection points: 2
#     Edge 50, Type (0, 0), BuildingBlock: AJUNOK_clean_linker_0, # of connection points: 2
#     Edge 51, Type (0, 0), BuildingBlock: AJUNOK_clean_linker_0, # of connection points: 2
#     Edge 52, Type (0, 0), BuildingBlock: AJUNOK_clean_linker_0, # of connection points: 2
#     Edge 53, Type (0, 0), BuildingBlock: AJUNOK_clean_linker_0, # of connection points: 2
#     Edge 54, Type (0, 0), BuildingBlock: AJUNOK_clean_linker_0, # of connection points: 2
#     Edge 55, Type (0, 0), BuildingBlock: AJUNOK_clean_linker_0, # of connection points: 2
#     Edge 56, Type (0, 0), BuildingBlock: AJUNOK_clean_linker_0, # of connection points: 2
#     Edge 57, Type (0, 0), BuildingBlock: AJUNOK_clean_linker_0, # of connection points: 2
#     Edge 58, Type (0, 0), BuildingBlock: AJUNOK_clean_linker_0, # of connection points: 2
#     Edge 59, Type (0, 0), BuildingBlock: AJUNOK_clean_linker_0, # of connection points: 2
#     Edge 60, Type (0, 0), BuildingBlock: AJUNOK_clean_linker_0, # of connection points: 2
#     Edge 61, Type (0, 0), BuildingBlock: AJUNOK_clean_linker_0, # of connection points: 2
#     Edge 62, Type (0, 0), BuildingBlock: AJUNOK_clean_linker_0, # of connection points: 2
#     Edge 63, Type (0, 0), BuildingBlock: AJUNOK_clean_linker_0, # of connection points: 2
# Relax obj value: 0.161
# Max RMSD: 0.259
# Mean RMSD: 0.251
data_MOF--net-snl--node1-KUMBUR_clean_sbu_0--edge1-AJUNOK_clean_linker_0
_symmetry_space_group_name_H-M    P1
_symmetry_Int_Tables_number       1
_symmetry_cell_setting            triclinic
loop_
_symmetry_equiv_pos_as_xyz
'x, y, z'
_cell_length_a     40.799207
_cell_length_b     41.221806
_cell_length_c     20.473757
_cell_angle_alpha  90.557139
_cell_angle_beta   90.148502
_cell_angle_gamma 90.12649
loop_
_atom_site_label
_atom_site_type_symbol
_atom_site_fract_x
_atom_site_fract_y
_atom_site_fract_z
_atom_type_partial_charge
Tb0 Tb 0.162 0.6534 0.07206 0.0
C1 C 0.06972 0.59115 0.28764 0.0
C2 C 0.03058 0.63605 0.40537 0.0
C3 C 0.98969 0.58648 0.36679 0.0
C4 C 0.07133 0.62489 0.34557 0.0
C5 C 0.03187 0.56851 0.27704 0.0
C6 C 0.99918 0.61465 0.41642 0.0
C7 C 0.06894 0.53312 0.21589 0.0
N8 N 0.09377 0.58448 0.24654 0.0
C9 C 0.09661 0.55263 0.22888 0.0
C10 C 0.03684 0.54228 0.23209 0.0
Tb11 Tb 0.12776 0.6268 0.22456 0.0
N12 N 0.07578 0.63525 0.27349 0.0
C13 C 0.05156 0.64816 0.22365 0.0
C14 C 0.99265 0.65049 0.35962 0.0
C15 C 1.01258 0.65561 0.2358 0.0
H16 H 0.1205 0.54344 0.21664 0.0
H17 H 1.0011 0.66762 0.19495 0.0
H18 H 0.98426 0.61822 0.46011 0.0
H19 H 0.07261 0.51008 0.19116 0.0
H20 H 0.06256 0.66139 0.18555 0.0
H21 H 0.23487 0.56269 0.93973 0.0
H22 H 0.96974 0.65946 0.38345 0.0
H23 H 0.19138 0.72525 0.12837 0.0
H24 H 0.18656 0.59656 0.95959 0.0
H25 H 0.24305 0.74695 0.17066 0.0
H26 H 0.96626 0.57613 0.382 0.0
H27 H 0.28572 0.57255 1.00283 0.0
H28 H 0.31707 0.60939 0.07792 0.0
H29 H 0.01766 0.5261 0.21513 0.0
H30 H 0.31949 0.66132 0.13826 0.0
N31 N 0.20711 0.62193 0.04156 0.0
C32 C 0.2078 0.60022 0.98992 0.0
C33 C 0.26406 0.58687 1.0131 0.0
C34 C 0.26522 0.61313 0.05664 0.0
C35 C 0.23547 0.58121 0.97755 0.0
C36 C 0.23622 0.631 0.06844 0.0
H37 H 0.29264 0.71312 0.17049 0.0
N38 N 0.20988 0.67803 0.10779 0.0
C39 C 0.24162 0.7221 0.15359 0.0
C40 C 0.23779 0.66033 0.10141 0.0
C41 C 0.21192 0.70924 0.13079 0.0
C42 C 0.26971 0.70311 0.15252 0.0
C43 C 0.26821 0.67206 0.12503 0.0
O44 O 0.17844 0.69017 1.00947 0.0
O45 O 0.11722 0.64196 0.12576 0.0
O46 O 0.12036 0.58856 0.14395 0.0
O47 O 0.15967 0.60051 0.06736 0.0
O48 O 0.11104 0.65209 0.03102 0.0
O49 O 0.15226 0.64838 0.97029 0.0
O50 O 0.1552 0.60209 0.29436 0.0
O51 O 0.17232 0.64648 0.17747 0.0
O52 O 0.14234 0.6983 0.11789 0.0
O53 O 0.12183 0.68222 0.22033 0.0
O54 O 0.1748 0.6016 0.21874 0.0
O55 O 0.13645 0.64969 0.31692 0.0
C56 C 0.09483 0.64279 0.08122 0.0
C57 C 0.17015 0.68902 0.89062 0.0
C58 C 0.16841 0.68347 0.7709 0.0
C59 C 0.16415 0.67001 0.83383 0.0
C60 C 0.17883 0.71586 0.76583 0.0
C61 C 0.18013 0.72134 0.88313 0.0
C62 C 0.18453 0.73459 0.82154 0.0
C63 C 0.1377 0.58051 0.09058 0.0
C64 C 0.16704 0.67554 0.95761 0.0
C65 C 0.29633 0.65286 0.11892 0.0
C66 C 0.29488 0.62335 0.08489 0.0
C67 C 0.19279 0.62501 0.19743 0.0
C68 C 0.1426 0.61123 0.40485 0.0
C69 C 0.14993 0.62867 0.46282 0.0
C70 C 0.14466 0.61445 0.52463 0.0
C71 C 0.13129 0.58308 0.52765 0.0
C72 C 0.12972 0.57958 0.40992 0.0
C73 C 0.12396 0.56582 0.47071 0.0
C74 C 0.12944 0.70539 0.17615 0.0
C75 C 0.15161 0.62415 0.33957 0.0
H76 H 0.1561 0.64508 0.83852 0.0
H77 H 0.18279 0.7267 0.7185 0.0
H78 H 0.18454 0.7366 0.92484 0.0
H79 H 0.19251 0.75951 0.817 0.0
H80 H 0.16056 0.65272 0.45988 0.0
H81 H 0.12632 0.57192 0.57429 0.0
H82 H 0.12427 0.56513 0.36682 0.0
H83 H 0.11385 0.54157 0.47365 0.0
Tb84 Tb 0.66223 0.87027 0.47965 0.0
C85 C 0.57974 0.93165 0.2683 0.0
C86 C 0.5299 0.89951 0.26842 0.0
C87 C 0.53107 0.95173 0.21411 0.0
C88 C 0.56311 0.90342 0.28496 0.0
C89 C 0.56368 0.95616 0.23297 0.0
C90 C 0.51418 0.92385 0.23263 0.0
C91 C 0.61439 0.98608 0.22997 0.0
N92 N 0.61219 0.93397 0.28229 0.0
C93 C 0.62974 0.96062 0.26237 0.0
C94 C 0.58121 0.98378 0.21483 0.0
Tb95 Tb 0.63476 0.88724 0.32267 0.0
N96 N 0.58016 0.87877 0.31249 0.0
C97 C 0.56578 0.84919 0.32186 0.0
C98 C 0.51424 0.87045 0.28512 0.0
C99 C 0.53242 0.84491 0.31009 0.0
H100 H 0.65562 0.96287 0.27185 0.0
H101 H 0.52074 0.82197 0.32059 0.0
H102 H 0.48906 0.92153 0.21771 0.0
H103 H 0.62837 1.00714 0.21537 0.0
H104 H 0.57939 0.82914 0.34129 0.0
H105 H 0.71361 0.97729 0.60441 0.0
H106 H 0.48843 0.86669 0.2776 0.0
H107 H 0.70422 0.80315 0.43721 0.0
H108 H 0.67183 0.93604 0.58254 0.0
H109 H 0.75975 0.78879 0.40369 0.0
H110 H 0.51864 0.96972 0.18487 0.0
H111 H 0.76866 0.97251 0.55494 0.0
H112 H 0.80889 0.93824 0.49282 0.0
H113 H 0.56953 1.00315 0.18803 0.0
H114 H 0.82181 0.88582 0.44067 0.0
N115 N 0.70096 0.90904 0.5138 0.0
C116 C 0.69519 0.93384 0.55797 0.0
C117 C 0.75008 0.95444 0.54388 0.0
C118 C 0.75741 0.92691 0.50649 0.0
C119 C 0.71908 0.95731 0.5716 0.0
C120 C 0.73224 0.90406 0.49364 0.0
H121 H 0.80404 0.82955 0.40969 0.0
N122 N 0.71491 0.85297 0.45596 0.0
C123 C 0.75434 0.81328 0.41968 0.0
C124 C 0.73963 0.87467 0.46509 0.0
C125 C 0.72237 0.8219 0.43733 0.0
C126 C 0.77933 0.83625 0.42359 0.0
C127 C 0.77229 0.86725 0.44761 0.0
O128 O 0.65507 0.82788 0.53365 0.0
O129 O 0.6186 0.86997 0.41662 0.0
O130 O 0.62861 0.93443 0.37978 0.0
O131 O 0.64585 0.92099 0.48443 0.0
O132 O 0.61183 0.88407 0.51105 0.0
O133 O 0.67127 0.87097 0.58161 0.0
O134 O 0.66872 0.87611 0.24764 0.0
O135 O 0.67951 0.87589 0.37744 0.0
O136 O 0.65103 0.82177 0.43866 0.0
O137 O 0.63724 0.83268 0.33069 0.0
O138 O 0.67718 0.91861 0.32754 0.0
O139 O 0.61796 0.87385 0.22779 0.0
C140 C 0.59625 0.87935 0.45689 0.0
C141 C 0.63794 0.83557 0.64396 0.0
C142 C 0.62294 0.84159 0.75985 0.0
C143 C 0.64394 0.84873 0.70694 0.0
C144 C 0.59631 0.82049 0.74876 0.0
C145 C 0.61056 0.81531 0.63443 0.0
C146 C 0.59005 0.8078 0.68654 0.0
C147 C 0.63496 0.94241 0.44225 0.0
C148 C 0.66126 0.84152 0.58967 0.0
C149 C 0.79685 0.89085 0.45531 0.0
C150 C 0.78942 0.92072 0.48465 0.0
C151 C 0.69727 0.8996 0.35651 0.0
C152 C 0.65207 0.89056 0.1411 0.0
C153 C 0.64257 0.87688 0.08043 0.0
C154 C 0.64921 0.89334 1.02177 0.0
C155 C 0.66396 0.92407 0.02444 0.0
C156 C 0.66764 0.92098 0.14214 0.0
C157 C 0.67269 0.93796 0.08438 0.0
C158 C 0.6437 0.81183 0.37863 0.0
C159 C 0.64686 0.87256 0.20254 0.0
H160 H 0.66492 0.86449 0.71465 0.0
H161 H 0.58047 0.8133 0.78844 0.0
H162 H 0.60514 0.80481 0.58691 0.0
H163 H 0.56937 0.79171 0.67881 0.0
H164 H 0.63108 0.85315 0.07868 0.0
H165 H 0.66901 0.93718 0.97995 0.0
H166 H 0.67666 0.93135 0.18737 0.0
H167 H 0.68454 0.96148 0.08594 0.0
Tb168 Tb 0.36623 0.38535 0.57862 0.0
C169 C 0.44245 0.47628 0.77031 0.0
C170 C 0.48863 0.44864 0.81881 0.0
C171 C 0.48226 0.50675 0.83519 0.0
C172 C 0.45991 0.44817 0.78022 0.0
C173 C 0.45375 0.5061 0.7966 0.0
C174 C 0.49925 0.47795 0.84755 0.0
C175 C 0.4046 0.5313 0.75562 0.0
N176 N 0.41298 0.47393 0.73979 0.0
C177 C 0.39345 0.50087 0.73449 0.0
C178 C 0.43488 0.53395 0.78704 0.0
Tb179 Tb 0.39401 0.42199 0.72211 0.0
N180 N 0.4478 0.42006 0.7549 0.0
C181 C 0.46483 0.3918 0.76263 0.0
C182 C 0.50565 0.41964 0.82782 0.0
C183 C 0.49414 0.39125 0.79812 0.0
H184 H 0.36928 0.49904 0.71314 0.0
H185 H 0.50733 0.36872 0.80405 0.0
H186 H 0.52108 0.47872 0.8778 0.0
H187 H 0.38941 0.55253 0.74926 0.0
H188 H 0.45581 0.36934 0.74278 0.0
H189 H 0.24257 0.43228 0.57412 0.0
H190 H 0.52791 0.41901 0.85678 0.0
H191 H 0.39543 0.31189 0.54339 0.0
H192 H 0.30263 0.43612 0.57645 0.0
H193 H 0.37334 0.25858 0.51129 0.0
H194 H 0.49097 0.52927 0.85684 0.0
H195 H 0.21572 0.3787 0.56009 0.0
H196 H 0.22103 0.31886 0.54191 0.0
H197 H 0.44286 0.55734 0.80579 0.0
H198 H 0.25671 0.27164 0.52283 0.0
N199 N 0.31003 0.38492 0.57305 0.0
C200 C 0.29136 0.41246 0.57311 0.0
C201 C 0.24207 0.38023 0.56402 0.0
C202 C 0.26128 0.35235 0.55904 0.0
C203 C 0.25718 0.41045 0.57111 0.0
C204 C 0.2956 0.35549 0.56459 0.0
H205 H 0.31338 0.24998 0.50585 0.0
N206 N 0.34845 0.33327 0.55913 0.0
C207 C 0.35682 0.27803 0.52455 0.0
C208 C 0.31547 0.32877 0.55637 0.0
C209 C 0.36924 0.30839 0.54293 0.0
C210 C 0.323 0.27314 0.52214 0.0
C211 C 0.30184 0.29844 0.53899 0.0
O212 O 0.39058 0.37383 0.49098 0.0
O213 O 0.40977 0.40528 0.62782 0.0
O214 O 0.40319 0.45761 0.63983 0.0
O215 O 0.36251 0.43904 0.57087 0.0
O216 O 0.4164 0.36458 0.5746 0.0
O217 O 0.34975 0.40667 0.49115 0.0
O218 O 0.36594 0.4393 0.80099 0.0
O219 O 0.35049 0.39926 0.67801 0.0
O220 O 0.36083 0.34734 0.65067 0.0
O221 O 0.399 0.36676 0.72544 0.0
O222 O 0.34561 0.44418 0.71553 0.0
O223 O 0.39994 0.40027 0.81488 0.0
C224 C 0.43205 0.38524 0.61025 0.0
C225 C 0.35943 0.37637 0.39385 0.0
C226 C 0.35847 0.37549 0.2746 0.0
C227 C 0.36845 0.39007 0.33394 0.0
C228 C 0.33995 0.34671 0.27592 0.0
C229 C 0.34033 0.34806 0.3937 0.0
C230 C 0.33079 0.33325 0.33522 0.0
C231 C 0.38397 0.46198 0.58727 0.0
C232 C 0.37117 0.39136 0.45537 0.0
C233 C 0.26765 0.29486 0.53542 0.0
C234 C 0.24736 0.32174 0.54615 0.0
C235 C 0.32854 0.42001 0.69465 0.0
C236 C 0.38926 0.43515 0.90624 0.0
C237 C 0.38501 0.41802 0.96471 0.0
C238 C 0.39216 0.43292 0.02544 0.0
C239 C 0.405 0.46451 0.02706 0.0
C240 C 0.39999 0.46754 0.90973 0.0
C241 C 0.40875 0.48174 0.96937 0.0
C242 C 0.38108 0.34237 0.69963 0.0
C243 C 0.37941 0.42009 0.84313 0.0
H244 H 0.38292 0.41216 0.3335 0.0
H245 H 0.3326 0.33458 0.23103 0.0
H246 H 0.33291 0.33708 0.43826 0.0
H247 H 0.31634 0.31119 0.33592 0.0
H248 H 0.37519 0.39356 0.96319 0.0
H249 H 0.41065 0.4764 0.07319 0.0
H250 H 0.4006 0.48235 0.86694 0.0
H251 H 0.41744 0.50655 0.97106 0.0
Tb252 Tb 0.89403 0.10583 0.83978 0.0
C253 C 0.80781 0.19028 1.01521 0.0
C254 C 0.8316 0.24384 1.01733 0.0
C255 C 0.77285 0.23743 0.03084 0.0
C256 C 0.8348 0.21002 1.00926 0.0
C257 C 0.77659 0.20361 0.02774 0.0
C258 C 0.8004 0.25755 0.02599 0.0
C259 C 0.75613 0.1493 0.04276 0.0
N260 N 0.81277 0.15776 1.01398 0.0
C261 C 0.78764 0.13728 0.03111 0.0
C262 C 0.75044 0.18258 0.03993 0.0
Tb263 Tb 0.86537 0.14027 0.9906 0.0
N264 N 0.86457 0.19582 1.00186 0.0
C265 C 0.89241 0.21411 1.00878 0.0
C266 C 0.85994 0.26273 1.01993 0.0
C267 C 0.89054 0.24778 1.01715 0.0
H268 H 0.79131 0.11147 0.03417 0.0
H269 H 0.9127 0.26217 1.021 0.0
H270 H 0.79748 0.28353 0.03171 0.0
H271 H 0.73628 0.13288 0.05431 0.0
H272 H 0.91627 0.20301 1.00667 0.0
H273 H 0.78427 0.03306 0.78722 0.0
H274 H 0.85822 0.28867 0.02616 0.0
H275 H 0.97234 0.07891 0.83678 0.0
H276 H 0.81731 0.08154 0.7845 0.0
H277 H 1.00141 0.02864 0.86215 0.0
H278 H 0.74905 0.24818 0.03982 0.0
H279 H 0.80793 0.98135 0.82423 0.0
H280 H 0.85677 0.95092 0.86313 0.0
H281 H 0.7261 0.19184 0.04973 0.0
H282 H 0.91632 0.94927 0.88272 0.0
N283 N 0.86021 0.06029 0.82822 0.0
C284 C 0.82852 0.06045 0.80509 0.0
C285 C 0.82284 1.00313 0.8247 0.0
C286 C 0.85582 1.0022 0.84263 0.0
C287 C 0.80938 0.03228 0.80436 0.0
C288 C 0.87423 0.03129 0.84228 0.0
H289 H 0.9705 0.97807 0.88135 0.0
N290 N 0.92447 0.05865 0.84948 0.0
C291 C 0.97492 0.02877 0.86038 0.0
C292 C 0.90742 0.03053 0.8541 0.0
C293 C 0.95808 0.05747 0.84713 0.0
C294 C 0.95742 1.00035 0.87149 0.0
C295 C 0.92329 1.00073 0.86643 0.0
O296 O 0.92891 0.10815 0.76454 0.0
O297 O 0.8802 0.14945 0.89197 0.0
O298 O 0.82282 0.1442 0.92174 0.0
O299 O 0.84426 0.12536 0.82289 0.0
O300 O 0.91658 0.15427 0.82541 0.0
O301 O 0.87715 0.10765 0.74267 0.0
O302 O 0.85705 0.1148 0.07805 0.0
O303 O 0.8843 0.09605 0.94279 0.0
O304 O 0.93764 0.11185 0.90029 0.0
O305 O 0.92083 0.1452 0.98663 0.0
O306 O 0.84212 0.093 0.99492 0.0
O307 O 0.89157 0.15384 0.07556 0.0
C308 C 0.89887 0.17035 0.86622 0.0
C309 C 0.91268 0.08924 0.6591 0.0
C310 C 0.90955 0.08654 0.5399 0.0
C311 C 0.90145 0.10168 0.59954 0.0
C312 C 0.92839 0.05804 0.541 0.0
C313 C 0.9309 0.06044 0.65943 0.0
C314 C 0.9386 0.04489 0.60045 0.0
C315 C 0.81968 0.13698 0.85843 0.0
C316 C 0.90666 0.10834 0.71886 0.0
C317 C 0.90471 0.9722 0.8716 0.0
C318 C 0.87095 0.97301 0.85996 0.0
C319 C 0.86329 0.0759 0.96433 0.0
C320 C 0.86432 0.14468 0.17558 0.0
C321 C 0.87503 0.13016 0.23375 0.0
C322 C 0.8637 0.14155 0.2947 0.0
C323 C 0.84081 0.16696 0.2967 0.0
C324 C 0.84179 0.17029 0.17879 0.0
C325 C 0.82992 0.18117 0.239 0.0
C326 C 0.94418 0.12975 0.95246 0.0
C327 C 0.87685 0.13283 0.11223 0.0
H328 H 0.88669 0.12354 0.59975 0.0
H329 H 0.93578 0.04636 0.49585 0.0
H330 H 0.93957 0.0503 0.70489 0.0
H331 H 0.95306 0.0229 0.6007 0.0
H332 H 0.89266 0.11052 0.23169 0.0
H333 H 0.83141 0.17584 0.34297 0.0
H334 H 0.83345 0.18199 0.13503 0.0
H335 H 0.81238 0.20082 0.24095 0.0
Tb336 Tb 0.16179 0.3812 0.95928 0.0
C337 C 0.05918 0.41384 0.76728 0.0
C338 C 0.05401 0.36477 0.65483 0.0
C339 C 0.99092 0.40016 0.65907 0.0
C340 C 0.0736 0.38381 0.71903 0.0
C341 C 0.02068 0.42997 0.75721 0.0
C342 C 0.01562 0.3713 0.62608 0.0
C343 C 0.04048 0.47035 0.8358 0.0
N344 N 0.08046 0.42814 0.80921 0.0
C345 C 0.07206 0.45742 0.83695 0.0
C346 C 1.01488 0.45677 0.80053 0.0
Tb347 Tb 0.13298 0.40658 0.80774 0.0
N348 N 0.10482 0.37461 0.73185 0.0
C349 C 0.12041 0.35292 0.6908 0.0
C350 C 0.0725 0.3418 0.62201 0.0
C351 C 0.10488 0.33633 0.63944 0.0
H352 H 0.08891 0.47198 0.864 0.0
H353 H 0.11893 0.31895 0.61116 0.0
H354 H 1.00671 0.35725 0.58478 0.0
H355 H 0.03581 0.49233 0.86369 0.0
H356 H 0.14613 0.34767 0.69827 0.0
H357 H 0.22893 0.49092 0.03323 0.0
H358 H 0.06208 0.32849 0.58107 0.0
H359 H 0.19637 0.30622 0.95207 0.0
H360 H 0.18389 0.45219 0.03816 0.0
H361 H 0.24828 0.28259 0.91635 0.0
H362 H 0.9669 0.40332 0.63608 0.0
H363 H 0.28058 0.47566 0.97799 0.0
H364 H 0.31416 0.43194 0.92446 0.0
H365 H 0.99185 0.46946 0.80558 0.0
H366 H 0.3202 0.37402 0.89647 0.0
N367 N 0.20598 0.41692 0.97531 0.0
C368 C 0.20464 0.44582 1.00896 0.0
C369 C 0.26011 0.45887 0.97812 0.0
C370 C 0.26325 0.42746 0.95296 0.0
C371 C 0.23097 0.46763 1.00869 0.0
C372 C 0.23577 0.40655 0.95477 0.0
H373 H 0.29595 0.31791 0.89493 0.0
N374 N 0.2119 0.35541 0.942 0.0
C375 C 0.24591 0.30865 0.92104 0.0
C376 C 0.23889 0.37451 0.93777 0.0
C377 C 0.21595 0.32243 0.93945 0.0
C378 C 0.27278 0.32858 0.90927 0.0
C379 C 0.26978 0.36193 0.9195 0.0
O380 O 0.16605 0.34745 0.03565 0.0
O381 O 0.11712 0.39729 0.90639 0.0
O382 O 0.13847 0.45136 0.8733 0.0
O383 O 0.14116 0.42958 0.97644 0.0
O384 O 0.11192 0.35913 0.96689 0.0
O385 O 0.15613 0.3971 0.05728 0.0
O386 O 0.12683 0.44492 0.74276 0.0
O387 O 0.17791 0.38764 0.8547 0.0
O388 O 0.15167 0.33426 0.91473 0.0
O389 O 0.13113 0.35024 0.81389 0.0
O390 O 0.17887 0.4325 0.81333 0.0
O391 O 0.1593 0.40563 0.71761 0.0
C392 C 0.09545 0.3776 0.92826 0.0
C393 C 0.18267 0.36725 0.14102 0.0
C394 C 0.18982 0.37493 0.26006 0.0
C395 C 0.17036 0.37723 0.20277 0.0
C396 C 0.22149 0.36178 0.25431 0.0
C397 C 0.21457 0.35476 0.13719 0.0
C398 C 0.23366 0.35185 0.19356 0.0
C399 C 0.13819 0.45506 0.93852 0.0
C400 C 0.16148 0.36877 0.08186 0.0
C401 C 0.29659 0.38303 0.91251 0.0
C402 C 0.29316 0.41595 0.92832 0.0
C403 C 0.19753 0.41014 0.83454 0.0
C404 C 0.13428 0.43548 0.62826 0.0
C405 C 0.14794 0.41724 0.57568 0.0
C406 C 0.13806 0.42305 0.51012 0.0
C407 C 0.1142 0.44672 0.49825 0.0
C408 C 0.11159 0.46005 0.61335 0.0
C409 C 0.10125 0.46512 0.54934 0.0
C410 C 0.14033 0.32689 0.8563 0.0
C411 C 0.14568 0.4324 0.6977 0.0
H412 H 0.14577 0.387 0.20609 0.0
H413 H 0.23684 0.35881 0.29707 0.0
H414 H 0.22463 0.34691 0.09076 0.0
H415 H 0.25804 0.34168 0.19022 0.0
H416 H 0.16618 0.39902 0.58564 0.0
H417 H 0.10629 0.45172 0.44879 0.0
H418 H 0.10136 0.47534 0.65145 0.0
H419 H 0.08337 0.48378 0.53917 0.0
Tb420 Tb 0.86061 0.87502 0.08277 0.0
C421 C 0.9398 0.96323 0.26433 0.0
C422 C 0.99047 0.93647 0.29327 0.0
C423 C 0.98567 0.99488 0.30686 0.0
C424 C 0.95809 0.93519 0.26904 0.0
C425 C 0.95345 0.99347 0.2828 0.0
C426 C 1.00401 0.9664 0.31273 0.0
C427 C 0.90147 0.0184 0.25815 0.0
N428 N 0.9082 0.9607 0.24414 0.0
C429 C 0.88861 0.98778 0.24299 0.0
C430 C 0.934 0.02128 0.2784 0.0
Tb431 Tb 0.88883 0.90868 0.22924 0.0
N432 N 0.94385 0.90656 0.25176 0.0
C433 C 0.9611 0.87821 0.257 0.0
C434 C 1.00806 0.90756 0.29848 0.0
C435 C 0.99347 0.87837 0.27945 0.0
H436 H 0.86308 0.98593 0.22951 0.0
H437 H 1.00693 0.85587 0.28323 0.0
H438 H 0.02869 0.96778 0.33213 0.0
H439 H 0.88607 0.03967 0.25532 0.0
H440 H 0.95025 0.85519 0.24412 0.0
H441 H 0.73493 0.91678 0.09482 0.0
H442 H 0.0327 0.90742 0.31793 0.0
H443 H 0.8916 0.80638 1.01968 0.0
H444 H 0.79386 0.92344 0.09421 0.0
H445 H 0.87057 0.7549 0.97565 0.0
H446 H 0.99651 0.01781 0.32179 0.0
H447 H 0.71007 0.86254 0.0763 0.0
H448 H 0.71764 0.80436 0.04521 0.0
H449 H 0.94366 0.04495 0.29171 0.0
H450 H 0.75457 0.76067 1.00932 0.0
N451 N 0.8043 0.87302 0.08151 0.0
C452 C 0.78422 0.89942 0.08718 0.0
C453 C 0.73642 0.86522 0.07739 0.0
C454 C 0.7568 0.83873 0.06501 0.0
C455 C 0.75024 0.89579 0.08739 0.0
C456 C 0.79109 0.84338 0.06753 0.0
H457 H 0.81123 0.74302 0.97864 0.0
N458 N 0.84468 0.82415 0.04886 0.0
C459 C 0.85382 0.77246 0.99654 0.0
C460 C 0.81187 0.81837 0.04915 0.0
C461 C 0.86565 0.80181 1.02192 0.0
C462 C 0.82031 0.76584 0.99832 0.0
C463 C 0.79889 0.78878 0.02514 0.0
O464 O 0.88717 0.89976 1.01009 0.0
O465 O 0.90354 0.8937 0.13343 0.0
O466 O 0.89499 0.94471 0.14836 0.0
O467 O 0.85096 0.92752 0.08669 0.0
O468 O 0.91001 0.8528 0.08033 0.0
O469 O 0.846 0.87089 0.98339 0.0
O470 O 0.86118 0.92358 0.31052 0.0
O471 O 0.8448 0.88608 0.18502 0.0
O472 O 0.86622 0.83206 0.14186 0.0
O473 O 0.89294 0.85404 0.2332 0.0
O474 O 0.84103 0.93091 0.2265 0.0
O475 O 0.90006 0.88926 0.32235 0.0
C476 C 0.92558 0.87388 0.11525 0.0
C477 C 0.88993 0.87329 0.90751 0.0
C478 C 0.90413 0.87154 0.79143 0.0
C479 C 0.88341 0.8821 0.84241 0.0
C480 C 0.93024 0.85064 0.80563 0.0
C481 C 0.9166 0.85274 0.92019 0.0
C482 C 0.9362 0.8411 0.86956 0.0
C483 C 0.8727 0.9503 0.10193 0.0
C484 C 0.87055 0.88757 0.96185 0.0
C485 C 0.7649 0.78351 0.0262 0.0
C486 C 0.7439 0.80836 0.04671 0.0
C487 C 0.82362 0.90717 0.20488 0.0
C488 C 0.88801 0.92454 0.41241 0.0
C489 C 0.88937 0.90832 0.47267 0.0
C490 C 0.89646 0.92571 0.53077 0.0
C491 C 0.90232 0.95923 0.52795 0.0
C492 C 0.89335 0.95821 0.41149 0.0
C493 C 0.9006 0.97529 0.46863 0.0
C494 C 0.88137 0.82885 0.19831 0.0
C495 C 0.87817 0.90695 0.35203 0.0
H496 H 0.8632 0.89814 0.83168 0.0
H497 H 0.94642 0.84217 0.76723 0.0
H498 H 0.92302 0.84602 0.96903 0.0
H499 H 0.95667 0.82532 0.88021 0.0
H500 H 0.88474 0.88244 0.47446 0.0
H501 H 0.90766 0.97309 0.57197 0.0
H502 H 0.89112 0.97167 0.36707 0.0
H503 H 0.90433 1.00119 0.46689 0.0
Tb504 Tb 0.39712 0.63354 0.31695 0.0
C505 C 0.32671 0.6916 0.55691 0.0
C506 C 0.36457 0.72785 0.61284 0.0
C507 C 0.30724 0.72687 0.64463 0.0
C508 C 0.35795 0.70421 0.56412 0.0
C509 C 0.3009 0.70298 0.59681 0.0
C510 C 0.33906 0.73906 0.65302 0.0
C511 C 0.26513 0.66417 0.54377 0.0
N512 N 0.32193 0.66745 0.51239 0.0
C513 C 0.29182 0.65266 0.5077 0.0
C514 C 0.26968 0.68947 0.5886 0.0
Tb515 Tb 0.36933 0.64461 0.47338 0.0
N516 N 0.38193 0.69297 0.52389 0.0
C517 C 0.41294 0.70567 0.52827 0.0
C518 C 0.39647 0.74009 0.61862 0.0
C519 C 0.4206 0.72933 0.57541 0.0
H520 H 0.28856 0.63114 0.47772 0.0
H521 H 0.44522 0.73903 0.5787 0.0
H522 H 0.34362 0.75739 0.69026 0.0
H523 H 0.24138 0.6526 0.53899 0.0
H524 H 0.43232 0.69746 0.49674 0.0
H525 H 0.36265 0.50694 0.27992 0.0
H526 H 0.40251 0.75837 0.65511 0.0
H527 H 0.4613 0.67611 0.25915 0.0
H528 H 0.3547 0.56241 0.31707 0.0
H529 H 0.50656 0.66683 0.1842 0.0
H530 H 0.28777 0.73581 0.67583 0.0
H531 H 0.41236 0.49189 0.21857 0.0
H532 H 0.46326 0.50974 0.16223 0.0
H533 H 0.2492 0.69767 0.618 0.0
H534 H 0.50057 0.55375 0.13122 0.0
N535 N 0.40205 0.57933 0.28787 0.0
C536 C 0.37775 0.55659 0.29485 0.0
C537 C 0.40983 0.51636 0.2378 0.0
C538 C 0.43324 0.54016 0.22483 0.0
C539 C 0.38177 0.52475 0.27234 0.0
C540 C 0.42893 0.57169 0.25147 0.0
H541 H 0.51633 0.61226 0.13766 0.0
N542 N 0.44528 0.62659 0.26009 0.0
C543 C 0.49105 0.64674 0.19818 0.0
C544 C 0.45053 0.59631 0.2352 0.0
C545 C 0.46521 0.65175 0.24175 0.0
C546 C 0.49638 0.61597 0.17177 0.0
C547 C 0.47607 0.59028 0.19008 0.0
O548 O 0.37513 0.66997 0.25962 0.0
O549 O 0.37837 0.6715 0.3846 0.0
O550 O 0.32769 0.65432 0.40053 0.0
O551 O 0.34543 0.61879 0.32242 0.0
O552 O 0.42012 0.68134 0.33532 0.0
O553 O 0.38588 0.62388 0.21743 0.0
O554 O 0.34995 0.6112 0.53956 0.0
O555 O 0.39184 0.60764 0.41232 0.0
O556 O 0.44433 0.63175 0.36684 0.0
O557 O 0.42572 0.64249 0.4729 0.0
O558 O 0.34784 0.59712 0.45357 0.0
O559 O 0.39049 0.64139 0.56839 0.0
C560 C 0.39953 0.69421 0.37538 0.0
C561 C 0.39216 0.66934 0.14857 0.0
C562 C 0.3991 0.67344 0.02959 0.0
C563 C 0.38543 0.65798 0.08463 0.0
C564 C 0.42032 0.69994 0.04001 0.0
C565 C 0.41281 0.69638 0.15699 0.0
C566 C 0.42706 0.71124 0.10312 0.0
C567 C 0.3214 0.63646 0.34662 0.0
C568 C 0.37698 0.65335 0.20578 0.0
C569 C 0.48078 0.55885 0.16495 0.0
C570 C 0.45965 0.53377 0.18291 0.0
C571 C 0.37288 0.58363 0.42685 0.0
C572 C 0.35151 0.62651 0.65143 0.0
C573 C 0.36904 0.63523 0.70877 0.0
C574 C 0.35245 0.63857 0.76906 0.0
C575 C 0.31846 0.63377 0.77142 0.0
C576 C 0.31746 0.62103 0.6562 0.0
C577 C 0.30113 0.62512 0.71533 0.0
C578 C 0.45018 0.63759 0.42946 0.0
C579 C 0.36849 0.62063 0.58787 0.0
H580 H 0.36879 0.63777 0.07792 0.0
H581 H 0.43162 0.71213 0.99918 0.0
H582 H 0.418 0.70611 0.20522 0.0
H583 H 0.44319 0.73187 0.11028 0.0
H584 H 0.39534 0.63881 0.70682 0.0
H585 H 0.30535 0.63642 0.81714 0.0
H586 H 0.30321 0.61312 0.61438 0.0
H587 H 0.27494 0.62111 0.71783 0.0
Tb588 Tb 0.66016 0.1466 0.56936 0.0
C589 C 0.6052 0.04833 0.75381 0.0
C590 C 0.5462 0.0529 0.7548 0.0
C591 C 0.57135 1.00175 0.78274 0.0
C592 C 0.57742 0.06686 0.74621 0.0
C593 C 0.60242 0.01542 0.77223 0.0
C594 C 0.54322 0.02029 0.77263 0.0
C595 C 0.66074 1.01053 0.76117 0.0
N596 N 0.63469 0.06213 0.73964 0.0
C597 C 0.66239 0.04302 0.74246 0.0
C598 C 0.63073 0.99674 0.77675 0.0
Tb599 Tb 0.63239 0.11779 0.71658 0.0
N600 N 0.58084 0.09883 0.73183 0.0
C601 C 0.55451 0.11879 0.73537 0.0
C602 C 0.51889 0.07241 0.74588 0.0
C603 C 0.52322 0.10569 0.73905 0.0
H604 H 0.68646 0.05148 0.73011 0.0
H605 H 0.50275 0.12134 0.73249 0.0
H606 H 0.51931 1.00938 0.77972 0.0
H607 H 0.68281 0.99604 0.76311 0.0
H608 H 0.5575 0.14475 0.73153 0.0
H609 H 0.73007 0.03327 0.59635 0.0
H610 H 0.4946 0.062 0.74503 0.0
H611 H 0.69481 0.22156 0.57619 0.0
H612 H 0.68601 0.07037 0.62341 0.0
H613 H 0.74833 0.24569 0.55511 0.0
H614 H 0.56881 0.97657 0.79665 0.0
H615 H 0.7773 0.05203 0.53177 0.0
H616 H 0.80788 0.09886 0.48389 0.0
H617 H 0.62959 0.97143 0.79046 0.0
H618 H 0.81309 0.15794 0.47284 0.0
N619 N 0.70432 0.11003 0.56782 0.0
C620 C 0.70482 0.07905 0.59195 0.0
C621 C 0.75717 0.06844 0.54174 0.0
C622 C 0.75874 0.10098 0.52404 0.0
C623 C 0.73055 0.05776 0.57798 0.0
C624 C 0.73184 0.12137 0.53881 0.0
H625 H 0.7919 0.21298 0.50386 0.0
N626 N 0.70992 0.17286 0.55633 0.0
C627 C 0.74446 0.22008 0.54647 0.0
C628 C 0.73483 0.15426 0.53306 0.0
C629 C 0.71445 0.20571 0.56232 0.0
C630 C 0.76904 0.20153 0.51766 0.0
C631 C 0.7647 0.16805 0.5116 0.0
O632 O 0.65892 0.18101 0.49399 0.0
O633 O 0.61639 0.13013 0.62094 0.0
O634 O 0.6233 0.07693 0.64054 0.0
O635 O 0.64583 0.0963 0.54427 0.0
O636 O 0.60935 0.16708 0.55995 0.0
O637 O 0.65349 0.13032 0.47212 0.0
O638 O 0.65117 0.11275 0.81113 0.0
O639 O 0.67456 0.14417 0.674 0.0
O640 O 0.65512 0.19165 0.62705 0.0
O641 O 0.62348 0.17369 0.71396 0.0
O642 O 0.6835 0.105 0.72598 0.0
O643 O 0.60992 0.14375 0.79426 0.0
C644 C 0.59361 0.14804 0.59841 0.0
C645 C 0.6754 0.16289 0.38757 0.0
C646 C 0.67994 0.15669 0.26889 0.0
C647 C 0.66263 0.15165 0.32749 0.0
C648 C 0.71075 0.17188 0.27112 0.0
C649 C 0.70586 0.17875 0.38793 0.0
C650 C 0.72361 0.18279 0.33047 0.0
C651 C 0.63125 0.0727 0.57692 0.0
C652 C 0.65565 0.15928 0.44791 0.0
C653 C 0.79023 0.14781 0.4903 0.0
C654 C 0.78726 0.1142 0.4966 0.0
C655 C 0.69849 0.12873 0.70052 0.0
C656 C 0.61607 0.12095 0.90068 0.0
C657 C 0.63263 0.12936 0.95881 0.0
C658 C 0.62096 0.11884 1.01986 0.0
C659 C 0.59319 0.09862 1.02148 0.0
C660 C 0.58798 0.10141 0.90393 0.0
C661 C 0.57711 0.08975 0.96384 0.0
C662 C 0.6376 0.19821 0.67989 0.0
C663 C 0.62971 0.13184 0.83785 0.0
H664 H 0.63876 0.14004 0.326 0.0
H665 H 0.72465 0.17563 0.22679 0.0
H666 H 0.71562 0.18911 0.43195 0.0
H667 H 0.7471 0.19505 0.33181 0.0
H668 H 0.65481 0.14382 0.95627 0.0
H669 H 0.58355 0.09003 0.06744 0.0
H670 H 0.57435 0.09504 0.86076 0.0
H671 H 0.5559 0.07402 0.96577 0.0
Tb672 Tb 0.90526 0.38694 0.81335 0.0
C673 C 0.80751 0.38791 0.99146 0.0
C674 C 0.80384 0.43512 0.06244 0.0
C675 C 0.75425 0.41167 1.01598 0.0
C676 C 0.82271 0.41182 0.02845 0.0
C677 C 0.77295 0.38689 0.98691 0.0
C678 C 0.76972 0.43588 0.0534 0.0
C679 C 0.77763 0.33513 0.93209 0.0
N680 N 0.82638 0.36402 0.96513 0.0
C681 C 0.81171 0.33708 0.93842 0.0
C682 C 0.75815 0.36044 0.95526 0.0
Tb683 Tb 0.88233 0.37142 0.97412 0.0
N684 N 0.85559 0.40966 0.03768 0.0
C685 C 0.8699 0.42624 0.08901 0.0
C686 C 0.81952 0.45545 0.10797 0.0
C687 C 0.85252 0.45029 0.12278 0.0
H688 H 0.82582 0.31701 0.92113 0.0
H689 H 0.86448 0.46457 0.16059 0.0
H690 H 0.75494 0.45409 0.07778 0.0
H691 H 0.76643 0.314 0.90941 0.0
H692 H 0.89526 0.4218 0.10138 0.0
H693 H 1.00685 0.3049 0.81607 0.0
H694 H 0.80592 0.47373 0.13488 0.0
H695 H 0.88672 0.45922 0.75848 0.0
H696 H 0.95561 0.32467 0.8468 0.0
H697 H 0.90949 0.50158 0.69177 0.0
H698 H 0.72776 0.41166 1.01179 0.0
H699 H 0.04603 0.33396 0.75635 0.0
H700 H 0.06168 0.4212 0.63038 0.0
H701 H 0.73174 0.35883 0.95046 0.0
H702 H 0.02006 0.47226 0.61936 0.0
N703 N 0.9589 0.37087 0.80302 0.0
C704 C 0.96977 0.34051 0.81721 0.0
C705 C 0.02331 0.34659 0.76542 0.0
C706 C 1.01536 0.37814 0.74146 0.0
C707 C 1.00061 0.32896 0.80052 0.0
C708 C 0.97815 0.39135 0.76945 0.0
H709 H 0.96465 0.49921 0.64673 0.0
N710 N 0.92997 0.43107 0.76551 0.0
C711 C 0.92509 0.48145 0.70493 0.0
C712 C 0.96137 0.42658 0.74546 0.0
C713 C 0.91212 0.45706 0.74459 0.0
C714 C 0.95663 0.48018 0.6791 0.0
C715 C 0.97716 0.4543 0.69223 0.0
O716 O 0.8721 0.36467 0.74714 0.0
O717 O 0.86242 0.37477 0.87264 0.0
O718 O 0.88182 0.32349 0.92743 0.0
O719 O 0.90255 0.33302 0.82336 0.0
O720 O 0.85976 0.41504 0.81561 0.0
O721 O 0.91681 0.38259 0.71226 0.0
O722 O 0.90806 0.33453 0.023 0.0
O723 O 0.92429 0.37187 0.90711 0.0
O724 O 0.9125 0.43512 0.86938 0.0
O725 O 0.89104 0.42375 0.97195 0.0
O726 O 0.93232 0.3899 0.99844 0.0
O727 O 0.86709 0.35693 0.06844 0.0
C728 C 0.84183 0.39558 0.8494 0.0
C729 C 0.87232 0.38403 0.63811 0.0
C730 C 0.86647 0.38796 0.51854 0.0
C731 C 0.88334 0.3765 0.57436 0.0
C732 C 0.83822 0.40696 0.52839 0.0
C733 C 0.84462 0.40379 0.64585 0.0
C734 C 0.82766 0.41498 0.59134 0.0
C735 C 0.89203 0.31313 0.86979 0.0
C736 C 0.88921 0.37006 0.69561 0.0
C737 C 1.01353 0.45289 0.65219 0.0
C738 C 0.03958 0.42098 0.66009 0.0
C739 C 0.94684 0.3845 0.94341 0.0
C740 C 0.91103 0.34171 0.13881 0.0
C741 C 0.89581 0.35096 0.19834 0.0
C742 C 0.91397 0.35198 0.25732 0.0
C743 C 0.9474 0.34407 0.25594 0.0
C744 C 0.94462 0.33404 0.13942 0.0
C745 C 0.96258 0.33538 0.19742 0.0
C746 C 0.90449 0.44415 0.93092 0.0
C747 C 0.8919 0.33803 0.07703 0.0
H748 H 0.90505 0.36167 0.56846 0.0
H749 H 0.8236 0.41505 0.48754 0.0
H750 H 0.83573 0.41024 0.69395 0.0
H751 H 0.80589 0.42962 0.59789 0.0
H752 H 0.86988 0.35663 0.19915 0.0
H753 H 0.96188 0.34478 0.30038 0.0
H754 H 0.95709 0.32661 0.09511 0.0
H755 H 0.98839 0.32936 0.1971 0.0
Tb756 Tb 0.39798 0.12189 0.72975 0.0
C757 C 0.30197 0.15671 0.57773 0.0
C758 C 0.2791 0.10815 0.52864 0.0
C759 C 0.24275 0.1484 0.57588 0.0
C760 C 0.30656 0.12704 0.54801 0.0
C761 C 0.2699 0.16804 0.59084 0.0
C762 C 0.24733 0.11851 0.54455 0.0
C763 C 0.29342 0.21876 0.62549 0.0
N764 N 0.32889 0.17497 0.59181 0.0
C765 C 0.32451 0.20665 0.61024 0.0
C766 C 0.266 0.19912 0.61711 0.0
Tb767 Tb 0.37994 0.15129 0.57469 0.0
N768 N 0.33774 0.11784 0.53379 0.0
C769 C 0.34187 0.09283 0.48947 0.0
C770 C 0.28423 0.08011 0.49146 0.0
C771 C 0.31572 0.07298 0.4701 0.0
H772 H 0.34447 0.22354 0.61082 0.0
H773 H 0.31984 0.05266 0.43726 0.0
H774 H 0.2261 0.10406 0.53104 0.0
H775 H 0.29059 0.24363 0.64196 0.0
H776 H 0.36514 0.08801 0.46704 0.0
H777 H 0.49489 0.20458 0.80216 0.0
H778 H 0.26389 0.06497 0.47572 0.0
H779 H 0.39349 0.04059 0.74316 0.0
H780 H 0.45167 0.18473 0.72865 0.0
H781 H 0.4199 0.99865 0.80924 0.0
H782 H 0.21809 0.15658 0.58643 0.0
H783 H 0.51522 0.16963 0.89107 0.0
H784 H 0.51385 0.11547 0.94626 0.0
H785 H 0.24189 0.20869 0.62804 0.0
H786 H 0.49564 0.05831 0.9444 0.0
N787 N 0.44692 0.13889 0.77382 0.0
C788 C 0.46001 0.16916 0.76657 0.0
C789 C 0.49606 0.16082 0.85868 0.0
C790 C 0.48353 0.12939 0.8645 0.0
C791 C 0.48476 0.18052 0.80843 0.0
C792 C 0.45897 0.11902 0.82039 0.0
H793 H 0.46245 0.01405 0.89006 0.0
N794 N 0.42555 0.07871 0.77479 0.0
C795 C 0.42861 0.02345 0.812 0.0
C796 C 0.44844 0.08738 0.81978 0.0
C797 C 0.41456 0.04722 0.77242 0.0
C798 C 0.45229 0.03229 0.85814 0.0
C799 C 0.4621 0.06472 0.86327 0.0
O800 O 0.36588 0.10037 0.7969 0.0
O801 O 0.3584 0.1427 0.67194 0.0
O802 O 0.39191 0.19584 0.6292 0.0
O803 O 0.39301 0.17672 0.73581 0.0
O804 O 0.35255 0.09665 0.70649 0.0
O805 O 0.39028 0.14474 0.8222 0.0
O806 O 0.37755 0.19051 0.51018 0.0
O807 O 0.42068 0.13295 0.63536 0.0
O808 O 0.40664 0.07886 0.66115 0.0
O809 O 0.39555 0.10028 0.55915 0.0
O810 O 0.43085 0.16984 0.57422 0.0
O811 O 0.39118 0.1434 0.47493 0.0
C812 C 0.33664 0.12096 0.68366 0.0
C813 C 0.37687 0.10857 0.90987 0.0
C814 C 0.37701 0.11518 0.02921 0.0
C815 C 0.37429 0.12868 0.96611 0.0
C816 C 0.38348 0.08199 0.03557 0.0
C817 C 0.38143 0.07504 0.91866 0.0
C818 C 0.38568 0.06209 0.98061 0.0
C819 C 0.3931 0.20108 0.69294 0.0
C820 C 0.37128 0.12162 0.84295 0.0
C821 C 0.48531 0.07518 0.90975 0.0
C822 C 0.49575 0.10761 0.91076 0.0
C823 C 0.44453 0.15117 0.61624 0.0
C824 C 0.36057 0.17639 0.40261 0.0
C825 C 0.36992 0.16624 0.33923 0.0
C826 C 0.34892 0.17126 0.2852 0.0
C827 C 0.31886 0.18707 0.29571 0.0
C828 C 0.32972 0.19083 0.41158 0.0
C829 C 0.30922 0.19639 0.35838 0.0
C830 C 0.40275 0.0751 0.5963 0.0
C831 C 0.3833 0.17272 0.45869 0.0
H832 H 0.36882 0.15425 0.96096 0.0
H833 H 0.38548 0.07122 0.08345 0.0
H834 H 0.38071 0.0584 0.87791 0.0
H835 H 0.38953 0.03628 0.98612 0.0
H836 H 0.39318 0.15406 0.33235 0.0
H837 H 0.30273 0.19225 0.25521 0.0
H838 H 0.3215 0.19812 0.45965 0.0
H839 H 0.28575 0.20806 0.36573 0.0
Tb840 Tb 0.67511 0.6343 0.47481 0.0
C841 C 0.58977 0.54662 0.31557 0.0
C842 C 0.61894 0.49567 0.32435 0.0
C843 C 0.55985 0.49555 0.30949 0.0
C844 C 0.61903 0.52991 0.32423 0.0
C845 C 0.55997 0.52955 0.30797 0.0
C846 C 0.58926 0.47866 0.31736 0.0
C847 C 0.53241 0.58096 0.29826 0.0
N848 N 0.59057 0.57958 0.31308 0.0
C849 C 0.56258 0.59674 0.30022 0.0
C850 C 0.53104 0.5472 0.30016 0.0
Tb851 Tb 0.64095 0.60247 0.33102 0.0
N852 N 0.64755 0.54699 0.33049 0.0
C853 C 0.67684 0.53075 0.33364 0.0
C854 C 0.64877 0.47949 0.33056 0.0
C855 C 0.67777 0.49701 0.33448 0.0
H856 H 0.56306 0.6229 0.29925 0.0
H857 H 0.70097 0.48451 0.33903 0.0
H858 H 0.58875 0.45241 0.3173 0.0
H859 H 0.51025 0.59507 0.29831 0.0
H860 H 0.69986 0.54293 0.33994 0.0
H861 H 0.63221 0.75426 0.53785 0.0
H862 H 0.65001 0.4535 0.33167 0.0
H863 H 0.75139 0.60341 0.48032 0.0
H864 H 0.62632 0.69691 0.50689 0.0
H865 H 0.8078 0.62397 0.48619 0.0
H866 H 0.53715 0.48208 0.30402 0.0
H867 H 0.68754 0.77888 0.54569 0.0
H868 H 0.74784 0.7735 0.53474 0.0
H869 H 0.50748 0.53508 0.29749 0.0
H870 H 0.79569 0.73855 0.51637 0.0
N871 N 0.67753 0.68927 0.49262 0.0
C872 C 0.65052 0.70746 0.50783 0.0
C873 C 0.68475 0.7541 0.52934 0.0
C874 C 0.7123 0.73554 0.51452 0.0
C875 C 0.65369 0.7401 0.52579 0.0
C876 C 0.7079 0.7027 0.4968 0.0
H877 H 0.8183 0.68269 0.49828 0.0
N878 N 0.72931 0.65046 0.48183 0.0
C879 C 0.78747 0.64074 0.48782 0.0
C880 C 0.73475 0.68275 0.48971 0.0
C881 C 0.75524 0.62923 0.48437 0.0
C882 C 0.79332 0.67394 0.49383 0.0
C883 C 0.76681 0.69531 0.49692 0.0
O884 O 0.69161 0.61309 0.56217 0.0
O885 O 0.6529 0.59 0.43308 0.0
O886 O 0.60031 0.60339 0.39997 0.0
O887 O 0.61893 0.64064 0.47703 0.0
O888 O 0.69572 0.58563 0.48208 0.0
O889 O 0.65093 0.64583 0.56336 0.0
O890 O 0.66174 0.62742 0.25118 0.0
O891 O 0.65788 0.64626 0.37946 0.0
O892 O 0.71189 0.63964 0.39174 0.0
O893 O 0.69476 0.59694 0.32724 0.0
O894 O 0.61661 0.65095 0.32507 0.0
O895 O 0.63095 0.58641 0.23467 0.0
C896 C 0.67273 0.56879 0.45596 0.0
C897 C 0.68443 0.64452 0.65841 0.0
C898 C 0.68239 0.65505 0.77643 0.0
C899 C 0.66901 0.64053 0.71949 0.0
C900 C 0.71067 0.67431 0.7711 0.0
C901 C 0.71326 0.66301 0.65526 0.0
C902 C 0.72593 0.67824 0.71089 0.0
C903 C 0.59435 0.62383 0.44817 0.0
C904 C 0.67088 0.62878 0.59877 0.0
C905 C 0.7713 0.72844 0.51051 0.0
C906 C 0.74407 0.74838 0.52056 0.0
C907 C 0.63714 0.6672 0.36072 0.0
C908 C 0.63046 0.62677 0.15357 0.0
C909 C 0.64345 0.62601 0.08971 0.0
C910 C 0.62799 0.64317 0.03881 0.0
C911 C 0.59908 0.66039 0.05247 0.0
C912 C 0.60156 0.64418 0.16554 0.0
C913 C 0.58592 0.66071 0.11525 0.0
C914 C 0.71767 0.61847 0.34291 0.0
C915 C 0.64721 0.60959 0.20728 0.0
H916 H 0.64664 0.62643 0.72273 0.0
H917 H 0.72121 0.68602 0.81385 0.0
H918 H 0.72626 0.66555 0.61008 0.0
H919 H 0.74782 0.69298 0.70734 0.0
H920 H 0.66578 0.61268 0.07997 0.0
H921 H 0.58662 0.67368 1.01437 0.0
H922 H 0.59102 0.64518 0.21367 0.0
H923 H 0.56364 0.67407 0.12511 0.0
Tb924 Tb 0.14789 0.88635 0.05699 0.0
C925 C 0.11775 0.99405 0.19218 0.0
C926 C 0.17142 0.01845 0.20333 0.0
C927 C 0.12502 0.05204 0.17429 0.0
C928 C 0.15075 0.99082 0.20435 0.0
C929 C 0.10431 0.02495 0.17917 0.0
C930 C 0.15856 0.04879 0.18644 0.0
C931 C 0.05067 1.00105 0.18551 0.0
N932 N 0.09854 0.96728 0.19687 0.0
C933 C 0.06519 0.97121 0.19937 0.0
C934 C 0.07036 0.02792 0.1736 0.0
Tb935 Tb 0.12495 0.91786 0.2096 0.0
N936 N 0.16238 0.96086 0.21922 0.0
C937 C 0.19379 0.95859 0.24324 0.0
C938 C 0.20429 0.01495 0.22058 0.0
C939 C 0.21527 0.98503 0.24218 0.0
H940 H 0.04932 0.95153 0.21294 0.0
H941 H 0.24018 0.98242 0.25943 0.0
H942 H 0.1742 0.07004 0.18439 0.0
H943 H 0.02425 1.00337 0.185 0.0
H944 H 0.20284 0.93715 0.26619 0.0
H945 H 0.09977 0.76564 0.02853 0.0
H946 H 0.22094 0.03547 0.22031 0.0
H947 H 0.21652 0.91436 0.98572 0.0
H948 H 0.09707 0.82474 0.04173 0.0
H949 H 0.26928 0.89272 0.94937 0.0
H950 H 0.11521 0.07577 0.16319 0.0
H951 H 0.15285 0.73888 0.0267 0.0
H952 H 0.2155 0.7435 1.01794 0.0
H953 H 0.05909 0.05111 0.16339 0.0
H954 H 0.2621 0.77866 0.99264 0.0
N955 N 0.14866 0.83122 0.04678 0.0
C956 C 0.12065 0.81334 0.04011 0.0
C957 C 0.15242 0.7646 0.03205 0.0
C958 C 0.18117 0.78312 0.03237 0.0
C959 C 0.12208 0.77979 0.03263 0.0
C960 C 0.17817 0.81695 0.03779 0.0
H961 H 0.28163 0.8344 0.96125 0.0
N962 N 0.19845 0.86888 1.02046 0.0
C963 C 0.25135 0.87669 0.97091 0.0
C964 C 0.20421 0.83659 0.02305 0.0
C965 C 0.22121 0.8889 0.99236 0.0
C966 C 0.25831 0.84379 0.97791 0.0
C967 C 0.23442 0.8232 1.00346 0.0
O968 O 0.15227 0.91138 0.96766 0.0
O969 O 0.13126 0.93172 0.1054 0.0
O970 O 0.07783 0.91022 0.16223 0.0
O971 O 0.09244 0.88208 0.06769 0.0
O972 O 0.17402 0.93211 0.05427 0.0
O973 O 0.11752 0.87312 0.97758 0.0
O974 O 0.09106 0.92043 0.28637 0.0
O975 O 0.13615 0.87344 0.15567 0.0
O976 O 0.19326 0.8812 0.12031 0.0
O977 O 0.17355 0.89536 0.22317 0.0
O978 O 0.1031 0.86856 0.2269 0.0
O979 O 0.14257 0.91681 0.30653 0.0
C980 C 0.15333 0.95085 0.08189 0.0
C981 C 0.14076 0.88024 0.87329 0.0
C982 C 0.14192 0.88542 0.75437 0.0
C983 C 0.13124 0.89641 0.81619 0.0
C984 C 0.16163 0.85751 0.75071 0.0
C985 C 0.16003 0.85222 0.86822 0.0
C986 C 0.1704 0.84097 0.80725 0.0
C987 C 0.06982 0.89476 0.10801 0.0
C988 C 0.13095 0.8933 0.9376 0.0
C989 C 0.23886 0.78952 1.00598 0.0
C990 C 0.21223 0.76946 1.02084 0.0
C991 C 0.11815 0.85184 0.18272 0.0
C992 C 0.10969 0.94104 0.38854 0.0
C993 C 0.11706 0.9288 0.45064 0.0
C994 C 0.11147 0.94754 0.50717 0.0
C995 C 0.09872 0.97897 0.50102 0.0
C996 C 0.0975 0.97269 0.38295 0.0
C997 C 0.09205 0.99152 0.4391 0.0
C998 C 0.19771 0.88529 0.18481 0.0
C999 C 0.11345 0.9194 0.33149 0.0
H1000 H 0.11592 0.91771 0.82027 0.0
H1001 H 0.17002 0.84828 0.70395 0.0
H1002 H 0.16704 0.83898 0.91115 0.0
H1003 H 0.18543 0.81943 0.80381 0.0
H1004 H 0.12643 0.90431 0.45514 0.0
H1005 H 0.09424 0.99382 0.54401 0.0
H1006 H 0.09182 0.98265 0.33554 0.0
H1007 H 0.0824 0.01584 0.43465 0.0
Tb1008 Tb 0.91054 0.61321 0.22452 0.0
C1009 C 0.80759 0.66617 0.10577 0.0
C1010 C 0.77034 0.6221 0.08058 0.0
C1011 C 0.74963 0.67089 0.13301 0.0
C1012 C 0.80241 0.63518 0.08236 0.0
C1013 C 0.78099 0.68478 0.12956 0.0
C1014 C 0.74428 0.63963 0.10815 0.0
C1015 C 0.8169 0.73093 0.1346 0.0
N1016 N 0.83815 0.67891 0.1006 0.0
C1017 C 0.84192 0.71181 0.10806 0.0
C1018 C 0.78643 0.71716 0.1469 0.0
Tb1019 Tb 0.87975 0.64276 0.07296 0.0
N1020 N 0.82853 0.61844 0.05859 0.0
C1021 C 0.82279 0.59053 0.02325 0.0
C1022 C 0.76526 0.59212 0.05 0.0
C1023 C 0.79151 0.57666 1.0198 0.0
H1024 H 0.86418 0.72389 0.09375 0.0
H1025 H 0.78765 0.55418 0.99307 0.0
H1026 H 0.71979 0.62954 0.10905 0.0
H1027 H 0.82094 0.75651 0.14393 0.0
H1028 H 0.84177 0.57883 0.9959 0.0
H1029 H 1.00066 0.72427 0.3143 0.0
H1030 H 0.74104 0.58132 0.04737 0.0
H1031 H 0.89895 0.53457 0.23076 0.0
H1032 H 0.94341 0.69366 0.2757 0.0
H1033 H 0.92381 0.48649 0.27513 0.0
H1034 H 0.72913 0.68457 0.1524 0.0
H1035 H 0.05766 0.685 0.34836 0.0
H1036 H 0.06008 0.57916 0.41961 0.0
H1037 H 0.76684 0.73218 0.16602 0.0
H1038 H 0.02576 0.51839 0.39997 0.0
N1039 N 0.95948 0.63878 0.26034 0.0
C1040 C 0.96409 0.67794 0.2765 0.0
C1041 C 0.03646 0.67449 0.32346 0.0
C1042 C 0.02189 0.61752 0.30569 0.0
C1043 C 1.0008 0.69844 0.30459 0.0
C1044 C 0.98349 0.60892 0.26524 0.0
H1045 H 0.97574 0.48717 0.33438 0.0
N1046 N 0.94007 0.56558 0.24134 0.0
C1047 C 0.93808 0.50861 0.27538 0.0
C1048 C 0.97102 0.56915 0.26406 0.0
C1049 C 0.92405 0.53647 0.24752 0.0
C1050 C 0.96798 0.50865 0.30867 0.0
C1051 C 0.9865 0.53664 0.31253 0.0
O1052 O 0.88148 0.59291 0.29865 0.0
O1053 O 0.86627 0.63223 0.17569 0.0
O1054 O 0.9022 0.68434 0.12128 0.0
O1055 O 0.89867 0.66651 0.22808 0.0
O1056 O 0.86342 0.58788 0.21821 0.0
O1057 O 0.91702 0.62938 0.32279 0.0
O1058 O 0.87517 0.67788 0.99953 0.0
O1059 O 0.92363 0.62973 0.12863 0.0
O1060 O 0.92211 0.57484 0.14497 0.0
O1061 O 0.88636 0.59007 0.06198 0.0
O1062 O 0.93149 0.64915 0.04086 0.0
O1063 O 0.88343 0.6276 0.97478 0.0
C1064 C 0.84563 0.61052 0.19373 0.0
C1065 C 0.89733 0.5957 0.41021 0.0
C1066 C 0.88747 0.59736 0.52853 0.0
C1067 C 0.88811 0.61299 0.46735 0.0
C1068 C 0.89708 0.56478 0.53228 0.0
C1069 C 0.90575 0.56284 0.41554 0.0
C1070 C 0.90629 0.54772 0.47617 0.0
C1071 C 0.90168 0.69024 0.18453 0.0
C1072 C 0.89375 0.61089 0.34502 0.0
C1073 C 0.0197 0.53909 0.37026 0.0
C1074 C 0.04158 0.57675 0.38153 0.0
C1075 C 0.94705 0.63666 0.08913 0.0
C1076 C 0.85509 0.65876 0.89651 0.0
C1077 C 0.86529 0.6483 0.8339 0.0
C1078 C 0.84401 0.65026 0.77959 0.0
C1079 C 0.81262 0.66352 0.78889 0.0
C1080 C 0.82344 0.67139 0.9045 0.0
C1081 C 0.80246 0.67391 0.85081 0.0
C1082 C 0.90689 0.56874 0.08708 0.0
C1083 C 0.87799 0.65654 0.95235 0.0
H1084 H 0.88011 0.63797 0.46386 0.0
H1085 H 0.89682 0.55233 0.57867 0.0
H1086 H 0.91171 0.54868 0.37282 0.0
H1087 H 0.91315 0.52244 0.47945 0.0
H1088 H 0.8896 0.63819 0.8277 0.0
H1089 H 0.79598 0.66595 0.74805 0.0
H1090 H 0.81499 0.67945 0.95207 0.0
H1091 H 0.77822 0.68398 0.85723 0.0
Tb1092 Tb 0.16774 0.14345 0.96467 0.0
C1093 C 0.07972 0.0654 0.78424 0.0
C1094 C 0.10459 1.01208 0.78903 0.0
C1095 C 0.04748 0.01723 0.7576 0.0
C1096 C 0.1069 0.0461 0.79695 0.0
C1097 C 0.05006 0.05111 0.76267 0.0
C1098 C 0.07461 0.99779 0.77127 0.0
C1099 C 0.02805 0.10483 0.74783 0.0
N1100 N 0.08304 0.09822 0.78826 0.0
C1101 C 0.05786 0.11799 0.76896 0.0
C1102 C 0.02414 0.07127 0.74459 0.0
Tb1103 Tb 0.13407 0.11654 0.81864 0.0
N1104 N 0.13602 0.06065 0.81223 0.0
C1105 C 0.16388 0.04218 0.81661 0.0
C1106 C 0.13281 0.99338 0.79636 0.0
C1107 C 0.16255 1.00849 0.80993 0.0
H1108 H 0.06022 0.14398 0.77137 0.0
H1109 H 0.18464 0.99419 0.81461 0.0
H1110 H 0.07244 0.97173 0.76618 0.0
H1111 H 1.00813 0.1206 0.73367 0.0
H1112 H 0.18749 0.05256 0.82711 0.0
H1113 H 0.11481 0.25959 0.02699 0.0
H1114 H 0.13219 0.96742 0.78918 0.0
H1115 H 0.24533 0.11719 0.96503 0.0
H1116 H 0.11381 0.20327 0.98756 0.0
H1117 H 0.30009 0.14002 0.98706 0.0
H1118 H 0.02479 1.00586 0.74185 0.0
H1119 H 0.16753 0.28577 0.05523 0.0
H1120 H 0.22875 0.28238 0.06244 0.0
H1121 H 1.00118 0.06116 0.72711 0.0
H1122 H 0.27917 0.25057 0.04814 0.0
N1123 N 0.16579 0.19781 0.9881 0.0
C1124 C 0.13716 0.2145 0.99734 0.0
C1125 C 0.16736 0.26133 0.03561 0.0
C1126 C 0.19658 0.24422 0.02663 0.0
C1127 C 0.13756 0.24654 1.02016 0.0
C1128 C 0.19499 0.21214 1.00221 0.0
H1129 H 0.30609 0.19772 1.01891 0.0
N1130 N 0.22045 0.1624 0.97713 0.0
C1131 C 0.27873 0.15549 0.98954 0.0
C1132 C 0.22329 0.194 0.99558 0.0
C1133 C 0.2476 0.1427 0.97668 0.0
C1134 C 0.28201 0.1881 1.0072 0.0
C1135 C 0.25407 0.20761 1.01189 0.0
O1136 O 0.18445 0.11752 0.04618 0.0
O1137 O 0.14446 0.1004 0.91992 0.0
O1138 O 0.09124 0.11784 0.88131 0.0
O1139 O 0.11196 0.14602 0.97176 0.0
O1140 O 0.18893 0.09494 0.96237 0.0
O1141 O 0.14788 0.15434 0.05802 0.0
O1142 O 0.15697 0.14452 0.74568 0.0
O1143 O 0.15191 0.1596 0.87033 0.0
O1144 O 0.20472 0.15043 0.88326 0.0
O1145 O 0.18731 0.10778 0.82005 0.0
O1146 O 0.11012 0.16493 0.81857 0.0
O1147 O 0.13002 0.10215 0.71939 0.0
C1148 C 0.16446 0.07855 0.94013 0.0
C1149 C 0.18416 0.14533 0.14762 0.0
C1150 C 0.18522 0.15592 0.26561 0.0
C1151 C 0.16814 0.14593 0.20868 0.0
C1152 C 0.21831 0.16501 0.2608 0.0
C1153 C 0.21741 0.15402 0.14496 0.0
C1154 C 0.23416 0.16407 0.20077 0.0
C1155 C 0.08694 0.13288 0.9377 0.0
C1156 C 0.16689 0.13388 0.08783 0.0
C1157 C 0.25582 0.23975 0.03499 0.0
C1158 C 0.2271 0.25786 0.04313 0.0
C1159 C 0.13082 0.18095 0.85409 0.0
C1160 C 0.13067 0.14468 0.64287 0.0
C1161 C 0.14301 0.14098 0.57896 0.0
C1162 C 0.12964 0.15909 0.52725 0.0
C1163 C 0.1032 0.17998 0.53968 0.0
C1164 C 0.10458 0.16615 0.65406 0.0
C1165 C 0.09073 0.18338 0.60268 0.0
C1166 C 0.21034 0.12926 0.83463 0.0
C1167 C 0.14586 0.12702 0.69761 0.0
H1168 H 0.14263 0.13874 0.21189 0.0
H1169 H 0.23205 0.17247 0.30379 0.0
H1170 H 0.23089 0.15246 0.10018 0.0
H1171 H 0.25964 0.17084 0.19724 0.0
H1172 H 0.16352 0.12491 0.56987 0.0
H1173 H 0.09246 0.194 0.50061 0.0
H1174 H 0.09507 0.17005 0.70244 0.0
H1175 H 0.07059 0.19983 0.61193 0.0
Tb1176 Tb 0.65914 0.37412 0.57666 0.0
C1177 C 0.61571 0.48823 0.71576 0.0
C1178 C 0.66531 0.51978 0.70428 0.0
C1179 C 0.61292 0.54711 0.70425 0.0
C1180 C 0.64929 0.48945 0.71174 0.0
C1181 C 0.59714 0.5172 0.71232 0.0
C1182 C 0.64698 0.54837 0.70052 0.0
C1183 C 0.54856 0.4855 0.72731 0.0
N1184 N 0.60111 0.45889 0.72366 0.0
C1185 C 0.56804 0.45803 0.73606 0.0
C1186 C 0.56314 0.5153 0.71602 0.0
Tb1187 Tb 0.63483 0.41323 0.7221 0.0
N1188 N 0.66617 0.46104 0.71189 0.0
C1189 C 0.6995 0.46232 0.70147 0.0
C1190 C 0.69929 0.52061 0.69863 0.0
C1191 C 0.71642 0.49167 0.6968 0.0
H1192 H 0.55604 0.43545 0.74756 0.0
H1193 H 0.74264 0.4918 0.68883 0.0
H1194 H 0.659 0.57148 0.69367 0.0
H1195 H 0.52222 0.48362 0.72767 0.0
H1196 H 0.7137 0.44129 0.69114 0.0
H1197 H 0.58951 0.26412 0.54293 0.0
H1198 H 0.71236 0.54333 0.69301 0.0
H1199 H 0.73812 0.39149 0.55361 0.0
H1200 H 0.60008 0.31788 0.58871 0.0
H1201 H 0.7848 0.36594 0.49789 0.0
H1202 H 0.59901 0.5694 0.70091 0.0
H1203 H 0.6325 0.23612 0.47995 0.0
H1204 H 0.68806 0.23832 0.42992 0.0
H1205 H 0.54796 0.53666 0.71071 0.0
H1206 H 0.74182 0.26488 0.41975 0.0
N1207 N 0.65037 0.31948 0.56121 0.0
C1208 C 0.61992 0.30559 0.56509 0.0
C1209 C 0.63813 0.25886 0.50429 0.0
C1210 C 0.66904 0.27322 0.49898 0.0
C1211 C 0.61367 0.27482 0.53888 0.0
C1212 C 0.67491 0.30319 0.53095 0.0
H1213 H 0.77913 0.3111 0.44992 0.0
N1214 N 0.70741 0.34952 0.54694 0.0
C1215 C 0.76242 0.35239 0.50491 0.0
C1216 C 0.70463 0.31876 0.52376 0.0
C1217 C 0.73586 0.36661 0.53718 0.0
C1218 C 0.75918 0.32136 0.47814 0.0
C1219 C 0.72967 0.30457 0.48556 0.0
O1220 O 0.67155 0.39312 0.4842 0.0
O1221 O 0.64296 0.42126 0.61618 0.0
O1222 O 0.58916 0.40988 0.66775 0.0
O1223 O 0.60261 0.37376 0.58491 0.0
O1224 O 0.68527 0.41918 0.562 0.0
O1225 O 0.62678 0.36679 0.49676 0.0
O1226 O 0.60516 0.40919 0.80609 0.0
O1227 O 0.6483 0.36676 0.67655 0.0
O1228 O 0.70327 0.37035 0.64993 0.0
O1229 O 0.68561 0.399 0.74192 0.0
O1230 O 0.61268 0.36365 0.74214 0.0
O1231 O 0.65681 0.41872 0.81444 0.0
C1232 C 0.66461 0.43892 0.58732 0.0
C1233 C 0.64861 0.3688 0.38826 0.0
C1234 C 0.64338 0.37557 0.26972 0.0
C1235 C 0.63721 0.38649 0.33415 0.0
C1236 C 0.65909 0.34574 0.25989 0.0
C1237 C 0.66426 0.33915 0.3765 0.0
C1238 C 0.66915 0.32749 0.31313 0.0
C1239 C 0.58022 0.39106 0.6189 0.0
C1240 C 0.64513 0.38237 0.45561 0.0
C1241 C 0.72347 0.27547 0.45159 0.0
C1242 C 0.6931 0.26004 0.45796 0.0
C1243 C 0.63037 0.34568 0.70423 0.0
C1244 C 0.62393 0.43522 0.90368 0.0
C1245 C 0.62599 0.42149 0.96625 0.0
C1246 C 0.62305 0.44099 1.02278 0.0
C1247 C 0.61745 0.47438 1.016 0.0
C1248 C 0.61823 0.4686 0.89788 0.0
C1249 C 0.61478 0.48799 0.95388 0.0
C1250 C 0.70903 0.38306 0.71074 0.0
C1251 C 0.62955 0.4143 0.84597 0.0
H1252 H 0.62358 0.40851 0.34229 0.0
H1253 H 0.66401 0.33684 0.21091 0.0
H1254 H 0.67288 0.32493 0.41577 0.0
H1255 H 0.68139 0.30451 0.30531 0.0
H1256 H 0.63079 0.39575 0.97102 0.0
H1257 H 0.61504 0.48987 0.05876 0.0
H1258 H 0.6168 0.47973 0.85044 0.0
H1259 H 0.6103 0.51372 0.94915 0.0
Tb1260 Tb 0.36809 0.88508 0.47186 0.0
C1261 C 0.40433 0.97794 0.26716 0.0
C1262 C 0.34981 0.99971 0.25606 0.0
C1263 C 0.39604 0.02956 0.21271 0.0
C1264 C 0.3712 0.97457 0.27515 0.0
C1265 C 0.41733 1.00626 0.23869 0.0
C1266 C 0.36218 0.02629 0.22141 0.0
C1267 C 0.47039 0.99035 0.27832 0.0
N1268 N 0.42375 0.9559 0.29703 0.0
C1269 C 0.45653 0.96194 0.30317 0.0
C1270 C 0.45102 1.01186 0.24326 0.0
Tb1271 Tb 0.39911 0.90706 0.32008 0.0
N1272 N 0.36087 0.94923 0.31149 0.0
C1273 C 0.33035 0.95106 0.33937 0.0
C1274 C 0.31736 0.99883 0.27739 0.0
C1275 C 0.30799 0.97504 0.32142 0.0
H1276 H 0.47255 0.94455 0.32487 0.0
H1277 H 0.28373 0.97543 0.34265 0.0
H1278 H 0.34609 0.04552 0.20528 0.0
H1279 H 0.49615 0.99547 0.28554 0.0
H1280 H 0.32281 0.93447 0.3761 0.0
H1281 H 0.37399 0.75685 0.49539 0.0
H1282 H 0.30018 0.01772 0.26435 0.0
H1283 H 0.30223 0.93729 0.48417 0.0
H1284 H 0.3962 0.81184 0.49532 0.0
H1285 H 0.24388 0.93329 0.50341 0.0
H1286 H 0.40559 0.05129 0.19025 0.0
H1287 H 0.31385 0.7474 0.49692 0.0
H1288 H 0.25774 0.77084 0.51162 0.0
H1289 H 0.46192 0.03368 0.22366 0.0
H1290 H 0.22249 0.81923 0.51717 0.0
N1291 N 0.34938 0.83369 0.48763 0.0
C1292 C 0.36995 0.80817 0.49551 0.0
C1293 C 0.32361 0.77173 0.4981 0.0
C1294 C 0.30268 0.79829 0.49967 0.0
C1295 C 0.35739 0.77686 0.49797 0.0
C1296 C 0.31646 0.82942 0.49355 0.0
H1297 H 0.21727 0.87989 0.51578 0.0
N1298 N 0.31111 0.88583 0.48469 0.0
C1299 C 0.25842 0.91139 0.5005 0.0
C1300 C 0.29663 0.85638 0.49418 0.0
C1301 C 0.29219 0.91335 0.48921 0.0
C1302 C 0.24348 0.88124 0.50768 0.0
C1303 C 0.26254 0.85321 0.50419 0.0
O1304 O 0.36243 0.90918 0.5613 0.0
O1305 O 0.39593 0.92464 0.42356 0.0
O1306 O 0.44293 0.90535 0.38148 0.0
O1307 O 0.42412 0.87458 0.46892 0.0
O1308 O 0.35757 0.93695 0.4779 0.0
O1309 O 0.38836 0.86427 0.55767 0.0
O1310 O 0.43873 0.89637 0.25867 0.0
O1311 O 0.38644 0.86666 0.38274 0.0
O1312 O 0.32857 0.87583 0.39316 0.0
O1313 O 0.34975 0.89219 0.29371 0.0
O1314 O 0.40712 0.85377 0.2997 0.0
O1315 O 0.39007 0.90512 0.21796 0.0
C1316 C 0.38172 0.94997 0.44828 0.0
C1317 C 0.35926 0.87756 0.65567 0.0
C1318 C 0.35766 0.87497 0.77505 0.0
C1319 C 0.37524 0.87968 0.71649 0.0
C1320 C 0.32399 0.8678 0.77173 0.0
C1321 C 0.32565 0.87041 0.65421 0.0
C1322 C 0.30825 0.86519 0.71157 0.0
C1323 C 0.44904 0.88802 0.43418 0.0
C1324 C 0.37675 0.88699 0.59545 0.0
C1325 C 0.24864 0.82219 0.51019 0.0
C1326 C 0.26866 0.79469 0.507 0.0
C1327 C 0.39457 0.84104 0.35074 0.0
C1328 C 0.43353 0.89097 0.13971 0.0
C1329 C 0.41389 0.8954 0.08377 0.0
C1330 C 0.42663 0.88859 1.02122 0.0
C1331 C 0.4592 0.87845 1.01444 0.0
C1332 C 0.46525 0.8783 0.13142 0.0
C1333 C 0.47833 0.87311 0.06948 0.0
C1334 C 0.32577 0.87959 0.32807 0.0
C1335 C 0.42043 0.89706 0.20641 0.0
H1336 H 0.40111 0.88571 0.71826 0.0
H1337 H 0.30956 0.86513 0.81567 0.0
H1338 H 0.31235 0.87018 0.60928 0.0
H1339 H 0.28222 0.86012 0.70944 0.0
H1340 H 0.38864 0.90317 0.0887 0.0
H1341 H 0.46925 0.87299 0.96663 0.0
H1342 H 0.48 0.8717 0.17248 0.0
H1343 H 0.50303 0.86391 0.06423 0.0
C1344 C 0.14366 0.67883 0.65881 0.0
C1345 C 0.16204 0.66466 0.70954 0.0
C1346 C 0.13898 0.66291 0.59859 0.0
C1347 C 0.15234 0.63206 0.58667 0.0
H1348 H 0.13263 0.70248 0.66584 0.0
H1349 H 0.12418 0.67453 0.56158 0.0
S1350 S 0.20435 0.58521 0.70104 0.0
N1351 N 0.19505 0.61857 0.74224 0.0
N1352 N 0.18603 0.58845 0.62935 0.0
C1353 C 0.17109 0.6177 0.63657 0.0
C1354 C 0.17592 0.63398 0.6979 0.0
C1355 C 0.66731 0.86739 0.9169 0.0
C1356 C 0.64173 0.87862 0.95703 0.0
C1357 C 0.66112 0.85569 0.85326 0.0
C1358 C 0.62913 0.85513 0.82701 0.0
H1359 H 0.69231 0.86773 0.9349 0.0
H1360 H 0.68155 0.84672 0.82471 0.0
S1361 S 0.55413 0.88468 0.91154 0.0
N1362 N 0.58366 0.88979 0.96601 0.0
N1363 N 0.57184 0.86897 0.84606 0.0
C1364 C 0.60344 0.86695 0.86678 0.0
C1365 C 0.60979 0.87842 0.93178 0.0
C1366 C 0.39932 0.39963 0.1973 0.0
C1367 C 0.36688 0.39028 0.21111 0.0
C1368 C 0.40757 0.41289 0.13657 0.0
C1369 C 0.3837 0.41697 0.08765 0.0
H1370 H 0.41847 0.39639 0.23338 0.0
H1371 H 0.43275 0.41996 0.12774 0.0
S1372 S 0.29481 0.39992 0.10247 0.0
N1373 N 0.31046 0.38856 0.17298 0.0
N1374 N 0.32609 0.41306 0.05905 0.0
C1375 C 0.35119 0.40831 0.10147 0.0
C1376 C 0.34274 0.39508 0.16315 0.0
C1377 C 0.88446 0.08108 0.42783 0.0
C1378 C 0.89881 0.10082 0.47677 0.0
C1379 C 0.87342 0.09429 0.36873 0.0
C1380 C 0.87627 0.12768 0.3565 0.0
H1381 H 0.88114 0.05536 0.43576 0.0
H1382 H 0.86191 0.07843 0.33295 0.0
S1383 S 0.91439 0.18938 0.46572 0.0
N1384 N 0.91713 0.15519 0.5067 0.0
N1385 N 0.89586 0.1799 0.39631 0.0
C1386 C 0.89099 0.14756 0.40438 0.0
C1387 C 0.9024 0.13416 0.46427 0.0
C1388 C 0.14635 0.37658 0.34861 0.0
C1389 C 0.17753 0.38599 0.32592 0.0
C1390 C 0.13456 0.38692 0.41019 0.0
C1391 C 0.15348 0.40695 0.45197 0.0
H1392 H 0.13084 0.36121 0.3184 0.0
H1393 H 0.11003 0.3799 0.42457 0.0
S1394 S 0.23544 0.44074 0.4141 0.0
N1395 N 0.22642 0.41787 0.34984 0.0
N1396 N 0.20403 0.43734 0.46435 0.0
C1397 C 0.18458 0.41654 0.42995 0.0
C1398 C 0.19664 0.40604 0.36745 0.0
C1399 C 0.92821 0.9002 0.69631 0.0
C1400 C 0.90106 0.88457 0.72443 0.0
C1401 C 0.92666 0.91267 0.63305 0.0
C1402 C 0.89805 0.90961 0.59508 0.0
H1403 H 0.95074 0.90321 0.72388 0.0
H1404 H 0.94796 0.92503 0.61378 0.0
S1405 S 0.82027 0.87069 0.64562 0.0
N1406 N 0.84472 0.86666 0.70954 0.0
N1407 N 0.84194 0.88992 0.58992 0.0
C1408 C 0.87082 0.89376 0.62218 0.0
C1409 C 0.87225 0.88139 0.68715 0.0
C1410 C 0.37261 0.67927 0.85086 0.0
C1411 C 0.36958 0.64672 0.83105 0.0
C1412 C 0.3827 0.68754 0.91458 0.0
C1413 C 0.39006 0.66355 0.96121 0.0
H1414 H 0.36584 0.69846 0.81766 0.0
H1415 H 0.38359 0.713 0.92803 0.0
S1416 S 0.38715 0.57455 0.93165 0.0
N1417 N 0.37512 0.59035 0.86176 0.0
N1418 N 0.39511 0.60561 0.98082 0.0
C1419 C 0.38789 0.63083 0.94105 0.0
C1420 C 0.37744 0.6225 0.87621 0.0
C1421 C 0.64211 0.10605 0.13217 0.0
C1422 C 0.63732 0.12885 0.08209 0.0
C1423 C 0.65574 0.11519 0.19261 0.0
C1424 C 0.66547 0.14737 0.20494 0.0
H1425 H 0.63528 0.08088 0.12464 0.0
H1426 H 0.65897 0.09692 0.22974 0.0
S1427 S 0.65695 0.21678 0.09235 0.0
N1428 N 0.64229 0.18545 0.05066 0.0
N1429 N 0.66876 0.20227 0.16349 0.0
C1430 C 0.66106 0.17038 0.1555 0.0
C1431 C 0.64685 0.1612 0.09426 0.0
C1432 C 0.90011 0.33895 0.37356 0.0
C1433 C 0.89882 0.36085 0.32129 0.0
C1434 C 0.88942 0.34779 0.43651 0.0
C1435 C 0.87748 0.37919 0.45046 0.0
H1436 H 0.90975 0.31475 0.36576 0.0
H1437 H 0.8905 0.32974 0.47451 0.0
S1438 S 0.87051 0.44607 0.33029 0.0
N1439 N 0.88489 0.41522 0.2871 0.0
N1440 N 0.8662 0.43262 0.40549 0.0
C1441 C 0.87617 0.40137 0.39816 0.0
C1442 C 0.88649 0.39204 0.33374 0.0
C1443 C 0.33271 0.14177 0.18232 0.0
C1444 C 0.35686 0.15885 0.21819 0.0
C1445 C 0.33899 0.12946 0.11954 0.0
C1446 C 0.3696 0.13382 0.08964 0.0
H1447 H 0.30899 0.13697 0.20378 0.0
H1448 H 0.32007 0.11538 0.09505 0.0
S1449 S 0.44124 0.17667 0.16114 0.0
N1450 N 0.41265 0.17985 0.21789 0.0
N1451 N 0.42446 0.15603 0.1 0.0
C1452 C 0.39393 0.15098 0.1242 0.0
C1453 C 0.38759 0.16359 0.18843 0.0
C1454 C 0.64719 0.67553 0.94341 0.0
C1455 C 0.64234 0.64497 0.97202 0.0
C1456 C 0.65954 0.67843 0.87989 0.0
C1457 C 0.6672 0.65089 0.84186 0.0
H1458 H 0.6416 0.69749 0.97065 0.0
H1459 H 0.66315 0.7025 0.86031 0.0
S1460 S 0.65914 0.56526 0.89339 0.0
N1461 N 0.64624 0.5865 0.9572 0.0
N1462 N 0.66944 0.59203 0.83748 0.0
C1463 C 0.66238 0.62015 0.86953 0.0
C1464 C 0.65009 0.61717 0.93473 0.0
C1465 C 0.15096 0.92454 0.58776 0.0
C1466 C 0.11879 0.93388 0.5723 0.0
C1467 C 0.15823 0.90967 0.64736 0.0
C1468 C 0.13354 0.90318 0.6935 0.0
H1469 H 0.17062 0.9286 0.55327 0.0
H1470 H 0.18341 0.90296 0.65717 0.0
S1471 S 0.04495 0.92121 0.67402 0.0
N1472 N 0.06192 0.93517 0.60668 0.0
N1473 N 0.0753 0.90631 0.71806 0.0
C1474 C 0.10122 0.91253 0.67853 0.0
C1475 C 0.09392 0.92805 0.61806 0.0
C1476 C 0.88442 0.6472 0.68623 0.0
C1477 C 0.85412 0.63802 0.71358 0.0
C1478 C 0.89448 0.63533 0.62464 0.0
C1479 C 0.87477 0.61356 0.58857 0.0
H1480 H 0.90052 0.66363 0.71273 0.0
H1481 H 0.91824 0.64243 0.60601 0.0
S1482 S 0.79367 0.58145 0.63798 0.0
N1483 N 0.80456 0.60579 0.69884 0.0
N1484 N 0.8239 0.58302 0.5846 0.0
C1485 C 0.84447 0.60431 0.61508 0.0
C1486 C 0.83401 0.61669 0.67707 0.0
C1487 C 0.144 0.12936 0.4232 0.0
C1488 C 0.14415 0.1581 0.46087 0.0
C1489 C 0.15615 0.12895 0.35885 0.0
C1490 C 0.16924 0.15718 0.33069 0.0
H1491 H 0.13412 0.1072 0.44337 0.0
H1492 H 0.15601 0.10631 0.3315 0.0
S1493 S 0.17565 0.23833 0.40962 0.0
N1494 N 0.15858 0.21526 0.46563 0.0
N1495 N 0.18155 0.21448 0.34547 0.0
C1496 C 0.16954 0.18595 0.36812 0.0
C1497 C 0.15698 0.18641 0.43301 0.0
C1498 C 0.60994 0.38642 0.16957 0.0
C1499 C 0.63568 0.39553 0.21179 0.0
C1500 C 0.60558 0.40165 0.10898 0.0
C1501 C 0.62677 0.42657 0.08868 0.0
H1502 H 0.59369 0.36673 0.18269 0.0
H1503 H 0.58579 0.39359 0.07735 0.0
S1504 S 0.69911 0.45781 0.17955 0.0
N1505 N 0.68359 0.42973 0.22758 0.0
N1506 N 0.6748 0.45911 0.11496 0.0
C1507 C 0.65235 0.43612 0.13084 0.0
C1508 C 0.65699 0.42037 0.19205 0.0
C1509 C 0.41074 0.90966 0.91196 0.0
C1510 C 0.40548 0.8877 0.96289 0.0
C1511 C 0.39494 0.90556 0.85154 0.0
C1512 C 0.37386 0.879 0.83972 0.0
H1513 H 0.42773 0.92968 0.91851 0.0
H1514 H 0.39944 0.9232 0.81371 0.0
S1515 S 0.35399 0.81369 0.95712 0.0
N1516 N 0.37856 0.83843 0.99816 0.0
N1517 N 0.34969 0.82981 0.88406 0.0
C1518 C 0.36848 0.85692 0.89074 0.0
C1519 C 0.38413 0.86149 0.95245 0.0
C1520 C 0.09554 0.75885 0.17311 0.0
C1521 C 0.12458 0.74216 0.1907 0.0
C1522 C 0.09341 0.79366 0.1731 0.0
C1523 C 0.12091 0.81426 0.185 0.0
H1524 H 0.07436 0.74491 0.15742 0.0
H1525 H 0.07026 0.80456 0.16008 0.0
S1526 S 0.19942 0.78431 0.25338 0.0
N1527 N 0.17861 0.7506 0.23814 0.0
N1528 N 0.17592 0.81445 0.22917 0.0
C1529 C 0.14919 0.79798 0.20726 0.0
C1530 C 0.15074 0.76267 0.21159 0.0
C1531 C 0.5378 0.85431 0.46537 0.0
C1532 C 0.5585 0.88128 0.45177 0.0
C1533 C 0.50261 0.8564 0.46463 0.0
C1534 C 0.4859 0.88581 0.45193 0.0
H1535 H 0.54894 0.83105 0.47532 0.0
H1536 H 0.48851 0.83462 0.47267 0.0
S1537 S 0.52801 0.9654 0.43133 0.0
N1538 N 0.55854 0.93932 0.43572 0.0
N1539 N 0.49418 0.94374 0.43889 0.0
C1540 C 0.50655 0.91334 0.44477 0.0
C1541 C 0.54206 0.91105 0.44397 0.0
C1542 C 0.35808 0.28633 0.72241 0.0
C1543 C 0.38559 0.30713 0.71825 0.0
C1544 C 0.3612 0.25204 0.72326 0.0
C1545 C 0.39175 0.23647 0.7154 0.0
H1546 H 0.33367 0.29663 0.72246 0.0
H1547 H 0.33911 0.23759 0.72593 0.0
S1548 S 0.47191 0.2796 0.71618 0.0
N1549 N 0.44482 0.30921 0.71788 0.0
N1550 N 0.45058 0.2455 0.71445 0.0
C1551 C 0.41955 0.25705 0.7163 0.0
C1552 C 0.41646 0.29202 0.71856 0.0
C1553 C 0.99936 0.10357 0.96571 0.0
C1554 C 0.98037 0.13212 0.96907 0.0
C1555 C 0.03386 0.1043 0.96105 0.0
C1556 C 0.05179 0.13359 0.9613 0.0
H1557 H 0.98725 0.08021 0.96299 0.0
H1558 H 0.04651 0.08156 0.95356 0.0
S1559 S 1.01472 0.21545 0.9754 0.0
N1560 N 0.98274 0.19081 0.97686 0.0
N1561 N 0.04755 0.19218 0.96959 0.0
C1562 C 0.03344 0.16236 0.96939 0.0
C1563 C 0.99791 0.16163 0.97326 0.0
C1564 C 0.16587 0.26976 0.84868 0.0
C1565 C 0.13782 0.29001 0.84228 0.0
C1566 C 0.16407 0.23514 0.85253 0.0
C1567 C 0.13389 0.21824 0.85021 0.0
H1568 H 0.18983 0.28078 0.85087 0.0
H1569 H 0.1866 0.22157 0.85766 0.0
S1570 S 0.05327 0.25766 0.82455 0.0
N1571 N 0.0789 0.28875 0.82799 0.0
N1572 N 0.07554 0.22475 0.83378 0.0
C1573 C 0.10592 0.23788 0.83984 0.0
C1574 C 0.10777 0.27313 0.83634 0.0
C1575 C 1.01098 0.91544 0.11224 0.0
C1576 C 0.03312 0.88992 0.09764 0.0
C1577 C 0.9766 0.9106 0.11651 0.0
C1578 C 0.96228 0.87972 0.10751 0.0
H1579 H 0.02025 0.93965 0.12055 0.0
H1580 H 0.96122 0.93124 0.1278 0.0
S1581 S 1.00784 0.80578 0.05516 0.0
N1582 N 0.0368 0.83343 0.06496 0.0
N1583 N 0.97302 0.82424 0.07248 0.0
C1584 C 0.98379 0.85458 0.08755 0.0
C1585 C 0.0188 0.85962 0.0829 0.0
C1586 C 0.36704 0.74877 0.35784 0.0
C1587 C 0.39588 0.73177 0.37646 0.0
C1588 C 0.36627 0.78365 0.3509 0.0
C1589 C 0.39409 0.80389 0.36337 0.0
H1590 H 0.34497 0.73505 0.34727 0.0
H1591 H 0.34353 0.79488 0.33594 0.0
S1592 S 0.47704 0.77164 0.40043 0.0
N1593 N 0.4539 0.73877 0.39793 0.0
N1594 N 0.4523 0.80239 0.38571 0.0
C1595 C 0.42319 0.78682 0.37809 0.0
C1596 C 0.42404 0.75167 0.38474 0.0
C1597 C 0.5357 0.11858 0.59526 0.0
C1598 C 0.55557 0.14692 0.60385 0.0
C1599 C 0.50032 0.11909 0.60164 0.0
C1600 C 0.48261 0.14796 0.61689 0.0
H1601 H 0.54758 0.09564 0.58489 0.0
H1602 H 0.48686 0.09665 0.5947 0.0
S1603 S 0.52162 0.2297 0.62277 0.0
N1604 N 0.55311 0.2051 0.61456 0.0
N1605 N 0.48874 0.20635 0.6246 0.0
C1606 C 0.50226 0.17644 0.61867 0.0
C1607 C 0.53777 0.17587 0.61261 0.0
C1608 C 0.9248 0.22591 0.86663 0.0
C1609 C 0.89615 0.20673 0.86486 0.0
C1610 C 0.92349 0.26017 0.86585 0.0
C1611 C 0.89353 0.27695 0.85971 0.0
H1612 H 0.94848 0.21433 0.87109 0.0
H1613 H 0.94616 0.27337 0.87243 0.0
S1614 S 0.81186 0.23816 0.83982 0.0
N1615 N 0.83717 0.20735 0.84945 0.0
N1616 N 0.83488 0.27112 0.84332 0.0
C1617 C 0.86494 0.25795 0.85302 0.0
C1618 C 0.86619 0.2231 0.85615 0.0
C1619 C 0.61252 0.75783 0.37884 0.0
C1620 C 0.64168 0.77528 0.36645 0.0
C1621 C 0.61115 0.72332 0.37518 0.0
C1622 C 0.63926 0.70416 0.36265 0.0
H1623 H 0.59055 0.77096 0.3923 0.0
H1624 H 0.58798 0.71146 0.3845 0.0
S1625 S 0.72076 0.73731 0.3179 0.0
N1626 N 0.6984 0.77001 0.33201 0.0
N1627 N 0.69645 0.70596 0.33108 0.0
C1628 C 0.66828 0.72129 0.34818 0.0
C1629 C 0.66935 0.75644 0.34904 0.0
C1630 C 0.92163 0.74739 0.17146 0.0
C1631 C 0.90127 0.72547 0.20476 0.0
C1632 C 0.91693 0.78115 0.17601 0.0
C1633 C 0.8915 0.79485 0.21331 0.0
H1634 H 0.9403 0.73829 0.13853 0.0
H1635 H 0.93193 0.79662 0.14619 0.0
S1636 S 0.83203 0.74857 0.31281 0.0
N1637 N 0.85582 0.72026 0.28045 0.0
N1638 N 0.84624 0.78368 0.28644 0.0
C1639 C 0.87194 0.77344 0.2497 0.0
C1640 C 0.87715 0.73883 0.24633 0.0
C1641 C 0.60595 0.25235 0.70941 0.0
C1642 C 0.63562 0.23507 0.69875 0.0
C1643 C 0.60461 0.28734 0.71346 0.0
C1644 C 0.63269 0.30771 0.70563 0.0
H1645 H 0.58327 0.23887 0.71262 0.0
H1646 H 0.58088 0.29863 0.71976 0.0
S1647 S 0.7175 0.27537 0.69223 0.0
N1648 N 0.69458 0.24231 0.69298 0.0
N1649 N 0.69184 0.3062 0.69709 0.0
C1650 C 0.66259 0.29057 0.69958 0.0
C1651 C 0.66403 0.25517 0.69675 0.0
C1652 C 1.00462 0.4106 0.93462 0.0
C1653 C 0.98465 0.38249 0.93794 0.0
C1654 C 0.03976 0.40909 0.93357 0.0
C1655 C 0.05739 0.37955 0.9302 0.0
H1656 H 0.99301 0.4342 0.93536 0.0
H1657 H 0.0533 0.43131 0.94012 0.0
S1658 S 0.01828 0.30022 0.96709 0.0
N1659 N 0.98679 0.32515 0.96227 0.0
N1660 N 0.05126 0.32205 0.95126 0.0
C1661 C 0.03778 0.35167 0.9414 0.0
C1662 C 1.00219 0.35329 0.94704 0.0
C1663 C 0.50721 0.66247 0.45511 0.0
C1664 C 0.48597 0.63518 0.45089 0.0
C1665 C 0.54211 0.65923 0.46119 0.0
C1666 C 0.55768 0.62852 0.46261 0.0
H1667 H 0.49697 0.68654 0.45038 0.0
H1668 H 0.55703 0.68093 0.46064 0.0
S1669 S 0.51304 0.54956 0.45768 0.0
N1670 N 0.48363 0.57669 0.45124 0.0
N1671 N 0.54749 0.57051 0.4634 0.0
C1672 C 0.53623 0.6014 0.4614 0.0
C1673 C 0.50112 0.60471 0.4551 0.0
C1674 C 0.4877 0.41624 0.62199 0.0
C1675 C 0.46992 0.3873 0.61043 0.0
C1676 C 0.52274 0.41724 0.62031 0.0
C1677 C 0.54267 0.38957 0.60717 0.0
H1678 H 0.47451 0.43847 0.63225 0.0
H1679 H 0.53443 0.44038 0.62884 0.0
S1680 S 0.50861 0.30883 0.56195 0.0
N1681 N 0.47568 0.33086 0.57686 0.0
N1682 N 0.54032 0.333 0.57478 0.0
C1683 C 0.52507 0.36102 0.59161 0.0
C1684 C 0.48937 0.35991 0.59309 0.0
C1685 C 0.03693 0.66606 0.07015 0.0
C1686 C 0.05707 0.63862 0.08073 0.0
C1687 C 1.00209 0.66471 0.07412 0.0
C1688 C 0.98473 0.63613 0.09128 0.0
H1689 H 0.04836 0.68929 0.06075 0.0
H1690 H 0.98854 0.68691 0.06625 0.0
S1691 S 0.02342 0.55483 0.08263 0.0
N1692 N 0.05518 0.57981 0.08202 0.0
N1693 N 0.99045 0.57766 0.09122 0.0
C1694 C 1.00413 0.60766 0.09256 0.0
C1695 C 0.03987 0.60886 0.0873 0.0
C1696 C 0.1318 0.51818 0.08044 0.0
C1697 C 0.13225 0.54895 0.05111 0.0
C1698 C 0.13148 0.48891 0.04337 0.0
C1699 C 0.13383 0.48796 0.97405 0.0
H1700 H 0.13338 0.51604 0.13254 0.0
H1701 H 0.13088 0.46651 0.0705 0.0
S1702 S 0.13065 0.56155 0.87097 0.0
N1703 N 0.12937 0.57618 0.94636 0.0
N1704 N 0.13329 0.52173 0.87767 0.0
C1705 C 0.13301 0.51853 0.94358 0.0
C1706 C 0.13147 0.54853 0.98157 0.0
C1707 C 0.74554 0.87053 0.29318 0.0
C1708 C 0.73122 0.89833 0.32361 0.0
C1709 C 0.7749 0.87245 0.25416 0.0
C1710 C 0.7906 0.90251 0.24094 0.0
H1711 H 0.73377 0.84717 0.29868 0.0
H1712 H 0.78512 0.85032 0.23399 0.0
S1713 S 0.76117 0.98277 0.30336 0.0
N1714 N 0.73534 0.95658 0.33525 0.0
N1715 N 0.78685 0.96085 0.25945 0.0
C1716 C 0.77539 0.93026 0.26934 0.0
C1717 C 0.74692 0.92804 0.31073 0.0
C1718 C 0.36338 0.49579 0.49008 0.0
C1719 C 0.38506 0.49286 0.54415 0.0
C1720 C 0.36194 0.52389 0.45005 0.0
C1721 C 0.38242 0.55131 0.45963 0.0
H1722 H 0.3463 0.47635 0.47906 0.0
H1723 H 0.34331 0.52458 0.41231 0.0
S1724 S 0.44367 0.55787 0.59446 0.0
N1725 N 0.42829 0.52109 0.60364 0.0
N1726 N 0.4247 0.57359 0.53078 0.0
C1727 C 0.4046 0.54879 0.51301 0.0
C1728 C 0.4062 0.51991 0.55403 0.0
C1729 C 0.75768 0.13186 0.8487 0.0
C1730 C 0.78754 0.1426 0.823 0.0
C1731 C 0.72871 0.13094 0.8104 0.0
C1732 C 0.72717 0.14115 0.74385 0.0
H1733 H 0.75704 0.12188 0.89742 0.0
H1734 H 0.70781 0.11992 0.83323 0.0
S1735 S 0.79831 0.17851 0.6596 0.0
N1736 N 0.81352 0.16787 0.73068 0.0
N1737 N 0.75926 0.16777 0.66055 0.0
C1738 C 0.75665 0.15482 0.72047 0.0
C1739 C 0.7865 0.15507 0.75921 0.0
C1740 C 0.89784 0.53542 0.9802 0.0
C1741 C 0.91177 0.53754 0.04438 0.0
C1742 C 0.8975 0.50644 0.9412 0.0
C1743 C 0.91226 0.47751 0.9623 0.0
H1744 H 0.88656 0.5565 0.95905 0.0
H1745 H 0.88438 0.50647 0.89515 0.0
S1746 S 0.95996 0.47053 0.11728 0.0
N1747 N 0.94589 0.50805 0.12032 0.0
N1748 N 0.94614 0.45468 0.0481 0.0
C1749 C 0.92897 0.47994 0.02341 0.0
C1750 C 0.9288 0.5094 0.06358 0.0
C1751 C 0.26678 0.15339 0.79826 0.0
C1752 C 0.2423 0.12884 0.79399 0.0
C1753 C 0.29625 0.15236 0.76002 0.0
C1754 C 0.30306 0.1266 0.71557 0.0
H1755 H 0.26334 0.17352 0.83189 0.0
H1756 H 0.31435 0.17133 0.76712 0.0
S1757 S 0.24795 0.05641 0.68367 0.0
N1758 N 0.22779 0.07841 0.73789 0.0
N1759 N 0.28253 0.07606 0.67066 0.0
C1760 C 0.27883 0.10227 0.71073 0.0
C1761 C 0.24884 0.10352 0.74826 0.0
C1762 C 0.69457 0.51638 0.50131 0.0
C1763 C 0.6666 0.5349 0.4853 0.0
C1764 C 0.69291 0.48681 0.53575 0.0
C1765 C 0.66315 0.4732 0.5581 0.0
H1766 H 0.7186 0.52504 0.48723 0.0
H1767 H 0.71574 0.47426 0.54491 0.0
S1768 S 0.58179 0.51051 0.53052 0.0
N1769 N 0.6073 0.53658 0.49631 0.0
N1770 N 0.60433 0.48068 0.55944 0.0
C1771 C 0.63465 0.49103 0.54253 0.0
C1772 C 0.63632 0.52168 0.50691 0.0
C1773 C 0.26259 0.87555 0.32317 0.0
C1774 C 0.29315 0.87534 0.29125 0.0
C1775 C 0.2324 0.8771 0.28836 0.0
C1776 C 0.23064 0.87876 0.21902 0.0
H1777 H 0.26186 0.87589 0.37569 0.0
H1778 H 0.21007 0.87809 0.31679 0.0
S1779 S 0.30332 0.87568 0.11026 0.0
N1780 N 0.31915 0.87393 0.18432 0.0
N1781 N 0.26325 0.87785 0.12042 0.0
C1782 C 0.26096 0.87697 0.18639 0.0
C1783 C 0.29173 0.87511 0.22181 0.0
C1784 C 0.64393 1.00445 0.44477 0.0
C1785 C 0.62906 0.97648 0.47072 0.0
C1786 C 0.64363 0.03494 0.4786 0.0
C1787 C 0.62822 0.03971 0.54047 0.0
H1788 H 0.65732 1.0025 0.39929 0.0
H1789 H 0.65661 0.05488 0.45626 0.0
S1790 S 0.58192 0.97504 0.62581 0.0
N1791 N 0.59665 0.9563 0.56073 0.0
N1792 N 0.5946 1.01304 0.62139 0.0
C1793 C 0.61192 1.01214 0.56505 0.0
C1794 C 0.61278 0.98097 0.53122 0.0
C1795 C 0.2478 0.38171 0.77319 0.0
C1796 C 0.23211 0.40907 0.80256 0.0
C1797 C 0.27846 0.38437 0.73794 0.0
C1798 C 0.29464 0.41468 0.72815 0.0
H1799 H 0.23633 0.35811 0.7771 0.0
H1800 H 0.28943 0.36251 0.71816 0.0
S1801 S 0.26333 0.49385 0.79211 0.0
N1802 N 0.23618 0.46729 0.81782 0.0
N1803 N 0.29045 0.47253 0.7506 0.0
C1804 C 0.27843 0.44187 0.75621 0.0
C1805 C 0.24833 0.43904 0.79297 0.0
C1806 C 0.89933 1.00253 0.05731 0.0
C1807 C 0.87162 0.98203 0.06446 0.0
C1808 C 0.89788 0.03188 1.02087 0.0
C1809 C 0.86858 0.04209 0.99032 0.0
H1810 H 0.92229 0.99594 0.08022 0.0
H1811 H 0.91945 0.04718 1.01869 0.0
S1812 S 0.78896 0.99844 0.99487 0.0
N1813 N 0.81405 0.97509 0.03655 0.0
N1814 N 0.8113 0.02962 0.97163 0.0
C1815 C 0.84101 0.02185 0.9973 0.0
C1816 C 0.84254 0.99208 0.03305 0.0
C1817 C 0.23387 0.65764 0.27329 0.0
C1818 C 0.22601 0.63038 0.23288 0.0
C1819 C 0.26374 0.65961 0.31114 0.0
C1820 C 0.28764 0.63447 0.3109 0.0
H1821 H 0.21662 0.67751 0.27646 0.0
H1822 H 0.26827 0.68125 0.34017 0.0
S1823 S 0.27835 0.55722 0.21571 0.0
N1824 N 0.24464 0.57738 0.19823 0.0
N1825 N 0.2994 0.58093 0.26588 0.0
C1826 C 0.27951 0.6072 0.27084 0.0
C1827 C 0.2493 0.60516 0.23341 0.0
C1828 C 0.39241 0.98271 0.5551 0.0
C1829 C 0.39671 0.97974 0.48593 0.0
C1830 C 0.39647 1.01236 0.59111 0.0
C1831 C 0.40551 0.04171 0.56111 0.0
H1832 H 0.38401 0.9622 0.58256 0.0
H1833 H 0.39057 1.01244 0.64254 0.0
S1834 S 0.42496 0.04871 0.38439 0.0
N1835 N 0.41332 1.01052 0.39159 0.0
N1836 N 0.42326 0.06462 0.45842 0.0
C1837 C 0.41256 0.03886 0.49335 0.0
C1838 C 0.40762 1.00872 0.45638 0.0
C1839 C 0.80383 0.64218 0.26791 0.0
C1840 C 0.81185 0.6156 0.22617 0.0
C1841 C 0.774 0.64327 0.30541 0.0
C1842 C 0.7502 0.61794 0.30322 0.0
H1843 H 0.82115 0.66193 0.27318 0.0
H1844 H 0.76967 0.66418 0.33658 0.0
S1845 S 0.7593 0.54286 0.20115 0.0
N1846 N 0.79337 0.56318 0.18711 0.0
N1847 N 0.73795 0.5657 0.25204 0.0
C1848 C 0.75809 0.59167 0.26047 0.0
C1849 C 0.78852 0.59032 0.22406 0.0
C1850 C 0.1843 0.03062 1.00662 0.0
C1851 C 0.15752 0.04587 0.97511 0.0
C1852 C 0.18132 1.00177 0.04325 0.0
C1853 C 0.15131 0.98521 0.05216 0.0
H1854 H 0.20858 0.0411 1.00291 0.0
H1855 H 0.20349 0.99179 0.06422 0.0
S1856 S 0.07258 1.01257 0.97887 0.0
N1857 N 0.09889 0.04081 0.95575 0.0
N1858 N 0.09357 0.9862 1.02269 0.0
C1859 C 0.1239 0.99967 1.02084 0.0
C1860 C 0.12691 0.02977 0.98325 0.0
C1861 C 0.76882 0.36086 0.73911 0.0
C1862 C 0.74308 0.38372 0.74768 0.0
C1863 C 0.79929 0.36261 0.77551 0.0
C1864 C 0.80703 0.38835 0.82055 0.0
H1865 H 0.76537 0.34109 0.70459 0.0
H1866 H 0.8171 0.34374 0.76677 0.0
S1867 S 0.74913 0.45394 0.86556 0.0
N1868 N 0.7281 0.43127 0.81361 0.0
N1869 N 0.7855 0.43686 0.87047 0.0
C1870 C 0.78176 0.41107 0.82918 0.0
C1871 C 0.75019 0.40819 0.79623 0.0
loop_
_geom_bond_atom_site_label_1
_geom_bond_atom_site_label_2
_geom_bond_distance
_geom_bond_site_symmetry_2
_ccdc_geom_bond_type
Tb0 N31 2.660 . S
Tb0 N38 2.600 . S
Tb0 O44 2.546 1_554 S
Tb0 O45 2.610 . S
Tb0 O47 2.320 . S
Tb0 O48 2.552 . S
Tb0 O49 2.413 1_554 S
Tb0 O51 2.362 . S
Tb0 O52 2.421 . S
Tb0 C64 2.833 1_554 S
C1 C4 1.432 . S
C1 C5 1.414 . S
C1 N8 1.359 . S
C2 C4 1.417 . S
C2 C6 1.432 1_455 S
C2 C14 1.410 1_455 S
C3 C5 1.444 1_655 S
C3 C6 1.317 . S
C3 H26 0.929 . S
C4 C1 1.432 . S
C4 C2 1.417 . S
C4 N12 1.360 . S
C5 C1 1.414 . S
C5 C3 1.444 1_455 S
C5 C10 1.385 . S
C6 C2 1.432 1_655 S
C6 C3 1.317 . S
C6 H18 0.930 . S
C7 C9 1.392 . S
C7 C10 1.370 . S
C7 H19 0.931 . S
N8 C1 1.359 . S
N8 C9 1.327 . S
N8 Tb11 2.600 . S
C9 C7 1.392 . S
C9 N8 1.327 . S
C9 H16 0.930 . S
C10 C5 1.385 . S
C10 C7 1.370 . S
C10 H29 0.930 . S
Tb11 N8 2.600 . S
Tb11 N12 2.660 . S
Tb11 O45 2.362 . S
Tb11 O46 2.421 . S
Tb11 O50 2.546 . S
Tb11 O51 2.610 . S
Tb11 O53 2.320 . S
Tb11 O54 2.552 . S
Tb11 O55 2.413 . S
Tb11 C75 2.833 . S
N12 C4 1.360 . S
N12 Tb11 2.660 . S
N12 C13 1.305 . S
C13 N12 1.305 . S
C13 C15 1.407 . S
C13 H20 0.930 . S
C14 C2 1.410 1_655 S
C14 C15 1.345 1_655 S
C14 H22 0.930 . S
C15 C13 1.407 . S
C15 C14 1.345 1_455 S
C15 H17 0.930 . S
H16 C9 0.930 . S
H17 C15 0.930 . S
H18 C6 0.930 . S
H19 C7 0.931 . S
H20 C13 0.930 . S
H21 C35 0.930 . S
H22 C14 0.930 . S
H23 C41 0.930 . S
H24 C32 0.930 . S
H25 C39 0.931 . S
H26 C3 0.929 . S
H27 C33 0.930 . S
H28 C66 0.930 . S
H29 C10 0.930 . S
H30 C65 0.929 . S
N31 Tb0 2.660 . S
N31 C32 1.305 . S
N31 C36 1.360 . S
C32 H24 0.930 . S
C32 N31 1.305 . S
C32 C35 1.407 . S
C33 H27 0.930 . S
C33 C34 1.410 . S
C33 C35 1.345 . S
C34 C33 1.410 . S
C34 C36 1.417 . S
C34 C66 1.432 1_554 S
C35 H21 0.930 . S
C35 C32 1.407 . S
C35 C33 1.345 . S
C36 N31 1.360 . S
C36 C34 1.417 . S
C36 C40 1.432 . S
H37 C42 0.930 . S
N38 Tb0 2.600 . S
N38 C40 1.359 . S
N38 C41 1.327 . S
C39 H25 0.931 . S
C39 C41 1.392 1_556 S
C39 C42 1.370 . S
C40 C36 1.432 . S
C40 N38 1.359 . S
C40 C43 1.414 1_554 S
C41 H23 0.930 . S
C41 N38 1.327 . S
C41 C39 1.392 1_554 S
C42 H37 0.930 . S
C42 C39 1.370 . S
C42 C43 1.385 . S
C43 C40 1.414 1_556 S
C43 C42 1.385 . S
C43 C65 1.444 . S
O44 Tb0 2.546 1_556 S
O44 C64 1.251 . S
O45 Tb0 2.610 . S
O45 Tb11 2.362 . S
O45 C56 1.283 . S
O46 Tb11 2.421 . S
O46 C63 1.262 . S
O47 Tb0 2.320 . S
O47 C63 1.260 . S
O48 Tb0 2.552 . S
O48 C56 1.243 . S
O49 Tb0 2.413 1_556 S
O49 C64 1.256 . S
O50 Tb11 2.546 . S
O50 C75 1.251 . S
O51 Tb0 2.362 . S
O51 Tb11 2.610 . S
O51 C67 1.283 . S
O52 Tb0 2.421 . S
O52 C74 1.262 . S
O53 Tb11 2.320 . S
O53 C74 1.260 . S
O54 Tb11 2.552 . S
O54 C67 1.243 . S
O55 Tb11 2.413 . S
O55 C75 1.256 . S
C56 O45 1.283 . S
C56 O48 1.243 . S
C57 C59 1.382 . S
C57 C61 1.393 . S
C57 C64 1.500 . S
C58 C59 1.400 . S
C58 C60 1.384 . S
C59 C57 1.382 . S
C59 C58 1.400 . S
C59 H76 0.930 . S
C60 C58 1.384 . S
C60 C62 1.392 . S
C60 H77 0.931 . S
C61 C57 1.393 . S
C61 C62 1.401 . S
C61 H78 0.930 . S
C62 C60 1.392 . S
C62 C61 1.401 . S
C62 H79 0.930 . S
C63 O46 1.262 . S
C63 O47 1.260 . S
C64 Tb0 2.833 1_556 S
C64 O44 1.251 . S
C64 O49 1.256 . S
C64 C57 1.500 . S
C65 H30 0.929 . S
C65 C43 1.444 . S
C65 C66 1.317 . S
C66 H28 0.930 . S
C66 C34 1.432 1_556 S
C66 C65 1.317 . S
C67 O51 1.283 . S
C67 O54 1.243 . S
C68 C69 1.382 . S
C68 C72 1.393 . S
C68 C75 1.500 . S
C69 C68 1.382 . S
C69 C70 1.400 . S
C69 H80 0.930 . S
C70 C69 1.400 . S
C70 C71 1.384 . S
C71 C70 1.384 . S
C71 C73 1.392 . S
C71 H81 0.931 . S
C72 C68 1.393 . S
C72 C73 1.401 . S
C72 H82 0.930 . S
C73 C71 1.392 . S
C73 C72 1.401 . S
C73 H83 0.930 . S
C74 O52 1.262 . S
C74 O53 1.260 . S
C75 Tb11 2.833 . S
C75 O50 1.251 . S
C75 O55 1.256 . S
C75 C68 1.500 . S
H76 C59 0.930 . S
H77 C60 0.931 . S
H78 C61 0.930 . S
H79 C62 0.930 . S
H80 C69 0.930 . S
H81 C71 0.931 . S
H82 C72 0.930 . S
H83 C73 0.930 . S
Tb84 N115 2.660 . S
Tb84 N122 2.600 . S
Tb84 O128 2.546 . S
Tb84 O129 2.610 . S
Tb84 O131 2.320 . S
Tb84 O132 2.552 . S
Tb84 O133 2.413 . S
Tb84 O135 2.362 . S
Tb84 O136 2.421 . S
Tb84 C148 2.833 . S
C85 C88 1.432 . S
C85 C89 1.414 . S
C85 N92 1.359 . S
C86 C88 1.417 . S
C86 C90 1.432 . S
C86 C98 1.410 . S
C87 C89 1.444 . S
C87 C90 1.317 . S
C87 H110 0.929 . S
C88 C85 1.432 . S
C88 C86 1.417 . S
C88 N96 1.360 . S
C89 C85 1.414 . S
C89 C87 1.444 . S
C89 C94 1.385 . S
C90 C86 1.432 . S
C90 C87 1.317 . S
C90 H102 0.930 . S
C91 C93 1.392 . S
C91 C94 1.370 . S
C91 H103 0.931 1_565 S
N92 C85 1.359 . S
N92 C93 1.327 . S
N92 Tb95 2.600 . S
C93 C91 1.392 . S
C93 N92 1.327 . S
C93 H100 0.930 . S
C94 C89 1.385 . S
C94 C91 1.370 . S
C94 H113 0.930 . S
Tb95 N92 2.600 . S
Tb95 N96 2.660 . S
Tb95 O129 2.362 . S
Tb95 O130 2.421 . S
Tb95 O134 2.546 . S
Tb95 O135 2.610 . S
Tb95 O137 2.320 . S
Tb95 O138 2.552 . S
Tb95 O139 2.413 . S
Tb95 C159 2.833 . S
N96 C88 1.360 . S
N96 Tb95 2.660 . S
N96 C97 1.305 . S
C97 N96 1.305 . S
C97 C99 1.407 . S
C97 H104 0.930 . S
C98 C86 1.410 . S
C98 C99 1.345 . S
C98 H106 0.930 . S
C99 C97 1.407 . S
C99 C98 1.345 . S
C99 H101 0.930 . S
H100 C93 0.930 . S
H101 C99 0.930 . S
H102 C90 0.930 . S
H103 C91 0.931 1_545 S
H104 C97 0.930 . S
H105 C119 0.930 . S
H106 C98 0.930 . S
H107 C125 0.930 . S
H108 C116 0.930 . S
H109 C123 0.931 . S
H110 C87 0.929 . S
H111 C117 0.930 . S
H112 C150 0.930 . S
H113 C94 0.930 . S
H114 C149 0.929 . S
N115 Tb84 2.660 . S
N115 C116 1.305 . S
N115 C120 1.360 . S
C116 H108 0.930 . S
C116 N115 1.305 . S
C116 C119 1.407 . S
C117 H111 0.930 . S
C117 C118 1.410 . S
C117 C119 1.345 . S
C118 C117 1.410 . S
C118 C120 1.417 . S
C118 C150 1.432 . S
C119 H105 0.930 . S
C119 C116 1.407 . S
C119 C117 1.345 . S
C120 N115 1.360 . S
C120 C118 1.417 . S
C120 C124 1.432 . S
H121 C126 0.930 . S
N122 Tb84 2.600 . S
N122 C124 1.359 . S
N122 C125 1.327 . S
C123 H109 0.931 . S
C123 C125 1.392 . S
C123 C126 1.370 . S
C124 C120 1.432 . S
C124 N122 1.359 . S
C124 C127 1.414 . S
C125 H107 0.930 . S
C125 N122 1.327 . S
C125 C123 1.392 . S
C126 H121 0.930 . S
C126 C123 1.370 . S
C126 C127 1.385 . S
C127 C124 1.414 . S
C127 C126 1.385 . S
C127 C149 1.444 . S
O128 Tb84 2.546 . S
O128 C148 1.251 . S
O129 Tb84 2.610 . S
O129 Tb95 2.362 . S
O129 C140 1.283 . S
O130 Tb95 2.421 . S
O130 C147 1.262 . S
O131 Tb84 2.320 . S
O131 C147 1.260 . S
O132 Tb84 2.552 . S
O132 C140 1.243 . S
O133 Tb84 2.413 . S
O133 C148 1.256 . S
O134 Tb95 2.546 . S
O134 C159 1.251 . S
O135 Tb84 2.362 . S
O135 Tb95 2.610 . S
O135 C151 1.283 . S
O136 Tb84 2.421 . S
O136 C158 1.262 . S
O137 Tb95 2.320 . S
O137 C158 1.260 . S
O138 Tb95 2.552 . S
O138 C151 1.243 . S
O139 Tb95 2.413 . S
O139 C159 1.256 . S
C140 O129 1.283 . S
C140 O132 1.243 . S
C141 C143 1.382 . S
C141 C145 1.393 . S
C141 C148 1.500 . S
C142 C143 1.400 . S
C142 C144 1.384 . S
C143 C141 1.382 . S
C143 C142 1.400 . S
C143 H160 0.930 . S
C144 C142 1.384 . S
C144 C146 1.392 . S
C144 H161 0.931 . S
C145 C141 1.393 . S
C145 C146 1.401 . S
C145 H162 0.930 . S
C146 C144 1.392 . S
C146 C145 1.401 . S
C146 H163 0.930 . S
C147 O130 1.262 . S
C147 O131 1.260 . S
C148 Tb84 2.833 . S
C148 O128 1.251 . S
C148 O133 1.256 . S
C148 C141 1.500 . S
C149 H114 0.929 . S
C149 C127 1.444 . S
C149 C150 1.317 . S
C150 H112 0.930 . S
C150 C118 1.432 . S
C150 C149 1.317 . S
C151 O135 1.283 . S
C151 O138 1.243 . S
C152 C153 1.382 . S
C152 C156 1.393 . S
C152 C159 1.500 . S
C153 C152 1.382 . S
C153 C154 1.400 1_554 S
C153 H164 0.930 . S
C154 C153 1.400 1_556 S
C154 C155 1.384 . S
C155 C154 1.384 . S
C155 C157 1.392 . S
C155 H165 0.931 . S
C156 C152 1.393 . S
C156 C157 1.401 1_554 S
C156 H166 0.930 . S
C157 C155 1.392 . S
C157 C156 1.401 1_556 S
C157 H167 0.930 . S
C158 O136 1.262 . S
C158 O137 1.260 . S
C159 Tb95 2.833 . S
C159 O134 1.251 . S
C159 O139 1.256 . S
C159 C152 1.500 . S
H160 C143 0.930 . S
H161 C144 0.931 . S
H162 C145 0.930 . S
H163 C146 0.930 . S
H164 C153 0.930 . S
H165 C155 0.931 . S
H166 C156 0.930 . S
H167 C157 0.930 . S
Tb168 N199 2.660 . S
Tb168 N206 2.600 . S
Tb168 O212 2.546 . S
Tb168 O213 2.610 . S
Tb168 O215 2.320 . S
Tb168 O216 2.552 . S
Tb168 O217 2.413 . S
Tb168 O219 2.362 . S
Tb168 O220 2.421 . S
Tb168 C232 2.833 . S
C169 C172 1.432 . S
C169 C173 1.414 . S
C169 N176 1.359 . S
C170 C172 1.417 . S
C170 C174 1.432 . S
C170 C182 1.410 . S
C171 C173 1.444 . S
C171 C174 1.317 . S
C171 H194 0.929 . S
C172 C169 1.432 . S
C172 C170 1.417 . S
C172 N180 1.360 . S
C173 C169 1.414 . S
C173 C171 1.444 . S
C173 C178 1.385 . S
C174 C170 1.432 . S
C174 C171 1.317 . S
C174 H186 0.930 . S
C175 C177 1.392 . S
C175 C178 1.370 . S
C175 H187 0.931 . S
N176 C169 1.359 . S
N176 C177 1.327 . S
N176 Tb179 2.600 . S
C177 C175 1.392 . S
C177 N176 1.327 . S
C177 H184 0.930 . S
C178 C173 1.385 . S
C178 C175 1.370 . S
C178 H197 0.930 . S
Tb179 N176 2.600 . S
Tb179 N180 2.660 . S
Tb179 O213 2.362 . S
Tb179 O214 2.421 . S
Tb179 O218 2.546 . S
Tb179 O219 2.610 . S
Tb179 O221 2.320 . S
Tb179 O222 2.552 . S
Tb179 O223 2.413 . S
Tb179 C243 2.833 . S
N180 C172 1.360 . S
N180 Tb179 2.660 . S
N180 C181 1.305 . S
C181 N180 1.305 . S
C181 C183 1.407 . S
C181 H188 0.930 . S
C182 C170 1.410 . S
C182 C183 1.345 . S
C182 H190 0.930 . S
C183 C181 1.407 . S
C183 C182 1.345 . S
C183 H185 0.930 . S
H184 C177 0.930 . S
H185 C183 0.930 . S
H186 C174 0.930 . S
H187 C175 0.931 . S
H188 C181 0.930 . S
H189 C203 0.930 . S
H190 C182 0.930 . S
H191 C209 0.930 . S
H192 C200 0.930 . S
H193 C207 0.931 . S
H194 C171 0.929 . S
H195 C201 0.930 . S
H196 C234 0.930 . S
H197 C178 0.930 . S
H198 C233 0.929 . S
N199 Tb168 2.660 . S
N199 C200 1.305 . S
N199 C204 1.360 . S
C200 H192 0.930 . S
C200 N199 1.305 . S
C200 C203 1.407 . S
C201 H195 0.930 . S
C201 C202 1.410 . S
C201 C203 1.345 . S
C202 C201 1.410 . S
C202 C204 1.417 . S
C202 C234 1.432 . S
C203 H189 0.930 . S
C203 C200 1.407 . S
C203 C201 1.345 . S
C204 N199 1.360 . S
C204 C202 1.417 . S
C204 C208 1.432 . S
H205 C210 0.930 . S
N206 Tb168 2.600 . S
N206 C208 1.359 . S
N206 C209 1.327 . S
C207 H193 0.931 . S
C207 C209 1.392 . S
C207 C210 1.370 . S
C208 C204 1.432 . S
C208 N206 1.359 . S
C208 C211 1.414 . S
C209 H191 0.930 . S
C209 N206 1.327 . S
C209 C207 1.392 . S
C210 H205 0.930 . S
C210 C207 1.370 . S
C210 C211 1.385 . S
C211 C208 1.414 . S
C211 C210 1.385 . S
C211 C233 1.444 . S
O212 Tb168 2.546 . S
O212 C232 1.251 . S
O213 Tb168 2.610 . S
O213 Tb179 2.362 . S
O213 C224 1.283 . S
O214 Tb179 2.421 . S
O214 C231 1.262 . S
O215 Tb168 2.320 . S
O215 C231 1.260 . S
O216 Tb168 2.552 . S
O216 C224 1.243 . S
O217 Tb168 2.413 . S
O217 C232 1.256 . S
O218 Tb179 2.546 . S
O218 C243 1.251 . S
O219 Tb168 2.362 . S
O219 Tb179 2.610 . S
O219 C235 1.283 . S
O220 Tb168 2.421 . S
O220 C242 1.262 . S
O221 Tb179 2.320 . S
O221 C242 1.260 . S
O222 Tb179 2.552 . S
O222 C235 1.243 . S
O223 Tb179 2.413 . S
O223 C243 1.256 . S
C224 O213 1.283 . S
C224 O216 1.243 . S
C225 C227 1.382 . S
C225 C229 1.393 . S
C225 C232 1.500 . S
C226 C227 1.400 . S
C226 C228 1.384 . S
C227 C225 1.382 . S
C227 C226 1.400 . S
C227 H244 0.930 . S
C228 C226 1.384 . S
C228 C230 1.392 . S
C228 H245 0.931 . S
C229 C225 1.393 . S
C229 C230 1.401 . S
C229 H246 0.930 . S
C230 C228 1.392 . S
C230 C229 1.401 . S
C230 H247 0.930 . S
C231 O214 1.262 . S
C231 O215 1.260 . S
C232 Tb168 2.833 . S
C232 O212 1.251 . S
C232 O217 1.256 . S
C232 C225 1.500 . S
C233 H198 0.929 . S
C233 C211 1.444 . S
C233 C234 1.317 . S
C234 H196 0.930 . S
C234 C202 1.432 . S
C234 C233 1.317 . S
C235 O219 1.283 . S
C235 O222 1.243 . S
C236 C237 1.382 . S
C236 C240 1.393 . S
C236 C243 1.500 . S
C237 C236 1.382 . S
C237 C238 1.400 1_556 S
C237 H248 0.930 . S
C238 C237 1.400 1_554 S
C238 C239 1.384 . S
C239 C238 1.384 . S
C239 C241 1.392 . S
C239 H249 0.931 . S
C240 C236 1.393 . S
C240 C241 1.401 1_556 S
C240 H250 0.930 . S
C241 C239 1.392 . S
C241 C240 1.401 1_554 S
C241 H251 0.930 . S
C242 O220 1.262 . S
C242 O221 1.260 . S
C243 Tb179 2.833 . S
C243 O218 1.251 . S
C243 O223 1.256 . S
C243 C236 1.500 . S
H244 C227 0.930 . S
H245 C228 0.931 . S
H246 C229 0.930 . S
H247 C230 0.930 . S
H248 C237 0.930 . S
H249 C239 0.931 . S
H250 C240 0.930 . S
H251 C241 0.930 . S
Tb252 N283 2.660 . S
Tb252 N290 2.600 . S
Tb252 O296 2.546 . S
Tb252 O297 2.610 . S
Tb252 O299 2.320 . S
Tb252 O300 2.552 . S
Tb252 O301 2.413 . S
Tb252 O303 2.362 . S
Tb252 O304 2.421 . S
Tb252 C316 2.833 . S
C253 C256 1.432 1_554 S
C253 C257 1.414 . S
C253 N260 1.359 1_554 S
C254 C256 1.417 1_554 S
C254 C258 1.432 . S
C254 C266 1.410 1_554 S
C255 C257 1.444 . S
C255 C258 1.317 . S
C255 H278 0.929 . S
C256 C253 1.432 1_556 S
C256 C254 1.417 1_556 S
C256 N264 1.360 . S
C257 C253 1.414 . S
C257 C255 1.444 . S
C257 C262 1.385 . S
C258 C254 1.432 . S
C258 C255 1.317 . S
C258 H270 0.930 . S
C259 C261 1.392 1_554 S
C259 C262 1.370 . S
C259 H271 0.931 . S
N260 C253 1.359 1_556 S
N260 C261 1.327 . S
N260 Tb263 2.600 . S
C261 C259 1.392 1_556 S
C261 N260 1.327 . S
C261 H268 0.930 . S
C262 C257 1.385 . S
C262 C259 1.370 . S
C262 H281 0.930 . S
Tb263 N260 2.600 . S
Tb263 N264 2.660 . S
Tb263 O297 2.362 . S
Tb263 O298 2.421 . S
Tb263 O302 2.546 1_556 S
Tb263 O303 2.610 . S
Tb263 O305 2.320 . S
Tb263 O306 2.552 . S
Tb263 O307 2.413 1_556 S
Tb263 C327 2.833 1_556 S
N264 C256 1.360 . S
N264 Tb263 2.660 . S
N264 C265 1.305 . S
C265 N264 1.305 . S
C265 C267 1.407 . S
C265 H272 0.930 . S
C266 C254 1.410 1_556 S
C266 C267 1.345 . S
C266 H274 0.930 . S
C267 C265 1.407 . S
C267 C266 1.345 . S
C267 H269 0.930 . S
H268 C261 0.930 . S
H269 C267 0.930 . S
H270 C258 0.930 . S
H271 C259 0.931 . S
H272 C265 0.930 . S
H273 C287 0.930 . S
H274 C266 0.930 . S
H275 C293 0.930 . S
H276 C284 0.930 . S
H277 C291 0.931 . S
H278 C255 0.929 . S
H279 C285 0.930 . S
H280 C318 0.930 . S
H281 C262 0.930 . S
H282 C317 0.929 . S
N283 Tb252 2.660 . S
N283 C284 1.305 . S
N283 C288 1.360 . S
C284 H276 0.930 . S
C284 N283 1.305 . S
C284 C287 1.407 . S
C285 H279 0.930 . S
C285 C286 1.410 . S
C285 C287 1.345 1_565 S
C286 C285 1.410 . S
C286 C288 1.417 1_565 S
C286 C318 1.432 . S
C287 H273 0.930 . S
C287 C284 1.407 . S
C287 C285 1.345 1_545 S
C288 N283 1.360 . S
C288 C286 1.417 1_545 S
C288 C292 1.432 . S
H289 C294 0.922 1_565 S
N290 Tb252 2.600 . S
N290 C292 1.359 . S
N290 C293 1.327 . S
C291 H277 0.931 . S
C291 C293 1.392 . S
C291 C294 1.370 . S
C292 C288 1.432 . S
C292 N290 1.359 . S
C292 C295 1.414 . S
C293 H275 0.930 . S
C293 N290 1.327 . S
C293 C291 1.392 . S
C294 H289 0.922 1_545 S
C294 C291 1.370 . S
C294 C295 1.385 . S
C295 C292 1.414 . S
C295 C294 1.385 . S
C295 C317 1.444 1_545 S
O296 Tb252 2.546 . S
O296 C316 1.251 . S
O297 Tb252 2.610 . S
O297 Tb263 2.362 . S
O297 C308 1.283 . S
O298 Tb263 2.421 . S
O298 C315 1.262 . S
O299 Tb252 2.320 . S
O299 C315 1.260 . S
O300 Tb252 2.552 . S
O300 C308 1.243 . S
O301 Tb252 2.413 . S
O301 C316 1.256 . S
O302 Tb263 2.546 1_554 S
O302 C327 1.251 . S
O303 Tb252 2.362 . S
O303 Tb263 2.610 . S
O303 C319 1.283 . S
O304 Tb252 2.421 . S
O304 C326 1.262 . S
O305 Tb263 2.320 . S
O305 C326 1.260 . S
O306 Tb263 2.552 . S
O306 C319 1.243 . S
O307 Tb263 2.413 1_554 S
O307 C327 1.256 . S
C308 O297 1.283 . S
C308 O300 1.243 . S
C309 C311 1.382 . S
C309 C313 1.393 . S
C309 C316 1.500 . S
C310 C311 1.400 . S
C310 C312 1.384 . S
C311 C309 1.382 . S
C311 C310 1.400 . S
C311 H328 0.930 . S
C312 C310 1.384 . S
C312 C314 1.392 . S
C312 H329 0.931 . S
C313 C309 1.393 . S
C313 C314 1.401 . S
C313 H330 0.930 . S
C314 C312 1.392 . S
C314 C313 1.401 . S
C314 H331 0.930 . S
C315 O298 1.262 . S
C315 O299 1.260 . S
C316 Tb252 2.833 . S
C316 O296 1.251 . S
C316 O301 1.256 . S
C316 C309 1.500 . S
C317 H282 0.929 . S
C317 C295 1.444 1_565 S
C317 C318 1.317 . S
C318 H280 0.930 . S
C318 C286 1.432 . S
C318 C317 1.317 . S
C319 O303 1.283 . S
C319 O306 1.243 . S
C320 C321 1.382 . S
C320 C324 1.393 . S
C320 C327 1.500 . S
C321 C320 1.382 . S
C321 C322 1.400 . S
C321 H332 0.930 . S
C322 C321 1.400 . S
C322 C323 1.384 . S
C323 C322 1.384 . S
C323 C325 1.392 . S
C323 H333 0.931 . S
C324 C320 1.393 . S
C324 C325 1.401 . S
C324 H334 0.930 . S
C325 C323 1.392 . S
C325 C324 1.401 . S
C325 H335 0.930 . S
C326 O304 1.262 . S
C326 O305 1.260 . S
C327 Tb263 2.833 1_554 S
C327 O302 1.251 . S
C327 O307 1.256 . S
C327 C320 1.500 . S
H328 C311 0.930 . S
H329 C312 0.931 . S
H330 C313 0.930 . S
H331 C314 0.930 . S
H332 C321 0.930 . S
H333 C323 0.931 . S
H334 C324 0.930 . S
H335 C325 0.930 . S
Tb336 N367 2.660 . S
Tb336 N374 2.600 . S
Tb336 O380 2.546 1_556 S
Tb336 O381 2.610 . S
Tb336 O383 2.320 . S
Tb336 O384 2.552 . S
Tb336 O385 2.413 1_556 S
Tb336 O387 2.362 . S
Tb336 O388 2.421 . S
Tb336 C400 2.833 1_556 S
C337 C340 1.432 . S
C337 C341 1.414 . S
C337 N344 1.359 . S
C338 C340 1.417 . S
C338 C342 1.432 1_455 S
C338 C350 1.410 1_455 S
C339 C341 1.444 1_655 S
C339 C342 1.317 . S
C339 H362 0.929 . S
C340 C337 1.432 . S
C340 C338 1.417 . S
C340 N348 1.360 . S
C341 C337 1.414 . S
C341 C339 1.444 1_455 S
C341 C346 1.385 . S
C342 C338 1.432 1_655 S
C342 C339 1.317 . S
C342 H354 0.930 . S
C343 C345 1.392 . S
C343 C346 1.370 . S
C343 H355 0.931 . S
N344 C337 1.359 . S
N344 C345 1.327 . S
N344 Tb347 2.600 . S
C345 C343 1.392 . S
C345 N344 1.327 . S
C345 H352 0.930 . S
C346 C341 1.385 . S
C346 C343 1.370 . S
C346 H365 0.930 . S
Tb347 N344 2.600 . S
Tb347 N348 2.660 . S
Tb347 O381 2.362 . S
Tb347 O382 2.421 . S
Tb347 O386 2.546 . S
Tb347 O387 2.610 . S
Tb347 O389 2.320 . S
Tb347 O390 2.552 . S
Tb347 O391 2.413 . S
Tb347 C411 2.833 . S
N348 C340 1.360 . S
N348 Tb347 2.660 . S
N348 C349 1.305 . S
C349 N348 1.305 . S
C349 C351 1.407 . S
C349 H356 0.930 . S
C350 C338 1.410 1_655 S
C350 C351 1.345 1_655 S
C350 H358 0.930 . S
C351 C349 1.407 . S
C351 C350 1.345 1_455 S
C351 H353 0.930 . S
H352 C345 0.930 . S
H353 C351 0.930 . S
H354 C342 0.930 . S
H355 C343 0.931 . S
H356 C349 0.930 . S
H357 C371 0.930 . S
H358 C350 0.930 . S
H359 C377 0.930 . S
H360 C368 0.930 . S
H361 C375 0.931 . S
H362 C339 0.929 . S
H363 C369 0.930 . S
H364 C402 0.930 . S
H365 C346 0.930 . S
H366 C401 0.929 . S
N367 Tb336 2.660 . S
N367 C368 1.305 . S
N367 C372 1.360 . S
C368 H360 0.930 . S
C368 N367 1.305 . S
C368 C371 1.407 . S
C369 H363 0.930 . S
C369 C370 1.410 1_556 S
C369 C371 1.345 . S
C370 C369 1.410 1_554 S
C370 C372 1.417 1_554 S
C370 C402 1.432 . S
C371 H357 0.930 . S
C371 C368 1.407 . S
C371 C369 1.345 . S
C372 N367 1.360 . S
C372 C370 1.417 1_556 S
C372 C376 1.432 . S
H373 C378 0.930 . S
N374 Tb336 2.600 . S
N374 C376 1.360 . S
N374 C377 1.327 . S
C375 H361 0.931 . S
C375 C377 1.392 1_554 S
C375 C378 1.370 . S
C376 C372 1.432 . S
C376 N374 1.360 . S
C376 C379 1.413 1_556 S
C377 H359 0.930 . S
C377 N374 1.327 . S
C377 C375 1.392 1_556 S
C378 H373 0.930 . S
C378 C375 1.370 . S
C378 C379 1.385 . S
C379 C376 1.413 1_554 S
C379 C378 1.385 . S
C379 C401 1.444 . S
O380 Tb336 2.546 1_554 S
O380 C400 1.251 . S
O381 Tb336 2.610 . S
O381 Tb347 2.362 . S
O381 C392 1.283 . S
O382 Tb347 2.421 . S
O382 C399 1.262 . S
O383 Tb336 2.320 . S
O383 C399 1.260 . S
O384 Tb336 2.552 . S
O384 C392 1.243 . S
O385 Tb336 2.413 1_554 S
O385 C400 1.256 . S
O386 Tb347 2.546 . S
O386 C411 1.251 . S
O387 Tb336 2.362 . S
O387 Tb347 2.610 . S
O387 C403 1.283 . S
O388 Tb336 2.421 . S
O388 C410 1.262 . S
O389 Tb347 2.320 . S
O389 C410 1.260 . S
O390 Tb347 2.552 . S
O390 C403 1.243 . S
O391 Tb347 2.413 . S
O391 C411 1.256 . S
C392 O381 1.283 . S
C392 O384 1.243 . S
C393 C395 1.382 . S
C393 C397 1.393 . S
C393 C400 1.500 . S
C394 C395 1.400 . S
C394 C396 1.384 . S
C395 C393 1.382 . S
C395 C394 1.400 . S
C395 H412 0.930 . S
C396 C394 1.384 . S
C396 C398 1.392 . S
C396 H413 0.931 . S
C397 C393 1.393 . S
C397 C398 1.401 . S
C397 H414 0.930 . S
C398 C396 1.392 . S
C398 C397 1.401 . S
C398 H415 0.930 . S
C399 O382 1.262 . S
C399 O383 1.260 . S
C400 Tb336 2.833 1_554 S
C400 O380 1.251 . S
C400 O385 1.256 . S
C400 C393 1.500 . S
C401 H366 0.929 . S
C401 C379 1.444 . S
C401 C402 1.317 . S
C402 H364 0.930 . S
C402 C370 1.432 . S
C402 C401 1.317 . S
C403 O387 1.283 . S
C403 O390 1.243 . S
C404 C405 1.382 . S
C404 C408 1.393 . S
C404 C411 1.500 . S
C405 C404 1.382 . S
C405 C406 1.400 . S
C405 H416 0.930 . S
C406 C405 1.400 . S
C406 C407 1.384 . S
C407 C406 1.384 . S
C407 C409 1.392 . S
C407 H417 0.931 . S
C408 C404 1.393 . S
C408 C409 1.401 . S
C408 H418 0.930 . S
C409 C407 1.392 . S
C409 C408 1.401 . S
C409 H419 0.930 . S
C410 O388 1.262 . S
C410 O389 1.260 . S
C411 Tb347 2.833 . S
C411 O386 1.251 . S
C411 O391 1.256 . S
C411 C404 1.500 . S
H412 C395 0.930 . S
H413 C396 0.931 . S
H414 C397 0.930 . S
H415 C398 0.930 . S
H416 C405 0.930 . S
H417 C407 0.931 . S
H418 C408 0.930 . S
H419 C409 0.930 . S
Tb420 N451 2.660 . S
Tb420 N458 2.600 . S
Tb420 O464 2.546 1_554 S
Tb420 O465 2.610 . S
Tb420 O467 2.320 . S
Tb420 O468 2.552 . S
Tb420 O469 2.413 1_554 S
Tb420 O471 2.362 . S
Tb420 O472 2.421 . S
Tb420 C484 2.833 1_554 S
C421 C424 1.432 . S
C421 C425 1.414 . S
C421 N428 1.359 . S
C422 C424 1.417 . S
C422 C426 1.432 1_655 S
C422 C434 1.410 1_655 S
C423 C425 1.444 1_455 S
C423 C426 1.317 . S
C423 H446 0.929 . S
C424 C421 1.432 . S
C424 C422 1.417 . S
C424 N432 1.360 . S
C425 C421 1.414 . S
C425 C423 1.444 1_655 S
C425 C430 1.385 . S
C426 C422 1.432 1_455 S
C426 C423 1.317 . S
C426 H438 0.930 . S
C427 C429 1.392 . S
C427 C430 1.370 . S
C427 H439 0.931 1_565 S
N428 C421 1.359 . S
N428 C429 1.327 . S
N428 Tb431 2.600 . S
C429 C427 1.392 . S
C429 N428 1.327 . S
C429 H436 0.930 . S
C430 C425 1.385 . S
C430 C427 1.370 . S
C430 H449 0.930 1_565 S
Tb431 N428 2.600 . S
Tb431 N432 2.660 . S
Tb431 O465 2.362 . S
Tb431 O466 2.421 . S
Tb431 O470 2.546 . S
Tb431 O471 2.610 . S
Tb431 O473 2.320 . S
Tb431 O474 2.552 . S
Tb431 O475 2.413 . S
Tb431 C495 2.833 . S
N432 C424 1.360 . S
N432 Tb431 2.660 . S
N432 C433 1.305 . S
C433 N432 1.305 . S
C433 C435 1.407 . S
C433 H440 0.930 . S
C434 C422 1.410 1_455 S
C434 C435 1.345 1_455 S
C434 H442 0.930 . S
C435 C433 1.407 . S
C435 C434 1.345 1_655 S
C435 H437 0.930 . S
H436 C429 0.930 . S
H437 C435 0.930 . S
H438 C426 0.930 . S
H439 C427 0.931 1_545 S
H440 C433 0.930 . S
H441 C455 0.930 . S
H442 C434 0.930 . S
H443 C461 0.930 . S
H444 C452 0.930 . S
H445 C459 0.931 . S
H446 C423 0.929 . S
H447 C453 0.930 . S
H448 C486 0.930 . S
H449 C430 0.930 1_545 S
H450 C485 0.929 . S
N451 Tb420 2.660 . S
N451 C452 1.305 . S
N451 C456 1.360 . S
C452 H444 0.930 . S
C452 N451 1.305 . S
C452 C455 1.407 . S
C453 H447 0.930 . S
C453 C454 1.410 . S
C453 C455 1.345 . S
C454 C453 1.410 . S
C454 C456 1.417 . S
C454 C486 1.432 1_554 S
C455 H441 0.930 . S
C455 C452 1.407 . S
C455 C453 1.345 . S
C456 N451 1.360 . S
C456 C454 1.417 . S
C456 C460 1.432 . S
H457 C462 0.930 . S
N458 Tb420 2.600 . S
N458 C460 1.359 . S
N458 C461 1.327 . S
C459 H445 0.931 . S
C459 C461 1.392 1_556 S
C459 C462 1.370 . S
C460 C456 1.432 . S
C460 N458 1.359 . S
C460 C463 1.414 1_554 S
C461 H443 0.930 . S
C461 N458 1.327 . S
C461 C459 1.392 1_554 S
C462 H457 0.930 . S
C462 C459 1.370 . S
C462 C463 1.385 . S
C463 C460 1.414 1_556 S
C463 C462 1.385 . S
C463 C485 1.444 . S
O464 Tb420 2.546 1_556 S
O464 C484 1.251 . S
O465 Tb420 2.610 . S
O465 Tb431 2.362 . S
O465 C476 1.283 . S
O466 Tb431 2.421 . S
O466 C483 1.262 . S
O467 Tb420 2.320 . S
O467 C483 1.260 . S
O468 Tb420 2.552 . S
O468 C476 1.243 . S
O469 Tb420 2.413 1_556 S
O469 C484 1.256 . S
O470 Tb431 2.546 . S
O470 C495 1.251 . S
O471 Tb420 2.362 . S
O471 Tb431 2.610 . S
O471 C487 1.283 . S
O472 Tb420 2.421 . S
O472 C494 1.262 . S
O473 Tb431 2.320 . S
O473 C494 1.260 . S
O474 Tb431 2.552 . S
O474 C487 1.243 . S
O475 Tb431 2.413 . S
O475 C495 1.256 . S
C476 O465 1.283 . S
C476 O468 1.243 . S
C477 C479 1.382 . S
C477 C481 1.393 . S
C477 C484 1.500 . S
C478 C479 1.400 . S
C478 C480 1.384 . S
C479 C477 1.382 . S
C479 C478 1.400 . S
C479 H496 0.930 . S
C480 C478 1.384 . S
C480 C482 1.392 . S
C480 H497 0.931 . S
C481 C477 1.393 . S
C481 C482 1.401 . S
C481 H498 0.930 . S
C482 C480 1.392 . S
C482 C481 1.401 . S
C482 H499 0.930 . S
C483 O466 1.262 . S
C483 O467 1.260 . S
C484 Tb420 2.833 1_556 S
C484 O464 1.251 . S
C484 O469 1.256 . S
C484 C477 1.500 . S
C485 H450 0.929 . S
C485 C463 1.444 . S
C485 C486 1.317 . S
C486 H448 0.930 . S
C486 C454 1.432 1_556 S
C486 C485 1.317 . S
C487 O471 1.283 . S
C487 O474 1.243 . S
C488 C489 1.382 . S
C488 C492 1.393 . S
C488 C495 1.500 . S
C489 C488 1.382 . S
C489 C490 1.400 . S
C489 H500 0.930 . S
C490 C489 1.400 . S
C490 C491 1.384 . S
C491 C490 1.384 . S
C491 C493 1.392 . S
C491 H501 0.931 . S
C492 C488 1.393 . S
C492 C493 1.401 . S
C492 H502 0.930 . S
C493 C491 1.392 . S
C493 C492 1.401 . S
C493 H503 0.930 . S
C494 O472 1.262 . S
C494 O473 1.260 . S
C495 Tb431 2.833 . S
C495 O470 1.251 . S
C495 O475 1.256 . S
C495 C488 1.500 . S
H496 C479 0.930 . S
H497 C480 0.931 . S
H498 C481 0.930 . S
H499 C482 0.930 . S
H500 C489 0.930 . S
H501 C491 0.931 . S
H502 C492 0.930 . S
H503 C493 0.930 . S
Tb504 N535 2.660 . S
Tb504 N542 2.600 . S
Tb504 O548 2.546 . S
Tb504 O549 2.610 . S
Tb504 O551 2.320 . S
Tb504 O552 2.552 . S
Tb504 O553 2.413 . S
Tb504 O555 2.362 . S
Tb504 O556 2.421 . S
Tb504 C568 2.833 . S
C505 C508 1.432 . S
C505 C509 1.414 . S
C505 N512 1.359 . S
C506 C508 1.417 . S
C506 C510 1.432 . S
C506 C518 1.410 . S
C507 C509 1.444 . S
C507 C510 1.317 . S
C507 H530 0.929 . S
C508 C505 1.432 . S
C508 C506 1.417 . S
C508 N516 1.360 . S
C509 C505 1.414 . S
C509 C507 1.444 . S
C509 C514 1.385 . S
C510 C506 1.432 . S
C510 C507 1.317 . S
C510 H522 0.930 . S
C511 C513 1.392 . S
C511 C514 1.370 . S
C511 H523 0.931 . S
N512 C505 1.359 . S
N512 C513 1.327 . S
N512 Tb515 2.600 . S
C513 C511 1.392 . S
C513 N512 1.327 . S
C513 H520 0.930 . S
C514 C509 1.385 . S
C514 C511 1.370 . S
C514 H533 0.930 . S
Tb515 N512 2.600 . S
Tb515 N516 2.660 . S
Tb515 O549 2.362 . S
Tb515 O550 2.421 . S
Tb515 O554 2.546 . S
Tb515 O555 2.610 . S
Tb515 O557 2.320 . S
Tb515 O558 2.552 . S
Tb515 O559 2.413 . S
Tb515 C579 2.833 . S
N516 C508 1.360 . S
N516 Tb515 2.660 . S
N516 C517 1.305 . S
C517 N516 1.305 . S
C517 C519 1.407 . S
C517 H524 0.930 . S
C518 C506 1.410 . S
C518 C519 1.345 . S
C518 H526 0.930 . S
C519 C517 1.407 . S
C519 C518 1.345 . S
C519 H521 0.930 . S
H520 C513 0.930 . S
H521 C519 0.930 . S
H522 C510 0.930 . S
H523 C511 0.931 . S
H524 C517 0.930 . S
H525 C539 0.930 . S
H526 C518 0.930 . S
H527 C545 0.930 . S
H528 C536 0.930 . S
H529 C543 0.931 . S
H530 C507 0.929 . S
H531 C537 0.930 . S
H532 C570 0.930 . S
H533 C514 0.930 . S
H534 C569 0.929 . S
N535 Tb504 2.660 . S
N535 C536 1.305 . S
N535 C540 1.360 . S
C536 H528 0.930 . S
C536 N535 1.305 . S
C536 C539 1.407 . S
C537 H531 0.930 . S
C537 C538 1.410 . S
C537 C539 1.345 . S
C538 C537 1.410 . S
C538 C540 1.417 . S
C538 C570 1.432 . S
C539 H525 0.930 . S
C539 C536 1.407 . S
C539 C537 1.345 . S
C540 N535 1.360 . S
C540 C538 1.417 . S
C540 C544 1.432 . S
H541 C546 0.930 . S
N542 Tb504 2.600 . S
N542 C544 1.359 . S
N542 C545 1.327 . S
C543 H529 0.931 . S
C543 C545 1.392 . S
C543 C546 1.370 . S
C544 C540 1.432 . S
C544 N542 1.359 . S
C544 C547 1.414 . S
C545 H527 0.930 . S
C545 N542 1.327 . S
C545 C543 1.392 . S
C546 H541 0.930 . S
C546 C543 1.370 . S
C546 C547 1.385 . S
C547 C544 1.414 . S
C547 C546 1.385 . S
C547 C569 1.444 . S
O548 Tb504 2.546 . S
O548 C568 1.251 . S
O549 Tb504 2.610 . S
O549 Tb515 2.362 . S
O549 C560 1.283 . S
O550 Tb515 2.421 . S
O550 C567 1.262 . S
O551 Tb504 2.320 . S
O551 C567 1.260 . S
O552 Tb504 2.552 . S
O552 C560 1.243 . S
O553 Tb504 2.413 . S
O553 C568 1.256 . S
O554 Tb515 2.546 . S
O554 C579 1.251 . S
O555 Tb504 2.362 . S
O555 Tb515 2.610 . S
O555 C571 1.283 . S
O556 Tb504 2.421 . S
O556 C578 1.262 . S
O557 Tb515 2.320 . S
O557 C578 1.260 . S
O558 Tb515 2.552 . S
O558 C571 1.243 . S
O559 Tb515 2.413 . S
O559 C579 1.256 . S
C560 O549 1.283 . S
C560 O552 1.243 . S
C561 C563 1.382 . S
C561 C565 1.393 . S
C561 C568 1.500 . S
C562 C563 1.400 1_556 S
C562 C564 1.384 . S
C563 C561 1.382 . S
C563 C562 1.400 1_554 S
C563 H580 0.930 . S
C564 C562 1.384 . S
C564 C566 1.392 . S
C564 H581 0.931 . S
C565 C561 1.393 . S
C565 C566 1.401 1_554 S
C565 H582 0.930 . S
C566 C564 1.392 . S
C566 C565 1.401 1_556 S
C566 H583 0.930 . S
C567 O550 1.262 . S
C567 O551 1.260 . S
C568 Tb504 2.833 . S
C568 O548 1.251 . S
C568 O553 1.256 . S
C568 C561 1.500 . S
C569 H534 0.929 . S
C569 C547 1.444 . S
C569 C570 1.317 . S
C570 H532 0.930 . S
C570 C538 1.432 . S
C570 C569 1.317 . S
C571 O555 1.283 . S
C571 O558 1.243 . S
C572 C573 1.382 . S
C572 C576 1.393 . S
C572 C579 1.500 . S
C573 C572 1.382 . S
C573 C574 1.400 . S
C573 H584 0.930 . S
C574 C573 1.400 . S
C574 C575 1.384 . S
C575 C574 1.384 . S
C575 C577 1.392 . S
C575 H585 0.931 . S
C576 C572 1.393 . S
C576 C577 1.401 . S
C576 H586 0.930 . S
C577 C575 1.392 . S
C577 C576 1.401 . S
C577 H587 0.930 . S
C578 O556 1.262 . S
C578 O557 1.260 . S
C579 Tb515 2.833 . S
C579 O554 1.251 . S
C579 O559 1.256 . S
C579 C572 1.500 . S
H580 C563 0.930 . S
H581 C564 0.931 . S
H582 C565 0.930 . S
H583 C566 0.930 . S
H584 C573 0.930 . S
H585 C575 0.931 . S
H586 C576 0.930 . S
H587 C577 0.930 . S
Tb588 N619 2.660 . S
Tb588 N626 2.600 . S
Tb588 O632 2.546 . S
Tb588 O633 2.610 . S
Tb588 O635 2.320 . S
Tb588 O636 2.552 . S
Tb588 O637 2.413 . S
Tb588 O639 2.362 . S
Tb588 O640 2.421 . S
Tb588 C652 2.833 . S
C589 C592 1.432 . S
C589 C593 1.414 . S
C589 N596 1.359 . S
C590 C592 1.417 . S
C590 C594 1.432 . S
C590 C602 1.410 . S
C591 C593 1.444 . S
C591 C594 1.317 . S
C591 H614 0.929 . S
C592 C589 1.432 . S
C592 C590 1.417 . S
C592 N600 1.360 . S
C593 C589 1.414 . S
C593 C591 1.444 . S
C593 C598 1.385 . S
C594 C590 1.432 . S
C594 C591 1.317 . S
C594 H606 0.930 . S
C595 C597 1.392 . S
C595 C598 1.370 . S
C595 H607 0.931 1_545 S
N596 C589 1.359 . S
N596 C597 1.327 . S
N596 Tb599 2.600 . S
C597 C595 1.392 . S
C597 N596 1.327 . S
C597 H604 0.930 . S
C598 C593 1.385 . S
C598 C595 1.370 . S
C598 H617 0.930 . S
Tb599 N596 2.600 . S
Tb599 N600 2.660 . S
Tb599 O633 2.362 . S
Tb599 O634 2.421 . S
Tb599 O638 2.546 . S
Tb599 O639 2.610 . S
Tb599 O641 2.320 . S
Tb599 O642 2.552 . S
Tb599 O643 2.413 . S
Tb599 C663 2.833 . S
N600 C592 1.360 . S
N600 Tb599 2.660 . S
N600 C601 1.305 . S
C601 N600 1.305 . S
C601 C603 1.407 . S
C601 H608 0.930 . S
C602 C590 1.410 . S
C602 C603 1.345 . S
C602 H610 0.930 . S
C603 C601 1.407 . S
C603 C602 1.345 . S
C603 H605 0.930 . S
H604 C597 0.930 . S
H605 C603 0.930 . S
H606 C594 0.930 . S
H607 C595 0.931 1_565 S
H608 C601 0.930 . S
H609 C623 0.930 . S
H610 C602 0.930 . S
H611 C629 0.930 . S
H612 C620 0.930 . S
H613 C627 0.931 . S
H614 C591 0.929 . S
H615 C621 0.930 . S
H616 C654 0.930 . S
H617 C598 0.930 . S
H618 C653 0.929 . S
N619 Tb588 2.660 . S
N619 C620 1.305 . S
N619 C624 1.360 . S
C620 H612 0.930 . S
C620 N619 1.305 . S
C620 C623 1.407 . S
C621 H615 0.930 . S
C621 C622 1.410 . S
C621 C623 1.345 . S
C622 C621 1.410 . S
C622 C624 1.417 . S
C622 C654 1.432 . S
C623 H609 0.930 . S
C623 C620 1.407 . S
C623 C621 1.345 . S
C624 N619 1.360 . S
C624 C622 1.417 . S
C624 C628 1.432 . S
H625 C630 0.930 . S
N626 Tb588 2.600 . S
N626 C628 1.359 . S
N626 C629 1.327 . S
C627 H613 0.931 . S
C627 C629 1.392 . S
C627 C630 1.370 . S
C628 C624 1.432 . S
C628 N626 1.359 . S
C628 C631 1.414 . S
C629 H611 0.930 . S
C629 N626 1.327 . S
C629 C627 1.392 . S
C630 H625 0.930 . S
C630 C627 1.370 . S
C630 C631 1.385 . S
C631 C628 1.414 . S
C631 C630 1.385 . S
C631 C653 1.444 . S
O632 Tb588 2.546 . S
O632 C652 1.251 . S
O633 Tb588 2.610 . S
O633 Tb599 2.362 . S
O633 C644 1.283 . S
O634 Tb599 2.421 . S
O634 C651 1.262 . S
O635 Tb588 2.320 . S
O635 C651 1.260 . S
O636 Tb588 2.552 . S
O636 C644 1.243 . S
O637 Tb588 2.413 . S
O637 C652 1.256 . S
O638 Tb599 2.546 . S
O638 C663 1.251 . S
O639 Tb588 2.362 . S
O639 Tb599 2.610 . S
O639 C655 1.283 . S
O640 Tb588 2.421 . S
O640 C662 1.262 . S
O641 Tb599 2.320 . S
O641 C662 1.260 . S
O642 Tb599 2.552 . S
O642 C655 1.243 . S
O643 Tb599 2.413 . S
O643 C663 1.256 . S
C644 O633 1.283 . S
C644 O636 1.243 . S
C645 C647 1.382 . S
C645 C649 1.393 . S
C645 C652 1.500 . S
C646 C647 1.400 . S
C646 C648 1.384 . S
C647 C645 1.382 . S
C647 C646 1.400 . S
C647 H664 0.930 . S
C648 C646 1.384 . S
C648 C650 1.392 . S
C648 H665 0.931 . S
C649 C645 1.393 . S
C649 C650 1.401 . S
C649 H666 0.930 . S
C650 C648 1.392 . S
C650 C649 1.401 . S
C650 H667 0.930 . S
C651 O634 1.262 . S
C651 O635 1.260 . S
C652 Tb588 2.833 . S
C652 O632 1.251 . S
C652 O637 1.256 . S
C652 C645 1.500 . S
C653 H618 0.929 . S
C653 C631 1.444 . S
C653 C654 1.317 . S
C654 H616 0.930 . S
C654 C622 1.432 . S
C654 C653 1.317 . S
C655 O639 1.283 . S
C655 O642 1.243 . S
C656 C657 1.382 . S
C656 C660 1.393 . S
C656 C663 1.500 . S
C657 C656 1.382 . S
C657 C658 1.400 1_556 S
C657 H668 0.930 . S
C658 C657 1.400 1_554 S
C658 C659 1.384 . S
C659 C658 1.384 . S
C659 C661 1.392 . S
C659 H669 0.931 . S
C660 C656 1.393 . S
C660 C661 1.401 1_556 S
C660 H670 0.930 . S
C661 C659 1.392 . S
C661 C660 1.401 1_554 S
C661 H671 0.930 . S
C662 O640 1.262 . S
C662 O641 1.260 . S
C663 Tb599 2.833 . S
C663 O638 1.251 . S
C663 O643 1.256 . S
C663 C656 1.500 . S
H664 C647 0.930 . S
H665 C648 0.931 . S
H666 C649 0.930 . S
H667 C650 0.930 . S
H668 C657 0.930 . S
H669 C659 0.931 . S
H670 C660 0.930 . S
H671 C661 0.930 . S
Tb672 N703 2.660 . S
Tb672 N710 2.600 . S
Tb672 O716 2.546 . S
Tb672 O717 2.610 . S
Tb672 O719 2.320 . S
Tb672 O720 2.552 . S
Tb672 O721 2.413 . S
Tb672 O723 2.362 . S
Tb672 O724 2.421 . S
Tb672 C736 2.833 . S
C673 C676 1.432 . S
C673 C677 1.414 1_556 S
C673 N680 1.359 . S
C674 C676 1.417 . S
C674 C678 1.432 1_556 S
C674 C686 1.410 . S
C675 C677 1.444 . S
C675 C678 1.317 . S
C675 H698 0.929 . S
C676 C673 1.432 . S
C676 C674 1.417 . S
C676 N684 1.360 . S
C677 C673 1.414 1_554 S
C677 C675 1.444 . S
C677 C682 1.385 . S
C678 C674 1.432 1_554 S
C678 C675 1.317 . S
C678 H690 0.930 . S
C679 C681 1.392 1_554 S
C679 C682 1.370 . S
C679 H691 0.931 . S
N680 C673 1.359 . S
N680 C681 1.327 . S
N680 Tb683 2.600 . S
C681 C679 1.392 1_556 S
C681 N680 1.327 . S
C681 H688 0.930 . S
C682 C677 1.385 . S
C682 C679 1.370 . S
C682 H701 0.930 . S
Tb683 N680 2.600 . S
Tb683 N684 2.660 . S
Tb683 O717 2.362 . S
Tb683 O718 2.421 . S
Tb683 O722 2.546 1_556 S
Tb683 O723 2.610 . S
Tb683 O725 2.320 . S
Tb683 O726 2.552 . S
Tb683 O727 2.413 1_556 S
Tb683 C747 2.833 1_556 S
N684 C676 1.360 . S
N684 Tb683 2.660 . S
N684 C685 1.305 . S
C685 N684 1.305 . S
C685 C687 1.407 . S
C685 H692 0.930 . S
C686 C674 1.410 . S
C686 C687 1.345 . S
C686 H694 0.930 . S
C687 C685 1.407 . S
C687 C686 1.345 . S
C687 H689 0.930 . S
H688 C681 0.930 . S
H689 C687 0.930 . S
H690 C678 0.930 . S
H691 C679 0.931 . S
H692 C685 0.930 . S
H693 C707 0.930 . S
H694 C686 0.930 . S
H695 C713 0.930 . S
H696 C704 0.930 . S
H697 C711 0.931 . S
H698 C675 0.929 . S
H699 C705 0.930 . S
H700 C738 0.930 . S
H701 C682 0.930 . S
H702 C737 0.929 . S
N703 Tb672 2.660 . S
N703 C704 1.305 . S
N703 C708 1.360 . S
C704 H696 0.930 . S
C704 N703 1.305 . S
C704 C707 1.407 . S
C705 H699 0.930 . S
C705 C706 1.410 1_455 S
C705 C707 1.345 1_455 S
C706 C705 1.410 1_655 S
C706 C708 1.417 . S
C706 C738 1.432 1_655 S
C707 H693 0.930 . S
C707 C704 1.407 . S
C707 C705 1.345 1_655 S
C708 N703 1.360 . S
C708 C706 1.417 . S
C708 C712 1.432 . S
H709 C714 0.930 . S
N710 Tb672 2.600 . S
N710 C712 1.359 . S
N710 C713 1.327 . S
C711 H697 0.931 . S
C711 C713 1.392 . S
C711 C714 1.370 . S
C712 C708 1.432 . S
C712 N710 1.359 . S
C712 C715 1.414 . S
C713 H695 0.930 . S
C713 N710 1.327 . S
C713 C711 1.392 . S
C714 H709 0.930 . S
C714 C711 1.370 . S
C714 C715 1.385 . S
C715 C712 1.414 . S
C715 C714 1.385 . S
C715 C737 1.444 1_655 S
O716 Tb672 2.546 . S
O716 C736 1.251 . S
O717 Tb672 2.610 . S
O717 Tb683 2.362 . S
O717 C728 1.283 . S
O718 Tb683 2.421 . S
O718 C735 1.262 . S
O719 Tb672 2.320 . S
O719 C735 1.260 . S
O720 Tb672 2.552 . S
O720 C728 1.243 . S
O721 Tb672 2.413 . S
O721 C736 1.256 . S
O722 Tb683 2.546 1_554 S
O722 C747 1.251 . S
O723 Tb672 2.362 . S
O723 Tb683 2.610 . S
O723 C739 1.283 . S
O724 Tb672 2.421 . S
O724 C746 1.262 . S
O725 Tb683 2.320 . S
O725 C746 1.260 . S
O726 Tb683 2.552 . S
O726 C739 1.243 . S
O727 Tb683 2.413 1_554 S
O727 C747 1.256 . S
C728 O717 1.283 . S
C728 O720 1.243 . S
C729 C731 1.382 . S
C729 C733 1.393 . S
C729 C736 1.500 . S
C730 C731 1.400 . S
C730 C732 1.384 . S
C731 C729 1.382 . S
C731 C730 1.400 . S
C731 H748 0.930 . S
C732 C730 1.384 . S
C732 C734 1.392 . S
C732 H749 0.931 . S
C733 C729 1.393 . S
C733 C734 1.401 . S
C733 H750 0.930 . S
C734 C732 1.392 . S
C734 C733 1.401 . S
C734 H751 0.930 . S
C735 O718 1.262 . S
C735 O719 1.260 . S
C736 Tb672 2.833 . S
C736 O716 1.251 . S
C736 O721 1.256 . S
C736 C729 1.500 . S
C737 H702 0.929 . S
C737 C715 1.444 1_455 S
C737 C738 1.317 . S
C738 H700 0.930 . S
C738 C706 1.432 1_455 S
C738 C737 1.317 . S
C739 O723 1.283 . S
C739 O726 1.243 . S
C740 C741 1.382 . S
C740 C744 1.393 . S
C740 C747 1.500 . S
C741 C740 1.382 . S
C741 C742 1.400 . S
C741 H752 0.930 . S
C742 C741 1.400 . S
C742 C743 1.384 . S
C743 C742 1.384 . S
C743 C745 1.392 . S
C743 H753 0.931 . S
C744 C740 1.393 . S
C744 C745 1.401 . S
C744 H754 0.930 . S
C745 C743 1.392 . S
C745 C744 1.401 . S
C745 H755 0.930 . S
C746 O724 1.262 . S
C746 O725 1.260 . S
C747 Tb683 2.833 1_554 S
C747 O722 1.251 . S
C747 O727 1.256 . S
C747 C740 1.500 . S
H748 C731 0.930 . S
H749 C732 0.931 . S
H750 C733 0.930 . S
H751 C734 0.930 . S
H752 C741 0.930 . S
H753 C743 0.931 . S
H754 C744 0.930 . S
H755 C745 0.930 . S
Tb756 N787 2.660 . S
Tb756 N794 2.600 . S
Tb756 O800 2.546 . S
Tb756 O801 2.610 . S
Tb756 O803 2.320 . S
Tb756 O804 2.552 . S
Tb756 O805 2.413 . S
Tb756 O807 2.362 . S
Tb756 O808 2.421 . S
Tb756 C820 2.833 . S
C757 C760 1.432 . S
C757 C761 1.414 . S
C757 N764 1.359 . S
C758 C760 1.417 . S
C758 C762 1.432 . S
C758 C770 1.410 . S
C759 C761 1.444 . S
C759 C762 1.317 . S
C759 H782 0.929 . S
C760 C757 1.432 . S
C760 C758 1.417 . S
C760 N768 1.360 . S
C761 C757 1.414 . S
C761 C759 1.444 . S
C761 C766 1.385 . S
C762 C758 1.432 . S
C762 C759 1.317 . S
C762 H774 0.930 . S
C763 C765 1.392 . S
C763 C766 1.370 . S
C763 H775 0.931 . S
N764 C757 1.359 . S
N764 C765 1.327 . S
N764 Tb767 2.600 . S
C765 C763 1.392 . S
C765 N764 1.327 . S
C765 H772 0.930 . S
C766 C761 1.385 . S
C766 C763 1.370 . S
C766 H785 0.930 . S
Tb767 N764 2.600 . S
Tb767 N768 2.660 . S
Tb767 O801 2.362 . S
Tb767 O802 2.421 . S
Tb767 O806 2.546 . S
Tb767 O807 2.610 . S
Tb767 O809 2.320 . S
Tb767 O810 2.552 . S
Tb767 O811 2.413 . S
Tb767 C831 2.833 . S
N768 C760 1.360 . S
N768 Tb767 2.660 . S
N768 C769 1.305 . S
C769 N768 1.305 . S
C769 C771 1.407 . S
C769 H776 0.930 . S
C770 C758 1.410 . S
C770 C771 1.345 . S
C770 H778 0.930 . S
C771 C769 1.407 . S
C771 C770 1.345 . S
C771 H773 0.930 . S
H772 C765 0.930 . S
H773 C771 0.930 . S
H774 C762 0.930 . S
H775 C763 0.931 . S
H776 C769 0.930 . S
H777 C791 0.930 . S
H778 C770 0.930 . S
H779 C797 0.930 . S
H780 C788 0.930 . S
H781 C795 0.931 1_565 S
H782 C759 0.929 . S
H783 C789 0.930 . S
H784 C822 0.930 . S
H785 C766 0.930 . S
H786 C821 0.929 . S
N787 Tb756 2.660 . S
N787 C788 1.305 . S
N787 C792 1.360 . S
C788 H780 0.930 . S
C788 N787 1.305 . S
C788 C791 1.407 . S
C789 H783 0.930 . S
C789 C790 1.410 . S
C789 C791 1.345 . S
C790 C789 1.410 . S
C790 C792 1.417 . S
C790 C822 1.432 . S
C791 H777 0.930 . S
C791 C788 1.407 . S
C791 C789 1.345 . S
C792 N787 1.360 . S
C792 C790 1.417 . S
C792 C796 1.432 . S
H793 C798 0.930 . S
N794 Tb756 2.600 . S
N794 C796 1.359 . S
N794 C797 1.327 . S
C795 H781 0.931 1_545 S
C795 C797 1.392 . S
C795 C798 1.370 . S
C796 C792 1.432 . S
C796 N794 1.359 . S
C796 C799 1.414 . S
C797 H779 0.930 . S
C797 N794 1.327 . S
C797 C795 1.392 . S
C798 H793 0.930 . S
C798 C795 1.370 . S
C798 C799 1.385 . S
C799 C796 1.414 . S
C799 C798 1.385 . S
C799 C821 1.444 . S
O800 Tb756 2.546 . S
O800 C820 1.251 . S
O801 Tb756 2.610 . S
O801 Tb767 2.362 . S
O801 C812 1.283 . S
O802 Tb767 2.421 . S
O802 C819 1.262 . S
O803 Tb756 2.320 . S
O803 C819 1.260 . S
O804 Tb756 2.552 . S
O804 C812 1.243 . S
O805 Tb756 2.413 . S
O805 C820 1.256 . S
O806 Tb767 2.546 . S
O806 C831 1.251 . S
O807 Tb756 2.362 . S
O807 Tb767 2.610 . S
O807 C823 1.283 . S
O808 Tb756 2.421 . S
O808 C830 1.262 . S
O809 Tb767 2.320 . S
O809 C830 1.260 . S
O810 Tb767 2.552 . S
O810 C823 1.243 . S
O811 Tb767 2.413 . S
O811 C831 1.256 . S
C812 O801 1.283 . S
C812 O804 1.243 . S
C813 C815 1.382 . S
C813 C817 1.393 . S
C813 C820 1.500 . S
C814 C815 1.400 1_554 S
C814 C816 1.384 . S
C815 C813 1.382 . S
C815 C814 1.400 1_556 S
C815 H832 0.930 . S
C816 C814 1.384 . S
C816 C818 1.392 . S
C816 H833 0.931 . S
C817 C813 1.393 . S
C817 C818 1.401 1_556 S
C817 H834 0.930 . S
C818 C816 1.392 . S
C818 C817 1.401 1_554 S
C818 H835 0.930 . S
C819 O802 1.262 . S
C819 O803 1.260 . S
C820 Tb756 2.833 . S
C820 O800 1.251 . S
C820 O805 1.256 . S
C820 C813 1.500 . S
C821 H786 0.929 . S
C821 C799 1.444 . S
C821 C822 1.317 . S
C822 H784 0.930 . S
C822 C790 1.432 . S
C822 C821 1.317 . S
C823 O807 1.283 . S
C823 O810 1.243 . S
C824 C825 1.382 . S
C824 C828 1.393 . S
C824 C831 1.500 . S
C825 C824 1.382 . S
C825 C826 1.400 . S
C825 H836 0.930 . S
C826 C825 1.400 . S
C826 C827 1.384 . S
C827 C826 1.384 . S
C827 C829 1.392 . S
C827 H837 0.931 . S
C828 C824 1.393 . S
C828 C829 1.401 . S
C828 H838 0.930 . S
C829 C827 1.392 . S
C829 C828 1.401 . S
C829 H839 0.930 . S
C830 O808 1.262 . S
C830 O809 1.260 . S
C831 Tb767 2.833 . S
C831 O806 1.251 . S
C831 O811 1.256 . S
C831 C824 1.500 . S
H832 C815 0.930 . S
H833 C816 0.931 . S
H834 C817 0.930 . S
H835 C818 0.930 . S
H836 C825 0.930 . S
H837 C827 0.931 . S
H838 C828 0.930 . S
H839 C829 0.930 . S
Tb840 N871 2.660 . S
Tb840 N878 2.600 . S
Tb840 O884 2.546 . S
Tb840 O885 2.610 . S
Tb840 O887 2.320 . S
Tb840 O888 2.552 . S
Tb840 O889 2.413 . S
Tb840 O891 2.362 . S
Tb840 O892 2.421 . S
Tb840 C904 2.833 . S
C841 C844 1.432 . S
C841 C845 1.414 . S
C841 N848 1.359 . S
C842 C844 1.417 . S
C842 C846 1.432 . S
C842 C854 1.410 . S
C843 C845 1.444 . S
C843 C846 1.317 . S
C843 H866 0.929 . S
C844 C841 1.432 . S
C844 C842 1.417 . S
C844 N852 1.360 . S
C845 C841 1.414 . S
C845 C843 1.444 . S
C845 C850 1.385 . S
C846 C842 1.432 . S
C846 C843 1.317 . S
C846 H858 0.930 . S
C847 C849 1.392 . S
C847 C850 1.370 . S
C847 H859 0.931 . S
N848 C841 1.359 . S
N848 C849 1.327 . S
N848 Tb851 2.600 . S
C849 C847 1.392 . S
C849 N848 1.327 . S
C849 H856 0.930 . S
C850 C845 1.385 . S
C850 C847 1.370 . S
C850 H869 0.930 . S
Tb851 N848 2.600 . S
Tb851 N852 2.660 . S
Tb851 O885 2.362 . S
Tb851 O886 2.421 . S
Tb851 O890 2.546 . S
Tb851 O891 2.610 . S
Tb851 O893 2.320 . S
Tb851 O894 2.552 . S
Tb851 O895 2.413 . S
Tb851 C915 2.833 . S
N852 C844 1.360 . S
N852 Tb851 2.660 . S
N852 C853 1.305 . S
C853 N852 1.305 . S
C853 C855 1.407 . S
C853 H860 0.930 . S
C854 C842 1.410 . S
C854 C855 1.345 . S
C854 H862 0.930 . S
C855 C853 1.407 . S
C855 C854 1.345 . S
C855 H857 0.930 . S
H856 C849 0.930 . S
H857 C855 0.930 . S
H858 C846 0.930 . S
H859 C847 0.931 . S
H860 C853 0.930 . S
H861 C875 0.930 . S
H862 C854 0.930 . S
H863 C881 0.930 . S
H864 C872 0.930 . S
H865 C879 0.931 . S
H866 C843 0.929 . S
H867 C873 0.930 . S
H868 C906 0.930 . S
H869 C850 0.930 . S
H870 C905 0.929 . S
N871 Tb840 2.660 . S
N871 C872 1.305 . S
N871 C876 1.360 . S
C872 H864 0.930 . S
C872 N871 1.305 . S
C872 C875 1.407 . S
C873 H867 0.930 . S
C873 C874 1.410 . S
C873 C875 1.345 . S
C874 C873 1.410 . S
C874 C876 1.417 . S
C874 C906 1.432 . S
C875 H861 0.930 . S
C875 C872 1.407 . S
C875 C873 1.345 . S
C876 N871 1.360 . S
C876 C874 1.417 . S
C876 C880 1.432 . S
H877 C882 0.930 . S
N878 Tb840 2.600 . S
N878 C880 1.359 . S
N878 C881 1.327 . S
C879 H865 0.931 . S
C879 C881 1.392 . S
C879 C882 1.370 . S
C880 C876 1.432 . S
C880 N878 1.359 . S
C880 C883 1.414 . S
C881 H863 0.930 . S
C881 N878 1.327 . S
C881 C879 1.392 . S
C882 H877 0.930 . S
C882 C879 1.370 . S
C882 C883 1.385 . S
C883 C880 1.414 . S
C883 C882 1.385 . S
C883 C905 1.444 . S
O884 Tb840 2.546 . S
O884 C904 1.251 . S
O885 Tb840 2.610 . S
O885 Tb851 2.362 . S
O885 C896 1.283 . S
O886 Tb851 2.421 . S
O886 C903 1.262 . S
O887 Tb840 2.320 . S
O887 C903 1.260 . S
O888 Tb840 2.552 . S
O888 C896 1.243 . S
O889 Tb840 2.413 . S
O889 C904 1.256 . S
O890 Tb851 2.546 . S
O890 C915 1.251 . S
O891 Tb840 2.362 . S
O891 Tb851 2.610 . S
O891 C907 1.283 . S
O892 Tb840 2.421 . S
O892 C914 1.262 . S
O893 Tb851 2.320 . S
O893 C914 1.260 . S
O894 Tb851 2.552 . S
O894 C907 1.243 . S
O895 Tb851 2.413 . S
O895 C915 1.256 . S
C896 O885 1.283 . S
C896 O888 1.243 . S
C897 C899 1.382 . S
C897 C901 1.393 . S
C897 C904 1.500 . S
C898 C899 1.400 . S
C898 C900 1.384 . S
C899 C897 1.382 . S
C899 C898 1.400 . S
C899 H916 0.930 . S
C900 C898 1.384 . S
C900 C902 1.392 . S
C900 H917 0.931 . S
C901 C897 1.393 . S
C901 C902 1.401 . S
C901 H918 0.930 . S
C902 C900 1.392 . S
C902 C901 1.401 . S
C902 H919 0.930 . S
C903 O886 1.262 . S
C903 O887 1.260 . S
C904 Tb840 2.833 . S
C904 O884 1.251 . S
C904 O889 1.256 . S
C904 C897 1.500 . S
C905 H870 0.929 . S
C905 C883 1.444 . S
C905 C906 1.317 . S
C906 H868 0.930 . S
C906 C874 1.432 . S
C906 C905 1.317 . S
C907 O891 1.283 . S
C907 O894 1.243 . S
C908 C909 1.382 . S
C908 C912 1.393 . S
C908 C915 1.500 . S
C909 C908 1.382 . S
C909 C910 1.400 1_554 S
C909 H920 0.930 . S
C910 C909 1.400 1_556 S
C910 C911 1.384 . S
C911 C910 1.384 . S
C911 C913 1.392 . S
C911 H921 0.931 . S
C912 C908 1.393 . S
C912 C913 1.401 1_554 S
C912 H922 0.930 . S
C913 C911 1.392 . S
C913 C912 1.401 1_556 S
C913 H923 0.930 . S
C914 O892 1.262 . S
C914 O893 1.260 . S
C915 Tb851 2.833 . S
C915 O890 1.251 . S
C915 O895 1.256 . S
C915 C908 1.500 . S
H916 C899 0.930 . S
H917 C900 0.931 . S
H918 C901 0.930 . S
H919 C902 0.930 . S
H920 C909 0.930 . S
H921 C911 0.931 . S
H922 C912 0.930 . S
H923 C913 0.930 . S
Tb924 N955 2.660 . S
Tb924 N962 2.600 . S
Tb924 O968 2.546 1_554 S
Tb924 O969 2.610 . S
Tb924 O971 2.320 . S
Tb924 O972 2.552 . S
Tb924 O973 2.413 1_554 S
Tb924 O975 2.362 . S
Tb924 O976 2.421 . S
Tb924 C988 2.833 1_554 S
C925 C928 1.432 . S
C925 C929 1.414 . S
C925 N932 1.359 . S
C926 C928 1.417 1_545 S
C926 C930 1.432 . S
C926 C938 1.410 . S
C927 C929 1.444 1_545 S
C927 C930 1.317 . S
C927 H950 0.929 . S
C928 C925 1.432 . S
C928 C926 1.417 1_565 S
C928 N936 1.360 . S
C929 C925 1.414 . S
C929 C927 1.444 1_565 S
C929 C934 1.385 . S
C930 C926 1.432 . S
C930 C927 1.317 . S
C930 H942 0.930 . S
C931 C933 1.392 . S
C931 C934 1.370 . S
C931 H943 0.931 . S
N932 C925 1.359 . S
N932 C933 1.327 . S
N932 Tb935 2.600 . S
C933 C931 1.392 . S
C933 N932 1.327 . S
C933 H940 0.930 . S
C934 C929 1.385 . S
C934 C931 1.370 . S
C934 H953 0.930 1_565 S
Tb935 N932 2.600 . S
Tb935 N936 2.660 . S
Tb935 O969 2.362 . S
Tb935 O970 2.421 . S
Tb935 O974 2.546 . S
Tb935 O975 2.610 . S
Tb935 O977 2.320 . S
Tb935 O978 2.552 . S
Tb935 O979 2.413 . S
Tb935 C999 2.833 . S
N936 C928 1.360 . S
N936 Tb935 2.660 . S
N936 C937 1.305 . S
C937 N936 1.305 . S
C937 C939 1.407 . S
C937 H944 0.930 . S
C938 C926 1.410 . S
C938 C939 1.345 1_545 S
C938 H946 0.930 . S
C939 C937 1.407 . S
C939 C938 1.345 1_565 S
C939 H941 0.930 1_565 S
H940 C933 0.930 . S
H941 C939 0.930 1_545 S
H942 C930 0.930 . S
H943 C931 0.931 . S
H944 C937 0.930 . S
H945 C959 0.930 . S
H946 C938 0.930 . S
H947 C965 0.930 . S
H948 C956 0.930 . S
H949 C963 0.931 . S
H950 C927 0.929 . S
H951 C957 0.930 . S
H952 C990 0.930 . S
H953 C934 0.930 1_545 S
H954 C989 0.929 . S
N955 Tb924 2.660 . S
N955 C956 1.305 . S
N955 C960 1.360 . S
C956 H948 0.930 . S
C956 N955 1.305 . S
C956 C959 1.407 . S
C957 H951 0.930 . S
C957 C958 1.410 1_554 S
C957 C959 1.345 . S
C958 C957 1.410 1_556 S
C958 C960 1.417 1_556 S
C958 C990 1.432 . S
C959 H945 0.930 . S
C959 C956 1.407 . S
C959 C957 1.345 . S
C960 N955 1.360 . S
C960 C958 1.417 1_554 S
C960 C964 1.434 . S
H961 C966 0.930 . S
N962 Tb924 2.600 . S
N962 C964 1.363 . S
N962 C965 1.327 . S
C963 H949 0.931 . S
C963 C965 1.392 1_556 S
C963 C966 1.370 . S
C964 C960 1.434 . S
C964 N962 1.363 . S
C964 C967 1.409 1_554 S
C965 H947 0.930 . S
C965 N962 1.327 . S
C965 C963 1.392 1_554 S
C966 H961 0.930 . S
C966 C963 1.370 . S
C966 C967 1.385 . S
C967 C964 1.409 1_556 S
C967 C966 1.385 . S
C967 C989 1.444 . S
O968 Tb924 2.546 1_556 S
O968 C988 1.251 . S
O969 Tb924 2.610 . S
O969 Tb935 2.362 . S
O969 C980 1.283 . S
O970 Tb935 2.421 . S
O970 C987 1.262 . S
O971 Tb924 2.320 . S
O971 C987 1.260 . S
O972 Tb924 2.552 . S
O972 C980 1.243 . S
O973 Tb924 2.413 1_556 S
O973 C988 1.256 . S
O974 Tb935 2.546 . S
O974 C999 1.251 . S
O975 Tb924 2.362 . S
O975 Tb935 2.610 . S
O975 C991 1.283 . S
O976 Tb924 2.421 . S
O976 C998 1.262 . S
O977 Tb935 2.320 . S
O977 C998 1.260 . S
O978 Tb935 2.552 . S
O978 C991 1.243 . S
O979 Tb935 2.413 . S
O979 C999 1.256 . S
C980 O969 1.283 . S
C980 O972 1.243 . S
C981 C983 1.382 . S
C981 C985 1.393 . S
C981 C988 1.500 . S
C982 C983 1.400 . S
C982 C984 1.384 . S
C983 C981 1.382 . S
C983 C982 1.400 . S
C983 H1000 0.930 . S
C984 C982 1.384 . S
C984 C986 1.392 . S
C984 H1001 0.931 . S
C985 C981 1.393 . S
C985 C986 1.401 . S
C985 H1002 0.930 . S
C986 C984 1.392 . S
C986 C985 1.401 . S
C986 H1003 0.930 . S
C987 O970 1.262 . S
C987 O971 1.260 . S
C988 Tb924 2.833 1_556 S
C988 O968 1.251 . S
C988 O973 1.256 . S
C988 C981 1.500 . S
C989 H954 0.929 . S
C989 C967 1.444 . S
C989 C990 1.317 . S
C990 H952 0.930 . S
C990 C958 1.432 . S
C990 C989 1.317 . S
C991 O975 1.283 . S
C991 O978 1.243 . S
C992 C993 1.382 . S
C992 C996 1.393 . S
C992 C999 1.500 . S
C993 C992 1.382 . S
C993 C994 1.400 . S
C993 H1004 0.930 . S
C994 C993 1.400 . S
C994 C995 1.384 . S
C995 C994 1.384 . S
C995 C997 1.392 . S
C995 H1005 0.931 . S
C996 C992 1.393 . S
C996 C997 1.401 . S
C996 H1006 0.930 . S
C997 C995 1.392 . S
C997 C996 1.401 . S
C997 H1007 0.930 . S
C998 O976 1.262 . S
C998 O977 1.260 . S
C999 Tb935 2.833 . S
C999 O974 1.251 . S
C999 O979 1.256 . S
C999 C992 1.500 . S
H1000 C983 0.930 . S
H1001 C984 0.931 . S
H1002 C985 0.930 . S
H1003 C986 0.930 . S
H1004 C993 0.930 . S
H1005 C995 0.931 . S
H1006 C996 0.930 . S
H1007 C997 0.930 . S
Tb1008 N1039 2.660 . S
Tb1008 N1046 2.600 . S
Tb1008 O1052 2.546 . S
Tb1008 O1053 2.610 . S
Tb1008 O1055 2.320 . S
Tb1008 O1056 2.552 . S
Tb1008 O1057 2.413 . S
Tb1008 O1059 2.362 . S
Tb1008 O1060 2.421 . S
Tb1008 C1072 2.833 . S
C1009 C1012 1.431 1_556 S
C1009 C1013 1.416 . S
C1009 N1016 1.357 1_556 S
C1010 C1012 1.417 1_556 S
C1010 C1014 1.432 . S
C1010 C1022 1.410 1_556 S
C1011 C1013 1.444 . S
C1011 C1014 1.317 . S
C1011 H1034 0.929 . S
C1012 C1009 1.431 1_554 S
C1012 C1010 1.417 1_554 S
C1012 N1020 1.360 . S
C1013 C1009 1.416 . S
C1013 C1011 1.444 . S
C1013 C1018 1.385 . S
C1014 C1010 1.432 . S
C1014 C1011 1.317 . S
C1014 H1026 0.930 . S
C1015 C1017 1.392 1_556 S
C1015 C1018 1.370 . S
C1015 H1027 0.931 . S
N1016 C1009 1.357 1_554 S
N1016 C1017 1.327 . S
N1016 Tb1019 2.600 . S
C1017 C1015 1.392 1_554 S
C1017 N1016 1.327 . S
C1017 H1024 0.930 . S
C1018 C1013 1.385 . S
C1018 C1015 1.370 . S
C1018 H1037 0.930 . S
Tb1019 N1016 2.600 . S
Tb1019 N1020 2.660 . S
Tb1019 O1053 2.362 . S
Tb1019 O1054 2.421 . S
Tb1019 O1058 2.546 1_554 S
Tb1019 O1059 2.610 . S
Tb1019 O1061 2.320 . S
Tb1019 O1062 2.552 . S
Tb1019 O1063 2.413 1_554 S
Tb1019 C1083 2.833 1_554 S
N1020 C1012 1.360 . S
N1020 Tb1019 2.660 . S
N1020 C1021 1.305 . S
C1021 N1020 1.305 . S
C1021 C1023 1.407 . S
C1021 H1028 0.930 . S
C1022 C1010 1.410 1_554 S
C1022 C1023 1.345 . S
C1022 H1030 0.930 . S
C1023 C1021 1.407 . S
C1023 C1022 1.345 . S
C1023 H1025 0.930 . S
H1024 C1017 0.930 . S
H1025 C1023 0.930 . S
H1026 C1014 0.930 . S
H1027 C1015 0.931 . S
H1028 C1021 0.930 . S
H1029 C1043 0.930 . S
H1030 C1022 0.930 . S
H1031 C1049 0.930 . S
H1032 C1040 0.930 . S
H1033 C1047 0.931 . S
H1034 C1011 0.929 . S
H1035 C1041 0.930 . S
H1036 C1074 0.930 . S
H1037 C1018 0.930 . S
H1038 C1073 0.929 . S
N1039 Tb1008 2.660 . S
N1039 C1040 1.305 . S
N1039 C1044 1.360 . S
C1040 H1032 0.930 . S
C1040 N1039 1.305 . S
C1040 C1043 1.407 . S
C1041 H1035 0.930 . S
C1041 C1042 1.410 1_455 S
C1041 C1043 1.345 1_455 S
C1042 C1041 1.410 1_655 S
C1042 C1044 1.417 . S
C1042 C1074 1.432 1_655 S
C1043 H1029 0.930 . S
C1043 C1040 1.407 . S
C1043 C1041 1.345 1_655 S
C1044 N1039 1.360 . S
C1044 C1042 1.417 . S
C1044 C1048 1.432 . S
H1045 C1050 0.930 . S
N1046 Tb1008 2.600 . S
N1046 C1048 1.359 . S
N1046 C1049 1.327 . S
C1047 H1033 0.931 . S
C1047 C1049 1.392 . S
C1047 C1050 1.370 . S
C1048 C1044 1.432 . S
C1048 N1046 1.359 . S
C1048 C1051 1.414 . S
C1049 H1031 0.930 . S
C1049 N1046 1.327 . S
C1049 C1047 1.392 . S
C1050 H1045 0.930 . S
C1050 C1047 1.370 . S
C1050 C1051 1.385 . S
C1051 C1048 1.414 . S
C1051 C1050 1.385 . S
C1051 C1073 1.444 1_655 S
O1052 Tb1008 2.546 . S
O1052 C1072 1.251 . S
O1053 Tb1008 2.610 . S
O1053 Tb1019 2.362 . S
O1053 C1064 1.283 . S
O1054 Tb1019 2.421 . S
O1054 C1071 1.262 . S
O1055 Tb1008 2.320 . S
O1055 C1071 1.260 . S
O1056 Tb1008 2.552 . S
O1056 C1064 1.243 . S
O1057 Tb1008 2.413 . S
O1057 C1072 1.256 . S
O1058 Tb1019 2.546 1_556 S
O1058 C1083 1.251 . S
O1059 Tb1008 2.362 . S
O1059 Tb1019 2.610 . S
O1059 C1075 1.283 . S
O1060 Tb1008 2.421 . S
O1060 C1082 1.262 . S
O1061 Tb1019 2.320 . S
O1061 C1082 1.260 . S
O1062 Tb1019 2.552 . S
O1062 C1075 1.243 . S
O1063 Tb1019 2.413 1_556 S
O1063 C1083 1.256 . S
C1064 O1053 1.283 . S
C1064 O1056 1.243 . S
C1065 C1067 1.382 . S
C1065 C1069 1.393 . S
C1065 C1072 1.500 . S
C1066 C1067 1.400 . S
C1066 C1068 1.384 . S
C1067 C1065 1.382 . S
C1067 C1066 1.400 . S
C1067 H1084 0.930 . S
C1068 C1066 1.384 . S
C1068 C1070 1.392 . S
C1068 H1085 0.931 . S
C1069 C1065 1.393 . S
C1069 C1070 1.401 . S
C1069 H1086 0.930 . S
C1070 C1068 1.392 . S
C1070 C1069 1.401 . S
C1070 H1087 0.930 . S
C1071 O1054 1.262 . S
C1071 O1055 1.260 . S
C1072 Tb1008 2.833 . S
C1072 O1052 1.251 . S
C1072 O1057 1.256 . S
C1072 C1065 1.500 . S
C1073 H1038 0.929 . S
C1073 C1051 1.444 1_455 S
C1073 C1074 1.317 . S
C1074 H1036 0.930 . S
C1074 C1042 1.432 1_455 S
C1074 C1073 1.317 . S
C1075 O1059 1.283 . S
C1075 O1062 1.243 . S
C1076 C1077 1.382 . S
C1076 C1080 1.393 . S
C1076 C1083 1.500 . S
C1077 C1076 1.382 . S
C1077 C1078 1.400 . S
C1077 H1088 0.930 . S
C1078 C1077 1.400 . S
C1078 C1079 1.384 . S
C1079 C1078 1.384 . S
C1079 C1081 1.392 . S
C1079 H1089 0.931 . S
C1080 C1076 1.393 . S
C1080 C1081 1.401 . S
C1080 H1090 0.930 . S
C1081 C1079 1.392 . S
C1081 C1080 1.401 . S
C1081 H1091 0.930 . S
C1082 O1060 1.262 . S
C1082 O1061 1.260 . S
C1083 Tb1019 2.833 1_556 S
C1083 O1058 1.251 . S
C1083 O1063 1.256 . S
C1083 C1076 1.500 . S
H1084 C1067 0.930 . S
H1085 C1068 0.931 . S
H1086 C1069 0.930 . S
H1087 C1070 0.930 . S
H1088 C1077 0.930 . S
H1089 C1079 0.931 . S
H1090 C1080 0.930 . S
H1091 C1081 0.930 . S
Tb1092 N1123 2.660 . S
Tb1092 N1130 2.600 . S
Tb1092 O1136 2.546 1_556 S
Tb1092 O1137 2.610 . S
Tb1092 O1139 2.320 . S
Tb1092 O1140 2.552 . S
Tb1092 O1141 2.413 1_556 S
Tb1092 O1143 2.362 . S
Tb1092 O1144 2.421 . S
Tb1092 C1156 2.833 1_556 S
C1093 C1096 1.432 . S
C1093 C1097 1.414 . S
C1093 N1100 1.359 . S
C1094 C1096 1.417 1_565 S
C1094 C1098 1.432 . S
C1094 C1106 1.410 . S
C1095 C1097 1.444 1_565 S
C1095 C1098 1.317 . S
C1095 H1118 0.929 . S
C1096 C1093 1.432 . S
C1096 C1094 1.417 1_545 S
C1096 N1104 1.360 . S
C1097 C1093 1.414 . S
C1097 C1095 1.444 1_545 S
C1097 C1102 1.385 . S
C1098 C1094 1.432 . S
C1098 C1095 1.317 . S
C1098 H1110 0.930 . S
C1099 C1101 1.392 . S
C1099 C1102 1.370 . S
C1099 H1111 0.931 . S
N1100 C1093 1.359 . S
N1100 C1101 1.327 . S
N1100 Tb1103 2.600 . S
C1101 C1099 1.392 . S
C1101 N1100 1.327 . S
C1101 H1108 0.930 . S
C1102 C1097 1.385 . S
C1102 C1099 1.370 . S
C1102 H1121 0.930 1_545 S
Tb1103 N1100 2.600 . S
Tb1103 N1104 2.660 . S
Tb1103 O1137 2.362 . S
Tb1103 O1138 2.421 . S
Tb1103 O1142 2.546 . S
Tb1103 O1143 2.610 . S
Tb1103 O1145 2.320 . S
Tb1103 O1146 2.552 . S
Tb1103 O1147 2.413 . S
Tb1103 C1167 2.833 . S
N1104 C1096 1.360 . S
N1104 Tb1103 2.660 . S
N1104 C1105 1.305 . S
C1105 N1104 1.305 . S
C1105 C1107 1.407 . S
C1105 H1112 0.930 . S
C1106 C1094 1.410 . S
C1106 C1107 1.345 1_565 S
C1106 H1114 0.930 . S
C1107 C1105 1.407 . S
C1107 C1106 1.345 1_545 S
C1107 H1109 0.930 1_545 S
H1108 C1101 0.930 . S
H1109 C1107 0.930 1_565 S
H1110 C1098 0.930 . S
H1111 C1099 0.931 . S
H1112 C1105 0.930 . S
H1113 C1127 0.930 . S
H1114 C1106 0.930 . S
H1115 C1133 0.930 . S
H1116 C1124 0.930 . S
H1117 C1131 0.931 . S
H1118 C1095 0.929 . S
H1119 C1125 0.930 . S
H1120 C1158 0.930 . S
H1121 C1102 0.930 1_565 S
H1122 C1157 0.929 . S
N1123 Tb1092 2.660 . S
N1123 C1124 1.305 . S
N1123 C1128 1.360 . S
C1124 H1116 0.930 . S
C1124 N1123 1.305 . S
C1124 C1127 1.407 . S
C1125 H1119 0.930 . S
C1125 C1126 1.410 1_556 S
C1125 C1127 1.345 . S
C1126 C1125 1.410 1_554 S
C1126 C1128 1.417 1_554 S
C1126 C1158 1.432 . S
C1127 H1113 0.930 . S
C1127 C1124 1.407 . S
C1127 C1125 1.345 . S
C1128 N1123 1.360 . S
C1128 C1126 1.417 1_556 S
C1128 C1132 1.432 1_556 S
H1129 C1134 0.930 . S
N1130 Tb1092 2.600 . S
N1130 C1132 1.359 1_556 S
N1130 C1133 1.327 . S
C1131 H1117 0.931 . S
C1131 C1133 1.392 1_554 S
C1131 C1134 1.370 . S
C1132 C1128 1.432 1_554 S
C1132 N1130 1.359 1_554 S
C1132 C1135 1.414 . S
C1133 H1115 0.930 . S
C1133 N1130 1.327 . S
C1133 C1131 1.392 1_556 S
C1134 H1129 0.930 . S
C1134 C1131 1.370 . S
C1134 C1135 1.385 . S
C1135 C1132 1.414 . S
C1135 C1134 1.385 . S
C1135 C1157 1.444 . S
O1136 Tb1092 2.546 1_554 S
O1136 C1156 1.251 . S
O1137 Tb1092 2.610 . S
O1137 Tb1103 2.362 . S
O1137 C1148 1.283 . S
O1138 Tb1103 2.421 . S
O1138 C1155 1.262 . S
O1139 Tb1092 2.320 . S
O1139 C1155 1.260 . S
O1140 Tb1092 2.552 . S
O1140 C1148 1.243 . S
O1141 Tb1092 2.413 1_554 S
O1141 C1156 1.256 . S
O1142 Tb1103 2.546 . S
O1142 C1167 1.251 . S
O1143 Tb1092 2.362 . S
O1143 Tb1103 2.610 . S
O1143 C1159 1.283 . S
O1144 Tb1092 2.421 . S
O1144 C1166 1.262 . S
O1145 Tb1103 2.320 . S
O1145 C1166 1.260 . S
O1146 Tb1103 2.552 . S
O1146 C1159 1.243 . S
O1147 Tb1103 2.413 . S
O1147 C1167 1.256 . S
C1148 O1137 1.283 . S
C1148 O1140 1.243 . S
C1149 C1151 1.382 . S
C1149 C1153 1.393 . S
C1149 C1156 1.500 . S
C1150 C1151 1.400 . S
C1150 C1152 1.384 . S
C1151 C1149 1.382 . S
C1151 C1150 1.400 . S
C1151 H1168 0.930 . S
C1152 C1150 1.384 . S
C1152 C1154 1.392 . S
C1152 H1169 0.931 . S
C1153 C1149 1.393 . S
C1153 C1154 1.401 . S
C1153 H1170 0.930 . S
C1154 C1152 1.392 . S
C1154 C1153 1.401 . S
C1154 H1171 0.930 . S
C1155 O1138 1.262 . S
C1155 O1139 1.260 . S
C1156 Tb1092 2.833 1_554 S
C1156 O1136 1.251 . S
C1156 O1141 1.256 . S
C1156 C1149 1.500 . S
C1157 H1122 0.929 . S
C1157 C1135 1.444 . S
C1157 C1158 1.317 . S
C1158 H1120 0.930 . S
C1158 C1126 1.432 . S
C1158 C1157 1.317 . S
C1159 O1143 1.283 . S
C1159 O1146 1.243 . S
C1160 C1161 1.382 . S
C1160 C1164 1.393 . S
C1160 C1167 1.500 . S
C1161 C1160 1.382 . S
C1161 C1162 1.400 . S
C1161 H1172 0.930 . S
C1162 C1161 1.400 . S
C1162 C1163 1.384 . S
C1163 C1162 1.384 . S
C1163 C1165 1.392 . S
C1163 H1173 0.931 . S
C1164 C1160 1.393 . S
C1164 C1165 1.401 . S
C1164 H1174 0.930 . S
C1165 C1163 1.392 . S
C1165 C1164 1.401 . S
C1165 H1175 0.930 . S
C1166 O1144 1.262 . S
C1166 O1145 1.260 . S
C1167 Tb1103 2.833 . S
C1167 O1142 1.251 . S
C1167 O1147 1.256 . S
C1167 C1160 1.500 . S
H1168 C1151 0.930 . S
H1169 C1152 0.931 . S
H1170 C1153 0.930 . S
H1171 C1154 0.930 . S
H1172 C1161 0.930 . S
H1173 C1163 0.931 . S
H1174 C1164 0.930 . S
H1175 C1165 0.930 . S
Tb1176 N1207 2.660 . S
Tb1176 N1214 2.600 . S
Tb1176 O1220 2.546 . S
Tb1176 O1221 2.610 . S
Tb1176 O1223 2.320 . S
Tb1176 O1224 2.552 . S
Tb1176 O1225 2.413 . S
Tb1176 O1227 2.362 . S
Tb1176 O1228 2.421 . S
Tb1176 C1240 2.833 . S
C1177 C1180 1.432 . S
C1177 C1181 1.414 . S
C1177 N1184 1.359 . S
C1178 C1180 1.417 . S
C1178 C1182 1.432 . S
C1178 C1190 1.410 . S
C1179 C1181 1.444 . S
C1179 C1182 1.317 . S
C1179 H1202 0.929 . S
C1180 C1177 1.432 . S
C1180 C1178 1.417 . S
C1180 N1188 1.360 . S
C1181 C1177 1.414 . S
C1181 C1179 1.444 . S
C1181 C1186 1.385 . S
C1182 C1178 1.432 . S
C1182 C1179 1.317 . S
C1182 H1194 0.930 . S
C1183 C1185 1.392 . S
C1183 C1186 1.370 . S
C1183 H1195 0.931 . S
N1184 C1177 1.359 . S
N1184 C1185 1.327 . S
N1184 Tb1187 2.600 . S
C1185 C1183 1.392 . S
C1185 N1184 1.327 . S
C1185 H1192 0.930 . S
C1186 C1181 1.385 . S
C1186 C1183 1.370 . S
C1186 H1205 0.930 . S
Tb1187 N1184 2.600 . S
Tb1187 N1188 2.660 . S
Tb1187 O1221 2.362 . S
Tb1187 O1222 2.421 . S
Tb1187 O1226 2.546 . S
Tb1187 O1227 2.610 . S
Tb1187 O1229 2.320 . S
Tb1187 O1230 2.552 . S
Tb1187 O1231 2.413 . S
Tb1187 C1251 2.833 . S
N1188 C1180 1.360 . S
N1188 Tb1187 2.660 . S
N1188 C1189 1.305 . S
C1189 N1188 1.305 . S
C1189 C1191 1.407 . S
C1189 H1196 0.930 . S
C1190 C1178 1.410 . S
C1190 C1191 1.345 . S
C1190 H1198 0.930 . S
C1191 C1189 1.407 . S
C1191 C1190 1.345 . S
C1191 H1193 0.930 . S
H1192 C1185 0.930 . S
H1193 C1191 0.930 . S
H1194 C1182 0.930 . S
H1195 C1183 0.931 . S
H1196 C1189 0.930 . S
H1197 C1211 0.930 . S
H1198 C1190 0.930 . S
H1199 C1217 0.930 . S
H1200 C1208 0.930 . S
H1201 C1215 0.931 . S
H1202 C1179 0.929 . S
H1203 C1209 0.930 . S
H1204 C1242 0.930 . S
H1205 C1186 0.930 . S
H1206 C1241 0.929 . S
N1207 Tb1176 2.660 . S
N1207 C1208 1.305 . S
N1207 C1212 1.360 . S
C1208 H1200 0.930 . S
C1208 N1207 1.305 . S
C1208 C1211 1.407 . S
C1209 H1203 0.930 . S
C1209 C1210 1.410 . S
C1209 C1211 1.345 . S
C1210 C1209 1.410 . S
C1210 C1212 1.417 . S
C1210 C1242 1.432 . S
C1211 H1197 0.930 . S
C1211 C1208 1.407 . S
C1211 C1209 1.345 . S
C1212 N1207 1.360 . S
C1212 C1210 1.417 . S
C1212 C1216 1.432 . S
H1213 C1218 0.930 . S
N1214 Tb1176 2.600 . S
N1214 C1216 1.359 . S
N1214 C1217 1.327 . S
C1215 H1201 0.931 . S
C1215 C1217 1.392 . S
C1215 C1218 1.370 . S
C1216 C1212 1.432 . S
C1216 N1214 1.359 . S
C1216 C1219 1.414 . S
C1217 H1199 0.930 . S
C1217 N1214 1.327 . S
C1217 C1215 1.392 . S
C1218 H1213 0.930 . S
C1218 C1215 1.370 . S
C1218 C1219 1.385 . S
C1219 C1216 1.414 . S
C1219 C1218 1.385 . S
C1219 C1241 1.444 . S
O1220 Tb1176 2.546 . S
O1220 C1240 1.251 . S
O1221 Tb1176 2.610 . S
O1221 Tb1187 2.362 . S
O1221 C1232 1.283 . S
O1222 Tb1187 2.421 . S
O1222 C1239 1.262 . S
O1223 Tb1176 2.320 . S
O1223 C1239 1.260 . S
O1224 Tb1176 2.552 . S
O1224 C1232 1.243 . S
O1225 Tb1176 2.413 . S
O1225 C1240 1.256 . S
O1226 Tb1187 2.546 . S
O1226 C1251 1.251 . S
O1227 Tb1176 2.362 . S
O1227 Tb1187 2.610 . S
O1227 C1243 1.283 . S
O1228 Tb1176 2.421 . S
O1228 C1250 1.262 . S
O1229 Tb1187 2.320 . S
O1229 C1250 1.260 . S
O1230 Tb1187 2.552 . S
O1230 C1243 1.243 . S
O1231 Tb1187 2.413 . S
O1231 C1251 1.256 . S
C1232 O1221 1.283 . S
C1232 O1224 1.243 . S
C1233 C1235 1.382 . S
C1233 C1237 1.393 . S
C1233 C1240 1.500 . S
C1234 C1235 1.400 . S
C1234 C1236 1.384 . S
C1235 C1233 1.382 . S
C1235 C1234 1.400 . S
C1235 H1252 0.930 . S
C1236 C1234 1.384 . S
C1236 C1238 1.392 . S
C1236 H1253 0.931 . S
C1237 C1233 1.393 . S
C1237 C1238 1.401 . S
C1237 H1254 0.930 . S
C1238 C1236 1.392 . S
C1238 C1237 1.401 . S
C1238 H1255 0.930 . S
C1239 O1222 1.262 . S
C1239 O1223 1.260 . S
C1240 Tb1176 2.833 . S
C1240 O1220 1.251 . S
C1240 O1225 1.256 . S
C1240 C1233 1.500 . S
C1241 H1206 0.929 . S
C1241 C1219 1.444 . S
C1241 C1242 1.317 . S
C1242 H1204 0.930 . S
C1242 C1210 1.432 . S
C1242 C1241 1.317 . S
C1243 O1227 1.283 . S
C1243 O1230 1.243 . S
C1244 C1245 1.382 . S
C1244 C1248 1.393 . S
C1244 C1251 1.500 . S
C1245 C1244 1.382 . S
C1245 C1246 1.400 . S
C1245 H1256 0.930 . S
C1246 C1245 1.400 . S
C1246 C1247 1.384 1_556 S
C1247 C1246 1.384 1_554 S
C1247 C1249 1.392 . S
C1247 H1257 0.931 . S
C1248 C1244 1.393 . S
C1248 C1249 1.401 1_556 S
C1248 H1258 0.930 . S
C1249 C1247 1.392 . S
C1249 C1248 1.401 1_554 S
C1249 H1259 0.930 . S
C1250 O1228 1.262 . S
C1250 O1229 1.260 . S
C1251 Tb1187 2.833 . S
C1251 O1226 1.251 . S
C1251 O1231 1.256 . S
C1251 C1244 1.500 . S
H1252 C1235 0.930 . S
H1253 C1236 0.931 . S
H1254 C1237 0.930 . S
H1255 C1238 0.930 . S
H1256 C1245 0.930 . S
H1257 C1247 0.931 . S
H1258 C1248 0.930 . S
H1259 C1249 0.930 . S
Tb1260 N1291 2.660 . S
Tb1260 N1298 2.600 . S
Tb1260 O1304 2.546 . S
Tb1260 O1305 2.610 . S
Tb1260 O1307 2.320 . S
Tb1260 O1308 2.552 . S
Tb1260 O1309 2.413 . S
Tb1260 O1311 2.362 . S
Tb1260 O1312 2.421 . S
Tb1260 C1324 2.833 . S
C1261 C1264 1.432 . S
C1261 C1265 1.414 . S
C1261 N1268 1.359 . S
C1262 C1264 1.417 1_545 S
C1262 C1266 1.432 . S
C1262 C1274 1.410 . S
C1263 C1265 1.444 1_545 S
C1263 C1266 1.317 . S
C1263 H1286 0.929 . S
C1264 C1261 1.432 . S
C1264 C1262 1.417 1_565 S
C1264 N1272 1.360 . S
C1265 C1261 1.414 . S
C1265 C1263 1.444 1_565 S
C1265 C1270 1.385 . S
C1266 C1262 1.432 . S
C1266 C1263 1.317 . S
C1266 H1278 0.930 . S
C1267 C1269 1.392 . S
C1267 C1270 1.370 . S
C1267 H1279 0.931 . S
N1268 C1261 1.359 . S
N1268 C1269 1.327 . S
N1268 Tb1271 2.600 . S
C1269 C1267 1.392 . S
C1269 N1268 1.327 . S
C1269 H1276 0.930 . S
C1270 C1265 1.385 . S
C1270 C1267 1.370 . S
C1270 H1289 0.930 . S
Tb1271 N1268 2.600 . S
Tb1271 N1272 2.660 . S
Tb1271 O1305 2.362 . S
Tb1271 O1306 2.421 . S
Tb1271 O1310 2.546 . S
Tb1271 O1311 2.610 . S
Tb1271 O1313 2.320 . S
Tb1271 O1314 2.552 . S
Tb1271 O1315 2.413 . S
Tb1271 C1335 2.833 . S
N1272 C1264 1.360 . S
N1272 Tb1271 2.660 . S
N1272 C1273 1.305 . S
C1273 N1272 1.305 . S
C1273 C1275 1.407 . S
C1273 H1280 0.930 . S
C1274 C1262 1.410 . S
C1274 C1275 1.345 1_545 S
C1274 H1282 0.930 . S
C1275 C1273 1.407 . S
C1275 C1274 1.345 1_565 S
C1275 H1277 0.930 . S
H1276 C1269 0.930 . S
H1277 C1275 0.930 . S
H1278 C1266 0.930 . S
H1279 C1267 0.931 . S
H1280 C1273 0.930 . S
H1281 C1295 0.930 . S
H1282 C1274 0.930 . S
H1283 C1301 0.930 . S
H1284 C1292 0.930 . S
H1285 C1299 0.931 . S
H1286 C1263 0.929 . S
H1287 C1293 0.930 . S
H1288 C1326 0.930 . S
H1289 C1270 0.930 . S
H1290 C1325 0.929 . S
N1291 Tb1260 2.660 . S
N1291 C1292 1.305 . S
N1291 C1296 1.360 . S
C1292 H1284 0.930 . S
C1292 N1291 1.305 . S
C1292 C1295 1.407 . S
C1293 H1287 0.930 . S
C1293 C1294 1.410 . S
C1293 C1295 1.345 . S
C1294 C1293 1.410 . S
C1294 C1296 1.417 . S
C1294 C1326 1.432 . S
C1295 H1281 0.930 . S
C1295 C1292 1.407 . S
C1295 C1293 1.345 . S
C1296 N1291 1.360 . S
C1296 C1294 1.417 . S
C1296 C1300 1.432 . S
H1297 C1302 0.930 . S
N1298 Tb1260 2.600 . S
N1298 C1300 1.359 . S
N1298 C1301 1.327 . S
C1299 H1285 0.931 . S
C1299 C1301 1.392 . S
C1299 C1302 1.370 . S
C1300 C1296 1.432 . S
C1300 N1298 1.359 . S
C1300 C1303 1.414 . S
C1301 H1283 0.930 . S
C1301 N1298 1.327 . S
C1301 C1299 1.392 . S
C1302 H1297 0.930 . S
C1302 C1299 1.370 . S
C1302 C1303 1.385 . S
C1303 C1300 1.414 . S
C1303 C1302 1.385 . S
C1303 C1325 1.444 . S
O1304 Tb1260 2.546 . S
O1304 C1324 1.251 . S
O1305 Tb1260 2.610 . S
O1305 Tb1271 2.362 . S
O1305 C1316 1.283 . S
O1306 Tb1271 2.421 . S
O1306 C1323 1.262 . S
O1307 Tb1260 2.320 . S
O1307 C1323 1.260 . S
O1308 Tb1260 2.552 . S
O1308 C1316 1.243 . S
O1309 Tb1260 2.413 . S
O1309 C1324 1.256 . S
O1310 Tb1271 2.546 . S
O1310 C1335 1.251 . S
O1311 Tb1260 2.362 . S
O1311 Tb1271 2.610 . S
O1311 C1327 1.283 . S
O1312 Tb1260 2.421 . S
O1312 C1334 1.262 . S
O1313 Tb1271 2.320 . S
O1313 C1334 1.260 . S
O1314 Tb1271 2.552 . S
O1314 C1327 1.243 . S
O1315 Tb1271 2.413 . S
O1315 C1335 1.256 . S
C1316 O1305 1.283 . S
C1316 O1308 1.243 . S
C1317 C1319 1.382 . S
C1317 C1321 1.393 . S
C1317 C1324 1.500 . S
C1318 C1319 1.400 . S
C1318 C1320 1.384 . S
C1319 C1317 1.382 . S
C1319 C1318 1.400 . S
C1319 H1336 0.930 . S
C1320 C1318 1.384 . S
C1320 C1322 1.392 . S
C1320 H1337 0.931 . S
C1321 C1317 1.393 . S
C1321 C1322 1.401 . S
C1321 H1338 0.930 . S
C1322 C1320 1.392 . S
C1322 C1321 1.401 . S
C1322 H1339 0.930 . S
C1323 O1306 1.262 . S
C1323 O1307 1.260 . S
C1324 Tb1260 2.833 . S
C1324 O1304 1.251 . S
C1324 O1309 1.256 . S
C1324 C1317 1.500 . S
C1325 H1290 0.929 . S
C1325 C1303 1.444 . S
C1325 C1326 1.317 . S
C1326 H1288 0.930 . S
C1326 C1294 1.432 . S
C1326 C1325 1.317 . S
C1327 O1311 1.283 . S
C1327 O1314 1.243 . S
C1328 C1329 1.382 . S
C1328 C1332 1.393 . S
C1328 C1335 1.500 . S
C1329 C1328 1.382 . S
C1329 C1330 1.400 1_554 S
C1329 H1340 0.930 . S
C1330 C1329 1.400 1_556 S
C1330 C1331 1.384 . S
C1331 C1330 1.384 . S
C1331 C1333 1.392 . S
C1331 H1341 0.931 . S
C1332 C1328 1.393 . S
C1332 C1333 1.401 1_554 S
C1332 H1342 0.930 . S
C1333 C1331 1.392 . S
C1333 C1332 1.401 1_556 S
C1333 H1343 0.930 . S
C1334 O1312 1.262 . S
C1334 O1313 1.260 . S
C1335 Tb1271 2.833 . S
C1335 O1310 1.251 . S
C1335 O1315 1.256 . S
C1335 C1328 1.500 . S
H1336 C1319 0.930 . S
H1337 C1320 0.931 . S
H1338 C1321 0.930 . S
H1339 C1322 0.930 . S
H1340 C1329 0.930 . S
H1341 C1331 0.931 . S
H1342 C1332 0.930 . S
H1343 C1333 0.930 . S
C1344 C1345 1.369 . S
C1344 C1346 1.419 . S
C1344 H1348 0.930 . S
C1345 C1344 1.369 . S
C1345 C1354 1.429 . S
C1346 C1344 1.419 . S
C1346 C1347 1.363 . S
C1346 H1349 0.929 . S
C1347 C1346 1.363 . S
C1347 C1353 1.428 . S
H1348 C1344 0.930 . S
H1349 C1346 0.929 . S
S1350 N1351 1.613 . S
S1350 N1352 1.610 . S
N1351 S1350 1.613 . S
N1351 C1354 1.350 . S
N1352 S1350 1.610 . S
N1352 C1353 1.351 . S
C1353 C1347 1.428 . S
C1353 N1352 1.351 . S
C1353 C1354 1.434 . S
C1354 C1345 1.429 . S
C1354 N1351 1.350 . S
C1354 C1353 1.434 . S
C1355 C1356 1.369 . S
C1355 C1357 1.419 . S
C1355 H1359 0.930 . S
C1356 C1355 1.369 . S
C1356 C1365 1.429 . S
C1357 C1355 1.419 . S
C1357 C1358 1.363 . S
C1357 H1360 0.929 . S
C1358 C1357 1.363 . S
C1358 C1364 1.428 . S
H1359 C1355 0.930 . S
H1360 C1357 0.929 . S
S1361 N1362 1.613 . S
S1361 N1363 1.610 . S
N1362 S1361 1.613 . S
N1362 C1365 1.350 . S
N1363 S1361 1.610 . S
N1363 C1364 1.351 . S
C1364 C1358 1.428 . S
C1364 N1363 1.351 . S
C1364 C1365 1.434 . S
C1365 C1356 1.429 . S
C1365 N1362 1.350 . S
C1365 C1364 1.434 . S
C1366 C1367 1.369 . S
C1366 C1368 1.419 . S
C1366 H1370 0.930 . S
C1367 C1366 1.369 . S
C1367 C1376 1.429 . S
C1368 C1366 1.419 . S
C1368 C1369 1.363 . S
C1368 H1371 0.929 . S
C1369 C1368 1.363 . S
C1369 C1375 1.428 . S
H1370 C1366 0.930 . S
H1371 C1368 0.929 . S
S1372 N1373 1.613 . S
S1372 N1374 1.610 . S
N1373 S1372 1.613 . S
N1373 C1376 1.350 . S
N1374 S1372 1.610 . S
N1374 C1375 1.351 . S
C1375 C1369 1.428 . S
C1375 N1374 1.351 . S
C1375 C1376 1.434 . S
C1376 C1367 1.429 . S
C1376 N1373 1.350 . S
C1376 C1375 1.434 . S
C1377 C1378 1.369 . S
C1377 C1379 1.419 . S
C1377 H1381 0.930 . S
C1378 C1377 1.369 . S
C1378 C1387 1.429 . S
C1379 C1377 1.419 . S
C1379 C1380 1.363 . S
C1379 H1382 0.929 . S
C1380 C1379 1.363 . S
C1380 C1386 1.428 . S
H1381 C1377 0.930 . S
H1382 C1379 0.929 . S
S1383 N1384 1.613 . S
S1383 N1385 1.610 . S
N1384 S1383 1.613 . S
N1384 C1387 1.350 . S
N1385 S1383 1.610 . S
N1385 C1386 1.351 . S
C1386 C1380 1.428 . S
C1386 N1385 1.351 . S
C1386 C1387 1.434 . S
C1387 C1378 1.429 . S
C1387 N1384 1.350 . S
C1387 C1386 1.434 . S
C1388 C1389 1.369 . S
C1388 C1390 1.419 . S
C1388 H1392 0.930 . S
C1389 C1388 1.369 . S
C1389 C1398 1.429 . S
C1390 C1388 1.419 . S
C1390 C1391 1.363 . S
C1390 H1393 0.929 . S
C1391 C1390 1.363 . S
C1391 C1397 1.428 . S
H1392 C1388 0.930 . S
H1393 C1390 0.929 . S
S1394 N1395 1.613 . S
S1394 N1396 1.610 . S
N1395 S1394 1.613 . S
N1395 C1398 1.350 . S
N1396 S1394 1.610 . S
N1396 C1397 1.351 . S
C1397 C1391 1.428 . S
C1397 N1396 1.351 . S
C1397 C1398 1.434 . S
C1398 C1389 1.429 . S
C1398 N1395 1.350 . S
C1398 C1397 1.434 . S
C1399 C1400 1.369 . S
C1399 C1401 1.419 . S
C1399 H1403 0.930 . S
C1400 C1399 1.369 . S
C1400 C1409 1.429 . S
C1401 C1399 1.419 . S
C1401 C1402 1.363 . S
C1401 H1404 0.929 . S
C1402 C1401 1.363 . S
C1402 C1408 1.428 . S
H1403 C1399 0.930 . S
H1404 C1401 0.929 . S
S1405 N1406 1.613 . S
S1405 N1407 1.610 . S
N1406 S1405 1.613 . S
N1406 C1409 1.350 . S
N1407 S1405 1.610 . S
N1407 C1408 1.351 . S
C1408 C1402 1.428 . S
C1408 N1407 1.351 . S
C1408 C1409 1.434 . S
C1409 C1400 1.429 . S
C1409 N1406 1.350 . S
C1409 C1408 1.434 . S
C1410 C1411 1.369 . S
C1410 C1412 1.419 . S
C1410 H1414 0.930 . S
C1411 C1410 1.369 . S
C1411 C1420 1.429 . S
C1412 C1410 1.419 . S
C1412 C1413 1.363 . S
C1412 H1415 0.929 . S
C1413 C1412 1.363 . S
C1413 C1419 1.428 . S
H1414 C1410 0.930 . S
H1415 C1412 0.929 . S
S1416 N1417 1.613 . S
S1416 N1418 1.610 . S
N1417 S1416 1.613 . S
N1417 C1420 1.350 . S
N1418 S1416 1.610 . S
N1418 C1419 1.351 . S
C1419 C1413 1.428 . S
C1419 N1418 1.351 . S
C1419 C1420 1.434 . S
C1420 C1411 1.429 . S
C1420 N1417 1.350 . S
C1420 C1419 1.434 . S
C1421 C1422 1.369 . S
C1421 C1423 1.419 . S
C1421 H1425 0.930 . S
C1422 C1421 1.369 . S
C1422 C1431 1.429 . S
C1423 C1421 1.419 . S
C1423 C1424 1.363 . S
C1423 H1426 0.929 . S
C1424 C1423 1.363 . S
C1424 C1430 1.428 . S
H1425 C1421 0.930 . S
H1426 C1423 0.929 . S
S1427 N1428 1.613 . S
S1427 N1429 1.610 . S
N1428 S1427 1.613 . S
N1428 C1431 1.350 . S
N1429 S1427 1.610 . S
N1429 C1430 1.351 . S
C1430 C1424 1.428 . S
C1430 N1429 1.351 . S
C1430 C1431 1.434 . S
C1431 C1422 1.429 . S
C1431 N1428 1.350 . S
C1431 C1430 1.434 . S
C1432 C1433 1.369 . S
C1432 C1434 1.419 . S
C1432 H1436 0.930 . S
C1433 C1432 1.369 . S
C1433 C1442 1.429 . S
C1434 C1432 1.419 . S
C1434 C1435 1.363 . S
C1434 H1437 0.929 . S
C1435 C1434 1.363 . S
C1435 C1441 1.428 . S
H1436 C1432 0.930 . S
H1437 C1434 0.929 . S
S1438 N1439 1.613 . S
S1438 N1440 1.610 . S
N1439 S1438 1.613 . S
N1439 C1442 1.350 . S
N1440 S1438 1.610 . S
N1440 C1441 1.351 . S
C1441 C1435 1.428 . S
C1441 N1440 1.351 . S
C1441 C1442 1.434 . S
C1442 C1433 1.429 . S
C1442 N1439 1.350 . S
C1442 C1441 1.434 . S
C1443 C1444 1.369 . S
C1443 C1445 1.419 . S
C1443 H1447 0.930 . S
C1444 C1443 1.369 . S
C1444 C1453 1.429 . S
C1445 C1443 1.419 . S
C1445 C1446 1.363 . S
C1445 H1448 0.929 . S
C1446 C1445 1.363 . S
C1446 C1452 1.428 . S
H1447 C1443 0.930 . S
H1448 C1445 0.929 . S
S1449 N1450 1.613 . S
S1449 N1451 1.610 . S
N1450 S1449 1.613 . S
N1450 C1453 1.350 . S
N1451 S1449 1.610 . S
N1451 C1452 1.351 . S
C1452 C1446 1.428 . S
C1452 N1451 1.351 . S
C1452 C1453 1.434 . S
C1453 C1444 1.429 . S
C1453 N1450 1.350 . S
C1453 C1452 1.434 . S
C1454 C1455 1.369 . S
C1454 C1456 1.419 . S
C1454 H1458 0.930 . S
C1455 C1454 1.369 . S
C1455 C1464 1.429 . S
C1456 C1454 1.419 . S
C1456 C1457 1.363 . S
C1456 H1459 0.929 . S
C1457 C1456 1.363 . S
C1457 C1463 1.428 . S
H1458 C1454 0.930 . S
H1459 C1456 0.929 . S
S1460 N1461 1.613 . S
S1460 N1462 1.610 . S
N1461 S1460 1.613 . S
N1461 C1464 1.350 . S
N1462 S1460 1.610 . S
N1462 C1463 1.351 . S
C1463 C1457 1.428 . S
C1463 N1462 1.351 . S
C1463 C1464 1.434 . S
C1464 C1455 1.429 . S
C1464 N1461 1.350 . S
C1464 C1463 1.434 . S
C1465 C1466 1.369 . S
C1465 C1467 1.419 . S
C1465 H1469 0.930 . S
C1466 C1465 1.369 . S
C1466 C1475 1.429 . S
C1467 C1465 1.419 . S
C1467 C1468 1.363 . S
C1467 H1470 0.929 . S
C1468 C1467 1.363 . S
C1468 C1474 1.428 . S
H1469 C1465 0.930 . S
H1470 C1467 0.929 . S
S1471 N1472 1.613 . S
S1471 N1473 1.610 . S
N1472 S1471 1.613 . S
N1472 C1475 1.350 . S
N1473 S1471 1.610 . S
N1473 C1474 1.351 . S
C1474 C1468 1.428 . S
C1474 N1473 1.351 . S
C1474 C1475 1.434 . S
C1475 C1466 1.429 . S
C1475 N1472 1.350 . S
C1475 C1474 1.434 . S
C1476 C1477 1.369 . S
C1476 C1478 1.419 . S
C1476 H1480 0.930 . S
C1477 C1476 1.369 . S
C1477 C1486 1.429 . S
C1478 C1476 1.419 . S
C1478 C1479 1.363 . S
C1478 H1481 0.929 . S
C1479 C1478 1.363 . S
C1479 C1485 1.428 . S
H1480 C1476 0.930 . S
H1481 C1478 0.929 . S
S1482 N1483 1.613 . S
S1482 N1484 1.610 . S
N1483 S1482 1.613 . S
N1483 C1486 1.350 . S
N1484 S1482 1.610 . S
N1484 C1485 1.351 . S
C1485 C1479 1.428 . S
C1485 N1484 1.351 . S
C1485 C1486 1.434 . S
C1486 C1477 1.429 . S
C1486 N1483 1.350 . S
C1486 C1485 1.434 . S
C1487 C1488 1.369 . S
C1487 C1489 1.419 . S
C1487 H1491 0.930 . S
C1488 C1487 1.369 . S
C1488 C1497 1.429 . S
C1489 C1487 1.419 . S
C1489 C1490 1.363 . S
C1489 H1492 0.929 . S
C1490 C1489 1.363 . S
C1490 C1496 1.428 . S
H1491 C1487 0.930 . S
H1492 C1489 0.929 . S
S1493 N1494 1.613 . S
S1493 N1495 1.610 . S
N1494 S1493 1.613 . S
N1494 C1497 1.350 . S
N1495 S1493 1.610 . S
N1495 C1496 1.351 . S
C1496 C1490 1.428 . S
C1496 N1495 1.351 . S
C1496 C1497 1.434 . S
C1497 C1488 1.429 . S
C1497 N1494 1.350 . S
C1497 C1496 1.434 . S
C1498 C1499 1.369 . S
C1498 C1500 1.419 . S
C1498 H1502 0.930 . S
C1499 C1498 1.369 . S
C1499 C1508 1.429 . S
C1500 C1498 1.419 . S
C1500 C1501 1.363 . S
C1500 H1503 0.929 . S
C1501 C1500 1.363 . S
C1501 C1507 1.428 . S
H1502 C1498 0.930 . S
H1503 C1500 0.929 . S
S1504 N1505 1.613 . S
S1504 N1506 1.610 . S
N1505 S1504 1.613 . S
N1505 C1508 1.350 . S
N1506 S1504 1.610 . S
N1506 C1507 1.351 . S
C1507 C1501 1.428 . S
C1507 N1506 1.351 . S
C1507 C1508 1.434 . S
C1508 C1499 1.429 . S
C1508 N1505 1.350 . S
C1508 C1507 1.434 . S
C1509 C1510 1.369 . S
C1509 C1511 1.419 . S
C1509 H1513 0.930 . S
C1510 C1509 1.369 . S
C1510 C1519 1.429 . S
C1511 C1509 1.419 . S
C1511 C1512 1.363 . S
C1511 H1514 0.929 . S
C1512 C1511 1.363 . S
C1512 C1518 1.428 . S
H1513 C1509 0.930 . S
H1514 C1511 0.929 . S
S1515 N1516 1.613 . S
S1515 N1517 1.610 . S
N1516 S1515 1.613 . S
N1516 C1519 1.350 . S
N1517 S1515 1.610 . S
N1517 C1518 1.351 . S
C1518 C1512 1.428 . S
C1518 N1517 1.351 . S
C1518 C1519 1.434 . S
C1519 C1510 1.429 . S
C1519 N1516 1.350 . S
C1519 C1518 1.434 . S
C1520 C1521 1.369 . S
C1520 C1522 1.419 . S
C1520 H1524 0.930 . S
C1521 C1520 1.369 . S
C1521 C1530 1.429 . S
C1522 C1520 1.419 . S
C1522 C1523 1.363 . S
C1522 H1525 0.929 . S
C1523 C1522 1.363 . S
C1523 C1529 1.428 . S
H1524 C1520 0.930 . S
H1525 C1522 0.929 . S
S1526 N1527 1.613 . S
S1526 N1528 1.610 . S
N1527 S1526 1.613 . S
N1527 C1530 1.350 . S
N1528 S1526 1.610 . S
N1528 C1529 1.351 . S
C1529 C1523 1.428 . S
C1529 N1528 1.351 . S
C1529 C1530 1.434 . S
C1530 C1521 1.429 . S
C1530 N1527 1.350 . S
C1530 C1529 1.434 . S
C1531 C1532 1.369 . S
C1531 C1533 1.419 . S
C1531 H1535 0.930 . S
C1532 C1531 1.369 . S
C1532 C1541 1.429 . S
C1533 C1531 1.419 . S
C1533 C1534 1.363 . S
C1533 H1536 0.929 . S
C1534 C1533 1.363 . S
C1534 C1540 1.428 . S
H1535 C1531 0.930 . S
H1536 C1533 0.929 . S
S1537 N1538 1.613 . S
S1537 N1539 1.610 . S
N1538 S1537 1.613 . S
N1538 C1541 1.350 . S
N1539 S1537 1.610 . S
N1539 C1540 1.351 . S
C1540 C1534 1.428 . S
C1540 N1539 1.351 . S
C1540 C1541 1.434 . S
C1541 C1532 1.429 . S
C1541 N1538 1.350 . S
C1541 C1540 1.434 . S
C1542 C1543 1.369 . S
C1542 C1544 1.419 . S
C1542 H1546 0.930 . S
C1543 C1542 1.369 . S
C1543 C1552 1.429 . S
C1544 C1542 1.419 . S
C1544 C1545 1.363 . S
C1544 H1547 0.929 . S
C1545 C1544 1.363 . S
C1545 C1551 1.428 . S
H1546 C1542 0.930 . S
H1547 C1544 0.929 . S
S1548 N1549 1.613 . S
S1548 N1550 1.610 . S
N1549 S1548 1.613 . S
N1549 C1552 1.350 . S
N1550 S1548 1.610 . S
N1550 C1551 1.351 . S
C1551 C1545 1.428 . S
C1551 N1550 1.351 . S
C1551 C1552 1.434 . S
C1552 C1543 1.429 . S
C1552 N1549 1.350 . S
C1552 C1551 1.434 . S
C1553 C1554 1.369 . S
C1553 C1555 1.419 1_655 S
C1553 H1557 0.930 . S
C1554 C1553 1.369 . S
C1554 C1563 1.429 . S
C1555 C1553 1.419 1_455 S
C1555 C1556 1.363 . S
C1555 H1558 0.929 . S
C1556 C1555 1.363 . S
C1556 C1562 1.428 . S
H1557 C1553 0.930 . S
H1558 C1555 0.929 . S
S1559 N1560 1.613 1_455 S
S1559 N1561 1.610 . S
N1560 S1559 1.613 1_655 S
N1560 C1563 1.350 1_554 S
N1561 S1559 1.610 . S
N1561 C1562 1.351 1_554 S
C1562 C1556 1.428 . S
C1562 N1561 1.351 1_556 S
C1562 C1563 1.434 1_455 S
C1563 C1554 1.429 . S
C1563 N1560 1.350 1_556 S
C1563 C1562 1.434 1_655 S
C1564 C1565 1.369 . S
C1564 C1566 1.419 . S
C1564 H1568 0.930 . S
C1565 C1564 1.369 . S
C1565 C1574 1.429 . S
C1566 C1564 1.419 . S
C1566 C1567 1.363 . S
C1566 H1569 0.929 . S
C1567 C1566 1.363 . S
C1567 C1573 1.428 . S
H1568 C1564 0.930 . S
H1569 C1566 0.929 . S
S1570 N1571 1.613 . S
S1570 N1572 1.610 . S
N1571 S1570 1.613 . S
N1571 C1574 1.350 . S
N1572 S1570 1.610 . S
N1572 C1573 1.351 . S
C1573 C1567 1.428 . S
C1573 N1572 1.351 . S
C1573 C1574 1.434 . S
C1574 C1565 1.429 . S
C1574 N1571 1.350 . S
C1574 C1573 1.434 . S
C1575 C1576 1.369 . S
C1575 C1577 1.419 1_455 S
C1575 H1579 0.930 . S
C1576 C1575 1.369 . S
C1576 C1585 1.429 . S
C1577 C1575 1.419 1_655 S
C1577 C1578 1.363 . S
C1577 H1580 0.929 . S
C1578 C1577 1.363 . S
C1578 C1584 1.428 . S
H1579 C1575 0.930 . S
H1580 C1577 0.929 . S
S1581 N1582 1.613 1_655 S
S1581 N1583 1.610 . S
N1582 S1581 1.613 1_455 S
N1582 C1585 1.350 . S
N1583 S1581 1.610 . S
N1583 C1584 1.351 . S
C1584 C1578 1.428 . S
C1584 N1583 1.351 . S
C1584 C1585 1.434 1_655 S
C1585 C1576 1.429 . S
C1585 N1582 1.350 . S
C1585 C1584 1.434 1_455 S
C1586 C1587 1.369 . S
C1586 C1588 1.419 . S
C1586 H1590 0.930 . S
C1587 C1586 1.369 . S
C1587 C1596 1.429 . S
C1588 C1586 1.419 . S
C1588 C1589 1.363 . S
C1588 H1591 0.929 . S
C1589 C1588 1.363 . S
C1589 C1595 1.428 . S
H1590 C1586 0.930 . S
H1591 C1588 0.929 . S
S1592 N1593 1.613 . S
S1592 N1594 1.610 . S
N1593 S1592 1.613 . S
N1593 C1596 1.350 . S
N1594 S1592 1.610 . S
N1594 C1595 1.351 . S
C1595 C1589 1.428 . S
C1595 N1594 1.351 . S
C1595 C1596 1.434 . S
C1596 C1587 1.429 . S
C1596 N1593 1.350 . S
C1596 C1595 1.434 . S
C1597 C1598 1.369 . S
C1597 C1599 1.419 . S
C1597 H1601 0.930 . S
C1598 C1597 1.369 . S
C1598 C1607 1.429 . S
C1599 C1597 1.419 . S
C1599 C1600 1.363 . S
C1599 H1602 0.929 . S
C1600 C1599 1.363 . S
C1600 C1606 1.428 . S
H1601 C1597 0.930 . S
H1602 C1599 0.929 . S
S1603 N1604 1.613 . S
S1603 N1605 1.610 . S
N1604 S1603 1.613 . S
N1604 C1607 1.350 . S
N1605 S1603 1.610 . S
N1605 C1606 1.351 . S
C1606 C1600 1.428 . S
C1606 N1605 1.351 . S
C1606 C1607 1.434 . S
C1607 C1598 1.429 . S
C1607 N1604 1.350 . S
C1607 C1606 1.434 . S
C1608 C1609 1.369 . S
C1608 C1610 1.419 . S
C1608 H1612 0.930 . S
C1609 C1608 1.369 . S
C1609 C1618 1.429 . S
C1610 C1608 1.419 . S
C1610 C1611 1.363 . S
C1610 H1613 0.929 . S
C1611 C1610 1.363 . S
C1611 C1617 1.428 . S
H1612 C1608 0.930 . S
H1613 C1610 0.929 . S
S1614 N1615 1.613 . S
S1614 N1616 1.610 . S
N1615 S1614 1.613 . S
N1615 C1618 1.350 . S
N1616 S1614 1.610 . S
N1616 C1617 1.351 . S
C1617 C1611 1.428 . S
C1617 N1616 1.351 . S
C1617 C1618 1.434 . S
C1618 C1609 1.429 . S
C1618 N1615 1.350 . S
C1618 C1617 1.434 . S
C1619 C1620 1.369 . S
C1619 C1621 1.419 . S
C1619 H1623 0.930 . S
C1620 C1619 1.369 . S
C1620 C1629 1.429 . S
C1621 C1619 1.419 . S
C1621 C1622 1.363 . S
C1621 H1624 0.929 . S
C1622 C1621 1.363 . S
C1622 C1628 1.428 . S
H1623 C1619 0.930 . S
H1624 C1621 0.929 . S
S1625 N1626 1.613 . S
S1625 N1627 1.610 . S
N1626 S1625 1.613 . S
N1626 C1629 1.350 . S
N1627 S1625 1.610 . S
N1627 C1628 1.351 . S
C1628 C1622 1.428 . S
C1628 N1627 1.351 . S
C1628 C1629 1.434 . S
C1629 C1620 1.429 . S
C1629 N1626 1.350 . S
C1629 C1628 1.434 . S
C1630 C1631 1.369 . S
C1630 C1632 1.419 . S
C1630 H1634 0.930 . S
C1631 C1630 1.369 . S
C1631 C1640 1.429 . S
C1632 C1630 1.419 . S
C1632 C1633 1.363 . S
C1632 H1635 0.929 . S
C1633 C1632 1.363 . S
C1633 C1639 1.428 . S
H1634 C1630 0.930 . S
H1635 C1632 0.929 . S
S1636 N1637 1.613 . S
S1636 N1638 1.610 . S
N1637 S1636 1.613 . S
N1637 C1640 1.350 . S
N1638 S1636 1.610 . S
N1638 C1639 1.351 . S
C1639 C1633 1.428 . S
C1639 N1638 1.351 . S
C1639 C1640 1.434 . S
C1640 C1631 1.429 . S
C1640 N1637 1.350 . S
C1640 C1639 1.434 . S
C1641 C1642 1.369 . S
C1641 C1643 1.419 . S
C1641 H1645 0.930 . S
C1642 C1641 1.369 . S
C1642 C1651 1.429 . S
C1643 C1641 1.419 . S
C1643 C1644 1.363 . S
C1643 H1646 0.929 . S
C1644 C1643 1.363 . S
C1644 C1650 1.428 . S
H1645 C1641 0.930 . S
H1646 C1643 0.929 . S
S1647 N1648 1.613 . S
S1647 N1649 1.610 . S
N1648 S1647 1.613 . S
N1648 C1651 1.350 . S
N1649 S1647 1.610 . S
N1649 C1650 1.351 . S
C1650 C1644 1.428 . S
C1650 N1649 1.351 . S
C1650 C1651 1.434 . S
C1651 C1642 1.429 . S
C1651 N1648 1.350 . S
C1651 C1650 1.434 . S
C1652 C1653 1.369 . S
C1652 C1654 1.419 1_655 S
C1652 H1656 0.930 . S
C1653 C1652 1.369 . S
C1653 C1662 1.429 . S
C1654 C1652 1.419 1_455 S
C1654 C1655 1.363 . S
C1654 H1657 0.929 . S
C1655 C1654 1.363 . S
C1655 C1661 1.428 . S
H1656 C1652 0.930 . S
H1657 C1654 0.929 . S
S1658 N1659 1.613 1_455 S
S1658 N1660 1.610 . S
N1659 S1658 1.613 1_655 S
N1659 C1662 1.350 1_554 S
N1660 S1658 1.610 . S
N1660 C1661 1.351 1_554 S
C1661 C1655 1.428 . S
C1661 N1660 1.351 1_556 S
C1661 C1662 1.434 1_455 S
C1662 C1653 1.429 . S
C1662 N1659 1.350 1_556 S
C1662 C1661 1.434 1_655 S
C1663 C1664 1.369 . S
C1663 C1665 1.419 . S
C1663 H1667 0.930 . S
C1664 C1663 1.369 . S
C1664 C1673 1.429 . S
C1665 C1663 1.419 . S
C1665 C1666 1.363 . S
C1665 H1668 0.929 . S
C1666 C1665 1.363 . S
C1666 C1672 1.428 . S
H1667 C1663 0.930 . S
H1668 C1665 0.929 . S
S1669 N1670 1.613 . S
S1669 N1671 1.610 . S
N1670 S1669 1.613 . S
N1670 C1673 1.350 . S
N1671 S1669 1.610 . S
N1671 C1672 1.351 . S
C1672 C1666 1.428 . S
C1672 N1671 1.351 . S
C1672 C1673 1.434 . S
C1673 C1664 1.429 . S
C1673 N1670 1.350 . S
C1673 C1672 1.434 . S
C1674 C1675 1.369 . S
C1674 C1676 1.419 . S
C1674 H1678 0.930 . S
C1675 C1674 1.369 . S
C1675 C1684 1.429 . S
C1676 C1674 1.419 . S
C1676 C1677 1.363 . S
C1676 H1679 0.929 . S
C1677 C1676 1.363 . S
C1677 C1683 1.428 . S
H1678 C1674 0.930 . S
H1679 C1676 0.929 . S
S1680 N1681 1.613 . S
S1680 N1682 1.610 . S
N1681 S1680 1.613 . S
N1681 C1684 1.350 . S
N1682 S1680 1.610 . S
N1682 C1683 1.351 . S
C1683 C1677 1.428 . S
C1683 N1682 1.351 . S
C1683 C1684 1.434 . S
C1684 C1675 1.429 . S
C1684 N1681 1.350 . S
C1684 C1683 1.434 . S
C1685 C1686 1.369 . S
C1685 C1687 1.419 1_455 S
C1685 H1689 0.930 1_554 S
C1686 C1685 1.369 . S
C1686 C1695 1.429 . S
C1687 C1685 1.419 1_655 S
C1687 C1688 1.363 . S
C1687 H1690 0.929 1_554 S
C1688 C1687 1.363 . S
C1688 C1694 1.428 . S
H1689 C1685 0.930 1_556 S
H1690 C1687 0.929 1_556 S
S1691 N1692 1.609 1_655 S
S1691 N1693 1.614 . S
N1692 S1691 1.609 1_455 S
N1692 C1695 1.350 . S
N1693 S1691 1.614 . S
N1693 C1694 1.351 . S
C1694 C1688 1.428 . S
C1694 N1693 1.351 . S
C1694 C1695 1.434 1_655 S
C1695 C1686 1.429 . S
C1695 N1692 1.350 . S
C1695 C1694 1.434 1_455 S
C1696 C1697 1.369 . S
C1696 C1698 1.419 . S
C1696 H1700 0.930 . S
C1697 C1696 1.369 . S
C1697 C1706 1.429 1_554 S
C1698 C1696 1.419 . S
C1698 C1699 1.363 1_554 S
C1698 H1701 0.929 . S
C1699 C1698 1.363 1_556 S
C1699 C1705 1.428 . S
H1700 C1696 0.930 . S
H1701 C1698 0.929 . S
S1702 N1703 1.613 . S
S1702 N1704 1.610 . S
N1703 S1702 1.613 . S
N1703 C1706 1.350 . S
N1704 S1702 1.610 . S
N1704 C1705 1.351 . S
C1705 C1699 1.428 . S
C1705 N1704 1.351 . S
C1705 C1706 1.434 . S
C1706 C1697 1.429 1_556 S
C1706 N1703 1.350 . S
C1706 C1705 1.434 . S
C1707 C1708 1.369 . S
C1707 C1709 1.419 . S
C1707 H1711 0.930 . S
C1708 C1707 1.369 . S
C1708 C1717 1.429 . S
C1709 C1707 1.419 . S
C1709 C1710 1.363 . S
C1709 H1712 0.929 . S
C1710 C1709 1.363 . S
C1710 C1716 1.428 . S
H1711 C1707 0.930 . S
H1712 C1709 0.929 . S
S1713 N1714 1.613 . S
S1713 N1715 1.610 . S
N1714 S1713 1.613 . S
N1714 C1717 1.350 . S
N1715 S1713 1.610 . S
N1715 C1716 1.351 . S
C1716 C1710 1.428 . S
C1716 N1715 1.351 . S
C1716 C1717 1.434 . S
C1717 C1708 1.429 . S
C1717 N1714 1.350 . S
C1717 C1716 1.434 . S
C1718 C1719 1.369 . S
C1718 C1720 1.419 . S
C1718 H1722 0.930 . S
C1719 C1718 1.369 . S
C1719 C1728 1.429 . S
C1720 C1718 1.419 . S
C1720 C1721 1.363 . S
C1720 H1723 0.929 . S
C1721 C1720 1.363 . S
C1721 C1727 1.428 . S
H1722 C1718 0.930 . S
H1723 C1720 0.929 . S
S1724 N1725 1.613 . S
S1724 N1726 1.610 . S
N1725 S1724 1.613 . S
N1725 C1728 1.350 . S
N1726 S1724 1.610 . S
N1726 C1727 1.351 . S
C1727 C1721 1.428 . S
C1727 N1726 1.351 . S
C1727 C1728 1.434 . S
C1728 C1719 1.429 . S
C1728 N1725 1.350 . S
C1728 C1727 1.434 . S
C1729 C1730 1.369 . S
C1729 C1731 1.419 . S
C1729 H1733 0.930 . S
C1730 C1729 1.369 . S
C1730 C1739 1.429 . S
C1731 C1729 1.419 . S
C1731 C1732 1.363 . S
C1731 H1734 0.929 . S
C1732 C1731 1.363 . S
C1732 C1738 1.428 . S
H1733 C1729 0.930 . S
H1734 C1731 0.929 . S
S1735 N1736 1.613 . S
S1735 N1737 1.610 . S
N1736 S1735 1.613 . S
N1736 C1739 1.350 . S
N1737 S1735 1.610 . S
N1737 C1738 1.351 . S
C1738 C1732 1.428 . S
C1738 N1737 1.351 . S
C1738 C1739 1.434 . S
C1739 C1730 1.429 . S
C1739 N1736 1.350 . S
C1739 C1738 1.434 . S
C1740 C1741 1.369 . S
C1740 C1742 1.419 1_554 S
C1740 H1744 0.930 . S
C1741 C1740 1.369 . S
C1741 C1750 1.429 . S
C1742 C1740 1.419 1_556 S
C1742 C1743 1.363 . S
C1742 H1745 0.929 . S
C1743 C1742 1.363 . S
C1743 C1749 1.428 . S
H1744 C1740 0.930 . S
H1745 C1742 0.929 . S
S1746 N1747 1.613 . S
S1746 N1748 1.610 1_554 S
N1747 S1746 1.613 . S
N1747 C1750 1.350 . S
N1748 S1746 1.610 1_556 S
N1748 C1749 1.351 . S
C1749 C1743 1.428 . S
C1749 N1748 1.351 . S
C1749 C1750 1.434 1_556 S
C1750 C1741 1.429 . S
C1750 N1747 1.350 . S
C1750 C1749 1.434 1_554 S
C1751 C1752 1.369 . S
C1751 C1753 1.419 . S
C1751 H1755 0.930 . S
C1752 C1751 1.369 . S
C1752 C1761 1.429 . S
C1753 C1751 1.419 . S
C1753 C1754 1.363 . S
C1753 H1756 0.929 . S
C1754 C1753 1.363 . S
C1754 C1760 1.428 . S
H1755 C1751 0.930 . S
H1756 C1753 0.929 . S
S1757 N1758 1.613 . S
S1757 N1759 1.610 . S
N1758 S1757 1.613 . S
N1758 C1761 1.350 . S
N1759 S1757 1.610 . S
N1759 C1760 1.351 . S
C1760 C1754 1.428 . S
C1760 N1759 1.351 . S
C1760 C1761 1.434 . S
C1761 C1752 1.429 . S
C1761 N1758 1.350 . S
C1761 C1760 1.434 . S
C1762 C1763 1.369 . S
C1762 C1764 1.419 . S
C1762 H1766 0.930 . S
C1763 C1762 1.369 . S
C1763 C1772 1.429 . S
C1764 C1762 1.419 . S
C1764 C1765 1.363 . S
C1764 H1767 0.929 . S
C1765 C1764 1.363 . S
C1765 C1771 1.428 . S
H1766 C1762 0.930 . S
H1767 C1764 0.929 . S
S1768 N1769 1.613 . S
S1768 N1770 1.610 . S
N1769 S1768 1.613 . S
N1769 C1772 1.350 . S
N1770 S1768 1.610 . S
N1770 C1771 1.351 . S
C1771 C1765 1.428 . S
C1771 N1770 1.351 . S
C1771 C1772 1.434 . S
C1772 C1763 1.429 . S
C1772 N1769 1.350 . S
C1772 C1771 1.434 . S
C1773 C1774 1.369 . S
C1773 C1775 1.419 . S
C1773 H1777 0.930 . S
C1774 C1773 1.369 . S
C1774 C1783 1.429 . S
C1775 C1773 1.419 . S
C1775 C1776 1.363 . S
C1775 H1778 0.929 . S
C1776 C1775 1.363 . S
C1776 C1782 1.428 . S
H1777 C1773 0.930 . S
H1778 C1775 0.929 . S
S1779 N1780 1.613 . S
S1779 N1781 1.610 . S
N1780 S1779 1.613 . S
N1780 C1783 1.350 . S
N1781 S1779 1.610 . S
N1781 C1782 1.351 . S
C1782 C1776 1.428 . S
C1782 N1781 1.351 . S
C1782 C1783 1.434 . S
C1783 C1774 1.429 . S
C1783 N1780 1.350 . S
C1783 C1782 1.434 . S
C1784 C1785 1.369 . S
C1784 C1786 1.419 1_565 S
C1784 H1788 0.930 . S
C1785 C1784 1.369 . S
C1785 C1794 1.429 . S
C1786 C1784 1.419 1_545 S
C1786 C1787 1.363 . S
C1786 H1789 0.929 . S
C1787 C1786 1.363 . S
C1787 C1793 1.428 . S
H1788 C1784 0.930 . S
H1789 C1786 0.929 . S
S1790 N1791 1.613 . S
S1790 N1792 1.610 1_565 S
N1791 S1790 1.613 . S
N1791 C1794 1.350 . S
N1792 S1790 1.610 1_545 S
N1792 C1793 1.351 . S
C1793 C1787 1.428 . S
C1793 N1792 1.351 . S
C1793 C1794 1.434 1_545 S
C1794 C1785 1.429 . S
C1794 N1791 1.350 . S
C1794 C1793 1.434 1_565 S
C1795 C1796 1.369 . S
C1795 C1797 1.419 . S
C1795 H1799 0.930 . S
C1796 C1795 1.369 . S
C1796 C1805 1.429 . S
C1797 C1795 1.419 . S
C1797 C1798 1.363 . S
C1797 H1800 0.929 . S
C1798 C1797 1.363 . S
C1798 C1804 1.428 . S
H1799 C1795 0.930 . S
H1800 C1797 0.929 . S
S1801 N1802 1.613 . S
S1801 N1803 1.610 . S
N1802 S1801 1.613 . S
N1802 C1805 1.350 . S
N1803 S1801 1.610 . S
N1803 C1804 1.351 . S
C1804 C1798 1.428 . S
C1804 N1803 1.351 . S
C1804 C1805 1.434 . S
C1805 C1796 1.429 . S
C1805 N1802 1.350 . S
C1805 C1804 1.434 . S
C1806 C1807 1.369 1_556 S
C1806 C1808 1.419 1_565 S
C1806 H1810 0.930 . S
C1807 C1806 1.369 1_554 S
C1807 C1816 1.429 1_565 S
C1808 C1806 1.419 1_545 S
C1808 C1809 1.363 . S
C1808 H1811 0.929 1_545 S
C1809 C1808 1.363 . S
C1809 C1815 1.428 1_556 S
H1810 C1806 0.930 . S
H1811 C1808 0.929 1_565 S
S1812 N1813 1.613 . S
S1812 N1814 1.610 . S
N1813 S1812 1.613 . S
N1813 C1816 1.350 . S
N1814 S1812 1.610 . S
N1814 C1815 1.351 . S
C1815 C1809 1.428 1_554 S
C1815 N1814 1.351 . S
C1815 C1816 1.434 . S
C1816 C1807 1.429 1_545 S
C1816 N1813 1.350 . S
C1816 C1815 1.434 . S
C1817 C1818 1.369 . S
C1817 C1819 1.419 . S
C1817 H1821 0.930 . S
C1818 C1817 1.369 . S
C1818 C1827 1.429 . S
C1819 C1817 1.419 . S
C1819 C1820 1.363 . S
C1819 H1822 0.929 . S
C1820 C1819 1.363 . S
C1820 C1826 1.428 . S
H1821 C1817 0.930 . S
H1822 C1819 0.929 . S
S1823 N1824 1.613 . S
S1823 N1825 1.610 . S
N1824 S1823 1.613 . S
N1824 C1827 1.350 . S
N1825 S1823 1.610 . S
N1825 C1826 1.351 . S
C1826 C1820 1.428 . S
C1826 N1825 1.351 . S
C1826 C1827 1.434 . S
C1827 C1818 1.429 . S
C1827 N1824 1.350 . S
C1827 C1826 1.434 . S
C1828 C1829 1.369 . S
C1828 C1830 1.419 . S
C1828 H1832 0.930 . S
C1829 C1828 1.369 . S
C1829 C1838 1.429 . S
C1830 C1828 1.419 . S
C1830 C1831 1.363 1_565 S
C1830 H1833 0.929 . S
C1831 C1830 1.363 1_545 S
C1831 C1837 1.428 . S
H1832 C1828 0.930 . S
H1833 C1830 0.929 . S
S1834 N1835 1.613 . S
S1834 N1836 1.610 . S
N1835 S1834 1.613 . S
N1835 C1838 1.350 1_545 S
N1836 S1834 1.610 . S
N1836 C1837 1.351 . S
C1837 C1831 1.428 . S
C1837 N1836 1.351 . S
C1837 C1838 1.434 1_545 S
C1838 C1829 1.429 . S
C1838 N1835 1.350 1_565 S
C1838 C1837 1.434 1_565 S
C1839 C1840 1.369 . S
C1839 C1841 1.419 . S
C1839 H1843 0.930 . S
C1840 C1839 1.369 . S
C1840 C1849 1.429 . S
C1841 C1839 1.419 . S
C1841 C1842 1.363 . S
C1841 H1844 0.929 . S
C1842 C1841 1.363 . S
C1842 C1848 1.428 . S
H1843 C1839 0.930 . S
H1844 C1841 0.929 . S
S1845 N1846 1.613 . S
S1845 N1847 1.610 . S
N1846 S1845 1.613 . S
N1846 C1849 1.350 . S
N1847 S1845 1.610 . S
N1847 C1848 1.351 . S
C1848 C1842 1.428 . S
C1848 N1847 1.351 . S
C1848 C1849 1.434 . S
C1849 C1840 1.429 . S
C1849 N1846 1.350 . S
C1849 C1848 1.434 . S
C1850 C1851 1.369 . S
C1850 C1852 1.419 1_546 S
C1850 H1854 0.930 . S
C1851 C1850 1.369 . S
C1851 C1860 1.429 . S
C1852 C1850 1.419 1_564 S
C1852 C1853 1.363 . S
C1852 H1855 0.929 . S
C1853 C1852 1.363 . S
C1853 C1859 1.428 . S
H1854 C1850 0.930 . S
H1855 C1852 0.929 . S
S1856 N1857 1.613 1_554 S
S1856 N1858 1.610 1_545 S
N1857 S1856 1.613 1_556 S
N1857 C1860 1.350 . S
N1858 S1856 1.610 1_565 S
N1858 C1859 1.351 . S
C1859 C1853 1.428 . S
C1859 N1858 1.351 . S
C1859 C1860 1.434 1_564 S
C1860 C1851 1.429 . S
C1860 N1857 1.350 . S
C1860 C1859 1.434 1_546 S
C1861 C1862 1.369 . S
C1861 C1863 1.419 . S
C1861 H1865 0.930 . S
C1862 C1861 1.369 . S
C1862 C1871 1.429 . S
C1863 C1861 1.419 . S
C1863 C1864 1.363 . S
C1863 H1866 0.929 . S
C1864 C1863 1.363 . S
C1864 C1870 1.428 . S
H1865 C1861 0.930 . S
H1866 C1863 0.929 . S
S1867 N1868 1.613 . S
S1867 N1869 1.610 . S
N1868 S1867 1.613 . S
N1868 C1871 1.350 . S
N1869 S1867 1.610 . S
N1869 C1870 1.351 . S
C1870 C1864 1.428 . S
C1870 N1869 1.351 . S
C1870 C1871 1.434 . S
C1871 C1862 1.429 . S
C1871 N1868 1.350 . S
C1871 C1870 1.434 . S
C1345 C58 1.387 . S
C1347 C70 1.381 . S
C1356 C154 1.358 . S
C1358 C142 1.369 . S
C1367 C226 1.341 . S
C1369 C238 1.358 . S
C1378 C310 1.361 . S
C1380 C322 1.348 . S
C1389 C394 1.368 . S
C1391 C406 1.371 . S
C1400 C478 1.350 . S
C1402 C490 1.366 . S
C1411 C574 1.365 . S
C1413 C562 1.355 . S
C1422 C658 1.392 . S
C1424 C646 1.380 . S
C1433 C742 1.392 . S
C1435 C730 1.377 . S
C1444 C826 1.365 . S
C1446 C814 1.362 . S
C1455 C910 1.348 . S
C1457 C898 1.363 . S
C1466 C994 1.351 . S
C1468 C982 1.366 . S
C1477 C1078 1.364 . S
C1479 C1066 1.370 . S
C1488 C1162 1.355 . S
C1490 C1150 1.354 . S
C1499 C1234 1.365 . S
C1501 C1246 1.351 1_554 S
C1510 C1330 1.402 . S
C1512 C1318 1.387 . S
C1521 C74 1.742 . S
C1523 C991 1.815 . S
C1532 C140 1.798 . S
C1534 C1323 1.718 . S
C1543 C242 1.720 . S
C1545 C819 1.715 . S
C1554 C326 1.692 . S
C1556 C1155 1.698 . S
C1565 C410 1.738 . S
C1567 C1159 1.817 . S
C1576 C987 1.718 . S
C1578 C476 1.792 . S
C1587 C560 1.845 . S
C1589 C1327 1.852 . S
C1598 C644 1.833 . S
C1600 C823 1.827 . S
C1609 C308 1.767 . S
C1611 C735 1.699 . S
C1620 C158 1.735 . S
C1622 C907 1.812 . S
C1631 C1071 1.684 . S
C1633 C494 1.682 . S
C1642 C662 1.747 . S
C1644 C1243 1.822 . S
C1653 C739 1.872 . S
C1655 C392 1.875 . S
C1664 C578 1.705 . S
C1666 C903 1.706 . S
C1675 C224 1.834 . S
C1677 C1239 1.759 . S
C1686 C56 1.824 . S
C1688 C1075 1.823 . S
C1697 C63 1.630 . S
C1699 C399 1.638 . S
C1708 C151 1.545 . S
C1710 C487 1.547 . S
C1719 C231 1.716 . S
C1721 C571 1.591 . S
C1730 C315 1.644 . S
C1732 C655 1.522 . S
C1741 C1082 1.596 . S
C1743 C746 1.593 . S
C1752 C1166 1.683 . S
C1754 C812 1.560 . S
C1763 C896 1.584 . S
C1765 C1232 1.591 . S
C1774 C1334 1.631 . S
C1776 C998 1.641 . S
C1785 C147 1.648 . S
C1787 C651 1.641 . S
C1796 C403 1.590 . S
C1798 C235 1.597 . S
C1807 C483 1.660 . S
C1809 C319 1.539 . S
C1818 C67 1.514 . S
C1820 C567 1.627 . S
C1829 C1316 1.537 . S
C1831 C830 1.643 . S
C1840 C1064 1.553 . S
C1842 C914 1.676 . S
C1851 C1148 1.577 . S
C1853 C980 1.575 . S
C1862 C1250 1.685 . S
C1864 C728 1.566 . S
