# Generated by pormake.
# Topology unv, (4)-cn, num edge types: 1
# Building blocks:
#     Node 0, Type 0, BuildingBlock: TATPOV_clean_sbu_0, # of connection points: 4
#     Node 1, Type 0, BuildingBlock: TATPOV_clean_sbu_0, # of connection points: 4
#     Node 2, Type 0, BuildingBlock: TATPOV_clean_sbu_0, # of connection points: 4
#     Node 3, Type 0, BuildingBlock: TATPOV_clean_sbu_0, # of connection points: 4
#     Node 4, Type 0, BuildingBlock: TATPOV_clean_sbu_0, # of connection points: 4
#     Node 5, Type 0, BuildingBlock: TATPOV_clean_sbu_0, # of connection points: 4
#     Node 6, Type 0, BuildingBlock: TATPOV_clean_sbu_0, # of connection points: 4
#     Node 7, Type 0, BuildingBlock: TATPOV_clean_sbu_0, # of connection points: 4
#     Node 8, Type 0, BuildingBlock: TATPOV_clean_sbu_0, # of connection points: 4
#     Node 9, Type 0, BuildingBlock: TATPOV_clean_sbu_0, # of connection points: 4
#     Node 10, Type 0, BuildingBlock: TATPOV_clean_sbu_0, # of connection points: 4
#     Node 11, Type 0, BuildingBlock: TATPOV_clean_sbu_0, # of connection points: 4
#     Node 12, Type 0, BuildingBlock: TATPOV_clean_sbu_0, # of connection points: 4
#     Node 13, Type 0, BuildingBlock: TATPOV_clean_sbu_0, # of connection points: 4
#     Node 14, Type 0, BuildingBlock: TATPOV_clean_sbu_0, # of connection points: 4
#     Node 15, Type 0, BuildingBlock: TATPOV_clean_sbu_0, # of connection points: 4
#     Node 16, Type 0, BuildingBlock: TATPOV_clean_sbu_0, # of connection points: 4
#     Node 17, Type 0, BuildingBlock: TATPOV_clean_sbu_0, # of connection points: 4
#     Node 18, Type 0, BuildingBlock: TATPOV_clean_sbu_0, # of connection points: 4
#     Node 19, Type 0, BuildingBlock: TATPOV_clean_sbu_0, # of connection points: 4
#     Node 20, Type 0, BuildingBlock: TATPOV_clean_sbu_0, # of connection points: 4
#     Node 21, Type 0, BuildingBlock: TATPOV_clean_sbu_0, # of connection points: 4
#     Node 22, Type 0, BuildingBlock: TATPOV_clean_sbu_0, # of connection points: 4
#     Node 23, Type 0, BuildingBlock: TATPOV_clean_sbu_0, # of connection points: 4
#     Edge 24, Type (0, 0), BuildingBlock: XUDNAN_clean_linker_2, # of connection points: 2
#     Edge 25, Type (0, 0), BuildingBlock: XUDNAN_clean_linker_2, # of connection points: 2
#     Edge 26, Type (0, 0), BuildingBlock: XUDNAN_clean_linker_2, # of connection points: 2
#     Edge 27, Type (0, 0), BuildingBlock: XUDNAN_clean_linker_2, # of connection points: 2
#     Edge 28, Type (0, 0), BuildingBlock: XUDNAN_clean_linker_2, # of connection points: 2
#     Edge 29, Type (0, 0), BuildingBlock: XUDNAN_clean_linker_2, # of connection points: 2
#     Edge 30, Type (0, 0), BuildingBlock: XUDNAN_clean_linker_2, # of connection points: 2
#     Edge 31, Type (0, 0), BuildingBlock: XUDNAN_clean_linker_2, # of connection points: 2
#     Edge 32, Type (0, 0), BuildingBlock: XUDNAN_clean_linker_2, # of connection points: 2
#     Edge 33, Type (0, 0), BuildingBlock: XUDNAN_clean_linker_2, # of connection points: 2
#     Edge 34, Type (0, 0), BuildingBlock: XUDNAN_clean_linker_2, # of connection points: 2
#     Edge 35, Type (0, 0), BuildingBlock: XUDNAN_clean_linker_2, # of connection points: 2
#     Edge 36, Type (0, 0), BuildingBlock: XUDNAN_clean_linker_2, # of connection points: 2
#     Edge 37, Type (0, 0), BuildingBlock: XUDNAN_clean_linker_2, # of connection points: 2
#     Edge 38, Type (0, 0), BuildingBlock: XUDNAN_clean_linker_2, # of connection points: 2
#     Edge 39, Type (0, 0), BuildingBlock: XUDNAN_clean_linker_2, # of connection points: 2
#     Edge 40, Type (0, 0), BuildingBlock: XUDNAN_clean_linker_2, # of connection points: 2
#     Edge 41, Type (0, 0), BuildingBlock: XUDNAN_clean_linker_2, # of connection points: 2
#     Edge 42, Type (0, 0), BuildingBlock: XUDNAN_clean_linker_2, # of connection points: 2
#     Edge 43, Type (0, 0), BuildingBlock: XUDNAN_clean_linker_2, # of connection points: 2
#     Edge 44, Type (0, 0), BuildingBlock: XUDNAN_clean_linker_2, # of connection points: 2
#     Edge 45, Type (0, 0), BuildingBlock: XUDNAN_clean_linker_2, # of connection points: 2
#     Edge 46, Type (0, 0), BuildingBlock: XUDNAN_clean_linker_2, # of connection points: 2
#     Edge 47, Type (0, 0), BuildingBlock: XUDNAN_clean_linker_2, # of connection points: 2
#     Edge 48, Type (0, 0), BuildingBlock: XUDNAN_clean_linker_2, # of connection points: 2
#     Edge 49, Type (0, 0), BuildingBlock: XUDNAN_clean_linker_2, # of connection points: 2
#     Edge 50, Type (0, 0), BuildingBlock: XUDNAN_clean_linker_2, # of connection points: 2
#     Edge 51, Type (0, 0), BuildingBlock: XUDNAN_clean_linker_2, # of connection points: 2
#     Edge 52, Type (0, 0), BuildingBlock: XUDNAN_clean_linker_2, # of connection points: 2
#     Edge 53, Type (0, 0), BuildingBlock: XUDNAN_clean_linker_2, # of connection points: 2
#     Edge 54, Type (0, 0), BuildingBlock: XUDNAN_clean_linker_2, # of connection points: 2
#     Edge 55, Type (0, 0), BuildingBlock: XUDNAN_clean_linker_2, # of connection points: 2
#     Edge 56, Type (0, 0), BuildingBlock: XUDNAN_clean_linker_2, # of connection points: 2
#     Edge 57, Type (0, 0), BuildingBlock: XUDNAN_clean_linker_2, # of connection points: 2
#     Edge 58, Type (0, 0), BuildingBlock: XUDNAN_clean_linker_2, # of connection points: 2
#     Edge 59, Type (0, 0), BuildingBlock: XUDNAN_clean_linker_2, # of connection points: 2
#     Edge 60, Type (0, 0), BuildingBlock: XUDNAN_clean_linker_2, # of connection points: 2
#     Edge 61, Type (0, 0), BuildingBlock: XUDNAN_clean_linker_2, # of connection points: 2
#     Edge 62, Type (0, 0), BuildingBlock: XUDNAN_clean_linker_2, # of connection points: 2
#     Edge 63, Type (0, 0), BuildingBlock: XUDNAN_clean_linker_2, # of connection points: 2
#     Edge 64, Type (0, 0), BuildingBlock: XUDNAN_clean_linker_2, # of connection points: 2
#     Edge 65, Type (0, 0), BuildingBlock: XUDNAN_clean_linker_2, # of connection points: 2
#     Edge 66, Type (0, 0), BuildingBlock: XUDNAN_clean_linker_2, # of connection points: 2
#     Edge 67, Type (0, 0), BuildingBlock: XUDNAN_clean_linker_2, # of connection points: 2
#     Edge 68, Type (0, 0), BuildingBlock: XUDNAN_clean_linker_2, # of connection points: 2
#     Edge 69, Type (0, 0), BuildingBlock: XUDNAN_clean_linker_2, # of connection points: 2
#     Edge 70, Type (0, 0), BuildingBlock: XUDNAN_clean_linker_2, # of connection points: 2
#     Edge 71, Type (0, 0), BuildingBlock: XUDNAN_clean_linker_2, # of connection points: 2
# Relax obj value: 0.310
# Max RMSD: 0.272
# Mean RMSD: 0.268
data_MOF--net-unv--node1-TATPOV_clean_sbu_0--edge1-XUDNAN_clean_linker_2
_symmetry_space_group_name_H-M    P1
_symmetry_Int_Tables_number       1
_symmetry_cell_setting            triclinic
loop_
_symmetry_equiv_pos_as_xyz
'x, y, z'
_cell_length_a     48.445224
_cell_length_b     48.311905
_cell_length_c     48.350412
_cell_angle_alpha  89.983078
_cell_angle_beta   90.047074
_cell_angle_gamma 89.974582
loop_
_atom_site_label
_atom_site_type_symbol
_atom_site_fract_x
_atom_site_fract_y
_atom_site_fract_z
_atom_type_partial_charge
Zn0 Zn 0.97037 0.02646 0.42197 0.0
Zn1 Zn 0.96787 0.09664 0.38308 0.0
O2 O -0.00086 0.10457 0.4109 0.0
O3 O 0.99236 0.06247 0.42471 0.0
O4 O 0.969 0.13087 0.35893 0.0
O5 O 0.97676 0.0178 0.38134 0.0
O6 O 0.97576 0.05989 0.36053 0.0
C7 C 0.00602 0.08469 0.42645 0.0
C8 C 0.93099 0.07203 0.41592 0.0
O9 O 0.92889 0.09259 0.39992 0.0
O10 O 0.95527 0.065 0.42221 0.0
C11 C 0.96536 0.15247 0.37352 0.0
O12 O 0.95785 0.14932 0.39945 0.0
C13 C 0.97884 0.03335 0.35999 0.0
Zn14 Zn 0.03121 0.4782 0.40434 0.0
Zn15 Zn 0.03848 0.39594 0.35896 0.0
O16 O 0.01905 0.3904 0.39654 0.0
O17 O 0.02469 0.43476 0.39991 0.0
O18 O 0.03854 0.35788 0.3415 0.0
O19 O 0.02284 0.45075 0.37023 0.0
O20 O 0.01613 0.42335 0.3352 0.0
C21 C 0.01681 0.41208 0.41112 0.0
C22 C 0.07564 0.4353 0.37932 0.0
O23 O 0.07777 0.41252 0.36623 0.0
O24 O 0.05125 0.44404 0.38442 0.0
C25 C 0.04375 0.33863 0.35865 0.0
O26 O 0.05289 0.34536 0.38334 0.0
C27 C 0.01297 0.44726 0.34583 0.0
Zn28 Zn 0.03948 0.93867 0.13645 0.0
Zn29 Zn 0.99684 0.905 0.13438 0.0
O30 O 0.02848 0.88997 0.11045 0.0
O31 O 0.06658 0.9133 0.11713 0.0
O32 O 0.97409 0.87014 0.13655 0.0
O33 O 0.03797 0.94361 0.17787 0.0
O34 O 0.00097 0.91749 0.17487 0.0
C35 C 0.05396 0.89365 0.10534 0.0
C36 C 0.98903 0.95775 0.10522 0.0
O37 O 0.97718 0.93535 0.1126 0.0
O38 O 0.01385 0.96251 0.11235 0.0
C39 C 0.96852 0.85823 0.1138 0.0
O40 O 0.97226 0.87205 0.09069 0.0
C41 C 0.01723 0.93249 0.18922 0.0
Zn42 Zn 0.9809 0.55852 0.13164 0.0
Zn43 Zn 0.99596 0.60696 0.14599 0.0
O44 O 0.96935 0.60909 0.11179 0.0
O45 O 0.95365 0.56759 0.10249 0.0
O46 O -0.00035 0.64845 0.15112 0.0
O47 O 0.96993 0.54839 0.17007 0.0
O48 O 0.98326 0.58967 0.18379 0.0
C49 C 0.95449 0.59313 0.09703 0.0
C50 C 0.03952 0.56837 0.12435 0.0
O51 O 0.03475 0.59161 0.13592 0.0
O52 O 0.01999 0.55161 0.11969 0.0
C53 C 0.00591 0.65996 0.12828 0.0
O54 O 0.01453 0.64425 0.10785 0.0
C55 C 0.97401 0.56551 0.18944 0.0
Zn56 Zn 0.35666 0.00474 0.05229 0.0
Zn57 Zn 0.35133 0.98427 0.09905 0.0
O58 O 0.38021 0.01611 0.10235 0.0
O59 O 0.38842 0.0293 0.05974 0.0
O60 O 0.34776 0.97534 0.13919 0.0
O61 O 0.31949 0.02186 0.0512 0.0
O62 O 0.31172 0.99126 0.08374 0.0
C63 C 0.39339 0.03122 0.08529 0.0
C64 C 0.36644 0.94517 0.05524 0.0
O65 O 0.36645 0.94909 0.08122 0.0
O66 O 0.3614 0.96509 0.03891 0.0
C67 C 0.37095 0.96903 0.14975 0.0
O68 O 0.39199 0.96472 0.13315 0.0
C69 C 0.30263 0.00794 0.06538 0.0
Zn70 Zn 0.65432 0.48179 0.05153 0.0
Zn71 Zn 0.65373 0.50179 0.09608 0.0
O72 O 0.62142 0.47223 0.09596 0.0
O73 O 0.61872 0.46293 0.05166 0.0
O74 O 0.65861 0.51102 0.13654 0.0
O75 O 0.68781 0.45811 0.05463 0.0
O76 O 0.69407 0.49314 0.08232 0.0
C77 C 0.60933 0.46015 0.07581 0.0
C78 C 0.64739 0.54102 0.0506 0.0
O79 O 0.64152 0.53722 0.07602 0.0
O80 O 0.65657 0.52093 0.03643 0.0
C81 C 0.63795 0.51103 0.15274 0.0
O82 O 0.61319 0.50691 0.14245 0.0
C83 C 0.70418 0.47415 0.06696 0.0
Zn84 Zn 0.40128 0.00388 0.4776 0.0
Zn85 Zn 0.36326 0.01796 0.39331 0.0
O86 O 0.40088 0.99888 0.38858 0.0
O87 O 0.40216 0.00077 0.43337 0.0
O88 O 0.351 0.0228 0.35425 0.0
O89 O 0.37125 0.99757 0.44542 0.0
O90 O 0.33716 0.99306 0.41648 0.0
C91 C 0.41434 0.9947 0.41063 0.0
C92 C 0.37929 0.05149 0.4371 0.0
O93 O 0.36901 0.05589 0.41331 0.0
O94 O 0.38467 0.02639 0.44342 0.0
C95 C 0.37011 0.03469 0.34075 0.0
O96 O 0.38996 0.047 0.35462 0.0
C97 C 0.34701 0.98822 0.4404 0.0
Zn98 Zn 0.61096 0.49469 0.45594 0.0
Zn99 Zn 0.63065 0.49257 0.41163 0.0
O100 O 0.60014 0.52243 0.40806 0.0
O101 O 0.57404 0.50699 0.4416 0.0
O102 O 0.64796 0.49418 0.37377 0.0
O103 O 0.63796 0.52141 0.4726 0.0
O104 O 0.66138 0.49887 0.44108 0.0
C105 C 0.57693 0.52187 0.42032 0.0
C106 C 0.61515 0.4403 0.43838 0.0
O107 O 0.61442 0.45306 0.41536 0.0
O108 O 0.61886 0.45399 0.46033 0.0
C109 C 0.63071 0.4899 0.35441 0.0
O110 O 0.60524 0.48327 0.36099 0.0
C111 C 0.6608 0.51248 0.46375 0.0
Zn112 Zn 0.04569 0.37796 0.06115 0.0
Zn113 Zn 0.08267 0.36508 0.02547 0.0
O114 O 0.09664 0.39629 0.05164 0.0
O115 O 0.06994 0.39835 0.08809 0.0
O116 O 0.11853 0.35231 0.00898 0.0
O117 O 0.0326 0.3394 0.06868 0.0
O118 O 0.06339 0.32874 0.03716 0.0
C119 C 0.09129 0.40626 0.0754 0.0
C120 C 0.03755 0.39658 0.00226 0.0
O121 O 0.05881 0.3825 0.99596 0.0
O122 O 0.02972 0.39856 0.02729 0.0
C123 C 0.13616 0.3705 0.00206 0.0
O124 O 0.12863 0.39663 0.00166 0.0
C125 C 0.04402 0.32148 0.05346 0.0
Zn126 Zn 0.09157 0.63589 0.45779 0.0
Zn127 Zn 0.10199 0.62331 0.50917 0.0
O128 O 0.12573 0.59859 0.48372 0.0
O129 O 0.12234 0.61325 0.44098 0.0
O130 O 0.11579 0.61455 0.54749 0.0
O131 O 0.0939 0.67686 0.46392 0.0
O132 O 0.09704 0.66561 0.50776 0.0
C133 C 0.13233 0.5964 0.45832 0.0
C134 C 0.04644 0.60819 0.48845 0.0
O135 O 0.06342 0.60822 0.50853 0.0
O136 O 0.05353 0.61798 0.46511 0.0
C137 C 0.14111 0.61056 0.5531 0.0
O138 O 0.14808 0.60193 0.5779 0.0
C139 C 0.09333 0.68389 0.48913 0.0
Zn140 Zn 0.93253 0.87138 0.47378 0.0
Zn141 Zn 0.89994 0.85874 0.50991 0.0
O142 O 0.88419 0.88711 0.48088 0.0
O143 O 0.9093 0.88638 0.44343 0.0
O144 O 0.86401 0.84423 0.52529 0.0
O145 O 0.95276 0.83643 0.46866 0.0
O146 O 0.92594 0.82447 0.50324 0.0
C147 C 0.88838 0.89528 0.45615 0.0
C148 C 0.93914 0.89773 0.52978 0.0
O149 O 0.92018 0.88168 0.5384 0.0
O150 O 0.94607 0.89757 0.50441 0.0
C151 C 0.84663 0.86296 0.53152 0.0
O152 O 0.85524 0.88871 0.53296 0.0
C153 C 0.94592 0.819 0.48684 0.0
Zn154 Zn 0.41237 0.6402 0.52294 0.0
Zn155 Zn 0.37161 0.64174 0.4899 0.0
O156 O 0.36384 0.61188 0.52004 0.0
O157 O 0.39795 0.61247 0.54979 0.0
O158 O 0.3332 0.64633 0.47423 0.0
O159 O 0.4142 0.67997 0.533 0.0
O160 O 0.38684 0.68175 0.49685 0.0
C161 C 0.37516 0.60255 0.54192 0.0
C162 C 0.42224 0.62268 0.46442 0.0
O163 O 0.39639 0.62518 0.46054 0.0
O164 O 0.43291 0.62802 0.48782 0.0
C165 C 0.31979 0.62417 0.46951 0.0
O166 O 0.33295 0.60041 0.47065 0.0
C167 C 0.40271 0.69393 0.51415 0.0
Zn168 Zn 0.51107 0.54655 0.88871 0.0
Zn169 Zn 0.49065 0.59346 0.87131 0.0
O170 O 0.52251 0.60223 0.89918 0.0
O171 O 0.54333 0.56285 0.90822 0.0
O172 O 0.48278 0.63224 0.85768 0.0
O173 O 0.51584 0.53147 0.85043 0.0
O174 O 0.49776 0.57063 0.83569 0.0
C175 C 0.54195 0.58881 0.91081 0.0
C176 C 0.45313 0.55675 0.90386 0.0
O177 O 0.45525 0.57841 0.88898 0.0
O178 O 0.47398 0.54141 0.90804 0.0
C179 C 0.48133 0.65088 0.87619 0.0
O180 O 0.48112 0.64333 0.9023 0.0
C181 C 0.50739 0.54652 0.83078 0.0
Zn182 Zn 0.45898 0.93921 0.88641 0.0
Zn183 Zn 0.49159 0.90324 0.86938 0.0
O184 O 0.46457 0.88455 0.8976 0.0
O185 O 0.43523 0.91664 0.91035 0.0
O186 O 0.50707 0.8683 0.85262 0.0
O187 O 0.44375 0.95239 0.85123 0.0
O188 O 0.479 0.9282 0.83601 0.0
C189 C 0.44347 0.89191 0.91144 0.0
C190 C 0.51806 0.94818 0.89964 0.0
O191 O 0.52245 0.92437 0.88923 0.0
O192 O 0.49378 0.95801 0.90039 0.0
C193 C 0.5151 0.85072 0.87048 0.0
O194 O 0.51808 0.85892 0.89623 0.0
C195 C 0.45989 0.94601 0.83181 0.0
Zn196 Zn 0.49593 0.43698 0.61398 0.0
Zn197 Zn 0.46979 0.39276 0.62183 0.0
O198 O 0.49832 0.38545 0.5906 0.0
O199 O 0.51581 0.42583 0.57951 0.0
O200 O 0.46002 0.35303 0.62918 0.0
O201 O 0.51467 0.43814 0.65113 0.0
O202 O 0.47996 0.41034 0.65969 0.0
C203 C 0.51364 0.40017 0.57517 0.0
C204 C 0.4352 0.43983 0.60771 0.0
O205 O 0.43551 0.41346 0.60794 0.0
O206 O 0.45737 0.45334 0.61131 0.0
C207 C 0.45322 0.34017 0.60727 0.0
O208 O 0.44676 0.35479 0.58526 0.0
C209 C 0.49861 0.42687 0.66834 0.0
Zn210 Zn 0.50516 0.05277 0.62781 0.0
Zn211 Zn 0.52415 0.10339 0.6347 0.0
O212 O 0.49278 0.10565 0.60588 0.0
O213 O 0.47563 0.06388 0.60103 0.0
O214 O 0.53151 0.14429 0.63645 0.0
O215 O 0.49629 0.04963 0.6672 0.0
O216 O 0.5131 0.09147 0.67475 0.0
C217 C 0.47545 0.08929 0.59484 0.0
C218 C 0.56284 0.05922 0.61324 0.0
O219 O 0.55937 0.08471 0.61911 0.0
O220 O 0.54308 0.04223 0.61549 0.0
C221 C 0.53523 0.15467 0.61257 0.0
O222 O 0.54058 0.13783 0.5919 0.0
C223 C 0.50208 0.06914 0.68354 0.0
Zn224 Zn 0.86205 0.44705 0.5431 0.0
Zn225 Zn 0.87276 0.46374 0.59157 0.0
O226 O 0.88668 0.49704 0.57041 0.0
O227 O 0.87736 0.4835 0.52798 0.0
O228 O 0.87894 0.4745 0.63152 0.0
O229 O 0.82223 0.44204 0.54795 0.0
O230 O 0.82969 0.46151 0.58826 0.0
C231 C 0.88724 0.50135 0.54448 0.0
C232 C 0.90398 0.41476 0.56325 0.0
O233 O 0.90109 0.43216 0.58296 0.0
O234 O 0.88647 0.41432 0.54389 0.0
C235 C 0.9005 0.48791 0.63827 0.0
O236 O 0.91938 0.49275 0.61939 0.0
C237 C 0.81295 0.45226 0.57008 0.0
Zn238 Zn 0.15561 0.98808 0.51957 0.0
Zn239 Zn 0.15726 0.01216 0.59694 0.0
O240 O 0.1263 0.98815 0.57811 0.0
O241 O 0.11928 0.97323 0.53463 0.0
O242 O 0.14625 0.01469 0.63709 0.0
O243 O 0.18058 0.98788 0.5541 0.0
O244 O 0.19704 0.99541 0.59468 0.0
C245 C 0.11206 0.97488 0.56007 0.0
C246 C 0.15571 0.04153 0.55105 0.0
O247 O 0.15333 0.04932 0.57602 0.0
O248 O 0.16625 0.01787 0.54741 0.0
C249 C 0.12075 0.0131 0.64318 0.0
O250 O 0.10239 0.0136 0.62317 0.0
C251 C 0.20035 0.98478 0.57099 0.0
Zn252 Zn 0.85638 0.55301 0.95353 0.0
Zn253 Zn 0.86222 0.54661 0.88319 0.0
O254 O 0.88905 0.5175 0.8953 0.0
O255 O 0.886 0.52318 0.94097 0.0
O256 O 0.86362 0.54561 0.84147 0.0
O257 O 0.82519 0.56532 0.92686 0.0
O258 O 0.82479 0.53193 0.89748 0.0
C259 C 0.89649 0.51135 0.91978 0.0
C260 C 0.86891 0.59662 0.91846 0.0
O261 O 0.8794 0.58322 0.89845 0.0
O262 O 0.84671 0.58685 0.92822 0.0
C263 C 0.88547 0.55443 0.8299 0.0
O264 O 0.90482 0.56563 0.84532 0.0
C265 C 0.81341 0.54377 0.91789 0.0
Zn266 Zn 0.11211 8e-05 0.93468 0.0
Zn267 Zn 0.11804 0.97578 0.8911 0.0
O268 O 0.0868 0.00489 0.88553 0.0
O269 O 0.07511 0.01638 0.9278 0.0
O270 O 0.12451 0.9658 0.85129 0.0
O271 O 0.14664 0.02291 0.93249 0.0
O272 O 0.15607 0.98658 0.9073 0.0
C273 C 0.07053 0.01722 0.90212 0.0
C274 C 0.10995 0.94014 0.9388 0.0
O275 O 0.106 0.94092 0.91272 0.0
O276 O 0.1151 0.96225 0.9519 0.0
C277 C 0.10304 0.95876 0.8379 0.0
O278 O 0.08017 0.95392 0.85167 0.0
C279 C 0.16428 0.00626 0.92284 0.0
Zn280 Zn 0.54896 0.88504 0.47332 0.0
Zn281 Zn 0.59465 0.86595 0.47372 0.0
O282 O 0.59649 0.89497 0.50485 0.0
O283 O 0.56651 0.92168 0.484 0.0
O284 O 0.6331 0.84963 0.47601 0.0
O285 O 0.53494 0.85784 0.5016 0.0
O286 O 0.56549 0.83425 0.47802 0.0
C287 C 0.5864 0.91892 0.50069 0.0
C288 C 0.56882 0.88662 0.4228 0.0
O289 O 0.59078 0.88787 0.43722 0.0
O290 O 0.54885 0.87322 0.43288 0.0
C291 C 0.65218 0.86771 0.47704 0.0
O292 O 0.64565 0.89381 0.47303 0.0
C293 C 0.54359 0.83483 0.49273 0.0
Zn294 Zn 0.53058 0.11407 0.99673 0.0
Zn295 Zn 0.61114 0.14129 0.03462 0.0
O296 O 0.61871 0.10969 0.00632 0.0
O297 O 0.5746 0.11363 0.00096 0.0
O298 O 0.64895 0.15016 0.04836 0.0
O299 O 0.56356 0.14236 0.00469 0.0
O300 O 0.59043 0.17564 0.01792 0.0
C301 C 0.59703 0.10111 0.99451 0.0
C302 C 0.5626 0.1193 0.0554 0.0
O303 O 0.58569 0.12631 0.06579 0.0
O304 O 0.56044 0.12025 0.02906 0.0
C305 C 0.66065 0.12908 0.05887 0.0
O306 O 0.64516 0.10788 0.06589 0.0
C307 C 0.5678 0.1684 0.00665 0.0
Zn308 Zn 0.42332 0.35403 0.95895 0.0
Zn309 Zn 0.39055 0.35086 0.99889 0.0
O310 O 0.38086 0.38321 0.97249 0.0
O311 O 0.40294 0.37978 0.93321 0.0
O312 O 0.35354 0.3426 0.01584 0.0
O313 O 0.42973 0.31421 0.94998 0.0
O314 O 0.40708 0.31224 0.98915 0.0
C315 C 0.38542 0.39205 0.94814 0.0
C316 C 0.44107 0.37343 0.01689 0.0
O317 O 0.4173 0.3672 0.02621 0.0
O318 O 0.4466 0.36994 0.99135 0.0
C319 C 0.33733 0.36273 0.02063 0.0
O320 O 0.34704 0.38808 0.01923 0.0
C321 C 0.42145 0.3003 0.9705 0.0
Zn322 Zn 0.96417 0.15318 0.94553 0.0
Zn323 Zn 0.88814 0.14778 0.95364 0.0
O324 O 0.90951 0.12051 0.9779 0.0
O325 O 0.95561 0.12271 0.9751 0.0
O326 O 0.84844 0.14197 0.96318 0.0
O327 O 0.93341 0.18247 0.94065 0.0
O328 O 0.89873 0.18602 0.96829 0.0
C329 C 0.93352 0.1123 0.98525 0.0
C330 C 0.91958 0.14308 0.905 0.0
O331 O 0.89579 0.13632 0.91346 0.0
O332 O 0.93155 0.16212 0.91859 0.0
C333 C 0.83997 0.1177 0.96862 0.0
O334 O 0.85661 0.09661 0.9646 0.0
C335 C 0.92249 0.19434 0.96139 0.0
H336 H 0.10819 0.07288 0.55418 0.0
H337 H 0.16678 0.03704 0.49659 0.0
H338 H 0.13643 0.04948 0.45767 0.0
H339 H 0.05035 0.04791 0.52303 0.0
H340 H 0.02831 0.07758 0.52805 0.0
H341 H 0.05643 0.07119 0.55151 0.0
H342 H 0.07679 0.11979 0.54179 0.0
H343 H 0.04831 0.12685 0.51881 0.0
H344 H 0.08328 0.13027 0.5066 0.0
H345 H 0.09785 0.05934 0.42602 0.0
H346 H 0.05311 0.06789 0.40294 0.0
H347 H 0.01861 0.09715 0.4802 0.0
C348 C 0.11506 0.06871 0.53329 0.0
C349 C 0.13992 0.05427 0.5283 0.0
C350 C 0.14787 0.04827 0.50078 0.0
C351 C 0.1308 0.05528 0.47854 0.0
C352 C 0.10595 0.06855 0.48413 0.0
C353 C 0.09814 0.07557 0.51073 0.0
C354 C 0.06912 0.0874 0.51108 0.0
C355 C 0.04991 0.06998 0.52951 0.0
C356 C 0.0694 0.11789 0.52011 0.0
C357 C 0.06152 0.08478 0.48078 0.0
C358 C 0.0833 0.07427 0.46558 0.0
C359 C 0.08089 0.06828 0.4375 0.0
C360 C 0.05552 0.07322 0.42459 0.0
C361 C 0.03303 0.08387 0.43979 0.0
C362 C 0.03596 0.08979 0.46815 0.0
H363 H 0.98027 0.37568 0.43355 0.0
H364 H 0.03311 0.44501 0.45405 0.0
H365 H 0.01848 0.44173 0.50297 0.0
H366 H 0.92525 0.39865 0.47114 0.0
H367 H 0.91323 0.36481 0.48124 0.0
H368 H 0.93305 0.36875 0.45023 0.0
H369 H 0.96771 0.33218 0.46882 0.0
H370 H 0.94824 0.32908 0.50045 0.0
H371 H 0.98442 0.33767 0.50169 0.0
H372 H 0.99387 0.43525 0.54757 0.0
H373 H 0.95409 0.4352 0.579 0.0
H374 H 0.91558 0.37092 0.52997 0.0
C375 C 0.9892 0.38971 0.44856 0.0
C376 C 0.00796 0.41042 0.44025 0.0
C377 C 0.01868 0.429 0.46012 0.0
C378 C 0.01083 0.42696 0.488 0.0
C379 C 0.99213 0.40633 0.49563 0.0
C380 C 0.98106 0.38835 0.47631 0.0
C381 C 0.95751 0.37172 0.48844 0.0
C382 C 0.9307 0.37629 0.4718 0.0
C383 C 0.96493 0.34083 0.48994 0.0
C384 C 0.95587 0.38435 0.51711 0.0
C385 C 0.97688 0.40332 0.5213 0.0
C386 C 0.97759 0.42019 0.54471 0.0
C387 C 0.95494 0.41976 0.56277 0.0
C388 C 0.93154 0.40332 0.55664 0.0
C389 C 0.93334 0.38349 0.53521 0.0
H390 H 0.10691 0.89803 0.08658 0.0
H391 H 0.02813 0.86018 0.06764 0.0
H392 H 0.04249 0.85401 0.0194 0.0
H393 H 0.11018 0.93917 0.03719 0.0
H394 H 0.14625 0.93719 0.02816 0.0
H395 H 0.13549 0.92782 0.06217 0.0
H396 H 0.15792 0.87953 0.05657 0.0
H397 H 0.16905 0.88897 0.02224 0.0
H398 H 0.14887 0.85807 0.02745 0.0
H399 H 0.05664 0.86855 0.97268 0.0
H400 H 0.07052 0.89949 0.93441 0.0
H401 H 0.14165 0.92556 0.98168 0.0
C402 C 0.0934 0.88696 0.07261 0.0
C403 C 0.06633 0.88002 0.08079 0.0
C404 C 0.049 0.8658 0.06193 0.0
C405 C 0.05705 0.86211 0.03433 0.0
C406 C 0.08284 0.8719 0.02607 0.0
C407 C 0.10127 0.88312 0.04497 0.0
C408 C 0.12533 0.89679 0.03038 0.0
C409 C 0.12947 0.92701 0.04002 0.0
C410 C 0.15186 0.87981 0.0344 0.0
C411 C 0.11549 0.89514 0.00068 0.0
C412 C 0.0916 0.8796 0.99833 0.0
C413 C 0.07594 0.87973 0.97396 0.0
C414 C 0.08396 0.89731 0.95219 0.0
C415 C 0.10719 0.91464 0.95526 0.0
C416 C 0.12404 0.91203 0.9789 0.0
H417 H 0.95393 0.56468 0.0496 0.0
H418 H 0.93008 0.64369 0.08444 0.0
H419 H 0.91054 0.65766 0.03874 0.0
H420 H 0.97424 0.58852 0.98276 0.0
H421 H 0.96008 0.55935 0.96467 0.0
H422 H 0.9727 0.55529 -0.00042 0.0
H423 H 0.92601 0.53656 0.01717 0.0
H424 H 0.91159 0.53866 0.98309 0.0
H425 H 0.89499 0.55614 0.01102 0.0
H426 H 0.8871 0.65829 0.98986 0.0
H427 H 0.86534 0.64669 0.94476 0.0
H428 H 0.91179 0.57036 0.94195 0.0
C429 C 0.94473 0.58505 0.04768 0.0
C430 C 0.94291 0.60289 0.07054 0.0
C431 C 0.93126 0.62957 0.06709 0.0
C432 C 0.92033 0.63768 0.04121 0.0
C433 C 0.92222 0.61918 0.019 0.0
C434 C 0.93464 0.59365 0.02217 0.0
C435 C 0.93282 0.57646 0.99637 0.0
C436 C 0.96166 0.56943 0.98522 0.0
C437 C 0.91541 0.55041 0.00222 0.0
C438 C 0.91784 0.5962 0.9775 0.0
C439 C 0.9112 0.62063 0.99091 0.0
C440 C 0.89318 0.63976 0.97887 0.0
C441 C 0.88113 0.63319 0.95312 0.0
C442 C 0.88783 0.60818 0.93938 0.0
C443 C 0.90731 0.59019 0.95132 0.0
H444 H 0.40865 0.07914 0.06133 0.0
H445 H 0.42896 0.02405 0.12897 0.0
H446 H 0.473 0.04914 0.13604 0.0
H447 H 0.468 0.07802 0.03073 0.0
H448 H 0.46966 0.11364 0.01972 0.0
H449 H 0.43681 0.09786 0.02584 0.0
H450 H 0.42441 0.13631 0.0611 0.0
H451 H 0.45734 0.15252 0.05477 0.0
H452 H 0.4474 0.14346 0.08953 0.0
H453 H 0.51909 0.07227 0.12757 0.0
H454 H 0.56108 0.09128 0.10502 0.0
H455 H 0.50982 0.13029 0.04285 0.0
C456 C 0.42189 0.07316 0.07838 0.0
C457 C 0.41566 0.04976 0.09455 0.0
C458 C 0.43338 0.04217 0.11654 0.0
C459 C 0.45839 0.05635 0.1207 0.0
C460 C 0.46484 0.07839 0.10312 0.0
C461 C 0.44665 0.08715 0.08279 0.0
C462 C 0.45974 0.10817 0.06375 0.0
C463 C 0.45849 0.09882 0.03325 0.0
C464 C 0.44643 0.13681 0.06753 0.0
C465 C 0.48885 0.10788 0.07479 0.0
C466 C 0.49138 0.09147 0.09811 0.0
C467 C 0.51718 0.08577 0.1098 0.0
C468 C 0.54091 0.09652 0.09688 0.0
C469 C 0.53845 0.11205 0.07224 0.0
C470 C 0.51213 0.1185 0.06176 0.0
H471 H 0.59428 0.41714 0.04427 0.0
H472 H 0.56697 0.46649 0.11382 0.0
H473 H 0.52062 0.44448 0.11078 0.0
H474 H 0.53728 0.42709 0.00571 0.0
H475 H 0.53708 0.39333 0.98986 0.0
H476 H 0.56899 0.40795 0.00177 0.0
H477 H 0.57782 0.36497 0.03269 0.0
H478 H 0.54604 0.34989 0.02051 0.0
H479 H 0.55184 0.35416 0.05709 0.0
H480 H 0.47485 0.42172 0.09419 0.0
H481 H 0.43643 0.40108 0.06693 0.0
H482 H 0.49579 0.36932 0.00788 0.0
C483 C 0.57885 0.42271 0.0595 0.0
C484 C 0.58411 0.44339 0.07931 0.0
C485 C 0.56337 0.45035 0.09871 0.0
C486 C 0.53701 0.43803 0.09701 0.0
C487 C 0.53207 0.41868 0.07603 0.0
C488 C 0.55274 0.4109 0.05789 0.0
C489 C 0.54208 0.39263 0.035 0.0
C490 C 0.54662 0.40607 0.00643 0.0
C491 C 0.55522 0.36369 0.03643 0.0
C492 C 0.51193 0.39177 0.04244 0.0
C493 C 0.5063 0.40648 0.06632 0.0
C494 C 0.47921 0.40983 0.07574 0.0
C495 C 0.45753 0.39811 0.06015 0.0
C496 C 0.46319 0.38378 0.03524 0.0
C497 C 0.49077 0.38026 0.02678 0.0
H498 H 0.53163 0.88781 0.38084 0.0
H499 H 0.58564 0.93997 0.42947 0.0
H500 H 0.55264 0.97823 0.42543 0.0
H501 H 0.49867 0.95007 0.3373 0.0
H502 H 0.46622 0.93183 0.33751 0.0
H503 H 0.49818 0.91283 0.33509 0.0
H504 H 0.4831 0.88392 0.37737 0.0
H505 H 0.45199 0.9036 0.38123 0.0
H506 H 0.47591 0.90114 0.4097 0.0
H507 H 0.50763 0.00175 0.43307 0.0
H508 H 0.45872 0.01613 0.43783 0.0
H509 H 0.43434 0.95172 0.38059 0.0
C510 C 0.53748 0.90801 0.38858 0.0
C511 C 0.56082 0.91076 0.40589 0.0
C512 C 0.56783 0.93729 0.41618 0.0
C513 C 0.54895 0.95917 0.41426 0.0
C514 C 0.52402 0.95455 0.40061 0.0
C515 C 0.51892 0.93017 0.38641 0.0
C516 C 0.48924 0.92902 0.37638 0.0
C517 C 0.48801 0.93107 0.34469 0.0
C518 C 0.47422 0.90289 0.38682 0.0
C519 C 0.47781 0.95491 0.38975 0.0
C520 C 0.49819 0.96947 0.40351 0.0
C521 C 0.49174 0.99136 0.42126 0.0
C522 C 0.46394 0.99907 0.42426 0.0
C523 C 0.44309 0.98511 0.40936 0.0
C524 C 0.45015 0.96298 0.39174 0.0
H525 H 0.4277 0.5703 0.4462 0.0
H526 H 0.45976 0.65313 0.43649 0.0
H527 H 0.49964 0.63481 0.41051 0.0
H528 H 0.48447 0.54249 0.46604 0.0
H529 H 0.48184 0.50923 0.44933 0.0
H530 H 0.4512 0.52857 0.45666 0.0
H531 H 0.43713 0.52688 0.40501 0.0
H532 H 0.46781 0.50711 0.39747 0.0
H533 H 0.46091 0.53874 0.37893 0.0
H534 H 0.54072 0.60772 0.39718 0.0
H535 H 0.57969 0.5748 0.4006 0.0
H536 H 0.52267 0.50924 0.4219 0.0
C537 C 0.44232 0.5845 0.43696 0.0
C538 C 0.44049 0.61302 0.44234 0.0
C539 C 0.4606 0.63125 0.43166 0.0
C540 C 0.48325 0.62099 0.41686 0.0
C541 C 0.48549 0.59244 0.41313 0.0
C542 C 0.46534 0.5744 0.42267 0.0
C543 C 0.47522 0.54469 0.42159 0.0
C544 C 0.47308 0.53047 0.45009 0.0
C545 C 0.45933 0.5284 0.39942 0.0
C546 C 0.50491 0.5491 0.41297 0.0
C547 C 0.51008 0.57656 0.40672 0.0
C548 C 0.53677 0.58606 0.40127 0.0
C549 C 0.5588 0.56729 0.40329 0.0
C550 C 0.55394 0.53967 0.41154 0.0
C551 C 0.52667 0.5303 0.41535 0.0
H552 H 0.09647 0.45206 0.04494 0.0
H553 H 0.1118 0.41922 0.12655 0.0
H554 H 0.1186 0.46659 0.14439 0.0
H555 H 0.13592 0.52357 0.05355 0.0
H556 H 0.10827 0.54034 0.03503 0.0
H557 H 0.11883 0.50579 0.02561 0.0
H558 H 0.06854 0.48874 0.03164 0.0
H559 H 0.05801 0.52287 0.04087 0.0
H560 H 0.05121 0.4945 0.06416 0.0
H561 H 0.10901 0.51459 0.15643 0.0
H562 H 0.07713 0.55371 0.16291 0.0
H563 H 0.06202 0.55634 0.075 0.0
C564 C 0.10312 0.455 0.06612 0.0
C565 C 0.10448 0.43222 0.08426 0.0
C566 C 0.11146 0.43649 0.11226 0.0
C567 C 0.11543 0.4634 0.12247 0.0
C568 C 0.11165 0.48584 0.10456 0.0
C569 C 0.10561 0.48183 0.07679 0.0
C570 C 0.09455 0.50813 0.06368 0.0
C571 C 0.11566 0.52017 0.04327 0.0
C572 C 0.06643 0.50324 0.04933 0.0
C573 C 0.09195 0.5264 0.08905 0.0
C574 C 0.10387 0.51397 0.11199 0.0
C575 C 0.10037 0.52488 0.13853 0.0
C576 C 0.08236 0.54735 0.14207 0.0
C577 C 0.0676 0.5581 0.11932 0.0
C578 C 0.07396 0.54887 0.09242 0.0
H579 H 0.08493 0.45008 0.43185 0.0
H580 H 0.1175 0.45836 0.3491 0.0
H581 H 0.14804 0.49634 0.36503 0.0
H582 H 0.07665 0.51559 0.44449 0.0
H583 H 0.08585 0.51566 0.48063 0.0
H584 H 0.07358 0.4845 0.4649 0.0
H585 H 0.11791 0.45874 0.4803 0.0
H586 H 0.13044 0.49005 0.49628 0.0
H587 H 0.1513 0.47233 0.471 0.0
H588 H 0.16273 0.54129 0.38618 0.0
H589 H 0.16156 0.58621 0.41061 0.0
H590 H 0.12403 0.54644 0.48141 0.0
C591 C 0.09969 0.45894 0.41755 0.0
C592 C 0.09942 0.45119 0.3895 0.0
C593 C 0.11806 0.46366 0.37086 0.0
C594 C 0.13539 0.48527 0.37978 0.0
C595 C 0.1342 0.49353 0.40749 0.0
C596 C 0.11728 0.48014 0.42628 0.0
C597 C 0.11628 0.49531 0.45364 0.0
C598 C 0.08635 0.50324 0.46131 0.0
C599 C 0.1298 0.47808 0.47666 0.0
C600 C 0.13351 0.5205 0.44675 0.0
C601 C 0.14406 0.51902 0.42017 0.0
C602 C 0.15565 0.54222 0.40738 0.0
C603 C 0.155 0.56771 0.42142 0.0
C604 C 0.14316 0.56969 0.44808 0.0
C605 C 0.13414 0.54537 0.46147 0.0
H606 H 0.89434 0.91881 0.4055 0.0
H607 H 0.85295 0.92978 0.48407 0.0
H608 H 0.84762 0.97945 0.47429 0.0
H609 H 0.93632 0.96828 0.41279 0.0
H610 H 0.93808 0.98053 0.37769 0.0
H611 H 0.92802 0.94569 0.38424 0.0
H612 H 0.88259 0.95328 0.35728 0.0
H613 H 0.8923 0.98861 0.35027 0.0
H614 H 0.85981 0.98122 0.36672 0.0
H615 H 0.86187 0.02768 0.46493 0.0
H616 H 0.89073 0.06874 0.45488 0.0
H617 H 0.92343 0.02791 0.38253 0.0
C618 C 0.88273 0.93142 0.41989 0.0
C619 C 0.87448 0.92053 0.44566 0.0
C620 C 0.85952 0.93761 0.46414 0.0
C621 C 0.85643 0.96599 0.45874 0.0
C622 C 0.8679 0.97681 0.43455 0.0
C623 C 0.88007 0.95983 0.41496 0.0
C624 C 0.8959 0.97654 0.39375 0.0
C625 C 0.92634 0.96721 0.3921 0.0
C626 C 0.88181 0.97482 0.36532 0.0
C627 C 0.89316 0.00526 0.40597 0.0
C628 C 0.87615 0.00521 0.42898 0.0
C629 C 0.87424 0.02828 0.44633 0.0
C630 C 0.89069 0.05151 0.44054 0.0
C631 C 0.90875 0.05143 0.41767 0.0
C632 C 0.9092 0.02851 0.3997 0.0
H633 H 0.38348 0.5861 0.59481 0.0
H634 H 0.34609 0.5605 0.51769 0.0
H635 H 0.34484 0.51227 0.53425 0.0
H636 H 0.42908 0.54002 0.59906 0.0
H637 H 0.4287 0.53298 0.63569 0.0
H638 H 0.41655 0.56556 0.62322 0.0
H639 H 0.36947 0.55776 0.6473 0.0
H640 H 0.38168 0.52492 0.66021 0.0
H641 H 0.35012 0.52664 0.64051 0.0
H642 H 0.36264 0.46709 0.55139 0.0
H643 H 0.3953 0.43134 0.56814 0.0
H644 H 0.4198 0.4854 0.635 0.0
C645 C 0.3736 0.57049 0.58215 0.0
C646 C 0.36502 0.57688 0.55505 0.0
C647 C 0.35255 0.55608 0.53868 0.0
C648 C 0.35176 0.52854 0.54797 0.0
C649 C 0.36276 0.52237 0.57397 0.0
C650 C 0.37262 0.54303 0.59126 0.0
C651 C 0.38786 0.531 0.6158 0.0
C652 C 0.41726 0.54308 0.61852 0.0
C653 C 0.37128 0.53533 0.64254 0.0
C654 C 0.38827 0.50076 0.60774 0.0
C655 C 0.37269 0.49584 0.58423 0.0
C656 C 0.37397 0.47041 0.5704 0.0
C657 C 0.39254 0.45015 0.58001 0.0
C658 C 0.40977 0.4558 0.60287 0.0
C659 C 0.4064 0.48065 0.61769 0.0
H660 H 0.6643 0.5568 -0.00018 0.0
H661 H 0.61094 0.5815 0.06715 0.0
H662 H 0.58599 0.61291 0.03568 0.0
H663 H 0.65578 0.62426 0.95402 0.0
H664 H 0.65522 0.60254 0.92372 0.0
H665 H 0.6769 0.59356 0.95273 0.0
H666 H 0.6541 0.54522 0.95455 0.0
H667 H 0.63237 0.554 0.92608 0.0
H668 H 0.61711 0.5427 0.95817 0.0
H669 H 0.55765 0.62782 0.99607 0.0
H670 H 0.52863 0.62152 0.95456 0.0
H671 H 0.59726 0.58365 0.91198 0.0
C672 C 0.64824 0.56994 0.00819 0.0
C673 C 0.63935 0.56657 0.03575 0.0
C674 C 0.61823 0.58387 0.04611 0.0
C675 C 0.60395 0.60185 0.02828 0.0
C676 C 0.61121 0.60242 0.00029 0.0
C677 C 0.63334 0.58715 0.9904 0.0
C678 C 0.63295 0.58536 0.95912 0.0
C679 C 0.65661 0.60246 0.94667 0.0
C680 C 0.63414 0.55505 0.94895 0.0
C681 C 0.60532 0.5987 0.95318 0.0
C682 C 0.59391 0.61007 0.97689 0.0
C683 C 0.56673 0.61982 0.97726 0.0
C684 C 0.55034 0.61622 0.95357 0.0
C685 C 0.56101 0.60227 0.93026 0.0
C686 C 0.5891 0.59488 0.92954 0.0
H687 H 0.34095 0.92097 0.01261 0.0
H688 H 0.40826 0.91005 0.07009 0.0
H689 H 0.42828 0.87414 0.03987 0.0
H690 H 0.34556 0.84411 0.97955 0.0
H691 H 0.33697 0.85919 0.94654 0.0
H692 H 0.32108 0.87215 0.97769 0.0
H693 H 0.33755 0.92155 0.96554 0.0
H694 H 0.35312 0.90887 0.93476 0.0
H695 H 0.37382 0.92764 0.9595 0.0
H696 H 0.44972 0.85654 0.99804 0.0
H697 H 0.46983 0.86301 0.95182 0.0
H698 H 0.38954 0.88342 0.91915 0.0
C699 C 0.35907 0.9097 0.01933 0.0
C700 C 0.37323 0.91806 0.04329 0.0
C701 C 0.39702 0.90357 0.05183 0.0
C702 C 0.40842 0.88304 0.03475 0.0
C703 C 0.39542 0.87699 0.00959 0.0
C704 C 0.37062 0.88941 0.00231 0.0
C705 C 0.36402 0.88494 0.97204 0.0
C706 C 0.34053 0.86383 0.96878 0.0
C707 C 0.35681 0.91237 0.95715 0.0
C708 C 0.39114 0.87274 0.96236 0.0
C709 C 0.40824 0.86635 0.98454 0.0
C710 C 0.43625 0.86046 0.98061 0.0
C711 C 0.4476 0.86402 0.95417 0.0
C712 C 0.43096 0.87381 0.93232 0.0
C713 C 0.40222 0.87548 0.93581 0.0
H714 H 0.49973 0.40988 0.52241 0.0
H715 H 0.55785 0.36524 0.57341 0.0
H716 H 0.58601 0.35467 0.53206 0.0
H717 H 0.51297 0.36589 0.45425 0.0
H718 H 0.50864 0.39695 0.43403 0.0
H719 H 0.48832 0.39174 0.46484 0.0
H720 H 0.50537 0.43872 0.48433 0.0
H721 H 0.52497 0.44408 0.45362 0.0
H722 H 0.54199 0.44506 0.4868 0.0
H723 H 0.61453 0.36426 0.49178 0.0
H724 H 0.63961 0.39429 0.45943 0.0
H725 H 0.56265 0.42774 0.42963 0.0
C726 C 0.51771 0.3967 0.52437 0.0
C727 C 0.52677 0.38815 0.55065 0.0
C728 C 0.55057 0.37157 0.55319 0.0
C729 C 0.56651 0.36535 0.52975 0.0
C730 C 0.5579 0.37536 0.50398 0.0
C731 C 0.53356 0.39015 0.50109 0.0
C732 C 0.53133 0.40311 0.47266 0.0
C733 C 0.509 0.38854 0.45543 0.0
C734 C 0.52566 0.43456 0.47451 0.0
C735 C 0.55985 0.39677 0.46143 0.0
C736 C 0.57447 0.37963 0.47929 0.0
C737 C 0.60306 0.37657 0.47701 0.0
C738 C 0.61728 0.39349 0.45827 0.0
C739 C 0.60281 0.41288 0.44193 0.0
C740 C 0.5738 0.4122 0.44131 0.0
H741 H 0.4234 0.07182 0.58537 0.0
H742 H 0.48607 0.12766 0.55468 0.0
H743 H 0.45899 0.13468 0.51184 0.0
H744 H 0.41429 0.03645 0.53068 0.0
H745 H 0.37751 0.0315 0.53157 0.0
H746 H 0.39575 0.03827 0.56298 0.0
H747 H 0.36493 0.08019 0.57319 0.0
H748 H 0.34577 0.0752 0.54157 0.0
H749 H 0.362 0.10794 0.54843 0.0
H750 H 0.43287 0.1243 0.46824 0.0
H751 H 0.41045 0.09836 0.4301 0.0
H752 H 0.36373 0.05142 0.48988 0.0
C753 C 0.43069 0.08649 0.5701 0.0
C754 C 0.45664 0.09915 0.57308 0.0
C755 C 0.46599 0.11799 0.55276 0.0
C756 C 0.45068 0.12215 0.52841 0.0
C757 C 0.42573 0.10801 0.52527 0.0
C758 C 0.41544 0.09113 0.54603 0.0
C759 C 0.39064 0.07489 0.53634 0.0
C760 C 0.39482 0.04347 0.54063 0.0
C761 C 0.36429 0.08515 0.55075 0.0
C762 C 0.39051 0.0827 0.5061 0.0
C763 C 0.41014 0.10264 0.50012 0.0
C764 C 0.41669 0.10955 0.47279 0.0
C765 C 0.40384 0.09484 0.45121 0.0
C766 C 0.3851 0.07334 0.45733 0.0
C767 C 0.37742 0.06832 0.48488 0.0
H768 H 0.02472 0.58676 0.53604 0.0
H769 H 0.0044 0.60479 0.45042 0.0
H770 H 0.95782 0.58527 0.45754 0.0
H771 H 0.99271 0.52262 0.53872 0.0
H772 H 0.98087 0.52606 0.57388 0.0
H773 H 0.01115 0.54439 0.56272 0.0
H774 H 0.98907 0.59063 0.57862 0.0
H775 H 0.95855 0.57237 0.58961 0.0
H776 H 0.95571 0.60058 0.56536 0.0
H777 H 0.91592 0.55846 0.47237 0.0
H778 H 0.88261 0.52598 0.4936 0.0
H779 H 0.92967 0.52775 0.56992 0.0
C780 C 0.01039 0.587 0.51884 0.0
C781 C 0.01824 0.59727 0.49265 0.0
C782 C -0.00112 0.59699 0.47067 0.0
C783 C 0.97231 0.58612 0.47456 0.0
C784 C 0.96535 0.57592 0.50061 0.0
C785 C 0.98384 0.57638 0.5224 0.0
C786 C 0.9722 0.56216 0.54769 0.0
C787 C 0.9903 0.53734 0.55623 0.0
C788 C 0.96867 0.58267 0.57173 0.0
C789 C 0.94457 0.55286 0.5365 0.0
C790 C 0.94086 0.56116 0.50937 0.0
C791 C 0.91828 0.55236 0.49378 0.0
C792 C 0.89949 0.53393 0.50596 0.0
C793 C 0.90338 0.52473 0.53348 0.0
C794 C 0.92571 0.53508 0.54911 0.0
H795 H 0.95943 0.94848 0.52017 0.0
H796 H 0.95896 0.88251 0.58061 0.0
H797 H 0.00052 0.90246 0.60271 0.0
H798 H 0.02321 0.94582 0.50484 0.0
H799 H 0.03062 0.98215 0.5006 0.0
H800 H 0.99603 0.9699 0.49628 0.0
H801 H 0.9783 0.00379 0.53376 0.0
H802 H 0.01288 0.01694 0.53763 0.0
H803 H 0.99442 0.0043 0.56737 0.0
H804 H 0.04845 0.9219 0.60967 0.0
H805 H 0.09592 0.93974 0.60167 0.0
H806 H 0.06544 0.99088 0.53483 0.0
C807 C 0.96723 0.93924 0.53904 0.0
C808 C 0.9561 0.91422 0.54889 0.0
C809 C 0.96697 0.90207 0.57316 0.0
C810 C 0.99067 0.91323 0.58574 0.0
C811 C 0.0027 0.93676 0.57402 0.0
C812 C 0.99082 0.95005 0.55156 0.0
C813 C 0.00978 0.97182 0.53962 0.0
C814 C 0.01523 0.96708 0.50853 0.0
C815 C 0.99816 0.00094 0.54493 0.0
C816 C 0.0353 0.96666 0.55678 0.0
C817 C 0.03062 0.94729 0.57735 0.0
C818 C 0.05211 0.93753 0.59406 0.0
C819 C 0.07897 0.94752 0.58929 0.0
C820 C 0.084 0.96623 0.56741 0.0
C821 C 0.06187 0.97637 0.55154 0.0
H822 H 0.02258 0.45013 0.00253 0.0
H823 H 0.01511 0.37454 0.95513 0.0
H824 H 0.98049 0.39718 0.92458 0.0
H825 H 0.9556 0.46813 0.00461 0.0
H826 H 0.9604 0.50483 0.00036 0.0
H827 H 0.98748 0.4843 0.01518 0.0
H828 H 0.02162 0.50163 0.97806 0.0
H829 H 0.99499 0.52266 0.96275 0.0
H830 H 0.01325 0.49786 0.94192 0.0
H831 H 0.94157 0.42703 0.90377 0.0
H832 H 0.90456 0.46134 0.89378 0.0
H833 H 0.93982 0.51667 0.95451 0.0
C834 C 0.0142 0.43867 0.98519 0.0
C835 C 0.02138 0.41083 0.9809 0.0
C836 C 0.01 0.39614 0.95831 0.0
C837 C 0.99031 0.4088 0.941 0.0
C838 C 0.98293 0.43624 0.94633 0.0
C839 C 0.99508 0.45109 0.96757 0.0
C840 C 0.98285 0.47966 0.97023 0.0
C841 C 0.97087 0.48446 -0.00068 0.0
C842 C 0.00445 0.50176 0.9628 0.0
C843 C 0.96047 0.478 0.94857 0.0
C844 C 0.96105 0.45312 0.93448 0.0
C845 C 0.94124 0.44671 0.91444 0.0
C846 C 0.92029 0.4662 0.90895 0.0
C847 C 0.91914 0.49136 0.9239 0.0
C848 C 0.9398 0.49736 0.94343 0.0
H849 H 0.02052 0.01989 0.9264 0.0
H850 H 0.06643 0.049 0.85531 0.0
H851 H 0.02748 0.07995 0.84279 0.0
H852 H 0.94995 0.02393 0.8929 0.0
H853 H 0.9345 0.03462 0.92508 0.0
H854 H 0.9638 0.0116 0.92527 0.0
H855 H 0.99082 0.04554 0.95716 0.0
H856 H 0.96087 0.06718 0.95727 0.0
H857 H 0.99376 0.08138 0.94703 0.0
H858 H 0.98852 0.11456 0.84484 0.0
H859 H 0.95149 0.14701 0.859 0.0
H860 H 0.92912 0.09212 0.92603 0.0
C861 C 0.022 0.03228 0.90778 0.0
C862 C 0.04631 0.03237 0.89187 0.0
C863 C 0.04777 0.04869 0.86764 0.0
C864 C 0.02576 0.06623 0.86039 0.0
C865 C 0.00228 0.06637 0.87715 0.0
C866 C 7e-05 0.04926 0.89997 0.0
C867 C 0.9739 0.05476 0.91599 0.0
C868 C 0.95438 0.02973 0.9147 0.0
C869 C 0.98032 0.06274 0.94613 0.0
C870 C 0.96249 0.07895 0.89978 0.0
C871 C 0.97896 0.08522 0.87723 0.0
C872 C 0.97486 0.10924 0.86173 0.0
C873 C 0.95386 0.12754 0.86987 0.0
C874 C 0.93708 0.12143 0.89295 0.0
C875 C 0.94097 0.09654 0.90757 0.0
H876 H 0.5915 0.01343 0.62598 0.0
H877 H 0.58694 0.08073 0.56744 0.0
H878 H 0.60833 0.05132 0.53191 0.0
H879 H 0.65622 0.97462 0.58904 0.0
H880 H 0.6404 0.94214 0.59821 0.0
H881 H 0.63872 0.97108 0.62173 0.0
H882 H 0.58568 0.96594 0.62299 0.0
H883 H 0.58684 0.93797 0.59889 0.0
H884 H 0.56632 0.96816 0.59114 0.0
H885 H 0.60801 0.01233 0.50031 0.0
H886 H 0.59529 0.96886 0.47699 0.0
H887 H 0.60227 0.92463 0.55447 0.0
C888 C 0.59721 0.02241 0.60628 0.0
C889 C 0.58778 0.04912 0.59926 0.0
C890 C 0.59453 0.06044 0.57326 0.0
C891 C 0.60651 0.04369 0.55287 0.0
C892 C 0.61221 0.01603 0.55922 0.0
C893 C 0.60904 0.00573 0.5858 0.0
C894 C 0.611 0.97435 0.58614 0.0
C895 C 0.63821 0.965 0.59957 0.0
C896 C 0.58596 0.96088 0.6006 0.0
C897 C 0.61123 0.96846 0.55542 0.0
C898 C 0.61301 0.99276 0.54026 0.0
C899 C 0.60798 0.99314 0.51185 0.0
C900 C 0.60041 0.96842 0.49881 0.0
C901 C 0.59813 0.94357 0.51407 0.0
C902 C 0.6047 0.94336 0.54241 0.0
H903 H 0.56704 0.0933 0.94814 0.0
H904 H 0.62543 0.05289 0.00258 0.0
H905 H 0.61779 0.00848 0.978 0.0
H906 H 0.5191 0.04485 0.94551 0.0
H907 H 0.51042 0.04785 0.90936 0.0
H908 H 0.52501 0.07686 0.92724 0.0
H909 H 0.56452 0.07949 0.89118 0.0
H910 H 0.54993 0.05034 0.87302 0.0
H911 H 0.58533 0.04931 0.88445 0.0
H912 H 0.59619 0.96706 0.95332 0.0
H913 H 0.56407 0.93403 0.93046 0.0
H914 H 0.52217 0.00279 0.89119 0.0
C915 C 0.57887 0.07524 0.95418 0.0
C916 C 0.59675 0.07625 0.97705 0.0
C917 C 0.61183 0.05239 0.98479 0.0
C918 C 0.60764 0.02716 0.97093 0.0
C919 C 0.58903 0.02654 0.94887 0.0
C920 C 0.57547 0.05024 0.94012 0.0
C921 C 0.55484 0.04398 0.91759 0.0
C922 C 0.52564 0.05395 0.92543 0.0
C923 C 0.56422 0.05652 0.88992 0.0
C924 C 0.55679 0.0128 0.91696 0.0
C925 C 0.57718 0.00296 0.93442 0.0
C926 C 0.58068 0.97457 0.93906 0.0
C927 C 0.56241 0.95595 0.92606 0.0
C928 C 0.54075 0.96604 0.90924 0.0
C929 C 0.53865 0.99464 0.90399 0.0
H930 H 0.43599 0.53847 0.95396 0.0
H931 H 0.41132 0.54628 0.86846 0.0
H932 H 0.37755 0.50872 0.87466 0.0
H933 H 0.44102 0.47481 0.95862 0.0
H934 H 0.42623 0.46781 0.99211 0.0
H935 H 0.43957 0.50146 0.98474 0.0
H936 H 0.39257 0.52379 0.99677 0.0
H937 H 0.37901 0.48996 0.00481 0.0
H938 H 0.36155 0.51172 0.98007 0.0
H939 H 0.36433 0.4604 0.88391 0.0
H940 H 0.36508 0.41137 0.89869 0.0
H941 H 0.39096 0.43648 0.98047 0.0
C942 C 0.42191 0.53355 0.93728 0.0
C943 C 0.42592 0.54525 0.9109 0.0
C944 C 0.40806 0.53792 0.88899 0.0
C945 C 0.38888 0.51645 0.89234 0.0
C946 C 0.38711 0.50336 0.91802 0.0
C947 C 0.40213 0.51263 0.94063 0.0
C948 C 0.3997 0.49266 0.9647 0.0
C949 C 0.42831 0.48365 0.97561 0.0
C950 C 0.38216 0.50529 0.98796 0.0
C951 C 0.38452 0.46903 0.95085 0.0
C952 C 0.37685 0.47574 0.92407 0.0
C953 C 0.36867 0.4553 0.90527 0.0
C954 C 0.36923 0.42747 0.91372 0.0
C955 C 0.3772 0.42047 0.94091 0.0
C956 C 0.38351 0.4416 0.95997 0.0
H957 H 0.98051 0.09058 0.00847 0.0
H958 H 0.89139 0.08103 0.00715 0.0
H959 H 0.89538 0.0403 0.03772 0.0
H960 H 0.99652 0.01882 0.00622 0.0
H961 H 0.02593 0.02167 0.0289 0.0
H962 H 0.01588 0.05064 0.00774 0.0
H963 H 0.01227 0.08168 0.05134 0.0
H964 H 0.02254 0.05287 0.07263 0.0
H965 H 0.99073 0.07088 0.07976 0.0
H966 H 0.90972 0.99886 0.06731 0.0
H967 H 0.93311 0.96248 0.09499 0.0
H968 H 0.01225 0.0003 0.07661 0.0
C969 C 0.96176 0.08013 0.01474 0.0
C970 C 0.93566 0.08904 0.00523 0.0
C971 C 0.91168 0.07464 0.01403 0.0
C972 C 0.91372 0.0514 0.03139 0.0
C973 C 0.93986 0.04287 0.03989 0.0
C974 C 0.96341 0.05695 0.03197 0.0
C975 C 0.98909 0.04351 0.04359 0.0
C976 C 0.00796 0.03304 0.02022 0.0
C977 C 0.00456 0.06343 0.06298 0.0
C978 C 0.97636 0.01973 0.0594 0.0
C979 C 0.94796 0.01949 0.05696 0.0
C980 C 0.93195 0.99897 0.06947 0.0
C981 C 0.94539 0.97835 0.08507 0.0
C982 C 0.97447 0.97863 0.08813 0.0
C983 C 0.98997 0.9996 0.07495 0.0
H984 H 0.97609 0.19731 0.40544 0.0
H985 H 0.97653 0.16975 0.32007 0.0
H986 H 0.99626 0.21505 0.30587 0.0
H987 H 0.96016 0.26968 0.39325 0.0
H988 H 0.98278 0.28104 0.42059 0.0
H989 H 0.96624 0.24775 0.42281 0.0
H990 H 0.01413 0.2245 0.42903 0.0
H991 H 0.03083 0.25765 0.42637 0.0
H992 H 0.04051 0.22997 0.40333 0.0
H993 H 0.01673 0.26454 0.30189 0.0
H994 H 0.03696 0.31135 0.30887 0.0
H995 H 0.02616 0.30238 0.39742 0.0
C996 C 0.97979 0.20084 0.38364 0.0
C997 C 0.97448 0.18008 0.36381 0.0
C998 C 0.98026 0.18546 0.33559 0.0
C999 C 0.99149 0.2111 0.32737 0.0
C1000 C 0.99707 0.23089 0.3477 0.0
C1001 C 0.99142 0.22585 0.37526 0.0
C1002 C 0.00073 0.24941 0.39353 0.0
C1003 C 0.976 0.26276 0.40841 0.0
C1004 C 0.02286 0.23979 0.41427 0.0
C1005 C 0.01273 0.26858 0.37207 0.0
C1006 C 0.01016 0.25794 0.34565 0.0
C1007 C 0.01901 0.27287 0.32254 0.0
C1008 C 0.03053 0.29935 0.32666 0.0
C1009 C 0.03358 0.31021 0.35369 0.0
C1010 C 0.02472 0.29441 0.37653 0.0
H1011 H 0.00125 0.7044 0.16424 0.0
H1012 H 0.99057 0.68026 0.0784 0.0
H1013 H 0.97401 0.72701 0.06713 0.0
H1014 H 0.94223 0.75183 0.1684 0.0
H1015 H 0.96034 0.7769 0.18922 0.0
H1016 H 0.96924 0.74074 0.19156 0.0
H1017 H 0.02018 0.7522 0.17993 0.0
H1018 H 0.01148 0.78836 0.17797 0.0
H1019 H 0.02793 0.7716 0.14903 0.0
H1020 H 0.96018 0.77622 0.06427 0.0
H1021 H 0.95545 0.82677 0.06886 0.0
H1022 H 0.97626 0.82062 0.15603 0.0
C1023 C 0.99527 0.70902 0.14315 0.0
C1024 C 0.99724 0.6887 0.12221 0.0
C1025 C 0.98952 0.69554 0.09476 0.0
C1026 C 0.97977 0.72198 0.08817 0.0
C1027 C 0.97802 0.74155 0.10918 0.0
C1028 C 0.9859 0.73563 0.13604 0.0
C1029 C 0.98411 0.76129 0.15405 0.0
C1030 C 0.9627 0.75745 0.17718 0.0
C1031 C 0.01262 0.7688 0.16593 0.0
C1032 C 0.97445 0.78252 0.13297 0.0
C1033 C 0.97059 0.77048 0.10736 0.0
C1034 C 0.96297 0.78592 0.08425 0.0
C1035 C 0.96026 0.81464 0.08708 0.0
C1036 C 0.9654 0.82772 0.11278 0.0
C1037 C 0.97177 0.81125 0.13619 0.0
H1038 H 0.33257 0.9758 0.19109 0.0
H1039 H 0.42082 0.97411 0.1752 0.0
H1040 H 0.42964 0.99123 0.22225 0.0
H1041 H 0.33076 0.03671 0.22919 0.0
H1042 H 0.30573 0.02543 0.25434 0.0
H1043 H 0.30578 0.01055 0.22021 0.0
H1044 H 0.31053 0.96132 0.24091 0.0
H1045 H 0.3098 0.97598 0.27516 0.0
H1046 H 0.33812 0.95407 0.26489 0.0
H1047 H 0.42886 0.01438 0.26781 0.0
H1048 H 0.41925 0.03372 0.31383 0.0
H1049 H 0.33174 0.01784 0.30227 0.0
C1050 C 0.35375 0.97841 0.19777 0.0
C1051 C 0.37598 0.97377 0.17944 0.0
C1052 C 0.40344 0.97744 0.18887 0.0
C1053 C 0.40869 0.98734 0.21552 0.0
C1054 C 0.3863 0.99292 0.23261 0.0
C1055 C 0.35942 0.98786 0.22452 0.0
C1056 C 0.33919 0.99583 0.24707 0.0
C1057 C 0.3192 0.01848 0.23709 0.0
C1058 C 0.32349 0.97027 0.25764 0.0
C1059 C 0.35894 0.00685 0.26872 0.0
C1060 C 0.38596 0.00522 0.25974 0.0
C1061 C 0.40785 0.01535 0.27534 0.0
C1062 C 0.4021 0.0266 0.30132 0.0
C1063 C 0.37473 0.02722 0.31161 0.0
C1064 C 0.35284 0.01752 0.29492 0.0
H1065 H 0.6005 0.49812 0.19292 0.0
H1066 H 0.68481 0.52602 0.18105 0.0
H1067 H 0.69242 0.52419 0.23164 0.0
H1068 H 0.58713 0.53449 0.25729 0.0
H1069 H 0.5672 0.50635 0.27143 0.0
H1070 H 0.56819 0.51175 0.2346 0.0
H1071 H 0.5849 0.46123 0.22786 0.0
H1072 H 0.58431 0.45579 0.26468 0.0
H1073 H 0.61558 0.44958 0.24549 0.0
H1074 H 0.69107 0.51741 0.28384 0.0
H1075 H 0.68038 0.50753 0.33295 0.0
H1076 H 0.59741 0.48303 0.30944 0.0
C1077 C 0.62046 0.50427 0.20093 0.0
C1078 C 0.64203 0.51233 0.18305 0.0
C1079 C 0.66796 0.51981 0.19439 0.0
C1080 C 0.67248 0.51882 0.22308 0.0
C1081 C 0.6509 0.51019 0.24008 0.0
C1082 C 0.62538 0.50315 0.22939 0.0
C1083 C 0.60589 0.49351 0.25183 0.0
C1084 C 0.58062 0.51268 0.25391 0.0
C1085 C 0.59717 0.46323 0.24718 0.0
C1086 C 0.62439 0.49626 0.27687 0.0
C1087 C 0.65027 0.50591 0.26978 0.0
C1088 C 0.67084 0.5099 0.28961 0.0
C1089 C 0.66462 0.50414 0.31743 0.0
C1090 C 0.63808 0.49448 0.32506 0.0
C1091 C 0.61791 0.49037 0.30436 0.0
H1092 H 0.29651 0.40168 0.01678 0.0
H1093 H 0.3099 0.31314 0.02438 0.0
H1094 H 0.25988 0.30516 0.01808 0.0
H1095 H 0.23042 0.40428 0.05213 0.0
H1096 H 0.21691 0.43039 0.02917 0.0
H1097 H 0.25342 0.4287 0.03591 0.0
H1098 H 0.26249 0.42525 0.98318 0.0
H1099 H 0.22595 0.42623 0.97633 0.0
H1100 H 0.2465 0.39787 0.96357 0.0
H1101 H 0.20843 0.30693 0.00924 0.0
H1102 H 0.15914 0.31857 0.00303 0.0
H1103 H 0.18023 0.40585 -0.00018 0.0
C1104 C 0.28893 0.38062 0.01764 0.0
C1105 C 0.30714 0.35803 0.02116 0.0
C1106 C 0.29633 0.33078 0.0218 0.0
C1107 C 0.26798 0.32603 0.01808 0.0
C1108 C 0.25077 0.34874 0.01365 0.0
C1109 C 0.26081 0.37551 0.01373 0.0
C1110 C 0.23812 0.39631 0.00813 0.0
C1111 C 0.2345 0.41608 0.03281 0.0
C1112 C 0.2436 0.41235 0.9812 0.0
C1113 C 0.21365 0.37709 0.00509 0.0
C1114 C 0.22136 0.34973 0.00819 0.0
C1115 C 0.20216 0.32829 0.00681 0.0
C1116 C 0.17423 0.3351 0.00314 0.0
C1117 C 0.16579 0.36312 0.00093 0.0
C1118 C 0.18596 0.38423 0.00121 0.0
H1119 H 0.18197 0.57505 0.538 0.0
H1120 H 0.14917 0.65688 0.52218 0.0
H1121 H 0.18841 0.66676 0.49093 0.0
H1122 H 0.24954 0.59181 0.54283 0.0
H1123 H 0.26313 0.56188 0.52523 0.0
H1124 H 0.23025 0.5599 0.5422 0.0
H1125 H 0.20744 0.54396 0.49632 0.0
H1126 H 0.2404 0.54599 0.47911 0.0
H1127 H 0.21119 0.56483 0.46566 0.0
H1128 H 0.23545 0.67072 0.46956 0.0
H1129 H 0.28515 0.66774 0.45829 0.0
H1130 H 0.28582 0.582 0.48478 0.0
C1131 C 0.18281 0.59475 0.52733 0.0
C1132 C 0.16261 0.61518 0.53213 0.0
C1133 C 0.16426 0.64085 0.51822 0.0
C1134 C 0.18646 0.64659 0.50048 0.0
C1135 C 0.20642 0.62616 0.49645 0.0
C1136 C 0.20448 0.60053 0.50909 0.0
C1137 C 0.22959 0.5829 0.50302 0.0
C1138 C 0.24396 0.57361 0.52992 0.0
C1139 C 0.22169 0.55794 0.48495 0.0
C1140 C 0.247 0.6034 0.48698 0.0
C1141 C 0.2331 0.62808 0.48292 0.0
C1142 C 0.24627 0.65125 0.47185 0.0
C1143 C 0.27452 0.64942 0.46557 0.0
C1144 C 0.28925 0.62456 0.47032 0.0
C1145 C 0.27496 0.60105 0.48018 0.0
H1146 H 0.69394 0.90335 0.48983 0.0
H1147 H 0.67438 0.8158 0.48547 0.0
H1148 H 0.72117 0.80463 0.50302 0.0
H1149 H 0.76374 0.89836 0.46785 0.0
H1150 H 0.77567 0.92515 0.49087 0.0
H1151 H 0.74066 0.92565 0.47845 0.0
H1152 H 0.72302 0.9269 0.52907 0.0
H1153 H 0.75803 0.926 0.54163 0.0
H1154 H 0.73362 0.90021 0.55289 0.0
H1155 H 0.77143 0.80345 0.51917 0.0
H1156 H 0.82047 0.81233 0.53069 0.0
H1157 H 0.80512 0.90073 0.52641 0.0
C1158 C 0.69942 0.88177 0.49244 0.0
C1159 C 0.6805 0.86043 0.48613 0.0
C1160 C 0.68856 0.8325 0.49007 0.0
C1161 C 0.71504 0.82598 0.50016 0.0
C1162 C 0.73306 0.84763 0.50646 0.0
C1163 C 0.72551 0.87496 0.5027 0.0
C1164 C 0.74865 0.89448 0.51048 0.0
C1165 C 0.75771 0.91192 0.48542 0.0
C1166 C 0.74032 0.91298 0.53498 0.0
C1167 C 0.77067 0.87391 0.51876 0.0
C1168 C 0.76137 0.84696 0.51644 0.0
C1169 C 0.7788 0.82448 0.52134 0.0
C1170 C 0.8066 0.82971 0.52795 0.0
C1171 C 0.81663 0.85721 0.52969 0.0
C1172 C 0.7981 0.87946 0.52576 0.0
H1173 H 0.51677 0.80824 0.90753 0.0
H1174 H 0.50929 0.82537 0.81972 0.0
H1175 H 0.5 0.77569 0.81106 0.0
H1176 H 0.54848 0.73985 0.90191 0.0
H1177 H 0.52941 0.72669 0.93107 0.0
H1178 H 0.53824 0.76285 0.92941 0.0
H1179 H 0.48655 0.77554 0.93522 0.0
H1180 H 0.47749 0.73943 0.93635 0.0
H1181 H 0.46159 0.76187 0.91116 0.0
H1182 H 0.48905 0.72391 0.81279 0.0
H1183 H 0.4793 0.67495 0.82454 0.0
H1184 H 0.49175 0.69368 0.91145 0.0
C1185 C 0.51384 0.80156 0.88635 0.0
C1186 C 0.51399 0.82071 0.86426 0.0
C1187 C 0.50949 0.81104 0.83695 0.0
C1188 C 0.50409 0.78289 0.83186 0.0
C1189 C 0.50313 0.76476 0.85432 0.0
C1190 C 0.50807 0.77377 0.88099 0.0
C1191 C 0.50448 0.75067 0.90179 0.0
C1192 C 0.53178 0.74466 0.91693 0.0
C1193 C 0.48114 0.75728 0.92233 0.0
C1194 C 0.49659 0.72719 0.88272 0.0
C1195 C 0.49604 0.73556 0.85539 0.0
C1196 C 0.48947 0.71717 0.83413 0.0
C1197 C 0.48385 0.68944 0.841 0.0
C1198 C 0.48459 0.68049 0.86892 0.0
C1199 C 0.49073 0.69983 0.88993 0.0
H1200 H 0.4723 0.30386 0.64704 0.0
H1201 H 0.45177 0.30985 0.55973 0.0
H1202 H 0.47237 0.26402 0.55177 0.0
H1203 H 0.53681 0.27135 0.63922 0.0
H1204 H 0.53337 0.24844 0.66845 0.0
H1205 H 0.51557 0.28118 0.6682 0.0
H1206 H 0.4688 0.25639 0.67601 0.0
H1207 H 0.48653 0.22362 0.67694 0.0
H1208 H 0.45852 0.22894 0.65295 0.0
H1209 H 0.49915 0.22017 0.55209 0.0
H1210 H 0.52297 0.17635 0.56202 0.0
H1211 H 0.52439 0.19685 0.64951 0.0
C1212 C 0.47159 0.29527 0.62636 0.0
C1213 C 0.4605 0.31058 0.604 0.0
C1214 C 0.46009 0.29861 0.57724 0.0
C1215 C 0.47193 0.27263 0.57243 0.0
C1216 C 0.48375 0.25866 0.59464 0.0
C1217 C 0.48307 0.26915 0.62121 0.0
C1218 C 0.49712 0.24962 0.64138 0.0
C1219 C 0.5222 0.26349 0.65512 0.0
C1220 C 0.47651 0.23901 0.6631 0.0
C1221 C 0.50602 0.22671 0.62189 0.0
C1222 C 0.4984 0.23262 0.59499 0.0
C1223 C 0.50494 0.21512 0.57311 0.0
C1224 C 0.51873 0.19035 0.57899 0.0
C1225 C 0.5255 0.18308 0.60658 0.0
C1226 C 0.51948 0.20182 0.62823 0.0
H1227 H 0.85686 0.52015 0.7946 0.0
H1228 H 0.92608 0.57711 0.79804 0.0
H1229 H 0.9374 0.56613 0.74952 0.0
H1230 H 0.89089 0.46875 0.75421 0.0
H1231 H 0.86075 0.45952 0.73438 0.0
H1232 H 0.85697 0.47282 0.76897 0.0
H1233 H 0.82493 0.51176 0.7509 0.0
H1234 H 0.82834 0.49841 0.7163 0.0
H1235 H 0.83672 0.53405 0.72343 0.0
H1236 H 0.94253 0.54759 0.70148 0.0
H1237 H 0.93961 0.52459 0.65605 0.0
H1238 H 0.86713 0.47948 0.68359 0.0
C1239 C 0.87415 0.53063 0.78502 0.0
C1240 C 0.89055 0.54958 0.8001 0.0
C1241 C 0.91323 0.56253 0.78692 0.0
C1242 C 0.91985 0.55641 0.75937 0.0
C1243 C 0.90364 0.53722 0.74529 0.0
C1244 C 0.88117 0.52462 0.75756 0.0
C1245 C 0.86761 0.50419 0.738 0.0
C1246 C 0.86916 0.47457 0.74959 0.0
C1247 C 0.83762 0.51262 0.73179 0.0
C1248 C 0.88586 0.50747 0.71276 0.0
C1249 C 0.90661 0.5265 0.71749 0.0
C1250 C 0.9263 0.53274 0.69747 0.0
C1251 C 0.92452 0.51946 0.67175 0.0
C1252 C 0.90312 0.50025 0.6662 0.0
C1253 C 0.88368 0.49411 0.68714 0.0
H1254 H 0.15144 0.01635 0.69091 0.0
H1255 H 0.07098 0.99226 0.65946 0.0
H1256 H 0.05853 0.97413 0.70545 0.0
H1257 H 0.16279 0.95895 0.73436 0.0
H1258 H 0.17847 0.9783 0.7621 0.0
H1259 H 0.18087 0.99074 0.72708 0.0
H1260 H 0.15903 0.03751 0.7415 0.0
H1261 H 0.1571 0.02544 0.7767 0.0
H1262 H 0.12643 0.03768 0.75946 0.0
H1263 H 0.05572 0.95624 0.75397 0.0
H1264 H 0.0606 0.94472 0.80343 0.0
H1265 H 0.14264 0.98096 0.80368 0.0
C1266 C 0.13109 0.00756 0.6938 0.0
C1267 C 0.11222 0.00566 0.67157 0.0
C1268 C 0.08574 0.99409 0.67619 0.0
C1269 C 0.07852 0.98356 0.70221 0.0
C1270 C 0.09788 0.98504 0.72346 0.0
C1271 C 0.12341 0.99722 0.71972 0.0
C1272 C 0.14024 0.99651 0.74614 0.0
C1273 C 0.16718 0.98014 0.74217 0.0
C1274 C 0.14603 0.02604 0.75657 0.0
C1275 C 0.12044 0.98141 0.76511 0.0
C1276 C 0.09613 0.97499 0.75159 0.0
C1277 C 0.0746 0.96128 0.76484 0.0
C1278 C 0.07763 0.95469 0.79291 0.0
C1279 C 0.10201 0.96186 0.80746 0.0
C1280 C 0.12385 0.97493 0.79312 0.0
H1281 H 0.79983 0.15649 0.97796 0.0
H1282 H 0.82098 0.07053 0.99361 0.0
H1283 H 0.77964 0.06579 0.02308 0.0
H1284 H 0.77401 0.17222 0.0457 0.0
H1285 H 0.74635 0.19387 0.03325 0.0
H1286 H 0.77777 0.19078 0.01358 0.0
H1287 H 0.75007 0.17489 0.97048 0.0
H1288 H 0.71858 0.17865 0.98981 0.0
H1289 H 0.72661 0.14608 0.9735 0.0
H1290 H 0.73639 0.07066 0.05126 0.0
H1291 H 0.69061 0.08241 0.07005 0.0
H1292 H 0.69773 0.16516 0.03566 0.0
C1293 C 0.79574 0.13661 0.98748 0.0
C1294 C 0.8137 0.11392 0.98361 0.0
C1295 C 0.80748 0.08821 0.99625 0.0
C1296 C 0.7842 0.08538 0.01323 0.0
C1297 C 0.76738 0.10843 0.01726 0.0
C1298 C 0.77259 0.1334 0.00437 0.0
C1299 C 0.75061 0.15462 0.01106 0.0
C1300 C 0.76293 0.17933 0.02684 0.0
C1301 C 0.73557 0.1641 0.98465 0.0
C1302 C 0.73198 0.13757 0.02949 0.0
C1303 C 0.74225 0.11113 0.03318 0.0
C1304 C 0.72814 0.0913 0.04855 0.0
C1305 C 0.70219 0.09826 0.05928 0.0
C1306 C 0.69049 0.12468 0.05423 0.0
C1307 C 0.70615 0.14486 0.04006 0.0
H1308 H 0.04701 0.96334 0.22686 0.0
H1309 H 0.96814 0.92219 0.21487 0.0
H1310 H 0.95025 0.94458 0.25684 0.0
H1311 H 0.04585 0.95906 0.304 0.0
H1312 H 0.06226 0.99232 0.30774 0.0
H1313 H 0.0697 0.97108 0.27804 0.0
H1314 H 0.05565 0.01172 0.24605 0.0
H1315 H 0.0475 0.03282 0.27564 0.0
H1316 H 0.02176 0.02679 0.24938 0.0
H1317 H 0.93872 0.97551 0.29578 0.0
H1318 H 0.93677 0.00723 0.33571 0.0
H1319 H 0.02341 0.02667 0.32526 0.0
C1320 C 0.02621 0.95848 0.23345 0.0
C1321 C 0.00896 0.94106 0.21743 0.0
C1322 C 0.98183 0.93534 0.22675 0.0
C1323 C 0.97137 0.94811 0.25049 0.0
C1324 C 0.98844 0.96616 0.265 0.0
C1325 C 0.01552 0.97078 0.2574 0.0
C1326 C 0.02928 0.99136 0.27675 0.0
C1327 C 0.05318 0.97763 0.29258 0.0
C1328 C 0.03912 0.0172 0.261 0.0
C1329 C 0.00538 0.99813 0.29584 0.0
C1330 C 0.98202 0.98343 0.28844 0.0
C1331 C 0.95697 0.98676 0.3021 0.0
C1332 C 0.956 0.00483 0.32461 0.0
C1333 C 0.97988 0.01908 0.33335 0.0
C1334 C 0.00484 0.01608 0.31865 0.0
H1335 H 0.98644 0.44365 0.29624 0.0
H1336 H 0.0141 0.50305 0.35746 0.0
H1337 H 0.00041 0.5414 0.32629 0.0
H1338 H 0.0123 0.47747 0.23968 0.0
H1339 H 0.9844 0.46868 0.21663 0.0
H1340 H 0.99227 0.44656 0.24543 0.0
H1341 H 0.94185 0.45097 0.26284 0.0
H1342 H 0.93381 0.47316 0.23397 0.0
H1343 H 0.92733 0.48482 0.26877 0.0
H1344 H 0.99051 0.5729 0.28478 0.0
H1345 H 0.98454 0.5937 0.23826 0.0
H1346 H 0.9614 0.51318 0.20601 0.0
C1347 C 0.98898 0.46472 0.30344 0.0
C1348 C 0.00129 0.47035 0.32931 0.0
C1349 C 0.00452 0.49823 0.3378 0.0
C1350 C 0.99679 0.52015 0.32021 0.0
C1351 C 0.98545 0.51383 0.29441 0.0
C1352 C 0.98123 0.4867 0.28628 0.0
C1353 C 0.97099 0.48507 0.25678 0.0
C1354 C 0.9912 0.46848 0.23857 0.0
C1355 C 0.94175 0.47279 0.25553 0.0
C1356 C 0.97093 0.51543 0.24916 0.0
C1357 C 0.97914 0.53185 0.27106 0.0
C1358 C 0.98343 0.56028 0.26771 0.0
C1359 C 0.97995 0.57197 0.2412 0.0
C1360 C 0.97224 0.55522 0.21841 0.0
C1361 C 0.96682 0.5268 0.22294 0.0
H1362 H 0.19537 0.04595 0.94906 0.0
H1363 H 0.18905 0.95739 0.93518 0.0
H1364 H 0.21888 0.94884 0.97542 0.0
H1365 H 0.2696 0.04315 0.97135 0.0
H1366 H 0.26453 0.07105 0.99557 0.0
H1367 H 0.24424 0.06959 0.9644 0.0
H1368 H 0.20006 0.072 0.99458 0.0
H1369 H 0.22025 0.0718 0.02588 0.0
H1370 H 0.19412 0.0458 0.02047 0.0
H1371 H 0.24325 0.94953 0.02092 0.0
H1372 H 0.27573 0.95926 0.05893 0.0
H1373 H 0.26977 0.04712 0.04149 0.0
C1374 C 0.20119 0.02484 0.95386 0.0
C1375 C 0.18978 0.00238 0.93905 0.0
C1376 C 0.19771 0.97499 0.94601 0.0
C1377 C 0.21424 0.96985 0.96919 0.0
C1378 C 0.22331 0.99235 0.98466 0.0
C1379 C 0.21833 0.01932 0.97652 0.0
C1380 C 0.23182 0.0397 0.99613 0.0
C1381 C 0.25386 0.05687 0.98097 0.0
C1382 C 0.21026 0.05843 0.01008 0.0
C1383 C 0.24469 0.01991 0.01676 0.0
C1384 C 0.23883 0.99273 0.01016 0.0
C1385 C 0.24833 0.97071 0.02614 0.0
C1386 C 0.26633 0.97648 0.04807 0.0
C1387 C 0.27516 0.00394 0.05312 0.0
C1388 C 0.26302 0.02599 0.03826 0.0
H1389 H 0.72956 0.52285 0.05654 0.0
H1390 H 0.73763 0.43432 0.0449 0.0
H1391 H 0.7694 0.44241 0.0058 0.0
H1392 H 0.7207 0.53729 0.99035 0.0
H1393 H 0.73891 0.56978 0.9891 0.0
H1394 H 0.72402 0.55814 0.02107 0.0
H1395 H 0.77132 0.56095 0.04596 0.0
H1396 H 0.78628 0.57408 0.01446 0.0
H1397 H 0.80094 0.54403 0.031 0.0
H1398 H 0.79176 0.46029 0.96199 0.0
H1399 H 0.80986 0.48676 0.92204 0.0
H1400 H 0.784 0.56324 0.96131 0.0
C1401 C 0.73943 0.50515 0.04699 0.0
C1402 C 0.73144 0.47795 0.05396 0.0
C1403 C 0.74389 0.45532 0.04014 0.0
C1404 C 0.76169 0.45975 0.01768 0.0
C1405 C 0.76684 0.48692 0.00946 0.0
C1406 C 0.75665 0.50927 0.02418 0.0
C1407 C 0.76198 0.53623 0.00918 0.0
C1408 C 0.73479 0.55121 0.00202 0.0
C1409 C 0.78129 0.55492 0.02616 0.0
C1410 C 0.77608 0.52554 0.98344 0.0
C1411 C 0.77886 0.4971 0.98393 0.0
C1412 C 0.79016 0.48263 0.96164 0.0
C1413 C 0.79998 0.49779 0.93884 0.0
C1414 C 0.79833 0.52706 0.93858 0.0
C1415 C 0.78562 0.54087 0.96095 0.0
H1416 H 0.33128 0.01797 0.48451 0.0
H1417 H 0.32104 0.93806 0.44568 0.0
H1418 H 0.28781 0.92457 0.48244 0.0
H1419 H 0.32218 0.99743 0.55805 0.0
H1420 H 0.30244 0.02824 0.56538 0.0
H1421 H 0.32882 0.02885 0.53917 0.0
H1422 H 0.29311 0.04671 0.50347 0.0
H1423 H 0.26669 0.04592 0.52949 0.0
H1424 H 0.262 0.02708 0.49767 0.0
H1425 H 0.25108 0.92289 0.51913 0.0
H1426 H 0.21187 0.9342 0.54992 0.0
H1427 H 0.24662 0.0152 0.56515 0.0
C1428 C 0.32287 0.99727 0.48448 0.0
C1429 C 0.32916 0.97869 0.463 0.0
C1430 C 0.31665 0.95231 0.4624 0.0
C1431 C 0.29796 0.94451 0.48324 0.0
C1432 C 0.29193 0.96352 0.50419 0.0
C1433 C 0.30392 0.98947 0.50476 0.0
C1434 C 0.29107 0.00768 0.52671 0.0
C1435 C 0.3124 0.01602 0.54867 0.0
C1436 C 0.27741 0.03334 0.51355 0.0
C1437 C 0.26979 0.98807 0.53844 0.0
C1438 C 0.27072 0.96258 0.52535 0.0
C1439 C 0.25069 0.94241 0.53009 0.0
C1440 C 0.22862 0.94889 0.54772 0.0
C1441 C 0.22704 0.97509 0.56061 0.0
C1442 C 0.24829 0.99452 0.55664 0.0
H1443 H 0.77165 0.42526 0.54428 0.0
H1444 H 0.78908 0.49793 0.59363 0.0
H1445 H 0.7477 0.52086 0.5745 0.0
H1446 H 0.76145 0.45794 0.48724 0.0
H1447 H 0.73393 0.43749 0.47269 0.0
H1448 H 0.75732 0.42216 0.49706 0.0
H1449 H 0.71722 0.40834 0.5296 0.0
H1450 H 0.69329 0.42214 0.50457 0.0
H1451 H 0.69225 0.43402 0.53988 0.0
H1452 H 0.71092 0.53952 0.54178 0.0
H1453 H 0.67891 0.54961 0.50284 0.0
H1454 H 0.69097 0.46639 0.47173 0.0
C1455 C 0.76575 0.44533 0.55233 0.0
C1456 C 0.78348 0.45985 0.57032 0.0
C1457 C 0.77554 0.48628 0.58012 0.0
C1458 C 0.75219 0.4996 0.56907 0.0
C1459 C 0.73701 0.48593 0.54867 0.0
C1460 C 0.74305 0.45899 0.541 0.0
C1461 C 0.72692 0.45034 0.51565 0.0
C1462 C 0.74606 0.44149 0.49178 0.0
C1463 C 0.70618 0.42736 0.52286 0.0
C1464 C 0.71233 0.47711 0.5091 0.0
C1465 C 0.71761 0.49722 0.52872 0.0
C1466 C 0.70647 0.52379 0.52648 0.0
C1467 C 0.68873 0.52951 0.50414 0.0
C1468 C 0.68324 0.50903 0.48394 0.0
C1469 C 0.69552 0.48272 0.48639 0.0
H1470 H 0.04846 0.2869 0.00918 0.0
H1471 H 0.00687 0.29636 0.08802 0.0
H1472 H 0.97394 0.25972 0.07485 0.0
H1473 H 0.99122 0.28403 0.97104 0.0
H1474 H 0.00269 0.25902 0.94588 0.0
H1475 H 0.0275 0.28014 0.96368 0.0
H1476 H 0.05331 0.23659 0.98115 0.0
H1477 H 0.02904 0.21516 0.9627 0.0
H1478 H 0.03452 0.20994 0.99922 0.0
H1479 H 0.94007 0.23013 0.04951 0.0
H1480 H 0.91056 0.20582 0.01572 0.0
H1481 H 0.9738 0.21607 0.95303 0.0
C1482 C 0.03334 0.28029 0.02427 0.0
C1483 C 0.03037 0.29435 0.04972 0.0
C1484 C 0.00967 0.28571 0.06851 0.0
C1485 C 0.99082 0.26495 0.06117 0.0
C1486 C 0.99308 0.25292 0.03506 0.0
C1487 C 0.01418 0.25986 0.0171 0.0
C1488 C 0.00997 0.24671 0.98896 0.0
C1489 C 0.0077 0.26879 0.96607 0.0
C1490 C 0.03308 0.22585 0.98265 0.0
C1491 C 0.98266 0.23225 0.99355 0.0
C1492 C 0.97338 0.23584 0.02034 0.0
C1493 C 0.94745 0.22656 0.0287 0.0
C1494 C 0.93072 0.213 0.00927 0.0
C1495 C 0.93999 0.20888 0.98179 0.0
C1496 C 0.96636 0.21856 0.974 0.0
H1497 H 0.07565 0.72469 0.4541 0.0
H1498 H 0.07645 0.70083 0.54067 0.0
H1499 H 0.03785 0.73284 0.54967 0.0
H1500 H 0.05392 0.79867 0.46484 0.0
H1501 H 0.03302 0.79765 0.43399 0.0
H1502 H 0.06399 0.7771 0.43615 0.0
H1503 H 0.03502 0.73361 0.42431 0.0
H1504 H 0.00376 0.75369 0.42345 0.0
H1505 H 0.0064 0.72423 0.44619 0.0
H1506 H 0.99355 0.76094 0.54727 0.0
H1507 H 0.95396 0.79125 0.53572 0.0
H1508 H 0.98222 0.79557 0.4507 0.0
C1509 C 0.06861 0.72704 0.47522 0.0
C1510 C 0.07902 0.70999 0.49658 0.0
C1511 C 0.06893 0.71364 0.52389 0.0
C1512 C 0.04673 0.73157 0.52918 0.0
C1513 C 0.03521 0.74603 0.50705 0.0
C1514 C 0.04642 0.74466 0.48079 0.0
C1515 C 0.0293 0.76084 0.46019 0.0
C1516 C 0.04605 0.78501 0.44809 0.0
C1517 C 0.01796 0.74196 0.43719 0.0
C1518 C 0.00638 0.77103 0.47879 0.0
C1519 C 0.00999 0.76219 0.50572 0.0
C1520 C 0.99078 0.76833 0.52632 0.0
C1521 C 0.9681 0.78518 0.51948 0.0
C1522 C 0.96499 0.79573 0.49231 0.0
C1523 C 0.98402 0.78782 0.47165 0.0
H1524 H 0.51811 0.80811 0.53583 0.0
H1525 H 0.52266 0.81207 0.44641 0.0
H1526 H 0.48165 0.78182 0.44282 0.0
H1527 H 0.49959 0.73467 0.5374 0.0
H1528 H 0.47794 0.73859 0.56745 0.0
H1529 H 0.50692 0.76133 0.56242 0.0
H1530 H 0.4739 0.80339 0.56647 0.0
H1531 H 0.4447 0.78066 0.57051 0.0
H1532 H 0.44486 0.80617 0.54329 0.0
H1533 H 0.43866 0.75366 0.44899 0.0
H1534 H 0.4047 0.71864 0.46349 0.0
H1535 H 0.43024 0.72936 0.54889 0.0
C1536 C 0.51071 0.80207 0.51556 0.0
C1537 C 0.52354 0.81206 0.49136 0.0
C1538 C 0.51332 0.80408 0.46514 0.0
C1539 C 0.4898 0.78734 0.46292 0.0
C1540 C 0.47706 0.77842 0.48716 0.0
C1541 C 0.48771 0.78464 0.51297 0.0
C1542 C 0.47151 0.77028 0.53561 0.0
C1543 C 0.49009 0.75001 0.55165 0.0
C1544 C 0.45794 0.7914 0.55512 0.0
C1545 C 0.45005 0.75514 0.51849 0.0
C1546 C 0.45317 0.76079 0.49065 0.0
C1547 C 0.4361 0.74893 0.47071 0.0
C1548 C 0.41657 0.72929 0.47922 0.0
C1549 C 0.41481 0.7212 0.50733 0.0
C1550 C 0.43093 0.73528 0.52729 0.0
H1551 H 0.54212 0.51031 0.80433 0.0
H1552 H 0.46348 0.55258 0.79659 0.0
H1553 H 0.45179 0.5234 0.75633 0.0
H1554 H 0.55414 0.50454 0.72906 0.0
H1555 H 0.57069 0.47126 0.73227 0.0
H1556 H 0.57282 0.49587 0.76015 0.0
H1557 H 0.55287 0.459 0.7935 0.0
H1558 H 0.54992 0.43454 0.76554 0.0
H1559 H 0.51998 0.44331 0.78584 0.0
H1560 H 0.4462 0.48606 0.72128 0.0
H1561 H 0.45174 0.4514 0.68432 0.0
H1562 H 0.53627 0.43691 0.71017 0.0
C1563 C 0.52276 0.51381 0.79367 0.0
C1564 C 0.50368 0.53369 0.80341 0.0
C1565 C 0.47849 0.53771 0.78916 0.0
C1566 C 0.47153 0.52099 0.76655 0.0
C1567 C 0.4903 0.50084 0.75811 0.0
C1568 C 0.51584 0.49786 0.77048 0.0
C1569 C 0.53265 0.47542 0.75638 0.0
C1570 C 0.55913 0.4875 0.7437 0.0
C1571 C 0.53924 0.45167 0.77652 0.0
C1572 C 0.51246 0.46617 0.73424 0.0
C1573 C 0.48786 0.48057 0.7363 0.0
C1574 C 0.46547 0.47491 0.7192 0.0
C1575 C 0.46869 0.45491 0.69855 0.0
C1576 C 0.49431 0.44136 0.6947 0.0
C1577 C 0.51641 0.4468 0.71296 0.0
H1578 H 0.50423 0.95792 0.79881 0.0
H1579 H 0.41778 0.97762 0.8118 0.0
H1580 H 0.42217 0.01784 0.78066 0.0
H1581 H 0.52861 0.0276 0.79759 0.0
H1582 H 0.55378 0.0218 0.77078 0.0
H1583 H 0.54411 0.99392 0.79356 0.0
H1584 H 0.53015 0.96321 0.75178 0.0
H1585 H 0.54114 0.9905 0.72903 0.0
H1586 H 0.50663 0.97683 0.72625 0.0
H1587 H 0.43598 0.05626 0.74906 0.0
H1588 H 0.45557 0.08365 0.71062 0.0
H1589 H 0.53302 0.03987 0.71906 0.0
C1590 C 0.48603 0.97021 0.79448 0.0
C1591 C 0.46063 0.9646 0.80763 0.0
C1592 C 0.43741 0.98151 0.80182 0.0
C1593 C 0.4398 0.00463 0.78451 0.0
C1594 C 0.46555 0.01058 0.77326 0.0
C1595 C 0.48808 0.9935 0.77741 0.0
C1596 C 0.51316 0.00401 0.76203 0.0
C1597 C 0.53627 0.01232 0.7822 0.0
C1598 C 0.52335 0.98236 0.74101 0.0
C1599 C 0.50096 0.0292 0.74791 0.0
C1600 C 0.47365 0.03305 0.75527 0.0
C1601 C 0.45744 0.05374 0.74339 0.0
C1602 C 0.46883 0.06955 0.72193 0.0
C1603 C 0.49597 0.06434 0.71268 0.0
C1604 C 0.51262 0.04495 0.72671 0.0
H1605 H 0.45918 0.27195 0.93888 0.0
H1606 H 0.41452 0.26823 0.01663 0.0
H1607 H 0.44628 0.23204 0.03313 0.0
H1608 H 0.47815 0.19522 0.93712 0.0
H1609 H 0.51119 0.20301 0.92189 0.0
H1610 H 0.48169 0.22444 0.9142 0.0
H1611 H 0.50932 0.26739 0.93024 0.0
H1612 H 0.53853 0.24611 0.93892 0.0
H1613 H 0.52336 0.26825 0.96478 0.0
H1614 H 0.48771 0.20382 0.04476 0.0
H1615 H 0.53201 0.17854 0.04768 0.0
H1616 H 0.54945 0.19873 0.96218 0.0
C1617 C 0.45532 0.26271 0.95891 0.0
C1618 C 0.43437 0.2731 0.97649 0.0
C1619 C 0.43031 0.26065 0.00272 0.0
C1620 C 0.44838 0.24013 0.01236 0.0
C1621 C 0.47004 0.23187 0.99532 0.0
C1622 C 0.4731 0.24206 0.9688 0.0
C1623 C 0.49922 0.23099 0.95543 0.0
C1624 C 0.49214 0.2123 0.9307 0.0
C1625 C 0.51874 0.2546 0.94685 0.0
C1626 C 0.51115 0.21433 0.97915 0.0
C1627 C 0.49386 0.21501 0.0019 0.0
C1628 C 0.50114 0.2027 0.02692 0.0
C1629 C 0.52641 0.1887 0.0285 0.0
C1630 C 0.54401 0.18711 0.00527 0.0
C1631 C 0.53636 0.20004 0.98028 0.0
loop_
_geom_bond_atom_site_label_1
_geom_bond_atom_site_label_2
_geom_bond_distance
_geom_bond_site_symmetry_2
_ccdc_geom_bond_type
Zn0 O3 2.031 . S
Zn0 O5 2.049 . S
Zn0 O10 2.067 1_455 S
Zn1 O2 1.962 . S
Zn1 O4 1.986 1_455 S
Zn1 O6 1.996 . S
Zn1 O9 1.943 1_455 S
O2 Zn1 1.962 . S
O2 C7 1.254 . S
O3 Zn0 2.031 . S
O3 C7 1.269 . S
O4 Zn1 1.986 1_655 S
O4 C11 1.262 . S
O5 Zn0 2.049 . S
O5 C13 1.260 . S
O6 Zn1 1.996 . S
O6 C13 1.257 . S
C7 O2 1.254 . S
C7 O3 1.269 . S
C8 O9 1.249 . S
C8 O10 1.270 . S
O9 Zn1 1.943 1_655 S
O9 C8 1.249 . S
O10 Zn0 2.067 1_655 S
O10 C8 1.270 . S
C11 O4 1.262 . S
C11 O12 1.232 . S
O12 C11 1.232 . S
C13 O5 1.260 . S
C13 O6 1.257 . S
Zn14 O17 2.031 . S
Zn14 O19 2.049 . S
Zn14 O24 2.067 1_655 S
Zn15 O16 1.962 . S
Zn15 O18 1.986 1_655 S
Zn15 O20 1.996 . S
Zn15 O23 1.943 1_655 S
O16 Zn15 1.962 . S
O16 C21 1.254 . S
O17 Zn14 2.031 . S
O17 C21 1.269 . S
O18 Zn15 1.986 1_455 S
O18 C25 1.262 . S
O19 Zn14 2.049 . S
O19 C27 1.260 . S
O20 Zn15 1.996 . S
O20 C27 1.257 . S
C21 O16 1.254 . S
C21 O17 1.269 . S
C22 O23 1.249 . S
C22 O24 1.270 . S
O23 Zn15 1.943 1_455 S
O23 C22 1.249 . S
O24 Zn14 2.067 1_455 S
O24 C22 1.270 . S
C25 O18 1.262 . S
C25 O26 1.232 . S
O26 C25 1.232 . S
C27 O19 1.260 . S
C27 O20 1.257 . S
Zn28 O31 2.031 . S
Zn28 O33 2.049 . S
Zn28 O38 2.067 1_455 S
Zn29 O30 1.962 . S
Zn29 O32 1.986 1_455 S
Zn29 O34 1.996 . S
Zn29 O37 1.943 1_455 S
O30 Zn29 1.962 . S
O30 C35 1.254 . S
O31 Zn28 2.031 . S
O31 C35 1.269 . S
O32 Zn29 1.986 1_655 S
O32 C39 1.262 . S
O33 Zn28 2.049 . S
O33 C41 1.260 . S
O34 Zn29 1.996 . S
O34 C41 1.257 . S
C35 O30 1.254 . S
C35 O31 1.269 . S
C36 O37 1.249 . S
C36 O38 1.270 . S
O37 Zn29 1.943 1_655 S
O37 C36 1.249 . S
O38 Zn28 2.067 1_655 S
O38 C36 1.270 . S
C39 O32 1.262 . S
C39 O40 1.232 . S
O40 C39 1.232 . S
C41 O33 1.260 . S
C41 O34 1.257 . S
Zn42 O45 2.031 . S
Zn42 O47 2.049 . S
Zn42 O52 2.067 1_655 S
Zn43 O44 1.962 . S
Zn43 O46 1.986 1_655 S
Zn43 O48 1.996 . S
Zn43 O51 1.943 1_655 S
O44 Zn43 1.962 . S
O44 C49 1.254 . S
O45 Zn42 2.031 . S
O45 C49 1.269 . S
O46 Zn43 1.986 1_455 S
O46 C53 1.262 . S
O47 Zn42 2.049 . S
O47 C55 1.260 . S
O48 Zn43 1.996 . S
O48 C55 1.257 . S
C49 O44 1.254 . S
C49 O45 1.269 . S
C50 O51 1.249 . S
C50 O52 1.270 . S
O51 Zn43 1.943 1_455 S
O51 C50 1.249 . S
O52 Zn42 2.067 1_455 S
O52 C50 1.270 . S
C53 O46 1.262 . S
C53 O54 1.232 . S
O54 C53 1.232 . S
C55 O47 1.260 . S
C55 O48 1.257 . S
Zn56 O59 2.031 . S
Zn56 O61 2.049 . S
Zn56 O66 2.067 1_545 S
Zn57 O58 1.962 . S
Zn57 O60 1.986 1_545 S
Zn57 O62 1.996 . S
Zn57 O65 1.943 1_545 S
O58 Zn57 1.962 . S
O58 C63 1.254 . S
O59 Zn56 2.031 . S
O59 C63 1.269 . S
O60 Zn57 1.986 1_565 S
O60 C67 1.262 . S
O61 Zn56 2.049 . S
O61 C69 1.260 . S
O62 Zn57 1.996 . S
O62 C69 1.257 . S
C63 O58 1.254 . S
C63 O59 1.269 . S
C64 O65 1.249 . S
C64 O66 1.270 . S
O65 Zn57 1.943 1_565 S
O65 C64 1.249 . S
O66 Zn56 2.067 1_565 S
O66 C64 1.270 . S
C67 O60 1.262 . S
C67 O68 1.232 . S
O68 C67 1.232 . S
C69 O61 1.260 . S
C69 O62 1.257 . S
Zn70 O73 2.031 . S
Zn70 O75 2.049 . S
Zn70 O80 2.067 . S
Zn71 O72 1.962 . S
Zn71 O74 1.986 . S
Zn71 O76 1.996 . S
Zn71 O79 1.943 . S
O72 Zn71 1.962 . S
O72 C77 1.254 . S
O73 Zn70 2.031 . S
O73 C77 1.269 . S
O74 Zn71 1.986 . S
O74 C81 1.262 . S
O75 Zn70 2.049 . S
O75 C83 1.260 . S
O76 Zn71 1.996 . S
O76 C83 1.257 . S
C77 O72 1.254 . S
C77 O73 1.269 . S
C78 O79 1.249 . S
C78 O80 1.270 . S
O79 Zn71 1.943 . S
O79 C78 1.249 . S
O80 Zn70 2.067 . S
O80 C78 1.270 . S
C81 O74 1.262 . S
C81 O82 1.232 . S
O82 C81 1.232 . S
C83 O75 1.260 . S
C83 O76 1.257 . S
Zn84 O87 2.031 . S
Zn84 O89 2.049 . S
Zn84 O94 2.067 1_565 S
Zn85 O86 1.962 . S
Zn85 O88 1.986 1_565 S
Zn85 O90 1.996 . S
Zn85 O93 1.943 1_565 S
O86 Zn85 1.962 . S
O86 C91 1.254 . S
O87 Zn84 2.031 . S
O87 C91 1.269 . S
O88 Zn85 1.986 1_545 S
O88 C95 1.262 . S
O89 Zn84 2.049 . S
O89 C97 1.260 . S
O90 Zn85 1.996 . S
O90 C97 1.257 . S
C91 O86 1.254 . S
C91 O87 1.269 . S
C92 O93 1.249 . S
C92 O94 1.270 . S
O93 Zn85 1.943 1_545 S
O93 C92 1.249 . S
O94 Zn84 2.067 1_545 S
O94 C92 1.270 . S
C95 O88 1.262 . S
C95 O96 1.232 . S
O96 C95 1.232 . S
C97 O89 1.260 . S
C97 O90 1.257 . S
Zn98 O101 2.031 . S
Zn98 O103 2.049 . S
Zn98 O108 2.067 . S
Zn99 O100 1.962 . S
Zn99 O102 1.986 . S
Zn99 O104 1.996 . S
Zn99 O107 1.943 . S
O100 Zn99 1.962 . S
O100 C105 1.254 . S
O101 Zn98 2.031 . S
O101 C105 1.269 . S
O102 Zn99 1.986 . S
O102 C109 1.262 . S
O103 Zn98 2.049 . S
O103 C111 1.260 . S
O104 Zn99 1.996 . S
O104 C111 1.257 . S
C105 O100 1.254 . S
C105 O101 1.269 . S
C106 O107 1.249 . S
C106 O108 1.270 . S
O107 Zn99 1.943 . S
O107 C106 1.249 . S
O108 Zn98 2.067 . S
O108 C106 1.270 . S
C109 O102 1.262 . S
C109 O110 1.232 . S
O110 C109 1.232 . S
C111 O103 1.260 . S
C111 O104 1.257 . S
Zn112 O115 2.031 . S
Zn112 O117 2.049 . S
Zn112 O122 2.067 1_554 S
Zn113 O114 1.962 . S
Zn113 O116 1.986 1_554 S
Zn113 O118 1.996 . S
Zn113 O121 1.943 1_554 S
O114 Zn113 1.962 . S
O114 C119 1.254 . S
O115 Zn112 2.031 . S
O115 C119 1.269 . S
O116 Zn113 1.986 1_556 S
O116 C123 1.262 . S
O117 Zn112 2.049 . S
O117 C125 1.260 . S
O118 Zn113 1.996 . S
O118 C125 1.257 . S
C119 O114 1.254 . S
C119 O115 1.269 . S
C120 O121 1.249 . S
C120 O122 1.270 . S
O121 Zn113 1.943 1_556 S
O121 C120 1.249 . S
O122 Zn112 2.067 1_556 S
O122 C120 1.270 . S
C123 O116 1.262 . S
C123 O124 1.232 . S
O124 C123 1.232 . S
C125 O117 1.260 . S
C125 O118 1.257 . S
Zn126 O129 2.031 . S
Zn126 O131 2.049 . S
Zn126 O136 2.067 . S
Zn127 O128 1.962 . S
Zn127 O130 1.986 . S
Zn127 O132 1.996 . S
Zn127 O135 1.943 . S
O128 Zn127 1.962 . S
O128 C133 1.254 . S
O129 Zn126 2.031 . S
O129 C133 1.269 . S
O130 Zn127 1.986 . S
O130 C137 1.262 . S
O131 Zn126 2.049 . S
O131 C139 1.260 . S
O132 Zn127 1.996 . S
O132 C139 1.257 . S
C133 O128 1.254 . S
C133 O129 1.269 . S
C134 O135 1.249 . S
C134 O136 1.270 . S
O135 Zn127 1.943 . S
O135 C134 1.249 . S
O136 Zn126 2.067 . S
O136 C134 1.270 . S
C137 O130 1.262 . S
C137 O138 1.232 . S
O138 C137 1.232 . S
C139 O131 1.260 . S
C139 O132 1.257 . S
Zn140 O143 2.031 . S
Zn140 O145 2.049 . S
Zn140 O150 2.067 . S
Zn141 O142 1.962 . S
Zn141 O144 1.986 . S
Zn141 O146 1.996 . S
Zn141 O149 1.943 . S
O142 Zn141 1.962 . S
O142 C147 1.254 . S
O143 Zn140 2.031 . S
O143 C147 1.269 . S
O144 Zn141 1.986 . S
O144 C151 1.262 . S
O145 Zn140 2.049 . S
O145 C153 1.260 . S
O146 Zn141 1.996 . S
O146 C153 1.257 . S
C147 O142 1.254 . S
C147 O143 1.269 . S
C148 O149 1.249 . S
C148 O150 1.270 . S
O149 Zn141 1.943 . S
O149 C148 1.249 . S
O150 Zn140 2.067 . S
O150 C148 1.270 . S
C151 O144 1.262 . S
C151 O152 1.232 . S
O152 C151 1.232 . S
C153 O145 1.260 . S
C153 O146 1.257 . S
Zn154 O157 2.031 . S
Zn154 O159 2.049 . S
Zn154 O164 2.067 . S
Zn155 O156 1.962 . S
Zn155 O158 1.986 . S
Zn155 O160 1.996 . S
Zn155 O163 1.943 . S
O156 Zn155 1.962 . S
O156 C161 1.254 . S
O157 Zn154 2.031 . S
O157 C161 1.269 . S
O158 Zn155 1.986 . S
O158 C165 1.262 . S
O159 Zn154 2.049 . S
O159 C167 1.260 . S
O160 Zn155 1.996 . S
O160 C167 1.257 . S
C161 O156 1.254 . S
C161 O157 1.269 . S
C162 O163 1.249 . S
C162 O164 1.270 . S
O163 Zn155 1.943 . S
O163 C162 1.249 . S
O164 Zn154 2.067 . S
O164 C162 1.270 . S
C165 O158 1.262 . S
C165 O166 1.232 . S
O166 C165 1.232 . S
C167 O159 1.260 . S
C167 O160 1.257 . S
Zn168 O171 2.031 . S
Zn168 O173 2.049 . S
Zn168 O178 2.067 . S
Zn169 O170 1.962 . S
Zn169 O172 1.986 . S
Zn169 O174 1.996 . S
Zn169 O177 1.943 . S
O170 Zn169 1.962 . S
O170 C175 1.254 . S
O171 Zn168 2.031 . S
O171 C175 1.269 . S
O172 Zn169 1.986 . S
O172 C179 1.262 . S
O173 Zn168 2.049 . S
O173 C181 1.260 . S
O174 Zn169 1.996 . S
O174 C181 1.257 . S
C175 O170 1.254 . S
C175 O171 1.269 . S
C176 O177 1.249 . S
C176 O178 1.270 . S
O177 Zn169 1.943 . S
O177 C176 1.249 . S
O178 Zn168 2.067 . S
O178 C176 1.270 . S
C179 O172 1.262 . S
C179 O180 1.232 . S
O180 C179 1.232 . S
C181 O173 1.260 . S
C181 O174 1.257 . S
Zn182 O185 2.031 . S
Zn182 O187 2.049 . S
Zn182 O192 2.067 . S
Zn183 O184 1.962 . S
Zn183 O186 1.986 . S
Zn183 O188 1.996 . S
Zn183 O191 1.943 . S
O184 Zn183 1.962 . S
O184 C189 1.254 . S
O185 Zn182 2.031 . S
O185 C189 1.269 . S
O186 Zn183 1.986 . S
O186 C193 1.262 . S
O187 Zn182 2.049 . S
O187 C195 1.260 . S
O188 Zn183 1.996 . S
O188 C195 1.257 . S
C189 O184 1.254 . S
C189 O185 1.269 . S
C190 O191 1.249 . S
C190 O192 1.270 . S
O191 Zn183 1.943 . S
O191 C190 1.249 . S
O192 Zn182 2.067 . S
O192 C190 1.270 . S
C193 O186 1.262 . S
C193 O194 1.232 . S
O194 C193 1.232 . S
C195 O187 1.260 . S
C195 O188 1.257 . S
Zn196 O199 2.031 . S
Zn196 O201 2.049 . S
Zn196 O206 2.067 . S
Zn197 O198 1.962 . S
Zn197 O200 1.986 . S
Zn197 O202 1.996 . S
Zn197 O205 1.943 . S
O198 Zn197 1.962 . S
O198 C203 1.254 . S
O199 Zn196 2.031 . S
O199 C203 1.269 . S
O200 Zn197 1.986 . S
O200 C207 1.262 . S
O201 Zn196 2.049 . S
O201 C209 1.260 . S
O202 Zn197 1.996 . S
O202 C209 1.257 . S
C203 O198 1.254 . S
C203 O199 1.269 . S
C204 O205 1.249 . S
C204 O206 1.270 . S
O205 Zn197 1.943 . S
O205 C204 1.249 . S
O206 Zn196 2.067 . S
O206 C204 1.270 . S
C207 O200 1.262 . S
C207 O208 1.232 . S
O208 C207 1.232 . S
C209 O201 1.260 . S
C209 O202 1.257 . S
Zn210 O213 2.031 . S
Zn210 O215 2.049 . S
Zn210 O220 2.067 . S
Zn211 O212 1.962 . S
Zn211 O214 1.986 . S
Zn211 O216 1.996 . S
Zn211 O219 1.943 . S
O212 Zn211 1.962 . S
O212 C217 1.254 . S
O213 Zn210 2.031 . S
O213 C217 1.269 . S
O214 Zn211 1.986 . S
O214 C221 1.262 . S
O215 Zn210 2.049 . S
O215 C223 1.260 . S
O216 Zn211 1.996 . S
O216 C223 1.257 . S
C217 O212 1.254 . S
C217 O213 1.269 . S
C218 O219 1.249 . S
C218 O220 1.270 . S
O219 Zn211 1.943 . S
O219 C218 1.249 . S
O220 Zn210 2.067 . S
O220 C218 1.270 . S
C221 O214 1.262 . S
C221 O222 1.232 . S
O222 C221 1.232 . S
C223 O215 1.260 . S
C223 O216 1.257 . S
Zn224 O227 2.031 . S
Zn224 O229 2.049 . S
Zn224 O234 2.067 . S
Zn225 O226 1.962 . S
Zn225 O228 1.986 . S
Zn225 O230 1.996 . S
Zn225 O233 1.943 . S
O226 Zn225 1.962 . S
O226 C231 1.254 . S
O227 Zn224 2.031 . S
O227 C231 1.269 . S
O228 Zn225 1.986 . S
O228 C235 1.262 . S
O229 Zn224 2.049 . S
O229 C237 1.260 . S
O230 Zn225 1.996 . S
O230 C237 1.257 . S
C231 O226 1.254 . S
C231 O227 1.269 . S
C232 O233 1.249 . S
C232 O234 1.270 . S
O233 Zn225 1.943 . S
O233 C232 1.249 . S
O234 Zn224 2.067 . S
O234 C232 1.270 . S
C235 O228 1.262 . S
C235 O236 1.232 . S
O236 C235 1.232 . S
C237 O229 1.260 . S
C237 O230 1.257 . S
Zn238 O241 2.031 . S
Zn238 O243 2.049 . S
Zn238 O248 2.067 1_565 S
Zn239 O240 1.962 . S
Zn239 O242 1.986 1_565 S
Zn239 O244 1.996 . S
Zn239 O247 1.943 1_565 S
O240 Zn239 1.962 . S
O240 C245 1.254 . S
O241 Zn238 2.031 . S
O241 C245 1.269 . S
O242 Zn239 1.986 1_545 S
O242 C249 1.262 . S
O243 Zn238 2.049 . S
O243 C251 1.260 . S
O244 Zn239 1.996 . S
O244 C251 1.257 . S
C245 O240 1.254 . S
C245 O241 1.269 . S
C246 O247 1.249 . S
C246 O248 1.270 . S
O247 Zn239 1.943 1_545 S
O247 C246 1.249 . S
O248 Zn238 2.067 1_545 S
O248 C246 1.270 . S
C249 O242 1.262 . S
C249 O250 1.232 . S
O250 C249 1.232 . S
C251 O243 1.260 . S
C251 O244 1.257 . S
Zn252 O255 2.031 . S
Zn252 O257 2.049 . S
Zn252 O262 2.067 . S
Zn253 O254 1.962 . S
Zn253 O256 1.986 . S
Zn253 O258 1.996 . S
Zn253 O261 1.943 . S
O254 Zn253 1.962 . S
O254 C259 1.254 . S
O255 Zn252 2.031 . S
O255 C259 1.269 . S
O256 Zn253 1.986 . S
O256 C263 1.262 . S
O257 Zn252 2.049 . S
O257 C265 1.260 . S
O258 Zn253 1.996 . S
O258 C265 1.257 . S
C259 O254 1.254 . S
C259 O255 1.269 . S
C260 O261 1.249 . S
C260 O262 1.270 . S
O261 Zn253 1.943 . S
O261 C260 1.249 . S
O262 Zn252 2.067 . S
O262 C260 1.270 . S
C263 O256 1.262 . S
C263 O264 1.232 . S
O264 C263 1.232 . S
C265 O257 1.260 . S
C265 O258 1.257 . S
Zn266 O269 2.031 . S
Zn266 O271 2.049 . S
Zn266 O276 2.067 1_545 S
Zn267 O268 1.962 . S
Zn267 O270 1.986 1_545 S
Zn267 O272 1.996 . S
Zn267 O275 1.943 1_545 S
O268 Zn267 1.962 . S
O268 C273 1.254 . S
O269 Zn266 2.031 . S
O269 C273 1.269 . S
O270 Zn267 1.986 1_565 S
O270 C277 1.262 . S
O271 Zn266 2.049 . S
O271 C279 1.260 . S
O272 Zn267 1.996 . S
O272 C279 1.257 . S
C273 O268 1.254 . S
C273 O269 1.269 . S
C274 O275 1.249 . S
C274 O276 1.270 . S
O275 Zn267 1.943 1_565 S
O275 C274 1.249 . S
O276 Zn266 2.067 1_565 S
O276 C274 1.270 . S
C277 O270 1.262 . S
C277 O278 1.232 . S
O278 C277 1.232 . S
C279 O271 1.260 . S
C279 O272 1.257 . S
Zn280 O283 2.031 . S
Zn280 O285 2.049 . S
Zn280 O290 2.067 . S
Zn281 O282 1.962 . S
Zn281 O284 1.986 . S
Zn281 O286 1.996 . S
Zn281 O289 1.943 . S
O282 Zn281 1.962 . S
O282 C287 1.254 . S
O283 Zn280 2.031 . S
O283 C287 1.269 . S
O284 Zn281 1.986 . S
O284 C291 1.262 . S
O285 Zn280 2.049 . S
O285 C293 1.260 . S
O286 Zn281 1.996 . S
O286 C293 1.257 . S
C287 O282 1.254 . S
C287 O283 1.269 . S
C288 O289 1.249 . S
C288 O290 1.270 . S
O289 Zn281 1.943 . S
O289 C288 1.249 . S
O290 Zn280 2.067 . S
O290 C288 1.270 . S
C291 O284 1.262 . S
C291 O292 1.232 . S
O292 C291 1.232 . S
C293 O285 1.260 . S
C293 O286 1.257 . S
Zn294 O297 2.031 . S
Zn294 O299 2.049 . S
Zn294 O304 2.067 1_556 S
Zn295 O296 1.962 . S
Zn295 O298 1.986 1_556 S
Zn295 O300 1.996 . S
Zn295 O303 1.943 1_556 S
O296 Zn295 1.962 . S
O296 C301 1.254 . S
O297 Zn294 2.031 . S
O297 C301 1.269 . S
O298 Zn295 1.986 1_554 S
O298 C305 1.262 . S
O299 Zn294 2.049 . S
O299 C307 1.260 . S
O300 Zn295 1.996 . S
O300 C307 1.257 . S
C301 O296 1.254 . S
C301 O297 1.269 . S
C302 O303 1.249 . S
C302 O304 1.270 . S
O303 Zn295 1.943 1_554 S
O303 C302 1.249 . S
O304 Zn294 2.067 1_554 S
O304 C302 1.270 . S
C305 O298 1.262 . S
C305 O306 1.232 . S
O306 C305 1.232 . S
C307 O299 1.260 . S
C307 O300 1.257 . S
Zn308 O311 2.031 . S
Zn308 O313 2.049 . S
Zn308 O318 2.067 1_556 S
Zn309 O310 1.962 . S
Zn309 O312 1.986 1_556 S
Zn309 O314 1.996 . S
Zn309 O317 1.943 1_556 S
O310 Zn309 1.962 . S
O310 C315 1.254 . S
O311 Zn308 2.031 . S
O311 C315 1.269 . S
O312 Zn309 1.986 1_554 S
O312 C319 1.262 . S
O313 Zn308 2.049 . S
O313 C321 1.260 . S
O314 Zn309 1.996 . S
O314 C321 1.257 . S
C315 O310 1.254 . S
C315 O311 1.269 . S
C316 O317 1.249 . S
C316 O318 1.270 . S
O317 Zn309 1.943 1_554 S
O317 C316 1.249 . S
O318 Zn308 2.067 1_554 S
O318 C316 1.270 . S
C319 O312 1.262 . S
C319 O320 1.232 . S
O320 C319 1.232 . S
C321 O313 1.260 . S
C321 O314 1.257 . S
Zn322 O325 2.031 . S
Zn322 O327 2.049 . S
Zn322 O332 2.067 1_554 S
Zn323 O324 1.962 . S
Zn323 O326 1.986 1_554 S
Zn323 O328 1.996 . S
Zn323 O331 1.943 1_554 S
O324 Zn323 1.962 . S
O324 C329 1.254 . S
O325 Zn322 2.031 . S
O325 C329 1.269 . S
O326 Zn323 1.986 1_556 S
O326 C333 1.262 . S
O327 Zn322 2.049 . S
O327 C335 1.260 . S
O328 Zn323 1.996 . S
O328 C335 1.257 . S
C329 O324 1.254 . S
C329 O325 1.269 . S
C330 O331 1.249 . S
C330 O332 1.270 . S
O331 Zn323 1.943 1_556 S
O331 C330 1.249 . S
O332 Zn322 2.067 1_556 S
O332 C330 1.270 . S
C333 O326 1.262 . S
C333 O334 1.232 . S
O334 C333 1.232 . S
C335 O327 1.260 . S
C335 O328 1.257 . S
H336 C348 0.930 . S
H337 C350 0.930 . S
H338 C351 0.930 . S
H339 C355 0.959 . S
H340 C355 0.959 . S
H341 C355 0.961 . S
H342 C356 0.960 . S
H343 C356 0.961 . S
H344 C356 0.959 . S
H345 C359 0.929 . S
H346 C360 0.931 . S
H347 C362 0.930 . S
C348 H336 0.930 . S
C348 C349 1.399 . S
C348 C353 1.399 . S
C349 C348 1.399 . S
C349 C350 1.376 . S
C350 H337 0.930 . S
C350 C349 1.376 . S
C350 C351 1.388 . S
C351 H338 0.930 . S
C351 C350 1.388 . S
C351 C352 1.390 . S
C352 C351 1.390 . S
C352 C353 1.394 . S
C352 C358 1.465 . S
C353 C348 1.399 . S
C353 C352 1.394 . S
C353 C354 1.516 . S
C354 C353 1.516 . S
C354 C355 1.502 . S
C354 C356 1.561 . S
C354 C357 1.526 . S
C355 H339 0.959 . S
C355 H340 0.959 . S
C355 H341 0.961 . S
C355 C354 1.502 . S
C356 H342 0.960 . S
C356 H343 0.961 . S
C356 H344 0.959 . S
C356 C354 1.561 . S
C357 C354 1.526 . S
C357 C358 1.396 . S
C357 C362 1.390 . S
C358 C352 1.465 . S
C358 C357 1.396 . S
C358 C359 1.399 . S
C359 H345 0.929 . S
C359 C358 1.399 . S
C359 C360 1.385 . S
C360 H346 0.931 . S
C360 C359 1.385 . S
C360 C361 1.389 . S
C361 C360 1.389 . S
C361 C362 1.387 . S
C362 H347 0.930 . S
C362 C357 1.390 . S
C362 C361 1.387 . S
H363 C375 0.930 . S
H364 C377 0.930 . S
H365 C378 0.930 . S
H366 C382 0.959 . S
H367 C382 0.959 . S
H368 C382 0.961 . S
H369 C383 0.960 . S
H370 C383 0.961 . S
H371 C383 0.959 . S
H372 C386 0.929 . S
H373 C387 0.931 . S
H374 C389 0.930 . S
C375 H363 0.930 . S
C375 C376 1.399 . S
C375 C380 1.399 . S
C376 C375 1.399 . S
C376 C377 1.376 . S
C377 H364 0.930 . S
C377 C376 1.376 . S
C377 C378 1.388 . S
C378 H365 0.930 . S
C378 C377 1.388 . S
C378 C379 1.390 . S
C379 C378 1.390 . S
C379 C380 1.394 . S
C379 C385 1.465 . S
C380 C375 1.399 . S
C380 C379 1.394 . S
C380 C381 1.516 . S
C381 C380 1.516 . S
C381 C382 1.502 . S
C381 C383 1.561 . S
C381 C384 1.526 . S
C382 H366 0.959 . S
C382 H367 0.959 . S
C382 H368 0.961 . S
C382 C381 1.502 . S
C383 H369 0.960 . S
C383 H370 0.961 . S
C383 H371 0.959 . S
C383 C381 1.561 . S
C384 C381 1.526 . S
C384 C385 1.396 . S
C384 C389 1.390 . S
C385 C379 1.465 . S
C385 C384 1.396 . S
C385 C386 1.399 . S
C386 H372 0.929 . S
C386 C385 1.399 . S
C386 C387 1.385 . S
C387 H373 0.931 . S
C387 C386 1.385 . S
C387 C388 1.389 . S
C388 C387 1.389 . S
C388 C389 1.387 . S
C389 H374 0.930 . S
C389 C384 1.390 . S
C389 C388 1.387 . S
H390 C402 0.930 . S
H391 C404 0.930 . S
H392 C405 0.930 . S
H393 C409 0.959 . S
H394 C409 0.959 1_556 S
H395 C409 0.961 . S
H396 C410 0.960 1_554 S
H397 C410 0.961 . S
H398 C410 0.959 . S
H399 C413 0.929 . S
H400 C414 0.931 . S
H401 C416 0.930 . S
C402 H390 0.930 . S
C402 C403 1.399 . S
C402 C407 1.399 . S
C403 C402 1.399 . S
C403 C404 1.376 . S
C404 H391 0.930 . S
C404 C403 1.376 . S
C404 C405 1.388 . S
C405 H392 0.930 . S
C405 C404 1.388 . S
C405 C406 1.390 . S
C406 C405 1.390 . S
C406 C407 1.394 . S
C406 C412 1.462 1_554 S
C407 C402 1.399 . S
C407 C406 1.394 . S
C407 C408 1.516 . S
C408 C407 1.516 . S
C408 C409 1.502 . S
C408 C410 1.561 1_554 S
C408 C411 1.526 1_554 S
C409 H393 0.959 . S
C409 H394 0.959 1_554 S
C409 H395 0.961 . S
C409 C408 1.502 . S
C410 H396 0.960 1_556 S
C410 H397 0.961 . S
C410 H398 0.959 . S
C410 C408 1.561 1_556 S
C411 C408 1.526 1_556 S
C411 C412 1.398 . S
C411 C416 1.390 . S
C412 C406 1.462 1_556 S
C412 C411 1.398 . S
C412 C413 1.401 . S
C413 H399 0.929 . S
C413 C412 1.401 . S
C413 C414 1.385 . S
C414 H400 0.931 . S
C414 C413 1.385 . S
C414 C415 1.389 . S
C415 C414 1.389 . S
C415 C416 1.387 . S
C416 H401 0.930 . S
C416 C411 1.390 . S
C416 C415 1.387 . S
H417 C429 0.930 . S
H418 C431 0.930 . S
H419 C432 0.930 . S
H420 C436 0.959 . S
H421 C436 0.952 1_556 S
H422 C436 0.961 . S
H423 C437 0.960 . S
H424 C437 0.961 . S
H425 C437 0.959 . S
H426 C440 0.929 . S
H427 C441 0.931 . S
H428 C443 0.930 . S
C429 H417 0.930 . S
C429 C430 1.399 . S
C429 C434 1.399 . S
C430 C429 1.399 . S
C430 C431 1.376 . S
C431 H418 0.930 . S
C431 C430 1.376 . S
C431 C432 1.388 . S
C432 H419 0.930 . S
C432 C431 1.388 . S
C432 C433 1.390 . S
C433 C432 1.390 . S
C433 C434 1.394 . S
C433 C439 1.465 1_554 S
C434 C429 1.399 . S
C434 C433 1.394 . S
C434 C435 1.516 . S
C435 C434 1.516 . S
C435 C436 1.502 . S
C435 C437 1.561 . S
C435 C438 1.526 1_554 S
C436 H420 0.959 . S
C436 H421 0.952 1_554 S
C436 H422 0.961 . S
C436 C435 1.502 . S
C437 H423 0.960 . S
C437 H424 0.961 . S
C437 H425 0.959 . S
C437 C435 1.561 . S
C438 C435 1.526 1_556 S
C438 C439 1.396 . S
C438 C443 1.390 . S
C439 C433 1.465 1_556 S
C439 C438 1.396 . S
C439 C440 1.399 . S
C440 H426 0.929 . S
C440 C439 1.399 . S
C440 C441 1.385 . S
C441 H427 0.931 . S
C441 C440 1.385 . S
C441 C442 1.389 . S
C442 C441 1.389 . S
C442 C443 1.387 . S
C443 H428 0.930 . S
C443 C438 1.390 . S
C443 C442 1.387 . S
H444 C456 0.930 . S
H445 C458 0.930 . S
H446 C459 0.930 . S
H447 C463 0.959 . S
H448 C463 0.971 . S
H449 C463 0.961 . S
H450 C464 0.960 . S
H451 C464 0.961 . S
H452 C464 0.959 . S
H453 C467 0.929 . S
H454 C468 0.931 . S
H455 C470 0.930 . S
C456 H444 0.930 . S
C456 C457 1.399 . S
C456 C461 1.399 . S
C457 C456 1.399 . S
C457 C458 1.376 . S
C458 H445 0.930 . S
C458 C457 1.376 . S
C458 C459 1.388 . S
C459 H446 0.930 . S
C459 C458 1.388 . S
C459 C460 1.390 . S
C460 C459 1.390 . S
C460 C461 1.394 . S
C460 C466 1.465 . S
C461 C456 1.399 . S
C461 C460 1.394 . S
C461 C462 1.516 . S
C462 C461 1.516 . S
C462 C463 1.502 . S
C462 C464 1.561 . S
C462 C465 1.526 . S
C463 H447 0.959 . S
C463 H448 0.971 . S
C463 H449 0.961 . S
C463 C462 1.502 . S
C464 H450 0.960 . S
C464 H451 0.961 . S
C464 H452 0.959 . S
C464 C462 1.561 . S
C465 C462 1.526 . S
C465 C466 1.396 . S
C465 C470 1.390 . S
C466 C460 1.465 . S
C466 C465 1.396 . S
C466 C467 1.399 . S
C467 H453 0.929 . S
C467 C466 1.399 . S
C467 C468 1.385 . S
C468 H454 0.931 . S
C468 C467 1.385 . S
C468 C469 1.389 . S
C469 C468 1.389 . S
C469 C470 1.387 . S
C470 H455 0.930 . S
C470 C465 1.390 . S
C470 C469 1.387 . S
H471 C483 0.930 . S
H472 C485 0.930 . S
H473 C486 0.930 . S
H474 C490 0.959 . S
H475 C490 0.959 1_556 S
H476 C490 0.961 1_556 S
H477 C491 0.960 . S
H478 C491 0.961 . S
H479 C491 0.959 . S
H480 C494 0.929 . S
H481 C495 0.931 . S
H482 C497 0.930 . S
C483 H471 0.930 . S
C483 C484 1.399 . S
C483 C488 1.399 . S
C484 C483 1.399 . S
C484 C485 1.376 . S
C485 H472 0.930 . S
C485 C484 1.376 . S
C485 C486 1.388 . S
C486 H473 0.930 . S
C486 C485 1.388 . S
C486 C487 1.390 . S
C487 C486 1.390 . S
C487 C488 1.394 . S
C487 C493 1.465 . S
C488 C483 1.399 . S
C488 C487 1.394 . S
C488 C489 1.516 . S
C489 C488 1.516 . S
C489 C490 1.502 . S
C489 C491 1.561 . S
C489 C492 1.526 . S
C490 H474 0.959 . S
C490 H475 0.959 1_554 S
C490 H476 0.961 1_554 S
C490 C489 1.502 . S
C491 H477 0.960 . S
C491 H478 0.961 . S
C491 H479 0.959 . S
C491 C489 1.561 . S
C492 C489 1.526 . S
C492 C493 1.396 . S
C492 C497 1.390 . S
C493 C487 1.465 . S
C493 C492 1.396 . S
C493 C494 1.399 . S
C494 H480 0.929 . S
C494 C493 1.399 . S
C494 C495 1.385 . S
C495 H481 0.931 . S
C495 C494 1.385 . S
C495 C496 1.389 . S
C496 C495 1.389 . S
C496 C497 1.387 . S
C497 H482 0.930 . S
C497 C492 1.390 . S
C497 C496 1.387 . S
H498 C510 0.930 . S
H499 C512 0.930 . S
H500 C513 0.930 . S
H501 C517 0.959 . S
H502 C517 0.959 . S
H503 C517 0.961 . S
H504 C518 0.960 . S
H505 C518 0.961 . S
H506 C518 0.959 . S
H507 C521 0.929 . S
H508 C522 0.931 . S
H509 C524 0.930 . S
C510 H498 0.930 . S
C510 C511 1.399 . S
C510 C515 1.399 . S
C511 C510 1.399 . S
C511 C512 1.376 . S
C512 H499 0.930 . S
C512 C511 1.376 . S
C512 C513 1.388 . S
C513 H500 0.930 . S
C513 C512 1.388 . S
C513 C514 1.390 . S
C514 C513 1.390 . S
C514 C515 1.394 . S
C514 C520 1.465 . S
C515 C510 1.399 . S
C515 C514 1.394 . S
C515 C516 1.516 . S
C516 C515 1.516 . S
C516 C517 1.502 . S
C516 C518 1.561 . S
C516 C519 1.526 . S
C517 H501 0.959 . S
C517 H502 0.959 . S
C517 H503 0.961 . S
C517 C516 1.502 . S
C518 H504 0.960 . S
C518 H505 0.961 . S
C518 H506 0.959 . S
C518 C516 1.561 . S
C519 C516 1.526 . S
C519 C520 1.396 . S
C519 C524 1.390 . S
C520 C514 1.465 . S
C520 C519 1.396 . S
C520 C521 1.399 . S
C521 H507 0.929 . S
C521 C520 1.399 . S
C521 C522 1.385 . S
C522 H508 0.931 . S
C522 C521 1.385 . S
C522 C523 1.389 . S
C523 C522 1.389 . S
C523 C524 1.387 . S
C524 H509 0.930 . S
C524 C519 1.390 . S
C524 C523 1.387 . S
H525 C537 0.930 . S
H526 C539 0.930 . S
H527 C540 0.930 . S
H528 C544 0.959 . S
H529 C544 0.959 . S
H530 C544 0.961 . S
H531 C545 0.960 . S
H532 C545 0.961 . S
H533 C545 0.959 . S
H534 C548 0.929 . S
H535 C549 0.931 . S
H536 C551 0.930 . S
C537 H525 0.930 . S
C537 C538 1.399 . S
C537 C542 1.399 . S
C538 C537 1.399 . S
C538 C539 1.376 . S
C539 H526 0.930 . S
C539 C538 1.376 . S
C539 C540 1.388 . S
C540 H527 0.930 . S
C540 C539 1.388 . S
C540 C541 1.390 . S
C541 C540 1.390 . S
C541 C542 1.394 . S
C541 C547 1.465 . S
C542 C537 1.399 . S
C542 C541 1.394 . S
C542 C543 1.516 . S
C543 C542 1.516 . S
C543 C544 1.502 . S
C543 C545 1.561 . S
C543 C546 1.526 . S
C544 H528 0.959 . S
C544 H529 0.959 . S
C544 H530 0.961 . S
C544 C543 1.502 . S
C545 H531 0.960 . S
C545 H532 0.961 . S
C545 H533 0.959 . S
C545 C543 1.561 . S
C546 C543 1.526 . S
C546 C547 1.396 . S
C546 C551 1.390 . S
C547 C541 1.465 . S
C547 C546 1.396 . S
C547 C548 1.399 . S
C548 H534 0.929 . S
C548 C547 1.399 . S
C548 C549 1.385 . S
C549 H535 0.931 . S
C549 C548 1.385 . S
C549 C550 1.389 . S
C550 C549 1.389 . S
C550 C551 1.387 . S
C551 H536 0.930 . S
C551 C546 1.390 . S
C551 C550 1.387 . S
H552 C564 0.930 . S
H553 C566 0.930 . S
H554 C567 0.930 . S
H555 C571 0.959 . S
H556 C571 0.959 . S
H557 C571 0.961 . S
H558 C572 0.960 . S
H559 C572 0.961 . S
H560 C572 0.959 . S
H561 C575 0.929 . S
H562 C576 0.931 . S
H563 C578 0.930 . S
C564 H552 0.930 . S
C564 C565 1.399 . S
C564 C569 1.399 . S
C565 C564 1.399 . S
C565 C566 1.376 . S
C566 H553 0.930 . S
C566 C565 1.376 . S
C566 C567 1.388 . S
C567 H554 0.930 . S
C567 C566 1.388 . S
C567 C568 1.390 . S
C568 C567 1.390 . S
C568 C569 1.394 . S
C568 C574 1.465 . S
C569 C564 1.399 . S
C569 C568 1.394 . S
C569 C570 1.516 . S
C570 C569 1.516 . S
C570 C571 1.502 . S
C570 C572 1.561 . S
C570 C573 1.526 . S
C571 H555 0.959 . S
C571 H556 0.959 . S
C571 H557 0.961 . S
C571 C570 1.502 . S
C572 H558 0.960 . S
C572 H559 0.961 . S
C572 H560 0.959 . S
C572 C570 1.561 . S
C573 C570 1.526 . S
C573 C574 1.396 . S
C573 C578 1.390 . S
C574 C568 1.465 . S
C574 C573 1.396 . S
C574 C575 1.399 . S
C575 H561 0.929 . S
C575 C574 1.399 . S
C575 C576 1.385 . S
C576 H562 0.931 . S
C576 C575 1.385 . S
C576 C577 1.389 . S
C577 C576 1.389 . S
C577 C578 1.387 . S
C578 H563 0.930 . S
C578 C573 1.390 . S
C578 C577 1.387 . S
H579 C591 0.930 . S
H580 C593 0.930 . S
H581 C594 0.930 . S
H582 C598 0.959 . S
H583 C598 0.959 . S
H584 C598 0.961 . S
H585 C599 0.960 . S
H586 C599 0.961 . S
H587 C599 0.959 . S
H588 C602 0.929 . S
H589 C603 0.931 . S
H590 C605 0.930 . S
C591 H579 0.930 . S
C591 C592 1.399 . S
C591 C596 1.399 . S
C592 C591 1.399 . S
C592 C593 1.376 . S
C593 H580 0.930 . S
C593 C592 1.376 . S
C593 C594 1.388 . S
C594 H581 0.930 . S
C594 C593 1.388 . S
C594 C595 1.390 . S
C595 C594 1.390 . S
C595 C596 1.394 . S
C595 C601 1.465 . S
C596 C591 1.399 . S
C596 C595 1.394 . S
C596 C597 1.516 . S
C597 C596 1.516 . S
C597 C598 1.502 . S
C597 C599 1.561 . S
C597 C600 1.526 . S
C598 H582 0.959 . S
C598 H583 0.959 . S
C598 H584 0.961 . S
C598 C597 1.502 . S
C599 H585 0.960 . S
C599 H586 0.961 . S
C599 H587 0.959 . S
C599 C597 1.561 . S
C600 C597 1.526 . S
C600 C601 1.396 . S
C600 C605 1.390 . S
C601 C595 1.465 . S
C601 C600 1.396 . S
C601 C602 1.399 . S
C602 H588 0.929 . S
C602 C601 1.399 . S
C602 C603 1.385 . S
C603 H589 0.931 . S
C603 C602 1.385 . S
C603 C604 1.389 . S
C604 C603 1.389 . S
C604 C605 1.387 . S
C605 H590 0.930 . S
C605 C600 1.390 . S
C605 C604 1.387 . S
H606 C618 0.930 . S
H607 C620 0.930 . S
H608 C621 0.930 . S
H609 C625 0.959 . S
H610 C625 0.959 . S
H611 C625 0.961 . S
H612 C626 0.960 . S
H613 C626 0.961 . S
H614 C626 0.959 . S
H615 C629 0.929 . S
H616 C630 0.931 . S
H617 C632 0.930 . S
C618 H606 0.930 . S
C618 C619 1.399 . S
C618 C623 1.399 . S
C619 C618 1.399 . S
C619 C620 1.376 . S
C620 H607 0.930 . S
C620 C619 1.376 . S
C620 C621 1.388 . S
C621 H608 0.930 . S
C621 C620 1.388 . S
C621 C622 1.390 . S
C622 C621 1.390 . S
C622 C623 1.394 . S
C622 C628 1.465 1_565 S
C623 C618 1.399 . S
C623 C622 1.394 . S
C623 C624 1.516 . S
C624 C623 1.516 . S
C624 C625 1.502 . S
C624 C626 1.561 . S
C624 C627 1.526 1_565 S
C625 H609 0.959 . S
C625 H610 0.959 . S
C625 H611 0.961 . S
C625 C624 1.502 . S
C626 H612 0.960 . S
C626 H613 0.961 . S
C626 H614 0.959 . S
C626 C624 1.561 . S
C627 C624 1.526 1_545 S
C627 C628 1.396 . S
C627 C632 1.390 . S
C628 C622 1.465 1_545 S
C628 C627 1.396 . S
C628 C629 1.399 . S
C629 H615 0.929 . S
C629 C628 1.399 . S
C629 C630 1.385 . S
C630 H616 0.931 . S
C630 C629 1.385 . S
C630 C631 1.389 . S
C631 C630 1.389 . S
C631 C632 1.387 . S
C632 H617 0.930 . S
C632 C627 1.390 . S
C632 C631 1.387 . S
H633 C645 0.930 . S
H634 C647 0.930 . S
H635 C648 0.930 . S
H636 C652 0.959 . S
H637 C652 0.959 . S
H638 C652 0.961 . S
H639 C653 0.960 . S
H640 C653 0.961 . S
H641 C653 0.959 . S
H642 C656 0.929 . S
H643 C657 0.931 . S
H644 C659 0.930 . S
C645 H633 0.930 . S
C645 C646 1.399 . S
C645 C650 1.399 . S
C646 C645 1.399 . S
C646 C647 1.376 . S
C647 H634 0.930 . S
C647 C646 1.376 . S
C647 C648 1.388 . S
C648 H635 0.930 . S
C648 C647 1.388 . S
C648 C649 1.390 . S
C649 C648 1.390 . S
C649 C650 1.394 . S
C649 C655 1.465 . S
C650 C645 1.399 . S
C650 C649 1.394 . S
C650 C651 1.516 . S
C651 C650 1.516 . S
C651 C652 1.502 . S
C651 C653 1.561 . S
C651 C654 1.526 . S
C652 H636 0.959 . S
C652 H637 0.959 . S
C652 H638 0.961 . S
C652 C651 1.502 . S
C653 H639 0.960 . S
C653 H640 0.961 . S
C653 H641 0.959 . S
C653 C651 1.561 . S
C654 C651 1.526 . S
C654 C655 1.396 . S
C654 C659 1.390 . S
C655 C649 1.465 . S
C655 C654 1.396 . S
C655 C656 1.399 . S
C656 H642 0.929 . S
C656 C655 1.399 . S
C656 C657 1.385 . S
C657 H643 0.931 . S
C657 C656 1.385 . S
C657 C658 1.389 . S
C658 C657 1.389 . S
C658 C659 1.387 . S
C659 H644 0.930 . S
C659 C654 1.390 . S
C659 C658 1.387 . S
H660 C672 0.930 . S
H661 C674 0.930 . S
H662 C675 0.930 . S
H663 C679 0.959 . S
H664 C679 0.959 . S
H665 C679 0.961 . S
H666 C680 0.960 . S
H667 C680 0.961 . S
H668 C680 0.959 . S
H669 C683 0.929 . S
H670 C684 0.931 . S
H671 C686 0.930 . S
C672 H660 0.930 . S
C672 C673 1.399 . S
C672 C677 1.399 . S
C673 C672 1.399 . S
C673 C674 1.376 . S
C674 H661 0.930 . S
C674 C673 1.376 . S
C674 C675 1.388 . S
C675 H662 0.930 . S
C675 C674 1.388 . S
C675 C676 1.390 . S
C676 C675 1.390 . S
C676 C677 1.394 . S
C676 C682 1.465 1_554 S
C677 C672 1.399 . S
C677 C676 1.394 . S
C677 C678 1.516 1_554 S
C678 C677 1.516 1_556 S
C678 C679 1.502 . S
C678 C680 1.561 . S
C678 C681 1.526 . S
C679 H663 0.959 . S
C679 H664 0.959 . S
C679 H665 0.961 . S
C679 C678 1.502 . S
C680 H666 0.960 . S
C680 H667 0.961 . S
C680 H668 0.959 . S
C680 C678 1.561 . S
C681 C678 1.526 . S
C681 C682 1.396 . S
C681 C686 1.390 . S
C682 C676 1.465 1_556 S
C682 C681 1.396 . S
C682 C683 1.399 . S
C683 H669 0.929 . S
C683 C682 1.399 . S
C683 C684 1.385 . S
C684 H670 0.931 . S
C684 C683 1.385 . S
C684 C685 1.389 . S
C685 C684 1.389 . S
C685 C686 1.387 . S
C686 H671 0.930 . S
C686 C681 1.390 . S
C686 C685 1.387 . S
H687 C699 0.930 . S
H688 C701 0.930 . S
H689 C702 0.930 . S
H690 C706 0.959 . S
H691 C706 0.959 . S
H692 C706 0.961 . S
H693 C707 0.960 . S
H694 C707 0.961 . S
H695 C707 0.959 . S
H696 C710 0.929 . S
H697 C711 0.931 . S
H698 C713 0.930 . S
C699 H687 0.930 . S
C699 C700 1.399 . S
C699 C704 1.399 . S
C700 C699 1.399 . S
C700 C701 1.376 . S
C701 H688 0.930 . S
C701 C700 1.376 . S
C701 C702 1.388 . S
C702 H689 0.930 . S
C702 C701 1.388 . S
C702 C703 1.390 . S
C703 C702 1.390 . S
C703 C704 1.394 . S
C703 C709 1.465 1_554 S
C704 C699 1.399 . S
C704 C703 1.394 . S
C704 C705 1.516 1_554 S
C705 C704 1.516 1_556 S
C705 C706 1.502 . S
C705 C707 1.561 . S
C705 C708 1.526 . S
C706 H690 0.959 . S
C706 H691 0.959 . S
C706 H692 0.961 . S
C706 C705 1.502 . S
C707 H693 0.960 . S
C707 H694 0.961 . S
C707 H695 0.959 . S
C707 C705 1.561 . S
C708 C705 1.526 . S
C708 C709 1.396 . S
C708 C713 1.390 . S
C709 C703 1.465 1_556 S
C709 C708 1.396 . S
C709 C710 1.399 . S
C710 H696 0.929 . S
C710 C709 1.399 . S
C710 C711 1.385 . S
C711 H697 0.931 . S
C711 C710 1.385 . S
C711 C712 1.389 . S
C712 C711 1.389 . S
C712 C713 1.387 . S
C713 H698 0.930 . S
C713 C708 1.390 . S
C713 C712 1.387 . S
H714 C726 0.930 . S
H715 C728 0.930 . S
H716 C729 0.930 . S
H717 C733 0.959 . S
H718 C733 0.959 . S
H719 C733 0.961 . S
H720 C734 0.960 . S
H721 C734 0.961 . S
H722 C734 0.959 . S
H723 C737 0.929 . S
H724 C738 0.931 . S
H725 C740 0.930 . S
C726 H714 0.930 . S
C726 C727 1.399 . S
C726 C731 1.399 . S
C727 C726 1.399 . S
C727 C728 1.376 . S
C728 H715 0.930 . S
C728 C727 1.376 . S
C728 C729 1.388 . S
C729 H716 0.930 . S
C729 C728 1.388 . S
C729 C730 1.390 . S
C730 C729 1.390 . S
C730 C731 1.394 . S
C730 C736 1.465 . S
C731 C726 1.399 . S
C731 C730 1.394 . S
C731 C732 1.516 . S
C732 C731 1.516 . S
C732 C733 1.502 . S
C732 C734 1.561 . S
C732 C735 1.526 . S
C733 H717 0.959 . S
C733 H718 0.959 . S
C733 H719 0.961 . S
C733 C732 1.502 . S
C734 H720 0.960 . S
C734 H721 0.961 . S
C734 H722 0.959 . S
C734 C732 1.561 . S
C735 C732 1.526 . S
C735 C736 1.396 . S
C735 C740 1.390 . S
C736 C730 1.465 . S
C736 C735 1.396 . S
C736 C737 1.399 . S
C737 H723 0.929 . S
C737 C736 1.399 . S
C737 C738 1.385 . S
C738 H724 0.931 . S
C738 C737 1.385 . S
C738 C739 1.389 . S
C739 C738 1.389 . S
C739 C740 1.387 . S
C740 H725 0.930 . S
C740 C735 1.390 . S
C740 C739 1.387 . S
H741 C753 0.930 . S
H742 C755 0.930 . S
H743 C756 0.930 . S
H744 C760 0.959 . S
H745 C760 0.959 . S
H746 C760 0.961 . S
H747 C761 0.960 . S
H748 C761 0.961 . S
H749 C761 0.959 . S
H750 C764 0.929 . S
H751 C765 0.931 . S
H752 C767 0.930 . S
C753 H741 0.930 . S
C753 C754 1.399 . S
C753 C758 1.399 . S
C754 C753 1.399 . S
C754 C755 1.376 . S
C755 H742 0.930 . S
C755 C754 1.376 . S
C755 C756 1.388 . S
C756 H743 0.930 . S
C756 C755 1.388 . S
C756 C757 1.390 . S
C757 C756 1.390 . S
C757 C758 1.394 . S
C757 C763 1.465 . S
C758 C753 1.399 . S
C758 C757 1.394 . S
C758 C759 1.516 . S
C759 C758 1.516 . S
C759 C760 1.502 . S
C759 C761 1.561 . S
C759 C762 1.526 . S
C760 H744 0.959 . S
C760 H745 0.959 . S
C760 H746 0.961 . S
C760 C759 1.502 . S
C761 H747 0.960 . S
C761 H748 0.961 . S
C761 H749 0.959 . S
C761 C759 1.561 . S
C762 C759 1.526 . S
C762 C763 1.396 . S
C762 C767 1.390 . S
C763 C757 1.465 . S
C763 C762 1.396 . S
C763 C764 1.399 . S
C764 H750 0.929 . S
C764 C763 1.399 . S
C764 C765 1.385 . S
C765 H751 0.931 . S
C765 C764 1.385 . S
C765 C766 1.389 . S
C766 C765 1.389 . S
C766 C767 1.387 . S
C767 H752 0.930 . S
C767 C762 1.390 . S
C767 C766 1.387 . S
H768 C780 0.930 . S
H769 C782 0.930 . S
H770 C783 0.930 1_655 S
H771 C787 0.959 . S
H772 C787 0.959 1_655 S
H773 C787 0.961 . S
H774 C788 0.960 1_455 S
H775 C788 0.961 . S
H776 C788 0.959 . S
H777 C791 0.929 . S
H778 C792 0.931 . S
H779 C794 0.930 . S
C780 H768 0.930 . S
C780 C781 1.399 . S
C780 C785 1.399 . S
C781 C780 1.399 . S
C781 C782 1.376 . S
C782 H769 0.930 . S
C782 C781 1.376 . S
C782 C783 1.388 . S
C783 H770 0.930 1_455 S
C783 C782 1.388 . S
C783 C784 1.390 1_455 S
C784 C783 1.390 1_655 S
C784 C785 1.394 1_655 S
C784 C790 1.465 . S
C785 C780 1.399 . S
C785 C784 1.394 1_455 S
C785 C786 1.516 1_455 S
C786 C785 1.516 1_655 S
C786 C787 1.502 1_655 S
C786 C788 1.561 . S
C786 C789 1.526 . S
C787 H771 0.959 . S
C787 H772 0.959 1_455 S
C787 H773 0.961 . S
C787 C786 1.502 1_455 S
C788 H774 0.960 1_655 S
C788 H775 0.961 . S
C788 H776 0.959 . S
C788 C786 1.561 . S
C789 C786 1.526 . S
C789 C790 1.396 . S
C789 C794 1.390 . S
C790 C784 1.465 . S
C790 C789 1.396 . S
C790 C791 1.399 . S
C791 H777 0.929 . S
C791 C790 1.399 . S
C791 C792 1.385 . S
C792 H778 0.931 . S
C792 C791 1.385 . S
C792 C793 1.389 . S
C793 C792 1.389 . S
C793 C794 1.387 . S
C794 H779 0.930 . S
C794 C789 1.390 . S
C794 C793 1.387 . S
H795 C807 0.930 . S
H796 C809 0.930 . S
H797 C810 0.930 . S
H798 C814 0.959 . S
H799 C814 0.959 . S
H800 C814 0.961 . S
H801 C815 0.960 1_655 S
H802 C815 0.961 . S
H803 C815 0.959 1_655 S
H804 C818 0.929 . S
H805 C819 0.931 . S
H806 C821 0.930 . S
C807 H795 0.930 . S
C807 C808 1.399 . S
C807 C812 1.399 . S
C808 C807 1.399 . S
C808 C809 1.376 . S
C809 H796 0.930 . S
C809 C808 1.376 . S
C809 C810 1.388 . S
C810 H797 0.930 . S
C810 C809 1.388 . S
C810 C811 1.390 . S
C811 C810 1.390 . S
C811 C812 1.394 . S
C811 C817 1.465 1_655 S
C812 C807 1.399 . S
C812 C811 1.394 . S
C812 C813 1.516 1_655 S
C813 C812 1.516 1_455 S
C813 C814 1.502 . S
C813 C815 1.561 . S
C813 C816 1.526 . S
C814 H798 0.959 . S
C814 H799 0.959 . S
C814 H800 0.961 . S
C814 C813 1.502 . S
C815 H801 0.960 1_455 S
C815 H802 0.961 . S
C815 H803 0.959 1_455 S
C815 C813 1.561 . S
C816 C813 1.526 . S
C816 C817 1.396 . S
C816 C821 1.390 . S
C817 C811 1.465 1_455 S
C817 C816 1.396 . S
C817 C818 1.399 . S
C818 H804 0.929 . S
C818 C817 1.399 . S
C818 C819 1.385 . S
C819 H805 0.931 . S
C819 C818 1.385 . S
C819 C820 1.389 . S
C820 C819 1.389 . S
C820 C821 1.387 . S
C821 H806 0.930 . S
C821 C816 1.390 . S
C821 C820 1.387 . S
H822 C834 0.930 . S
H823 C836 0.930 . S
H824 C837 0.930 . S
H825 C841 0.959 . S
H826 C841 0.959 1_554 S
H827 C841 0.961 1_554 S
H828 C842 0.960 1_455 S
H829 C842 0.961 . S
H830 C842 0.959 . S
H831 C845 0.929 . S
H832 C846 0.931 . S
H833 C848 0.930 . S
C834 H822 0.930 . S
C834 C835 1.399 . S
C834 C839 1.399 . S
C835 C834 1.399 . S
C835 C836 1.376 . S
C836 H823 0.930 . S
C836 C835 1.376 . S
C836 C837 1.388 . S
C837 H824 0.930 . S
C837 C836 1.388 . S
C837 C838 1.390 . S
C838 C837 1.390 . S
C838 C839 1.394 . S
C838 C844 1.465 1_455 S
C839 C834 1.399 . S
C839 C838 1.394 . S
C839 C840 1.516 1_455 S
C840 C839 1.516 1_655 S
C840 C841 1.502 . S
C840 C842 1.561 . S
C840 C843 1.526 . S
C841 H825 0.959 . S
C841 H826 0.959 1_556 S
C841 H827 0.961 1_556 S
C841 C840 1.502 . S
C842 H828 0.960 1_655 S
C842 H829 0.961 . S
C842 H830 0.959 . S
C842 C840 1.561 . S
C843 C840 1.526 . S
C843 C844 1.396 . S
C843 C848 1.390 . S
C844 C838 1.465 1_655 S
C844 C843 1.396 . S
C844 C845 1.399 . S
C845 H831 0.929 . S
C845 C844 1.399 . S
C845 C846 1.385 . S
C846 H832 0.931 . S
C846 C845 1.385 . S
C846 C847 1.389 . S
C847 C846 1.389 . S
C847 C848 1.387 . S
C848 H833 0.930 . S
C848 C843 1.390 . S
C848 C847 1.387 . S
H849 C861 0.930 . S
H850 C863 0.930 . S
H851 C864 0.930 . S
H852 C868 0.959 . S
H853 C868 0.959 1_554 S
H854 C868 0.961 . S
H855 C869 0.968 . S
H856 C869 0.961 1_554 S
H857 C869 0.959 . S
H858 C872 0.929 . S
H859 C873 0.931 . S
H860 C875 0.930 . S
C861 H849 0.930 . S
C861 C862 1.399 . S
C861 C866 1.399 . S
C862 C861 1.399 . S
C862 C863 1.376 . S
C863 H850 0.930 . S
C863 C862 1.376 . S
C863 C864 1.388 . S
C864 H851 0.930 . S
C864 C863 1.388 . S
C864 C865 1.390 . S
C865 C864 1.390 . S
C865 C866 1.394 . S
C865 C871 1.465 1_455 S
C866 C861 1.399 . S
C866 C865 1.394 . S
C866 C867 1.516 . S
C867 C866 1.516 . S
C867 C868 1.502 . S
C867 C869 1.561 . S
C867 C870 1.526 1_455 S
C868 H852 0.959 . S
C868 H853 0.959 1_556 S
C868 H854 0.961 . S
C868 C867 1.502 . S
C869 H855 0.968 . S
C869 H856 0.961 1_556 S
C869 H857 0.959 . S
C869 C867 1.561 . S
C870 C867 1.526 1_655 S
C870 C871 1.396 . S
C870 C875 1.390 . S
C871 C865 1.465 1_655 S
C871 C870 1.396 . S
C871 C872 1.399 . S
C872 H858 0.929 . S
C872 C871 1.399 . S
C872 C873 1.385 . S
C873 H859 0.931 . S
C873 C872 1.385 . S
C873 C874 1.389 . S
C874 C873 1.389 . S
C874 C875 1.387 . S
C875 H860 0.930 . S
C875 C870 1.390 . S
C875 C874 1.387 . S
H876 C888 0.930 . S
H877 C890 0.930 . S
H878 C891 0.930 . S
H879 C895 0.959 . S
H880 C895 0.959 . S
H881 C895 0.961 . S
H882 C896 0.960 . S
H883 C896 0.961 . S
H884 C896 0.959 . S
H885 C899 0.929 . S
H886 C900 0.931 . S
H887 C902 0.930 . S
C888 H876 0.930 . S
C888 C889 1.399 . S
C888 C893 1.399 . S
C889 C888 1.399 . S
C889 C890 1.376 . S
C890 H877 0.930 . S
C890 C889 1.376 . S
C890 C891 1.388 . S
C891 H878 0.930 . S
C891 C890 1.388 . S
C891 C892 1.390 . S
C892 C891 1.390 . S
C892 C893 1.394 . S
C892 C898 1.465 1_545 S
C893 C888 1.399 . S
C893 C892 1.394 . S
C893 C894 1.516 1_545 S
C894 C893 1.516 1_565 S
C894 C895 1.502 . S
C894 C896 1.561 . S
C894 C897 1.526 . S
C895 H879 0.959 . S
C895 H880 0.959 . S
C895 H881 0.961 . S
C895 C894 1.502 . S
C896 H882 0.960 . S
C896 H883 0.961 . S
C896 H884 0.959 . S
C896 C894 1.561 . S
C897 C894 1.526 . S
C897 C898 1.396 . S
C897 C902 1.390 . S
C898 C892 1.465 1_565 S
C898 C897 1.396 . S
C898 C899 1.399 . S
C899 H885 0.929 . S
C899 C898 1.399 . S
C899 C900 1.385 . S
C900 H886 0.931 . S
C900 C899 1.385 . S
C900 C901 1.389 . S
C901 C900 1.389 . S
C901 C902 1.387 . S
C902 H887 0.930 . S
C902 C897 1.390 . S
C902 C901 1.387 . S
H903 C915 0.930 . S
H904 C917 0.930 . S
H905 C918 0.930 . S
H906 C922 0.959 . S
H907 C922 0.959 . S
H908 C922 0.961 . S
H909 C923 0.960 . S
H910 C923 0.961 1_565 S
H911 C923 0.959 . S
H912 C926 0.929 . S
H913 C927 0.931 . S
H914 C929 0.930 . S
C915 H903 0.930 . S
C915 C916 1.399 . S
C915 C920 1.399 . S
C916 C915 1.399 . S
C916 C917 1.376 . S
C917 H904 0.930 . S
C917 C916 1.376 . S
C917 C918 1.388 . S
C918 H905 0.930 . S
C918 C917 1.388 . S
C918 C919 1.390 . S
C919 C918 1.390 . S
C919 C920 1.394 . S
C919 C925 1.465 1_545 S
C920 C915 1.399 . S
C920 C919 1.394 . S
C920 C921 1.516 . S
C921 C920 1.516 . S
C921 C922 1.502 . S
C921 C923 1.561 . S
C921 C924 1.526 1_545 S
C922 H906 0.959 . S
C922 H907 0.959 . S
C922 H908 0.961 . S
C922 C921 1.502 . S
C923 H909 0.960 . S
C923 H910 0.961 1_545 S
C923 H911 0.959 . S
C923 C921 1.561 . S
C924 C921 1.526 1_565 S
C924 C925 1.396 . S
C924 C929 1.390 . S
C925 C919 1.465 1_565 S
C925 C924 1.396 . S
C925 C926 1.399 . S
C926 H912 0.929 . S
C926 C925 1.399 . S
C926 C927 1.385 . S
C927 H913 0.931 . S
C927 C926 1.385 . S
C927 C928 1.389 . S
C928 C927 1.389 . S
C928 C929 1.387 . S
C929 H914 0.930 . S
C929 C924 1.390 . S
C929 C928 1.387 . S
H930 C942 0.930 . S
H931 C944 0.930 . S
H932 C945 0.930 . S
H933 C949 0.959 . S
H934 C949 0.959 . S
H935 C949 0.961 . S
H936 C950 0.960 . S
H937 C950 0.961 . S
H938 C950 0.959 . S
H939 C953 0.929 . S
H940 C954 0.931 . S
H941 C956 0.930 . S
C942 H930 0.930 . S
C942 C943 1.399 . S
C942 C947 1.399 . S
C943 C942 1.399 . S
C943 C944 1.376 . S
C944 H931 0.930 . S
C944 C943 1.376 . S
C944 C945 1.388 . S
C945 H932 0.930 . S
C945 C944 1.388 . S
C945 C946 1.390 . S
C946 C945 1.390 . S
C946 C947 1.394 . S
C946 C952 1.465 . S
C947 C942 1.399 . S
C947 C946 1.394 . S
C947 C948 1.516 . S
C948 C947 1.516 . S
C948 C949 1.502 . S
C948 C950 1.561 . S
C948 C951 1.526 . S
C949 H933 0.959 . S
C949 H934 0.959 . S
C949 H935 0.961 . S
C949 C948 1.502 . S
C950 H936 0.960 . S
C950 H937 0.961 . S
C950 H938 0.959 . S
C950 C948 1.561 . S
C951 C948 1.526 . S
C951 C952 1.396 . S
C951 C956 1.390 . S
C952 C946 1.465 . S
C952 C951 1.396 . S
C952 C953 1.399 . S
C953 H939 0.929 . S
C953 C952 1.399 . S
C953 C954 1.385 . S
C954 H940 0.931 . S
C954 C953 1.385 . S
C954 C955 1.389 . S
C955 C954 1.389 . S
C955 C956 1.387 . S
C956 H941 0.930 . S
C956 C951 1.390 . S
C956 C955 1.387 . S
H957 C969 0.930 . S
H958 C971 0.930 . S
H959 C972 0.930 . S
H960 C976 0.959 1_565 S
H961 C976 0.959 1_565 S
H962 C976 0.961 . S
H963 C977 0.960 1_455 S
H964 C977 0.961 1_455 S
H965 C977 0.959 . S
H966 C980 0.929 . S
H967 C981 0.931 . S
H968 C983 0.930 . S
C969 H957 0.930 . S
C969 C970 1.399 . S
C969 C974 1.399 . S
C970 C969 1.399 . S
C970 C971 1.376 . S
C971 H958 0.930 . S
C971 C970 1.376 . S
C971 C972 1.388 . S
C972 H959 0.930 . S
C972 C971 1.388 . S
C972 C973 1.390 . S
C973 C972 1.390 . S
C973 C974 1.394 . S
C973 C979 1.477 . S
C974 C969 1.399 . S
C974 C973 1.394 . S
C974 C975 1.516 . S
C975 C974 1.516 . S
C975 C976 1.502 . S
C975 C977 1.561 . S
C975 C978 1.526 1_545 S
C976 H960 0.959 1_545 S
C976 H961 0.959 1_545 S
C976 H962 0.961 . S
C976 C975 1.502 . S
C977 H963 0.960 1_655 S
C977 H964 0.961 1_655 S
C977 H965 0.959 . S
C977 C975 1.561 . S
C978 C975 1.526 1_565 S
C978 C979 1.392 1_565 S
C978 C983 1.390 . S
C979 C973 1.477 . S
C979 C978 1.392 1_545 S
C979 C980 1.391 1_545 S
C980 H966 0.929 . S
C980 C979 1.391 1_565 S
C980 C981 1.385 . S
C981 H967 0.931 . S
C981 C980 1.385 . S
C981 C982 1.389 . S
C982 C981 1.389 . S
C982 C983 1.387 . S
C983 H968 0.930 . S
C983 C978 1.390 . S
C983 C982 1.387 . S
H984 C996 0.930 . S
H985 C998 0.930 . S
H986 C999 0.930 . S
H987 C1003 0.959 . S
H988 C1003 0.959 . S
H989 C1003 0.961 . S
H990 C1004 0.960 . S
H991 C1004 0.961 . S
H992 C1004 0.959 . S
H993 C1007 0.929 . S
H994 C1008 0.931 . S
H995 C1010 0.928 1_655 S
C996 H984 0.930 . S
C996 C997 1.399 . S
C996 C1001 1.399 . S
C997 C996 1.399 . S
C997 C998 1.376 1_655 S
C998 H985 0.930 . S
C998 C997 1.376 1_455 S
C998 C999 1.388 . S
C999 H986 0.930 . S
C999 C998 1.388 . S
C999 C1000 1.390 . S
C1000 C999 1.390 . S
C1000 C1001 1.394 1_455 S
C1000 C1006 1.465 . S
C1001 C996 1.399 . S
C1001 C1000 1.394 1_655 S
C1001 C1002 1.516 . S
C1002 C1001 1.516 . S
C1002 C1003 1.502 . S
C1002 C1004 1.561 1_655 S
C1002 C1005 1.526 1_655 S
C1003 H987 0.959 . S
C1003 H988 0.959 . S
C1003 H989 0.961 . S
C1003 C1002 1.502 . S
C1004 H990 0.960 . S
C1004 H991 0.961 . S
C1004 H992 0.959 . S
C1004 C1002 1.561 1_455 S
C1005 C1002 1.526 1_455 S
C1005 C1006 1.396 . S
C1005 C1010 1.390 . S
C1006 C1000 1.465 . S
C1006 C1005 1.396 . S
C1006 C1007 1.399 . S
C1007 H993 0.929 . S
C1007 C1006 1.399 . S
C1007 C1008 1.385 . S
C1008 H994 0.931 . S
C1008 C1007 1.385 . S
C1008 C1009 1.389 . S
C1009 C1008 1.389 . S
C1009 C1010 1.387 . S
C1010 H995 0.928 1_455 S
C1010 C1005 1.390 . S
C1010 C1009 1.387 . S
H1011 C1023 0.930 . S
H1012 C1025 0.930 . S
H1013 C1026 0.930 . S
H1014 C1030 0.959 1_655 S
H1015 C1030 0.959 . S
H1016 C1030 0.961 . S
H1017 C1031 0.960 . S
H1018 C1031 0.961 . S
H1019 C1031 0.959 . S
H1020 C1034 0.929 . S
H1021 C1035 0.931 . S
H1022 C1037 0.930 . S
C1023 H1011 0.930 . S
C1023 C1024 1.399 . S
C1023 C1028 1.399 . S
C1024 C1023 1.399 . S
C1024 C1025 1.376 1_455 S
C1025 H1012 0.930 . S
C1025 C1024 1.376 1_655 S
C1025 C1026 1.388 . S
C1026 H1013 0.930 . S
C1026 C1025 1.388 . S
C1026 C1027 1.390 . S
C1027 C1026 1.390 . S
C1027 C1028 1.394 1_655 S
C1027 C1033 1.465 . S
C1028 C1023 1.399 . S
C1028 C1027 1.394 1_455 S
C1028 C1029 1.516 . S
C1029 C1028 1.516 . S
C1029 C1030 1.502 . S
C1029 C1031 1.561 . S
C1029 C1032 1.526 . S
C1030 H1014 0.959 1_455 S
C1030 H1015 0.959 . S
C1030 H1016 0.961 . S
C1030 C1029 1.502 . S
C1031 H1017 0.960 . S
C1031 H1018 0.961 . S
C1031 H1019 0.959 . S
C1031 C1029 1.561 . S
C1032 C1029 1.526 . S
C1032 C1033 1.396 1_455 S
C1032 C1037 1.390 . S
C1033 C1027 1.465 . S
C1033 C1032 1.396 1_655 S
C1033 C1034 1.399 . S
C1034 H1020 0.929 . S
C1034 C1033 1.399 . S
C1034 C1035 1.385 . S
C1035 H1021 0.931 . S
C1035 C1034 1.385 . S
C1035 C1036 1.389 . S
C1036 C1035 1.389 . S
C1036 C1037 1.387 1_655 S
C1037 H1022 0.930 . S
C1037 C1032 1.390 . S
C1037 C1036 1.387 1_455 S
H1038 C1050 0.930 1_545 S
H1039 C1052 0.930 . S
H1040 C1053 0.930 . S
H1041 C1057 0.959 . S
H1042 C1057 0.959 . S
H1043 C1057 0.961 . S
H1044 C1058 0.960 . S
H1045 C1058 0.961 . S
H1046 C1058 0.959 . S
H1047 C1061 0.929 . S
H1048 C1062 0.930 1_565 S
H1049 C1064 0.930 . S
C1050 H1038 0.930 1_565 S
C1050 C1051 1.399 . S
C1050 C1055 1.399 . S
C1051 C1050 1.399 . S
C1051 C1052 1.376 . S
C1052 H1039 0.930 . S
C1052 C1051 1.376 . S
C1052 C1053 1.388 . S
C1053 H1040 0.930 . S
C1053 C1052 1.388 . S
C1053 C1054 1.390 . S
C1054 C1053 1.390 . S
C1054 C1055 1.394 . S
C1054 C1060 1.465 . S
C1055 C1050 1.399 . S
C1055 C1054 1.394 . S
C1055 C1056 1.516 1_565 S
C1056 C1055 1.516 1_545 S
C1056 C1057 1.502 . S
C1056 C1058 1.561 1_545 S
C1056 C1059 1.526 . S
C1057 H1041 0.959 . S
C1057 H1042 0.959 . S
C1057 H1043 0.961 . S
C1057 C1056 1.502 . S
C1058 H1044 0.960 . S
C1058 H1045 0.961 . S
C1058 H1046 0.959 . S
C1058 C1056 1.561 1_565 S
C1059 C1056 1.526 . S
C1059 C1060 1.396 1_545 S
C1059 C1064 1.390 . S
C1060 C1054 1.465 . S
C1060 C1059 1.396 1_565 S
C1060 C1061 1.399 . S
C1061 H1047 0.929 . S
C1061 C1060 1.399 . S
C1061 C1062 1.383 1_565 S
C1062 H1048 0.930 1_545 S
C1062 C1061 1.383 1_545 S
C1062 C1063 1.393 . S
C1063 C1062 1.393 . S
C1063 C1064 1.387 . S
C1064 H1049 0.930 . S
C1064 C1059 1.390 . S
C1064 C1063 1.387 . S
H1065 C1077 0.930 . S
H1066 C1079 0.930 . S
H1067 C1080 0.930 . S
H1068 C1084 0.959 . S
H1069 C1084 0.959 . S
H1070 C1084 0.961 . S
H1071 C1085 0.960 . S
H1072 C1085 0.961 . S
H1073 C1085 0.959 . S
H1074 C1088 0.929 . S
H1075 C1089 0.931 . S
H1076 C1091 0.930 . S
C1077 H1065 0.930 . S
C1077 C1078 1.399 . S
C1077 C1082 1.399 . S
C1078 C1077 1.399 . S
C1078 C1079 1.376 . S
C1079 H1066 0.930 . S
C1079 C1078 1.376 . S
C1079 C1080 1.388 . S
C1080 H1067 0.930 . S
C1080 C1079 1.388 . S
C1080 C1081 1.390 . S
C1081 C1080 1.390 . S
C1081 C1082 1.394 . S
C1081 C1087 1.465 . S
C1082 C1077 1.399 . S
C1082 C1081 1.394 . S
C1082 C1083 1.516 . S
C1083 C1082 1.516 . S
C1083 C1084 1.502 . S
C1083 C1085 1.561 . S
C1083 C1086 1.526 . S
C1084 H1068 0.959 . S
C1084 H1069 0.959 . S
C1084 H1070 0.961 . S
C1084 C1083 1.502 . S
C1085 H1071 0.960 . S
C1085 H1072 0.961 . S
C1085 H1073 0.959 . S
C1085 C1083 1.561 . S
C1086 C1083 1.526 . S
C1086 C1087 1.396 . S
C1086 C1091 1.390 . S
C1087 C1081 1.465 . S
C1087 C1086 1.396 . S
C1087 C1088 1.399 . S
C1088 H1074 0.929 . S
C1088 C1087 1.399 . S
C1088 C1089 1.385 . S
C1089 H1075 0.931 . S
C1089 C1088 1.385 . S
C1089 C1090 1.389 . S
C1090 C1089 1.389 . S
C1090 C1091 1.387 . S
C1091 H1076 0.930 . S
C1091 C1086 1.390 . S
C1091 C1090 1.387 . S
H1092 C1104 0.930 . S
H1093 C1106 0.930 . S
H1094 C1107 0.928 1_556 S
H1095 C1111 0.959 . S
H1096 C1111 0.959 . S
H1097 C1111 0.961 . S
H1098 C1112 0.960 . S
H1099 C1112 0.961 . S
H1100 C1112 0.959 . S
H1101 C1115 0.929 . S
H1102 C1116 0.931 . S
H1103 C1118 0.930 . S
C1104 H1092 0.930 . S
C1104 C1105 1.399 . S
C1104 C1109 1.399 . S
C1105 C1104 1.399 . S
C1105 C1106 1.376 . S
C1106 H1093 0.930 . S
C1106 C1105 1.376 . S
C1106 C1107 1.388 . S
C1107 H1094 0.928 1_554 S
C1107 C1106 1.388 . S
C1107 C1108 1.387 1_554 S
C1108 C1107 1.387 1_556 S
C1108 C1109 1.391 1_556 S
C1108 C1114 1.471 . S
C1109 C1104 1.399 . S
C1109 C1108 1.391 1_554 S
C1109 C1110 1.516 1_554 S
C1110 C1109 1.516 1_556 S
C1110 C1111 1.502 1_556 S
C1110 C1112 1.561 . S
C1110 C1113 1.526 . S
C1111 H1095 0.959 . S
C1111 H1096 0.959 . S
C1111 H1097 0.961 . S
C1111 C1110 1.502 1_554 S
C1112 H1098 0.960 . S
C1112 H1099 0.961 . S
C1112 H1100 0.959 . S
C1112 C1110 1.561 . S
C1113 C1110 1.526 . S
C1113 C1114 1.396 . S
C1113 C1118 1.390 . S
C1114 C1108 1.471 . S
C1114 C1113 1.396 . S
C1114 C1115 1.399 . S
C1115 H1101 0.929 . S
C1115 C1114 1.399 . S
C1115 C1116 1.385 . S
C1116 H1102 0.931 . S
C1116 C1115 1.385 . S
C1116 C1117 1.389 . S
C1117 C1116 1.389 . S
C1117 C1118 1.387 . S
C1118 H1103 0.930 . S
C1118 C1113 1.390 . S
C1118 C1117 1.387 . S
H1119 C1131 0.930 . S
H1120 C1133 0.930 . S
H1121 C1134 0.930 . S
H1122 C1138 0.959 . S
H1123 C1138 0.959 . S
H1124 C1138 0.961 . S
H1125 C1139 0.960 . S
H1126 C1139 0.961 . S
H1127 C1139 0.959 . S
H1128 C1142 0.929 . S
H1129 C1143 0.931 . S
H1130 C1145 0.930 . S
C1131 H1119 0.930 . S
C1131 C1132 1.399 . S
C1131 C1136 1.399 . S
C1132 C1131 1.399 . S
C1132 C1133 1.376 . S
C1133 H1120 0.930 . S
C1133 C1132 1.376 . S
C1133 C1134 1.388 . S
C1134 H1121 0.930 . S
C1134 C1133 1.388 . S
C1134 C1135 1.390 . S
C1135 C1134 1.390 . S
C1135 C1136 1.394 . S
C1135 C1141 1.465 . S
C1136 C1131 1.399 . S
C1136 C1135 1.394 . S
C1136 C1137 1.516 . S
C1137 C1136 1.516 . S
C1137 C1138 1.502 . S
C1137 C1139 1.561 . S
C1137 C1140 1.526 . S
C1138 H1122 0.959 . S
C1138 H1123 0.959 . S
C1138 H1124 0.961 . S
C1138 C1137 1.502 . S
C1139 H1125 0.960 . S
C1139 H1126 0.961 . S
C1139 H1127 0.959 . S
C1139 C1137 1.561 . S
C1140 C1137 1.526 . S
C1140 C1141 1.396 . S
C1140 C1145 1.390 . S
C1141 C1135 1.465 . S
C1141 C1140 1.396 . S
C1141 C1142 1.399 . S
C1142 H1128 0.929 . S
C1142 C1141 1.399 . S
C1142 C1143 1.385 . S
C1143 H1129 0.931 . S
C1143 C1142 1.385 . S
C1143 C1144 1.389 . S
C1144 C1143 1.389 . S
C1144 C1145 1.387 . S
C1145 H1130 0.930 . S
C1145 C1140 1.390 . S
C1145 C1144 1.387 . S
H1146 C1158 0.930 . S
H1147 C1160 0.930 . S
H1148 C1161 0.930 . S
H1149 C1165 0.959 . S
H1150 C1165 0.959 . S
H1151 C1165 0.961 . S
H1152 C1166 0.960 . S
H1153 C1166 0.961 . S
H1154 C1166 0.959 . S
H1155 C1169 0.929 . S
H1156 C1170 0.931 . S
H1157 C1172 0.930 . S
C1158 H1146 0.930 . S
C1158 C1159 1.399 . S
C1158 C1163 1.399 . S
C1159 C1158 1.399 . S
C1159 C1160 1.376 . S
C1160 H1147 0.930 . S
C1160 C1159 1.376 . S
C1160 C1161 1.388 . S
C1161 H1148 0.930 . S
C1161 C1160 1.388 . S
C1161 C1162 1.390 . S
C1162 C1161 1.390 . S
C1162 C1163 1.394 . S
C1162 C1168 1.465 . S
C1163 C1158 1.399 . S
C1163 C1162 1.394 . S
C1163 C1164 1.516 . S
C1164 C1163 1.516 . S
C1164 C1165 1.502 . S
C1164 C1166 1.561 . S
C1164 C1167 1.526 . S
C1165 H1149 0.959 . S
C1165 H1150 0.959 . S
C1165 H1151 0.961 . S
C1165 C1164 1.502 . S
C1166 H1152 0.960 . S
C1166 H1153 0.961 . S
C1166 H1154 0.959 . S
C1166 C1164 1.561 . S
C1167 C1164 1.526 . S
C1167 C1168 1.396 . S
C1167 C1172 1.390 . S
C1168 C1162 1.465 . S
C1168 C1167 1.396 . S
C1168 C1169 1.399 . S
C1169 H1155 0.929 . S
C1169 C1168 1.399 . S
C1169 C1170 1.385 . S
C1170 H1156 0.931 . S
C1170 C1169 1.385 . S
C1170 C1171 1.389 . S
C1171 C1170 1.389 . S
C1171 C1172 1.387 . S
C1172 H1157 0.930 . S
C1172 C1167 1.390 . S
C1172 C1171 1.387 . S
H1173 C1185 0.930 . S
H1174 C1187 0.930 . S
H1175 C1188 0.930 . S
H1176 C1192 0.959 . S
H1177 C1192 0.959 . S
H1178 C1192 0.961 . S
H1179 C1193 0.960 . S
H1180 C1193 0.961 . S
H1181 C1193 0.959 . S
H1182 C1196 0.929 . S
H1183 C1197 0.931 . S
H1184 C1199 0.930 . S
C1185 H1173 0.930 . S
C1185 C1186 1.399 . S
C1185 C1190 1.399 . S
C1186 C1185 1.399 . S
C1186 C1187 1.376 . S
C1187 H1174 0.930 . S
C1187 C1186 1.376 . S
C1187 C1188 1.388 . S
C1188 H1175 0.930 . S
C1188 C1187 1.388 . S
C1188 C1189 1.390 . S
C1189 C1188 1.390 . S
C1189 C1190 1.394 . S
C1189 C1195 1.465 . S
C1190 C1185 1.399 . S
C1190 C1189 1.394 . S
C1190 C1191 1.516 . S
C1191 C1190 1.516 . S
C1191 C1192 1.502 . S
C1191 C1193 1.561 . S
C1191 C1194 1.526 . S
C1192 H1176 0.959 . S
C1192 H1177 0.959 . S
C1192 H1178 0.961 . S
C1192 C1191 1.502 . S
C1193 H1179 0.960 . S
C1193 H1180 0.961 . S
C1193 H1181 0.959 . S
C1193 C1191 1.561 . S
C1194 C1191 1.526 . S
C1194 C1195 1.396 . S
C1194 C1199 1.390 . S
C1195 C1189 1.465 . S
C1195 C1194 1.396 . S
C1195 C1196 1.399 . S
C1196 H1182 0.929 . S
C1196 C1195 1.399 . S
C1196 C1197 1.385 . S
C1197 H1183 0.931 . S
C1197 C1196 1.385 . S
C1197 C1198 1.389 . S
C1198 C1197 1.389 . S
C1198 C1199 1.387 . S
C1199 H1184 0.930 . S
C1199 C1194 1.390 . S
C1199 C1198 1.387 . S
H1200 C1212 0.930 . S
H1201 C1214 0.930 . S
H1202 C1215 0.930 . S
H1203 C1219 0.959 . S
H1204 C1219 0.959 . S
H1205 C1219 0.961 . S
H1206 C1220 0.960 . S
H1207 C1220 0.961 . S
H1208 C1220 0.959 . S
H1209 C1223 0.929 . S
H1210 C1224 0.931 . S
H1211 C1226 0.930 . S
C1212 H1200 0.930 . S
C1212 C1213 1.399 . S
C1212 C1217 1.399 . S
C1213 C1212 1.399 . S
C1213 C1214 1.376 . S
C1214 H1201 0.930 . S
C1214 C1213 1.376 . S
C1214 C1215 1.388 . S
C1215 H1202 0.930 . S
C1215 C1214 1.388 . S
C1215 C1216 1.390 . S
C1216 C1215 1.390 . S
C1216 C1217 1.394 . S
C1216 C1222 1.465 . S
C1217 C1212 1.399 . S
C1217 C1216 1.394 . S
C1217 C1218 1.516 . S
C1218 C1217 1.516 . S
C1218 C1219 1.502 . S
C1218 C1220 1.561 . S
C1218 C1221 1.526 . S
C1219 H1203 0.959 . S
C1219 H1204 0.959 . S
C1219 H1205 0.961 . S
C1219 C1218 1.502 . S
C1220 H1206 0.960 . S
C1220 H1207 0.961 . S
C1220 H1208 0.959 . S
C1220 C1218 1.561 . S
C1221 C1218 1.526 . S
C1221 C1222 1.396 . S
C1221 C1226 1.390 . S
C1222 C1216 1.465 . S
C1222 C1221 1.396 . S
C1222 C1223 1.399 . S
C1223 H1209 0.929 . S
C1223 C1222 1.399 . S
C1223 C1224 1.385 . S
C1224 H1210 0.931 . S
C1224 C1223 1.385 . S
C1224 C1225 1.389 . S
C1225 C1224 1.389 . S
C1225 C1226 1.387 . S
C1226 H1211 0.930 . S
C1226 C1221 1.390 . S
C1226 C1225 1.387 . S
H1227 C1239 0.930 . S
H1228 C1241 0.930 . S
H1229 C1242 0.930 . S
H1230 C1246 0.959 . S
H1231 C1246 0.959 . S
H1232 C1246 0.961 . S
H1233 C1247 0.960 . S
H1234 C1247 0.961 . S
H1235 C1247 0.959 . S
H1236 C1250 0.929 . S
H1237 C1251 0.931 . S
H1238 C1253 0.930 . S
C1239 H1227 0.930 . S
C1239 C1240 1.399 . S
C1239 C1244 1.399 . S
C1240 C1239 1.399 . S
C1240 C1241 1.376 . S
C1241 H1228 0.930 . S
C1241 C1240 1.376 . S
C1241 C1242 1.388 . S
C1242 H1229 0.930 . S
C1242 C1241 1.388 . S
C1242 C1243 1.390 . S
C1243 C1242 1.390 . S
C1243 C1244 1.394 . S
C1243 C1249 1.465 . S
C1244 C1239 1.399 . S
C1244 C1243 1.394 . S
C1244 C1245 1.516 . S
C1245 C1244 1.516 . S
C1245 C1246 1.502 . S
C1245 C1247 1.561 . S
C1245 C1248 1.526 . S
C1246 H1230 0.959 . S
C1246 H1231 0.959 . S
C1246 H1232 0.961 . S
C1246 C1245 1.502 . S
C1247 H1233 0.960 . S
C1247 H1234 0.961 . S
C1247 H1235 0.959 . S
C1247 C1245 1.561 . S
C1248 C1245 1.526 . S
C1248 C1249 1.396 . S
C1248 C1253 1.390 . S
C1249 C1243 1.465 . S
C1249 C1248 1.396 . S
C1249 C1250 1.399 . S
C1250 H1236 0.929 . S
C1250 C1249 1.399 . S
C1250 C1251 1.385 . S
C1251 H1237 0.931 . S
C1251 C1250 1.385 . S
C1251 C1252 1.389 . S
C1252 C1251 1.389 . S
C1252 C1253 1.387 . S
C1253 H1238 0.930 . S
C1253 C1248 1.390 . S
C1253 C1252 1.387 . S
H1254 C1266 0.930 . S
H1255 C1268 0.930 . S
H1256 C1269 0.930 . S
H1257 C1273 0.959 . S
H1258 C1273 0.959 . S
H1259 C1273 0.961 . S
H1260 C1274 0.960 . S
H1261 C1274 0.961 . S
H1262 C1274 0.959 . S
H1263 C1277 0.929 . S
H1264 C1278 0.931 . S
H1265 C1280 0.930 . S
C1266 H1254 0.930 . S
C1266 C1267 1.399 . S
C1266 C1271 1.399 . S
C1267 C1266 1.399 . S
C1267 C1268 1.376 1_545 S
C1268 H1255 0.930 . S
C1268 C1267 1.376 1_565 S
C1268 C1269 1.388 . S
C1269 H1256 0.930 . S
C1269 C1268 1.388 . S
C1269 C1270 1.390 . S
C1270 C1269 1.390 . S
C1270 C1271 1.394 1_565 S
C1270 C1276 1.465 . S
C1271 C1266 1.399 . S
C1271 C1270 1.394 1_545 S
C1271 C1272 1.516 . S
C1272 C1271 1.516 . S
C1272 C1273 1.502 . S
C1272 C1274 1.561 . S
C1272 C1275 1.526 . S
C1273 H1257 0.959 . S
C1273 H1258 0.959 . S
C1273 H1259 0.961 . S
C1273 C1272 1.502 . S
C1274 H1260 0.960 . S
C1274 H1261 0.961 . S
C1274 H1262 0.959 . S
C1274 C1272 1.561 . S
C1275 C1272 1.526 . S
C1275 C1276 1.396 1_545 S
C1275 C1280 1.390 . S
C1276 C1270 1.465 . S
C1276 C1275 1.396 1_565 S
C1276 C1277 1.399 . S
C1277 H1263 0.929 . S
C1277 C1276 1.399 . S
C1277 C1278 1.385 . S
C1278 H1264 0.931 . S
C1278 C1277 1.385 . S
C1278 C1279 1.389 . S
C1279 C1278 1.389 . S
C1279 C1280 1.387 1_565 S
C1280 H1265 0.930 . S
C1280 C1275 1.390 . S
C1280 C1279 1.387 1_545 S
H1281 C1293 0.930 1_554 S
H1282 C1295 0.930 . S
H1283 C1296 0.930 . S
H1284 C1300 0.959 . S
H1285 C1300 0.959 . S
H1286 C1300 0.961 . S
H1287 C1301 0.960 . S
H1288 C1301 0.961 . S
H1289 C1301 0.959 . S
H1290 C1304 0.929 . S
H1291 C1305 0.931 . S
H1292 C1307 0.930 . S
C1293 H1281 0.930 1_556 S
C1293 C1294 1.399 . S
C1293 C1298 1.399 . S
C1294 C1293 1.399 . S
C1294 C1295 1.376 . S
C1295 H1282 0.930 . S
C1295 C1294 1.376 . S
C1295 C1296 1.388 . S
C1296 H1283 0.930 . S
C1296 C1295 1.388 . S
C1296 C1297 1.390 . S
C1297 C1296 1.390 . S
C1297 C1298 1.394 . S
C1297 C1303 1.465 . S
C1298 C1293 1.399 . S
C1298 C1297 1.394 . S
C1298 C1299 1.516 1_556 S
C1299 C1298 1.516 1_554 S
C1299 C1300 1.502 . S
C1299 C1301 1.561 1_554 S
C1299 C1302 1.526 . S
C1300 H1284 0.959 . S
C1300 H1285 0.959 . S
C1300 H1286 0.961 . S
C1300 C1299 1.502 . S
C1301 H1287 0.960 . S
C1301 H1288 0.961 . S
C1301 H1289 0.959 . S
C1301 C1299 1.561 1_556 S
C1302 C1299 1.526 . S
C1302 C1303 1.396 1_554 S
C1302 C1307 1.390 . S
C1303 C1297 1.465 . S
C1303 C1302 1.396 1_556 S
C1303 C1304 1.399 . S
C1304 H1290 0.929 . S
C1304 C1303 1.399 . S
C1304 C1305 1.385 . S
C1305 H1291 0.931 . S
C1305 C1304 1.385 . S
C1305 C1306 1.389 1_556 S
C1306 C1305 1.389 1_554 S
C1306 C1307 1.387 . S
C1307 H1292 0.930 . S
C1307 C1302 1.390 . S
C1307 C1306 1.387 . S
H1308 C1320 0.930 . S
H1309 C1322 0.930 . S
H1310 C1323 0.930 . S
H1311 C1327 0.959 . S
H1312 C1327 0.959 1_545 S
H1313 C1327 0.961 . S
H1314 C1328 0.960 . S
H1315 C1328 0.961 . S
H1316 C1328 0.959 . S
H1317 C1331 0.929 . S
H1318 C1332 0.931 . S
H1319 C1334 0.930 . S
C1320 H1308 0.930 . S
C1320 C1321 1.399 . S
C1320 C1325 1.399 . S
C1321 C1320 1.399 . S
C1321 C1322 1.376 1_455 S
C1322 H1309 0.930 . S
C1322 C1321 1.376 1_655 S
C1322 C1323 1.388 . S
C1323 H1310 0.930 . S
C1323 C1322 1.388 . S
C1323 C1324 1.390 . S
C1324 C1323 1.390 . S
C1324 C1325 1.394 1_655 S
C1324 C1330 1.465 1_565 S
C1325 C1320 1.399 . S
C1325 C1324 1.394 1_455 S
C1325 C1326 1.516 1_565 S
C1326 C1325 1.516 1_545 S
C1326 C1327 1.502 1_545 S
C1326 C1328 1.561 . S
C1326 C1329 1.526 . S
C1327 H1311 0.959 . S
C1327 H1312 0.959 1_565 S
C1327 H1313 0.961 . S
C1327 C1326 1.502 1_565 S
C1328 H1314 0.960 . S
C1328 H1315 0.961 . S
C1328 H1316 0.959 . S
C1328 C1326 1.561 . S
C1329 C1326 1.526 . S
C1329 C1330 1.396 1_455 S
C1329 C1334 1.390 . S
C1330 C1324 1.465 1_545 S
C1330 C1329 1.396 1_655 S
C1330 C1331 1.399 . S
C1331 H1317 0.929 . S
C1331 C1330 1.399 . S
C1331 C1332 1.385 . S
C1332 H1318 0.931 . S
C1332 C1331 1.385 . S
C1332 C1333 1.389 1_655 S
C1333 C1332 1.389 1_455 S
C1333 C1334 1.387 . S
C1334 H1319 0.930 . S
C1334 C1329 1.390 . S
C1334 C1333 1.387 . S
H1335 C1347 0.953 . S
H1336 C1349 0.930 . S
H1337 C1350 0.930 . S
H1338 C1354 0.959 . S
H1339 C1354 0.959 . S
H1340 C1354 0.961 . S
H1341 C1355 0.960 . S
H1342 C1355 0.961 . S
H1343 C1355 0.959 . S
H1344 C1358 0.929 . S
H1345 C1359 0.931 . S
H1346 C1361 0.936 . S
C1347 H1335 0.953 . S
C1347 C1348 1.382 1_455 S
C1347 C1352 1.393 1_455 S
C1348 C1347 1.382 1_655 S
C1348 C1349 1.376 . S
C1349 H1336 0.930 . S
C1349 C1348 1.376 . S
C1349 C1350 1.388 . S
C1350 H1337 0.930 . S
C1350 C1349 1.388 . S
C1350 C1351 1.390 . S
C1351 C1350 1.390 . S
C1351 C1352 1.394 . S
C1351 C1357 1.465 . S
C1352 C1347 1.393 1_655 S
C1352 C1351 1.394 . S
C1352 C1353 1.516 1_655 S
C1353 C1352 1.516 1_455 S
C1353 C1354 1.502 . S
C1353 C1355 1.561 1_455 S
C1353 C1356 1.526 1_455 S
C1354 H1338 0.959 . S
C1354 H1339 0.959 . S
C1354 H1340 0.961 . S
C1354 C1353 1.502 . S
C1355 H1341 0.960 . S
C1355 H1342 0.961 . S
C1355 H1343 0.959 . S
C1355 C1353 1.561 1_655 S
C1356 C1353 1.526 1_655 S
C1356 C1357 1.396 . S
C1356 C1361 1.388 1_655 S
C1357 C1351 1.465 . S
C1357 C1356 1.396 . S
C1357 C1358 1.399 . S
C1358 H1344 0.929 . S
C1358 C1357 1.399 . S
C1358 C1359 1.385 . S
C1359 H1345 0.931 . S
C1359 C1358 1.385 . S
C1359 C1360 1.389 . S
C1360 C1359 1.389 . S
C1360 C1361 1.382 1_655 S
C1361 H1346 0.936 . S
C1361 C1356 1.388 1_455 S
C1361 C1360 1.382 1_455 S
H1362 C1374 0.930 . S
H1363 C1376 0.930 . S
H1364 C1377 0.930 . S
H1365 C1381 0.959 . S
H1366 C1381 0.959 . S
H1367 C1381 0.961 . S
H1368 C1382 0.960 1_556 S
H1369 C1382 0.961 . S
H1370 C1382 0.959 . S
H1371 C1385 0.929 . S
H1372 C1386 0.931 . S
H1373 C1388 0.930 . S
C1374 H1362 0.930 . S
C1374 C1375 1.399 . S
C1374 C1379 1.399 . S
C1375 C1374 1.399 . S
C1375 C1376 1.376 1_545 S
C1376 H1363 0.930 . S
C1376 C1375 1.376 1_565 S
C1376 C1377 1.388 . S
C1377 H1364 0.930 . S
C1377 C1376 1.388 . S
C1377 C1378 1.390 . S
C1378 C1377 1.390 . S
C1378 C1379 1.394 1_565 S
C1378 C1384 1.465 1_556 S
C1379 C1374 1.399 . S
C1379 C1378 1.394 1_545 S
C1379 C1380 1.516 . S
C1380 C1379 1.516 . S
C1380 C1381 1.502 . S
C1380 C1382 1.561 1_556 S
C1380 C1383 1.526 1_556 S
C1381 H1365 0.959 . S
C1381 H1366 0.959 . S
C1381 H1367 0.961 . S
C1381 C1380 1.502 . S
C1382 H1368 0.960 1_554 S
C1382 H1369 0.961 . S
C1382 H1370 0.959 . S
C1382 C1380 1.561 1_554 S
C1383 C1380 1.526 1_554 S
C1383 C1384 1.396 1_545 S
C1383 C1388 1.390 . S
C1384 C1378 1.465 1_554 S
C1384 C1383 1.396 1_565 S
C1384 C1385 1.399 . S
C1385 H1371 0.929 . S
C1385 C1384 1.399 . S
C1385 C1386 1.385 . S
C1386 H1372 0.931 . S
C1386 C1385 1.385 . S
C1386 C1387 1.389 1_565 S
C1387 C1386 1.389 1_545 S
C1387 C1388 1.387 . S
C1388 H1373 0.930 . S
C1388 C1383 1.390 . S
C1388 C1387 1.387 . S
H1389 C1401 0.930 . S
H1390 C1403 0.930 . S
H1391 C1404 0.930 . S
H1392 C1408 0.959 . S
H1393 C1408 0.959 . S
H1394 C1408 0.961 . S
H1395 C1409 0.960 . S
H1396 C1409 0.961 1_556 S
H1397 C1409 0.959 . S
H1398 C1412 0.940 . S
H1399 C1413 0.931 . S
H1400 C1415 0.930 . S
C1401 H1389 0.930 . S
C1401 C1402 1.399 . S
C1401 C1406 1.399 . S
C1402 C1401 1.399 . S
C1402 C1403 1.376 . S
C1403 H1390 0.930 . S
C1403 C1402 1.376 . S
C1403 C1404 1.388 . S
C1404 H1391 0.930 . S
C1404 C1403 1.388 . S
C1404 C1405 1.390 . S
C1405 C1404 1.390 . S
C1405 C1406 1.394 . S
C1405 C1411 1.465 1_554 S
C1406 C1401 1.399 . S
C1406 C1405 1.394 . S
C1406 C1407 1.516 1_554 S
C1407 C1406 1.516 1_556 S
C1407 C1408 1.502 . S
C1407 C1409 1.561 1_556 S
C1407 C1410 1.526 . S
C1408 H1392 0.959 . S
C1408 H1393 0.959 . S
C1408 H1394 0.961 . S
C1408 C1407 1.502 . S
C1409 H1395 0.960 . S
C1409 H1396 0.961 1_554 S
C1409 H1397 0.959 . S
C1409 C1407 1.561 1_554 S
C1410 C1407 1.526 . S
C1410 C1411 1.396 . S
C1410 C1415 1.390 . S
C1411 C1405 1.465 1_556 S
C1411 C1410 1.396 . S
C1411 C1412 1.399 . S
C1412 H1398 0.940 . S
C1412 C1411 1.399 . S
C1412 C1413 1.385 . S
C1413 H1399 0.931 . S
C1413 C1412 1.385 . S
C1413 C1414 1.389 . S
C1414 C1413 1.389 . S
C1414 C1415 1.387 . S
C1415 H1400 0.930 . S
C1415 C1410 1.390 . S
C1415 C1414 1.387 . S
H1416 C1428 0.930 . S
H1417 C1430 0.930 . S
H1418 C1431 0.930 . S
H1419 C1435 0.959 . S
H1420 C1435 0.959 . S
H1421 C1435 0.961 . S
H1422 C1436 0.960 . S
H1423 C1436 0.961 . S
H1424 C1436 0.959 . S
H1425 C1439 0.929 . S
H1426 C1440 0.931 . S
H1427 C1442 0.930 . S
C1428 H1416 0.930 . S
C1428 C1429 1.399 1_545 S
C1428 C1433 1.399 . S
C1429 C1428 1.399 1_565 S
C1429 C1430 1.376 . S
C1430 H1417 0.930 . S
C1430 C1429 1.376 . S
C1430 C1431 1.388 . S
C1431 H1418 0.930 . S
C1431 C1430 1.388 . S
C1431 C1432 1.390 . S
C1432 C1431 1.390 . S
C1432 C1433 1.394 1_565 S
C1432 C1438 1.465 . S
C1433 C1428 1.399 . S
C1433 C1432 1.394 1_545 S
C1433 C1434 1.516 . S
C1434 C1433 1.516 . S
C1434 C1435 1.502 . S
C1434 C1436 1.561 . S
C1434 C1437 1.526 . S
C1435 H1419 0.959 . S
C1435 H1420 0.959 . S
C1435 H1421 0.961 . S
C1435 C1434 1.502 . S
C1436 H1422 0.960 . S
C1436 H1423 0.961 . S
C1436 H1424 0.959 . S
C1436 C1434 1.561 . S
C1437 C1434 1.526 . S
C1437 C1438 1.396 1_545 S
C1437 C1442 1.390 . S
C1438 C1432 1.465 . S
C1438 C1437 1.396 1_565 S
C1438 C1439 1.399 . S
C1439 H1425 0.929 . S
C1439 C1438 1.399 . S
C1439 C1440 1.385 . S
C1440 H1426 0.931 . S
C1440 C1439 1.385 . S
C1440 C1441 1.389 . S
C1441 C1440 1.389 . S
C1441 C1442 1.387 1_565 S
C1442 H1427 0.930 . S
C1442 C1437 1.390 . S
C1442 C1441 1.387 1_545 S
H1443 C1455 0.930 . S
H1444 C1457 0.930 . S
H1445 C1458 0.930 . S
H1446 C1462 0.959 . S
H1447 C1462 0.959 . S
H1448 C1462 0.961 . S
H1449 C1463 0.960 . S
H1450 C1463 0.961 . S
H1451 C1463 0.959 . S
H1452 C1466 0.929 . S
H1453 C1467 0.931 . S
H1454 C1469 0.930 . S
C1455 H1443 0.930 . S
C1455 C1456 1.399 . S
C1455 C1460 1.399 . S
C1456 C1455 1.399 . S
C1456 C1457 1.376 . S
C1457 H1444 0.930 . S
C1457 C1456 1.376 . S
C1457 C1458 1.388 . S
C1458 H1445 0.930 . S
C1458 C1457 1.388 . S
C1458 C1459 1.390 . S
C1459 C1458 1.390 . S
C1459 C1460 1.394 . S
C1459 C1465 1.465 . S
C1460 C1455 1.399 . S
C1460 C1459 1.394 . S
C1460 C1461 1.516 . S
C1461 C1460 1.516 . S
C1461 C1462 1.502 . S
C1461 C1463 1.561 . S
C1461 C1464 1.526 . S
C1462 H1446 0.959 . S
C1462 H1447 0.959 . S
C1462 H1448 0.961 . S
C1462 C1461 1.502 . S
C1463 H1449 0.960 . S
C1463 H1450 0.961 . S
C1463 H1451 0.959 . S
C1463 C1461 1.561 . S
C1464 C1461 1.526 . S
C1464 C1465 1.396 . S
C1464 C1469 1.390 . S
C1465 C1459 1.465 . S
C1465 C1464 1.396 . S
C1465 C1466 1.399 . S
C1466 H1452 0.929 . S
C1466 C1465 1.399 . S
C1466 C1467 1.385 . S
C1467 H1453 0.931 . S
C1467 C1466 1.385 . S
C1467 C1468 1.389 . S
C1468 C1467 1.389 . S
C1468 C1469 1.387 . S
C1469 H1454 0.930 . S
C1469 C1464 1.390 . S
C1469 C1468 1.387 . S
H1470 C1482 0.930 . S
H1471 C1484 0.930 . S
H1472 C1485 0.930 . S
H1473 C1489 0.959 . S
H1474 C1489 0.959 . S
H1475 C1489 0.961 . S
H1476 C1490 0.960 1_455 S
H1477 C1490 0.961 . S
H1478 C1490 0.959 1_455 S
H1479 C1493 0.929 1_455 S
H1480 C1494 0.931 . S
H1481 C1496 0.930 . S
C1482 H1470 0.930 . S
C1482 C1483 1.399 1_556 S
C1482 C1487 1.399 . S
C1483 C1482 1.399 1_554 S
C1483 C1484 1.376 . S
C1484 H1471 0.930 . S
C1484 C1483 1.376 . S
C1484 C1485 1.388 . S
C1485 H1472 0.930 . S
C1485 C1484 1.388 . S
C1485 C1486 1.390 . S
C1486 C1485 1.390 . S
C1486 C1487 1.394 1_554 S
C1486 C1492 1.465 1_455 S
C1487 C1482 1.399 . S
C1487 C1486 1.394 1_556 S
C1487 C1488 1.516 1_455 S
C1488 C1487 1.516 1_655 S
C1488 C1489 1.502 . S
C1488 C1490 1.561 . S
C1488 C1491 1.526 . S
C1489 H1473 0.959 . S
C1489 H1474 0.959 . S
C1489 H1475 0.961 . S
C1489 C1488 1.502 . S
C1490 H1476 0.960 1_655 S
C1490 H1477 0.961 . S
C1490 H1478 0.959 1_655 S
C1490 C1488 1.561 . S
C1491 C1488 1.526 . S
C1491 C1492 1.396 1_556 S
C1491 C1496 1.390 . S
C1492 C1486 1.465 1_655 S
C1492 C1491 1.396 1_554 S
C1492 C1493 1.399 . S
C1493 H1479 0.929 1_655 S
C1493 C1492 1.399 . S
C1493 C1494 1.385 . S
C1494 H1480 0.931 . S
C1494 C1493 1.385 . S
C1494 C1495 1.389 . S
C1495 C1494 1.389 . S
C1495 C1496 1.387 1_554 S
C1496 H1481 0.930 . S
C1496 C1491 1.390 . S
C1496 C1495 1.387 1_556 S
H1497 C1509 0.930 . S
H1498 C1511 0.930 . S
H1499 C1512 0.930 . S
H1500 C1516 0.959 . S
H1501 C1516 0.959 . S
H1502 C1516 0.961 . S
H1503 C1517 0.960 1_455 S
H1504 C1517 0.961 . S
H1505 C1517 0.959 . S
H1506 C1520 0.929 . S
H1507 C1521 0.931 . S
H1508 C1523 0.930 . S
C1509 H1497 0.930 . S
C1509 C1510 1.399 . S
C1509 C1514 1.399 . S
C1510 C1509 1.399 . S
C1510 C1511 1.376 . S
C1511 H1498 0.930 . S
C1511 C1510 1.376 . S
C1511 C1512 1.388 . S
C1512 H1499 0.930 . S
C1512 C1511 1.388 . S
C1512 C1513 1.390 . S
C1513 C1512 1.390 . S
C1513 C1514 1.394 . S
C1513 C1519 1.465 1_455 S
C1514 C1509 1.399 . S
C1514 C1513 1.394 . S
C1514 C1515 1.516 . S
C1515 C1514 1.516 . S
C1515 C1516 1.502 . S
C1515 C1517 1.561 1_455 S
C1515 C1518 1.526 1_455 S
C1516 H1500 0.959 . S
C1516 H1501 0.959 . S
C1516 H1502 0.961 . S
C1516 C1515 1.502 . S
C1517 H1503 0.960 1_655 S
C1517 H1504 0.961 . S
C1517 H1505 0.959 . S
C1517 C1515 1.561 1_655 S
C1518 C1515 1.526 1_655 S
C1518 C1519 1.396 . S
C1518 C1523 1.390 . S
C1519 C1513 1.465 1_655 S
C1519 C1518 1.396 . S
C1519 C1520 1.399 . S
C1520 H1506 0.929 . S
C1520 C1519 1.399 . S
C1520 C1521 1.385 . S
C1521 H1507 0.931 . S
C1521 C1520 1.385 . S
C1521 C1522 1.389 . S
C1522 C1521 1.389 . S
C1522 C1523 1.387 . S
C1523 H1508 0.930 . S
C1523 C1518 1.390 . S
C1523 C1522 1.387 . S
H1524 C1536 0.930 . S
H1525 C1538 0.930 . S
H1526 C1539 0.930 . S
H1527 C1543 0.959 . S
H1528 C1543 0.959 . S
H1529 C1543 0.961 . S
H1530 C1544 0.960 . S
H1531 C1544 0.961 . S
H1532 C1544 0.959 . S
H1533 C1547 0.929 . S
H1534 C1548 0.931 . S
H1535 C1550 0.930 . S
C1536 H1524 0.930 . S
C1536 C1537 1.399 . S
C1536 C1541 1.399 . S
C1537 C1536 1.399 . S
C1537 C1538 1.376 . S
C1538 H1525 0.930 . S
C1538 C1537 1.376 . S
C1538 C1539 1.388 . S
C1539 H1526 0.930 . S
C1539 C1538 1.388 . S
C1539 C1540 1.390 . S
C1540 C1539 1.390 . S
C1540 C1541 1.394 . S
C1540 C1546 1.465 . S
C1541 C1536 1.399 . S
C1541 C1540 1.394 . S
C1541 C1542 1.516 . S
C1542 C1541 1.516 . S
C1542 C1543 1.502 . S
C1542 C1544 1.561 . S
C1542 C1545 1.526 . S
C1543 H1527 0.959 . S
C1543 H1528 0.959 . S
C1543 H1529 0.961 . S
C1543 C1542 1.502 . S
C1544 H1530 0.960 . S
C1544 H1531 0.961 . S
C1544 H1532 0.959 . S
C1544 C1542 1.561 . S
C1545 C1542 1.526 . S
C1545 C1546 1.396 . S
C1545 C1550 1.390 . S
C1546 C1540 1.465 . S
C1546 C1545 1.396 . S
C1546 C1547 1.399 . S
C1547 H1533 0.929 . S
C1547 C1546 1.399 . S
C1547 C1548 1.385 . S
C1548 H1534 0.931 . S
C1548 C1547 1.385 . S
C1548 C1549 1.389 . S
C1549 C1548 1.389 . S
C1549 C1550 1.387 . S
C1550 H1535 0.930 . S
C1550 C1545 1.390 . S
C1550 C1549 1.387 . S
H1551 C1563 0.930 . S
H1552 C1565 0.930 . S
H1553 C1566 0.930 . S
H1554 C1570 0.959 . S
H1555 C1570 0.959 . S
H1556 C1570 0.961 . S
H1557 C1571 0.960 . S
H1558 C1571 0.961 . S
H1559 C1571 0.959 . S
H1560 C1574 0.929 . S
H1561 C1575 0.931 . S
H1562 C1577 0.930 . S
C1563 H1551 0.930 . S
C1563 C1564 1.399 . S
C1563 C1568 1.399 . S
C1564 C1563 1.399 . S
C1564 C1565 1.376 . S
C1565 H1552 0.930 . S
C1565 C1564 1.376 . S
C1565 C1566 1.388 . S
C1566 H1553 0.930 . S
C1566 C1565 1.388 . S
C1566 C1567 1.390 . S
C1567 C1566 1.390 . S
C1567 C1568 1.394 . S
C1567 C1573 1.465 . S
C1568 C1563 1.399 . S
C1568 C1567 1.394 . S
C1568 C1569 1.516 . S
C1569 C1568 1.516 . S
C1569 C1570 1.502 . S
C1569 C1571 1.561 . S
C1569 C1572 1.526 . S
C1570 H1554 0.959 . S
C1570 H1555 0.959 . S
C1570 H1556 0.961 . S
C1570 C1569 1.502 . S
C1571 H1557 0.960 . S
C1571 H1558 0.961 . S
C1571 H1559 0.959 . S
C1571 C1569 1.561 . S
C1572 C1569 1.526 . S
C1572 C1573 1.396 . S
C1572 C1577 1.390 . S
C1573 C1567 1.465 . S
C1573 C1572 1.396 . S
C1573 C1574 1.399 . S
C1574 H1560 0.929 . S
C1574 C1573 1.399 . S
C1574 C1575 1.385 . S
C1575 H1561 0.931 . S
C1575 C1574 1.385 . S
C1575 C1576 1.389 . S
C1576 C1575 1.389 . S
C1576 C1577 1.387 . S
C1577 H1562 0.930 . S
C1577 C1572 1.390 . S
C1577 C1576 1.387 . S
H1578 C1590 0.930 . S
H1579 C1592 0.930 . S
H1580 C1593 0.930 . S
H1581 C1597 0.959 . S
H1582 C1597 0.959 . S
H1583 C1597 0.961 . S
H1584 C1598 0.960 . S
H1585 C1598 0.961 . S
H1586 C1598 0.959 . S
H1587 C1601 0.929 . S
H1588 C1602 0.931 . S
H1589 C1604 0.930 . S
C1590 H1578 0.930 . S
C1590 C1591 1.399 . S
C1590 C1595 1.399 . S
C1591 C1590 1.399 . S
C1591 C1592 1.376 . S
C1592 H1579 0.930 . S
C1592 C1591 1.376 . S
C1592 C1593 1.388 . S
C1593 H1580 0.930 . S
C1593 C1592 1.388 . S
C1593 C1594 1.390 . S
C1594 C1593 1.390 . S
C1594 C1595 1.394 . S
C1594 C1600 1.465 1_565 S
C1595 C1590 1.399 . S
C1595 C1594 1.394 . S
C1595 C1596 1.516 1_565 S
C1596 C1595 1.516 1_545 S
C1596 C1597 1.502 . S
C1596 C1598 1.561 1_545 S
C1596 C1599 1.526 . S
C1597 H1581 0.959 . S
C1597 H1582 0.959 . S
C1597 H1583 0.961 . S
C1597 C1596 1.502 . S
C1598 H1584 0.960 . S
C1598 H1585 0.961 . S
C1598 H1586 0.959 . S
C1598 C1596 1.561 1_565 S
C1599 C1596 1.526 . S
C1599 C1600 1.396 . S
C1599 C1604 1.390 . S
C1600 C1594 1.465 1_545 S
C1600 C1599 1.396 . S
C1600 C1601 1.399 . S
C1601 H1587 0.929 . S
C1601 C1600 1.399 . S
C1601 C1602 1.385 . S
C1602 H1588 0.931 . S
C1602 C1601 1.385 . S
C1602 C1603 1.389 . S
C1603 C1602 1.389 . S
C1603 C1604 1.387 . S
C1604 H1589 0.930 . S
C1604 C1599 1.390 . S
C1604 C1603 1.387 . S
H1605 C1617 0.930 . S
H1606 C1619 0.930 . S
H1607 C1620 0.930 . S
H1608 C1624 0.959 . S
H1609 C1624 0.959 . S
H1610 C1624 0.961 . S
H1611 C1625 0.960 . S
H1612 C1625 0.961 . S
H1613 C1625 0.959 . S
H1614 C1628 0.929 . S
H1615 C1629 0.931 . S
H1616 C1631 0.930 . S
C1617 H1605 0.930 . S
C1617 C1618 1.399 . S
C1617 C1622 1.399 . S
C1618 C1617 1.399 . S
C1618 C1619 1.376 1_556 S
C1619 H1606 0.930 . S
C1619 C1618 1.376 1_554 S
C1619 C1620 1.388 . S
C1620 H1607 0.930 . S
C1620 C1619 1.388 . S
C1620 C1621 1.390 . S
C1621 C1620 1.390 . S
C1621 C1622 1.394 1_554 S
C1621 C1627 1.465 . S
C1622 C1617 1.399 . S
C1622 C1621 1.394 1_556 S
C1622 C1623 1.516 . S
C1623 C1622 1.516 . S
C1623 C1624 1.502 . S
C1623 C1625 1.561 . S
C1623 C1626 1.526 . S
C1624 H1608 0.959 . S
C1624 H1609 0.959 . S
C1624 H1610 0.961 . S
C1624 C1623 1.502 . S
C1625 H1611 0.960 . S
C1625 H1612 0.961 . S
C1625 H1613 0.959 . S
C1625 C1623 1.561 . S
C1626 C1623 1.526 . S
C1626 C1627 1.396 1_556 S
C1626 C1631 1.390 . S
C1627 C1621 1.465 . S
C1627 C1626 1.396 1_554 S
C1627 C1628 1.399 . S
C1628 H1614 0.929 . S
C1628 C1627 1.399 . S
C1628 C1629 1.385 . S
C1629 H1615 0.931 . S
C1629 C1628 1.385 . S
C1629 C1630 1.389 1_554 S
C1630 C1629 1.389 1_556 S
C1630 C1631 1.387 . S
C1631 H1616 0.930 . S
C1631 C1626 1.390 . S
C1631 C1630 1.387 . S
C349 C246 0.586 . S
C361 C7 0.697 . S
C376 C21 0.610 . S
C388 C232 0.654 . S
C403 C35 0.626 . S
C415 C274 0.665 . S
C430 C49 0.751 . S
C442 C260 0.787 . S
C457 C63 0.676 . S
C469 C302 0.832 . S
C484 C77 0.715 . S
C496 C316 0.829 . S
C511 C288 0.579 . S
C523 C91 0.653 . S
C538 C162 0.592 . S
C550 C105 0.713 . S
C565 C119 0.735 . S
C577 C50 0.662 . S
C592 C22 0.721 . S
C604 C133 0.748 . S
C619 C147 0.693 . S
C631 C8 0.845 . S
C646 C161 0.648 . S
C658 C204 0.818 . S
C673 C78 0.828 . S
C685 C175 0.669 . S
C700 C64 0.774 . S
C712 C189 0.643 . S
C727 C203 0.751 . S
C739 C106 0.752 . S
C754 C217 0.659 . S
C766 C92 0.829 . S
C781 C134 0.601 . S
C793 C231 0.728 . S
C808 C148 0.815 . S
C820 C245 0.736 . S
C835 C120 0.839 . S
C847 C259 0.730 . S
C862 C273 0.751 . S
C874 C330 0.786 . S
C889 C218 0.678 . S
C901 C287 0.649 . S
C916 C301 0.625 . S
C928 C190 0.747 . S
C943 C176 0.735 . S
C955 C315 0.738 . S
C970 C329 0.758 . S
C982 C36 0.749 . S
C997 C11 1.570 . S
C1009 C25 1.609 . S
C1024 C53 1.552 . S
C1036 C39 1.576 . S
C1051 C67 1.596 . S
C1063 C95 1.554 . S
C1078 C81 1.630 . S
C1090 C109 1.584 . S
C1105 C319 1.579 . S
C1117 C123 1.602 . S
C1132 C137 1.597 . S
C1144 C165 1.620 . S
C1159 C291 1.578 . S
C1171 C151 1.616 . S
C1186 C193 1.570 . S
C1198 C179 1.620 . S
C1213 C207 1.617 . S
C1225 C221 1.572 . S
C1240 C263 1.626 . S
C1252 C235 1.552 . S
C1267 C249 1.538 . S
C1279 C277 1.596 . S
C1294 C333 1.588 . S
C1306 C305 1.543 . S
C1321 C41 1.201 . S
C1333 C13 1.210 . S
C1348 C27 1.171 . S
C1360 C55 1.269 . S
C1375 C279 1.157 . S
C1387 C69 1.251 . S
C1402 C83 1.263 . S
C1414 C265 1.156 . S
C1429 C97 1.277 . S
C1441 C251 1.165 . S
C1456 C237 1.256 . S
C1468 C111 1.198 . S
C1483 C125 1.269 . S
C1495 C335 1.137 . S
C1510 C139 1.160 . S
C1522 C153 1.260 . S
C1537 C293 1.224 . S
C1549 C167 1.234 . S
C1564 C181 1.295 . S
C1576 C209 1.161 . S
C1591 C195 1.247 . S
C1603 C223 1.173 . S
C1618 C321 1.173 . S
C1630 C307 1.270 . S
