# Generated by pormake.
# Topology crs, (6)-cn, num edge types: 1
# Building blocks:
#     Node 0, Type 0, BuildingBlock: INOVEN_clean_sbu_0, # of connection points: 6
#     Node 1, Type 0, BuildingBlock: INOVEN_clean_sbu_0, # of connection points: 6
#     Node 2, Type 0, BuildingBlock: INOVEN_clean_sbu_0, # of connection points: 6
#     Node 3, Type 0, BuildingBlock: INOVEN_clean_sbu_0, # of connection points: 6
#     Node 4, Type 0, BuildingBlock: INOVEN_clean_sbu_0, # of connection points: 6
#     Node 5, Type 0, BuildingBlock: INOVEN_clean_sbu_0, # of connection points: 6
#     Node 6, Type 0, BuildingBlock: INOVEN_clean_sbu_0, # of connection points: 6
#     Node 7, Type 0, BuildingBlock: INOVEN_clean_sbu_0, # of connection points: 6
#     Node 8, Type 0, BuildingBlock: INOVEN_clean_sbu_0, # of connection points: 6
#     Node 9, Type 0, BuildingBlock: INOVEN_clean_sbu_0, # of connection points: 6
#     Node 10, Type 0, BuildingBlock: INOVEN_clean_sbu_0, # of connection points: 6
#     Node 11, Type 0, BuildingBlock: INOVEN_clean_sbu_0, # of connection points: 6
#     Node 12, Type 0, BuildingBlock: INOVEN_clean_sbu_0, # of connection points: 6
#     Node 13, Type 0, BuildingBlock: INOVEN_clean_sbu_0, # of connection points: 6
#     Node 14, Type 0, BuildingBlock: INOVEN_clean_sbu_0, # of connection points: 6
#     Node 15, Type 0, BuildingBlock: INOVEN_clean_sbu_0, # of connection points: 6
#     Edge 16, Type (0, 0), BuildingBlock: TEMPAE_clean_linker_10, # of connection points: 2
#     Edge 17, Type (0, 0), BuildingBlock: TEMPAE_clean_linker_10, # of connection points: 2
#     Edge 18, Type (0, 0), BuildingBlock: TEMPAE_clean_linker_10, # of connection points: 2
#     Edge 19, Type (0, 0), BuildingBlock: TEMPAE_clean_linker_10, # of connection points: 2
#     Edge 20, Type (0, 0), BuildingBlock: TEMPAE_clean_linker_10, # of connection points: 2
#     Edge 21, Type (0, 0), BuildingBlock: TEMPAE_clean_linker_10, # of connection points: 2
#     Edge 22, Type (0, 0), BuildingBlock: TEMPAE_clean_linker_10, # of connection points: 2
#     Edge 23, Type (0, 0), BuildingBlock: TEMPAE_clean_linker_10, # of connection points: 2
#     Edge 24, Type (0, 0), BuildingBlock: TEMPAE_clean_linker_10, # of connection points: 2
#     Edge 25, Type (0, 0), BuildingBlock: TEMPAE_clean_linker_10, # of connection points: 2
#     Edge 26, Type (0, 0), BuildingBlock: TEMPAE_clean_linker_10, # of connection points: 2
#     Edge 27, Type (0, 0), BuildingBlock: TEMPAE_clean_linker_10, # of connection points: 2
#     Edge 28, Type (0, 0), BuildingBlock: TEMPAE_clean_linker_10, # of connection points: 2
#     Edge 29, Type (0, 0), BuildingBlock: TEMPAE_clean_linker_10, # of connection points: 2
#     Edge 30, Type (0, 0), BuildingBlock: TEMPAE_clean_linker_10, # of connection points: 2
#     Edge 31, Type (0, 0), BuildingBlock: TEMPAE_clean_linker_10, # of connection points: 2
#     Edge 32, Type (0, 0), BuildingBlock: TEMPAE_clean_linker_10, # of connection points: 2
#     Edge 33, Type (0, 0), BuildingBlock: TEMPAE_clean_linker_10, # of connection points: 2
#     Edge 34, Type (0, 0), BuildingBlock: TEMPAE_clean_linker_10, # of connection points: 2
#     Edge 35, Type (0, 0), BuildingBlock: TEMPAE_clean_linker_10, # of connection points: 2
#     Edge 36, Type (0, 0), BuildingBlock: TEMPAE_clean_linker_10, # of connection points: 2
#     Edge 37, Type (0, 0), BuildingBlock: TEMPAE_clean_linker_10, # of connection points: 2
#     Edge 38, Type (0, 0), BuildingBlock: TEMPAE_clean_linker_10, # of connection points: 2
#     Edge 39, Type (0, 0), BuildingBlock: TEMPAE_clean_linker_10, # of connection points: 2
#     Edge 40, Type (0, 0), BuildingBlock: TEMPAE_clean_linker_10, # of connection points: 2
#     Edge 41, Type (0, 0), BuildingBlock: TEMPAE_clean_linker_10, # of connection points: 2
#     Edge 42, Type (0, 0), BuildingBlock: TEMPAE_clean_linker_10, # of connection points: 2
#     Edge 43, Type (0, 0), BuildingBlock: TEMPAE_clean_linker_10, # of connection points: 2
#     Edge 44, Type (0, 0), BuildingBlock: TEMPAE_clean_linker_10, # of connection points: 2
#     Edge 45, Type (0, 0), BuildingBlock: TEMPAE_clean_linker_10, # of connection points: 2
#     Edge 46, Type (0, 0), BuildingBlock: TEMPAE_clean_linker_10, # of connection points: 2
#     Edge 47, Type (0, 0), BuildingBlock: TEMPAE_clean_linker_10, # of connection points: 2
#     Edge 48, Type (0, 0), BuildingBlock: TEMPAE_clean_linker_10, # of connection points: 2
#     Edge 49, Type (0, 0), BuildingBlock: TEMPAE_clean_linker_10, # of connection points: 2
#     Edge 50, Type (0, 0), BuildingBlock: TEMPAE_clean_linker_10, # of connection points: 2
#     Edge 51, Type (0, 0), BuildingBlock: TEMPAE_clean_linker_10, # of connection points: 2
#     Edge 52, Type (0, 0), BuildingBlock: TEMPAE_clean_linker_10, # of connection points: 2
#     Edge 53, Type (0, 0), BuildingBlock: TEMPAE_clean_linker_10, # of connection points: 2
#     Edge 54, Type (0, 0), BuildingBlock: TEMPAE_clean_linker_10, # of connection points: 2
#     Edge 55, Type (0, 0), BuildingBlock: TEMPAE_clean_linker_10, # of connection points: 2
#     Edge 56, Type (0, 0), BuildingBlock: TEMPAE_clean_linker_10, # of connection points: 2
#     Edge 57, Type (0, 0), BuildingBlock: TEMPAE_clean_linker_10, # of connection points: 2
#     Edge 58, Type (0, 0), BuildingBlock: TEMPAE_clean_linker_10, # of connection points: 2
#     Edge 59, Type (0, 0), BuildingBlock: TEMPAE_clean_linker_10, # of connection points: 2
#     Edge 60, Type (0, 0), BuildingBlock: TEMPAE_clean_linker_10, # of connection points: 2
#     Edge 61, Type (0, 0), BuildingBlock: TEMPAE_clean_linker_10, # of connection points: 2
#     Edge 62, Type (0, 0), BuildingBlock: TEMPAE_clean_linker_10, # of connection points: 2
#     Edge 63, Type (0, 0), BuildingBlock: TEMPAE_clean_linker_10, # of connection points: 2
# Relax obj value: 0.416
# Max RMSD: 0.349
# Mean RMSD: 0.290
data_MOF--net-crs--node1-INOVEN_clean_sbu_0--edge1-TEMPAE_clean_linker_10
_symmetry_space_group_name_H-M    P1
_symmetry_Int_Tables_number       1
_symmetry_cell_setting            triclinic
loop_
_symmetry_equiv_pos_as_xyz
'x, y, z'
_cell_length_a     54.946528
_cell_length_b     55.919698
_cell_length_c     45.635299
_cell_angle_alpha  73.433313
_cell_angle_beta   75.643855
_cell_angle_gamma 63.790536
loop_
_atom_site_label
_atom_site_type_symbol
_atom_site_fract_x
_atom_site_fract_y
_atom_site_fract_z
_atom_type_partial_charge
Gd0 Gd 0.95481 1.00479 0.0662 0.0
Gd1 Gd 0.00986 0.99871 0.02639 0.0
C2 C -0.01022 0.95209 0.0335 0.0
C3 C 0.90708 1.00491 0.08911 0.0
C4 C 0.89328 0.9894 0.08398 0.0
C5 C 0.90453 0.96075 0.09165 0.0
C6 C 0.87076 1.00304 0.06763 0.0
C7 C 0.87363 0.95981 0.06289 0.0
C8 C 0.86098 0.98827 0.05716 0.0
C9 C 0.89464 0.94606 0.08122 0.0
C10 C -0.0043 0.99095 0.09859 0.0
C11 C 0.97225 0.0531 0.05583 0.0
C12 C 0.05888 0.99607 1.00462 0.0
C13 C 0.07684 1.00461 1.01421 0.0
C14 C 0.10503 0.99455 1.00376 0.0
C15 C 0.06576 0.02276 0.03439 0.0
C16 C 0.11049 0.02212 0.03242 0.0
C17 C 0.08227 0.0318 0.04297 0.0
C18 C 0.12184 1.00313 1.01298 0.0
C19 C 0.96842 0.01501 0.99413 0.0
O20 O 0.96575 0.96828 0.0458 0.0
O21 O 0.01166 0.95768 0.02776 0.0
O22 O 0.92841 0.99077 0.10378 0.0
O23 O 0.91106 0.02309 0.06519 0.0
O24 O 0.97026 1.00587 0.1067 0.0
O25 O -0.00189 0.9821 0.07491 0.0
O26 O -0.00297 0.03593 0.04636 0.0
O27 O 0.95062 0.04723 0.06089 0.0
O28 O 0.03694 0.01582 0.99399 0.0
O29 O 0.05378 0.97596 0.02388 0.0
O30 O -0.00641 0.99988 0.98519 0.0
O31 O 0.96681 0.02263 1.01826 0.0
H32 H 0.92182 0.94958 0.10438 0.0
H33 H 0.86165 0.02507 0.06161 0.0
H34 H 0.84419 0.99903 0.04366 0.0
H35 H 0.90411 0.92405 0.0864 0.0
H36 H 0.11396 0.98028 0.98837 0.0
H37 H 0.04431 0.03002 0.04349 0.0
H38 H 0.07289 0.0465 0.05776 0.0
H39 H 0.1435 0.99559 1.00413 0.0
Gd40 Gd 0.00599 0.27587 0.29041 0.0
Gd41 Gd -0.00849 0.23565 0.26806 0.0
C42 C 0.96217 0.25121 0.33333 0.0
C43 C 0.00926 0.3101 0.3155 0.0
C44 C -0.00453 0.32596 0.34023 0.0
C45 C 0.00895 0.31912 0.36571 0.0
C46 C 0.97025 0.34858 0.33822 0.0
C47 C 0.973 0.35776 0.38623 0.0
C48 C 0.95913 0.36437 0.36102 0.0
C49 C -0.00215 0.33473 0.38845 0.0
C50 C 0.04405 0.22417 0.29237 0.0
C51 C 0.0305 0.26552 0.22209 0.0
C52 C -0.00541 0.19257 0.25464 0.0
C53 C -0.00877 0.18368 0.22907 0.0
C54 C 0.96859 0.19878 0.21292 0.0
C55 C 0.01077 0.159 0.2214 0.0
C56 C 0.98429 0.16351 0.18313 0.0
C57 C 0.00741 0.14904 0.1986 0.0
C58 C 0.96514 0.18874 0.19012 0.0
C59 C 0.95499 0.28843 0.2523 0.0
O60 O 0.96964 0.272 0.32486 0.0
O61 O 0.9724 0.23145 0.31774 0.0
O62 O 0.02076 0.28364 0.32474 0.0
O63 O -0.00217 0.31761 0.29043 0.0
O64 O 0.04975 0.24547 0.2847 0.0
O65 O 0.01848 0.23103 0.29971 0.0
O66 O 0.02347 0.24443 0.22996 0.0
O67 O 0.02211 0.28372 0.23972 0.0
O68 O 0.97238 0.20893 0.26913 0.0
O69 O 0.01581 0.19873 0.25029 0.0
O70 O 0.95413 0.26796 0.24514 0.0
O71 O 0.97558 0.27921 0.26567 0.0
H72 H 0.02858 0.302 0.36767 0.0
H73 H 0.95941 0.35438 0.31881 0.0
H74 H 0.93988 0.38194 0.35873 0.0
H75 H 0.00937 0.32935 0.40716 0.0
H76 H 0.95332 0.21802 0.21831 0.0
H77 H 0.02848 0.14718 0.23343 0.0
H78 H 0.0228 0.12981 0.19331 0.0
H79 H 0.94707 0.20029 0.1787 0.0
Gd80 Gd 0.74068 0.24071 0.50039 0.0
Gd81 Gd 0.74334 0.27374 0.53836 0.0
C82 C 0.68833 0.26553 0.55044 0.0
C83 C 0.73705 0.20447 0.47926 0.0
C84 C 0.72853 0.18176 0.49205 0.0
C85 C 0.74195 0.15862 0.47892 0.0
C86 C 0.70821 0.18227 0.51784 0.0
C87 C 0.71379 0.13711 0.51601 0.0
C88 C 0.70073 0.16011 0.52963 0.0
C89 C 0.73469 0.13643 0.49083 0.0
C90 C 0.73556 0.29147 0.46782 0.0
C91 C 0.79554 0.24948 0.48777 0.0
C92 C 0.74627 0.3103 0.55972 0.0
C93 C 0.75099 0.33526 0.54667 0.0
C94 C 0.74081 0.35518 0.56445 0.0
C95 C 0.7634 0.34043 0.51606 0.0
C96 C 0.75576 0.38537 0.52145 0.0
C97 C 0.76599 0.36528 0.50361 0.0
C98 C 0.74317 0.38 0.55201 0.0
C99 C 0.74889 0.22267 0.57074 0.0
O100 O 0.70215 0.2457 0.53502 0.0
O101 O 0.69866 0.28259 0.55091 0.0
O102 O 0.71786 0.2291 0.47858 0.0
O103 O 0.7593 0.20121 0.48825 0.0
O104 O 0.74646 0.26979 0.45634 0.0
O105 O 0.72505 0.28601 0.49563 0.0
O106 O 0.78181 0.26899 0.5037 0.0
O107 O 0.78518 0.2326 0.48671 0.0
O108 O 0.76704 0.28719 0.55656 0.0
O109 O 0.72346 0.31156 0.55432 0.0
O110 O 0.73836 0.24416 0.58252 0.0
O111 O 0.75912 0.22849 0.54294 0.0
H112 H 0.75792 0.15781 0.45926 0.0
H113 H 0.69801 0.19979 0.52867 0.0
H114 H 0.68466 0.16099 0.54916 0.0
H115 H 0.74481 0.11909 0.47967 0.0
H116 H 0.7309 0.35157 0.588 0.0
H117 H 0.77091 0.32538 0.50181 0.0
H118 H 0.77593 0.3688 0.48013 0.0
H119 H 0.73568 0.39477 0.56662 0.0
Gd120 Gd 0.72482 1.00168 0.75647 0.0
Gd121 Gd 0.75599 0.01577 0.78691 0.0
C122 C 0.7502 0.0468 0.71798 0.0
C123 C 0.6919 0.99945 0.7263 0.0
C124 C 0.68146 0.98111 0.72052 0.0
C125 C 0.65447 0.98371 0.73273 0.0
C126 C 0.69665 0.96378 0.69945 0.0
C127 C 0.65691 0.95493 0.69993 0.0
C128 C 0.68451 0.95081 0.68932 0.0
C129 C 0.64237 0.97065 0.72266 0.0
C130 C 0.77665 0.96312 0.76023 0.0
C131 C 0.73358 0.9685 0.82468 0.0
C132 C 0.78505 0.02073 0.81928 0.0
C133 C 0.80104 0.02368 0.83865 0.0
C134 C 0.78966 0.02771 0.86891 0.0
C135 C 0.82719 0.02365 0.8268 0.0
C136 C 0.83016 0.03199 0.87511 0.0
C137 C 0.8416 0.02782 0.84485 0.0
C138 C 0.80408 0.03177 0.88696 0.0
C139 C 0.70455 0.05454 0.78147 0.0
O140 O 0.73024 0.03845 0.72208 0.0
O141 O 0.76689 0.03709 0.73888 0.0
O142 O 0.68412 1.0063 0.75333 0.0
O143 O 0.71729 0.99609 0.71508 0.0
O144 O 0.75531 0.9581 0.76272 0.0
O145 O 0.77014 0.98858 0.75379 0.0
O146 O 0.75257 0.97807 0.82073 0.0
O147 O 0.7167 0.97776 0.80404 0.0
O148 O 0.7593 0.0247 0.82838 0.0
O149 O 0.79541 0.01338 0.79254 0.0
O150 O 0.72611 0.0594 0.77771 0.0
O151 O 0.7107 0.02914 0.78922 0.0
H152 H 0.64215 0.99711 0.74875 0.0
H153 H 0.71747 0.96132 0.68951 0.0
H154 H 0.69628 0.93868 0.67192 0.0
H155 H 0.62097 0.97453 0.731 0.0
H156 H 0.7695 0.0279 0.87864 0.0
H157 H 0.83641 0.02065 0.80352 0.0
H158 H 0.86185 0.02745 0.83527 0.0
H159 H 0.79465 0.03507 0.91011 0.0
Gd160 Gd 0.50345 0.76785 0.28586 0.0
Gd161 Gd 0.48664 0.73616 0.25873 0.0
C162 C 0.45927 0.74418 0.3257 0.0
C163 C 0.51002 0.79753 0.31516 0.0
C164 C 0.49772 0.81258 0.3406 0.0
C165 C 0.49261 0.79936 0.37125 0.0
C166 C 0.4948 0.83964 0.33475 0.0
C167 C 0.48537 0.83898 0.38993 0.0
C168 C 0.48863 0.85275 0.35914 0.0
C169 C 0.48655 0.81245 0.3957 0.0
C170 C 0.53966 0.71553 0.28733 0.0
C171 C 0.53006 0.76212 0.21714 0.0
C172 C 0.48412 0.70179 0.23277 0.0
C173 C 0.48064 0.69876 0.20303 0.0
C174 C 0.45438 0.70639 0.19592 0.0
C175 C 0.50371 0.6855 0.18296 0.0
C176 C 0.47436 0.68575 0.1506 0.0
C177 C 0.5006 0.67917 0.15698 0.0
C178 C 0.45128 0.70004 0.16991 0.0
C179 C 0.45081 0.78907 0.25404 0.0
O180 O 0.46559 0.76556 0.31783 0.0
O181 O 0.47077 0.72526 0.30889 0.0
O182 O 0.51922 0.77101 0.32271 0.0
O183 O 0.49875 0.80765 0.28986 0.0
O184 O 0.54628 0.73609 0.28123 0.0
O185 O 0.51388 0.72316 0.2934 0.0
O186 O 0.51997 0.74365 0.22166 0.0
O187 O 0.52358 0.77748 0.23743 0.0
O188 O 0.46292 0.71808 0.24825 0.0
O189 O 0.50703 0.70295 0.23414 0.0
O190 O 0.44412 0.76911 0.25634 0.0
O191 O 0.47659 0.78073 0.25065 0.0
H192 H 0.49458 0.77849 0.37648 0.0
H193 H 0.4988 0.85018 0.31136 0.0
H194 H 0.48813 0.8731 0.35387 0.0
H195 H 0.48376 0.80146 0.41915 0.0
H196 H 0.43617 0.71637 0.21105 0.0
H197 H 0.52422 0.67915 0.18788 0.0
H198 H 0.51879 0.66842 0.14233 0.0
H199 H 0.4308 0.70513 0.16583 0.0
Gd200 Gd 0.23496 0.7467 0.50109 0.0
Gd201 Gd 0.25229 0.76951 0.54703 0.0
C202 C 0.19104 0.77026 0.55905 0.0
C203 C 0.22836 0.71458 0.47622 0.0
C204 C 0.21622 0.69461 0.48498 0.0
C205 C 0.21555 0.68292 0.46208 0.0
C206 C 0.20406 0.68819 0.51539 0.0
C207 C 0.18899 0.65974 0.4993 0.0
C208 C 0.19064 0.67062 0.52259 0.0
C209 C 0.20201 0.6656 0.46916 0.0
C210 C 0.23337 0.79826 0.47549 0.0
C211 C 0.29604 0.74627 0.48869 0.0
C212 C 0.25718 0.80305 0.57123 0.0
C213 C 0.26535 0.82597 0.56118 0.0
C214 C 0.25749 0.84385 0.58107 0.0
C215 C 0.28064 0.83034 0.53212 0.0
C216 C 0.28217 0.8692 0.54418 0.0
C217 C 0.28904 0.8519 0.52364 0.0
C218 C 0.26578 0.86536 0.57263 0.0
C219 C 0.25421 0.7179 0.57278 0.0
O220 O 0.19765 0.75583 0.53756 0.0
O221 O 0.20741 0.78 0.56389 0.0
O222 O 0.21089 0.73992 0.47605 0.0
O223 O 0.25051 0.70777 0.48815 0.0
O224 O 0.22737 0.78435 0.46209 0.0
O225 O 0.23842 0.78401 0.50193 0.0
O226 O 0.28923 0.76093 0.51002 0.0
O227 O 0.27989 0.73612 0.48411 0.0
O228 O 0.27672 0.77894 0.56882 0.0
O229 O 0.23424 0.80741 0.56267 0.0
O230 O 0.2607 0.73171 0.58583 0.0
O231 O 0.24867 0.73217 0.54645 0.0
H232 H 0.22493 0.68772 0.43854 0.0
H233 H 0.20436 0.69728 0.53326 0.0
H234 H 0.18069 0.66638 0.54596 0.0
H235 H 0.20128 0.65714 0.45094 0.0
H236 H 0.24531 0.84091 0.60337 0.0
H237 H 0.28648 0.81683 0.51633 0.0
H238 H 0.30171 0.85441 0.50162 0.0
H239 H 0.25988 0.87868 0.58866 0.0
Gd240 Gd 0.21605 0.49762 0.74348 0.0
Gd241 Gd 0.25644 0.50449 0.77605 0.0
C242 C 0.24037 0.54456 0.7109 0.0
C243 C 0.17745 0.50268 0.71721 0.0
C244 C 0.15503 0.50566 0.70232 0.0
C245 C 0.16029 0.50059 0.67247 0.0
C246 C 0.12817 0.51325 0.71809 0.0
C247 C 0.11239 0.50923 0.6751 0.0
C248 C 0.10705 0.51506 0.7046 0.0
C249 C 0.13917 0.50238 0.65898 0.0
C250 C 0.26819 0.45904 0.74005 0.0
C251 C 0.23022 0.45944 0.80953 0.0
C252 C 0.29899 0.49857 0.79638 0.0
C253 C 0.30716 0.51029 0.81554 0.0
C254 C 0.32188 0.52666 0.80127 0.0
C255 C 0.30263 0.50339 0.84798 0.0
C256 C 0.32867 0.52788 0.85138 0.0
C257 C 0.31328 0.51213 0.86572 0.0
C258 C 0.33244 0.53544 0.81899 0.0
C259 C 0.20346 0.54074 0.78938 0.0
O260 O 0.22026 0.53652 0.71408 0.0
O261 O 0.25929 0.53236 0.72963 0.0
O262 O 0.20229 0.49843 0.70238 0.0
O263 O 0.1738 0.50401 0.74635 0.0
O264 O 0.24688 0.45492 0.73951 0.0
O265 O 0.26122 0.48397 0.7391 0.0
O266 O 0.25159 0.4659 0.80464 0.0
O267 O 0.21071 0.47242 0.79147 0.0
O268 O 0.29213 0.51347 0.76944 0.0
O269 O 0.28379 0.48486 0.81046 0.0
O270 O 0.22411 0.53909 0.8 0.0
O271 O 0.21271 0.52238 0.77414 0.0
H272 H 0.18081 0.49476 0.65974 0.0
H273 H 0.12346 0.51761 0.74098 0.0
H274 H 0.08653 0.52096 0.71733 0.0
H275 H 0.14398 0.49765 0.63626 0.0
H276 H 0.32603 0.53194 0.77633 0.0
H277 H 0.29152 0.49063 0.85972 0.0
H278 H 0.31 0.50608 0.89062 0.0
H279 H 0.34466 0.54711 0.80723 0.0
Gd280 Gd 0.92154 0.53955 0.54301 0.0
Gd281 Gd 0.98167 0.52412 0.51187 0.0
C282 C 0.95433 0.48439 0.51434 0.0
C283 C 0.87055 0.54769 0.55948 0.0
C284 C 0.85364 0.53612 0.55275 0.0
C285 C 0.82809 0.55324 0.54288 0.0
C286 C 0.86344 0.50796 0.55485 0.0
C287 C 0.82226 0.51407 0.53776 0.0
C288 C 0.84785 0.49706 0.54759 0.0
C289 C 0.81254 0.5423 0.53519 0.0
C290 C 0.95922 0.51909 0.5817 0.0
C291 C 0.94773 0.58118 0.53681 0.0
C292 C 0.03326 0.51387 0.49774 0.0
C293 C 0.05019 0.52698 0.50068 0.0
C294 C 0.03864 0.55488 0.50083 0.0
C295 C 0.07788 0.51159 0.50386 0.0
C296 C 0.08241 0.55198 0.50744 0.0
C297 C 0.09395 0.52401 0.50713 0.0
C298 C 0.05461 0.56729 0.50413 0.0
C299 C 0.94452 0.5464 0.47247 0.0
O300 O 0.93052 0.50408 0.52158 0.0
O301 O 0.97789 0.48549 0.51422 0.0
O302 O 0.88962 0.53092 0.57672 0.0
O303 O 0.87903 0.56337 0.53606 0.0
O304 O 0.93484 0.53766 0.58662 0.0
O305 O 0.96176 0.51091 0.55756 0.0
O306 O 0.97168 0.56158 0.52978 0.0
O307 O 0.92425 0.57915 0.53887 0.0
O308 O 0.01567 0.52804 0.47812 0.0
O309 O 0.02289 0.50214 0.52371 0.0
O310 O 0.96897 0.52805 0.46704 0.0
O311 O 0.94166 0.55332 0.49755 0.0
H312 H 0.82031 0.57505 0.54087 0.0
H313 H 0.88326 0.49428 0.56194 0.0
H314 H 0.85602 0.47527 0.54925 0.0
H315 H 0.79288 0.55578 0.5276 0.0
H316 H 0.0173 0.56714 0.49827 0.0
H317 H 0.087 0.48997 0.50402 0.0
H318 H 0.1152 0.51162 0.51014 0.0
H319 H 0.0452 0.58892 0.50387 0.0
Gd320 Gd 0.23681 0.23595 0.99802 0.0
Gd321 Gd 0.24645 0.27185 0.036 0.0
C322 C 0.18979 0.26256 0.05293 0.0
C323 C 0.23896 0.19391 0.98355 0.0
C324 C 0.23331 0.1697 0.9991 0.0
C325 C 0.24969 0.14523 0.98906 0.0
C326 C 0.21144 0.17082 0.02312 0.0
C327 C 0.22013 0.12408 0.02387 0.0
C328 C 0.20482 0.14816 0.03536 0.0
C329 C 0.24326 0.12253 1.00145 0.0
C330 C 0.22761 0.28791 0.96499 0.0
C331 C 0.29362 0.24566 0.98119 0.0
C332 C 0.24548 0.31358 0.04996 0.0
C333 C 0.25221 0.33714 0.03379 0.0
C334 C 0.27724 0.33405 1.01455 0.0
C335 C 0.23338 0.36318 0.03811 0.0
C336 C 0.26581 0.38248 1.0072 0.0
C337 C 0.24 0.38569 0.02476 0.0
C338 C 0.28406 0.3565 1.00152 0.0
C339 C 0.25443 0.21989 0.06895 0.0
O340 O 0.19928 0.24474 0.03456 0.0
O341 O 0.20287 0.27715 0.05434 0.0
O342 O 0.21764 0.21738 0.9808 0.0
O343 O 0.26014 0.19478 0.99088 0.0
O344 O 0.22476 0.26965 0.95531 0.0
O345 O 0.23362 0.27734 0.99201 0.0
O346 O 0.28438 0.26263 1.00047 0.0
O347 O 0.28014 0.23185 0.97849 0.0
O348 O 0.26609 0.28961 0.05379 0.0
O349 O 0.22406 0.31329 0.04243 0.0
O350 O 0.25647 0.23815 0.07952 0.0
O351 O 0.24987 0.23063 0.04151 0.0
H352 H 0.26696 0.14392 0.97093 0.0
H353 H 0.19888 0.18945 0.03161 0.0
H354 H 0.18684 0.15003 0.05253 0.0
H355 H 0.25571 0.10409 0.99257 0.0
H356 H 0.29194 0.31419 1.01039 0.0
H357 H 0.21373 0.36602 0.05241 0.0
H358 H 0.22522 0.40549 0.029 0.0
H359 H 0.30421 0.35317 0.98839 0.0
Gd360 Gd 0.23316 1.00034 0.26446 0.0
Gd361 Gd 0.26671 0.01582 0.29071 0.0
C362 C 0.25391 0.04735 0.22251 0.0
C363 C 0.20142 0.99112 0.2398 0.0
C364 C 0.18231 0.99573 0.21912 0.0
C365 C 0.18909 0.97568 0.20226 0.0
C366 C 0.15629 0.01727 0.21899 0.0
C367 C 0.14338 0.99699 0.18778 0.0
C368 C 0.137 0.01799 0.20319 0.0
C369 C 0.16983 0.97625 0.18682 0.0
C370 C 0.28549 0.96293 0.26689 0.0
C371 C 0.24371 0.97057 0.33339 0.0
C372 C 0.3014 0.02259 0.31356 0.0
C373 C 0.32384 0.01503 0.33134 0.0
C374 C 0.31811 0.01692 0.3626 0.0
C375 C 0.35045 0.01073 0.31567 0.0
C376 C 0.36448 0.0127 0.36126 0.0
C377 C 0.37053 1.00954 0.33045 0.0
C378 C 0.33827 0.01562 0.37744 0.0
C379 C 0.21398 0.053 0.29004 0.0
O380 O 0.23457 0.03788 0.22851 0.0
O381 O 0.27216 0.03818 0.2415 0.0
O382 O 0.22733 0.98524 0.22898 0.0
O383 O 0.19269 1.00323 0.26333 0.0
O384 O 0.2642 0.95722 0.27351 0.0
O385 O 0.27856 0.98837 0.25852 0.0
O386 O 0.26412 0.97871 0.32696 0.0
O387 O 0.22541 0.98039 0.31427 0.0
O388 O 0.27675 0.02551 0.32787 0.0
O389 O 0.30712 0.01503 0.28717 0.0
O390 O 0.23496 0.05885 0.28615 0.0
O391 O 0.22134 0.0275 0.29678 0.0
H392 H 0.20896 0.95876 0.20222 0.0
H393 H 0.15051 0.03288 0.232 0.0
H394 H 0.1167 0.03419 0.20433 0.0
H395 H 0.17538 0.96001 0.17481 0.0
H396 H 0.29771 0.02068 0.37522 0.0
H397 H 0.35546 1.00956 0.29148 0.0
H398 H 0.39066 1.00677 0.3175 0.0
H399 H 0.33289 0.01823 0.40115 0.0
Gd400 Gd 0.49442 0.27882 0.77311 0.0
Gd401 Gd 0.48042 0.23797 0.75079 0.0
C402 C 0.45603 0.24826 0.81917 0.0
C403 C 0.49187 0.32295 0.78369 0.0
C404 C 0.49668 0.33537 0.80492 0.0
C405 C 0.49569 0.32478 0.83682 0.0
C406 C 0.50117 0.35931 0.79275 0.0
C407 C 0.50227 0.36299 0.84422 0.0
C408 C 0.50394 0.37298 0.81214 0.0
C409 C 0.49855 0.33847 0.85635 0.0
C410 C 0.53198 0.22604 0.78704 0.0
C411 C 0.52329 0.26319 0.70756 0.0
C412 C 0.47818 0.20233 0.72728 0.0
C413 C 0.49362 0.18417 0.70521 0.0
C414 C 0.50975 0.1916 0.6781 0.0
C415 C 0.48973 0.1602 0.70991 0.0
C416 C 0.51578 0.15232 0.65944 0.0
C417 C 0.50065 0.14444 0.68731 0.0
C418 C 0.5207 0.17581 0.65534 0.0
C419 C 0.44151 0.2893 0.74953 0.0
O420 O 0.46247 0.26977 0.81138 0.0
O421 O 0.46502 0.22998 0.80154 0.0
O422 O 0.51344 0.30666 0.76847 0.0
O423 O 0.47153 0.31501 0.79247 0.0
O424 O 0.5329 0.24636 0.79454 0.0
O425 O 0.51078 0.23549 0.77478 0.0
O426 O 0.51664 0.24191 0.71647 0.0
O427 O 0.51242 0.2832 0.72288 0.0
O428 O 0.46841 0.22852 0.71551 0.0
O429 O 0.48747 0.19601 0.75355 0.0
O430 O 0.43634 0.26772 0.75651 0.0
O431 O 0.46702 0.28295 0.74202 0.0
H432 H 0.49224 0.30628 0.84664 0.0
H433 H 0.50207 0.36774 0.76816 0.0
H434 H 0.50723 0.39153 0.802 0.0
H435 H 0.49705 0.33034 0.88098 0.0
H436 H 0.51308 0.21005 0.67407 0.0
H437 H 0.47721 0.15424 0.73057 0.0
H438 H 0.49604 0.12676 0.69111 0.0
H439 H 0.53248 0.18228 0.63429 0.0
Gd440 Gd 0.00453 0.7715 0.79293 0.0
Gd441 Gd 0.98678 0.74131 0.75951 0.0
C442 C 0.96012 0.74561 0.82959 0.0
C443 C 0.01051 0.80061 0.82336 0.0
C444 C -0.00127 0.81528 0.84917 0.0
C445 C -0.00711 0.80215 0.87964 0.0
C446 C -0.00332 0.84203 0.84372 0.0
C447 C 0.9857 0.84154 0.89895 0.0
C448 C -0.00978 0.85503 0.86828 0.0
C449 C 0.98646 0.81517 0.9043 0.0
C450 C 0.04093 0.72045 0.78655 0.0
C451 C 0.02927 0.76928 0.72244 0.0
C452 C 0.98462 0.70537 0.73632 0.0
C453 C 0.97467 0.70347 0.71012 0.0
C454 C -0.00841 0.70033 0.68158 0.0
C455 C 0.94893 0.70238 0.71435 0.0
C456 C 0.95812 0.69293 0.663 0.0
C457 C 0.94071 0.69727 0.69101 0.0
C458 C 0.98334 0.69522 0.6582 0.0
C459 C 0.95181 0.79527 0.75155 0.0
O460 O 0.97035 0.7635 0.82788 0.0
O461 O 0.96683 0.73165 0.8078 0.0
O462 O 0.02019 0.77397 0.83034 0.0
O463 O -0.00134 0.8112 0.79833 0.0
O464 O 0.04766 0.74043 0.78437 0.0
O465 O 0.01521 0.728 0.79333 0.0
O466 O 0.02107 0.74959 0.72568 0.0
O467 O 0.02133 0.78436 0.74351 0.0
O468 O 0.96601 0.71678 0.75804 0.0
O469 O 0.00597 0.71163 0.73014 0.0
O470 O 0.95058 0.77773 0.73916 0.0
O471 O 0.97229 0.7832 0.76569 0.0
H472 H -0.00574 0.7815 0.88454 0.0
H473 H 0.00136 0.85246 0.8205 0.0
H474 H -0.00981 0.87517 0.86327 0.0
H475 H 0.98275 0.80435 0.92761 0.0
H476 H 0.01165 0.70083 0.67765 0.0
H477 H 0.93546 0.70456 0.73611 0.0
H478 H 0.92105 0.69584 0.69524 0.0
H479 H -0.00267 0.69163 0.63699 0.0
Gd480 Gd 0.72811 0.49527 0.24668 0.0
Gd481 Gd 0.7615 0.50802 0.27474 0.0
C482 C 0.75253 0.53984 0.20741 0.0
C483 C 0.6969 0.48873 0.21824 0.0
C484 C 0.6803 0.49592 0.19376 0.0
C485 C 0.68649 0.47612 0.17677 0.0
C486 C 0.6568 0.52019 0.18954 0.0
C487 C 0.64489 0.50357 0.15346 0.0
C488 C 0.63929 0.52405 0.16934 0.0
C489 C 0.66898 0.47987 0.15686 0.0
C490 C 0.78029 0.45713 0.24865 0.0
C491 C 0.73444 0.46498 0.3163 0.0
C492 C 0.79736 0.50834 0.30204 0.0
C493 C 0.79982 0.51485 0.32994 0.0
C494 C 0.78378 0.54058 0.33748 0.0
C495 C 0.82087 0.49613 0.34715 0.0
C496 C 0.8127 0.53014 0.37583 0.0
C497 C 0.82721 0.50365 0.37 0.0
C498 C 0.79024 0.54817 0.36023 0.0
C499 C 0.70878 0.54492 0.27769 0.0
O500 O 0.73074 0.53387 0.21387 0.0
O501 O 0.77212 0.52595 0.22497 0.0
O502 O 0.72351 0.47968 0.21099 0.0
O503 O 0.68735 0.50225 0.24063 0.0
O504 O 0.75868 0.45189 0.2557 0.0
O505 O 0.77368 0.48254 0.24065 0.0
O506 O 0.75383 0.47404 0.31246 0.0
O507 O 0.71837 0.47364 0.29495 0.0
O508 O 0.78416 0.52869 0.28148 0.0
O509 O 0.79255 0.48676 0.30548 0.0
O510 O 0.7297 0.55081 0.27384 0.0
O511 O 0.71618 0.51952 0.28241 0.0
H512 H 0.70441 0.45715 0.17983 0.0
H513 H 0.65148 0.53569 0.20256 0.0
H514 H 0.62077 0.54249 0.16719 0.0
H515 H 0.67397 0.46393 0.14462 0.0
H516 H 0.7672 0.55532 0.32476 0.0
H517 H 0.83346 0.4762 0.34169 0.0
H518 H 0.84479 0.48937 0.38143 0.0
H519 H 0.77856 0.5686 0.36455 0.0
Gd520 Gd 0.74142 0.74177 1.00132 0.0
Gd521 Gd 0.74979 0.77179 0.04365 0.0
C522 C 0.69291 0.76597 0.05777 0.0
C523 C 0.7261 0.71314 0.9813 0.0
C524 C 0.70453 0.70324 0.99614 0.0
C525 C 0.6873 0.70351 0.97802 0.0
C526 C 0.6985 0.69738 0.02856 0.0
C527 C 0.65785 0.69264 0.02445 0.0
C528 C 0.6754 0.69188 0.04265 0.0
C529 C 0.66415 0.69821 0.99205 0.0
C530 C 0.74243 0.79121 0.97291 0.0
C531 C 0.79988 0.74172 0.99341 0.0
C532 C 0.75347 0.81091 0.05826 0.0
C533 C 0.76345 0.83159 0.0393 0.0
C534 C 0.75716 0.85501 0.04997 0.0
C535 C 0.78007 0.8276 1.01077 0.0
C536 C 0.78765 0.86801 1.00628 0.0
C537 C 0.79238 0.84556 0.99448 0.0
C538 C 0.7691 0.87324 0.03345 0.0
C539 C 0.75772 0.71911 0.07379 0.0
O540 O 0.70204 0.75186 0.03554 0.0
O541 O 0.70695 0.7774 0.06407 0.0
O542 O 0.71699 0.73968 0.97249 0.0
O543 O 0.74802 0.70236 0.99505 0.0
O544 O 0.75143 0.7707 0.95951 0.0
O545 O 0.73144 0.78513 1.00041 0.0
O546 O 0.78795 0.76193 1.00852 0.0
O547 O 0.78731 0.72662 0.99227 0.0
O548 O 0.77219 0.7859 0.06256 0.0
O549 O 0.7307 0.81288 0.05165 0.0
O550 O 0.75932 0.73662 0.08609 0.0
O551 O 0.75273 0.73107 0.04674 0.0
H552 H 0.69141 0.70843 0.95304 0.0
H553 H 0.71125 0.69771 0.04298 0.0
H554 H 0.67105 0.68741 0.06763 0.0
H555 H 0.6513 0.69817 0.97749 0.0
H556 H 0.74405 0.85855 0.07171 0.0
H557 H 0.78455 0.80997 1.00179 0.0
H558 H 0.80669 0.84116 0.97364 0.0
H559 H 0.76552 0.89026 0.04318 0.0
Gd560 Gd 0.48441 1.00153 0.53648 0.0
Gd561 Gd 0.54523 0.9785 0.50971 0.0
C562 C 0.51193 0.94352 0.51359 0.0
C563 C 0.432 0.0166 0.5484 0.0
C564 C 0.41383 1.00549 0.54376 0.0
C565 C 0.38967 0.0229 0.53104 0.0
C566 C 0.42135 0.97726 0.55032 0.0
C567 C 0.38099 0.98383 0.53101 0.0
C568 C 0.40504 0.96658 0.54419 0.0
C569 C 0.37327 0.01216 0.5248 0.0
C570 C 0.51965 0.97806 0.57839 0.0
C571 C 0.51617 0.03815 0.52974 0.0
C572 C 0.59773 0.96273 0.50123 0.0
C573 C 0.61477 0.97337 0.50916 0.0
C574 C 0.64102 0.96942 0.49285 0.0
C575 C 0.6035 0.99026 0.5308 0.0
C576 C 0.64386 1.00042 0.51876 0.0
C577 C 0.61761 1.00417 0.53496 0.0
C578 C 0.65563 0.9827 0.49782 0.0
C579 C 0.51099 1.00079 0.46711 0.0
O580 O 0.48953 0.96456 0.52077 0.0
O581 O 0.53682 0.94245 0.51141 0.0
O582 O 0.44844 1.00141 0.56905 0.0
O583 O 0.44411 0.02733 0.52314 0.0
O584 O 0.49702 0.99945 0.58073 0.0
O585 O 0.52193 0.96932 0.55479 0.0
O586 O 0.53875 0.01655 0.52453 0.0
O587 O 0.49163 0.03886 0.53096 0.0
O588 O 0.58234 0.97946 0.48009 0.0
O589 O 0.58456 0.95121 0.52466 0.0
O590 O 0.5347 0.98065 0.4644 0.0
O591 O 0.50775 1.00983 0.49092 0.0
H592 H 0.38376 0.04473 0.52546 0.0
H593 H 0.43997 0.96335 0.56001 0.0
H594 H 0.41125 0.94472 0.54996 0.0
H595 H 0.35501 0.02595 0.51436 0.0
H596 H 0.64992 0.95661 0.47586 0.0
H597 H 0.5835 0.99324 0.54406 0.0
H598 H 0.60775 0.01821 0.55062 0.0
H599 H 0.67586 0.9795 0.48495 0.0
Gd600 Gd 0.4563 0.53031 1.01459 0.0
Gd601 Gd 0.50531 0.53864 0.97072 0.0
C602 C 0.49711 0.4863 0.97084 0.0
C603 C 0.41293 0.52114 0.03952 0.0
C604 C 0.39785 0.50866 0.03088 0.0
C605 C 0.36954 0.52258 0.03048 0.0
C606 C 0.41165 0.48357 0.02156 0.0
C607 C 0.36901 0.48645 1.01134 0.0
C608 C 0.39743 0.47262 1.01175 0.0
C609 C 0.35519 0.51155 1.02085 0.0
C610 C 0.49882 0.51944 0.0429 0.0
C611 C 0.46277 0.58382 1.0124 0.0
C612 C 0.5473 0.55035 0.94864 0.0
C613 C 0.55619 0.56552 0.96197 0.0
C614 C 0.57087 0.58085 0.94365 0.0
C615 C 0.547 0.56708 0.9931 0.0
C616 C 0.56812 0.59815 0.98842 0.0
C617 C 0.5526 0.58332 1.0061 0.0
C618 C 0.5768 0.5971 0.95677 0.0
C619 C 0.4627 0.55056 0.94264 0.0
O620 O 0.47255 0.49752 0.98652 0.0
O621 O 0.51568 0.49667 0.96494 0.0
O622 O 0.43727 0.50491 0.04734 0.0
O623 O 0.41214 0.54431 0.02164 0.0
O624 O 0.47339 0.52887 0.05526 0.0
O625 O 0.50079 0.51388 1.0172 0.0
O626 O 0.48737 0.57275 0.99699 0.0
O627 O 0.44478 0.57278 1.01904 0.0
O628 O 0.52377 0.56473 0.93823 0.0
O629 O 0.54915 0.52643 0.9654 0.0
O630 O 0.48803 0.5412 0.92974 0.0
O631 O 0.46113 0.55539 0.96859 0.0
H632 H 0.35854 0.54205 0.03748 0.0
H633 H 0.43346 0.47242 0.02182 0.0
H634 H 0.40875 0.45345 1.00416 0.0
H635 H 0.33325 0.52252 0.02124 0.0
H636 H 0.57736 0.58057 0.91927 0.0
H637 H 0.53502 0.55601 1.00745 0.0
H638 H 0.54491 0.58372 0.03018 0.0
H639 H 0.58782 0.60907 0.94191 0.0
C640 C -0.00738 0.08357 0.06074 0.0
C641 C 0.96976 0.07712 0.0659 0.0
C642 C -0.00704 0.10173 0.0762 0.0
C643 C 0.96961 0.11421 0.0968 0.0
C644 C 0.94547 0.11003 0.09958 0.0
C645 C 0.94586 0.09139 0.08418 0.0
C646 C 0.01907 0.10577 0.07245 0.0
C647 C 0.91997 0.1234 0.12084 0.0
C648 C 0.98463 0.12379 0.16818 0.0
C649 C 0.97968 0.1515 0.16096 0.0
C650 C 0.98102 0.11167 0.14759 0.0
C651 C 0.97207 0.12764 0.11905 0.0
C652 C 0.9664 0.15577 0.1118 0.0
C653 C 0.97032 0.16741 0.13287 0.0
C654 C 0.98702 0.08163 0.15637 0.0
C655 C 0.95648 0.17346 0.08175 0.0
H656 H 0.01086 0.07334 0.04588 0.0
H657 H 0.92794 0.08685 0.08803 0.0
H658 H 0.01476 0.12777 0.06698 0.0
H659 H 0.02778 0.09688 0.09448 0.0
H660 H 0.03476 0.0961 0.05397 0.0
H661 H 0.9017 0.12224 0.11604 0.0
H662 H 0.92296 0.11302 0.14513 0.0
H663 H 0.91586 0.14507 0.11867 0.0
H664 H -0.00878 0.11154 0.19015 0.0
H665 H 0.96653 0.18883 0.12714 0.0
H666 H 0.00316 0.07088 0.13896 0.0
H667 H 0.96843 0.07841 0.15667 0.0
H668 H -0.00614 0.07222 0.17945 0.0
H669 H 0.97272 0.16697 0.06217 0.0
H670 H 0.95092 0.19533 0.08068 0.0
H671 H 0.93836 0.17109 0.07852 0.0
C672 C 0.82626 0.24374 0.43764 0.0
C673 C 0.82131 0.24885 0.46736 0.0
C674 C 0.84952 0.24491 0.41688 0.0
C675 C 0.86893 0.25033 0.4264 0.0
C676 C 0.86427 0.25501 0.45666 0.0
C677 C 0.8402 0.25478 0.47657 0.0
C678 C 0.85306 0.24081 0.38453 0.0
C679 C 0.88479 0.26006 0.46806 0.0
C680 C 0.93971 0.22681 0.37861 0.0
C681 C 0.93976 0.25128 0.35931 0.0
C682 C 0.91738 0.22642 0.4016 0.0
C683 C 0.89405 0.25096 0.40458 0.0
C684 C 0.89416 0.2758 0.38529 0.0
C685 C 0.91722 0.2757 0.36326 0.0
C686 C 0.91849 0.19962 0.42223 0.0
C687 C 0.86942 0.30229 0.38684 0.0
H688 H 0.81139 0.2397 0.43024 0.0
H689 H 0.83635 0.25884 0.49951 0.0
H690 H 0.85525 0.25863 0.36742 0.0
H691 H 0.87204 0.22269 0.38034 0.0
H692 H 0.8355 0.23802 0.38032 0.0
H693 H 0.87869 0.26225 0.49257 0.0
H694 H 0.90518 0.24298 0.46576 0.0
H695 H 0.88709 0.27882 0.45372 0.0
H696 H 0.95714 0.20792 0.37562 0.0
H697 H 0.91703 0.29462 0.34805 0.0
H698 H 0.90333 0.19389 0.41701 0.0
H699 H 0.91297 0.20149 0.44681 0.0
H700 H 0.93909 0.18293 0.41918 0.0
H701 H 0.85172 0.30105 0.38078 0.0
H702 H 0.87305 0.31992 0.37086 0.0
H703 H 0.86359 0.3061 0.41066 0.0
C704 C 0.77496 0.07589 0.68336 0.0
C705 C 0.75154 0.06994 0.69184 0.0
C706 C 0.77555 0.09906 0.66078 0.0
C707 C 0.75198 0.11729 0.64646 0.0
C708 C 0.72852 0.11096 0.65427 0.0
C709 C 0.72865 0.08741 0.67658 0.0
C710 C 0.80116 0.10458 0.65309 0.0
C711 C 0.70272 0.12977 0.64017 0.0
C712 C 0.74206 0.19208 0.62125 0.0
C713 C 0.75032 0.19529 0.58916 0.0
C714 C 0.74235 0.16707 0.63979 0.0
C715 C 0.75092 0.14428 0.62616 0.0
C716 C 0.75881 0.14745 0.59359 0.0
C717 C 0.75857 0.17282 0.57552 0.0
C718 C 0.73346 0.16508 0.67418 0.0
C719 C 0.7674 0.12408 0.57779 0.0
H720 H 0.79283 0.06261 0.69476 0.0
H721 H 0.7103 0.0833 0.68298 0.0
H722 H 0.80726 0.10868 0.6277 0.0
H723 H 0.79706 0.12301 0.66138 0.0
H724 H 0.81857 0.08731 0.66381 0.0
H725 H 0.68749 0.12053 0.64565 0.0
H726 H 0.69319 0.14888 0.64912 0.0
H727 H 0.70752 0.13535 0.61472 0.0
H728 H 0.73536 0.20929 0.63209 0.0
H729 H 0.76456 0.17514 0.55074 0.0
H730 H 0.75055 0.14949 0.68678 0.0
H731 H 0.71615 0.15852 0.68156 0.0
H732 H 0.72695 0.18471 0.68121 0.0
H733 H 0.78557 0.1068 0.587 0.0
H734 H 0.77244 0.12984 0.55235 0.0
H735 H 0.75073 0.11679 0.58273 0.0
C736 C 0.94969 1.00793 0.95478 0.0
C737 C 0.94541 0.02193 0.97782 0.0
C738 C 0.92845 0.01359 0.93881 0.0
C739 C 0.90223 0.03398 0.94583 0.0
C740 C 0.89785 0.04852 0.96886 0.0
C741 C 0.91951 0.04209 0.98484 0.0
C742 C 0.93391 0.99715 0.91499 0.0
C743 C 0.87043 0.07052 0.97728 0.0
C744 C 0.86021 0.05247 0.88229 0.0
C745 C 0.84576 0.03564 0.89458 0.0
C746 C 0.87685 0.05419 0.89985 0.0
C747 C 0.87951 0.03827 0.93007 0.0
C748 C 0.86337 0.02294 0.94329 0.0
C749 C 0.84676 0.02168 0.9254 0.0
C750 C 0.89231 0.07229 0.8858 0.0
C751 C 0.86428 1.00725 0.97608 0.0
H752 H 0.96965 0.99212 0.94951 0.0
H753 H 0.91618 0.05298 1.00266 0.0
H754 H 0.92058 0.98567 0.92221 0.0
H755 H 0.92882 0.01077 0.89239 0.0
H756 H 0.95564 0.98263 0.91162 0.0
H757 H 0.87321 0.08718 0.9828 0.0
H758 H 0.85743 0.0793 0.95861 0.0
H759 H 0.85942 0.06183 0.99835 0.0
H760 H 0.8588 0.06402 0.85879 0.0
H761 H 0.83544 1.00884 0.93518 0.0
H762 H 0.91442 0.05961 0.88031 0.0
H763 H 0.89033 0.0843 0.90253 0.0
H764 H 0.88483 0.08647 0.86423 0.0
H765 H 0.85154 0.99519 0.98248 0.0
H766 H 0.85657 0.02171 0.99182 0.0
H767 H 0.88574 0.99355 0.97957 0.0
C768 C 0.04566 0.9779 0.09951 0.0
C769 C 0.01823 0.98894 0.11279 0.0
C770 C 0.06647 0.97902 0.11122 0.0
C771 C 0.05976 0.99023 0.13782 0.0
C772 C 0.03226 1.0 0.15233 0.0
C773 C 0.01182 0.99965 0.13936 0.0
C774 C 0.09553 0.96847 0.09492 0.0
C775 C 0.02449 0.01058 0.18174 0.0
C776 C 0.11797 0.97127 0.1822 0.0
C777 C 0.12212 0.99546 0.17458 0.0
C778 C 0.09756 0.96942 0.17069 0.0
C779 C 0.08135 0.99211 0.15034 0.0
C780 C 0.08535 0.01672 0.1428 0.0
C781 C 0.10561 0.01808 0.15513 0.0
C782 C 0.0927 0.94352 0.18127 0.0
C783 C 0.0679 0.04226 0.12276 0.0
H784 H 0.05081 0.96884 0.0797 0.0
H785 H -0.00932 1.00785 0.15011 0.0
H786 H 0.10491 0.98317 0.09178 0.0
H787 H 0.10809 0.94914 0.1091 0.0
H788 H 0.09662 0.96452 0.07202 0.0
H789 H 0.00201 0.01875 0.18931 0.0
H790 H 0.03465 0.99388 0.20041 0.0
H791 H 0.03183 0.02681 0.17863 0.0
H792 H 0.1303 0.95393 0.19788 0.0
H793 H 0.10861 0.03689 0.14939 0.0
H794 H 0.09658 0.93413 0.16132 0.0
H795 H 0.07098 0.94816 0.19164 0.0
H796 H 0.10603 0.92836 0.19856 0.0
H797 H 0.08118 0.0513 0.10521 0.0
H798 H 0.05468 0.05748 0.13735 0.0
H799 H 0.05458 0.03903 0.11095 0.0
C800 C 0.97894 0.44614 0.48593 0.0
C801 C 0.95459 0.46255 0.50174 0.0
C802 C 0.97901 0.42817 0.46984 0.0
C803 C 0.95421 0.42613 0.46993 0.0
C804 C 0.92979 0.44147 0.48723 0.0
C805 C 0.9302 0.45975 0.50266 0.0
C806 C 0.00549 0.41228 0.45152 0.0
C807 C 0.90315 0.43916 0.48866 0.0
C808 C 0.95453 0.40405 0.39859 0.0
C809 C 0.9632 0.3758 0.40888 0.0
C810 C 0.9498 0.42093 0.41881 0.0
C811 C 0.95383 0.4093 0.45007 0.0
C812 C 0.96066 0.38108 0.46109 0.0
C813 C 0.96529 0.36466 0.44035 0.0
C814 C 0.94222 0.45098 0.40625 0.0
C815 C 0.96472 0.36793 0.49433 0.0
H816 H -0.00213 0.44816 0.48492 0.0
H817 H 0.91127 0.47229 0.51483 0.0
H818 H 0.00985 0.39024 0.45819 0.0
H819 H 0.00356 0.41878 0.42655 0.0
H820 H 0.02323 0.41522 0.45497 0.0
H821 H 0.89668 0.44677 0.4654 0.0
H822 H 0.9059 0.41753 0.49586 0.0
H823 H 0.88647 0.45086 0.505 0.0
H824 H 0.953 0.41284 0.37432 0.0
H825 H 0.97149 0.3429 0.44859 0.0
H826 H 0.95969 0.45607 0.40584 0.0
H827 H 0.92458 0.46295 0.42148 0.0
H828 H 0.93688 0.45736 0.38249 0.0
H829 H 0.98426 0.36698 0.49835 0.0
H830 H 0.96554 0.34691 0.50036 0.0
H831 H 0.94801 0.38014 0.51017 0.0
C832 C 0.64386 0.2597 0.56263 0.0
C833 C 0.66261 0.26633 0.57109 0.0
C834 C 0.61993 0.25951 0.5829 0.0
C835 C 0.61532 0.26491 0.6128 0.0
C836 C 0.63457 0.27108 0.62156 0.0
C837 C 0.65765 0.27222 0.60042 0.0
C838 C 0.59955 0.25368 0.5723 0.0
C839 C 0.63112 0.2759 0.65355 0.0
C840 C 0.54494 0.28786 0.66159 0.0
C841 C 0.54548 0.26338 0.68138 0.0
C842 C 0.56693 0.28841 0.63811 0.0
C843 C 0.59051 0.26406 0.63514 0.0
C844 C 0.59102 0.23922 0.65499 0.0
C845 C 0.56829 0.23913 0.67748 0.0
C846 C 0.56514 0.31517 0.61688 0.0
C847 C 0.61607 0.21294 0.65352 0.0
H848 H 0.64773 0.25502 0.54001 0.0
H849 H 0.67241 0.2768 0.60727 0.0
H850 H 0.59774 0.23483 0.58706 0.0
H851 H 0.57898 0.2705 0.57469 0.0
H852 H 0.60545 0.25122 0.54788 0.0
H853 H 0.64852 0.2793 0.65715 0.0
H854 H 0.61195 0.2939 0.65759 0.0
H855 H 0.62935 0.25815 0.67115 0.0
H856 H 0.52729 0.30662 0.66451 0.0
H857 H 0.56893 0.2202 0.69304 0.0
H858 H 0.57047 0.31292 0.59243 0.0
H859 H 0.58012 0.32152 0.62141 0.0
H860 H 0.54438 0.33161 0.61998 0.0
H861 H 0.62189 0.20888 0.62982 0.0
H862 H 0.61282 0.19524 0.66981 0.0
H863 H 0.63363 0.2147 0.65923 0.0
C864 C 0.71535 0.93245 0.85362 0.0
C865 C 0.73333 0.94495 0.85082 0.0
C866 C 0.71651 0.90886 0.87632 0.0
C867 C 0.73611 0.89713 0.89711 0.0
C868 C 0.75368 0.91018 0.89516 0.0
C869 C 0.75213 0.93375 0.87214 0.0
C870 C 0.69731 0.89586 0.87733 0.0
C871 C 0.77474 0.89875 0.91685 0.0
C872 C 0.72607 0.84245 0.96704 0.0
C873 C 0.74245 0.81842 0.95585 0.0
C874 C 0.72452 0.86817 0.94879 0.0
C875 C 0.73975 0.86999 0.91867 0.0
C876 C 0.75741 0.84556 0.90815 0.0
C877 C 0.75842 0.82032 0.92668 0.0
C878 C 0.70586 0.89348 0.96137 0.0
C879 C 0.77468 0.84607 0.87674 0.0
H880 H 0.7007 0.94072 0.83749 0.0
H881 H 0.76615 0.94309 0.87047 0.0
H882 H 0.70927 0.87558 0.87111 0.0
H883 H 0.68632 0.89266 0.90107 0.0
H884 H 0.68197 0.90837 0.86122 0.0
H885 H 0.78558 0.91218 0.91391 0.0
H886 H 0.76483 0.89582 0.94116 0.0
H887 H 0.79013 0.87848 0.91275 0.0
H888 H 0.71384 0.84125 0.98961 0.0
H889 H 0.77154 0.80189 0.91795 0.0
H890 H 0.68857 0.90558 0.94776 0.0
H891 H 0.71704 0.90643 0.95905 0.0
H892 H 0.69741 0.88867 0.98604 0.0
H893 H 0.76116 0.85623 0.85849 0.0
H894 H 0.78881 0.82532 0.87283 0.0
H895 H 0.78702 0.85799 0.87406 0.0
C896 C 0.1423 0.26297 0.06803 0.0
C897 C 0.16473 0.26451 0.07555 0.0
C898 C 0.11875 0.2646 0.08998 0.0
C899 C 0.11812 0.26674 0.12044 0.0
C900 C 0.14098 0.26785 0.12814 0.0
C901 C 0.16373 0.26719 0.10551 0.0
C902 C 0.09457 0.26402 0.08062 0.0
C903 C 0.14175 0.26905 0.16054 0.0
C904 C 0.05227 0.29113 0.17683 0.0
C905 C 0.05141 0.26643 0.1945 0.0
C906 C 0.0731 0.29158 0.15165 0.0
C907 C 0.09415 0.26675 0.14476 0.0
C908 C 0.09327 0.24178 0.16258 0.0
C909 C 0.0717 0.24195 0.1868 0.0
C910 C 0.07285 0.31864 0.13273 0.0
C911 C 0.11576 0.21481 0.157 0.0
H912 H 0.14301 0.26091 0.04489 0.0
H913 H 0.18124 0.2679 0.11159 0.0
H914 H 0.09118 0.24553 0.09398 0.0
H915 H 0.07572 0.28188 0.08605 0.0
H916 H 0.09753 0.26413 0.05561 0.0
H917 H 0.16127 0.26933 0.16289 0.0
H918 H 0.12455 0.28751 0.16732 0.0
H919 H 0.13915 0.25117 0.17708 0.0
H920 H 0.0366 0.31008 0.18262 0.0
H921 H 0.07138 0.22275 0.20061 0.0
H922 H 0.07506 0.31903 0.10777 0.0
H923 H 0.09051 0.3216 0.13627 0.0
H924 H 0.05372 0.33595 0.139 0.0
H925 H 0.11839 0.21327 0.13263 0.0
H926 H 0.11158 0.19721 0.17225 0.0
H927 H 0.13549 0.21331 0.16118 0.0
C928 C 0.71032 0.43497 0.34965 0.0
C929 C 0.73248 0.44274 0.34334 0.0
C930 C 0.70966 0.41215 0.37276 0.0
C931 C 0.73181 0.39626 0.39004 0.0
C932 C 0.75377 0.4046 0.38456 0.0
C933 C 0.7538 0.42765 0.36146 0.0
C934 C 0.68572 0.40433 0.3777 0.0
C935 C 0.77812 0.38836 0.40181 0.0
C936 C 0.72278 0.34223 0.46149 0.0
C937 C 0.7344 0.31865 0.44905 0.0
C938 C 0.72224 0.36754 0.4429 0.0
C939 C 0.73336 0.36943 0.41105 0.0
C940 C 0.74554 0.34548 0.39874 0.0
C941 C 0.74593 0.32062 0.41776 0.0
C942 C 0.70975 0.39228 0.4573 0.0
C943 C 0.75811 0.34609 0.36524 0.0
H944 H 0.69365 0.44639 0.336 0.0
H945 H 0.77119 0.43317 0.3568 0.0
H946 H 0.69271 0.38483 0.37018 0.0
H947 H 0.6774 0.40111 0.4026 0.0
H948 H 0.66897 0.42001 0.36461 0.0
H949 H 0.78977 0.40061 0.40079 0.0
H950 H 0.77168 0.38064 0.42633 0.0
H951 H 0.79211 0.37051 0.39129 0.0
H952 H 0.7142 0.34091 0.4857 0.0
H953 H 0.75531 0.30254 0.40789 0.0
H954 H 0.6915 0.40761 0.44643 0.0
H955 H 0.72459 0.4018 0.45303 0.0
H956 H 0.70349 0.38728 0.48262 0.0
H957 H 0.74229 0.36006 0.35014 0.0
H958 H 0.76721 0.32566 0.35929 0.0
H959 H 0.77435 0.35399 0.35996 0.0
C960 C 0.53937 0.9844 0.6176 0.0
C961 C 0.54087 0.96785 0.5987 0.0
C962 C 0.5597 0.97617 0.63611 0.0
C963 C 0.58213 0.95061 0.63596 0.0
C964 C 0.58308 0.93319 0.61802 0.0
C965 C 0.56257 0.94217 0.59926 0.0
C966 C 0.55776 0.99555 0.65465 0.0
C967 C 0.60609 0.90544 0.61798 0.0
C968 C 0.64485 0.95391 0.65137 0.0
C969 C 0.64202 0.94712 0.68367 0.0
C970 C 0.62697 0.9526 0.6353 0.0
C971 C 0.60574 0.94412 0.65177 0.0
C972 C 0.60465 0.93437 0.68414 0.0
C973 C 0.62251 0.93644 0.69984 0.0
C974 C 0.6288 0.96371 0.60109 0.0
C975 C 0.58338 0.92364 0.70246 0.0
H976 H 0.52265 1.00428 0.61725 0.0
H977 H 0.56357 0.92915 0.58497 0.0
H978 H 0.56123 0.98504 0.67874 0.0
H979 H 0.5739 1.00354 0.64425 0.0
H980 H 0.53743 0.01287 0.65541 0.0
H981 H 0.60109 0.89244 0.60807 0.0
H982 H 0.62489 0.90762 0.60396 0.0
H983 H 0.61079 0.89496 0.64177 0.0
H984 H 0.65963 0.96247 0.63865 0.0
H985 H 0.6205 0.93071 0.72482 0.0
H986 H 0.61345 0.98502 0.59741 0.0
H987 H 0.62402 0.95217 0.58884 0.0
H988 H 0.64943 0.9635 0.59082 0.0
H989 H 0.5635 0.94093 0.70645 0.0
H990 H 0.58925 0.91101 0.72529 0.0
H991 H 0.58028 0.9113 0.6896 0.0
C992 C 0.01096 0.92082 0.99614 0.0
C993 C -0.00911 0.92982 0.02095 0.0
C994 C 0.00948 0.90374 0.97992 0.0
C995 C -0.0123 0.8949 0.98909 0.0
C996 C 0.96842 0.90237 1.01539 0.0
C997 C 0.97003 0.92002 0.03083 0.0
C998 C 0.03024 0.89661 0.9517 0.0
C999 C 0.94566 0.89235 0.02651 0.0
C1000 C 0.96724 0.88232 0.9232 0.0
C1001 C 0.98253 0.8543 0.92498 0.0
C1002 C 0.96774 0.89551 0.94485 0.0
C1003 C 0.98368 0.88031 0.96914 0.0
C1004 C -0.00249 0.85172 0.97244 0.0
C1005 C -0.00308 0.83906 0.95021 0.0
C1006 C 0.95254 0.926 0.94061 0.0
C1007 C 0.01417 0.83466 0.99844 0.0
H1008 H 0.02701 0.92844 0.98814 0.0
H1009 H 0.95456 0.92669 0.05013 0.0
H1010 H 0.03955 0.87429 0.95316 0.0
H1011 H 0.01985 0.90617 0.93078 0.0
H1012 H 0.04687 0.90363 0.94876 0.0
H1013 H 0.93241 0.89972 0.04745 0.0
H1014 H 0.93278 0.89903 1.00809 0.0
H1015 H 0.95448 0.86977 0.03182 0.0
H1016 H 0.95556 0.89415 0.90419 0.0
H1017 H 0.0089 0.8174 0.95178 0.0
H1018 H 0.94013 0.9347 0.92135 0.0
H1019 H 0.96751 0.93542 0.93577 0.0
H1020 H 0.93878 0.93162 0.96209 0.0
H1021 H 0.03351 0.8377 0.99374 0.0
H1022 H 0.01944 0.81262 1.00106 0.0
H1023 H 0.00291 0.84092 1.02063 0.0
C1024 C 0.15384 0.01622 0.0479 0.0
C1025 C 0.12755 0.03322 0.04012 0.0
C1026 C 0.1711 0.0272 0.05183 0.0
C1027 C 0.16183 0.05578 0.0475 0.0
C1028 C 0.13462 0.07281 0.04181 0.0
C1029 C 0.11784 0.06131 0.03815 0.0
C1030 C 0.19976 1.0084 0.05865 0.0
C1031 C 0.12388 0.10341 0.03709 0.0
C1032 C 0.19812 0.09439 0.06195 0.0
C1033 C 0.2097 0.10238 0.03174 0.0
C1034 C 0.18414 0.07728 0.06814 0.0
C1035 C 0.18147 0.0684 0.04344 0.0
C1036 C 0.19467 0.07497 1.01334 0.0
C1037 C 0.20862 0.09185 1.00789 0.0
C1038 C 0.1708 0.07018 0.10065 0.0
C1039 C 0.19223 0.06602 0.98628 0.0
H1040 H 0.16115 0.99441 0.05016 0.0
H1041 H 0.09756 0.07457 0.03206 0.0
H1042 H 0.21451 1.00939 0.03724 0.0
H1043 H 0.20542 0.01473 0.07603 0.0
H1044 H 0.20197 0.98694 0.06724 0.0
H1045 H 0.12827 0.10925 0.05585 0.0
H1046 H 0.13437 0.1114 1.01498 0.0
H1047 H 0.10144 0.1134 0.03635 0.0
H1048 H 0.19924 0.10223 0.08053 0.0
H1049 H 0.21715 0.09822 0.98442 0.0
H1050 H 0.17333 0.04861 0.10645 0.0
H1051 H 0.14849 0.08302 0.10262 0.0
H1052 H 0.17939 0.07369 0.11789 0.0
H1053 H 0.19753 0.04381 0.99175 0.0
H1054 H 0.20574 0.07078 0.965 0.0
H1055 H 0.17073 0.07646 0.98143 0.0
C1056 C 0.67404 0.58882 0.25494 0.0
C1057 C 0.68034 0.56562 0.2786 0.0
C1058 C 0.64837 0.61074 0.25676 0.0
C1059 C 0.62892 0.61003 0.28367 0.0
C1060 C 0.63491 0.58616 0.30727 0.0
C1061 C 0.66045 0.56398 0.30417 0.0
C1062 C 0.64267 0.63523 0.23049 0.0
C1063 C 0.61529 0.58482 0.33678 0.0
C1064 C 0.58534 0.68095 0.29987 0.0
C1065 C 0.5604 0.68708 0.29061 0.0
C1066 C 0.60703 0.65531 0.29967 0.0
C1067 C 0.60428 0.63554 0.28857 0.0
C1068 C 0.57881 0.64133 0.27998 0.0
C1069 C 0.55691 0.66686 0.28184 0.0
C1070 C 0.63332 0.64983 0.31021 0.0
C1071 C 0.57522 0.62127 0.26706 0.0
H1072 H 0.68949 0.59004 0.23518 0.0
H1073 H 0.66551 0.54612 0.32263 0.0
H1074 H 0.62186 0.64213 0.22459 0.0
H1075 H 0.64339 0.65229 0.23755 0.0
H1076 H 0.65788 0.63089 0.20946 0.0
H1077 H 0.62124 0.56386 0.351 0.0
H1078 H 0.61501 0.59842 0.35056 0.0
H1079 H 0.59414 0.59208 0.33179 0.0
H1080 H 0.58805 0.69644 0.30699 0.0
H1081 H 0.53763 0.67144 0.27491 0.0
H1082 H 0.6496 0.64904 0.29001 0.0
H1083 H 0.64041 0.62983 0.32632 0.0
H1084 H 0.63093 0.66581 0.32192 0.0
H1085 H 0.58814 0.61934 0.24421 0.0
H1086 H 0.55359 0.6277 0.26409 0.0
H1087 H 0.58215 0.60082 0.28227 0.0
C1088 C 0.30606 0.89089 0.56039 0.0
C1089 C 0.29406 0.88958 0.53749 0.0
C1090 C 0.31843 0.90914 0.55475 0.0
C1091 C 0.3188 0.92658 0.52543 0.0
C1092 C 0.30648 0.92564 0.5022 0.0
C1093 C 0.29431 0.90695 0.50848 0.0
C1094 C 0.33172 0.90923 0.58002 0.0
C1095 C 0.3066 0.94398 0.47071 0.0
C1096 C 0.33559 0.9835 0.53065 0.0
C1097 C 0.36425 0.97193 0.52405 0.0
C1098 C 0.31999 0.97009 0.52835 0.0
C1099 C 0.33346 0.94461 0.51925 0.0
C1100 C 0.36211 0.93409 0.50992 0.0
C1101 C 0.37716 0.94776 0.51271 0.0
C1102 C 0.28941 0.98203 0.53823 0.0
C1103 C 0.37735 0.90714 0.49972 0.0
H1104 H 0.30638 0.87707 0.58262 0.0
H1105 H 0.28495 0.90594 0.49081 0.0
H1106 H 0.35402 0.90348 0.57234 0.0
H1107 H 0.32301 0.92995 0.58502 0.0
H1108 H 0.32888 0.89488 0.60179 0.0
H1109 H 0.29509 0.94153 0.45567 0.0
H1110 H 0.29745 0.96556 0.47302 0.0
H1111 H 0.328 0.93943 0.45914 0.0
H1112 H 0.32546 1.00215 0.53947 0.0
H1113 H 0.39925 0.939 0.50689 0.0
H1114 H 0.28445 0.97082 0.56161 0.0
H1115 H 0.27849 0.97987 0.52233 0.0
H1116 H 0.28155 1.00389 0.53905 0.0
H1117 H 0.38093 0.89042 0.52043 0.0
H1118 H 0.39757 0.90544 0.48589 0.0
H1119 H 0.36539 0.90413 0.4858 0.0
C1120 C 0.08738 0.68923 0.76649 0.0
C1121 C 0.06139 0.69259 0.78338 0.0
C1122 C 0.10843 0.66322 0.76562 0.0
C1123 C 0.10375 0.63978 0.7828 0.0
C1124 C 0.07714 0.64301 0.79886 0.0
C1125 C 0.05617 0.66939 0.79868 0.0
C1126 C 0.13607 0.66096 0.74736 0.0
C1127 C 0.07119 0.61871 0.81753 0.0
C1128 C 0.15916 0.57081 0.76755 0.0
C1129 C 0.17613 0.56393 0.78972 0.0
C1130 C 0.13502 0.59495 0.76553 0.0
C1131 C 0.12747 0.61246 0.78642 0.0
C1132 C 0.14399 0.60481 0.8097 0.0
C1133 C 0.16812 0.58087 0.81087 0.0
C1134 C 0.1184 0.60235 0.74004 0.0
C1135 C 0.13673 0.62248 0.83277 0.0
H1136 H 0.09144 0.70709 0.75427 0.0
H1137 H 0.03612 0.67187 0.81174 0.0
H1138 H 0.15115 0.65402 0.76345 0.0
H1139 H 0.14359 0.64563 0.73269 0.0
H1140 H 0.13545 0.68068 0.73232 0.0
H1141 H 0.04899 0.62426 0.82607 0.0
H1142 H 0.07837 0.60294 0.80354 0.0
H1143 H 0.08253 0.6095 0.8377 0.0
H1144 H 0.16535 0.55795 0.75093 0.0
H1145 H 0.18112 0.57566 0.82809 0.0
H1146 H 0.12132 0.61955 0.72237 0.0
H1147 H 0.09623 0.60916 0.74912 0.0
H1148 H 0.12458 0.58503 0.72861 0.0
H1149 H 0.13849 0.64203 0.82067 0.0
H1150 H 0.15028 0.61261 0.851 0.0
H1151 H 0.11518 0.62735 0.84396 0.0
C1152 C 0.73959 0.43544 0.51709 0.0
C1153 C 0.76015 0.41095 0.50981 0.0
C1154 C 0.74576 0.45777 0.51464 0.0
C1155 C 0.77308 0.45541 0.50461 0.0
C1156 C 0.79291 0.43221 0.49303 0.0
C1157 C 0.78621 0.41011 0.49589 0.0
C1158 C 0.72384 0.48236 0.52657 0.0
C1159 C 0.82214 0.42921 0.48144 0.0
C1160 C 0.79596 0.51108 0.50213 0.0
C1161 C 0.80617 0.50181 0.53039 0.0
C1162 C 0.7842 0.49677 0.49348 0.0
C1163 C 0.78248 0.47297 0.51383 0.0
C1164 C 0.79132 0.46459 0.54313 0.0
C1165 C 0.80306 0.47911 0.55098 0.0
C1166 C 0.77474 0.50639 0.46222 0.0
C1167 C 0.78945 0.43958 0.56583 0.0
H1168 H 0.71915 0.43643 0.52696 0.0
H1169 H 0.80213 0.39135 0.4899 0.0
H1170 H 0.72574 0.48038 0.55089 0.0
H1171 H 0.72611 0.50135 0.513 0.0
H1172 H 0.70299 0.48419 0.52596 0.0
H1173 H 0.83334 0.41301 0.46767 0.0
H1174 H 0.82291 0.44861 0.46707 0.0
H1175 H 0.83299 0.42374 0.50146 0.0
H1176 H 0.79836 0.52871 0.48624 0.0
H1177 H 0.8105 0.4723 0.57307 0.0
H1178 H 0.75407 0.5067 0.46426 0.0
H1179 H 0.78888 0.49205 0.44698 0.0
H1180 H 0.77416 0.52703 0.45093 0.0
H1181 H 0.76808 0.44107 0.57057 0.0
H1182 H 0.79614 0.43664 0.58812 0.0
H1183 H 0.80252 0.42121 0.55583 0.0
C1184 C 0.31847 0.9175 0.28908 0.0
C1185 C 0.31366 0.94152 0.26658 0.0
C1186 C 0.34343 0.89474 0.28712 0.0
C1187 C 0.36386 0.89559 0.26133 0.0
C1188 C 0.35959 0.92029 0.23919 0.0
C1189 C 0.33461 0.94316 0.24232 0.0
C1190 C 0.34722 0.86927 0.31185 0.0
C1191 C 0.38056 0.92202 0.21111 0.0
C1192 C 0.43391 0.83586 0.26513 0.0
C1193 C 0.43058 0.8177 0.2523 0.0
C1194 C 0.41277 0.86168 0.26748 0.0
C1195 C 0.38795 0.86978 0.25599 0.0
C1196 C 0.38516 0.85195 0.24158 0.0
C1197 C 0.40627 0.82605 0.24038 0.0
C1198 C 0.41642 0.8796 0.2838 0.0
C1199 C 0.35939 0.85978 0.22842 0.0
H1200 H 0.30229 0.91625 0.30793 0.0
H1201 H 0.3308 0.96164 0.22474 0.0
H1202 H 0.34619 0.85357 0.30241 0.0
H1203 H 0.36766 0.86076 0.31937 0.0
H1204 H 0.33125 0.87311 0.33238 0.0
H1205 H 0.37577 0.94328 0.1981 0.0
H1206 H 0.40131 0.91348 0.21781 0.0
H1207 H 0.38116 0.90968 0.19552 0.0
H1208 H 0.45237 0.82935 0.27484 0.0
H1209 H 0.40357 0.81209 0.23043 0.0
H1210 H 0.40235 0.88101 0.30597 0.0
H1211 H 0.411 0.90055 0.26975 0.0
H1212 H 0.43774 0.87161 0.28877 0.0
H1213 H 0.34211 0.86084 0.24746 0.0
H1214 H 0.36159 0.84497 0.21507 0.0
H1215 H 0.3539 0.88023 0.2131 0.0
C1216 C 0.3034 0.4154 0.72617 0.0
C1217 C 0.29641 0.43742 0.73995 0.0
C1218 C 0.32914 0.39346 0.72743 0.0
C1219 C 0.34817 0.39284 0.74398 0.0
C1220 C 0.34134 0.41523 0.75771 0.0
C1221 C 0.31571 0.43749 0.75503 0.0
C1222 C 0.33564 0.37055 0.71166 0.0
C1223 C 0.36049 0.4151 0.77647 0.0
C1224 C 0.39619 0.3199 0.7725 0.0
C1225 C 0.41988 0.31696 0.7508 0.0
C1226 C 0.3736 0.34508 0.77204 0.0
C1227 C 0.37415 0.36779 0.74847 0.0
C1228 C 0.39851 0.36519 0.72719 0.0
C1229 C 0.42128 0.33987 0.72894 0.0
C1230 C 0.34862 0.34698 0.79598 0.0
C1231 C 0.39988 0.38858 0.70129 0.0
H1232 H 0.28861 0.41529 0.71434 0.0
H1233 H 0.31031 0.45436 0.7659 0.0
H1234 H 0.3559 0.36596 0.69692 0.0
H1235 H 0.33679 0.35184 0.72926 0.0
H1236 H 0.31994 0.37541 0.69709 0.0
H1237 H 0.35338 0.43495 0.78328 0.0
H1238 H 0.36197 0.39904 0.79773 0.0
H1239 H 0.38142 0.41015 0.76334 0.0
H1240 H 0.39511 0.30225 0.78958 0.0
H1241 H 0.43951 0.33761 0.71203 0.0
H1242 H 0.33163 0.34935 0.78491 0.0
H1243 H 0.34157 0.36513 0.80622 0.0
H1244 H 0.35266 0.3286 0.81483 0.0
H1245 H 0.38635 0.39241 0.68453 0.0
H1246 H 0.42102 0.38438 0.68887 0.0
H1247 H 0.39235 0.40747 0.71023 0.0
C1248 C 0.16446 0.77446 0.61161 0.0
C1249 C 0.16534 0.7735 0.58095 0.0
C1250 C 0.14139 0.77512 0.63372 0.0
C1251 C 0.1182 0.77564 0.62484 0.0
C1252 C 0.1186 0.77561 0.59366 0.0
C1253 C 0.14235 0.77405 0.57218 0.0
C1254 C 0.14231 0.77415 0.66687 0.0
C1255 C 0.09408 0.7768 0.58309 0.0
C1256 C 0.07144 0.74794 0.68716 0.0
C1257 C 0.05096 0.77164 0.69644 0.0
C1258 C 0.09333 0.74899 0.66392 0.0
C1259 C 0.09433 0.77451 0.64869 0.0
C1260 C 0.07325 0.79862 0.65738 0.0
C1261 C 0.05208 0.79686 0.68161 0.0
C1262 C 0.11584 0.72267 0.65637 0.0
C1263 C 0.0732 0.82624 0.64122 0.0
H1264 H 0.18232 0.77358 0.6187 0.0
H1265 H 0.14292 0.77334 0.54852 0.0
H1266 H 0.12493 0.79179 0.67513 0.0
H1267 H 0.14017 0.75546 0.6818 0.0
H1268 H 0.16172 0.77423 0.6699 0.0
H1269 H 0.09666 0.77918 0.55763 0.0
H1270 H 0.09073 0.75787 0.59417 0.0
H1271 H 0.07535 0.79403 0.59027 0.0
H1272 H 0.07087 0.72834 0.6989 0.0
H1273 H 0.03624 0.8152 0.68871 0.0
H1274 H 0.1358 0.72094 0.66015 0.0
H1275 H 0.11764 0.72248 0.63169 0.0
H1276 H 0.11219 0.70452 0.6707 0.0
H1277 H 0.0912 0.82809 0.64564 0.0
H1278 H 0.05433 0.84308 0.64904 0.0
H1279 H 0.07495 0.82867 0.61588 0.0
C1280 C 0.267 0.92818 0.37214 0.0
C1281 C 0.24297 0.94767 0.36011 0.0
C1282 C 0.26712 0.90443 0.39414 0.0
C1283 C 0.24251 0.90012 0.40504 0.0
C1284 C 0.21794 0.92057 0.39428 0.0
C1285 C 0.21853 0.94376 0.37184 0.0
C1286 C 0.29395 0.88319 0.40427 0.0
C1287 C 0.19108 0.91736 0.4054 0.0
C1288 C 0.24303 0.82867 0.42649 0.0
C1289 C 0.23802 0.82351 0.45892 0.0
C1290 C 0.24578 0.85277 0.40908 0.0
C1291 C 0.24282 0.873 0.42418 0.0
C1292 C 0.23844 0.86769 0.45708 0.0
C1293 C 0.23641 0.84288 0.47408 0.0
C1294 C 0.25118 0.85683 0.37427 0.0
C1295 C 0.23508 0.88857 0.47428 0.0
H1296 H 0.28608 0.93077 0.36319 0.0
H1297 H 0.19979 0.95865 0.36296 0.0
H1298 H 0.29169 0.87647 0.42976 0.0
H1299 H 0.30024 0.86504 0.3943 0.0
H1300 H 0.31057 0.89077 0.3967 0.0
H1301 H 0.17336 0.93634 0.398 0.0
H1302 H 0.19152 0.90088 0.39606 0.0
H1303 H 0.1879 0.91144 0.43097 0.0
H1304 H 0.24468 0.81373 0.41448 0.0
H1305 H 0.23256 0.83911 0.49908 0.0
H1306 H 0.26907 0.86241 0.3651 0.0
H1307 H 0.23323 0.87383 0.36432 0.0
H1308 H 0.2552 0.83833 0.36613 0.0
H1309 H 0.25352 0.89333 0.46793 0.0
H1310 H 0.23181 0.88152 0.49973 0.0
H1311 H 0.21737 0.90777 0.46756 0.0
C1312 C 0.94237 0.66178 0.65095 0.0
C1313 C 0.95149 0.68294 0.64044 0.0
C1314 C 0.93934 0.64938 0.63024 0.0
C1315 C 0.94523 0.65864 0.59805 0.0
C1316 C 0.95251 0.68133 0.58724 0.0
C1317 C 0.95599 0.69297 0.6086 0.0
C1318 C 0.93013 0.62617 0.64355 0.0
C1319 C 0.95731 0.69289 0.55317 0.0
C1320 C 0.97198 0.60247 0.5536 0.0
C1321 C 0.94764 0.60419 0.54678 0.0
C1322 C 0.97173 0.6213 0.56846 0.0
C1323 C 0.94658 0.64268 0.57625 0.0
C1324 C 0.92232 0.64582 0.5672 0.0
C1325 C 0.92307 0.62638 0.55276 0.0
C1326 C -0.00194 0.61707 0.57791 0.0
C1327 C 0.89525 0.6686 0.57471 0.0
H1328 H 0.93879 0.65394 0.67554 0.0
H1329 H 0.96254 0.70969 0.6004 0.0
H1330 H 0.90766 0.63475 0.65104 0.0
H1331 H 0.93452 0.6131 0.62705 0.0
H1332 H 0.93993 0.61314 0.66435 0.0
H1333 H 0.95632 0.71385 0.54891 0.0
H1334 H 0.97789 0.67991 0.54296 0.0
H1335 H 0.94197 0.69325 0.54096 0.0
H1336 H -0.00891 0.58541 0.54912 0.0
H1337 H 0.90422 0.62802 0.54729 0.0
H1338 H -0.00412 0.6137 0.60343 0.0
H1339 H 0.00257 0.63547 0.56817 0.0
H1340 H 0.01583 0.59946 0.57001 0.0
H1341 H 0.8875 0.66383 0.59961 0.0
H1342 H 0.87964 0.67141 0.56112 0.0
H1343 H 0.89777 0.68802 0.57021 0.0
C1344 C 0.34421 0.74398 0.47534 0.0
C1345 C 0.32179 0.74316 0.46684 0.0
C1346 C 0.36799 0.74257 0.45396 0.0
C1347 C 0.36903 0.74119 0.4231 0.0
C1348 C 0.34641 0.74037 0.41446 0.0
C1349 C 0.32329 0.74099 0.43649 0.0
C1350 C 0.39189 0.74285 0.46431 0.0
C1351 C 0.34623 0.73974 0.38165 0.0
C1352 C 0.41629 0.76725 0.35934 0.0
C1353 C 0.43719 0.74302 0.35179 0.0
C1354 C 0.39413 0.76694 0.38257 0.0
C1355 C 0.39321 0.74172 0.39941 0.0
C1356 C 0.41472 0.71714 0.39251 0.0
C1357 C 0.43622 0.71809 0.36843 0.0
C1358 C 0.37128 0.79365 0.3884 0.0
C1359 C 0.41486 0.68984 0.41036 0.0
H1360 H 0.34319 0.74565 0.49875 0.0
H1361 H 0.30588 0.7408 0.42957 0.0
H1362 H 0.41095 0.72535 0.45842 0.0
H1363 H 0.39508 0.76166 0.45196 0.0
H1364 H 0.38871 0.74191 0.48955 0.0
H1365 H 0.34837 0.7581 0.36581 0.0
H1366 H 0.36391 0.72176 0.37448 0.0
H1367 H 0.3271 0.73903 0.3787 0.0
H1368 H 0.41675 0.78662 0.34631 0.0
H1369 H 0.45238 0.69932 0.36276 0.0
H1370 H 0.36875 0.79504 0.41282 0.0
H1371 H 0.35164 0.79481 0.3844 0.0
H1372 H 0.37506 0.8115 0.37325 0.0
H1373 H 0.41248 0.68879 0.43551 0.0
H1374 H 0.43403 0.67269 0.40379 0.0
H1375 H 0.39725 0.68719 0.40616 0.0
C1376 C 0.27756 0.07564 0.18395 0.0
C1377 C 0.25379 0.07047 0.19573 0.0
C1378 C 0.27733 0.09869 0.16075 0.0
C1379 C 0.25256 0.11773 0.14926 0.0
C1380 C 0.22861 0.11227 0.16049 0.0
C1381 C 0.22957 0.08868 0.18326 0.0
C1382 C 0.30356 0.10309 0.14919 0.0
C1383 C 0.20161 0.13201 0.1495 0.0
C1384 C 0.24796 0.19083 0.12081 0.0
C1385 C 0.25269 0.19396 0.08851 0.0
C1386 C 0.24691 0.16667 0.14051 0.0
C1387 C 0.25136 0.1444 0.12791 0.0
C1388 C 0.25588 0.14748 0.09521 0.0
C1389 C 0.25612 0.17231 0.07594 0.0
C1390 C 0.24134 0.16491 0.17501 0.0
C1391 C 0.26103 0.12435 0.08059 0.0
H1392 H 0.29644 0.06174 0.19316 0.0
H1393 H 0.21099 0.08513 0.19226 0.0
H1394 H 0.30721 0.10742 0.12356 0.0
H1395 H 0.3018 0.12103 0.15677 0.0
H1396 H 0.3216 0.08519 0.15787 0.0
H1397 H 0.18523 0.1242 0.15898 0.0
H1398 H 0.19499 0.1516 0.15666 0.0
H1399 H 0.2039 0.13635 0.12392 0.0
H1400 H 0.24498 0.20748 0.13086 0.0
H1401 H 0.25977 0.17445 0.05111 0.0
H1402 H 0.25952 0.14913 0.18568 0.0
H1403 H 0.22393 0.15874 0.18529 0.0
H1404 H 0.23649 0.18453 0.18116 0.0
H1405 H 0.27811 0.10572 0.08998 0.0
H1406 H 0.26616 0.12915 0.05507 0.0
H1407 H 0.24259 0.11964 0.08629 0.0
C1408 C 0.82746 0.76457 0.95478 0.0
C1409 C 0.82535 0.74025 0.97206 0.0
C1410 C 0.8503 0.76442 0.93262 0.0
C1411 C 0.87219 0.73928 0.9284 0.0
C1412 C 0.87056 0.71462 0.94652 0.0
C1413 C 0.84682 0.71537 0.96771 0.0
C1414 C 0.85048 0.79117 0.91298 0.0
C1415 C 0.89379 0.68747 0.94335 0.0
C1416 C 0.91725 0.73786 0.8503 0.0
C1417 C 0.93879 0.74239 0.85562 0.0
C1418 C 0.89561 0.7366 0.87383 0.0
C1419 C 0.89595 0.73896 0.90379 0.0
C1420 C 0.91816 0.74263 0.90957 0.0
C1421 C 0.93907 0.74485 0.88523 0.0
C1422 C 0.87184 0.7338 0.86627 0.0
C1423 C 0.91967 0.7445 0.94137 0.0
H1424 H 0.81065 0.78385 0.95776 0.0
H1425 H 0.84518 0.69659 0.9811 0.0
H1426 H 0.86857 0.79388 0.91562 0.0
H1427 H 0.85209 0.79117 0.88825 0.0
H1428 H 0.8317 0.80888 0.91909 0.0
H1429 H 0.89041 0.67043 0.96095 0.0
H1430 H 0.89615 0.68356 0.9201 0.0
H1431 H 0.91334 0.68769 0.94561 0.0
H1432 H 0.91676 0.73633 0.82731 0.0
H1433 H 0.95575 0.74827 0.8894 0.0
H1434 H 0.85266 0.75176 0.87054 0.0
H1435 H 0.869 0.71557 0.88149 0.0
H1436 H 0.87478 0.73209 0.84186 0.0
H1437 H 0.90278 0.76329 0.94777 0.0
H1438 H 0.93944 0.74479 0.94272 0.0
H1439 H 0.91704 0.72699 0.95871 0.0
C1440 C 0.21727 0.58962 0.67546 0.0
C1441 C 0.24128 0.56874 0.68628 0.0
C1442 C 0.21775 0.61364 0.65444 0.0
C1443 C 0.24294 0.61678 0.6432 0.0
C1444 C 0.26734 0.59513 0.65298 0.0
C1445 C 0.26617 0.57172 0.67455 0.0
C1446 C 0.19108 0.63622 0.64549 0.0
C1447 C 0.29476 0.59707 0.64144 0.0
C1448 C 0.24977 0.67392 0.57442 0.0
C1449 C 0.24972 0.69258 0.58954 0.0
C1450 C 0.24705 0.6494 0.59137 0.0
C1451 C 0.24367 0.6436 0.62426 0.0
C1452 C 0.24254 0.66302 0.63941 0.0
C1453 C 0.24588 0.68687 0.622 0.0
C1454 C 0.24843 0.62944 0.57407 0.0
C1455 C 0.23824 0.65843 0.67424 0.0
H1456 H 0.19786 0.58772 0.68444 0.0
H1457 H 0.28488 0.55572 0.68243 0.0
H1458 H 0.18648 0.65387 0.65559 0.0
H1459 H 0.19268 0.64329 0.62005 0.0
H1460 H 0.17365 0.62982 0.65371 0.0
H1461 H 0.31207 0.5775 0.64838 0.0
H1462 H 0.2976 0.60322 0.61588 0.0
H1463 H 0.29555 0.61291 0.65085 0.0
H1464 H 0.25276 0.67808 0.54942 0.0
H1465 H 0.24544 0.70124 0.63402 0.0
H1466 H 0.2291 0.62624 0.58044 0.0
H1467 H 0.2653 0.60943 0.58065 0.0
H1468 H 0.2518 0.63651 0.54863 0.0
H1469 H 0.21978 0.65387 0.68397 0.0
H1470 H 0.23575 0.67634 0.68252 0.0
H1471 H 0.25602 0.6406 0.68348 0.0
C1472 C 0.40066 0.02928 0.35949 0.0
C1473 C 0.3851 0.01409 0.37594 0.0
C1474 C 0.42035 0.03062 0.3729 0.0
C1475 C 0.42477 0.01629 0.40342 0.0
C1476 C 0.40887 1.00129 0.42025 0.0
C1477 C 0.38913 1.00049 0.40644 0.0
C1478 C 0.43674 0.04697 0.35423 0.0
C1479 C 0.41289 0.98584 0.45284 0.0
C1480 C 0.49454 0.99045 0.42812 0.0
C1481 C 0.48944 1.00715 0.44865 0.0
C1482 C 0.47403 0.99396 0.41224 0.0
C1483 C 0.44758 0.01477 0.417 0.0
C1484 C 0.44267 0.03259 0.43656 0.0
C1485 C 0.46379 0.02869 0.45198 0.0
C1486 C 0.48105 0.97524 0.39041 0.0
C1487 C 0.41498 0.05541 0.44169 0.0
H1488 H 0.39732 0.0403 0.3361 0.0
H1489 H 0.37727 0.98867 0.4193 0.0
H1490 H 0.4583 0.03298 0.34836 0.0
H1491 H 0.42854 0.05967 0.33243 0.0
H1492 H 0.4369 0.06041 0.36793 0.0
H1493 H 0.40553 1.0005 0.46824 0.0
H1494 H 0.40155 0.97247 0.46106 0.0
H1495 H 0.4349 0.97331 0.45471 0.0
H1496 H 0.51454 0.97407 0.42487 0.0
H1497 H 0.46018 0.04231 0.46681 0.0
H1498 H 0.48763 0.98497 0.36684 0.0
H1499 H 0.46334 0.97116 0.38929 0.0
H1500 H 0.49825 0.95548 0.39705 0.0
H1501 H 0.40759 0.06722 0.41927 0.0
H1502 H 0.41546 0.06947 0.45431 0.0
H1503 H 0.3999 0.04683 0.45534 0.0
C1504 C 0.83386 0.8673 0.99877 0.0
C1505 C 0.80619 0.88226 0.99513 0.0
C1506 C 0.84968 0.88022 1.00159 0.0
C1507 C 0.83742 0.90862 1.00013 0.0
C1508 C 0.81121 0.92418 0.99071 0.0
C1509 C 0.79551 0.91071 0.98894 0.0
C1510 C 0.87796 0.86307 1.01056 0.0
C1511 C 0.79848 0.95477 0.98646 0.0
C1512 C 0.84676 0.93406 0.06312 0.0
C1513 C 0.86615 0.94475 0.04771 0.0
C1514 C 0.83795 0.92151 0.04789 0.0
C1515 C 0.84822 0.92058 1.01624 0.0
C1516 C 0.86821 0.93109 1.00078 0.0
C1517 C 0.87754 0.94235 1.01715 0.0
C1518 C 0.81729 0.90965 0.06562 0.0
C1519 C 0.87976 0.9308 0.96716 0.0
H1520 H 0.84213 0.84525 1.00328 0.0
H1521 H 0.77421 0.92222 0.98553 0.0
H1522 H 0.89249 0.87249 0.99739 0.0
H1523 H 0.87723 0.86181 0.03547 0.0
H1524 H 0.88594 0.84208 1.00648 0.0
H1525 H 0.7814 0.96404 0.97249 0.0
H1526 H 0.79022 0.96052 1.00939 0.0
H1527 H 0.81405 0.96337 0.97503 0.0
H1528 H 0.83835 0.9358 0.08694 0.0
H1529 H 0.89339 0.94979 1.00587 0.0
H1530 H 0.82468 0.88826 0.06319 0.0
H1531 H 0.79763 0.92137 0.05611 0.0
H1532 H 0.81326 0.91005 0.0906 0.0
H1533 H 0.89891 0.91225 0.96543 0.0
H1534 H 0.8851 0.94866 0.9561 0.0
H1535 H 0.8653 0.93084 0.95394 0.0
C1536 C 0.72315 0.08764 0.52974 0.0
C1537 C 0.70421 0.1148 0.52584 0.0
C1538 C 0.71485 0.06651 0.5332 0.0
C1539 C 0.68707 0.07289 0.53233 0.0
C1540 C 0.66755 0.10011 0.5306 0.0
C1541 C 0.67638 0.12079 0.5275 0.0
C1542 C 0.73608 0.03763 0.53577 0.0
C1543 C 0.6377 0.10765 0.52967 0.0
C1544 C 0.66971 0.03011 0.49665 0.0
C1545 C 0.65794 0.01632 0.52265 0.0
C1546 C 0.6801 0.04795 0.49966 0.0
C1547 C 0.67888 0.05184 0.52943 0.0
C1548 C 0.66819 0.03701 0.55588 0.0
C1549 C 0.65763 0.01956 0.55214 0.0
C1550 C 0.69121 0.06359 0.47086 0.0
C1551 C 0.66691 0.04033 0.58799 0.0
H1552 H 0.74464 0.08305 0.52887 0.0
H1553 H 0.66176 0.14182 0.52432 0.0
H1554 H 0.72855 0.02365 0.55426 0.0
H1555 H 0.74001 0.03094 0.51376 0.0
H1556 H 0.75578 0.03564 0.54069 0.0
H1557 H 0.6248 0.12926 0.53121 0.0
H1558 H 0.63556 0.10434 0.50775 0.0
H1559 H 0.62967 0.09451 0.54886 0.0
H1560 H 0.66964 0.02793 0.47382 0.0
H1561 H 0.64865 1.00885 0.57232 0.0
H1562 H 0.71222 0.06061 0.47246 0.0
H1563 H 0.67819 0.08568 0.46863 0.0
H1564 H 0.69184 0.05728 0.44961 0.0
H1565 H 0.68672 0.03944 0.59106 0.0
H1566 H 0.66185 0.02446 0.60613 0.0
H1567 H 0.65098 0.06055 0.59149 0.0
C1568 C 0.81146 0.41048 0.27104 0.0
C1569 C 0.80833 0.43559 0.25102 0.0
C1570 C 0.83715 0.38849 0.27207 0.0
C1571 C 0.86032 0.39129 0.25191 0.0
C1572 C 0.85756 0.41702 0.23268 0.0
C1573 C 0.83158 0.439 0.23263 0.0
C1574 C 0.83936 0.36201 0.29429 0.0
C1575 C 0.88192 0.42103 0.2116 0.0
C1576 C 0.92999 0.33391 0.26804 0.0
C1577 C 0.93292 0.31626 0.24967 0.0
C1578 C 0.90701 0.35889 0.26841 0.0
C1579 C 0.88667 0.36665 0.24948 0.0
C1580 C 0.89039 0.34938 0.22979 0.0
C1581 C 0.91324 0.32437 0.23037 0.0
C1582 C 0.9047 0.37613 0.28991 0.0
C1583 C 0.86965 0.35687 0.20881 0.0
H1584 H 0.79364 0.4079 0.28583 0.0
H1585 H 0.82928 0.45844 0.21733 0.0
H1586 H 0.84456 0.34603 0.2812 0.0
H1587 H 0.85611 0.35513 0.30816 0.0
H1588 H 0.82002 0.36383 0.31028 0.0
H1589 H 0.87677 0.44245 0.19901 0.0
H1590 H 0.89861 0.41502 0.22524 0.0
H1591 H 0.88988 0.40767 0.19451 0.0
H1592 H 0.94504 0.32774 0.28317 0.0
H1593 H 0.91544 0.31084 0.21604 0.0
H1594 H 0.90651 0.36373 0.31372 0.0
H1595 H 0.88533 0.39456 0.29043 0.0
H1596 H 0.92209 0.38259 0.28275 0.0
H1597 H 0.85009 0.35673 0.22293 0.0
H1598 H 0.87672 0.34257 0.1929 0.0
H1599 H 0.86533 0.37776 0.19487 0.0
C1600 C 0.12589 0.5591 0.49625 0.0
C1601 C 0.09907 0.56522 0.51167 0.0
C1602 C 0.14114 0.57291 0.49835 0.0
C1603 C 0.12917 0.59335 0.51619 0.0
C1604 C 0.10261 0.5987 0.53302 0.0
C1605 C 0.08785 0.58456 0.53053 0.0
C1606 C 0.16946 0.56667 0.4801 0.0
C1607 C 0.08923 0.62029 0.55237 0.0
C1608 C 0.17603 0.62122 0.53018 0.0
C1609 C 0.17242 0.64363 0.50555 0.0
C1610 C 0.16154 0.60485 0.53457 0.0
C1611 C 0.14304 0.61137 0.51394 0.0
C1612 C 0.13859 0.63465 0.48982 0.0
C1613 C 0.15339 0.65046 0.4859 0.0
C1614 C 0.1667 0.58016 0.56052 0.0
C1615 C 0.11872 0.64248 0.4676 0.0
H1616 H 0.1346 0.54428 0.48152 0.0
H1617 H 0.06734 0.58893 0.54308 0.0
H1618 H 0.16919 0.58419 0.4609 0.0
H1619 H 0.18426 0.56358 0.49493 0.0
H1620 H 0.17692 0.54827 0.47016 0.0
H1621 H 0.08442 0.64069 0.53703 0.0
H1622 H 0.06991 0.61968 0.56684 0.0
H1623 H 0.10338 0.61787 0.56764 0.0
H1624 H 0.19078 0.61602 0.54534 0.0
H1625 H 0.15028 0.66815 0.46722 0.0
H1626 H 0.17696 0.56144 0.55077 0.0
H1627 H 0.14704 0.58003 0.57433 0.0
H1628 H 0.17982 0.57931 0.57613 0.0
H1629 H 0.12568 0.62624 0.4543 0.0
H1630 H 0.11676 0.66192 0.45101 0.0
H1631 H 0.09815 0.64454 0.48049 0.0
C1632 C 0.65349 0.07413 0.79937 0.0
C1633 C 0.6767 0.07671 0.77989 0.0
C1634 C 0.62809 0.09686 0.80067 0.0
C1635 C 0.62574 0.12257 0.78154 0.0
C1636 C 0.64882 0.12465 0.76047 0.0
C1637 C 0.67398 0.10189 0.76023 0.0
C1638 C 0.60415 0.09369 0.82358 0.0
C1639 C 0.64733 0.15125 0.73895 0.0
C1640 C 0.55614 0.18158 0.76894 0.0
C1641 C 0.55436 0.19837 0.78781 0.0
C1642 C 0.57881 0.15652 0.76721 0.0
C1643 C 0.60009 0.14779 0.78511 0.0
C1644 C 0.59779 0.16433 0.805 0.0
C1645 C 0.57516 0.18945 0.80587 0.0
C1646 C 0.58052 0.14002 0.74518 0.0
C1647 C 0.61971 0.15588 0.82477 0.0
H1648 H 0.65551 0.05476 0.81468 0.0
H1649 H 0.69182 0.10392 0.74489 0.0
H1650 H 0.59923 0.10546 0.84169 0.0
H1651 H 0.58569 0.10205 0.81203 0.0
H1652 H 0.60846 0.07208 0.8349 0.0
H1653 H 0.66605 0.14876 0.72162 0.0
H1654 H 0.62929 0.16021 0.72655 0.0
H1655 H 0.64479 0.166 0.75252 0.0
H1656 H 0.54033 0.18849 0.7546 0.0
H1657 H 0.57392 0.20234 0.82046 0.0
H1658 H 0.58531 0.11849 0.75701 0.0
H1659 H 0.5974 0.14023 0.72594 0.0
H1660 H 0.56118 0.14811 0.73526 0.0
H1661 H 0.62391 0.13493 0.83848 0.0
H1662 H 0.61386 0.1698 0.84083 0.0
H1663 H 0.63905 0.15568 0.80978 0.0
C1664 C 0.77792 0.5685 0.17326 0.0
C1665 C 0.7534 0.56449 0.18344 0.0
C1666 C 0.7786 0.59283 0.15336 0.0
C1667 C 0.75408 0.61431 0.14365 0.0
C1668 C 0.72933 0.61015 0.15327 0.0
C1669 C 0.72935 0.58534 0.17268 0.0
C1670 C 0.80559 0.59584 0.14338 0.0
C1671 C 0.70252 0.63241 0.14422 0.0
C1672 C 0.75275 0.68643 0.12352 0.0
C1673 C 0.75656 0.69232 0.09107 0.0
C1674 C 0.75129 0.66159 0.14069 0.0
C1675 C 0.75417 0.64155 0.12525 0.0
C1676 C 0.75794 0.64743 0.0924 0.0
C1677 C 0.75899 0.67268 0.0758 0.0
C1678 C 0.74667 0.65679 0.17551 0.0
C1679 C 0.76124 0.62689 0.07475 0.0
H1680 H 0.79667 0.55267 0.18123 0.0
H1681 H 0.7102 0.58275 0.18041 0.0
H1682 H 0.80912 0.60232 0.1179 0.0
H1683 H 0.80509 0.61188 0.15356 0.0
H1684 H 0.82315 0.57662 0.15062 0.0
H1685 H 0.68564 0.62522 0.15077 0.0
H1686 H 0.69673 0.64949 0.15585 0.0
H1687 H 0.70457 0.64059 0.11897 0.0
H1688 H 0.75064 0.70147 0.13566 0.0
H1689 H 0.76215 0.67686 0.05081 0.0
H1690 H 0.76451 0.63913 0.18487 0.0
H1691 H 0.72842 0.6518 0.1848 0.0
H1692 H 0.7436 0.67476 0.1841 0.0
H1693 H 0.77964 0.60802 0.08027 0.0
H1694 H 0.76334 0.63467 0.04937 0.0
H1695 H 0.74331 0.62128 0.08183 0.0
C1696 C 0.89514 0.56934 0.46509 0.0
C1697 C 0.92208 0.55213 0.45594 0.0
C1698 C 0.87321 0.5704 0.45348 0.0
C1699 C 0.87877 0.55524 0.43076 0.0
C1700 C 0.90622 0.54023 0.41904 0.0
C1701 C 0.92754 0.53849 0.43215 0.0
C1702 C 0.84419 0.58686 0.46623 0.0
C1703 C 0.91304 0.52531 0.39327 0.0
C1704 C 0.83412 0.52337 0.42155 0.0
C1705 C 0.82387 0.53992 0.3942 0.0
C1706 C 0.85016 0.52962 0.43528 0.0
C1707 C 0.85636 0.5527 0.42104 0.0
C1708 C 0.84441 0.57056 0.39474 0.0
C1709 C 0.82815 0.56401 0.3817 0.0
C1710 C 0.8626 0.51017 0.46338 0.0
C1711 C 0.85092 0.59506 0.37841 0.0
H1712 H 0.8912 0.58133 0.48191 0.0
H1713 H 0.94848 0.52578 0.42432 0.0
H1714 H 0.83401 0.60374 0.44775 0.0
H1715 H 0.83226 0.57397 0.47438 0.0
H1716 H 0.84335 0.59561 0.48565 0.0
H1717 H 0.93542 0.51366 0.38767 0.0
H1718 H 0.9027 0.51107 0.39951 0.0
H1719 H 0.9053 0.54016 0.37219 0.0
H1720 H 0.8308 0.50479 0.43131 0.0
H1721 H 0.82062 0.57669 0.36028 0.0
H1722 H 0.86023 0.52155 0.48094 0.0
H1723 H 0.88489 0.49895 0.45675 0.0
H1724 H 0.85326 0.4951 0.47385 0.0
H1725 H 0.85282 0.60507 0.39498 0.0
H1726 H 0.83503 0.61025 0.36387 0.0
H1727 H 0.87083 0.58838 0.36314 0.0
C1728 C 0.08794 0.52042 0.63024 0.0
C1729 C 0.09035 0.50937 0.66158 0.0
C1730 C 0.06771 0.51997 0.61701 0.0
C1731 C 0.04915 0.5086 0.63559 0.0
C1732 C 0.05155 0.49726 0.66723 0.0
C1733 C 0.07211 0.4978 0.67985 0.0
C1734 C 0.06582 0.53243 0.58332 0.0
C1735 C 0.0323 0.48472 0.68777 0.0
C1736 C 0.97923 0.53563 0.61089 0.0
C1737 C 0.98217 0.51545 0.5962 0.0
C1738 C 0.00091 0.53358 0.62371 0.0
C1739 C 0.02598 0.5105 0.62243 0.0
C1740 C 0.029 0.48986 0.60793 0.0
C1741 C 0.00701 0.49265 0.59483 0.0
C1742 C -0.00297 0.55622 0.63849 0.0
C1743 C 0.05556 0.46512 0.60583 0.0
H1744 H 0.10168 0.52978 0.61608 0.0
H1745 H 0.07411 0.48884 0.70401 0.0
H1746 H 0.06188 0.51976 0.5718 0.0
H1747 H 0.04852 0.55268 0.58102 0.0
H1748 H 0.08495 0.53494 0.5712 0.0
H1749 H 0.0379 0.47535 0.71142 0.0
H1750 H 0.01107 0.50052 0.68952 0.0
H1751 H 0.03233 0.46891 0.67757 0.0
H1752 H 0.9601 0.55344 0.61178 0.0
H1753 H 0.00922 0.47701 0.58356 0.0
H1754 H 0.01387 0.56332 0.62883 0.0
H1755 H -0.00232 0.54858 0.66366 0.0
H1756 H 0.97725 0.57386 0.63499 0.0
H1757 H 0.07213 0.47141 0.59167 0.0
H1758 H 0.05412 0.45022 0.59533 0.0
H1759 H 0.0616 0.4549 0.62917 0.0
C1760 C 0.57221 0.73925 0.1827 0.0
C1761 C 0.55134 0.76344 0.19032 0.0
C1762 C 0.59429 0.73967 0.15939 0.0
C1763 C 0.59495 0.76498 0.14244 0.0
C1764 C 0.57312 0.7895 0.14905 0.0
C1765 C 0.55188 0.78843 0.17342 0.0
C1766 C 0.61763 0.71304 0.15414 0.0
C1767 C 0.57254 0.81687 0.13088 0.0
C1768 C 0.66401 0.76895 0.10927 0.0
C1769 C 0.66718 0.76682 0.07853 0.0
C1770 C 0.64081 0.76803 0.13022 0.0
C1771 C 0.61968 0.7658 0.12005 0.0
C1772 C 0.62254 0.76402 0.08889 0.0
C1773 C 0.6465 0.76407 0.06861 0.0
C1774 C 0.63923 0.76883 0.16348 0.0
C1775 C 0.6003 0.76215 0.07694 0.0
H1776 H 0.57195 0.71989 0.19605 0.0
H1777 H 0.53566 0.80713 0.17923 0.0
H1778 H 0.62158 0.71171 0.12951 0.0
H1779 H 0.63665 0.71195 0.15982 0.0
H1780 H 0.61352 0.69514 0.16848 0.0
H1781 H 0.55262 0.83375 0.1362 0.0
H1782 H 0.58902 0.82059 0.13627 0.0
H1783 H 0.57643 0.81722 0.10573 0.0
H1784 H 0.68015 0.77048 0.1173 0.0
H1785 H 0.64893 0.76223 0.04494 0.0
H1786 H 0.63636 0.75067 0.17897 0.0
H1787 H 0.6213 0.78703 0.16976 0.0
H1788 H 0.65794 0.76937 0.16796 0.0
H1789 H 0.59773 0.74299 0.089 0.0
H1790 H 0.60489 0.76264 0.05171 0.0
H1791 H 0.58045 0.77924 0.08182 0.0
C1792 C 0.61346 0.53001 0.11347 0.0
C1793 C 0.62501 0.50605 0.13479 0.0
C1794 C 0.59417 0.53268 0.09625 0.0
C1795 C 0.58603 0.51096 0.10062 0.0
C1796 C 0.59786 0.48662 0.12203 0.0
C1797 C 0.61729 0.48442 0.13872 0.0
C1798 C 0.58254 0.55879 0.07347 0.0
C1799 C 0.58941 0.46316 0.12801 0.0
C1800 C 0.51541 0.5266 0.08438 0.0
C1801 C 0.52153 0.51698 0.0571 0.0
C1802 C 0.53617 0.52504 0.09849 0.0
C1803 C 0.56381 0.51416 0.08463 0.0
C1804 C 0.57011 0.50485 0.05673 0.0
C1805 C 0.54893 0.50582 0.04365 0.0
C1806 C 0.52855 0.53431 0.12876 0.0
C1807 C 0.59921 0.49387 0.04076 0.0
H1808 H 0.61966 0.54663 0.11016 0.0
H1809 H 0.62596 0.46595 0.15551 0.0
H1810 H 0.58876 0.5544 0.0499 0.0
H1811 H 0.55986 0.56744 0.07831 0.0
H1812 H 0.58981 0.57427 0.07409 0.0
H1813 H 0.60106 0.4454 0.14486 0.0
H1814 H 0.56724 0.46978 0.13709 0.0
H1815 H 0.5926 0.45654 0.10614 0.0
H1816 H 0.49427 0.53522 0.09498 0.0
H1817 H 0.55376 0.49822 0.02268 0.0
H1818 H 0.53784 0.54862 0.12765 0.0
H1819 H 0.53679 0.51649 0.14741 0.0
H1820 H 0.50601 0.54437 0.13518 0.0
H1821 H 0.60823 0.50903 0.03649 0.0
H1822 H 0.60053 0.48889 1.01837 0.0
H1823 H 0.61186 0.47523 0.05582 0.0
C1824 C 0.36016 0.44622 1.01202 0.0
C1825 C 0.35375 0.47418 1.00214 0.0
C1826 C 0.34465 0.43447 1.00591 0.0
C1827 C 0.3219 0.45115 0.98986 0.0
C1828 C 0.31622 0.4791 0.97822 0.0
C1829 C 0.33225 0.49033 0.98453 0.0
C1830 C 0.35164 0.40444 1.01842 0.0
C1831 C 0.29232 0.49753 0.96077 0.0
C1832 C 0.29305 0.40813 0.97115 0.0
C1833 C 0.2752 0.40506 0.99855 0.0
C1834 C 0.30673 0.42531 0.96634 0.0
C1835 C 0.30231 0.43968 0.98946 0.0
C1836 C 0.28218 0.43887 1.01551 0.0
C1837 C 0.26902 0.42145 1.01984 0.0
C1838 C 0.32756 0.42625 0.93787 0.0
C1839 C 0.27649 0.45431 0.04044 0.0
H1840 H 0.3766 0.43363 0.0258 0.0
H1841 H 0.32766 0.51185 0.9761 0.0
H1842 H 0.33538 0.4017 0.03737 0.0
H1843 H 0.35262 0.39444 1.00013 0.0
H1844 H 0.37154 0.3939 0.02759 0.0
H1845 H 0.29498 0.51622 0.9466 0.0
H1846 H 0.28947 0.48694 0.94551 0.0
H1847 H 0.27331 0.50377 0.97751 0.0
H1848 H 0.29736 0.3961 0.95416 0.0
H1849 H 0.25543 0.41921 0.04118 0.0
H1850 H 0.34845 0.41334 0.94408 0.0
H1851 H 0.32639 0.44728 0.92842 0.0
H1852 H 0.32467 0.4186 0.91957 0.0
H1853 H 0.29403 0.44454 0.05374 0.0
H1854 H 0.25766 0.45465 0.05677 0.0
H1855 H 0.27419 0.47559 0.03014 0.0
C1856 C 0.08882 0.19344 0.26856 0.0
C1857 C 0.06496 0.19643 0.28995 0.0
C1858 C 0.11056 0.16786 0.26776 0.0
C1859 C 0.10893 0.14467 0.2897 0.0
C1860 C 0.08433 0.14739 0.31054 0.0
C1861 C 0.06244 0.17322 0.31011 0.0
C1862 C 0.13585 0.16594 0.24435 0.0
C1863 C 0.08179 0.12338 0.33455 0.0
C1864 C 0.16583 0.07564 0.27748 0.0
C1865 C 0.18549 0.07361 0.29364 0.0
C1866 C 0.14028 0.09819 0.27672 0.0
C1867 C 0.13415 0.11874 0.29311 0.0
C1868 C 0.15352 0.11575 0.31086 0.0
C1869 C 0.17905 0.09354 0.31044 0.0
C1870 C 0.12066 0.10081 0.25685 0.0
C1871 C 0.1478 0.1367 0.32927 0.0
H1872 H 0.09071 0.21131 0.25267 0.0
H1873 H 0.044 0.17549 0.32668 0.0
H1874 H 0.15307 0.16177 0.25623 0.0
H1875 H 0.14212 0.14886 0.23256 0.0
H1876 H 0.13259 0.18501 0.22661 0.0
H1877 H 0.06047 0.128 0.34657 0.0
H1878 H 0.08847 0.10556 0.32388 0.0
H1879 H 0.09542 0.1175 0.35199 0.0
H1880 H 0.17101 0.06048 0.264 0.0
H1881 H 0.1943 0.09201 0.32288 0.0
H1882 H 0.1206 0.11697 0.23598 0.0
H1883 H 0.09946 0.10693 0.26936 0.0
H1884 H 0.12647 0.08154 0.24931 0.0
H1885 H 0.14739 0.15596 0.31331 0.0
H1886 H 0.16356 0.12988 0.34451 0.0
H1887 H 0.12743 0.1412 0.34373 0.0
C1888 C 0.22762 0.33506 0.9562 0.0
C1889 C 0.228 0.31411 0.94472 0.0
C1890 C 0.22745 0.35976 0.93622 0.0
C1891 C 0.22861 0.36332 0.90381 0.0
C1892 C 0.22966 0.34185 0.89225 0.0
C1893 C 0.22898 0.31789 0.91273 0.0
C1894 C 0.22621 0.38188 0.94995 0.0
C1895 C 0.23177 0.34405 0.85802 0.0
C1896 C 0.20463 0.43286 0.84837 0.0
C1897 C 0.22938 0.43569 0.83492 0.0
C1898 C 0.20397 0.41019 0.87182 0.0
C1899 C 0.22871 0.38922 0.88166 0.0
C1900 C 0.25373 0.39214 0.86838 0.0
C1901 C 0.25372 0.41536 0.84558 0.0
C1902 C 0.17672 0.40852 0.88594 0.0
C1903 C 0.28069 0.37033 0.8776 0.0
H1904 H 0.22705 0.33236 0.98077 0.0
H1905 H 0.22959 0.30178 0.90345 0.0
H1906 H 0.24721 0.38087 0.94761 0.0
H1907 H 0.21345 0.40237 0.93784 0.0
H1908 H 0.21777 0.37943 0.97486 0.0
H1909 H 0.23345 0.3252 0.85255 0.0
H1910 H 0.21347 0.36127 0.84903 0.0
H1911 H 0.24997 0.34831 0.84554 0.0
H1912 H 0.18567 0.4485 0.84068 0.0
H1913 H 0.27303 0.41716 0.8354 0.0
H1914 H 0.17455 0.40478 0.9115 0.0
H1915 H 0.17567 0.39115 0.87994 0.0
H1916 H 0.15919 0.4274 0.87785 0.0
H1917 H 0.2805 0.36733 0.90274 0.0
H1918 H 0.29841 0.37542 0.86496 0.0
H1919 H 0.2837 0.35068 0.87301 0.0
C1920 C 0.34084 0.24558 0.96877 0.0
C1921 C 0.31928 0.24369 0.95967 0.0
C1922 C 0.36469 0.24496 0.94788 0.0
C1923 C 0.36658 0.24348 0.91683 0.0
C1924 C 0.3447 0.2418 0.90754 0.0
C1925 C 0.32158 0.24146 0.92917 0.0
C1926 C 0.38781 0.24603 0.95898 0.0
C1927 C 0.34533 0.24116 0.87449 0.0
C1928 C 0.41378 0.27068 0.85419 0.0
C1929 C 0.43497 0.24667 0.84641 0.0
C1930 C 0.39158 0.26994 0.87722 0.0
C1931 C 0.39096 0.24452 0.89373 0.0
C1932 C 0.41298 0.22018 0.88695 0.0
C1933 C 0.43444 0.22155 0.86298 0.0
C1934 C 0.36817 0.29642 0.8828 0.0
C1935 C 0.41359 0.19267 0.90459 0.0
H1936 H 0.33915 0.24731 0.99232 0.0
H1937 H 0.30476 0.24047 0.92187 0.0
H1938 H 0.40728 0.22878 0.95348 0.0
H1939 H 0.39061 0.26506 0.94684 0.0
H1940 H 0.384 0.24521 0.98425 0.0
H1941 H 0.32652 0.24024 0.87089 0.0
H1942 H 0.34751 0.2596 0.8589 0.0
H1943 H 0.36332 0.22327 0.86758 0.0
H1944 H 0.41385 0.29019 0.84122 0.0
H1945 H 0.45077 0.20294 0.8571 0.0
H1946 H 0.36408 0.29736 0.90758 0.0
H1947 H 0.34923 0.29766 0.87674 0.0
H1948 H 0.37228 0.31445 0.86895 0.0
H1949 H 0.41018 0.19181 0.92982 0.0
H1950 H 0.43334 0.17583 0.89868 0.0
H1951 H 0.39679 0.18931 0.8994 0.0
C1952 C 0.41331 0.55976 0.94599 0.0
C1953 C 0.44016 0.55072 0.93053 0.0
C1954 C 0.39243 0.55762 0.9357 0.0
C1955 C 0.39854 0.54707 0.90878 0.0
C1956 C 0.42548 0.53881 0.89252 0.0
C1957 C 0.44599 0.54058 0.90373 0.0
C1958 C 0.36399 0.56623 0.95381 0.0
C1959 C 0.4327 0.52794 0.86336 0.0
C1960 C 0.35747 0.51411 0.89274 0.0
C1961 C 0.34293 0.53439 0.86969 0.0
C1962 C 0.37463 0.51851 0.90685 0.0
C1963 C 0.37716 0.54381 0.89781 0.0
C1964 C 0.36135 0.56488 0.87586 0.0
C1965 C 0.34436 0.55991 0.86207 0.0
C1966 C 0.39157 0.49543 0.92976 0.0
C1967 C 0.36368 0.59204 0.86548 0.0
H1968 H 0.40868 0.5683 0.96617 0.0
H1969 H 0.46675 0.5337 0.89161 0.0
H1970 H 0.34942 0.58372 0.93945 0.0
H1971 H 0.35697 0.5494 0.95981 0.0
H1972 H 0.36308 0.57221 0.97541 0.0
H1973 H 0.45487 0.52141 0.85417 0.0
H1974 H 0.42708 0.51035 0.86771 0.0
H1975 H 0.42081 0.54387 0.84535 0.0
H1976 H 0.35669 0.49424 0.89852 0.0
H1977 H 0.33285 0.57574 0.84455 0.0
H1978 H 0.3916 0.50297 0.94972 0.0
H1979 H 0.41312 0.48674 0.91868 0.0
H1980 H 0.38407 0.47885 0.93816 0.0
H1981 H 0.36156 0.60042 0.8857 0.0
H1982 H 0.34798 0.60713 0.85066 0.0
H1983 H 0.38427 0.58932 0.85217 0.0
C1984 C 0.60962 0.70012 0.02614 0.0
C1985 C 0.63432 0.68517 0.03841 0.0
C1986 C 0.59181 0.68778 0.02834 0.0
C1987 C 0.59923 0.66014 0.0431 0.0
C1988 C 0.62068 0.64733 0.06135 0.0
C1989 C 0.63847 0.65994 0.05847 0.0
C1990 C 0.5677 0.70277 1.01063 0.0
C1991 C 0.62729 0.61876 0.07994 0.0
C1992 C 0.55913 0.62517 0.02871 0.0
C1993 C 0.57592 0.61383 1.00318 0.0
C1994 C 0.56675 0.63937 0.04307 0.0
C1995 C 0.59141 0.64304 0.03102 0.0
C1996 C 0.60859 0.6315 1.00546 0.0
C1997 C 0.60088 0.61663 0.99236 0.0
C1998 C 0.54811 0.65016 0.07096 0.0
C1999 C 0.6351 0.63506 0.9915 0.0
H2000 H 0.60589 0.72021 1.01177 0.0
H2001 H 0.65715 0.64869 0.06887 0.0
H2002 H 0.57301 0.69554 0.98869 0.0
H2003 H 0.5497 0.69861 0.02411 0.0
H2004 H 0.562 0.72509 1.00501 0.0
H2005 H 0.63905 0.61459 0.09872 0.0
H2006 H 0.60824 0.61532 0.09011 0.0
H2007 H 0.63992 0.60403 0.06461 0.0
H2008 H 0.53988 0.62314 0.03768 0.0
H2009 H 0.61468 0.60706 0.97363 0.0
H2010 H 0.55585 0.66071 0.08127 0.0
H2011 H 0.54536 0.633 0.08889 0.0
H2012 H 0.52757 0.66444 0.06452 0.0
H2013 H 0.63123 0.657 0.98493 0.0
H2014 H 0.64518 0.62605 0.97062 0.0
H2015 H 0.64964 0.62522 1.00866 0.0
C2016 C 0.91179 0.83481 0.73016 0.0
C2017 C 0.93031 0.82332 0.75164 0.0
C2018 C 0.8889 0.85957 0.73179 0.0
C2019 C 0.88392 0.87323 0.75585 0.0
C2020 C 0.90319 0.86226 0.77697 0.0
C2021 C 0.92624 0.8375 0.77452 0.0
C2022 C 0.86931 0.87045 0.70847 0.0
C2023 C 0.89872 0.87588 0.80314 0.0
C2024 C 0.82827 0.94598 0.74645 0.0
C2025 C 0.80478 0.94131 0.76166 0.0
C2026 C 0.85445 0.92424 0.74536 0.0
C2027 C 0.85724 0.8973 0.76032 0.0
C2028 C 0.83365 0.89293 0.7772 0.0
C2029 C 0.80783 0.91483 0.77737 0.0
C2030 C 0.87889 0.92991 0.72699 0.0
C2031 C 0.83545 0.86484 0.79413 0.0
H2032 H 0.91482 0.82401 0.71236 0.0
H2033 H 0.94032 0.82863 0.79137 0.0
H2034 H 0.84951 0.86919 0.72014 0.0
H2035 H 0.86507 0.8922 0.69825 0.0
H2036 H 0.87737 0.85894 0.68953 0.0
H2037 H 0.91711 0.86703 0.81498 0.0
H2038 H 0.89329 0.89803 0.7946 0.0
H2039 H 0.88129 0.87347 0.82033 0.0
H2040 H 0.82607 0.9664 0.73432 0.0
H2041 H 0.7898 0.91112 0.78958 0.0
H2042 H 0.88603 0.92087 0.70611 0.0
H2043 H 0.89611 0.92029 0.74074 0.0
H2044 H 0.87402 0.95207 0.71957 0.0
H2045 H 0.84074 0.85187 0.77718 0.0
H2046 H 0.81588 0.86528 0.80882 0.0
H2047 H 0.85192 0.8551 0.80894 0.0
C2048 C 0.51999 0.15104 0.60368 0.0
C2049 C 0.52413 0.13712 0.63415 0.0
C2050 C 0.5226 0.13715 0.58102 0.0
C2051 C 0.52902 0.10885 0.58921 0.0
C2052 C 0.53548 0.09446 0.61916 0.0
C2053 C 0.53321 0.10871 0.64115 0.0
C2054 C 0.51661 0.15307 0.54899 0.0
C2055 C 0.54256 0.0643 0.62885 0.0
C2056 C 0.49591 0.07735 0.55646 0.0
C2057 C 0.51849 0.06016 0.5394 0.0
C2058 C 0.49885 0.09448 0.57132 0.0
C2059 C 0.52494 0.09487 0.56861 0.0
C2060 C 0.54738 0.07926 0.54934 0.0
C2061 C 0.54394 0.06187 0.53517 0.0
C2062 C 0.4744 0.11059 0.59187 0.0
C2063 C 0.57535 0.07968 0.54502 0.0
H2064 H 0.51306 0.173 0.59795 0.0
H2065 H 0.53721 0.09772 0.66439 0.0
H2066 H 0.53138 0.14167 0.53125 0.0
H2067 H 0.4958 0.15626 0.54632 0.0
H2068 H 0.51746 0.1733 0.54451 0.0
H2069 H 0.5488 0.05582 0.65228 0.0
H2070 H 0.52446 0.06036 0.62883 0.0
H2071 H 0.55942 0.05328 0.6122 0.0
H2072 H 0.47619 0.07619 0.55991 0.0
H2073 H 0.56142 0.04896 0.52163 0.0
H2074 H 0.4714 0.13227 0.58601 0.0
H2075 H 0.47809 0.10264 0.61631 0.0
H2076 H 0.4552 0.10946 0.58988 0.0
H2077 H 0.57369 0.1006 0.54287 0.0
H2078 H 0.58857 0.07175 0.52427 0.0
H2079 H 0.58566 0.06673 0.56546 0.0
C2080 C 0.48871 0.40713 0.85975 0.0
C2081 C 0.50342 0.3788 0.86474 0.0
C2082 C 0.4897 0.42266 0.8784 0.0
C2083 C 0.50585 0.4096 0.90269 0.0
C2084 C 0.52069 0.38099 0.90799 0.0
C2085 C 0.51924 0.3659 0.889 0.0
C2086 C 0.47331 0.45307 0.87217 0.0
C2087 C 0.53796 0.36637 0.93381 0.0
C2088 C 0.52327 0.45691 0.93144 0.0
C2089 C 0.50226 0.46357 0.95629 0.0
C2090 C 0.52552 0.43834 0.9146 0.0
C2091 C 0.50641 0.42606 0.9229 0.0
C2092 C 0.48615 0.43157 0.949 0.0
C2093 C 0.48432 0.45027 0.96525 0.0
C2094 C 0.54742 0.43298 0.88691 0.0
C2095 C 0.46527 0.41907 0.95878 0.0
H2096 H 0.47608 0.41719 0.84139 0.0
H2097 H 0.53078 0.34405 0.89285 0.0
H2098 H 0.45886 0.45918 0.89309 0.0
H2099 H 0.48721 0.4638 0.86673 0.0
H2100 H 0.46142 0.46005 0.85269 0.0
H2101 H 0.54861 0.34411 0.93461 0.0
H2102 H 0.55353 0.37473 0.93099 0.0
H2103 H 0.52488 0.36977 0.95631 0.0
H2104 H 0.53721 0.46711 0.92421 0.0
H2105 H 0.4682 0.45503 0.9845 0.0
H2106 H 0.53774 0.44199 0.8655 0.0
H2107 H 0.55865 0.41078 0.8878 0.0
H2108 H 0.56237 0.44182 0.88538 0.0
H2109 H 0.44941 0.4298 0.94312 0.0
H2110 H 0.45492 0.42073 0.98277 0.0
H2111 H 0.47489 0.39728 0.95723 0.0
C2112 C 0.50043 0.83592 0.43891 0.0
C2113 C 0.48388 0.85131 0.41554 0.0
C2114 C 0.50312 0.84837 0.45997 0.0
C2115 C 0.48927 0.8769 0.45727 0.0
C2116 C 0.4709 0.89216 0.43526 0.0
C2117 C 0.46831 0.87914 0.4148 0.0
C2118 C 0.52209 0.83121 0.48383 0.0
C2119 C 0.45453 0.92238 0.43253 0.0
C2120 C 0.48654 0.91524 0.51566 0.0
C2121 C 0.50855 0.92299 0.50249 0.0
C2122 C 0.48076 0.89899 0.50215 0.0
C2123 C 0.49678 0.89124 0.47427 0.0
C2124 C 0.51925 0.89879 0.46117 0.0
C2125 C 0.52514 0.91415 0.47576 0.0
C2126 C 0.45735 0.89046 0.51739 0.0
C2127 C 0.53612 0.892 0.43075 0.0
H2128 H 0.51255 0.81437 0.4397 0.0
H2129 H 0.45484 0.89096 0.3974 0.0
H2130 H 0.54138 0.8345 0.47672 0.0
H2131 H 0.51269 0.83718 0.50654 0.0
H2132 H 0.52731 0.80916 0.48664 0.0
H2133 H 0.43696 0.92592 0.45139 0.0
H2134 H 0.46708 0.93254 0.43489 0.0
H2135 H 0.44627 0.93212 0.41021 0.0
H2136 H 0.47365 0.92217 0.53631 0.0
H2137 H 0.54175 0.9207 0.46514 0.0
H2138 H 0.46511 0.86792 0.52291 0.0
H2139 H 0.44217 0.89793 0.50135 0.0
H2140 H 0.44681 0.89821 0.53899 0.0
H2141 H 0.54546 0.86966 0.43236 0.0
H2142 H 0.55274 0.89958 0.42357 0.0
H2143 H 0.5227 0.90117 0.41244 0.0
C2144 C 0.47217 0.62311 1.01408 0.0
C2145 C 0.45746 0.60657 0.02669 0.0
C2146 C 0.47207 0.64075 0.0307 0.0
C2147 C 0.45727 0.64142 0.06089 0.0
C2148 C 0.44052 0.62651 0.07255 0.0
C2149 C 0.44072 0.60932 0.05524 0.0
C2150 C 0.48829 0.65808 1.0159 0.0
C2151 C 0.42387 0.62721 0.10429 0.0
C2152 C 0.48736 0.64851 0.12259 0.0
C2153 C 0.47111 0.67549 0.12575 0.0
C2154 C 0.48349 0.63757 0.10092 0.0
C2155 C 0.4626 0.65388 0.0821 0.0
C2156 C 0.44653 0.68135 0.08456 0.0
C2157 C 0.45094 0.69185 0.10642 0.0
C2158 C 0.5012 0.60817 0.09904 0.0
C2159 C 0.42451 0.69944 0.0644 0.0
H2160 H 0.48464 0.6215 0.99163 0.0
H2161 H 0.42925 0.59663 0.06507 0.0
H2162 H 0.4747 0.67784 1.00329 0.0
H2163 H 0.49616 0.66245 0.03304 0.0
H2164 H 0.50578 0.64837 0.99883 0.0
H2165 H 0.40886 0.61795 0.10801 0.0
H2166 H 0.43779 0.61577 0.12205 0.0
H2167 H 0.41267 0.64845 0.10784 0.0
H2168 H 0.50267 0.63558 0.13775 0.0
H2169 H 0.43851 0.71281 0.10855 0.0
H2170 H 0.50874 0.60592 0.07469 0.0
H2171 H 0.48881 0.59584 0.10931 0.0
H2172 H 0.5191 0.59971 0.11159 0.0
H2173 H 0.43383 0.70129 0.03978 0.0
H2174 H 0.41328 0.72014 0.0697 0.0
H2175 H 0.40961 0.69021 0.06741 0.0
loop_
_geom_bond_atom_site_label_1
_geom_bond_atom_site_label_2
_geom_bond_distance
_geom_bond_site_symmetry_2
_ccdc_geom_bond_type
Gd0 C3 2.818 . S
Gd0 O20 2.377 1_654 S
Gd0 O22 2.448 . S
Gd0 O23 2.506 . S
Gd0 O24 2.435 1_655 S
Gd0 O25 2.717 1_655 S
Gd0 O27 2.395 1_565 S
Gd0 O31 2.327 1_564 S
Gd1 C12 2.818 . S
Gd1 O21 2.395 1_545 S
Gd1 O25 2.327 1_546 S
Gd1 O26 2.377 1_456 S
Gd1 O28 2.448 . S
Gd1 O29 2.506 . S
Gd1 O30 2.435 1_455 S
Gd1 O31 2.717 1_455 S
C2 O20 1.240 . S
C2 O21 1.240 . S
C3 Gd0 2.818 . S
C3 C4 1.510 . S
C3 O22 1.249 . S
C3 O23 1.252 . S
C4 C3 1.510 . S
C4 C5 1.404 . S
C4 C6 1.352 . S
C5 C4 1.404 . S
C5 C9 1.389 . S
C5 H32 0.930 . S
C6 C4 1.352 . S
C6 C8 1.374 . S
C6 H33 0.931 1_554 S
C7 C8 1.359 . S
C7 C9 1.364 . S
C8 C6 1.374 . S
C8 C7 1.359 . S
C8 H34 0.931 . S
C9 C5 1.389 . S
C9 C7 1.364 . S
C9 H35 0.931 . S
C10 O24 1.256 . S
C10 O25 1.257 . S
C11 O26 1.240 . S
C11 O27 1.240 . S
C12 Gd1 2.818 . S
C12 C13 1.510 . S
C12 O28 1.249 . S
C12 O29 1.252 . S
C13 C12 1.510 . S
C13 C14 1.404 . S
C13 C15 1.352 . S
C14 C13 1.404 . S
C14 C18 1.389 . S
C14 H36 0.930 . S
C15 C13 1.352 . S
C15 C17 1.374 . S
C15 H37 0.931 1_556 S
C16 C17 1.359 . S
C16 C18 1.364 . S
C17 C15 1.374 . S
C17 C16 1.359 . S
C17 H38 0.931 . S
C18 C14 1.389 . S
C18 C16 1.364 . S
C18 H39 0.931 . S
C19 O30 1.256 . S
C19 O31 1.257 . S
O20 Gd0 2.377 1_456 S
O20 C2 1.240 . S
O21 Gd1 2.395 1_565 S
O21 C2 1.240 . S
O22 Gd0 2.448 . S
O22 C3 1.249 . S
O23 Gd0 2.506 . S
O23 C3 1.252 . S
O24 Gd0 2.435 1_455 S
O24 C10 1.256 . S
O25 Gd0 2.717 1_455 S
O25 Gd1 2.327 1_564 S
O25 C10 1.257 . S
O26 Gd1 2.377 1_654 S
O26 C11 1.240 . S
O27 Gd0 2.395 1_545 S
O27 C11 1.240 . S
O28 Gd1 2.448 . S
O28 C12 1.249 . S
O29 Gd1 2.506 . S
O29 C12 1.252 . S
O30 Gd1 2.435 1_655 S
O30 C19 1.256 . S
O31 Gd0 2.327 1_546 S
O31 Gd1 2.717 1_655 S
O31 C19 1.257 . S
H32 C5 0.930 . S
H33 C6 0.931 1_556 S
H34 C8 0.931 . S
H35 C9 0.931 . S
H36 C14 0.930 . S
H37 C15 0.931 1_554 S
H38 C17 0.931 . S
H39 C18 0.931 . S
Gd40 C43 2.818 . S
Gd40 O60 2.377 1_455 S
Gd40 O62 2.448 . S
Gd40 O63 2.506 1_455 S
Gd40 O64 2.435 . S
Gd40 O65 2.717 . S
Gd40 O67 2.395 . S
Gd40 O71 2.327 1_455 S
Gd41 C52 2.818 . S
Gd41 O61 2.395 . S
Gd41 O65 2.327 1_655 S
Gd41 O66 2.377 1_655 S
Gd41 O68 2.448 . S
Gd41 O69 2.506 1_655 S
Gd41 O70 2.435 . S
Gd41 O71 2.717 . S
C42 O60 1.240 . S
C42 O61 1.240 . S
C43 Gd40 2.818 . S
C43 C44 1.510 1_455 S
C43 O62 1.249 . S
C43 O63 1.252 1_455 S
C44 C43 1.510 1_655 S
C44 C45 1.404 1_655 S
C44 C46 1.352 . S
C45 C44 1.404 1_455 S
C45 C49 1.389 . S
C45 H72 0.930 . S
C46 C44 1.352 . S
C46 C48 1.374 . S
C46 H73 0.931 . S
C47 C48 1.359 . S
C47 C49 1.364 1_655 S
C48 C46 1.374 . S
C48 C47 1.359 . S
C48 H74 0.931 . S
C49 C45 1.389 . S
C49 C47 1.364 1_455 S
C49 H75 0.931 . S
C50 O64 1.256 . S
C50 O65 1.257 . S
C51 O66 1.240 . S
C51 O67 1.240 . S
C52 Gd41 2.818 . S
C52 C53 1.510 1_655 S
C52 O68 1.249 . S
C52 O69 1.252 1_655 S
C53 C52 1.510 1_455 S
C53 C54 1.404 1_455 S
C53 C55 1.352 . S
C54 C53 1.404 1_655 S
C54 C58 1.389 . S
C54 H76 0.930 . S
C55 C53 1.352 . S
C55 C57 1.374 . S
C55 H77 0.931 . S
C56 C57 1.359 . S
C56 C58 1.364 1_455 S
C57 C55 1.374 . S
C57 C56 1.359 . S
C57 H78 0.931 . S
C58 C54 1.389 . S
C58 C56 1.364 1_655 S
C58 H79 0.931 . S
C59 O70 1.256 . S
C59 O71 1.257 . S
O60 Gd40 2.377 1_655 S
O60 C42 1.240 . S
O61 Gd41 2.395 . S
O61 C42 1.240 . S
O62 Gd40 2.448 . S
O62 C43 1.249 . S
O63 Gd40 2.506 1_655 S
O63 C43 1.252 1_655 S
O64 Gd40 2.435 . S
O64 C50 1.256 . S
O65 Gd40 2.717 . S
O65 Gd41 2.327 1_455 S
O65 C50 1.257 . S
O66 Gd41 2.377 1_455 S
O66 C51 1.240 . S
O67 Gd40 2.395 . S
O67 C51 1.240 . S
O68 Gd41 2.448 . S
O68 C52 1.249 . S
O69 Gd41 2.506 1_455 S
O69 C52 1.252 1_455 S
O70 Gd41 2.435 . S
O70 C59 1.256 . S
O71 Gd40 2.327 1_655 S
O71 Gd41 2.717 . S
O71 C59 1.257 . S
H72 C45 0.930 . S
H73 C46 0.931 . S
H74 C48 0.931 . S
H75 C49 0.931 . S
H76 C54 0.930 . S
H77 C55 0.931 . S
H78 C57 0.931 . S
H79 C58 0.931 . S
Gd80 C83 2.818 . S
Gd80 O100 2.377 . S
Gd80 O102 2.448 . S
Gd80 O103 2.506 . S
Gd80 O104 2.435 . S
Gd80 O105 2.717 . S
Gd80 O107 2.395 . S
Gd80 O111 2.327 . S
Gd81 C92 2.818 . S
Gd81 O101 2.395 . S
Gd81 O105 2.327 . S
Gd81 O106 2.377 . S
Gd81 O108 2.448 . S
Gd81 O109 2.506 . S
Gd81 O110 2.435 . S
Gd81 O111 2.717 . S
C82 O100 1.240 . S
C82 O101 1.240 . S
C83 Gd80 2.818 . S
C83 C84 1.510 . S
C83 O102 1.249 . S
C83 O103 1.252 . S
C84 C83 1.510 . S
C84 C85 1.404 . S
C84 C86 1.352 . S
C85 C84 1.404 . S
C85 C89 1.389 . S
C85 H112 0.930 . S
C86 C84 1.352 . S
C86 C88 1.374 . S
C86 H113 0.931 . S
C87 C88 1.359 . S
C87 C89 1.364 . S
C88 C86 1.374 . S
C88 C87 1.359 . S
C88 H114 0.931 . S
C89 C85 1.389 . S
C89 C87 1.364 . S
C89 H115 0.931 . S
C90 O104 1.256 . S
C90 O105 1.257 . S
C91 O106 1.240 . S
C91 O107 1.240 . S
C92 Gd81 2.818 . S
C92 C93 1.510 . S
C92 O108 1.249 . S
C92 O109 1.252 . S
C93 C92 1.510 . S
C93 C94 1.404 . S
C93 C95 1.352 . S
C94 C93 1.404 . S
C94 C98 1.389 . S
C94 H116 0.930 . S
C95 C93 1.352 . S
C95 C97 1.374 . S
C95 H117 0.931 . S
C96 C97 1.359 . S
C96 C98 1.364 . S
C97 C95 1.374 . S
C97 C96 1.359 . S
C97 H118 0.931 . S
C98 C94 1.389 . S
C98 C96 1.364 . S
C98 H119 0.931 . S
C99 O110 1.256 . S
C99 O111 1.257 . S
O100 Gd80 2.377 . S
O100 C82 1.240 . S
O101 Gd81 2.395 . S
O101 C82 1.240 . S
O102 Gd80 2.448 . S
O102 C83 1.249 . S
O103 Gd80 2.506 . S
O103 C83 1.252 . S
O104 Gd80 2.435 . S
O104 C90 1.256 . S
O105 Gd80 2.717 . S
O105 Gd81 2.327 . S
O105 C90 1.257 . S
O106 Gd81 2.377 . S
O106 C91 1.240 . S
O107 Gd80 2.395 . S
O107 C91 1.240 . S
O108 Gd81 2.448 . S
O108 C92 1.249 . S
O109 Gd81 2.506 . S
O109 C92 1.252 . S
O110 Gd81 2.435 . S
O110 C99 1.256 . S
O111 Gd80 2.327 . S
O111 Gd81 2.717 . S
O111 C99 1.257 . S
H112 C85 0.930 . S
H113 C86 0.931 . S
H114 C88 0.931 . S
H115 C89 0.931 . S
H116 C94 0.930 . S
H117 C95 0.931 . S
H118 C97 0.931 . S
H119 C98 0.931 . S
Gd120 C123 2.818 . S
Gd120 O140 2.377 1_565 S
Gd120 O142 2.448 . S
Gd120 O143 2.506 1_565 S
Gd120 O144 2.435 . S
Gd120 O145 2.717 . S
Gd120 O147 2.395 . S
Gd120 O151 2.327 1_565 S
Gd121 C132 2.818 . S
Gd121 O141 2.395 . S
Gd121 O145 2.327 1_545 S
Gd121 O146 2.377 1_545 S
Gd121 O148 2.448 . S
Gd121 O149 2.506 1_545 S
Gd121 O150 2.435 . S
Gd121 O151 2.717 . S
C122 O140 1.240 . S
C122 O141 1.240 . S
C123 Gd120 2.818 . S
C123 C124 1.510 1_565 S
C123 O142 1.249 . S
C123 O143 1.252 1_565 S
C124 C123 1.510 1_545 S
C124 C125 1.404 1_545 S
C124 C126 1.352 . S
C125 C124 1.404 1_565 S
C125 C129 1.389 . S
C125 H152 0.930 . S
C126 C124 1.352 . S
C126 C128 1.374 . S
C126 H153 0.931 . S
C127 C128 1.359 . S
C127 C129 1.364 1_545 S
C128 C126 1.374 . S
C128 C127 1.359 . S
C128 H154 0.931 . S
C129 C125 1.389 . S
C129 C127 1.364 1_565 S
C129 H155 0.931 . S
C130 O144 1.256 . S
C130 O145 1.257 . S
C131 O146 1.240 . S
C131 O147 1.240 . S
C132 Gd121 2.818 . S
C132 C133 1.510 1_545 S
C132 O148 1.249 . S
C132 O149 1.252 1_545 S
C133 C132 1.510 1_565 S
C133 C134 1.404 1_565 S
C133 C135 1.352 . S
C134 C133 1.404 1_545 S
C134 C138 1.389 . S
C134 H156 0.930 . S
C135 C133 1.352 . S
C135 C137 1.374 . S
C135 H157 0.931 . S
C136 C137 1.359 . S
C136 C138 1.364 1_565 S
C137 C135 1.374 . S
C137 C136 1.359 . S
C137 H158 0.931 . S
C138 C134 1.389 . S
C138 C136 1.364 1_545 S
C138 H159 0.931 . S
C139 O150 1.256 . S
C139 O151 1.257 . S
O140 Gd120 2.377 1_545 S
O140 C122 1.240 . S
O141 Gd121 2.395 . S
O141 C122 1.240 . S
O142 Gd120 2.448 . S
O142 C123 1.249 . S
O143 Gd120 2.506 1_545 S
O143 C123 1.252 1_545 S
O144 Gd120 2.435 . S
O144 C130 1.256 . S
O145 Gd120 2.717 . S
O145 Gd121 2.327 1_565 S
O145 C130 1.257 . S
O146 Gd121 2.377 1_565 S
O146 C131 1.240 . S
O147 Gd120 2.395 . S
O147 C131 1.240 . S
O148 Gd121 2.448 . S
O148 C132 1.249 . S
O149 Gd121 2.506 1_565 S
O149 C132 1.252 1_565 S
O150 Gd121 2.435 . S
O150 C139 1.256 . S
O151 Gd120 2.327 1_545 S
O151 Gd121 2.717 . S
O151 C139 1.257 . S
H152 C125 0.930 . S
H153 C126 0.931 . S
H154 C128 0.931 . S
H155 C129 0.931 . S
H156 C134 0.930 . S
H157 C135 0.931 . S
H158 C137 0.931 . S
H159 C138 0.931 . S
Gd160 C163 2.818 . S
Gd160 O180 2.377 . S
Gd160 O182 2.448 . S
Gd160 O183 2.506 . S
Gd160 O184 2.435 . S
Gd160 O185 2.717 . S
Gd160 O187 2.395 . S
Gd160 O191 2.327 . S
Gd161 C172 2.818 . S
Gd161 O181 2.395 . S
Gd161 O185 2.327 . S
Gd161 O186 2.377 . S
Gd161 O188 2.448 . S
Gd161 O189 2.506 . S
Gd161 O190 2.435 . S
Gd161 O191 2.717 . S
C162 O180 1.240 . S
C162 O181 1.240 . S
C163 Gd160 2.818 . S
C163 C164 1.510 . S
C163 O182 1.249 . S
C163 O183 1.252 . S
C164 C163 1.510 . S
C164 C165 1.404 . S
C164 C166 1.352 . S
C165 C164 1.404 . S
C165 C169 1.389 . S
C165 H192 0.930 . S
C166 C164 1.352 . S
C166 C168 1.374 . S
C166 H193 0.931 . S
C167 C168 1.359 . S
C167 C169 1.364 . S
C168 C166 1.374 . S
C168 C167 1.359 . S
C168 H194 0.931 . S
C169 C165 1.389 . S
C169 C167 1.364 . S
C169 H195 0.931 . S
C170 O184 1.256 . S
C170 O185 1.257 . S
C171 O186 1.240 . S
C171 O187 1.240 . S
C172 Gd161 2.818 . S
C172 C173 1.510 . S
C172 O188 1.249 . S
C172 O189 1.252 . S
C173 C172 1.510 . S
C173 C174 1.404 . S
C173 C175 1.352 . S
C174 C173 1.404 . S
C174 C178 1.389 . S
C174 H196 0.930 . S
C175 C173 1.352 . S
C175 C177 1.374 . S
C175 H197 0.931 . S
C176 C177 1.359 . S
C176 C178 1.364 . S
C177 C175 1.374 . S
C177 C176 1.359 . S
C177 H198 0.931 . S
C178 C174 1.389 . S
C178 C176 1.364 . S
C178 H199 0.931 . S
C179 O190 1.256 . S
C179 O191 1.257 . S
O180 Gd160 2.377 . S
O180 C162 1.240 . S
O181 Gd161 2.395 . S
O181 C162 1.240 . S
O182 Gd160 2.448 . S
O182 C163 1.249 . S
O183 Gd160 2.506 . S
O183 C163 1.252 . S
O184 Gd160 2.435 . S
O184 C170 1.256 . S
O185 Gd160 2.717 . S
O185 Gd161 2.327 . S
O185 C170 1.257 . S
O186 Gd161 2.377 . S
O186 C171 1.240 . S
O187 Gd160 2.395 . S
O187 C171 1.240 . S
O188 Gd161 2.448 . S
O188 C172 1.249 . S
O189 Gd161 2.506 . S
O189 C172 1.252 . S
O190 Gd161 2.435 . S
O190 C179 1.256 . S
O191 Gd160 2.327 . S
O191 Gd161 2.717 . S
O191 C179 1.257 . S
H192 C165 0.930 . S
H193 C166 0.931 . S
H194 C168 0.931 . S
H195 C169 0.931 . S
H196 C174 0.930 . S
H197 C175 0.931 . S
H198 C177 0.931 . S
H199 C178 0.931 . S
Gd200 C203 2.818 . S
Gd200 O220 2.377 . S
Gd200 O222 2.448 . S
Gd200 O223 2.506 . S
Gd200 O224 2.435 . S
Gd200 O225 2.717 . S
Gd200 O227 2.395 . S
Gd200 O231 2.327 . S
Gd201 C212 2.818 . S
Gd201 O221 2.395 . S
Gd201 O225 2.327 . S
Gd201 O226 2.377 . S
Gd201 O228 2.448 . S
Gd201 O229 2.506 . S
Gd201 O230 2.435 . S
Gd201 O231 2.717 . S
C202 O220 1.240 . S
C202 O221 1.240 . S
C203 Gd200 2.818 . S
C203 C204 1.510 . S
C203 O222 1.249 . S
C203 O223 1.252 . S
C204 C203 1.510 . S
C204 C205 1.404 . S
C204 C206 1.352 . S
C205 C204 1.404 . S
C205 C209 1.389 . S
C205 H232 0.930 . S
C206 C204 1.352 . S
C206 C208 1.374 . S
C206 H233 0.931 . S
C207 C208 1.359 . S
C207 C209 1.364 . S
C208 C206 1.374 . S
C208 C207 1.359 . S
C208 H234 0.931 . S
C209 C205 1.389 . S
C209 C207 1.364 . S
C209 H235 0.931 . S
C210 O224 1.256 . S
C210 O225 1.257 . S
C211 O226 1.240 . S
C211 O227 1.240 . S
C212 Gd201 2.818 . S
C212 C213 1.510 . S
C212 O228 1.249 . S
C212 O229 1.252 . S
C213 C212 1.510 . S
C213 C214 1.404 . S
C213 C215 1.352 . S
C214 C213 1.404 . S
C214 C218 1.389 . S
C214 H236 0.930 . S
C215 C213 1.352 . S
C215 C217 1.374 . S
C215 H237 0.931 . S
C216 C217 1.359 . S
C216 C218 1.364 . S
C217 C215 1.374 . S
C217 C216 1.359 . S
C217 H238 0.931 . S
C218 C214 1.389 . S
C218 C216 1.364 . S
C218 H239 0.931 . S
C219 O230 1.256 . S
C219 O231 1.257 . S
O220 Gd200 2.377 . S
O220 C202 1.240 . S
O221 Gd201 2.395 . S
O221 C202 1.240 . S
O222 Gd200 2.448 . S
O222 C203 1.249 . S
O223 Gd200 2.506 . S
O223 C203 1.252 . S
O224 Gd200 2.435 . S
O224 C210 1.256 . S
O225 Gd200 2.717 . S
O225 Gd201 2.327 . S
O225 C210 1.257 . S
O226 Gd201 2.377 . S
O226 C211 1.240 . S
O227 Gd200 2.395 . S
O227 C211 1.240 . S
O228 Gd201 2.448 . S
O228 C212 1.249 . S
O229 Gd201 2.506 . S
O229 C212 1.252 . S
O230 Gd201 2.435 . S
O230 C219 1.256 . S
O231 Gd200 2.327 . S
O231 Gd201 2.717 . S
O231 C219 1.257 . S
H232 C205 0.930 . S
H233 C206 0.931 . S
H234 C208 0.931 . S
H235 C209 0.931 . S
H236 C214 0.930 . S
H237 C215 0.931 . S
H238 C217 0.931 . S
H239 C218 0.931 . S
Gd240 C243 2.818 . S
Gd240 O260 2.377 . S
Gd240 O262 2.448 . S
Gd240 O263 2.506 . S
Gd240 O264 2.435 . S
Gd240 O265 2.717 . S
Gd240 O267 2.395 . S
Gd240 O271 2.327 . S
Gd241 C252 2.818 . S
Gd241 O261 2.395 . S
Gd241 O265 2.327 . S
Gd241 O266 2.377 . S
Gd241 O268 2.448 . S
Gd241 O269 2.506 . S
Gd241 O270 2.435 . S
Gd241 O271 2.717 . S
C242 O260 1.240 . S
C242 O261 1.240 . S
C243 Gd240 2.818 . S
C243 C244 1.510 . S
C243 O262 1.249 . S
C243 O263 1.252 . S
C244 C243 1.510 . S
C244 C245 1.404 . S
C244 C246 1.352 . S
C245 C244 1.404 . S
C245 C249 1.389 . S
C245 H272 0.930 . S
C246 C244 1.352 . S
C246 C248 1.374 . S
C246 H273 0.931 . S
C247 C248 1.359 . S
C247 C249 1.364 . S
C248 C246 1.374 . S
C248 C247 1.359 . S
C248 H274 0.931 . S
C249 C245 1.389 . S
C249 C247 1.364 . S
C249 H275 0.931 . S
C250 O264 1.256 . S
C250 O265 1.257 . S
C251 O266 1.240 . S
C251 O267 1.240 . S
C252 Gd241 2.818 . S
C252 C253 1.510 . S
C252 O268 1.249 . S
C252 O269 1.252 . S
C253 C252 1.510 . S
C253 C254 1.404 . S
C253 C255 1.352 . S
C254 C253 1.404 . S
C254 C258 1.389 . S
C254 H276 0.930 . S
C255 C253 1.352 . S
C255 C257 1.374 . S
C255 H277 0.931 . S
C256 C257 1.359 . S
C256 C258 1.364 . S
C257 C255 1.374 . S
C257 C256 1.359 . S
C257 H278 0.931 . S
C258 C254 1.389 . S
C258 C256 1.364 . S
C258 H279 0.931 . S
C259 O270 1.256 . S
C259 O271 1.257 . S
O260 Gd240 2.377 . S
O260 C242 1.240 . S
O261 Gd241 2.395 . S
O261 C242 1.240 . S
O262 Gd240 2.448 . S
O262 C243 1.249 . S
O263 Gd240 2.506 . S
O263 C243 1.252 . S
O264 Gd240 2.435 . S
O264 C250 1.256 . S
O265 Gd240 2.717 . S
O265 Gd241 2.327 . S
O265 C250 1.257 . S
O266 Gd241 2.377 . S
O266 C251 1.240 . S
O267 Gd240 2.395 . S
O267 C251 1.240 . S
O268 Gd241 2.448 . S
O268 C252 1.249 . S
O269 Gd241 2.506 . S
O269 C252 1.252 . S
O270 Gd241 2.435 . S
O270 C259 1.256 . S
O271 Gd240 2.327 . S
O271 Gd241 2.717 . S
O271 C259 1.257 . S
H272 C245 0.930 . S
H273 C246 0.931 . S
H274 C248 0.931 . S
H275 C249 0.931 . S
H276 C254 0.930 . S
H277 C255 0.931 . S
H278 C257 0.931 . S
H279 C258 0.931 . S
Gd280 C283 2.818 . S
Gd280 O300 2.377 1_655 S
Gd280 O302 2.448 . S
Gd280 O303 2.506 . S
Gd280 O304 2.435 1_655 S
Gd280 O305 2.717 1_655 S
Gd280 O307 2.395 . S
Gd280 O311 2.327 . S
Gd281 C292 2.818 . S
Gd281 O301 2.395 . S
Gd281 O305 2.327 . S
Gd281 O306 2.377 1_455 S
Gd281 O308 2.448 . S
Gd281 O309 2.506 . S
Gd281 O310 2.435 1_455 S
Gd281 O311 2.717 1_455 S
C282 O300 1.240 . S
C282 O301 1.240 . S
C283 Gd280 2.818 . S
C283 C284 1.510 . S
C283 O302 1.249 . S
C283 O303 1.252 . S
C284 C283 1.510 . S
C284 C285 1.404 . S
C284 C286 1.352 . S
C285 C284 1.404 . S
C285 C289 1.389 . S
C285 H312 0.930 . S
C286 C284 1.352 . S
C286 C288 1.374 . S
C286 H313 0.931 . S
C287 C288 1.359 . S
C287 C289 1.364 . S
C288 C286 1.374 . S
C288 C287 1.359 . S
C288 H314 0.931 . S
C289 C285 1.389 . S
C289 C287 1.364 . S
C289 H315 0.931 . S
C290 O304 1.256 . S
C290 O305 1.257 . S
C291 O306 1.240 . S
C291 O307 1.240 . S
C292 Gd281 2.818 . S
C292 C293 1.510 . S
C292 O308 1.249 . S
C292 O309 1.252 . S
C293 C292 1.510 . S
C293 C294 1.404 . S
C293 C295 1.352 . S
C294 C293 1.404 . S
C294 C298 1.389 . S
C294 H316 0.930 . S
C295 C293 1.352 . S
C295 C297 1.374 . S
C295 H317 0.931 . S
C296 C297 1.359 . S
C296 C298 1.364 . S
C297 C295 1.374 . S
C297 C296 1.359 . S
C297 H318 0.931 . S
C298 C294 1.389 . S
C298 C296 1.364 . S
C298 H319 0.931 . S
C299 O310 1.256 . S
C299 O311 1.257 . S
O300 Gd280 2.377 1_455 S
O300 C282 1.240 . S
O301 Gd281 2.395 . S
O301 C282 1.240 . S
O302 Gd280 2.448 . S
O302 C283 1.249 . S
O303 Gd280 2.506 . S
O303 C283 1.252 . S
O304 Gd280 2.435 1_455 S
O304 C290 1.256 . S
O305 Gd280 2.717 1_455 S
O305 Gd281 2.327 . S
O305 C290 1.257 . S
O306 Gd281 2.377 1_655 S
O306 C291 1.240 . S
O307 Gd280 2.395 . S
O307 C291 1.240 . S
O308 Gd281 2.448 . S
O308 C292 1.249 . S
O309 Gd281 2.506 . S
O309 C292 1.252 . S
O310 Gd281 2.435 1_655 S
O310 C299 1.256 . S
O311 Gd280 2.327 . S
O311 Gd281 2.717 1_655 S
O311 C299 1.257 . S
H312 C285 0.930 . S
H313 C286 0.931 . S
H314 C288 0.931 . S
H315 C289 0.931 . S
H316 C294 0.930 . S
H317 C295 0.931 . S
H318 C297 0.931 . S
H319 C298 0.931 . S
Gd320 C323 2.818 . S
Gd320 O340 2.377 1_556 S
Gd320 O342 2.448 . S
Gd320 O343 2.506 . S
Gd320 O344 2.435 . S
Gd320 O345 2.717 . S
Gd320 O347 2.395 . S
Gd320 O351 2.327 1_556 S
Gd321 C332 2.818 . S
Gd321 O341 2.395 . S
Gd321 O345 2.327 1_554 S
Gd321 O346 2.377 1_554 S
Gd321 O348 2.448 . S
Gd321 O349 2.506 . S
Gd321 O350 2.435 . S
Gd321 O351 2.717 . S
C322 O340 1.240 . S
C322 O341 1.240 . S
C323 Gd320 2.818 . S
C323 C324 1.510 . S
C323 O342 1.249 . S
C323 O343 1.252 . S
C324 C323 1.510 . S
C324 C325 1.404 . S
C324 C326 1.352 1_556 S
C325 C324 1.404 . S
C325 C329 1.389 . S
C325 H352 0.930 . S
C326 C324 1.352 1_554 S
C326 C328 1.374 . S
C326 H353 0.931 . S
C327 C328 1.359 1_556 S
C327 C329 1.364 . S
C328 C326 1.374 . S
C328 C327 1.359 1_554 S
C328 H354 0.931 . S
C329 C325 1.389 . S
C329 C327 1.364 . S
C329 H355 0.931 . S
C330 O344 1.256 . S
C330 O345 1.257 . S
C331 O346 1.240 . S
C331 O347 1.240 . S
C332 Gd321 2.818 . S
C332 C333 1.510 . S
C332 O348 1.249 . S
C332 O349 1.252 . S
C333 C332 1.510 . S
C333 C334 1.404 . S
C333 C335 1.352 1_554 S
C334 C333 1.404 . S
C334 C338 1.389 . S
C334 H356 0.930 . S
C335 C333 1.352 1_556 S
C335 C337 1.374 . S
C335 H357 0.931 . S
C336 C337 1.359 1_554 S
C336 C338 1.364 . S
C337 C335 1.374 . S
C337 C336 1.359 1_556 S
C337 H358 0.931 . S
C338 C334 1.389 . S
C338 C336 1.364 . S
C338 H359 0.931 . S
C339 O350 1.256 . S
C339 O351 1.257 . S
O340 Gd320 2.377 1_554 S
O340 C322 1.240 . S
O341 Gd321 2.395 . S
O341 C322 1.240 . S
O342 Gd320 2.448 . S
O342 C323 1.249 . S
O343 Gd320 2.506 . S
O343 C323 1.252 . S
O344 Gd320 2.435 . S
O344 C330 1.256 . S
O345 Gd320 2.717 . S
O345 Gd321 2.327 1_556 S
O345 C330 1.257 . S
O346 Gd321 2.377 1_556 S
O346 C331 1.240 . S
O347 Gd320 2.395 . S
O347 C331 1.240 . S
O348 Gd321 2.448 . S
O348 C332 1.249 . S
O349 Gd321 2.506 . S
O349 C332 1.252 . S
O350 Gd321 2.435 . S
O350 C339 1.256 . S
O351 Gd320 2.327 1_554 S
O351 Gd321 2.717 . S
O351 C339 1.257 . S
H352 C325 0.930 . S
H353 C326 0.931 . S
H354 C328 0.931 . S
H355 C329 0.931 . S
H356 C334 0.930 . S
H357 C335 0.931 . S
H358 C337 0.931 . S
H359 C338 0.931 . S
Gd360 C363 2.818 . S
Gd360 O380 2.377 1_565 S
Gd360 O382 2.448 . S
Gd360 O383 2.506 1_565 S
Gd360 O384 2.435 . S
Gd360 O385 2.717 . S
Gd360 O387 2.395 . S
Gd360 O391 2.327 1_565 S
Gd361 C372 2.818 . S
Gd361 O381 2.395 . S
Gd361 O385 2.327 1_545 S
Gd361 O386 2.377 1_545 S
Gd361 O388 2.448 . S
Gd361 O389 2.506 1_545 S
Gd361 O390 2.435 . S
Gd361 O391 2.717 . S
C362 O380 1.240 . S
C362 O381 1.240 . S
C363 Gd360 2.818 . S
C363 C364 1.510 1_565 S
C363 O382 1.249 . S
C363 O383 1.252 1_565 S
C364 C363 1.510 1_545 S
C364 C365 1.404 1_545 S
C364 C366 1.352 . S
C365 C364 1.404 1_565 S
C365 C369 1.389 . S
C365 H392 0.930 . S
C366 C364 1.352 . S
C366 C368 1.374 . S
C366 H393 0.931 . S
C367 C368 1.359 . S
C367 C369 1.364 1_545 S
C368 C366 1.374 . S
C368 C367 1.359 . S
C368 H394 0.931 . S
C369 C365 1.389 . S
C369 C367 1.364 1_565 S
C369 H395 0.931 . S
C370 O384 1.256 . S
C370 O385 1.257 . S
C371 O386 1.240 . S
C371 O387 1.240 . S
C372 Gd361 2.818 . S
C372 C373 1.510 1_545 S
C372 O388 1.249 . S
C372 O389 1.252 1_545 S
C373 C372 1.510 1_565 S
C373 C374 1.404 1_565 S
C373 C375 1.352 . S
C374 C373 1.404 1_545 S
C374 C378 1.389 . S
C374 H396 0.930 . S
C375 C373 1.352 . S
C375 C377 1.374 . S
C375 H397 0.931 . S
C376 C377 1.359 . S
C376 C378 1.364 1_565 S
C377 C375 1.374 . S
C377 C376 1.359 . S
C377 H398 0.931 . S
C378 C374 1.389 . S
C378 C376 1.364 1_545 S
C378 H399 0.931 . S
C379 O390 1.256 . S
C379 O391 1.257 . S
O380 Gd360 2.377 1_545 S
O380 C362 1.240 . S
O381 Gd361 2.395 . S
O381 C362 1.240 . S
O382 Gd360 2.448 . S
O382 C363 1.249 . S
O383 Gd360 2.506 1_545 S
O383 C363 1.252 1_545 S
O384 Gd360 2.435 . S
O384 C370 1.256 . S
O385 Gd360 2.717 . S
O385 Gd361 2.327 1_565 S
O385 C370 1.257 . S
O386 Gd361 2.377 1_565 S
O386 C371 1.240 . S
O387 Gd360 2.395 . S
O387 C371 1.240 . S
O388 Gd361 2.448 . S
O388 C372 1.249 . S
O389 Gd361 2.506 1_565 S
O389 C372 1.252 1_565 S
O390 Gd361 2.435 . S
O390 C379 1.256 . S
O391 Gd360 2.327 1_545 S
O391 Gd361 2.717 . S
O391 C379 1.257 . S
H392 C365 0.930 . S
H393 C366 0.931 . S
H394 C368 0.931 . S
H395 C369 0.931 . S
H396 C374 0.930 . S
H397 C375 0.931 . S
H398 C377 0.931 . S
H399 C378 0.931 . S
Gd400 C403 2.818 . S
Gd400 O420 2.377 . S
Gd400 O422 2.448 . S
Gd400 O423 2.506 . S
Gd400 O424 2.435 . S
Gd400 O425 2.717 . S
Gd400 O427 2.395 . S
Gd400 O431 2.327 . S
Gd401 C412 2.818 . S
Gd401 O421 2.395 . S
Gd401 O425 2.327 . S
Gd401 O426 2.377 . S
Gd401 O428 2.448 . S
Gd401 O429 2.506 . S
Gd401 O430 2.435 . S
Gd401 O431 2.717 . S
C402 O420 1.240 . S
C402 O421 1.240 . S
C403 Gd400 2.818 . S
C403 C404 1.510 . S
C403 O422 1.249 . S
C403 O423 1.252 . S
C404 C403 1.510 . S
C404 C405 1.404 . S
C404 C406 1.352 . S
C405 C404 1.404 . S
C405 C409 1.389 . S
C405 H432 0.930 . S
C406 C404 1.352 . S
C406 C408 1.374 . S
C406 H433 0.931 . S
C407 C408 1.359 . S
C407 C409 1.364 . S
C408 C406 1.374 . S
C408 C407 1.359 . S
C408 H434 0.931 . S
C409 C405 1.389 . S
C409 C407 1.364 . S
C409 H435 0.931 . S
C410 O424 1.256 . S
C410 O425 1.257 . S
C411 O426 1.240 . S
C411 O427 1.240 . S
C412 Gd401 2.818 . S
C412 C413 1.510 . S
C412 O428 1.249 . S
C412 O429 1.252 . S
C413 C412 1.510 . S
C413 C414 1.404 . S
C413 C415 1.352 . S
C414 C413 1.404 . S
C414 C418 1.389 . S
C414 H436 0.930 . S
C415 C413 1.352 . S
C415 C417 1.374 . S
C415 H437 0.931 . S
C416 C417 1.359 . S
C416 C418 1.364 . S
C417 C415 1.374 . S
C417 C416 1.359 . S
C417 H438 0.931 . S
C418 C414 1.389 . S
C418 C416 1.364 . S
C418 H439 0.931 . S
C419 O430 1.256 . S
C419 O431 1.257 . S
O420 Gd400 2.377 . S
O420 C402 1.240 . S
O421 Gd401 2.395 . S
O421 C402 1.240 . S
O422 Gd400 2.448 . S
O422 C403 1.249 . S
O423 Gd400 2.506 . S
O423 C403 1.252 . S
O424 Gd400 2.435 . S
O424 C410 1.256 . S
O425 Gd400 2.717 . S
O425 Gd401 2.327 . S
O425 C410 1.257 . S
O426 Gd401 2.377 . S
O426 C411 1.240 . S
O427 Gd400 2.395 . S
O427 C411 1.240 . S
O428 Gd401 2.448 . S
O428 C412 1.249 . S
O429 Gd401 2.506 . S
O429 C412 1.252 . S
O430 Gd401 2.435 . S
O430 C419 1.256 . S
O431 Gd400 2.327 . S
O431 Gd401 2.717 . S
O431 C419 1.257 . S
H432 C405 0.930 . S
H433 C406 0.931 . S
H434 C408 0.931 . S
H435 C409 0.931 . S
H436 C414 0.930 . S
H437 C415 0.931 . S
H438 C417 0.931 . S
H439 C418 0.931 . S
Gd440 C443 2.818 . S
Gd440 O460 2.377 1_455 S
Gd440 O462 2.448 . S
Gd440 O463 2.506 1_455 S
Gd440 O464 2.435 . S
Gd440 O465 2.717 . S
Gd440 O467 2.395 . S
Gd440 O471 2.327 1_455 S
Gd441 C452 2.818 . S
Gd441 O461 2.395 . S
Gd441 O465 2.327 1_655 S
Gd441 O466 2.377 1_655 S
Gd441 O468 2.448 . S
Gd441 O469 2.506 1_655 S
Gd441 O470 2.435 . S
Gd441 O471 2.717 . S
C442 O460 1.240 . S
C442 O461 1.240 . S
C443 Gd440 2.818 . S
C443 C444 1.510 1_455 S
C443 O462 1.249 . S
C443 O463 1.252 1_455 S
C444 C443 1.510 1_655 S
C444 C445 1.404 1_655 S
C444 C446 1.352 . S
C445 C444 1.404 1_455 S
C445 C449 1.389 . S
C445 H472 0.930 . S
C446 C444 1.352 . S
C446 C448 1.374 . S
C446 H473 0.931 . S
C447 C448 1.359 . S
C447 C449 1.364 1_655 S
C448 C446 1.374 . S
C448 C447 1.359 . S
C448 H474 0.931 . S
C449 C445 1.389 . S
C449 C447 1.364 1_455 S
C449 H475 0.931 . S
C450 O464 1.256 . S
C450 O465 1.257 . S
C451 O466 1.240 . S
C451 O467 1.240 . S
C452 Gd441 2.818 . S
C452 C453 1.510 1_655 S
C452 O468 1.249 . S
C452 O469 1.252 1_655 S
C453 C452 1.510 1_455 S
C453 C454 1.404 1_455 S
C453 C455 1.352 . S
C454 C453 1.404 1_655 S
C454 C458 1.389 . S
C454 H476 0.930 . S
C455 C453 1.352 . S
C455 C457 1.374 . S
C455 H477 0.931 . S
C456 C457 1.359 . S
C456 C458 1.364 1_455 S
C457 C455 1.374 . S
C457 C456 1.359 . S
C457 H478 0.931 . S
C458 C454 1.389 . S
C458 C456 1.364 1_655 S
C458 H479 0.931 . S
C459 O470 1.256 . S
C459 O471 1.257 . S
O460 Gd440 2.377 1_655 S
O460 C442 1.240 . S
O461 Gd441 2.395 . S
O461 C442 1.240 . S
O462 Gd440 2.448 . S
O462 C443 1.249 . S
O463 Gd440 2.506 1_655 S
O463 C443 1.252 1_655 S
O464 Gd440 2.435 . S
O464 C450 1.256 . S
O465 Gd440 2.717 . S
O465 Gd441 2.327 1_455 S
O465 C450 1.257 . S
O466 Gd441 2.377 1_455 S
O466 C451 1.240 . S
O467 Gd440 2.395 . S
O467 C451 1.240 . S
O468 Gd441 2.448 . S
O468 C452 1.249 . S
O469 Gd441 2.506 1_455 S
O469 C452 1.252 1_455 S
O470 Gd441 2.435 . S
O470 C459 1.256 . S
O471 Gd440 2.327 1_655 S
O471 Gd441 2.717 . S
O471 C459 1.257 . S
H472 C445 0.930 . S
H473 C446 0.931 . S
H474 C448 0.931 . S
H475 C449 0.931 . S
H476 C454 0.930 . S
H477 C455 0.931 . S
H478 C457 0.931 . S
H479 C458 0.931 . S
Gd480 C483 2.818 . S
Gd480 O500 2.377 . S
Gd480 O502 2.448 . S
Gd480 O503 2.506 . S
Gd480 O504 2.435 . S
Gd480 O505 2.717 . S
Gd480 O507 2.395 . S
Gd480 O511 2.327 . S
Gd481 C492 2.818 . S
Gd481 O501 2.395 . S
Gd481 O505 2.327 . S
Gd481 O506 2.377 . S
Gd481 O508 2.448 . S
Gd481 O509 2.506 . S
Gd481 O510 2.435 . S
Gd481 O511 2.717 . S
C482 O500 1.240 . S
C482 O501 1.240 . S
C483 Gd480 2.818 . S
C483 C484 1.510 . S
C483 O502 1.249 . S
C483 O503 1.252 . S
C484 C483 1.510 . S
C484 C485 1.404 . S
C484 C486 1.352 . S
C485 C484 1.404 . S
C485 C489 1.389 . S
C485 H512 0.930 . S
C486 C484 1.352 . S
C486 C488 1.374 . S
C486 H513 0.931 . S
C487 C488 1.359 . S
C487 C489 1.364 . S
C488 C486 1.374 . S
C488 C487 1.359 . S
C488 H514 0.931 . S
C489 C485 1.389 . S
C489 C487 1.364 . S
C489 H515 0.931 . S
C490 O504 1.256 . S
C490 O505 1.257 . S
C491 O506 1.240 . S
C491 O507 1.240 . S
C492 Gd481 2.818 . S
C492 C493 1.510 . S
C492 O508 1.249 . S
C492 O509 1.252 . S
C493 C492 1.510 . S
C493 C494 1.404 . S
C493 C495 1.352 . S
C494 C493 1.404 . S
C494 C498 1.389 . S
C494 H516 0.930 . S
C495 C493 1.352 . S
C495 C497 1.374 . S
C495 H517 0.931 . S
C496 C497 1.359 . S
C496 C498 1.364 . S
C497 C495 1.374 . S
C497 C496 1.359 . S
C497 H518 0.931 . S
C498 C494 1.389 . S
C498 C496 1.364 . S
C498 H519 0.931 . S
C499 O510 1.256 . S
C499 O511 1.257 . S
O500 Gd480 2.377 . S
O500 C482 1.240 . S
O501 Gd481 2.395 . S
O501 C482 1.240 . S
O502 Gd480 2.448 . S
O502 C483 1.249 . S
O503 Gd480 2.506 . S
O503 C483 1.252 . S
O504 Gd480 2.435 . S
O504 C490 1.256 . S
O505 Gd480 2.717 . S
O505 Gd481 2.327 . S
O505 C490 1.257 . S
O506 Gd481 2.377 . S
O506 C491 1.240 . S
O507 Gd480 2.395 . S
O507 C491 1.240 . S
O508 Gd481 2.448 . S
O508 C492 1.249 . S
O509 Gd481 2.506 . S
O509 C492 1.252 . S
O510 Gd481 2.435 . S
O510 C499 1.256 . S
O511 Gd480 2.327 . S
O511 Gd481 2.717 . S
O511 C499 1.257 . S
H512 C485 0.930 . S
H513 C486 0.931 . S
H514 C488 0.931 . S
H515 C489 0.931 . S
H516 C494 0.930 . S
H517 C495 0.931 . S
H518 C497 0.931 . S
H519 C498 0.931 . S
Gd520 C523 2.818 . S
Gd520 O540 2.377 1_556 S
Gd520 O542 2.448 . S
Gd520 O543 2.506 . S
Gd520 O544 2.435 . S
Gd520 O545 2.717 . S
Gd520 O547 2.395 . S
Gd520 O551 2.327 1_556 S
Gd521 C532 2.818 . S
Gd521 O541 2.395 . S
Gd521 O545 2.327 1_554 S
Gd521 O546 2.377 1_554 S
Gd521 O548 2.448 . S
Gd521 O549 2.506 . S
Gd521 O550 2.435 . S
Gd521 O551 2.717 . S
C522 O540 1.240 . S
C522 O541 1.240 . S
C523 Gd520 2.818 . S
C523 C524 1.510 . S
C523 O542 1.249 . S
C523 O543 1.252 . S
C524 C523 1.510 . S
C524 C525 1.404 . S
C524 C526 1.352 1_556 S
C525 C524 1.404 . S
C525 C529 1.389 . S
C525 H552 0.930 . S
C526 C524 1.352 1_554 S
C526 C528 1.374 . S
C526 H553 0.931 . S
C527 C528 1.359 1_556 S
C527 C529 1.364 . S
C528 C526 1.374 . S
C528 C527 1.359 1_554 S
C528 H554 0.931 . S
C529 C525 1.389 . S
C529 C527 1.364 . S
C529 H555 0.931 . S
C530 O544 1.256 . S
C530 O545 1.257 . S
C531 O546 1.240 . S
C531 O547 1.240 . S
C532 Gd521 2.818 . S
C532 C533 1.510 . S
C532 O548 1.249 . S
C532 O549 1.252 . S
C533 C532 1.510 . S
C533 C534 1.404 . S
C533 C535 1.352 1_554 S
C534 C533 1.404 . S
C534 C538 1.389 . S
C534 H556 0.930 . S
C535 C533 1.352 1_556 S
C535 C537 1.374 . S
C535 H557 0.931 . S
C536 C537 1.359 1_554 S
C536 C538 1.364 . S
C537 C535 1.374 . S
C537 C536 1.359 1_556 S
C537 H558 0.931 . S
C538 C534 1.389 . S
C538 C536 1.364 . S
C538 H559 0.931 . S
C539 O550 1.256 . S
C539 O551 1.257 . S
O540 Gd520 2.377 1_554 S
O540 C522 1.240 . S
O541 Gd521 2.395 . S
O541 C522 1.240 . S
O542 Gd520 2.448 . S
O542 C523 1.249 . S
O543 Gd520 2.506 . S
O543 C523 1.252 . S
O544 Gd520 2.435 . S
O544 C530 1.256 . S
O545 Gd520 2.717 . S
O545 Gd521 2.327 1_556 S
O545 C530 1.257 . S
O546 Gd521 2.377 1_556 S
O546 C531 1.240 . S
O547 Gd520 2.395 . S
O547 C531 1.240 . S
O548 Gd521 2.448 . S
O548 C532 1.249 . S
O549 Gd521 2.506 . S
O549 C532 1.252 . S
O550 Gd521 2.435 . S
O550 C539 1.256 . S
O551 Gd520 2.327 1_554 S
O551 Gd521 2.717 . S
O551 C539 1.257 . S
H552 C525 0.930 . S
H553 C526 0.931 . S
H554 C528 0.931 . S
H555 C529 0.931 . S
H556 C534 0.930 . S
H557 C535 0.931 . S
H558 C537 0.931 . S
H559 C538 0.931 . S
Gd560 C563 2.818 . S
Gd560 O580 2.377 . S
Gd560 O582 2.448 . S
Gd560 O583 2.506 . S
Gd560 O584 2.435 . S
Gd560 O585 2.717 . S
Gd560 O587 2.395 1_565 S
Gd560 O591 2.327 1_565 S
Gd561 C572 2.818 . S
Gd561 O581 2.395 1_545 S
Gd561 O585 2.327 1_545 S
Gd561 O586 2.377 . S
Gd561 O588 2.448 . S
Gd561 O589 2.506 . S
Gd561 O590 2.435 . S
Gd561 O591 2.717 . S
C562 O580 1.240 . S
C562 O581 1.240 . S
C563 Gd560 2.818 . S
C563 C564 1.510 . S
C563 O582 1.249 . S
C563 O583 1.252 . S
C564 C563 1.510 . S
C564 C565 1.404 . S
C564 C566 1.352 . S
C565 C564 1.404 . S
C565 C569 1.389 . S
C565 H592 0.930 . S
C566 C564 1.352 . S
C566 C568 1.374 . S
C566 H593 0.931 . S
C567 C568 1.359 . S
C567 C569 1.364 . S
C568 C566 1.374 . S
C568 C567 1.359 . S
C568 H594 0.931 . S
C569 C565 1.389 . S
C569 C567 1.364 . S
C569 H595 0.931 . S
C570 O584 1.256 . S
C570 O585 1.257 . S
C571 O586 1.240 . S
C571 O587 1.240 . S
C572 Gd561 2.818 . S
C572 C573 1.510 . S
C572 O588 1.249 . S
C572 O589 1.252 . S
C573 C572 1.510 . S
C573 C574 1.404 . S
C573 C575 1.352 . S
C574 C573 1.404 . S
C574 C578 1.389 . S
C574 H596 0.930 . S
C575 C573 1.352 . S
C575 C577 1.374 . S
C575 H597 0.931 . S
C576 C577 1.359 . S
C576 C578 1.364 . S
C577 C575 1.374 . S
C577 C576 1.359 . S
C577 H598 0.931 . S
C578 C574 1.389 . S
C578 C576 1.364 . S
C578 H599 0.931 . S
C579 O590 1.256 . S
C579 O591 1.257 . S
O580 Gd560 2.377 . S
O580 C562 1.240 . S
O581 Gd561 2.395 1_565 S
O581 C562 1.240 . S
O582 Gd560 2.448 . S
O582 C563 1.249 . S
O583 Gd560 2.506 . S
O583 C563 1.252 . S
O584 Gd560 2.435 . S
O584 C570 1.256 . S
O585 Gd560 2.717 . S
O585 Gd561 2.327 1_565 S
O585 C570 1.257 . S
O586 Gd561 2.377 . S
O586 C571 1.240 . S
O587 Gd560 2.395 1_545 S
O587 C571 1.240 . S
O588 Gd561 2.448 . S
O588 C572 1.249 . S
O589 Gd561 2.506 . S
O589 C572 1.252 . S
O590 Gd561 2.435 . S
O590 C579 1.256 . S
O591 Gd560 2.327 1_545 S
O591 Gd561 2.717 . S
O591 C579 1.257 . S
H592 C565 0.930 . S
H593 C566 0.931 . S
H594 C568 0.931 . S
H595 C569 0.931 . S
H596 C574 0.930 . S
H597 C575 0.931 . S
H598 C577 0.931 . S
H599 C578 0.931 . S
Gd600 C603 2.818 . S
Gd600 O620 2.377 1_554 S
Gd600 O622 2.448 . S
Gd600 O623 2.506 . S
Gd600 O624 2.435 . S
Gd600 O625 2.717 . S
Gd600 O627 2.395 . S
Gd600 O631 2.327 1_554 S
Gd601 C612 2.818 . S
Gd601 O621 2.395 . S
Gd601 O625 2.327 1_556 S
Gd601 O626 2.377 1_556 S
Gd601 O628 2.448 . S
Gd601 O629 2.506 . S
Gd601 O630 2.435 . S
Gd601 O631 2.717 . S
C602 O620 1.240 . S
C602 O621 1.240 . S
C603 Gd600 2.818 . S
C603 C604 1.510 . S
C603 O622 1.249 . S
C603 O623 1.252 . S
C604 C603 1.510 . S
C604 C605 1.404 . S
C604 C606 1.352 . S
C605 C604 1.404 . S
C605 C609 1.389 . S
C605 H632 0.930 . S
C606 C604 1.352 . S
C606 C608 1.374 . S
C606 H633 0.931 1_554 S
C607 C608 1.359 . S
C607 C609 1.364 . S
C608 C606 1.374 . S
C608 C607 1.359 . S
C608 H634 0.931 . S
C609 C605 1.389 . S
C609 C607 1.364 . S
C609 H635 0.931 . S
C610 O624 1.256 . S
C610 O625 1.257 . S
C611 O626 1.240 . S
C611 O627 1.240 . S
C612 Gd601 2.818 . S
C612 C613 1.510 . S
C612 O628 1.249 . S
C612 O629 1.252 . S
C613 C612 1.510 . S
C613 C614 1.404 . S
C613 C615 1.352 . S
C614 C613 1.404 . S
C614 C618 1.389 . S
C614 H636 0.930 . S
C615 C613 1.352 . S
C615 C617 1.374 . S
C615 H637 0.931 1_556 S
C616 C617 1.359 . S
C616 C618 1.364 . S
C617 C615 1.374 . S
C617 C616 1.359 . S
C617 H638 0.931 . S
C618 C614 1.389 . S
C618 C616 1.364 . S
C618 H639 0.931 . S
C619 O630 1.256 . S
C619 O631 1.257 . S
O620 Gd600 2.377 1_556 S
O620 C602 1.240 . S
O621 Gd601 2.395 . S
O621 C602 1.240 . S
O622 Gd600 2.448 . S
O622 C603 1.249 . S
O623 Gd600 2.506 . S
O623 C603 1.252 . S
O624 Gd600 2.435 . S
O624 C610 1.256 . S
O625 Gd600 2.717 . S
O625 Gd601 2.327 1_554 S
O625 C610 1.257 . S
O626 Gd601 2.377 1_554 S
O626 C611 1.240 . S
O627 Gd600 2.395 . S
O627 C611 1.240 . S
O628 Gd601 2.448 . S
O628 C612 1.249 . S
O629 Gd601 2.506 . S
O629 C612 1.252 . S
O630 Gd601 2.435 . S
O630 C619 1.256 . S
O631 Gd600 2.327 1_556 S
O631 Gd601 2.717 . S
O631 C619 1.257 . S
H632 C605 0.930 . S
H633 C606 0.931 1_556 S
H634 C608 0.931 . S
H635 C609 0.931 . S
H636 C614 0.930 . S
H637 C615 0.931 1_554 S
H638 C617 0.931 . S
H639 C618 0.931 . S
C640 C641 1.391 1_455 S
C640 C642 1.394 . S
C640 H656 0.931 . S
C641 C640 1.391 1_655 S
C641 C645 1.376 . S
C642 C640 1.394 . S
C642 C643 1.369 1_455 S
C642 C646 1.531 . S
C643 C642 1.369 1_655 S
C643 C644 1.410 . S
C643 C651 1.480 1_655 S
C644 C643 1.410 . S
C644 C645 1.392 . S
C644 C647 1.511 . S
C645 C641 1.376 . S
C645 C644 1.392 . S
C645 H657 0.929 . S
C646 C642 1.531 . S
C646 H658 0.960 . S
C646 H659 0.962 . S
C646 H660 0.960 . S
C647 C644 1.511 . S
C647 H661 0.961 . S
C647 H662 0.961 . S
C647 H663 0.961 . S
C648 C649 1.370 . S
C648 C650 1.363 . S
C648 H664 0.931 . S
C649 C648 1.370 . S
C649 C653 1.408 . S
C650 C648 1.363 . S
C650 C651 1.385 . S
C650 C654 1.524 . S
C651 C643 1.480 1_455 S
C651 C650 1.385 . S
C651 C652 1.406 . S
C652 C651 1.406 . S
C652 C653 1.419 . S
C652 C655 1.530 1_455 S
C653 C649 1.408 . S
C653 C652 1.419 . S
C653 H665 0.930 . S
C654 C650 1.524 . S
C654 H666 0.956 . S
C654 H667 0.961 1_455 S
C654 H668 0.961 . S
C655 C652 1.530 1_655 S
C655 H669 0.958 1_655 S
C655 H670 0.961 . S
C655 H671 0.960 . S
H656 C640 0.931 . S
H657 C645 0.929 . S
H658 C646 0.960 . S
H659 C646 0.962 . S
H660 C646 0.960 . S
H661 C647 0.961 . S
H662 C647 0.961 . S
H663 C647 0.961 . S
H664 C648 0.931 . S
H665 C653 0.930 . S
H666 C654 0.956 . S
H667 C654 0.961 1_655 S
H668 C654 0.961 . S
H669 C655 0.958 1_455 S
H670 C655 0.961 . S
H671 C655 0.960 . S
C672 C673 1.391 . S
C672 C674 1.394 . S
C672 H688 0.931 . S
C673 C672 1.391 . S
C673 C677 1.376 . S
C674 C672 1.394 . S
C674 C675 1.369 . S
C674 C678 1.531 . S
C675 C674 1.369 . S
C675 C676 1.410 . S
C675 C683 1.503 . S
C676 C675 1.410 . S
C676 C677 1.392 . S
C676 C679 1.511 . S
C677 C673 1.376 . S
C677 C676 1.392 . S
C677 H689 0.929 . S
C678 C674 1.531 . S
C678 H690 0.960 . S
C678 H691 0.962 . S
C678 H692 0.960 . S
C679 C676 1.511 . S
C679 H693 0.961 . S
C679 H694 0.961 . S
C679 H695 0.961 . S
C680 C681 1.370 . S
C680 C682 1.363 . S
C680 H696 0.931 . S
C681 C680 1.370 . S
C681 C685 1.408 . S
C682 C680 1.363 . S
C682 C683 1.370 . S
C682 C686 1.524 . S
C683 C675 1.503 . S
C683 C682 1.370 . S
C683 C684 1.403 . S
C684 C683 1.403 . S
C684 C685 1.404 . S
C684 C687 1.539 . S
C685 C681 1.408 . S
C685 C684 1.404 . S
C685 H697 0.930 . S
C686 C682 1.524 . S
C686 H698 0.956 . S
C686 H699 0.961 . S
C686 H700 0.961 . S
C687 C684 1.539 . S
C687 H701 0.958 . S
C687 H702 0.961 . S
C687 H703 0.960 . S
H688 C672 0.931 . S
H689 C677 0.929 . S
H690 C678 0.960 . S
H691 C678 0.962 . S
H692 C678 0.960 . S
H693 C679 0.961 . S
H694 C679 0.961 . S
H695 C679 0.961 . S
H696 C680 0.931 . S
H697 C685 0.930 . S
H698 C686 0.956 . S
H699 C686 0.961 . S
H700 C686 0.961 . S
H701 C687 0.958 . S
H702 C687 0.961 . S
H703 C687 0.960 . S
C704 C705 1.391 . S
C704 C706 1.394 . S
C704 H720 0.931 . S
C705 C704 1.391 . S
C705 C709 1.376 . S
C706 C704 1.394 . S
C706 C707 1.369 . S
C706 C710 1.531 . S
C707 C706 1.369 . S
C707 C708 1.410 . S
C707 C715 1.503 . S
C708 C707 1.410 . S
C708 C709 1.392 . S
C708 C711 1.511 . S
C709 C705 1.376 . S
C709 C708 1.392 . S
C709 H721 0.929 . S
C710 C706 1.531 . S
C710 H722 0.960 . S
C710 H723 0.962 . S
C710 H724 0.960 . S
C711 C708 1.511 . S
C711 H725 0.961 . S
C711 H726 0.961 . S
C711 H727 0.961 . S
C712 C713 1.370 . S
C712 C714 1.363 . S
C712 H728 0.931 . S
C713 C712 1.370 . S
C713 C717 1.408 . S
C714 C712 1.363 . S
C714 C715 1.370 . S
C714 C718 1.524 . S
C715 C707 1.503 . S
C715 C714 1.370 . S
C715 C716 1.403 . S
C716 C715 1.403 . S
C716 C717 1.404 . S
C716 C719 1.539 . S
C717 C713 1.408 . S
C717 C716 1.404 . S
C717 H729 0.930 . S
C718 C714 1.524 . S
C718 H730 0.956 . S
C718 H731 0.961 . S
C718 H732 0.961 . S
C719 C716 1.539 . S
C719 H733 0.958 . S
C719 H734 0.961 . S
C719 H735 0.960 . S
H720 C704 0.931 . S
H721 C709 0.929 . S
H722 C710 0.960 . S
H723 C710 0.962 . S
H724 C710 0.960 . S
H725 C711 0.961 . S
H726 C711 0.961 . S
H727 C711 0.961 . S
H728 C712 0.931 . S
H729 C717 0.930 . S
H730 C718 0.956 . S
H731 C718 0.961 . S
H732 C718 0.961 . S
H733 C719 0.958 . S
H734 C719 0.961 . S
H735 C719 0.960 . S
C736 C737 1.392 1_565 S
C736 C738 1.393 . S
C736 H752 0.930 . S
C737 C736 1.392 1_545 S
C737 C741 1.376 . S
C738 C736 1.393 . S
C738 C739 1.369 1_565 S
C738 C742 1.531 . S
C739 C738 1.369 1_545 S
C739 C740 1.410 . S
C739 C747 1.486 1_545 S
C740 C739 1.410 . S
C740 C741 1.392 . S
C740 C743 1.511 . S
C741 C737 1.376 . S
C741 C740 1.392 . S
C741 H753 0.929 . S
C742 C738 1.531 . S
C742 H754 0.960 . S
C742 H755 0.962 . S
C742 H756 0.960 . S
C743 C740 1.511 . S
C743 H757 0.961 . S
C743 H758 0.961 . S
C743 H759 0.961 . S
C744 C745 1.365 1_545 S
C744 C746 1.368 . S
C744 H760 0.931 . S
C745 C744 1.365 1_565 S
C745 C749 1.408 . S
C746 C744 1.368 . S
C746 C747 1.370 1_545 S
C746 C750 1.524 . S
C747 C739 1.486 1_565 S
C747 C746 1.370 1_565 S
C747 C748 1.422 . S
C748 C747 1.422 . S
C748 C749 1.404 . S
C748 C751 1.539 . S
C749 C745 1.408 . S
C749 C748 1.404 . S
C749 H761 0.930 . S
C750 C746 1.524 . S
C750 H762 0.956 . S
C750 H763 0.961 . S
C750 H764 0.961 . S
C751 C748 1.539 . S
C751 H765 0.958 . S
C751 H766 0.961 . S
C751 H767 0.960 . S
H752 C736 0.930 . S
H753 C741 0.929 . S
H754 C742 0.960 . S
H755 C742 0.962 . S
H756 C742 0.960 . S
H757 C743 0.961 . S
H758 C743 0.961 . S
H759 C743 0.961 . S
H760 C744 0.931 . S
H761 C749 0.930 . S
H762 C750 0.956 . S
H763 C750 0.961 . S
H764 C750 0.961 . S
H765 C751 0.958 . S
H766 C751 0.961 . S
H767 C751 0.960 . S
C768 C769 1.391 . S
C768 C770 1.394 . S
C768 H784 0.931 . S
C769 C768 1.391 . S
C769 C773 1.376 . S
C770 C768 1.394 . S
C770 C771 1.369 . S
C770 C774 1.531 . S
C771 C770 1.369 . S
C771 C772 1.410 . S
C771 C779 1.503 1_565 S
C772 C771 1.410 . S
C772 C773 1.392 . S
C772 C775 1.511 1_565 S
C773 C769 1.376 . S
C773 C772 1.392 . S
C773 H785 0.929 . S
C774 C770 1.531 . S
C774 H786 0.960 1_565 S
C774 H787 0.962 . S
C774 H788 0.960 1_554 S
C775 C772 1.511 1_545 S
C775 H789 0.961 1_545 S
C775 H790 0.961 . S
C775 H791 0.961 . S
C776 C777 1.370 1_565 S
C776 C778 1.363 . S
C776 H792 0.931 . S
C777 C776 1.370 1_545 S
C777 C781 1.408 . S
C778 C776 1.363 . S
C778 C779 1.370 1_565 S
C778 C782 1.524 . S
C779 C771 1.503 1_545 S
C779 C778 1.370 1_545 S
C779 C780 1.403 . S
C780 C779 1.403 . S
C780 C781 1.404 . S
C780 C783 1.539 . S
C781 C777 1.408 . S
C781 C780 1.404 . S
C781 H793 0.930 . S
C782 C778 1.524 . S
C782 H794 0.956 . S
C782 H795 0.961 . S
C782 H796 0.961 . S
C783 C780 1.539 . S
C783 H797 0.958 . S
C783 H798 0.961 . S
C783 H799 0.960 . S
H784 C768 0.931 . S
H785 C773 0.929 . S
H786 C774 0.960 1_545 S
H787 C774 0.962 . S
H788 C774 0.960 1_556 S
H789 C775 0.961 1_565 S
H790 C775 0.961 . S
H791 C775 0.961 . S
H792 C776 0.931 . S
H793 C781 0.930 . S
H794 C782 0.956 . S
H795 C782 0.961 . S
H796 C782 0.961 . S
H797 C783 0.958 . S
H798 C783 0.961 . S
H799 C783 0.960 . S
C800 C801 1.391 . S
C800 C802 1.394 . S
C800 H816 0.931 . S
C801 C800 1.391 . S
C801 C805 1.376 1_455 S
C802 C800 1.394 . S
C802 C803 1.369 . S
C802 C806 1.531 . S
C803 C802 1.369 . S
C803 C804 1.410 1_455 S
C803 C811 1.503 . S
C804 C803 1.410 1_655 S
C804 C805 1.392 . S
C804 C807 1.511 . S
C805 C801 1.376 1_655 S
C805 C804 1.392 . S
C805 H817 0.929 . S
C806 C802 1.531 . S
C806 H818 0.960 . S
C806 H819 0.962 . S
C806 H820 0.960 . S
C807 C804 1.511 . S
C807 H821 0.961 . S
C807 H822 0.961 . S
C807 H823 0.961 . S
C808 C809 1.370 . S
C808 C810 1.363 . S
C808 H824 0.931 . S
C809 C808 1.370 . S
C809 C813 1.408 1_655 S
C810 C808 1.363 . S
C810 C811 1.370 1_655 S
C810 C814 1.524 . S
C811 C803 1.503 . S
C811 C810 1.370 1_455 S
C811 C812 1.403 . S
C812 C811 1.403 . S
C812 C813 1.404 . S
C812 C815 1.539 . S
C813 C809 1.408 1_455 S
C813 C812 1.404 . S
C813 H825 0.930 . S
C814 C810 1.524 . S
C814 H826 0.956 . S
C814 H827 0.961 . S
C814 H828 0.961 . S
C815 C812 1.539 . S
C815 H829 0.958 . S
C815 H830 0.961 . S
C815 H831 0.960 . S
H816 C800 0.931 . S
H817 C805 0.929 . S
H818 C806 0.960 . S
H819 C806 0.962 . S
H820 C806 0.960 . S
H821 C807 0.961 . S
H822 C807 0.961 . S
H823 C807 0.961 . S
H824 C808 0.931 . S
H825 C813 0.930 . S
H826 C814 0.956 . S
H827 C814 0.961 . S
H828 C814 0.961 . S
H829 C815 0.958 . S
H830 C815 0.961 . S
H831 C815 0.960 . S
C832 C833 1.391 . S
C832 C834 1.394 . S
C832 H848 0.931 . S
C833 C832 1.391 . S
C833 C837 1.376 . S
C834 C832 1.394 . S
C834 C835 1.369 . S
C834 C838 1.531 . S
C835 C834 1.369 . S
C835 C836 1.410 . S
C835 C843 1.503 . S
C836 C835 1.410 . S
C836 C837 1.392 . S
C836 C839 1.511 . S
C837 C833 1.376 . S
C837 C836 1.392 . S
C837 H849 0.929 . S
C838 C834 1.531 . S
C838 H850 0.960 . S
C838 H851 0.962 . S
C838 H852 0.960 . S
C839 C836 1.511 . S
C839 H853 0.961 . S
C839 H854 0.961 . S
C839 H855 0.961 . S
C840 C841 1.370 . S
C840 C842 1.363 . S
C840 H856 0.931 . S
C841 C840 1.370 . S
C841 C845 1.408 . S
C842 C840 1.363 . S
C842 C843 1.370 . S
C842 C846 1.524 . S
C843 C835 1.503 . S
C843 C842 1.370 . S
C843 C844 1.403 . S
C844 C843 1.403 . S
C844 C845 1.404 . S
C844 C847 1.539 . S
C845 C841 1.408 . S
C845 C844 1.404 . S
C845 H857 0.930 . S
C846 C842 1.524 . S
C846 H858 0.956 . S
C846 H859 0.961 . S
C846 H860 0.961 . S
C847 C844 1.539 . S
C847 H861 0.958 . S
C847 H862 0.961 . S
C847 H863 0.960 . S
H848 C832 0.931 . S
H849 C837 0.929 . S
H850 C838 0.960 . S
H851 C838 0.962 . S
H852 C838 0.960 . S
H853 C839 0.961 . S
H854 C839 0.961 . S
H855 C839 0.961 . S
H856 C840 0.931 . S
H857 C845 0.930 . S
H858 C846 0.956 . S
H859 C846 0.961 . S
H860 C846 0.961 . S
H861 C847 0.958 . S
H862 C847 0.961 . S
H863 C847 0.960 . S
C864 C865 1.391 . S
C864 C866 1.394 . S
C864 H880 0.931 . S
C865 C864 1.391 . S
C865 C869 1.376 . S
C866 C864 1.394 . S
C866 C867 1.369 . S
C866 C870 1.531 . S
C867 C866 1.369 . S
C867 C868 1.410 . S
C867 C875 1.503 . S
C868 C867 1.410 . S
C868 C869 1.392 . S
C868 C871 1.511 . S
C869 C865 1.376 . S
C869 C868 1.392 . S
C869 H881 0.929 . S
C870 C866 1.531 . S
C870 H882 0.960 . S
C870 H883 0.962 . S
C870 H884 0.960 . S
C871 C868 1.511 . S
C871 H885 0.961 . S
C871 H886 0.961 . S
C871 H887 0.961 . S
C872 C873 1.370 . S
C872 C874 1.363 . S
C872 H888 0.931 . S
C873 C872 1.370 . S
C873 C877 1.408 . S
C874 C872 1.363 . S
C874 C875 1.370 . S
C874 C878 1.524 . S
C875 C867 1.503 . S
C875 C874 1.370 . S
C875 C876 1.403 . S
C876 C875 1.403 . S
C876 C877 1.404 . S
C876 C879 1.539 . S
C877 C873 1.408 . S
C877 C876 1.404 . S
C877 H889 0.930 . S
C878 C874 1.524 . S
C878 H890 0.956 . S
C878 H891 0.961 . S
C878 H892 0.961 . S
C879 C876 1.539 . S
C879 H893 0.958 . S
C879 H894 0.961 . S
C879 H895 0.960 . S
H880 C864 0.931 . S
H881 C869 0.929 . S
H882 C870 0.960 . S
H883 C870 0.962 . S
H884 C870 0.960 . S
H885 C871 0.961 . S
H886 C871 0.961 . S
H887 C871 0.961 . S
H888 C872 0.931 . S
H889 C877 0.930 . S
H890 C878 0.956 . S
H891 C878 0.961 . S
H892 C878 0.961 . S
H893 C879 0.958 . S
H894 C879 0.961 . S
H895 C879 0.960 . S
C896 C897 1.391 . S
C896 C898 1.394 . S
C896 H912 0.931 . S
C897 C896 1.391 . S
C897 C901 1.376 . S
C898 C896 1.394 . S
C898 C899 1.369 . S
C898 C902 1.531 . S
C899 C898 1.369 . S
C899 C900 1.410 . S
C899 C907 1.503 . S
C900 C899 1.410 . S
C900 C901 1.392 . S
C900 C903 1.511 . S
C901 C897 1.376 . S
C901 C900 1.392 . S
C901 H913 0.929 . S
C902 C898 1.531 . S
C902 H914 0.960 . S
C902 H915 0.962 . S
C902 H916 0.960 . S
C903 C900 1.511 . S
C903 H917 0.961 . S
C903 H918 0.961 . S
C903 H919 0.961 . S
C904 C905 1.370 . S
C904 C906 1.363 . S
C904 H920 0.931 . S
C905 C904 1.370 . S
C905 C909 1.408 . S
C906 C904 1.363 . S
C906 C907 1.370 . S
C906 C910 1.524 . S
C907 C899 1.503 . S
C907 C906 1.370 . S
C907 C908 1.403 . S
C908 C907 1.403 . S
C908 C909 1.404 . S
C908 C911 1.539 . S
C909 C905 1.408 . S
C909 C908 1.404 . S
C909 H921 0.930 . S
C910 C906 1.524 . S
C910 H922 0.956 . S
C910 H923 0.961 . S
C910 H924 0.961 . S
C911 C908 1.539 . S
C911 H925 0.958 . S
C911 H926 0.961 . S
C911 H927 0.960 . S
H912 C896 0.931 . S
H913 C901 0.929 . S
H914 C902 0.960 . S
H915 C902 0.962 . S
H916 C902 0.960 . S
H917 C903 0.961 . S
H918 C903 0.961 . S
H919 C903 0.961 . S
H920 C904 0.931 . S
H921 C909 0.930 . S
H922 C910 0.956 . S
H923 C910 0.961 . S
H924 C910 0.961 . S
H925 C911 0.958 . S
H926 C911 0.961 . S
H927 C911 0.960 . S
C928 C929 1.391 . S
C928 C930 1.394 . S
C928 H944 0.931 . S
C929 C928 1.391 . S
C929 C933 1.376 . S
C930 C928 1.394 . S
C930 C931 1.369 . S
C930 C934 1.531 . S
C931 C930 1.369 . S
C931 C932 1.410 . S
C931 C939 1.503 . S
C932 C931 1.410 . S
C932 C933 1.392 . S
C932 C935 1.511 . S
C933 C929 1.376 . S
C933 C932 1.392 . S
C933 H945 0.929 . S
C934 C930 1.531 . S
C934 H946 0.960 . S
C934 H947 0.962 . S
C934 H948 0.960 . S
C935 C932 1.511 . S
C935 H949 0.961 . S
C935 H950 0.961 . S
C935 H951 0.961 . S
C936 C937 1.370 . S
C936 C938 1.363 . S
C936 H952 0.931 . S
C937 C936 1.370 . S
C937 C941 1.408 . S
C938 C936 1.363 . S
C938 C939 1.370 . S
C938 C942 1.524 . S
C939 C931 1.503 . S
C939 C938 1.370 . S
C939 C940 1.403 . S
C940 C939 1.403 . S
C940 C941 1.404 . S
C940 C943 1.539 . S
C941 C937 1.408 . S
C941 C940 1.404 . S
C941 H953 0.930 . S
C942 C938 1.524 . S
C942 H954 0.956 . S
C942 H955 0.961 . S
C942 H956 0.961 . S
C943 C940 1.539 . S
C943 H957 0.958 . S
C943 H958 0.961 . S
C943 H959 0.960 . S
H944 C928 0.931 . S
H945 C933 0.929 . S
H946 C934 0.960 . S
H947 C934 0.962 . S
H948 C934 0.960 . S
H949 C935 0.961 . S
H950 C935 0.961 . S
H951 C935 0.961 . S
H952 C936 0.931 . S
H953 C941 0.930 . S
H954 C942 0.956 . S
H955 C942 0.961 . S
H956 C942 0.961 . S
H957 C943 0.958 . S
H958 C943 0.961 . S
H959 C943 0.960 . S
C960 C961 1.391 . S
C960 C962 1.394 . S
C960 H976 0.931 . S
C961 C960 1.391 . S
C961 C965 1.376 . S
C962 C960 1.394 . S
C962 C963 1.369 . S
C962 C966 1.531 . S
C963 C962 1.369 . S
C963 C964 1.410 . S
C963 C971 1.503 . S
C964 C963 1.410 . S
C964 C965 1.392 . S
C964 C967 1.511 1_565 S
C965 C961 1.376 . S
C965 C964 1.392 . S
C965 H977 0.929 . S
C966 C962 1.531 . S
C966 H978 0.960 . S
C966 H979 0.962 . S
C966 H980 0.960 . S
C967 C964 1.511 1_545 S
C967 H981 0.961 . S
C967 H982 0.961 . S
C967 H983 0.961 1_545 S
C968 C969 1.370 . S
C968 C970 1.363 . S
C968 H984 0.931 . S
C969 C968 1.370 . S
C969 C973 1.408 1_545 S
C970 C968 1.363 . S
C970 C971 1.370 1_545 S
C970 C974 1.524 . S
C971 C963 1.503 . S
C971 C970 1.370 1_565 S
C971 C972 1.403 . S
C972 C971 1.403 . S
C972 C973 1.404 . S
C972 C975 1.539 . S
C973 C969 1.408 1_565 S
C973 C972 1.404 . S
C973 H985 0.930 . S
C974 C970 1.524 . S
C974 H986 0.956 . S
C974 H987 0.961 . S
C974 H988 0.961 . S
C975 C972 1.539 . S
C975 H989 0.958 . S
C975 H990 0.961 . S
C975 H991 0.960 . S
H976 C960 0.931 . S
H977 C965 0.929 . S
H978 C966 0.960 . S
H979 C966 0.962 . S
H980 C966 0.960 . S
H981 C967 0.961 . S
H982 C967 0.961 . S
H983 C967 0.961 1_565 S
H984 C968 0.931 . S
H985 C973 0.930 . S
H986 C974 0.956 . S
H987 C974 0.961 . S
H988 C974 0.961 . S
H989 C975 0.958 . S
H990 C975 0.961 . S
H991 C975 0.960 . S
C992 C993 1.391 . S
C992 C994 1.394 1_455 S
C992 H1008 0.931 1_455 S
C993 C992 1.391 . S
C993 C997 1.376 . S
C994 C992 1.394 1_655 S
C994 C995 1.369 1_655 S
C994 C998 1.531 . S
C995 C994 1.369 1_455 S
C995 C996 1.410 . S
C995 C1003 1.503 . S
C996 C995 1.410 . S
C996 C997 1.392 . S
C996 C999 1.511 . S
C997 C993 1.376 . S
C997 C996 1.392 . S
C997 H1009 0.929 . S
C998 C994 1.531 . S
C998 H1010 0.960 . S
C998 H1011 0.962 . S
C998 H1012 0.960 . S
C999 C996 1.511 . S
C999 H1013 0.961 . S
C999 H1014 0.961 . S
C999 H1015 0.961 . S
C1000 C1001 1.370 . S
C1000 C1002 1.363 . S
C1000 H1016 0.931 . S
C1001 C1000 1.370 . S
C1001 C1005 1.408 1_655 S
C1002 C1000 1.363 . S
C1002 C1003 1.370 1_655 S
C1002 C1006 1.524 . S
C1003 C995 1.503 . S
C1003 C1002 1.370 1_455 S
C1003 C1004 1.403 . S
C1004 C1003 1.403 . S
C1004 C1005 1.404 . S
C1004 C1007 1.539 . S
C1005 C1001 1.408 1_455 S
C1005 C1004 1.404 . S
C1005 H1017 0.930 . S
C1006 C1002 1.524 . S
C1006 H1018 0.956 . S
C1006 H1019 0.961 . S
C1006 H1020 0.961 . S
C1007 C1004 1.539 . S
C1007 H1021 0.958 . S
C1007 H1022 0.961 . S
C1007 H1023 0.960 . S
H1008 C992 0.931 1_655 S
H1009 C997 0.929 . S
H1010 C998 0.960 . S
H1011 C998 0.962 . S
H1012 C998 0.960 . S
H1013 C999 0.961 . S
H1014 C999 0.961 . S
H1015 C999 0.961 . S
H1016 C1000 0.931 . S
H1017 C1005 0.930 . S
H1018 C1006 0.956 . S
H1019 C1006 0.961 . S
H1020 C1006 0.961 . S
H1021 C1007 0.958 . S
H1022 C1007 0.961 . S
H1023 C1007 0.960 . S
C1024 C1025 1.391 . S
C1024 C1026 1.394 . S
C1024 H1040 0.931 . S
C1025 C1024 1.391 . S
C1025 C1029 1.376 . S
C1026 C1024 1.394 . S
C1026 C1027 1.369 . S
C1026 C1030 1.531 . S
C1027 C1026 1.369 . S
C1027 C1028 1.410 . S
C1027 C1035 1.503 . S
C1028 C1027 1.410 . S
C1028 C1029 1.392 . S
C1028 C1031 1.511 1_556 S
C1029 C1025 1.376 . S
C1029 C1028 1.392 . S
C1029 H1041 0.929 . S
C1030 C1026 1.531 . S
C1030 H1042 0.960 . S
C1030 H1043 0.962 . S
C1030 H1044 0.960 . S
C1031 C1028 1.511 1_554 S
C1031 H1045 0.961 . S
C1031 H1046 0.961 . S
C1031 H1047 0.961 . S
C1032 C1033 1.370 . S
C1032 C1034 1.363 . S
C1032 H1048 0.931 . S
C1033 C1032 1.370 . S
C1033 C1037 1.408 . S
C1034 C1032 1.363 . S
C1034 C1035 1.370 . S
C1034 C1038 1.524 . S
C1035 C1027 1.503 . S
C1035 C1034 1.370 . S
C1035 C1036 1.403 . S
C1036 C1035 1.403 . S
C1036 C1037 1.404 . S
C1036 C1039 1.539 . S
C1037 C1033 1.408 . S
C1037 C1036 1.404 . S
C1037 H1049 0.930 . S
C1038 C1034 1.524 . S
C1038 H1050 0.956 . S
C1038 H1051 0.961 . S
C1038 H1052 0.961 . S
C1039 C1036 1.539 . S
C1039 H1053 0.958 . S
C1039 H1054 0.961 . S
C1039 H1055 0.960 . S
H1040 C1024 0.931 . S
H1041 C1029 0.929 . S
H1042 C1030 0.960 . S
H1043 C1030 0.962 . S
H1044 C1030 0.960 . S
H1045 C1031 0.961 . S
H1046 C1031 0.961 . S
H1047 C1031 0.961 . S
H1048 C1032 0.931 . S
H1049 C1037 0.930 . S
H1050 C1038 0.956 . S
H1051 C1038 0.961 . S
H1052 C1038 0.961 . S
H1053 C1039 0.958 . S
H1054 C1039 0.961 . S
H1055 C1039 0.960 . S
C1056 C1057 1.391 . S
C1056 C1058 1.394 . S
C1056 H1072 0.931 . S
C1057 C1056 1.391 . S
C1057 C1061 1.376 . S
C1058 C1056 1.394 . S
C1058 C1059 1.369 . S
C1058 C1062 1.531 . S
C1059 C1058 1.369 . S
C1059 C1060 1.410 . S
C1059 C1067 1.503 . S
C1060 C1059 1.410 . S
C1060 C1061 1.392 . S
C1060 C1063 1.511 . S
C1061 C1057 1.376 . S
C1061 C1060 1.392 . S
C1061 H1073 0.929 . S
C1062 C1058 1.531 . S
C1062 H1074 0.960 . S
C1062 H1075 0.962 . S
C1062 H1076 0.960 . S
C1063 C1060 1.511 . S
C1063 H1077 0.961 . S
C1063 H1078 0.961 . S
C1063 H1079 0.961 . S
C1064 C1065 1.370 . S
C1064 C1066 1.363 . S
C1064 H1080 0.931 . S
C1065 C1064 1.370 . S
C1065 C1069 1.408 . S
C1066 C1064 1.363 . S
C1066 C1067 1.370 . S
C1066 C1070 1.524 . S
C1067 C1059 1.503 . S
C1067 C1066 1.370 . S
C1067 C1068 1.403 . S
C1068 C1067 1.403 . S
C1068 C1069 1.404 . S
C1068 C1071 1.539 . S
C1069 C1065 1.408 . S
C1069 C1068 1.404 . S
C1069 H1081 0.930 . S
C1070 C1066 1.524 . S
C1070 H1082 0.956 . S
C1070 H1083 0.961 . S
C1070 H1084 0.961 . S
C1071 C1068 1.539 . S
C1071 H1085 0.958 . S
C1071 H1086 0.961 . S
C1071 H1087 0.960 . S
H1072 C1056 0.931 . S
H1073 C1061 0.929 . S
H1074 C1062 0.960 . S
H1075 C1062 0.962 . S
H1076 C1062 0.960 . S
H1077 C1063 0.961 . S
H1078 C1063 0.961 . S
H1079 C1063 0.961 . S
H1080 C1064 0.931 . S
H1081 C1069 0.930 . S
H1082 C1070 0.956 . S
H1083 C1070 0.961 . S
H1084 C1070 0.961 . S
H1085 C1071 0.958 . S
H1086 C1071 0.961 . S
H1087 C1071 0.960 . S
C1088 C1089 1.391 . S
C1088 C1090 1.394 . S
C1088 H1104 0.931 . S
C1089 C1088 1.391 . S
C1089 C1093 1.376 . S
C1090 C1088 1.394 . S
C1090 C1091 1.369 . S
C1090 C1094 1.531 . S
C1091 C1090 1.369 . S
C1091 C1092 1.410 . S
C1091 C1099 1.503 . S
C1092 C1091 1.410 . S
C1092 C1093 1.392 . S
C1092 C1095 1.511 . S
C1093 C1089 1.376 . S
C1093 C1092 1.392 . S
C1093 H1105 0.929 . S
C1094 C1090 1.531 . S
C1094 H1106 0.960 . S
C1094 H1107 0.962 . S
C1094 H1108 0.960 . S
C1095 C1092 1.511 . S
C1095 H1109 0.961 . S
C1095 H1110 0.961 . S
C1095 H1111 0.961 . S
C1096 C1097 1.370 . S
C1096 C1098 1.363 . S
C1096 H1112 0.931 . S
C1097 C1096 1.370 . S
C1097 C1101 1.408 . S
C1098 C1096 1.363 . S
C1098 C1099 1.370 . S
C1098 C1102 1.524 . S
C1099 C1091 1.503 . S
C1099 C1098 1.370 . S
C1099 C1100 1.403 . S
C1100 C1099 1.403 . S
C1100 C1101 1.404 . S
C1100 C1103 1.539 . S
C1101 C1097 1.408 . S
C1101 C1100 1.404 . S
C1101 H1113 0.930 . S
C1102 C1098 1.524 . S
C1102 H1114 0.956 . S
C1102 H1115 0.961 . S
C1102 H1116 0.961 . S
C1103 C1100 1.539 . S
C1103 H1117 0.958 . S
C1103 H1118 0.961 . S
C1103 H1119 0.960 . S
H1104 C1088 0.931 . S
H1105 C1093 0.929 . S
H1106 C1094 0.960 . S
H1107 C1094 0.962 . S
H1108 C1094 0.960 . S
H1109 C1095 0.961 . S
H1110 C1095 0.961 . S
H1111 C1095 0.961 . S
H1112 C1096 0.931 . S
H1113 C1101 0.930 . S
H1114 C1102 0.956 . S
H1115 C1102 0.961 . S
H1116 C1102 0.961 . S
H1117 C1103 0.958 . S
H1118 C1103 0.961 . S
H1119 C1103 0.960 . S
C1120 C1121 1.391 . S
C1120 C1122 1.394 . S
C1120 H1136 0.931 . S
C1121 C1120 1.391 . S
C1121 C1125 1.376 . S
C1122 C1120 1.394 . S
C1122 C1123 1.369 . S
C1122 C1126 1.531 . S
C1123 C1122 1.369 . S
C1123 C1124 1.410 . S
C1123 C1131 1.503 . S
C1124 C1123 1.410 . S
C1124 C1125 1.392 . S
C1124 C1127 1.511 . S
C1125 C1121 1.376 . S
C1125 C1124 1.392 . S
C1125 H1137 0.929 . S
C1126 C1122 1.531 . S
C1126 H1138 0.960 . S
C1126 H1139 0.962 . S
C1126 H1140 0.960 . S
C1127 C1124 1.511 . S
C1127 H1141 0.961 . S
C1127 H1142 0.961 . S
C1127 H1143 0.961 . S
C1128 C1129 1.370 . S
C1128 C1130 1.363 . S
C1128 H1144 0.931 . S
C1129 C1128 1.370 . S
C1129 C1133 1.408 . S
C1130 C1128 1.363 . S
C1130 C1131 1.370 . S
C1130 C1134 1.524 . S
C1131 C1123 1.503 . S
C1131 C1130 1.370 . S
C1131 C1132 1.403 . S
C1132 C1131 1.403 . S
C1132 C1133 1.404 . S
C1132 C1135 1.539 . S
C1133 C1129 1.408 . S
C1133 C1132 1.404 . S
C1133 H1145 0.930 . S
C1134 C1130 1.524 . S
C1134 H1146 0.956 . S
C1134 H1147 0.961 . S
C1134 H1148 0.961 . S
C1135 C1132 1.539 . S
C1135 H1149 0.958 . S
C1135 H1150 0.961 . S
C1135 H1151 0.960 . S
H1136 C1120 0.931 . S
H1137 C1125 0.929 . S
H1138 C1126 0.960 . S
H1139 C1126 0.962 . S
H1140 C1126 0.960 . S
H1141 C1127 0.961 . S
H1142 C1127 0.961 . S
H1143 C1127 0.961 . S
H1144 C1128 0.931 . S
H1145 C1133 0.930 . S
H1146 C1134 0.956 . S
H1147 C1134 0.961 . S
H1148 C1134 0.961 . S
H1149 C1135 0.958 . S
H1150 C1135 0.961 . S
H1151 C1135 0.960 . S
C1152 C1153 1.391 . S
C1152 C1154 1.394 . S
C1152 H1168 0.931 . S
C1153 C1152 1.391 . S
C1153 C1157 1.376 . S
C1154 C1152 1.394 . S
C1154 C1155 1.369 . S
C1154 C1158 1.531 . S
C1155 C1154 1.369 . S
C1155 C1156 1.410 . S
C1155 C1163 1.503 . S
C1156 C1155 1.410 . S
C1156 C1157 1.392 . S
C1156 C1159 1.511 . S
C1157 C1153 1.376 . S
C1157 C1156 1.392 . S
C1157 H1169 0.929 . S
C1158 C1154 1.531 . S
C1158 H1170 0.960 . S
C1158 H1171 0.962 . S
C1158 H1172 0.960 . S
C1159 C1156 1.511 . S
C1159 H1173 0.961 . S
C1159 H1174 0.961 . S
C1159 H1175 0.961 . S
C1160 C1161 1.370 . S
C1160 C1162 1.363 . S
C1160 H1176 0.931 . S
C1161 C1160 1.370 . S
C1161 C1165 1.408 . S
C1162 C1160 1.363 . S
C1162 C1163 1.370 . S
C1162 C1166 1.524 . S
C1163 C1155 1.503 . S
C1163 C1162 1.370 . S
C1163 C1164 1.403 . S
C1164 C1163 1.403 . S
C1164 C1165 1.404 . S
C1164 C1167 1.539 . S
C1165 C1161 1.408 . S
C1165 C1164 1.404 . S
C1165 H1177 0.930 . S
C1166 C1162 1.524 . S
C1166 H1178 0.956 . S
C1166 H1179 0.961 . S
C1166 H1180 0.961 . S
C1167 C1164 1.539 . S
C1167 H1181 0.958 . S
C1167 H1182 0.961 . S
C1167 H1183 0.960 . S
H1168 C1152 0.931 . S
H1169 C1157 0.929 . S
H1170 C1158 0.960 . S
H1171 C1158 0.962 . S
H1172 C1158 0.960 . S
H1173 C1159 0.961 . S
H1174 C1159 0.961 . S
H1175 C1159 0.961 . S
H1176 C1160 0.931 . S
H1177 C1165 0.930 . S
H1178 C1166 0.956 . S
H1179 C1166 0.961 . S
H1180 C1166 0.961 . S
H1181 C1167 0.958 . S
H1182 C1167 0.961 . S
H1183 C1167 0.960 . S
C1184 C1185 1.391 . S
C1184 C1186 1.394 . S
C1184 H1200 0.931 . S
C1185 C1184 1.391 . S
C1185 C1189 1.376 . S
C1186 C1184 1.394 . S
C1186 C1187 1.369 . S
C1186 C1190 1.531 . S
C1187 C1186 1.369 . S
C1187 C1188 1.410 . S
C1187 C1195 1.503 . S
C1188 C1187 1.410 . S
C1188 C1189 1.392 . S
C1188 C1191 1.511 . S
C1189 C1185 1.376 . S
C1189 C1188 1.392 . S
C1189 H1201 0.929 . S
C1190 C1186 1.531 . S
C1190 H1202 0.960 . S
C1190 H1203 0.962 . S
C1190 H1204 0.960 . S
C1191 C1188 1.511 . S
C1191 H1205 0.961 . S
C1191 H1206 0.961 . S
C1191 H1207 0.961 . S
C1192 C1193 1.370 . S
C1192 C1194 1.363 . S
C1192 H1208 0.931 . S
C1193 C1192 1.370 . S
C1193 C1197 1.408 . S
C1194 C1192 1.363 . S
C1194 C1195 1.370 . S
C1194 C1198 1.524 . S
C1195 C1187 1.503 . S
C1195 C1194 1.370 . S
C1195 C1196 1.403 . S
C1196 C1195 1.403 . S
C1196 C1197 1.404 . S
C1196 C1199 1.539 . S
C1197 C1193 1.408 . S
C1197 C1196 1.404 . S
C1197 H1209 0.930 . S
C1198 C1194 1.524 . S
C1198 H1210 0.956 . S
C1198 H1211 0.961 . S
C1198 H1212 0.961 . S
C1199 C1196 1.539 . S
C1199 H1213 0.958 . S
C1199 H1214 0.961 . S
C1199 H1215 0.960 . S
H1200 C1184 0.931 . S
H1201 C1189 0.929 . S
H1202 C1190 0.960 . S
H1203 C1190 0.962 . S
H1204 C1190 0.960 . S
H1205 C1191 0.961 . S
H1206 C1191 0.961 . S
H1207 C1191 0.961 . S
H1208 C1192 0.931 . S
H1209 C1197 0.930 . S
H1210 C1198 0.956 . S
H1211 C1198 0.961 . S
H1212 C1198 0.961 . S
H1213 C1199 0.958 . S
H1214 C1199 0.961 . S
H1215 C1199 0.960 . S
C1216 C1217 1.391 . S
C1216 C1218 1.394 . S
C1216 H1232 0.931 . S
C1217 C1216 1.391 . S
C1217 C1221 1.376 . S
C1218 C1216 1.394 . S
C1218 C1219 1.369 . S
C1218 C1222 1.531 . S
C1219 C1218 1.369 . S
C1219 C1220 1.410 . S
C1219 C1227 1.503 . S
C1220 C1219 1.410 . S
C1220 C1221 1.392 . S
C1220 C1223 1.511 . S
C1221 C1217 1.376 . S
C1221 C1220 1.392 . S
C1221 H1233 0.929 . S
C1222 C1218 1.531 . S
C1222 H1234 0.960 . S
C1222 H1235 0.962 . S
C1222 H1236 0.960 . S
C1223 C1220 1.511 . S
C1223 H1237 0.961 . S
C1223 H1238 0.961 . S
C1223 H1239 0.961 . S
C1224 C1225 1.370 . S
C1224 C1226 1.363 . S
C1224 H1240 0.931 . S
C1225 C1224 1.370 . S
C1225 C1229 1.408 . S
C1226 C1224 1.363 . S
C1226 C1227 1.370 . S
C1226 C1230 1.524 . S
C1227 C1219 1.503 . S
C1227 C1226 1.370 . S
C1227 C1228 1.403 . S
C1228 C1227 1.403 . S
C1228 C1229 1.404 . S
C1228 C1231 1.539 . S
C1229 C1225 1.408 . S
C1229 C1228 1.404 . S
C1229 H1241 0.930 . S
C1230 C1226 1.524 . S
C1230 H1242 0.956 . S
C1230 H1243 0.961 . S
C1230 H1244 0.961 . S
C1231 C1228 1.539 . S
C1231 H1245 0.958 . S
C1231 H1246 0.961 . S
C1231 H1247 0.960 . S
H1232 C1216 0.931 . S
H1233 C1221 0.929 . S
H1234 C1222 0.960 . S
H1235 C1222 0.962 . S
H1236 C1222 0.960 . S
H1237 C1223 0.961 . S
H1238 C1223 0.961 . S
H1239 C1223 0.961 . S
H1240 C1224 0.931 . S
H1241 C1229 0.930 . S
H1242 C1230 0.956 . S
H1243 C1230 0.961 . S
H1244 C1230 0.961 . S
H1245 C1231 0.958 . S
H1246 C1231 0.961 . S
H1247 C1231 0.960 . S
C1248 C1249 1.391 . S
C1248 C1250 1.394 . S
C1248 H1264 0.931 . S
C1249 C1248 1.391 . S
C1249 C1253 1.376 . S
C1250 C1248 1.394 . S
C1250 C1251 1.369 . S
C1250 C1254 1.531 . S
C1251 C1250 1.369 . S
C1251 C1252 1.410 . S
C1251 C1259 1.503 . S
C1252 C1251 1.410 . S
C1252 C1253 1.392 . S
C1252 C1255 1.511 . S
C1253 C1249 1.376 . S
C1253 C1252 1.392 . S
C1253 H1265 0.929 . S
C1254 C1250 1.531 . S
C1254 H1266 0.960 . S
C1254 H1267 0.962 . S
C1254 H1268 0.960 . S
C1255 C1252 1.511 . S
C1255 H1269 0.961 . S
C1255 H1270 0.961 . S
C1255 H1271 0.961 . S
C1256 C1257 1.370 . S
C1256 C1258 1.363 . S
C1256 H1272 0.931 . S
C1257 C1256 1.370 . S
C1257 C1261 1.408 . S
C1258 C1256 1.363 . S
C1258 C1259 1.370 . S
C1258 C1262 1.524 . S
C1259 C1251 1.503 . S
C1259 C1258 1.370 . S
C1259 C1260 1.403 . S
C1260 C1259 1.403 . S
C1260 C1261 1.404 . S
C1260 C1263 1.539 . S
C1261 C1257 1.408 . S
C1261 C1260 1.404 . S
C1261 H1273 0.930 . S
C1262 C1258 1.524 . S
C1262 H1274 0.956 . S
C1262 H1275 0.961 . S
C1262 H1276 0.961 . S
C1263 C1260 1.539 . S
C1263 H1277 0.958 . S
C1263 H1278 0.961 . S
C1263 H1279 0.960 . S
H1264 C1248 0.931 . S
H1265 C1253 0.929 . S
H1266 C1254 0.960 . S
H1267 C1254 0.962 . S
H1268 C1254 0.960 . S
H1269 C1255 0.961 . S
H1270 C1255 0.961 . S
H1271 C1255 0.961 . S
H1272 C1256 0.931 . S
H1273 C1261 0.930 . S
H1274 C1262 0.956 . S
H1275 C1262 0.961 . S
H1276 C1262 0.961 . S
H1277 C1263 0.958 . S
H1278 C1263 0.961 . S
H1279 C1263 0.960 . S
C1280 C1281 1.391 . S
C1280 C1282 1.394 . S
C1280 H1296 0.931 . S
C1281 C1280 1.391 . S
C1281 C1285 1.376 . S
C1282 C1280 1.394 . S
C1282 C1283 1.369 . S
C1282 C1286 1.531 . S
C1283 C1282 1.369 . S
C1283 C1284 1.410 . S
C1283 C1291 1.503 . S
C1284 C1283 1.410 . S
C1284 C1285 1.392 . S
C1284 C1287 1.511 . S
C1285 C1281 1.376 . S
C1285 C1284 1.392 . S
C1285 H1297 0.929 . S
C1286 C1282 1.531 . S
C1286 H1298 0.960 . S
C1286 H1299 0.962 . S
C1286 H1300 0.960 . S
C1287 C1284 1.511 . S
C1287 H1301 0.961 . S
C1287 H1302 0.961 . S
C1287 H1303 0.961 . S
C1288 C1289 1.370 . S
C1288 C1290 1.363 . S
C1288 H1304 0.931 . S
C1289 C1288 1.370 . S
C1289 C1293 1.408 . S
C1290 C1288 1.363 . S
C1290 C1291 1.370 . S
C1290 C1294 1.524 . S
C1291 C1283 1.503 . S
C1291 C1290 1.370 . S
C1291 C1292 1.403 . S
C1292 C1291 1.403 . S
C1292 C1293 1.404 . S
C1292 C1295 1.539 . S
C1293 C1289 1.408 . S
C1293 C1292 1.404 . S
C1293 H1305 0.930 . S
C1294 C1290 1.524 . S
C1294 H1306 0.956 . S
C1294 H1307 0.961 . S
C1294 H1308 0.961 . S
C1295 C1292 1.539 . S
C1295 H1309 0.958 . S
C1295 H1310 0.961 . S
C1295 H1311 0.960 . S
H1296 C1280 0.931 . S
H1297 C1285 0.929 . S
H1298 C1286 0.960 . S
H1299 C1286 0.962 . S
H1300 C1286 0.960 . S
H1301 C1287 0.961 . S
H1302 C1287 0.961 . S
H1303 C1287 0.961 . S
H1304 C1288 0.931 . S
H1305 C1293 0.930 . S
H1306 C1294 0.956 . S
H1307 C1294 0.961 . S
H1308 C1294 0.961 . S
H1309 C1295 0.958 . S
H1310 C1295 0.961 . S
H1311 C1295 0.960 . S
C1312 C1313 1.391 . S
C1312 C1314 1.394 . S
C1312 H1328 0.931 . S
C1313 C1312 1.391 . S
C1313 C1317 1.376 . S
C1314 C1312 1.394 . S
C1314 C1315 1.369 . S
C1314 C1318 1.531 . S
C1315 C1314 1.369 . S
C1315 C1316 1.410 . S
C1315 C1323 1.505 1_455 S
C1316 C1315 1.410 . S
C1316 C1317 1.392 . S
C1316 C1319 1.511 1_455 S
C1317 C1313 1.376 . S
C1317 C1316 1.392 . S
C1317 H1329 0.929 . S
C1318 C1314 1.531 . S
C1318 H1330 0.960 . S
C1318 H1331 0.962 . S
C1318 H1332 0.960 . S
C1319 C1316 1.511 1_655 S
C1319 H1333 0.961 . S
C1319 H1334 0.961 . S
C1319 H1335 0.961 1_655 S
C1320 C1321 1.370 . S
C1320 C1322 1.363 . S
C1320 H1336 0.931 . S
C1321 C1320 1.370 . S
C1321 C1325 1.408 1_655 S
C1322 C1320 1.363 . S
C1322 C1323 1.368 . S
C1322 C1326 1.524 . S
C1323 C1315 1.505 1_655 S
C1323 C1322 1.368 . S
C1323 C1324 1.403 1_655 S
C1324 C1323 1.403 1_455 S
C1324 C1325 1.404 . S
C1324 C1327 1.539 . S
C1325 C1321 1.408 1_455 S
C1325 C1324 1.404 . S
C1325 H1337 0.930 . S
C1326 C1322 1.524 . S
C1326 H1338 0.956 . S
C1326 H1339 0.961 . S
C1326 H1340 0.961 . S
C1327 C1324 1.539 . S
C1327 H1341 0.958 . S
C1327 H1342 0.961 . S
C1327 H1343 0.960 . S
H1328 C1312 0.931 . S
H1329 C1317 0.929 . S
H1330 C1318 0.960 . S
H1331 C1318 0.962 . S
H1332 C1318 0.960 . S
H1333 C1319 0.961 . S
H1334 C1319 0.961 . S
H1335 C1319 0.961 1_455 S
H1336 C1320 0.931 . S
H1337 C1325 0.930 . S
H1338 C1326 0.956 . S
H1339 C1326 0.961 . S
H1340 C1326 0.961 . S
H1341 C1327 0.958 . S
H1342 C1327 0.961 . S
H1343 C1327 0.960 . S
C1344 C1345 1.391 . S
C1344 C1346 1.394 . S
C1344 H1360 0.931 . S
C1345 C1344 1.391 . S
C1345 C1349 1.376 . S
C1346 C1344 1.394 . S
C1346 C1347 1.369 . S
C1346 C1350 1.531 . S
C1347 C1346 1.369 . S
C1347 C1348 1.410 . S
C1347 C1355 1.503 . S
C1348 C1347 1.410 . S
C1348 C1349 1.392 . S
C1348 C1351 1.511 . S
C1349 C1345 1.376 . S
C1349 C1348 1.392 . S
C1349 H1361 0.929 . S
C1350 C1346 1.531 . S
C1350 H1362 0.960 . S
C1350 H1363 0.962 . S
C1350 H1364 0.960 . S
C1351 C1348 1.511 . S
C1351 H1365 0.961 . S
C1351 H1366 0.961 . S
C1351 H1367 0.961 . S
C1352 C1353 1.370 . S
C1352 C1354 1.363 . S
C1352 H1368 0.931 . S
C1353 C1352 1.370 . S
C1353 C1357 1.408 . S
C1354 C1352 1.363 . S
C1354 C1355 1.370 . S
C1354 C1358 1.524 . S
C1355 C1347 1.503 . S
C1355 C1354 1.370 . S
C1355 C1356 1.403 . S
C1356 C1355 1.403 . S
C1356 C1357 1.404 . S
C1356 C1359 1.539 . S
C1357 C1353 1.408 . S
C1357 C1356 1.404 . S
C1357 H1369 0.930 . S
C1358 C1354 1.524 . S
C1358 H1370 0.956 . S
C1358 H1371 0.961 . S
C1358 H1372 0.961 . S
C1359 C1356 1.539 . S
C1359 H1373 0.958 . S
C1359 H1374 0.961 . S
C1359 H1375 0.960 . S
H1360 C1344 0.931 . S
H1361 C1349 0.929 . S
H1362 C1350 0.960 . S
H1363 C1350 0.962 . S
H1364 C1350 0.960 . S
H1365 C1351 0.961 . S
H1366 C1351 0.961 . S
H1367 C1351 0.961 . S
H1368 C1352 0.931 . S
H1369 C1357 0.930 . S
H1370 C1358 0.956 . S
H1371 C1358 0.961 . S
H1372 C1358 0.961 . S
H1373 C1359 0.958 . S
H1374 C1359 0.961 . S
H1375 C1359 0.960 . S
C1376 C1377 1.391 . S
C1376 C1378 1.394 . S
C1376 H1392 0.931 . S
C1377 C1376 1.391 . S
C1377 C1381 1.376 . S
C1378 C1376 1.394 . S
C1378 C1379 1.369 . S
C1378 C1382 1.531 . S
C1379 C1378 1.369 . S
C1379 C1380 1.410 . S
C1379 C1387 1.503 . S
C1380 C1379 1.410 . S
C1380 C1381 1.392 . S
C1380 C1383 1.511 . S
C1381 C1377 1.376 . S
C1381 C1380 1.392 . S
C1381 H1393 0.929 . S
C1382 C1378 1.531 . S
C1382 H1394 0.960 . S
C1382 H1395 0.962 . S
C1382 H1396 0.960 . S
C1383 C1380 1.511 . S
C1383 H1397 0.961 . S
C1383 H1398 0.961 . S
C1383 H1399 0.961 . S
C1384 C1385 1.370 . S
C1384 C1386 1.363 . S
C1384 H1400 0.931 . S
C1385 C1384 1.370 . S
C1385 C1389 1.408 . S
C1386 C1384 1.363 . S
C1386 C1387 1.370 . S
C1386 C1390 1.524 . S
C1387 C1379 1.503 . S
C1387 C1386 1.370 . S
C1387 C1388 1.403 . S
C1388 C1387 1.403 . S
C1388 C1389 1.404 . S
C1388 C1391 1.539 . S
C1389 C1385 1.408 . S
C1389 C1388 1.404 . S
C1389 H1401 0.930 . S
C1390 C1386 1.524 . S
C1390 H1402 0.956 . S
C1390 H1403 0.961 . S
C1390 H1404 0.961 . S
C1391 C1388 1.539 . S
C1391 H1405 0.958 . S
C1391 H1406 0.961 . S
C1391 H1407 0.960 . S
H1392 C1376 0.931 . S
H1393 C1381 0.929 . S
H1394 C1382 0.960 . S
H1395 C1382 0.962 . S
H1396 C1382 0.960 . S
H1397 C1383 0.961 . S
H1398 C1383 0.961 . S
H1399 C1383 0.961 . S
H1400 C1384 0.931 . S
H1401 C1389 0.930 . S
H1402 C1390 0.956 . S
H1403 C1390 0.961 . S
H1404 C1390 0.961 . S
H1405 C1391 0.958 . S
H1406 C1391 0.961 . S
H1407 C1391 0.960 . S
C1408 C1409 1.391 . S
C1408 C1410 1.394 . S
C1408 H1424 0.931 . S
C1409 C1408 1.391 . S
C1409 C1413 1.376 . S
C1410 C1408 1.394 . S
C1410 C1411 1.369 . S
C1410 C1414 1.531 . S
C1411 C1410 1.369 . S
C1411 C1412 1.410 . S
C1411 C1419 1.503 . S
C1412 C1411 1.410 . S
C1412 C1413 1.392 . S
C1412 C1415 1.511 . S
C1413 C1409 1.376 . S
C1413 C1412 1.392 . S
C1413 H1425 0.929 . S
C1414 C1410 1.531 . S
C1414 H1426 0.960 . S
C1414 H1427 0.962 . S
C1414 H1428 0.960 . S
C1415 C1412 1.511 . S
C1415 H1429 0.961 . S
C1415 H1430 0.961 . S
C1415 H1431 0.961 . S
C1416 C1417 1.370 . S
C1416 C1418 1.363 . S
C1416 H1432 0.931 . S
C1417 C1416 1.370 . S
C1417 C1421 1.408 . S
C1418 C1416 1.363 . S
C1418 C1419 1.370 . S
C1418 C1422 1.524 . S
C1419 C1411 1.503 . S
C1419 C1418 1.370 . S
C1419 C1420 1.403 . S
C1420 C1419 1.403 . S
C1420 C1421 1.404 . S
C1420 C1423 1.539 . S
C1421 C1417 1.408 . S
C1421 C1420 1.404 . S
C1421 H1433 0.930 . S
C1422 C1418 1.524 . S
C1422 H1434 0.956 . S
C1422 H1435 0.961 . S
C1422 H1436 0.961 . S
C1423 C1420 1.539 . S
C1423 H1437 0.958 . S
C1423 H1438 0.961 . S
C1423 H1439 0.960 . S
H1424 C1408 0.931 . S
H1425 C1413 0.929 . S
H1426 C1414 0.960 . S
H1427 C1414 0.962 . S
H1428 C1414 0.960 . S
H1429 C1415 0.961 . S
H1430 C1415 0.961 . S
H1431 C1415 0.961 . S
H1432 C1416 0.931 . S
H1433 C1421 0.930 . S
H1434 C1422 0.956 . S
H1435 C1422 0.961 . S
H1436 C1422 0.961 . S
H1437 C1423 0.958 . S
H1438 C1423 0.961 . S
H1439 C1423 0.960 . S
C1440 C1441 1.391 . S
C1440 C1442 1.394 . S
C1440 H1456 0.931 . S
C1441 C1440 1.391 . S
C1441 C1445 1.376 . S
C1442 C1440 1.394 . S
C1442 C1443 1.369 . S
C1442 C1446 1.531 . S
C1443 C1442 1.369 . S
C1443 C1444 1.410 . S
C1443 C1451 1.503 . S
C1444 C1443 1.410 . S
C1444 C1445 1.392 . S
C1444 C1447 1.511 . S
C1445 C1441 1.376 . S
C1445 C1444 1.392 . S
C1445 H1457 0.929 . S
C1446 C1442 1.531 . S
C1446 H1458 0.960 . S
C1446 H1459 0.962 . S
C1446 H1460 0.960 . S
C1447 C1444 1.511 . S
C1447 H1461 0.961 . S
C1447 H1462 0.961 . S
C1447 H1463 0.961 . S
C1448 C1449 1.370 . S
C1448 C1450 1.363 . S
C1448 H1464 0.931 . S
C1449 C1448 1.370 . S
C1449 C1453 1.408 . S
C1450 C1448 1.363 . S
C1450 C1451 1.370 . S
C1450 C1454 1.524 . S
C1451 C1443 1.503 . S
C1451 C1450 1.370 . S
C1451 C1452 1.403 . S
C1452 C1451 1.403 . S
C1452 C1453 1.404 . S
C1452 C1455 1.539 . S
C1453 C1449 1.408 . S
C1453 C1452 1.404 . S
C1453 H1465 0.930 . S
C1454 C1450 1.524 . S
C1454 H1466 0.956 . S
C1454 H1467 0.961 . S
C1454 H1468 0.961 . S
C1455 C1452 1.539 . S
C1455 H1469 0.958 . S
C1455 H1470 0.961 . S
C1455 H1471 0.960 . S
H1456 C1440 0.931 . S
H1457 C1445 0.929 . S
H1458 C1446 0.960 . S
H1459 C1446 0.962 . S
H1460 C1446 0.960 . S
H1461 C1447 0.961 . S
H1462 C1447 0.961 . S
H1463 C1447 0.961 . S
H1464 C1448 0.931 . S
H1465 C1453 0.930 . S
H1466 C1454 0.956 . S
H1467 C1454 0.961 . S
H1468 C1454 0.961 . S
H1469 C1455 0.958 . S
H1470 C1455 0.961 . S
H1471 C1455 0.960 . S
C1472 C1473 1.391 . S
C1472 C1474 1.394 . S
C1472 H1488 0.931 . S
C1473 C1472 1.391 . S
C1473 C1477 1.376 1_565 S
C1474 C1472 1.394 . S
C1474 C1475 1.369 1_565 S
C1474 C1478 1.531 . S
C1475 C1474 1.369 1_545 S
C1475 C1476 1.410 . S
C1475 C1483 1.503 . S
C1476 C1475 1.410 . S
C1476 C1477 1.392 . S
C1476 C1479 1.511 . S
C1477 C1473 1.376 1_545 S
C1477 C1476 1.392 . S
C1477 H1489 0.929 . S
C1478 C1474 1.531 . S
C1478 H1490 0.960 1_565 S
C1478 H1491 0.962 . S
C1478 H1492 0.960 . S
C1479 C1476 1.511 . S
C1479 H1493 0.961 . S
C1479 H1494 0.961 . S
C1479 H1495 0.961 . S
C1480 C1481 1.370 . S
C1480 C1482 1.363 1_545 S
C1480 H1496 0.931 1_545 S
C1481 C1480 1.370 . S
C1481 C1485 1.408 . S
C1482 C1480 1.363 1_565 S
C1482 C1483 1.370 1_565 S
C1482 C1486 1.524 . S
C1483 C1475 1.503 . S
C1483 C1482 1.370 1_545 S
C1483 C1484 1.403 . S
C1484 C1483 1.403 . S
C1484 C1485 1.404 . S
C1484 C1487 1.539 . S
C1485 C1481 1.408 . S
C1485 C1484 1.404 . S
C1485 H1497 0.930 . S
C1486 C1482 1.524 . S
C1486 H1498 0.956 . S
C1486 H1499 0.961 . S
C1486 H1500 0.961 . S
C1487 C1484 1.539 . S
C1487 H1501 0.958 . S
C1487 H1502 0.961 . S
C1487 H1503 0.960 . S
H1488 C1472 0.931 . S
H1489 C1477 0.929 . S
H1490 C1478 0.960 1_545 S
H1491 C1478 0.962 . S
H1492 C1478 0.960 . S
H1493 C1479 0.961 . S
H1494 C1479 0.961 . S
H1495 C1479 0.961 . S
H1496 C1480 0.931 1_565 S
H1497 C1485 0.930 . S
H1498 C1486 0.956 . S
H1499 C1486 0.961 . S
H1500 C1486 0.961 . S
H1501 C1487 0.958 . S
H1502 C1487 0.961 . S
H1503 C1487 0.960 . S
C1504 C1505 1.393 . S
C1504 C1506 1.403 . S
C1504 H1520 0.919 1_554 S
C1505 C1504 1.393 . S
C1505 C1509 1.376 . S
C1506 C1504 1.403 . S
C1506 C1507 1.369 . S
C1506 C1510 1.529 1_554 S
C1507 C1506 1.369 . S
C1507 C1508 1.410 . S
C1507 C1515 1.503 . S
C1508 C1507 1.410 . S
C1508 C1509 1.392 . S
C1508 C1511 1.511 . S
C1509 C1505 1.376 . S
C1509 C1508 1.392 . S
C1509 H1521 0.929 . S
C1510 C1506 1.529 1_556 S
C1510 H1522 0.960 . S
C1510 H1523 0.943 1_556 S
C1510 H1524 0.982 . S
C1511 C1508 1.511 . S
C1511 H1525 0.961 . S
C1511 H1526 0.961 . S
C1511 H1527 0.961 . S
C1512 C1513 1.370 . S
C1512 C1514 1.363 . S
C1512 H1528 0.931 . S
C1513 C1512 1.370 . S
C1513 C1517 1.408 . S
C1514 C1512 1.363 . S
C1514 C1515 1.370 . S
C1514 C1518 1.524 . S
C1515 C1507 1.503 . S
C1515 C1514 1.370 . S
C1515 C1516 1.403 . S
C1516 C1515 1.403 . S
C1516 C1517 1.404 . S
C1516 C1519 1.539 1_554 S
C1517 C1513 1.408 . S
C1517 C1516 1.404 . S
C1517 H1529 0.930 . S
C1518 C1514 1.524 . S
C1518 H1530 0.956 . S
C1518 H1531 0.961 . S
C1518 H1532 0.961 . S
C1519 C1516 1.539 1_556 S
C1519 H1533 0.958 . S
C1519 H1534 0.961 . S
C1519 H1535 0.960 . S
H1520 C1504 0.919 1_556 S
H1521 C1509 0.929 . S
H1522 C1510 0.960 . S
H1523 C1510 0.943 1_554 S
H1524 C1510 0.982 . S
H1525 C1511 0.961 . S
H1526 C1511 0.961 . S
H1527 C1511 0.961 . S
H1528 C1512 0.931 . S
H1529 C1517 0.930 . S
H1530 C1518 0.956 . S
H1531 C1518 0.961 . S
H1532 C1518 0.961 . S
H1533 C1519 0.958 . S
H1534 C1519 0.961 . S
H1535 C1519 0.960 . S
C1536 C1537 1.391 . S
C1536 C1538 1.394 . S
C1536 H1552 0.931 . S
C1537 C1536 1.391 . S
C1537 C1541 1.376 . S
C1538 C1536 1.394 . S
C1538 C1539 1.369 . S
C1538 C1542 1.531 . S
C1539 C1538 1.369 . S
C1539 C1540 1.410 . S
C1539 C1547 1.503 . S
C1540 C1539 1.410 . S
C1540 C1541 1.392 . S
C1540 C1543 1.511 . S
C1541 C1537 1.376 . S
C1541 C1540 1.392 . S
C1541 H1553 0.929 . S
C1542 C1538 1.531 . S
C1542 H1554 0.960 . S
C1542 H1555 0.962 . S
C1542 H1556 0.960 . S
C1543 C1540 1.511 . S
C1543 H1557 0.961 . S
C1543 H1558 0.961 . S
C1543 H1559 0.961 . S
C1544 C1545 1.370 . S
C1544 C1546 1.363 . S
C1544 H1560 0.931 . S
C1545 C1544 1.370 . S
C1545 C1549 1.408 . S
C1546 C1544 1.363 . S
C1546 C1547 1.370 . S
C1546 C1550 1.524 . S
C1547 C1539 1.503 . S
C1547 C1546 1.370 . S
C1547 C1548 1.403 . S
C1548 C1547 1.403 . S
C1548 C1549 1.404 . S
C1548 C1551 1.539 . S
C1549 C1545 1.408 . S
C1549 C1548 1.404 . S
C1549 H1561 0.930 . S
C1550 C1546 1.524 . S
C1550 H1562 0.956 . S
C1550 H1563 0.961 . S
C1550 H1564 0.961 . S
C1551 C1548 1.539 . S
C1551 H1565 0.958 . S
C1551 H1566 0.961 . S
C1551 H1567 0.960 . S
H1552 C1536 0.931 . S
H1553 C1541 0.929 . S
H1554 C1542 0.960 . S
H1555 C1542 0.962 . S
H1556 C1542 0.960 . S
H1557 C1543 0.961 . S
H1558 C1543 0.961 . S
H1559 C1543 0.961 . S
H1560 C1544 0.931 . S
H1561 C1549 0.930 . S
H1562 C1550 0.956 . S
H1563 C1550 0.961 . S
H1564 C1550 0.961 . S
H1565 C1551 0.958 . S
H1566 C1551 0.961 . S
H1567 C1551 0.960 . S
C1568 C1569 1.391 . S
C1568 C1570 1.394 . S
C1568 H1584 0.931 . S
C1569 C1568 1.391 . S
C1569 C1573 1.376 . S
C1570 C1568 1.394 . S
C1570 C1571 1.369 . S
C1570 C1574 1.531 . S
C1571 C1570 1.369 . S
C1571 C1572 1.410 . S
C1571 C1579 1.503 . S
C1572 C1571 1.410 . S
C1572 C1573 1.392 . S
C1572 C1575 1.511 . S
C1573 C1569 1.376 . S
C1573 C1572 1.392 . S
C1573 H1585 0.929 . S
C1574 C1570 1.531 . S
C1574 H1586 0.960 . S
C1574 H1587 0.962 . S
C1574 H1588 0.960 . S
C1575 C1572 1.511 . S
C1575 H1589 0.961 . S
C1575 H1590 0.961 . S
C1575 H1591 0.961 . S
C1576 C1577 1.370 . S
C1576 C1578 1.363 . S
C1576 H1592 0.931 . S
C1577 C1576 1.370 . S
C1577 C1581 1.408 . S
C1578 C1576 1.363 . S
C1578 C1579 1.370 . S
C1578 C1582 1.524 . S
C1579 C1571 1.503 . S
C1579 C1578 1.370 . S
C1579 C1580 1.403 . S
C1580 C1579 1.403 . S
C1580 C1581 1.404 . S
C1580 C1583 1.539 . S
C1581 C1577 1.408 . S
C1581 C1580 1.404 . S
C1581 H1593 0.930 . S
C1582 C1578 1.524 . S
C1582 H1594 0.956 . S
C1582 H1595 0.961 . S
C1582 H1596 0.961 . S
C1583 C1580 1.539 . S
C1583 H1597 0.958 . S
C1583 H1598 0.961 . S
C1583 H1599 0.960 . S
H1584 C1568 0.931 . S
H1585 C1573 0.929 . S
H1586 C1574 0.960 . S
H1587 C1574 0.962 . S
H1588 C1574 0.960 . S
H1589 C1575 0.961 . S
H1590 C1575 0.961 . S
H1591 C1575 0.961 . S
H1592 C1576 0.931 . S
H1593 C1581 0.930 . S
H1594 C1582 0.956 . S
H1595 C1582 0.961 . S
H1596 C1582 0.961 . S
H1597 C1583 0.958 . S
H1598 C1583 0.961 . S
H1599 C1583 0.960 . S
C1600 C1601 1.391 . S
C1600 C1602 1.394 . S
C1600 H1616 0.931 . S
C1601 C1600 1.391 . S
C1601 C1605 1.376 . S
C1602 C1600 1.394 . S
C1602 C1603 1.369 . S
C1602 C1606 1.531 . S
C1603 C1602 1.369 . S
C1603 C1604 1.410 . S
C1603 C1611 1.503 . S
C1604 C1603 1.410 . S
C1604 C1605 1.392 . S
C1604 C1607 1.511 . S
C1605 C1601 1.376 . S
C1605 C1604 1.392 . S
C1605 H1617 0.929 . S
C1606 C1602 1.531 . S
C1606 H1618 0.960 . S
C1606 H1619 0.962 . S
C1606 H1620 0.960 . S
C1607 C1604 1.511 . S
C1607 H1621 0.961 . S
C1607 H1622 0.961 . S
C1607 H1623 0.961 . S
C1608 C1609 1.370 . S
C1608 C1610 1.363 . S
C1608 H1624 0.931 . S
C1609 C1608 1.370 . S
C1609 C1613 1.408 . S
C1610 C1608 1.363 . S
C1610 C1611 1.370 . S
C1610 C1614 1.524 . S
C1611 C1603 1.503 . S
C1611 C1610 1.370 . S
C1611 C1612 1.403 . S
C1612 C1611 1.403 . S
C1612 C1613 1.404 . S
C1612 C1615 1.539 . S
C1613 C1609 1.408 . S
C1613 C1612 1.404 . S
C1613 H1625 0.930 . S
C1614 C1610 1.524 . S
C1614 H1626 0.956 . S
C1614 H1627 0.961 . S
C1614 H1628 0.961 . S
C1615 C1612 1.539 . S
C1615 H1629 0.958 . S
C1615 H1630 0.961 . S
C1615 H1631 0.960 . S
H1616 C1600 0.931 . S
H1617 C1605 0.929 . S
H1618 C1606 0.960 . S
H1619 C1606 0.962 . S
H1620 C1606 0.960 . S
H1621 C1607 0.961 . S
H1622 C1607 0.961 . S
H1623 C1607 0.961 . S
H1624 C1608 0.931 . S
H1625 C1613 0.930 . S
H1626 C1614 0.956 . S
H1627 C1614 0.961 . S
H1628 C1614 0.961 . S
H1629 C1615 0.958 . S
H1630 C1615 0.961 . S
H1631 C1615 0.960 . S
C1632 C1633 1.391 . S
C1632 C1634 1.394 . S
C1632 H1648 0.931 . S
C1633 C1632 1.391 . S
C1633 C1637 1.376 . S
C1634 C1632 1.394 . S
C1634 C1635 1.369 . S
C1634 C1638 1.531 . S
C1635 C1634 1.369 . S
C1635 C1636 1.410 . S
C1635 C1643 1.503 . S
C1636 C1635 1.410 . S
C1636 C1637 1.392 . S
C1636 C1639 1.511 . S
C1637 C1633 1.376 . S
C1637 C1636 1.392 . S
C1637 H1649 0.929 . S
C1638 C1634 1.531 . S
C1638 H1650 0.960 . S
C1638 H1651 0.962 . S
C1638 H1652 0.960 . S
C1639 C1636 1.511 . S
C1639 H1653 0.961 . S
C1639 H1654 0.961 . S
C1639 H1655 0.961 . S
C1640 C1641 1.370 . S
C1640 C1642 1.363 . S
C1640 H1656 0.931 . S
C1641 C1640 1.370 . S
C1641 C1645 1.408 . S
C1642 C1640 1.363 . S
C1642 C1643 1.370 . S
C1642 C1646 1.524 . S
C1643 C1635 1.503 . S
C1643 C1642 1.370 . S
C1643 C1644 1.403 . S
C1644 C1643 1.403 . S
C1644 C1645 1.404 . S
C1644 C1647 1.539 . S
C1645 C1641 1.408 . S
C1645 C1644 1.404 . S
C1645 H1657 0.930 . S
C1646 C1642 1.524 . S
C1646 H1658 0.956 . S
C1646 H1659 0.961 . S
C1646 H1660 0.961 . S
C1647 C1644 1.539 . S
C1647 H1661 0.958 . S
C1647 H1662 0.961 . S
C1647 H1663 0.960 . S
H1648 C1632 0.931 . S
H1649 C1637 0.929 . S
H1650 C1638 0.960 . S
H1651 C1638 0.962 . S
H1652 C1638 0.960 . S
H1653 C1639 0.961 . S
H1654 C1639 0.961 . S
H1655 C1639 0.961 . S
H1656 C1640 0.931 . S
H1657 C1645 0.930 . S
H1658 C1646 0.956 . S
H1659 C1646 0.961 . S
H1660 C1646 0.961 . S
H1661 C1647 0.958 . S
H1662 C1647 0.961 . S
H1663 C1647 0.960 . S
C1664 C1665 1.391 . S
C1664 C1666 1.394 . S
C1664 H1680 0.931 . S
C1665 C1664 1.391 . S
C1665 C1669 1.376 . S
C1666 C1664 1.394 . S
C1666 C1667 1.369 . S
C1666 C1670 1.531 . S
C1667 C1666 1.369 . S
C1667 C1668 1.410 . S
C1667 C1675 1.503 . S
C1668 C1667 1.410 . S
C1668 C1669 1.392 . S
C1668 C1671 1.511 . S
C1669 C1665 1.376 . S
C1669 C1668 1.392 . S
C1669 H1681 0.929 . S
C1670 C1666 1.531 . S
C1670 H1682 0.960 . S
C1670 H1683 0.962 . S
C1670 H1684 0.960 . S
C1671 C1668 1.511 . S
C1671 H1685 0.961 . S
C1671 H1686 0.961 . S
C1671 H1687 0.961 . S
C1672 C1673 1.370 . S
C1672 C1674 1.363 . S
C1672 H1688 0.931 . S
C1673 C1672 1.370 . S
C1673 C1677 1.408 . S
C1674 C1672 1.363 . S
C1674 C1675 1.370 . S
C1674 C1678 1.524 . S
C1675 C1667 1.503 . S
C1675 C1674 1.370 . S
C1675 C1676 1.403 . S
C1676 C1675 1.403 . S
C1676 C1677 1.404 . S
C1676 C1679 1.539 . S
C1677 C1673 1.408 . S
C1677 C1676 1.404 . S
C1677 H1689 0.930 . S
C1678 C1674 1.524 . S
C1678 H1690 0.956 . S
C1678 H1691 0.961 . S
C1678 H1692 0.961 . S
C1679 C1676 1.539 . S
C1679 H1693 0.958 . S
C1679 H1694 0.961 . S
C1679 H1695 0.960 . S
H1680 C1664 0.931 . S
H1681 C1669 0.929 . S
H1682 C1670 0.960 . S
H1683 C1670 0.962 . S
H1684 C1670 0.960 . S
H1685 C1671 0.961 . S
H1686 C1671 0.961 . S
H1687 C1671 0.961 . S
H1688 C1672 0.931 . S
H1689 C1677 0.930 . S
H1690 C1678 0.956 . S
H1691 C1678 0.961 . S
H1692 C1678 0.961 . S
H1693 C1679 0.958 . S
H1694 C1679 0.961 . S
H1695 C1679 0.960 . S
C1696 C1697 1.391 . S
C1696 C1698 1.394 . S
C1696 H1712 0.931 . S
C1697 C1696 1.391 . S
C1697 C1701 1.376 . S
C1698 C1696 1.394 . S
C1698 C1699 1.369 . S
C1698 C1702 1.531 . S
C1699 C1698 1.369 . S
C1699 C1700 1.410 . S
C1699 C1707 1.503 . S
C1700 C1699 1.410 . S
C1700 C1701 1.392 . S
C1700 C1703 1.511 . S
C1701 C1697 1.376 . S
C1701 C1700 1.392 . S
C1701 H1713 0.929 . S
C1702 C1698 1.531 . S
C1702 H1714 0.960 . S
C1702 H1715 0.962 . S
C1702 H1716 0.960 . S
C1703 C1700 1.511 . S
C1703 H1717 0.961 . S
C1703 H1718 0.961 . S
C1703 H1719 0.961 . S
C1704 C1705 1.370 . S
C1704 C1706 1.363 . S
C1704 H1720 0.931 . S
C1705 C1704 1.370 . S
C1705 C1709 1.408 . S
C1706 C1704 1.363 . S
C1706 C1707 1.370 . S
C1706 C1710 1.524 . S
C1707 C1699 1.503 . S
C1707 C1706 1.370 . S
C1707 C1708 1.403 . S
C1708 C1707 1.403 . S
C1708 C1709 1.404 . S
C1708 C1711 1.539 . S
C1709 C1705 1.408 . S
C1709 C1708 1.404 . S
C1709 H1721 0.930 . S
C1710 C1706 1.524 . S
C1710 H1722 0.956 . S
C1710 H1723 0.961 . S
C1710 H1724 0.961 . S
C1711 C1708 1.539 . S
C1711 H1725 0.958 . S
C1711 H1726 0.961 . S
C1711 H1727 0.960 . S
H1712 C1696 0.931 . S
H1713 C1701 0.929 . S
H1714 C1702 0.960 . S
H1715 C1702 0.962 . S
H1716 C1702 0.960 . S
H1717 C1703 0.961 . S
H1718 C1703 0.961 . S
H1719 C1703 0.961 . S
H1720 C1704 0.931 . S
H1721 C1709 0.930 . S
H1722 C1710 0.956 . S
H1723 C1710 0.961 . S
H1724 C1710 0.961 . S
H1725 C1711 0.958 . S
H1726 C1711 0.961 . S
H1727 C1711 0.960 . S
C1728 C1729 1.391 . S
C1728 C1730 1.394 . S
C1728 H1744 0.931 . S
C1729 C1728 1.391 . S
C1729 C1733 1.376 . S
C1730 C1728 1.394 . S
C1730 C1731 1.369 . S
C1730 C1734 1.531 . S
C1731 C1730 1.369 . S
C1731 C1732 1.410 . S
C1731 C1739 1.503 . S
C1732 C1731 1.410 . S
C1732 C1733 1.392 . S
C1732 C1735 1.511 . S
C1733 C1729 1.376 . S
C1733 C1732 1.392 . S
C1733 H1745 0.929 . S
C1734 C1730 1.531 . S
C1734 H1746 0.960 . S
C1734 H1747 0.962 . S
C1734 H1748 0.960 . S
C1735 C1732 1.511 . S
C1735 H1749 0.961 . S
C1735 H1750 0.961 . S
C1735 H1751 0.961 . S
C1736 C1737 1.370 . S
C1736 C1738 1.363 . S
C1736 H1752 0.931 . S
C1737 C1736 1.370 . S
C1737 C1741 1.408 . S
C1738 C1736 1.363 . S
C1738 C1739 1.370 . S
C1738 C1742 1.524 . S
C1739 C1731 1.503 . S
C1739 C1738 1.370 . S
C1739 C1740 1.403 . S
C1740 C1739 1.403 . S
C1740 C1741 1.404 . S
C1740 C1743 1.539 . S
C1741 C1737 1.408 . S
C1741 C1740 1.404 . S
C1741 H1753 0.930 . S
C1742 C1738 1.524 . S
C1742 H1754 0.956 . S
C1742 H1755 0.961 . S
C1742 H1756 0.961 . S
C1743 C1740 1.539 . S
C1743 H1757 0.958 . S
C1743 H1758 0.961 . S
C1743 H1759 0.960 . S
H1744 C1728 0.931 . S
H1745 C1733 0.929 . S
H1746 C1734 0.960 . S
H1747 C1734 0.962 . S
H1748 C1734 0.960 . S
H1749 C1735 0.961 . S
H1750 C1735 0.961 . S
H1751 C1735 0.961 . S
H1752 C1736 0.931 . S
H1753 C1741 0.930 . S
H1754 C1742 0.956 . S
H1755 C1742 0.961 . S
H1756 C1742 0.961 . S
H1757 C1743 0.958 . S
H1758 C1743 0.961 . S
H1759 C1743 0.960 . S
C1760 C1761 1.391 . S
C1760 C1762 1.394 . S
C1760 H1776 0.931 . S
C1761 C1760 1.391 . S
C1761 C1765 1.376 . S
C1762 C1760 1.394 . S
C1762 C1763 1.369 . S
C1762 C1766 1.531 . S
C1763 C1762 1.369 . S
C1763 C1764 1.410 . S
C1763 C1771 1.503 . S
C1764 C1763 1.410 . S
C1764 C1765 1.392 . S
C1764 C1767 1.511 . S
C1765 C1761 1.376 . S
C1765 C1764 1.392 . S
C1765 H1777 0.929 . S
C1766 C1762 1.531 . S
C1766 H1778 0.960 . S
C1766 H1779 0.962 . S
C1766 H1780 0.960 . S
C1767 C1764 1.511 . S
C1767 H1781 0.961 . S
C1767 H1782 0.961 . S
C1767 H1783 0.961 . S
C1768 C1769 1.370 . S
C1768 C1770 1.363 . S
C1768 H1784 0.931 . S
C1769 C1768 1.370 . S
C1769 C1773 1.408 . S
C1770 C1768 1.363 . S
C1770 C1771 1.370 . S
C1770 C1774 1.524 . S
C1771 C1763 1.503 . S
C1771 C1770 1.370 . S
C1771 C1772 1.403 . S
C1772 C1771 1.403 . S
C1772 C1773 1.404 . S
C1772 C1775 1.539 . S
C1773 C1769 1.408 . S
C1773 C1772 1.404 . S
C1773 H1785 0.930 . S
C1774 C1770 1.524 . S
C1774 H1786 0.956 . S
C1774 H1787 0.961 . S
C1774 H1788 0.961 . S
C1775 C1772 1.539 . S
C1775 H1789 0.958 . S
C1775 H1790 0.961 . S
C1775 H1791 0.960 . S
H1776 C1760 0.931 . S
H1777 C1765 0.929 . S
H1778 C1766 0.960 . S
H1779 C1766 0.962 . S
H1780 C1766 0.960 . S
H1781 C1767 0.961 . S
H1782 C1767 0.961 . S
H1783 C1767 0.961 . S
H1784 C1768 0.931 . S
H1785 C1773 0.930 . S
H1786 C1774 0.956 . S
H1787 C1774 0.961 . S
H1788 C1774 0.961 . S
H1789 C1775 0.958 . S
H1790 C1775 0.961 . S
H1791 C1775 0.960 . S
C1792 C1793 1.391 . S
C1792 C1794 1.394 . S
C1792 H1808 0.931 . S
C1793 C1792 1.391 . S
C1793 C1797 1.376 . S
C1794 C1792 1.394 . S
C1794 C1795 1.369 . S
C1794 C1798 1.531 . S
C1795 C1794 1.369 . S
C1795 C1796 1.410 . S
C1795 C1803 1.503 . S
C1796 C1795 1.410 . S
C1796 C1797 1.392 . S
C1796 C1799 1.511 . S
C1797 C1793 1.376 . S
C1797 C1796 1.392 . S
C1797 H1809 0.929 . S
C1798 C1794 1.531 . S
C1798 H1810 0.960 . S
C1798 H1811 0.962 . S
C1798 H1812 0.960 . S
C1799 C1796 1.511 . S
C1799 H1813 0.961 . S
C1799 H1814 0.961 . S
C1799 H1815 0.961 . S
C1800 C1801 1.370 . S
C1800 C1802 1.363 . S
C1800 H1816 0.931 . S
C1801 C1800 1.370 . S
C1801 C1805 1.408 . S
C1802 C1800 1.363 . S
C1802 C1803 1.370 . S
C1802 C1806 1.524 . S
C1803 C1795 1.503 . S
C1803 C1802 1.370 . S
C1803 C1804 1.403 . S
C1804 C1803 1.403 . S
C1804 C1805 1.404 . S
C1804 C1807 1.539 . S
C1805 C1801 1.408 . S
C1805 C1804 1.404 . S
C1805 H1817 0.930 . S
C1806 C1802 1.524 . S
C1806 H1818 0.956 . S
C1806 H1819 0.961 . S
C1806 H1820 0.961 . S
C1807 C1804 1.539 . S
C1807 H1821 0.958 . S
C1807 H1822 0.961 . S
C1807 H1823 0.960 . S
H1808 C1792 0.931 . S
H1809 C1797 0.929 . S
H1810 C1798 0.960 . S
H1811 C1798 0.962 . S
H1812 C1798 0.960 . S
H1813 C1799 0.961 . S
H1814 C1799 0.961 . S
H1815 C1799 0.961 . S
H1816 C1800 0.931 . S
H1817 C1805 0.930 . S
H1818 C1806 0.956 . S
H1819 C1806 0.961 . S
H1820 C1806 0.961 . S
H1821 C1807 0.958 . S
H1822 C1807 0.961 . S
H1823 C1807 0.960 . S
C1824 C1825 1.391 . S
C1824 C1826 1.394 . S
C1824 H1840 0.931 . S
C1825 C1824 1.391 . S
C1825 C1829 1.376 . S
C1826 C1824 1.394 . S
C1826 C1827 1.369 . S
C1826 C1830 1.531 . S
C1827 C1826 1.369 . S
C1827 C1828 1.410 . S
C1827 C1835 1.503 . S
C1828 C1827 1.410 . S
C1828 C1829 1.392 . S
C1828 C1831 1.511 . S
C1829 C1825 1.376 . S
C1829 C1828 1.392 . S
C1829 H1841 0.929 . S
C1830 C1826 1.531 . S
C1830 H1842 0.960 . S
C1830 H1843 0.962 . S
C1830 H1844 0.960 . S
C1831 C1828 1.511 . S
C1831 H1845 0.968 . S
C1831 H1846 0.961 . S
C1831 H1847 0.961 . S
C1832 C1833 1.370 1_556 S
C1832 C1834 1.363 1_556 S
C1832 H1848 0.931 . S
C1833 C1832 1.370 1_554 S
C1833 C1837 1.408 . S
C1834 C1832 1.363 1_554 S
C1834 C1835 1.370 . S
C1834 C1838 1.524 1_554 S
C1835 C1827 1.503 . S
C1835 C1834 1.370 . S
C1835 C1836 1.403 . S
C1836 C1835 1.403 . S
C1836 C1837 1.404 . S
C1836 C1839 1.539 . S
C1837 C1833 1.408 . S
C1837 C1836 1.404 . S
C1837 H1849 0.930 . S
C1838 C1834 1.524 1_556 S
C1838 H1850 0.956 . S
C1838 H1851 0.961 . S
C1838 H1852 0.961 . S
C1839 C1836 1.539 . S
C1839 H1853 0.958 . S
C1839 H1854 0.961 . S
C1839 H1855 0.960 . S
H1840 C1824 0.931 . S
H1841 C1829 0.929 . S
H1842 C1830 0.960 . S
H1843 C1830 0.962 . S
H1844 C1830 0.960 . S
H1845 C1831 0.968 . S
H1846 C1831 0.961 . S
H1847 C1831 0.961 . S
H1848 C1832 0.931 . S
H1849 C1837 0.930 . S
H1850 C1838 0.956 . S
H1851 C1838 0.961 . S
H1852 C1838 0.961 . S
H1853 C1839 0.958 . S
H1854 C1839 0.961 . S
H1855 C1839 0.960 . S
C1856 C1857 1.391 . S
C1856 C1858 1.394 . S
C1856 H1872 0.931 . S
C1857 C1856 1.391 . S
C1857 C1861 1.376 . S
C1858 C1856 1.394 . S
C1858 C1859 1.369 . S
C1858 C1862 1.531 . S
C1859 C1858 1.369 . S
C1859 C1860 1.410 . S
C1859 C1867 1.503 . S
C1860 C1859 1.410 . S
C1860 C1861 1.392 . S
C1860 C1863 1.511 . S
C1861 C1857 1.376 . S
C1861 C1860 1.392 . S
C1861 H1873 0.929 . S
C1862 C1858 1.531 . S
C1862 H1874 0.960 . S
C1862 H1875 0.962 . S
C1862 H1876 0.960 . S
C1863 C1860 1.511 . S
C1863 H1877 0.961 . S
C1863 H1878 0.961 . S
C1863 H1879 0.961 . S
C1864 C1865 1.370 . S
C1864 C1866 1.363 . S
C1864 H1880 0.931 . S
C1865 C1864 1.370 . S
C1865 C1869 1.408 . S
C1866 C1864 1.363 . S
C1866 C1867 1.370 . S
C1866 C1870 1.524 . S
C1867 C1859 1.503 . S
C1867 C1866 1.370 . S
C1867 C1868 1.403 . S
C1868 C1867 1.403 . S
C1868 C1869 1.404 . S
C1868 C1871 1.539 . S
C1869 C1865 1.408 . S
C1869 C1868 1.404 . S
C1869 H1881 0.930 . S
C1870 C1866 1.524 . S
C1870 H1882 0.956 . S
C1870 H1883 0.961 . S
C1870 H1884 0.961 . S
C1871 C1868 1.539 . S
C1871 H1885 0.958 . S
C1871 H1886 0.961 . S
C1871 H1887 0.960 . S
H1872 C1856 0.931 . S
H1873 C1861 0.929 . S
H1874 C1862 0.960 . S
H1875 C1862 0.962 . S
H1876 C1862 0.960 . S
H1877 C1863 0.961 . S
H1878 C1863 0.961 . S
H1879 C1863 0.961 . S
H1880 C1864 0.931 . S
H1881 C1869 0.930 . S
H1882 C1870 0.956 . S
H1883 C1870 0.961 . S
H1884 C1870 0.961 . S
H1885 C1871 0.958 . S
H1886 C1871 0.961 . S
H1887 C1871 0.960 . S
C1888 C1889 1.391 . S
C1888 C1890 1.394 . S
C1888 H1904 0.931 . S
C1889 C1888 1.391 . S
C1889 C1893 1.376 . S
C1890 C1888 1.394 . S
C1890 C1891 1.369 . S
C1890 C1894 1.531 . S
C1891 C1890 1.369 . S
C1891 C1892 1.410 . S
C1891 C1899 1.503 . S
C1892 C1891 1.410 . S
C1892 C1893 1.392 . S
C1892 C1895 1.511 . S
C1893 C1889 1.376 . S
C1893 C1892 1.392 . S
C1893 H1905 0.929 . S
C1894 C1890 1.531 . S
C1894 H1906 0.960 . S
C1894 H1907 0.962 . S
C1894 H1908 0.960 . S
C1895 C1892 1.511 . S
C1895 H1909 0.961 . S
C1895 H1910 0.961 . S
C1895 H1911 0.961 . S
C1896 C1897 1.370 . S
C1896 C1898 1.363 . S
C1896 H1912 0.931 . S
C1897 C1896 1.370 . S
C1897 C1901 1.408 . S
C1898 C1896 1.363 . S
C1898 C1899 1.370 . S
C1898 C1902 1.524 . S
C1899 C1891 1.503 . S
C1899 C1898 1.370 . S
C1899 C1900 1.403 . S
C1900 C1899 1.403 . S
C1900 C1901 1.404 . S
C1900 C1903 1.539 . S
C1901 C1897 1.408 . S
C1901 C1900 1.404 . S
C1901 H1913 0.930 . S
C1902 C1898 1.524 . S
C1902 H1914 0.956 . S
C1902 H1915 0.961 . S
C1902 H1916 0.961 . S
C1903 C1900 1.539 . S
C1903 H1917 0.958 . S
C1903 H1918 0.961 . S
C1903 H1919 0.960 . S
H1904 C1888 0.931 . S
H1905 C1893 0.929 . S
H1906 C1894 0.960 . S
H1907 C1894 0.962 . S
H1908 C1894 0.960 . S
H1909 C1895 0.961 . S
H1910 C1895 0.961 . S
H1911 C1895 0.961 . S
H1912 C1896 0.931 . S
H1913 C1901 0.930 . S
H1914 C1902 0.956 . S
H1915 C1902 0.961 . S
H1916 C1902 0.961 . S
H1917 C1903 0.958 . S
H1918 C1903 0.961 . S
H1919 C1903 0.960 . S
C1920 C1921 1.391 . S
C1920 C1922 1.394 . S
C1920 H1936 0.931 . S
C1921 C1920 1.391 . S
C1921 C1925 1.376 . S
C1922 C1920 1.394 . S
C1922 C1923 1.369 . S
C1922 C1926 1.531 . S
C1923 C1922 1.369 . S
C1923 C1924 1.410 . S
C1923 C1931 1.503 . S
C1924 C1923 1.410 . S
C1924 C1925 1.392 . S
C1924 C1927 1.511 . S
C1925 C1921 1.376 . S
C1925 C1924 1.392 . S
C1925 H1937 0.929 . S
C1926 C1922 1.531 . S
C1926 H1938 0.960 . S
C1926 H1939 0.962 . S
C1926 H1940 0.960 . S
C1927 C1924 1.511 . S
C1927 H1941 0.961 . S
C1927 H1942 0.961 . S
C1927 H1943 0.961 . S
C1928 C1929 1.370 . S
C1928 C1930 1.363 . S
C1928 H1944 0.931 . S
C1929 C1928 1.370 . S
C1929 C1933 1.408 . S
C1930 C1928 1.363 . S
C1930 C1931 1.370 . S
C1930 C1934 1.524 . S
C1931 C1923 1.503 . S
C1931 C1930 1.370 . S
C1931 C1932 1.403 . S
C1932 C1931 1.403 . S
C1932 C1933 1.404 . S
C1932 C1935 1.539 . S
C1933 C1929 1.408 . S
C1933 C1932 1.404 . S
C1933 H1945 0.930 . S
C1934 C1930 1.524 . S
C1934 H1946 0.956 . S
C1934 H1947 0.961 . S
C1934 H1948 0.961 . S
C1935 C1932 1.539 . S
C1935 H1949 0.958 . S
C1935 H1950 0.961 . S
C1935 H1951 0.960 . S
H1936 C1920 0.931 . S
H1937 C1925 0.929 . S
H1938 C1926 0.960 . S
H1939 C1926 0.962 . S
H1940 C1926 0.960 . S
H1941 C1927 0.961 . S
H1942 C1927 0.961 . S
H1943 C1927 0.961 . S
H1944 C1928 0.931 . S
H1945 C1933 0.930 . S
H1946 C1934 0.956 . S
H1947 C1934 0.961 . S
H1948 C1934 0.961 . S
H1949 C1935 0.958 . S
H1950 C1935 0.961 . S
H1951 C1935 0.960 . S
C1952 C1953 1.391 . S
C1952 C1954 1.394 . S
C1952 H1968 0.931 . S
C1953 C1952 1.391 . S
C1953 C1957 1.376 . S
C1954 C1952 1.394 . S
C1954 C1955 1.369 . S
C1954 C1958 1.531 . S
C1955 C1954 1.369 . S
C1955 C1956 1.410 . S
C1955 C1963 1.503 . S
C1956 C1955 1.410 . S
C1956 C1957 1.392 . S
C1956 C1959 1.511 . S
C1957 C1953 1.376 . S
C1957 C1956 1.392 . S
C1957 H1969 0.929 . S
C1958 C1954 1.531 . S
C1958 H1970 0.960 . S
C1958 H1971 0.962 . S
C1958 H1972 0.960 1_556 S
C1959 C1956 1.511 . S
C1959 H1973 0.961 . S
C1959 H1974 0.961 . S
C1959 H1975 0.961 . S
C1960 C1961 1.370 . S
C1960 C1962 1.363 . S
C1960 H1976 0.931 . S
C1961 C1960 1.370 . S
C1961 C1965 1.408 . S
C1962 C1960 1.363 . S
C1962 C1963 1.370 . S
C1962 C1966 1.524 . S
C1963 C1955 1.503 . S
C1963 C1962 1.370 . S
C1963 C1964 1.403 . S
C1964 C1963 1.403 . S
C1964 C1965 1.404 . S
C1964 C1967 1.539 . S
C1965 C1961 1.408 . S
C1965 C1964 1.404 . S
C1965 H1977 0.930 . S
C1966 C1962 1.524 . S
C1966 H1978 0.956 . S
C1966 H1979 0.961 . S
C1966 H1980 0.961 . S
C1967 C1964 1.539 . S
C1967 H1981 0.958 . S
C1967 H1982 0.961 . S
C1967 H1983 0.960 . S
H1968 C1952 0.931 . S
H1969 C1957 0.929 . S
H1970 C1958 0.960 . S
H1971 C1958 0.962 . S
H1972 C1958 0.960 1_554 S
H1973 C1959 0.961 . S
H1974 C1959 0.961 . S
H1975 C1959 0.961 . S
H1976 C1960 0.931 . S
H1977 C1965 0.930 . S
H1978 C1966 0.956 . S
H1979 C1966 0.961 . S
H1980 C1966 0.961 . S
H1981 C1967 0.958 . S
H1982 C1967 0.961 . S
H1983 C1967 0.960 . S
C1984 C1985 1.391 . S
C1984 C1986 1.394 . S
C1984 H2000 0.931 . S
C1985 C1984 1.391 . S
C1985 C1989 1.376 . S
C1986 C1984 1.394 . S
C1986 C1987 1.369 . S
C1986 C1990 1.531 . S
C1987 C1986 1.369 . S
C1987 C1988 1.410 . S
C1987 C1995 1.503 . S
C1988 C1987 1.410 . S
C1988 C1989 1.392 . S
C1988 C1991 1.511 1_556 S
C1989 C1985 1.376 . S
C1989 C1988 1.392 . S
C1989 H2001 0.929 1_556 S
C1990 C1986 1.531 . S
C1990 H2002 0.960 . S
C1990 H2003 0.962 . S
C1990 H2004 0.960 . S
C1991 C1988 1.511 1_554 S
C1991 H2005 0.961 . S
C1991 H2006 0.961 . S
C1991 H2007 0.961 1_554 S
C1992 C1993 1.370 . S
C1992 C1994 1.363 . S
C1992 H2008 0.931 . S
C1993 C1992 1.370 . S
C1993 C1997 1.408 . S
C1994 C1992 1.363 . S
C1994 C1995 1.370 . S
C1994 C1998 1.524 1_556 S
C1995 C1987 1.503 . S
C1995 C1994 1.370 . S
C1995 C1996 1.403 . S
C1996 C1995 1.403 . S
C1996 C1997 1.404 . S
C1996 C1999 1.539 . S
C1997 C1993 1.408 . S
C1997 C1996 1.404 . S
C1997 H2009 0.930 . S
C1998 C1994 1.524 1_554 S
C1998 H2010 0.956 1_554 S
C1998 H2011 0.961 . S
C1998 H2012 0.961 . S
C1999 C1996 1.539 . S
C1999 H2013 0.958 . S
C1999 H2014 0.961 . S
C1999 H2015 0.960 . S
H2000 C1984 0.931 . S
H2001 C1989 0.929 1_554 S
H2002 C1990 0.960 . S
H2003 C1990 0.962 . S
H2004 C1990 0.960 . S
H2005 C1991 0.961 . S
H2006 C1991 0.961 . S
H2007 C1991 0.961 1_556 S
H2008 C1992 0.931 . S
H2009 C1997 0.930 . S
H2010 C1998 0.956 1_556 S
H2011 C1998 0.961 . S
H2012 C1998 0.961 . S
H2013 C1999 0.958 . S
H2014 C1999 0.961 . S
H2015 C1999 0.960 . S
C2016 C2017 1.391 . S
C2016 C2018 1.394 . S
C2016 H2032 0.931 . S
C2017 C2016 1.391 . S
C2017 C2021 1.376 . S
C2018 C2016 1.394 . S
C2018 C2019 1.369 . S
C2018 C2022 1.531 . S
C2019 C2018 1.369 . S
C2019 C2020 1.410 . S
C2019 C2027 1.503 . S
C2020 C2019 1.410 . S
C2020 C2021 1.392 . S
C2020 C2023 1.511 . S
C2021 C2017 1.376 . S
C2021 C2020 1.392 . S
C2021 H2033 0.929 . S
C2022 C2018 1.531 . S
C2022 H2034 0.960 . S
C2022 H2035 0.962 . S
C2022 H2036 0.960 . S
C2023 C2020 1.511 . S
C2023 H2037 0.961 . S
C2023 H2038 0.961 . S
C2023 H2039 0.961 . S
C2024 C2025 1.370 . S
C2024 C2026 1.363 . S
C2024 H2040 0.931 . S
C2025 C2024 1.370 . S
C2025 C2029 1.408 . S
C2026 C2024 1.363 . S
C2026 C2027 1.370 . S
C2026 C2030 1.524 . S
C2027 C2019 1.503 . S
C2027 C2026 1.370 . S
C2027 C2028 1.403 . S
C2028 C2027 1.403 . S
C2028 C2029 1.404 . S
C2028 C2031 1.539 . S
C2029 C2025 1.408 . S
C2029 C2028 1.404 . S
C2029 H2041 0.930 . S
C2030 C2026 1.524 . S
C2030 H2042 0.956 . S
C2030 H2043 0.961 . S
C2030 H2044 0.961 . S
C2031 C2028 1.539 . S
C2031 H2045 0.958 . S
C2031 H2046 0.961 . S
C2031 H2047 0.960 . S
H2032 C2016 0.931 . S
H2033 C2021 0.929 . S
H2034 C2022 0.960 . S
H2035 C2022 0.962 . S
H2036 C2022 0.960 . S
H2037 C2023 0.961 . S
H2038 C2023 0.961 . S
H2039 C2023 0.961 . S
H2040 C2024 0.931 . S
H2041 C2029 0.930 . S
H2042 C2030 0.956 . S
H2043 C2030 0.961 . S
H2044 C2030 0.961 . S
H2045 C2031 0.958 . S
H2046 C2031 0.961 . S
H2047 C2031 0.960 . S
C2048 C2049 1.391 . S
C2048 C2050 1.394 . S
C2048 H2064 0.931 . S
C2049 C2048 1.391 . S
C2049 C2053 1.376 . S
C2050 C2048 1.394 . S
C2050 C2051 1.369 . S
C2050 C2054 1.531 . S
C2051 C2050 1.369 . S
C2051 C2052 1.410 . S
C2051 C2059 1.503 . S
C2052 C2051 1.410 . S
C2052 C2053 1.392 . S
C2052 C2055 1.511 . S
C2053 C2049 1.376 . S
C2053 C2052 1.392 . S
C2053 H2065 0.929 . S
C2054 C2050 1.531 . S
C2054 H2066 0.960 . S
C2054 H2067 0.962 . S
C2054 H2068 0.960 . S
C2055 C2052 1.511 . S
C2055 H2069 0.961 . S
C2055 H2070 0.961 . S
C2055 H2071 0.961 . S
C2056 C2057 1.370 . S
C2056 C2058 1.363 . S
C2056 H2072 0.931 . S
C2057 C2056 1.370 . S
C2057 C2061 1.408 . S
C2058 C2056 1.363 . S
C2058 C2059 1.370 . S
C2058 C2062 1.524 . S
C2059 C2051 1.503 . S
C2059 C2058 1.370 . S
C2059 C2060 1.403 . S
C2060 C2059 1.403 . S
C2060 C2061 1.404 . S
C2060 C2063 1.539 . S
C2061 C2057 1.408 . S
C2061 C2060 1.404 . S
C2061 H2073 0.930 . S
C2062 C2058 1.524 . S
C2062 H2074 0.956 . S
C2062 H2075 0.961 . S
C2062 H2076 0.961 . S
C2063 C2060 1.539 . S
C2063 H2077 0.958 . S
C2063 H2078 0.961 . S
C2063 H2079 0.960 . S
H2064 C2048 0.931 . S
H2065 C2053 0.929 . S
H2066 C2054 0.960 . S
H2067 C2054 0.962 . S
H2068 C2054 0.960 . S
H2069 C2055 0.961 . S
H2070 C2055 0.961 . S
H2071 C2055 0.961 . S
H2072 C2056 0.931 . S
H2073 C2061 0.930 . S
H2074 C2062 0.956 . S
H2075 C2062 0.961 . S
H2076 C2062 0.961 . S
H2077 C2063 0.958 . S
H2078 C2063 0.961 . S
H2079 C2063 0.960 . S
C2080 C2081 1.391 . S
C2080 C2082 1.394 . S
C2080 H2096 0.931 . S
C2081 C2080 1.391 . S
C2081 C2085 1.376 . S
C2082 C2080 1.394 . S
C2082 C2083 1.369 . S
C2082 C2086 1.531 . S
C2083 C2082 1.369 . S
C2083 C2084 1.410 . S
C2083 C2091 1.503 . S
C2084 C2083 1.410 . S
C2084 C2085 1.392 . S
C2084 C2087 1.511 . S
C2085 C2081 1.376 . S
C2085 C2084 1.392 . S
C2085 H2097 0.929 . S
C2086 C2082 1.531 . S
C2086 H2098 0.960 . S
C2086 H2099 0.962 . S
C2086 H2100 0.960 . S
C2087 C2084 1.511 . S
C2087 H2101 0.961 . S
C2087 H2102 0.961 . S
C2087 H2103 0.961 . S
C2088 C2089 1.370 . S
C2088 C2090 1.363 . S
C2088 H2104 0.931 . S
C2089 C2088 1.370 . S
C2089 C2093 1.408 . S
C2090 C2088 1.363 . S
C2090 C2091 1.370 . S
C2090 C2094 1.524 . S
C2091 C2083 1.503 . S
C2091 C2090 1.370 . S
C2091 C2092 1.403 . S
C2092 C2091 1.403 . S
C2092 C2093 1.404 . S
C2092 C2095 1.539 . S
C2093 C2089 1.408 . S
C2093 C2092 1.404 . S
C2093 H2105 0.930 1_556 S
C2094 C2090 1.524 . S
C2094 H2106 0.956 . S
C2094 H2107 0.961 . S
C2094 H2108 0.961 . S
C2095 C2092 1.539 . S
C2095 H2109 0.958 1_556 S
C2095 H2110 0.961 1_556 S
C2095 H2111 0.960 . S
H2096 C2080 0.931 . S
H2097 C2085 0.929 . S
H2098 C2086 0.960 . S
H2099 C2086 0.962 . S
H2100 C2086 0.960 . S
H2101 C2087 0.961 . S
H2102 C2087 0.961 . S
H2103 C2087 0.961 . S
H2104 C2088 0.931 . S
H2105 C2093 0.930 1_554 S
H2106 C2094 0.956 . S
H2107 C2094 0.961 . S
H2108 C2094 0.961 . S
H2109 C2095 0.958 1_554 S
H2110 C2095 0.961 1_554 S
H2111 C2095 0.960 . S
C2112 C2113 1.391 . S
C2112 C2114 1.394 . S
C2112 H2128 0.931 . S
C2113 C2112 1.391 . S
C2113 C2117 1.376 . S
C2114 C2112 1.394 . S
C2114 C2115 1.369 . S
C2114 C2118 1.531 . S
C2115 C2114 1.369 . S
C2115 C2116 1.410 . S
C2115 C2123 1.503 . S
C2116 C2115 1.410 . S
C2116 C2117 1.392 . S
C2116 C2119 1.511 . S
C2117 C2113 1.376 . S
C2117 C2116 1.392 . S
C2117 H2129 0.929 . S
C2118 C2114 1.531 . S
C2118 H2130 0.960 . S
C2118 H2131 0.962 . S
C2118 H2132 0.960 . S
C2119 C2116 1.511 . S
C2119 H2133 0.961 . S
C2119 H2134 0.961 . S
C2119 H2135 0.961 . S
C2120 C2121 1.370 . S
C2120 C2122 1.363 . S
C2120 H2136 0.931 . S
C2121 C2120 1.370 . S
C2121 C2125 1.408 . S
C2122 C2120 1.363 . S
C2122 C2123 1.370 . S
C2122 C2126 1.524 . S
C2123 C2115 1.503 . S
C2123 C2122 1.370 . S
C2123 C2124 1.403 . S
C2124 C2123 1.403 . S
C2124 C2125 1.404 . S
C2124 C2127 1.539 . S
C2125 C2121 1.408 . S
C2125 C2124 1.404 . S
C2125 H2137 0.930 . S
C2126 C2122 1.524 . S
C2126 H2138 0.956 . S
C2126 H2139 0.961 . S
C2126 H2140 0.961 . S
C2127 C2124 1.539 . S
C2127 H2141 0.958 . S
C2127 H2142 0.961 . S
C2127 H2143 0.960 . S
H2128 C2112 0.931 . S
H2129 C2117 0.929 . S
H2130 C2118 0.960 . S
H2131 C2118 0.962 . S
H2132 C2118 0.960 . S
H2133 C2119 0.961 . S
H2134 C2119 0.961 . S
H2135 C2119 0.961 . S
H2136 C2120 0.931 . S
H2137 C2125 0.930 . S
H2138 C2126 0.956 . S
H2139 C2126 0.961 . S
H2140 C2126 0.961 . S
H2141 C2127 0.958 . S
H2142 C2127 0.961 . S
H2143 C2127 0.960 . S
C2144 C2145 1.391 . S
C2144 C2146 1.394 . S
C2144 H2160 0.922 1_554 S
C2145 C2144 1.391 . S
C2145 C2149 1.376 . S
C2146 C2144 1.394 . S
C2146 C2147 1.369 . S
C2146 C2150 1.531 . S
C2147 C2146 1.369 . S
C2147 C2148 1.410 . S
C2147 C2155 1.503 . S
C2148 C2147 1.410 . S
C2148 C2149 1.392 . S
C2148 C2151 1.511 . S
C2149 C2145 1.376 . S
C2149 C2148 1.392 . S
C2149 H2161 0.929 . S
C2150 C2146 1.531 . S
C2150 H2162 0.960 . S
C2150 H2163 0.962 . S
C2150 H2164 0.960 1_554 S
C2151 C2148 1.511 . S
C2151 H2165 0.961 . S
C2151 H2166 0.961 . S
C2151 H2167 0.961 . S
C2152 C2153 1.370 . S
C2152 C2154 1.363 . S
C2152 H2168 0.931 . S
C2153 C2152 1.370 . S
C2153 C2157 1.408 . S
C2154 C2152 1.363 . S
C2154 C2155 1.370 . S
C2154 C2158 1.524 . S
C2155 C2147 1.503 . S
C2155 C2154 1.370 . S
C2155 C2156 1.403 . S
C2156 C2155 1.403 . S
C2156 C2157 1.404 . S
C2156 C2159 1.539 . S
C2157 C2153 1.408 . S
C2157 C2156 1.404 . S
C2157 H2169 0.930 . S
C2158 C2154 1.524 . S
C2158 H2170 0.956 . S
C2158 H2171 0.961 . S
C2158 H2172 0.961 . S
C2159 C2156 1.539 . S
C2159 H2173 0.958 . S
C2159 H2174 0.961 . S
C2159 H2175 0.960 . S
H2160 C2144 0.922 1_556 S
H2161 C2149 0.929 . S
H2162 C2150 0.960 . S
H2163 C2150 0.962 . S
H2164 C2150 0.960 1_556 S
H2165 C2151 0.961 . S
H2166 C2151 0.961 . S
H2167 C2151 0.961 . S
H2168 C2152 0.931 . S
H2169 C2157 0.930 . S
H2170 C2158 0.956 . S
H2171 C2158 0.961 . S
H2172 C2158 0.961 . S
H2173 C2159 0.958 . S
H2174 C2159 0.961 . S
H2175 C2159 0.960 . S
C641 C11 1.221 . S
C649 C56 1.202 . S
C673 C91 1.929 . S
C681 C42 1.910 . S
C705 C122 2.197 . S
C713 C99 2.242 . S
C737 C19 1.359 . S
C745 C136 1.345 . S
C769 C10 1.339 . S
C777 C367 1.336 . S
C801 C282 1.227 . S
C809 C47 1.202 . S
C833 C82 1.927 . S
C841 C411 1.902 . S
C865 C131 2.194 . S
C873 C530 2.233 . S
C897 C322 1.931 . S
C905 C51 1.912 . S
C929 C491 2.225 . S
C937 C90 2.237 . S
C961 C570 1.400 . S
C969 C127 1.329 . S
C993 C2 1.252 . S
C1001 C447 1.174 . S
C1025 C16 0.533 . S
C1033 C327 0.392 . S
C1057 C499 1.712 . S
C1065 C170 1.714 . S
C1089 C216 0.386 . S
C1097 C567 0.432 . S
C1121 C450 1.707 . S
C1129 C259 1.704 . S
C1153 C96 0.379 . S
C1161 C287 0.501 . S
C1185 C370 1.678 . S
C1193 C179 1.701 . S
C1217 C250 1.705 . S
C1225 C419 1.712 . S
C1249 C202 1.932 . S
C1257 C451 1.903 . S
C1281 C371 2.208 . S
C1289 C210 2.243 . S
C1313 C456 1.189 . S
C1321 C291 1.227 . S
C1345 C211 1.928 . S
C1353 C162 1.899 . S
C1377 C362 2.206 . S
C1385 C339 2.243 . S
C1409 C531 1.934 . S
C1417 C442 1.913 . S
C1441 C242 2.226 . S
C1449 C219 2.236 . S
C1473 C376 1.288 . S
C1481 C579 1.385 . S
C1505 C536 0.406 . S
C1513 C7 0.428 . S
C1537 C87 0.365 . S
C1545 C576 0.430 . S
C1569 C490 1.689 . S
C1577 C59 1.706 . S
C1601 C296 0.563 . S
C1609 C207 0.362 . S
C1633 C139 1.689 . S
C1641 C410 1.703 . S
C1665 C482 2.194 . S
C1673 C539 2.240 . S
C1697 C299 1.399 . S
C1705 C496 1.313 . S
C1729 C247 1.296 . S
C1737 C290 1.384 . S
C1761 C171 1.919 . S
C1769 C522 1.937 . S
C1793 C487 1.332 . S
C1801 C610 1.385 . S
C1825 C607 0.532 . S
C1833 C336 0.332 . S
C1857 C50 1.684 . S
C1865 C379 1.693 . S
C1889 C330 2.220 . S
C1897 C251 2.215 . S
C1921 C331 1.932 . S
C1929 C402 1.902 . S
C1953 C619 1.391 . S
C1961 C256 1.332 . S
C1985 C527 0.304 . S
C1993 C616 0.480 . S
C2017 C459 1.686 . S
C2025 C130 1.695 . S
C2049 C416 1.194 . S
C2057 C571 1.234 . S
C2081 C407 1.225 . S
C2089 C602 1.229 . S
C2113 C167 1.170 . S
C2121 C562 1.228 . S
C2145 C611 1.242 . S
C2153 C176 1.186 . S
