# Generated by pormake.
# Topology wiv, (6)-cn, num edge types: 1
# Building blocks:
#     Node 0, Type 0, BuildingBlock: MIFKUJ_clean_sbu_0, # of connection points: 6
#     Node 1, Type 0, BuildingBlock: MIFKUJ_clean_sbu_0, # of connection points: 6
#     Node 2, Type 0, BuildingBlock: MIFKUJ_clean_sbu_0, # of connection points: 6
#     Node 3, Type 0, BuildingBlock: MIFKUJ_clean_sbu_0, # of connection points: 6
#     Node 4, Type 0, BuildingBlock: MIFKUJ_clean_sbu_0, # of connection points: 6
#     Node 5, Type 0, BuildingBlock: MIFKUJ_clean_sbu_0, # of connection points: 6
#     Node 6, Type 0, BuildingBlock: MIFKUJ_clean_sbu_0, # of connection points: 6
#     Node 7, Type 0, BuildingBlock: MIFKUJ_clean_sbu_0, # of connection points: 6
#     Node 8, Type 0, BuildingBlock: MIFKUJ_clean_sbu_0, # of connection points: 6
#     Node 9, Type 0, BuildingBlock: MIFKUJ_clean_sbu_0, # of connection points: 6
#     Node 10, Type 0, BuildingBlock: MIFKUJ_clean_sbu_0, # of connection points: 6
#     Node 11, Type 0, BuildingBlock: MIFKUJ_clean_sbu_0, # of connection points: 6
#     Node 12, Type 0, BuildingBlock: MIFKUJ_clean_sbu_0, # of connection points: 6
#     Node 13, Type 0, BuildingBlock: MIFKUJ_clean_sbu_0, # of connection points: 6
#     Node 14, Type 0, BuildingBlock: MIFKUJ_clean_sbu_0, # of connection points: 6
#     Node 15, Type 0, BuildingBlock: MIFKUJ_clean_sbu_0, # of connection points: 6
#     Edge 16, Type (0, 0), BuildingBlock: AJUNOK_clean_linker_0, # of connection points: 2
#     Edge 17, Type (0, 0), BuildingBlock: AJUNOK_clean_linker_0, # of connection points: 2
#     Edge 18, Type (0, 0), BuildingBlock: AJUNOK_clean_linker_0, # of connection points: 2
#     Edge 19, Type (0, 0), BuildingBlock: AJUNOK_clean_linker_0, # of connection points: 2
#     Edge 20, Type (0, 0), BuildingBlock: AJUNOK_clean_linker_0, # of connection points: 2
#     Edge 21, Type (0, 0), BuildingBlock: AJUNOK_clean_linker_0, # of connection points: 2
#     Edge 22, Type (0, 0), BuildingBlock: AJUNOK_clean_linker_0, # of connection points: 2
#     Edge 23, Type (0, 0), BuildingBlock: AJUNOK_clean_linker_0, # of connection points: 2
#     Edge 24, Type (0, 0), BuildingBlock: AJUNOK_clean_linker_0, # of connection points: 2
#     Edge 25, Type (0, 0), BuildingBlock: AJUNOK_clean_linker_0, # of connection points: 2
#     Edge 26, Type (0, 0), BuildingBlock: AJUNOK_clean_linker_0, # of connection points: 2
#     Edge 27, Type (0, 0), BuildingBlock: AJUNOK_clean_linker_0, # of connection points: 2
#     Edge 28, Type (0, 0), BuildingBlock: AJUNOK_clean_linker_0, # of connection points: 2
#     Edge 29, Type (0, 0), BuildingBlock: AJUNOK_clean_linker_0, # of connection points: 2
#     Edge 30, Type (0, 0), BuildingBlock: AJUNOK_clean_linker_0, # of connection points: 2
#     Edge 31, Type (0, 0), BuildingBlock: AJUNOK_clean_linker_0, # of connection points: 2
#     Edge 32, Type (0, 0), BuildingBlock: AJUNOK_clean_linker_0, # of connection points: 2
#     Edge 33, Type (0, 0), BuildingBlock: AJUNOK_clean_linker_0, # of connection points: 2
#     Edge 34, Type (0, 0), BuildingBlock: AJUNOK_clean_linker_0, # of connection points: 2
#     Edge 35, Type (0, 0), BuildingBlock: AJUNOK_clean_linker_0, # of connection points: 2
#     Edge 36, Type (0, 0), BuildingBlock: AJUNOK_clean_linker_0, # of connection points: 2
#     Edge 37, Type (0, 0), BuildingBlock: AJUNOK_clean_linker_0, # of connection points: 2
#     Edge 38, Type (0, 0), BuildingBlock: AJUNOK_clean_linker_0, # of connection points: 2
#     Edge 39, Type (0, 0), BuildingBlock: AJUNOK_clean_linker_0, # of connection points: 2
#     Edge 40, Type (0, 0), BuildingBlock: AJUNOK_clean_linker_0, # of connection points: 2
#     Edge 41, Type (0, 0), BuildingBlock: AJUNOK_clean_linker_0, # of connection points: 2
#     Edge 42, Type (0, 0), BuildingBlock: AJUNOK_clean_linker_0, # of connection points: 2
#     Edge 43, Type (0, 0), BuildingBlock: AJUNOK_clean_linker_0, # of connection points: 2
#     Edge 44, Type (0, 0), BuildingBlock: AJUNOK_clean_linker_0, # of connection points: 2
#     Edge 45, Type (0, 0), BuildingBlock: AJUNOK_clean_linker_0, # of connection points: 2
#     Edge 46, Type (0, 0), BuildingBlock: AJUNOK_clean_linker_0, # of connection points: 2
#     Edge 47, Type (0, 0), BuildingBlock: AJUNOK_clean_linker_0, # of connection points: 2
#     Edge 48, Type (0, 0), BuildingBlock: AJUNOK_clean_linker_0, # of connection points: 2
#     Edge 49, Type (0, 0), BuildingBlock: AJUNOK_clean_linker_0, # of connection points: 2
#     Edge 50, Type (0, 0), BuildingBlock: AJUNOK_clean_linker_0, # of connection points: 2
#     Edge 51, Type (0, 0), BuildingBlock: AJUNOK_clean_linker_0, # of connection points: 2
#     Edge 52, Type (0, 0), BuildingBlock: AJUNOK_clean_linker_0, # of connection points: 2
#     Edge 53, Type (0, 0), BuildingBlock: AJUNOK_clean_linker_0, # of connection points: 2
#     Edge 54, Type (0, 0), BuildingBlock: AJUNOK_clean_linker_0, # of connection points: 2
#     Edge 55, Type (0, 0), BuildingBlock: AJUNOK_clean_linker_0, # of connection points: 2
#     Edge 56, Type (0, 0), BuildingBlock: AJUNOK_clean_linker_0, # of connection points: 2
#     Edge 57, Type (0, 0), BuildingBlock: AJUNOK_clean_linker_0, # of connection points: 2
#     Edge 58, Type (0, 0), BuildingBlock: AJUNOK_clean_linker_0, # of connection points: 2
#     Edge 59, Type (0, 0), BuildingBlock: AJUNOK_clean_linker_0, # of connection points: 2
#     Edge 60, Type (0, 0), BuildingBlock: AJUNOK_clean_linker_0, # of connection points: 2
#     Edge 61, Type (0, 0), BuildingBlock: AJUNOK_clean_linker_0, # of connection points: 2
#     Edge 62, Type (0, 0), BuildingBlock: AJUNOK_clean_linker_0, # of connection points: 2
#     Edge 63, Type (0, 0), BuildingBlock: AJUNOK_clean_linker_0, # of connection points: 2
# Relax obj value: 0.041
# Max RMSD: 0.123
# Mean RMSD: 0.123
data_MOF--net-wiv--node1-MIFKUJ_clean_sbu_0--edge1-AJUNOK_clean_linker_0
_symmetry_space_group_name_H-M    P1
_symmetry_Int_Tables_number       1
_symmetry_cell_setting            triclinic
loop_
_symmetry_equiv_pos_as_xyz
'x, y, z'
_cell_length_a     44.181193
_cell_length_b     44.114345
_cell_length_c     14.409759
_cell_angle_alpha  89.954451
_cell_angle_beta   90.045752
_cell_angle_gamma 89.996278
loop_
_atom_site_label
_atom_site_type_symbol
_atom_site_fract_x
_atom_site_fract_y
_atom_site_fract_z
_atom_type_partial_charge
Zn0 Zn 0.34771 0.12541 0.03208 0.0
Zn1 Zn 0.39709 0.13123 0.27478 0.0
C2 C 0.29767 0.105 0.92508 0.0
O3 O 0.31656 0.08239 0.91225 0.0
C4 C 0.4603 0.14611 0.27407 0.0
O5 O 0.44993 0.17347 0.29084 0.0
O6 O 0.37379 0.12013 0.91863 0.0
O7 O 0.35626 0.16696 0.0842 0.0
O8 O 0.3841 0.16969 0.21198 0.0
C9 C 0.37051 0.14123 0.8592 0.0
O10 O 0.35318 0.16437 0.88072 0.0
O11 O 0.30553 0.12666 0.97809 0.0
C12 C 0.40252 0.12182 0.4728 0.0
O13 O 0.41855 0.09814 0.44754 0.0
O14 O 0.39083 0.13867 0.41082 0.0
O15 O 0.37603 0.09222 0.24464 0.0
O16 O 0.34961 0.08819 0.11423 0.0
O17 O 0.44169 0.12468 0.25987 0.0
C18 C 0.36954 0.18237 0.14662 0.0
C19 C 0.35964 0.0769 0.18954 0.0
Zn20 Zn 0.14395 0.62282 0.73425 0.0
Zn21 Zn 0.13498 0.62135 0.94965 0.0
C22 C 0.15809 0.56068 0.71201 0.0
O23 O 0.18089 0.57345 0.66849 0.0
C24 C 0.11305 0.67939 0.9965 0.0
O25 O 0.08919 0.66273 0.01552 0.0
O26 O 0.149 0.62811 0.5962 0.0
O27 O 0.106 0.64429 0.77062 0.0
O28 O 0.09717 0.60969 0.87695 0.0
C29 C 0.13125 0.6148 0.53991 0.0
O30 O 0.1085 0.59901 0.57323 0.0
O31 O 0.13898 0.57766 0.75253 0.0
C32 C 0.14819 0.62178 0.13914 0.0
O33 O 0.16906 0.63961 0.10415 0.0
O34 O 0.12951 0.6092 0.08393 0.0
O35 O 0.17708 0.60704 0.91425 0.0
O36 O 0.18237 0.63684 0.79285 0.0
O37 O 0.13589 0.6669 0.95892 0.0
C38 C 0.08738 0.62879 0.81786 0.0
C39 C 0.19394 0.62216 0.85979 0.0
Zn40 Zn 0.62001 0.88044 0.0493 0.0
Zn41 Zn 0.62054 0.87183 0.26678 0.0
C42 C 0.67661 0.902 0.99045 0.0
O43 O 0.65817 0.92041 0.9464 0.0
C44 C 0.56015 0.85343 0.29507 0.0
O45 O 0.57469 0.83245 0.34204 0.0
O46 O 0.60758 0.88393 0.91505 0.0
O47 O 0.6066 0.83846 0.08792 0.0
O48 O 0.63688 0.83413 0.20844 0.0
C49 C 0.62125 0.86612 0.85977 0.0
O50 O 0.64095 0.84686 0.89411 0.0
O51 O 0.66567 0.88222 0.04525 0.0
C52 C 0.61238 0.88372 0.46044 0.0
O53 O 0.59484 0.90528 0.4277 0.0
O54 O 0.62682 0.86705 0.40386 0.0
O55 O 0.63812 0.91196 0.23169 0.0
O56 O 0.6063 0.91828 0.11552 0.0
O57 O 0.57533 0.873 0.25005 0.0
C58 C 0.622 0.82204 0.14288 0.0
C59 C 0.62344 0.92936 0.17781 0.0
Zn60 Zn 0.8515 0.39698 0.76113 0.0
Zn61 Zn 0.86096 0.34756 0.00378 0.0
C62 C 0.83329 0.4586 0.7366 0.0
O63 O 0.8127 0.44549 0.68444 0.0
C64 C 0.88955 0.30078 0.10831 0.0
O65 O 0.90927 0.32275 0.11974 0.0
O66 O 0.8443 0.39045 0.62495 0.0
O67 O 0.89264 0.38033 0.78749 0.0
O68 O 0.89669 0.35394 0.91832 0.0
C69 C 0.86122 0.40191 0.56289 0.0
O70 O 0.8848 0.41807 0.58823 0.0
O71 O 0.85198 0.44208 0.78075 0.0
C72 C 0.84357 0.36867 0.17657 0.0
O73 O 0.82273 0.34846 0.15645 0.0
O74 O 0.86366 0.37452 0.11599 0.0
O75 O 0.81839 0.35007 0.95301 0.0
O76 O 0.81617 0.37788 0.82462 0.0
O77 O 0.86631 0.30562 0.05816 0.0
C78 C 0.90816 0.36483 0.8445 0.0
C79 C 0.80349 0.36198 0.88689 0.0
Zn80 Zn 0.3751 0.37118 0.19099 0.0
Zn81 Zn 0.37509 0.36213 0.97339 0.0
C82 C 0.31709 0.3887 0.25157 0.0
O83 O 0.33391 0.41 0.28899 0.0
C84 C 0.43612 0.3423 0.95895 0.0
O85 O 0.42253 0.32048 0.91294 0.0
O86 O 0.38794 0.3747 0.3249 0.0
O87 O 0.3904 0.33034 0.14857 0.0
O88 O 0.35693 0.32593 0.03713 0.0
C89 C 0.37673 0.355 0.3795 0.0
O90 O 0.35946 0.33366 0.34436 0.0
O91 O 0.32966 0.36923 0.19922 0.0
C92 C 0.38547 0.37179 0.77963 0.0
O93 O 0.40274 0.39351 0.81261 0.0
O94 O 0.37049 0.35547 0.83601 0.0
O95 O 0.35814 0.40328 0.00028 0.0
O96 O 0.38585 0.41037 0.12606 0.0
O97 O 0.42008 0.36296 0.99579 0.0
C98 C 0.37279 0.31382 0.10065 0.0
C99 C 0.37087 0.42094 0.05784 0.0
Zn100 Zn 0.37307 0.612 0.02078 0.0
Zn101 Zn 0.37981 0.63433 0.78062 0.0
C102 C 0.35355 0.551 0.03467 0.0
O103 O 0.33518 0.56387 0.09442 0.0
C104 C 0.38271 0.69016 0.67515 0.0
O105 O 0.39856 0.67309 0.61859 0.0
O106 O 0.36714 0.6133 0.15719 0.0
O107 O 0.41475 0.62786 0.00176 0.0
O108 O 0.41944 0.63459 0.8503 0.0
C109 C 0.38428 0.59876 0.21206 0.0
O110 O 0.40761 0.58385 0.17886 0.0
O111 O 0.3714 0.5675 0.98729 0.0
C112 C 0.36401 0.61341 0.60537 0.0
O113 O 0.33856 0.62533 0.63488 0.0
O114 O 0.38668 0.61334 0.65958 0.0
O115 O 0.34059 0.61654 0.82909 0.0
O116 O 0.33757 0.63488 0.97073 0.0
O117 O 0.37203 0.67862 0.74928 0.0
C118 C 0.43082 0.63374 0.93125 0.0
C119 C 0.32489 0.62567 0.89722 0.0
Zn120 Zn 0.62151 0.63389 0.20779 0.0
Zn121 Zn 0.62207 0.64048 0.99014 0.0
C122 C 0.6794 0.61234 0.25649 0.0
O123 O 0.66259 0.58902 0.2799 0.0
C124 C 0.56017 0.65624 0.96131 0.0
O125 O 0.57287 0.67632 0.90634 0.0
O126 O 0.60959 0.62962 0.34163 0.0
O127 O 0.60705 0.67519 0.16766 0.0
O128 O 0.63811 0.67828 0.04862 0.0
C129 C 0.62133 0.64876 0.39691 0.0
O130 O 0.63827 0.67047 0.36233 0.0
O131 O 0.66702 0.63469 0.21568 0.0
C132 C 0.61483 0.62837 0.79576 0.0
O133 O 0.59868 0.60561 0.82753 0.0
O134 O 0.62809 0.64574 0.85311 0.0
O135 O 0.63968 0.60022 0.0249 0.0
O136 O 0.60831 0.59556 0.14262 0.0
O137 O 0.57695 0.6386 0.00842 0.0
C138 C 0.62249 0.69101 0.1113 0.0
C139 C 0.62471 0.58356 0.08019 0.0
Zn140 Zn 0.62171 0.39235 0.00899 0.0
Zn141 Zn 0.61543 0.34399 0.76697 0.0
C142 C 0.63693 0.45325 0.04769 0.0
O143 O 0.65543 0.43928 0.10483 0.0
C144 C 0.59511 0.29339 0.65898 0.0
O145 O 0.57255 0.31195 0.64158 0.0
O146 O 0.62682 0.38462 0.14505 0.0
O147 O 0.58156 0.37396 0.97575 0.0
O148 O 0.57806 0.34721 0.84593 0.0
C149 C 0.61019 0.39642 0.20713 0.0
O150 O 0.5872 0.4135 0.18233 0.0
O151 O 0.62013 0.43779 0.99391 0.0
C152 C 0.63104 0.36477 0.59246 0.0
O153 O 0.65234 0.34493 0.61132 0.0
O154 O 0.6113 0.37035 0.6542 0.0
O155 O 0.65677 0.35027 0.82186 0.0
O156 O 0.66002 0.37645 0.953 0.0
O157 O 0.6159 0.30175 0.71436 0.0
C158 C 0.5663 0.35802 0.91926 0.0
C159 C 0.67221 0.36172 0.88734 0.0
Zn160 Zn 0.84851 0.63658 0.53228 0.0
Zn161 Zn 0.89544 0.64029 0.77669 0.0
C162 C 0.79864 0.61538 0.42574 0.0
O163 O 0.81664 0.59179 0.41853 0.0
C164 C 0.9589 0.65336 0.77771 0.0
O165 O 0.9492 0.68069 0.79839 0.0
O166 O 0.87554 0.63109 0.42138 0.0
O167 O 0.85551 0.67818 0.58584 0.0
O168 O 0.88188 0.67907 0.71703 0.0
C169 C 0.87223 0.65203 0.3615 0.0
O170 O 0.85467 0.67507 0.38232 0.0
O171 O 0.80697 0.63777 0.475 0.0
C172 C 0.90225 0.63092 0.97474 0.0
O173 O 0.91779 0.60693 0.94933 0.0
O174 O 0.89037 0.6477 0.91297 0.0
O175 O 0.87328 0.60191 0.74865 0.0
O176 O 0.84856 0.5995 0.61484 0.0
O177 O 0.93979 0.63274 0.75936 0.0
C178 C 0.86786 0.69258 0.65211 0.0
C179 C 0.85702 0.58754 0.69092 0.0
Zn180 Zn 0.64533 0.12096 0.21995 0.0
Zn181 Zn 0.63551 0.12069 0.43964 0.0
C182 C 0.65124 0.0576 0.18054 0.0
O183 O 0.66825 0.06816 0.11317 0.0
C184 C 0.60651 0.17531 0.48519 0.0
O185 O 0.58478 0.1556 0.50032 0.0
O186 O 0.64782 0.1273 0.08199 0.0
O187 O 0.60806 0.14282 0.26251 0.0
O188 O 0.60017 0.10608 0.36195 0.0
C189 C 0.62713 0.11673 0.02981 0.0
O190 O 0.60368 0.10341 0.06822 0.0
O191 O 0.63951 0.07591 0.23828 0.0
C192 C 0.64613 0.12015 0.62982 0.0
O193 O 0.6677 0.13799 0.59875 0.0
O194 O 0.6288 0.1073 0.57137 0.0
O195 O 0.67902 0.11012 0.40941 0.0
O196 O 0.68539 0.13248 0.27337 0.0
O197 O 0.63159 0.16601 0.45244 0.0
C198 C 0.5898 0.12565 0.30548 0.0
C199 C 0.69625 0.12074 0.34666 0.0
Zn200 Zn 0.14333 0.38365 0.50967 0.0
Zn201 Zn 0.09676 0.37741 0.75864 0.0
C202 C 0.19472 0.37113 0.39181 0.0
O203 O 0.17581 0.35173 0.35432 0.0
C204 C 0.03798 0.35573 0.78252 0.0
O205 O 0.05434 0.33379 0.81835 0.0
O206 O 0.11764 0.38951 0.39501 0.0
O207 O 0.13796 0.34173 0.56053 0.0
O208 O 0.11264 0.34025 0.69324 0.0
C209 C 0.10844 0.36679 0.34854 0.0
O210 O 0.11167 0.33955 0.38393 0.0
O211 O 0.18612 0.38653 0.4616 0.0
C212 C 0.09104 0.38762 0.9539 0.0
O213 O 0.07644 0.41173 0.92443 0.0
O214 O 0.10305 0.36989 0.89495 0.0
O215 O 0.11466 0.41875 0.73242 0.0
O216 O 0.13889 0.41846 0.59778 0.0
O217 O 0.05152 0.37808 0.74516 0.0
C218 C 0.12649 0.32698 0.62757 0.0
C219 C 0.13032 0.43211 0.67072 0.0
Zn220 Zn 0.37201 0.88738 0.23349 0.0
Zn221 Zn 0.37785 0.87257 0.47261 0.0
C222 C 0.3461 0.94649 0.2329 0.0
O223 O 0.32588 0.93208 0.18261 0.0
C224 C 0.38137 0.81804 0.58297 0.0
O225 O 0.39741 0.83585 0.63685 0.0
O226 O 0.36567 0.88657 0.09627 0.0
O227 O 0.41453 0.87401 0.25408 0.0
O228 O 0.41825 0.87233 0.40737 0.0
C229 C 0.38069 0.90428 0.04419 0.0
O230 O 0.40093 0.92236 0.08157 0.0
O231 O 0.36766 0.93141 0.2689 0.0
C232 C 0.3603 0.8935 0.64809 0.0
O233 O 0.33513 0.88076 0.61911 0.0
O234 O 0.38273 0.89462 0.59311 0.0
O235 O 0.33951 0.88884 0.41434 0.0
O236 O 0.33887 0.86182 0.28721 0.0
O237 O 0.37062 0.82846 0.50733 0.0
C238 C 0.4302 0.87099 0.32727 0.0
C239 C 0.32503 0.8728 0.35634 0.0
Zn240 Zn 0.85286 0.88228 0.76066 0.0
Zn241 Zn 0.90083 0.87335 0.51753 0.0
C242 C 0.80252 0.89932 0.87979 0.0
O243 O 0.82376 0.91118 0.93214 0.0
C244 C 0.95926 0.84947 0.49082 0.0
O245 O 0.94272 0.828 0.45314 0.0
O246 O 0.87853 0.88458 0.87541 0.0
O247 O 0.85713 0.8399 0.71129 0.0
O248 O 0.88355 0.83664 0.58082 0.0
C249 C 0.87239 0.86426 0.9351 0.0
O250 O 0.8517 0.844 0.91442 0.0
O251 O 0.80949 0.88665 0.80343 0.0
C252 C 0.90598 0.88161 0.32046 0.0
O253 O 0.92506 0.90303 0.34474 0.0
O254 O 0.89236 0.86664 0.38304 0.0
O255 O 0.88613 0.91565 0.54562 0.0
O256 O 0.86059 0.91804 0.67771 0.0
O257 O 0.94599 0.87182 0.52876 0.0
C258 C 0.86868 0.8244 0.64616 0.0
C259 C 0.87132 0.93063 0.60561 0.0
Zn260 Zn 0.87537 0.12212 0.5329 0.0
Zn261 Zn 0.88562 0.12196 0.31715 0.0
C262 C 0.85826 0.06149 0.55878 0.0
O263 O 0.83576 0.07646 0.59681 0.0
C264 C 0.90486 0.1818 0.2758 0.0
O265 O 0.92955 0.16665 0.25506 0.0
O266 O 0.86997 0.12859 0.6701 0.0
O267 O 0.91378 0.1436 0.49781 0.0
O268 O 0.92401 0.1108 0.38759 0.0
C269 C 0.88806 0.1158 0.72652 0.0
O270 O 0.91082 0.10002 0.69324 0.0
O271 O 0.87926 0.07655 0.51961 0.0
C272 C 0.87242 0.12373 0.1275 0.0
O273 O 0.8514 0.14124 0.16317 0.0
O274 O 0.89121 0.11105 0.18216 0.0
O275 O 0.84443 0.10526 0.35221 0.0
O276 O 0.83693 0.13546 0.47138 0.0
O277 O 0.88263 0.16764 0.31131 0.0
C278 C 0.93298 0.12992 0.44763 0.0
C279 C 0.82648 0.11996 0.40439 0.0
Zn280 Zn 0.12489 0.1355 0.68799 0.0
Zn281 Zn 0.12492 0.14496 0.4688 0.0
C282 C 0.18039 0.11023 0.74256 0.0
O283 O 0.16166 0.08757 0.75685 0.0
C284 C 0.06122 0.15862 0.47052 0.0
O285 O 0.0711 0.18506 0.44144 0.0
O286 O 0.11029 0.13004 0.81955 0.0
O287 O 0.11208 0.17823 0.65234 0.0
O288 O 0.13907 0.18365 0.52532 0.0
C289 C 0.12129 0.14965 0.8749 0.0
O290 O 0.13862 0.17108 0.84055 0.0
O291 O 0.17022 0.13454 0.7066 0.0
C292 C 0.11434 0.13283 0.27531 0.0
O293 O 0.09865 0.11011 0.30941 0.0
O294 O 0.12848 0.15023 0.33068 0.0
O295 O 0.14806 0.10798 0.50465 0.0
O296 O 0.11396 0.09815 0.61171 0.0
O297 O 0.08027 0.13809 0.49097 0.0
C298 C 0.12607 0.19516 0.59533 0.0
C299 C 0.13381 0.08899 0.55418 0.0
Zn300 Zn 0.14309 0.89777 0.5126 0.0
Zn301 Zn 0.13625 0.84935 0.26947 0.0
C302 C 0.15851 0.96031 0.52079 0.0
O303 O 0.18453 0.94888 0.54773 0.0
C304 C 0.11519 0.79886 0.16543 0.0
O305 O 0.09211 0.81726 0.15381 0.0
O306 O 0.1504 0.89163 0.64847 0.0
O307 O 0.10394 0.87708 0.48337 0.0
O308 O 0.09962 0.85126 0.35187 0.0
C309 C 0.13291 0.90268 0.70965 0.0
O310 O 0.1087 0.91769 0.68323 0.0
O311 O 0.13726 0.94249 0.49749 0.0
C312 C 0.15191 0.87169 0.09687 0.0
O313 O 0.17461 0.85378 0.11838 0.0
O314 O 0.13103 0.87553 0.15638 0.0
O315 O 0.17756 0.85704 0.32205 0.0
O316 O 0.18141 0.88414 0.45094 0.0
O317 O 0.13711 0.8072 0.21659 0.0
C318 C 0.0886 0.8609 0.42771 0.0
C319 C 0.19345 0.86949 0.38475 0.0
C320 C 0.33043 0.99622 0.16482 0.0
C321 C 0.3469 0.98013 0.23252 0.0
C322 C 0.33396 0.02758 0.15354 0.0
C323 C 0.35391 0.04429 0.21004 0.0
H324 H 0.31557 0.98439 0.11727 0.0
H325 H 0.32145 0.03861 0.09834 0.0
S326 S 0.39963 0.01337 0.40533 0.0
N327 N 0.38196 0.98357 0.36218 0.0
N328 N 0.3885 0.04248 0.34192 0.0
C329 C 0.36926 0.0287 0.28158 0.0
C330 C 0.3658 0.99667 0.29254 0.0
C331 C 0.01314 0.66905 0.7713 0.0
C332 C 0.9915 0.64608 0.78438 0.0
C333 C 0.04412 0.66308 0.78111 0.0
C334 C 0.05457 0.6341 0.80652 0.0
H335 H 0.0061 0.69181 0.75311 0.0
H336 H 0.05998 0.68149 0.77043 0.0
S337 S 0.00723 0.56614 0.84954 0.0
N338 N 0.98271 0.5931 0.82349 0.0
N339 N 0.04097 0.58214 0.84394 0.0
C340 C 0.03322 0.61094 0.82013 0.0
C341 C 0.00169 0.61685 0.80837 0.0
C342 C 0.63099 0.97886 0.09803 0.0
C343 C 0.62887 0.96231 0.18111 0.0
C344 C 0.63859 0.00967 0.09877 0.0
C345 C 0.64339 0.02517 0.18271 0.0
H346 H 0.62756 0.96778 0.03182 0.0
H347 H 0.64042 0.02152 0.03309 0.0
S348 S 0.63879 0.99253 0.4193 0.0
N349 N 0.63152 0.96371 0.34959 0.0
N350 N 0.64447 0.02209 0.35103 0.0
C351 C 0.6404 0.00915 0.26639 0.0
C352 C 0.63351 0.97756 0.26556 0.0
C353 C 0.95597 0.38066 0.76536 0.0
C354 C 0.94089 0.36061 0.82582 0.0
C355 C 0.98719 0.37846 0.75023 0.0
C356 C 0.00462 0.35595 0.79412 0.0
H357 H 0.94372 0.39875 0.73103 0.0
H358 H 0.99777 0.39488 0.70466 0.0
S359 S 0.97566 0.29625 0.95327 0.0
N360 N 0.94548 0.31641 0.92586 0.0
N361 N 0.00412 0.31211 0.8972 0.0
C362 C 0.98967 0.33506 0.85236 0.0
C363 C 0.95786 0.33747 0.86836 0.0
C364 C 0.36164 0.47146 0.12903 0.0
C365 C 0.3667 0.45401 0.04906 0.0
C366 C 0.35668 0.50274 0.12292 0.0
C367 C 0.35749 0.51782 0.03691 0.0
H368 H 0.36105 0.46082 0.19677 0.0
H369 H 0.3528 0.51531 0.1864 0.0
S370 S 0.37071 0.48257 0.80723 0.0
N371 N 0.37217 0.45395 0.88117 0.0
N372 N 0.36421 0.51317 0.87027 0.0
C373 C 0.363 0.50077 0.95651 0.0
C374 C 0.3672 0.46871 0.96243 0.0
C375 C 0.51029 0.66211 0.88209 0.0
C376 C 0.52698 0.65178 0.95906 0.0
C377 C 0.47926 0.65624 0.87401 0.0
C378 C 0.46354 0.64018 0.94325 0.0
H379 H 0.52139 0.67421 0.8262 0.0
H380 H 0.46754 0.66437 0.81279 0.0
S381 S 0.49654 0.60941 0.16106 0.0
N382 N 0.52539 0.62545 0.10733 0.0
N383 N 0.46695 0.61473 0.09294 0.0
C384 C 0.47981 0.63036 0.02185 0.0
C385 C 0.51154 0.63604 0.02951 0.0
C386 C 0.63298 0.5366 0.98621 0.0
C387 C 0.62668 0.55019 0.07254 0.0
C388 C 0.63554 0.505 0.9777 0.0
C389 C 0.63281 0.48617 0.05577 0.0
H390 H 0.63576 0.55045 0.92468 0.0
H391 H 0.64038 0.49532 0.91025 0.0
S392 S 0.61563 0.51001 0.29648 0.0
N393 N 0.61657 0.54195 0.23672 0.0
N394 N 0.62286 0.48281 0.22105 0.0
C395 C 0.62644 0.49933 0.14213 0.0
C396 C 0.62296 0.53131 0.15044 0.0
C397 C 0.48616 0.32809 0.89143 0.0
C398 C 0.46957 0.34481 0.95711 0.0
C399 C 0.51742 0.33209 0.88123 0.0
C400 C 0.53353 0.3528 0.93682 0.0
H401 H 0.47484 0.31239 0.84526 0.0
H402 H 0.52891 0.31909 0.82811 0.0
S403 S 0.50099 0.40027 0.12514 0.0
N404 N 0.47176 0.38153 0.08274 0.0
N405 N 0.53054 0.389 0.06424 0.0
C406 C 0.51737 0.36882 0.00551 0.0
C407 C 0.48542 0.36486 0.0154 0.0
C408 C 0.82307 0.50889 0.66283 0.0
C409 C 0.83726 0.49198 0.73339 0.0
C410 C 0.82899 0.53986 0.65122 0.0
C411 C 0.84919 0.55534 0.71014 0.0
H412 H 0.80798 0.49797 0.61391 0.0
H413 H 0.81802 0.55157 0.59428 0.0
S414 S 0.89008 0.52199 0.91159 0.0
N415 N 0.87085 0.4934 0.86715 0.0
N416 N 0.88191 0.55156 0.84601 0.0
C417 C 0.86252 0.53895 0.78373 0.0
C418 C 0.8566 0.50733 0.79513 0.0
C419 C 0.54522 0.15875 0.27268 0.0
C420 C 0.5568 0.12996 0.29522 0.0
C421 C 0.51398 0.16372 0.26547 0.0
C422 C 0.4932 0.13995 0.2786 0.0
H423 H 0.56037 0.17778 0.26246 0.0
H424 H 0.50608 0.18638 0.24939 0.0
S425 S 0.51209 0.06013 0.337 0.0
N426 N 0.5452 0.07731 0.32987 0.0
N427 N 0.4865 0.08643 0.31472 0.0
C428 C 0.50454 0.11092 0.29979 0.0
C429 C 0.53633 0.106 0.30865 0.0
C430 C 0.12928 0.51378 0.75593 0.0
C431 C 0.15289 0.52745 0.70531 0.0
C432 C 0.12252 0.48287 0.74581 0.0
C433 C 0.13885 0.46442 0.68382 0.0
H434 H 0.11559 0.52711 0.80305 0.0
H435 H 0.10387 0.47355 0.7854 0.0
S436 S 0.20404 0.48859 0.53869 0.0
N437 N 0.19356 0.51963 0.5938 0.0
N438 N 0.18073 0.46181 0.57444 0.0
C439 C 0.16297 0.47764 0.63432 0.0
C440 C 0.17003 0.50903 0.64521 0.0
C441 C 0.51053 0.87211 0.23401 0.0
C442 C 0.52686 0.85623 0.30234 0.0
C443 C 0.47917 0.87633 0.24177 0.0
C444 C 0.46311 0.86537 0.31915 0.0
H445 H 0.52205 0.8814 0.17403 0.0
H446 H 0.46756 0.88882 0.18767 0.0
S447 S 0.49518 0.82189 0.51675 0.0
N448 N 0.52449 0.829 0.44921 0.0
N449 N 0.46573 0.83733 0.46435 0.0
C450 C 0.47913 0.84928 0.38767 0.0
C451 C 0.51095 0.84457 0.37908 0.0
C452 C 0.88565 0.98011 0.5311 0.0
C453 C 0.86673 0.96374 0.59177 0.0
C454 C 0.88255 0.01159 0.51992 0.0
C455 C 0.86016 0.02795 0.56807 0.0
H456 H 0.90345 0.96865 0.49315 0.0
H457 H 0.898 0.02318 0.47359 0.0
S458 S 0.80363 0.99551 0.7315 0.0
N459 N 0.824 0.96617 0.69798 0.0
N460 N 0.81801 0.02503 0.6767 0.0
C461 C 0.84059 0.01171 0.62729 0.0
C462 C 0.84393 0.97973 0.63926 0.0
C463 C 0.01849 0.12178 0.45371 0.0
C464 C 0.02841 0.1517 0.46934 0.0
C465 C 0.98757 0.11492 0.44577 0.0
C466 C 0.96546 0.13758 0.45558 0.0
H467 H 0.03475 0.1036 0.44526 0.0
H468 H 0.98093 0.09167 0.43272 0.0
S469 S 0.97941 0.21935 0.49791 0.0
N470 N 0.01354 0.20414 0.49396 0.0
N471 N 0.95548 0.19109 0.48173 0.0
C472 C 0.97501 0.16748 0.47255 0.0
C473 C 0.00648 0.17458 0.47867 0.0
C474 C 0.12314 0.004 0.54022 0.0
C475 C 0.15285 0.99329 0.52672 0.0
C476 C 0.11719 0.03501 0.55057 0.0
C477 C 0.14063 0.05642 0.5455 0.0
H478 H 0.10436 0.98828 0.54458 0.0
H479 H 0.09404 0.0423 0.56128 0.0
S480 S 0.22229 0.04034 0.51201 0.0
N481 N 0.20601 0.00665 0.51041 0.0
N482 N 0.19464 0.06502 0.52727 0.0
C483 C 0.17038 0.04613 0.53149 0.0
C484 C 0.17654 0.01452 0.52285 0.0
C485 C 0.04123 0.87364 0.51396 0.0
C486 C 0.05625 0.85521 0.44888 0.0
C487 C 0.01006 0.87094 0.52902 0.0
C488 C 0.99263 0.84951 0.48036 0.0
H489 H 0.05339 0.89106 0.55159 0.0
H490 H 0.99948 0.88626 0.57795 0.0
S491 S 0.02155 0.7937 0.30884 0.0
N492 N 0.05169 0.81327 0.34014 0.0
N493 N 0.99312 0.80809 0.36861 0.0
C494 C 0.00757 0.82995 0.41814 0.0
C495 C 0.03934 0.83286 0.4023 0.0
C496 C 0.35637 0.23025 0.06163 0.0
C497 C 0.36945 0.21606 0.13959 0.0
C498 C 0.35735 0.26177 0.05023 0.0
C499 C 0.37158 0.28055 0.116 0.0
H500 H 0.34555 0.21692 0.00792 0.0
H501 H 0.34721 0.2714 0.98841 0.0
S502 S 0.40765 0.25524 0.33588 0.0
N503 N 0.3958 0.22366 0.28643 0.0
N504 N 0.398 0.28277 0.26415 0.0
C505 C 0.38431 0.26681 0.19521 0.0
C506 C 0.38313 0.23467 0.20725 0.0
C507 C 0.27745 0.62933 0.80433 0.0
C508 C 0.29153 0.62472 0.89068 0.0
C509 C 0.24593 0.62844 0.79534 0.0
C510 C 0.22722 0.62229 0.87206 0.0
H511 H 0.29085 0.63414 0.74323 0.0
H512 H 0.23618 0.63239 0.72738 0.0
S513 S 0.25299 0.60774 0.11339 0.0
N514 N 0.28452 0.61364 0.05457 0.0
N515 N 0.2252 0.61099 0.0373 0.0
C516 C 0.24103 0.61716 0.95875 0.0
C517 C 0.27318 0.61871 0.96823 0.0
C518 C 0.62388 0.77019 0.21232 0.0
C519 C 0.62167 0.7887 0.13302 0.0
C520 C 0.62355 0.7385 0.20493 0.0
C521 C 0.62197 0.72431 0.11781 0.0
H522 H 0.62549 0.78025 0.28074 0.0
H523 H 0.62511 0.72505 0.26765 0.0
S524 S 0.61558 0.76233 0.88915 0.0
N525 N 0.61693 0.79038 0.96488 0.0
N526 N 0.61786 0.73086 0.95089 0.0
C527 C 0.61992 0.74247 0.03803 0.0
C528 C 0.61933 0.77468 0.04568 0.0
C529 C 0.75381 0.35737 0.96853 0.0
C530 C 0.77017 0.35897 0.88494 0.0
C531 C 0.72207 0.35785 0.96867 0.0
C532 C 0.70558 0.35921 0.88519 0.0
H533 H 0.76558 0.3569 0.0345 0.0
H534 H 0.71036 0.3574 0.03473 0.0
S535 S 0.7377 0.36212 0.64751 0.0
N536 N 0.76755 0.36095 0.7164 0.0
N537 N 0.70797 0.36126 0.71675 0.0
C538 C 0.72167 0.35973 0.80107 0.0
C539 C 0.75395 0.35979 0.80094 0.0
C540 C 0.86442 0.74227 0.56847 0.0
C541 C 0.86654 0.72615 0.65262 0.0
C542 C 0.86487 0.77408 0.56692 0.0
C543 C 0.86669 0.79092 0.64958 0.0
H544 H 0.86321 0.73026 0.50302 0.0
H545 H 0.86381 0.78556 0.5005 0.0
S546 S 0.87204 0.75968 0.88824 0.0
N547 N 0.87017 0.72951 0.8208 0.0
N548 N 0.87055 0.78915 0.81776 0.0
C549 C 0.8682 0.7751 0.73421 0.0
C550 C 0.86827 0.74276 0.73577 0.0
C551 C 0.77329 0.12471 0.46193 0.0
C552 C 0.79336 0.11891 0.38816 0.0
C553 C 0.74186 0.12467 0.44827 0.0
C554 C 0.72938 0.11965 0.35987 0.0
H555 H 0.7819 0.12917 0.53099 0.0
H556 H 0.72727 0.12927 0.50699 0.0
S557 S 0.77174 0.10239 0.14425 0.0
N558 N 0.79821 0.10671 0.22411 0.0
N559 N 0.7392 0.10787 0.19802 0.0
C560 C 0.74906 0.11366 0.28561 0.0
C561 C 0.78103 0.11293 0.29992 0.0
C562 C 0.1384 0.27866 0.54459 0.0
C563 C 0.12743 0.29329 0.62462 0.0
C564 C 0.13794 0.24709 0.5364 0.0
C565 C 0.12647 0.22858 0.60779 0.0
H566 H 0.14707 0.29166 0.48661 0.0
H567 H 0.14638 0.2372 0.4727 0.0
S568 S 0.09671 0.25522 0.8347 0.0
N569 N 0.10601 0.28658 0.77906 0.0
N570 N 0.10491 0.22718 0.76322 0.0
C571 C 0.1159 0.24277 0.68914 0.0
C572 C 0.11647 0.27506 0.69769 0.0
C573 C 0.27625 0.88608 0.434 0.0
C574 C 0.29162 0.87023 0.36362 0.0
C575 C 0.24469 0.88518 0.44114 0.0
C576 C 0.22701 0.86834 0.37823 0.0
H577 H 0.28861 0.89975 0.48366 0.0
H578 H 0.23413 0.89824 0.49582 0.0
S579 S 0.25624 0.82112 0.18436 0.0
N580 N 0.28681 0.83604 0.23184 0.0
N581 N 0.2275 0.83415 0.24549 0.0
C582 C 0.24212 0.85171 0.30876 0.0
C583 C 0.27436 0.85269 0.30135 0.0
C584 C 0.22527 0.13511 0.81584 0.0
C585 C 0.2114 0.10878 0.78097 0.0
C586 C 0.25308 0.13365 0.86275 0.0
C587 C 0.2683 0.10588 0.87515 0.0
H588 H 0.2141 0.15688 0.80967 0.0
H589 H 0.2627 0.15448 0.8895 0.0
S590 S 0.24217 0.03063 0.7918 0.0
N591 N 0.21528 0.05432 0.75907 0.0
N592 N 0.26776 0.05155 0.84539 0.0
C593 C 0.25503 0.07951 0.83805 0.0
C594 C 0.22653 0.08097 0.79151 0.0
C595 C 0.08769 0.72684 0.0493 0.0
C596 C 0.11462 0.71088 0.03144 0.0
C597 C 0.08817 0.75547 0.09128 0.0
C598 C 0.11558 0.769 0.11866 0.0
H599 H 0.06597 0.71699 0.03163 0.0
H600 H 0.0668 0.76673 0.10436 0.0
S601 S 0.19255 0.7371 0.08513 0.0
N602 N 0.16962 0.71116 0.04185 0.0
N603 N 0.17048 0.76478 0.12202 0.0
C604 C 0.14275 0.75354 0.09994 0.0
C605 C 0.14229 0.72456 0.05582 0.0
C606 C 0.71739 0.90735 0.87295 0.0
C607 C 0.70893 0.90162 0.96544 0.0
C608 C 0.74776 0.90623 0.84556 0.0
C609 C 0.77074 0.9002 0.91028 0.0
H610 H 0.70035 0.91214 0.82082 0.0
H611 H 0.75332 0.91049 0.77349 0.0
S612 S 0.76055 0.88388 0.16081 0.0
N613 N 0.72584 0.88936 0.12147 0.0
N614 N 0.78321 0.88837 0.07066 0.0
C615 C 0.76268 0.89479 0.00318 0.0
C616 C 0.73165 0.89516 0.0306 0.0
C617 C 0.86899 0.25181 0.16977 0.0
C618 C 0.89389 0.27115 0.15533 0.0
C619 C 0.8725 0.22353 0.21305 0.0
C620 C 0.90114 0.21327 0.24202 0.0
H621 H 0.84656 0.25851 0.14729 0.0
H622 H 0.85276 0.20918 0.22079 0.0
S623 S 0.97347 0.25551 0.22379 0.0
N624 N 0.94807 0.27839 0.17717 0.0
N625 N 0.95468 0.22495 0.25621 0.0
C626 C 0.92614 0.23252 0.22949 0.0
C627 C 0.92252 0.26153 0.18683 0.0
C628 C 0.27469 0.40084 0.35972 0.0
C629 C 0.28518 0.38504 0.28125 0.0
C630 C 0.24548 0.39621 0.39454 0.0
C631 C 0.22542 0.37565 0.35222 0.0
H632 H 0.28934 0.41652 0.39616 0.0
H633 H 0.23875 0.40874 0.45577 0.0
S634 S 0.24106 0.33014 0.14057 0.0
N635 N 0.27272 0.34904 0.15934 0.0
N636 N 0.21772 0.34039 0.22425 0.0
C637 C 0.23534 0.36022 0.27213 0.0
C638 C 0.2652 0.3649 0.23683 0.0
C639 C 0.37981 0.73254 0.56057 0.0
C640 C 0.37888 0.72275 0.6536 0.0
C641 C 0.37906 0.76345 0.53784 0.0
C642 C 0.37808 0.78569 0.60747 0.0
H643 H 0.38159 0.71618 0.50477 0.0
H644 H 0.38057 0.76997 0.46548 0.0
S645 S 0.37334 0.77213 0.86117 0.0
N646 N 0.37501 0.73785 0.81545 0.0
N647 N 0.37443 0.79597 0.77279 0.0
C648 C 0.37621 0.77625 0.70055 0.0
C649 C 0.37635 0.74477 0.72363 0.0
C650 C 0.72669 0.5872 0.31112 0.0
C651 C 0.71096 0.61409 0.29036 0.0
C652 C 0.75529 0.58792 0.35307 0.0
C653 C 0.76902 0.61554 0.37764 0.0
H654 H 0.71665 0.56535 0.29598 0.0
H655 H 0.76633 0.56658 0.36863 0.0
S656 S 0.73782 0.69246 0.33518 0.0
N657 N 0.71171 0.66923 0.29443 0.0
N658 N 0.76528 0.67057 0.37466 0.0
C659 C 0.75383 0.64266 0.35563 0.0
C660 C 0.72488 0.64193 0.31147 0.0
C661 C 0.6288 0.22172 0.55651 0.0
C662 C 0.6034 0.20655 0.52059 0.0
C663 C 0.62584 0.24974 0.60132 0.0
C664 C 0.59742 0.26389 0.61049 0.0
H665 H 0.65103 0.2114 0.55301 0.0
H666 H 0.64601 0.26035 0.62909 0.0
S667 S 0.52415 0.23429 0.52258 0.0
N668 N 0.54912 0.20811 0.4936 0.0
N669 N 0.54354 0.26108 0.57623 0.0
C670 C 0.57197 0.24939 0.57204 0.0
C671 C 0.57496 0.22063 0.52759 0.0
C672 C 0.40028 0.10484 0.63851 0.0
C673 C 0.39698 0.12809 0.57235 0.0
C674 C 0.39287 0.1096 0.73203 0.0
C675 C 0.38203 0.13784 0.76303 0.0
H676 H 0.40768 0.08246 0.61752 0.0
H677 H 0.39472 0.09066 0.77958 0.0
S678 S 0.37341 0.20737 0.61958 0.0
N679 N 0.38495 0.18121 0.54586 0.0
N680 N 0.37125 0.19026 0.72126 0.0
C681 C 0.38016 0.16173 0.69833 0.0
C682 C 0.38755 0.15683 0.60313 0.0
C683 C 0.1144 0.60517 0.37642 0.0
C684 C 0.13651 0.61625 0.43817 0.0
C685 C 0.1186 0.60639 0.27999 0.0
C686 C 0.14511 0.61873 0.24132 0.0
H687 H 0.09343 0.59575 0.40254 0.0
H688 H 0.10065 0.59808 0.23553 0.0
S689 S 0.21112 0.64865 0.37252 0.0
N690 N 0.18669 0.63851 0.45335 0.0
N691 N 0.1946 0.64077 0.27268 0.0
C692 C 0.16775 0.62924 0.30228 0.0
C693 C 0.16345 0.62803 0.40044 0.0
C694 C 0.6025 0.89977 0.6241 0.0
C695 C 0.61432 0.87826 0.56178 0.0
C696 C 0.60416 0.89534 0.72028 0.0
C697 C 0.61772 0.86922 0.75797 0.0
H698 H 0.59219 0.92044 0.59861 0.0
H699 H 0.59527 0.91286 0.76532 0.0
S700 S 0.64981 0.8047 0.62491 0.0
N701 N 0.63849 0.82895 0.54483 0.0
N702 N 0.64161 0.82067 0.7253 0.0
C703 C 0.62896 0.84716 0.69646 0.0
C704 C 0.62728 0.85167 0.59852 0.0
C705 C 0.87337 0.3938 0.30304 0.0
C706 C 0.84617 0.38049 0.27257 0.0
C707 C 0.87774 0.40144 0.39659 0.0
C708 C 0.85512 0.396 0.46329 0.0
H709 H 0.8919 0.39737 0.25506 0.0
H710 H 0.89941 0.41079 0.41706 0.0
S711 S 0.7783 0.36531 0.41722 0.0
N712 N 0.79519 0.36492 0.31517 0.0
N713 N 0.80344 0.37913 0.49059 0.0
C714 C 0.82727 0.38409 0.43291 0.0
C715 C 0.82279 0.3764 0.33771 0.0
C716 C 0.39332 0.38413 0.5198 0.0
C717 C 0.38036 0.35781 0.48156 0.0
C718 C 0.39506 0.3883 0.61609 0.0
C719 C 0.38383 0.36637 0.67815 0.0
H720 H 0.40173 0.402 0.47513 0.0
H721 H 0.40487 0.40917 0.64189 0.0
S722 S 0.34988 0.29227 0.61402 0.0
N723 N 0.35764 0.30861 0.51379 0.0
N724 N 0.36079 0.31654 0.69443 0.0
C725 C 0.37146 0.3396 0.64099 0.0
C726 C 0.36978 0.33529 0.54289 0.0
C727 C 0.40169 0.59511 0.37623 0.0
C728 C 0.378 0.5991 0.31236 0.0
C729 C 0.39668 0.59838 0.4716 0.0
C730 C 0.36775 0.60554 0.50633 0.0
H731 H 0.4245 0.59063 0.3523 0.0
H732 H 0.41589 0.59635 0.51795 0.0
S733 S 0.29723 0.61348 0.36767 0.0
N734 N 0.32401 0.60724 0.29026 0.0
N735 N 0.31444 0.61311 0.46937 0.0
C736 C 0.3435 0.60765 0.44324 0.0
C737 C 0.34867 0.60454 0.34622 0.0
C738 C 0.60552 0.61275 0.63135 0.0
C739 C 0.61635 0.63447 0.69463 0.0
C740 C 0.60662 0.61783 0.53541 0.0
C741 C 0.61858 0.64488 0.49879 0.0
H742 H 0.59636 0.59142 0.65586 0.0
H743 H 0.59847 0.60013 0.4897 0.0
S744 S 0.64791 0.7101 0.63491 0.0
N745 N 0.63808 0.68482 0.71381 0.0
N746 N 0.64015 0.69437 0.53379 0.0
C747 C 0.62892 0.66711 0.56133 0.0
C748 C 0.62783 0.66191 0.65908 0.0
C749 C 0.59958 0.38846 0.46731 0.0
C750 C 0.62747 0.37634 0.49664 0.0
C751 C 0.59439 0.39567 0.37385 0.0
C752 C 0.61688 0.39092 0.30635 0.0
H753 H 0.58118 0.39137 0.51614 0.0
H754 H 0.57228 0.40408 0.35405 0.0
S755 S 0.69526 0.36387 0.34933 0.0
N756 N 0.6789 0.36295 0.45218 0.0
N757 N 0.66914 0.37634 0.27686 0.0
C758 C 0.64538 0.38032 0.33557 0.0
C759 C 0.65069 0.3731 0.43062 0.0
C760 C 0.90151 0.61487 0.14149 0.0
C761 C 0.89744 0.63769 0.07433 0.0
C762 C 0.89463 0.62006 0.23518 0.0
C763 C 0.88354 0.64832 0.26527 0.0
H764 H 0.90908 0.59248 0.12125 0.0
H765 H 0.89701 0.60142 0.28359 0.0
S766 S 0.87293 0.71686 0.11882 0.0
N767 N 0.88444 0.69048 0.04582 0.0
N768 N 0.87173 0.70032 0.22148 0.0
C769 C 0.88098 0.67182 0.19951 0.0
C770 C 0.88783 0.66648 0.10419 0.0
C771 C 0.66191 0.13057 0.79291 0.0
C772 C 0.64087 0.11764 0.73118 0.0
C773 C 0.6571 0.1303 0.88882 0.0
C774 C 0.63097 0.11715 0.92746 0.0
H775 H 0.68236 0.14118 0.76715 0.0
H776 H 0.67412 0.14056 0.93288 0.0
S777 S 0.56868 0.08014 0.79621 0.0
N778 N 0.5928 0.0912 0.71557 0.0
N779 N 0.58369 0.09065 0.89607 0.0
C780 C 0.60971 0.10398 0.86665 0.0
C781 C 0.61469 0.10419 0.7686 0.0
C782 C 0.09428 0.39991 0.21427 0.0
C783 C 0.10047 0.37074 0.24917 0.0
C784 C 0.09057 0.40501 0.11891 0.0
C785 C 0.09338 0.38124 0.05452 0.0
H786 H 0.09291 0.41914 0.26078 0.0
H787 H 0.08637 0.42796 0.09538 0.0
S788 S 0.10704 0.30018 0.10962 0.0
N789 N 0.10733 0.31732 0.2114 0.0
N790 N 0.10071 0.32709 0.0324 0.0
C791 C 0.09856 0.35179 0.08842 0.0
C792 C 0.10195 0.34649 0.18565 0.0
C793 C 0.34891 0.89032 0.90783 0.0
C794 C 0.3751 0.90436 0.94293 0.0
C795 C 0.34362 0.88836 0.81239 0.0
C796 C 0.36446 0.90009 0.74796 0.0
H797 H 0.33244 0.88031 0.95436 0.0
H798 H 0.3235 0.87653 0.78923 0.0
S799 S 0.43552 0.94116 0.80375 0.0
N800 N 0.42128 0.93191 0.90581 0.0
N801 N 0.41143 0.92799 0.72596 0.0
C802 C 0.39022 0.91523 0.78198 0.0
C803 C 0.39551 0.91743 0.87953 0.0
C804 C 0.90693 0.89728 0.15375 0.0
C805 C 0.89971 0.87547 0.22141 0.0
C806 C 0.89917 0.89294 0.06042 0.0
C807 C 0.88401 0.86655 0.03124 0.0
H808 H 0.91781 0.91835 0.17329 0.0
H809 H 0.90422 0.91089 0.01151 0.0
S810 S 0.8637 0.80067 0.17937 0.0
N811 N 0.87914 0.82524 0.25153 0.0
N812 N 0.8647 0.81698 0.07632 0.0
C813 C 0.87809 0.84385 0.0975 0.0
C814 C 0.88588 0.84834 0.19253 0.0
C815 C 0.9015 0.10803 0.98617 0.0
C816 C 0.87528 0.1208 0.02528 0.0
C817 C 0.90538 0.10653 0.8897 0.0
C818 C 0.88321 0.11774 0.82832 0.0
H819 H 0.91944 0.0995 0.03029 0.0
H820 H 0.92612 0.09671 0.86324 0.0
S821 S 0.80939 0.1516 0.89524 0.0
N822 N 0.82608 0.14366 0.99479 0.0
N823 N 0.83338 0.14085 0.81397 0.0
C824 C 0.8566 0.13008 0.86649 0.0
C825 C 0.85264 0.13158 0.96473 0.0
C826 C 0.10627 0.11977 0.01563 0.0
C827 C 0.1176 0.14676 0.97688 0.0
C828 C 0.10505 0.1156 0.11208 0.0
C829 C 0.1152 0.13821 0.17365 0.0
H830 H 0.0989 0.10139 0.97125 0.0
H831 H 0.09658 0.09422 0.13839 0.0
S832 S 0.14416 0.2143 0.10779 0.0
N833 N 0.13719 0.19735 0.00799 0.0
N834 N 0.13506 0.18944 0.18872 0.0
C835 C 0.12574 0.16568 0.13585 0.0
C836 C 0.12688 0.16998 0.03771 0.0
C837 C 0.11581 0.90098 0.87516 0.0
C838 C 0.1391 0.89751 0.80946 0.0
C839 C 0.12047 0.89386 0.96896 0.0
C840 C 0.14864 0.8831 0.00062 0.0
H841 H 0.09348 0.9083 0.85366 0.0
H842 H 0.10151 0.89579 0.01619 0.0
S843 S 0.21826 0.87414 0.85877 0.0
N844 N 0.19222 0.88547 0.78426 0.0
N845 N 0.20104 0.87226 0.9602 0.0
C846 C 0.17258 0.8811 0.93645 0.0
C847 C 0.1678 0.88823 0.841 0.0
loop_
_geom_bond_atom_site_label_1
_geom_bond_atom_site_label_2
_geom_bond_distance
_geom_bond_site_symmetry_2
_ccdc_geom_bond_type
Zn0 O6 1.969 . S
Zn0 O7 1.965 1_556 S
Zn0 O11 2.024 1_556 S
Zn0 O16 1.969 1_556 S
Zn1 O8 1.969 . S
Zn1 O14 1.969 . S
Zn1 O15 1.965 . S
Zn1 O17 2.024 . S
C2 O3 1.229 . S
C2 O11 1.058 1_556 S
O3 C2 1.229 . S
C4 O5 1.229 . S
C4 O17 1.058 . S
O5 C4 1.229 . S
O6 Zn0 1.969 . S
O6 C9 1.267 . S
O7 Zn0 1.965 1_554 S
O7 C18 1.260 . S
O8 Zn1 1.969 . S
O8 C18 1.258 . S
C9 O6 1.267 . S
C9 O10 1.228 . S
O10 C9 1.228 . S
O11 Zn0 2.024 1_554 S
O11 C2 1.058 1_554 S
C12 O13 1.228 . S
C12 O14 1.267 . S
O13 C12 1.228 . S
O14 Zn1 1.969 . S
O14 C12 1.267 . S
O15 Zn1 1.965 . S
O15 C19 1.260 . S
O16 Zn0 1.969 1_554 S
O16 C19 1.258 . S
O17 Zn1 2.024 . S
O17 C4 1.058 . S
C18 O7 1.260 . S
C18 O8 1.258 . S
C19 O15 1.260 . S
C19 O16 1.258 . S
Zn20 O26 1.969 . S
Zn20 O27 1.965 . S
Zn20 O31 2.024 . S
Zn20 O36 1.969 . S
Zn21 O28 1.969 1_554 S
Zn21 O34 1.969 . S
Zn21 O35 1.965 1_554 S
Zn21 O37 2.024 1_554 S
C22 O23 1.229 . S
C22 O31 1.058 . S
O23 C22 1.229 . S
C24 O25 1.229 . S
C24 O37 1.058 1_554 S
O25 C24 1.229 . S
O26 Zn20 1.969 . S
O26 C29 1.267 . S
O27 Zn20 1.965 . S
O27 C38 1.260 . S
O28 Zn21 1.969 1_556 S
O28 C38 1.258 . S
C29 O26 1.267 . S
C29 O30 1.228 . S
O30 C29 1.228 . S
O31 Zn20 2.024 . S
O31 C22 1.058 . S
C32 O33 1.228 . S
C32 O34 1.267 . S
O33 C32 1.228 . S
O34 Zn21 1.969 . S
O34 C32 1.267 . S
O35 Zn21 1.965 1_556 S
O35 C39 1.260 . S
O36 Zn20 1.969 . S
O36 C39 1.258 . S
O37 Zn21 2.024 1_556 S
O37 C24 1.058 1_556 S
C38 O27 1.260 . S
C38 O28 1.258 . S
C39 O35 1.260 . S
C39 O36 1.258 . S
Zn40 O46 1.969 . S
Zn40 O47 1.965 1_556 S
Zn40 O51 2.024 1_556 S
Zn40 O56 1.969 1_556 S
Zn41 O48 1.969 . S
Zn41 O54 1.969 . S
Zn41 O55 1.965 . S
Zn41 O57 2.024 . S
C42 O43 1.229 . S
C42 O51 1.058 1_556 S
O43 C42 1.229 . S
C44 O45 1.229 . S
C44 O57 1.058 . S
O45 C44 1.229 . S
O46 Zn40 1.969 . S
O46 C49 1.267 . S
O47 Zn40 1.965 1_554 S
O47 C58 1.260 . S
O48 Zn41 1.969 . S
O48 C58 1.258 . S
C49 O46 1.267 . S
C49 O50 1.228 . S
O50 C49 1.228 . S
O51 Zn40 2.024 1_554 S
O51 C42 1.058 1_554 S
C52 O53 1.228 . S
C52 O54 1.267 . S
O53 C52 1.228 . S
O54 Zn41 1.969 . S
O54 C52 1.267 . S
O55 Zn41 1.965 . S
O55 C59 1.260 . S
O56 Zn40 1.969 1_554 S
O56 C59 1.258 . S
O57 Zn41 2.024 . S
O57 C44 1.058 . S
C58 O47 1.260 . S
C58 O48 1.258 . S
C59 O55 1.260 . S
C59 O56 1.258 . S
Zn60 O66 1.969 . S
Zn60 O67 1.965 . S
Zn60 O71 2.024 . S
Zn60 O76 1.969 . S
Zn61 O68 1.969 1_554 S
Zn61 O74 1.969 . S
Zn61 O75 1.965 1_554 S
Zn61 O77 2.024 1_554 S
C62 O63 1.229 . S
C62 O71 1.058 . S
O63 C62 1.229 . S
C64 O65 1.229 . S
C64 O77 1.058 1_554 S
O65 C64 1.229 . S
O66 Zn60 1.969 . S
O66 C69 1.267 . S
O67 Zn60 1.965 . S
O67 C78 1.260 . S
O68 Zn61 1.969 1_556 S
O68 C78 1.258 . S
C69 O66 1.267 . S
C69 O70 1.228 . S
O70 C69 1.228 . S
O71 Zn60 2.024 . S
O71 C62 1.058 . S
C72 O73 1.228 . S
C72 O74 1.267 . S
O73 C72 1.228 . S
O74 Zn61 1.969 . S
O74 C72 1.267 . S
O75 Zn61 1.965 1_556 S
O75 C79 1.260 . S
O76 Zn60 1.969 . S
O76 C79 1.258 . S
O77 Zn61 2.024 1_556 S
O77 C64 1.058 1_556 S
C78 O67 1.260 . S
C78 O68 1.258 . S
C79 O75 1.260 . S
C79 O76 1.258 . S
Zn80 O86 1.969 . S
Zn80 O87 1.965 . S
Zn80 O91 2.024 . S
Zn80 O96 1.969 . S
Zn81 O88 1.969 1_556 S
Zn81 O94 1.969 . S
Zn81 O95 1.965 1_556 S
Zn81 O97 2.024 1_556 S
C82 O83 1.229 . S
C82 O91 1.058 . S
O83 C82 1.229 . S
C84 O85 1.229 . S
C84 O97 1.058 1_556 S
O85 C84 1.229 . S
O86 Zn80 1.969 . S
O86 C89 1.267 . S
O87 Zn80 1.965 . S
O87 C98 1.260 . S
O88 Zn81 1.969 1_554 S
O88 C98 1.258 . S
C89 O86 1.267 . S
C89 O90 1.228 . S
O90 C89 1.228 . S
O91 Zn80 2.024 . S
O91 C82 1.058 . S
C92 O93 1.228 . S
C92 O94 1.267 . S
O93 C92 1.228 . S
O94 Zn81 1.969 . S
O94 C92 1.267 . S
O95 Zn81 1.965 1_554 S
O95 C99 1.260 . S
O96 Zn80 1.969 . S
O96 C99 1.258 . S
O97 Zn81 2.024 1_554 S
O97 C84 1.058 1_554 S
C98 O87 1.260 . S
C98 O88 1.258 . S
C99 O95 1.260 . S
C99 O96 1.258 . S
Zn100 O106 1.969 . S
Zn100 O107 1.965 1_554 S
Zn100 O111 2.024 1_554 S
Zn100 O116 1.969 1_554 S
Zn101 O108 1.969 . S
Zn101 O114 1.969 . S
Zn101 O115 1.965 . S
Zn101 O117 2.024 . S
C102 O103 1.229 . S
C102 O111 1.058 1_554 S
O103 C102 1.229 . S
C104 O105 1.229 . S
C104 O117 1.058 . S
O105 C104 1.229 . S
O106 Zn100 1.969 . S
O106 C109 1.267 . S
O107 Zn100 1.965 1_556 S
O107 C118 1.260 . S
O108 Zn101 1.969 . S
O108 C118 1.258 . S
C109 O106 1.267 . S
C109 O110 1.228 . S
O110 C109 1.228 . S
O111 Zn100 2.024 1_556 S
O111 C102 1.058 1_556 S
C112 O113 1.228 . S
C112 O114 1.267 . S
O113 C112 1.228 . S
O114 Zn101 1.969 . S
O114 C112 1.267 . S
O115 Zn101 1.965 . S
O115 C119 1.260 . S
O116 Zn100 1.969 1_556 S
O116 C119 1.258 . S
O117 Zn101 2.024 . S
O117 C104 1.058 . S
C118 O107 1.260 . S
C118 O108 1.258 . S
C119 O115 1.260 . S
C119 O116 1.258 . S
Zn120 O126 1.969 . S
Zn120 O127 1.965 . S
Zn120 O131 2.024 . S
Zn120 O136 1.969 . S
Zn121 O128 1.969 1_556 S
Zn121 O134 1.969 . S
Zn121 O135 1.965 1_556 S
Zn121 O137 2.024 1_556 S
C122 O123 1.229 . S
C122 O131 1.058 . S
O123 C122 1.229 . S
C124 O125 1.229 . S
C124 O137 1.058 1_556 S
O125 C124 1.229 . S
O126 Zn120 1.969 . S
O126 C129 1.267 . S
O127 Zn120 1.965 . S
O127 C138 1.260 . S
O128 Zn121 1.969 1_554 S
O128 C138 1.258 . S
C129 O126 1.267 . S
C129 O130 1.228 . S
O130 C129 1.228 . S
O131 Zn120 2.024 . S
O131 C122 1.058 . S
C132 O133 1.228 . S
C132 O134 1.267 . S
O133 C132 1.228 . S
O134 Zn121 1.969 . S
O134 C132 1.267 . S
O135 Zn121 1.965 1_554 S
O135 C139 1.260 . S
O136 Zn120 1.969 . S
O136 C139 1.258 . S
O137 Zn121 2.024 1_554 S
O137 C124 1.058 1_554 S
C138 O127 1.260 . S
C138 O128 1.258 . S
C139 O135 1.260 . S
C139 O136 1.258 . S
Zn140 O146 1.969 . S
Zn140 O147 1.965 1_554 S
Zn140 O151 2.024 1_554 S
Zn140 O156 1.969 1_554 S
Zn141 O148 1.969 . S
Zn141 O154 1.969 . S
Zn141 O155 1.965 . S
Zn141 O157 2.024 . S
C142 O143 1.229 . S
C142 O151 1.058 1_554 S
O143 C142 1.229 . S
C144 O145 1.229 . S
C144 O157 1.058 . S
O145 C144 1.229 . S
O146 Zn140 1.969 . S
O146 C149 1.267 . S
O147 Zn140 1.965 1_556 S
O147 C158 1.260 . S
O148 Zn141 1.969 . S
O148 C158 1.258 . S
C149 O146 1.267 . S
C149 O150 1.228 . S
O150 C149 1.228 . S
O151 Zn140 2.024 1_556 S
O151 C142 1.058 1_556 S
C152 O153 1.228 . S
C152 O154 1.267 . S
O153 C152 1.228 . S
O154 Zn141 1.969 . S
O154 C152 1.267 . S
O155 Zn141 1.965 . S
O155 C159 1.260 . S
O156 Zn140 1.969 1_556 S
O156 C159 1.258 . S
O157 Zn141 2.024 . S
O157 C144 1.058 . S
C158 O147 1.260 . S
C158 O148 1.258 . S
C159 O155 1.260 . S
C159 O156 1.258 . S
Zn160 O166 1.969 . S
Zn160 O167 1.965 . S
Zn160 O171 2.024 . S
Zn160 O176 1.969 . S
Zn161 O168 1.969 . S
Zn161 O174 1.969 . S
Zn161 O175 1.965 . S
Zn161 O177 2.024 . S
C162 O163 1.229 . S
C162 O171 1.058 . S
O163 C162 1.229 . S
C164 O165 1.229 . S
C164 O177 1.058 . S
O165 C164 1.229 . S
O166 Zn160 1.969 . S
O166 C169 1.267 . S
O167 Zn160 1.965 . S
O167 C178 1.260 . S
O168 Zn161 1.969 . S
O168 C178 1.258 . S
C169 O166 1.267 . S
C169 O170 1.228 . S
O170 C169 1.228 . S
O171 Zn160 2.024 . S
O171 C162 1.058 . S
C172 O173 1.228 . S
C172 O174 1.267 . S
O173 C172 1.228 . S
O174 Zn161 1.969 . S
O174 C172 1.267 . S
O175 Zn161 1.965 . S
O175 C179 1.260 . S
O176 Zn160 1.969 . S
O176 C179 1.258 . S
O177 Zn161 2.024 . S
O177 C164 1.058 . S
C178 O167 1.260 . S
C178 O168 1.258 . S
C179 O175 1.260 . S
C179 O176 1.258 . S
Zn180 O186 1.969 . S
Zn180 O187 1.965 . S
Zn180 O191 2.024 . S
Zn180 O196 1.969 . S
Zn181 O188 1.969 . S
Zn181 O194 1.969 . S
Zn181 O195 1.965 . S
Zn181 O197 2.024 . S
C182 O183 1.229 . S
C182 O191 1.058 . S
O183 C182 1.229 . S
C184 O185 1.229 . S
C184 O197 1.058 . S
O185 C184 1.229 . S
O186 Zn180 1.969 . S
O186 C189 1.267 . S
O187 Zn180 1.965 . S
O187 C198 1.260 . S
O188 Zn181 1.969 . S
O188 C198 1.258 . S
C189 O186 1.267 . S
C189 O190 1.228 . S
O190 C189 1.228 . S
O191 Zn180 2.024 . S
O191 C182 1.058 . S
C192 O193 1.228 . S
C192 O194 1.267 . S
O193 C192 1.228 . S
O194 Zn181 1.969 . S
O194 C192 1.267 . S
O195 Zn181 1.965 . S
O195 C199 1.260 . S
O196 Zn180 1.969 . S
O196 C199 1.258 . S
O197 Zn181 2.024 . S
O197 C184 1.058 . S
C198 O187 1.260 . S
C198 O188 1.258 . S
C199 O195 1.260 . S
C199 O196 1.258 . S
Zn200 O206 1.969 . S
Zn200 O207 1.965 . S
Zn200 O211 2.024 . S
Zn200 O216 1.969 . S
Zn201 O208 1.969 . S
Zn201 O214 1.969 . S
Zn201 O215 1.965 . S
Zn201 O217 2.024 . S
C202 O203 1.229 . S
C202 O211 1.058 . S
O203 C202 1.229 . S
C204 O205 1.229 . S
C204 O217 1.058 . S
O205 C204 1.229 . S
O206 Zn200 1.969 . S
O206 C209 1.267 . S
O207 Zn200 1.965 . S
O207 C218 1.260 . S
O208 Zn201 1.969 . S
O208 C218 1.258 . S
C209 O206 1.267 . S
C209 O210 1.228 . S
O210 C209 1.228 . S
O211 Zn200 2.024 . S
O211 C202 1.058 . S
C212 O213 1.228 . S
C212 O214 1.267 . S
O213 C212 1.228 . S
O214 Zn201 1.969 . S
O214 C212 1.267 . S
O215 Zn201 1.965 . S
O215 C219 1.260 . S
O216 Zn200 1.969 . S
O216 C219 1.258 . S
O217 Zn201 2.024 . S
O217 C204 1.058 . S
C218 O207 1.260 . S
C218 O208 1.258 . S
C219 O215 1.260 . S
C219 O216 1.258 . S
Zn220 O226 1.969 . S
Zn220 O227 1.965 . S
Zn220 O231 2.024 . S
Zn220 O236 1.969 . S
Zn221 O228 1.969 . S
Zn221 O234 1.969 . S
Zn221 O235 1.965 . S
Zn221 O237 2.024 . S
C222 O223 1.229 . S
C222 O231 1.058 . S
O223 C222 1.229 . S
C224 O225 1.229 . S
C224 O237 1.058 . S
O225 C224 1.229 . S
O226 Zn220 1.969 . S
O226 C229 1.267 . S
O227 Zn220 1.965 . S
O227 C238 1.260 . S
O228 Zn221 1.969 . S
O228 C238 1.258 . S
C229 O226 1.267 . S
C229 O230 1.228 . S
O230 C229 1.228 . S
O231 Zn220 2.024 . S
O231 C222 1.058 . S
C232 O233 1.228 . S
C232 O234 1.267 . S
O233 C232 1.228 . S
O234 Zn221 1.969 . S
O234 C232 1.267 . S
O235 Zn221 1.965 . S
O235 C239 1.260 . S
O236 Zn220 1.969 . S
O236 C239 1.258 . S
O237 Zn221 2.024 . S
O237 C224 1.058 . S
C238 O227 1.260 . S
C238 O228 1.258 . S
C239 O235 1.260 . S
C239 O236 1.258 . S
Zn240 O246 1.969 . S
Zn240 O247 1.965 . S
Zn240 O251 2.024 . S
Zn240 O256 1.969 . S
Zn241 O248 1.969 . S
Zn241 O254 1.969 . S
Zn241 O255 1.965 . S
Zn241 O257 2.024 . S
C242 O243 1.229 . S
C242 O251 1.058 . S
O243 C242 1.229 . S
C244 O245 1.229 . S
C244 O257 1.058 . S
O245 C244 1.229 . S
O246 Zn240 1.969 . S
O246 C249 1.267 . S
O247 Zn240 1.965 . S
O247 C258 1.260 . S
O248 Zn241 1.969 . S
O248 C258 1.258 . S
C249 O246 1.267 . S
C249 O250 1.228 . S
O250 C249 1.228 . S
O251 Zn240 2.024 . S
O251 C242 1.058 . S
C252 O253 1.228 . S
C252 O254 1.267 . S
O253 C252 1.228 . S
O254 Zn241 1.969 . S
O254 C252 1.267 . S
O255 Zn241 1.965 . S
O255 C259 1.260 . S
O256 Zn240 1.969 . S
O256 C259 1.258 . S
O257 Zn241 2.024 . S
O257 C244 1.058 . S
C258 O247 1.260 . S
C258 O248 1.258 . S
C259 O255 1.260 . S
C259 O256 1.258 . S
Zn260 O266 1.969 . S
Zn260 O267 1.965 . S
Zn260 O271 2.024 . S
Zn260 O276 1.969 . S
Zn261 O268 1.969 . S
Zn261 O274 1.969 . S
Zn261 O275 1.965 . S
Zn261 O277 2.024 . S
C262 O263 1.229 . S
C262 O271 1.058 . S
O263 C262 1.229 . S
C264 O265 1.229 . S
C264 O277 1.058 . S
O265 C264 1.229 . S
O266 Zn260 1.969 . S
O266 C269 1.267 . S
O267 Zn260 1.965 . S
O267 C278 1.260 . S
O268 Zn261 1.969 . S
O268 C278 1.258 . S
C269 O266 1.267 . S
C269 O270 1.228 . S
O270 C269 1.228 . S
O271 Zn260 2.024 . S
O271 C262 1.058 . S
C272 O273 1.228 . S
C272 O274 1.267 . S
O273 C272 1.228 . S
O274 Zn261 1.969 . S
O274 C272 1.267 . S
O275 Zn261 1.965 . S
O275 C279 1.260 . S
O276 Zn260 1.969 . S
O276 C279 1.258 . S
O277 Zn261 2.024 . S
O277 C264 1.058 . S
C278 O267 1.260 . S
C278 O268 1.258 . S
C279 O275 1.260 . S
C279 O276 1.258 . S
Zn280 O286 1.969 . S
Zn280 O287 1.965 . S
Zn280 O291 2.024 . S
Zn280 O296 1.969 . S
Zn281 O288 1.969 . S
Zn281 O294 1.969 . S
Zn281 O295 1.965 . S
Zn281 O297 2.024 . S
C282 O283 1.229 . S
C282 O291 1.058 . S
O283 C282 1.229 . S
C284 O285 1.229 . S
C284 O297 1.058 . S
O285 C284 1.229 . S
O286 Zn280 1.969 . S
O286 C289 1.267 . S
O287 Zn280 1.965 . S
O287 C298 1.260 . S
O288 Zn281 1.969 . S
O288 C298 1.258 . S
C289 O286 1.267 . S
C289 O290 1.228 . S
O290 C289 1.228 . S
O291 Zn280 2.024 . S
O291 C282 1.058 . S
C292 O293 1.228 . S
C292 O294 1.267 . S
O293 C292 1.228 . S
O294 Zn281 1.969 . S
O294 C292 1.267 . S
O295 Zn281 1.965 . S
O295 C299 1.260 . S
O296 Zn280 1.969 . S
O296 C299 1.258 . S
O297 Zn281 2.024 . S
O297 C284 1.058 . S
C298 O287 1.260 . S
C298 O288 1.258 . S
C299 O295 1.260 . S
C299 O296 1.258 . S
Zn300 O306 1.969 . S
Zn300 O307 1.965 . S
Zn300 O311 2.024 . S
Zn300 O316 1.969 . S
Zn301 O308 1.969 . S
Zn301 O314 1.969 . S
Zn301 O315 1.965 . S
Zn301 O317 2.024 . S
C302 O303 1.229 . S
C302 O311 1.058 . S
O303 C302 1.229 . S
C304 O305 1.229 . S
C304 O317 1.058 . S
O305 C304 1.229 . S
O306 Zn300 1.969 . S
O306 C309 1.267 . S
O307 Zn300 1.965 . S
O307 C318 1.260 . S
O308 Zn301 1.969 . S
O308 C318 1.258 . S
C309 O306 1.267 . S
C309 O310 1.228 . S
O310 C309 1.228 . S
O311 Zn300 2.024 . S
O311 C302 1.058 . S
C312 O313 1.228 . S
C312 O314 1.267 . S
O313 C312 1.228 . S
O314 Zn301 1.969 . S
O314 C312 1.267 . S
O315 Zn301 1.965 . S
O315 C319 1.260 . S
O316 Zn300 1.969 . S
O316 C319 1.258 . S
O317 Zn301 2.024 . S
O317 C304 1.058 . S
C318 O307 1.260 . S
C318 O308 1.258 . S
C319 O315 1.260 . S
C319 O316 1.258 . S
C320 C321 1.369 1_545 S
C320 C322 1.419 . S
C320 H324 0.930 . S
C321 C320 1.369 1_565 S
C321 C330 1.429 1_565 S
C322 C320 1.419 . S
C322 C323 1.363 . S
C322 H325 0.929 . S
C323 C322 1.363 . S
C323 C329 1.428 . S
H324 C320 0.930 . S
H325 C322 0.929 . S
S326 N327 1.613 1_545 S
S326 N328 1.610 . S
N327 S326 1.613 1_565 S
N327 C330 1.350 1_565 S
N328 S326 1.610 . S
N328 C329 1.351 . S
C329 C323 1.428 . S
C329 N328 1.351 . S
C329 C330 1.434 . S
C330 C321 1.429 1_545 S
C330 N327 1.350 1_545 S
C330 C329 1.434 . S
C331 C332 1.369 1_455 S
C331 C333 1.419 . S
C331 H335 0.930 . S
C332 C331 1.369 1_655 S
C332 C341 1.429 1_655 S
C333 C331 1.419 . S
C333 C334 1.363 . S
C333 H336 0.929 . S
C334 C333 1.363 . S
C334 C340 1.428 . S
H335 C331 0.930 . S
H336 C333 0.929 . S
S337 N338 1.613 1_455 S
S337 N339 1.610 . S
N338 S337 1.613 1_655 S
N338 C341 1.350 1_655 S
N339 S337 1.610 . S
N339 C340 1.351 . S
C340 C334 1.428 . S
C340 N339 1.351 . S
C340 C341 1.434 . S
C341 C332 1.429 1_455 S
C341 N338 1.350 1_455 S
C341 C340 1.434 . S
C342 C343 1.369 . S
C342 C344 1.419 . S
C342 H346 0.930 . S
C343 C342 1.369 . S
C343 C352 1.429 . S
C344 C342 1.419 . S
C344 C345 1.363 1_565 S
C344 H347 0.929 1_565 S
C345 C344 1.363 1_545 S
C345 C351 1.428 1_545 S
H346 C342 0.930 . S
H347 C344 0.929 1_545 S
S348 N349 1.613 . S
S348 N350 1.610 . S
N349 S348 1.613 . S
N349 C352 1.350 . S
N350 S348 1.610 . S
N350 C351 1.351 . S
C351 C345 1.428 1_565 S
C351 N350 1.351 . S
C351 C352 1.434 . S
C352 C343 1.429 . S
C352 N349 1.350 . S
C352 C351 1.434 . S
C353 C354 1.369 . S
C353 C355 1.419 . S
C353 H357 0.930 . S
C354 C353 1.369 . S
C354 C363 1.429 . S
C355 C353 1.419 . S
C355 C356 1.363 1_655 S
C355 H358 0.929 . S
C356 C355 1.363 1_455 S
C356 C362 1.428 1_455 S
H357 C353 0.930 . S
H358 C355 0.929 . S
S359 N360 1.613 1_554 S
S359 N361 1.610 1_654 S
N360 S359 1.613 1_556 S
N360 C363 1.350 . S
N361 S359 1.610 1_456 S
N361 C362 1.351 1_455 S
C362 C356 1.428 1_655 S
C362 N361 1.351 1_655 S
C362 C363 1.434 . S
C363 C354 1.429 . S
C363 N360 1.350 . S
C363 C362 1.434 . S
C364 C365 1.369 . S
C364 C366 1.419 . S
C364 H368 0.930 . S
C365 C364 1.369 . S
C365 C374 1.429 . S
C366 C364 1.419 . S
C366 C367 1.363 . S
C366 H369 0.929 . S
C367 C366 1.363 . S
C367 C373 1.428 1_554 S
H368 C364 0.930 . S
H369 C366 0.929 . S
S370 N371 1.613 . S
S370 N372 1.610 . S
N371 S370 1.613 . S
N371 C374 1.350 1_556 S
N372 S370 1.610 . S
N372 C373 1.351 . S
C373 C367 1.428 1_556 S
C373 N372 1.351 . S
C373 C374 1.434 1_556 S
C374 C365 1.429 . S
C374 N371 1.350 1_554 S
C374 C373 1.434 1_554 S
C375 C376 1.369 . S
C375 C377 1.419 . S
C375 H379 0.930 . S
C376 C375 1.369 . S
C376 C385 1.429 1_556 S
C377 C375 1.419 . S
C377 C378 1.363 . S
C377 H380 0.929 . S
C378 C377 1.363 . S
C378 C384 1.428 1_556 S
H379 C375 0.930 . S
H380 C377 0.929 . S
S381 N382 1.613 . S
S381 N383 1.610 . S
N382 S381 1.613 . S
N382 C385 1.350 . S
N383 S381 1.610 . S
N383 C384 1.351 . S
C384 C378 1.428 1_554 S
C384 N383 1.351 . S
C384 C385 1.434 . S
C385 C376 1.429 1_554 S
C385 N382 1.350 . S
C385 C384 1.434 . S
C386 C387 1.369 1_556 S
C386 C388 1.419 . S
C386 H390 0.930 . S
C387 C386 1.369 1_554 S
C387 C396 1.429 . S
C388 C386 1.419 . S
C388 C389 1.363 1_556 S
C388 H391 0.929 . S
C389 C388 1.363 1_554 S
C389 C395 1.428 . S
H390 C386 0.930 . S
H391 C388 0.929 . S
S392 N393 1.613 . S
S392 N394 1.610 . S
N393 S392 1.613 . S
N393 C396 1.350 . S
N394 S392 1.610 . S
N394 C395 1.351 . S
C395 C389 1.428 . S
C395 N394 1.351 . S
C395 C396 1.434 . S
C396 C387 1.429 . S
C396 N393 1.350 . S
C396 C395 1.434 . S
C397 C398 1.369 . S
C397 C399 1.419 . S
C397 H401 0.930 . S
C398 C397 1.369 . S
C398 C407 1.429 1_556 S
C399 C397 1.419 . S
C399 C400 1.363 . S
C399 H402 0.929 . S
C400 C399 1.363 . S
C400 C406 1.428 1_556 S
H401 C397 0.930 . S
H402 C399 0.929 . S
S403 N404 1.613 . S
S403 N405 1.610 . S
N404 S403 1.613 . S
N404 C407 1.350 . S
N405 S403 1.610 . S
N405 C406 1.351 . S
C406 C400 1.428 1_554 S
C406 N405 1.351 . S
C406 C407 1.434 . S
C407 C398 1.429 1_554 S
C407 N404 1.350 . S
C407 C406 1.434 . S
C408 C409 1.369 . S
C408 C410 1.419 . S
C408 H412 0.930 . S
C409 C408 1.369 . S
C409 C418 1.429 . S
C410 C408 1.419 . S
C410 C411 1.363 . S
C410 H413 0.929 . S
C411 C410 1.363 . S
C411 C417 1.428 . S
H412 C408 0.930 . S
H413 C410 0.929 . S
S414 N415 1.613 . S
S414 N416 1.610 . S
N415 S414 1.613 . S
N415 C418 1.350 . S
N416 S414 1.610 . S
N416 C417 1.351 . S
C417 C411 1.428 . S
C417 N416 1.351 . S
C417 C418 1.434 . S
C418 C409 1.429 . S
C418 N415 1.350 . S
C418 C417 1.434 . S
C419 C420 1.369 . S
C419 C421 1.419 . S
C419 H423 0.930 . S
C420 C419 1.369 . S
C420 C429 1.429 . S
C421 C419 1.419 . S
C421 C422 1.363 . S
C421 H424 0.929 . S
C422 C421 1.363 . S
C422 C428 1.428 . S
H423 C419 0.930 . S
H424 C421 0.929 . S
S425 N426 1.613 . S
S425 N427 1.610 . S
N426 S425 1.613 . S
N426 C429 1.350 . S
N427 S425 1.610 . S
N427 C428 1.351 . S
C428 C422 1.428 . S
C428 N427 1.351 . S
C428 C429 1.434 . S
C429 C420 1.429 . S
C429 N426 1.350 . S
C429 C428 1.434 . S
C430 C431 1.369 . S
C430 C432 1.419 . S
C430 H434 0.930 . S
C431 C430 1.369 . S
C431 C440 1.429 . S
C432 C430 1.419 . S
C432 C433 1.363 . S
C432 H435 0.929 . S
C433 C432 1.363 . S
C433 C439 1.428 . S
H434 C430 0.930 . S
H435 C432 0.929 . S
S436 N437 1.613 . S
S436 N438 1.610 . S
N437 S436 1.613 . S
N437 C440 1.350 . S
N438 S436 1.610 . S
N438 C439 1.351 . S
C439 C433 1.428 . S
C439 N438 1.351 . S
C439 C440 1.434 . S
C440 C431 1.429 . S
C440 N437 1.350 . S
C440 C439 1.434 . S
C441 C442 1.369 . S
C441 C443 1.419 . S
C441 H445 0.930 . S
C442 C441 1.369 . S
C442 C451 1.429 . S
C443 C441 1.419 . S
C443 C444 1.363 . S
C443 H446 0.929 . S
C444 C443 1.363 . S
C444 C450 1.428 . S
H445 C441 0.930 . S
H446 C443 0.929 . S
S447 N448 1.613 . S
S447 N449 1.610 . S
N448 S447 1.613 . S
N448 C451 1.350 . S
N449 S447 1.610 . S
N449 C450 1.351 . S
C450 C444 1.428 . S
C450 N449 1.351 . S
C450 C451 1.434 . S
C451 C442 1.429 . S
C451 N448 1.350 . S
C451 C450 1.434 . S
C452 C453 1.369 . S
C452 C454 1.419 . S
C452 H456 0.930 . S
C453 C452 1.369 . S
C453 C462 1.429 . S
C454 C452 1.419 . S
C454 C455 1.363 1_565 S
C454 H457 0.929 . S
C455 C454 1.363 1_545 S
C455 C461 1.428 1_545 S
H456 C452 0.930 . S
H457 C454 0.929 . S
S458 N459 1.613 . S
S458 N460 1.610 1_565 S
N459 S458 1.613 . S
N459 C462 1.350 . S
N460 S458 1.610 1_545 S
N460 C461 1.351 1_545 S
C461 C455 1.428 1_565 S
C461 N460 1.351 1_565 S
C461 C462 1.434 . S
C462 C453 1.429 . S
C462 N459 1.350 . S
C462 C461 1.434 . S
C463 C464 1.369 1_655 S
C463 C465 1.419 . S
C463 H467 0.930 1_655 S
C464 C463 1.369 1_455 S
C464 C473 1.429 1_455 S
C465 C463 1.419 . S
C465 C466 1.363 . S
C465 H468 0.929 . S
C466 C465 1.363 . S
C466 C472 1.428 . S
H467 C463 0.930 1_455 S
H468 C465 0.929 . S
S469 N470 1.613 . S
S469 N471 1.610 . S
N470 S469 1.613 . S
N470 C473 1.350 . S
N471 S469 1.610 . S
N471 C472 1.351 . S
C472 C466 1.428 . S
C472 N471 1.351 . S
C472 C473 1.434 . S
C473 C464 1.429 1_655 S
C473 N470 1.350 . S
C473 C472 1.434 . S
C474 C475 1.369 1_545 S
C474 C476 1.419 . S
C474 H478 0.930 1_545 S
C475 C474 1.369 1_565 S
C475 C484 1.429 1_565 S
C476 C474 1.419 . S
C476 C477 1.363 . S
C476 H479 0.929 . S
C477 C476 1.363 . S
C477 C483 1.428 . S
H478 C474 0.930 1_565 S
H479 C476 0.929 . S
S480 N481 1.613 . S
S480 N482 1.610 . S
N481 S480 1.613 . S
N481 C484 1.350 . S
N482 S480 1.610 . S
N482 C483 1.351 . S
C483 C477 1.428 . S
C483 N482 1.351 . S
C483 C484 1.434 . S
C484 C475 1.429 1_545 S
C484 N481 1.350 . S
C484 C483 1.434 . S
C485 C486 1.369 . S
C485 C487 1.419 . S
C485 H489 0.930 . S
C486 C485 1.369 . S
C486 C495 1.429 . S
C487 C485 1.419 . S
C487 C488 1.363 1_455 S
C487 H490 0.929 . S
C488 C487 1.363 1_655 S
C488 C494 1.428 1_655 S
H489 C485 0.930 . S
H490 C487 0.929 . S
S491 N492 1.613 . S
S491 N493 1.610 1_455 S
N492 S491 1.613 . S
N492 C495 1.350 . S
N493 S491 1.610 1_655 S
N493 C494 1.351 1_655 S
C494 C488 1.428 1_455 S
C494 N493 1.351 1_455 S
C494 C495 1.434 . S
C495 C486 1.429 . S
C495 N492 1.350 . S
C495 C494 1.434 . S
C496 C497 1.369 . S
C496 C498 1.419 . S
C496 H500 0.930 . S
C497 C496 1.369 . S
C497 C506 1.429 . S
C498 C496 1.419 . S
C498 C499 1.363 . S
C498 H501 0.929 . S
C499 C498 1.363 . S
C499 C505 1.428 . S
H500 C496 0.930 . S
H501 C498 0.929 . S
S502 N503 1.613 . S
S502 N504 1.610 . S
N503 S502 1.613 . S
N503 C506 1.350 . S
N504 S502 1.610 . S
N504 C505 1.351 . S
C505 C499 1.428 . S
C505 N504 1.351 . S
C505 C506 1.434 . S
C506 C497 1.429 . S
C506 N503 1.350 . S
C506 C505 1.434 . S
C507 C508 1.369 . S
C507 C509 1.419 . S
C507 H511 0.930 . S
C508 C507 1.369 . S
C508 C517 1.429 . S
C509 C507 1.419 . S
C509 C510 1.363 . S
C509 H512 0.929 . S
C510 C509 1.363 . S
C510 C516 1.428 . S
H511 C507 0.930 . S
H512 C509 0.929 . S
S513 N514 1.613 . S
S513 N515 1.610 . S
N514 S513 1.613 . S
N514 C517 1.350 . S
N515 S513 1.610 . S
N515 C516 1.351 . S
C516 C510 1.428 . S
C516 N515 1.351 . S
C516 C517 1.434 . S
C517 C508 1.429 . S
C517 N514 1.350 . S
C517 C516 1.434 . S
C518 C519 1.369 . S
C518 C520 1.419 . S
C518 H522 0.930 . S
C519 C518 1.369 . S
C519 C528 1.429 . S
C520 C518 1.419 . S
C520 C521 1.363 . S
C520 H523 0.929 . S
C521 C520 1.363 . S
C521 C527 1.428 . S
H522 C518 0.930 . S
H523 C520 0.929 . S
S524 N525 1.613 . S
S524 N526 1.610 1_556 S
N525 S524 1.613 . S
N525 C528 1.350 1_556 S
N526 S524 1.610 1_554 S
N526 C527 1.351 . S
C527 C521 1.428 . S
C527 N526 1.351 . S
C527 C528 1.434 . S
C528 C519 1.429 . S
C528 N525 1.350 1_554 S
C528 C527 1.434 . S
C529 C530 1.369 . S
C529 C531 1.419 . S
C529 H533 0.930 . S
C530 C529 1.369 . S
C530 C539 1.429 . S
C531 C529 1.419 . S
C531 C532 1.363 . S
C531 H534 0.929 . S
C532 C531 1.363 . S
C532 C538 1.428 . S
H533 C529 0.930 . S
H534 C531 0.929 . S
S535 N536 1.613 . S
S535 N537 1.610 . S
N536 S535 1.613 . S
N536 C539 1.350 . S
N537 S535 1.610 . S
N537 C538 1.351 . S
C538 C532 1.428 . S
C538 N537 1.351 . S
C538 C539 1.434 . S
C539 C530 1.429 . S
C539 N536 1.350 . S
C539 C538 1.434 . S
C540 C541 1.369 . S
C540 C542 1.419 . S
C540 H544 0.930 . S
C541 C540 1.369 . S
C541 C550 1.429 . S
C542 C540 1.419 . S
C542 C543 1.363 . S
C542 H545 0.929 . S
C543 C542 1.363 . S
C543 C549 1.428 . S
H544 C540 0.930 . S
H545 C542 0.929 . S
S546 N547 1.613 . S
S546 N548 1.610 . S
N547 S546 1.613 . S
N547 C550 1.350 . S
N548 S546 1.610 . S
N548 C549 1.351 . S
C549 C543 1.428 . S
C549 N548 1.351 . S
C549 C550 1.434 . S
C550 C541 1.429 . S
C550 N547 1.350 . S
C550 C549 1.434 . S
C551 C552 1.369 . S
C551 C553 1.419 . S
C551 H555 0.930 . S
C552 C551 1.369 . S
C552 C561 1.429 . S
C553 C551 1.419 . S
C553 C554 1.363 . S
C553 H556 0.929 . S
C554 C553 1.363 . S
C554 C560 1.428 . S
H555 C551 0.930 . S
H556 C553 0.929 . S
S557 N558 1.613 . S
S557 N559 1.610 . S
N558 S557 1.613 . S
N558 C561 1.350 . S
N559 S557 1.610 . S
N559 C560 1.351 . S
C560 C554 1.428 . S
C560 N559 1.351 . S
C560 C561 1.434 . S
C561 C552 1.429 . S
C561 N558 1.350 . S
C561 C560 1.434 . S
C562 C563 1.369 . S
C562 C564 1.419 . S
C562 H566 0.930 . S
C563 C562 1.369 . S
C563 C572 1.429 . S
C564 C562 1.419 . S
C564 C565 1.363 . S
C564 H567 0.929 . S
C565 C564 1.363 . S
C565 C571 1.428 . S
H566 C562 0.930 . S
H567 C564 0.929 . S
S568 N569 1.613 . S
S568 N570 1.610 . S
N569 S568 1.613 . S
N569 C572 1.350 . S
N570 S568 1.610 . S
N570 C571 1.351 . S
C571 C565 1.428 . S
C571 N570 1.351 . S
C571 C572 1.434 . S
C572 C563 1.429 . S
C572 N569 1.350 . S
C572 C571 1.434 . S
C573 C574 1.369 . S
C573 C575 1.419 . S
C573 H577 0.930 . S
C574 C573 1.369 . S
C574 C583 1.429 . S
C575 C573 1.419 . S
C575 C576 1.363 . S
C575 H578 0.929 . S
C576 C575 1.363 . S
C576 C582 1.428 . S
H577 C573 0.930 . S
H578 C575 0.929 . S
S579 N580 1.613 . S
S579 N581 1.610 . S
N580 S579 1.613 . S
N580 C583 1.350 . S
N581 S579 1.610 . S
N581 C582 1.351 . S
C582 C576 1.428 . S
C582 N581 1.351 . S
C582 C583 1.434 . S
C583 C574 1.429 . S
C583 N580 1.350 . S
C583 C582 1.434 . S
C584 C585 1.369 . S
C584 C586 1.419 . S
C584 H588 0.930 . S
C585 C584 1.369 . S
C585 C594 1.429 . S
C586 C584 1.419 . S
C586 C587 1.363 . S
C586 H589 0.929 . S
C587 C586 1.363 . S
C587 C593 1.428 . S
H588 C584 0.930 . S
H589 C586 0.929 . S
S590 N591 1.613 . S
S590 N592 1.610 . S
N591 S590 1.613 . S
N591 C594 1.350 . S
N592 S590 1.610 . S
N592 C593 1.351 . S
C593 C587 1.428 . S
C593 N592 1.351 . S
C593 C594 1.434 . S
C594 C585 1.429 . S
C594 N591 1.350 . S
C594 C593 1.434 . S
C595 C596 1.369 . S
C595 C597 1.419 . S
C595 H599 0.930 1_554 S
C596 C595 1.369 . S
C596 C605 1.429 . S
C597 C595 1.419 . S
C597 C598 1.363 . S
C597 H600 0.929 . S
C598 C597 1.363 . S
C598 C604 1.428 . S
H599 C595 0.930 1_556 S
H600 C597 0.929 . S
S601 N602 1.613 . S
S601 N603 1.610 . S
N602 S601 1.613 . S
N602 C605 1.350 . S
N603 S601 1.610 . S
N603 C604 1.351 . S
C604 C598 1.428 . S
C604 N603 1.351 . S
C604 C605 1.434 . S
C605 C596 1.429 . S
C605 N602 1.350 . S
C605 C604 1.434 . S
C606 C607 1.369 . S
C606 C608 1.419 . S
C606 H610 0.930 . S
C607 C606 1.369 . S
C607 C616 1.429 . S
C608 C606 1.419 . S
C608 C609 1.363 . S
C608 H611 0.929 . S
C609 C608 1.363 . S
C609 C615 1.428 . S
H610 C606 0.930 . S
H611 C608 0.929 . S
S612 N613 1.613 . S
S612 N614 1.610 1_554 S
N613 S612 1.613 . S
N613 C616 1.350 1_554 S
N614 S612 1.610 1_556 S
N614 C615 1.351 . S
C615 C609 1.428 . S
C615 N614 1.351 . S
C615 C616 1.434 . S
C616 C607 1.429 . S
C616 N613 1.350 1_556 S
C616 C615 1.434 . S
C617 C618 1.369 . S
C617 C619 1.419 . S
C617 H621 0.930 . S
C618 C617 1.369 . S
C618 C627 1.429 . S
C619 C617 1.419 . S
C619 C620 1.363 . S
C619 H622 0.929 . S
C620 C619 1.363 . S
C620 C626 1.428 . S
H621 C617 0.930 . S
H622 C619 0.929 . S
S623 N624 1.613 . S
S623 N625 1.610 . S
N624 S623 1.613 . S
N624 C627 1.350 . S
N625 S623 1.610 . S
N625 C626 1.351 . S
C626 C620 1.428 . S
C626 N625 1.351 . S
C626 C627 1.434 . S
C627 C618 1.429 . S
C627 N624 1.350 . S
C627 C626 1.434 . S
C628 C629 1.369 . S
C628 C630 1.419 . S
C628 H632 0.930 . S
C629 C628 1.369 . S
C629 C638 1.429 . S
C630 C628 1.419 . S
C630 C631 1.363 . S
C630 H633 0.929 . S
C631 C630 1.363 . S
C631 C637 1.428 . S
H632 C628 0.930 . S
H633 C630 0.929 . S
S634 N635 1.613 . S
S634 N636 1.610 . S
N635 S634 1.613 . S
N635 C638 1.350 . S
N636 S634 1.610 . S
N636 C637 1.351 . S
C637 C631 1.428 . S
C637 N636 1.351 . S
C637 C638 1.434 . S
C638 C629 1.429 . S
C638 N635 1.350 . S
C638 C637 1.434 . S
C639 C640 1.369 . S
C639 C641 1.419 . S
C639 H643 0.930 . S
C640 C639 1.369 . S
C640 C649 1.429 . S
C641 C639 1.419 . S
C641 C642 1.363 . S
C641 H644 0.929 . S
C642 C641 1.363 . S
C642 C648 1.428 . S
H643 C639 0.930 . S
H644 C641 0.929 . S
S645 N646 1.613 . S
S645 N647 1.610 . S
N646 S645 1.613 . S
N646 C649 1.350 . S
N647 S645 1.610 . S
N647 C648 1.351 . S
C648 C642 1.428 . S
C648 N647 1.351 . S
C648 C649 1.434 . S
C649 C640 1.429 . S
C649 N646 1.350 . S
C649 C648 1.434 . S
C650 C651 1.369 . S
C650 C652 1.419 . S
C650 H654 0.930 . S
C651 C650 1.369 . S
C651 C660 1.429 . S
C652 C650 1.419 . S
C652 C653 1.363 . S
C652 H655 0.929 . S
C653 C652 1.363 . S
C653 C659 1.428 . S
H654 C650 0.930 . S
H655 C652 0.929 . S
S656 N657 1.613 . S
S656 N658 1.610 . S
N657 S656 1.613 . S
N657 C660 1.350 . S
N658 S656 1.610 . S
N658 C659 1.351 . S
C659 C653 1.428 . S
C659 N658 1.351 . S
C659 C660 1.434 . S
C660 C651 1.429 . S
C660 N657 1.350 . S
C660 C659 1.434 . S
C661 C662 1.369 . S
C661 C663 1.419 . S
C661 H665 0.930 . S
C662 C661 1.369 . S
C662 C671 1.429 . S
C663 C661 1.419 . S
C663 C664 1.363 . S
C663 H666 0.929 . S
C664 C663 1.363 . S
C664 C670 1.428 . S
H665 C661 0.930 . S
H666 C663 0.929 . S
S667 N668 1.613 . S
S667 N669 1.610 . S
N668 S667 1.613 . S
N668 C671 1.350 . S
N669 S667 1.610 . S
N669 C670 1.351 . S
C670 C664 1.428 . S
C670 N669 1.351 . S
C670 C671 1.434 . S
C671 C662 1.429 . S
C671 N668 1.350 . S
C671 C670 1.434 . S
C672 C673 1.369 . S
C672 C674 1.419 . S
C672 H676 0.930 . S
C673 C672 1.369 . S
C673 C682 1.429 . S
C674 C672 1.419 . S
C674 C675 1.363 . S
C674 H677 0.929 . S
C675 C674 1.363 . S
C675 C681 1.428 . S
H676 C672 0.930 . S
H677 C674 0.929 . S
S678 N679 1.613 . S
S678 N680 1.610 . S
N679 S678 1.613 . S
N679 C682 1.350 . S
N680 S678 1.610 . S
N680 C681 1.351 . S
C681 C675 1.428 . S
C681 N680 1.351 . S
C681 C682 1.434 . S
C682 C673 1.429 . S
C682 N679 1.350 . S
C682 C681 1.434 . S
C683 C684 1.369 . S
C683 C685 1.419 . S
C683 H687 0.930 . S
C684 C683 1.369 . S
C684 C693 1.429 . S
C685 C683 1.419 . S
C685 C686 1.363 . S
C685 H688 0.929 . S
C686 C685 1.363 . S
C686 C692 1.428 . S
H687 C683 0.930 . S
H688 C685 0.929 . S
S689 N690 1.613 . S
S689 N691 1.610 . S
N690 S689 1.613 . S
N690 C693 1.350 . S
N691 S689 1.610 . S
N691 C692 1.351 . S
C692 C686 1.428 . S
C692 N691 1.351 . S
C692 C693 1.434 . S
C693 C684 1.429 . S
C693 N690 1.350 . S
C693 C692 1.434 . S
C694 C695 1.369 . S
C694 C696 1.419 . S
C694 H698 0.930 . S
C695 C694 1.369 . S
C695 C704 1.429 . S
C696 C694 1.419 . S
C696 C697 1.363 . S
C696 H699 0.929 . S
C697 C696 1.363 . S
C697 C703 1.428 . S
H698 C694 0.930 . S
H699 C696 0.929 . S
S700 N701 1.613 . S
S700 N702 1.610 . S
N701 S700 1.613 . S
N701 C704 1.350 . S
N702 S700 1.610 . S
N702 C703 1.351 . S
C703 C697 1.428 . S
C703 N702 1.351 . S
C703 C704 1.434 . S
C704 C695 1.429 . S
C704 N701 1.350 . S
C704 C703 1.434 . S
C705 C706 1.369 . S
C705 C707 1.419 . S
C705 H709 0.930 . S
C706 C705 1.369 . S
C706 C715 1.429 . S
C707 C705 1.419 . S
C707 C708 1.363 . S
C707 H710 0.929 . S
C708 C707 1.363 . S
C708 C714 1.428 . S
H709 C705 0.930 . S
H710 C707 0.929 . S
S711 N712 1.613 . S
S711 N713 1.610 . S
N712 S711 1.613 . S
N712 C715 1.350 . S
N713 S711 1.610 . S
N713 C714 1.351 . S
C714 C708 1.428 . S
C714 N713 1.351 . S
C714 C715 1.434 . S
C715 C706 1.429 . S
C715 N712 1.350 . S
C715 C714 1.434 . S
C716 C717 1.369 . S
C716 C718 1.419 . S
C716 H720 0.930 . S
C717 C716 1.369 . S
C717 C726 1.429 . S
C718 C716 1.419 . S
C718 C719 1.363 . S
C718 H721 0.929 . S
C719 C718 1.363 . S
C719 C725 1.428 . S
H720 C716 0.930 . S
H721 C718 0.929 . S
S722 N723 1.613 . S
S722 N724 1.610 . S
N723 S722 1.613 . S
N723 C726 1.350 . S
N724 S722 1.610 . S
N724 C725 1.351 . S
C725 C719 1.428 . S
C725 N724 1.351 . S
C725 C726 1.434 . S
C726 C717 1.429 . S
C726 N723 1.350 . S
C726 C725 1.434 . S
C727 C728 1.369 . S
C727 C729 1.419 . S
C727 H731 0.930 . S
C728 C727 1.369 . S
C728 C737 1.429 . S
C729 C727 1.419 . S
C729 C730 1.363 . S
C729 H732 0.929 . S
C730 C729 1.363 . S
C730 C736 1.428 . S
H731 C727 0.930 . S
H732 C729 0.929 . S
S733 N734 1.613 . S
S733 N735 1.610 . S
N734 S733 1.613 . S
N734 C737 1.350 . S
N735 S733 1.610 . S
N735 C736 1.351 . S
C736 C730 1.428 . S
C736 N735 1.351 . S
C736 C737 1.434 . S
C737 C728 1.429 . S
C737 N734 1.350 . S
C737 C736 1.434 . S
C738 C739 1.369 . S
C738 C740 1.419 . S
C738 H742 0.930 . S
C739 C738 1.369 . S
C739 C748 1.429 . S
C740 C738 1.419 . S
C740 C741 1.363 . S
C740 H743 0.929 . S
C741 C740 1.363 . S
C741 C747 1.428 . S
H742 C738 0.930 . S
H743 C740 0.929 . S
S744 N745 1.613 . S
S744 N746 1.610 . S
N745 S744 1.613 . S
N745 C748 1.350 . S
N746 S744 1.610 . S
N746 C747 1.351 . S
C747 C741 1.428 . S
C747 N746 1.351 . S
C747 C748 1.434 . S
C748 C739 1.429 . S
C748 N745 1.350 . S
C748 C747 1.434 . S
C749 C750 1.369 . S
C749 C751 1.419 . S
C749 H753 0.930 . S
C750 C749 1.369 . S
C750 C759 1.429 . S
C751 C749 1.419 . S
C751 C752 1.363 . S
C751 H754 0.929 . S
C752 C751 1.363 . S
C752 C758 1.428 . S
H753 C749 0.930 . S
H754 C751 0.929 . S
S755 N756 1.613 . S
S755 N757 1.610 . S
N756 S755 1.613 . S
N756 C759 1.350 . S
N757 S755 1.610 . S
N757 C758 1.351 . S
C758 C752 1.428 . S
C758 N757 1.351 . S
C758 C759 1.434 . S
C759 C750 1.429 . S
C759 N756 1.350 . S
C759 C758 1.434 . S
C760 C761 1.369 . S
C760 C762 1.419 . S
C760 H764 0.930 . S
C761 C760 1.369 . S
C761 C770 1.429 . S
C762 C760 1.419 . S
C762 C763 1.363 . S
C762 H765 0.929 . S
C763 C762 1.363 . S
C763 C769 1.428 . S
H764 C760 0.930 . S
H765 C762 0.929 . S
S766 N767 1.613 . S
S766 N768 1.610 . S
N767 S766 1.613 . S
N767 C770 1.350 . S
N768 S766 1.610 . S
N768 C769 1.351 . S
C769 C763 1.428 . S
C769 N768 1.351 . S
C769 C770 1.434 . S
C770 C761 1.429 . S
C770 N767 1.350 . S
C770 C769 1.434 . S
C771 C772 1.369 . S
C771 C773 1.419 . S
C771 H775 0.930 . S
C772 C771 1.369 . S
C772 C781 1.429 . S
C773 C771 1.419 . S
C773 C774 1.363 . S
C773 H776 0.929 . S
C774 C773 1.363 . S
C774 C780 1.428 . S
H775 C771 0.930 . S
H776 C773 0.929 . S
S777 N778 1.613 . S
S777 N779 1.610 . S
N778 S777 1.613 . S
N778 C781 1.350 . S
N779 S777 1.610 . S
N779 C780 1.351 . S
C780 C774 1.428 . S
C780 N779 1.351 . S
C780 C781 1.434 . S
C781 C772 1.429 . S
C781 N778 1.350 . S
C781 C780 1.434 . S
C782 C783 1.369 . S
C782 C784 1.419 . S
C782 H786 0.930 . S
C783 C782 1.369 . S
C783 C792 1.429 . S
C784 C782 1.419 . S
C784 C785 1.363 . S
C784 H787 0.929 . S
C785 C784 1.363 . S
C785 C791 1.428 . S
H786 C782 0.930 . S
H787 C784 0.929 . S
S788 N789 1.613 . S
S788 N790 1.610 . S
N789 S788 1.613 . S
N789 C792 1.350 . S
N790 S788 1.610 . S
N790 C791 1.351 . S
C791 C785 1.428 . S
C791 N790 1.351 . S
C791 C792 1.434 . S
C792 C783 1.429 . S
C792 N789 1.350 . S
C792 C791 1.434 . S
C793 C794 1.369 . S
C793 C795 1.419 . S
C793 H797 0.930 . S
C794 C793 1.369 . S
C794 C803 1.429 . S
C795 C793 1.419 . S
C795 C796 1.363 . S
C795 H798 0.929 . S
C796 C795 1.363 . S
C796 C802 1.428 . S
H797 C793 0.930 . S
H798 C795 0.929 . S
S799 N800 1.613 . S
S799 N801 1.610 . S
N800 S799 1.613 . S
N800 C803 1.350 . S
N801 S799 1.610 . S
N801 C802 1.351 . S
C802 C796 1.428 . S
C802 N801 1.351 . S
C802 C803 1.434 . S
C803 C794 1.429 . S
C803 N800 1.350 . S
C803 C802 1.434 . S
C804 C805 1.369 . S
C804 C806 1.419 . S
C804 H808 0.930 . S
C805 C804 1.369 . S
C805 C814 1.429 . S
C806 C804 1.419 . S
C806 C807 1.363 . S
C806 H809 0.929 . S
C807 C806 1.363 . S
C807 C813 1.428 . S
H808 C804 0.930 . S
H809 C806 0.929 . S
S810 N811 1.613 . S
S810 N812 1.610 . S
N811 S810 1.613 . S
N811 C814 1.350 . S
N812 S810 1.610 . S
N812 C813 1.351 . S
C813 C807 1.428 . S
C813 N812 1.351 . S
C813 C814 1.434 . S
C814 C805 1.429 . S
C814 N811 1.350 . S
C814 C813 1.434 . S
C815 C816 1.369 . S
C815 C817 1.419 . S
C815 H819 0.930 . S
C816 C815 1.369 . S
C816 C825 1.429 . S
C817 C815 1.419 . S
C817 C818 1.363 . S
C817 H820 0.929 . S
C818 C817 1.363 . S
C818 C824 1.428 . S
H819 C815 0.930 . S
H820 C817 0.929 . S
S821 N822 1.613 . S
S821 N823 1.610 . S
N822 S821 1.613 . S
N822 C825 1.350 . S
N823 S821 1.610 . S
N823 C824 1.351 . S
C824 C818 1.428 . S
C824 N823 1.351 . S
C824 C825 1.434 . S
C825 C816 1.429 . S
C825 N822 1.350 . S
C825 C824 1.434 . S
C826 C827 1.369 . S
C826 C828 1.419 . S
C826 H830 0.930 . S
C827 C826 1.369 . S
C827 C836 1.429 . S
C828 C826 1.419 . S
C828 C829 1.363 . S
C828 H831 0.929 . S
C829 C828 1.363 . S
C829 C835 1.428 . S
H830 C826 0.930 . S
H831 C828 0.929 . S
S832 N833 1.613 . S
S832 N834 1.610 . S
N833 S832 1.613 . S
N833 C836 1.350 . S
N834 S832 1.610 . S
N834 C835 1.351 . S
C835 C829 1.428 . S
C835 N834 1.351 . S
C835 C836 1.434 . S
C836 C827 1.429 . S
C836 N833 1.350 . S
C836 C835 1.434 . S
C837 C838 1.369 . S
C837 C839 1.419 . S
C837 H841 0.930 . S
C838 C837 1.369 . S
C838 C847 1.429 . S
C839 C837 1.419 . S
C839 C840 1.363 . S
C839 H842 0.929 . S
C840 C839 1.363 . S
C840 C846 1.428 . S
H841 C837 0.930 . S
H842 C839 0.929 . S
S843 N844 1.613 . S
S843 N845 1.610 . S
N844 S843 1.613 . S
N844 C847 1.350 . S
N845 S843 1.610 . S
N845 C846 1.351 . S
C846 C840 1.428 . S
C846 N845 1.351 . S
C846 C847 1.434 . S
C847 C838 1.429 . S
C847 N844 1.350 . S
C847 C846 1.434 . S
C321 C222 1.546 . S
C323 C19 1.561 . S
C332 C164 1.544 . S
C334 C38 1.561 . S
C343 C59 1.559 . S
C345 C182 1.548 . S
C354 C78 1.559 . S
C356 C204 1.543 . S
C365 C99 1.562 . S
C367 C102 1.547 . S
C376 C124 1.549 . S
C378 C118 1.560 . S
C387 C139 1.557 . S
C389 C142 1.543 . S
C398 C84 1.549 . S
C400 C158 1.560 . S
C409 C62 1.549 . S
C411 C179 1.560 . S
C420 C198 1.561 . S
C422 C4 1.544 . S
C431 C22 1.542 . S
C433 C219 1.560 . S
C442 C44 1.542 . S
C444 C238 1.558 . S
C453 C259 1.558 . S
C455 C262 1.543 . S
C464 C284 1.547 . S
C466 C278 1.557 . S
C475 C302 1.544 . S
C477 C299 1.557 . S
C486 C318 1.561 . S
C488 C244 1.544 . S
C497 C18 1.515 . S
C499 C98 1.519 . S
C508 C119 1.517 . S
C510 C39 1.522 . S
C519 C58 1.519 . S
C521 C138 1.516 . S
C530 C79 1.517 . S
C532 C159 1.517 . S
C541 C178 1.516 . S
C543 C258 1.522 . S
C552 C279 1.519 . S
C554 C199 1.516 . S
C563 C218 1.519 . S
C565 C298 1.521 . S
C574 C239 1.515 . S
C576 C319 1.522 . S
C585 C282 1.465 . S
C587 C2 1.463 . S
C596 C24 1.459 . S
C598 C304 1.471 . S
C607 C42 1.471 . S
C609 C242 1.460 . S
C618 C64 1.466 . S
C620 C264 1.464 . S
C629 C82 1.471 . S
C631 C202 1.460 . S
C640 C104 1.473 . S
C642 C224 1.460 . S
C651 C122 1.467 . S
C653 C162 1.467 . S
C662 C184 1.467 . S
C664 C144 1.463 . S
C673 C12 1.338 . S
C675 C9 1.337 . S
C684 C29 1.340 . S
C686 C32 1.335 . S
C695 C52 1.337 . S
C697 C49 1.337 . S
C706 C72 1.341 . S
C708 C69 1.335 . S
C717 C89 1.333 . S
C719 C92 1.341 . S
C728 C109 1.340 . S
C730 C112 1.336 . S
C739 C132 1.339 . S
C741 C129 1.336 . S
C750 C152 1.341 . S
C752 C149 1.335 . S
C761 C172 1.339 1_554 S
C763 C169 1.336 . S
C772 C192 1.333 . S
C774 C189 1.340 1_556 S
C783 C209 1.337 . S
C785 C212 1.337 1_554 S
C794 C229 1.333 1_556 S
C796 C232 1.341 . S
C805 C252 1.333 . S
C807 C249 1.340 1_554 S
C816 C272 1.336 1_556 S
C818 C269 1.339 . S
C827 C289 1.334 1_554 S
C829 C292 1.340 . S
C838 C309 1.340 . S
C840 C312 1.335 1_556 S
