# Generated by pormake.
# Topology unu, (4)-cn, num edge types: 1
# Building blocks:
#     Node 0, Type 0, BuildingBlock: KUFVIS_clean_sbu_0, # of connection points: 4
#     Node 1, Type 0, BuildingBlock: KUFVIS_clean_sbu_0, # of connection points: 4
#     Node 2, Type 0, BuildingBlock: KUFVIS_clean_sbu_0, # of connection points: 4
#     Node 3, Type 0, BuildingBlock: KUFVIS_clean_sbu_0, # of connection points: 4
#     Node 4, Type 0, BuildingBlock: KUFVIS_clean_sbu_0, # of connection points: 4
#     Node 5, Type 0, BuildingBlock: KUFVIS_clean_sbu_0, # of connection points: 4
#     Node 6, Type 0, BuildingBlock: KUFVIS_clean_sbu_0, # of connection points: 4
#     Node 7, Type 0, BuildingBlock: KUFVIS_clean_sbu_0, # of connection points: 4
#     Node 8, Type 0, BuildingBlock: KUFVIS_clean_sbu_0, # of connection points: 4
#     Node 9, Type 0, BuildingBlock: KUFVIS_clean_sbu_0, # of connection points: 4
#     Node 10, Type 0, BuildingBlock: KUFVIS_clean_sbu_0, # of connection points: 4
#     Node 11, Type 0, BuildingBlock: KUFVIS_clean_sbu_0, # of connection points: 4
#     Node 12, Type 0, BuildingBlock: KUFVIS_clean_sbu_0, # of connection points: 4
#     Node 13, Type 0, BuildingBlock: KUFVIS_clean_sbu_0, # of connection points: 4
#     Node 14, Type 0, BuildingBlock: KUFVIS_clean_sbu_0, # of connection points: 4
#     Node 15, Type 0, BuildingBlock: KUFVIS_clean_sbu_0, # of connection points: 4
#     Node 16, Type 0, BuildingBlock: KUFVIS_clean_sbu_0, # of connection points: 4
#     Node 17, Type 0, BuildingBlock: KUFVIS_clean_sbu_0, # of connection points: 4
#     Node 18, Type 0, BuildingBlock: KUFVIS_clean_sbu_0, # of connection points: 4
#     Node 19, Type 0, BuildingBlock: KUFVIS_clean_sbu_0, # of connection points: 4
#     Node 20, Type 0, BuildingBlock: KUFVIS_clean_sbu_0, # of connection points: 4
#     Node 21, Type 0, BuildingBlock: KUFVIS_clean_sbu_0, # of connection points: 4
#     Node 22, Type 0, BuildingBlock: KUFVIS_clean_sbu_0, # of connection points: 4
#     Node 23, Type 0, BuildingBlock: KUFVIS_clean_sbu_0, # of connection points: 4
#     Node 24, Type 0, BuildingBlock: KUFVIS_clean_sbu_0, # of connection points: 4
#     Node 25, Type 0, BuildingBlock: KUFVIS_clean_sbu_0, # of connection points: 4
#     Node 26, Type 0, BuildingBlock: KUFVIS_clean_sbu_0, # of connection points: 4
#     Node 27, Type 0, BuildingBlock: KUFVIS_clean_sbu_0, # of connection points: 4
#     Node 28, Type 0, BuildingBlock: KUFVIS_clean_sbu_0, # of connection points: 4
#     Node 29, Type 0, BuildingBlock: KUFVIS_clean_sbu_0, # of connection points: 4
#     Node 30, Type 0, BuildingBlock: KUFVIS_clean_sbu_0, # of connection points: 4
#     Node 31, Type 0, BuildingBlock: KUFVIS_clean_sbu_0, # of connection points: 4
#     Node 32, Type 0, BuildingBlock: KUFVIS_clean_sbu_0, # of connection points: 4
#     Node 33, Type 0, BuildingBlock: KUFVIS_clean_sbu_0, # of connection points: 4
#     Node 34, Type 0, BuildingBlock: KUFVIS_clean_sbu_0, # of connection points: 4
#     Node 35, Type 0, BuildingBlock: KUFVIS_clean_sbu_0, # of connection points: 4
#     Edge 36, Type (0, 0), BuildingBlock: OJICUG_clean_linker_0, # of connection points: 2
#     Edge 37, Type (0, 0), BuildingBlock: OJICUG_clean_linker_0, # of connection points: 2
#     Edge 38, Type (0, 0), BuildingBlock: OJICUG_clean_linker_0, # of connection points: 2
#     Edge 39, Type (0, 0), BuildingBlock: OJICUG_clean_linker_0, # of connection points: 2
#     Edge 40, Type (0, 0), BuildingBlock: OJICUG_clean_linker_0, # of connection points: 2
#     Edge 41, Type (0, 0), BuildingBlock: OJICUG_clean_linker_0, # of connection points: 2
#     Edge 42, Type (0, 0), BuildingBlock: OJICUG_clean_linker_0, # of connection points: 2
#     Edge 43, Type (0, 0), BuildingBlock: OJICUG_clean_linker_0, # of connection points: 2
#     Edge 44, Type (0, 0), BuildingBlock: OJICUG_clean_linker_0, # of connection points: 2
#     Edge 45, Type (0, 0), BuildingBlock: OJICUG_clean_linker_0, # of connection points: 2
#     Edge 46, Type (0, 0), BuildingBlock: OJICUG_clean_linker_0, # of connection points: 2
#     Edge 47, Type (0, 0), BuildingBlock: OJICUG_clean_linker_0, # of connection points: 2
#     Edge 48, Type (0, 0), BuildingBlock: OJICUG_clean_linker_0, # of connection points: 2
#     Edge 49, Type (0, 0), BuildingBlock: OJICUG_clean_linker_0, # of connection points: 2
#     Edge 50, Type (0, 0), BuildingBlock: OJICUG_clean_linker_0, # of connection points: 2
#     Edge 51, Type (0, 0), BuildingBlock: OJICUG_clean_linker_0, # of connection points: 2
#     Edge 52, Type (0, 0), BuildingBlock: OJICUG_clean_linker_0, # of connection points: 2
#     Edge 53, Type (0, 0), BuildingBlock: OJICUG_clean_linker_0, # of connection points: 2
#     Edge 54, Type (0, 0), BuildingBlock: OJICUG_clean_linker_0, # of connection points: 2
#     Edge 55, Type (0, 0), BuildingBlock: OJICUG_clean_linker_0, # of connection points: 2
#     Edge 56, Type (0, 0), BuildingBlock: OJICUG_clean_linker_0, # of connection points: 2
#     Edge 57, Type (0, 0), BuildingBlock: OJICUG_clean_linker_0, # of connection points: 2
#     Edge 58, Type (0, 0), BuildingBlock: OJICUG_clean_linker_0, # of connection points: 2
#     Edge 59, Type (0, 0), BuildingBlock: OJICUG_clean_linker_0, # of connection points: 2
#     Edge 60, Type (0, 0), BuildingBlock: OJICUG_clean_linker_0, # of connection points: 2
#     Edge 61, Type (0, 0), BuildingBlock: OJICUG_clean_linker_0, # of connection points: 2
#     Edge 62, Type (0, 0), BuildingBlock: OJICUG_clean_linker_0, # of connection points: 2
#     Edge 63, Type (0, 0), BuildingBlock: OJICUG_clean_linker_0, # of connection points: 2
#     Edge 64, Type (0, 0), BuildingBlock: OJICUG_clean_linker_0, # of connection points: 2
#     Edge 65, Type (0, 0), BuildingBlock: OJICUG_clean_linker_0, # of connection points: 2
#     Edge 66, Type (0, 0), BuildingBlock: OJICUG_clean_linker_0, # of connection points: 2
#     Edge 67, Type (0, 0), BuildingBlock: OJICUG_clean_linker_0, # of connection points: 2
#     Edge 68, Type (0, 0), BuildingBlock: OJICUG_clean_linker_0, # of connection points: 2
#     Edge 69, Type (0, 0), BuildingBlock: OJICUG_clean_linker_0, # of connection points: 2
#     Edge 70, Type (0, 0), BuildingBlock: OJICUG_clean_linker_0, # of connection points: 2
#     Edge 71, Type (0, 0), BuildingBlock: OJICUG_clean_linker_0, # of connection points: 2
#     Edge 72, Type (0, 0), BuildingBlock: OJICUG_clean_linker_0, # of connection points: 2
#     Edge 73, Type (0, 0), BuildingBlock: OJICUG_clean_linker_0, # of connection points: 2
#     Edge 74, Type (0, 0), BuildingBlock: OJICUG_clean_linker_0, # of connection points: 2
#     Edge 75, Type (0, 0), BuildingBlock: OJICUG_clean_linker_0, # of connection points: 2
#     Edge 76, Type (0, 0), BuildingBlock: OJICUG_clean_linker_0, # of connection points: 2
#     Edge 77, Type (0, 0), BuildingBlock: OJICUG_clean_linker_0, # of connection points: 2
#     Edge 78, Type (0, 0), BuildingBlock: OJICUG_clean_linker_0, # of connection points: 2
#     Edge 79, Type (0, 0), BuildingBlock: OJICUG_clean_linker_0, # of connection points: 2
#     Edge 80, Type (0, 0), BuildingBlock: OJICUG_clean_linker_0, # of connection points: 2
#     Edge 81, Type (0, 0), BuildingBlock: OJICUG_clean_linker_0, # of connection points: 2
#     Edge 82, Type (0, 0), BuildingBlock: OJICUG_clean_linker_0, # of connection points: 2
#     Edge 83, Type (0, 0), BuildingBlock: OJICUG_clean_linker_0, # of connection points: 2
#     Edge 84, Type (0, 0), BuildingBlock: OJICUG_clean_linker_0, # of connection points: 2
#     Edge 85, Type (0, 0), BuildingBlock: OJICUG_clean_linker_0, # of connection points: 2
#     Edge 86, Type (0, 0), BuildingBlock: OJICUG_clean_linker_0, # of connection points: 2
#     Edge 87, Type (0, 0), BuildingBlock: OJICUG_clean_linker_0, # of connection points: 2
#     Edge 88, Type (0, 0), BuildingBlock: OJICUG_clean_linker_0, # of connection points: 2
#     Edge 89, Type (0, 0), BuildingBlock: OJICUG_clean_linker_0, # of connection points: 2
#     Edge 90, Type (0, 0), BuildingBlock: OJICUG_clean_linker_0, # of connection points: 2
#     Edge 91, Type (0, 0), BuildingBlock: OJICUG_clean_linker_0, # of connection points: 2
#     Edge 92, Type (0, 0), BuildingBlock: OJICUG_clean_linker_0, # of connection points: 2
#     Edge 93, Type (0, 0), BuildingBlock: OJICUG_clean_linker_0, # of connection points: 2
#     Edge 94, Type (0, 0), BuildingBlock: OJICUG_clean_linker_0, # of connection points: 2
#     Edge 95, Type (0, 0), BuildingBlock: OJICUG_clean_linker_0, # of connection points: 2
#     Edge 96, Type (0, 0), BuildingBlock: OJICUG_clean_linker_0, # of connection points: 2
#     Edge 97, Type (0, 0), BuildingBlock: OJICUG_clean_linker_0, # of connection points: 2
#     Edge 98, Type (0, 0), BuildingBlock: OJICUG_clean_linker_0, # of connection points: 2
#     Edge 99, Type (0, 0), BuildingBlock: OJICUG_clean_linker_0, # of connection points: 2
#     Edge 100, Type (0, 0), BuildingBlock: OJICUG_clean_linker_0, # of connection points: 2
#     Edge 101, Type (0, 0), BuildingBlock: OJICUG_clean_linker_0, # of connection points: 2
#     Edge 102, Type (0, 0), BuildingBlock: OJICUG_clean_linker_0, # of connection points: 2
#     Edge 103, Type (0, 0), BuildingBlock: OJICUG_clean_linker_0, # of connection points: 2
#     Edge 104, Type (0, 0), BuildingBlock: OJICUG_clean_linker_0, # of connection points: 2
#     Edge 105, Type (0, 0), BuildingBlock: OJICUG_clean_linker_0, # of connection points: 2
#     Edge 106, Type (0, 0), BuildingBlock: OJICUG_clean_linker_0, # of connection points: 2
#     Edge 107, Type (0, 0), BuildingBlock: OJICUG_clean_linker_0, # of connection points: 2
# Relax obj value: 0.202
# Max RMSD: 0.240
# Mean RMSD: 0.240
data_MOF--net-unu--node1-KUFVIS_clean_sbu_0--edge1-OJICUG_clean_linker_0
_symmetry_space_group_name_H-M    P1
_symmetry_Int_Tables_number       1
_symmetry_cell_setting            triclinic
loop_
_symmetry_equiv_pos_as_xyz
'x, y, z'
_cell_length_a     30.923589
_cell_length_b     30.913839
_cell_length_c     81.306066
_cell_angle_alpha  89.98686
_cell_angle_beta   90.00316
_cell_angle_gamma 120.01824
loop_
_atom_site_label
_atom_site_type_symbol
_atom_site_fract_x
_atom_site_fract_y
_atom_site_fract_z
_atom_type_partial_charge
Mn0 Mn 0.20398 0.05177 0.11417 0.0
Mn1 Mn 0.22156 0.97179 0.13701 0.0
C2 C 0.14607 0.96768 0.11274 0.0
C3 C 0.17318 0.10672 0.11512 0.0
C4 C 0.27853 0.01917 0.10539 0.0
O5 O 0.25779 0.09598 0.12998 0.0
O6 O 0.25891 0.03981 0.14726 0.0
C7 C 0.16971 0.97167 0.16762 0.0
N8 N 0.17446 0.94644 0.15466 0.0
C9 C 0.10495 0.86887 0.16403 0.0
C10 C 0.09955 0.89398 0.17753 0.0
C11 C 0.13206 0.9456 0.17933 0.0
C12 C 0.1436 0.89669 0.15287 0.0
H13 H 0.19431 0.01144 0.16897 0.0
C14 C 0.27224 0.08488 0.1431 0.0
O15 O 0.20591 0.11226 0.10399 0.0
O16 O 0.15818 0.06921 0.12497 0.0
N17 N 0.18644 0.90515 0.12845 0.0
C18 C 0.1942 0.88727 0.1141 0.0
C19 C 0.16337 0.83667 0.11007 0.0
C20 C 0.12489 0.80499 0.12082 0.0
C21 C 0.11761 0.8242 0.13552 0.0
C22 C 0.14981 0.87486 0.13896 0.0
H23 H 0.22342 0.91145 0.10571 0.0
O24 O 0.14805 0.99805 0.10136 0.0
O25 O 0.17761 0.98835 0.12479 0.0
O26 O 0.25471 0.04135 0.10107 0.0
O27 O 0.2705 0.99495 0.11887 0.0
C28 C 0.07897 0.79533 0.14672 0.0
C29 C 0.07268 0.81763 0.16096 0.0
H30 H 0.07021 0.87411 0.18649 0.0
H31 H 0.12792 0.9653 0.18966 0.0
H32 H 0.1691 0.82217 0.09867 0.0
H33 H 0.10089 0.76608 0.11759 0.0
H34 H 0.05347 0.75607 0.14437 0.0
H35 H 0.0424 0.79519 0.16936 0.0
Mn36 Mn 0.95309 0.14978 0.11606 0.0
Mn37 Mn 0.03114 0.24429 0.14068 0.0
C38 C 0.03714 0.17585 0.1158 0.0
C39 C 0.89848 0.06376 0.11489 0.0
C40 C 0.9955 0.25969 0.10739 0.0
O41 O 0.90601 0.1563 0.1314 0.0
O42 O 0.96025 0.21882 0.14752 0.0
C43 C 0.01003 0.18433 0.17117 0.0
N44 N 0.04326 0.21512 0.15967 0.0
C45 C 0.11037 0.20982 0.17271 0.0
C46 C 0.07692 0.17841 0.18474 0.0
C47 C 0.02653 0.16562 0.18396 0.0
C48 C 0.09183 0.2276 0.16031 0.0
H49 H 0.97112 0.17383 0.17058 0.0
C50 C 0.91575 0.18537 0.14355 0.0
O51 O 0.89482 0.09317 0.10419 0.0
O52 O 0.93358 0.08442 0.12567 0.0
N53 N 0.10093 0.27183 0.13618 0.0
C54 C 0.12932 0.30563 0.12447 0.0
C55 C 0.18048 0.32172 0.12338 0.0
C56 C 0.20241 0.30444 0.1348 0.0
C57 C 0.17322 0.27244 0.14749 0.0
C58 C 0.12235 0.25762 0.14788 0.0
H59 H 0.11337 0.32141 0.11642 0.0
O60 O 0.00834 0.1496 0.10381 0.0
O61 O 0.01509 0.1845 0.12799 0.0
O62 O 0.96671 0.21357 0.10376 0.0
O63 O 0.02102 0.27511 0.12073 0.0
C64 C 0.19267 0.25499 0.15984 0.0
C65 C 0.16124 0.22363 0.17243 0.0
H66 H 0.08943 0.16365 0.19458 0.0
H67 H 0.00041 0.14116 0.19315 0.0
H68 H 0.2031 0.348 0.11392 0.0
H69 H 0.24192 0.31699 0.13397 0.0
H70 H 0.23177 0.26557 0.15979 0.0
H71 H 0.17659 0.21033 0.18183 0.0
Mn72 Mn 0.85497 0.79824 0.1137 0.0
Mn73 Mn 0.75776 0.7834 0.13631 0.0
C74 C 0.83039 0.85741 0.11204 0.0
C75 C 0.94081 0.82843 0.11411 0.0
C76 C 0.7471 0.72503 0.10497 0.0
O77 O 0.8446 0.74484 0.12995 0.0
O78 O 0.78667 0.74478 0.14671 0.0
C79 C 0.80948 0.83465 0.167 0.0
N80 N 0.78008 0.83059 0.15394 0.0
C81 C 0.77331 0.90089 0.16322 0.0
C82 C 0.80326 0.90562 0.17683 0.0
C83 C 0.82141 0.87236 0.17871 0.0
C84 C 0.76205 0.86214 0.15207 0.0
H85 H 0.82387 0.80943 0.16843 0.0
C86 C 0.81807 0.73071 0.14291 0.0
O87 O 0.91257 0.79498 0.10333 0.0
O88 O 0.91917 0.84395 0.12414 0.0
N89 N 0.72783 0.81979 0.12757 0.0
C90 C 0.70277 0.81263 0.11312 0.0
C91 C 0.68402 0.84425 0.10899 0.0
C92 C 0.69126 0.8829 0.11973 0.0
C93 C 0.71717 0.88955 0.13452 0.0
C94 C 0.73459 0.85657 0.13806 0.0
H95 H 0.6974 0.78327 0.10475 0.0
O96 O 0.85795 0.85418 0.10063 0.0
O97 O 0.81901 0.8261 0.12419 0.0
O98 O 0.7932 0.7476 0.10077 0.0
O99 O 0.73116 0.73431 0.11827 0.0
C100 C 0.72734 0.9283 0.14572 0.0
C101 C 0.75534 0.93393 0.16006 0.0
H102 H 0.81302 0.935 0.18579 0.0
H103 H 0.84479 0.87596 0.18913 0.0
H104 H 0.66424 0.83899 0.09751 0.0
H105 H 0.67714 0.9075 0.11642 0.0
H106 H 0.71439 0.9544 0.1433 0.0
H107 H 0.76353 0.96431 0.16845 0.0
Mn108 Mn 0.05432 0.20194 0.38319 0.0
Mn109 Mn 0.97298 0.2179 0.3604 0.0
C110 C 0.97034 0.14367 0.3848 0.0
C111 C 0.10907 0.1707 0.38298 0.0
C112 C 0.02059 0.27598 0.39179 0.0
O113 O 0.09803 0.25501 0.36697 0.0
O114 O 0.04077 0.25611 0.35016 0.0
C115 C 0.97363 0.16641 0.3298 0.0
N116 N 0.94817 0.17071 0.34277 0.0
C117 C 0.87107 0.10057 0.33342 0.0
C118 C 0.89642 0.09561 0.3199 0.0
C119 C 0.94792 0.12867 0.31809 0.0
C120 C 0.89852 0.13934 0.34457 0.0
H121 H 0.0133 0.19147 0.32844 0.0
C122 C 0.08607 0.26958 0.35402 0.0
O123 O 0.11465 0.20442 0.39371 0.0
O124 O 0.0721 0.15557 0.37289 0.0
N125 N 0.90643 0.18195 0.369 0.0
C126 C 0.88835 0.18937 0.38336 0.0
C127 C 0.83786 0.15801 0.3874 0.0
C128 C 0.80651 0.11935 0.37666 0.0
C129 C 0.82594 0.11243 0.36194 0.0
C130 C 0.87646 0.14516 0.35849 0.0
H131 H 0.91231 0.21874 0.39174 0.0
O132 O 0.00083 0.1465 0.39626 0.0
O133 O 0.9907 0.17475 0.37262 0.0
O134 O 0.04383 0.25314 0.39601 0.0
O135 O 0.99548 0.26691 0.37848 0.0
C136 C 0.79742 0.07365 0.35075 0.0
C137 C 0.81995 0.06775 0.33649 0.0
H138 H 0.87684 0.0662 0.31094 0.0
H139 H 0.96779 0.12489 0.30775 0.0
H140 H 0.8232 0.16346 0.39882 0.0
H141 H 0.76769 0.09493 0.3799 0.0
H142 H 0.75827 0.04772 0.35311 0.0
H143 H 0.79779 0.03736 0.3281 0.0
Mn144 Mn 0.79856 0.85203 0.38316 0.0
Mn145 Mn 0.78256 0.75513 0.36016 0.0
C146 C 0.85618 0.82558 0.38496 0.0
C147 C 0.83035 0.9381 0.38317 0.0
C148 C 0.72361 0.74416 0.3914 0.0
O149 O 0.74658 0.84384 0.36666 0.0
O150 O 0.74564 0.78588 0.34971 0.0
C151 C 0.83579 0.80781 0.32983 0.0
N152 N 0.83054 0.77754 0.34276 0.0
C153 C 0.90053 0.76991 0.33372 0.0
C154 C 0.90647 0.80072 0.32024 0.0
C155 C 0.87396 0.81975 0.3183 0.0
C156 C 0.86136 0.75869 0.34469 0.0
H157 H 0.81118 0.8229 0.32836 0.0
C158 C 0.7328 0.81822 0.35351 0.0
O159 O 0.79613 0.90982 0.39375 0.0
O160 O 0.84574 0.91636 0.37313 0.0
N161 N 0.81748 0.72362 0.3689 0.0
C162 C 0.80922 0.69774 0.38323 0.0
C163 C 0.84001 0.67806 0.38741 0.0
C164 C 0.87897 0.68521 0.37684 0.0
C165 C 0.88678 0.71198 0.36217 0.0
C166 C 0.8546 0.73033 0.35857 0.0
H167 H 0.77964 0.69244 0.39148 0.0
O168 O 0.85309 0.85299 0.39645 0.0
O169 O 0.82568 0.81549 0.37263 0.0
O170 O 0.74659 0.79015 0.39573 0.0
O171 O 0.73267 0.72839 0.37802 0.0
C172 C 0.92593 0.72212 0.35116 0.0
C173 C 0.93277 0.75101 0.33694 0.0
H174 H 0.93621 0.81049 0.31142 0.0
H175 H 0.8785 0.84381 0.30798 0.0
H176 H 0.83388 0.65765 0.3988 0.0
H177 H 0.90293 0.67038 0.38019 0.0
H178 H 0.95143 0.70846 0.35362 0.0
H179 H 0.96343 0.75915 0.32869 0.0
Mn180 Mn 0.14783 0.94632 0.38371 0.0
Mn181 Mn 0.24433 0.02589 0.36029 0.0
C182 C 0.1743 0.03056 0.38488 0.0
C183 C 0.06181 0.89198 0.3838 0.0
C184 C 0.25578 0.97966 0.39187 0.0
O185 O 0.15593 0.9014 0.36769 0.0
O186 O 0.21371 0.95746 0.35046 0.0
C187 C 0.19095 0.02392 0.32983 0.0
N188 N 0.22145 0.04999 0.34259 0.0
C189 C 0.22876 0.12685 0.3328 0.0
C190 C 0.19771 0.10088 0.31949 0.0
C191 C 0.17872 0.04919 0.31801 0.0
C192 C 0.24024 0.09981 0.34408 0.0
H193 H 0.17593 0.98411 0.32872 0.0
C194 C 0.18176 0.91245 0.35461 0.0
O195 O 0.09004 0.88666 0.39456 0.0
O196 O 0.08356 0.92864 0.37359 0.0
N197 N 0.27586 0.09297 0.36845 0.0
C198 C 0.3021 0.11175 0.38265 0.0
C199 C 0.32187 0.16254 0.38637 0.0
C200 C 0.31443 0.19349 0.37548 0.0
C201 C 0.28731 0.17335 0.36094 0.0
C202 C 0.26888 0.12253 0.35781 0.0
H203 H 0.30763 0.08811 0.39115 0.0
O204 O 0.14698 0.00073 0.39654 0.0
O205 O 0.18423 0.00939 0.37276 0.0
O206 O 0.20988 0.95692 0.39631 0.0
O207 O 0.27137 0.00408 0.3784 0.0
C208 C 0.2769 0.20145 0.34961 0.0
C209 C 0.2477 0.17824 0.33555 0.0
H210 H 0.18774 0.12013 0.31045 0.0
H211 H 0.15449 0.02883 0.30783 0.0
H212 H 0.34257 0.17776 0.39766 0.0
H213 H 0.32935 0.23256 0.37847 0.0
H214 H 0.29062 0.24082 0.35171 0.0
H215 H 0.23939 0.2001 0.32705 0.0
Mn216 Mn 0.79625 0.94872 0.8809 0.0
Mn217 Mn 0.77972 0.03002 0.85838 0.0
C218 C 0.85443 0.03264 0.88266 0.0
C219 C 0.82709 0.89368 0.87995 0.0
C220 C 0.72221 0.98203 0.88985 0.0
O221 O 0.7427 0.9053 0.86487 0.0
O222 O 0.74175 0.96232 0.84794 0.0
C223 C 0.83149 0.03028 0.82773 0.0
N224 N 0.82695 0.05541 0.84076 0.0
C225 C 0.89708 0.13282 0.8316 0.0
C226 C 0.90226 0.10783 0.81801 0.0
C227 C 0.86933 0.05634 0.81608 0.0
C228 C 0.85822 0.10503 0.84269 0.0
H229 H 0.80657 0.99061 0.82628 0.0
C230 C 0.72818 0.91704 0.85188 0.0
O231 O 0.79396 0.8879 0.89096 0.0
O232 O 0.84218 0.93125 0.87012 0.0
N233 N 0.81536 0.09642 0.86711 0.0
C234 C 0.80775 0.11413 0.88153 0.0
C235 C 0.83897 0.16456 0.88569 0.0
C236 C 0.87769 0.19624 0.87501 0.0
C237 C 0.8848 0.17719 0.86025 0.0
C238 C 0.85221 0.12672 0.85667 0.0
H239 H 0.77835 0.08994 0.88986 0.0
O240 O 0.85199 0.00181 0.89393 0.0
O241 O 0.82317 0.01254 0.8705 0.0
O242 O 0.74546 0.95911 0.89402 0.0
O243 O 0.73072 0.00688 0.87649 0.0
C244 C 0.92366 0.20605 0.84912 0.0
C245 C 0.92976 0.1839 0.8348 0.0
H246 H 0.93174 0.12768 0.8091 0.0
H247 H 0.8733 0.03674 0.80569 0.0
H248 H 0.83336 0.17892 0.89714 0.0
H249 H 0.90199 0.235 0.87835 0.0
H250 H 0.94948 0.24517 0.85157 0.0
H251 H 0.9602 0.20631 0.82646 0.0
Mn252 Mn 0.04892 0.8515 0.8807 0.0
Mn253 Mn 0.9707 0.75609 0.85642 0.0
C254 C 0.96507 0.82657 0.88049 0.0
C255 C 0.10421 0.93747 0.88152 0.0
C256 C 0.0047 0.74183 0.89014 0.0
O257 O 0.09615 0.84326 0.8659 0.0
O258 O 0.04167 0.77992 0.85009 0.0
C259 C 0.99417 0.81452 0.82551 0.0
N260 N 0.96014 0.78472 0.837 0.0
C261 C 0.8944 0.79057 0.82317 0.0
C262 C 0.92868 0.82098 0.81115 0.0
C263 C 0.97878 0.833 0.81234 0.0
C264 C 0.91185 0.77299 0.83597 0.0
H265 H 0.03287 0.82442 0.82641 0.0
C266 C 0.0863 0.81297 0.8541 0.0
O267 O 0.1071 0.90837 0.89253 0.0
O268 O 0.06962 0.91653 0.87058 0.0
N269 N 0.90089 0.72995 0.8605 0.0
C270 C 0.87167 0.69736 0.87236 0.0
C271 C 0.82066 0.68216 0.87308 0.0
C272 C 0.79975 0.69915 0.86118 0.0
C273 C 0.82981 0.73001 0.84841 0.0
C274 C 0.88047 0.74395 0.84839 0.0
H275 H 0.88687 0.68192 0.88085 0.0
O276 O 0.99367 0.85329 0.89244 0.0
O277 O 0.9872 0.81683 0.86859 0.0
O278 O 0.03397 0.78805 0.89354 0.0
O279 O 0.97932 0.72596 0.87679 0.0
C280 C 0.81145 0.74725 0.83566 0.0
C281 C 0.84374 0.77758 0.82306 0.0
H282 H 0.91703 0.83555 0.80102 0.0
H283 H 0.00555 0.85668 0.80316 0.0
H284 H 0.79739 0.65683 0.88265 0.0
H285 H 0.76037 0.68733 0.86174 0.0
H286 H 0.77253 0.73733 0.83541 0.0
H287 H 0.82923 0.79074 0.81334 0.0
Mn288 Mn 0.1457 0.20216 0.88251 0.0
Mn289 Mn 0.24318 0.21797 0.85986 0.0
C290 C 0.17082 0.14343 0.88411 0.0
C291 C 0.05982 0.17163 0.88203 0.0
C292 C 0.2534 0.27577 0.8913 0.0
O293 O 0.1558 0.25567 0.86637 0.0
O294 O 0.21395 0.25644 0.84955 0.0
C295 C 0.1916 0.16692 0.82913 0.0
N296 N 0.22112 0.17104 0.84216 0.0
C297 C 0.22852 0.10124 0.83271 0.0
C298 C 0.19847 0.09648 0.81913 0.0
C299 C 0.17993 0.12946 0.81735 0.0
C300 C 0.23949 0.13975 0.84393 0.0
H301 H 0.17693 0.19192 0.82778 0.0
C302 C 0.18236 0.27019 0.85342 0.0
O303 O 0.08784 0.20495 0.89288 0.0
O304 O 0.08168 0.15634 0.872 0.0
N305 N 0.27349 0.18181 0.8685 0.0
C306 C 0.29857 0.18891 0.88294 0.0
C307 C 0.31766 0.15752 0.88698 0.0
C308 C 0.31074 0.11916 0.87616 0.0
C309 C 0.2848 0.11256 0.86137 0.0
C310 C 0.26703 0.1453 0.85793 0.0
H311 H 0.3037 0.21806 0.89137 0.0
O312 O 0.14303 0.14629 0.89551 0.0
O313 O 0.18202 0.17478 0.87197 0.0
O314 O 0.20729 0.2529 0.89549 0.0
O315 O 0.26948 0.2668 0.87798 0.0
C316 C 0.27493 0.07408 0.8501 0.0
C317 C 0.24686 0.06846 0.83577 0.0
H318 H 0.18891 0.06728 0.81011 0.0
H319 H 0.15646 0.12581 0.80696 0.0
H320 H 0.33746 0.16273 0.89845 0.0
H321 H 0.32512 0.09473 0.87939 0.0
H322 H 0.28817 0.04817 0.85244 0.0
H323 H 0.2389 0.03828 0.82732 0.0
Mn324 Mn 0.94737 0.79855 0.61366 0.0
Mn325 Mn 0.02839 0.78271 0.63666 0.0
C326 C 0.03133 0.85703 0.61223 0.0
C327 C 0.89241 0.82957 0.61384 0.0
C328 C 0.98138 0.72463 0.60522 0.0
O329 O 0.90347 0.74529 0.6298 0.0
O330 O 0.96042 0.74439 0.64681 0.0
C331 C 0.02719 0.83418 0.6672 0.0
N332 N 0.05289 0.8299 0.6543 0.0
C333 C 0.12978 0.90016 0.66373 0.0
C334 C 0.10419 0.90509 0.67718 0.0
C335 C 0.05269 0.87196 0.67892 0.0
C336 C 0.10254 0.86135 0.65257 0.0
H337 H 0.98751 0.80908 0.66851 0.0
C338 C 0.91518 0.73074 0.64281 0.0
O339 O 0.88709 0.79604 0.60307 0.0
O340 O 0.92931 0.84471 0.62396 0.0
N341 N 0.09505 0.81876 0.62817 0.0
C342 C 0.11335 0.81142 0.61384 0.0
C343 C 0.16387 0.84289 0.60986 0.0
C344 C 0.19503 0.88158 0.62063 0.0
C345 C 0.17537 0.88842 0.63531 0.0
C346 C 0.12483 0.85558 0.6387 0.0
H347 H 0.08955 0.78204 0.60544 0.0
O348 O 0.00102 0.85419 0.6007 0.0
O349 O 0.01079 0.82581 0.62437 0.0
O350 O 0.95825 0.7475 0.60089 0.0
O351 O 0.00621 0.7337 0.6186 0.0
C352 C 0.20368 0.92723 0.64651 0.0
C353 C 0.18091 0.93307 0.66072 0.0
H354 H 0.1236 0.93453 0.68615 0.0
H355 H 0.03263 0.87572 0.68921 0.0
H356 H 0.1787 0.83751 0.59847 0.0
H357 H 0.23387 0.90608 0.61744 0.0
H358 H 0.24283 0.95323 0.6442 0.0
H359 H 0.20291 0.96349 0.66912 0.0
Mn360 Mn 0.20193 0.14884 0.61431 0.0
Mn361 Mn 0.21758 0.24553 0.63738 0.0
C362 C 0.14361 0.17451 0.6128 0.0
C363 C 0.1707 0.06284 0.61426 0.0
C364 C 0.27586 0.25698 0.60595 0.0
O365 O 0.25476 0.15768 0.63056 0.0
O366 O 0.25601 0.2159 0.64747 0.0
C367 C 0.1662 0.19238 0.66788 0.0
N368 N 0.1704 0.22249 0.65502 0.0
C369 C 0.10004 0.22878 0.66453 0.0
C370 C 0.09519 0.19812 0.67794 0.0
C371 C 0.12841 0.17985 0.67961 0.0
C372 C 0.13886 0.24059 0.65335 0.0
H373 H 0.19136 0.17787 0.66913 0.0
C374 C 0.26937 0.18403 0.64355 0.0
O375 O 0.20454 0.09129 0.60361 0.0
O376 O 0.15544 0.0844 0.62442 0.0
N377 N 0.18142 0.27613 0.62898 0.0
C378 C 0.18871 0.30197 0.61469 0.0
C379 C 0.15716 0.32097 0.61077 0.0
C380 C 0.11846 0.31319 0.62157 0.0
C381 C 0.11166 0.28649 0.6362 0.0
C382 C 0.14457 0.26883 0.63952 0.0
H383 H 0.21811 0.30773 0.60627 0.0
O384 O 0.14669 0.14726 0.60125 0.0
O385 O 0.17453 0.18492 0.62502 0.0
O386 O 0.25327 0.21093 0.60167 0.0
O387 O 0.26657 0.27271 0.61929 0.0
C388 C 0.07284 0.27574 0.64742 0.0
C389 C 0.06707 0.24695 0.66159 0.0
H390 H 0.06576 0.18791 0.68691 0.0
H391 H 0.12471 0.15591 0.68987 0.0
H392 H 0.1625 0.34133 0.59942 0.0
H393 H 0.0939 0.3275 0.61843 0.0
H394 H 0.0468 0.28886 0.64517 0.0
H395 H 0.03665 0.23835 0.67 0.0
Mn396 Mn 0.85168 0.05279 0.6141 0.0
Mn397 Mn 0.7547 0.97165 0.63706 0.0
C398 C 0.82593 0.96878 0.61255 0.0
C399 C 0.93771 0.10762 0.61425 0.0
C400 C 0.74371 0.01878 0.60563 0.0
O401 O 0.84256 0.09668 0.6303 0.0
O402 O 0.78429 0.03965 0.64719 0.0
C403 C 0.80743 0.97306 0.66761 0.0
N404 N 0.77744 0.94728 0.65472 0.0
C405 C 0.77076 0.87043 0.66423 0.0
C406 C 0.80129 0.89611 0.67767 0.0
C407 C 0.8197 0.94764 0.67936 0.0
C408 C 0.75922 0.89761 0.65303 0.0
H409 H 0.82203 0.01276 0.66889 0.0
C410 C 0.8161 0.08492 0.64326 0.0
O411 O 0.9095 0.11311 0.60352 0.0
O412 O 0.91593 0.07065 0.62435 0.0
N413 N 0.72407 0.90493 0.62862 0.0
C414 C 0.69834 0.88651 0.61431 0.0
C415 C 0.67921 0.83594 0.61038 0.0
C416 C 0.68674 0.80485 0.62118 0.0
C417 C 0.71332 0.82462 0.63584 0.0
C418 C 0.73111 0.87521 0.63917 0.0
H419 H 0.69276 0.91027 0.60589 0.0
O420 O 0.85344 0.99923 0.60106 0.0
O421 O 0.81539 0.98922 0.62476 0.0
O422 O 0.78977 0.04214 0.60137 0.0
O423 O 0.72785 0.99371 0.61897 0.0
C424 C 0.72379 0.79638 0.64708 0.0
C425 C 0.75245 0.81925 0.66127 0.0
H426 H 0.81129 0.87675 0.68667 0.0
H427 H 0.84353 0.96777 0.68965 0.0
H428 H 0.65893 0.82102 0.59901 0.0
H429 H 0.67232 0.76596 0.61803 0.0
H430 H 0.71056 0.75718 0.64482 0.0
H431 H 0.76084 0.7973 0.6697 0.0
Mn432 Mn 0.8683 0.38551 0.44767 0.0
Mn433 Mn 0.88468 0.30464 0.47059 0.0
C434 C 0.81039 0.3014 0.44609 0.0
C435 C 0.83678 0.44006 0.44777 0.0
C436 C 0.94283 0.35229 0.43921 0.0
O437 O 0.92115 0.42949 0.46389 0.0
O438 O 0.92258 0.37257 0.48079 0.0
C439 C 0.8329 0.30515 0.50114 0.0
N440 N 0.83744 0.27971 0.4882 0.0
C441 C 0.76765 0.20241 0.49762 0.0
C442 C 0.76245 0.22774 0.5111 0.0
C443 C 0.79522 0.27932 0.51286 0.0
C444 C 0.80634 0.22999 0.48645 0.0
H445 H 0.85774 0.34488 0.50247 0.0
C446 C 0.93585 0.41779 0.47687 0.0
O447 O 0.8706 0.44569 0.43707 0.0
O448 O 0.82164 0.40311 0.45788 0.0
N449 N 0.84909 0.238 0.46205 0.0
C450 C 0.85673 0.21992 0.44772 0.0
C451 C 0.82568 0.16933 0.44373 0.0
C452 C 0.78711 0.13787 0.45449 0.0
C453 C 0.77997 0.1573 0.46916 0.0
C454 C 0.81238 0.20794 0.47257 0.0
H455 H 0.88604 0.24395 0.43933 0.0
O456 O 0.81315 0.3318 0.4346 0.0
O457 O 0.84132 0.32194 0.4583 0.0
O458 O 0.91979 0.37528 0.43493 0.0
O459 O 0.93379 0.32725 0.45254 0.0
C460 C 0.74128 0.12866 0.48037 0.0
C461 C 0.73515 0.15119 0.49459 0.0
H462 H 0.73309 0.20806 0.52007 0.0
H463 H 0.79124 0.29918 0.52317 0.0
H464 H 0.8313 0.15466 0.43234 0.0
H465 H 0.76295 0.09896 0.45129 0.0
H466 H 0.7156 0.08943 0.47806 0.0
H467 H 0.70484 0.12893 0.503 0.0
Mn468 Mn 0.61398 0.48162 0.4474 0.0
Mn469 Mn 0.69495 0.57853 0.4704 0.0
C470 C 0.69798 0.50727 0.44597 0.0
C471 C 0.55934 0.39556 0.44744 0.0
C472 C 0.64821 0.58968 0.43888 0.0
O473 O 0.56989 0.49057 0.46358 0.0
O474 O 0.62684 0.54906 0.48043 0.0
C475 C 0.69289 0.52558 0.50098 0.0
N476 N 0.71892 0.55557 0.48811 0.0
C477 C 0.7954 0.56161 0.49769 0.0
C478 C 0.76947 0.53107 0.5111 0.0
C479 C 0.71799 0.51298 0.51275 0.0
C480 C 0.76854 0.57349 0.48646 0.0
H481 H 0.65323 0.51119 0.50221 0.0
C482 C 0.58161 0.51711 0.47653 0.0
O483 O 0.55389 0.42383 0.43672 0.0
O484 O 0.59609 0.41733 0.45761 0.0
N485 N 0.76176 0.60898 0.46205 0.0
C486 C 0.78045 0.63477 0.44776 0.0
C487 C 0.831 0.65363 0.44388 0.0
C488 C 0.86179 0.64575 0.45471 0.0
C489 C 0.84174 0.61912 0.46934 0.0
C490 C 0.79119 0.60162 0.47263 0.0
H491 H 0.75691 0.64059 0.43931 0.0
O492 O 0.66772 0.47995 0.43441 0.0
O493 O 0.67739 0.51781 0.45813 0.0
O494 O 0.62472 0.54358 0.43465 0.0
O495 O 0.67326 0.60556 0.45222 0.0
C496 C 0.86967 0.60829 0.48061 0.0
C497 C 0.84653 0.5796 0.49477 0.0
H498 H 0.78857 0.52081 0.52011 0.0
H499 H 0.69766 0.48914 0.52301 0.0
H500 H 0.84614 0.67396 0.43253 0.0
H501 H 0.90066 0.65995 0.4516 0.0
H502 H 0.90883 0.62128 0.47838 0.0
H503 H 0.86824 0.57094 0.50322 0.0
Mn504 Mn 0.51902 0.13127 0.44726 0.0
Mn505 Mn 0.42223 0.11583 0.4702 0.0
C506 C 0.49368 0.18983 0.44569 0.0
C507 C 0.60491 0.16204 0.44744 0.0
C508 C 0.41112 0.05731 0.43886 0.0
O509 O 0.50954 0.07817 0.46349 0.0
O510 O 0.45191 0.07775 0.48048 0.0
C511 C 0.47482 0.16785 0.50068 0.0
N512 N 0.44487 0.16333 0.48774 0.0
C513 C 0.43814 0.23369 0.49698 0.0
C514 C 0.46864 0.23888 0.51047 0.0
C515 C 0.48705 0.20581 0.51232 0.0
C516 C 0.42661 0.1947 0.4859 0.0
H517 H 0.48943 0.1428 0.50207 0.0
C518 C 0.48344 0.06397 0.47653 0.0
O519 O 0.57663 0.12842 0.43671 0.0
O520 O 0.58329 0.17743 0.45752 0.0
N521 N 0.39158 0.15168 0.46156 0.0
C522 C 0.36598 0.1441 0.44721 0.0
C523 C 0.34693 0.17548 0.44311 0.0
C524 C 0.3544 0.21433 0.45379 0.0
C525 C 0.38085 0.22142 0.4685 0.0
C526 C 0.39857 0.18867 0.47201 0.0
H527 H 0.36046 0.1146 0.43887 0.0
O528 O 0.52115 0.18682 0.4342 0.0
O529 O 0.48294 0.15874 0.45788 0.0
O530 O 0.4571 0.08018 0.43451 0.0
O531 O 0.3954 0.06648 0.45223 0.0
C532 C 0.39132 0.26042 0.47962 0.0
C533 C 0.41989 0.26651 0.49386 0.0
H534 H 0.47864 0.26847 0.51937 0.0
H535 H 0.51087 0.20978 0.52264 0.0
H536 H 0.32675 0.16991 0.4317 0.0
H537 H 0.34006 0.23876 0.45051 0.0
H538 H 0.37815 0.28636 0.47722 0.0
H539 H 0.42828 0.29707 0.50219 0.0
Mn540 Mn 0.72103 0.53534 0.7157 0.0
Mn541 Mn 0.64014 0.55094 0.69255 0.0
C542 C 0.63703 0.47713 0.71723 0.0
C543 C 0.77569 0.50398 0.71569 0.0
C544 C 0.68704 0.60944 0.72393 0.0
O545 O 0.76506 0.58822 0.69949 0.0
O546 O 0.7082 0.58921 0.68247 0.0
C547 C 0.64174 0.49917 0.66214 0.0
N548 N 0.61588 0.50358 0.67496 0.0
C549 C 0.53912 0.43322 0.6655 0.0
C550 C 0.56488 0.42816 0.65212 0.0
C551 C 0.61641 0.46128 0.65044 0.0
C552 C 0.56621 0.47214 0.67664 0.0
H553 H 0.68144 0.52426 0.66088 0.0
C554 C 0.75341 0.60275 0.68647 0.0
O555 O 0.78119 0.53779 0.72638 0.0
O556 O 0.73883 0.48882 0.70556 0.0
N557 N 0.57338 0.51498 0.70095 0.0
C558 C 0.55489 0.52246 0.71521 0.0
C559 C 0.50432 0.49103 0.71914 0.0
C560 C 0.4733 0.45224 0.70838 0.0
C561 C 0.49315 0.44525 0.69377 0.0
C562 C 0.54373 0.47805 0.69043 0.0
H563 H 0.57859 0.55193 0.72361 0.0
O564 O 0.66735 0.48011 0.72877 0.0
O565 O 0.65758 0.50799 0.705 0.0
O566 O 0.71031 0.58676 0.72831 0.0
O567 O 0.66212 0.60009 0.71056 0.0
C568 C 0.46499 0.40632 0.68259 0.0
C569 C 0.48794 0.40034 0.66845 0.0
H570 H 0.54559 0.39863 0.64318 0.0
H571 H 0.6366 0.45741 0.64021 0.0
H572 H 0.48934 0.49652 0.73048 0.0
H573 H 0.43442 0.42776 0.71153 0.0
H574 H 0.4258 0.38035 0.68485 0.0
H575 H 0.46606 0.36984 0.66007 0.0
Mn576 Mn 0.46474 0.18554 0.71652 0.0
Mn577 Mn 0.44742 0.08755 0.69386 0.0
C578 C 0.52273 0.15943 0.71796 0.0
C579 C 0.49647 0.27162 0.7161 0.0
C580 C 0.39056 0.07806 0.72548 0.0
O581 O 0.41124 0.17618 0.70047 0.0
O582 O 0.40916 0.11727 0.68372 0.0
C583 C 0.49802 0.13899 0.66306 0.0
N584 N 0.49399 0.10939 0.67606 0.0
C585 C 0.56361 0.10194 0.66647 0.0
C586 C 0.56827 0.13205 0.65292 0.0
C587 C 0.53533 0.15066 0.65122 0.0
C588 C 0.52526 0.09099 0.67776 0.0
H589 H 0.47307 0.15375 0.66177 0.0
C590 C 0.39611 0.14942 0.68758 0.0
O591 O 0.46305 0.24388 0.72698 0.0
O592 O 0.51102 0.24934 0.70599 0.0
N593 N 0.48335 0.05681 0.70234 0.0
C594 C 0.47626 0.0315 0.71673 0.0
C595 C 0.50755 0.01222 0.72067 0.0
C596 C 0.54581 0.01918 0.7098 0.0
C597 C 0.55239 0.04533 0.69506 0.0
C598 C 0.51975 0.0633 0.69171 0.0
H599 H 0.44721 0.02635 0.72521 0.0
O600 O 0.52042 0.18743 0.7294 0.0
O601 O 0.49129 0.1486 0.70588 0.0
O602 O 0.41376 0.12426 0.72958 0.0
O603 O 0.39902 0.06161 0.71214 0.0
C604 C 0.59074 0.05522 0.68373 0.0
C605 C 0.59632 0.08346 0.66944 0.0
H606 H 0.59735 0.14159 0.64386 0.0
H607 H 0.5389 0.17418 0.64085 0.0
H608 H 0.50236 0.99225 0.73211 0.0
H609 H 0.57016 0.00465 0.71296 0.0
H610 H 0.61658 0.04185 0.686 0.0
H611 H 0.62637 0.09139 0.66094 0.0
Mn612 Mn 0.81429 0.27925 0.71602 0.0
Mn613 Mn 0.91147 0.35991 0.69302 0.0
C614 C 0.84033 0.36337 0.71742 0.0
C615 C 0.72819 0.22464 0.71597 0.0
C616 C 0.92218 0.31311 0.72457 0.0
O617 O 0.82325 0.235 0.69992 0.0
O618 O 0.88163 0.29178 0.683 0.0
C619 C 0.85902 0.35844 0.66239 0.0
N620 N 0.88901 0.38427 0.67528 0.0
C621 C 0.89634 0.46124 0.66559 0.0
C622 C 0.86581 0.43551 0.65216 0.0
C623 C 0.84707 0.38389 0.65056 0.0
C624 C 0.90756 0.43403 0.67688 0.0
H625 H 0.84419 0.31869 0.66119 0.0
C626 C 0.84973 0.24658 0.68696 0.0
O627 O 0.75643 0.21926 0.72671 0.0
O628 O 0.75 0.26134 0.70577 0.0
N629 N 0.94236 0.42675 0.70137 0.0
C630 C 0.96804 0.44524 0.71569 0.0
C631 C 0.98745 0.49591 0.71953 0.0
C632 C 0.98027 0.52703 0.70864 0.0
C633 C 0.95374 0.50718 0.69398 0.0
C634 C 0.93564 0.45648 0.69073 0.0
H635 H 0.97337 0.42147 0.72418 0.0
O636 O 0.81271 0.33314 0.72894 0.0
O637 O 0.85077 0.34268 0.70527 0.0
O638 O 0.87611 0.28995 0.72882 0.0
O639 O 0.93811 0.33789 0.71118 0.0
C640 C 0.9436 0.53546 0.68265 0.0
C641 C 0.91497 0.51252 0.66846 0.0
H642 H 0.85605 0.4549 0.64309 0.0
H643 H 0.82324 0.36373 0.64027 0.0
H644 H 0.0077 0.51089 0.73091 0.0
H645 H 0.99492 0.566 0.71172 0.0
H646 H 0.95708 0.57474 0.68484 0.0
H647 H 0.90684 0.53451 0.65996 0.0
Mn648 Mn 0.46326 0.28196 0.21563 0.0
Mn649 Mn 0.44591 0.36209 0.1928 0.0
C650 C 0.52123 0.36603 0.21713 0.0
C651 C 0.4939 0.2269 0.21469 0.0
C652 C 0.38873 0.31462 0.22438 0.0
O653 O 0.40952 0.23787 0.19979 0.0
O654 O 0.40856 0.29412 0.18251 0.0
C655 C 0.4979 0.36229 0.16222 0.0
N656 N 0.49311 0.38749 0.17518 0.0
C657 C 0.56268 0.46507 0.16586 0.0
C658 C 0.56813 0.44001 0.15235 0.0
C659 C 0.5356 0.3884 0.15053 0.0
C660 C 0.52398 0.43722 0.17699 0.0
H661 H 0.47328 0.32254 0.16085 0.0
C662 C 0.39516 0.24903 0.18666 0.0
O663 O 0.46113 0.22137 0.2258 0.0
O664 O 0.50906 0.26448 0.20486 0.0
N665 N 0.48102 0.42869 0.20139 0.0
C666 C 0.47321 0.44652 0.21574 0.0
C667 C 0.50404 0.4971 0.2198 0.0
C668 C 0.54258 0.52881 0.20907 0.0
C669 C 0.54991 0.50965 0.19437 0.0
C670 C 0.51771 0.45901 0.19091 0.0
H671 H 0.44393 0.42231 0.22411 0.0
O672 O 0.51913 0.33557 0.22849 0.0
O673 O 0.48977 0.34544 0.20505 0.0
O674 O 0.4125 0.29239 0.2287 0.0
O675 O 0.39685 0.33889 0.21091 0.0
C676 C 0.58861 0.53856 0.1832 0.0
C677 C 0.59496 0.5163 0.16894 0.0
H678 H 0.59751 0.45991 0.1434 0.0
H679 H 0.53978 0.36874 0.14019 0.0
H680 H 0.49826 0.51156 0.2312 0.0
H681 H 0.56657 0.56771 0.21232 0.0
H682 H 0.61411 0.5778 0.18555 0.0
H683 H 0.62527 0.53877 0.16057 0.0
Mn684 Mn 0.71359 0.18331 0.21378 0.0
Mn685 Mn 0.6355 0.08894 0.18912 0.0
C686 C 0.62959 0.15738 0.21402 0.0
C687 C 0.76832 0.26931 0.21501 0.0
C688 C 0.67102 0.07332 0.22239 0.0
O689 O 0.76065 0.17673 0.19844 0.0
O690 O 0.70638 0.11435 0.18228 0.0
C691 C 0.65667 0.14896 0.15864 0.0
N692 N 0.62342 0.11817 0.17015 0.0
C693 C 0.55632 0.12346 0.15708 0.0
C694 C 0.5898 0.15488 0.14506 0.0
C695 C 0.64018 0.16767 0.14585 0.0
C696 C 0.57485 0.10567 0.16949 0.0
H697 H 0.69557 0.15946 0.15924 0.0
C698 C 0.7509 0.14772 0.18627 0.0
O699 O 0.77187 0.23979 0.22569 0.0
O700 O 0.73327 0.24876 0.2042 0.0
N701 N 0.56573 0.06149 0.19364 0.0
C702 C 0.53737 0.02792 0.20541 0.0
C703 C 0.48623 0.01189 0.2065 0.0
C704 C 0.46429 0.02906 0.19504 0.0
C705 C 0.49347 0.06092 0.18232 0.0
C706 C 0.54431 0.07567 0.18192 0.0
H707 H 0.55335 0.01232 0.21353 0.0
O708 O 0.65837 0.18356 0.22602 0.0
O709 O 0.65163 0.14872 0.20183 0.0
O710 O 0.69979 0.11942 0.22605 0.0
O711 O 0.64556 0.05799 0.20904 0.0
C712 C 0.47403 0.07836 0.16997 0.0
C713 C 0.50546 0.10967 0.15737 0.0
H714 H 0.57729 0.16964 0.13522 0.0
H715 H 0.66632 0.19213 0.13666 0.0
H716 H 0.46363 0.98578 0.216 0.0
H717 H 0.4248 0.01657 0.19588 0.0
H718 H 0.43494 0.06783 0.17002 0.0
H719 H 0.49012 0.12297 0.14797 0.0
Mn720 Mn 0.81239 0.53508 0.2165 0.0
Mn721 Mn 0.90968 0.54997 0.19392 0.0
C722 C 0.83675 0.47574 0.21809 0.0
C723 C 0.72656 0.50506 0.21601 0.0
C724 C 0.9203 0.60793 0.22537 0.0
O725 O 0.82301 0.58875 0.20033 0.0
O726 O 0.88106 0.58894 0.1836 0.0
C727 C 0.85801 0.49928 0.16317 0.0
N728 N 0.88731 0.50305 0.17622 0.0
C729 C 0.89377 0.43267 0.16681 0.0
C730 C 0.86393 0.42825 0.15322 0.0
C731 C 0.84598 0.4617 0.15139 0.0
C732 C 0.90513 0.47131 0.17803 0.0
H733 H 0.84377 0.52464 0.16179 0.0
C734 C 0.84968 0.60304 0.18741 0.0
O735 O 0.75473 0.53832 0.22685 0.0
O736 O 0.74824 0.48961 0.20598 0.0
N737 N 0.93934 0.51324 0.20259 0.0
C738 C 0.96432 0.52009 0.21704 0.0
C739 C 0.98286 0.48826 0.22111 0.0
C740 C 0.97551 0.44971 0.21031 0.0
C741 C 0.9497 0.44337 0.19552 0.0
C742 C 0.93249 0.47655 0.19204 0.0
H743 H 0.96976 0.54938 0.22547 0.0
O744 O 0.80915 0.4789 0.22949 0.0
O745 O 0.8483 0.50723 0.20598 0.0
O746 O 0.87414 0.58547 0.22951 0.0
O747 O 0.9363 0.59875 0.21206 0.0
C748 C 0.93942 0.40474 0.18426 0.0
C749 C 0.91152 0.39942 0.16991 0.0
H750 H 0.85408 0.39897 0.14421 0.0
H751 H 0.82267 0.45834 0.14098 0.0
H752 H 0.00257 0.49328 0.23259 0.0
H753 H 0.98948 0.42495 0.21357 0.0
H754 H 0.95221 0.37848 0.18663 0.0
H755 H 0.90325 0.36913 0.16147 0.0
Mn756 Mn 0.61084 0.13193 0.94653 0.0
Mn757 Mn 0.69299 0.11666 0.96912 0.0
C758 C 0.69461 0.19115 0.94502 0.0
C759 C 0.55518 0.16212 0.947 0.0
C760 C 0.64576 0.059 0.93762 0.0
O761 O 0.56759 0.07819 0.96264 0.0
O762 O 0.62529 0.07763 0.97937 0.0
C763 C 0.69177 0.16701 -8e-05 0.0
N764 N 0.71742 0.16337 0.98689 0.0
C765 C 0.7942 0.23361 0.9964 0.0
C766 C 0.76867 0.23789 0.00999 0.0
C767 C 0.71723 0.20445 0.01175 0.0
C768 C 0.76701 0.19511 0.98513 0.0
H769 H 0.65215 0.14167 0.00126 0.0
C770 C 0.57987 0.06369 0.97554 0.0
O771 O 0.55008 0.1289 0.93614 0.0
O772 O 0.59224 0.17743 0.95706 0.0
N773 N 0.75947 0.15344 0.96052 0.0
C774 C 0.77771 0.14672 0.94608 0.0
C775 C 0.82814 0.17856 0.94207 0.0
C776 C 0.85927 0.21697 0.95293 0.0
C777 C 0.83968 0.22318 0.96772 0.0
C778 C 0.78923 0.18999 0.97113 0.0
H779 H 0.75393 0.11753 0.93762 0.0
O780 O 0.66396 0.18814 0.93359 0.0
O781 O 0.67453 0.15957 0.9571 0.0
O782 O 0.62212 0.08153 0.9335 0.0
O783 O 0.67093 0.06808 0.95092 0.0
C784 C 0.86795 0.26167 0.97902 0.0
C785 C 0.84525 0.26685 0.99336 0.0
H786 H 0.78805 0.26707 0.01904 0.0
H787 H 0.69721 0.20772 0.02215 0.0
H788 H 0.84293 0.17365 0.9306 0.0
H789 H 0.89804 0.24175 0.94971 0.0
H790 H 0.90704 0.28793 0.97671 0.0
H791 H 0.86721 0.29704 0.00184 0.0
Mn792 Mn 0.86373 0.48346 0.94957 0.0
Mn793 Mn 0.87991 0.57788 0.97418 0.0
C794 C 0.80565 0.50939 0.94923 0.0
C795 C 0.83255 0.39751 0.94833 0.0
C796 C 0.93161 0.59339 0.94103 0.0
O797 O 0.91728 0.49011 0.96496 0.0
O798 O 0.92492 0.55213 0.98122 0.0
C799 C 0.8401 0.51804 0.00464 0.0
N800 N 0.83813 0.54892 0.99306 0.0
C801 C 0.76586 0.54442 0.00594 0.0
C802 C 0.76742 0.51292 0.01804 0.0
C803 C 0.8047 0.49968 0.01738 0.0
C804 C 0.80238 0.56187 0.9936 0.0
H805 H 0.86827 0.50721 0.00413 0.0
C806 C 0.93619 0.51887 0.97721 0.0
O807 O 0.86571 0.42707 0.93768 0.0
O808 O 0.81791 0.41799 0.95912 0.0
N809 N 0.83796 0.60559 0.96942 0.0
C810 C 0.84325 0.63865 0.95744 0.0
C811 C 0.80835 0.65492 0.95619 0.0
C812 C 0.76931 0.63841 0.96765 0.0
C813 C 0.76638 0.60684 0.98051 0.0
C814 C 0.80228 0.59186 0.98108 0.0
H815 H 0.87462 0.65355 0.94923 0.0
O816 O 0.80831 0.48315 0.93726 0.0
O817 O 0.83629 0.51809 0.96145 0.0
O818 O 0.91385 0.54729 0.93731 0.0
O819 O 0.92155 0.60875 0.95438 0.0
C820 C 0.72936 0.58981 0.99281 0.0
C821 C 0.72906 0.55857 0.0055 0.0
H822 H 0.73998 0.49841 0.02783 0.0
H823 H 0.80598 0.47515 0.02662 0.0
H824 H 0.81194 0.68065 0.94654 0.0
H825 H 0.74245 0.65104 0.96667 0.0
H826 H 0.70095 0.60055 0.99263 0.0
H827 H 0.70029 0.54554 0.01486 0.0
Mn828 Mn 0.51473 0.3851 0.94743 0.0
Mn829 Mn 0.41739 0.30484 0.97029 0.0
C830 C 0.48873 0.30107 0.94591 0.0
C831 C 0.60049 0.4402 0.94838 0.0
C832 C 0.40745 0.35233 0.93875 0.0
O833 O 0.50508 0.42911 0.9633 0.0
O834 O 0.44796 0.37279 0.98059 0.0
C835 C 0.46942 0.30473 0.00083 0.0
N836 N 0.43936 0.2795 0.98788 0.0
C837 C 0.43157 0.20198 0.99717 0.0
C838 C 0.46214 0.22707 0.01066 0.0
C839 C 0.48115 0.27867 0.01249 0.0
C840 C 0.42058 0.22978 0.98606 0.0
H841 H 0.48449 0.34447 0.00221 0.0
C842 C 0.47959 0.4179 0.97643 0.0
O843 O 0.57323 0.44576 0.93728 0.0
O844 O 0.57805 0.40259 0.95819 0.0
N845 N 0.38595 0.23824 0.9617 0.0
C846 C 0.36023 0.22039 0.94735 0.0
C847 C 0.34054 0.16983 0.94329 0.0
C848 C 0.34751 0.13816 0.95399 0.0
C849 C 0.37409 0.15735 0.96868 0.0
C850 C 0.39246 0.20797 0.97216 0.0
H851 H 0.35506 0.24457 0.939 0.0
O852 O 0.51701 0.33156 0.93454 0.0
O853 O 0.47786 0.3216 0.958 0.0
O854 O 0.45343 0.37463 0.9344 0.0
O855 O 0.39139 0.32798 0.95222 0.0
C856 C 0.38402 0.12849 0.97983 0.0
C857 C 0.41269 0.15077 0.99407 0.0
H858 H 0.47174 0.20722 0.01959 0.0
H859 H 0.50503 0.29835 0.02282 0.0
H860 H 0.32025 0.15535 0.93189 0.0
H861 H 0.33266 0.09928 0.95074 0.0
H862 H 0.37034 0.08927 0.97746 0.0
H863 H 0.42065 0.12835 0.00243 0.0
Mn864 Mn 0.53489 0.72089 0.77907 0.0
Mn865 Mn 0.55147 0.64094 0.80237 0.0
C866 C 0.47668 0.63675 0.77787 0.0
C867 C 0.50372 0.77566 0.7792 0.0
C868 C 0.60918 0.68732 0.7708 0.0
O869 O 0.58824 0.7655 0.79505 0.0
O870 O 0.58929 0.70922 0.81233 0.0
C871 C 0.49992 0.64243 0.83285 0.0
N872 N 0.50437 0.61657 0.82003 0.0
C873 C 0.4346 0.5396 0.82966 0.0
C874 C 0.42949 0.56536 0.84303 0.0
C875 C 0.46229 0.617 0.84462 0.0
C876 C 0.47325 0.5668 0.81844 0.0
H877 H 0.52476 0.6822 0.83405 0.0
C878 C 0.60271 0.7543 0.80817 0.0
O879 O 0.53702 0.78087 0.76835 0.0
O880 O 0.48872 0.73883 0.78935 0.0
N881 N 0.51586 0.57402 0.79407 0.0
C882 C 0.52335 0.55548 0.77982 0.0
C883 C 0.49221 0.50478 0.77598 0.0
C884 C 0.4537 0.47368 0.78682 0.0
C885 C 0.4467 0.49358 0.80141 0.0
C886 C 0.47919 0.5443 0.80466 0.0
H887 H 0.5526 0.57923 0.77137 0.0
O888 O 0.47923 0.66671 0.76626 0.0
O889 O 0.50802 0.65775 0.78995 0.0
O890 O 0.58597 0.70999 0.76634 0.0
O891 O 0.60044 0.66301 0.78429 0.0
C892 C 0.40805 0.46532 0.81268 0.0
C893 C 0.40204 0.4883 0.8268 0.0
H894 H 0.40017 0.54599 0.85204 0.0
H895 H 0.45839 0.63719 0.85485 0.0
H896 H 0.49772 0.48976 0.76466 0.0
H897 H 0.42947 0.43469 0.78374 0.0
H898 H 0.38232 0.42602 0.81049 0.0
H899 H 0.37176 0.46633 0.83525 0.0
Mn900 Mn 0.28117 0.81606 0.78088 0.0
Mn901 Mn 0.36209 0.91249 0.80406 0.0
C902 C 0.36528 0.84289 0.7789 0.0
C903 C 0.22701 0.73 0.78065 0.0
C904 C 0.31366 0.92409 0.77304 0.0
O905 O 0.23745 0.82352 0.79757 0.0
O906 O 0.29443 0.88138 0.81455 0.0
C907 C 0.36284 0.85903 0.83417 0.0
N908 N 0.38778 0.88968 0.8213 0.0
C909 C 0.46553 0.89732 0.83021 0.0
C910 C 0.44073 0.86611 0.84361 0.0
C911 C 0.38916 0.84689 0.84559 0.0
C912 C 0.43748 0.90872 0.81935 0.0
H913 H 0.32313 0.8438 0.83567 0.0
C914 C 0.24927 0.84892 0.81076 0.0
O915 O 0.22088 0.75853 0.77023 0.0
O916 O 0.26434 0.75149 0.79062 0.0
N917 N 0.4285 0.94435 0.7953 0.0
C918 C 0.44605 0.97064 0.78103 0.0
C919 C 0.49652 0.99058 0.77682 0.0
C920 C 0.52843 0.98326 0.78729 0.0
C921 C 0.50955 0.95607 0.8019 0.0
C922 C 0.459 0.93747 0.80553 0.0
H923 H 0.42168 0.97606 0.77286 0.0
O924 O 0.33468 0.81577 0.76738 0.0
O925 O 0.34494 0.8525 0.79136 0.0
O926 O 0.29063 0.87819 0.76861 0.0
O927 O 0.33879 0.93963 0.78638 0.0
C928 C 0.53866 0.94575 0.81281 0.0
C929 C 0.51668 0.91645 0.82696 0.0
H930 H 0.46078 0.85619 0.85235 0.0
H931 H 0.36971 0.82253 0.85585 0.0
H932 H 0.51075 0.01132 0.76549 0.0
H933 H 0.56724 0.99831 0.78393 0.0
H934 H 0.57784 0.9596 0.81031 0.0
H935 H 0.53929 0.90819 0.83513 0.0
Mn936 Mn 0.18504 0.46554 0.78018 0.0
Mn937 Mn 0.08833 0.45007 0.8032 0.0
C938 C 0.15954 0.52399 0.77868 0.0
C939 C 0.27108 0.49679 0.78018 0.0
C940 C 0.07695 0.39161 0.77183 0.0
O941 O 0.17598 0.41263 0.79644 0.0
O942 O 0.11784 0.41164 0.81333 0.0
C943 C 0.14125 0.50154 0.83371 0.0
N944 N 0.11128 0.49735 0.82081 0.0
C945 C 0.10506 0.56785 0.83022 0.0
C946 C 0.13559 0.57271 0.84367 0.0
C947 C 0.15375 0.53941 0.84541 0.0
C948 C 0.09326 0.52895 0.81908 0.0
H949 H 0.15567 0.47631 0.83502 0.0
C950 C 0.14957 0.3981 0.80942 0.0
O951 O 0.24267 0.46295 0.76952 0.0
O952 O 0.24946 0.51199 0.79033 0.0
N953 N 0.05785 0.48626 0.79472 0.0
C954 C 0.0321 0.47891 0.78041 0.0
C955 C 0.0132 0.5105 0.77644 0.0
C956 C 0.02098 0.54931 0.78718 0.0
C957 C 0.04758 0.55616 0.80184 0.0
C958 C 0.06514 0.52321 0.80523 0.0
H959 H 0.02634 0.44944 0.77203 0.0
O960 O 0.18679 0.5209 0.76713 0.0
O961 O 0.149 0.49295 0.79087 0.0
O962 O 0.12297 0.41422 0.76752 0.0
O963 O 0.06124 0.40099 0.78516 0.0
C964 C 0.05834 0.59509 0.81302 0.0
C965 C 0.08701 0.6009 0.82721 0.0
H966 H 0.14578 0.60221 0.85262 0.0
H967 H 0.17758 0.54311 0.8557 0.0
H968 H 0.9929 0.50511 0.76507 0.0
H969 H 0.00674 0.5739 0.784 0.0
H970 H 0.04531 0.62118 0.81071 0.0
H971 H 0.09561 0.63139 0.8356 0.0
Mn972 Mn 0.38972 0.86863 0.04921 0.0
Mn973 Mn 0.30742 0.88352 0.02658 0.0
C974 C 0.30595 0.80965 0.05092 0.0
C975 C 0.44523 0.8383 0.04884 0.0
C976 C 0.35529 0.94204 0.05788 0.0
O977 O 0.43278 0.92183 0.03292 0.0
O978 O 0.37495 0.92206 0.01618 0.0
C979 C 0.30782 0.8321 0.99593 0.0
N980 N 0.2825 0.83625 0.00897 0.0
C981 C 0.2054 0.7659 -0.00028 0.0
C982 C 0.2306 0.76108 0.98613 0.0
C983 C 0.28203 0.79432 0.98424 0.0
C984 C 0.23292 0.80471 0.01085 0.0
H985 H 0.34744 0.8573 0.9945 0.0
C986 C 0.4204 0.936 0.01997 0.0
O987 O 0.45057 0.87187 0.05959 0.0
O988 O 0.40802 0.82272 0.03882 0.0
N989 N 0.24108 0.84721 0.03532 0.0
C990 C 0.22319 0.85447 0.04976 0.0
C991 C 0.17281 0.82289 0.05389 0.0
C992 C 0.14138 0.78419 0.04318 0.0
C993 C 0.16062 0.77743 0.02839 0.0
C994 C 0.21103 0.81037 0.02485 0.0
H995 H 0.2472 0.88388 0.05812 0.0
O996 O 0.33675 0.8129 0.06233 0.0
O997 O 0.32589 0.84082 0.03873 0.0
O998 O 0.37882 0.91948 0.06208 0.0
O999 O 0.32996 0.93268 0.0446 0.0
C1000 C 0.13203 0.73862 0.01722 0.0
C1001 C 0.15438 0.73289 0.00289 0.0
H1002 H 0.21097 0.73165 0.97718 0.0
H1003 H 0.3018 0.79065 0.97384 0.0
H1004 H 0.1583 0.82823 0.06536 0.0
H1005 H 0.10265 0.75962 0.04648 0.0
H1006 H 0.09296 0.71255 0.01964 0.0
H1007 H 0.13218 0.70247 0.99451 0.0
Mn1008 Mn 0.13644 0.51734 0.04744 0.0
Mn1009 Mn 0.11943 0.42214 0.02308 0.0
C1010 C 0.19445 0.4913 0.04773 0.0
C1011 C 0.16774 0.60333 0.04838 0.0
C1012 C 0.06858 0.40773 0.05636 0.0
O1013 O 0.08249 0.51029 0.03216 0.0
O1014 O 0.07439 0.44784 0.01603 0.0
C1015 C 0.15865 0.48108 0.99242 0.0
N1016 N 0.1608 0.45049 0.00407 0.0
C1017 C 0.23279 0.45459 0.99113 0.0
C1018 C 0.23104 0.48578 0.97895 0.0
C1019 C 0.1938 0.49907 0.97961 0.0
C1020 C 0.19653 0.4375 0.00354 0.0
H1021 H 0.13052 0.49197 0.99293 0.0
C1022 C 0.06327 0.48125 0.01999 0.0
O1023 O 0.13488 0.57415 0.05917 0.0
O1024 O 0.18205 0.58246 0.03763 0.0
N1025 N 0.16136 0.39441 0.02785 0.0
C1026 C 0.15617 0.36153 0.03988 0.0
C1027 C 0.19102 0.3452 0.04113 0.0
C1028 C 0.22989 0.36144 0.02961 0.0
C1029 C 0.23267 0.39277 0.0167 0.0
C1030 C 0.19683 0.40782 0.01613 0.0
H1031 H 0.12488 0.34678 0.04812 0.0
O1032 O 0.19218 0.51793 0.05964 0.0
O1033 O 0.16346 0.48226 0.0356 0.0
O1034 O 0.08658 0.45395 0.05995 0.0
O1035 O 0.07823 0.39193 0.04302 0.0
C1036 C 0.26946 0.40944 0.00432 0.0
C1037 C 0.26956 0.44039 0.99156 0.0
H1038 H 0.25829 0.5 0.9691 0.0
H1039 H 0.19237 0.52337 0.97031 0.0
H1040 H 0.18751 0.31962 0.05082 0.0
H1041 H 0.25671 0.34876 0.03059 0.0
H1042 H 0.29782 0.39865 0.0045 0.0
H1043 H 0.29816 0.45315 0.98215 0.0
Mn1044 Mn 0.48541 0.61513 0.04891 0.0
Mn1045 Mn 0.58267 0.69517 0.02595 0.0
C1046 C 0.51145 0.69919 0.0503 0.0
C1047 C 0.39961 0.56007 0.04808 0.0
C1048 C 0.59278 0.64809 0.05757 0.0
O1049 O 0.49493 0.57091 0.03308 0.0
O1050 O 0.55209 0.62709 0.01576 0.0
C1051 C 0.5305 0.69484 0.9954 0.0
N1052 N 0.56061 0.72025 0.00831 0.0
C1053 C 0.56831 0.79762 -0.00109 0.0
C1054 C 0.53768 0.77234 0.98544 0.0
C1055 C 0.51869 0.72073 0.98369 0.0
C1056 C 0.57938 0.76999 0.01006 0.0
H1057 H 0.51544 0.65508 0.99408 0.0
C1058 C 0.52044 0.58201 0.01995 0.0
O1059 O 0.42699 0.55466 0.05917 0.0
O1060 O 0.42196 0.59748 0.03819 0.0
N1061 N 0.61412 0.76188 0.03445 0.0
C1062 C 0.63989 0.77993 0.04877 0.0
C1063 C 0.65957 0.83055 0.05276 0.0
C1064 C 0.65253 0.86205 0.04201 0.0
C1065 C 0.6259 0.84266 0.02734 0.0
C1066 C 0.60755 0.792 0.02394 0.0
H1067 H 0.64511 0.75588 0.05716 0.0
O1068 O 0.48324 0.66888 0.06171 0.0
O1069 O 0.52223 0.67849 0.03824 0.0
O1070 O 0.5468 0.62577 0.06193 0.0
O1071 O 0.60878 0.6723 0.04407 0.0
C1072 C 0.6159 0.87135 0.01614 0.0
C1073 C 0.58717 0.84887 0.00193 0.0
H1074 H 0.52802 0.79206 0.97648 0.0
H1075 H 0.49476 0.70089 0.97339 0.0
H1076 H 0.67991 0.84519 0.06414 0.0
H1077 H 0.66738 0.90097 0.0452 0.0
H1078 H 0.62955 0.9106 0.01845 0.0
H1079 H 0.57914 0.87117 0.99353 0.0
Mn1080 Mn 0.13201 0.61243 0.54953 0.0
Mn1081 Mn 0.11561 0.69303 0.52647 0.0
C1082 C 0.19014 0.69652 0.55091 0.0
C1083 C 0.16348 0.55782 0.54943 0.0
C1084 C 0.05803 0.64637 0.55802 0.0
O1085 O 0.07877 0.56815 0.53345 0.0
O1086 O 0.07721 0.62486 0.51649 0.0
C1087 C 0.16657 0.69125 0.49588 0.0
N1088 N 0.16246 0.71721 0.50874 0.0
C1089 C 0.23229 0.79401 0.49904 0.0
C1090 C 0.23705 0.76816 0.48563 0.0
C1091 C 0.20404 0.71656 0.48406 0.0
C1092 C 0.19379 0.76694 0.51032 0.0
H1093 H 0.14156 0.65151 0.49469 0.0
C1094 C 0.06386 0.57968 0.52049 0.0
O1095 O 0.12991 0.55241 0.5602 0.0
O1096 O 0.17835 0.59456 0.53925 0.0
N1097 N 0.15166 0.75991 0.53478 0.0
C1098 C 0.14449 0.77852 0.54907 0.0
C1099 C 0.17585 0.82919 0.55289 0.0
C1100 C 0.21425 0.86018 0.542 0.0
C1101 C 0.2209 0.84021 0.52737 0.0
C1102 C 0.18819 0.78952 0.52414 0.0
H1103 H 0.11532 0.75484 0.55756 0.0
O1104 O 0.18751 0.66631 0.56244 0.0
O1105 O 0.159 0.67582 0.53876 0.0
O1106 O 0.08088 0.62317 0.56231 0.0
O1107 O 0.06697 0.67116 0.54463 0.0
C1108 C 0.25941 0.86835 0.51605 0.0
C1109 C 0.26507 0.84528 0.50188 0.0
H1110 H 0.26625 0.78743 0.47658 0.0
H1111 H 0.20768 0.69629 0.4738 0.0
H1112 H 0.17061 0.84427 0.56425 0.0
H1113 H 0.23866 0.89915 0.54507 0.0
H1114 H 0.2853 0.90761 0.51822 0.0
H1115 H 0.29524 0.86716 0.49339 0.0
Mn1116 Mn 0.38794 0.51879 0.54956 0.0
Mn1117 Mn 0.30707 0.42125 0.52676 0.0
C1118 C 0.30388 0.49285 0.55103 0.0
C1119 C 0.4425 0.60485 0.54934 0.0
C1120 C 0.35405 0.41103 0.55834 0.0
O1121 O 0.43202 0.50956 0.53345 0.0
O1122 O 0.3751 0.45086 0.51666 0.0
C1123 C 0.30838 0.47327 0.49604 0.0
N1124 N 0.28263 0.4435 0.50898 0.0
C1125 C 0.20572 0.43634 0.49935 0.0
C1126 C 0.23135 0.46663 0.48586 0.0
C1127 C 0.28291 0.48517 0.4842 0.0
C1128 C 0.23294 0.42515 0.51064 0.0
H1129 H 0.34809 0.48797 0.49479 0.0
C1130 C 0.42032 0.48289 0.52054 0.0
O1131 O 0.44801 0.57681 0.56013 0.0
O1132 O 0.40572 0.58287 0.53918 0.0
N1133 N 0.24033 0.39059 0.53518 0.0
C1134 C 0.22194 0.36515 0.54954 0.0
C1135 C 0.17135 0.34597 0.55345 0.0
C1136 C 0.14022 0.35313 0.54256 0.0
C1137 C 0.15997 0.37942 0.52785 0.0
C1138 C 0.21058 0.39729 0.52455 0.0
H1139 H 0.24573 0.35985 0.55803 0.0
O1140 O 0.33424 0.52063 0.5625 0.0
O1141 O 0.32443 0.48218 0.53889 0.0
O1142 O 0.37733 0.45719 0.56249 0.0
O1143 O 0.32917 0.39485 0.54499 0.0
C1144 C 0.13167 0.38953 0.51652 0.0
C1145 C 0.15451 0.41793 0.50228 0.0
H1146 H 0.21195 0.47635 0.47679 0.0
H1147 H 0.30301 0.50882 0.47387 0.0
H1148 H 0.15646 0.32593 0.56486 0.0
H1149 H 0.10132 0.33867 0.54569 0.0
H1150 H 0.09246 0.37623 0.51876 0.0
H1151 H 0.13252 0.42604 0.49378 0.0
Mn1152 Mn 0.48152 0.86852 0.54955 0.0
Mn1153 Mn 0.57878 0.88488 0.52667 0.0
C1154 C 0.50729 0.81029 0.55101 0.0
C1155 C 0.39548 0.83713 0.54933 0.0
C1156 C 0.58935 0.94242 0.5582 0.0
O1157 O 0.49082 0.92186 0.53344 0.0
O1158 O 0.54918 0.92329 0.51657 0.0
C1159 C 0.52644 0.83389 0.49603 0.0
N1160 N 0.5563 0.83799 0.50895 0.0
C1161 C 0.56316 0.76799 0.49939 0.0
C1162 C 0.53277 0.76325 0.48592 0.0
C1163 C 0.51434 0.79634 0.48424 0.0
C1164 C 0.57456 0.80658 0.51063 0.0
H1165 H 0.51182 0.85896 0.49477 0.0
C1166 C 0.51735 0.93668 0.5205 0.0
O1167 O 0.42355 0.87068 0.56012 0.0
O1168 O 0.41742 0.82227 0.53919 0.0
N1169 N 0.60939 0.84878 0.53511 0.0
C1170 C 0.63493 0.85593 0.54945 0.0
C1171 C 0.65403 0.82447 0.55338 0.0
C1172 C 0.64667 0.78599 0.54253 0.0
C1173 C 0.62029 0.77936 0.52785 0.0
C1174 C 0.60252 0.81217 0.52451 0.0
H1175 H 0.64037 0.88514 0.5579 0.0
O1176 O 0.4796 0.81291 0.5625 0.0
O1177 O 0.51797 0.84151 0.53887 0.0
O1178 O 0.54325 0.91956 0.56242 0.0
O1179 O 0.60536 0.93356 0.54484 0.0
C1180 C 0.60996 0.74076 0.51657 0.0
C1181 C 0.58147 0.73512 0.50234 0.0
H1182 H 0.52288 0.73398 0.4769 0.0
H1183 H 0.4906 0.79271 0.47393 0.0
H1184 H 0.67415 0.82969 0.56477 0.0
H1185 H 0.66105 0.7615 0.54568 0.0
H1186 H 0.62317 0.71479 0.51882 0.0
H1187 H 0.57318 0.70487 0.49388 0.0
Mn1188 Mn 0.27784 0.465 0.28078 0.0
Mn1189 Mn 0.35957 0.44924 0.30342 0.0
C1190 C 0.3617 0.52385 0.27923 0.0
C1191 C 0.22236 0.49533 0.28122 0.0
C1192 C 0.31197 0.39148 0.27197 0.0
O1193 O 0.23445 0.41143 0.2969 0.0
O1194 O 0.29189 0.41078 0.31373 0.0
C1195 C 0.35912 0.50026 0.33416 0.0
N1196 N 0.38449 0.49617 0.32112 0.0
C1197 C 0.4617 0.56603 0.33054 0.0
C1198 C 0.43645 0.57078 0.34413 0.0
C1199 C 0.38494 0.53775 0.34593 0.0
C1200 C 0.43415 0.5275 0.31932 0.0
H1201 H 0.31945 0.47523 0.33552 0.0
C1202 C 0.24653 0.39699 0.30986 0.0
O1203 O 0.21718 0.46205 0.27037 0.0
O1204 O 0.25947 0.51071 0.29127 0.0
N1205 N 0.42601 0.48543 0.29475 0.0
C1206 C 0.44395 0.47836 0.2803 0.0
C1207 C 0.49441 0.5098 0.27624 0.0
C1208 C 0.52588 0.54818 0.28705 0.0
C1209 C 0.50658 0.55476 0.30185 0.0
C1210 C 0.45609 0.52197 0.30532 0.0
H1211 H 0.41991 0.4492 0.27187 0.0
O1212 O 0.33109 0.521 0.26781 0.0
O1213 O 0.34152 0.49241 0.29134 0.0
O1214 O 0.28877 0.41438 0.26778 0.0
O1215 O 0.337 0.4004 0.2853 0.0
C1216 C 0.53521 0.59327 0.31311 0.0
C1217 C 0.51281 0.59887 0.32745 0.0
H1218 H 0.45611 0.6 0.35314 0.0
H1219 H 0.36514 0.54138 0.35633 0.0
H1220 H 0.50896 0.50461 0.26476 0.0
H1221 H 0.56467 0.57265 0.2838 0.0
H1222 H 0.57435 0.61922 0.31075 0.0
H1223 H 0.53504 0.62906 0.3359 0.0
Mn1224 Mn 0.53155 0.81573 0.28285 0.0
Mn1225 Mn 0.54814 0.91123 0.30696 0.0
C1226 C 0.4725 0.8405 0.28281 0.0
C1227 C 0.50103 0.72981 0.28207 0.0
C1228 C 0.59747 0.92531 0.27344 0.0
O1229 O 0.58675 0.82419 0.29784 0.0
O1230 O 0.59476 0.88714 0.31369 0.0
C1231 C 0.51171 0.85312 0.33788 0.0
N1232 N 0.50813 0.88292 0.32624 0.0
C1233 C 0.43616 0.87758 0.33963 0.0
C1234 C 0.43938 0.84719 0.3518 0.0
C1235 C 0.47732 0.83491 0.35091 0.0
C1236 C 0.47171 0.89491 0.32699 0.0
H1237 H 0.54039 0.84301 0.3372 0.0
C1238 C 0.60656 0.8542 0.30976 0.0
O1239 O 0.53327 0.75896 0.27113 0.0
O1240 O 0.48709 0.75069 0.29294 0.0
N1241 N 0.50484 0.93755 0.30246 0.0
C1242 C 0.50858 0.96972 0.29038 0.0
C1243 C 0.4729 0.98502 0.28934 0.0
C1244 C 0.43468 0.96849 0.30112 0.0
C1245 C 0.43337 0.9379 0.31406 0.0
C1246 C 0.46999 0.92387 0.31441 0.0
H1247 H 0.53934 0.98466 0.28192 0.0
O1248 O 0.47468 0.81376 0.27092 0.0
O1249 O 0.50419 0.8504 0.29478 0.0
O1250 O 0.58019 0.87907 0.27003 0.0
O1251 O 0.58786 0.94125 0.28675 0.0
C1252 C 0.39728 0.92096 0.32667 0.0
C1253 C 0.39863 0.89076 0.33943 0.0
H1254 H 0.41273 0.83281 0.36182 0.0
H1255 H 0.47989 0.81123 0.36021 0.0
H1256 H 0.47525 0.01003 0.27962 0.0
H1257 H 0.4072 0.98037 0.3003 0.0
H1258 H 0.36834 0.93097 0.32667 0.0
H1259 H 0.37056 0.87779 0.34902 0.0
Mn1260 Mn 0.18123 0.71775 0.28208 0.0
Mn1261 Mn 0.08331 0.63653 0.3046 0.0
C1262 C 0.15543 0.63383 0.28036 0.0
C1263 C 0.26715 0.77277 0.28304 0.0
C1264 C 0.07388 0.68447 0.27309 0.0
O1265 O 0.17111 0.76122 0.29809 0.0
O1266 O 0.113 0.70426 0.315 0.0
C1267 C 0.13477 0.63642 0.33527 0.0
N1268 N 0.10513 0.61123 0.32224 0.0
C1269 C 0.09783 0.53387 0.33146 0.0
C1270 C 0.12797 0.55892 0.34505 0.0
C1271 C 0.14652 0.61041 0.34695 0.0
C1272 C 0.08679 0.5616 0.32034 0.0
H1273 H 0.1495 0.67609 0.3367 0.0
C1274 C 0.14478 0.74953 0.31105 0.0
O1275 O 0.23984 0.77854 0.27202 0.0
O1276 O 0.24462 0.73522 0.29287 0.0
N1277 N 0.05257 0.5701 0.29589 0.0
C1278 C 0.02725 0.55231 0.28148 0.0
C1279 C 0.00803 0.50187 0.27735 0.0
C1280 C 0.01507 0.47025 0.28805 0.0
C1281 C 0.04122 0.48936 0.30281 0.0
C1282 C 0.0591 0.53985 0.30636 0.0
H1283 H 0.02204 0.57647 0.27313 0.0
O1284 O 0.18384 0.6646 0.26908 0.0
O1285 O 0.14427 0.65398 0.2925 0.0
O1286 O 0.12005 0.70737 0.26894 0.0
O1287 O 0.0575 0.65961 0.28646 0.0
C1288 C 0.0512 0.46056 0.31397 0.0
C1289 C 0.07944 0.48278 0.32829 0.0
H1290 H 0.13759 0.53911 0.35398 0.0
H1291 H 0.17008 0.63007 0.35734 0.0
H1292 H 0.98805 0.48745 0.2659 0.0
H1293 H 0.00059 0.43146 0.28474 0.0
H1294 H 0.03789 0.42143 0.31155 0.0
H1295 H 0.08745 0.4604 0.33666 0.0
C1296 C 0.32141 0.11816 0.16913 0.0
C1297 C 0.30433 0.12675 0.1542 0.0
H1298 H 0.36313 0.14977 0.19107 0.0
C1299 C 0.31698 0.17604 0.15007 0.0
H1300 H 0.31229 0.08079 0.17273 0.0
C1301 C 0.34602 0.21577 0.16061 0.0
C1302 C 0.3631 0.20718 0.17555 0.0
H1303 H 0.30429 0.18415 0.13868 0.0
H1304 H 0.35514 0.25314 0.15702 0.0
C1305 C 0.35046 0.15789 0.17968 0.0
C1306 C 0.84211 0.19406 0.17935 0.0
C1307 C 0.79315 0.15609 0.17557 0.0
H1308 H 0.91896 0.23356 0.17219 0.0
C1309 C 0.78486 0.1287 0.161 0.0
H1310 H 0.84995 0.21621 0.19043 0.0
C1311 C 0.82453 0.13903 0.15047 0.0
C1312 C 0.87349 0.177 0.15425 0.0
H1313 H 0.74768 0.09952 0.15763 0.0
H1314 H 0.81669 0.11687 0.13939 0.0
C1315 C 0.88178 0.20439 0.16882 0.0
C1316 C 0.86919 0.65268 0.16132 0.0
C1317 C 0.84226 0.63627 0.17608 0.0
H1318 H 0.88262 0.69503 0.1393 0.0
C1319 C 0.80691 0.65092 0.1798 0.0
H1320 H 0.89654 0.64203 0.15803 0.0
C1321 C 0.79871 0.68124 0.16902 0.0
C1322 C 0.82562 0.69762 0.15426 0.0
H1323 H 0.78527 0.63887 0.19105 0.0
H1324 H 0.77135 0.69186 0.17231 0.0
C1325 C 0.86099 0.683 0.15055 0.0
C1326 C 0.1768 0.31617 0.34644 0.0
C1327 C 0.12703 0.30255 0.34275 0.0
H1328 H 0.25341 0.35633 0.33901 0.0
C1329 C 0.11703 0.31993 0.3281 0.0
H1330 H 0.18598 0.30334 0.35759 0.0
C1331 C 0.15583 0.35023 0.31742 0.0
C1332 C 0.2056 0.36388 0.32112 0.0
H1333 H 0.07923 0.31012 0.32485 0.0
H1334 H 0.14663 0.36307 0.30627 0.0
C1335 C 0.21561 0.34649 0.33575 0.0
C1336 C 0.68346 0.80061 0.32737 0.0
C1337 C 0.70166 0.82809 0.34197 0.0
H1338 H 0.63972 0.7876 0.30567 0.0
C1339 C 0.6905 0.86613 0.34542 0.0
H1340 H 0.69161 0.77137 0.32426 0.0
C1341 C 0.661 0.87573 0.33473 0.0
C1342 C 0.64184 0.84752 0.32031 0.0
H1343 H 0.70427 0.88852 0.35647 0.0
H1344 H 0.65247 0.90464 0.33796 0.0
C1345 C 0.65386 0.81018 0.31667 0.0
C1346 C 0.1992 0.87985 0.32874 0.0
C1347 C 0.17269 0.87076 0.34353 0.0
H1348 H 0.21112 0.84905 0.30695 0.0
C1349 C 0.13633 0.82126 0.34752 0.0
H1350 H 0.22729 0.9174 0.32525 0.0
C1351 C 0.12681 0.78181 0.33697 0.0
C1352 C 0.15339 0.79095 0.3222 0.0
H1353 H 0.11496 0.8128 0.3588 0.0
H1354 H 0.09876 0.74422 0.34044 0.0
C1355 C 0.18969 0.84047 0.31822 0.0
C1356 C 0.64907 0.84554 0.8152 0.0
C1357 C 0.63528 0.79593 0.81929 0.0
H1358 H 0.6889 0.9226 0.82222 0.0
C1359 C 0.65187 0.78668 0.83422 0.0
H1360 H 0.63681 0.85413 0.8038 0.0
C1361 C 0.68159 0.82603 0.84479 0.0
C1362 C 0.69546 0.87565 0.8407 0.0
H1363 H 0.64187 0.74905 0.83779 0.0
H1364 H 0.69379 0.81733 0.85618 0.0
C1365 C 0.67884 0.88494 0.82578 0.0
C1366 C 0.11987 0.79075 0.82948 0.0
C1367 C 0.12855 0.81948 0.84374 0.0
H1368 H 0.15081 0.77754 0.80794 0.0
C1369 C 0.17777 0.85718 0.84738 0.0
H1370 H 0.08256 0.7615 0.82626 0.0
C1371 C 0.21715 0.8667 0.83678 0.0
C1372 C 0.20819 0.8388 0.8223 0.0
H1373 H 0.18591 0.88015 0.85827 0.0
H1374 H 0.25442 0.89632 0.83986 0.0
C1375 C 0.15916 0.80029 0.81889 0.0
C1376 C 0.20198 0.32084 0.82755 0.0
C1377 C 0.1746 0.3034 0.8422 0.0
H1378 H 0.21555 0.36416 0.80575 0.0
C1379 C 0.13858 0.31715 0.84593 0.0
H1380 H 0.22987 0.31093 0.82427 0.0
C1381 C 0.13017 0.3476 0.83529 0.0
C1382 C 0.15752 0.36502 0.82065 0.0
H1383 H 0.11657 0.3043 0.85709 0.0
H1384 H 0.10226 0.35747 0.83858 0.0
C1385 C 0.19357 0.3513 0.81691 0.0
C1386 C 0.84443 0.65011 0.6793 0.0
C1387 C 0.79468 0.63587 0.67532 0.0
H1388 H 0.92133 0.6909 0.67223 0.0
C1389 C 0.78504 0.65283 0.66052 0.0
H1390 H 0.85335 0.63765 0.69059 0.0
C1391 C 0.82417 0.6833 0.64997 0.0
C1392 C 0.87392 0.69755 0.65395 0.0
H1393 H 0.74728 0.64253 0.65704 0.0
H1394 H 0.81524 0.69576 0.63868 0.0
C1395 C 0.88357 0.68059 0.66875 0.0
C1396 C 0.34983 0.19399 0.68012 0.0
C1397 C 0.36312 0.15763 0.67637 0.0
H1398 H 0.31017 0.23103 0.67277 0.0
C1399 C 0.34556 0.1304 0.66171 0.0
H1400 H 0.36279 0.21589 0.69129 0.0
C1401 C 0.31545 0.13929 0.65105 0.0
C1402 C 0.30219 0.17568 0.65479 0.0
H1403 H 0.35512 0.10226 0.6584 0.0
H1404 H 0.3025 0.11739 0.63988 0.0
C1405 C 0.31972 0.20288 0.66947 0.0
C1406 C 0.8058 0.15556 0.67972 0.0
C1407 C 0.84164 0.2053 0.67583 0.0
H1408 H 0.76946 0.07869 0.67256 0.0
C1409 C 0.86862 0.21496 0.66111 0.0
H1410 H 0.78413 0.14663 0.69095 0.0
C1411 C 0.86 0.17587 0.65055 0.0
C1412 C 0.82416 0.12613 0.65443 0.0
H1413 H 0.89635 0.25272 0.65769 0.0
H1414 H 0.88169 0.18483 0.63932 0.0
C1415 C 0.79719 0.11645 0.66915 0.0
C1416 C 0.01666 0.48861 0.51332 0.0
C1417 C 0.03059 0.53833 0.50938 0.0
H1418 H 0.97614 0.41171 0.50621 0.0
C1419 C 0.01325 0.54791 0.49466 0.0
H1420 H 0.02942 0.47975 0.52455 0.0
C1421 C 0.98276 0.50876 0.48412 0.0
C1422 C 0.96889 0.45905 0.48804 0.0
H1423 H 0.02328 0.58565 0.49122 0.0
H1424 H 0.97004 0.51765 0.47288 0.0
C1425 C 0.98617 0.44945 0.50277 0.0
C1426 C 0.45178 0.4638 0.49466 0.0
C1427 C 0.4615 0.49104 0.50932 0.0
H1428 H 0.48177 0.45068 0.47284 0.0
C1429 C 0.51118 0.52733 0.51307 0.0
H1430 H 0.41406 0.43571 0.49136 0.0
C1431 C 0.55016 0.53613 0.50242 0.0
C1432 C 0.54044 0.50891 0.48775 0.0
H1433 H 0.52017 0.54925 0.52424 0.0
H1434 H 0.58788 0.56422 0.50572 0.0
C1435 C 0.49076 0.4726 0.48401 0.0
C1436 C 0.4648 0.01404 0.50254 0.0
C1437 C 0.49162 0.03106 0.48778 0.0
H1438 H 0.45192 0.97119 0.52442 0.0
C1439 C 0.52744 0.01713 0.48393 0.0
H1440 H 0.43709 0.0241 0.50592 0.0
C1441 C 0.53616 0.98687 0.49456 0.0
C1442 C 0.5093 0.96979 0.50931 0.0
H1443 H 0.54903 0.02967 0.47268 0.0
H1444 H 0.56385 0.97679 0.49117 0.0
C1445 C 0.4735 0.98375 0.51317 0.0
C1446 C 0.51098 0.98316 0.01226 0.0
C1447 C 0.46106 0.96902 0.00861 0.0
H1448 H 0.58748 0.02376 0.00474 0.0
C1449 C 0.45064 0.98588 0.99393 0.0
H1450 H 0.52049 0.97074 0.02344 0.0
C1451 C 0.48921 0.01623 0.98318 0.0
C1452 C 0.53914 0.03042 0.98684 0.0
H1453 H 0.41271 0.97564 0.99071 0.0
H1454 H 0.47972 0.02868 0.972 0.0
C1455 C 0.54954 0.0135 0.00151 0.0
C1456 C 0.98108 0.47257 0.98415 0.0
C1457 C 0.96995 0.51042 0.98795 0.0
H1458 H 0.01856 0.4332 0.9913 0.0
C1459 C 0.98887 0.5377 0.00255 0.0
H1460 H 0.9669 0.4505 0.97305 0.0
C1461 C 0.01822 0.5274 0.01308 0.0
C1462 C 0.02939 0.48957 0.00928 0.0
H1463 H 0.98076 0.56679 0.00593 0.0
H1464 H 0.03242 0.54948 0.02418 0.0
C1465 C 0.01043 0.46227 0.99469 0.0
C1466 C 0.46389 0.45105 0.00254 0.0
C1467 C 0.48927 0.45972 0.98754 0.0
H1468 H 0.45392 0.4826 0.02452 0.0
C1469 C 0.52556 0.50909 0.98334 0.0
H1470 H 0.43593 0.41362 0.00618 0.0
C1471 C 0.53615 0.5488 0.99388 0.0
C1472 C 0.51076 0.54014 0.00887 0.0
H1473 H 0.54612 0.51728 0.9719 0.0
H1474 H 0.56411 0.58623 0.99022 0.0
C1475 C 0.47448 0.49078 0.01307 0.0
C1476 C 0.33998 0.99194 0.09828 0.0
C1477 C 0.31159 0.0139 0.09338 0.0
H1478 H 0.37691 0.95231 0.09081 0.0
C1479 C 0.30823 0.02207 0.07657 0.0
H1480 H 0.34419 0.98597 0.11117 0.0
C1481 C 0.32728 0.00291 0.06489 0.0
C1482 C 0.35 0.97525 0.06981 0.0
H1483 H 0.28723 0.03939 0.07236 0.0
H1484 H 0.32066 0.00646 0.05201 0.0
C1485 C 0.35901 0.97277 0.0866 0.0
C1486 C 0.99807 0.35115 0.07547 0.0
C1487 C 0.0474 0.37124 0.06978 0.0
H1488 H 0.94206 0.29916 0.09234 0.0
C1489 C 0.07785 0.35427 0.07647 0.0
H1490 H 0.97399 0.36391 0.07041 0.0
C1491 C 0.05903 0.31596 0.0879 0.0
C1492 C 0.01062 0.29654 0.09407 0.0
H1493 H 0.11651 0.37056 0.0728 0.0
H1494 H 0.08249 0.3012 0.09182 0.0
C1495 C 0.97977 0.314 0.08777 0.0
C1496 C 0.68161 0.67563 0.06458 0.0
C1497 C 0.63128 0.65345 0.06952 0.0
H1498 H 0.75824 0.71534 0.07199 0.0
C1499 C 0.61989 0.64503 0.08633 0.0
H1500 H 0.6917 0.68181 0.05168 0.0
C1501 C 0.6582 0.66411 0.09798 0.0
C1502 C 0.70855 0.69195 0.09303 0.0
H1503 H 0.58159 0.62754 0.09058 0.0
H1504 H 0.64813 0.66035 0.11088 0.0
C1505 C 0.71992 0.69473 0.07623 0.0
C1506 C 0.97361 0.35605 0.4105 0.0
C1507 C 0.9762 0.3472 0.42729 0.0
H1508 H 0.98689 0.34118 0.38594 0.0
C1509 C 0.00415 0.3248 0.43224 0.0
H1510 H 0.95296 0.37371 0.40627 0.0
C1511 C 0.0235 0.30589 0.42057 0.0
C1512 C 0.01522 0.30906 0.40376 0.0
H1513 H 0.00777 0.3183 0.44513 0.0
H1514 H 0.04101 0.28509 0.4248 0.0
C1515 C 0.99296 0.33714 0.39884 0.0
C1516 C 0.6445 0.6168 0.41014 0.0
C1517 C 0.65346 0.62822 0.42694 0.0
H1518 H 0.65889 0.64501 0.38558 0.0
C1519 C 0.67574 0.67857 0.43188 0.0
H1520 H 0.62697 0.57848 0.40591 0.0
C1521 C 0.69419 0.71686 0.42021 0.0
C1522 C 0.69079 0.7055 0.40339 0.0
H1523 H 0.68236 0.68868 0.44476 0.0
H1524 H 0.71483 0.75519 0.42444 0.0
C1525 C 0.66302 0.6551 0.39847 0.0
C1526 C 0.3834 0.02683 0.41017 0.0
C1527 C 0.37239 0.024 0.42701 0.0
H1528 H 0.35462 0.01379 0.3857 0.0
C1529 C 0.32217 0.99595 0.43208 0.0
H1530 H 0.42161 0.04759 0.40584 0.0
C1531 C 0.28361 0.97671 0.42052 0.0
C1532 C 0.29461 0.98519 0.40369 0.0
H1533 H 0.3124 0.99216 0.445 0.0
H1534 H 0.2454 0.95906 0.42487 0.0
C1535 C 0.34484 0.00757 0.39862 0.0
C1536 C 0.69281 0.97913 0.91871 0.0
C1537 C 0.68934 0.98737 0.90192 0.0
H1538 H 0.68059 0.99464 0.94332 0.0
C1539 C 0.66108 0.00955 0.8971 0.0
H1540 H 0.71377 0.96171 0.92287 0.0
C1541 C 0.64219 0.02873 0.90883 0.0
C1542 C 0.65122 0.02606 0.9256 0.0
H1543 H 0.65682 0.01563 0.88422 0.0
H1544 H 0.62433 0.04927 0.90467 0.0
C1545 C 0.67392 0.99831 0.93045 0.0
C1546 C 0.00247 0.65099 0.92221 0.0
C1547 C 0.95289 0.63023 0.92771 0.0
H1548 H 0.05864 0.70359 0.90552 0.0
C1549 C 0.92222 0.64681 0.92094 0.0
H1550 H 0.02671 0.63854 0.92735 0.0
C1551 C 0.94098 0.68526 0.90956 0.0
C1552 C 0.98966 0.70533 0.90357 0.0
H1553 H 0.88341 0.63006 0.92449 0.0
H1554 H 0.91724 0.69956 0.90552 0.0
C1555 C 0.02077 0.68834 0.90998 0.0
C1556 C 0.31863 0.32484 0.93174 0.0
C1557 C 0.369 0.34714 0.92681 0.0
H1558 H 0.24205 0.28509 0.92429 0.0
C1559 C 0.38045 0.35583 0.91001 0.0
H1560 H 0.3085 0.31848 0.94463 0.0
C1561 C 0.3422 0.33685 0.89835 0.0
C1562 C 0.29183 0.30883 0.90327 0.0
H1563 H 0.41877 0.37344 0.90578 0.0
H1564 H 0.35232 0.3408 0.88545 0.0
C1565 C 0.28037 0.30582 0.92007 0.0
C1566 C 0.97804 0.69375 0.57654 0.0
C1567 C 0.98676 0.69131 0.59335 0.0
H1568 H 0.993 0.68019 0.55203 0.0
C1569 C 0.00919 0.66345 0.59838 0.0
H1570 H 0.96037 0.71434 0.57224 0.0
C1571 C 0.02817 0.64398 0.58678 0.0
C1572 C 0.02505 0.65204 0.56995 0.0
H1573 H 0.0156 0.65994 0.61128 0.0
H1574 H 0.04895 0.62651 0.59107 0.0
C1575 C 0.99701 0.67428 0.56494 0.0
C1576 C 0.33649 0.34607 0.59894 0.0
C1577 C 0.30907 0.29563 0.59404 0.0
H1578 H 0.37316 0.42262 0.59142 0.0
C1579 C 0.307 0.28412 0.57726 0.0
H1580 H 0.33967 0.35626 0.61181 0.0
C1581 C 0.32646 0.32232 0.56556 0.0
C1582 C 0.34837 0.37271 0.57043 0.0
H1583 H 0.28673 0.24575 0.57305 0.0
H1584 H 0.32084 0.31213 0.55267 0.0
C1585 C 0.356 0.38427 0.58724 0.0
C1586 C 0.71649 0.02237 0.57692 0.0
C1587 C 0.70511 0.01342 0.59372 0.0
H1588 H 0.68827 0.00766 0.55237 0.0
C1589 C 0.65475 0.9908 0.59867 0.0
H1590 H 0.75481 0.04017 0.57268 0.0
C1591 C 0.61645 0.97191 0.58702 0.0
C1592 C 0.62785 0.97529 0.5702 0.0
H1593 H 0.64467 0.98419 0.61156 0.0
H1594 H 0.57814 0.951 0.59125 0.0
C1595 C 0.67819 0.00347 0.56527 0.0
C1596 C 0.6898 0.64023 0.75258 0.0
C1597 C 0.6815 0.64278 0.73574 0.0
H1598 H 0.67415 0.65356 0.77703 0.0
C1599 C 0.65915 0.67062 0.73062 0.0
H1600 H 0.70739 0.61964 0.75695 0.0
C1601 C 0.63979 0.68993 0.74214 0.0
C1602 C 0.64247 0.68174 0.75898 0.0
H1603 H 0.65306 0.6742 0.71769 0.0
H1604 H 0.6191 0.7074 0.73776 0.0
C1605 C 0.67047 0.65956 0.7641 0.0
C1606 C 0.36176 0.05158 0.7544 0.0
C1607 C 0.35763 0.03998 0.73759 0.0
H1608 H 0.34989 0.02354 0.77898 0.0
C1609 C 0.3285 0.98967 0.73273 0.0
H1610 H 0.38344 0.08989 0.75858 0.0
C1611 C 0.30932 0.95147 0.74443 0.0
C1612 C 0.31901 0.9629 0.7612 0.0
H1613 H 0.32372 0.97946 0.71984 0.0
H1614 H 0.29076 0.9131 0.74021 0.0
C1615 C 0.34262 0.01337 0.76611 0.0
C1616 C 0.01104 0.34089 0.73156 0.0
C1617 C 0.96074 0.3188 0.73654 0.0
H1618 H 0.08772 0.3809 0.73889 0.0
C1619 C 0.94951 0.31098 0.75337 0.0
H1620 H 0.02099 0.34662 0.71865 0.0
C1621 C 0.98792 0.33053 0.76498 0.0
C1622 C 0.03823 0.35822 0.75997 0.0
H1623 H 0.91124 0.29363 0.75764 0.0
H1624 H 0.97796 0.32722 0.77788 0.0
C1625 C 0.04945 0.36043 0.74317 0.0
C1626 C 0.32749 0.3421 0.2315 0.0
C1627 C 0.35564 0.31986 0.23638 0.0
H1628 H 0.29077 0.38189 0.23901 0.0
C1629 C 0.35873 0.31135 0.25317 0.0
H1630 H 0.32347 0.34833 0.21862 0.0
C1631 C 0.33969 0.33044 0.26487 0.0
C1632 C 0.31724 0.35839 0.25999 0.0
H1633 H 0.37953 0.2938 0.25736 0.0
H1634 H 0.3461 0.32662 0.27775 0.0
C1635 C 0.30846 0.36122 0.2432 0.0
C1636 C 0.58855 0.97938 0.25345 0.0
C1637 C 0.61856 0.96161 0.25995 0.0
H1638 H 0.58445 0.03296 0.23819 0.0
C1639 C 0.66761 0.98093 0.25408 0.0
H1640 H 0.55005 0.96362 0.25723 0.0
C1641 C 0.6861 0.01814 0.2418 0.0
C1642 C 0.65573 0.03642 0.2357 0.0
H1643 H 0.69136 0.96758 0.259 0.0
H1644 H 0.72358 0.0324 0.2371 0.0
C1645 C 0.60757 0.01769 0.24202 0.0
C1646 C 0.94714 0.63816 0.25415 0.0
C1647 C 0.95878 0.64082 0.23737 0.0
H1648 H 0.97494 0.65114 0.27875 0.0
C1649 C 0.00925 0.66843 0.23251 0.0
H1650 H 0.90875 0.61773 0.25832 0.0
C1651 C 0.04736 0.68747 0.24424 0.0
C1652 C 0.03567 0.67923 0.26103 0.0
H1653 H 0.01954 0.67208 0.21964 0.0
H1654 H 0.08572 0.70477 0.24008 0.0
C1655 C 0.98525 0.65721 0.26587 0.0
C1656 C 0.11493 0.18455 0.1037 0.0
C1657 C 0.0845 0.17617 0.11758 0.0
H1658 H 0.16813 0.16922 0.09194 0.0
C1659 C 0.09078 0.15305 0.13142 0.0
H1660 H 0.10975 0.20134 0.09272 0.0
C1661 C 0.12429 0.13553 0.13107 0.0
C1662 C 0.15074 0.13888 0.1166 0.0
H1663 H 0.06614 0.14375 0.14191 0.0
H1664 H 0.12599 0.11528 0.1417 0.0
C1665 C 0.14811 0.16607 0.10321 0.0
C1666 C 0.84474 0.98171 0.10048 0.0
C1667 C 0.86725 0.0088 0.11486 0.0
H1668 H 0.81367 0.91039 0.08841 0.0
C1669 C 0.86735 0.98291 0.12906 0.0
H1670 H 0.84437 0.0008 0.08936 0.0
C1671 C 0.85091 0.93212 0.12843 0.0
C1672 C 0.83179 0.90541 0.11382 0.0
H1673 H 0.88412 0.00265 0.1404 0.0
H1674 H 0.85749 0.91489 0.139 0.0
C1675 C 0.82724 0.93014 0.09996 0.0
C1676 C 0.02032 0.87772 0.12914 0.0
C1677 C 0.99568 0.8517 0.11479 0.0
H1678 H 0.08753 0.93609 0.13952 0.0
C1679 C 0.02401 0.8562 0.10074 0.0
H1680 H 0.99952 0.87475 0.14022 0.0
C1681 C 0.07547 0.89055 0.10059 0.0
C1682 C 0.09894 0.92016 0.11451 0.0
H1683 H 0.0059 0.8367 0.08951 0.0
H1684 H 0.09608 0.89694 0.08922 0.0
C1685 C 0.07117 0.91221 0.1289 0.0
C1686 C 0.13788 0.11984 0.36822 0.0
C1687 C 0.14004 0.14673 0.38243 0.0
H1688 H 0.14587 0.06069 0.35811 0.0
C1689 C 0.16416 0.14268 0.39648 0.0
H1690 H 0.11982 0.12243 0.35714 0.0
C1691 C 0.18098 0.1081 0.39677 0.0
C1692 C 0.17423 0.07781 0.38299 0.0
H1693 H 0.16615 0.16286 0.4076 0.0
H1694 H 0.19561 0.10223 0.40813 0.0
C1695 C 0.1539 0.08511 0.3686 0.0
C1696 C 0.89345 0.07263 0.39697 0.0
C1697 C 0.92321 0.09616 0.38309 0.0
H1698 H 0.83905 0.00302 0.40792 0.0
C1699 C 0.91547 0.06849 0.36869 0.0
H1700 H 0.89969 0.09317 0.40835 0.0
C1701 C 0.88074 0.01774 0.36836 0.0
C1702 C 0.85431 0.99303 0.38264 0.0
H1703 H 0.93948 0.08492 0.3581 0.0
H1704 H 0.87776 0.99706 0.35725 0.0
C1705 C 0.85885 0.02121 0.39674 0.0
C1706 C 0.97853 0.83711 0.39727 0.0
C1707 C 0.00692 0.86079 0.38321 0.0
H1708 H 0.90632 0.80565 0.40871 0.0
C1709 C 0.9824 0.86218 0.36883 0.0
H1710 H 0.99656 0.83572 0.40851 0.0
C1711 C 0.93163 0.84592 0.36903 0.0
C1712 C 0.9037 0.82596 0.38339 0.0
H1713 H 0.00323 0.87987 0.35774 0.0
H1714 H 0.91541 0.85347 0.35839 0.0
C1715 C 0.92705 0.81995 0.39736 0.0
C1716 C 0.87759 0.86573 0.86446 0.0
C1717 C 0.85028 0.86209 0.87874 0.0
H1718 H 0.93659 0.85801 0.85403 0.0
C1719 C 0.85285 0.83536 0.89229 0.0
H1720 H 0.87601 0.88569 0.85373 0.0
C1721 C 0.88662 0.81758 0.89214 0.0
C1722 C 0.91767 0.82607 0.87842 0.0
H1723 H 0.83224 0.83205 0.90344 0.0
H1724 H 0.8916 0.80112 0.90323 0.0
C1725 C 0.9116 0.84876 0.86442 0.0
C1726 C 0.13527 0.01815 0.86719 0.0
C1727 C 0.13538 0.99247 0.88145 0.0
H1728 H 0.14463 0.08586 0.85715 0.0
C1729 C 0.15762 0.01977 0.89582 0.0
H1730 H 0.1187 0.99825 0.85586 0.0
C1731 C 0.17477 0.07127 0.89627 0.0
C1732 C 0.17009 0.09573 0.88236 0.0
H1733 H 0.15799 0.00088 0.90699 0.0
H1734 H 0.18808 0.09115 0.90781 0.0
C1735 C 0.15133 0.06887 0.86776 0.0
C1736 C 0.98072 0.12291 0.86674 0.0
C1737 C 0.00498 0.14839 0.88121 0.0
H1738 H 0.91373 0.06506 0.85608 0.0
C1739 C 0.97629 0.14344 0.89521 0.0
H1740 H 0.00182 0.12626 0.8557 0.0
C1741 C 0.9248 0.10917 0.89517 0.0
C1742 C 0.90169 0.08011 0.88112 0.0
H1743 H 0.9941 0.16253 0.90652 0.0
H1744 H 0.90388 0.10242 0.90649 0.0
C1745 C 0.92985 0.08852 0.86679 0.0
C1746 C 0.84636 0.91382 0.62858 0.0
C1747 C 0.8263 0.92162 0.61422 0.0
H1748 H 0.88052 0.87636 0.63989 0.0
C1749 C 0.82017 0.89205 0.60029 0.0
H1750 H 0.8539 0.93769 0.63919 0.0
C1751 C 0.8373 0.85771 0.60042 0.0
C1752 C 0.86114 0.85319 0.61447 0.0
H1753 H 0.80577 0.89833 0.58894 0.0
H1754 H 0.83579 0.83814 0.5892 0.0
C1755 C 0.86268 0.87932 0.62881 0.0
C1756 C 0.12015 0.9829 0.62891 0.0
C1757 C 0.14684 0.0079 0.6147 0.0
H1758 H 0.06135 0.91548 0.639 0.0
C1759 C 0.1427 0.97997 0.60057 0.0
H1760 H 0.1228 0.00337 0.64004 0.0
C1761 C 0.10828 0.9285 0.60024 0.0
C1762 C 0.07828 0.90467 0.61405 0.0
H1763 H 0.16269 0.99838 0.58944 0.0
H1764 H 0.10237 0.90815 0.58884 0.0
C1765 C 0.08558 0.93211 0.62848 0.0
C1766 C 0.06813 0.15348 0.62887 0.0
C1767 C 0.09595 0.17383 0.61451 0.0
H1768 H 0.99654 0.11905 0.64021 0.0
C1769 C 0.07243 0.18008 0.60063 0.0
H1770 H 0.08452 0.14584 0.63945 0.0
C1771 C 0.02094 0.16287 0.60081 0.0
C1772 C 0.99264 0.13881 0.61484 0.0
H1773 H 0.09308 0.1947 0.58929 0.0
H1774 H 0.00283 0.16454 0.58962 0.0
C1775 C 0.01729 0.13706 0.62914 0.0
C1776 C 0.7519 0.48583 0.46217 0.0
C1777 C 0.74484 0.50641 0.44779 0.0
H1778 H 0.78861 0.45106 0.4736 0.0
C1779 C 0.77488 0.51273 0.43398 0.0
H1780 H 0.72768 0.47821 0.4727 0.0
C1781 C 0.80906 0.4954 0.43425 0.0
C1782 C 0.81291 0.47113 0.44829 0.0
H1783 H 0.76917 0.52752 0.42263 0.0
H1784 H 0.82912 0.49721 0.42312 0.0
C1785 C 0.78618 0.46923 0.46252 0.0
C1786 C 0.48803 0.26105 0.43355 0.0
C1787 C 0.49429 0.23745 0.44741 0.0
H1788 H 0.50318 0.33069 0.42265 0.0
C1789 C 0.51433 0.26509 0.46181 0.0
H1790 H 0.47368 0.24054 0.42217 0.0
C1791 C 0.53028 0.31582 0.46218 0.0
C1792 C 0.52847 0.3406 0.44792 0.0
H1793 H 0.52199 0.24865 0.47237 0.0
H1794 H 0.548 0.33644 0.4733 0.0
C1795 C 0.50484 0.31247 0.43381 0.0
C1796 C 0.73521 0.24616 0.46215 0.0
C1797 C 0.76299 0.25412 0.44776 0.0
H1798 H 0.66365 0.20851 0.4735 0.0
C1799 C 0.73954 0.22457 0.43383 0.0
H1800 H 0.75154 0.27002 0.47277 0.0
C1801 C 0.68809 0.19015 0.43399 0.0
C1802 C 0.65979 0.18553 0.44806 0.0
H1803 H 0.76017 0.23096 0.42247 0.0
H1804 H 0.66998 0.17064 0.42276 0.0
C1805 C 0.68442 0.21157 0.4624 0.0
C1806 C 0.83007 0.47527 0.72931 0.0
C1807 C 0.80664 0.48 0.71519 0.0
H1808 H 0.86078 0.43413 0.74096 0.0
C1809 C 0.80497 0.45361 0.7009 0.0
H1810 H 0.83164 0.49503 0.74049 0.0
C1811 C 0.82072 0.41868 0.70125 0.0
C1812 C 0.84039 0.41073 0.71568 0.0
H1813 H 0.78744 0.45673 0.68977 0.0
H1814 H 0.81303 0.39464 0.69067 0.0
C1815 C 0.84668 0.44052 0.72956 0.0
C1816 C 0.54725 0.35084 0.70108 0.0
C1817 C 0.5207 0.32657 0.7154 0.0
H1818 H 0.60619 0.41764 0.6907 0.0
C1819 C 0.52526 0.35519 0.72938 0.0
H1820 H 0.54426 0.32984 0.69005 0.0
C1821 C 0.55996 0.40659 0.72948 0.0
C1822 C 0.58982 0.42967 0.71558 0.0
H1823 H 0.50537 0.33737 0.74059 0.0
H1824 H 0.56619 0.42747 0.74078 0.0
C1825 C 0.58209 0.40158 0.70128 0.0
C1826 C 0.64521 0.17024 0.72967 0.0
C1827 C 0.67322 0.19374 0.71552 0.0
H1828 H 0.57347 0.13931 0.74141 0.0
C1829 C 0.64829 0.19529 0.70127 0.0
H1830 H 0.66354 0.16873 0.74083 0.0
C1831 C 0.59752 0.17922 0.70167 0.0
C1832 C 0.57007 0.15952 0.71614 0.0
H1833 H 0.66881 0.21287 0.69012 0.0
H1834 H 0.58094 0.18666 0.6911 0.0
C1835 C 0.59382 0.15343 0.72998 0.0
C1836 C 0.57606 0.18029 0.19839 0.0
C1837 C 0.58226 0.15713 0.21224 0.0
H1838 H 0.54101 0.21822 0.18811 0.0
C1839 C 0.55183 0.14879 0.22611 0.0
H1840 H 0.60071 0.18955 0.1879 0.0
C1841 C 0.51874 0.16737 0.22659 0.0
C1842 C 0.51621 0.19463 0.2132 0.0
H1843 H 0.55695 0.13196 0.23708 0.0
H1844 H 0.49872 0.16426 0.23787 0.0
C1845 C 0.54264 0.19792 0.19874 0.0
C1846 C 0.79956 0.35032 0.20092 0.0
C1847 C 0.7996 0.32427 0.21509 0.0
H1848 H 0.8096 0.4185 0.19106 0.0
C1849 C 0.82211 0.35121 0.22949 0.0
H1850 H 0.78278 0.3307 0.18957 0.0
C1851 C 0.83968 0.40279 0.23007 0.0
C1852 C 0.83522 0.42769 0.21624 0.0
H1853 H 0.82242 0.332 0.24059 0.0
H1854 H 0.85325 0.42243 0.24163 0.0
C1855 C 0.8161 0.40113 0.2016 0.0
C1856 C 0.64323 0.47728 0.2293 0.0
C1857 C 0.67169 0.48188 0.21527 0.0
H1858 H 0.57103 0.43652 0.24073 0.0
C1859 C 0.64717 0.45606 0.20088 0.0
H1860 H 0.66124 0.49663 0.24056 0.0
C1861 C 0.59628 0.42164 0.20105 0.0
C1862 C 0.56838 0.41357 0.21542 0.0
H1863 H 0.66806 0.45912 0.18982 0.0
H1864 H 0.58 0.39789 0.1904 0.0
C1865 C 0.59174 0.443 0.22938 0.0
C1866 C 0.49962 0.18991 0.93373 0.0
C1867 C 0.52356 0.18537 0.94774 0.0
H1868 H 0.46804 0.23056 0.92231 0.0
C1869 C 0.52493 0.21124 0.96213 0.0
H1870 H 0.49821 0.17051 0.92247 0.0
C1871 C 0.50843 0.24561 0.96196 0.0
C1872 C 0.48847 0.2536 0.94761 0.0
H1873 H 0.54283 0.20823 0.97318 0.0
H1874 H 0.51593 0.26939 0.9726 0.0
C1875 C 0.48236 0.22414 0.93365 0.0
C1876 C 0.80465 0.31575 0.9338 0.0
C1877 C 0.8089 0.34256 0.94822 0.0
H1878 H 0.76472 0.24465 0.92158 0.0
C1879 C 0.78265 0.31637 0.96235 0.0
H1880 H 0.82431 0.33507 0.92273 0.0
C1881 C 0.7484 0.26557 0.9616 0.0
C1882 C 0.74113 0.23916 0.94694 0.0
H1883 H 0.78536 0.3359 0.97371 0.0
H1884 H 0.72441 0.24809 0.97211 0.0
C1885 C 0.77066 0.26419 0.93315 0.0
C1886 C 0.73662 0.51798 0.93701 0.0
C1887 C 0.75861 0.50975 0.95094 0.0
H1888 H 0.66814 0.50251 0.92518 0.0
C1889 C 0.72915 0.48683 0.96479 0.0
H1890 H 0.75864 0.53464 0.92604 0.0
C1891 C 0.67812 0.46931 0.96439 0.0
C1892 C 0.65507 0.47248 0.94989 0.0
H1893 H 0.74443 0.47765 0.97533 0.0
H1894 H 0.6561 0.44918 0.97503 0.0
C1895 C 0.68496 0.49951 0.93649 0.0
C1896 C 0.44144 0.84858 0.76619 0.0
C1897 C 0.41249 0.84255 0.78028 0.0
H1898 H 0.49456 0.8325 0.75473 0.0
C1899 C 0.42078 0.82242 0.79454 0.0
H1900 H 0.43475 0.86302 0.75492 0.0
C1901 C 0.45513 0.80595 0.79452 0.0
C1902 C 0.4805 0.80725 0.78002 0.0
H1903 H 0.3973 0.81481 0.80526 0.0
H1904 H 0.45847 0.78811 0.80554 0.0
C1905 C 0.47554 0.83116 0.76607 0.0
C1906 C 0.17169 0.64715 0.76702 0.0
C1907 C 0.19584 0.67509 0.7811 0.0
H1908 H 0.13964 0.57523 0.75532 0.0
C1909 C 0.19762 0.65012 0.7953 0.0
H1910 H 0.17002 0.66556 0.7559 0.0
C1911 C 0.18106 0.59926 0.7949 0.0
C1912 C 0.16057 0.57177 0.7805 0.0
H1913 H 0.2157 0.67062 0.8064 0.0
H1914 H 0.18864 0.58258 0.80541 0.0
C1915 C 0.15436 0.59563 0.7667 0.0
C1916 C 0.40184 0.58255 0.79425 0.0
C1917 C 0.42922 0.58965 0.77982 0.0
H1918 H 0.33068 0.54539 0.80587 0.0
C1919 C 0.40535 0.5593 0.76608 0.0
H1920 H 0.41848 0.60703 0.80472 0.0
C1921 C 0.35393 0.52476 0.76647 0.0
C1922 C 0.32604 0.52082 0.78059 0.0
H1923 H 0.42564 0.56505 0.75467 0.0
H1924 H 0.33551 0.50451 0.75538 0.0
C1925 C 0.35109 0.54785 0.79474 0.0
C1926 C 0.50076 0.81067 0.06221 0.0
C1927 C 0.47677 0.81497 0.04818 0.0
H1928 H 0.5323 0.77015 0.07375 0.0
C1929 C 0.47524 0.78878 0.03385 0.0
H1930 H 0.50228 0.83032 0.07342 0.0
C1931 C 0.49164 0.75433 0.03412 0.0
C1932 C 0.51167 0.74661 0.0485 0.0
H1933 H 0.45729 0.7916 0.02278 0.0
H1934 H 0.48403 0.73033 0.02353 0.0
C1935 C 0.51792 0.77636 0.06239 0.0
C1936 C 0.19601 0.68558 0.06263 0.0
C1937 C 0.19142 0.65828 0.0483 0.0
H1938 H 0.23629 0.75707 0.07458 0.0
C1939 C 0.21733 0.68396 0.03406 0.0
H1940 H 0.17661 0.66665 0.07378 0.0
C1941 C 0.25164 0.73478 0.03461 0.0
C1942 C 0.25929 0.76168 0.04918 0.0
H1943 H 0.21433 0.66405 0.02276 0.0
H1944 H 0.2754 0.75187 0.02402 0.0
C1945 C 0.23006 0.73715 0.06307 0.0
C1946 C 0.31535 0.50115 0.0602 0.0
C1947 C 0.34496 0.52792 0.04672 0.0
H1948 H 0.24194 0.46635 0.07084 0.0
C1949 C 0.3216 0.53093 0.03226 0.0
H1950 H 0.33242 0.49827 0.07147 0.0
C1951 C 0.27057 0.51348 0.03199 0.0
C1952 C 0.24142 0.49082 0.04592 0.0
H1953 H 0.34339 0.55085 0.02157 0.0
H1954 H 0.25506 0.5225 0.02148 0.0
C1955 C 0.2637 0.48278 0.0598 0.0
C1956 C 0.21377 0.52848 0.53459 0.0
C1957 C 0.1875 0.52689 0.5489 0.0
H1958 H 0.27247 0.52011 0.52429 0.0
C1959 C 0.19227 0.50343 0.563 0.0
H1960 H 0.21062 0.54604 0.52346 0.0
C1961 C 0.22693 0.48671 0.56322 0.0
C1962 C 0.25657 0.49287 0.54931 0.0
H1963 H 0.17261 0.5019 0.57421 0.0
H1964 H 0.23336 0.4726 0.57461 0.0
C1965 C 0.24857 0.51255 0.53489 0.0
C1966 C 0.49692 0.68806 0.56289 0.0
C1967 C 0.47327 0.65982 0.5488 0.0
H1968 H 0.52786 0.75998 0.57451 0.0
C1969 C 0.47136 0.68449 0.53453 0.0
H1970 H 0.49869 0.66992 0.57406 0.0
C1971 C 0.4872 0.73521 0.53486 0.0
C1972 C 0.50714 0.7629 0.54927 0.0
H1973 H 0.45364 0.66378 0.52342 0.0
H1974 H 0.47946 0.75157 0.5243 0.0
C1975 C 0.51356 0.73944 0.56313 0.0
C1976 C 0.31223 0.80845 0.56282 0.0
C1977 C 0.34054 0.81305 0.54876 0.0
H1978 H 0.24025 0.76745 0.5744 0.0
C1979 C 0.31594 0.78654 0.53447 0.0
H1980 H 0.3303 0.82831 0.57401 0.0
C1981 C 0.26523 0.75166 0.53478 0.0
C1982 C 0.23746 0.74385 0.54916 0.0
H1983 H 0.3367 0.78954 0.52338 0.0
H1984 H 0.24894 0.72756 0.52421 0.0
C1985 C 0.26085 0.77373 0.56304 0.0
C1986 C 0.19176 0.54397 0.29643 0.0
C1987 C 0.19064 0.51842 0.28199 0.0
H1988 H 0.1824 0.60177 0.30701 0.0
C1989 C 0.16683 0.52314 0.26797 0.0
H1990 H 0.20955 0.54079 0.30748 0.0
C1991 C 0.14946 0.55729 0.26795 0.0
C1992 C 0.15532 0.58643 0.28197 0.0
H1993 H 0.16562 0.50399 0.25668 0.0
H1994 H 0.13525 0.56388 0.25661 0.0
C1995 C 0.17512 0.57823 0.29632 0.0
C1996 C 0.45114 0.64903 0.29631 0.0
C1997 C 0.47719 0.67482 0.2821 0.0
H1998 H 0.39259 0.58121 0.30624 0.0
C1999 C 0.47234 0.64765 0.26771 0.0
H2000 H 0.45429 0.66883 0.30764 0.0
C2001 C 0.43796 0.59617 0.26719 0.0
C2002 C 0.40858 0.57159 0.28104 0.0
H2003 H 0.49181 0.66665 0.25658 0.0
H2004 H 0.43158 0.5764 0.25564 0.0
C2005 C 0.41645 0.59831 0.29567 0.0
C2006 C 0.39652 0.81808 0.29873 0.0
C2007 C 0.42542 0.84075 0.28475 0.0
H2008 H 0.3239 0.78103 0.30934 0.0
C2009 C 0.40293 0.84901 0.27097 0.0
H2010 H 0.41225 0.80901 0.30918 0.0
C2011 C 0.35134 0.83109 0.27075 0.0
C2012 C 0.32193 0.80441 0.28428 0.0
H2013 H 0.42447 0.86545 0.2599 0.0
H2014 H 0.33412 0.83426 0.25956 0.0
C2015 C 0.34551 0.80095 0.29862 0.0
loop_
_geom_bond_atom_site_label_1
_geom_bond_atom_site_label_2
_geom_bond_distance
_geom_bond_site_symmetry_2
_ccdc_geom_bond_type
Mn0 O5 2.095 . S
Mn0 O15 2.162 . S
Mn0 O16 2.297 . S
Mn0 O24 2.385 . S
Mn0 O25 2.209 . S
Mn0 O26 2.094 . S
Mn1 O6 2.121 1_565 S
Mn1 N8 2.257 . S
Mn1 N17 2.282 . S
Mn1 O25 2.215 1_565 S
Mn1 O27 2.117 1_565 S
C2 O24 1.234 1_565 S
C2 O25 1.283 1_565 S
C3 O15 1.281 . S
C3 O16 1.236 . S
C4 O26 1.240 . S
C4 O27 1.264 . S
O5 Mn0 2.095 . S
O5 C14 1.250 . S
O6 Mn1 2.121 1_545 S
O6 C14 1.258 . S
C7 N8 1.326 . S
C7 C11 1.460 . S
C7 H13 0.929 1_565 S
N8 Mn1 2.257 . S
N8 C7 1.326 . S
N8 C12 1.362 . S
C9 C10 1.258 . S
C9 C12 1.431 . S
C9 C29 1.449 . S
C10 C9 1.258 . S
C10 C11 1.477 . S
C10 H30 0.931 . S
C11 C7 1.460 . S
C11 C10 1.477 . S
C11 H31 0.930 . S
C12 N8 1.362 . S
C12 C9 1.431 . S
C12 C22 1.476 . S
H13 C7 0.929 1_545 S
C14 O5 1.250 . S
C14 O6 1.258 . S
O15 Mn0 2.162 . S
O15 C3 1.281 . S
O16 Mn0 2.297 . S
O16 C3 1.236 . S
N17 Mn1 2.282 . S
N17 C18 1.328 . S
N17 C22 1.318 . S
C18 N17 1.328 . S
C18 C19 1.457 . S
C18 H23 0.929 . S
C19 C18 1.457 . S
C19 C20 1.291 . S
C19 H32 0.931 . S
C20 C19 1.291 . S
C20 C21 1.373 . S
C20 H33 0.929 . S
C21 C20 1.373 . S
C21 C22 1.396 . S
C21 C28 1.403 . S
C22 C12 1.476 . S
C22 N17 1.318 . S
C22 C21 1.396 . S
H23 C18 0.929 . S
O24 Mn0 2.385 . S
O24 C2 1.234 1_545 S
O25 Mn0 2.209 . S
O25 Mn1 2.215 1_545 S
O25 C2 1.283 1_545 S
O26 Mn0 2.094 . S
O26 C4 1.240 . S
O27 Mn1 2.117 1_545 S
O27 C4 1.264 . S
C28 C21 1.403 . S
C28 C29 1.399 . S
C28 H34 0.929 . S
C29 C9 1.449 . S
C29 C28 1.399 . S
C29 H35 0.930 . S
H30 C10 0.931 . S
H31 C11 0.930 . S
H32 C19 0.931 . S
H33 C20 0.929 . S
H34 C28 0.929 . S
H35 C29 0.930 . S
Mn36 O41 2.095 . S
Mn36 O51 2.162 . S
Mn36 O52 2.297 . S
Mn36 O60 2.385 . S
Mn36 O61 2.209 . S
Mn36 O62 2.094 . S
Mn37 O42 2.121 1_455 S
Mn37 N44 2.257 . S
Mn37 N53 2.282 . S
Mn37 O61 2.215 1_455 S
Mn37 O63 2.117 1_455 S
C38 O60 1.234 1_455 S
C38 O61 1.283 1_455 S
C39 O51 1.281 . S
C39 O52 1.236 . S
C40 O62 1.240 . S
C40 O63 1.264 . S
O41 Mn36 2.095 . S
O41 C50 1.250 . S
O42 Mn37 2.121 1_655 S
O42 C50 1.258 . S
C43 N44 1.326 . S
C43 C47 1.460 . S
C43 H49 0.929 1_455 S
N44 Mn37 2.257 . S
N44 C43 1.326 . S
N44 C48 1.362 . S
C45 C46 1.258 . S
C45 C48 1.431 . S
C45 C65 1.449 . S
C46 C45 1.258 . S
C46 C47 1.477 . S
C46 H66 0.931 . S
C47 C43 1.460 . S
C47 C46 1.477 . S
C47 H67 0.930 . S
C48 N44 1.362 . S
C48 C45 1.431 . S
C48 C58 1.476 . S
H49 C43 0.929 1_655 S
C50 O41 1.250 . S
C50 O42 1.258 . S
O51 Mn36 2.162 . S
O51 C39 1.281 . S
O52 Mn36 2.297 . S
O52 C39 1.236 . S
N53 Mn37 2.282 . S
N53 C54 1.328 . S
N53 C58 1.318 . S
C54 N53 1.328 . S
C54 C55 1.457 . S
C54 H59 0.929 . S
C55 C54 1.457 . S
C55 C56 1.291 . S
C55 H68 0.931 . S
C56 C55 1.291 . S
C56 C57 1.373 . S
C56 H69 0.929 . S
C57 C56 1.373 . S
C57 C58 1.396 . S
C57 C64 1.403 . S
C58 C48 1.476 . S
C58 N53 1.318 . S
C58 C57 1.396 . S
H59 C54 0.929 . S
O60 Mn36 2.385 . S
O60 C38 1.234 1_655 S
O61 Mn36 2.209 . S
O61 Mn37 2.215 1_655 S
O61 C38 1.283 1_655 S
O62 Mn36 2.094 . S
O62 C40 1.240 . S
O63 Mn37 2.117 1_655 S
O63 C40 1.264 . S
C64 C57 1.403 . S
C64 C65 1.399 . S
C64 H70 0.929 . S
C65 C45 1.449 . S
C65 C64 1.399 . S
C65 H71 0.930 . S
H66 C46 0.931 . S
H67 C47 0.930 . S
H68 C55 0.931 . S
H69 C56 0.929 . S
H70 C64 0.929 . S
H71 C65 0.930 . S
Mn72 O77 2.095 . S
Mn72 O87 2.162 . S
Mn72 O88 2.297 . S
Mn72 O96 2.385 . S
Mn72 O97 2.209 . S
Mn72 O98 2.094 . S
Mn73 O78 2.121 . S
Mn73 N80 2.257 . S
Mn73 N89 2.282 . S
Mn73 O97 2.215 . S
Mn73 O99 2.117 . S
C74 O96 1.234 . S
C74 O97 1.283 . S
C75 O87 1.281 . S
C75 O88 1.236 . S
C76 O98 1.240 . S
C76 O99 1.264 . S
O77 Mn72 2.095 . S
O77 C86 1.250 . S
O78 Mn73 2.121 . S
O78 C86 1.258 . S
C79 N80 1.326 . S
C79 C83 1.460 . S
C79 H85 0.929 . S
N80 Mn73 2.257 . S
N80 C79 1.326 . S
N80 C84 1.362 . S
C81 C82 1.258 . S
C81 C84 1.431 . S
C81 C101 1.449 . S
C82 C81 1.258 . S
C82 C83 1.477 . S
C82 H102 0.931 . S
C83 C79 1.460 . S
C83 C82 1.477 . S
C83 H103 0.930 . S
C84 N80 1.362 . S
C84 C81 1.431 . S
C84 C94 1.476 . S
H85 C79 0.929 . S
C86 O77 1.250 . S
C86 O78 1.258 . S
O87 Mn72 2.162 . S
O87 C75 1.281 . S
O88 Mn72 2.297 . S
O88 C75 1.236 . S
N89 Mn73 2.282 . S
N89 C90 1.328 . S
N89 C94 1.318 . S
C90 N89 1.328 . S
C90 C91 1.457 . S
C90 H95 0.929 . S
C91 C90 1.457 . S
C91 C92 1.291 . S
C91 H104 0.931 . S
C92 C91 1.291 . S
C92 C93 1.373 . S
C92 H105 0.929 . S
C93 C92 1.373 . S
C93 C94 1.396 . S
C93 C100 1.403 . S
C94 C84 1.476 . S
C94 N89 1.318 . S
C94 C93 1.396 . S
H95 C90 0.929 . S
O96 Mn72 2.385 . S
O96 C74 1.234 . S
O97 Mn72 2.209 . S
O97 Mn73 2.215 . S
O97 C74 1.283 . S
O98 Mn72 2.094 . S
O98 C76 1.240 . S
O99 Mn73 2.117 . S
O99 C76 1.264 . S
C100 C93 1.403 . S
C100 C101 1.399 . S
C100 H106 0.929 . S
C101 C81 1.449 . S
C101 C100 1.399 . S
C101 H107 0.930 . S
H102 C82 0.931 . S
H103 C83 0.930 . S
H104 C91 0.931 . S
H105 C92 0.929 . S
H106 C100 0.929 . S
H107 C101 0.930 . S
Mn108 O113 2.095 . S
Mn108 O123 2.162 . S
Mn108 O124 2.297 . S
Mn108 O132 2.385 . S
Mn108 O133 2.209 . S
Mn108 O134 2.094 . S
Mn109 O114 2.121 1_655 S
Mn109 N116 2.257 . S
Mn109 N125 2.282 . S
Mn109 O133 2.215 1_655 S
Mn109 O135 2.117 1_655 S
C110 O132 1.234 1_655 S
C110 O133 1.283 1_655 S
C111 O123 1.281 . S
C111 O124 1.236 . S
C112 O134 1.240 . S
C112 O135 1.264 . S
O113 Mn108 2.095 . S
O113 C122 1.250 . S
O114 Mn109 2.121 1_455 S
O114 C122 1.258 . S
C115 N116 1.326 . S
C115 C119 1.460 . S
C115 H121 0.929 1_655 S
N116 Mn109 2.257 . S
N116 C115 1.326 . S
N116 C120 1.362 . S
C117 C118 1.258 . S
C117 C120 1.431 . S
C117 C137 1.449 . S
C118 C117 1.258 . S
C118 C119 1.477 . S
C118 H138 0.931 . S
C119 C115 1.460 . S
C119 C118 1.477 . S
C119 H139 0.930 . S
C120 N116 1.362 . S
C120 C117 1.431 . S
C120 C130 1.476 . S
H121 C115 0.929 1_455 S
C122 O113 1.250 . S
C122 O114 1.258 . S
O123 Mn108 2.162 . S
O123 C111 1.281 . S
O124 Mn108 2.297 . S
O124 C111 1.236 . S
N125 Mn109 2.282 . S
N125 C126 1.328 . S
N125 C130 1.318 . S
C126 N125 1.328 . S
C126 C127 1.457 . S
C126 H131 0.929 . S
C127 C126 1.457 . S
C127 C128 1.291 . S
C127 H140 0.931 . S
C128 C127 1.291 . S
C128 C129 1.373 . S
C128 H141 0.929 . S
C129 C128 1.373 . S
C129 C130 1.396 . S
C129 C136 1.403 . S
C130 C120 1.476 . S
C130 N125 1.318 . S
C130 C129 1.396 . S
H131 C126 0.929 . S
O132 Mn108 2.385 . S
O132 C110 1.234 1_455 S
O133 Mn108 2.209 . S
O133 Mn109 2.215 1_455 S
O133 C110 1.283 1_455 S
O134 Mn108 2.094 . S
O134 C112 1.240 . S
O135 Mn109 2.117 1_455 S
O135 C112 1.264 . S
C136 C129 1.403 . S
C136 C137 1.399 . S
C136 H142 0.929 . S
C137 C117 1.449 . S
C137 C136 1.399 . S
C137 H143 0.930 . S
H138 C118 0.931 . S
H139 C119 0.930 . S
H140 C127 0.931 . S
H141 C128 0.929 . S
H142 C136 0.929 . S
H143 C137 0.930 . S
Mn144 O149 2.095 . S
Mn144 O159 2.162 . S
Mn144 O160 2.297 . S
Mn144 O168 2.385 . S
Mn144 O169 2.209 . S
Mn144 O170 2.094 . S
Mn145 O150 2.121 . S
Mn145 N152 2.257 . S
Mn145 N161 2.282 . S
Mn145 O169 2.215 . S
Mn145 O171 2.117 . S
C146 O168 1.234 . S
C146 O169 1.283 . S
C147 O159 1.281 . S
C147 O160 1.236 . S
C148 O170 1.240 . S
C148 O171 1.264 . S
O149 Mn144 2.095 . S
O149 C158 1.250 . S
O150 Mn145 2.121 . S
O150 C158 1.258 . S
C151 N152 1.326 . S
C151 C155 1.460 . S
C151 H157 0.929 . S
N152 Mn145 2.257 . S
N152 C151 1.326 . S
N152 C156 1.362 . S
C153 C154 1.258 . S
C153 C156 1.431 . S
C153 C173 1.449 . S
C154 C153 1.258 . S
C154 C155 1.477 . S
C154 H174 0.931 . S
C155 C151 1.460 . S
C155 C154 1.477 . S
C155 H175 0.930 . S
C156 N152 1.362 . S
C156 C153 1.431 . S
C156 C166 1.476 . S
H157 C151 0.929 . S
C158 O149 1.250 . S
C158 O150 1.258 . S
O159 Mn144 2.162 . S
O159 C147 1.281 . S
O160 Mn144 2.297 . S
O160 C147 1.236 . S
N161 Mn145 2.282 . S
N161 C162 1.328 . S
N161 C166 1.318 . S
C162 N161 1.328 . S
C162 C163 1.457 . S
C162 H167 0.929 . S
C163 C162 1.457 . S
C163 C164 1.291 . S
C163 H176 0.931 . S
C164 C163 1.291 . S
C164 C165 1.373 . S
C164 H177 0.929 . S
C165 C164 1.373 . S
C165 C166 1.396 . S
C165 C172 1.403 . S
C166 C156 1.476 . S
C166 N161 1.318 . S
C166 C165 1.396 . S
H167 C162 0.929 . S
O168 Mn144 2.385 . S
O168 C146 1.234 . S
O169 Mn144 2.209 . S
O169 Mn145 2.215 . S
O169 C146 1.283 . S
O170 Mn144 2.094 . S
O170 C148 1.240 . S
O171 Mn145 2.117 . S
O171 C148 1.264 . S
C172 C165 1.403 . S
C172 C173 1.399 . S
C172 H178 0.929 . S
C173 C153 1.449 . S
C173 C172 1.399 . S
C173 H179 0.930 . S
H174 C154 0.931 . S
H175 C155 0.930 . S
H176 C163 0.931 . S
H177 C164 0.929 . S
H178 C172 0.929 . S
H179 C173 0.930 . S
Mn180 O185 2.095 . S
Mn180 O195 2.162 . S
Mn180 O196 2.297 . S
Mn180 O204 2.385 . S
Mn180 O205 2.209 . S
Mn180 O206 2.094 . S
Mn181 O186 2.121 1_545 S
Mn181 N188 2.257 . S
Mn181 N197 2.282 . S
Mn181 O205 2.215 1_545 S
Mn181 O207 2.117 1_545 S
C182 O204 1.234 1_545 S
C182 O205 1.283 1_545 S
C183 O195 1.281 . S
C183 O196 1.236 . S
C184 O206 1.240 . S
C184 O207 1.264 . S
O185 Mn180 2.095 . S
O185 C194 1.250 . S
O186 Mn181 2.121 1_565 S
O186 C194 1.258 . S
C187 N188 1.326 . S
C187 C191 1.460 . S
C187 H193 0.929 1_545 S
N188 Mn181 2.257 . S
N188 C187 1.326 . S
N188 C192 1.362 . S
C189 C190 1.258 . S
C189 C192 1.431 . S
C189 C209 1.449 . S
C190 C189 1.258 . S
C190 C191 1.477 . S
C190 H210 0.931 . S
C191 C187 1.460 . S
C191 C190 1.477 . S
C191 H211 0.930 . S
C192 N188 1.362 . S
C192 C189 1.431 . S
C192 C202 1.476 . S
H193 C187 0.929 1_565 S
C194 O185 1.250 . S
C194 O186 1.258 . S
O195 Mn180 2.162 . S
O195 C183 1.281 . S
O196 Mn180 2.297 . S
O196 C183 1.236 . S
N197 Mn181 2.282 . S
N197 C198 1.328 . S
N197 C202 1.318 . S
C198 N197 1.328 . S
C198 C199 1.457 . S
C198 H203 0.929 . S
C199 C198 1.457 . S
C199 C200 1.291 . S
C199 H212 0.931 . S
C200 C199 1.291 . S
C200 C201 1.373 . S
C200 H213 0.929 . S
C201 C200 1.373 . S
C201 C202 1.396 . S
C201 C208 1.403 . S
C202 C192 1.476 . S
C202 N197 1.318 . S
C202 C201 1.396 . S
H203 C198 0.929 . S
O204 Mn180 2.385 . S
O204 C182 1.234 1_565 S
O205 Mn180 2.209 . S
O205 Mn181 2.215 1_565 S
O205 C182 1.283 1_565 S
O206 Mn180 2.094 . S
O206 C184 1.240 . S
O207 Mn181 2.117 1_565 S
O207 C184 1.264 . S
C208 C201 1.403 . S
C208 C209 1.399 . S
C208 H214 0.929 . S
C209 C189 1.449 . S
C209 C208 1.399 . S
C209 H215 0.930 . S
H210 C190 0.931 . S
H211 C191 0.930 . S
H212 C199 0.931 . S
H213 C200 0.929 . S
H214 C208 0.929 . S
H215 C209 0.930 . S
Mn216 O221 2.095 . S
Mn216 O231 2.162 . S
Mn216 O232 2.297 . S
Mn216 O240 2.385 . S
Mn216 O241 2.209 . S
Mn216 O242 2.094 . S
Mn217 O222 2.121 1_545 S
Mn217 N224 2.257 . S
Mn217 N233 2.282 . S
Mn217 O241 2.215 1_545 S
Mn217 O243 2.117 1_545 S
C218 O240 1.234 1_545 S
C218 O241 1.283 1_545 S
C219 O231 1.281 . S
C219 O232 1.236 . S
C220 O242 1.240 . S
C220 O243 1.264 . S
O221 Mn216 2.095 . S
O221 C230 1.250 . S
O222 Mn217 2.121 1_565 S
O222 C230 1.258 . S
C223 N224 1.326 . S
C223 C227 1.460 . S
C223 H229 0.929 1_545 S
N224 Mn217 2.257 . S
N224 C223 1.326 . S
N224 C228 1.362 . S
C225 C226 1.258 . S
C225 C228 1.431 . S
C225 C245 1.449 . S
C226 C225 1.258 . S
C226 C227 1.477 . S
C226 H246 0.931 . S
C227 C223 1.460 . S
C227 C226 1.477 . S
C227 H247 0.930 . S
C228 N224 1.362 . S
C228 C225 1.431 . S
C228 C238 1.476 . S
H229 C223 0.929 1_565 S
C230 O221 1.250 . S
C230 O222 1.258 . S
O231 Mn216 2.162 . S
O231 C219 1.281 . S
O232 Mn216 2.297 . S
O232 C219 1.236 . S
N233 Mn217 2.282 . S
N233 C234 1.328 . S
N233 C238 1.318 . S
C234 N233 1.328 . S
C234 C235 1.457 . S
C234 H239 0.929 . S
C235 C234 1.457 . S
C235 C236 1.291 . S
C235 H248 0.931 . S
C236 C235 1.291 . S
C236 C237 1.373 . S
C236 H249 0.929 . S
C237 C236 1.373 . S
C237 C238 1.396 . S
C237 C244 1.403 . S
C238 C228 1.476 . S
C238 N233 1.318 . S
C238 C237 1.396 . S
H239 C234 0.929 . S
O240 Mn216 2.385 . S
O240 C218 1.234 1_565 S
O241 Mn216 2.209 . S
O241 Mn217 2.215 1_565 S
O241 C218 1.283 1_565 S
O242 Mn216 2.094 . S
O242 C220 1.240 . S
O243 Mn217 2.117 1_565 S
O243 C220 1.264 . S
C244 C237 1.403 . S
C244 C245 1.399 . S
C244 H250 0.929 . S
C245 C225 1.449 . S
C245 C244 1.399 . S
C245 H251 0.930 . S
H246 C226 0.931 . S
H247 C227 0.930 . S
H248 C235 0.931 . S
H249 C236 0.929 . S
H250 C244 0.929 . S
H251 C245 0.930 . S
Mn252 O257 2.095 . S
Mn252 O267 2.162 . S
Mn252 O268 2.297 . S
Mn252 O276 2.385 . S
Mn252 O277 2.209 . S
Mn252 O278 2.094 . S
Mn253 O258 2.121 1_655 S
Mn253 N260 2.257 . S
Mn253 N269 2.282 . S
Mn253 O277 2.215 1_655 S
Mn253 O279 2.117 1_655 S
C254 O276 1.234 1_655 S
C254 O277 1.283 1_655 S
C255 O267 1.281 . S
C255 O268 1.236 . S
C256 O278 1.240 . S
C256 O279 1.264 . S
O257 Mn252 2.095 . S
O257 C266 1.250 . S
O258 Mn253 2.121 1_455 S
O258 C266 1.258 . S
C259 N260 1.326 . S
C259 C263 1.460 . S
C259 H265 0.929 1_655 S
N260 Mn253 2.257 . S
N260 C259 1.326 . S
N260 C264 1.362 . S
C261 C262 1.258 . S
C261 C264 1.431 . S
C261 C281 1.449 . S
C262 C261 1.258 . S
C262 C263 1.477 . S
C262 H282 0.931 . S
C263 C259 1.460 . S
C263 C262 1.477 . S
C263 H283 0.930 . S
C264 N260 1.362 . S
C264 C261 1.431 . S
C264 C274 1.476 . S
H265 C259 0.929 1_455 S
C266 O257 1.250 . S
C266 O258 1.258 . S
O267 Mn252 2.162 . S
O267 C255 1.281 . S
O268 Mn252 2.297 . S
O268 C255 1.236 . S
N269 Mn253 2.282 . S
N269 C270 1.328 . S
N269 C274 1.318 . S
C270 N269 1.328 . S
C270 C271 1.457 . S
C270 H275 0.929 . S
C271 C270 1.457 . S
C271 C272 1.291 . S
C271 H284 0.931 . S
C272 C271 1.291 . S
C272 C273 1.373 . S
C272 H285 0.929 . S
C273 C272 1.373 . S
C273 C274 1.396 . S
C273 C280 1.403 . S
C274 C264 1.476 . S
C274 N269 1.318 . S
C274 C273 1.396 . S
H275 C270 0.929 . S
O276 Mn252 2.385 . S
O276 C254 1.234 1_455 S
O277 Mn252 2.209 . S
O277 Mn253 2.215 1_455 S
O277 C254 1.283 1_455 S
O278 Mn252 2.094 . S
O278 C256 1.240 . S
O279 Mn253 2.117 1_455 S
O279 C256 1.264 . S
C280 C273 1.403 . S
C280 C281 1.399 . S
C280 H286 0.929 . S
C281 C261 1.449 . S
C281 C280 1.399 . S
C281 H287 0.930 . S
H282 C262 0.931 . S
H283 C263 0.930 . S
H284 C271 0.931 . S
H285 C272 0.929 . S
H286 C280 0.929 . S
H287 C281 0.930 . S
Mn288 O293 2.095 . S
Mn288 O303 2.162 . S
Mn288 O304 2.297 . S
Mn288 O312 2.385 . S
Mn288 O313 2.209 . S
Mn288 O314 2.094 . S
Mn289 O294 2.121 . S
Mn289 N296 2.257 . S
Mn289 N305 2.282 . S
Mn289 O313 2.215 . S
Mn289 O315 2.117 . S
C290 O312 1.234 . S
C290 O313 1.283 . S
C291 O303 1.281 . S
C291 O304 1.236 . S
C292 O314 1.240 . S
C292 O315 1.264 . S
O293 Mn288 2.095 . S
O293 C302 1.250 . S
O294 Mn289 2.121 . S
O294 C302 1.258 . S
C295 N296 1.326 . S
C295 C299 1.460 . S
C295 H301 0.929 . S
N296 Mn289 2.257 . S
N296 C295 1.326 . S
N296 C300 1.362 . S
C297 C298 1.258 . S
C297 C300 1.431 . S
C297 C317 1.449 . S
C298 C297 1.258 . S
C298 C299 1.477 . S
C298 H318 0.931 . S
C299 C295 1.460 . S
C299 C298 1.477 . S
C299 H319 0.930 . S
C300 N296 1.362 . S
C300 C297 1.431 . S
C300 C310 1.476 . S
H301 C295 0.929 . S
C302 O293 1.250 . S
C302 O294 1.258 . S
O303 Mn288 2.162 . S
O303 C291 1.281 . S
O304 Mn288 2.297 . S
O304 C291 1.236 . S
N305 Mn289 2.282 . S
N305 C306 1.328 . S
N305 C310 1.318 . S
C306 N305 1.328 . S
C306 C307 1.457 . S
C306 H311 0.929 . S
C307 C306 1.457 . S
C307 C308 1.291 . S
C307 H320 0.931 . S
C308 C307 1.291 . S
C308 C309 1.373 . S
C308 H321 0.929 . S
C309 C308 1.373 . S
C309 C310 1.396 . S
C309 C316 1.403 . S
C310 C300 1.476 . S
C310 N305 1.318 . S
C310 C309 1.396 . S
H311 C306 0.929 . S
O312 Mn288 2.385 . S
O312 C290 1.234 . S
O313 Mn288 2.209 . S
O313 Mn289 2.215 . S
O313 C290 1.283 . S
O314 Mn288 2.094 . S
O314 C292 1.240 . S
O315 Mn289 2.117 . S
O315 C292 1.264 . S
C316 C309 1.403 . S
C316 C317 1.399 . S
C316 H322 0.929 . S
C317 C297 1.449 . S
C317 C316 1.399 . S
C317 H323 0.930 . S
H318 C298 0.931 . S
H319 C299 0.930 . S
H320 C307 0.931 . S
H321 C308 0.929 . S
H322 C316 0.929 . S
H323 C317 0.930 . S
Mn324 O329 2.095 . S
Mn324 O339 2.162 . S
Mn324 O340 2.297 . S
Mn324 O348 2.385 . S
Mn324 O349 2.209 . S
Mn324 O350 2.094 . S
Mn325 O330 2.121 1_455 S
Mn325 N332 2.257 . S
Mn325 N341 2.282 . S
Mn325 O349 2.215 1_455 S
Mn325 O351 2.117 1_455 S
C326 O348 1.234 1_455 S
C326 O349 1.283 1_455 S
C327 O339 1.281 . S
C327 O340 1.236 . S
C328 O350 1.240 . S
C328 O351 1.264 . S
O329 Mn324 2.095 . S
O329 C338 1.250 . S
O330 Mn325 2.121 1_655 S
O330 C338 1.258 . S
C331 N332 1.326 . S
C331 C335 1.460 . S
C331 H337 0.929 1_455 S
N332 Mn325 2.257 . S
N332 C331 1.326 . S
N332 C336 1.362 . S
C333 C334 1.258 . S
C333 C336 1.431 . S
C333 C353 1.449 . S
C334 C333 1.258 . S
C334 C335 1.477 . S
C334 H354 0.931 . S
C335 C331 1.460 . S
C335 C334 1.477 . S
C335 H355 0.930 . S
C336 N332 1.362 . S
C336 C333 1.431 . S
C336 C346 1.476 . S
H337 C331 0.929 1_655 S
C338 O329 1.250 . S
C338 O330 1.258 . S
O339 Mn324 2.162 . S
O339 C327 1.281 . S
O340 Mn324 2.297 . S
O340 C327 1.236 . S
N341 Mn325 2.282 . S
N341 C342 1.328 . S
N341 C346 1.318 . S
C342 N341 1.328 . S
C342 C343 1.457 . S
C342 H347 0.929 . S
C343 C342 1.457 . S
C343 C344 1.291 . S
C343 H356 0.931 . S
C344 C343 1.291 . S
C344 C345 1.373 . S
C344 H357 0.929 . S
C345 C344 1.373 . S
C345 C346 1.396 . S
C345 C352 1.403 . S
C346 C336 1.476 . S
C346 N341 1.318 . S
C346 C345 1.396 . S
H347 C342 0.929 . S
O348 Mn324 2.385 . S
O348 C326 1.234 1_655 S
O349 Mn324 2.209 . S
O349 Mn325 2.215 1_655 S
O349 C326 1.283 1_655 S
O350 Mn324 2.094 . S
O350 C328 1.240 . S
O351 Mn325 2.117 1_655 S
O351 C328 1.264 . S
C352 C345 1.403 . S
C352 C353 1.399 . S
C352 H358 0.929 . S
C353 C333 1.449 . S
C353 C352 1.399 . S
C353 H359 0.930 . S
H354 C334 0.931 . S
H355 C335 0.930 . S
H356 C343 0.931 . S
H357 C344 0.929 . S
H358 C352 0.929 . S
H359 C353 0.930 . S
Mn360 O365 2.095 . S
Mn360 O375 2.162 . S
Mn360 O376 2.297 . S
Mn360 O384 2.385 . S
Mn360 O385 2.209 . S
Mn360 O386 2.094 . S
Mn361 O366 2.121 . S
Mn361 N368 2.257 . S
Mn361 N377 2.282 . S
Mn361 O385 2.215 . S
Mn361 O387 2.117 . S
C362 O384 1.234 . S
C362 O385 1.283 . S
C363 O375 1.281 . S
C363 O376 1.236 . S
C364 O386 1.240 . S
C364 O387 1.264 . S
O365 Mn360 2.095 . S
O365 C374 1.250 . S
O366 Mn361 2.121 . S
O366 C374 1.258 . S
C367 N368 1.326 . S
C367 C371 1.460 . S
C367 H373 0.929 . S
N368 Mn361 2.257 . S
N368 C367 1.326 . S
N368 C372 1.362 . S
C369 C370 1.258 . S
C369 C372 1.431 . S
C369 C389 1.449 . S
C370 C369 1.258 . S
C370 C371 1.477 . S
C370 H390 0.931 . S
C371 C367 1.460 . S
C371 C370 1.477 . S
C371 H391 0.930 . S
C372 N368 1.362 . S
C372 C369 1.431 . S
C372 C382 1.476 . S
H373 C367 0.929 . S
C374 O365 1.250 . S
C374 O366 1.258 . S
O375 Mn360 2.162 . S
O375 C363 1.281 . S
O376 Mn360 2.297 . S
O376 C363 1.236 . S
N377 Mn361 2.282 . S
N377 C378 1.328 . S
N377 C382 1.318 . S
C378 N377 1.328 . S
C378 C379 1.457 . S
C378 H383 0.929 . S
C379 C378 1.457 . S
C379 C380 1.291 . S
C379 H392 0.931 . S
C380 C379 1.291 . S
C380 C381 1.373 . S
C380 H393 0.929 . S
C381 C380 1.373 . S
C381 C382 1.396 . S
C381 C388 1.403 . S
C382 C372 1.476 . S
C382 N377 1.318 . S
C382 C381 1.396 . S
H383 C378 0.929 . S
O384 Mn360 2.385 . S
O384 C362 1.234 . S
O385 Mn360 2.209 . S
O385 Mn361 2.215 . S
O385 C362 1.283 . S
O386 Mn360 2.094 . S
O386 C364 1.240 . S
O387 Mn361 2.117 . S
O387 C364 1.264 . S
C388 C381 1.403 . S
C388 C389 1.399 . S
C388 H394 0.929 . S
C389 C369 1.449 . S
C389 C388 1.399 . S
C389 H395 0.930 . S
H390 C370 0.931 . S
H391 C371 0.930 . S
H392 C379 0.931 . S
H393 C380 0.929 . S
H394 C388 0.929 . S
H395 C389 0.930 . S
Mn396 O401 2.095 . S
Mn396 O411 2.162 . S
Mn396 O412 2.297 . S
Mn396 O420 2.385 . S
Mn396 O421 2.209 . S
Mn396 O422 2.094 . S
Mn397 O402 2.121 1_565 S
Mn397 N404 2.257 . S
Mn397 N413 2.282 . S
Mn397 O421 2.215 1_565 S
Mn397 O423 2.117 1_565 S
C398 O420 1.234 1_565 S
C398 O421 1.283 1_565 S
C399 O411 1.281 . S
C399 O412 1.236 . S
C400 O422 1.240 . S
C400 O423 1.264 . S
O401 Mn396 2.095 . S
O401 C410 1.250 . S
O402 Mn397 2.121 1_545 S
O402 C410 1.258 . S
C403 N404 1.326 . S
C403 C407 1.460 . S
C403 H409 0.929 1_565 S
N404 Mn397 2.257 . S
N404 C403 1.326 . S
N404 C408 1.362 . S
C405 C406 1.258 . S
C405 C408 1.431 . S
C405 C425 1.449 . S
C406 C405 1.258 . S
C406 C407 1.477 . S
C406 H426 0.931 . S
C407 C403 1.460 . S
C407 C406 1.477 . S
C407 H427 0.930 . S
C408 N404 1.362 . S
C408 C405 1.431 . S
C408 C418 1.476 . S
H409 C403 0.929 1_545 S
C410 O401 1.250 . S
C410 O402 1.258 . S
O411 Mn396 2.162 . S
O411 C399 1.281 . S
O412 Mn396 2.297 . S
O412 C399 1.236 . S
N413 Mn397 2.282 . S
N413 C414 1.328 . S
N413 C418 1.318 . S
C414 N413 1.328 . S
C414 C415 1.457 . S
C414 H419 0.929 . S
C415 C414 1.457 . S
C415 C416 1.291 . S
C415 H428 0.931 . S
C416 C415 1.291 . S
C416 C417 1.373 . S
C416 H429 0.929 . S
C417 C416 1.373 . S
C417 C418 1.396 . S
C417 C424 1.403 . S
C418 C408 1.476 . S
C418 N413 1.318 . S
C418 C417 1.396 . S
H419 C414 0.929 . S
O420 Mn396 2.385 . S
O420 C398 1.234 1_545 S
O421 Mn396 2.209 . S
O421 Mn397 2.215 1_545 S
O421 C398 1.283 1_545 S
O422 Mn396 2.094 . S
O422 C400 1.240 . S
O423 Mn397 2.117 1_545 S
O423 C400 1.264 . S
C424 C417 1.403 . S
C424 C425 1.399 . S
C424 H430 0.929 . S
C425 C405 1.449 . S
C425 C424 1.399 . S
C425 H431 0.930 . S
H426 C406 0.931 . S
H427 C407 0.930 . S
H428 C415 0.931 . S
H429 C416 0.929 . S
H430 C424 0.929 . S
H431 C425 0.930 . S
Mn432 O437 2.095 . S
Mn432 O447 2.162 . S
Mn432 O448 2.297 . S
Mn432 O456 2.385 . S
Mn432 O457 2.209 . S
Mn432 O458 2.094 . S
Mn433 O438 2.121 . S
Mn433 N440 2.257 . S
Mn433 N449 2.282 . S
Mn433 O457 2.215 . S
Mn433 O459 2.117 . S
C434 O456 1.234 . S
C434 O457 1.283 . S
C435 O447 1.281 . S
C435 O448 1.236 . S
C436 O458 1.240 . S
C436 O459 1.264 . S
O437 Mn432 2.095 . S
O437 C446 1.250 . S
O438 Mn433 2.121 . S
O438 C446 1.258 . S
C439 N440 1.326 . S
C439 C443 1.460 . S
C439 H445 0.929 . S
N440 Mn433 2.257 . S
N440 C439 1.326 . S
N440 C444 1.362 . S
C441 C442 1.258 . S
C441 C444 1.431 . S
C441 C461 1.449 . S
C442 C441 1.258 . S
C442 C443 1.477 . S
C442 H462 0.931 . S
C443 C439 1.460 . S
C443 C442 1.477 . S
C443 H463 0.930 . S
C444 N440 1.362 . S
C444 C441 1.431 . S
C444 C454 1.476 . S
H445 C439 0.929 . S
C446 O437 1.250 . S
C446 O438 1.258 . S
O447 Mn432 2.162 . S
O447 C435 1.281 . S
O448 Mn432 2.297 . S
O448 C435 1.236 . S
N449 Mn433 2.282 . S
N449 C450 1.328 . S
N449 C454 1.318 . S
C450 N449 1.328 . S
C450 C451 1.457 . S
C450 H455 0.929 . S
C451 C450 1.457 . S
C451 C452 1.291 . S
C451 H464 0.931 . S
C452 C451 1.291 . S
C452 C453 1.373 . S
C452 H465 0.929 . S
C453 C452 1.373 . S
C453 C454 1.396 . S
C453 C460 1.403 . S
C454 C444 1.476 . S
C454 N449 1.318 . S
C454 C453 1.396 . S
H455 C450 0.929 . S
O456 Mn432 2.385 . S
O456 C434 1.234 . S
O457 Mn432 2.209 . S
O457 Mn433 2.215 . S
O457 C434 1.283 . S
O458 Mn432 2.094 . S
O458 C436 1.240 . S
O459 Mn433 2.117 . S
O459 C436 1.264 . S
C460 C453 1.403 . S
C460 C461 1.399 . S
C460 H466 0.929 . S
C461 C441 1.449 . S
C461 C460 1.399 . S
C461 H467 0.930 . S
H462 C442 0.931 . S
H463 C443 0.930 . S
H464 C451 0.931 . S
H465 C452 0.929 . S
H466 C460 0.929 . S
H467 C461 0.930 . S
Mn468 O473 2.095 . S
Mn468 O483 2.162 . S
Mn468 O484 2.297 . S
Mn468 O492 2.385 . S
Mn468 O493 2.209 . S
Mn468 O494 2.094 . S
Mn469 O474 2.121 . S
Mn469 N476 2.257 . S
Mn469 N485 2.282 . S
Mn469 O493 2.215 . S
Mn469 O495 2.117 . S
C470 O492 1.234 . S
C470 O493 1.283 . S
C471 O483 1.281 . S
C471 O484 1.236 . S
C472 O494 1.240 . S
C472 O495 1.264 . S
O473 Mn468 2.095 . S
O473 C482 1.250 . S
O474 Mn469 2.121 . S
O474 C482 1.258 . S
C475 N476 1.326 . S
C475 C479 1.460 . S
C475 H481 0.929 . S
N476 Mn469 2.257 . S
N476 C475 1.326 . S
N476 C480 1.362 . S
C477 C478 1.258 . S
C477 C480 1.431 . S
C477 C497 1.449 . S
C478 C477 1.258 . S
C478 C479 1.477 . S
C478 H498 0.931 . S
C479 C475 1.460 . S
C479 C478 1.477 . S
C479 H499 0.930 . S
C480 N476 1.362 . S
C480 C477 1.431 . S
C480 C490 1.476 . S
H481 C475 0.929 . S
C482 O473 1.250 . S
C482 O474 1.258 . S
O483 Mn468 2.162 . S
O483 C471 1.281 . S
O484 Mn468 2.297 . S
O484 C471 1.236 . S
N485 Mn469 2.282 . S
N485 C486 1.328 . S
N485 C490 1.318 . S
C486 N485 1.328 . S
C486 C487 1.457 . S
C486 H491 0.929 . S
C487 C486 1.457 . S
C487 C488 1.291 . S
C487 H500 0.931 . S
C488 C487 1.291 . S
C488 C489 1.373 . S
C488 H501 0.929 . S
C489 C488 1.373 . S
C489 C490 1.396 . S
C489 C496 1.403 . S
C490 C480 1.476 . S
C490 N485 1.318 . S
C490 C489 1.396 . S
H491 C486 0.929 . S
O492 Mn468 2.385 . S
O492 C470 1.234 . S
O493 Mn468 2.209 . S
O493 Mn469 2.215 . S
O493 C470 1.283 . S
O494 Mn468 2.094 . S
O494 C472 1.240 . S
O495 Mn469 2.117 . S
O495 C472 1.264 . S
C496 C489 1.403 . S
C496 C497 1.399 . S
C496 H502 0.929 . S
C497 C477 1.449 . S
C497 C496 1.399 . S
C497 H503 0.930 . S
H498 C478 0.931 . S
H499 C479 0.930 . S
H500 C487 0.931 . S
H501 C488 0.929 . S
H502 C496 0.929 . S
H503 C497 0.930 . S
Mn504 O509 2.095 . S
Mn504 O519 2.162 . S
Mn504 O520 2.297 . S
Mn504 O528 2.385 . S
Mn504 O529 2.209 . S
Mn504 O530 2.094 . S
Mn505 O510 2.121 . S
Mn505 N512 2.257 . S
Mn505 N521 2.282 . S
Mn505 O529 2.215 . S
Mn505 O531 2.117 . S
C506 O528 1.234 . S
C506 O529 1.283 . S
C507 O519 1.281 . S
C507 O520 1.236 . S
C508 O530 1.240 . S
C508 O531 1.264 . S
O509 Mn504 2.095 . S
O509 C518 1.250 . S
O510 Mn505 2.121 . S
O510 C518 1.258 . S
C511 N512 1.326 . S
C511 C515 1.460 . S
C511 H517 0.929 . S
N512 Mn505 2.257 . S
N512 C511 1.326 . S
N512 C516 1.362 . S
C513 C514 1.258 . S
C513 C516 1.431 . S
C513 C533 1.449 . S
C514 C513 1.258 . S
C514 C515 1.477 . S
C514 H534 0.931 . S
C515 C511 1.460 . S
C515 C514 1.477 . S
C515 H535 0.930 . S
C516 N512 1.362 . S
C516 C513 1.431 . S
C516 C526 1.476 . S
H517 C511 0.929 . S
C518 O509 1.250 . S
C518 O510 1.258 . S
O519 Mn504 2.162 . S
O519 C507 1.281 . S
O520 Mn504 2.297 . S
O520 C507 1.236 . S
N521 Mn505 2.282 . S
N521 C522 1.328 . S
N521 C526 1.318 . S
C522 N521 1.328 . S
C522 C523 1.457 . S
C522 H527 0.929 . S
C523 C522 1.457 . S
C523 C524 1.291 . S
C523 H536 0.931 . S
C524 C523 1.291 . S
C524 C525 1.373 . S
C524 H537 0.929 . S
C525 C524 1.373 . S
C525 C526 1.396 . S
C525 C532 1.403 . S
C526 C516 1.476 . S
C526 N521 1.318 . S
C526 C525 1.396 . S
H527 C522 0.929 . S
O528 Mn504 2.385 . S
O528 C506 1.234 . S
O529 Mn504 2.209 . S
O529 Mn505 2.215 . S
O529 C506 1.283 . S
O530 Mn504 2.094 . S
O530 C508 1.240 . S
O531 Mn505 2.117 . S
O531 C508 1.264 . S
C532 C525 1.403 . S
C532 C533 1.399 . S
C532 H538 0.929 . S
C533 C513 1.449 . S
C533 C532 1.399 . S
C533 H539 0.930 . S
H534 C514 0.931 . S
H535 C515 0.930 . S
H536 C523 0.931 . S
H537 C524 0.929 . S
H538 C532 0.929 . S
H539 C533 0.930 . S
Mn540 O545 2.095 . S
Mn540 O555 2.162 . S
Mn540 O556 2.297 . S
Mn540 O564 2.385 . S
Mn540 O565 2.209 . S
Mn540 O566 2.094 . S
Mn541 O546 2.121 . S
Mn541 N548 2.257 . S
Mn541 N557 2.282 . S
Mn541 O565 2.215 . S
Mn541 O567 2.117 . S
C542 O564 1.234 . S
C542 O565 1.283 . S
C543 O555 1.281 . S
C543 O556 1.236 . S
C544 O566 1.240 . S
C544 O567 1.264 . S
O545 Mn540 2.095 . S
O545 C554 1.250 . S
O546 Mn541 2.121 . S
O546 C554 1.258 . S
C547 N548 1.326 . S
C547 C551 1.460 . S
C547 H553 0.929 . S
N548 Mn541 2.257 . S
N548 C547 1.326 . S
N548 C552 1.362 . S
C549 C550 1.258 . S
C549 C552 1.431 . S
C549 C569 1.449 . S
C550 C549 1.258 . S
C550 C551 1.477 . S
C550 H570 0.931 . S
C551 C547 1.460 . S
C551 C550 1.477 . S
C551 H571 0.930 . S
C552 N548 1.362 . S
C552 C549 1.431 . S
C552 C562 1.476 . S
H553 C547 0.929 . S
C554 O545 1.250 . S
C554 O546 1.258 . S
O555 Mn540 2.162 . S
O555 C543 1.281 . S
O556 Mn540 2.297 . S
O556 C543 1.236 . S
N557 Mn541 2.282 . S
N557 C558 1.328 . S
N557 C562 1.318 . S
C558 N557 1.328 . S
C558 C559 1.457 . S
C558 H563 0.929 . S
C559 C558 1.457 . S
C559 C560 1.291 . S
C559 H572 0.931 . S
C560 C559 1.291 . S
C560 C561 1.373 . S
C560 H573 0.929 . S
C561 C560 1.373 . S
C561 C562 1.396 . S
C561 C568 1.403 . S
C562 C552 1.476 . S
C562 N557 1.318 . S
C562 C561 1.396 . S
H563 C558 0.929 . S
O564 Mn540 2.385 . S
O564 C542 1.234 . S
O565 Mn540 2.209 . S
O565 Mn541 2.215 . S
O565 C542 1.283 . S
O566 Mn540 2.094 . S
O566 C544 1.240 . S
O567 Mn541 2.117 . S
O567 C544 1.264 . S
C568 C561 1.403 . S
C568 C569 1.399 . S
C568 H574 0.929 . S
C569 C549 1.449 . S
C569 C568 1.399 . S
C569 H575 0.930 . S
H570 C550 0.931 . S
H571 C551 0.930 . S
H572 C559 0.931 . S
H573 C560 0.929 . S
H574 C568 0.929 . S
H575 C569 0.930 . S
Mn576 O581 2.095 . S
Mn576 O591 2.162 . S
Mn576 O592 2.297 . S
Mn576 O600 2.385 . S
Mn576 O601 2.209 . S
Mn576 O602 2.094 . S
Mn577 O582 2.121 . S
Mn577 N584 2.257 . S
Mn577 N593 2.282 . S
Mn577 O601 2.215 . S
Mn577 O603 2.117 . S
C578 O600 1.234 . S
C578 O601 1.283 . S
C579 O591 1.281 . S
C579 O592 1.236 . S
C580 O602 1.240 . S
C580 O603 1.264 . S
O581 Mn576 2.095 . S
O581 C590 1.250 . S
O582 Mn577 2.121 . S
O582 C590 1.258 . S
C583 N584 1.326 . S
C583 C587 1.460 . S
C583 H589 0.929 . S
N584 Mn577 2.257 . S
N584 C583 1.326 . S
N584 C588 1.362 . S
C585 C586 1.258 . S
C585 C588 1.431 . S
C585 C605 1.449 . S
C586 C585 1.258 . S
C586 C587 1.477 . S
C586 H606 0.931 . S
C587 C583 1.460 . S
C587 C586 1.477 . S
C587 H607 0.930 . S
C588 N584 1.362 . S
C588 C585 1.431 . S
C588 C598 1.476 . S
H589 C583 0.929 . S
C590 O581 1.250 . S
C590 O582 1.258 . S
O591 Mn576 2.162 . S
O591 C579 1.281 . S
O592 Mn576 2.297 . S
O592 C579 1.236 . S
N593 Mn577 2.282 . S
N593 C594 1.328 . S
N593 C598 1.318 . S
C594 N593 1.328 . S
C594 C595 1.457 . S
C594 H599 0.929 . S
C595 C594 1.457 . S
C595 C596 1.291 . S
C595 H608 0.931 . S
C596 C595 1.291 . S
C596 C597 1.373 . S
C596 H609 0.929 . S
C597 C596 1.373 . S
C597 C598 1.396 . S
C597 C604 1.403 . S
C598 C588 1.476 . S
C598 N593 1.318 . S
C598 C597 1.396 . S
H599 C594 0.929 . S
O600 Mn576 2.385 . S
O600 C578 1.234 . S
O601 Mn576 2.209 . S
O601 Mn577 2.215 . S
O601 C578 1.283 . S
O602 Mn576 2.094 . S
O602 C580 1.240 . S
O603 Mn577 2.117 . S
O603 C580 1.264 . S
C604 C597 1.403 . S
C604 C605 1.399 . S
C604 H610 0.929 . S
C605 C585 1.449 . S
C605 C604 1.399 . S
C605 H611 0.930 . S
H606 C586 0.931 . S
H607 C587 0.930 . S
H608 C595 0.931 . S
H609 C596 0.929 . S
H610 C604 0.929 . S
H611 C605 0.930 . S
Mn612 O617 2.095 . S
Mn612 O627 2.162 . S
Mn612 O628 2.297 . S
Mn612 O636 2.385 . S
Mn612 O637 2.209 . S
Mn612 O638 2.094 . S
Mn613 O618 2.121 . S
Mn613 N620 2.257 . S
Mn613 N629 2.282 . S
Mn613 O637 2.215 . S
Mn613 O639 2.117 . S
C614 O636 1.234 . S
C614 O637 1.283 . S
C615 O627 1.281 . S
C615 O628 1.236 . S
C616 O638 1.240 . S
C616 O639 1.264 . S
O617 Mn612 2.095 . S
O617 C626 1.250 . S
O618 Mn613 2.121 . S
O618 C626 1.258 . S
C619 N620 1.326 . S
C619 C623 1.460 . S
C619 H625 0.929 . S
N620 Mn613 2.257 . S
N620 C619 1.326 . S
N620 C624 1.362 . S
C621 C622 1.258 . S
C621 C624 1.431 . S
C621 C641 1.449 . S
C622 C621 1.258 . S
C622 C623 1.477 . S
C622 H642 0.931 . S
C623 C619 1.460 . S
C623 C622 1.477 . S
C623 H643 0.930 . S
C624 N620 1.362 . S
C624 C621 1.431 . S
C624 C634 1.476 . S
H625 C619 0.929 . S
C626 O617 1.250 . S
C626 O618 1.258 . S
O627 Mn612 2.162 . S
O627 C615 1.281 . S
O628 Mn612 2.297 . S
O628 C615 1.236 . S
N629 Mn613 2.282 . S
N629 C630 1.328 . S
N629 C634 1.318 . S
C630 N629 1.328 . S
C630 C631 1.457 . S
C630 H635 0.929 . S
C631 C630 1.457 . S
C631 C632 1.291 . S
C631 H644 0.931 . S
C632 C631 1.291 . S
C632 C633 1.373 . S
C632 H645 0.929 . S
C633 C632 1.373 . S
C633 C634 1.396 . S
C633 C640 1.403 . S
C634 C624 1.476 . S
C634 N629 1.318 . S
C634 C633 1.396 . S
H635 C630 0.929 . S
O636 Mn612 2.385 . S
O636 C614 1.234 . S
O637 Mn612 2.209 . S
O637 Mn613 2.215 . S
O637 C614 1.283 . S
O638 Mn612 2.094 . S
O638 C616 1.240 . S
O639 Mn613 2.117 . S
O639 C616 1.264 . S
C640 C633 1.403 . S
C640 C641 1.399 . S
C640 H646 0.929 . S
C641 C621 1.449 . S
C641 C640 1.399 . S
C641 H647 0.930 . S
H642 C622 0.931 . S
H643 C623 0.930 . S
H644 C631 0.931 . S
H645 C632 0.929 . S
H646 C640 0.929 . S
H647 C641 0.930 . S
Mn648 O653 2.095 . S
Mn648 O663 2.162 . S
Mn648 O664 2.297 . S
Mn648 O672 2.385 . S
Mn648 O673 2.209 . S
Mn648 O674 2.094 . S
Mn649 O654 2.121 . S
Mn649 N656 2.257 . S
Mn649 N665 2.282 . S
Mn649 O673 2.215 . S
Mn649 O675 2.117 . S
C650 O672 1.234 . S
C650 O673 1.283 . S
C651 O663 1.281 . S
C651 O664 1.236 . S
C652 O674 1.240 . S
C652 O675 1.264 . S
O653 Mn648 2.095 . S
O653 C662 1.250 . S
O654 Mn649 2.121 . S
O654 C662 1.258 . S
C655 N656 1.326 . S
C655 C659 1.460 . S
C655 H661 0.929 . S
N656 Mn649 2.257 . S
N656 C655 1.326 . S
N656 C660 1.362 . S
C657 C658 1.258 . S
C657 C660 1.431 . S
C657 C677 1.449 . S
C658 C657 1.258 . S
C658 C659 1.477 . S
C658 H678 0.931 . S
C659 C655 1.460 . S
C659 C658 1.477 . S
C659 H679 0.930 . S
C660 N656 1.362 . S
C660 C657 1.431 . S
C660 C670 1.476 . S
H661 C655 0.929 . S
C662 O653 1.250 . S
C662 O654 1.258 . S
O663 Mn648 2.162 . S
O663 C651 1.281 . S
O664 Mn648 2.297 . S
O664 C651 1.236 . S
N665 Mn649 2.282 . S
N665 C666 1.328 . S
N665 C670 1.318 . S
C666 N665 1.328 . S
C666 C667 1.457 . S
C666 H671 0.929 . S
C667 C666 1.457 . S
C667 C668 1.291 . S
C667 H680 0.931 . S
C668 C667 1.291 . S
C668 C669 1.373 . S
C668 H681 0.929 . S
C669 C668 1.373 . S
C669 C670 1.396 . S
C669 C676 1.403 . S
C670 C660 1.476 . S
C670 N665 1.318 . S
C670 C669 1.396 . S
H671 C666 0.929 . S
O672 Mn648 2.385 . S
O672 C650 1.234 . S
O673 Mn648 2.209 . S
O673 Mn649 2.215 . S
O673 C650 1.283 . S
O674 Mn648 2.094 . S
O674 C652 1.240 . S
O675 Mn649 2.117 . S
O675 C652 1.264 . S
C676 C669 1.403 . S
C676 C677 1.399 . S
C676 H682 0.929 . S
C677 C657 1.449 . S
C677 C676 1.399 . S
C677 H683 0.930 . S
H678 C658 0.931 . S
H679 C659 0.930 . S
H680 C667 0.931 . S
H681 C668 0.929 . S
H682 C676 0.929 . S
H683 C677 0.930 . S
Mn684 O689 2.095 . S
Mn684 O699 2.162 . S
Mn684 O700 2.297 . S
Mn684 O708 2.385 . S
Mn684 O709 2.209 . S
Mn684 O710 2.094 . S
Mn685 O690 2.121 . S
Mn685 N692 2.257 . S
Mn685 N701 2.282 . S
Mn685 O709 2.215 . S
Mn685 O711 2.117 . S
C686 O708 1.234 . S
C686 O709 1.283 . S
C687 O699 1.281 . S
C687 O700 1.236 . S
C688 O710 1.240 . S
C688 O711 1.264 . S
O689 Mn684 2.095 . S
O689 C698 1.250 . S
O690 Mn685 2.121 . S
O690 C698 1.258 . S
C691 N692 1.326 . S
C691 C695 1.460 . S
C691 H697 0.929 . S
N692 Mn685 2.257 . S
N692 C691 1.326 . S
N692 C696 1.362 . S
C693 C694 1.258 . S
C693 C696 1.431 . S
C693 C713 1.449 . S
C694 C693 1.258 . S
C694 C695 1.477 . S
C694 H714 0.931 . S
C695 C691 1.460 . S
C695 C694 1.477 . S
C695 H715 0.930 . S
C696 N692 1.362 . S
C696 C693 1.431 . S
C696 C706 1.476 . S
H697 C691 0.929 . S
C698 O689 1.250 . S
C698 O690 1.258 . S
O699 Mn684 2.162 . S
O699 C687 1.281 . S
O700 Mn684 2.297 . S
O700 C687 1.236 . S
N701 Mn685 2.282 . S
N701 C702 1.328 . S
N701 C706 1.318 . S
C702 N701 1.328 . S
C702 C703 1.457 . S
C702 H707 0.929 . S
C703 C702 1.457 . S
C703 C704 1.291 . S
C703 H716 0.931 . S
C704 C703 1.291 . S
C704 C705 1.373 . S
C704 H717 0.929 . S
C705 C704 1.373 . S
C705 C706 1.396 . S
C705 C712 1.403 . S
C706 C696 1.476 . S
C706 N701 1.318 . S
C706 C705 1.396 . S
H707 C702 0.929 . S
O708 Mn684 2.385 . S
O708 C686 1.234 . S
O709 Mn684 2.209 . S
O709 Mn685 2.215 . S
O709 C686 1.283 . S
O710 Mn684 2.094 . S
O710 C688 1.240 . S
O711 Mn685 2.117 . S
O711 C688 1.264 . S
C712 C705 1.403 . S
C712 C713 1.399 . S
C712 H718 0.929 . S
C713 C693 1.449 . S
C713 C712 1.399 . S
C713 H719 0.930 . S
H714 C694 0.931 . S
H715 C695 0.930 . S
H716 C703 0.931 . S
H717 C704 0.929 . S
H718 C712 0.929 . S
H719 C713 0.930 . S
Mn720 O725 2.095 . S
Mn720 O735 2.162 . S
Mn720 O736 2.297 . S
Mn720 O744 2.385 . S
Mn720 O745 2.209 . S
Mn720 O746 2.094 . S
Mn721 O726 2.121 . S
Mn721 N728 2.257 . S
Mn721 N737 2.282 . S
Mn721 O745 2.215 . S
Mn721 O747 2.117 . S
C722 O744 1.234 . S
C722 O745 1.283 . S
C723 O735 1.281 . S
C723 O736 1.236 . S
C724 O746 1.240 . S
C724 O747 1.264 . S
O725 Mn720 2.095 . S
O725 C734 1.250 . S
O726 Mn721 2.121 . S
O726 C734 1.258 . S
C727 N728 1.326 . S
C727 C731 1.460 . S
C727 H733 0.929 . S
N728 Mn721 2.257 . S
N728 C727 1.326 . S
N728 C732 1.362 . S
C729 C730 1.258 . S
C729 C732 1.431 . S
C729 C749 1.449 . S
C730 C729 1.258 . S
C730 C731 1.477 . S
C730 H750 0.931 . S
C731 C727 1.460 . S
C731 C730 1.477 . S
C731 H751 0.930 . S
C732 N728 1.362 . S
C732 C729 1.431 . S
C732 C742 1.476 . S
H733 C727 0.929 . S
C734 O725 1.250 . S
C734 O726 1.258 . S
O735 Mn720 2.162 . S
O735 C723 1.281 . S
O736 Mn720 2.297 . S
O736 C723 1.236 . S
N737 Mn721 2.282 . S
N737 C738 1.328 . S
N737 C742 1.318 . S
C738 N737 1.328 . S
C738 C739 1.457 . S
C738 H743 0.929 . S
C739 C738 1.457 . S
C739 C740 1.291 . S
C739 H752 0.931 . S
C740 C739 1.291 . S
C740 C741 1.373 . S
C740 H753 0.929 . S
C741 C740 1.373 . S
C741 C742 1.396 . S
C741 C748 1.403 . S
C742 C732 1.476 . S
C742 N737 1.318 . S
C742 C741 1.396 . S
H743 C738 0.929 . S
O744 Mn720 2.385 . S
O744 C722 1.234 . S
O745 Mn720 2.209 . S
O745 Mn721 2.215 . S
O745 C722 1.283 . S
O746 Mn720 2.094 . S
O746 C724 1.240 . S
O747 Mn721 2.117 . S
O747 C724 1.264 . S
C748 C741 1.403 . S
C748 C749 1.399 . S
C748 H754 0.929 . S
C749 C729 1.449 . S
C749 C748 1.399 . S
C749 H755 0.930 . S
H750 C730 0.931 . S
H751 C731 0.930 . S
H752 C739 0.931 . S
H753 C740 0.929 . S
H754 C748 0.929 . S
H755 C749 0.930 . S
Mn756 O761 2.095 . S
Mn756 O771 2.162 . S
Mn756 O772 2.297 . S
Mn756 O780 2.385 . S
Mn756 O781 2.209 . S
Mn756 O782 2.094 . S
Mn757 O762 2.121 . S
Mn757 N764 2.257 . S
Mn757 N773 2.282 . S
Mn757 O781 2.215 . S
Mn757 O783 2.117 . S
C758 O780 1.234 . S
C758 O781 1.283 . S
C759 O771 1.281 . S
C759 O772 1.236 . S
C760 O782 1.240 . S
C760 O783 1.264 . S
O761 Mn756 2.095 . S
O761 C770 1.250 . S
O762 Mn757 2.121 . S
O762 C770 1.258 . S
C763 N764 1.326 1_554 S
C763 C767 1.460 . S
C763 H769 0.929 . S
N764 Mn757 2.257 . S
N764 C763 1.326 1_556 S
N764 C768 1.362 . S
C765 C766 1.228 1_556 S
C765 C768 1.455 . S
C765 C785 1.456 . S
C766 C765 1.228 1_554 S
C766 C767 1.477 . S
C766 H786 0.931 . S
C767 C763 1.460 . S
C767 C766 1.477 . S
C767 H787 0.930 . S
C768 N764 1.362 . S
C768 C765 1.455 . S
C768 C778 1.476 . S
H769 C763 0.929 . S
C770 O761 1.250 . S
C770 O762 1.258 . S
O771 Mn756 2.162 . S
O771 C759 1.281 . S
O772 Mn756 2.297 . S
O772 C759 1.236 . S
N773 Mn757 2.282 . S
N773 C774 1.328 . S
N773 C778 1.318 . S
C774 N773 1.328 . S
C774 C775 1.457 . S
C774 H779 0.929 . S
C775 C774 1.457 . S
C775 C776 1.291 . S
C775 H788 0.931 . S
C776 C775 1.291 . S
C776 C777 1.373 . S
C776 H789 0.929 . S
C777 C776 1.373 . S
C777 C778 1.396 . S
C777 C784 1.403 . S
C778 C768 1.476 . S
C778 N773 1.318 . S
C778 C777 1.396 . S
H779 C774 0.929 . S
O780 Mn756 2.385 . S
O780 C758 1.234 . S
O781 Mn756 2.209 . S
O781 Mn757 2.215 . S
O781 C758 1.283 . S
O782 Mn756 2.094 . S
O782 C760 1.240 . S
O783 Mn757 2.117 . S
O783 C760 1.264 . S
C784 C777 1.403 . S
C784 C785 1.399 . S
C784 H790 0.929 . S
C785 C765 1.456 . S
C785 C784 1.399 . S
C785 H791 0.930 1_556 S
H786 C766 0.931 . S
H787 C767 0.930 . S
H788 C775 0.931 . S
H789 C776 0.929 . S
H790 C784 0.929 . S
H791 C785 0.930 1_554 S
Mn792 O797 2.095 . S
Mn792 O807 2.162 . S
Mn792 O808 2.297 . S
Mn792 O816 2.385 . S
Mn792 O817 2.209 . S
Mn792 O818 2.094 . S
Mn793 O798 2.121 . S
Mn793 N800 2.257 . S
Mn793 N809 2.282 . S
Mn793 O817 2.215 . S
Mn793 O819 2.117 . S
C794 O816 1.234 . S
C794 O817 1.283 . S
C795 O807 1.281 . S
C795 O808 1.236 . S
C796 O818 1.240 . S
C796 O819 1.264 . S
O797 Mn792 2.095 . S
O797 C806 1.250 . S
O798 Mn793 2.121 . S
O798 C806 1.258 . S
C799 N800 1.326 1_554 S
C799 C803 1.460 . S
C799 H805 0.929 . S
N800 Mn793 2.257 . S
N800 C799 1.326 1_556 S
N800 C804 1.362 . S
C801 C802 1.228 1_556 S
C801 C804 1.455 . S
C801 C821 1.456 . S
C802 C801 1.228 1_554 S
C802 C803 1.477 . S
C802 H822 0.931 . S
C803 C799 1.460 . S
C803 C802 1.477 . S
C803 H823 0.930 . S
C804 N800 1.362 . S
C804 C801 1.455 . S
C804 C814 1.476 . S
H805 C799 0.929 . S
C806 O797 1.250 . S
C806 O798 1.258 . S
O807 Mn792 2.162 . S
O807 C795 1.281 . S
O808 Mn792 2.297 . S
O808 C795 1.236 . S
N809 Mn793 2.282 . S
N809 C810 1.328 . S
N809 C814 1.318 . S
C810 N809 1.328 . S
C810 C811 1.457 . S
C810 H815 0.929 . S
C811 C810 1.457 . S
C811 C812 1.291 . S
C811 H824 0.931 . S
C812 C811 1.291 . S
C812 C813 1.373 . S
C812 H825 0.929 . S
C813 C812 1.373 . S
C813 C814 1.396 . S
C813 C820 1.403 . S
C814 C804 1.476 . S
C814 N809 1.318 . S
C814 C813 1.396 . S
H815 C810 0.929 . S
O816 Mn792 2.385 . S
O816 C794 1.234 . S
O817 Mn792 2.209 . S
O817 Mn793 2.215 . S
O817 C794 1.283 . S
O818 Mn792 2.094 . S
O818 C796 1.240 . S
O819 Mn793 2.117 . S
O819 C796 1.264 . S
C820 C813 1.403 . S
C820 C821 1.399 . S
C820 H826 0.929 . S
C821 C801 1.456 . S
C821 C820 1.399 . S
C821 H827 0.930 1_556 S
H822 C802 0.931 . S
H823 C803 0.930 . S
H824 C811 0.931 . S
H825 C812 0.929 . S
H826 C820 0.929 . S
H827 C821 0.930 1_554 S
Mn828 O833 2.095 . S
Mn828 O843 2.162 . S
Mn828 O844 2.297 . S
Mn828 O852 2.385 . S
Mn828 O853 2.209 . S
Mn828 O854 2.094 . S
Mn829 O834 2.121 . S
Mn829 N836 2.257 . S
Mn829 N845 2.282 . S
Mn829 O853 2.215 . S
Mn829 O855 2.117 . S
C830 O852 1.234 . S
C830 O853 1.283 . S
C831 O843 1.281 . S
C831 O844 1.236 . S
C832 O854 1.240 . S
C832 O855 1.264 . S
O833 Mn828 2.095 . S
O833 C842 1.250 . S
O834 Mn829 2.121 . S
O834 C842 1.258 . S
C835 N836 1.326 1_554 S
C835 C839 1.460 . S
C835 H841 0.929 . S
N836 Mn829 2.257 . S
N836 C835 1.326 1_556 S
N836 C840 1.362 . S
C837 C838 1.228 1_556 S
C837 C840 1.455 . S
C837 C857 1.456 . S
C838 C837 1.228 1_554 S
C838 C839 1.477 . S
C838 H858 0.931 . S
C839 C835 1.460 . S
C839 C838 1.477 . S
C839 H859 0.930 . S
C840 N836 1.362 . S
C840 C837 1.455 . S
C840 C850 1.476 . S
H841 C835 0.929 . S
C842 O833 1.250 . S
C842 O834 1.258 . S
O843 Mn828 2.162 . S
O843 C831 1.281 . S
O844 Mn828 2.297 . S
O844 C831 1.236 . S
N845 Mn829 2.282 . S
N845 C846 1.328 . S
N845 C850 1.318 . S
C846 N845 1.328 . S
C846 C847 1.457 . S
C846 H851 0.929 . S
C847 C846 1.457 . S
C847 C848 1.291 . S
C847 H860 0.931 . S
C848 C847 1.291 . S
C848 C849 1.373 . S
C848 H861 0.929 . S
C849 C848 1.373 . S
C849 C850 1.396 . S
C849 C856 1.403 . S
C850 C840 1.476 . S
C850 N845 1.318 . S
C850 C849 1.396 . S
H851 C846 0.929 . S
O852 Mn828 2.385 . S
O852 C830 1.234 . S
O853 Mn828 2.209 . S
O853 Mn829 2.215 . S
O853 C830 1.283 . S
O854 Mn828 2.094 . S
O854 C832 1.240 . S
O855 Mn829 2.117 . S
O855 C832 1.264 . S
C856 C849 1.403 . S
C856 C857 1.399 . S
C856 H862 0.929 . S
C857 C837 1.456 . S
C857 C856 1.399 . S
C857 H863 0.930 1_556 S
H858 C838 0.931 . S
H859 C839 0.930 . S
H860 C847 0.931 . S
H861 C848 0.929 . S
H862 C856 0.929 . S
H863 C857 0.930 1_554 S
Mn864 O869 2.095 . S
Mn864 O879 2.162 . S
Mn864 O880 2.297 . S
Mn864 O888 2.385 . S
Mn864 O889 2.209 . S
Mn864 O890 2.094 . S
Mn865 O870 2.121 . S
Mn865 N872 2.257 . S
Mn865 N881 2.282 . S
Mn865 O889 2.215 . S
Mn865 O891 2.117 . S
C866 O888 1.234 . S
C866 O889 1.283 . S
C867 O879 1.281 . S
C867 O880 1.236 . S
C868 O890 1.240 . S
C868 O891 1.264 . S
O869 Mn864 2.095 . S
O869 C878 1.250 . S
O870 Mn865 2.121 . S
O870 C878 1.258 . S
C871 N872 1.326 . S
C871 C875 1.460 . S
C871 H877 0.929 . S
N872 Mn865 2.257 . S
N872 C871 1.326 . S
N872 C876 1.362 . S
C873 C874 1.258 . S
C873 C876 1.431 . S
C873 C893 1.449 . S
C874 C873 1.258 . S
C874 C875 1.477 . S
C874 H894 0.931 . S
C875 C871 1.460 . S
C875 C874 1.477 . S
C875 H895 0.930 . S
C876 N872 1.362 . S
C876 C873 1.431 . S
C876 C886 1.476 . S
H877 C871 0.929 . S
C878 O869 1.250 . S
C878 O870 1.258 . S
O879 Mn864 2.162 . S
O879 C867 1.281 . S
O880 Mn864 2.297 . S
O880 C867 1.236 . S
N881 Mn865 2.282 . S
N881 C882 1.328 . S
N881 C886 1.318 . S
C882 N881 1.328 . S
C882 C883 1.457 . S
C882 H887 0.929 . S
C883 C882 1.457 . S
C883 C884 1.291 . S
C883 H896 0.931 . S
C884 C883 1.291 . S
C884 C885 1.373 . S
C884 H897 0.929 . S
C885 C884 1.373 . S
C885 C886 1.396 . S
C885 C892 1.403 . S
C886 C876 1.476 . S
C886 N881 1.318 . S
C886 C885 1.396 . S
H887 C882 0.929 . S
O888 Mn864 2.385 . S
O888 C866 1.234 . S
O889 Mn864 2.209 . S
O889 Mn865 2.215 . S
O889 C866 1.283 . S
O890 Mn864 2.094 . S
O890 C868 1.240 . S
O891 Mn865 2.117 . S
O891 C868 1.264 . S
C892 C885 1.403 . S
C892 C893 1.399 . S
C892 H898 0.929 . S
C893 C873 1.449 . S
C893 C892 1.399 . S
C893 H899 0.930 . S
H894 C874 0.931 . S
H895 C875 0.930 . S
H896 C883 0.931 . S
H897 C884 0.929 . S
H898 C892 0.929 . S
H899 C893 0.930 . S
Mn900 O905 2.095 . S
Mn900 O915 2.162 . S
Mn900 O916 2.297 . S
Mn900 O924 2.385 . S
Mn900 O925 2.209 . S
Mn900 O926 2.094 . S
Mn901 O906 2.121 . S
Mn901 N908 2.257 . S
Mn901 N917 2.282 . S
Mn901 O925 2.215 . S
Mn901 O927 2.117 . S
C902 O924 1.234 . S
C902 O925 1.283 . S
C903 O915 1.281 . S
C903 O916 1.236 . S
C904 O926 1.240 . S
C904 O927 1.264 . S
O905 Mn900 2.095 . S
O905 C914 1.250 . S
O906 Mn901 2.121 . S
O906 C914 1.258 . S
C907 N908 1.326 . S
C907 C911 1.460 . S
C907 H913 0.929 . S
N908 Mn901 2.257 . S
N908 C907 1.326 . S
N908 C912 1.362 . S
C909 C910 1.258 . S
C909 C912 1.431 . S
C909 C929 1.449 . S
C910 C909 1.258 . S
C910 C911 1.477 . S
C910 H930 0.931 . S
C911 C907 1.460 . S
C911 C910 1.477 . S
C911 H931 0.930 . S
C912 N908 1.362 . S
C912 C909 1.431 . S
C912 C922 1.476 . S
H913 C907 0.929 . S
C914 O905 1.250 . S
C914 O906 1.258 . S
O915 Mn900 2.162 . S
O915 C903 1.281 . S
O916 Mn900 2.297 . S
O916 C903 1.236 . S
N917 Mn901 2.282 . S
N917 C918 1.328 . S
N917 C922 1.318 . S
C918 N917 1.328 . S
C918 C919 1.457 . S
C918 H923 0.929 . S
C919 C918 1.457 . S
C919 C920 1.291 . S
C919 H932 0.931 . S
C920 C919 1.291 . S
C920 C921 1.373 . S
C920 H933 0.929 . S
C921 C920 1.373 . S
C921 C922 1.396 . S
C921 C928 1.403 . S
C922 C912 1.476 . S
C922 N917 1.318 . S
C922 C921 1.396 . S
H923 C918 0.929 . S
O924 Mn900 2.385 . S
O924 C902 1.234 . S
O925 Mn900 2.209 . S
O925 Mn901 2.215 . S
O925 C902 1.283 . S
O926 Mn900 2.094 . S
O926 C904 1.240 . S
O927 Mn901 2.117 . S
O927 C904 1.264 . S
C928 C921 1.403 . S
C928 C929 1.399 . S
C928 H934 0.929 . S
C929 C909 1.449 . S
C929 C928 1.399 . S
C929 H935 0.930 . S
H930 C910 0.931 . S
H931 C911 0.930 . S
H932 C919 0.931 . S
H933 C920 0.929 . S
H934 C928 0.929 . S
H935 C929 0.930 . S
Mn936 O941 2.095 . S
Mn936 O951 2.162 . S
Mn936 O952 2.297 . S
Mn936 O960 2.385 . S
Mn936 O961 2.209 . S
Mn936 O962 2.094 . S
Mn937 O942 2.121 . S
Mn937 N944 2.257 . S
Mn937 N953 2.282 . S
Mn937 O961 2.215 . S
Mn937 O963 2.117 . S
C938 O960 1.234 . S
C938 O961 1.283 . S
C939 O951 1.281 . S
C939 O952 1.236 . S
C940 O962 1.240 . S
C940 O963 1.264 . S
O941 Mn936 2.095 . S
O941 C950 1.250 . S
O942 Mn937 2.121 . S
O942 C950 1.258 . S
C943 N944 1.326 . S
C943 C947 1.460 . S
C943 H949 0.929 . S
N944 Mn937 2.257 . S
N944 C943 1.326 . S
N944 C948 1.362 . S
C945 C946 1.258 . S
C945 C948 1.431 . S
C945 C965 1.449 . S
C946 C945 1.258 . S
C946 C947 1.477 . S
C946 H966 0.931 . S
C947 C943 1.460 . S
C947 C946 1.477 . S
C947 H967 0.930 . S
C948 N944 1.362 . S
C948 C945 1.431 . S
C948 C958 1.476 . S
H949 C943 0.929 . S
C950 O941 1.250 . S
C950 O942 1.258 . S
O951 Mn936 2.162 . S
O951 C939 1.281 . S
O952 Mn936 2.297 . S
O952 C939 1.236 . S
N953 Mn937 2.282 . S
N953 C954 1.328 . S
N953 C958 1.318 . S
C954 N953 1.328 . S
C954 C955 1.457 . S
C954 H959 0.929 . S
C955 C954 1.457 . S
C955 C956 1.291 . S
C955 H968 0.931 . S
C956 C955 1.291 . S
C956 C957 1.373 . S
C956 H969 0.929 . S
C957 C956 1.373 . S
C957 C958 1.396 . S
C957 C964 1.403 . S
C958 C948 1.476 . S
C958 N953 1.318 . S
C958 C957 1.396 . S
H959 C954 0.929 . S
O960 Mn936 2.385 . S
O960 C938 1.234 . S
O961 Mn936 2.209 . S
O961 Mn937 2.215 . S
O961 C938 1.283 . S
O962 Mn936 2.094 . S
O962 C940 1.240 . S
O963 Mn937 2.117 . S
O963 C940 1.264 . S
C964 C957 1.403 . S
C964 C965 1.399 . S
C964 H970 0.929 . S
C965 C945 1.449 . S
C965 C964 1.399 . S
C965 H971 0.930 . S
H966 C946 0.931 . S
H967 C947 0.930 . S
H968 C955 0.931 . S
H969 C956 0.929 . S
H970 C964 0.929 . S
H971 C965 0.930 . S
Mn972 O977 2.095 . S
Mn972 O987 2.162 . S
Mn972 O988 2.297 . S
Mn972 O996 2.385 . S
Mn972 O997 2.209 . S
Mn972 O998 2.094 . S
Mn973 O978 2.121 . S
Mn973 N980 2.257 . S
Mn973 N989 2.282 . S
Mn973 O997 2.215 . S
Mn973 O999 2.117 . S
C974 O996 1.234 . S
C974 O997 1.283 . S
C975 O987 1.281 . S
C975 O988 1.236 . S
C976 O998 1.240 . S
C976 O999 1.264 . S
O977 Mn972 2.095 . S
O977 C986 1.250 . S
O978 Mn973 2.121 . S
O978 C986 1.258 . S
C979 N980 1.326 1_556 S
C979 C983 1.460 . S
C979 H985 0.929 . S
N980 Mn973 2.257 . S
N980 C979 1.326 1_554 S
N980 C984 1.362 . S
C981 C982 1.228 1_554 S
C981 C984 1.455 . S
C981 C1001 1.456 . S
C982 C981 1.228 1_556 S
C982 C983 1.477 . S
C982 H1002 0.931 . S
C983 C979 1.460 . S
C983 C982 1.477 . S
C983 H1003 0.930 . S
C984 N980 1.362 . S
C984 C981 1.455 . S
C984 C994 1.476 . S
H985 C979 0.929 . S
C986 O977 1.250 . S
C986 O978 1.258 . S
O987 Mn972 2.162 . S
O987 C975 1.281 . S
O988 Mn972 2.297 . S
O988 C975 1.236 . S
N989 Mn973 2.282 . S
N989 C990 1.328 . S
N989 C994 1.318 . S
C990 N989 1.328 . S
C990 C991 1.457 . S
C990 H995 0.929 . S
C991 C990 1.457 . S
C991 C992 1.291 . S
C991 H1004 0.931 . S
C992 C991 1.291 . S
C992 C993 1.373 . S
C992 H1005 0.929 . S
C993 C992 1.373 . S
C993 C994 1.396 . S
C993 C1000 1.403 . S
C994 C984 1.476 . S
C994 N989 1.318 . S
C994 C993 1.396 . S
H995 C990 0.929 . S
O996 Mn972 2.385 . S
O996 C974 1.234 . S
O997 Mn972 2.209 . S
O997 Mn973 2.215 . S
O997 C974 1.283 . S
O998 Mn972 2.094 . S
O998 C976 1.240 . S
O999 Mn973 2.117 . S
O999 C976 1.264 . S
C1000 C993 1.403 . S
C1000 C1001 1.399 . S
C1000 H1006 0.929 . S
C1001 C981 1.456 . S
C1001 C1000 1.399 . S
C1001 H1007 0.930 1_554 S
H1002 C982 0.931 . S
H1003 C983 0.930 . S
H1004 C991 0.931 . S
H1005 C992 0.929 . S
H1006 C1000 0.929 . S
H1007 C1001 0.930 1_556 S
Mn1008 O1013 2.095 . S
Mn1008 O1023 2.162 . S
Mn1008 O1024 2.297 . S
Mn1008 O1032 2.385 . S
Mn1008 O1033 2.209 . S
Mn1008 O1034 2.094 . S
Mn1009 O1014 2.121 . S
Mn1009 N1016 2.257 . S
Mn1009 N1025 2.282 . S
Mn1009 O1033 2.215 . S
Mn1009 O1035 2.117 . S
C1010 O1032 1.234 . S
C1010 O1033 1.283 . S
C1011 O1023 1.281 . S
C1011 O1024 1.236 . S
C1012 O1034 1.240 . S
C1012 O1035 1.264 . S
O1013 Mn1008 2.095 . S
O1013 C1022 1.250 . S
O1014 Mn1009 2.121 . S
O1014 C1022 1.258 . S
C1015 N1016 1.326 1_556 S
C1015 C1019 1.460 . S
C1015 H1021 0.929 . S
N1016 Mn1009 2.257 . S
N1016 C1015 1.326 1_554 S
N1016 C1020 1.362 . S
C1017 C1018 1.228 1_554 S
C1017 C1020 1.455 . S
C1017 C1037 1.456 . S
C1018 C1017 1.228 1_556 S
C1018 C1019 1.477 . S
C1018 H1038 0.931 . S
C1019 C1015 1.460 . S
C1019 C1018 1.477 . S
C1019 H1039 0.930 . S
C1020 N1016 1.362 . S
C1020 C1017 1.455 . S
C1020 C1030 1.476 . S
H1021 C1015 0.929 . S
C1022 O1013 1.250 . S
C1022 O1014 1.258 . S
O1023 Mn1008 2.162 . S
O1023 C1011 1.281 . S
O1024 Mn1008 2.297 . S
O1024 C1011 1.236 . S
N1025 Mn1009 2.282 . S
N1025 C1026 1.328 . S
N1025 C1030 1.318 . S
C1026 N1025 1.328 . S
C1026 C1027 1.457 . S
C1026 H1031 0.929 . S
C1027 C1026 1.457 . S
C1027 C1028 1.291 . S
C1027 H1040 0.931 . S
C1028 C1027 1.291 . S
C1028 C1029 1.373 . S
C1028 H1041 0.929 . S
C1029 C1028 1.373 . S
C1029 C1030 1.396 . S
C1029 C1036 1.403 . S
C1030 C1020 1.476 . S
C1030 N1025 1.318 . S
C1030 C1029 1.396 . S
H1031 C1026 0.929 . S
O1032 Mn1008 2.385 . S
O1032 C1010 1.234 . S
O1033 Mn1008 2.209 . S
O1033 Mn1009 2.215 . S
O1033 C1010 1.283 . S
O1034 Mn1008 2.094 . S
O1034 C1012 1.240 . S
O1035 Mn1009 2.117 . S
O1035 C1012 1.264 . S
C1036 C1029 1.403 . S
C1036 C1037 1.399 . S
C1036 H1042 0.929 . S
C1037 C1017 1.456 . S
C1037 C1036 1.399 . S
C1037 H1043 0.930 1_554 S
H1038 C1018 0.931 . S
H1039 C1019 0.930 . S
H1040 C1027 0.931 . S
H1041 C1028 0.929 . S
H1042 C1036 0.929 . S
H1043 C1037 0.930 1_556 S
Mn1044 O1049 2.095 . S
Mn1044 O1059 2.162 . S
Mn1044 O1060 2.297 . S
Mn1044 O1068 2.385 . S
Mn1044 O1069 2.209 . S
Mn1044 O1070 2.094 . S
Mn1045 O1050 2.121 . S
Mn1045 N1052 2.257 . S
Mn1045 N1061 2.282 . S
Mn1045 O1069 2.215 . S
Mn1045 O1071 2.117 . S
C1046 O1068 1.234 . S
C1046 O1069 1.283 . S
C1047 O1059 1.281 . S
C1047 O1060 1.236 . S
C1048 O1070 1.240 . S
C1048 O1071 1.264 . S
O1049 Mn1044 2.095 . S
O1049 C1058 1.250 . S
O1050 Mn1045 2.121 . S
O1050 C1058 1.258 . S
C1051 N1052 1.326 1_556 S
C1051 C1055 1.460 . S
C1051 H1057 0.929 . S
N1052 Mn1045 2.257 . S
N1052 C1051 1.326 1_554 S
N1052 C1056 1.362 . S
C1053 C1054 1.228 1_554 S
C1053 C1056 1.455 . S
C1053 C1073 1.456 . S
C1054 C1053 1.228 1_556 S
C1054 C1055 1.477 . S
C1054 H1074 0.931 . S
C1055 C1051 1.460 . S
C1055 C1054 1.477 . S
C1055 H1075 0.930 . S
C1056 N1052 1.362 . S
C1056 C1053 1.455 . S
C1056 C1066 1.476 . S
H1057 C1051 0.929 . S
C1058 O1049 1.250 . S
C1058 O1050 1.258 . S
O1059 Mn1044 2.162 . S
O1059 C1047 1.281 . S
O1060 Mn1044 2.297 . S
O1060 C1047 1.236 . S
N1061 Mn1045 2.282 . S
N1061 C1062 1.328 . S
N1061 C1066 1.318 . S
C1062 N1061 1.328 . S
C1062 C1063 1.457 . S
C1062 H1067 0.929 . S
C1063 C1062 1.457 . S
C1063 C1064 1.291 . S
C1063 H1076 0.931 . S
C1064 C1063 1.291 . S
C1064 C1065 1.373 . S
C1064 H1077 0.929 . S
C1065 C1064 1.373 . S
C1065 C1066 1.396 . S
C1065 C1072 1.403 . S
C1066 C1056 1.476 . S
C1066 N1061 1.318 . S
C1066 C1065 1.396 . S
H1067 C1062 0.929 . S
O1068 Mn1044 2.385 . S
O1068 C1046 1.234 . S
O1069 Mn1044 2.209 . S
O1069 Mn1045 2.215 . S
O1069 C1046 1.283 . S
O1070 Mn1044 2.094 . S
O1070 C1048 1.240 . S
O1071 Mn1045 2.117 . S
O1071 C1048 1.264 . S
C1072 C1065 1.403 . S
C1072 C1073 1.399 . S
C1072 H1078 0.929 . S
C1073 C1053 1.456 . S
C1073 C1072 1.399 . S
C1073 H1079 0.930 1_554 S
H1074 C1054 0.931 . S
H1075 C1055 0.930 . S
H1076 C1063 0.931 . S
H1077 C1064 0.929 . S
H1078 C1072 0.929 . S
H1079 C1073 0.930 1_556 S
Mn1080 O1085 2.095 . S
Mn1080 O1095 2.162 . S
Mn1080 O1096 2.297 . S
Mn1080 O1104 2.385 . S
Mn1080 O1105 2.209 . S
Mn1080 O1106 2.094 . S
Mn1081 O1086 2.121 . S
Mn1081 N1088 2.257 . S
Mn1081 N1097 2.282 . S
Mn1081 O1105 2.215 . S
Mn1081 O1107 2.117 . S
C1082 O1104 1.234 . S
C1082 O1105 1.283 . S
C1083 O1095 1.281 . S
C1083 O1096 1.236 . S
C1084 O1106 1.240 . S
C1084 O1107 1.264 . S
O1085 Mn1080 2.095 . S
O1085 C1094 1.250 . S
O1086 Mn1081 2.121 . S
O1086 C1094 1.258 . S
C1087 N1088 1.326 . S
C1087 C1091 1.460 . S
C1087 H1093 0.929 . S
N1088 Mn1081 2.257 . S
N1088 C1087 1.326 . S
N1088 C1092 1.362 . S
C1089 C1090 1.258 . S
C1089 C1092 1.431 . S
C1089 C1109 1.449 . S
C1090 C1089 1.258 . S
C1090 C1091 1.477 . S
C1090 H1110 0.931 . S
C1091 C1087 1.460 . S
C1091 C1090 1.477 . S
C1091 H1111 0.930 . S
C1092 N1088 1.362 . S
C1092 C1089 1.431 . S
C1092 C1102 1.476 . S
H1093 C1087 0.929 . S
C1094 O1085 1.250 . S
C1094 O1086 1.258 . S
O1095 Mn1080 2.162 . S
O1095 C1083 1.281 . S
O1096 Mn1080 2.297 . S
O1096 C1083 1.236 . S
N1097 Mn1081 2.282 . S
N1097 C1098 1.328 . S
N1097 C1102 1.318 . S
C1098 N1097 1.328 . S
C1098 C1099 1.457 . S
C1098 H1103 0.929 . S
C1099 C1098 1.457 . S
C1099 C1100 1.291 . S
C1099 H1112 0.931 . S
C1100 C1099 1.291 . S
C1100 C1101 1.373 . S
C1100 H1113 0.929 . S
C1101 C1100 1.373 . S
C1101 C1102 1.396 . S
C1101 C1108 1.403 . S
C1102 C1092 1.476 . S
C1102 N1097 1.318 . S
C1102 C1101 1.396 . S
H1103 C1098 0.929 . S
O1104 Mn1080 2.385 . S
O1104 C1082 1.234 . S
O1105 Mn1080 2.209 . S
O1105 Mn1081 2.215 . S
O1105 C1082 1.283 . S
O1106 Mn1080 2.094 . S
O1106 C1084 1.240 . S
O1107 Mn1081 2.117 . S
O1107 C1084 1.264 . S
C1108 C1101 1.403 . S
C1108 C1109 1.399 . S
C1108 H1114 0.929 . S
C1109 C1089 1.449 . S
C1109 C1108 1.399 . S
C1109 H1115 0.930 . S
H1110 C1090 0.931 . S
H1111 C1091 0.930 . S
H1112 C1099 0.931 . S
H1113 C1100 0.929 . S
H1114 C1108 0.929 . S
H1115 C1109 0.930 . S
Mn1116 O1121 2.095 . S
Mn1116 O1131 2.162 . S
Mn1116 O1132 2.297 . S
Mn1116 O1140 2.385 . S
Mn1116 O1141 2.209 . S
Mn1116 O1142 2.094 . S
Mn1117 O1122 2.121 . S
Mn1117 N1124 2.257 . S
Mn1117 N1133 2.282 . S
Mn1117 O1141 2.215 . S
Mn1117 O1143 2.117 . S
C1118 O1140 1.234 . S
C1118 O1141 1.283 . S
C1119 O1131 1.281 . S
C1119 O1132 1.236 . S
C1120 O1142 1.240 . S
C1120 O1143 1.264 . S
O1121 Mn1116 2.095 . S
O1121 C1130 1.250 . S
O1122 Mn1117 2.121 . S
O1122 C1130 1.258 . S
C1123 N1124 1.326 . S
C1123 C1127 1.460 . S
C1123 H1129 0.929 . S
N1124 Mn1117 2.257 . S
N1124 C1123 1.326 . S
N1124 C1128 1.362 . S
C1125 C1126 1.258 . S
C1125 C1128 1.431 . S
C1125 C1145 1.449 . S
C1126 C1125 1.258 . S
C1126 C1127 1.477 . S
C1126 H1146 0.931 . S
C1127 C1123 1.460 . S
C1127 C1126 1.477 . S
C1127 H1147 0.930 . S
C1128 N1124 1.362 . S
C1128 C1125 1.431 . S
C1128 C1138 1.476 . S
H1129 C1123 0.929 . S
C1130 O1121 1.250 . S
C1130 O1122 1.258 . S
O1131 Mn1116 2.162 . S
O1131 C1119 1.281 . S
O1132 Mn1116 2.297 . S
O1132 C1119 1.236 . S
N1133 Mn1117 2.282 . S
N1133 C1134 1.328 . S
N1133 C1138 1.318 . S
C1134 N1133 1.328 . S
C1134 C1135 1.457 . S
C1134 H1139 0.929 . S
C1135 C1134 1.457 . S
C1135 C1136 1.291 . S
C1135 H1148 0.931 . S
C1136 C1135 1.291 . S
C1136 C1137 1.373 . S
C1136 H1149 0.929 . S
C1137 C1136 1.373 . S
C1137 C1138 1.396 . S
C1137 C1144 1.403 . S
C1138 C1128 1.476 . S
C1138 N1133 1.318 . S
C1138 C1137 1.396 . S
H1139 C1134 0.929 . S
O1140 Mn1116 2.385 . S
O1140 C1118 1.234 . S
O1141 Mn1116 2.209 . S
O1141 Mn1117 2.215 . S
O1141 C1118 1.283 . S
O1142 Mn1116 2.094 . S
O1142 C1120 1.240 . S
O1143 Mn1117 2.117 . S
O1143 C1120 1.264 . S
C1144 C1137 1.403 . S
C1144 C1145 1.399 . S
C1144 H1150 0.929 . S
C1145 C1125 1.449 . S
C1145 C1144 1.399 . S
C1145 H1151 0.930 . S
H1146 C1126 0.931 . S
H1147 C1127 0.930 . S
H1148 C1135 0.931 . S
H1149 C1136 0.929 . S
H1150 C1144 0.929 . S
H1151 C1145 0.930 . S
Mn1152 O1157 2.095 . S
Mn1152 O1167 2.162 . S
Mn1152 O1168 2.297 . S
Mn1152 O1176 2.385 . S
Mn1152 O1177 2.209 . S
Mn1152 O1178 2.094 . S
Mn1153 O1158 2.121 . S
Mn1153 N1160 2.257 . S
Mn1153 N1169 2.282 . S
Mn1153 O1177 2.215 . S
Mn1153 O1179 2.117 . S
C1154 O1176 1.234 . S
C1154 O1177 1.283 . S
C1155 O1167 1.281 . S
C1155 O1168 1.236 . S
C1156 O1178 1.240 . S
C1156 O1179 1.264 . S
O1157 Mn1152 2.095 . S
O1157 C1166 1.250 . S
O1158 Mn1153 2.121 . S
O1158 C1166 1.258 . S
C1159 N1160 1.326 . S
C1159 C1163 1.460 . S
C1159 H1165 0.929 . S
N1160 Mn1153 2.257 . S
N1160 C1159 1.326 . S
N1160 C1164 1.362 . S
C1161 C1162 1.258 . S
C1161 C1164 1.431 . S
C1161 C1181 1.449 . S
C1162 C1161 1.258 . S
C1162 C1163 1.477 . S
C1162 H1182 0.931 . S
C1163 C1159 1.460 . S
C1163 C1162 1.477 . S
C1163 H1183 0.930 . S
C1164 N1160 1.362 . S
C1164 C1161 1.431 . S
C1164 C1174 1.476 . S
H1165 C1159 0.929 . S
C1166 O1157 1.250 . S
C1166 O1158 1.258 . S
O1167 Mn1152 2.162 . S
O1167 C1155 1.281 . S
O1168 Mn1152 2.297 . S
O1168 C1155 1.236 . S
N1169 Mn1153 2.282 . S
N1169 C1170 1.328 . S
N1169 C1174 1.318 . S
C1170 N1169 1.328 . S
C1170 C1171 1.457 . S
C1170 H1175 0.929 . S
C1171 C1170 1.457 . S
C1171 C1172 1.291 . S
C1171 H1184 0.931 . S
C1172 C1171 1.291 . S
C1172 C1173 1.373 . S
C1172 H1185 0.929 . S
C1173 C1172 1.373 . S
C1173 C1174 1.396 . S
C1173 C1180 1.403 . S
C1174 C1164 1.476 . S
C1174 N1169 1.318 . S
C1174 C1173 1.396 . S
H1175 C1170 0.929 . S
O1176 Mn1152 2.385 . S
O1176 C1154 1.234 . S
O1177 Mn1152 2.209 . S
O1177 Mn1153 2.215 . S
O1177 C1154 1.283 . S
O1178 Mn1152 2.094 . S
O1178 C1156 1.240 . S
O1179 Mn1153 2.117 . S
O1179 C1156 1.264 . S
C1180 C1173 1.403 . S
C1180 C1181 1.399 . S
C1180 H1186 0.929 . S
C1181 C1161 1.449 . S
C1181 C1180 1.399 . S
C1181 H1187 0.930 . S
H1182 C1162 0.931 . S
H1183 C1163 0.930 . S
H1184 C1171 0.931 . S
H1185 C1172 0.929 . S
H1186 C1180 0.929 . S
H1187 C1181 0.930 . S
Mn1188 O1193 2.095 . S
Mn1188 O1203 2.162 . S
Mn1188 O1204 2.297 . S
Mn1188 O1212 2.385 . S
Mn1188 O1213 2.209 . S
Mn1188 O1214 2.094 . S
Mn1189 O1194 2.121 . S
Mn1189 N1196 2.257 . S
Mn1189 N1205 2.282 . S
Mn1189 O1213 2.215 . S
Mn1189 O1215 2.117 . S
C1190 O1212 1.234 . S
C1190 O1213 1.283 . S
C1191 O1203 1.281 . S
C1191 O1204 1.236 . S
C1192 O1214 1.240 . S
C1192 O1215 1.264 . S
O1193 Mn1188 2.095 . S
O1193 C1202 1.250 . S
O1194 Mn1189 2.121 . S
O1194 C1202 1.258 . S
C1195 N1196 1.326 . S
C1195 C1199 1.460 . S
C1195 H1201 0.929 . S
N1196 Mn1189 2.257 . S
N1196 C1195 1.326 . S
N1196 C1200 1.362 . S
C1197 C1198 1.258 . S
C1197 C1200 1.431 . S
C1197 C1217 1.449 . S
C1198 C1197 1.258 . S
C1198 C1199 1.477 . S
C1198 H1218 0.931 . S
C1199 C1195 1.460 . S
C1199 C1198 1.477 . S
C1199 H1219 0.930 . S
C1200 N1196 1.362 . S
C1200 C1197 1.431 . S
C1200 C1210 1.476 . S
H1201 C1195 0.929 . S
C1202 O1193 1.250 . S
C1202 O1194 1.258 . S
O1203 Mn1188 2.162 . S
O1203 C1191 1.281 . S
O1204 Mn1188 2.297 . S
O1204 C1191 1.236 . S
N1205 Mn1189 2.282 . S
N1205 C1206 1.328 . S
N1205 C1210 1.318 . S
C1206 N1205 1.328 . S
C1206 C1207 1.457 . S
C1206 H1211 0.929 . S
C1207 C1206 1.457 . S
C1207 C1208 1.291 . S
C1207 H1220 0.931 . S
C1208 C1207 1.291 . S
C1208 C1209 1.373 . S
C1208 H1221 0.929 . S
C1209 C1208 1.373 . S
C1209 C1210 1.396 . S
C1209 C1216 1.403 . S
C1210 C1200 1.476 . S
C1210 N1205 1.318 . S
C1210 C1209 1.396 . S
H1211 C1206 0.929 . S
O1212 Mn1188 2.385 . S
O1212 C1190 1.234 . S
O1213 Mn1188 2.209 . S
O1213 Mn1189 2.215 . S
O1213 C1190 1.283 . S
O1214 Mn1188 2.094 . S
O1214 C1192 1.240 . S
O1215 Mn1189 2.117 . S
O1215 C1192 1.264 . S
C1216 C1209 1.403 . S
C1216 C1217 1.399 . S
C1216 H1222 0.929 . S
C1217 C1197 1.449 . S
C1217 C1216 1.399 . S
C1217 H1223 0.930 . S
H1218 C1198 0.931 . S
H1219 C1199 0.930 . S
H1220 C1207 0.931 . S
H1221 C1208 0.929 . S
H1222 C1216 0.929 . S
H1223 C1217 0.930 . S
Mn1224 O1229 2.095 . S
Mn1224 O1239 2.162 . S
Mn1224 O1240 2.297 . S
Mn1224 O1248 2.385 . S
Mn1224 O1249 2.209 . S
Mn1224 O1250 2.094 . S
Mn1225 O1230 2.121 . S
Mn1225 N1232 2.257 . S
Mn1225 N1241 2.282 . S
Mn1225 O1249 2.215 . S
Mn1225 O1251 2.117 . S
C1226 O1248 1.234 . S
C1226 O1249 1.283 . S
C1227 O1239 1.281 . S
C1227 O1240 1.236 . S
C1228 O1250 1.240 . S
C1228 O1251 1.264 . S
O1229 Mn1224 2.095 . S
O1229 C1238 1.250 . S
O1230 Mn1225 2.121 . S
O1230 C1238 1.258 . S
C1231 N1232 1.326 . S
C1231 C1235 1.460 . S
C1231 H1237 0.929 . S
N1232 Mn1225 2.257 . S
N1232 C1231 1.326 . S
N1232 C1236 1.362 . S
C1233 C1234 1.258 . S
C1233 C1236 1.431 . S
C1233 C1253 1.449 . S
C1234 C1233 1.258 . S
C1234 C1235 1.477 . S
C1234 H1254 0.931 . S
C1235 C1231 1.460 . S
C1235 C1234 1.477 . S
C1235 H1255 0.930 . S
C1236 N1232 1.362 . S
C1236 C1233 1.431 . S
C1236 C1246 1.476 . S
H1237 C1231 0.929 . S
C1238 O1229 1.250 . S
C1238 O1230 1.258 . S
O1239 Mn1224 2.162 . S
O1239 C1227 1.281 . S
O1240 Mn1224 2.297 . S
O1240 C1227 1.236 . S
N1241 Mn1225 2.282 . S
N1241 C1242 1.328 . S
N1241 C1246 1.318 . S
C1242 N1241 1.328 . S
C1242 C1243 1.457 . S
C1242 H1247 0.929 . S
C1243 C1242 1.457 . S
C1243 C1244 1.291 . S
C1243 H1256 0.931 . S
C1244 C1243 1.291 . S
C1244 C1245 1.373 . S
C1244 H1257 0.929 . S
C1245 C1244 1.373 . S
C1245 C1246 1.396 . S
C1245 C1252 1.403 . S
C1246 C1236 1.476 . S
C1246 N1241 1.318 . S
C1246 C1245 1.396 . S
H1247 C1242 0.929 . S
O1248 Mn1224 2.385 . S
O1248 C1226 1.234 . S
O1249 Mn1224 2.209 . S
O1249 Mn1225 2.215 . S
O1249 C1226 1.283 . S
O1250 Mn1224 2.094 . S
O1250 C1228 1.240 . S
O1251 Mn1225 2.117 . S
O1251 C1228 1.264 . S
C1252 C1245 1.403 . S
C1252 C1253 1.399 . S
C1252 H1258 0.929 . S
C1253 C1233 1.449 . S
C1253 C1252 1.399 . S
C1253 H1259 0.930 . S
H1254 C1234 0.931 . S
H1255 C1235 0.930 . S
H1256 C1243 0.931 . S
H1257 C1244 0.929 . S
H1258 C1252 0.929 . S
H1259 C1253 0.930 . S
Mn1260 O1265 2.095 . S
Mn1260 O1275 2.162 . S
Mn1260 O1276 2.297 . S
Mn1260 O1284 2.385 . S
Mn1260 O1285 2.209 . S
Mn1260 O1286 2.094 . S
Mn1261 O1266 2.121 . S
Mn1261 N1268 2.257 . S
Mn1261 N1277 2.282 . S
Mn1261 O1285 2.215 . S
Mn1261 O1287 2.117 . S
C1262 O1284 1.234 . S
C1262 O1285 1.283 . S
C1263 O1275 1.281 . S
C1263 O1276 1.236 . S
C1264 O1286 1.240 . S
C1264 O1287 1.264 . S
O1265 Mn1260 2.095 . S
O1265 C1274 1.250 . S
O1266 Mn1261 2.121 . S
O1266 C1274 1.258 . S
C1267 N1268 1.326 . S
C1267 C1271 1.460 . S
C1267 H1273 0.929 . S
N1268 Mn1261 2.257 . S
N1268 C1267 1.326 . S
N1268 C1272 1.362 . S
C1269 C1270 1.258 . S
C1269 C1272 1.431 . S
C1269 C1289 1.449 . S
C1270 C1269 1.258 . S
C1270 C1271 1.477 . S
C1270 H1290 0.931 . S
C1271 C1267 1.460 . S
C1271 C1270 1.477 . S
C1271 H1291 0.930 . S
C1272 N1268 1.362 . S
C1272 C1269 1.431 . S
C1272 C1282 1.476 . S
H1273 C1267 0.929 . S
C1274 O1265 1.250 . S
C1274 O1266 1.258 . S
O1275 Mn1260 2.162 . S
O1275 C1263 1.281 . S
O1276 Mn1260 2.297 . S
O1276 C1263 1.236 . S
N1277 Mn1261 2.282 . S
N1277 C1278 1.328 . S
N1277 C1282 1.318 . S
C1278 N1277 1.328 . S
C1278 C1279 1.457 . S
C1278 H1283 0.929 . S
C1279 C1278 1.457 . S
C1279 C1280 1.291 . S
C1279 H1292 0.931 . S
C1280 C1279 1.291 . S
C1280 C1281 1.373 . S
C1280 H1293 0.929 . S
C1281 C1280 1.373 . S
C1281 C1282 1.396 . S
C1281 C1288 1.403 . S
C1282 C1272 1.476 . S
C1282 N1277 1.318 . S
C1282 C1281 1.396 . S
H1283 C1278 0.929 . S
O1284 Mn1260 2.385 . S
O1284 C1262 1.234 . S
O1285 Mn1260 2.209 . S
O1285 Mn1261 2.215 . S
O1285 C1262 1.283 . S
O1286 Mn1260 2.094 . S
O1286 C1264 1.240 . S
O1287 Mn1261 2.117 . S
O1287 C1264 1.264 . S
C1288 C1281 1.403 . S
C1288 C1289 1.399 . S
C1288 H1294 0.929 . S
C1289 C1269 1.449 . S
C1289 C1288 1.399 . S
C1289 H1295 0.930 . S
H1290 C1270 0.931 . S
H1291 C1271 0.930 . S
H1292 C1279 0.931 . S
H1293 C1280 0.929 . S
H1294 C1288 0.929 . S
H1295 C1289 0.930 . S
C1296 C1297 1.387 . S
C1296 H1300 0.950 . S
C1296 C1305 1.390 . S
C1297 C1296 1.387 . S
C1297 C1299 1.387 . S
H1298 C1305 0.950 . S
C1299 C1297 1.387 . S
C1299 C1301 1.390 . S
C1299 H1303 0.950 . S
H1300 C1296 0.950 . S
C1301 C1299 1.390 . S
C1301 C1302 1.387 . S
C1301 H1304 0.950 . S
C1302 C1301 1.387 . S
C1302 C1305 1.387 . S
H1303 C1299 0.950 . S
H1304 C1301 0.950 . S
C1305 C1296 1.390 . S
C1305 H1298 0.950 . S
C1305 C1302 1.387 . S
C1306 C1307 1.387 . S
C1306 H1310 0.950 . S
C1306 C1315 1.390 . S
C1307 C1306 1.387 . S
C1307 C1309 1.387 . S
H1308 C1315 0.950 . S
C1309 C1307 1.387 . S
C1309 C1311 1.390 . S
C1309 H1313 0.950 . S
H1310 C1306 0.950 . S
C1311 C1309 1.390 . S
C1311 C1312 1.387 . S
C1311 H1314 0.950 . S
C1312 C1311 1.387 . S
C1312 C1315 1.387 . S
H1313 C1309 0.950 . S
H1314 C1311 0.950 . S
C1315 C1306 1.390 . S
C1315 H1308 0.950 . S
C1315 C1312 1.387 . S
C1316 C1317 1.387 . S
C1316 H1320 0.950 . S
C1316 C1325 1.390 . S
C1317 C1316 1.387 . S
C1317 C1319 1.387 . S
H1318 C1325 0.950 . S
C1319 C1317 1.387 . S
C1319 C1321 1.390 . S
C1319 H1323 0.950 . S
H1320 C1316 0.950 . S
C1321 C1319 1.390 . S
C1321 C1322 1.387 . S
C1321 H1324 0.950 . S
C1322 C1321 1.387 . S
C1322 C1325 1.387 . S
H1323 C1319 0.950 . S
H1324 C1321 0.950 . S
C1325 C1316 1.390 . S
C1325 H1318 0.950 . S
C1325 C1322 1.387 . S
C1326 C1327 1.387 . S
C1326 H1330 0.950 . S
C1326 C1335 1.390 . S
C1327 C1326 1.387 . S
C1327 C1329 1.387 . S
H1328 C1335 0.950 . S
C1329 C1327 1.387 . S
C1329 C1331 1.390 . S
C1329 H1333 0.950 . S
H1330 C1326 0.950 . S
C1331 C1329 1.390 . S
C1331 C1332 1.387 . S
C1331 H1334 0.950 . S
C1332 C1331 1.387 . S
C1332 C1335 1.387 . S
H1333 C1329 0.950 . S
H1334 C1331 0.950 . S
C1335 C1326 1.390 . S
C1335 H1328 0.950 . S
C1335 C1332 1.387 . S
C1336 C1337 1.387 . S
C1336 H1340 0.950 . S
C1336 C1345 1.390 . S
C1337 C1336 1.387 . S
C1337 C1339 1.387 . S
H1338 C1345 0.950 . S
C1339 C1337 1.387 . S
C1339 C1341 1.390 . S
C1339 H1343 0.950 . S
H1340 C1336 0.950 . S
C1341 C1339 1.390 . S
C1341 C1342 1.387 . S
C1341 H1344 0.950 . S
C1342 C1341 1.387 . S
C1342 C1345 1.387 . S
H1343 C1339 0.950 . S
H1344 C1341 0.950 . S
C1345 C1336 1.390 . S
C1345 H1338 0.950 . S
C1345 C1342 1.387 . S
C1346 C1347 1.387 . S
C1346 H1350 0.950 . S
C1346 C1355 1.390 . S
C1347 C1346 1.387 . S
C1347 C1349 1.387 . S
H1348 C1355 0.950 . S
C1349 C1347 1.387 . S
C1349 C1351 1.390 . S
C1349 H1353 0.950 . S
H1350 C1346 0.950 . S
C1351 C1349 1.390 . S
C1351 C1352 1.387 . S
C1351 H1354 0.950 . S
C1352 C1351 1.387 . S
C1352 C1355 1.387 . S
H1353 C1349 0.950 . S
H1354 C1351 0.950 . S
C1355 C1346 1.390 . S
C1355 H1348 0.950 . S
C1355 C1352 1.387 . S
C1356 C1357 1.387 . S
C1356 H1360 0.950 . S
C1356 C1365 1.390 . S
C1357 C1356 1.387 . S
C1357 C1359 1.387 . S
H1358 C1365 0.950 . S
C1359 C1357 1.387 . S
C1359 C1361 1.390 . S
C1359 H1363 0.950 . S
H1360 C1356 0.950 . S
C1361 C1359 1.390 . S
C1361 C1362 1.387 . S
C1361 H1364 0.950 . S
C1362 C1361 1.387 . S
C1362 C1365 1.387 . S
H1363 C1359 0.950 . S
H1364 C1361 0.950 . S
C1365 C1356 1.390 . S
C1365 H1358 0.950 . S
C1365 C1362 1.387 . S
C1366 C1367 1.387 . S
C1366 H1370 0.950 . S
C1366 C1375 1.390 . S
C1367 C1366 1.387 . S
C1367 C1369 1.387 . S
H1368 C1375 0.950 . S
C1369 C1367 1.387 . S
C1369 C1371 1.390 . S
C1369 H1373 0.950 . S
H1370 C1366 0.950 . S
C1371 C1369 1.390 . S
C1371 C1372 1.387 . S
C1371 H1374 0.950 . S
C1372 C1371 1.387 . S
C1372 C1375 1.387 . S
H1373 C1369 0.950 . S
H1374 C1371 0.950 . S
C1375 C1366 1.390 . S
C1375 H1368 0.950 . S
C1375 C1372 1.387 . S
C1376 C1377 1.387 . S
C1376 H1380 0.950 . S
C1376 C1385 1.390 . S
C1377 C1376 1.387 . S
C1377 C1379 1.387 . S
H1378 C1385 0.950 . S
C1379 C1377 1.387 . S
C1379 C1381 1.390 . S
C1379 H1383 0.950 . S
H1380 C1376 0.950 . S
C1381 C1379 1.390 . S
C1381 C1382 1.387 . S
C1381 H1384 0.950 . S
C1382 C1381 1.387 . S
C1382 C1385 1.387 . S
H1383 C1379 0.950 . S
H1384 C1381 0.950 . S
C1385 C1376 1.390 . S
C1385 H1378 0.950 . S
C1385 C1382 1.387 . S
C1386 C1387 1.387 . S
C1386 H1390 0.950 . S
C1386 C1395 1.390 . S
C1387 C1386 1.387 . S
C1387 C1389 1.387 . S
H1388 C1395 0.950 . S
C1389 C1387 1.387 . S
C1389 C1391 1.390 . S
C1389 H1393 0.950 . S
H1390 C1386 0.950 . S
C1391 C1389 1.390 . S
C1391 C1392 1.387 . S
C1391 H1394 0.950 . S
C1392 C1391 1.387 . S
C1392 C1395 1.387 . S
H1393 C1389 0.950 . S
H1394 C1391 0.950 . S
C1395 C1386 1.390 . S
C1395 H1388 0.950 . S
C1395 C1392 1.387 . S
C1396 C1397 1.387 . S
C1396 H1400 0.950 . S
C1396 C1405 1.390 . S
C1397 C1396 1.387 . S
C1397 C1399 1.387 . S
H1398 C1405 0.950 . S
C1399 C1397 1.387 . S
C1399 C1401 1.390 . S
C1399 H1403 0.950 . S
H1400 C1396 0.950 . S
C1401 C1399 1.390 . S
C1401 C1402 1.387 . S
C1401 H1404 0.950 . S
C1402 C1401 1.387 . S
C1402 C1405 1.387 . S
H1403 C1399 0.950 . S
H1404 C1401 0.950 . S
C1405 C1396 1.390 . S
C1405 H1398 0.950 . S
C1405 C1402 1.387 . S
C1406 C1407 1.387 . S
C1406 H1410 0.950 . S
C1406 C1415 1.390 . S
C1407 C1406 1.387 . S
C1407 C1409 1.387 . S
H1408 C1415 0.950 . S
C1409 C1407 1.387 . S
C1409 C1411 1.390 . S
C1409 H1413 0.950 . S
H1410 C1406 0.950 . S
C1411 C1409 1.390 . S
C1411 C1412 1.387 . S
C1411 H1414 0.950 . S
C1412 C1411 1.387 . S
C1412 C1415 1.387 . S
H1413 C1409 0.950 . S
H1414 C1411 0.950 . S
C1415 C1406 1.390 . S
C1415 H1408 0.950 . S
C1415 C1412 1.387 . S
C1416 C1417 1.387 1_655 S
C1416 H1420 0.950 . S
C1416 C1425 1.390 . S
C1417 C1416 1.387 1_455 S
C1417 C1419 1.387 . S
H1418 C1425 0.950 . S
C1419 C1417 1.387 . S
C1419 C1421 1.390 . S
C1419 H1423 0.950 . S
H1420 C1416 0.950 . S
C1421 C1419 1.390 . S
C1421 C1422 1.387 1_455 S
C1421 H1424 0.950 . S
C1422 C1421 1.387 1_655 S
C1422 C1425 1.387 . S
H1423 C1419 0.950 . S
H1424 C1421 0.950 . S
C1425 C1416 1.390 . S
C1425 H1418 0.950 . S
C1425 C1422 1.387 . S
C1426 C1427 1.387 . S
C1426 H1430 0.950 . S
C1426 C1435 1.390 . S
C1427 C1426 1.387 . S
C1427 C1429 1.387 . S
H1428 C1435 0.950 . S
C1429 C1427 1.387 . S
C1429 C1431 1.390 . S
C1429 H1433 0.950 . S
H1430 C1426 0.950 . S
C1431 C1429 1.390 . S
C1431 C1432 1.387 . S
C1431 H1434 0.950 . S
C1432 C1431 1.387 . S
C1432 C1435 1.387 . S
H1433 C1429 0.950 . S
H1434 C1431 0.950 . S
C1435 C1426 1.390 . S
C1435 H1428 0.950 . S
C1435 C1432 1.387 . S
C1436 C1437 1.387 . S
C1436 H1440 0.950 . S
C1436 C1445 1.390 1_545 S
C1437 C1436 1.387 . S
C1437 C1439 1.387 . S
H1438 C1445 0.950 . S
C1439 C1437 1.387 . S
C1439 C1441 1.390 1_545 S
C1439 H1443 0.950 . S
H1440 C1436 0.950 . S
C1441 C1439 1.390 1_565 S
C1441 C1442 1.387 . S
C1441 H1444 0.950 . S
C1442 C1441 1.387 . S
C1442 C1445 1.387 . S
H1443 C1439 0.950 . S
H1444 C1441 0.950 . S
C1445 C1436 1.390 1_565 S
C1445 H1438 0.950 . S
C1445 C1442 1.387 . S
C1446 C1447 1.387 . S
C1446 H1450 0.950 . S
C1446 C1455 1.390 1_554 S
C1447 C1446 1.387 . S
C1447 C1449 1.387 1_565 S
H1448 C1455 0.950 . S
C1449 C1447 1.387 1_545 S
C1449 C1451 1.390 1_554 S
C1449 H1453 0.950 . S
H1450 C1446 0.950 . S
C1451 C1449 1.390 1_556 S
C1451 C1452 1.387 . S
C1451 H1454 0.950 . S
C1452 C1451 1.387 . S
C1452 C1455 1.387 1_545 S
H1453 C1449 0.950 . S
H1454 C1451 0.950 . S
C1455 C1446 1.390 1_556 S
C1455 H1448 0.950 . S
C1455 C1452 1.387 1_565 S
C1456 C1457 1.387 . S
C1456 H1460 0.950 . S
C1456 C1465 1.390 1_556 S
C1457 C1456 1.387 . S
C1457 C1459 1.387 1_655 S
H1458 C1465 0.950 . S
C1459 C1457 1.387 1_455 S
C1459 C1461 1.390 1_556 S
C1459 H1463 0.950 . S
H1460 C1456 0.950 . S
C1461 C1459 1.390 1_554 S
C1461 C1462 1.387 . S
C1461 H1464 0.950 . S
C1462 C1461 1.387 . S
C1462 C1465 1.387 1_455 S
H1463 C1459 0.950 . S
H1464 C1461 0.950 . S
C1465 C1456 1.390 1_554 S
C1465 H1458 0.950 . S
C1465 C1462 1.387 1_655 S
C1466 C1467 1.387 . S
C1466 H1470 0.950 . S
C1466 C1475 1.390 1_556 S
C1467 C1466 1.387 . S
C1467 C1469 1.387 . S
H1468 C1475 0.950 . S
C1469 C1467 1.387 . S
C1469 C1471 1.390 1_556 S
C1469 H1473 0.950 . S
H1470 C1466 0.950 . S
C1471 C1469 1.390 1_554 S
C1471 C1472 1.387 . S
C1471 H1474 0.950 . S
C1472 C1471 1.387 . S
C1472 C1475 1.387 . S
H1473 C1469 0.950 . S
H1474 C1471 0.950 . S
C1475 C1466 1.390 1_554 S
C1475 H1468 0.950 . S
C1475 C1472 1.387 . S
C1476 C1477 1.396 . S
C1476 H1480 0.953 . S
C1476 C1485 1.378 1_545 S
C1477 C1476 1.396 . S
C1477 C1479 1.387 . S
H1478 C1485 0.950 . S
C1479 C1477 1.387 . S
C1479 C1481 1.390 1_545 S
C1479 H1483 0.950 . S
H1480 C1476 0.953 . S
C1481 C1479 1.390 1_565 S
C1481 C1482 1.387 . S
C1481 H1484 0.950 . S
C1482 C1481 1.387 . S
C1482 C1485 1.387 . S
H1483 C1479 0.950 . S
H1484 C1481 0.950 . S
C1485 C1476 1.378 1_565 S
C1485 H1478 0.950 . S
C1485 C1482 1.387 . S
C1486 C1487 1.387 1_655 S
C1486 H1490 0.950 . S
C1486 C1495 1.390 . S
C1487 C1486 1.387 1_455 S
C1487 C1489 1.387 . S
H1488 C1495 0.950 . S
C1489 C1487 1.387 . S
C1489 C1491 1.390 . S
C1489 H1493 0.950 . S
H1490 C1486 0.950 . S
C1491 C1489 1.390 . S
C1491 C1492 1.387 1_455 S
C1491 H1494 0.950 . S
C1492 C1491 1.387 1_655 S
C1492 C1495 1.387 . S
H1493 C1489 0.950 . S
H1494 C1491 0.950 . S
C1495 C1486 1.390 . S
C1495 H1488 0.950 . S
C1495 C1492 1.387 . S
C1496 C1497 1.387 . S
C1496 H1500 0.950 . S
C1496 C1505 1.390 . S
C1497 C1496 1.387 . S
C1497 C1499 1.387 . S
H1498 C1505 0.950 . S
C1499 C1497 1.387 . S
C1499 C1501 1.390 . S
C1499 H1503 0.950 . S
H1500 C1496 0.950 . S
C1501 C1499 1.390 . S
C1501 C1502 1.387 . S
C1501 H1504 0.950 . S
C1502 C1501 1.387 . S
C1502 C1505 1.387 . S
H1503 C1499 0.950 . S
H1504 C1501 0.950 . S
C1505 C1496 1.390 . S
C1505 H1498 0.950 . S
C1505 C1502 1.387 . S
C1506 C1507 1.387 . S
C1506 H1510 0.950 . S
C1506 C1515 1.390 1_655 S
C1507 C1506 1.387 . S
C1507 C1509 1.387 . S
H1508 C1515 0.950 . S
C1509 C1507 1.387 . S
C1509 C1511 1.390 . S
C1509 H1513 0.950 . S
H1510 C1506 0.950 . S
C1511 C1509 1.390 . S
C1511 C1512 1.387 1_655 S
C1511 H1514 0.944 1_655 S
C1512 C1511 1.387 1_455 S
C1512 C1515 1.387 . S
H1513 C1509 0.950 . S
H1514 C1511 0.944 1_455 S
C1515 C1506 1.390 1_455 S
C1515 H1508 0.950 . S
C1515 C1512 1.387 . S
C1516 C1517 1.387 . S
C1516 H1520 0.950 . S
C1516 C1525 1.390 . S
C1517 C1516 1.387 . S
C1517 C1519 1.387 . S
H1518 C1525 0.950 . S
C1519 C1517 1.387 . S
C1519 C1521 1.390 . S
C1519 H1523 0.950 . S
H1520 C1516 0.950 . S
C1521 C1519 1.390 . S
C1521 C1522 1.387 . S
C1521 H1524 0.950 . S
C1522 C1521 1.387 . S
C1522 C1525 1.387 . S
H1523 C1519 0.950 . S
H1524 C1521 0.950 . S
C1525 C1516 1.390 . S
C1525 H1518 0.950 . S
C1525 C1522 1.387 . S
C1526 C1527 1.387 . S
C1526 H1530 0.950 . S
C1526 C1535 1.390 . S
C1527 C1526 1.387 . S
C1527 C1529 1.387 . S
H1528 C1535 0.950 . S
C1529 C1527 1.387 . S
C1529 C1531 1.390 1_545 S
C1529 H1533 0.950 1_545 S
H1530 C1526 0.950 . S
C1531 C1529 1.390 1_565 S
C1531 C1532 1.387 . S
C1531 H1534 0.950 . S
C1532 C1531 1.387 . S
C1532 C1535 1.387 1_565 S
H1533 C1529 0.950 1_565 S
H1534 C1531 0.950 . S
C1535 C1526 1.390 . S
C1535 H1528 0.950 . S
C1535 C1532 1.387 1_545 S
C1536 C1537 1.387 . S
C1536 H1540 0.950 . S
C1536 C1545 1.390 . S
C1537 C1536 1.387 . S
C1537 C1539 1.387 1_565 S
H1538 C1545 0.950 . S
C1539 C1537 1.387 1_545 S
C1539 C1541 1.390 . S
C1539 H1543 0.950 . S
H1540 C1536 0.950 . S
C1541 C1539 1.390 . S
C1541 C1542 1.387 . S
C1541 H1544 0.950 . S
C1542 C1541 1.387 . S
C1542 C1545 1.387 1_545 S
H1543 C1539 0.950 . S
H1544 C1541 0.950 . S
C1545 C1536 1.390 . S
C1545 H1538 0.950 . S
C1545 C1542 1.387 1_565 S
C1546 C1547 1.387 1_455 S
C1546 H1550 0.950 . S
C1546 C1555 1.390 . S
C1547 C1546 1.387 1_655 S
C1547 C1549 1.387 . S
H1548 C1555 0.950 . S
C1549 C1547 1.387 . S
C1549 C1551 1.390 . S
C1549 H1553 0.950 . S
H1550 C1546 0.950 . S
C1551 C1549 1.390 . S
C1551 C1552 1.387 1_655 S
C1551 H1554 0.950 . S
C1552 C1551 1.387 1_455 S
C1552 C1555 1.387 . S
H1553 C1549 0.950 . S
H1554 C1551 0.950 . S
C1555 C1546 1.390 . S
C1555 H1548 0.950 . S
C1555 C1552 1.387 . S
C1556 C1557 1.387 . S
C1556 H1560 0.950 . S
C1556 C1565 1.390 . S
C1557 C1556 1.387 . S
C1557 C1559 1.387 . S
H1558 C1565 0.950 . S
C1559 C1557 1.387 . S
C1559 C1561 1.390 . S
C1559 H1563 0.950 . S
H1560 C1556 0.950 . S
C1561 C1559 1.390 . S
C1561 C1562 1.387 . S
C1561 H1564 0.950 . S
C1562 C1561 1.387 . S
C1562 C1565 1.387 . S
H1563 C1559 0.950 . S
H1564 C1561 0.950 . S
C1565 C1556 1.390 . S
C1565 H1558 0.950 . S
C1565 C1562 1.387 . S
C1566 C1567 1.387 1_455 S
C1566 H1570 0.943 1_455 S
C1566 C1575 1.390 . S
C1567 C1566 1.387 1_655 S
C1567 C1569 1.387 . S
H1568 C1575 0.950 . S
C1569 C1567 1.387 . S
C1569 C1571 1.390 1_655 S
C1569 H1573 0.950 . S
H1570 C1566 0.943 1_655 S
C1571 C1569 1.390 1_455 S
C1571 C1572 1.387 . S
C1571 H1574 0.950 . S
C1572 C1571 1.387 . S
C1572 C1575 1.387 . S
H1573 C1569 0.950 . S
H1574 C1571 0.950 . S
C1575 C1566 1.390 . S
C1575 H1568 0.950 . S
C1575 C1572 1.387 . S
C1576 C1577 1.387 . S
C1576 H1580 0.950 . S
C1576 C1585 1.390 . S
C1577 C1576 1.387 . S
C1577 C1579 1.387 . S
H1578 C1585 0.950 . S
C1579 C1577 1.387 . S
C1579 C1581 1.390 . S
C1579 H1583 0.950 . S
H1580 C1576 0.950 . S
C1581 C1579 1.390 . S
C1581 C1582 1.387 . S
C1581 H1584 0.950 . S
C1582 C1581 1.387 . S
C1582 C1585 1.387 . S
H1583 C1579 0.950 . S
H1584 C1581 0.950 . S
C1585 C1576 1.390 . S
C1585 H1578 0.950 . S
C1585 C1582 1.387 . S
C1586 C1587 1.387 . S
C1586 H1590 0.950 . S
C1586 C1595 1.390 . S
C1587 C1586 1.387 . S
C1587 C1589 1.387 1_545 S
H1588 C1595 0.950 . S
C1589 C1587 1.387 1_565 S
C1589 C1591 1.390 . S
C1589 H1593 0.950 . S
H1590 C1586 0.950 . S
C1591 C1589 1.390 . S
C1591 C1592 1.387 . S
C1591 H1594 0.950 . S
C1592 C1591 1.387 . S
C1592 C1595 1.387 1_565 S
H1593 C1589 0.950 . S
H1594 C1591 0.950 . S
C1595 C1586 1.390 . S
C1595 H1588 0.950 . S
C1595 C1592 1.387 1_545 S
C1596 C1597 1.387 . S
C1596 H1600 0.950 . S
C1596 C1605 1.390 . S
C1597 C1596 1.387 . S
C1597 C1599 1.387 . S
H1598 C1605 0.950 . S
C1599 C1597 1.387 . S
C1599 C1601 1.390 . S
C1599 H1603 0.950 . S
H1600 C1596 0.950 . S
C1601 C1599 1.390 . S
C1601 C1602 1.387 . S
C1601 H1604 0.950 . S
C1602 C1601 1.387 . S
C1602 C1605 1.387 . S
H1603 C1599 0.950 . S
H1604 C1601 0.950 . S
C1605 C1596 1.390 . S
C1605 H1598 0.950 . S
C1605 C1602 1.387 . S
C1606 C1607 1.387 . S
C1606 H1610 0.950 . S
C1606 C1615 1.390 1_545 S
C1607 C1606 1.387 . S
C1607 C1609 1.387 . S
H1608 C1615 0.950 . S
C1609 C1607 1.387 . S
C1609 C1611 1.390 1_545 S
C1609 H1613 0.950 . S
H1610 C1606 0.950 . S
C1611 C1609 1.390 1_565 S
C1611 C1612 1.387 . S
C1611 H1614 0.950 . S
C1612 C1611 1.387 . S
C1612 C1615 1.387 . S
H1613 C1609 0.950 . S
H1614 C1611 0.950 . S
C1615 C1606 1.390 1_565 S
C1615 H1608 0.950 . S
C1615 C1612 1.387 . S
C1616 C1617 1.387 . S
C1616 H1620 0.950 . S
C1616 C1625 1.390 1_655 S
C1617 C1616 1.387 . S
C1617 C1619 1.387 . S
H1618 C1625 0.950 . S
C1619 C1617 1.387 . S
C1619 C1621 1.390 1_655 S
C1619 H1623 0.950 . S
H1620 C1616 0.950 . S
C1621 C1619 1.390 1_455 S
C1621 C1622 1.387 . S
C1621 H1624 0.950 . S
C1622 C1621 1.387 . S
C1622 C1625 1.387 . S
H1623 C1619 0.950 . S
H1624 C1621 0.950 . S
C1625 C1616 1.390 1_455 S
C1625 H1618 0.950 . S
C1625 C1622 1.387 . S
C1626 C1627 1.387 . S
C1626 H1630 0.950 . S
C1626 C1635 1.390 . S
C1627 C1626 1.387 . S
C1627 C1629 1.387 . S
H1628 C1635 0.950 . S
C1629 C1627 1.387 . S
C1629 C1631 1.390 . S
C1629 H1633 0.950 . S
H1630 C1626 0.950 . S
C1631 C1629 1.390 . S
C1631 C1632 1.387 . S
C1631 H1634 0.950 . S
C1632 C1631 1.387 . S
C1632 C1635 1.387 . S
H1633 C1629 0.950 . S
H1634 C1631 0.950 . S
C1635 C1626 1.390 . S
C1635 H1628 0.950 . S
C1635 C1632 1.387 . S
C1636 C1637 1.387 . S
C1636 H1640 0.950 . S
C1636 C1645 1.390 1_565 S
C1637 C1636 1.387 . S
C1637 C1639 1.387 . S
H1638 C1645 0.950 . S
C1639 C1637 1.387 . S
C1639 C1641 1.390 1_565 S
C1639 H1643 0.950 . S
H1640 C1636 0.950 . S
C1641 C1639 1.390 1_545 S
C1641 C1642 1.387 . S
C1641 H1644 0.950 . S
C1642 C1641 1.387 . S
C1642 C1645 1.387 . S
H1643 C1639 0.950 . S
H1644 C1641 0.950 . S
C1645 C1636 1.390 1_545 S
C1645 H1638 0.950 . S
C1645 C1642 1.387 . S
C1646 C1647 1.387 . S
C1646 H1650 0.950 . S
C1646 C1655 1.390 1_655 S
C1647 C1646 1.387 . S
C1647 C1649 1.387 . S
H1648 C1655 0.950 . S
C1649 C1647 1.387 . S
C1649 C1651 1.390 1_655 S
C1649 H1653 0.950 . S
H1650 C1646 0.950 . S
C1651 C1649 1.390 1_455 S
C1651 C1652 1.387 . S
C1651 H1654 0.950 . S
C1652 C1651 1.387 . S
C1652 C1655 1.387 . S
H1653 C1649 0.950 . S
H1654 C1651 0.950 . S
C1655 C1646 1.390 1_455 S
C1655 H1648 0.950 . S
C1655 C1652 1.387 . S
C1656 C1657 1.387 . S
C1656 H1660 0.950 . S
C1656 C1665 1.390 . S
C1657 C1656 1.387 . S
C1657 C1659 1.387 . S
H1658 C1665 0.950 . S
C1659 C1657 1.387 . S
C1659 C1661 1.390 . S
C1659 H1663 0.950 . S
H1660 C1656 0.950 . S
C1661 C1659 1.390 . S
C1661 C1662 1.387 . S
C1661 H1664 0.950 . S
C1662 C1661 1.387 . S
C1662 C1665 1.387 . S
H1663 C1659 0.950 . S
H1664 C1661 0.950 . S
C1665 C1656 1.390 . S
C1665 H1658 0.950 . S
C1665 C1662 1.387 . S
C1666 C1667 1.387 . S
C1666 H1670 0.950 . S
C1666 C1675 1.390 . S
C1667 C1666 1.387 . S
C1667 C1669 1.387 . S
H1668 C1675 0.950 . S
C1669 C1667 1.387 . S
C1669 C1671 1.390 . S
C1669 H1673 0.950 1_565 S
H1670 C1666 0.950 . S
C1671 C1669 1.390 . S
C1671 C1672 1.387 . S
C1671 H1674 0.950 . S
C1672 C1671 1.387 . S
C1672 C1675 1.387 . S
H1673 C1669 0.950 1_545 S
H1674 C1671 0.950 . S
C1675 C1666 1.390 . S
C1675 H1668 0.950 . S
C1675 C1672 1.387 . S
C1676 C1677 1.387 . S
C1676 H1680 0.950 1_455 S
C1676 C1685 1.390 . S
C1677 C1676 1.387 . S
C1677 C1679 1.387 . S
H1678 C1685 0.950 . S
C1679 C1677 1.387 . S
C1679 C1681 1.390 . S
C1679 H1683 0.950 . S
H1680 C1676 0.950 1_655 S
C1681 C1679 1.390 . S
C1681 C1682 1.387 . S
C1681 H1684 0.950 . S
C1682 C1681 1.387 . S
C1682 C1685 1.387 . S
H1683 C1679 0.950 . S
H1684 C1681 0.950 . S
C1685 C1676 1.390 . S
C1685 H1678 0.950 . S
C1685 C1682 1.387 . S
C1686 C1687 1.387 . S
C1686 H1690 0.950 . S
C1686 C1695 1.390 . S
C1687 C1686 1.387 . S
C1687 C1689 1.387 . S
H1688 C1695 0.950 . S
C1689 C1687 1.387 . S
C1689 C1691 1.390 . S
C1689 H1693 0.950 . S
H1690 C1686 0.950 . S
C1691 C1689 1.390 . S
C1691 C1692 1.387 . S
C1691 H1694 0.950 . S
C1692 C1691 1.387 . S
C1692 C1695 1.387 . S
H1693 C1689 0.950 . S
H1694 C1691 0.950 . S
C1695 C1686 1.390 . S
C1695 H1688 0.950 . S
C1695 C1692 1.387 . S
C1696 C1697 1.387 . S
C1696 H1700 0.950 . S
C1696 C1705 1.390 . S
C1697 C1696 1.387 . S
C1697 C1699 1.387 . S
H1698 C1705 0.950 . S
C1699 C1697 1.387 . S
C1699 C1701 1.390 . S
C1699 H1703 0.950 . S
H1700 C1696 0.950 . S
C1701 C1699 1.390 . S
C1701 C1702 1.387 . S
C1701 H1704 0.950 . S
C1702 C1701 1.387 . S
C1702 C1705 1.387 . S
H1703 C1699 0.950 . S
H1704 C1701 0.950 . S
C1705 C1696 1.390 . S
C1705 H1698 0.950 . S
C1705 C1702 1.387 . S
C1706 C1707 1.387 . S
C1706 H1710 0.950 . S
C1706 C1715 1.390 . S
C1707 C1706 1.387 . S
C1707 C1709 1.387 . S
H1708 C1715 0.950 . S
C1709 C1707 1.387 . S
C1709 C1711 1.390 . S
C1709 H1713 0.950 1_655 S
H1710 C1706 0.950 . S
C1711 C1709 1.390 . S
C1711 C1712 1.387 . S
C1711 H1714 0.950 . S
C1712 C1711 1.387 . S
C1712 C1715 1.387 . S
H1713 C1709 0.950 1_455 S
H1714 C1711 0.950 . S
C1715 C1706 1.390 . S
C1715 H1708 0.950 . S
C1715 C1712 1.387 . S
C1716 C1717 1.387 . S
C1716 H1720 0.950 . S
C1716 C1725 1.390 . S
C1717 C1716 1.387 . S
C1717 C1719 1.387 . S
H1718 C1725 0.950 . S
C1719 C1717 1.387 . S
C1719 C1721 1.390 . S
C1719 H1723 0.950 . S
H1720 C1716 0.950 . S
C1721 C1719 1.390 . S
C1721 C1722 1.387 . S
C1721 H1724 0.950 . S
C1722 C1721 1.387 . S
C1722 C1725 1.387 . S
H1723 C1719 0.950 . S
H1724 C1721 0.950 . S
C1725 C1716 1.390 . S
C1725 H1718 0.950 . S
C1725 C1722 1.387 . S
C1726 C1727 1.387 . S
C1726 H1730 0.950 1_545 S
C1726 C1735 1.390 . S
C1727 C1726 1.387 . S
C1727 C1729 1.387 . S
H1728 C1735 0.950 . S
C1729 C1727 1.387 . S
C1729 C1731 1.390 . S
C1729 H1733 0.950 . S
H1730 C1726 0.950 1_565 S
C1731 C1729 1.390 . S
C1731 C1732 1.387 . S
C1731 H1734 0.950 . S
C1732 C1731 1.387 . S
C1732 C1735 1.387 . S
H1733 C1729 0.950 . S
H1734 C1731 0.950 . S
C1735 C1726 1.390 . S
C1735 H1728 0.950 . S
C1735 C1732 1.387 . S
C1736 C1737 1.387 . S
C1736 H1740 0.950 . S
C1736 C1745 1.390 . S
C1737 C1736 1.387 . S
C1737 C1739 1.387 . S
H1738 C1745 0.950 . S
C1739 C1737 1.387 . S
C1739 C1741 1.390 . S
C1739 H1743 0.950 . S
H1740 C1736 0.950 . S
C1741 C1739 1.390 . S
C1741 C1742 1.387 . S
C1741 H1744 0.950 . S
C1742 C1741 1.387 . S
C1742 C1745 1.387 . S
H1743 C1739 0.950 . S
H1744 C1741 0.950 . S
C1745 C1736 1.390 . S
C1745 H1738 0.950 . S
C1745 C1742 1.387 . S
C1746 C1747 1.387 . S
C1746 H1750 0.950 . S
C1746 C1755 1.390 . S
C1747 C1746 1.387 . S
C1747 C1749 1.387 . S
H1748 C1755 0.950 . S
C1749 C1747 1.387 . S
C1749 C1751 1.390 . S
C1749 H1753 0.950 . S
H1750 C1746 0.950 . S
C1751 C1749 1.390 . S
C1751 C1752 1.387 . S
C1751 H1754 0.950 . S
C1752 C1751 1.387 . S
C1752 C1755 1.387 . S
H1753 C1749 0.950 . S
H1754 C1751 0.950 . S
C1755 C1746 1.390 . S
C1755 H1748 0.950 . S
C1755 C1752 1.387 . S
C1756 C1757 1.387 . S
C1756 H1760 0.950 . S
C1756 C1765 1.390 . S
C1757 C1756 1.387 . S
C1757 C1759 1.387 . S
H1758 C1765 0.950 . S
C1759 C1757 1.387 . S
C1759 C1761 1.390 . S
C1759 H1763 0.950 . S
H1760 C1756 0.950 . S
C1761 C1759 1.390 . S
C1761 C1762 1.387 . S
C1761 H1764 0.950 . S
C1762 C1761 1.387 . S
C1762 C1765 1.387 . S
H1763 C1759 0.950 . S
H1764 C1761 0.950 . S
C1765 C1756 1.390 . S
C1765 H1758 0.950 . S
C1765 C1762 1.387 . S
C1766 C1767 1.387 . S
C1766 H1770 0.950 . S
C1766 C1775 1.390 . S
C1767 C1766 1.387 . S
C1767 C1769 1.387 . S
H1768 C1775 0.950 . S
C1769 C1767 1.387 . S
C1769 C1771 1.390 . S
C1769 H1773 0.950 . S
H1770 C1766 0.950 . S
C1771 C1769 1.390 . S
C1771 C1772 1.387 . S
C1771 H1774 0.950 1_455 S
C1772 C1771 1.387 . S
C1772 C1775 1.387 . S
H1773 C1769 0.950 . S
H1774 C1771 0.950 1_655 S
C1775 C1766 1.390 . S
C1775 H1768 0.950 . S
C1775 C1772 1.387 . S
C1776 C1777 1.387 . S
C1776 H1780 0.950 . S
C1776 C1785 1.390 . S
C1777 C1776 1.387 . S
C1777 C1779 1.387 . S
H1778 C1785 0.950 . S
C1779 C1777 1.387 . S
C1779 C1781 1.390 . S
C1779 H1783 0.950 . S
H1780 C1776 0.950 . S
C1781 C1779 1.390 . S
C1781 C1782 1.387 . S
C1781 H1784 0.950 . S
C1782 C1781 1.387 . S
C1782 C1785 1.387 . S
H1783 C1779 0.950 . S
H1784 C1781 0.950 . S
C1785 C1776 1.390 . S
C1785 H1778 0.950 . S
C1785 C1782 1.387 . S
C1786 C1787 1.387 . S
C1786 H1790 0.950 . S
C1786 C1795 1.390 . S
C1787 C1786 1.387 . S
C1787 C1789 1.387 . S
H1788 C1795 0.950 . S
C1789 C1787 1.387 . S
C1789 C1791 1.390 . S
C1789 H1793 0.950 . S
H1790 C1786 0.950 . S
C1791 C1789 1.390 . S
C1791 C1792 1.387 . S
C1791 H1794 0.950 . S
C1792 C1791 1.387 . S
C1792 C1795 1.387 . S
H1793 C1789 0.950 . S
H1794 C1791 0.950 . S
C1795 C1786 1.390 . S
C1795 H1788 0.950 . S
C1795 C1792 1.387 . S
C1796 C1797 1.387 . S
C1796 H1800 0.950 . S
C1796 C1805 1.390 . S
C1797 C1796 1.387 . S
C1797 C1799 1.387 . S
H1798 C1805 0.950 . S
C1799 C1797 1.387 . S
C1799 C1801 1.390 . S
C1799 H1803 0.950 . S
H1800 C1796 0.950 . S
C1801 C1799 1.390 . S
C1801 C1802 1.387 . S
C1801 H1804 0.950 . S
C1802 C1801 1.387 . S
C1802 C1805 1.387 . S
H1803 C1799 0.950 . S
H1804 C1801 0.950 . S
C1805 C1796 1.390 . S
C1805 H1798 0.950 . S
C1805 C1802 1.387 . S
C1806 C1807 1.387 . S
C1806 H1810 0.950 . S
C1806 C1815 1.390 . S
C1807 C1806 1.387 . S
C1807 C1809 1.387 . S
H1808 C1815 0.950 . S
C1809 C1807 1.387 . S
C1809 C1811 1.390 . S
C1809 H1813 0.950 . S
H1810 C1806 0.950 . S
C1811 C1809 1.390 . S
C1811 C1812 1.387 . S
C1811 H1814 0.950 . S
C1812 C1811 1.387 . S
C1812 C1815 1.387 . S
H1813 C1809 0.950 . S
H1814 C1811 0.950 . S
C1815 C1806 1.390 . S
C1815 H1808 0.950 . S
C1815 C1812 1.387 . S
C1816 C1817 1.387 . S
C1816 H1820 0.950 . S
C1816 C1825 1.390 . S
C1817 C1816 1.387 . S
C1817 C1819 1.387 . S
H1818 C1825 0.950 . S
C1819 C1817 1.387 . S
C1819 C1821 1.390 . S
C1819 H1823 0.950 . S
H1820 C1816 0.950 . S
C1821 C1819 1.390 . S
C1821 C1822 1.387 . S
C1821 H1824 0.950 . S
C1822 C1821 1.387 . S
C1822 C1825 1.387 . S
H1823 C1819 0.950 . S
H1824 C1821 0.950 . S
C1825 C1816 1.390 . S
C1825 H1818 0.950 . S
C1825 C1822 1.387 . S
C1826 C1827 1.387 . S
C1826 H1830 0.950 . S
C1826 C1835 1.390 . S
C1827 C1826 1.387 . S
C1827 C1829 1.387 . S
H1828 C1835 0.950 . S
C1829 C1827 1.387 . S
C1829 C1831 1.390 . S
C1829 H1833 0.950 . S
H1830 C1826 0.950 . S
C1831 C1829 1.390 . S
C1831 C1832 1.387 . S
C1831 H1834 0.950 . S
C1832 C1831 1.387 . S
C1832 C1835 1.387 . S
H1833 C1829 0.950 . S
H1834 C1831 0.950 . S
C1835 C1826 1.390 . S
C1835 H1828 0.950 . S
C1835 C1832 1.387 . S
C1836 C1837 1.387 . S
C1836 H1840 0.950 . S
C1836 C1845 1.390 . S
C1837 C1836 1.387 . S
C1837 C1839 1.387 . S
H1838 C1845 0.950 . S
C1839 C1837 1.387 . S
C1839 C1841 1.390 . S
C1839 H1843 0.950 . S
H1840 C1836 0.950 . S
C1841 C1839 1.390 . S
C1841 C1842 1.387 . S
C1841 H1844 0.950 . S
C1842 C1841 1.387 . S
C1842 C1845 1.387 . S
H1843 C1839 0.950 . S
H1844 C1841 0.950 . S
C1845 C1836 1.390 . S
C1845 H1838 0.950 . S
C1845 C1842 1.387 . S
C1846 C1847 1.387 . S
C1846 H1850 0.950 . S
C1846 C1855 1.390 . S
C1847 C1846 1.387 . S
C1847 C1849 1.387 . S
H1848 C1855 0.950 . S
C1849 C1847 1.387 . S
C1849 C1851 1.390 . S
C1849 H1853 0.950 . S
H1850 C1846 0.950 . S
C1851 C1849 1.390 . S
C1851 C1852 1.387 . S
C1851 H1854 0.950 . S
C1852 C1851 1.387 . S
C1852 C1855 1.387 . S
H1853 C1849 0.950 . S
H1854 C1851 0.950 . S
C1855 C1846 1.390 . S
C1855 H1848 0.950 . S
C1855 C1852 1.387 . S
C1856 C1857 1.387 . S
C1856 H1860 0.950 . S
C1856 C1865 1.390 . S
C1857 C1856 1.387 . S
C1857 C1859 1.387 . S
H1858 C1865 0.950 . S
C1859 C1857 1.387 . S
C1859 C1861 1.390 . S
C1859 H1863 0.950 . S
H1860 C1856 0.950 . S
C1861 C1859 1.390 . S
C1861 C1862 1.387 . S
C1861 H1864 0.950 . S
C1862 C1861 1.387 . S
C1862 C1865 1.387 . S
H1863 C1859 0.950 . S
H1864 C1861 0.950 . S
C1865 C1856 1.390 . S
C1865 H1858 0.950 . S
C1865 C1862 1.387 . S
C1866 C1867 1.387 . S
C1866 H1870 0.950 . S
C1866 C1875 1.390 . S
C1867 C1866 1.387 . S
C1867 C1869 1.387 . S
H1868 C1875 0.950 . S
C1869 C1867 1.387 . S
C1869 C1871 1.390 . S
C1869 H1873 0.950 . S
H1870 C1866 0.950 . S
C1871 C1869 1.390 . S
C1871 C1872 1.387 . S
C1871 H1874 0.950 . S
C1872 C1871 1.387 . S
C1872 C1875 1.387 . S
H1873 C1869 0.950 . S
H1874 C1871 0.950 . S
C1875 C1866 1.390 . S
C1875 H1868 0.950 . S
C1875 C1872 1.387 . S
C1876 C1877 1.387 . S
C1876 H1880 0.950 . S
C1876 C1885 1.390 . S
C1877 C1876 1.387 . S
C1877 C1879 1.387 . S
H1878 C1885 0.950 . S
C1879 C1877 1.387 . S
C1879 C1881 1.390 . S
C1879 H1883 0.950 . S
H1880 C1876 0.950 . S
C1881 C1879 1.390 . S
C1881 C1882 1.387 . S
C1881 H1884 0.950 . S
C1882 C1881 1.387 . S
C1882 C1885 1.387 . S
H1883 C1879 0.950 . S
H1884 C1881 0.950 . S
C1885 C1876 1.390 . S
C1885 H1878 0.950 . S
C1885 C1882 1.387 . S
C1886 C1887 1.387 . S
C1886 H1890 0.950 . S
C1886 C1895 1.390 . S
C1887 C1886 1.387 . S
C1887 C1889 1.387 . S
H1888 C1895 0.950 . S
C1889 C1887 1.387 . S
C1889 C1891 1.390 . S
C1889 H1893 0.950 . S
H1890 C1886 0.950 . S
C1891 C1889 1.390 . S
C1891 C1892 1.387 . S
C1891 H1894 0.950 . S
C1892 C1891 1.387 . S
C1892 C1895 1.387 . S
H1893 C1889 0.950 . S
H1894 C1891 0.950 . S
C1895 C1886 1.390 . S
C1895 H1888 0.950 . S
C1895 C1892 1.387 . S
C1896 C1897 1.387 . S
C1896 H1900 0.950 . S
C1896 C1905 1.390 . S
C1897 C1896 1.387 . S
C1897 C1899 1.387 . S
H1898 C1905 0.950 . S
C1899 C1897 1.387 . S
C1899 C1901 1.390 . S
C1899 H1903 0.950 . S
H1900 C1896 0.950 . S
C1901 C1899 1.390 . S
C1901 C1902 1.387 . S
C1901 H1904 0.950 . S
C1902 C1901 1.387 . S
C1902 C1905 1.387 . S
H1903 C1899 0.950 . S
H1904 C1901 0.950 . S
C1905 C1896 1.390 . S
C1905 H1898 0.950 . S
C1905 C1902 1.387 . S
C1906 C1907 1.387 . S
C1906 H1910 0.950 . S
C1906 C1915 1.390 . S
C1907 C1906 1.387 . S
C1907 C1909 1.387 . S
H1908 C1915 0.950 . S
C1909 C1907 1.387 . S
C1909 C1911 1.390 . S
C1909 H1913 0.950 . S
H1910 C1906 0.950 . S
C1911 C1909 1.390 . S
C1911 C1912 1.387 . S
C1911 H1914 0.950 . S
C1912 C1911 1.387 . S
C1912 C1915 1.387 . S
H1913 C1909 0.950 . S
H1914 C1911 0.950 . S
C1915 C1906 1.390 . S
C1915 H1908 0.950 . S
C1915 C1912 1.387 . S
C1916 C1917 1.387 . S
C1916 H1920 0.950 . S
C1916 C1925 1.390 . S
C1917 C1916 1.387 . S
C1917 C1919 1.387 . S
H1918 C1925 0.950 . S
C1919 C1917 1.387 . S
C1919 C1921 1.390 . S
C1919 H1923 0.950 . S
H1920 C1916 0.950 . S
C1921 C1919 1.390 . S
C1921 C1922 1.387 . S
C1921 H1924 0.950 . S
C1922 C1921 1.387 . S
C1922 C1925 1.387 . S
H1923 C1919 0.950 . S
H1924 C1921 0.950 . S
C1925 C1916 1.390 . S
C1925 H1918 0.950 . S
C1925 C1922 1.387 . S
C1926 C1927 1.387 . S
C1926 H1930 0.950 . S
C1926 C1935 1.390 . S
C1927 C1926 1.387 . S
C1927 C1929 1.387 . S
H1928 C1935 0.950 . S
C1929 C1927 1.387 . S
C1929 C1931 1.390 . S
C1929 H1933 0.950 . S
H1930 C1926 0.950 . S
C1931 C1929 1.390 . S
C1931 C1932 1.387 . S
C1931 H1934 0.950 . S
C1932 C1931 1.387 . S
C1932 C1935 1.387 . S
H1933 C1929 0.950 . S
H1934 C1931 0.950 . S
C1935 C1926 1.390 . S
C1935 H1928 0.950 . S
C1935 C1932 1.387 . S
C1936 C1937 1.387 . S
C1936 H1940 0.950 . S
C1936 C1945 1.390 . S
C1937 C1936 1.387 . S
C1937 C1939 1.387 . S
H1938 C1945 0.950 . S
C1939 C1937 1.387 . S
C1939 C1941 1.390 . S
C1939 H1943 0.950 . S
H1940 C1936 0.950 . S
C1941 C1939 1.390 . S
C1941 C1942 1.387 . S
C1941 H1944 0.950 . S
C1942 C1941 1.387 . S
C1942 C1945 1.387 . S
H1943 C1939 0.950 . S
H1944 C1941 0.950 . S
C1945 C1936 1.390 . S
C1945 H1938 0.950 . S
C1945 C1942 1.387 . S
C1946 C1947 1.387 . S
C1946 H1950 0.950 . S
C1946 C1955 1.390 . S
C1947 C1946 1.387 . S
C1947 C1949 1.387 . S
H1948 C1955 0.950 . S
C1949 C1947 1.387 . S
C1949 C1951 1.390 . S
C1949 H1953 0.950 . S
H1950 C1946 0.950 . S
C1951 C1949 1.390 . S
C1951 C1952 1.387 . S
C1951 H1954 0.950 . S
C1952 C1951 1.387 . S
C1952 C1955 1.387 . S
H1953 C1949 0.950 . S
H1954 C1951 0.950 . S
C1955 C1946 1.390 . S
C1955 H1948 0.950 . S
C1955 C1952 1.387 . S
C1956 C1957 1.387 . S
C1956 H1960 0.950 . S
C1956 C1965 1.390 . S
C1957 C1956 1.387 . S
C1957 C1959 1.387 . S
H1958 C1965 0.950 . S
C1959 C1957 1.387 . S
C1959 C1961 1.390 . S
C1959 H1963 0.950 . S
H1960 C1956 0.950 . S
C1961 C1959 1.390 . S
C1961 C1962 1.387 . S
C1961 H1964 0.950 . S
C1962 C1961 1.387 . S
C1962 C1965 1.387 . S
H1963 C1959 0.950 . S
H1964 C1961 0.950 . S
C1965 C1956 1.390 . S
C1965 H1958 0.950 . S
C1965 C1962 1.387 . S
C1966 C1967 1.387 . S
C1966 H1970 0.950 . S
C1966 C1975 1.390 . S
C1967 C1966 1.387 . S
C1967 C1969 1.387 . S
H1968 C1975 0.950 . S
C1969 C1967 1.387 . S
C1969 C1971 1.390 . S
C1969 H1973 0.950 . S
H1970 C1966 0.950 . S
C1971 C1969 1.390 . S
C1971 C1972 1.387 . S
C1971 H1974 0.950 . S
C1972 C1971 1.387 . S
C1972 C1975 1.387 . S
H1973 C1969 0.950 . S
H1974 C1971 0.950 . S
C1975 C1966 1.390 . S
C1975 H1968 0.950 . S
C1975 C1972 1.387 . S
C1976 C1977 1.387 . S
C1976 H1980 0.950 . S
C1976 C1985 1.390 . S
C1977 C1976 1.387 . S
C1977 C1979 1.387 . S
H1978 C1985 0.950 . S
C1979 C1977 1.387 . S
C1979 C1981 1.390 . S
C1979 H1983 0.950 . S
H1980 C1976 0.950 . S
C1981 C1979 1.390 . S
C1981 C1982 1.387 . S
C1981 H1984 0.950 . S
C1982 C1981 1.387 . S
C1982 C1985 1.387 . S
H1983 C1979 0.950 . S
H1984 C1981 0.950 . S
C1985 C1976 1.390 . S
C1985 H1978 0.950 . S
C1985 C1982 1.387 . S
C1986 C1987 1.387 . S
C1986 H1990 0.950 . S
C1986 C1995 1.390 . S
C1987 C1986 1.387 . S
C1987 C1989 1.387 . S
H1988 C1995 0.950 . S
C1989 C1987 1.387 . S
C1989 C1991 1.390 . S
C1989 H1993 0.950 . S
H1990 C1986 0.950 . S
C1991 C1989 1.390 . S
C1991 C1992 1.387 . S
C1991 H1994 0.950 . S
C1992 C1991 1.387 . S
C1992 C1995 1.387 . S
H1993 C1989 0.950 . S
H1994 C1991 0.950 . S
C1995 C1986 1.390 . S
C1995 H1988 0.950 . S
C1995 C1992 1.387 . S
C1996 C1997 1.387 . S
C1996 H2000 0.950 . S
C1996 C2005 1.390 . S
C1997 C1996 1.387 . S
C1997 C1999 1.387 . S
H1998 C2005 0.950 . S
C1999 C1997 1.387 . S
C1999 C2001 1.390 . S
C1999 H2003 0.950 . S
H2000 C1996 0.950 . S
C2001 C1999 1.390 . S
C2001 C2002 1.387 . S
C2001 H2004 0.950 . S
C2002 C2001 1.387 . S
C2002 C2005 1.387 . S
H2003 C1999 0.950 . S
H2004 C2001 0.950 . S
C2005 C1996 1.390 . S
C2005 H1998 0.950 . S
C2005 C2002 1.387 . S
C2006 C2007 1.387 . S
C2006 H2010 0.950 . S
C2006 C2015 1.390 . S
C2007 C2006 1.387 . S
C2007 C2009 1.387 . S
H2008 C2015 0.950 . S
C2009 C2007 1.387 . S
C2009 C2011 1.390 . S
C2009 H2013 0.950 . S
H2010 C2006 0.950 . S
C2011 C2009 1.390 . S
C2011 C2012 1.387 . S
C2011 H2014 0.950 . S
C2012 C2011 1.387 . S
C2012 C2015 1.387 . S
H2013 C2009 0.950 . S
H2014 C2011 0.950 . S
C2015 C2006 1.390 . S
C2015 H2008 0.950 . S
C2015 C2012 1.387 . S
C1297 C14 1.431 . S
C1302 C662 1.431 . S
C1307 C698 1.431 . S
C1312 C50 1.431 . S
C1317 C734 1.431 . S
C1322 C86 1.431 . S
C1327 C122 1.433 . S
C1332 C1202 1.433 . S
C1337 C158 1.431 . S
C1342 C1238 1.431 . S
C1347 C194 1.432 . S
C1352 C1274 1.432 . S
C1357 C878 1.431 . S
C1362 C230 1.431 . S
C1367 C266 1.433 . S
C1372 C914 1.433 . S
C1377 C302 1.433 . S
C1382 C950 1.433 . S
C1387 C554 1.431 . S
C1392 C338 1.431 . S
C1397 C590 1.433 . S
C1402 C374 1.433 . S
C1407 C626 1.431 . S
C1412 C410 1.431 . S
C1417 C1094 1.433 . S
C1422 C446 1.433 . S
C1427 C1130 1.433 . S
C1432 C482 1.433 . S
C1437 C518 1.432 . S
C1442 C1166 1.432 . S
C1447 C986 1.433 . S
C1452 C770 1.433 . S
C1457 C806 1.431 . S
C1462 C1022 1.431 . S
C1467 C842 1.432 . S
C1472 C1058 1.432 . S
C1477 C4 1.467 . S
C1482 C976 1.465 . S
C1487 C1012 1.467 . S
C1492 C40 1.467 . S
C1497 C1048 1.466 . S
C1502 C76 1.464 . S
C1507 C436 1.466 . S
C1512 C112 1.467 . S
C1517 C472 1.467 . S
C1522 C148 1.467 . S
C1527 C508 1.464 . S
C1532 C184 1.466 . S
C1537 C220 1.466 . S
C1542 C760 1.464 . S
C1547 C796 1.464 . S
C1552 C256 1.464 . S
C1557 C832 1.465 . S
C1562 C292 1.467 . S
C1567 C328 1.467 . S
C1572 C1084 1.466 . S
C1577 C364 1.467 . S
C1582 C1120 1.467 . S
C1587 C400 1.465 . S
C1592 C1156 1.464 . S
C1597 C544 1.467 . S
C1602 C868 1.468 . S
C1607 C580 1.464 . S
C1612 C904 1.464 . S
C1617 C616 1.466 . S
C1622 C940 1.464 . S
C1627 C652 1.465 . S
C1632 C1192 1.467 . S
C1637 C1228 1.467 . S
C1642 C688 1.467 . S
C1647 C724 1.467 . S
C1652 C1264 1.466 . S
C1657 C38 1.285 . S
C1662 C3 1.264 . S
C1667 C39 1.266 1_565 S
C1672 C74 1.287 . S
C1677 C75 1.263 1_455 S
C1682 C2 1.287 . S
C1687 C111 1.265 . S
C1692 C182 1.289 . S
C1697 C110 1.287 . S
C1702 C147 1.267 1_545 S
C1707 C183 1.263 1_655 S
C1712 C146 1.285 . S
C1717 C219 1.264 . S
C1722 C254 1.285 . S
C1727 C255 1.267 1_545 S
C1732 C290 1.287 . S
C1737 C291 1.267 1_655 S
C1742 C218 1.287 . S
C1747 C398 1.288 . S
C1752 C327 1.267 . S
C1757 C363 1.267 1_565 S
C1762 C326 1.287 . S
C1767 C362 1.289 . S
C1772 C399 1.267 1_455 S
C1777 C470 1.289 . S
C1782 C435 1.266 . S
C1787 C506 1.286 . S
C1792 C471 1.266 . S
C1797 C434 1.288 . S
C1802 C507 1.263 . S
C1807 C543 1.267 . S
C1812 C614 1.288 . S
C1817 C579 1.263 . S
C1822 C542 1.288 . S
C1827 C615 1.263 . S
C1832 C578 1.285 . S
C1837 C686 1.285 . S
C1842 C651 1.264 . S
C1847 C687 1.267 . S
C1852 C722 1.287 . S
C1857 C723 1.263 . S
C1862 C650 1.288 . S
C1867 C759 1.263 . S
C1872 C830 1.287 . S
C1877 C795 1.263 . S
C1882 C758 1.287 . S
C1887 C794 1.289 . S
C1892 C831 1.266 . S
C1897 C902 1.289 . S
C1902 C867 1.267 . S
C1907 C903 1.266 . S
C1912 C938 1.287 . S
C1917 C866 1.289 . S
C1922 C939 1.265 . S
C1927 C975 1.267 . S
C1932 C1046 1.287 . S
C1937 C1011 1.266 . S
C1942 C974 1.287 . S
C1947 C1047 1.263 . S
C1952 C1010 1.285 . S
C1957 C1083 1.264 . S
C1962 C1118 1.285 . S
C1967 C1119 1.264 . S
C1972 C1154 1.289 . S
C1977 C1155 1.265 . S
C1982 C1082 1.289 . S
C1987 C1191 1.267 . S
C1992 C1262 1.287 . S
C1997 C1227 1.267 . S
C2002 C1190 1.287 . S
C2007 C1226 1.285 . S
C2012 C1263 1.263 . S
