# Generated by pormake.
# Topology ukk, (4)-cn, num edge types: 1
# Building blocks:
#     Node 0, Type 0, BuildingBlock: MUDLON_clean_sbu_0, # of connection points: 4
#     Node 1, Type 0, BuildingBlock: MUDLON_clean_sbu_0, # of connection points: 4
#     Node 2, Type 0, BuildingBlock: MUDLON_clean_sbu_0, # of connection points: 4
#     Node 3, Type 0, BuildingBlock: MUDLON_clean_sbu_0, # of connection points: 4
#     Node 4, Type 0, BuildingBlock: MUDLON_clean_sbu_0, # of connection points: 4
#     Node 5, Type 0, BuildingBlock: MUDLON_clean_sbu_0, # of connection points: 4
#     Node 6, Type 0, BuildingBlock: MUDLON_clean_sbu_0, # of connection points: 4
#     Node 7, Type 0, BuildingBlock: MUDLON_clean_sbu_0, # of connection points: 4
#     Node 8, Type 0, BuildingBlock: MUDLON_clean_sbu_0, # of connection points: 4
#     Node 9, Type 0, BuildingBlock: MUDLON_clean_sbu_0, # of connection points: 4
#     Node 10, Type 0, BuildingBlock: MUDLON_clean_sbu_0, # of connection points: 4
#     Node 11, Type 0, BuildingBlock: MUDLON_clean_sbu_0, # of connection points: 4
#     Node 12, Type 0, BuildingBlock: MUDLON_clean_sbu_0, # of connection points: 4
#     Node 13, Type 0, BuildingBlock: MUDLON_clean_sbu_0, # of connection points: 4
#     Node 14, Type 0, BuildingBlock: MUDLON_clean_sbu_0, # of connection points: 4
#     Node 15, Type 0, BuildingBlock: MUDLON_clean_sbu_0, # of connection points: 4
#     Edge 16, Type (0, 0), BuildingBlock: TEMPAE_clean_linker_10, # of connection points: 2
#     Edge 17, Type (0, 0), BuildingBlock: TEMPAE_clean_linker_10, # of connection points: 2
#     Edge 18, Type (0, 0), BuildingBlock: TEMPAE_clean_linker_10, # of connection points: 2
#     Edge 19, Type (0, 0), BuildingBlock: TEMPAE_clean_linker_10, # of connection points: 2
#     Edge 20, Type (0, 0), BuildingBlock: TEMPAE_clean_linker_10, # of connection points: 2
#     Edge 21, Type (0, 0), BuildingBlock: TEMPAE_clean_linker_10, # of connection points: 2
#     Edge 22, Type (0, 0), BuildingBlock: TEMPAE_clean_linker_10, # of connection points: 2
#     Edge 23, Type (0, 0), BuildingBlock: TEMPAE_clean_linker_10, # of connection points: 2
#     Edge 24, Type (0, 0), BuildingBlock: TEMPAE_clean_linker_10, # of connection points: 2
#     Edge 25, Type (0, 0), BuildingBlock: TEMPAE_clean_linker_10, # of connection points: 2
#     Edge 26, Type (0, 0), BuildingBlock: TEMPAE_clean_linker_10, # of connection points: 2
#     Edge 27, Type (0, 0), BuildingBlock: TEMPAE_clean_linker_10, # of connection points: 2
#     Edge 28, Type (0, 0), BuildingBlock: TEMPAE_clean_linker_10, # of connection points: 2
#     Edge 29, Type (0, 0), BuildingBlock: TEMPAE_clean_linker_10, # of connection points: 2
#     Edge 30, Type (0, 0), BuildingBlock: TEMPAE_clean_linker_10, # of connection points: 2
#     Edge 31, Type (0, 0), BuildingBlock: TEMPAE_clean_linker_10, # of connection points: 2
#     Edge 32, Type (0, 0), BuildingBlock: TEMPAE_clean_linker_10, # of connection points: 2
#     Edge 33, Type (0, 0), BuildingBlock: TEMPAE_clean_linker_10, # of connection points: 2
#     Edge 34, Type (0, 0), BuildingBlock: TEMPAE_clean_linker_10, # of connection points: 2
#     Edge 35, Type (0, 0), BuildingBlock: TEMPAE_clean_linker_10, # of connection points: 2
#     Edge 36, Type (0, 0), BuildingBlock: TEMPAE_clean_linker_10, # of connection points: 2
#     Edge 37, Type (0, 0), BuildingBlock: TEMPAE_clean_linker_10, # of connection points: 2
#     Edge 38, Type (0, 0), BuildingBlock: TEMPAE_clean_linker_10, # of connection points: 2
#     Edge 39, Type (0, 0), BuildingBlock: TEMPAE_clean_linker_10, # of connection points: 2
#     Edge 40, Type (0, 0), BuildingBlock: TEMPAE_clean_linker_10, # of connection points: 2
#     Edge 41, Type (0, 0), BuildingBlock: TEMPAE_clean_linker_10, # of connection points: 2
#     Edge 42, Type (0, 0), BuildingBlock: TEMPAE_clean_linker_10, # of connection points: 2
#     Edge 43, Type (0, 0), BuildingBlock: TEMPAE_clean_linker_10, # of connection points: 2
#     Edge 44, Type (0, 0), BuildingBlock: TEMPAE_clean_linker_10, # of connection points: 2
#     Edge 45, Type (0, 0), BuildingBlock: TEMPAE_clean_linker_10, # of connection points: 2
#     Edge 46, Type (0, 0), BuildingBlock: TEMPAE_clean_linker_10, # of connection points: 2
#     Edge 47, Type (0, 0), BuildingBlock: TEMPAE_clean_linker_10, # of connection points: 2
# Relax obj value: 0.000
# Max RMSD: 0.072
# Mean RMSD: 0.072
data_MOF--net-ukk--node1-MUDLON_clean_sbu_0--edge1-TEMPAE_clean_linker_10
_symmetry_space_group_name_H-M    P1
_symmetry_Int_Tables_number       1
_symmetry_cell_setting            triclinic
loop_
_symmetry_equiv_pos_as_xyz
'x, y, z'
_cell_length_a     60.480775
_cell_length_b     60.915838
_cell_length_c     9.3640514
_cell_angle_alpha  89.976987
_cell_angle_beta   89.924187
_cell_angle_gamma 90.00906
loop_
_atom_site_label
_atom_site_type_symbol
_atom_site_fract_x
_atom_site_fract_y
_atom_site_fract_z
_atom_type_partial_charge
Mg0 Mg 0.3908 0.13817 0.14277 0.0
C1 C 0.3832 0.18509 0.09018 0.0
O2 O 0.37652 0.17488 0.97443 0.0
C3 C 0.40995 0.10213 0.33128 0.0
O4 O 0.42816 0.10862 0.26739 0.0
C5 C 0.35032 0.12755 0.93228 0.0
O6 O 0.36423 0.12483 0.82585 0.0
O7 O 0.35767 0.13232 0.05564 0.0
O8 O 0.39029 0.17348 0.19405 0.0
O9 O 0.421 0.13222 0.01587 0.0
C10 C 0.43432 0.14801 0.99082 0.0
O11 O 0.42775 0.16813 0.01702 0.0
O12 O 0.39239 0.1134 0.31368 0.0
Mg13 Mg 0.13968 0.63673 0.91241 0.0
C14 C 0.18863 0.63567 0.7823 0.0
O15 O 0.18073 0.62902 0.65906 0.0
C16 C 0.10582 0.65205 0.69177 0.0
O17 O 0.11004 0.67117 0.75043 0.0
C18 C 0.14247 0.6834 0.99126 0.0
O19 O 0.15696 0.68077 0.88811 0.0
O20 O 0.13134 0.66673 0.03221 0.0
O21 O 0.1755 0.63943 0.88546 0.0
O22 O 0.13384 0.60435 0.00998 0.0
C23 C 0.15013 0.59157 0.0336 0.0
O24 O 0.17024 0.59956 0.02362 0.0
O25 O 0.11776 0.63566 0.72622 0.0
Mg26 Mg 0.64207 0.89143 0.12303 0.0
C27 C 0.65761 0.84425 0.19474 0.0
O28 O 0.67696 0.85373 0.21086 0.0
C29 C 0.65912 0.92782 0.31547 0.0
O30 O 0.67701 0.9242 0.23939 0.0
C31 C 0.68262 0.88372 0.92692 0.0
O32 O 0.67351 0.86436 0.90847 0.0
O33 O 0.67213 0.89826 -0.00253 0.0
O34 O 0.64074 0.85615 0.16984 0.0
O35 O 0.60968 0.89961 0.03218 0.0
C36 C 0.59652 0.88561 0.9774 0.0
O37 O 0.60375 0.86569 0.95075 0.0
O38 O 0.64289 0.91462 0.30259 0.0
Mg39 Mg 0.88991 0.38736 0.87065 0.0
C40 C 0.84228 0.37277 0.80093 0.0
O41 O 0.85137 0.35327 0.78965 0.0
C42 C 0.92492 0.40157 0.6558 0.0
O43 O 0.91772 0.42095 0.69618 0.0
C44 C 0.90861 0.34399 0.9823 0.0
O45 O 0.92568 0.34996 0.9045 0.0
O46 O 0.89245 0.35721 -0.00325 0.0
O47 O 0.85462 0.38949 0.81879 0.0
O48 O 0.89765 0.41878 0.97382 0.0
C49 C 0.88207 0.43178 0.00894 0.0
O50 O 0.86171 0.42428 0.0091 0.0
O51 O 0.9147 0.38454 0.69962 0.0
Mg52 Mg 0.38361 0.39759 0.14381 0.0
C53 C 0.39687 0.35099 0.04114 0.0
O54 O 0.41657 0.35977 0.0257 0.0
C55 C 0.38529 0.44276 0.05545 0.0
O56 O 0.38485 0.44206 0.19575 0.0
C57 C 0.34105 0.38901 0.31574 0.0
O58 O 0.34993 0.36949 0.33206 0.0
O59 O 0.35234 0.4041 0.25587 0.0
O60 O 0.38063 0.36333 0.07383 0.0
O61 O 0.41582 0.40106 0.24996 0.0
C62 C 0.42655 0.38555 0.3094 0.0
O63 O 0.41633 0.36696 0.33629 0.0
O64 O 0.38484 0.42456 0.98799 0.0
Mg65 Mg 0.40049 0.6433 0.87789 0.0
C66 C 0.3531 0.65842 0.91199 0.0
O67 O 0.36148 0.67578 0.84881 0.0
C68 C 0.43615 0.62667 0.08036 0.0
O69 O 0.42768 0.6077 0.04194 0.0
C70 C 0.41803 0.68813 0.78848 0.0
O71 O 0.43158 0.6838 0.89428 0.0
O72 O 0.40437 0.67337 0.74895 0.0
O73 O 0.36609 0.6431 0.95127 0.0
O74 O 0.40454 0.61106 0.77543 0.0
C75 C 0.38759 0.5996 0.74411 0.0
O76 O 0.36808 0.60908 0.74685 0.0
O77 O 0.42654 0.64422 0.04029 0.0
Mg78 Mg 0.64761 0.63174 0.09471 0.0
C79 C 0.64801 0.67815 0.14611 0.0
O80 O 0.64578 0.66795 0.26903 0.0
C81 C 0.64832 0.58624 0.01184 0.0
O82 O 0.65109 0.58741 0.15084 0.0
C83 C 0.69455 0.6216 0.14162 0.0
O84 O 0.69155 0.61884 0.00385 0.0
O85 O 0.67796 0.62685 0.21858 0.0
O86 O 0.64942 0.66646 0.03336 0.0
O87 O 0.61493 0.6293 0.19471 0.0
C88 C 0.60043 0.63137 0.0969 0.0
O89 O 0.60739 0.63451 0.96541 0.0
O90 O 0.64659 0.6042 0.94258 0.0
Mg91 Mg 0.63018 0.38423 0.89998 0.0
C92 C 0.67768 0.37055 0.99298 0.0
O93 O 0.66936 0.35076 0.00692 0.0
C94 C 0.58425 0.37916 0.99275 0.0
O95 O 0.58475 0.3749 0.85517 0.0
C96 C 0.623 0.33633 0.86669 0.0
O97 O 0.6194 0.33999 0.00302 0.0
O98 O 0.62792 0.35261 0.78673 0.0
O99 O 0.66483 0.38663 0.96707 0.0
O100 O 0.62752 0.41542 0.78074 0.0
C101 C 0.61417 0.43013 0.82523 0.0
O102 O 0.59978 0.42481 0.92437 0.0
O103 O 0.60247 0.38388 0.0542 0.0
Mg104 Mg 0.89656 0.63235 0.59689 0.0
C105 C 0.9013 0.67979 0.57234 0.0
O106 O 0.90994 0.67153 0.4553 0.0
C107 C 0.89757 0.58694 0.68584 0.0
O108 O 0.89999 0.5874 0.54633 0.0
C109 C 0.85094 0.61904 0.52063 0.0
O110 O 0.85279 0.61291 0.65451 0.0
O111 O 0.86768 0.62754 0.45862 0.0
O112 O 0.89365 0.6666 0.66601 0.0
O113 O 0.9303 0.63042 0.51109 0.0
C114 C 0.94397 0.63201 0.61406 0.0
O115 O 0.93594 0.63378 0.74406 0.0
O116 O 0.89564 0.60519 0.75127 0.0
Mg117 Mg 0.63244 0.13532 0.40836 0.0
C118 C 0.67883 0.12612 0.28317 0.0
O119 O 0.67096 0.10634 0.26044 0.0
C120 C 0.59761 0.13452 0.14529 0.0
O121 O 0.61344 0.13073 0.05236 0.0
C122 C 0.61915 0.18013 0.49764 0.0
O123 O 0.61122 0.17832 0.36771 0.0
O124 O 0.62871 0.16353 0.55346 0.0
O125 O 0.66579 0.14123 0.32509 0.0
O126 O 0.63341 0.10164 0.49468 0.0
C127 C 0.62829 0.08733 0.4009 0.0
O128 O 0.62216 0.09434 0.27439 0.0
O129 O 0.60231 0.13674 0.277 0.0
Mg130 Mg 0.1343 0.39132 0.62326 0.0
C131 C 0.12779 0.34354 0.59543 0.0
O132 O 0.11719 0.35212 0.48659 0.0
C133 C 0.13521 0.43576 0.71966 0.0
O134 O 0.1318 0.43541 0.58103 0.0
C135 C 0.1753 0.38413 0.43247 0.0
O136 O 0.16831 0.36372 0.4312 0.0
O137 O 0.16308 0.3989 0.48793 0.0
O138 O 0.13729 0.3565 0.68309 0.0
O139 O 0.0995 0.39571 0.56102 0.0
C140 C 0.08807 0.3945 0.44716 0.0
O141 O 0.09788 0.39042 0.32477 0.0
O142 O 0.13728 0.41739 0.78389 0.0
Mg143 Mg 0.39743 0.89172 0.38735 0.0
C144 C 0.3504 0.88906 0.44986 0.0
O145 O 0.36086 0.88906 0.57284 0.0
C146 C 0.43359 0.90291 0.1569 0.0
O147 O 0.42589 0.92304 0.16175 0.0
C148 C 0.40483 0.84525 0.44044 0.0
O149 O 0.40323 0.84772 0.30143 0.0
O150 O 0.40302 0.86228 0.51907 0.0
O151 O 0.36199 0.8897 0.33589 0.0
O152 O 0.40169 0.92512 0.47353 0.0
C153 C 0.39268 0.93935 0.39228 0.0
O154 O 0.38173 0.93229 0.2802 0.0
O155 O 0.4236 0.88775 0.22526 0.0
Mg156 Mg 0.89092 0.89266 0.60186 0.0
C157 C 0.89541 0.8456 0.63677 0.0
O158 O 0.90063 0.85453 0.75984 0.0
C159 C 0.88869 0.9378 0.51592 0.0
O160 O 0.88821 0.93687 0.65617 0.0
C161 C 0.84384 0.89812 0.64626 0.0
O162 O 0.84745 0.89814 0.50783 0.0
O163 O 0.8605 0.89637 0.7291 0.0
O164 O 0.88994 0.85825 0.53414 0.0
O165 O 0.92495 0.89684 0.67901 0.0
C166 C 0.93582 0.89511 0.79486 0.0
O167 O 0.92547 0.89031 0.91427 0.0
O168 O 0.88936 0.91973 0.44736 0.0
Mg169 Mg 0.89145 0.13852 0.34543 0.0
C170 C 0.84407 0.12586 0.43432 0.0
O171 O 0.85253 0.10606 0.44461 0.0
C172 C 0.93302 0.14978 0.51575 0.0
O173 O 0.9311 0.16775 0.43961 0.0
C174 C 0.89195 0.18597 0.30022 0.0
O175 O 0.88415 0.18292 0.42981 0.0
O176 O 0.89706 0.16912 0.22631 0.0
O177 O 0.85684 0.14206 0.41022 0.0
O178 O 0.89167 0.10703 0.23238 0.0
C179 C 0.90832 0.09431 0.24236 0.0
O180 O 0.9267 0.10212 0.29703 0.0
O181 O 0.91776 0.13537 0.50814 0.0
Mg182 Mg 0.14164 0.13047 0.61523 0.0
C183 C 0.13401 0.17746 0.64766 0.0
O184 O 0.12785 0.16833 0.76849 0.0
C185 C 0.14755 0.08545 0.52675 0.0
O186 O 0.14887 0.08605 0.6668 0.0
C187 C 0.18729 0.14004 0.71626 0.0
O188 O 0.18385 0.15518 0.61899 0.0
O189 O 0.17147 0.12706 0.74825 0.0
O190 O 0.14097 0.16501 0.54768 0.0
O191 O 0.10813 0.12581 0.70144 0.0
C192 C 0.09445 0.12541 0.59786 0.0
O193 O 0.10246 0.12674 0.46757 0.0
O194 O 0.1447 0.10353 0.46057 0.0
Mg195 Mg 0.13556 0.88585 0.40753 0.0
C196 C 0.18302 0.90012 0.49316 0.0
O197 O 0.17403 0.91969 0.50363 0.0
C198 C 0.09965 0.90172 0.61293 0.0
O199 O 0.10702 0.9209 0.56965 0.0
C200 C 0.13299 0.83869 0.3675 0.0
O201 O 0.13827 0.84205 0.50186 0.0
O202 O 0.13005 0.85543 0.28775 0.0
O203 O 0.17062 0.88365 0.46841 0.0
O204 O 0.13042 0.91765 0.30247 0.0
C205 C 0.1451 0.9282 0.23303 0.0
O206 O 0.16356 0.91816 0.19821 0.0
O207 O 0.10996 0.88446 0.57423 0.0
C208 C 0.39203 0.97741 0.29505 0.0
C209 C 0.39576 0.96342 0.41173 0.0
C210 C 0.39487 1.00018 0.30601 0.0
C211 C 0.40126 1.00953 0.43807 0.0
C212 C 0.40484 0.99559 0.55742 0.0
C213 C 0.40228 0.97264 0.54247 0.0
C214 C 0.39124 0.01422 0.17487 0.0
C215 C 0.41132 1.00494 0.70057 0.0
C216 C 0.42728 0.06559 0.38281 0.0
C217 C 0.40879 0.0795 0.39185 0.0
C218 C 0.42547 0.04293 0.40893 0.0
C219 C 0.40472 0.03385 0.4468 0.0
C220 C 0.38648 0.04808 0.4691 0.0
C221 C 0.38869 0.0707 0.4407 0.0
C222 C 0.44537 0.02849 0.3833 0.0
C223 C 0.36415 0.03922 0.51223 0.0
H224 H 0.38718 0.97051 0.19311 0.0
H225 H 0.40512 0.96196 0.63324 0.0
H226 H 0.37801 0.02643 0.19566 0.0
H227 H 0.40655 0.02346 0.14913 0.0
H228 H 0.38651 1.00437 0.07985 0.0
H229 H 0.41263 0.99206 0.78421 0.0
H230 H 0.42747 0.01348 0.69169 0.0
H231 H 0.39898 0.01731 0.73532 0.0
H232 H 0.44298 0.07215 0.34652 0.0
H233 H 0.37433 0.08126 0.44961 0.0
H234 H 0.44308 0.01926 0.2822 0.0
H235 H 0.44722 0.01628 0.47033 0.0
H236 H 0.4609 0.03816 0.37494 0.0
H237 H 0.35634 0.03108 0.41908 0.0
H238 H 0.35293 0.05244 0.5501 0.0
H239 H 0.36586 0.02674 0.59781 0.0
C240 C 0.07639 0.62723 0.59234 0.0
C241 C 0.08422 0.64854 0.61913 0.0
C242 C 0.05403 0.62345 0.55883 0.0
C243 C 0.03914 0.64139 0.55221 0.0
C244 C 0.04748 0.66305 0.56393 0.0
C245 C 0.0699 0.66636 0.59698 0.0
C246 C 0.04598 0.60011 0.54423 0.0
C247 C 0.03234 0.6827 0.55604 0.0
C248 C 0.97799 0.63419 0.45644 0.0
C249 C 0.96834 0.63294 0.5927 0.0
C250 C 1.00111 0.6364 0.44016 0.0
C251 C 1.01479 0.6375 0.56299 0.0
C252 C 1.00509 0.63572 0.7002 0.0
C253 C 0.98213 0.63342 0.7131 0.0
C254 C 1.01081 0.63809 0.29204 0.0
C255 C 0.01891 0.63674 0.83455 0.0
H256 H 0.08732 0.61332 0.60722 0.0
H257 H 0.0758 0.68293 0.61496 0.0
H258 H 0.03767 0.59506 0.64473 0.0
H259 H 0.03373 0.59869 0.45669 0.0
H260 H 0.05982 0.58855 0.52331 0.0
H261 H 0.0417 0.69827 0.54268 0.0
H262 H 0.02052 0.68103 0.46627 0.0
H263 H 0.02255 0.6838 0.65613 0.0
H264 H 0.96748 0.63382 0.36281 0.0
H265 H 0.97496 0.63232 0.819 0.0
H266 H 0.02515 0.62688 0.28049 0.0
H267 H 0.01692 0.65503 0.27371 0.0
H268 H 0.99847 0.63413 0.20812 0.0
H269 H 0.03179 0.62379 0.83234 0.0
H270 H 1.00885 0.63459 0.93291 0.0
H271 H 0.02748 0.65281 0.84082 0.0
C272 C 0.67242 0.96581 0.37064 0.0
C273 C 0.65598 0.94966 0.38439 0.0
C274 C 0.66806 0.98791 0.40325 0.0
C275 C 0.64682 0.99407 0.4529 0.0
C276 C 0.63091 0.97753 0.48108 0.0
C277 C 0.63561 0.95554 0.44565 0.0
C278 C 0.68558 1.0049 0.37138 0.0
C279 C 0.60827 0.98325 0.53771 0.0
C280 C 0.63937 0.05462 0.55249 0.0
C281 C 0.63127 0.0633 0.42379 0.0
C282 C 0.64368 0.03193 0.56672 0.0
C283 C 0.64016 0.01772 0.44882 0.0
C284 C 0.6314 0.02638 0.32049 0.0
C285 C 0.62695 0.04889 0.31015 0.0
C286 C 0.6526 0.0233 0.70625 0.0
C287 C 0.62746 1.01201 0.19138 0.0
H288 H 0.68832 0.9615 0.32513 0.0
H289 H 0.62285 0.94319 0.45859 0.0
H290 H 0.68078 0.01431 0.27472 0.0
H291 H 0.68703 0.01674 0.46075 0.0
H292 H 0.70203 0.99734 0.35196 0.0
H293 H 0.59955 0.96859 0.58048 0.0
H294 H 0.60943 0.9958 0.62321 0.0
H295 H 0.59815 0.99028 0.4502 0.0
H296 H 0.6427 0.06557 0.64109 0.0
H297 H 0.62059 0.05528 0.21029 0.0
H298 H 0.67036 0.01917 0.6935 0.0
H299 H 0.64387 1.00803 0.73793 0.0
H300 H 0.65099 0.03552 0.79372 0.0
H301 H 0.64333 1.00475 0.15507 0.0
H302 H 0.62008 0.02121 0.10073 0.0
H303 H 0.61624 0.99825 0.21951 0.0
C304 C 0.04992 0.39356 0.3368 0.0
C305 C 0.06348 0.39597 0.45753 0.0
C306 C 0.02665 0.39405 0.34873 0.0
C307 C 0.01668 0.39697 0.48461 0.0
C308 C 0.0303 0.39956 0.60638 0.0
C309 C 0.0534 0.39908 0.59132 0.0
C310 C 1.01274 0.39134 0.21619 0.0
C311 C 0.02048 0.40272 0.75347 0.0
C312 C 0.95837 0.41867 0.54255 0.0
C313 C 0.947 0.39968 0.58588 0.0
C314 C 0.98068 0.41782 0.50039 0.0
C315 C 0.99205 0.39749 0.50167 0.0
C316 C 0.98028 0.37806 0.53616 0.0
C317 C 0.95791 0.37937 0.57758 0.0
C318 C 0.99245 0.43893 0.46339 0.0
C319 C 0.99167 0.35602 0.5383 0.0
H320 H 0.05746 0.39112 0.23297 0.0
H321 H 0.0636 0.40096 0.68562 0.0
H322 H 1.00194 0.37671 0.22731 0.0
H323 H 1.00177 0.40577 0.20255 0.0
H324 H 0.02297 0.38944 0.1183 0.0
H325 H 0.03334 0.40453 0.8373 0.0
H326 H 1.00984 0.41755 0.75482 0.0
H327 H 1.00987 0.38848 0.78131 0.0
H328 H 0.9501 0.43444 0.54734 0.0
H329 H 0.94934 0.36458 0.6104 0.0
H330 H 1.0022 0.43698 0.36377 0.0
H331 H 1.00421 0.44316 0.54999 0.0
H332 H 0.98077 0.45284 0.4496 0.0
H333 H 1.0014 0.35357 0.43909 0.0
H334 H 0.97974 0.34225 0.54968 0.0
H335 H 1.0034 0.3554 0.62924 0.0
C336 C 0.38968 0.46666 0.83515 0.0
C337 C 0.38628 0.46453 0.98291 0.0
C338 C 0.39101 0.48759 0.77037 0.0
C339 C 0.38873 0.50676 0.85527 0.0
C340 C 0.38519 0.50459 0.00409 0.0
C341 C 0.38409 0.48364 0.06557 0.0
C342 C 0.39496 0.48921 0.61159 0.0
C343 C 0.38245 0.52447 0.09921 0.0
C344 C 0.40899 0.56429 0.76738 0.0
C345 C 0.389 0.57517 0.73898 0.0
C346 C 0.4095 0.54151 0.79313 0.0
C347 C 0.38954 0.52929 0.79129 0.0
C348 C 0.36965 0.53987 0.75094 0.0
C349 C 0.36964 0.56261 0.72488 0.0
C350 C 0.43114 0.53089 0.83357 0.0
C351 C 0.34797 0.5276 0.74748 0.0
H352 H 0.39148 0.45202 0.77045 0.0
H353 H 0.38139 0.48231 0.1797 0.0
H354 H 0.38125 0.49837 0.56019 0.0
H355 H 0.41038 0.49856 0.59073 0.0
H356 H 0.39636 0.47283 0.56033 0.0
H357 H 0.37977 0.51995 0.21291 0.0
H358 H 0.39736 0.53503 0.0924 0.0
H359 H 0.36816 0.53441 0.06277 0.0
H360 H 0.4241 0.57374 0.77756 0.0
H361 H 0.35411 0.57073 0.70167 0.0
H362 H 0.43306 0.51482 0.77924 0.0
H363 H 0.43136 0.5278 0.95036 0.0
H364 H 0.44552 0.54144 0.80623 0.0
H365 H 0.34986 0.51164 0.6919 0.0
H366 H 0.33476 0.53719 0.69366 0.0
H367 H 0.34256 0.52408 0.85846 0.0
C368 C 0.47096 0.60807 0.1605 0.0
C369 C 0.45902 0.62755 0.13868 0.0
C370 C 0.49392 0.60843 0.18354 0.0
C371 C 0.50527 0.62878 0.18539 0.0
C372 C 0.49298 0.64855 0.17744 0.0
C373 C 0.47002 0.64771 0.154 0.0
C374 C 0.50626 0.58694 0.19231 0.0
C375 C 0.50431 0.67062 0.18071 0.0
C376 C 0.56743 0.63016 0.2637 0.0
C377 C 0.57624 0.63027 0.12489 0.0
C378 C 0.54433 0.62972 0.28632 0.0
C379 C 0.52982 0.62925 0.16736 0.0
C380 C 0.53873 0.62913 0.0275 0.0
C381 C 0.56168 0.62968 0.00828 0.0
C382 C 0.53546 0.62995 0.43698 0.0
C383 C 0.52401 0.62845 0.89713 0.0
H384 H 0.46264 0.59238 0.15071 0.0
H385 H 0.46097 0.66289 0.13902 0.0
H386 H 0.51478 0.58383 0.08924 0.0
H387 H 0.51909 0.58754 0.27675 0.0
H388 H 0.495 0.57293 0.21434 0.0
H389 H 0.4924 0.68421 0.19925 0.0
H390 H 0.51713 0.67108 0.26525 0.0
H391 H 0.5127 0.67351 0.07692 0.0
H392 H 0.57854 0.63065 0.35436 0.0
H393 H 0.56823 0.62963 0.90046 0.0
H394 H 0.52477 0.61542 0.45527 0.0
H395 H 0.52502 0.64472 0.45339 0.0
H396 H 0.54887 0.62996 0.51792 0.0
H397 H 0.51336 0.61363 0.90043 0.0
H398 H 0.53358 0.62824 0.79581 0.0
H399 H 0.51295 0.64298 0.89605 0.0
C400 C 0.6025 0.46937 0.84323 0.0
C401 C 0.61778 0.45382 0.79301 0.0
C402 C 0.60766 0.49184 0.84698 0.0
C403 C 0.62861 0.49911 0.79847 0.0
C404 C 0.64322 0.4838 0.73424 0.0
C405 C 0.63767 0.4613 0.73262 0.0
C406 C 0.59144 0.50748 0.91553 0.0
C407 C 0.66548 0.49087 0.6779 0.0
C408 C 0.63692 0.56143 0.80743 0.0
C409 C 0.64588 0.56423 0.9445 0.0
C410 C 0.63224 0.54023 0.75397 0.0
C411 C 0.63651 0.52151 0.84001 0.0
C412 C 0.6466 0.52433 0.97512 0.0
C413 C 0.65118 0.54552 0.02506 0.0
C414 C 0.62182 0.53798 0.60847 0.0
C415 C 0.65157 0.50497 0.07097 0.0
H416 H 0.58693 0.46386 0.88816 0.0
H417 H 0.64956 0.44949 0.69249 0.0
H418 H 0.59778 0.51254 0.02173 0.0
H419 H 0.58959 0.52253 0.85 0.0
H420 H 0.57488 0.49992 0.93044 0.0
H421 H 0.67282 0.4783 0.60619 0.0
H422 H 0.66415 0.50662 0.61893 0.0
H423 H 0.67693 0.4935 0.76878 0.0
H424 H 0.63283 0.57576 0.74417 0.0
H425 H 0.65838 0.54742 0.13027 0.0
H426 H 0.60397 0.53427 0.62093 0.0
H427 H 0.6294 0.5242 0.54829 0.0
H428 H 0.62348 0.55327 0.54465 0.0
H429 H 0.63589 0.49686 0.10294 0.0
H430 H 0.66057 0.50985 0.16931 0.0
H431 H 0.66166 0.49265 0.01297 0.0
C432 C 0.46241 0.40523 0.26318 0.0
C433 C 0.4512 0.38653 0.31307 0.0
C434 C 0.4853 0.40478 0.23613 0.0
C435 C 0.4974 0.38519 0.2596 0.0
C436 C 0.48655 0.36689 0.32161 0.0
C437 C 0.46362 0.36777 0.34752 0.0
C438 C 0.49614 0.42476 0.1712 0.0
C439 C 0.49876 0.34573 0.34997 0.0
C440 C 0.54331 0.374 0.99198 0.0
C441 C 0.56249 0.37971 0.06781 0.0
C442 C 0.52227 0.37543 0.05428 0.0
C443 C 0.52008 0.3827 0.19718 0.0
C444 C 0.53937 0.38804 0.27617 0.0
C445 C 0.56037 0.38653 0.21045 0.0
C446 C 0.50228 0.36949 0.9655 0.0
C447 C 0.53777 0.39572 0.429 0.0
H448 H 0.4531 0.4199 0.23733 0.0
H449 H 0.45525 0.35325 0.38715 0.0
H450 H 0.51215 0.42824 0.22414 0.0
H451 H 0.49962 0.42161 0.05663 0.0
H452 H 0.48547 0.43956 0.17919 0.0
H453 H 0.48915 0.33451 0.4201 0.0
H454 H 0.50193 0.33722 0.2472 0.0
H455 H 0.51501 0.34902 0.40033 0.0
H456 H 0.54464 0.36861 0.88202 0.0
H457 H 0.57505 0.39098 0.27003 0.0
H458 H 0.49128 0.38397 0.95475 0.0
H459 H 0.49264 0.35636 0.01922 0.0
H460 H 0.50683 0.36373 0.85679 0.0
H461 H 0.529 0.4117 0.4332 0.0
H462 H 0.55429 0.39772 0.47909 0.0
H463 H 0.52797 0.38389 0.49323 0.0
C464 C 0.86792 0.47038 0.02093 0.0
C465 C 0.88597 0.45591 0.01376 0.0
C466 C 0.87047 0.4929 0.99276 0.0
C467 C 0.89165 0.5013 0.95831 0.0
C468 C 0.91025 0.48717 0.96452 0.0
C469 C 0.90719 0.46463 0.99134 0.0
C470 C 0.85013 0.50724 0.9869 0.0
C471 C 0.93319 0.49549 0.93153 0.0
C472 C 0.89324 0.5463 0.67797 0.0
C473 C 0.89617 0.56537 0.75984 0.0
C474 C 0.89183 0.52553 0.74172 0.0
C475 C 0.89366 0.52354 0.8919 0.0
C476 C 0.89681 0.54268 0.97586 0.0
C477 C 0.89786 0.56343 0.90884 0.0
C478 C 0.88814 0.5057 0.64764 0.0
C479 C 0.89916 0.54119 0.13598 0.0
H480 H 0.85146 0.46392 0.03947 0.0
H481 H 0.92131 0.45369 0.98693 0.0
H482 H 0.8531 0.52311 0.04157 0.0
H483 H 0.84614 0.51093 0.87374 0.0
H484 H 0.83554 0.49917 0.03651 0.0
H485 H 0.94615 0.48374 0.96646 0.0
H486 H 0.93489 0.49798 0.81464 0.0
H487 H 0.93615 0.51155 0.98401 0.0
H488 H 0.89179 0.54756 0.56288 0.0
H489 H 0.90024 0.57807 0.97278 0.0
H490 H 0.87271 0.49716 0.67989 0.0
H491 H 0.90195 0.4939 0.6607 0.0
H492 H 0.88686 0.5101 0.53277 0.0
H493 H 0.88414 0.53367 0.18328 0.0
H494 H 0.90182 0.55751 0.18597 0.0
H495 H 0.91331 0.53039 0.1634 0.0
C496 C 0.56764 0.13193 0.95799 0.0
C497 C 0.57397 0.13542 0.10049 0.0
C498 C 0.54518 0.13255 0.91732 0.0
C499 C 0.52869 0.13679 0.02149 0.0
C500 C 0.53503 0.14025 0.16531 0.0
C501 C 0.55748 0.13952 0.20277 0.0
C502 C 0.53911 0.12875 0.763 0.0
C503 C 0.51809 0.14494 0.28015 0.0
C504 C 0.47256 0.1617 0.94106 0.0
C505 C 0.4583 0.1439 0.96602 0.0
C506 C 0.49562 0.15928 0.94871 0.0
C507 C 0.50479 0.1385 0.98171 0.0
C508 C 0.49058 0.12009 0.99544 0.0
C509 C 0.4675 0.123 0.98739 0.0
C510 C 0.51006 0.17936 0.93254 0.0
C511 C 0.49964 0.0976 0.02905 0.0
H512 H 0.5802 0.12869 0.87812 0.0
H513 H 0.56207 0.14224 0.31321 0.0
H514 H 0.52731 0.11487 0.75473 0.0
H515 H 0.53069 0.14347 0.71938 0.0
H516 H 0.55379 0.12512 0.69557 0.0
H517 H 0.52569 0.14681 0.38744 0.0
H518 H 0.509 0.16025 0.2542 0.0
H519 H 0.50579 0.13146 0.28503 0.0
H520 H 0.46567 0.17789 0.92294 0.0
H521 H 0.45669 0.1091 0.00629 0.0
H522 H 0.52429 0.17587 0.86124 0.0
H523 H 0.51684 0.18401 0.03838 0.0
H524 H 0.50077 0.1936 0.889 0.0
H525 H 0.51406 0.09383 0.95996 0.0
H526 H 0.48699 0.08456 0.01502 0.0
H527 H 0.50542 0.09722 0.14143 0.0
C528 C 0.16542 0.55335 0.03454 0.0
C529 C 0.14694 0.56731 0.03921 0.0
C530 C 0.16312 0.53074 0.0085 0.0
C531 C 0.14179 0.52169 0.98848 0.0
C532 C 0.12297 0.5353 0.00651 0.0
C533 C 0.12576 0.55797 0.03071 0.0
C534 C 0.18369 0.51699 0.98941 0.0
C535 C 0.0999 0.52628 0.98922 0.0
C536 C 0.13784 0.47654 0.71044 0.0
C537 C 0.13681 0.45736 0.79347 0.0
C538 C 0.13925 0.49737 0.77312 0.0
C539 C 0.13947 0.49935 0.92373 0.0
C540 C 0.13823 0.48012 0.0091 0.0
C541 C 0.13705 0.45929 0.94289 0.0
C542 C 0.14076 0.51729 0.67719 0.0
C543 C 0.13818 0.48156 0.16995 0.0
H544 H 0.18189 0.56026 0.04224 0.0
H545 H 0.11133 0.56851 0.03564 0.0
H546 H 0.18209 0.50113 0.04654 0.0
H547 H 0.18597 0.51326 0.87432 0.0
H548 H 0.19874 0.52555 0.02842 0.0
H549 H 0.0872 0.5377 0.03221 0.0
H550 H 0.09648 0.52361 0.87414 0.0
H551 H 0.09826 0.51021 0.04393 0.0
H552 H 0.13773 0.47535 0.59495 0.0
H553 H 0.13616 0.4446 0.00791 0.0
H554 H 0.15631 0.52636 0.69902 0.0
H555 H 0.12682 0.52862 0.69945 0.0
H556 H 0.14039 0.51292 0.56203 0.0
H557 H 0.15398 0.48874 0.20758 0.0
H558 H 0.13596 0.46525 0.22117 0.0
H559 H 0.12473 0.49262 0.20633 0.0
C560 C 0.46547 0.91309 -0.00273 0.0
C561 C 0.45612 0.89883 0.0985 0.0
C562 C 0.48781 0.91111 0.95613 0.0
C563 C 0.50134 0.89496 0.02125 0.0
C564 C 0.49176 0.8801 0.12016 0.0
C565 C 0.46925 0.88201 0.15584 0.0
C566 C 0.4971 0.92679 0.84663 0.0
C567 C 0.50558 0.86292 0.1947 0.0
C568 C 0.5583 0.87786 0.88456 0.0
C569 C 0.57237 0.89023 0.97231 0.0
C570 C 0.53514 0.88013 0.89318 0.0
C571 C 0.52579 0.89457 0.99542 0.0
C572 C 0.53997 0.90757 0.0812 0.0
C573 C 0.56302 0.90548 0.06709 0.0
C574 C 0.5207 0.86653 0.79616 0.0
C575 C 0.53081 0.92284 0.19373 0.0
H576 H 0.45542 0.92607 0.95199 0.0
H577 H 0.46226 0.87103 0.23505 0.0
H578 H 0.50857 0.93846 0.89927 0.0
H579 H 0.50674 0.91771 0.76483 0.0
H580 H 0.48392 0.93636 0.79238 0.0
H581 H 0.4955 0.85209 0.26466 0.0
H582 H 0.51432 0.85258 0.11526 0.0
H583 H 0.51837 0.87108 0.26103 0.0
H584 H 0.56539 0.8661 0.81066 0.0
H585 H 0.57373 0.91498 0.13632 0.0
H586 H 0.50777 0.87694 0.74636 0.0
H587 H 0.51213 0.85368 0.8594 0.0
H588 H 0.53038 0.85839 0.71033 0.0
H589 H 0.51892 0.93451 0.14532 0.0
H590 H 0.54399 0.93238 0.24825 0.0
H591 H 0.52167 0.91319 0.27523 0.0
C592 C 0.89315 0.96197 0.2973 0.0
C593 C 0.88966 0.95966 0.44486 0.0
C594 C 0.89555 0.98296 0.23478 0.0
C595 C 0.89456 1.00198 0.32211 0.0
C596 C 0.89045 0.99964 0.47021 0.0
C597 C 0.88801 0.97865 0.52917 0.0
C598 C 0.89972 0.98475 0.0763 0.0
C599 C 0.8892 0.01936 0.56799 0.0
C600 C 0.92351 0.05607 0.25196 0.0
C601 C 0.90554 0.07013 0.22665 0.0
C602 C 0.92042 0.03338 0.27048 0.0
C603 C 0.89884 0.02442 0.26328 0.0
C604 C 0.88094 0.03819 0.22434 0.0
C605 C 0.88449 0.06088 0.20662 0.0
C606 C 0.94004 0.01936 0.31067 0.0
C607 C 0.85771 0.02933 0.21339 0.0
H608 H 0.89443 0.94743 0.23122 0.0
H609 H 0.88517 0.97716 0.64308 0.0
H610 H 0.88845 0.99703 0.02775 0.0
H611 H 0.91688 0.99051 0.05745 0.0
H612 H 0.89747 0.96879 0.02084 0.0
H613 H 0.88531 0.01476 0.68008 0.0
H614 H 0.90522 0.02824 0.56689 0.0
H615 H 0.87634 0.03093 0.5298 0.0
H616 H 0.9399 0.06295 0.26594 0.0
H617 H 0.87048 0.0715 0.18588 0.0
H618 H 0.93995 1.00373 0.25 0.0
H619 H 0.93906 0.01518 0.42589 0.0
H620 H 0.95598 0.02792 0.29083 0.0
H621 H 0.85755 0.01336 0.15654 0.0
H622 H 0.84653 0.04092 0.15706 0.0
H623 H 0.85104 0.0265 0.32231 0.0
C624 C 0.96103 0.12327 0.61599 0.0
C625 C 0.95468 0.14489 0.58414 0.0
C626 C 0.98319 0.11819 0.6492 0.0
C627 C 0.99933 0.13509 0.64993 0.0
C628 C 0.99252 0.15715 0.63088 0.0
C629 C 0.97034 0.16175 0.59859 0.0
C630 C 0.98959 0.09451 0.6717 0.0
C631 C 1.00901 0.17577 0.63119 0.0
C632 C 0.06012 0.12763 0.75311 0.0
C633 C 0.07001 0.1253 0.61818 0.0
C634 C 0.03694 0.12971 0.76702 0.0
C635 C 0.02345 0.12968 0.64308 0.0
C636 C 0.03335 0.12639 0.5077 0.0
C637 C 0.05635 0.12415 0.49724 0.0
C638 C 0.02701 0.13276 0.91354 0.0
C639 C 0.01978 0.12629 0.37219 0.0
H640 H 0.94906 0.11012 0.60596 0.0
H641 H 0.96555 0.17856 0.57639 0.0
H642 H 0.99735 0.08806 0.57281 0.0
H643 H 1.00188 0.09298 0.75904 0.0
H644 H 0.97501 0.08413 0.69734 0.0
H645 H 1.0008 0.19207 0.63414 0.0
H646 H 0.02027 0.17444 0.72412 0.0
H647 H 0.01931 0.17487 0.53314 0.0
H648 H 0.07049 0.12843 0.84727 0.0
H649 H 0.06369 0.12213 0.39241 0.0
H650 H 1.0123 0.12208 0.92726 0.0
H651 H 0.02143 0.14999 0.92614 0.0
H652 H 0.03907 0.12904 -0.00038 0.0
H653 H 1.0062 0.11411 0.38042 0.0
H654 H 0.02985 0.12234 0.27629 0.0
H655 H 1.0121 0.14265 0.35623 0.0
C656 C 0.12473 0.96356 0.27451 0.0
C657 C 0.14367 0.9526 0.22498 0.0
C658 C 0.12481 0.98638 0.2972 0.0
C659 C 0.14431 0.99862 0.27017 0.0
C660 C 0.16282 0.98795 0.20858 0.0
C661 C 0.16228 0.9651 0.18653 0.0
C662 C 0.10459 0.99706 0.36137 0.0
C663 C 0.1839 1.00031 0.17706 0.0
C664 C 0.14174 0.06118 0.31042 0.0
C665 C 0.14826 0.06379 0.45327 0.0
C666 C 0.14078 0.04013 0.2473 0.0
C667 C 0.14652 0.02135 0.32899 0.0
C668 C 0.15376 0.02408 0.47162 0.0
C669 C 0.15451 0.04514 0.53154 0.0
C670 C 0.13305 0.03794 0.09487 0.0
C671 C 0.16024 1.00463 0.56285 0.0
H672 H 0.11017 0.95416 0.3032 0.0
H673 H 0.17697 0.95689 0.14727 0.0
H674 H 0.10782 1.00099 0.47516 0.0
H675 H 0.10077 0.0127 0.3059 0.0
H676 H 0.08985 0.9862 0.35595 0.0
H677 H 0.19524 0.99073 0.10747 0.0
H678 H 0.18028 0.01625 0.12476 0.0
H679 H 0.19257 1.00388 0.2788 0.0
H680 H 0.13684 0.07547 0.2492 0.0
H681 H 0.15976 0.04692 0.64157 0.0
H682 H 0.11684 0.02941 0.09272 0.0
H683 H 0.14482 0.02779 0.03239 0.0
H684 H 0.13121 0.05413 0.04159 0.0
H685 H 0.14583 0.99356 0.57692 0.0
H686 H 0.16623 1.00962 0.67018 0.0
H687 H 0.17346 0.99505 0.50929 0.0
C688 C 0.9711 0.89986 0.65755 0.0
C689 C 0.96043 0.89677 0.78947 0.0
C690 C 0.99425 0.90042 0.64681 0.0
C691 C 1.00732 0.898 0.77119 0.0
C692 C 0.99675 0.89519 0.9053 0.0
C693 C 0.97344 0.89455 0.91284 0.0
C694 C 1.00471 0.9034 0.50137 0.0
C695 C 1.01007 0.89274 0.04057 0.0
C696 C 0.0663 0.87993 0.68938 0.0
C697 C 0.07734 0.90016 0.68016 0.0
C698 C 0.04379 0.87882 0.72765 0.0
C699 C 0.03201 0.89838 0.75839 0.0
C700 C 0.04349 0.91866 0.75919 0.0
C701 C 0.06594 0.91931 0.71979 0.0
C702 C 0.03228 0.85684 0.72571 0.0
C703 C 0.03172 0.9399 0.79264 0.0
H704 H 0.96134 0.90158 0.56121 0.0
H705 H 0.96544 0.89217 0.01529 0.0
H706 H 1.01542 0.91819 0.50116 0.0
H707 H 1.01537 0.88909 0.47614 0.0
H708 H 0.99222 0.90518 0.4152 0.0
H709 H 0.99942 0.89089 0.13657 0.0
H710 H 0.02102 0.87818 0.03242 0.0
H711 H 0.02087 0.90728 0.05538 0.0
H712 H 0.0749 0.86501 0.65942 0.0
H713 H 0.0743 0.93503 0.71431 0.0
H714 H 0.02089 0.85611 0.63304 0.0
H715 H 0.02217 0.85462 0.82358 0.0
H716 H 0.04416 0.84298 0.71736 0.0
H717 H 0.0204 0.9441 0.70354 0.0
H718 H 0.04345 0.95374 0.80777 0.0
H719 H 0.02151 0.93816 0.89047 0.0
C720 C 0.37403 0.31708 0.08346 0.0
C721 C 0.39423 0.32666 0.04316 0.0
C722 C 0.37184 0.29417 0.09745 0.0
C723 C 0.39023 0.2804 0.06988 0.0
C724 C 0.41059 0.28995 0.02784 0.0
C725 C 0.41236 0.31291 0.01524 0.0
C726 C 0.34982 0.28471 0.14228 0.0
C727 C 0.43056 0.27589 0.99611 0.0
C728 C 0.39081 0.22143 0.21126 0.0
C729 C 0.38435 0.20953 0.09 0.0
C730 C 0.39253 0.24453 0.20721 0.0
C731 C 0.38791 0.25597 0.07852 0.0
C732 C 0.38129 0.24401 0.95636 0.0
C733 C 0.37949 0.22107 0.96384 0.0
C734 C 0.39946 0.25669 0.34024 0.0
C735 C 0.37634 0.25543 0.81667 0.0
H736 H 0.35995 0.3275 0.1064 0.0
H737 H 0.42807 0.32008 0.98473 0.0
H738 H 0.34345 0.27366 0.05761 0.0
H739 H 0.35186 0.27467 0.2403 0.0
H740 H 0.33728 0.29763 0.1633 0.0
H741 H 0.44529 0.28583 0.96676 0.0
H742 H 0.4347 0.26571 0.09064 0.0
H743 H 0.42683 0.26448 0.90699 0.0
H744 H 0.39459 0.21271 0.30912 0.0
H745 H 0.37453 0.21213 0.86909 0.0
H746 H 0.38687 0.26922 0.36835 0.0
H747 H 0.41522 0.26551 0.32033 0.0
H748 H 0.40172 0.24554 0.43298 0.0
H749 H 0.36297 0.26768 0.83196 0.0
H750 H 0.37122 0.24378 0.73167 0.0
H751 H 0.39119 0.26447 0.77925 0.0
C752 C 0.22088 0.64388 0.94127 0.0
C753 C 0.21281 0.63854 0.80489 0.0
C754 C 0.24358 0.64677 0.96619 0.0
C755 C 0.25872 0.64435 0.85197 0.0
C756 C 0.25075 0.63888 0.71408 0.0
C757 C 0.2279 0.63599 0.69224 0.0
C758 C 0.25133 0.6526 0.11476 0.0
C759 C 0.26636 0.63622 0.58933 0.0
C760 C 0.3147 0.67262 0.87593 0.0
C761 C 0.32875 0.65518 0.91272 0.0
C762 C 0.29188 0.66938 0.85789 0.0
C763 C 0.28281 0.64813 0.87622 0.0
C764 C 0.29679 0.63055 0.91715 0.0
C765 C 0.31957 0.6343 0.93551 0.0
C766 C 0.27753 0.68862 0.81606 0.0
C767 C 0.28778 0.60766 0.93784 0.0
H768 H 0.20942 0.64583 0.02947 0.0
H769 H 0.22187 0.63188 0.58665 0.0
H770 H 0.26346 0.64027 0.15291 0.0
H771 H 0.25987 0.66872 0.11302 0.0
H772 H 0.23749 0.65344 0.19269 0.0
H773 H 0.25761 0.63166 0.48937 0.0
H774 H 0.27549 0.65176 0.57073 0.0
H775 H 0.27881 0.62338 0.61367 0.0
H776 H 0.3216 0.68882 0.85829 0.0
H777 H 0.33029 0.62069 0.96293 0.0
H778 H 0.26389 0.69067 0.89422 0.0
H779 H 0.26988 0.68551 0.71038 0.0
H780 H 0.28701 0.70422 0.81022 0.0
H781 H 0.27432 0.60781 0.01841 0.0
H782 H 0.30071 0.59589 0.973 0.0
H783 H 0.28055 0.60165 0.83626 0.0
C784 C 0.63549 0.80965 0.16142 0.0
C785 C 0.65592 0.81987 0.18711 0.0
C786 C 0.63387 0.78672 0.14641 0.0
C787 C 0.65314 0.77359 0.15705 0.0
C788 C 0.67381 0.78381 0.18251 0.0
C789 C 0.67494 0.80676 0.19743 0.0
C790 C 0.61149 0.7765 0.12052 0.0
C791 C 0.69475 0.77046 0.19506 0.0
C792 C 0.64687 0.71414 0.27363 0.0
C793 C 0.64902 0.70259 0.1444 0.0
C794 C 0.64805 0.73712 0.27859 0.0
C795 C 0.6515 0.7491 0.15107 0.0
C796 C 0.65357 0.73764 0.0197 0.0
C797 C 0.65229 0.7145 0.01784 0.0
C798 C 0.64572 0.74856 0.42105 0.0
C799 C 0.65725 0.74983 0.88136 0.0
H800 H 0.62069 0.81958 0.15241 0.0
H801 H 0.69084 0.81444 0.21622 0.0
H802 H 0.61191 0.76636 0.02216 0.0
H803 H 0.60718 0.76542 0.21044 0.0
H804 H 0.59823 0.789 0.10949 0.0
H805 H 0.70964 0.78092 0.20893 0.0
H806 H 0.69351 0.75916 0.28771 0.0
H807 H 0.69701 0.76018 0.09832 0.0
H808 H 0.6443 0.7052 0.37235 0.0
H809 H 0.65396 0.70577 0.91761 0.0
H810 H 0.63189 0.7605 0.41719 0.0
H811 H 0.661 0.75794 0.44511 0.0
H812 H 0.64263 0.73688 0.51003 0.0
H813 H 0.64343 0.76144 0.86236 0.0
H814 H 0.65855 0.73859 0.78836 0.0
H815 H 0.67263 0.7597 0.88814 0.0
C816 C 0.71674 0.35975 0.05031 0.0
C817 C 0.70194 0.37334 0.97649 0.0
C818 C 0.73966 0.36086 0.02434 0.0
C819 C 0.74792 0.37527 0.91779 0.0
C820 C 0.73302 0.38912 0.84362 0.0
C821 C 0.7103 0.38825 0.8756 0.0
C822 C 0.755 0.34638 0.10956 0.0
C823 C 0.74095 0.40422 0.72631 0.0
C824 C 0.80918 0.39033 0.91413 0.0
C825 C 0.81796 0.3747 0.81971 0.0
C826 C 0.78649 0.39066 0.94752 0.0
C827 C 0.77204 0.37545 0.88136 0.0
C828 C 0.78072 0.36018 0.78158 0.0
C829 C 0.80361 0.35972 0.75409 0.0
C830 C 0.77812 0.40677 0.0575 0.0
C831 C 0.76584 0.34417 0.70484 0.0
H832 H 0.71035 0.3482 0.12819 0.0
H833 H 0.69892 0.39855 0.81639 0.0
H834 H 0.76287 0.33413 0.03818 0.0
H835 H 0.76844 0.35636 0.15733 0.0
H836 H 0.74623 0.33749 0.19643 0.0
H837 H 0.72731 0.41415 0.68007 0.0
H838 H 0.75381 0.41552 0.76756 0.0
H839 H 0.74863 0.3944 0.63965 0.0
H840 H 0.82022 0.40173 0.96708 0.0
H841 H 0.81032 0.3476 0.68117 0.0
H842 H 0.77073 0.39772 0.14871 0.0
H843 H 0.76491 0.41719 0.01115 0.0
H844 H 0.79145 0.4176 0.09864 0.0
H845 H 0.75832 0.33266 0.78278 0.0
H846 H 0.77489 0.33446 0.62313 0.0
H847 H 0.75212 0.35309 0.65177 0.0
C848 C 0.8844 0.71404 0.67667 0.0
C849 C 0.9002 0.70401 0.5886 0.0
C850 C 0.88253 0.7371 0.68256 0.0
C851 C 0.8971 0.75037 0.6008 0.0
C852 C 0.91331 0.74026 0.5139 0.0
C853 C 0.91452 0.71727 0.50792 0.0
C854 C 0.86484 0.74726 0.77513 0.0
C855 C 0.92955 0.75371 0.42783 0.0
C856 C 0.88392 0.81035 0.51658 0.0
C857 C 0.89593 0.82132 0.6228 0.0
C858 C 0.88369 0.78723 0.50995 0.0
C859 C 0.89612 0.77484 0.61007 0.0
C860 C 0.90848 0.78591 0.71613 0.0
C861 C 0.90807 0.80892 0.72188 0.0
C862 C 0.87008 0.77603 0.39637 0.0
C863 C 0.9224 0.77345 0.82279 0.0
H864 H 0.87316 0.70389 0.73814 0.0
H865 H 0.92686 0.70965 0.4401 0.0
H866 H 0.87254 0.75759 0.8589 0.0
H867 H 0.85418 0.75814 0.70968 0.0
H868 H 0.85427 0.73471 0.82774 0.0
H869 H 0.94131 0.74331 0.36663 0.0
H870 H 0.92057 0.76442 0.35172 0.0
H871 H 0.93916 0.76457 0.4998 0.0
H872 H 0.87436 0.81982 0.44051 0.0
H873 H 0.91752 0.81724 0.80392 0.0
H874 H 0.85838 0.76428 0.4466 0.0
H875 H 0.88101 0.76644 0.32453 0.0
H876 H 0.86052 0.78791 0.33091 0.0
H877 H 0.91188 0.76201 0.88514 0.0
H878 H 0.9311 0.78452 0.89839 0.0
H879 H 0.93491 0.7634 0.76582 0.0
C880 C 0.80534 0.1139 0.49057 0.0
C881 C 0.81974 0.12863 0.42278 0.0
C882 C 0.78235 0.11504 0.4686 0.0
C883 C 0.77359 0.1308 0.37249 0.0
C884 C 0.78807 0.14584 0.30482 0.0
C885 C 0.8109 0.1448 0.33249 0.0
C886 C 0.76746 0.09914 0.54657 0.0
C887 C 0.77956 0.16249 0.19876 0.0
C888 C 0.71754 0.11615 0.21222 0.0
C889 C 0.70313 0.12938 0.29193 0.0
C890 C 0.74056 0.11711 0.23327 0.0
C891 C 0.74937 0.1311 0.34009 0.0
C892 C 0.7349 0.14478 0.41908 0.0
C893 C 0.71202 0.144 0.39258 0.0
C894 C 0.75542 0.10276 0.1434 0.0
C895 C 0.74346 0.15951 0.53631 0.0
H896 H 0.81208 0.10139 0.5604 0.0
H897 H 0.82197 0.15603 0.278 0.0
H898 H 0.75413 0.10819 0.60294 0.0
H899 H 0.75942 0.08797 0.46891 0.0
H900 H 0.77663 0.08906 0.62568 0.0
H901 H 0.79288 0.17335 0.15762 0.0
H902 H 0.77184 0.15387 0.10707 0.0
H903 H 0.76659 0.17283 0.24852 0.0
H904 H 0.71077 0.10482 0.13445 0.0
H905 H 0.70097 0.15404 0.45622 0.0
H906 H 0.76335 0.09014 0.21169 0.0
H907 H 0.76884 0.11273 0.095 0.0
H908 H 0.74624 0.09431 0.05665 0.0
H909 H 0.75105 0.14936 0.62161 0.0
H910 H 0.73018 0.16971 0.58452 0.0
H911 H 0.75654 0.17054 0.49445 0.0
C912 C 0.11491 0.30607 0.52674 0.0
C913 C 0.12922 0.31924 0.60794 0.0
C914 C 0.11625 0.28307 0.53034 0.0
C915 C 0.13249 0.27281 0.61606 0.0
C916 C 0.14708 0.28598 0.69816 0.0
C917 C 0.14518 0.30905 0.69395 0.0
C918 C 0.10008 0.26975 0.44321 0.0
C919 C 0.16474 0.27567 0.79002 0.0
C920 C 0.12115 0.2141 0.73346 0.0
C921 C 0.13345 0.20178 0.63453 0.0
C922 C 0.12087 0.23713 0.7291 0.0
C923 C 0.13341 0.24831 0.62419 0.0
C924 C 0.14595 0.23602 0.524 0.0
C925 C 0.14569 0.21288 0.52965 0.0
C926 C 0.10692 0.24948 0.83622 0.0
C927 C 0.1597 0.24733 0.41125 0.0
H928 H 0.10246 0.31375 0.46024 0.0
H929 H 0.15641 0.31909 0.756 0.0
H930 H 0.10913 0.25901 0.36747 0.0
H931 H 0.09029 0.25892 0.51456 0.0
H932 H 0.08849 0.28024 0.38151 0.0
H933 H 0.17536 0.28814 0.84283 0.0
H934 H 0.15699 0.2653 0.87362 0.0
H935 H 0.17536 0.2648 0.72411 0.0
H936 H 0.11155 0.2057 0.81464 0.0
H937 H 0.15538 0.2035 0.45368 0.0
H938 H 0.09443 0.25959 0.77965 0.0
H939 H 0.11743 0.26086 0.89893 0.0
H940 H 0.09818 0.23834 0.91145 0.0
H941 H 0.14885 0.2571 0.33998 0.0
H942 H 0.16923 0.23551 0.34509 0.0
H943 H 0.17142 0.25893 0.4623 0.0
C944 C 0.22125 0.91627 0.49974 0.0
C945 C 0.20756 0.89771 0.49012 0.0
C946 C 0.24437 0.91453 0.48697 0.0
C947 C 0.2542 0.8937 0.46429 0.0
C948 C 0.24051 0.87487 0.45525 0.0
C949 C 0.21741 0.87709 0.46818 0.0
C950 C 0.25831 0.93503 0.49786 0.0
C951 C 0.25028 0.85235 0.43222 0.0
C952 C 0.31362 0.892 0.32258 0.0
C953 C 0.32575 0.88921 0.44895 0.0
C954 C 0.2903 0.89322 0.32528 0.0
C955 C 0.27885 0.89155 0.45734 0.0
C956 C 0.29103 0.88833 0.58454 0.0
C957 C 0.3142 0.88722 0.57875 0.0
C958 C 0.27794 0.89662 0.18716 0.0
C959 C 0.27962 0.88641 0.72769 0.0
H960 H 0.21389 0.93231 0.51573 0.0
H961 H 0.20705 0.86263 0.4598 0.0
H962 H 0.26976 0.93366 0.58987 0.0
H963 H 0.26858 0.93692 0.40038 0.0
H964 H 0.24813 0.95007 0.5116 0.0
H965 H 0.23739 0.83941 0.42434 0.0
H966 H 0.2603 0.85218 0.33293 0.0
H967 H 0.26152 0.84819 0.52176 0.0
H968 H 0.32233 0.89357 0.2219 0.0
H969 H 0.32331 0.88497 0.67727 0.0
H970 H 0.26844 0.91219 0.19205 0.0
H971 H 0.26584 0.88316 0.17117 0.0
H972 H 0.28917 0.89724 0.09327 0.0
H973 H 0.27068 0.90187 0.75205 0.0
H974 H 0.2914 0.88303 0.81592 0.0
H975 H 0.26717 0.87304 0.72487 0.0
C976 C 0.21775 0.11637 0.81605 0.0
C977 C 0.21005 0.13703 0.77234 0.0
C978 C 0.24028 0.11303 0.84844 0.0
C979 C 0.25534 0.13084 0.83886 0.0
C980 C 0.24738 0.1519 0.80084 0.0
C981 C 0.22494 0.15468 0.76717 0.0
C982 C 0.24811 0.09031 0.8877 0.0
C983 C 0.26268 0.17146 0.79196 0.0
C984 C 0.31136 0.1301 0.02398 0.0
C985 C 0.32595 0.12651 0.90926 0.0
C986 C 0.28834 0.13071 0.00368 0.0
C987 C 0.27953 0.12762 0.86516 0.0
C988 C 0.29408 0.12323 0.74966 0.0
C989 C 0.31708 0.12275 0.77301 0.0
C990 C 0.27353 0.13552 0.12982 0.0
C991 C 0.28538 0.11973 0.6003 0.0
H992 H 0.20639 0.10261 0.81883 0.0
H993 H 0.2191 0.17072 0.73413 0.0
H994 H 0.25967 0.0842 0.80459 0.0
H995 H 0.25735 0.09074 0.98993 0.0
H996 H 0.23422 0.07848 0.89809 0.0
H997 H 0.2537 0.18693 0.76781 0.0
H998 H 0.27168 0.17354 0.89423 0.0
H999 H 0.27523 0.1687 0.70732 0.0
H1000 H 0.31794 0.13292 0.13001 0.0
H1001 H 0.32813 0.11986 0.68375 0.0
H1002 H 0.26012 0.12315 0.1371 0.0
H1003 H 0.26557 0.15178 0.11526 0.0
H1004 H 0.28274 0.13566 0.23238 0.0
H1005 H 0.27231 0.10695 0.60067 0.0
H1006 H 0.2986 0.11472 0.52452 0.0
H1007 H 0.27776 0.13512 0.56054 0.0
C1008 C 0.12384 0.81107 0.17504 0.0
C1009 C 0.13157 0.81578 0.31286 0.0
C1010 C 0.12329 0.78931 0.12373 0.0
C1011 C 0.13096 0.7719 0.2115 0.0
C1012 C 0.13834 0.77657 0.35158 0.0
C1013 C 0.13842 0.79834 0.40056 0.0
C1014 C 0.11501 0.78499 0.97439 0.0
C1015 C 0.14704 0.75867 0.44816 0.0
C1016 C 0.11969 0.71158 0.12376 0.0
C1017 C 0.1392 0.70568 0.05232 0.0
C1018 C 0.11647 0.73322 0.17342 0.0
C1019 C 0.13331 0.74916 0.15335 0.0
C1020 C 0.1531 0.74313 0.08278 0.0
C1021 C 0.15571 0.7216 0.03241 0.0
C1022 C 0.09501 0.73907 0.24646 0.0
C1023 C 0.17172 0.75937 0.0617 0.0
H1024 H 0.11836 0.82439 0.10692 0.0
H1025 H 0.14441 0.80171 0.50734 0.0
H1026 H 0.12891 0.77947 0.90585 0.0
H1027 H 0.10254 0.77163 0.97553 0.0
H1028 H 0.10751 0.79983 0.9253 0.0
H1029 H 0.15089 0.7648 0.55708 0.0
H1030 H 0.13481 0.74518 0.45734 0.0
H1031 H 0.16232 0.75159 0.40141 0.0
H1032 H 0.10679 0.69942 0.1383 0.0
H1033 H 0.1709 0.7172 0.97794 0.0
H1034 H 0.087 0.75295 0.1898 0.0
H1035 H 0.09829 0.74457 0.35734 0.0
H1036 H 0.0833 0.72503 0.25001 0.0
H1037 H 0.1658 0.7737 -0.0005 0.0
H1038 H 0.18607 0.75205 0.00495 0.0
H1039 H 0.17742 0.76558 0.16679 0.0
C1040 C 0.71876 0.87012 0.82887 0.0
C1041 C 0.7061 0.88745 0.88451 0.0
C1042 C 0.74139 0.87274 0.79835 0.0
C1043 C 0.75174 0.89326 0.82284 0.0
C1044 C 0.73904 0.91091 0.87782 0.0
C1045 C 0.71644 0.90778 0.90834 0.0
C1046 C 0.75424 0.85348 0.7398 0.0
C1047 C 0.74934 0.93311 0.90406 0.0
C1048 C 0.81499 0.89335 0.83999 0.0
C1049 C 0.82058 0.89883 0.69893 0.0
C1050 C 0.79266 0.89205 0.88342 0.0
C1051 C 0.77555 0.89644 0.78366 0.0
C1052 C 0.78119 0.90275 0.64284 0.0
C1053 C 0.80352 0.90383 0.60245 0.0
C1054 C 0.78735 0.88527 0.03465 0.0
C1055 C 0.76361 0.90774 0.53301 0.0
H1056 H 0.71107 0.85429 0.81089 0.0
H1057 H 0.70689 0.92127 0.95188 0.0
H1058 H 0.76081 0.85754 0.63233 0.0
H1059 H 0.76861 0.84991 0.80954 0.0
H1060 H 0.74397 0.83841 0.73119 0.0
H1061 H 0.73735 0.94504 0.94952 0.0
H1062 H 0.76349 0.9315 0.97856 0.0
H1063 H 0.75591 0.93985 0.80244 0.0
H1064 H 0.82802 0.88944 0.91521 0.0
H1065 H 0.80758 0.90828 0.49343 0.0
H1066 H 0.77872 0.8692 0.03394 0.0
H1067 H 0.776 0.89734 0.08473 0.0
H1068 H 0.80242 0.88382 0.10172 0.0
H1069 H 0.75373 0.89276 0.51147 0.0
H1070 H 0.77072 0.91363 0.43046 0.0
H1071 H 0.75207 0.92041 0.57429 0.0
C1072 C 0.89701 0.21382 0.10343 0.0
C1073 C 0.89597 0.20872 0.24929 0.0
C1074 C 0.89953 0.23573 0.05732 0.0
C1075 C 0.90154 0.2528 0.15964 0.0
C1076 C 0.90119 0.24757 0.30687 0.0
C1077 C 0.89819 0.22569 0.34965 0.0
C1078 C 0.8995 0.24067 0.89932 0.0
C1079 C 0.90376 0.26511 0.41971 0.0
C1080 C 0.92593 0.30789 0.04659 0.0
C1081 C 0.90696 0.32104 0.03522 0.0
C1082 C 0.92444 0.28569 0.08704 0.0
C1083 C 0.90343 0.27624 0.11389 0.0
C1084 C 0.88422 0.28944 0.10218 0.0
C1085 C 0.88623 0.3117 0.06453 0.0
C1086 C 0.94536 0.27237 0.10165 0.0
C1087 C 0.86149 0.27997 0.12803 0.0
H1088 H 0.89523 0.20079 0.02549 0.0
H1089 H 0.89767 0.22188 0.4627 0.0
H1090 H 0.88544 0.25166 0.87329 0.0
H1091 H 0.91487 0.24945 0.86905 0.0
H1092 H 0.89814 0.22557 0.83341 0.0
H1093 H 0.90428 0.25817 0.52943 0.0
H1094 H 0.91918 0.27456 0.40088 0.0
H1095 H 0.88978 0.27685 0.4134 0.0
H1096 H 0.942 0.31498 0.02404 0.0
H1097 H 0.87146 0.32165 0.05419 0.0
H1098 H 0.9449 0.25814 0.0279 0.0
H1099 H 0.94666 0.26574 0.21173 0.0
H1100 H 0.96042 0.28219 0.07828 0.0
H1101 H 0.85874 0.26568 0.05683 0.0
H1102 H 0.84816 0.29217 0.10918 0.0
H1103 H 0.86017 0.27398 0.23958 0.0
C1104 C 0.21036 0.40523 0.4738 0.0
C1105 C 0.19889 0.38881 0.39907 0.0
C1106 C 0.23349 0.40734 0.46218 0.0
C1107 C 0.24543 0.39307 0.37072 0.0
C1108 C 0.23374 0.3773 0.28892 0.0
C1109 C 0.2107 0.37515 0.30573 0.0
C1110 C 0.24526 0.42405 0.55365 0.0
C1111 C 0.24565 0.36217 0.18696 0.0
C1112 C 0.30466 0.40691 0.2599 0.0
C1113 C 0.31699 0.39208 0.34262 0.0
C1114 C 0.28142 0.40768 0.2692 0.0
C1115 C 0.27021 0.3937 0.36626 0.0
C1116 C 0.28269 0.37948 0.45501 0.0
C1117 C 0.30585 0.37861 0.4406 0.0
C1118 C 0.26881 0.42272 0.17037 0.0
C1119 C 0.27153 0.36472 0.56281 0.0
H1120 H 0.20142 0.41568 0.54767 0.0
H1121 H 0.20196 0.36245 0.24759 0.0
H1122 H 0.25579 0.41545 0.63296 0.0
H1123 H 0.25633 0.43439 0.48729 0.0
H1124 H 0.23355 0.43489 0.61185 0.0
H1125 H 0.23402 0.3523 0.12139 0.0
H1126 H 0.25649 0.37179 0.11444 0.0
H1127 H 0.2564 0.35077 0.24784 0.0
H1128 H 0.31309 0.41719 0.18259 0.0
H1129 H 0.31525 0.36715 0.50502 0.0
H1130 H 0.25727 0.43322 0.23207 0.0
H1131 H 0.2587 0.41277 0.09574 0.0
H1132 H 0.27995 0.43345 0.10679 0.0
H1133 H 0.26025 0.37444 0.63168 0.0
H1134 H 0.28362 0.35604 0.63189 0.0
H1135 H 0.26135 0.35229 0.50665 0.0
C1136 C 0.41629 0.80621 0.4087 0.0
C1137 C 0.40825 0.8228 0.49914 0.0
C1138 C 0.41844 0.78443 0.4557 0.0
C1139 C 0.41209 0.77884 0.59659 0.0
C1140 C 0.40423 0.79554 0.68953 0.0
C1141 C 0.40257 0.81737 0.64005 0.0
C1142 C 0.42734 0.76736 0.35371 0.0
C1143 C 0.39709 0.79023 0.84013 0.0
C1144 C 0.39782 0.71857 0.66212 0.0
C1145 C 0.41693 0.71087 0.73059 0.0
C1146 C 0.39586 0.74071 0.62043 0.0
C1147 C 0.41359 0.75547 0.64524 0.0
C1148 C 0.4331 0.74765 0.71158 0.0
C1149 C 0.43445 0.72555 0.75446 0.0
C1150 C 0.37469 0.74838 0.55136 0.0
C1151 C 0.45259 0.76263 0.73719 0.0
H1152 H 0.42092 0.81024 0.2999 0.0
H1153 H 0.39623 0.83005 0.71024 0.0
H1154 H 0.44192 0.75908 0.40123 0.0
H1155 H 0.41464 0.75456 0.3344 0.0
H1156 H 0.43226 0.77452 0.24925 0.0
H1157 H 0.39152 0.80502 0.89941 0.0
H1158 H 0.38336 0.77815 0.83789 0.0
H1159 H 0.41094 0.78256 0.89955 0.0
H1160 H 0.38411 0.70744 0.64471 0.0
H1161 H 0.44929 0.71977 0.80726 0.0
H1162 H 0.37816 0.7546 0.44224 0.0
H1163 H 0.36755 0.76219 0.61342 0.0
H1164 H 0.36217 0.73509 0.54392 0.0
H1165 H 0.45836 0.76968 0.63439 0.0
H1166 H 0.46665 0.75397 0.7886 0.0
H1167 H 0.44757 0.77654 0.80635 0.0
C1168 C 0.72319 0.63051 0.32745 0.0
C1169 C 0.71722 0.61974 0.20097 0.0
C1170 C 0.74522 0.63028 0.37601 0.0
C1171 C 0.76156 0.61865 0.29777 0.0
C1172 C 0.75544 0.60728 0.1721 0.0
C1173 C 0.73345 0.60814 0.12466 0.0
C1174 C 0.75112 0.64285 0.50955 0.0
C1175 C 0.77215 0.59422 0.08739 0.0
C1176 C 0.82245 0.63321 0.34871 0.0
C1177 C 0.82896 0.61776 0.45129 0.0
C1178 C 0.80055 0.63373 0.29775 0.0
C1179 C 0.78498 0.6181 0.34815 0.0
C1180 C 0.79178 0.60193 0.44742 0.0
C1181 C 0.81357 0.60213 0.4989 0.0
C1182 C 0.79388 0.65143 0.19352 0.0
C1183 C 0.77596 0.5846 0.50104 0.0
H1184 H 0.71078 0.63965 0.38614 0.0
H1185 H 0.72894 0.59968 0.02713 0.0
H1186 H 0.75803 0.63152 0.5908 0.0
H1187 H 0.76409 0.65518 0.48492 0.0
H1188 H 0.73663 0.65143 0.55654 0.0
H1189 H 0.76461 0.58581 0.99415 0.0
H1190 H 0.78549 0.60519 0.04826 0.0
H1191 H 0.78 0.58169 0.15684 0.0
H1192 H 0.83421 0.64548 0.31291 0.0
H1193 H 0.81855 0.59009 0.57787 0.0
H1194 H 0.78056 0.66164 0.24086 0.0
H1195 H 0.78714 0.64395 0.09478 0.0
H1196 H 0.80794 0.66227 0.16412 0.0
H1197 H 0.7623 0.59245 0.5615 0.0
H1198 H 0.78418 0.57244 0.57168 0.0
H1199 H 0.76843 0.57576 0.40964 0.0
C1200 C 0.6352 0.20847 0.66356 0.0
C1201 C 0.61863 0.20198 0.56788 0.0
C1202 C 0.63629 0.23026 0.71386 0.0
C1203 C 0.62018 0.24578 0.66968 0.0
C1204 C 0.60296 0.23901 0.57743 0.0
C1205 C 0.60253 0.21732 0.52674 0.0
C1206 C 0.65507 0.23687 0.81075 0.0
C1207 C 0.58512 0.25477 0.53034 0.0
C1208 C 0.61126 0.29721 0.89356 0.0
C1209 C 0.62192 0.31344 0.81199 0.0
C1210 C 0.61061 0.27521 0.84871 0.0
C1211 C 0.62118 0.26908 0.71982 0.0
C1212 C 0.63203 0.28536 0.6369 0.0
C1213 C 0.63211 0.30738 0.6833 0.0
C1214 C 0.59842 0.25857 0.93889 0.0
C1215 C 0.64371 0.27948 0.4996 0.0
H1216 H 0.64783 0.19677 0.69436 0.0
H1217 H 0.58963 0.2124 0.45313 0.0
H1218 H 0.66499 0.24999 0.75906 0.0
H1219 H 0.64848 0.24369 0.91201 0.0
H1220 H 0.66615 0.22287 0.83629 0.0
H1221 H 0.57229 0.24666 0.464 0.0
H1222 H 0.57699 0.26223 0.6249 0.0
H1223 H 0.59255 0.26834 0.46742 0.0
H1224 H 0.60324 0.30171 0.99288 0.0
H1225 H 0.64052 0.31977 0.6203 0.0
H1226 H 0.60982 0.24525 0.97187 0.0
H1227 H 0.58501 0.2509 0.87534 0.0
H1228 H 0.59105 0.26598 0.03631 0.0
H1229 H 0.6562 0.26651 0.52003 0.0
H1230 H 0.6521 0.29383 0.45032 0.0
H1231 H 0.63168 0.27273 0.42184 0.0
loop_
_geom_bond_atom_site_label_1
_geom_bond_atom_site_label_2
_geom_bond_distance
_geom_bond_site_symmetry_2
_ccdc_geom_bond_type
Mg0 O7 2.141 . S
Mg0 O8 2.048 . S
Mg0 O9 2.048 . S
Mg0 O12 2.141 . S
C1 O2 1.313 1_554 S
C1 O8 1.195 . S
O2 C1 1.313 1_556 S
C3 O4 1.245 . S
C3 O12 1.289 . S
O4 C3 1.245 . S
C5 O6 1.245 1_554 S
C5 O7 1.289 . S
O6 C5 1.245 1_556 S
O7 Mg0 2.141 . S
O7 C5 1.289 . S
O8 Mg0 2.048 . S
O8 C1 1.195 . S
O9 Mg0 2.048 . S
O9 C10 1.195 . S
C10 O9 1.195 . S
C10 O11 1.313 . S
O11 C10 1.313 . S
O12 Mg0 2.141 . S
O12 C3 1.289 . S
Mg13 O20 2.141 . S
Mg13 O21 2.048 . S
Mg13 O22 2.048 . S
Mg13 O25 2.141 . S
C14 O15 1.313 . S
C14 O21 1.195 . S
O15 C14 1.313 . S
C16 O17 1.245 . S
C16 O25 1.289 . S
O17 C16 1.245 . S
C18 O19 1.245 . S
C18 O20 1.289 . S
O19 C18 1.245 . S
O20 Mg13 2.141 . S
O20 C18 1.289 . S
O21 Mg13 2.048 . S
O21 C14 1.195 . S
O22 Mg13 2.048 . S
O22 C23 1.195 . S
C23 O22 1.195 . S
C23 O24 1.313 . S
O24 C23 1.313 . S
O25 Mg13 2.141 . S
O25 C16 1.289 . S
Mg26 O33 2.141 . S
Mg26 O34 2.048 . S
Mg26 O35 2.048 . S
Mg26 O38 2.141 . S
C27 O28 1.313 1_554 S
C27 O34 1.195 . S
O28 C27 1.313 1_556 S
C29 O30 1.245 . S
C29 O38 1.289 . S
O30 C29 1.245 . S
C31 O32 1.245 1_554 S
C31 O33 1.289 . S
O32 C31 1.245 1_556 S
O33 Mg26 2.141 . S
O33 C31 1.289 . S
O34 Mg26 2.048 . S
O34 C27 1.195 . S
O35 Mg26 2.048 . S
O35 C36 1.195 . S
C36 O35 1.195 . S
C36 O37 1.313 . S
O37 C36 1.313 . S
O38 Mg26 2.141 . S
O38 C29 1.289 . S
Mg39 O46 2.141 . S
Mg39 O47 2.048 . S
Mg39 O48 2.048 . S
Mg39 O51 2.141 . S
C40 O41 1.313 . S
C40 O47 1.195 . S
O41 C40 1.313 . S
C42 O43 1.245 . S
C42 O51 1.289 . S
O43 C42 1.245 . S
C44 O45 1.245 . S
C44 O46 1.289 . S
O45 C44 1.245 . S
O46 Mg39 2.141 . S
O46 C44 1.289 . S
O47 Mg39 2.048 . S
O47 C40 1.195 . S
O48 Mg39 2.048 . S
O48 C49 1.195 . S
C49 O48 1.195 . S
C49 O50 1.313 . S
O50 C49 1.313 . S
O51 Mg39 2.141 . S
O51 C42 1.289 . S
Mg52 O59 2.141 . S
Mg52 O60 2.048 . S
Mg52 O61 2.048 1_554 S
Mg52 O64 2.141 . S
C53 O54 1.313 . S
C53 O60 1.195 . S
O54 C53 1.313 . S
C55 O56 1.245 . S
C55 O64 1.289 . S
O56 C55 1.245 . S
C57 O58 1.245 . S
C57 O59 1.289 . S
O58 C57 1.245 . S
O59 Mg52 2.141 . S
O59 C57 1.289 . S
O60 Mg52 2.048 . S
O60 C53 1.195 . S
O61 Mg52 2.048 1_556 S
O61 C62 1.195 1_556 S
C62 O61 1.195 1_554 S
C62 O63 1.313 . S
O63 C62 1.313 . S
O64 Mg52 2.141 . S
O64 C55 1.289 . S
Mg65 O72 2.141 . S
Mg65 O73 2.048 . S
Mg65 O74 2.048 . S
Mg65 O77 2.141 . S
C66 O67 1.313 1_556 S
C66 O73 1.195 . S
O67 C66 1.313 1_554 S
C68 O69 1.245 1_556 S
C68 O77 1.289 . S
O69 C68 1.245 1_554 S
C70 O71 1.245 . S
C70 O72 1.289 . S
O71 C70 1.245 . S
O72 Mg65 2.141 . S
O72 C70 1.289 . S
O73 Mg65 2.048 . S
O73 C66 1.195 . S
O74 Mg65 2.048 . S
O74 C75 1.195 . S
C75 O74 1.195 . S
C75 O76 1.313 1_556 S
O76 C75 1.313 1_554 S
O77 Mg65 2.141 . S
O77 C68 1.289 . S
Mg78 O85 2.141 . S
Mg78 O86 2.048 . S
Mg78 O87 2.048 1_554 S
Mg78 O90 2.141 . S
C79 O80 1.313 . S
C79 O86 1.195 . S
O80 C79 1.313 . S
C81 O82 1.245 . S
C81 O90 1.289 . S
O82 C81 1.245 . S
C83 O84 1.245 . S
C83 O85 1.289 . S
O84 C83 1.245 . S
O85 Mg78 2.141 . S
O85 C83 1.289 . S
O86 Mg78 2.048 . S
O86 C79 1.195 . S
O87 Mg78 2.048 1_556 S
O87 C88 1.195 1_556 S
C88 O87 1.195 1_554 S
C88 O89 1.313 . S
O89 C88 1.313 . S
O90 Mg78 2.141 . S
O90 C81 1.289 . S
Mg91 O98 2.141 . S
Mg91 O99 2.048 . S
Mg91 O100 2.048 . S
Mg91 O103 2.141 . S
C92 O93 1.313 1_556 S
C92 O99 1.195 . S
O93 C92 1.313 1_554 S
C94 O95 1.245 1_556 S
C94 O103 1.289 . S
O95 C94 1.245 1_554 S
C96 O97 1.245 . S
C96 O98 1.289 . S
O97 C96 1.245 . S
O98 Mg91 2.141 . S
O98 C96 1.289 . S
O99 Mg91 2.048 . S
O99 C92 1.195 . S
O100 Mg91 2.048 . S
O100 C101 1.195 . S
C101 O100 1.195 . S
C101 O102 1.313 1_556 S
O102 C101 1.313 1_554 S
O103 Mg91 2.141 . S
O103 C94 1.289 . S
Mg104 O111 2.141 . S
Mg104 O112 2.048 . S
Mg104 O113 2.048 . S
Mg104 O116 2.141 . S
C105 O106 1.313 . S
C105 O112 1.195 . S
O106 C105 1.313 . S
C107 O108 1.245 . S
C107 O116 1.289 . S
O108 C107 1.245 . S
C109 O110 1.245 . S
C109 O111 1.289 . S
O110 C109 1.245 . S
O111 Mg104 2.141 . S
O111 C109 1.289 . S
O112 Mg104 2.048 . S
O112 C105 1.195 . S
O113 Mg104 2.048 . S
O113 C114 1.195 . S
C114 O113 1.195 . S
C114 O115 1.313 . S
O115 C114 1.313 . S
O116 Mg104 2.141 . S
O116 C107 1.289 . S
Mg117 O124 2.141 . S
Mg117 O125 2.048 . S
Mg117 O126 2.048 . S
Mg117 O129 2.141 . S
C118 O119 1.313 . S
C118 O125 1.195 . S
O119 C118 1.313 . S
C120 O121 1.245 . S
C120 O129 1.289 . S
O121 C120 1.245 . S
C122 O123 1.245 . S
C122 O124 1.289 . S
O123 C122 1.245 . S
O124 Mg117 2.141 . S
O124 C122 1.289 . S
O125 Mg117 2.048 . S
O125 C118 1.195 . S
O126 Mg117 2.048 . S
O126 C127 1.195 . S
C127 O126 1.195 . S
C127 O128 1.313 . S
O128 C127 1.313 . S
O129 Mg117 2.141 . S
O129 C120 1.289 . S
Mg130 O137 2.141 . S
Mg130 O138 2.048 . S
Mg130 O139 2.048 . S
Mg130 O142 2.141 . S
C131 O132 1.313 . S
C131 O138 1.195 . S
O132 C131 1.313 . S
C133 O134 1.245 . S
C133 O142 1.289 . S
O134 C133 1.245 . S
C135 O136 1.245 . S
C135 O137 1.289 . S
O136 C135 1.245 . S
O137 Mg130 2.141 . S
O137 C135 1.289 . S
O138 Mg130 2.048 . S
O138 C131 1.195 . S
O139 Mg130 2.048 . S
O139 C140 1.195 . S
C140 O139 1.195 . S
C140 O141 1.313 . S
O141 C140 1.313 . S
O142 Mg130 2.141 . S
O142 C133 1.289 . S
Mg143 O150 2.141 . S
Mg143 O151 2.048 . S
Mg143 O152 2.048 . S
Mg143 O155 2.141 . S
C144 O145 1.313 . S
C144 O151 1.195 . S
O145 C144 1.313 . S
C146 O147 1.245 . S
C146 O155 1.289 . S
O147 C146 1.245 . S
C148 O149 1.245 . S
C148 O150 1.289 . S
O149 C148 1.245 . S
O150 Mg143 2.141 . S
O150 C148 1.289 . S
O151 Mg143 2.048 . S
O151 C144 1.195 . S
O152 Mg143 2.048 . S
O152 C153 1.195 . S
C153 O152 1.195 . S
C153 O154 1.313 . S
O154 C153 1.313 . S
O155 Mg143 2.141 . S
O155 C146 1.289 . S
Mg156 O163 2.141 . S
Mg156 O164 2.048 . S
Mg156 O165 2.048 . S
Mg156 O168 2.141 . S
C157 O158 1.313 . S
C157 O164 1.195 . S
O158 C157 1.313 . S
C159 O160 1.245 . S
C159 O168 1.289 . S
O160 C159 1.245 . S
C161 O162 1.245 . S
C161 O163 1.289 . S
O162 C161 1.245 . S
O163 Mg156 2.141 . S
O163 C161 1.289 . S
O164 Mg156 2.048 . S
O164 C157 1.195 . S
O165 Mg156 2.048 . S
O165 C166 1.195 . S
C166 O165 1.195 . S
C166 O167 1.313 . S
O167 C166 1.313 . S
O168 Mg156 2.141 . S
O168 C159 1.289 . S
Mg169 O176 2.141 . S
Mg169 O177 2.048 . S
Mg169 O178 2.048 . S
Mg169 O181 2.141 . S
C170 O171 1.313 . S
C170 O177 1.195 . S
O171 C170 1.313 . S
C172 O173 1.245 . S
C172 O181 1.289 . S
O173 C172 1.245 . S
C174 O175 1.245 . S
C174 O176 1.289 . S
O175 C174 1.245 . S
O176 Mg169 2.141 . S
O176 C174 1.289 . S
O177 Mg169 2.048 . S
O177 C170 1.195 . S
O178 Mg169 2.048 . S
O178 C179 1.195 . S
C179 O178 1.195 . S
C179 O180 1.313 . S
O180 C179 1.313 . S
O181 Mg169 2.141 . S
O181 C172 1.289 . S
Mg182 O189 2.141 . S
Mg182 O190 2.048 . S
Mg182 O191 2.048 . S
Mg182 O194 2.141 . S
C183 O184 1.313 . S
C183 O190 1.195 . S
O184 C183 1.313 . S
C185 O186 1.245 . S
C185 O194 1.289 . S
O186 C185 1.245 . S
C187 O188 1.245 . S
C187 O189 1.289 . S
O188 C187 1.245 . S
O189 Mg182 2.141 . S
O189 C187 1.289 . S
O190 Mg182 2.048 . S
O190 C183 1.195 . S
O191 Mg182 2.048 . S
O191 C192 1.195 . S
C192 O191 1.195 . S
C192 O193 1.313 . S
O193 C192 1.313 . S
O194 Mg182 2.141 . S
O194 C185 1.289 . S
Mg195 O202 2.141 . S
Mg195 O203 2.048 . S
Mg195 O204 2.048 . S
Mg195 O207 2.141 . S
C196 O197 1.313 . S
C196 O203 1.195 . S
O197 C196 1.313 . S
C198 O199 1.245 . S
C198 O207 1.289 . S
O199 C198 1.245 . S
C200 O201 1.245 . S
C200 O202 1.289 . S
O201 C200 1.245 . S
O202 Mg195 2.141 . S
O202 C200 1.289 . S
O203 Mg195 2.048 . S
O203 C196 1.195 . S
O204 Mg195 2.048 . S
O204 C205 1.195 . S
C205 O204 1.195 . S
C205 O206 1.313 . S
O206 C205 1.313 . S
O207 Mg195 2.141 . S
O207 C198 1.289 . S
C208 C209 1.391 . S
C208 C210 1.394 . S
C208 H224 0.931 . S
C209 C208 1.391 . S
C209 C213 1.376 . S
C210 C208 1.394 . S
C210 C211 1.369 . S
C210 C214 1.531 1_554 S
C211 C210 1.369 . S
C211 C212 1.410 . S
C211 C219 1.503 1_565 S
C212 C211 1.410 . S
C212 C213 1.392 . S
C212 C215 1.511 . S
C213 C209 1.376 . S
C213 C212 1.392 . S
C213 H225 0.929 . S
C214 C210 1.531 1_556 S
C214 H226 0.960 . S
C214 H227 0.962 . S
C214 H228 0.960 . S
C215 C212 1.511 . S
C215 H229 0.961 . S
C215 H230 0.961 1_565 S
C215 H231 0.961 . S
C216 C217 1.370 . S
C216 C218 1.363 . S
C216 H232 0.931 . S
C217 C216 1.370 . S
C217 C221 1.408 . S
C218 C216 1.363 . S
C218 C219 1.370 . S
C218 C222 1.524 . S
C219 C211 1.503 1_545 S
C219 C218 1.370 . S
C219 C220 1.403 . S
C220 C219 1.403 . S
C220 C221 1.404 . S
C220 C223 1.539 . S
C221 C217 1.408 . S
C221 C220 1.404 . S
C221 H233 0.930 . S
C222 C218 1.524 . S
C222 H234 0.956 1_545 S
C222 H235 0.961 1_545 S
C222 H236 0.961 . S
C223 C220 1.539 . S
C223 H237 0.958 . S
C223 H238 0.961 . S
C223 H239 0.960 1_545 S
H224 C208 0.931 . S
H225 C213 0.929 . S
H226 C214 0.960 . S
H227 C214 0.962 . S
H228 C214 0.960 . S
H229 C215 0.961 . S
H230 C215 0.961 1_545 S
H231 C215 0.961 . S
H232 C216 0.931 . S
H233 C221 0.930 . S
H234 C222 0.956 1_565 S
H235 C222 0.961 1_565 S
H236 C222 0.961 . S
H237 C223 0.958 . S
H238 C223 0.961 . S
H239 C223 0.960 1_565 S
C240 C241 1.391 . S
C240 C242 1.394 . S
C240 H256 0.931 . S
C241 C240 1.391 . S
C241 C245 1.376 . S
C242 C240 1.394 . S
C242 C243 1.369 . S
C242 C246 1.531 1_556 S
C243 C242 1.369 . S
C243 C244 1.410 . S
C243 C251 1.503 1_455 S
C244 C243 1.410 . S
C244 C245 1.392 . S
C244 C247 1.511 . S
C245 C241 1.376 . S
C245 C244 1.392 . S
C245 H257 0.929 . S
C246 C242 1.531 1_554 S
C246 H258 0.960 1_455 S
C246 H259 0.962 1_554 S
C246 H260 0.960 . S
C247 C244 1.511 . S
C247 H261 0.961 . S
C247 H262 0.961 1_455 S
C247 H263 0.961 . S
C248 C249 1.370 . S
C248 C250 1.363 . S
C248 H264 0.931 . S
C249 C248 1.370 . S
C249 C253 1.408 . S
C250 C248 1.363 . S
C250 C251 1.370 . S
C250 C254 1.524 . S
C251 C243 1.503 1_655 S
C251 C250 1.370 . S
C251 C252 1.403 . S
C252 C251 1.403 . S
C252 C253 1.404 . S
C252 C255 1.539 . S
C253 C249 1.408 . S
C253 C252 1.404 . S
C253 H265 0.930 . S
C254 C250 1.524 . S
C254 H266 0.956 . S
C254 H267 0.961 1_655 S
C254 H268 0.961 . S
C255 C252 1.539 . S
C255 H269 0.958 1_556 S
C255 H270 0.961 . S
C255 H271 0.960 . S
H256 C240 0.931 . S
H257 C245 0.929 . S
H258 C246 0.960 1_655 S
H259 C246 0.962 1_556 S
H260 C246 0.960 . S
H261 C247 0.961 . S
H262 C247 0.961 1_655 S
H263 C247 0.961 . S
H264 C248 0.931 . S
H265 C253 0.930 . S
H266 C254 0.956 . S
H267 C254 0.961 1_455 S
H268 C254 0.961 . S
H269 C255 0.958 1_554 S
H270 C255 0.961 . S
H271 C255 0.960 . S
C272 C273 1.391 . S
C272 C274 1.394 . S
C272 H288 0.931 . S
C273 C272 1.391 . S
C273 C277 1.376 . S
C274 C272 1.394 . S
C274 C275 1.369 . S
C274 C278 1.531 . S
C275 C274 1.369 . S
C275 C276 1.410 . S
C275 C283 1.503 1_565 S
C276 C275 1.410 . S
C276 C277 1.392 . S
C276 C279 1.511 . S
C277 C273 1.376 . S
C277 C276 1.392 . S
C277 H289 0.929 . S
C278 C274 1.531 . S
C278 H290 0.960 1_564 S
C278 H291 0.962 . S
C278 H292 0.960 1_554 S
C279 C276 1.511 . S
C279 H293 0.961 . S
C279 H294 0.961 1_565 S
C279 H295 0.961 . S
C280 C281 1.370 . S
C280 C282 1.363 . S
C280 H296 0.931 . S
C281 C280 1.370 . S
C281 C285 1.408 . S
C282 C280 1.363 . S
C282 C283 1.370 . S
C282 C286 1.524 . S
C283 C275 1.503 1_545 S
C283 C282 1.370 . S
C283 C284 1.403 . S
C284 C283 1.403 . S
C284 C285 1.404 . S
C284 C287 1.539 . S
C285 C281 1.408 . S
C285 C284 1.404 . S
C285 H297 0.930 . S
C286 C282 1.524 . S
C286 H298 0.956 . S
C286 H299 0.961 1_545 S
C286 H300 0.961 . S
C287 C284 1.539 . S
C287 H301 0.958 1_554 S
C287 H302 0.961 1_554 S
C287 H303 0.960 . S
H288 C272 0.931 . S
H289 C277 0.929 . S
H290 C278 0.960 1_546 S
H291 C278 0.962 . S
H292 C278 0.960 1_556 S
H293 C279 0.961 . S
H294 C279 0.961 1_545 S
H295 C279 0.961 . S
H296 C280 0.931 . S
H297 C285 0.930 . S
H298 C286 0.956 . S
H299 C286 0.961 1_565 S
H300 C286 0.961 . S
H301 C287 0.958 1_556 S
H302 C287 0.961 1_556 S
H303 C287 0.960 . S
C304 C305 1.391 . S
C304 C306 1.394 . S
C304 H320 0.931 . S
C305 C304 1.391 . S
C305 C309 1.376 . S
C306 C304 1.394 . S
C306 C307 1.369 . S
C306 C310 1.531 . S
C307 C306 1.369 . S
C307 C308 1.410 . S
C307 C315 1.503 1_455 S
C308 C307 1.410 . S
C308 C309 1.392 . S
C308 C311 1.511 . S
C309 C305 1.376 . S
C309 C308 1.392 . S
C309 H321 0.929 . S
C310 C306 1.531 . S
C310 H322 0.969 . S
C310 H323 0.962 . S
C310 H324 0.960 . S
C311 C308 1.511 . S
C311 H325 0.961 . S
C311 H326 0.961 . S
C311 H327 0.961 1_556 S
C312 C313 1.370 . S
C312 C314 1.363 . S
C312 H328 0.931 . S
C313 C312 1.370 . S
C313 C317 1.408 . S
C314 C312 1.363 . S
C314 C315 1.370 . S
C314 C318 1.524 . S
C315 C307 1.503 1_655 S
C315 C314 1.370 . S
C315 C316 1.403 . S
C316 C315 1.403 . S
C316 C317 1.404 . S
C316 C319 1.539 1_556 S
C317 C313 1.408 . S
C317 C316 1.404 . S
C317 H329 0.930 . S
C318 C314 1.524 . S
C318 H330 0.956 . S
C318 H331 0.961 1_655 S
C318 H332 0.961 . S
C319 C316 1.539 1_554 S
C319 H333 0.958 1_554 S
C319 H334 0.961 . S
C319 H335 0.960 1_655 S
H320 C304 0.931 . S
H321 C309 0.929 . S
H322 C310 0.969 . S
H323 C310 0.962 . S
H324 C310 0.960 . S
H325 C311 0.961 . S
H326 C311 0.961 . S
H327 C311 0.961 1_554 S
H328 C312 0.931 . S
H329 C317 0.930 . S
H330 C318 0.956 . S
H331 C318 0.961 1_455 S
H332 C318 0.961 . S
H333 C319 0.958 1_556 S
H334 C319 0.961 . S
H335 C319 0.960 1_455 S
C336 C337 1.391 . S
C336 C338 1.394 . S
C336 H352 0.931 1_554 S
C337 C336 1.391 . S
C337 C341 1.376 . S
C338 C336 1.394 . S
C338 C339 1.369 . S
C338 C342 1.531 1_554 S
C339 C338 1.369 . S
C339 C340 1.410 . S
C339 C347 1.503 . S
C340 C339 1.410 . S
C340 C341 1.392 . S
C340 C343 1.511 . S
C341 C337 1.376 . S
C341 C340 1.392 . S
C341 H353 0.929 . S
C342 C338 1.531 1_556 S
C342 H354 0.960 . S
C342 H355 0.962 . S
C342 H356 0.960 . S
C343 C340 1.511 . S
C343 H357 0.961 . S
C343 H358 0.961 . S
C343 H359 0.961 . S
C344 C345 1.370 . S
C344 C346 1.363 . S
C344 H360 0.931 . S
C345 C344 1.370 . S
C345 C349 1.408 1_556 S
C346 C344 1.363 . S
C346 C347 1.370 1_556 S
C346 C350 1.524 . S
C347 C339 1.503 . S
C347 C346 1.370 1_554 S
C347 C348 1.403 . S
C348 C347 1.403 . S
C348 C349 1.404 . S
C348 C351 1.539 . S
C349 C345 1.408 1_554 S
C349 C348 1.404 . S
C349 H361 0.930 . S
C350 C346 1.524 . S
C350 H362 0.956 . S
C350 H363 0.961 . S
C350 H364 0.961 . S
C351 C348 1.539 . S
C351 H365 0.958 . S
C351 H366 0.961 . S
C351 H367 0.960 . S
H352 C336 0.931 1_556 S
H353 C341 0.929 . S
H354 C342 0.960 . S
H355 C342 0.962 . S
H356 C342 0.960 . S
H357 C343 0.961 . S
H358 C343 0.961 . S
H359 C343 0.961 . S
H360 C344 0.931 . S
H361 C349 0.930 . S
H362 C350 0.956 . S
H363 C350 0.961 . S
H364 C350 0.961 . S
H365 C351 0.958 . S
H366 C351 0.961 . S
H367 C351 0.960 . S
C368 C369 1.391 1_554 S
C368 C370 1.394 . S
C368 H384 0.931 . S
C369 C368 1.391 1_556 S
C369 C373 1.376 . S
C370 C368 1.394 . S
C370 C371 1.369 1_554 S
C370 C374 1.531 . S
C371 C370 1.369 1_556 S
C371 C372 1.410 . S
C371 C379 1.503 . S
C372 C371 1.410 . S
C372 C373 1.392 . S
C372 C375 1.511 . S
C373 C369 1.376 . S
C373 C372 1.392 . S
C373 H385 0.929 . S
C374 C370 1.531 . S
C374 H386 0.960 . S
C374 H387 0.962 . S
C374 H388 0.960 . S
C375 C372 1.511 . S
C375 H389 0.961 . S
C375 H390 0.961 . S
C375 H391 0.961 . S
C376 C377 1.370 1_556 S
C376 C378 1.363 . S
C376 H392 0.931 . S
C377 C376 1.370 1_554 S
C377 C381 1.408 . S
C378 C376 1.363 . S
C378 C379 1.370 . S
C378 C382 1.524 . S
C379 C371 1.503 . S
C379 C378 1.370 . S
C379 C380 1.403 1_556 S
C380 C379 1.403 1_554 S
C380 C381 1.404 . S
C380 C383 1.539 . S
C381 C377 1.408 . S
C381 C380 1.404 . S
C381 H393 0.930 . S
C382 C378 1.524 . S
C382 H394 0.956 . S
C382 H395 0.961 . S
C382 H396 0.961 . S
C383 C380 1.539 . S
C383 H397 0.958 . S
C383 H398 0.961 . S
C383 H399 0.960 . S
H384 C368 0.931 . S
H385 C373 0.929 . S
H386 C374 0.960 . S
H387 C374 0.962 . S
H388 C374 0.960 . S
H389 C375 0.961 . S
H390 C375 0.961 . S
H391 C375 0.961 . S
H392 C376 0.931 . S
H393 C381 0.930 . S
H394 C382 0.956 . S
H395 C382 0.961 . S
H396 C382 0.961 . S
H397 C383 0.958 . S
H398 C383 0.961 . S
H399 C383 0.960 . S
C400 C401 1.391 1_554 S
C400 C402 1.394 . S
C400 H416 0.931 . S
C401 C400 1.391 1_556 S
C401 C405 1.376 . S
C402 C400 1.394 . S
C402 C403 1.369 . S
C402 C406 1.531 . S
C403 C402 1.369 . S
C403 C404 1.410 1_554 S
C403 C411 1.503 . S
C404 C403 1.410 1_556 S
C404 C405 1.392 . S
C404 C407 1.511 . S
C405 C401 1.376 . S
C405 C404 1.392 . S
C405 H417 0.929 . S
C406 C402 1.531 . S
C406 H418 0.960 . S
C406 H419 0.962 . S
C406 H420 0.960 . S
C407 C404 1.511 . S
C407 H421 0.961 . S
C407 H422 0.961 . S
C407 H423 0.961 . S
C408 C409 1.370 . S
C408 C410 1.363 . S
C408 H424 0.931 . S
C409 C408 1.370 . S
C409 C413 1.408 . S
C410 C408 1.363 . S
C410 C411 1.370 . S
C410 C414 1.524 1_554 S
C411 C403 1.503 . S
C411 C410 1.370 . S
C411 C412 1.403 . S
C412 C411 1.403 . S
C412 C413 1.404 . S
C412 C415 1.539 . S
C413 C409 1.408 . S
C413 C412 1.404 . S
C413 H425 0.930 . S
C414 C410 1.524 1_556 S
C414 H426 0.956 1_556 S
C414 H427 0.961 . S
C414 H428 0.961 . S
C415 C412 1.539 . S
C415 H429 0.958 . S
C415 H430 0.961 . S
C415 H431 0.960 . S
H416 C400 0.931 . S
H417 C405 0.929 . S
H418 C406 0.960 . S
H419 C406 0.962 . S
H420 C406 0.960 . S
H421 C407 0.961 . S
H422 C407 0.961 . S
H423 C407 0.961 . S
H424 C408 0.931 . S
H425 C413 0.930 . S
H426 C414 0.956 1_554 S
H427 C414 0.961 . S
H428 C414 0.961 . S
H429 C415 0.958 . S
H430 C415 0.961 . S
H431 C415 0.960 . S
C432 C433 1.391 1_556 S
C432 C434 1.394 . S
C432 H448 0.931 . S
C433 C432 1.391 1_554 S
C433 C437 1.376 . S
C434 C432 1.394 . S
C434 C435 1.369 . S
C434 C438 1.531 . S
C435 C434 1.369 . S
C435 C436 1.410 1_556 S
C435 C443 1.503 . S
C436 C435 1.410 1_554 S
C436 C437 1.392 . S
C436 C439 1.511 . S
C437 C433 1.376 . S
C437 C436 1.392 . S
C437 H449 0.929 . S
C438 C434 1.531 . S
C438 H450 0.960 . S
C438 H451 0.962 . S
C438 H452 0.960 . S
C439 C436 1.511 . S
C439 H453 0.961 . S
C439 H454 0.961 . S
C439 H455 0.961 . S
C440 C441 1.370 . S
C440 C442 1.363 . S
C440 H456 0.931 . S
C441 C440 1.370 . S
C441 C445 1.408 . S
C442 C440 1.363 . S
C442 C443 1.370 . S
C442 C446 1.524 . S
C443 C435 1.503 . S
C443 C442 1.370 . S
C443 C444 1.403 . S
C444 C443 1.403 . S
C444 C445 1.404 . S
C444 C447 1.539 . S
C445 C441 1.408 . S
C445 C444 1.404 . S
C445 H457 0.930 . S
C446 C442 1.524 . S
C446 H458 0.956 . S
C446 H459 0.961 1_556 S
C446 H460 0.961 . S
C447 C444 1.539 . S
C447 H461 0.958 . S
C447 H462 0.961 1_556 S
C447 H463 0.960 1_556 S
H448 C432 0.931 . S
H449 C437 0.929 . S
H450 C438 0.960 . S
H451 C438 0.962 . S
H452 C438 0.960 . S
H453 C439 0.961 . S
H454 C439 0.961 . S
H455 C439 0.961 . S
H456 C440 0.931 . S
H457 C445 0.930 . S
H458 C446 0.956 . S
H459 C446 0.961 1_554 S
H460 C446 0.961 . S
H461 C447 0.958 . S
H462 C447 0.961 1_554 S
H463 C447 0.960 1_554 S
C464 C465 1.391 . S
C464 C466 1.394 . S
C464 H480 0.931 . S
C465 C464 1.391 . S
C465 C469 1.376 . S
C466 C464 1.394 . S
C466 C467 1.369 . S
C466 C470 1.531 . S
C467 C466 1.369 . S
C467 C468 1.410 . S
C467 C475 1.503 . S
C468 C467 1.410 . S
C468 C469 1.392 . S
C468 C471 1.511 . S
C469 C465 1.376 . S
C469 C468 1.392 . S
C469 H481 0.929 . S
C470 C466 1.531 . S
C470 H482 0.960 . S
C470 H483 0.962 . S
C470 H484 0.960 . S
C471 C468 1.511 . S
C471 H485 0.961 . S
C471 H486 0.961 . S
C471 H487 0.961 1_556 S
C472 C473 1.370 . S
C472 C474 1.363 . S
C472 H488 0.931 . S
C473 C472 1.370 . S
C473 C477 1.408 . S
C474 C472 1.363 . S
C474 C475 1.370 . S
C474 C478 1.524 . S
C475 C467 1.503 . S
C475 C474 1.370 . S
C475 C476 1.403 . S
C476 C475 1.403 . S
C476 C477 1.404 . S
C476 C479 1.539 . S
C477 C473 1.408 . S
C477 C476 1.404 . S
C477 H489 0.930 . S
C478 C474 1.524 . S
C478 H490 0.956 . S
C478 H491 0.961 . S
C478 H492 0.961 . S
C479 C476 1.539 . S
C479 H493 0.958 . S
C479 H494 0.961 1_556 S
C479 H495 0.960 . S
H480 C464 0.931 . S
H481 C469 0.929 . S
H482 C470 0.960 . S
H483 C470 0.962 . S
H484 C470 0.960 . S
H485 C471 0.961 . S
H486 C471 0.961 . S
H487 C471 0.961 1_554 S
H488 C472 0.931 . S
H489 C477 0.930 . S
H490 C478 0.956 . S
H491 C478 0.961 . S
H492 C478 0.961 . S
H493 C479 0.958 . S
H494 C479 0.961 1_554 S
H495 C479 0.960 . S
C496 C497 1.391 . S
C496 C498 1.394 . S
C496 H512 0.931 . S
C497 C496 1.391 . S
C497 C501 1.376 . S
C498 C496 1.394 . S
C498 C499 1.369 . S
C498 C502 1.531 . S
C499 C498 1.369 . S
C499 C500 1.410 . S
C499 C507 1.503 . S
C500 C499 1.410 . S
C500 C501 1.392 . S
C500 C503 1.511 . S
C501 C497 1.376 . S
C501 C500 1.392 . S
C501 H513 0.929 . S
C502 C498 1.531 . S
C502 H514 0.960 . S
C502 H515 0.962 1_554 S
C502 H516 0.960 . S
C503 C500 1.511 . S
C503 H517 0.961 . S
C503 H518 0.961 . S
C503 H519 0.961 . S
C504 C505 1.370 . S
C504 C506 1.363 . S
C504 H520 0.931 . S
C505 C504 1.370 . S
C505 C509 1.408 . S
C506 C504 1.363 . S
C506 C507 1.370 . S
C506 C510 1.524 . S
C507 C499 1.503 . S
C507 C506 1.370 . S
C507 C508 1.403 . S
C508 C507 1.403 . S
C508 C509 1.404 . S
C508 C511 1.539 . S
C509 C505 1.408 . S
C509 C508 1.404 . S
C509 H521 0.930 . S
C510 C506 1.524 . S
C510 H522 0.956 . S
C510 H523 0.961 . S
C510 H524 0.961 . S
C511 C508 1.539 . S
C511 H525 0.958 . S
C511 H526 0.961 . S
C511 H527 0.960 . S
H512 C496 0.931 . S
H513 C501 0.929 . S
H514 C502 0.960 . S
H515 C502 0.962 1_556 S
H516 C502 0.960 . S
H517 C503 0.961 . S
H518 C503 0.961 . S
H519 C503 0.961 . S
H520 C504 0.931 . S
H521 C509 0.930 . S
H522 C510 0.956 . S
H523 C510 0.961 . S
H524 C510 0.961 . S
H525 C511 0.958 . S
H526 C511 0.961 . S
H527 C511 0.960 . S
C528 C529 1.391 . S
C528 C530 1.394 . S
C528 H544 0.931 . S
C529 C528 1.391 . S
C529 C533 1.376 . S
C530 C528 1.394 . S
C530 C531 1.369 . S
C530 C534 1.531 . S
C531 C530 1.369 . S
C531 C532 1.410 . S
C531 C539 1.503 . S
C532 C531 1.410 . S
C532 C533 1.392 . S
C532 C535 1.511 . S
C533 C529 1.376 . S
C533 C532 1.392 . S
C533 H545 0.929 . S
C534 C530 1.531 . S
C534 H546 0.960 . S
C534 H547 0.962 . S
C534 H548 0.960 . S
C535 C532 1.511 . S
C535 H549 0.958 1_556 S
C535 H550 0.961 . S
C535 H551 0.961 1_556 S
C536 C537 1.370 . S
C536 C538 1.363 . S
C536 H552 0.931 . S
C537 C536 1.370 . S
C537 C541 1.408 . S
C538 C536 1.363 . S
C538 C539 1.370 . S
C538 C542 1.524 . S
C539 C531 1.503 . S
C539 C538 1.370 . S
C539 C540 1.403 . S
C540 C539 1.403 . S
C540 C541 1.404 . S
C540 C543 1.539 . S
C541 C537 1.408 . S
C541 C540 1.404 . S
C541 H553 0.930 . S
C542 C538 1.524 . S
C542 H554 0.956 . S
C542 H555 0.961 . S
C542 H556 0.961 . S
C543 C540 1.539 . S
C543 H557 0.958 . S
C543 H558 0.961 . S
C543 H559 0.960 . S
H544 C528 0.931 . S
H545 C533 0.929 . S
H546 C534 0.960 . S
H547 C534 0.962 . S
H548 C534 0.960 . S
H549 C535 0.958 1_554 S
H550 C535 0.961 . S
H551 C535 0.961 1_554 S
H552 C536 0.931 . S
H553 C541 0.930 . S
H554 C542 0.956 . S
H555 C542 0.961 . S
H556 C542 0.961 . S
H557 C543 0.958 . S
H558 C543 0.961 . S
H559 C543 0.960 . S
C560 C561 1.391 . S
C560 C562 1.394 . S
C560 H576 0.931 . S
C561 C560 1.391 . S
C561 C565 1.376 . S
C562 C560 1.394 . S
C562 C563 1.369 . S
C562 C566 1.531 . S
C563 C562 1.369 . S
C563 C564 1.410 . S
C563 C571 1.503 . S
C564 C563 1.410 . S
C564 C565 1.392 . S
C564 C567 1.511 . S
C565 C561 1.376 . S
C565 C564 1.392 . S
C565 H577 0.929 . S
C566 C562 1.531 . S
C566 H578 0.960 . S
C566 H579 0.962 1_554 S
C566 H580 0.960 . S
C567 C564 1.511 . S
C567 H581 0.961 . S
C567 H582 0.961 . S
C567 H583 0.961 . S
C568 C569 1.370 . S
C568 C570 1.363 . S
C568 H584 0.931 . S
C569 C568 1.370 . S
C569 C573 1.408 . S
C570 C568 1.363 . S
C570 C571 1.370 . S
C570 C574 1.524 . S
C571 C563 1.503 . S
C571 C570 1.370 . S
C571 C572 1.403 . S
C572 C571 1.403 . S
C572 C573 1.404 . S
C572 C575 1.539 . S
C573 C569 1.408 . S
C573 C572 1.404 . S
C573 H585 0.930 . S
C574 C570 1.524 . S
C574 H586 0.956 . S
C574 H587 0.961 . S
C574 H588 0.961 . S
C575 C572 1.539 . S
C575 H589 0.958 . S
C575 H590 0.961 . S
C575 H591 0.960 . S
H576 C560 0.931 . S
H577 C565 0.929 . S
H578 C566 0.960 . S
H579 C566 0.962 1_556 S
H580 C566 0.960 . S
H581 C567 0.961 . S
H582 C567 0.961 . S
H583 C567 0.961 . S
H584 C568 0.931 . S
H585 C573 0.930 . S
H586 C574 0.956 . S
H587 C574 0.961 . S
H588 C574 0.961 . S
H589 C575 0.958 . S
H590 C575 0.961 . S
H591 C575 0.960 . S
C592 C593 1.391 . S
C592 C594 1.394 . S
C592 H608 0.931 . S
C593 C592 1.391 . S
C593 C597 1.376 . S
C594 C592 1.394 . S
C594 C595 1.369 . S
C594 C598 1.531 . S
C595 C594 1.369 . S
C595 C596 1.410 . S
C595 C603 1.503 1_565 S
C596 C595 1.410 . S
C596 C597 1.392 . S
C596 C599 1.511 . S
C597 C593 1.376 . S
C597 C596 1.392 . S
C597 H609 0.929 . S
C598 C594 1.531 . S
C598 H610 0.960 1_565 S
C598 H611 0.962 . S
C598 H612 0.960 . S
C599 C596 1.511 . S
C599 H613 0.961 . S
C599 H614 0.961 1_565 S
C599 H615 0.961 . S
C600 C601 1.370 . S
C600 C602 1.363 . S
C600 H616 0.931 . S
C601 C600 1.370 . S
C601 C605 1.408 . S
C602 C600 1.363 . S
C602 C603 1.370 . S
C602 C606 1.524 . S
C603 C595 1.503 1_545 S
C603 C602 1.370 . S
C603 C604 1.403 . S
C604 C603 1.403 . S
C604 C605 1.404 . S
C604 C607 1.539 . S
C605 C601 1.408 . S
C605 C604 1.404 . S
C605 H617 0.930 . S
C606 C602 1.524 . S
C606 H618 0.956 . S
C606 H619 0.961 . S
C606 H620 0.961 . S
C607 C604 1.539 . S
C607 H621 0.958 . S
C607 H622 0.961 . S
C607 H623 1.007 . S
H608 C592 0.931 . S
H609 C597 0.929 . S
H610 C598 0.960 1_545 S
H611 C598 0.962 . S
H612 C598 0.960 . S
H613 C599 0.961 . S
H614 C599 0.961 1_545 S
H615 C599 0.961 . S
H616 C600 0.931 . S
H617 C605 0.930 . S
H618 C606 0.956 . S
H619 C606 0.961 . S
H620 C606 0.961 . S
H621 C607 0.958 . S
H622 C607 0.961 . S
H623 C607 1.007 . S
C624 C625 1.391 . S
C624 C626 1.394 . S
C624 H640 0.931 . S
C625 C624 1.391 . S
C625 C629 1.376 . S
C626 C624 1.394 . S
C626 C627 1.369 . S
C626 C630 1.531 . S
C627 C626 1.369 . S
C627 C628 1.410 . S
C627 C635 1.503 1_655 S
C628 C627 1.410 . S
C628 C629 1.392 . S
C628 C631 1.511 . S
C629 C625 1.376 . S
C629 C628 1.392 . S
C629 H641 0.929 . S
C630 C626 1.531 . S
C630 H642 0.960 1_655 S
C630 H643 0.956 1_655 S
C630 H644 0.960 . S
C631 C628 1.511 . S
C631 H645 0.961 . S
C631 H646 0.961 1_655 S
C631 H647 0.961 . S
C632 C633 1.370 . S
C632 C634 1.363 . S
C632 H648 0.931 . S
C633 C632 1.370 . S
C633 C637 1.408 . S
C634 C632 1.363 . S
C634 C635 1.370 . S
C634 C638 1.524 . S
C635 C627 1.503 1_455 S
C635 C634 1.370 . S
C635 C636 1.403 . S
C636 C635 1.403 . S
C636 C637 1.404 . S
C636 C639 1.539 . S
C637 C633 1.408 . S
C637 C636 1.404 . S
C637 H649 0.930 . S
C638 C634 1.524 . S
C638 H650 0.956 . S
C638 H651 0.964 1_455 S
C638 H652 0.961 . S
C639 C636 1.539 . S
C639 H653 0.958 . S
C639 H654 0.961 . S
C639 H655 0.960 . S
H640 C624 0.931 . S
H641 C629 0.929 . S
H642 C630 0.960 1_455 S
H643 C630 0.956 1_455 S
H644 C630 0.960 . S
H645 C631 0.961 . S
H646 C631 0.961 1_455 S
H647 C631 0.961 . S
H648 C632 0.931 . S
H649 C637 0.930 . S
H650 C638 0.956 . S
H651 C638 0.964 1_655 S
H652 C638 0.961 . S
H653 C639 0.958 . S
H654 C639 0.961 . S
H655 C639 0.960 . S
C656 C657 1.391 . S
C656 C658 1.394 . S
C656 H672 0.931 . S
C657 C656 1.391 . S
C657 C661 1.376 . S
C658 C656 1.394 . S
C658 C659 1.369 . S
C658 C662 1.531 . S
C659 C658 1.369 . S
C659 C660 1.410 . S
C659 C667 1.503 1_565 S
C660 C659 1.410 . S
C660 C661 1.392 . S
C660 C663 1.511 . S
C661 C657 1.376 . S
C661 C660 1.392 . S
C661 H673 0.929 . S
C662 C658 1.531 . S
C662 H674 0.953 1_565 S
C662 H675 0.962 . S
C662 H676 0.960 . S
C663 C660 1.511 . S
C663 H677 0.961 . S
C663 H678 0.961 . S
C663 H679 0.961 . S
C664 C665 1.370 . S
C664 C666 1.363 . S
C664 H680 0.931 . S
C665 C664 1.370 . S
C665 C669 1.408 . S
C666 C664 1.363 . S
C666 C667 1.370 . S
C666 C670 1.524 . S
C667 C659 1.503 1_545 S
C667 C666 1.370 . S
C667 C668 1.403 . S
C668 C667 1.403 . S
C668 C669 1.404 . S
C668 C671 1.539 . S
C669 C665 1.408 . S
C669 C668 1.404 . S
C669 H681 0.930 . S
C670 C666 1.524 . S
C670 H682 0.956 . S
C670 H683 0.961 1_545 S
C670 H684 0.961 . S
C671 C668 1.539 . S
C671 H685 0.958 . S
C671 H686 0.961 . S
C671 H687 0.960 1_545 S
H672 C656 0.931 . S
H673 C661 0.929 . S
H674 C662 0.953 1_545 S
H675 C662 0.962 . S
H676 C662 0.960 . S
H677 C663 0.961 . S
H678 C663 0.961 . S
H679 C663 0.961 . S
H680 C664 0.931 . S
H681 C669 0.930 . S
H682 C670 0.956 . S
H683 C670 0.961 1_565 S
H684 C670 0.961 . S
H685 C671 0.958 . S
H686 C671 0.961 . S
H687 C671 0.960 1_565 S
C688 C689 1.391 . S
C688 C690 1.394 . S
C688 H704 0.931 . S
C689 C688 1.391 . S
C689 C693 1.376 . S
C690 C688 1.394 . S
C690 C691 1.369 . S
C690 C694 1.531 . S
C691 C690 1.369 . S
C691 C692 1.410 . S
C691 C699 1.503 1_655 S
C692 C691 1.410 . S
C692 C693 1.392 . S
C692 C695 1.511 . S
C693 C689 1.376 . S
C693 C692 1.392 . S
C693 H705 0.929 . S
C694 C690 1.531 . S
C694 H706 0.960 . S
C694 H707 0.962 . S
C694 H708 0.960 . S
C695 C692 1.511 . S
C695 H709 0.961 . S
C695 H710 0.961 1_655 S
C695 H711 0.961 . S
C696 C697 1.370 . S
C696 C698 1.363 . S
C696 H712 0.931 . S
C697 C696 1.370 . S
C697 C701 1.408 . S
C698 C696 1.363 . S
C698 C699 1.370 . S
C698 C702 1.524 . S
C699 C691 1.503 1_455 S
C699 C698 1.370 . S
C699 C700 1.403 . S
C700 C699 1.403 . S
C700 C701 1.404 . S
C700 C703 1.539 . S
C701 C697 1.408 . S
C701 C700 1.404 . S
C701 H713 0.930 . S
C702 C698 1.524 . S
C702 H714 0.956 1_455 S
C702 H715 0.961 1_455 S
C702 H716 0.961 . S
C703 C700 1.539 . S
C703 H717 0.958 . S
C703 H718 0.961 . S
C703 H719 0.960 1_455 S
H704 C688 0.931 . S
H705 C693 0.929 . S
H706 C694 0.960 . S
H707 C694 0.962 . S
H708 C694 0.960 . S
H709 C695 0.961 . S
H710 C695 0.961 1_455 S
H711 C695 0.961 . S
H712 C696 0.931 . S
H713 C701 0.930 . S
H714 C702 0.956 1_655 S
H715 C702 0.961 1_655 S
H716 C702 0.961 . S
H717 C703 0.958 . S
H718 C703 0.961 . S
H719 C703 0.960 1_655 S
C720 C721 1.391 . S
C720 C722 1.394 . S
C720 H736 0.931 . S
C721 C720 1.391 . S
C721 C725 1.376 . S
C722 C720 1.394 . S
C722 C723 1.369 . S
C722 C726 1.531 1_554 S
C723 C722 1.369 . S
C723 C724 1.410 . S
C723 C731 1.503 . S
C724 C723 1.410 . S
C724 C725 1.392 . S
C724 C727 1.511 . S
C725 C721 1.376 . S
C725 C724 1.392 . S
C725 H737 0.929 . S
C726 C722 1.531 1_556 S
C726 H738 0.960 . S
C726 H739 0.962 1_556 S
C726 H740 0.960 . S
C727 C724 1.511 . S
C727 H741 0.961 . S
C727 H742 0.961 . S
C727 H743 0.961 . S
C728 C729 1.370 . S
C728 C730 1.363 . S
C728 H744 0.931 . S
C729 C728 1.370 . S
C729 C733 1.408 1_554 S
C730 C728 1.363 . S
C730 C731 1.370 . S
C730 C734 1.524 . S
C731 C723 1.503 . S
C731 C730 1.370 . S
C731 C732 1.403 1_554 S
C732 C731 1.403 1_556 S
C732 C733 1.404 . S
C732 C735 1.539 . S
C733 C729 1.408 1_556 S
C733 C732 1.404 . S
C733 H745 0.930 . S
C734 C730 1.524 . S
C734 H746 0.956 . S
C734 H747 0.961 . S
C734 H748 0.961 . S
C735 C732 1.539 . S
C735 H749 0.958 . S
C735 H750 0.961 . S
C735 H751 0.960 . S
H736 C720 0.931 . S
H737 C725 0.929 . S
H738 C726 0.960 . S
H739 C726 0.962 1_554 S
H740 C726 0.960 . S
H741 C727 0.961 . S
H742 C727 0.961 . S
H743 C727 0.961 . S
H744 C728 0.931 . S
H745 C733 0.930 . S
H746 C734 0.956 . S
H747 C734 0.961 . S
H748 C734 0.961 . S
H749 C735 0.958 . S
H750 C735 0.961 . S
H751 C735 0.960 . S
C752 C753 1.391 1_554 S
C752 C754 1.394 . S
C752 H768 0.931 . S
C753 C752 1.391 1_556 S
C753 C757 1.376 . S
C754 C752 1.394 . S
C754 C755 1.367 1_554 S
C754 C758 1.533 . S
C755 C754 1.367 1_556 S
C755 C756 1.410 . S
C755 C763 1.503 . S
C756 C755 1.410 . S
C756 C757 1.392 . S
C756 C759 1.511 . S
C757 C753 1.376 . S
C757 C756 1.392 . S
C757 H769 0.929 . S
C758 C754 1.533 . S
C758 H770 0.960 . S
C758 H771 0.962 . S
C758 H772 0.960 . S
C759 C756 1.511 . S
C759 H773 0.961 . S
C759 H774 0.961 . S
C759 H775 0.961 . S
C760 C761 1.370 . S
C760 C762 1.363 . S
C760 H776 0.931 . S
C761 C760 1.370 . S
C761 C765 1.408 . S
C762 C760 1.363 . S
C762 C763 1.370 . S
C762 C766 1.524 . S
C763 C755 1.503 . S
C763 C762 1.370 . S
C763 C764 1.403 . S
C764 C763 1.403 . S
C764 C765 1.404 . S
C764 C767 1.539 . S
C765 C761 1.408 . S
C765 C764 1.404 . S
C765 H777 0.930 . S
C766 C762 1.524 . S
C766 H778 0.956 1_556 S
C766 H779 0.961 . S
C766 H780 0.961 . S
C767 C764 1.539 . S
C767 H781 0.958 . S
C767 H782 0.961 . S
C767 H783 0.960 . S
H768 C752 0.931 . S
H769 C757 0.929 . S
H770 C758 0.960 . S
H771 C758 0.962 . S
H772 C758 0.960 . S
H773 C759 0.961 . S
H774 C759 0.961 . S
H775 C759 0.961 . S
H776 C760 0.931 . S
H777 C765 0.930 . S
H778 C766 0.956 1_554 S
H779 C766 0.961 . S
H780 C766 0.961 . S
H781 C767 0.958 . S
H782 C767 0.961 . S
H783 C767 0.960 . S
C784 C785 1.391 . S
C784 C786 1.394 . S
C784 H800 0.931 . S
C785 C784 1.391 . S
C785 C789 1.376 . S
C786 C784 1.394 . S
C786 C787 1.369 . S
C786 C790 1.531 . S
C787 C786 1.369 . S
C787 C788 1.410 . S
C787 C795 1.503 . S
C788 C787 1.410 . S
C788 C789 1.392 . S
C788 C791 1.511 . S
C789 C785 1.376 . S
C789 C788 1.392 . S
C789 H801 0.929 . S
C790 C786 1.531 . S
C790 H802 0.960 . S
C790 H803 0.962 . S
C790 H804 0.960 1_554 S
C791 C788 1.511 . S
C791 H805 0.961 . S
C791 H806 0.961 . S
C791 H807 0.961 . S
C792 C793 1.370 . S
C792 C794 1.363 . S
C792 H808 0.931 . S
C793 C792 1.370 . S
C793 C797 1.408 1_554 S
C794 C792 1.363 . S
C794 C795 1.370 . S
C794 C798 1.524 . S
C795 C787 1.503 . S
C795 C794 1.370 . S
C795 C796 1.403 1_554 S
C796 C795 1.403 1_556 S
C796 C797 1.404 . S
C796 C799 1.539 . S
C797 C793 1.408 1_556 S
C797 C796 1.404 . S
C797 H809 0.930 . S
C798 C794 1.524 . S
C798 H810 0.956 . S
C798 H811 0.961 . S
C798 H812 0.961 . S
C799 C796 1.539 . S
C799 H813 0.958 . S
C799 H814 0.961 . S
C799 H815 0.960 . S
H800 C784 0.931 . S
H801 C789 0.929 . S
H802 C790 0.960 . S
H803 C790 0.962 . S
H804 C790 0.960 1_556 S
H805 C791 0.961 . S
H806 C791 0.961 . S
H807 C791 0.961 . S
H808 C792 0.931 . S
H809 C797 0.930 . S
H810 C798 0.956 . S
H811 C798 0.961 . S
H812 C798 0.961 . S
H813 C799 0.958 . S
H814 C799 0.961 . S
H815 C799 0.960 . S
C816 C817 1.391 . S
C816 C818 1.394 . S
C816 H832 0.931 . S
C817 C816 1.391 . S
C817 C821 1.376 . S
C818 C816 1.394 . S
C818 C819 1.369 . S
C818 C822 1.531 1_556 S
C819 C818 1.369 . S
C819 C820 1.410 . S
C819 C827 1.503 . S
C820 C819 1.410 . S
C820 C821 1.392 . S
C820 C823 1.511 . S
C821 C817 1.376 . S
C821 C820 1.392 . S
C821 H833 0.929 . S
C822 C818 1.531 1_554 S
C822 H834 0.960 1_554 S
C822 H835 0.962 . S
C822 H836 0.960 . S
C823 C820 1.511 . S
C823 H837 0.961 . S
C823 H838 0.961 . S
C823 H839 0.961 . S
C824 C825 1.370 . S
C824 C826 1.363 . S
C824 H840 0.931 1_556 S
C825 C824 1.370 . S
C825 C829 1.408 . S
C826 C824 1.363 . S
C826 C827 1.370 . S
C826 C830 1.524 1_556 S
C827 C819 1.503 . S
C827 C826 1.370 . S
C827 C828 1.403 . S
C828 C827 1.403 . S
C828 C829 1.404 . S
C828 C831 1.539 . S
C829 C825 1.408 . S
C829 C828 1.404 . S
C829 H841 0.930 . S
C830 C826 1.524 1_554 S
C830 H842 0.956 . S
C830 H843 0.961 . S
C830 H844 0.961 . S
C831 C828 1.539 . S
C831 H845 0.958 . S
C831 H846 0.961 . S
C831 H847 0.960 . S
H832 C816 0.931 . S
H833 C821 0.929 . S
H834 C822 0.960 1_556 S
H835 C822 0.962 . S
H836 C822 0.960 . S
H837 C823 0.961 . S
H838 C823 0.961 . S
H839 C823 0.961 . S
H840 C824 0.931 1_554 S
H841 C829 0.930 . S
H842 C830 0.956 . S
H843 C830 0.961 . S
H844 C830 0.961 . S
H845 C831 0.958 . S
H846 C831 0.961 . S
H847 C831 0.960 . S
C848 C849 1.391 . S
C848 C850 1.394 . S
C848 H864 0.931 . S
C849 C848 1.391 . S
C849 C853 1.376 . S
C850 C848 1.394 . S
C850 C851 1.369 . S
C850 C854 1.531 . S
C851 C850 1.369 . S
C851 C852 1.410 . S
C851 C859 1.503 . S
C852 C851 1.410 . S
C852 C853 1.392 . S
C852 C855 1.511 . S
C853 C849 1.376 . S
C853 C852 1.392 . S
C853 H865 0.929 . S
C854 C850 1.531 . S
C854 H866 0.960 . S
C854 H867 0.962 . S
C854 H868 0.960 . S
C855 C852 1.511 . S
C855 H869 0.961 . S
C855 H870 0.961 . S
C855 H871 0.961 . S
C856 C857 1.370 . S
C856 C858 1.363 . S
C856 H872 0.931 . S
C857 C856 1.370 . S
C857 C861 1.408 . S
C858 C856 1.363 . S
C858 C859 1.370 . S
C858 C862 1.524 . S
C859 C851 1.503 . S
C859 C858 1.370 . S
C859 C860 1.403 . S
C860 C859 1.403 . S
C860 C861 1.404 . S
C860 C863 1.539 . S
C861 C857 1.408 . S
C861 C860 1.404 . S
C861 H873 0.930 . S
C862 C858 1.524 . S
C862 H874 0.956 . S
C862 H875 0.961 . S
C862 H876 0.961 . S
C863 C860 1.539 . S
C863 H877 0.958 . S
C863 H878 0.961 . S
C863 H879 0.960 . S
H864 C848 0.931 . S
H865 C853 0.929 . S
H866 C854 0.960 . S
H867 C854 0.962 . S
H868 C854 0.960 . S
H869 C855 0.961 . S
H870 C855 0.961 . S
H871 C855 0.961 . S
H872 C856 0.931 . S
H873 C861 0.930 . S
H874 C862 0.956 . S
H875 C862 0.961 . S
H876 C862 0.961 . S
H877 C863 0.958 . S
H878 C863 0.961 . S
H879 C863 0.960 . S
C880 C881 1.391 . S
C880 C882 1.394 . S
C880 H896 0.931 . S
C881 C880 1.391 . S
C881 C885 1.376 . S
C882 C880 1.394 . S
C882 C883 1.369 . S
C882 C886 1.531 . S
C883 C882 1.369 . S
C883 C884 1.410 . S
C883 C891 1.503 . S
C884 C883 1.410 . S
C884 C885 1.392 . S
C884 C887 1.511 . S
C885 C881 1.376 . S
C885 C884 1.392 . S
C885 H897 0.929 . S
C886 C882 1.531 . S
C886 H898 0.960 . S
C886 H899 0.962 . S
C886 H900 0.960 . S
C887 C884 1.511 . S
C887 H901 0.961 . S
C887 H902 0.961 . S
C887 H903 0.961 . S
C888 C889 1.370 . S
C888 C890 1.363 . S
C888 H904 0.931 . S
C889 C888 1.370 . S
C889 C893 1.408 . S
C890 C888 1.363 . S
C890 C891 1.370 . S
C890 C894 1.524 . S
C891 C883 1.503 . S
C891 C890 1.370 . S
C891 C892 1.403 . S
C892 C891 1.403 . S
C892 C893 1.404 . S
C892 C895 1.539 . S
C893 C889 1.408 . S
C893 C892 1.404 . S
C893 H905 0.930 . S
C894 C890 1.524 . S
C894 H906 0.956 . S
C894 H907 0.961 . S
C894 H908 0.961 . S
C895 C892 1.539 . S
C895 H909 0.958 . S
C895 H910 0.961 . S
C895 H911 0.960 . S
H896 C880 0.931 . S
H897 C885 0.929 . S
H898 C886 0.960 . S
H899 C886 0.962 . S
H900 C886 0.960 . S
H901 C887 0.961 . S
H902 C887 0.961 . S
H903 C887 0.961 . S
H904 C888 0.931 . S
H905 C893 0.930 . S
H906 C894 0.956 . S
H907 C894 0.961 . S
H908 C894 0.961 . S
H909 C895 0.958 . S
H910 C895 0.961 . S
H911 C895 0.960 . S
C912 C913 1.391 . S
C912 C914 1.394 . S
C912 H928 0.931 . S
C913 C912 1.391 . S
C913 C917 1.376 . S
C914 C912 1.394 . S
C914 C915 1.369 . S
C914 C918 1.531 . S
C915 C914 1.369 . S
C915 C916 1.410 . S
C915 C923 1.503 . S
C916 C915 1.410 . S
C916 C917 1.392 . S
C916 C919 1.511 . S
C917 C913 1.376 . S
C917 C916 1.392 . S
C917 H929 0.929 . S
C918 C914 1.531 . S
C918 H930 0.960 . S
C918 H931 0.962 . S
C918 H932 0.960 . S
C919 C916 1.511 . S
C919 H933 0.961 . S
C919 H934 0.961 . S
C919 H935 0.961 . S
C920 C921 1.370 . S
C920 C922 1.363 . S
C920 H936 0.931 . S
C921 C920 1.370 . S
C921 C925 1.408 . S
C922 C920 1.363 . S
C922 C923 1.370 . S
C922 C926 1.524 . S
C923 C915 1.503 . S
C923 C922 1.370 . S
C923 C924 1.403 . S
C924 C923 1.403 . S
C924 C925 1.404 . S
C924 C927 1.539 . S
C925 C921 1.408 . S
C925 C924 1.404 . S
C925 H937 0.930 . S
C926 C922 1.524 . S
C926 H938 0.956 . S
C926 H939 0.961 . S
C926 H940 0.961 . S
C927 C924 1.539 . S
C927 H941 0.958 . S
C927 H942 0.961 . S
C927 H943 0.960 . S
H928 C912 0.931 . S
H929 C917 0.929 . S
H930 C918 0.960 . S
H931 C918 0.962 . S
H932 C918 0.960 . S
H933 C919 0.961 . S
H934 C919 0.961 . S
H935 C919 0.961 . S
H936 C920 0.931 . S
H937 C925 0.930 . S
H938 C926 0.956 . S
H939 C926 0.961 . S
H940 C926 0.961 . S
H941 C927 0.958 . S
H942 C927 0.961 . S
H943 C927 0.960 . S
C944 C945 1.391 . S
C944 C946 1.394 . S
C944 H960 0.931 . S
C945 C944 1.391 . S
C945 C949 1.376 . S
C946 C944 1.394 . S
C946 C947 1.369 . S
C946 C950 1.531 . S
C947 C946 1.369 . S
C947 C948 1.410 . S
C947 C955 1.503 . S
C948 C947 1.410 . S
C948 C949 1.392 . S
C948 C951 1.511 . S
C949 C945 1.376 . S
C949 C948 1.392 . S
C949 H961 0.929 . S
C950 C946 1.531 . S
C950 H962 0.960 . S
C950 H963 0.962 . S
C950 H964 0.960 . S
C951 C948 1.511 . S
C951 H965 0.961 . S
C951 H966 0.961 . S
C951 H967 0.961 . S
C952 C953 1.370 . S
C952 C954 1.363 . S
C952 H968 0.931 . S
C953 C952 1.370 . S
C953 C957 1.408 . S
C954 C952 1.363 . S
C954 C955 1.370 . S
C954 C958 1.524 . S
C955 C947 1.503 . S
C955 C954 1.370 . S
C955 C956 1.403 . S
C956 C955 1.403 . S
C956 C957 1.404 . S
C956 C959 1.539 . S
C957 C953 1.408 . S
C957 C956 1.404 . S
C957 H969 0.930 . S
C958 C954 1.524 . S
C958 H970 0.956 . S
C958 H971 0.961 . S
C958 H972 0.961 . S
C959 C956 1.539 . S
C959 H973 0.958 . S
C959 H974 0.961 . S
C959 H975 0.960 . S
H960 C944 0.931 . S
H961 C949 0.929 . S
H962 C950 0.960 . S
H963 C950 0.962 . S
H964 C950 0.960 . S
H965 C951 0.961 . S
H966 C951 0.961 . S
H967 C951 0.961 . S
H968 C952 0.931 . S
H969 C957 0.930 . S
H970 C958 0.956 . S
H971 C958 0.961 . S
H972 C958 0.961 . S
H973 C959 0.958 . S
H974 C959 0.961 . S
H975 C959 0.960 . S
C976 C977 1.391 . S
C976 C978 1.394 . S
C976 H992 0.931 . S
C977 C976 1.391 . S
C977 C981 1.376 . S
C978 C976 1.394 . S
C978 C979 1.369 . S
C978 C982 1.531 . S
C979 C978 1.369 . S
C979 C980 1.410 . S
C979 C987 1.503 . S
C980 C979 1.410 . S
C980 C981 1.392 . S
C980 C983 1.511 . S
C981 C977 1.376 . S
C981 C980 1.392 . S
C981 H993 0.929 . S
C982 C978 1.531 . S
C982 H994 0.960 . S
C982 H995 0.962 . S
C982 H996 0.960 . S
C983 C980 1.511 . S
C983 H997 0.961 . S
C983 H998 0.961 . S
C983 H999 0.961 . S
C984 C985 1.370 . S
C984 C986 1.363 . S
C984 H1000 0.931 . S
C985 C984 1.370 . S
C985 C989 1.408 1_554 S
C986 C984 1.363 . S
C986 C987 1.370 1_554 S
C986 C990 1.524 . S
C987 C979 1.503 . S
C987 C986 1.370 1_556 S
C987 C988 1.403 . S
C988 C987 1.403 . S
C988 C989 1.404 . S
C988 C991 1.539 . S
C989 C985 1.408 1_556 S
C989 C988 1.404 . S
C989 H1001 0.930 . S
C990 C986 1.524 . S
C990 H1002 0.956 . S
C990 H1003 0.961 . S
C990 H1004 0.961 . S
C991 C988 1.539 . S
C991 H1005 0.958 . S
C991 H1006 0.961 . S
C991 H1007 0.960 . S
H992 C976 0.931 . S
H993 C981 0.929 . S
H994 C982 0.960 . S
H995 C982 0.962 . S
H996 C982 0.960 . S
H997 C983 0.961 . S
H998 C983 0.961 . S
H999 C983 0.961 . S
H1000 C984 0.931 . S
H1001 C989 0.930 . S
H1002 C990 0.956 . S
H1003 C990 0.961 . S
H1004 C990 0.961 . S
H1005 C991 0.958 . S
H1006 C991 0.961 . S
H1007 C991 0.960 . S
C1008 C1009 1.391 . S
C1008 C1010 1.394 . S
C1008 H1024 0.931 . S
C1009 C1008 1.391 . S
C1009 C1013 1.376 . S
C1010 C1008 1.394 . S
C1010 C1011 1.369 . S
C1010 C1014 1.531 1_554 S
C1011 C1010 1.369 . S
C1011 C1012 1.410 . S
C1011 C1019 1.503 . S
C1012 C1011 1.410 . S
C1012 C1013 1.392 . S
C1012 C1015 1.511 . S
C1013 C1009 1.376 . S
C1013 C1012 1.392 . S
C1013 H1025 0.929 . S
C1014 C1010 1.531 1_556 S
C1014 H1026 0.960 . S
C1014 H1027 0.962 . S
C1014 H1028 0.960 . S
C1015 C1012 1.511 . S
C1015 H1029 0.961 . S
C1015 H1030 0.961 . S
C1015 H1031 0.961 . S
C1016 C1017 1.370 1_554 S
C1016 C1018 1.363 . S
C1016 H1032 0.931 . S
C1017 C1016 1.370 1_556 S
C1017 C1021 1.408 . S
C1018 C1016 1.363 . S
C1018 C1019 1.370 . S
C1018 C1022 1.524 . S
C1019 C1011 1.503 . S
C1019 C1018 1.370 . S
C1019 C1020 1.403 1_554 S
C1020 C1019 1.403 1_556 S
C1020 C1021 1.404 . S
C1020 C1023 1.539 . S
C1021 C1017 1.408 . S
C1021 C1020 1.404 . S
C1021 H1033 0.930 . S
C1022 C1018 1.524 . S
C1022 H1034 0.956 . S
C1022 H1035 0.961 . S
C1022 H1036 0.961 . S
C1023 C1020 1.539 . S
C1023 H1037 0.958 . S
C1023 H1038 0.961 . S
C1023 H1039 0.960 . S
H1024 C1008 0.931 . S
H1025 C1013 0.929 . S
H1026 C1014 0.960 . S
H1027 C1014 0.962 . S
H1028 C1014 0.960 . S
H1029 C1015 0.961 . S
H1030 C1015 0.961 . S
H1031 C1015 0.961 . S
H1032 C1016 0.931 . S
H1033 C1021 0.930 . S
H1034 C1022 0.956 . S
H1035 C1022 0.961 . S
H1036 C1022 0.961 . S
H1037 C1023 0.958 . S
H1038 C1023 0.961 . S
H1039 C1023 0.960 . S
C1040 C1041 1.391 1_556 S
C1040 C1042 1.394 . S
C1040 H1056 0.931 . S
C1041 C1040 1.391 1_554 S
C1041 C1045 1.376 . S
C1042 C1040 1.394 . S
C1042 C1043 1.369 . S
C1042 C1046 1.531 . S
C1043 C1042 1.369 . S
C1043 C1044 1.410 1_556 S
C1043 C1051 1.503 . S
C1044 C1043 1.410 1_554 S
C1044 C1045 1.392 . S
C1044 C1047 1.511 . S
C1045 C1041 1.376 . S
C1045 C1044 1.392 . S
C1045 H1057 0.929 . S
C1046 C1042 1.531 . S
C1046 H1058 0.960 . S
C1046 H1059 0.962 . S
C1046 H1060 0.960 . S
C1047 C1044 1.511 . S
C1047 H1061 0.961 . S
C1047 H1062 0.961 . S
C1047 H1063 0.961 . S
C1048 C1049 1.370 . S
C1048 C1050 1.363 . S
C1048 H1064 0.931 . S
C1049 C1048 1.370 . S
C1049 C1053 1.408 . S
C1050 C1048 1.363 . S
C1050 C1051 1.370 . S
C1050 C1054 1.524 . S
C1051 C1043 1.503 . S
C1051 C1050 1.370 . S
C1051 C1052 1.403 . S
C1052 C1051 1.403 . S
C1052 C1053 1.404 . S
C1052 C1055 1.539 1_556 S
C1053 C1049 1.408 . S
C1053 C1052 1.404 . S
C1053 H1065 0.930 . S
C1054 C1050 1.524 . S
C1054 H1066 0.956 . S
C1054 H1067 0.961 . S
C1054 H1068 0.961 . S
C1055 C1052 1.539 1_554 S
C1055 H1069 0.958 1_554 S
C1055 H1070 0.961 . S
C1055 H1071 0.960 . S
H1056 C1040 0.931 . S
H1057 C1045 0.929 . S
H1058 C1046 0.960 . S
H1059 C1046 0.962 . S
H1060 C1046 0.960 . S
H1061 C1047 0.961 . S
H1062 C1047 0.961 . S
H1063 C1047 0.961 . S
H1064 C1048 0.931 . S
H1065 C1053 0.930 . S
H1066 C1054 0.956 . S
H1067 C1054 0.961 . S
H1068 C1054 0.961 . S
H1069 C1055 0.958 1_556 S
H1070 C1055 0.961 . S
H1071 C1055 0.960 . S
C1072 C1073 1.391 . S
C1072 C1074 1.394 . S
C1072 H1088 0.931 . S
C1073 C1072 1.391 . S
C1073 C1077 1.376 . S
C1074 C1072 1.394 . S
C1074 C1075 1.369 . S
C1074 C1078 1.531 1_554 S
C1075 C1074 1.369 . S
C1075 C1076 1.410 . S
C1075 C1083 1.503 . S
C1076 C1075 1.410 . S
C1076 C1077 1.392 . S
C1076 C1079 1.511 . S
C1077 C1073 1.376 . S
C1077 C1076 1.392 . S
C1077 H1089 0.929 . S
C1078 C1074 1.531 1_556 S
C1078 H1090 0.960 . S
C1078 H1091 0.962 . S
C1078 H1092 0.960 . S
C1079 C1076 1.511 . S
C1079 H1093 0.961 . S
C1079 H1094 0.961 . S
C1079 H1095 0.961 . S
C1080 C1081 1.370 . S
C1080 C1082 1.363 1_556 S
C1080 H1096 0.931 . S
C1081 C1080 1.370 . S
C1081 C1085 1.408 1_556 S
C1082 C1080 1.363 1_554 S
C1082 C1083 1.370 . S
C1082 C1086 1.524 . S
C1083 C1075 1.503 . S
C1083 C1082 1.370 . S
C1083 C1084 1.403 . S
C1084 C1083 1.403 . S
C1084 C1085 1.404 . S
C1084 C1087 1.539 . S
C1085 C1081 1.408 1_554 S
C1085 C1084 1.404 . S
C1085 H1097 0.930 . S
C1086 C1082 1.524 . S
C1086 H1098 0.956 1_554 S
C1086 H1099 0.961 . S
C1086 H1100 0.961 . S
C1087 C1084 1.539 . S
C1087 H1101 0.958 . S
C1087 H1102 0.961 . S
C1087 H1103 0.960 . S
H1088 C1072 0.931 . S
H1089 C1077 0.929 . S
H1090 C1078 0.960 . S
H1091 C1078 0.962 . S
H1092 C1078 0.960 . S
H1093 C1079 0.961 . S
H1094 C1079 0.961 . S
H1095 C1079 0.961 . S
H1096 C1080 0.931 . S
H1097 C1085 0.930 . S
H1098 C1086 0.956 1_556 S
H1099 C1086 0.961 . S
H1100 C1086 0.961 . S
H1101 C1087 0.958 . S
H1102 C1087 0.961 . S
H1103 C1087 0.960 . S
C1104 C1105 1.391 . S
C1104 C1106 1.394 . S
C1104 H1120 0.931 . S
C1105 C1104 1.391 . S
C1105 C1109 1.376 . S
C1106 C1104 1.394 . S
C1106 C1107 1.369 . S
C1106 C1110 1.531 . S
C1107 C1106 1.369 . S
C1107 C1108 1.410 . S
C1107 C1115 1.503 . S
C1108 C1107 1.410 . S
C1108 C1109 1.392 . S
C1108 C1111 1.511 . S
C1109 C1105 1.376 . S
C1109 C1108 1.392 . S
C1109 H1121 0.929 . S
C1110 C1106 1.531 . S
C1110 H1122 0.960 . S
C1110 H1123 0.962 . S
C1110 H1124 0.960 . S
C1111 C1108 1.511 . S
C1111 H1125 0.961 . S
C1111 H1126 0.961 . S
C1111 H1127 0.961 . S
C1112 C1113 1.370 . S
C1112 C1114 1.363 . S
C1112 H1128 0.931 . S
C1113 C1112 1.370 . S
C1113 C1117 1.408 . S
C1114 C1112 1.363 . S
C1114 C1115 1.370 . S
C1114 C1118 1.524 . S
C1115 C1107 1.503 . S
C1115 C1114 1.370 . S
C1115 C1116 1.403 . S
C1116 C1115 1.403 . S
C1116 C1117 1.404 . S
C1116 C1119 1.539 . S
C1117 C1113 1.408 . S
C1117 C1116 1.404 . S
C1117 H1129 0.930 . S
C1118 C1114 1.524 . S
C1118 H1130 0.956 . S
C1118 H1131 0.961 . S
C1118 H1132 0.961 . S
C1119 C1116 1.539 . S
C1119 H1133 0.958 . S
C1119 H1134 0.961 . S
C1119 H1135 0.960 . S
H1120 C1104 0.931 . S
H1121 C1109 0.929 . S
H1122 C1110 0.960 . S
H1123 C1110 0.962 . S
H1124 C1110 0.960 . S
H1125 C1111 0.961 . S
H1126 C1111 0.961 . S
H1127 C1111 0.961 . S
H1128 C1112 0.931 . S
H1129 C1117 0.930 . S
H1130 C1118 0.956 . S
H1131 C1118 0.961 . S
H1132 C1118 0.961 . S
H1133 C1119 0.958 . S
H1134 C1119 0.961 . S
H1135 C1119 0.960 . S
C1136 C1137 1.391 . S
C1136 C1138 1.394 . S
C1136 H1152 0.931 . S
C1137 C1136 1.391 . S
C1137 C1141 1.376 . S
C1138 C1136 1.394 . S
C1138 C1139 1.369 . S
C1138 C1142 1.531 . S
C1139 C1138 1.369 . S
C1139 C1140 1.410 . S
C1139 C1147 1.503 . S
C1140 C1139 1.410 . S
C1140 C1141 1.392 . S
C1140 C1143 1.511 . S
C1141 C1137 1.376 . S
C1141 C1140 1.392 . S
C1141 H1153 0.929 . S
C1142 C1138 1.531 . S
C1142 H1154 0.960 . S
C1142 H1155 0.962 . S
C1142 H1156 0.960 . S
C1143 C1140 1.511 . S
C1143 H1157 0.961 . S
C1143 H1158 0.961 . S
C1143 H1159 0.961 . S
C1144 C1145 1.370 . S
C1144 C1146 1.363 . S
C1144 H1160 0.931 . S
C1145 C1144 1.370 . S
C1145 C1149 1.408 . S
C1146 C1144 1.363 . S
C1146 C1147 1.370 . S
C1146 C1150 1.524 . S
C1147 C1139 1.503 . S
C1147 C1146 1.370 . S
C1147 C1148 1.403 . S
C1148 C1147 1.403 . S
C1148 C1149 1.404 . S
C1148 C1151 1.539 . S
C1149 C1145 1.408 . S
C1149 C1148 1.404 . S
C1149 H1161 0.930 . S
C1150 C1146 1.524 . S
C1150 H1162 0.956 . S
C1150 H1163 0.961 . S
C1150 H1164 0.961 . S
C1151 C1148 1.539 . S
C1151 H1165 0.958 . S
C1151 H1166 0.961 . S
C1151 H1167 0.960 . S
H1152 C1136 0.931 . S
H1153 C1141 0.929 . S
H1154 C1142 0.960 . S
H1155 C1142 0.962 . S
H1156 C1142 0.960 . S
H1157 C1143 0.961 . S
H1158 C1143 0.961 . S
H1159 C1143 0.961 . S
H1160 C1144 0.931 . S
H1161 C1149 0.930 . S
H1162 C1150 0.956 . S
H1163 C1150 0.961 . S
H1164 C1150 0.961 . S
H1165 C1151 0.958 . S
H1166 C1151 0.961 . S
H1167 C1151 0.960 . S
C1168 C1169 1.391 . S
C1168 C1170 1.394 . S
C1168 H1184 0.931 . S
C1169 C1168 1.391 . S
C1169 C1173 1.376 . S
C1170 C1168 1.394 . S
C1170 C1171 1.369 . S
C1170 C1174 1.531 . S
C1171 C1170 1.369 . S
C1171 C1172 1.410 . S
C1171 C1179 1.503 . S
C1172 C1171 1.410 . S
C1172 C1173 1.392 . S
C1172 C1175 1.511 . S
C1173 C1169 1.376 . S
C1173 C1172 1.392 . S
C1173 H1185 0.929 . S
C1174 C1170 1.531 . S
C1174 H1186 0.960 . S
C1174 H1187 0.962 . S
C1174 H1188 0.960 . S
C1175 C1172 1.511 . S
C1175 H1189 0.961 . S
C1175 H1190 0.961 . S
C1175 H1191 0.961 . S
C1176 C1177 1.370 . S
C1176 C1178 1.363 . S
C1176 H1192 0.931 . S
C1177 C1176 1.370 . S
C1177 C1181 1.408 . S
C1178 C1176 1.363 . S
C1178 C1179 1.370 . S
C1178 C1182 1.524 . S
C1179 C1171 1.503 . S
C1179 C1178 1.370 . S
C1179 C1180 1.403 . S
C1180 C1179 1.403 . S
C1180 C1181 1.404 . S
C1180 C1183 1.539 . S
C1181 C1177 1.408 . S
C1181 C1180 1.404 . S
C1181 H1193 0.930 . S
C1182 C1178 1.524 . S
C1182 H1194 0.956 . S
C1182 H1195 0.961 . S
C1182 H1196 0.961 . S
C1183 C1180 1.539 . S
C1183 H1197 0.958 . S
C1183 H1198 0.961 . S
C1183 H1199 0.960 . S
H1184 C1168 0.931 . S
H1185 C1173 0.929 . S
H1186 C1174 0.960 . S
H1187 C1174 0.962 . S
H1188 C1174 0.960 . S
H1189 C1175 0.961 . S
H1190 C1175 0.961 . S
H1191 C1175 0.961 . S
H1192 C1176 0.931 . S
H1193 C1181 0.930 . S
H1194 C1182 0.956 . S
H1195 C1182 0.961 . S
H1196 C1182 0.961 . S
H1197 C1183 0.958 . S
H1198 C1183 0.961 . S
H1199 C1183 0.960 . S
C1200 C1201 1.391 . S
C1200 C1202 1.394 . S
C1200 H1216 0.931 . S
C1201 C1200 1.391 . S
C1201 C1205 1.376 . S
C1202 C1200 1.394 . S
C1202 C1203 1.369 . S
C1202 C1206 1.531 . S
C1203 C1202 1.369 . S
C1203 C1204 1.410 . S
C1203 C1211 1.503 . S
C1204 C1203 1.410 . S
C1204 C1205 1.392 . S
C1204 C1207 1.511 . S
C1205 C1201 1.376 . S
C1205 C1204 1.392 . S
C1205 H1217 0.929 . S
C1206 C1202 1.531 . S
C1206 H1218 0.960 . S
C1206 H1219 0.962 . S
C1206 H1220 0.960 . S
C1207 C1204 1.511 . S
C1207 H1221 0.961 . S
C1207 H1222 0.961 . S
C1207 H1223 0.961 . S
C1208 C1209 1.370 . S
C1208 C1210 1.363 . S
C1208 H1224 0.931 . S
C1209 C1208 1.370 . S
C1209 C1213 1.408 . S
C1210 C1208 1.363 . S
C1210 C1211 1.370 . S
C1210 C1214 1.524 . S
C1211 C1203 1.503 . S
C1211 C1210 1.370 . S
C1211 C1212 1.403 . S
C1212 C1211 1.403 . S
C1212 C1213 1.404 . S
C1212 C1215 1.539 . S
C1213 C1209 1.408 . S
C1213 C1212 1.404 . S
C1213 H1225 0.930 . S
C1214 C1210 1.524 . S
C1214 H1226 0.956 . S
C1214 H1227 0.961 . S
C1214 H1228 0.961 . S
C1215 C1212 1.539 . S
C1215 H1229 0.958 . S
C1215 H1230 0.961 . S
C1215 H1231 0.960 . S
H1216 C1200 0.931 . S
H1217 C1205 0.929 . S
H1218 C1206 0.960 . S
H1219 C1206 0.962 . S
H1220 C1206 0.960 . S
H1221 C1207 0.961 . S
H1222 C1207 0.961 . S
H1223 C1207 0.961 . S
H1224 C1208 0.931 . S
H1225 C1213 0.930 . S
H1226 C1214 0.956 . S
H1227 C1214 0.961 . S
H1228 C1214 0.961 . S
H1229 C1215 0.958 . S
H1230 C1215 0.961 . S
H1231 C1215 0.960 . S
C209 C153 1.514 . S
C217 C3 1.517 . S
C241 C16 1.511 . S
C249 C114 1.510 . S
C273 C29 1.503 . S
C281 C127 1.523 . S
C305 C140 1.515 . S
C313 C42 1.514 . S
C337 C55 1.502 . S
C345 C75 1.521 . S
C369 C68 1.507 . S
C377 C88 1.508 . S
C401 C101 1.513 . S
C409 C81 1.516 . S
C433 C62 1.505 . S
C441 C94 1.511 . S
C465 C49 1.519 . S
C473 C107 1.521 . S
C497 C120 1.517 . S
C505 C10 1.513 . S
C529 C23 1.518 . S
C537 C133 1.520 . S
C561 C146 1.519 . S
C569 C36 1.513 . S
C593 C159 1.522 . S
C601 C179 1.522 . S
C625 C172 1.503 . S
C633 C192 1.507 . S
C657 C205 1.518 . S
C665 C185 1.512 . S
C689 C166 1.505 . S
C697 C198 1.511 . S
C721 C53 1.510 . S
C729 C1 1.511 . S
C753 C14 1.492 . S
C761 C66 1.502 . S
C785 C27 1.507 . S
C793 C79 1.515 . S
C817 C92 1.510 . S
C825 C40 1.495 . S
C849 C105 1.504 . S
C857 C157 1.511 . S
C881 C170 1.485 . S
C889 C118 1.505 . S
C913 C131 1.508 . S
C921 C183 1.516 . S
C945 C196 1.499 . S
C953 C144 1.499 . S
C977 C187 1.537 . S
C985 C5 1.510 . S
C1009 C200 1.549 . S
C1017 C18 1.548 . S
C1041 C31 1.527 . S
C1049 C161 1.510 . S
C1073 C174 1.545 . S
C1081 C44 1.550 . S
C1105 C135 1.537 . S
C1113 C57 1.511 . S
C1137 C148 1.543 . S
C1145 C70 1.549 . S
C1169 C83 1.531 . S
C1177 C109 1.509 . S
C1201 C122 1.541 . S
C1209 C96 1.551 . S
