# Generated by pormake.
# Topology wmv, (6)-cn, num edge types: 1
# Building blocks:
#     Node 0, Type 0, BuildingBlock: IZENUY_clean_sbu_0, # of connection points: 6
#     Node 1, Type 0, BuildingBlock: IZENUY_clean_sbu_0, # of connection points: 6
#     Node 2, Type 0, BuildingBlock: IZENUY_clean_sbu_0, # of connection points: 6
#     Node 3, Type 0, BuildingBlock: IZENUY_clean_sbu_0, # of connection points: 6
#     Node 4, Type 0, BuildingBlock: IZENUY_clean_sbu_0, # of connection points: 6
#     Node 5, Type 0, BuildingBlock: IZENUY_clean_sbu_0, # of connection points: 6
#     Node 6, Type 0, BuildingBlock: IZENUY_clean_sbu_0, # of connection points: 6
#     Node 7, Type 0, BuildingBlock: IZENUY_clean_sbu_0, # of connection points: 6
#     Node 8, Type 0, BuildingBlock: IZENUY_clean_sbu_0, # of connection points: 6
#     Node 9, Type 0, BuildingBlock: IZENUY_clean_sbu_0, # of connection points: 6
#     Node 10, Type 0, BuildingBlock: IZENUY_clean_sbu_0, # of connection points: 6
#     Node 11, Type 0, BuildingBlock: IZENUY_clean_sbu_0, # of connection points: 6
#     Node 12, Type 0, BuildingBlock: IZENUY_clean_sbu_0, # of connection points: 6
#     Node 13, Type 0, BuildingBlock: IZENUY_clean_sbu_0, # of connection points: 6
#     Node 14, Type 0, BuildingBlock: IZENUY_clean_sbu_0, # of connection points: 6
#     Node 15, Type 0, BuildingBlock: IZENUY_clean_sbu_0, # of connection points: 6
#     Node 16, Type 0, BuildingBlock: IZENUY_clean_sbu_0, # of connection points: 6
#     Node 17, Type 0, BuildingBlock: IZENUY_clean_sbu_0, # of connection points: 6
#     Node 18, Type 0, BuildingBlock: IZENUY_clean_sbu_0, # of connection points: 6
#     Node 19, Type 0, BuildingBlock: IZENUY_clean_sbu_0, # of connection points: 6
#     Node 20, Type 0, BuildingBlock: IZENUY_clean_sbu_0, # of connection points: 6
#     Node 21, Type 0, BuildingBlock: IZENUY_clean_sbu_0, # of connection points: 6
#     Node 22, Type 0, BuildingBlock: IZENUY_clean_sbu_0, # of connection points: 6
#     Node 23, Type 0, BuildingBlock: IZENUY_clean_sbu_0, # of connection points: 6
#     Node 24, Type 0, BuildingBlock: IZENUY_clean_sbu_0, # of connection points: 6
#     Node 25, Type 0, BuildingBlock: IZENUY_clean_sbu_0, # of connection points: 6
#     Node 26, Type 0, BuildingBlock: IZENUY_clean_sbu_0, # of connection points: 6
#     Node 27, Type 0, BuildingBlock: IZENUY_clean_sbu_0, # of connection points: 6
#     Node 28, Type 0, BuildingBlock: IZENUY_clean_sbu_0, # of connection points: 6
#     Node 29, Type 0, BuildingBlock: IZENUY_clean_sbu_0, # of connection points: 6
#     Node 30, Type 0, BuildingBlock: IZENUY_clean_sbu_0, # of connection points: 6
#     Node 31, Type 0, BuildingBlock: IZENUY_clean_sbu_0, # of connection points: 6
#     Node 32, Type 0, BuildingBlock: IZENUY_clean_sbu_0, # of connection points: 6
#     Node 33, Type 0, BuildingBlock: IZENUY_clean_sbu_0, # of connection points: 6
#     Node 34, Type 0, BuildingBlock: IZENUY_clean_sbu_0, # of connection points: 6
#     Node 35, Type 0, BuildingBlock: IZENUY_clean_sbu_0, # of connection points: 6
#     Edge 36, Type (0, 0), BuildingBlock: UVAHIK_clean_linker_0, # of connection points: 2
#     Edge 37, Type (0, 0), BuildingBlock: UVAHIK_clean_linker_0, # of connection points: 2
#     Edge 38, Type (0, 0), BuildingBlock: UVAHIK_clean_linker_0, # of connection points: 2
#     Edge 39, Type (0, 0), BuildingBlock: UVAHIK_clean_linker_0, # of connection points: 2
#     Edge 40, Type (0, 0), BuildingBlock: UVAHIK_clean_linker_0, # of connection points: 2
#     Edge 41, Type (0, 0), BuildingBlock: UVAHIK_clean_linker_0, # of connection points: 2
#     Edge 42, Type (0, 0), BuildingBlock: UVAHIK_clean_linker_0, # of connection points: 2
#     Edge 43, Type (0, 0), BuildingBlock: UVAHIK_clean_linker_0, # of connection points: 2
#     Edge 44, Type (0, 0), BuildingBlock: UVAHIK_clean_linker_0, # of connection points: 2
#     Edge 45, Type (0, 0), BuildingBlock: UVAHIK_clean_linker_0, # of connection points: 2
#     Edge 46, Type (0, 0), BuildingBlock: UVAHIK_clean_linker_0, # of connection points: 2
#     Edge 47, Type (0, 0), BuildingBlock: UVAHIK_clean_linker_0, # of connection points: 2
#     Edge 48, Type (0, 0), BuildingBlock: UVAHIK_clean_linker_0, # of connection points: 2
#     Edge 49, Type (0, 0), BuildingBlock: UVAHIK_clean_linker_0, # of connection points: 2
#     Edge 50, Type (0, 0), BuildingBlock: UVAHIK_clean_linker_0, # of connection points: 2
#     Edge 51, Type (0, 0), BuildingBlock: UVAHIK_clean_linker_0, # of connection points: 2
#     Edge 52, Type (0, 0), BuildingBlock: UVAHIK_clean_linker_0, # of connection points: 2
#     Edge 53, Type (0, 0), BuildingBlock: UVAHIK_clean_linker_0, # of connection points: 2
#     Edge 54, Type (0, 0), BuildingBlock: UVAHIK_clean_linker_0, # of connection points: 2
#     Edge 55, Type (0, 0), BuildingBlock: UVAHIK_clean_linker_0, # of connection points: 2
#     Edge 56, Type (0, 0), BuildingBlock: UVAHIK_clean_linker_0, # of connection points: 2
#     Edge 57, Type (0, 0), BuildingBlock: UVAHIK_clean_linker_0, # of connection points: 2
#     Edge 58, Type (0, 0), BuildingBlock: UVAHIK_clean_linker_0, # of connection points: 2
#     Edge 59, Type (0, 0), BuildingBlock: UVAHIK_clean_linker_0, # of connection points: 2
#     Edge 60, Type (0, 0), BuildingBlock: UVAHIK_clean_linker_0, # of connection points: 2
#     Edge 61, Type (0, 0), BuildingBlock: UVAHIK_clean_linker_0, # of connection points: 2
#     Edge 62, Type (0, 0), BuildingBlock: UVAHIK_clean_linker_0, # of connection points: 2
#     Edge 63, Type (0, 0), BuildingBlock: UVAHIK_clean_linker_0, # of connection points: 2
#     Edge 64, Type (0, 0), BuildingBlock: UVAHIK_clean_linker_0, # of connection points: 2
#     Edge 65, Type (0, 0), BuildingBlock: UVAHIK_clean_linker_0, # of connection points: 2
#     Edge 66, Type (0, 0), BuildingBlock: UVAHIK_clean_linker_0, # of connection points: 2
#     Edge 67, Type (0, 0), BuildingBlock: UVAHIK_clean_linker_0, # of connection points: 2
#     Edge 68, Type (0, 0), BuildingBlock: UVAHIK_clean_linker_0, # of connection points: 2
#     Edge 69, Type (0, 0), BuildingBlock: UVAHIK_clean_linker_0, # of connection points: 2
#     Edge 70, Type (0, 0), BuildingBlock: UVAHIK_clean_linker_0, # of connection points: 2
#     Edge 71, Type (0, 0), BuildingBlock: UVAHIK_clean_linker_0, # of connection points: 2
#     Edge 72, Type (0, 0), BuildingBlock: UVAHIK_clean_linker_0, # of connection points: 2
#     Edge 73, Type (0, 0), BuildingBlock: UVAHIK_clean_linker_0, # of connection points: 2
#     Edge 74, Type (0, 0), BuildingBlock: UVAHIK_clean_linker_0, # of connection points: 2
#     Edge 75, Type (0, 0), BuildingBlock: UVAHIK_clean_linker_0, # of connection points: 2
#     Edge 76, Type (0, 0), BuildingBlock: UVAHIK_clean_linker_0, # of connection points: 2
#     Edge 77, Type (0, 0), BuildingBlock: UVAHIK_clean_linker_0, # of connection points: 2
#     Edge 78, Type (0, 0), BuildingBlock: UVAHIK_clean_linker_0, # of connection points: 2
#     Edge 79, Type (0, 0), BuildingBlock: UVAHIK_clean_linker_0, # of connection points: 2
#     Edge 80, Type (0, 0), BuildingBlock: UVAHIK_clean_linker_0, # of connection points: 2
#     Edge 81, Type (0, 0), BuildingBlock: UVAHIK_clean_linker_0, # of connection points: 2
#     Edge 82, Type (0, 0), BuildingBlock: UVAHIK_clean_linker_0, # of connection points: 2
#     Edge 83, Type (0, 0), BuildingBlock: UVAHIK_clean_linker_0, # of connection points: 2
#     Edge 84, Type (0, 0), BuildingBlock: UVAHIK_clean_linker_0, # of connection points: 2
#     Edge 85, Type (0, 0), BuildingBlock: UVAHIK_clean_linker_0, # of connection points: 2
#     Edge 86, Type (0, 0), BuildingBlock: UVAHIK_clean_linker_0, # of connection points: 2
#     Edge 87, Type (0, 0), BuildingBlock: UVAHIK_clean_linker_0, # of connection points: 2
#     Edge 88, Type (0, 0), BuildingBlock: UVAHIK_clean_linker_0, # of connection points: 2
#     Edge 89, Type (0, 0), BuildingBlock: UVAHIK_clean_linker_0, # of connection points: 2
#     Edge 90, Type (0, 0), BuildingBlock: UVAHIK_clean_linker_0, # of connection points: 2
#     Edge 91, Type (0, 0), BuildingBlock: UVAHIK_clean_linker_0, # of connection points: 2
#     Edge 92, Type (0, 0), BuildingBlock: UVAHIK_clean_linker_0, # of connection points: 2
#     Edge 93, Type (0, 0), BuildingBlock: UVAHIK_clean_linker_0, # of connection points: 2
#     Edge 94, Type (0, 0), BuildingBlock: UVAHIK_clean_linker_0, # of connection points: 2
#     Edge 95, Type (0, 0), BuildingBlock: UVAHIK_clean_linker_0, # of connection points: 2
#     Edge 96, Type (0, 0), BuildingBlock: UVAHIK_clean_linker_0, # of connection points: 2
#     Edge 97, Type (0, 0), BuildingBlock: UVAHIK_clean_linker_0, # of connection points: 2
#     Edge 98, Type (0, 0), BuildingBlock: UVAHIK_clean_linker_0, # of connection points: 2
#     Edge 99, Type (0, 0), BuildingBlock: UVAHIK_clean_linker_0, # of connection points: 2
#     Edge 100, Type (0, 0), BuildingBlock: UVAHIK_clean_linker_0, # of connection points: 2
#     Edge 101, Type (0, 0), BuildingBlock: UVAHIK_clean_linker_0, # of connection points: 2
#     Edge 102, Type (0, 0), BuildingBlock: UVAHIK_clean_linker_0, # of connection points: 2
#     Edge 103, Type (0, 0), BuildingBlock: UVAHIK_clean_linker_0, # of connection points: 2
#     Edge 104, Type (0, 0), BuildingBlock: UVAHIK_clean_linker_0, # of connection points: 2
#     Edge 105, Type (0, 0), BuildingBlock: UVAHIK_clean_linker_0, # of connection points: 2
#     Edge 106, Type (0, 0), BuildingBlock: UVAHIK_clean_linker_0, # of connection points: 2
#     Edge 107, Type (0, 0), BuildingBlock: UVAHIK_clean_linker_0, # of connection points: 2
#     Edge 108, Type (0, 0), BuildingBlock: UVAHIK_clean_linker_0, # of connection points: 2
#     Edge 109, Type (0, 0), BuildingBlock: UVAHIK_clean_linker_0, # of connection points: 2
#     Edge 110, Type (0, 0), BuildingBlock: UVAHIK_clean_linker_0, # of connection points: 2
#     Edge 111, Type (0, 0), BuildingBlock: UVAHIK_clean_linker_0, # of connection points: 2
#     Edge 112, Type (0, 0), BuildingBlock: UVAHIK_clean_linker_0, # of connection points: 2
#     Edge 113, Type (0, 0), BuildingBlock: UVAHIK_clean_linker_0, # of connection points: 2
#     Edge 114, Type (0, 0), BuildingBlock: UVAHIK_clean_linker_0, # of connection points: 2
#     Edge 115, Type (0, 0), BuildingBlock: UVAHIK_clean_linker_0, # of connection points: 2
#     Edge 116, Type (0, 0), BuildingBlock: UVAHIK_clean_linker_0, # of connection points: 2
#     Edge 117, Type (0, 0), BuildingBlock: UVAHIK_clean_linker_0, # of connection points: 2
#     Edge 118, Type (0, 0), BuildingBlock: UVAHIK_clean_linker_0, # of connection points: 2
#     Edge 119, Type (0, 0), BuildingBlock: UVAHIK_clean_linker_0, # of connection points: 2
#     Edge 120, Type (0, 0), BuildingBlock: UVAHIK_clean_linker_0, # of connection points: 2
#     Edge 121, Type (0, 0), BuildingBlock: UVAHIK_clean_linker_0, # of connection points: 2
#     Edge 122, Type (0, 0), BuildingBlock: UVAHIK_clean_linker_0, # of connection points: 2
#     Edge 123, Type (0, 0), BuildingBlock: UVAHIK_clean_linker_0, # of connection points: 2
#     Edge 124, Type (0, 0), BuildingBlock: UVAHIK_clean_linker_0, # of connection points: 2
#     Edge 125, Type (0, 0), BuildingBlock: UVAHIK_clean_linker_0, # of connection points: 2
#     Edge 126, Type (0, 0), BuildingBlock: UVAHIK_clean_linker_0, # of connection points: 2
#     Edge 127, Type (0, 0), BuildingBlock: UVAHIK_clean_linker_0, # of connection points: 2
#     Edge 128, Type (0, 0), BuildingBlock: UVAHIK_clean_linker_0, # of connection points: 2
#     Edge 129, Type (0, 0), BuildingBlock: UVAHIK_clean_linker_0, # of connection points: 2
#     Edge 130, Type (0, 0), BuildingBlock: UVAHIK_clean_linker_0, # of connection points: 2
#     Edge 131, Type (0, 0), BuildingBlock: UVAHIK_clean_linker_0, # of connection points: 2
#     Edge 132, Type (0, 0), BuildingBlock: UVAHIK_clean_linker_0, # of connection points: 2
#     Edge 133, Type (0, 0), BuildingBlock: UVAHIK_clean_linker_0, # of connection points: 2
#     Edge 134, Type (0, 0), BuildingBlock: UVAHIK_clean_linker_0, # of connection points: 2
#     Edge 135, Type (0, 0), BuildingBlock: UVAHIK_clean_linker_0, # of connection points: 2
#     Edge 136, Type (0, 0), BuildingBlock: UVAHIK_clean_linker_0, # of connection points: 2
#     Edge 137, Type (0, 0), BuildingBlock: UVAHIK_clean_linker_0, # of connection points: 2
#     Edge 138, Type (0, 0), BuildingBlock: UVAHIK_clean_linker_0, # of connection points: 2
#     Edge 139, Type (0, 0), BuildingBlock: UVAHIK_clean_linker_0, # of connection points: 2
#     Edge 140, Type (0, 0), BuildingBlock: UVAHIK_clean_linker_0, # of connection points: 2
#     Edge 141, Type (0, 0), BuildingBlock: UVAHIK_clean_linker_0, # of connection points: 2
#     Edge 142, Type (0, 0), BuildingBlock: UVAHIK_clean_linker_0, # of connection points: 2
#     Edge 143, Type (0, 0), BuildingBlock: UVAHIK_clean_linker_0, # of connection points: 2
# Relax obj value: 0.278
# Max RMSD: 0.282
# Mean RMSD: 0.282
data_MOF--net-wmv--node1-IZENUY_clean_sbu_0--edge1-UVAHIK_clean_linker_0
_symmetry_space_group_name_H-M    P1
_symmetry_Int_Tables_number       1
_symmetry_cell_setting            triclinic
loop_
_symmetry_equiv_pos_as_xyz
'x, y, z'
_cell_length_a     101.65909
_cell_length_b     101.68297
_cell_length_c     37.176771
_cell_angle_alpha  89.999804
_cell_angle_beta   90.010763
_cell_angle_gamma 119.99882
loop_
_atom_site_label
_atom_site_type_symbol
_atom_site_fract_x
_atom_site_fract_y
_atom_site_fract_z
_atom_type_partial_charge
Fe0 Fe 0.06429 0.22631 0.03682 0.0
Fe1 Fe 0.09626 0.23154 0.05128 0.0
O2 O 0.07632 0.22021 0.05622 0.0
Fe3 Fe 0.06833 0.20294 0.08054 0.0
O4 O 0.05711 0.192 0.04226 0.0
O5 O 0.04821 0.20713 0.02932 0.0
O6 O 0.07088 0.22538 0.99203 0.0
C7 C 0.08467 0.23243 0.98265 0.0
C8 C 0.05141 0.21666 0.10311 0.0
O9 O 0.09517 0.23823 0.00598 0.0
C10 C 0.09284 0.22098 0.12328 0.0
O11 O 0.07803 0.24677 0.04061 0.0
O12 O 0.09645 0.2476 0.07287 0.0
O13 O 0.05266 0.20495 0.09882 0.0
O14 O 0.0571 0.22747 0.08076 0.0
C15 C 0.09281 0.20325 0.04232 0.0
O16 O 0.10092 0.2268 0.09552 0.0
O17 O 0.07869 0.21243 0.12075 0.0
C18 C 0.08924 0.25385 0.06153 0.0
O19 O 0.09756 0.21633 0.02951 0.0
O20 O 0.08282 0.1981 0.06687 0.0
C21 C 0.0474 0.19433 0.02692 0.0
Fe22 Fe 0.80079 0.86823 0.08611 0.0
Fe23 Fe 0.77732 0.8414 0.04132 0.0
O24 O 0.78397 0.85968 0.06012 0.0
Fe25 Fe 0.77379 0.86938 0.05294 0.0
O26 O 0.78998 0.8852 0.03163 0.0
O27 O 0.80661 0.88784 0.07279 0.0
O28 O 0.81205 0.86763 0.04893 0.0
C29 C 0.80944 0.85544 0.03388 0.0
C30 C 0.78279 0.87558 0.1258 0.0
O31 O 0.79632 0.84376 0.03547 0.0
C32 C 0.75017 0.84067 0.06305 0.0
O33 O 0.79789 0.85028 0.10469 0.0
O34 O 0.77529 0.83291 0.08546 0.0
O35 O 0.77843 0.87894 0.09708 0.0
O36 O 0.79064 0.86917 0.12486 0.0
C37 C 0.77269 0.85606 0.98546 0.0
O38 O 0.75702 0.83564 0.04397 0.0
O39 O 0.7569 0.85426 0.07362 0.0
C40 C 0.78589 0.83753 0.10826 0.0
O41 O 0.77906 0.84883 0.99613 0.0
O42 O 0.76731 0.86158 0.0077 0.0
C43 C 0.80271 0.89308 0.04651 0.0
Fe44 Fe 0.13463 0.93338 0.07887 0.0
Fe45 Fe 0.16237 0.93625 0.03878 0.0
O46 O 0.14373 0.92481 0.05606 0.0
Fe47 Fe 0.13429 0.90483 0.05066 0.0
O48 O 0.1187 0.90461 0.02663 0.0
O49 O 0.1153 0.9194 0.06391 0.0
O50 O 0.1361 0.94491 0.04008 0.0
C51 C 0.14859 0.95428 0.0258 0.0
C52 C 0.12631 0.90849 0.12156 0.0
O53 O 0.16017 0.9528 0.02965 0.0
C54 C 0.16284 0.91016 0.0645 0.0
O55 O 0.15223 0.94863 0.09849 0.0
O56 O 0.16995 0.94323 0.08345 0.0
O57 O 0.12403 0.90045 0.09374 0.0
O58 O 0.13269 0.92273 0.11934 0.0
C59 C 0.14888 0.91615 0.98359 0.0
O60 O 0.16813 0.92185 0.04471 0.0
O61 O 0.14915 0.9035 0.07424 0.0
C62 C 0.16487 0.9494 0.10449 0.0
O63 O 0.15583 0.92992 0.99315 0.0
O64 O 0.14283 0.9056 0.00668 0.0
C65 C 0.11045 0.90953 0.03909 0.0
Fe66 Fe 0.22609 0.06535 0.45501 0.0
Fe67 Fe 0.22933 0.09663 0.44087 0.0
O68 O 0.21911 0.07664 0.43585 0.0
Fe69 Fe 0.20182 0.06788 0.41152 0.0
O70 O 0.19123 0.0571 0.45052 0.0
O71 O 0.20711 0.04909 0.46435 0.0
O72 O 0.22547 0.07202 0.49983 0.0
C73 C 0.2315 0.08575 0.50917 0.0
C74 C 0.21558 0.0507 0.39107 0.0
O75 O 0.23641 0.09626 0.48596 0.0
C76 C 0.21924 0.09225 0.36859 0.0
O77 O 0.24631 0.07966 0.44949 0.0
O78 O 0.24603 0.09817 0.41958 0.0
O79 O 0.20396 0.05206 0.39521 0.0
O80 O 0.22703 0.05779 0.41117 0.0
C81 C 0.20053 0.09159 0.44867 0.0
O82 O 0.224 0.10051 0.39645 0.0
O83 O 0.21143 0.07799 0.37108 0.0
C84 C 0.25293 0.09146 0.43004 0.0
O85 O 0.21342 0.09662 0.46279 0.0
O86 O 0.19638 0.08212 0.4231 0.0
C87 C 0.19418 0.04806 0.46718 0.0
Fe88 Fe 0.93871 0.1638 0.45673 0.0
Fe89 Fe 0.90752 0.13565 0.44275 0.0
O90 O 0.9275 0.14554 0.43748 0.0
Fe91 Fe 0.9363 0.13715 0.41285 0.0
O92 O 0.94738 0.13757 0.45152 0.0
O93 O 0.95525 0.16142 0.46523 0.0
O94 O 0.93227 0.15638 0.50159 0.0
C95 C 0.91854 0.14867 0.51103 0.0
C96 C 0.95301 0.16811 0.39228 0.0
O97 O 0.908 0.14314 0.48787 0.0
C98 C 0.91169 0.1298 0.3704 0.0
O99 O 0.92421 0.16948 0.45189 0.0
O100 O 0.90585 0.15076 0.42153 0.0
O101 O 0.95187 0.15521 0.39614 0.0
O102 O 0.94595 0.17235 0.41284 0.0
C103 C 0.91275 0.11202 0.4503 0.0
O104 O 0.90351 0.12637 0.3984 0.0
O105 O 0.92596 0.13641 0.37265 0.0
C106 C 0.91249 0.16434 0.43219 0.0
O107 O 0.90769 0.11982 0.46457 0.0
O108 O 0.92226 0.11741 0.42479 0.0
C109 C 0.9566 0.1497 0.46748 0.0
Fe110 Fe 0.86808 0.77233 0.44655 0.0
Fe111 Fe 0.86802 0.80016 0.41445 0.0
O112 O 0.85881 0.78294 0.43902 0.0
Fe113 Fe 0.84023 0.77629 0.45615 0.0
O114 O 0.84687 0.77742 0.50183 0.0
O115 O 0.85966 0.76561 0.49136 0.0
O116 O 0.88387 0.78808 0.46913 0.0
C117 C 0.89213 0.80101 0.45555 0.0
C118 C 0.83934 0.74911 0.43403 0.0
O119 O 0.88731 0.80563 0.42984 0.0
C120 C 0.83767 0.78578 0.38918 0.0
O121 O 0.87815 0.77715 0.40306 0.0
O122 O 0.86983 0.79071 0.37544 0.0
O123 O 0.83419 0.75595 0.45268 0.0
O124 O 0.85306 0.75579 0.42454 0.0
C125 C 0.85438 0.80829 0.46583 0.0
O126 O 0.85046 0.79762 0.394 0.0
O127 O 0.83257 0.77491 0.41132 0.0
C128 C 0.87604 0.78267 0.37452 0.0
O129 O 0.86676 0.81098 0.45176 0.0
O130 O 0.84264 0.7953 0.46288 0.0
C131 C 0.85383 0.77086 0.5131 0.0
Fe132 Fe 0.92972 0.79837 0.91085 0.0
Fe133 Fe 0.90296 0.77098 0.94619 0.0
O134 O 0.92271 0.78176 0.93766 0.0
Fe135 Fe 0.93524 0.7759 0.95519 0.0
O136 O 0.94701 0.794 0.97761 0.0
O137 O 0.94833 0.80853 0.93259 0.0
O138 O 0.923 0.80727 0.9428 0.0
C139 C 0.90923 0.8013 0.95196 0.0
C140 C 0.94564 0.78541 0.88353 0.0
O141 O 0.90008 0.78738 0.94591 0.0
C142 C 0.91076 0.74808 0.93794 0.0
O143 O 0.9125 0.79137 0.88336 0.0
O144 O 0.89875 0.76739 0.89847 0.0
O145 O 0.94756 0.78192 0.91514 0.0
O146 O 0.93677 0.79049 0.8775 0.0
C147 C 0.91452 0.77077 0.01246 0.0
O148 O 0.90203 0.75266 0.94895 0.0
O149 O 0.92477 0.75721 0.93425 0.0
C150 C 0.90241 0.77791 0.87591 0.0
O151 O 0.90595 0.77374 0.99391 0.0
O152 O 0.92491 0.76903 -0.00181 0.0
C153 C 0.95335 0.80675 0.96218 0.0
Fe154 Fe 0.22708 0.16268 0.95415 0.0
Fe155 Fe 0.20187 0.13567 0.9132 0.0
O156 O 0.21947 0.14414 0.93616 0.0
Fe157 Fe 0.22946 0.13415 0.94118 0.0
O158 O 0.23708 0.14214 0.98564 0.0
O159 O 0.22634 0.15566 -0.00062 0.0
O160 O 0.20849 0.16094 0.96306 0.0
C161 C 0.19529 0.14954 0.96685 0.0
C162 C 0.25331 0.16252 0.92853 0.0
O163 O 0.19196 0.13698 0.95256 0.0
C164 C 0.21833 0.1275 0.86984 0.0
O165 O 0.22808 0.17065 0.90971 0.0
O166 O 0.20461 0.15369 0.89513 0.0
O167 O 0.24605 0.14888 0.91841 0.0
O168 O 0.2471 0.16792 0.94863 0.0
C169 C 0.20058 0.11082 0.9517 0.0
O170 O 0.21065 0.13407 0.87246 0.0
O171 O 0.2235 0.12437 0.89752 0.0
C172 C 0.21657 0.16635 0.88982 0.0
O173 O 0.19599 0.11599 0.92664 0.0
O174 O 0.21372 0.11871 0.96451 0.0
C175 C 0.23225 0.14784 0.00883 0.0
Fe176 Fe 0.86702 0.06873 0.91158 0.0
Fe177 Fe 0.86861 0.09727 0.94331 0.0
O178 O 0.85867 0.07734 0.93706 0.0
Fe179 Fe 0.84036 0.06598 0.95616 0.0
O180 O 0.84256 0.04926 0.96309 0.0
O181 O 0.8664 0.05717 0.94936 0.0
O182 O 0.88674 0.08248 0.92422 0.0
C183 C 0.89217 0.09183 0.95004 0.0
C184 C 0.83639 0.05318 0.88954 0.0
O185 O 0.88445 0.09692 0.96462 0.0
C186 C 0.83992 0.09241 0.93321 0.0
O187 O 0.86796 0.07952 0.87218 0.0
O188 O 0.87795 0.10172 0.89897 0.0
O189 O 0.83181 0.05931 0.91204 0.0
O190 O 0.84895 0.05361 0.89387 0.0
C191 C 0.85569 0.08561 0.01124 0.0
O192 O 0.85351 0.0991 0.9226 0.0
O193 O 0.8348 0.08063 0.95271 0.0
C194 C 0.8745 0.09378 0.8706 0.0
O195 O 0.86107 0.09634 0.98858 0.0
O196 O 0.84787 0.07196 0.00122 0.0
C197 C 0.85426 0.04786 0.96506 0.0
Fe198 Fe 0.80213 0.93623 0.58363 0.0
Fe199 Fe 0.77466 0.90748 0.55395 0.0
O200 O 0.78481 0.92744 0.55942 0.0
Fe201 Fe 0.77767 0.93869 0.54074 0.0
O202 O 0.79655 0.9553 0.53225 0.0
O203 O 0.81258 0.94739 0.54486 0.0
O204 O 0.80783 0.92224 0.571 0.0
C205 C 0.80352 0.91265 0.54564 0.0
C206 C 0.78779 0.95274 0.60539 0.0
O207 O 0.79057 0.9076 0.5318 0.0
C208 C 0.75093 0.91237 0.56498 0.0
O209 O 0.79281 0.9258 0.6239 0.0
O210 O 0.77996 0.90339 0.59816 0.0
O211 O 0.77646 0.94573 0.5849 0.0
O212 O 0.79961 0.95171 0.60105 0.0
C213 C 0.77247 0.9187 0.48597 0.0
O214 O 0.75794 0.90579 0.57549 0.0
O215 O 0.75749 0.92416 0.54555 0.0
C216 C 0.78502 0.91154 0.62615 0.0
O217 O 0.76761 0.90809 0.50893 0.0
O218 O 0.77854 0.9324 0.49566 0.0
C219 C 0.80962 0.95667 0.52943 0.0
Fe220 Fe 0.07172 0.86895 0.58872 0.0
Fe221 Fe 0.09861 0.869 0.55186 0.0
O222 O 0.07881 0.85999 0.56004 0.0
Fe223 Fe 0.06628 0.84218 0.53978 0.0
O224 O 0.05504 0.8494 0.51862 0.0
O225 O 0.05343 0.86149 0.56577 0.0
O226 O 0.07902 0.8856 0.55981 0.0
C227 C 0.09283 0.89339 0.55102 0.0
C228 C 0.05501 0.8394 0.6112 0.0
O229 O 0.1018 0.88831 0.55559 0.0
C230 C 0.0903 0.83807 0.55643 0.0
O231 O 0.08859 0.87787 0.61753 0.0
O232 O 0.1027 0.86841 0.59925 0.0
O233 O 0.05338 0.83491 0.57878 0.0
O234 O 0.06408 0.85306 0.61938 0.0
C235 C 0.08698 0.85932 0.48434 0.0
O236 O 0.09924 0.85147 0.54604 0.0
O237 O 0.07628 0.83328 0.55941 0.0
C238 C 0.09854 0.87414 0.62372 0.0
O239 O 0.09564 0.87019 0.50454 0.0
O240 O 0.0771 0.84659 0.49727 0.0
C241 C 0.04871 0.85557 0.53517 0.0
Fe242 Fe 0.13706 0.20368 0.58258 0.0
Fe243 Fe 0.13689 0.23153 0.55147 0.0
O244 O 0.14593 0.22064 0.55706 0.0
Fe245 Fe 0.16396 0.22678 0.53717 0.0
O246 O 0.16093 0.20757 0.53036 0.0
O247 O 0.13703 0.19239 0.54474 0.0
O248 O 0.11756 0.19855 0.57017 0.0
C249 C 0.11235 0.20299 0.54493 0.0
C250 C 0.16781 0.21774 0.60372 0.0
O251 O 0.12041 0.21582 0.5306 0.0
C252 C 0.16615 0.25432 0.56065 0.0
O253 O 0.13661 0.21369 0.62225 0.0
O254 O 0.12781 0.22709 0.59612 0.0
O255 O 0.17268 0.22839 0.58096 0.0
O256 O 0.15493 0.20593 0.59994 0.0
C257 C 0.14916 0.23214 0.48277 0.0
O258 O 0.15268 0.248 0.57201 0.0
O259 O 0.17044 0.24721 0.54026 0.0
C260 C 0.13068 0.22197 0.62428 0.0
O261 O 0.14432 0.2379 0.50583 0.0
O262 O 0.15618 0.22541 0.49247 0.0
C263 C 0.14894 0.19471 0.52874 0.0
Fe264 Fe 0.73572 0.53535 0.41383 0.0
Fe265 Fe 0.73245 0.55944 0.37115 0.0
O266 O 0.74411 0.55275 0.38992 0.0
Fe267 Fe 0.76408 0.56351 0.38473 0.0
O268 O 0.7647 0.54803 0.36254 0.0
O269 O 0.74989 0.53005 0.40017 0.0
O270 O 0.72441 0.5248 0.37528 0.0
C271 C 0.71488 0.5275 0.36029 0.0
C272 C 0.76038 0.55279 0.45662 0.0
O273 O 0.71603 0.54045 0.3632 0.0
C274 C 0.75819 0.58656 0.3956 0.0
O275 O 0.72031 0.53772 0.43225 0.0
O276 O 0.72545 0.56058 0.4154 0.0
O277 O 0.76851 0.55844 0.42884 0.0
O278 O 0.74619 0.54455 0.45415 0.0
C279 C 0.75261 0.56493 0.31651 0.0
O280 O 0.74663 0.57976 0.37552 0.0
O281 O 0.76505 0.57988 0.40648 0.0
C282 C 0.71949 0.54962 0.43731 0.0
O283 O 0.73884 0.55857 0.32601 0.0
O284 O 0.76317 0.57039 0.3397 0.0
C285 C 0.75981 0.53497 0.37548 0.0
Fe286 Fe 0.46681 0.19944 0.41557 0.0
Fe287 Fe 0.44226 0.17287 0.37193 0.0
O288 O 0.44972 0.19134 0.39052 0.0
Fe289 Fe 0.44008 0.20164 0.38417 0.0
O290 O 0.45642 0.21717 0.36249 0.0
O291 O 0.47322 0.21917 0.40238 0.0
O292 O 0.47743 0.19826 0.37766 0.0
C293 C 0.47414 0.18595 0.36216 0.0
C294 C 0.44992 0.20781 0.45671 0.0
O295 O 0.4609 0.17452 0.36472 0.0
C296 C 0.41582 0.17324 0.39494 0.0
O297 O 0.46345 0.1813 0.43381 0.0
O298 O 0.44038 0.16449 0.41627 0.0
O299 O 0.44529 0.21114 0.42836 0.0
O300 O 0.45735 0.20095 0.45511 0.0
C301 C 0.43807 0.18811 0.3164 0.0
O302 O 0.42223 0.16781 0.37566 0.0
O303 O 0.42298 0.18688 0.40521 0.0
C304 C 0.45116 0.16893 0.43852 0.0
O305 O 0.44374 0.18016 0.32662 0.0
O306 O 0.43325 0.19404 0.33901 0.0
C307 C 0.46935 0.22469 0.37668 0.0
Fe308 Fe 0.80211 0.26758 0.41537 0.0
Fe309 Fe 0.82925 0.27067 0.37248 0.0
O310 O 0.81078 0.25913 0.39055 0.0
Fe311 Fe 0.80105 0.23923 0.38386 0.0
O312 O 0.78529 0.23947 0.36184 0.0
O313 O 0.78255 0.25379 0.4018 0.0
O314 O 0.803 0.27919 0.37735 0.0
C315 C 0.81534 0.28874 0.36282 0.0
C316 C 0.7944 0.24243 0.45626 0.0
O317 O 0.82703 0.28737 0.36576 0.0
C318 C 0.82973 0.24425 0.39512 0.0
O319 O 0.82 0.28271 0.43407 0.0
O320 O 0.83733 0.27708 0.41709 0.0
O321 O 0.79137 0.23455 0.42783 0.0
O322 O 0.80084 0.25669 0.45483 0.0
C323 C 0.81457 0.25131 0.31652 0.0
O324 O 0.83491 0.2561 0.37593 0.0
O325 O 0.81608 0.23745 0.40524 0.0
C326 C 0.83254 0.28316 0.4392 0.0
O327 O 0.82218 0.26492 0.32701 0.0
O328 O 0.80898 0.24045 0.33889 0.0
C329 C 0.77736 0.24443 0.37598 0.0
Fe330 Fe 0.89528 0.39723 0.79202 0.0
Fe331 Fe 0.89961 0.42896 0.77826 0.0
O332 O 0.88875 0.40898 0.77329 0.0
Fe333 Fe 0.87135 0.40069 0.74944 0.0
O334 O 0.86077 0.38984 0.78842 0.0
O335 O 0.87614 0.38113 0.80108 0.0
O336 O 0.89495 0.40393 0.83699 0.0
C337 C 0.90176 0.41769 0.84646 0.0
C338 C 0.88447 0.38304 0.72768 0.0
O339 O 0.90672 0.42824 0.82325 0.0
C340 C 0.88884 0.42506 0.70631 0.0
O341 O 0.91561 0.41112 0.78669 0.0
O342 O 0.91589 0.42975 0.75628 0.0
O343 O 0.87305 0.38472 0.73211 0.0
O344 O 0.89594 0.38974 0.74793 0.0
C345 C 0.87117 0.42493 0.78719 0.0
O346 O 0.89439 0.43324 0.7341 0.0
O347 O 0.88076 0.41083 0.70888 0.0
C348 C 0.92245 0.42269 0.76666 0.0
O349 O 0.88415 0.42972 0.80065 0.0
O350 O 0.86646 0.41521 0.76211 0.0
C351 C 0.86328 0.38026 0.80389 0.0
Fe352 Fe 0.60602 0.49651 0.79081 0.0
Fe353 Fe 0.57465 0.46883 0.77622 0.0
O354 O 0.59464 0.47823 0.77167 0.0
Fe355 Fe 0.60328 0.46937 0.74818 0.0
O356 O 0.61417 0.46995 0.78741 0.0
O357 O 0.6224 0.49393 0.79994 0.0
O358 O 0.5993 0.48918 0.83569 0.0
C359 C 0.58549 0.48166 0.84468 0.0
C360 C 0.62038 0.50026 0.7266 0.0
O361 O 0.5751 0.47654 0.8211 0.0
C362 C 0.57895 0.46216 0.70447 0.0
O363 O 0.59178 0.50255 0.78539 0.0
O364 O 0.57361 0.48412 0.75415 0.0
O365 O 0.61901 0.48726 0.73093 0.0
O366 O 0.6135 0.50482 0.74688 0.0
C367 C 0.57923 0.44481 0.78599 0.0
O368 O 0.57066 0.45941 0.73209 0.0
O369 O 0.59317 0.46831 0.70729 0.0
C370 C 0.58025 0.49764 0.76511 0.0
O371 O 0.5742 0.45288 0.7988 0.0
O372 O 0.589 0.44981 0.76096 0.0
C373 C 0.62357 0.48213 0.80284 0.0
Fe374 Fe 0.50638 0.10959 0.78766 0.0
Fe375 Fe 0.53398 0.1057 0.77326 0.0
O376 O 0.5245 0.11619 0.76797 0.0
Fe377 Fe 0.53311 0.13332 0.74302 0.0
O378 O 0.53301 0.14423 0.78149 0.0
O379 O 0.50914 0.12867 0.79568 0.0
O380 O 0.51401 0.11067 0.83238 0.0
C381 C 0.52127 0.10418 0.84187 0.0
C382 C 0.50206 0.11942 0.72295 0.0
O383 O 0.52657 0.09893 0.81868 0.0
C384 C 0.53986 0.11554 0.70062 0.0
O385 O 0.50024 0.08925 0.7834 0.0
O386 O 0.51855 0.08907 0.75247 0.0
O387 O 0.51511 0.13106 0.72633 0.0
O388 O 0.4977 0.10823 0.74394 0.0
C389 C 0.55805 0.13443 0.78039 0.0
O390 O 0.54306 0.11059 0.72864 0.0
O391 O 0.53364 0.12355 0.70292 0.0
C392 C 0.50504 0.08238 0.76362 0.0
O393 O 0.55012 0.12157 0.7946 0.0
O394 O 0.55277 0.13869 0.75493 0.0
C395 C 0.52101 0.14164 0.79757 0.0
Fe396 Fe 0.60481 0.10905 0.28785 0.0
Fe397 Fe 0.60163 0.13291 0.24418 0.0
O398 O 0.59322 0.11562 0.26848 0.0
Fe399 Fe 0.57325 0.10491 0.27356 0.0
O400 O 0.57394 0.09793 0.31873 0.0
O401 O 0.59822 0.10993 0.33263 0.0
O402 O 0.62108 0.12813 0.29617 0.0
C403 C 0.62211 0.14105 0.29855 0.0
C404 C 0.57912 0.08185 0.26321 0.0
O405 O 0.61262 0.14364 0.28288 0.0
C406 C 0.57718 0.11529 0.20134 0.0
O407 O 0.61214 0.10794 0.24401 0.0
O408 O 0.61742 0.13081 0.22703 0.0
O409 O 0.57227 0.08851 0.25208 0.0
O410 O 0.59071 0.08872 0.28323 0.0
C411 C 0.57764 0.13349 0.28211 0.0
O412 O 0.5914 0.1234 0.20383 0.0
O413 O 0.569 0.11001 0.22923 0.0
C414 C 0.61889 0.11921 0.22324 0.0
O415 O 0.58725 0.13809 0.25672 0.0
O416 O 0.57279 0.12052 0.29558 0.0
C417 C 0.58445 0.10328 0.34202 0.0
Fe418 Fe 0.89236 0.49335 0.29024 0.0
Fe419 Fe 0.87058 0.46685 0.2412 0.0
O420 O 0.88684 0.47565 0.26922 0.0
Fe421 Fe 0.89756 0.46649 0.27603 0.0
O422 O 0.89357 0.4649 0.32346 0.0
O423 O 0.89873 0.48847 0.3323 0.0
O424 O 0.87404 0.48616 0.31185 0.0
C425 C 0.86144 0.48017 0.29584 0.0
C426 C 0.92043 0.49747 0.27357 0.0
O427 O 0.85996 0.47437 0.265 0.0
C428 C 0.89188 0.46157 0.20447 0.0
O429 O 0.88678 0.50097 0.25169 0.0
O430 O 0.87875 0.48282 0.21082 0.0
O431 O 0.91579 0.48387 0.28246 0.0
O432 O 0.91124 0.50229 0.27047 0.0
C433 C 0.8674 0.44224 0.27775 0.0
O434 O 0.87826 0.4579 0.21148 0.0
O435 O 0.90201 0.46751 0.2284 0.0
C436 C 0.88376 0.49654 0.21921 0.0
O437 O 0.8614 0.45018 0.27019 0.0
O438 O 0.88135 0.44726 0.27165 0.0
C439 C 0.8959 0.47561 0.34439 0.0
Fe440 Fe 0.50774 0.39667 0.2911 0.0
Fe441 Fe 0.53433 0.40031 0.24492 0.0
O442 O 0.52569 0.40847 0.271 0.0
Fe443 Fe 0.53494 0.42841 0.27686 0.0
O444 O 0.52771 0.42743 0.32274 0.0
O445 O 0.51562 0.40306 0.33561 0.0
O446 O 0.51088 0.38053 0.29799 0.0
C447 C 0.5229 0.37967 0.29917 0.0
C448 C 0.50571 0.4222 0.26808 0.0
O449 O 0.53471 0.3892 0.28267 0.0
C450 C 0.54044 0.42494 0.20369 0.0
O451 O 0.49883 0.38945 0.2475 0.0
O452 O 0.51634 0.38444 0.22855 0.0
O453 O 0.5192 0.42936 0.25685 0.0
O454 O 0.50131 0.41065 0.28808 0.0
C455 C 0.55933 0.4242 0.28211 0.0
O456 O 0.53429 0.4107 0.20549 0.0
O457 O 0.54387 0.43295 0.23199 0.0
C458 C 0.5032 0.38284 0.22589 0.0
O459 O 0.55399 0.41479 0.25636 0.0
O460 O 0.55134 0.42885 0.29727 0.0
C461 C 0.52279 0.41674 0.34557 0.0
Fe462 Fe 0.46705 0.26745 0.91767 0.0
Fe463 Fe 0.44044 0.2391 0.884 0.0
O464 O 0.45017 0.25894 0.89177 0.0
Fe465 Fe 0.44302 0.27031 0.87371 0.0
O466 O 0.46181 0.28724 0.86781 0.0
O467 O 0.47809 0.27967 0.88068 0.0
O468 O 0.47335 0.25409 0.90375 0.0
C469 C 0.46961 0.24505 0.87732 0.0
C470 C 0.45151 0.28237 0.94117 0.0
O471 O 0.45685 0.24003 0.86249 0.0
C472 C 0.41626 0.24334 0.89474 0.0
O473 O 0.45712 0.25602 0.95638 0.0
O474 O 0.44525 0.23418 0.92786 0.0
O475 O 0.44088 0.27636 0.91841 0.0
O476 O 0.46373 0.28213 0.93672 0.0
C477 C 0.43924 0.2515 0.81702 0.0
O478 O 0.42328 0.23669 0.90477 0.0
O479 O 0.4229 0.25542 0.87628 0.0
C480 C 0.44953 0.24173 0.95683 0.0
O481 O 0.43395 0.24049 0.83892 0.0
O482 O 0.44485 0.265 0.82808 0.0
C483 C 0.47501 0.28894 0.86556 0.0
Fe484 Fe 0.73139 0.17349 0.87204 0.0
Fe485 Fe 0.73443 0.20021 0.91691 0.0
O486 O 0.74288 0.19184 0.89086 0.0
Fe487 Fe 0.76277 0.20176 0.88379 0.0
O488 O 0.76149 0.19423 0.83833 0.0
O489 O 0.73699 0.18088 0.82682 0.0
O490 O 0.71461 0.17567 0.86597 0.0
C491 C 0.71317 0.18734 0.86418 0.0
C492 C 0.75802 0.1731 0.89339 0.0
O493 O 0.72256 0.19952 0.87968 0.0
C494 C 0.75979 0.20775 0.95685 0.0
O495 O 0.72508 0.16504 0.91633 0.0
O496 O 0.71944 0.18215 0.93505 0.0
O497 O 0.76479 0.18669 0.90397 0.0
O498 O 0.74605 0.16794 0.8746 0.0
C499 C 0.75738 0.22538 0.87806 0.0
O500 O 0.74552 0.20122 0.95579 0.0
O501 O 0.76755 0.21111 0.92818 0.0
C502 C 0.71907 0.16961 0.93916 0.0
O503 O 0.74811 0.21994 0.90402 0.0
O504 O 0.76227 0.21759 0.86293 0.0
C505 C 0.75056 0.18865 0.81617 0.0
Fe506 Fe 0.80416 0.53527 0.91741 0.0
Fe507 Fe 0.8028 0.56229 0.88496 0.0
O508 O 0.8125 0.55206 0.89125 0.0
Fe509 Fe 0.8306 0.55872 0.87157 0.0
O510 O 0.82816 0.53971 0.86501 0.0
O511 O 0.80442 0.52392 0.87998 0.0
O512 O 0.78442 0.52951 0.90516 0.0
C513 C 0.77898 0.53341 0.87924 0.0
C514 C 0.83518 0.54989 0.93736 0.0
O515 O 0.7868 0.5461 0.86411 0.0
C516 C 0.83166 0.58588 0.89423 0.0
O517 O 0.80358 0.54551 0.95669 0.0
O518 O 0.79357 0.55761 0.92939 0.0
O519 O 0.83938 0.56074 0.91544 0.0
O520 O 0.8223 0.53801 0.93447 0.0
C521 C 0.81555 0.56339 0.81665 0.0
O522 O 0.81814 0.57919 0.90538 0.0
O523 O 0.83641 0.57899 0.87443 0.0
C524 C 0.79702 0.55324 0.95796 0.0
O525 O 0.81024 0.56879 0.83944 0.0
O526 O 0.82284 0.55701 0.8267 0.0
C527 C 0.81647 0.52659 0.86394 0.0
Fe528 Fe 0.40289 0.86814 0.7489 0.0
Fe529 Fe 0.39911 0.89243 0.70902 0.0
O530 O 0.41104 0.88592 0.72671 0.0
Fe531 Fe 0.43102 0.89715 0.72213 0.0
O532 O 0.43216 0.8822 0.69855 0.0
O533 O 0.41763 0.86369 0.73528 0.0
O534 O 0.39229 0.85808 0.70908 0.0
C535 C 0.3828 0.86079 0.69387 0.0
C536 C 0.42694 0.88555 0.79318 0.0
O537 O 0.38328 0.87336 0.69875 0.0
C538 C 0.42438 0.91957 0.73542 0.0
O539 O 0.38671 0.86933 0.76685 0.0
O540 O 0.39149 0.89236 0.75337 0.0
O541 O 0.43524 0.89156 0.76578 0.0
O542 O 0.41278 0.87699 0.79009 0.0
C543 C 0.41969 0.89964 0.65448 0.0
O544 O 0.41274 0.91276 0.7156 0.0
O545 O 0.43152 0.91304 0.74527 0.0
C546 C 0.38485 0.88057 0.77261 0.0
O547 O 0.40592 0.8927 0.66388 0.0
O548 O 0.43023 0.90467 0.6777 0.0
C549 C 0.42748 0.86901 0.71052 0.0
Fe550 Fe 0.13495 0.54199 0.74962 0.0
Fe551 Fe 0.11214 0.51289 0.70929 0.0
O552 O 0.11792 0.53152 0.72483 0.0
Fe553 Fe 0.1066 0.53987 0.71587 0.0
O554 O 0.12246 0.55946 0.71509 0.0
O555 O 0.14279 0.55723 0.71648 0.0
O556 O 0.1453 0.5339 0.72699 0.0
C557 C 0.14292 0.52641 0.69822 0.0
C558 C 0.11411 0.54822 0.78549 0.0
O559 O 0.12977 0.51915 0.68492 0.0
C560 C 0.08437 0.50911 0.72751 0.0
O561 O 0.12833 0.52766 0.7843 0.0
O562 O 0.11931 0.50758 0.74901 0.0
O563 O 0.10341 0.54102 0.76347 0.0
O564 O 0.12763 0.55182 0.77747 0.0
C565 C 0.10585 0.5271 0.65095 0.0
O566 O 0.09391 0.50482 0.7324 0.0
O567 O 0.08851 0.52206 0.7145 0.0
C568 C 0.12357 0.5137 0.77975 0.0
O569 O 0.10415 0.51527 0.66683 0.0
O570 O 0.10917 0.53906 0.66818 0.0
C571 C 0.13649 0.56489 0.70917 0.0
Fe572 Fe 0.46693 0.59846 0.74839 0.0
Fe573 Fe 0.49513 0.60234 0.70897 0.0
O574 O 0.47648 0.59041 0.72537 0.0
Fe575 Fe 0.46748 0.57048 0.71899 0.0
O576 O 0.4518 0.57009 0.69493 0.0
O577 O 0.44775 0.58411 0.73323 0.0
O578 O 0.46808 0.61001 0.70982 0.0
C579 C 0.48054 0.61961 0.69571 0.0
C580 C 0.45951 0.57352 0.79016 0.0
O581 O 0.49234 0.61853 0.69992 0.0
C582 C 0.49624 0.57646 0.73372 0.0
O583 O 0.48425 0.61414 0.76802 0.0
O584 O 0.50235 0.60922 0.75395 0.0
O585 O 0.45708 0.56565 0.76192 0.0
O586 O 0.46542 0.58774 0.78851 0.0
C587 C 0.48243 0.58265 0.65277 0.0
O588 O 0.50143 0.58837 0.71477 0.0
O589 O 0.48243 0.56928 0.74251 0.0
C590 C 0.49726 0.61575 0.77375 0.0
O591 O 0.48903 0.59628 0.66319 0.0
O592 O 0.4763 0.57178 0.67501 0.0
C593 C 0.44323 0.57457 0.70769 0.0
Fe594 Fe 0.56063 0.73267 0.12089 0.0
Fe595 Fe 0.56409 0.76424 0.11068 0.0
O596 O 0.55367 0.74436 0.10387 0.0
Fe597 Fe 0.53624 0.73603 0.08014 0.0
O598 O 0.52588 0.72435 0.11846 0.0
O599 O 0.54176 0.71604 0.12812 0.0
O600 O 0.55972 0.73832 0.16669 0.0
C601 C 0.56581 0.75189 0.1775 0.0
C602 C 0.55071 0.72032 0.05437 0.0
O603 O 0.57099 0.76285 0.15537 0.0
C604 C 0.55348 0.76118 0.03879 0.0
O605 O 0.58085 0.7471 0.1169 0.0
O606 O 0.58067 0.7659 0.08845 0.0
O607 O 0.53874 0.7209 0.0604 0.0
O608 O 0.56182 0.72633 0.07585 0.0
C609 C 0.53529 0.75923 0.12066 0.0
O610 O 0.55893 0.76905 0.06707 0.0
O611 O 0.54536 0.74695 0.04039 0.0
C612 C 0.5875 0.75902 0.09797 0.0
O613 O 0.54837 0.7642 0.1336 0.0
O614 O 0.5307 0.74983 0.09493 0.0
C615 C 0.52878 0.71475 0.13224 0.0
Fe616 Fe 0.26822 0.82629 0.12195 0.0
Fe617 Fe 0.23662 0.79823 0.11153 0.0
O618 O 0.25661 0.80748 0.10589 0.0
Fe619 Fe 0.26508 0.79809 0.08402 0.0
O620 O 0.27662 0.79986 0.12305 0.0
O621 O 0.28472 0.82409 0.13146 0.0
O622 O 0.26209 0.82028 0.16773 0.0
C623 C 0.2484 0.81353 0.17779 0.0
C624 C 0.28115 0.828 0.05654 0.0
O625 O 0.23762 0.80715 0.15528 0.0
C626 C 0.2402 0.78966 0.04111 0.0
O627 O 0.25395 0.83215 0.1156 0.0
O628 O 0.23532 0.81297 0.08727 0.0
O629 O 0.28039 0.81544 0.06361 0.0
O630 O 0.275 0.83332 0.07689 0.0
C631 C 0.24111 0.7743 0.12443 0.0
O632 O 0.23212 0.7877 0.06874 0.0
O633 O 0.25443 0.79584 0.04348 0.0
C634 C 0.24219 0.82678 0.09606 0.0
O635 O 0.23626 0.7827 0.13623 0.0
O636 O 0.25106 0.77895 0.09981 0.0
C637 C 0.28605 0.81249 0.13664 0.0
Fe638 Fe 0.1781 0.44326 0.12092 0.0
Fe639 Fe 0.20445 0.43695 0.11211 0.0
O640 O 0.19639 0.44857 0.10383 0.0
Fe641 Fe 0.20678 0.46536 0.07817 0.0
O642 O 0.19939 0.47622 0.10163 0.0
O643 O 0.18509 0.46107 0.14479 0.0
O644 O 0.18093 0.4354 0.16317 0.0
C645 C 0.19295 0.43711 0.17812 0.0
C646 C 0.17812 0.45444 0.05059 0.0
O647 O 0.20457 0.44006 0.15983 0.0
C648 C 0.21172 0.44371 0.04176 0.0
O649 O 0.16936 0.42488 0.09835 0.0
O650 O 0.18645 0.41913 0.11536 0.0
O651 O 0.19192 0.4588 0.04483 0.0
O652 O 0.17242 0.4504 0.08178 0.0
C653 C 0.23006 0.46655 0.11628 0.0
O654 O 0.20465 0.43327 0.06448 0.0
O655 O 0.21579 0.4574 0.0493 0.0
C656 C 0.17342 0.41516 0.10312 0.0
O657 O 0.22417 0.45245 0.11082 0.0
O658 O 0.22261 0.47316 0.10989 0.0
C659 C 0.19217 0.47409 0.13079 0.0
Fe660 Fe 0.2681 0.44389 0.62076 0.0
Fe661 Fe 0.26216 0.46585 0.57553 0.0
O662 O 0.25542 0.44937 0.60258 0.0
Fe663 Fe 0.2357 0.43821 0.61119 0.0
O664 O 0.23879 0.44184 0.65876 0.0
O665 O 0.25738 0.43665 0.66314 0.0
O666 O 0.27925 0.46194 0.64354 0.0
C667 C 0.28547 0.47477 0.62846 0.0
C668 C 0.24428 0.41586 0.60404 0.0
O669 O 0.28047 0.47664 0.59885 0.0
C670 C 0.2352 0.44418 0.54023 0.0
O671 O 0.28092 0.45031 0.58167 0.0
O672 O 0.2702 0.45856 0.54317 0.0
O673 O 0.23542 0.42018 0.61578 0.0
O674 O 0.25814 0.42531 0.59928 0.0
C675 C 0.24041 0.46815 0.61275 0.0
O676 O 0.24518 0.45786 0.54669 0.0
O677 O 0.23164 0.43401 0.56378 0.0
C678 C 0.27936 0.45392 0.54995 0.0
O679 O 0.25444 0.47438 0.60604 0.0
O680 O 0.23193 0.454 0.60855 0.0
C681 C 0.24726 0.43879 0.67758 0.0
Fe682 Fe 0.56138 0.82847 0.62095 0.0
Fe683 Fe 0.53673 0.80083 0.5806 0.0
O684 O 0.55417 0.80976 0.6043 0.0
Fe685 Fe 0.56441 0.8001 0.61132 0.0
O686 O 0.57155 0.80861 0.65579 0.0
O687 O 0.56034 0.82195 0.66684 0.0
O688 O 0.54267 0.82663 0.62793 0.0
C689 C 0.52953 0.81519 0.63186 0.0
C690 C 0.58803 0.82856 0.59803 0.0
O691 O 0.52642 0.80251 0.61868 0.0
C692 C 0.55379 0.79254 0.53961 0.0
O693 O 0.56271 0.83594 0.5758 0.0
O694 O 0.53953 0.8185 0.56035 0.0
O695 O 0.58106 0.81481 0.58871 0.0
O696 O 0.58152 0.83396 0.61702 0.0
C697 C 0.53551 0.77654 0.62153 0.0
O698 O 0.54582 0.79881 0.54106 0.0
O699 O 0.559 0.78988 0.56796 0.0
C700 C 0.55162 0.83094 0.55427 0.0
O701 O 0.53094 0.78144 0.59588 0.0
O702 O 0.5486 0.78462 0.63456 0.0
C703 C 0.56665 0.8147 0.6778 0.0
Fe704 Fe 0.17772 0.73575 0.61855 0.0
Fe705 Fe 0.20494 0.74259 0.56971 0.0
O706 O 0.19549 0.74882 0.59916 0.0
Fe707 Fe 0.20398 0.76838 0.60926 0.0
O708 O 0.20543 0.76465 0.65607 0.0
O709 O 0.18175 0.74604 0.66179 0.0
O710 O 0.18537 0.72476 0.63876 0.0
C711 C 0.19216 0.71908 0.62213 0.0
C712 C 0.17291 0.75945 0.60512 0.0
O713 O 0.19812 0.72414 0.59169 0.0
C714 C 0.20926 0.76974 0.53752 0.0
O715 O 0.17089 0.72323 0.57886 0.0
O716 O 0.18911 0.73473 0.53879 0.0
O717 O 0.18613 0.76824 0.61681 0.0
O718 O 0.16852 0.74563 0.59969 0.0
C719 C 0.22936 0.76401 0.60646 0.0
O720 O 0.2133 0.7599 0.54201 0.0
O721 O 0.20294 0.77295 0.56253 0.0
C722 C 0.17554 0.72517 0.54656 0.0
O723 O 0.22158 0.7501 0.59872 0.0
O724 O 0.22359 0.77247 0.60395 0.0
C725 C 0.19443 0.75561 0.67558 0.0
Fe726 Fe 0.13114 0.59379 0.25241 0.0
Fe727 Fe 0.10234 0.56755 0.22015 0.0
O728 O 0.11428 0.5873 0.22685 0.0
Fe729 Fe 0.10928 0.60032 0.20834 0.0
O730 O 0.12709 0.61056 0.18401 0.0
O731 O 0.14206 0.61174 0.22795 0.0
O732 O 0.13866 0.58521 0.2214 0.0
C733 C 0.13181 0.57109 0.21535 0.0
C734 C 0.12057 0.6121 0.27819 0.0
O735 O 0.11769 0.56309 0.22116 0.0
C736 C 0.08119 0.57753 0.22936 0.0
O737 O 0.12322 0.57716 0.28233 0.0
O738 O 0.09904 0.56424 0.26795 0.0
O739 O 0.11674 0.61357 0.2466 0.0
O740 O 0.12482 0.60263 0.285 0.0
C741 C 0.10223 0.57837 0.15314 0.0
O742 O 0.08464 0.56801 0.21765 0.0
O743 O 0.09103 0.5914 0.23129 0.0
C744 C 0.10958 0.5676 0.2903 0.0
O745 O 0.10496 0.56978 0.17231 0.0
O746 O 0.10106 0.58919 0.16687 0.0
C747 C 0.14007 0.61659 0.19827 0.0
Fe748 Fe 0.40891 0.53676 0.25783 0.0
Fe749 Fe 0.43552 0.53616 0.2216 0.0
O750 O 0.4158 0.52743 0.22979 0.0
Fe751 Fe 0.4032 0.50959 0.21014 0.0
O752 O 0.39226 0.51695 0.18834 0.0
O753 O 0.39058 0.52934 0.23479 0.0
O754 O 0.41635 0.55312 0.228 0.0
C755 C 0.43021 0.56084 0.21974 0.0
C756 C 0.39183 0.50743 0.2814 0.0
O757 O 0.43902 0.55561 0.22518 0.0
C758 C 0.42696 0.50514 0.22615 0.0
O759 O 0.42592 0.54576 0.28654 0.0
O760 O 0.43937 0.53545 0.26896 0.0
O761 O 0.39025 0.5027 0.24918 0.0
O762 O 0.4011 0.5211 0.28917 0.0
C763 C 0.42416 0.52624 0.1543 0.0
O764 O 0.43591 0.51852 0.21574 0.0
O765 O 0.41305 0.50061 0.23044 0.0
C766 C 0.43577 0.54188 0.29284 0.0
O767 O 0.43264 0.5373 0.17426 0.0
O768 O 0.41405 0.51368 0.16761 0.0
C769 C 0.386 0.52334 0.20418 0.0
Fe770 Fe 0.46739 0.86801 0.25164 0.0
Fe771 Fe 0.46718 0.89615 0.22248 0.0
O772 O 0.47645 0.88545 0.22789 0.0
Fe773 Fe 0.4948 0.89218 0.20956 0.0
O774 O 0.49199 0.87319 0.20066 0.0
O775 O 0.46792 0.85747 0.21275 0.0
O776 O 0.44793 0.86292 0.23858 0.0
C777 C 0.44299 0.8676 0.21323 0.0
C778 C 0.49817 0.88143 0.27391 0.0
O779 O 0.4512 0.88059 0.19989 0.0
C780 C 0.49608 0.91919 0.23452 0.0
O781 O 0.46646 0.87737 0.29206 0.0
O782 O 0.45763 0.89089 0.26648 0.0
O783 O 0.50285 0.89292 0.25379 0.0
O784 O 0.48512 0.86992 0.26934 0.0
C785 C 0.4807 0.89825 0.15467 0.0
O786 O 0.48243 0.91253 0.24454 0.0
O787 O 0.50104 0.91246 0.21485 0.0
C788 C 0.4605 0.88562 0.29442 0.0
O789 O 0.47512 0.90331 0.17763 0.0
O790 O 0.48783 0.89167 0.16444 0.0
C791 C 0.48013 0.86031 0.19728 0.0
C792 C 0.09568 0.18005 0.04508 0.0
C793 C 0.10054 0.19472 0.03172 0.0
C794 C 0.10382 0.17263 0.03727 0.0
C795 C 0.13421 0.1747 0.97675 0.0
H796 H 0.14079 0.15287 0.05377 0.0
C797 C 0.18614 0.16703 0.98712 0.0
C798 C 0.18302 0.1521 0.98048 0.0
C799 C 0.17443 0.16999 0.99444 0.0
C800 C 0.13885 0.15876 0.03197 0.0
H801 H 0.11764 0.21293 -0.001 0.0
H802 H 0.13195 0.20029 0.98631 0.0
H803 H 0.12308 0.16232 0.06268 0.0
H804 H 0.16511 0.12849 0.97858 0.0
H805 H 0.14455 0.13379 0.9925 0.0
H806 H 0.15071 0.17189 0.94701 0.0
C807 C 0.12168 0.19428 0.00214 0.0
C808 C 0.12868 0.16413 0.0369 0.0
C809 C 0.11349 0.20162 0.00967 0.0
C810 C 0.16791 0.14011 0.98348 0.0
C811 C 0.15616 0.1431 0.99141 0.0
C812 C 0.1445 0.16954 0.97209 0.0
C813 C 0.11706 0.17974 0.01606 0.0
C814 C 0.12648 0.17247 0.00959 0.0
C815 C 0.15935 0.15811 0.99598 0.0
C816 C 0.14707 0.16176 -0.00017 0.0
H817 H 0.0857 0.17436 0.06201 0.0
H818 H 0.09978 0.16135 0.04802 0.0
H819 H 0.13256 0.18071 0.95477 0.0
H820 H 0.1976 0.17657 0.98512 0.0
H821 H 0.1771 0.18165 -0.00195 0.0
C822 C 0.84007 0.02401 0.00117 0.0
C823 C 0.8527 0.03362 0.97985 0.0
C824 C 0.83744 0.00965 0.01125 0.0
C825 C 0.8439 0.97958 0.97898 0.0
H826 H 0.82915 0.96189 0.07313 0.0
C827 C 0.80882 0.91503 0.00572 0.0
C828 C 0.8119 0.9094 0.03722 0.0
C829 C 0.81625 0.93064 -0.00101 0.0
C830 C 0.83342 0.96672 0.04682 0.0
H831 H 0.87281 0.03589 0.95365 0.0
H832 H 0.86808 0.01071 0.97101 0.0
H833 H 0.83788 0.98879 0.06321 0.0
H834 H 0.82563 0.91574 0.0857 0.0
H835 H 0.83848 0.94301 0.07401 0.0
H836 H 0.83903 0.95741 0.96233 0.0
C837 C 0.86023 0.01433 0.97981 0.0
C838 C 0.8383 0.98207 0.04109 0.0
C839 C 0.86298 0.02878 0.9701 0.0
C840 C 0.82299 0.91969 0.06117 0.0
C841 C 0.83028 0.93532 0.05463 0.0
C842 C 0.83885 0.96418 0.9846 0.0
C843 C 0.84728 0.00452 -9e-05 0.0
C844 C 0.84342 0.98862 0.00701 0.0
C845 C 0.8268 0.94097 0.02378 0.0
C846 C 0.83339 0.95755 0.01847 0.0
H847 H 0.83197 0.02742 0.00924 0.0
H848 H 0.82731 0.00231 0.02657 0.0
H849 H 0.84765 0.98428 0.95234 0.0
H850 H 0.80038 0.90741 0.98667 0.0
H851 H 0.81326 0.93467 0.97509 0.0
C852 C 0.08872 0.89118 0.00051 0.0
C853 C 0.09413 0.90167 0.02905 0.0
C854 C 0.07314 0.88235 0.99378 0.0
C855 C 0.03987 0.87014 0.975 0.0
H856 H 0.01351 0.85115 0.05709 0.0
C857 C 0.97526 0.83331 0.9577 0.0
C858 C 0.96822 0.81916 0.9753 0.0
C859 C 0.99011 0.8444 0.96626 0.0
C860 C 0.02073 0.85635 0.03391 0.0
H861 H 0.08735 0.91144 0.07211 0.0
H862 H 0.06015 0.89604 0.06019 0.0
H863 H 0.04058 0.86882 0.06656 0.0
H864 H 0.97108 0.80595 0.01719 0.0
H865 H 0.99709 0.82538 0.03215 0.0
H866 H 0.02017 0.85746 0.94227 0.0
C867 C 0.06799 0.89457 0.0433 0.0
C868 C 0.0362 0.86659 0.03934 0.0
C869 C 0.08359 0.90348 0.04988 0.0
C870 C 0.97615 0.8167 0.00307 0.0
C871 C 0.99105 0.82785 0.01169 0.0
C872 C 0.02442 0.86 0.96959 0.0
C873 C 0.06257 0.88373 0.01551 0.0
C874 C 0.04598 0.87351 0.00991 0.0
C875 C 0.99833 0.84168 0.99273 0.0
C876 C 0.01466 0.8529 -0.00105 0.0
H877 H 0.0965 0.88948 0.9839 0.0
H878 H 0.06935 0.87404 0.97231 0.0
H879 H 0.04707 0.87535 0.95178 0.0
H880 H 0.96947 0.83569 0.93642 0.0
H881 H 0.99526 0.85504 0.95167 0.0
C882 C 0.14002 0.16681 0.52586 0.0
C883 C 0.14998 0.18171 0.51408 0.0
C884 C 0.14259 0.15495 0.51647 0.0
C885 C 0.1593 0.13685 0.51659 0.0
H886 H 0.17205 0.13229 0.42132 0.0
C887 C 0.19493 0.10806 0.48863 0.0
C888 C 0.19138 0.09877 0.458 0.0
C889 C 0.18735 0.11609 0.49544 0.0
C890 C 0.16834 0.13329 0.44798 0.0
H891 H 0.16985 0.19567 0.48141 0.0
H892 H 0.17416 0.17495 0.4646 0.0
H893 H 0.16297 0.1502 0.43088 0.0
H894 H 0.1767 0.09023 0.41121 0.0
H895 H 0.16358 0.1044 0.42303 0.0
H896 H 0.16509 0.12027 0.53389 0.0
C897 C 0.16444 0.17245 0.48126 0.0
C898 C 0.16325 0.14361 0.45348 0.0
C899 C 0.16201 0.18432 0.49103 0.0
C900 C 0.17972 0.09729 0.43504 0.0
C901 C 0.17226 0.10547 0.44165 0.0
C902 C 0.16455 0.12665 0.51117 0.0
C903 C 0.15501 0.15772 0.49465 0.0
C904 C 0.15887 0.14565 0.48793 0.0
C905 C 0.17616 0.11513 0.47162 0.0
C906 C 0.16931 0.12491 0.4769 0.0
H907 H 0.13067 0.16443 0.54373 0.0
H908 H 0.13506 0.14368 0.52689 0.0
H909 H 0.15613 0.13828 0.54351 0.0
H910 H 0.20381 0.1094 0.50693 0.0
H911 H 0.19068 0.12353 0.51862 0.0
C912 C 0.90622 0.08539 0.4351 0.0
C913 C 0.90543 0.09564 0.45918 0.0
C914 C 0.89775 0.06973 0.44129 0.0
C915 C 0.86937 0.0383 0.44859 0.0
H916 H 0.86609 0.02049 0.54274 0.0
C917 C 0.81902 0.98053 0.49346 0.0
C918 C 0.8222 0.97096 0.51449 0.0
C919 C 0.83063 0.99499 0.48358 0.0
C920 C 0.86701 0.02526 0.51619 0.0
H921 H 0.89574 0.09753 0.50956 0.0
H922 H 0.88116 0.07022 0.5206 0.0
H923 H 0.88422 0.04743 0.53318 0.0
H924 H 0.84021 0.96887 0.54038 0.0
H925 H 0.86044 0.99421 0.52336 0.0
H926 H 0.85185 0.01622 0.43188 0.0
C927 C 0.88825 0.0743 0.49684 0.0
C928 C 0.8773 0.0407 0.51081 0.0
C929 C 0.89655 0.08993 0.49043 0.0
C930 C 0.83736 0.97594 0.52412 0.0
C931 C 0.84894 0.99049 0.51462 0.0
C932 C 0.85895 0.0229 0.45408 0.0
C933 C 0.88851 0.06402 0.47195 0.0
C934 C 0.87848 0.04741 0.47705 0.0
C935 C 0.84564 1.00027 0.49484 0.0
C936 C 0.85756 0.01626 0.48804 0.0
H937 H 0.91292 0.0894 0.41073 0.0
H938 H 0.89826 0.06207 0.42183 0.0
H939 H 0.86994 0.04319 0.42235 0.0
H940 H 0.80747 0.97703 0.48553 0.0
H941 H 0.82772 0.0023 0.4685 0.0
C942 C 0.91883 0.82226 0.44533 0.0
C943 C 0.90841 0.80972 0.46585 0.0
C944 C 0.93443 0.82928 0.45234 0.0
C945 C 0.9665 0.83399 0.45685 0.0
H946 H 0.98211 0.84009 0.55424 0.0
C947 C 0.02631 0.84384 0.49307 0.0
C948 C 0.03407 0.85364 0.5219 0.0
C949 C 0.01152 0.84037 0.48426 0.0
C950 C 0.97799 0.83864 0.52684 0.0
H951 H 0.90623 0.79519 0.51091 0.0
H952 H 0.93335 0.80743 0.52312 0.0
H953 H 0.95521 0.83091 0.54431 0.0
H954 H 0.03269 0.86826 0.5625 0.0
H955 H 0.00708 0.86236 0.54684 0.0
H956 H 0.98932 0.8417 0.43943 0.0
C957 C 0.92948 0.81186 0.50162 0.0
C958 C 0.96253 0.83321 0.52117 0.0
C959 C 0.91391 0.80479 0.49451 0.0
C960 C 0.02701 0.86053 0.54038 0.0
C961 C 0.01227 0.85708 0.53157 0.0
C962 C 0.98198 0.83938 0.46252 0.0
C963 C 0.93995 0.82401 0.48021 0.0
C964 C 0.95656 0.8307 0.48614 0.0
C965 C 0.00418 0.84665 0.50405 0.0
C966 C 0.9879 0.84167 0.49761 0.0
H967 H 0.91501 0.82637 0.42306 0.0
H968 H 0.94218 0.83875 0.4357 0.0
H969 H 0.96225 0.83203 0.42952 0.0
H970 H 0.03139 0.83833 0.47827 0.0
H971 H 0.00559 0.83224 0.463 0.0
C972 C 0.91022 0.82645 0.95975 0.0
C973 C 0.90292 0.81069 0.96557 0.0
C974 C 0.9031 0.8347 0.96974 0.0
C975 C 0.87146 0.83183 0.02594 0.0
H976 H 0.86821 0.85764 0.95381 0.0
C977 C 0.81987 0.83914 0.01291 0.0
C978 C 0.82232 0.8537 0.02119 0.0
C979 C 0.83209 0.83688 0.00635 0.0
C980 C 0.86926 0.85067 0.97436 0.0
H981 H 0.88283 0.79136 0.98788 0.0
H982 H 0.87053 0.80554 0.00493 0.0
H983 H 0.88604 0.84827 0.94468 0.0
H984 H 0.83955 0.87746 0.02661 0.0
H985 H 0.86101 0.87341 0.01415 0.0
H986 H 0.85399 0.83341 0.05438 0.0
C987 C 0.88172 0.81166 0.99293 0.0
C988 C 0.87948 0.84536 0.96929 0.0
C989 C 0.88873 0.80348 0.9828 0.0
C990 C 0.83728 0.8661 0.02049 0.0
C991 C 0.84955 0.86383 0.01337 0.0
C992 C 0.8612 0.83698 0.03075 0.0
C993 C 0.88869 0.82733 0.98615 0.0
C994 C 0.88027 0.83543 0.99447 0.0
C995 C 0.84701 0.84912 0.00729 0.0
C996 C 0.8597 0.84605 0.00454 0.0
H997 H 0.92116 0.83231 0.94647 0.0
H998 H 0.90877 0.84677 0.96433 0.0
H999 H 0.87204 0.82448 0.0462 0.0
H1000 H 0.80854 0.82933 0.01304 0.0
H1001 H 0.82991 0.82545 0.00146 0.0
C1002 C 0.14068 0.97402 0.01941 0.0
C1003 C 0.15076 0.96878 0.0109 0.0
C1004 C 0.14429 0.98887 0.01069 0.0
C1005 C 0.15268 0.01992 0.97812 0.0
H1006 H 0.19499 0.04978 0.99448 0.0
C1007 C 0.18009 0.0839 0.93949 0.0
C1008 C 0.19175 0.09453 0.96179 0.0
C1009 C 0.17348 0.06829 0.94617 0.0
C1010 C 0.1831 0.04165 0.99014 0.0
H1011 H 0.17192 0.97463 0.98398 0.0
H1012 H 0.178 1.00027 0.96808 0.0
H1013 H 0.18646 0.02304 0.00249 0.0
H1014 H 0.20478 0.09712 0.01014 0.0
H1015 H 0.19309 0.07005 0.02217 0.0
H1016 H 0.14935 0.03874 0.96646 0.0
C1017 C 0.16754 0.99312 0.98249 0.0
C1018 C 0.17824 0.02624 0.99417 0.0
C1019 C 0.16399 0.97836 0.99138 0.0
C1020 C 0.19598 0.08924 0.99212 0.0
C1021 C 0.18934 0.0737 -0.00111 0.0
C1022 C 0.15756 0.03542 0.97404 0.0
C1023 C 0.15802 0.99876 0.99312 0.0
C1024 C 0.16299 0.01515 0.98811 0.0
C1025 C 0.17835 0.06299 0.97539 0.0
C1026 C 0.17285 0.04648 0.98012 0.0
H1027 H 0.1304 0.96695 0.03452 0.0
H1028 H 0.1367 0.99284 0.01936 0.0
H1029 H 0.14086 0.01169 0.97311 0.0
H1030 H 0.17657 0.08758 0.91586 0.0
H1031 H 0.16509 0.06038 0.92746 0.0
C1032 C 0.0238 0.18406 0.98978 0.0
C1033 C 0.03331 0.18138 0.01235 0.0
C1034 C 0.0094 0.17224 0.98032 0.0
C1035 C 0.98151 0.14349 0.95298 0.0
H1036 H 0.9567 0.12012 0.03383 0.0
C1037 C 0.91857 0.09735 0.93577 0.0
C1038 C 0.90851 0.09882 0.95915 0.0
C1039 C 0.93424 0.10546 0.94204 0.0
C1040 C 0.96351 0.12651 0.01098 0.0
H1041 H 0.03539 0.16401 0.04143 0.0
H1042 H 0.01011 0.14335 0.02513 0.0
H1043 H 0.98375 0.13805 0.04277 0.0
H1044 H 0.90697 0.10937 0.0085 0.0
H1045 H 0.93429 0.12339 0.01959 0.0
H1046 H 0.96121 0.13226 0.92138 0.0
C1047 C 0.01385 0.15464 0.01484 0.0
C1048 C 0.97901 0.13666 0.01601 0.0
C1049 C 0.02836 0.16645 0.02392 0.0
C1050 C 0.91441 0.10803 0.98988 0.0
C1051 C 0.93006 0.116 0.99634 0.0
C1052 C 0.96605 0.13322 0.94786 0.0
C1053 C 0.00411 0.15748 0.99354 0.0
C1054 C 0.98811 0.14547 0.9872 0.0
C1055 C 0.94016 0.11506 0.97207 0.0
C1056 C 0.95683 0.12482 0.97694 0.0
H1057 H 0.02729 0.19543 0.98036 0.0
H1058 H 0.00213 0.1748 0.96406 0.0
H1059 H 0.98826 0.15008 0.93027 0.0
H1060 H 0.91442 0.09036 0.91186 0.0
H1061 H 0.94174 0.1044 0.92309 0.0
C1062 C 0.84001 0.81802 0.501 0.0
C1063 C 0.8527 0.82101 0.47996 0.0
C1064 C 0.83728 0.82974 0.51059 0.0
C1065 C 0.84359 0.86619 0.47778 0.0
H1066 H 0.8293 0.86957 0.57216 0.0
C1067 C 0.80911 0.89636 0.50503 0.0
C1068 C 0.81249 0.90528 0.53628 0.0
C1069 C 0.81631 0.88796 0.49824 0.0
C1070 C 0.83342 0.86888 0.54577 0.0
H1071 H 0.87276 0.83878 0.45351 0.0
H1072 H 0.86786 0.85923 0.46995 0.0
H1073 H 0.83784 0.85125 0.56226 0.0
H1074 H 0.82651 0.91275 0.58429 0.0
H1075 H 0.83896 0.89792 0.57254 0.0
H1076 H 0.83875 0.88351 0.46103 0.0
C1077 C 0.86005 0.84779 0.47899 0.0
C1078 C 0.83821 0.85832 0.54005 0.0
C1079 C 0.8629 0.83609 0.46983 0.0
C1080 C 0.82365 0.90602 0.55993 0.0
C1081 C 0.83071 0.89745 0.55337 0.0
C1082 C 0.83862 0.87661 0.48338 0.0
C1083 C 0.84707 0.84469 0.49899 0.0
C1084 C 0.8432 0.85675 0.50592 0.0
C1085 C 0.82694 0.88815 0.52274 0.0
C1086 C 0.83334 0.87797 0.51735 0.0
H1087 H 0.83195 0.80654 0.50931 0.0
H1088 H 0.82714 0.82699 0.52583 0.0
H1089 H 0.84724 0.86514 0.4511 0.0
H1090 H 0.8006 0.89557 0.48621 0.0
H1091 H 0.81311 0.88082 0.47452 0.0
C1092 C 0.18501 0.02633 0.50995 0.0
C1093 C 0.18171 0.03429 0.48401 0.0
C1094 C 0.17377 0.01201 0.52156 0.0
C1095 C 0.15314 0.9784 0.51649 0.0
H1096 H 0.10995 0.96396 0.52236 0.0
C1097 C 0.11134 0.91509 0.51439 0.0
C1098 C 0.09944 0.90931 0.53946 0.0
C1099 C 0.11971 0.9306 0.50747 0.0
C1100 C 0.12199 0.96785 0.52108 0.0
H1101 H 0.16384 0.03391 0.4514 0.0
H1102 H 0.14432 0.00867 0.47068 0.0
H1103 H 0.12788 0.99117 0.51539 0.0
H1104 H 0.08635 0.91502 0.57557 0.0
H1105 H 0.10134 0.94246 0.56419 0.0
H1106 H 0.14747 0.95533 0.52293 0.0
C1107 C 0.15549 0.01358 0.48268 0.0
C1108 C 0.13226 0.98342 0.51679 0.0
C1109 C 0.16671 0.02805 0.47151 0.0
C1110 C 0.09545 0.91924 0.556 0.0
C1111 C 0.10404 0.93492 0.54947 0.0
C1112 C 0.14296 0.96296 0.52096 0.0
C1113 C 0.15903 0.00517 0.50693 0.0
C1114 C 0.14797 0.98886 0.51415 0.0
C1115 C 0.11661 0.9408 0.52605 0.0
C1116 C 0.12724 0.95743 0.5227 0.0
H1117 H 0.19642 0.03097 0.52044 0.0
H1118 H 0.1768 0.00608 0.5411 0.0
H1119 H 0.1651 0.98204 0.51395 0.0
H1120 H 0.1145 0.90762 0.50095 0.0
H1121 H 0.12897 0.93467 0.48837 0.0
C1122 C 0.97615 0.14155 0.4712 0.0
C1123 C 0.97089 0.15135 0.48223 0.0
C1124 C 0.99078 0.14465 0.48035 0.0
C1125 C 0.02558 0.16212 0.47882 0.0
H1126 H 0.04327 0.1757 0.57348 0.0
C1127 C 0.09021 0.19778 0.50553 0.0
C1128 C 0.09596 0.19412 0.53597 0.0
C1129 C 0.07457 0.1904 0.49906 0.0
C1130 C 0.03845 0.17178 0.54699 0.0
H1131 H 0.97651 0.17153 0.51334 0.0
H1132 H 0.00191 0.17677 0.5298 0.0
H1133 H 0.01619 0.16635 0.56439 0.0
H1134 H 0.08978 0.17948 0.58286 0.0
H1135 H 0.06248 0.16675 0.57165 0.0
H1136 H 0.04793 0.16795 0.46119 0.0
C1137 C 0.99477 0.16676 0.51388 0.0
C1138 C 0.02299 0.16654 0.54176 0.0
C1139 C 0.98024 0.16379 0.50434 0.0
C1140 C 0.08574 0.18259 0.55915 0.0
C1141 C 0.0701 0.17535 0.5529 0.0
C1142 C 0.04108 0.16755 0.48395 0.0
C1143 C 1.00034 0.15746 0.50117 0.0
C1144 C 0.01642 0.16179 0.50755 0.0
C1145 C 0.06434 0.17932 0.52307 0.0
C1146 C 0.04771 0.17257 0.51801 0.0
H1147 H 0.96926 0.13189 0.45406 0.0
H1148 H 0.99474 0.13721 0.47048 0.0
H1149 H 0.02086 0.15867 0.45207 0.0
H1150 H 0.09776 0.20657 0.48709 0.0
H1151 H 0.07044 0.19377 0.47596 0.0
C1152 C 0.77948 0.53257 0.34017 0.0
C1153 C 0.76764 0.52647 0.3656 0.0
C1154 C 0.78831 0.5258 0.33415 0.0
C1155 C 0.79027 0.49087 0.34482 0.0
H1156 H 0.83374 0.51884 0.34379 0.0
C1157 C 0.83489 0.47581 0.29261 0.0
C1158 C 0.84898 0.4822 0.31043 0.0
C1159 C 0.8239 0.47948 0.30309 0.0
C1160 C 0.82164 0.51085 0.34442 0.0
H1161 H 0.75531 0.50793 0.40314 0.0
H1162 H 0.77075 0.49604 0.39229 0.0
H1163 H 0.81639 0.52851 0.35293 0.0
H1164 H 0.86213 0.49674 0.35475 0.0
H1165 H 0.84294 0.50311 0.37299 0.0
H1166 H 0.79561 0.4732 0.33597 0.0
C1167 C 0.77317 0.50612 0.37722 0.0
C1168 C 0.8117 0.51641 0.34919 0.0
C1169 C 0.76435 0.51296 0.38344 0.0
C1170 C 0.85147 0.49168 0.34025 0.0
C1171 C 0.84051 0.49541 0.35059 0.0
C1172 C 0.80025 0.48529 0.33971 0.0
C1173 C 0.78549 0.51272 0.3532 0.0
C1174 C 0.7959 0.50652 0.34911 0.0
C1175 C 0.82677 0.48966 0.33153 0.0
C1176 C 0.81605 0.49525 0.33928 0.0
H1177 H 0.78226 0.54287 0.32563 0.0
H1178 H 0.79753 0.53097 0.31493 0.0
H1179 H 0.77815 0.48299 0.3446 0.0
H1180 H 0.83255 0.4684 0.26964 0.0
H1181 H 0.81347 0.47492 0.28776 0.0
C1182 C 0.51002 0.35628 0.33708 0.0
C1183 C 0.52191 0.36564 0.31367 0.0
C1184 C 0.50755 0.34192 0.34655 0.0
C1185 C 0.51218 0.31135 0.30986 0.0
H1186 H 0.49958 0.29379 0.40494 0.0
C1187 C 0.47562 0.24695 0.33676 0.0
C1188 C 0.47896 0.24095 0.36723 0.0
C1189 C 0.48354 0.26258 0.33013 0.0
C1190 C 0.50325 0.29857 0.37833 0.0
H1191 H 0.54097 0.36754 0.2831 0.0
H1192 H 0.53652 0.34234 0.29946 0.0
H1193 H 0.50898 0.32087 0.39606 0.0
H1194 H 0.49368 0.24665 0.41386 0.0
H1195 H 0.50741 0.27395 0.40233 0.0
H1196 H 0.50602 0.28895 0.29193 0.0
C1197 C 0.52912 0.34615 0.31039 0.0
C1198 C 0.50853 0.31404 0.37322 0.0
C1199 C 0.53173 0.36062 0.30127 0.0
C1200 C 0.49081 0.25089 0.39014 0.0
C1201 C 0.49862 0.26653 0.38371 0.0
C1202 C 0.50675 0.29584 0.3149 0.0
C1203 C 0.51681 0.33654 0.33252 0.0
C1204 C 0.51284 0.32055 0.33883 0.0
C1205 C 0.49488 0.27257 0.35398 0.0
C1206 C 0.50202 0.28925 0.34909 0.0
H1207 H 0.50229 0.35984 0.34717 0.0
H1208 H 0.49791 0.33474 0.36347 0.0
H1209 H 0.51529 0.31601 0.28298 0.0
H1210 H 0.4666 0.23962 0.3185 0.0
H1211 H 0.48034 0.2669 0.30713 0.0
C1212 C 0.64583 0.15107 0.33525 0.0
C1213 C 0.6363 0.15388 0.31309 0.0
C1214 C 0.66029 0.16282 0.3446 0.0
C1215 C 0.68822 0.19157 0.37213 0.0
H1216 H 0.71294 0.21516 0.29136 0.0
C1217 C 0.7508 0.23852 0.38958 0.0
C1218 C 0.76105 0.23721 0.36649 0.0
C1219 C 0.73516 0.23016 0.38314 0.0
C1220 C 0.70615 0.20871 0.31417 0.0
H1221 H 0.63427 0.1714 0.28456 0.0
H1222 H 0.65963 0.19191 0.30066 0.0
H1223 H 0.68593 0.19705 0.28237 0.0
H1224 H 0.76293 0.2267 0.31746 0.0
H1225 H 0.73564 0.21225 0.30602 0.0
H1226 H 0.7085 0.20298 0.40377 0.0
C1227 C 0.65586 0.18058 0.31072 0.0
C1228 C 0.69068 0.19844 0.30912 0.0
C1229 C 0.6413 0.16886 0.30178 0.0
C1230 C 0.75535 0.22792 0.33584 0.0
C1231 C 0.73972 0.2197 0.32919 0.0
C1232 C 0.70365 0.20197 0.37728 0.0
C1233 C 0.66561 0.17762 0.33164 0.0
C1234 C 0.68162 0.18959 0.33792 0.0
C1235 C 0.72945 0.22046 0.35322 0.0
C1236 C 0.71283 0.21046 0.34824 0.0
H1237 H 0.6423 0.13967 0.34445 0.0
H1238 H 0.66757 0.16017 0.36058 0.0
H1239 H 0.68149 0.18494 0.39482 0.0
H1240 H 0.75479 0.24557 0.41344 0.0
H1241 H 0.72751 0.23108 0.4019 0.0
C1242 C 0.85028 0.43068 0.77497 0.0
C1243 C 0.8624 0.43252 0.79679 0.0
C1244 C 0.84301 0.43902 0.78168 0.0
C1245 C 0.83884 0.46671 0.78678 0.0
H1246 H 0.82794 0.47279 0.88281 0.0
C1247 C 0.83009 0.51672 0.82658 0.0
C1248 C 0.81816 0.51383 0.85024 0.0
C1249 C 0.83329 0.50525 0.81778 0.0
C1250 C 0.83076 0.47106 0.85578 0.0
H1251 H 0.8759 0.44408 0.8438 0.0
H1252 H 0.86306 0.45852 0.85574 0.0
H1253 H 0.83764 0.45534 0.87359 0.0
H1254 H 0.79986 0.49647 0.88219 0.0
H1255 H 0.80558 0.47643 0.86701 0.0
H1256 H 0.83233 0.48272 0.76909 0.0
C1257 C 0.85925 0.45065 0.83334 0.0
C1258 C 0.83645 0.46119 0.85057 0.0
C1259 C 0.86665 0.44243 0.8264 0.0
C1260 C 0.80909 0.49904 0.86374 0.0
C1261 C 0.81244 0.48761 0.85532 0.0
C1262 C 0.83334 0.47672 0.79205 0.0
C1263 C 0.84755 0.44925 0.81064 0.0
C1264 C 0.84066 0.459 0.81606 0.0
C1265 C 0.82475 0.49068 0.83278 0.0
C1266 C 0.82937 0.4791 0.82665 0.0
H1267 H 0.8467 0.42314 0.75194 0.0
H1268 H 0.83393 0.43759 0.76397 0.0
H1269 H 0.84211 0.46536 0.75991 0.0
H1270 H 0.83728 0.52799 0.81571 0.0
H1271 H 0.84291 0.50799 0.8005 0.0
C1272 C 0.4838 0.31273 0.83003 0.0
C1273 C 0.48739 0.30341 0.85086 0.0
C1274 C 0.49502 0.3274 0.82064 0.0
C1275 C 0.53659 0.35425 0.81675 0.0
H1276 H 0.5239 0.3841 0.83014 0.0
C1277 C 0.57274 0.41782 0.77475 0.0
C1278 C 0.5717 0.42859 0.79652 0.0
C1279 C 0.56382 0.40228 0.78214 0.0
C1280 C 0.52771 0.37596 0.82662 0.0
H1281 H 0.50579 0.30191 0.87632 0.0
H1282 H 0.52541 0.3277 0.86027 0.0
H1283 H 0.50576 0.35741 0.83934 0.0
H1284 H 0.56137 0.43152 0.84466 0.0
H1285 H 0.54612 0.40455 0.85785 0.0
H1286 H 0.5587 0.37302 0.80466 0.0
C1287 C 0.5139 0.32358 0.85101 0.0
C1288 C 0.51722 0.36059 0.83134 0.0
C1289 C 0.50265 0.3088 0.86026 0.0
C1290 C 0.56227 0.42353 0.82701 0.0
C1291 C 0.55346 0.40805 0.83447 0.0
C1292 C 0.54714 0.36971 0.81195 0.0
C1293 C 0.51011 0.3332 0.83204 0.0
C1294 C 0.52148 0.34952 0.82636 0.0
C1295 C 0.55375 0.3972 0.81153 0.0
C1296 C 0.54282 0.38074 0.81697 0.0
H1297 H 0.4722 0.30885 0.82187 0.0
H1298 H 0.49177 0.33436 0.80518 0.0
H1299 H 0.54022 0.346 0.81259 0.0
H1300 H 0.57989 0.42135 0.75105 0.0
H1301 H 0.56429 0.39423 0.76386 0.0
C1302 C 0.5847 0.15493 0.76659 0.0
C1303 C 0.57438 0.1435 0.78982 0.0
C1304 C 0.60032 0.1623 0.77349 0.0
C1305 C 0.63201 0.16607 0.78152 0.0
H1306 H 0.6488 0.17915 0.87712 0.0
C1307 C 0.68952 0.17331 0.82734 0.0
C1308 C 0.69885 0.18569 0.84962 0.0
C1309 C 0.67511 0.17052 0.81723 0.0
C1310 C 0.64432 0.17572 0.85018 0.0
H1311 H 0.57233 0.13139 0.83945 0.0
H1312 H 0.59955 0.1444 0.85167 0.0
H1313 H 0.62187 0.17012 0.86646 0.0
H1314 H 0.70055 0.2052 0.87766 0.0
H1315 H 0.67525 0.2002 0.86027 0.0
H1316 H 0.65435 0.17126 0.76548 0.0
C1317 C 0.59556 0.1476 0.82805 0.0
C1318 C 0.62888 0.17044 0.84417 0.0
C1319 C 0.57997 0.14009 0.82093 0.0
C1320 C 0.69367 0.19558 0.86042 0.0
C1321 C 0.67915 0.19266 0.8507 0.0
C1322 C 0.64739 0.17119 0.78764 0.0
C1323 C 0.60592 0.15856 0.80404 0.0
C1324 C 0.62253 0.16538 0.80987 0.0
C1325 C 0.66962 0.17996 0.82951 0.0
C1326 C 0.65367 0.17589 0.82213 0.0
H1327 H 0.58078 0.15782 0.74237 0.0
H1328 H 0.60803 0.17081 0.7547 0.0
H1329 H 0.62741 0.16213 0.75487 0.0
H1330 H 0.6932 0.16551 0.81846 0.0
H1331 H 0.668 0.16059 0.80108 0.0
C1332 C 0.56068 0.13795 0.32281 0.0
C1333 C 0.57009 0.1422 0.29229 0.0
C1334 C 0.55188 0.14466 0.33002 0.0
C1335 C 0.54571 0.17669 0.30685 0.0
H1336 H 0.50433 0.14785 0.33469 0.0
C1337 C 0.48259 0.17079 0.32607 0.0
C1338 C 0.48637 0.18374 0.34688 0.0
C1339 C 0.4937 0.16723 0.3163 0.0
C1340 C 0.51578 0.15605 0.32654 0.0
H1341 H 0.57825 0.15745 0.24649 0.0
H1342 H 0.56269 0.16905 0.25889 0.0
H1343 H 0.52235 0.13914 0.32554 0.0
H1344 H 0.50498 0.20363 0.37187 0.0
H1345 H 0.52439 0.19728 0.35519 0.0
H1346 H 0.53891 0.19357 0.30733 0.0
C1347 C 0.56222 0.16059 0.27737 0.0
C1348 C 0.52621 0.15109 0.32185 0.0
C1349 C 0.57111 0.15391 0.27022 0.0
C1350 C 0.50169 0.19356 0.35584 0.0
C1351 C 0.51283 0.18994 0.34622 0.0
C1352 C 0.53522 0.18169 0.31161 0.0
C1353 C 0.55219 0.15573 0.30681 0.0
C1354 C 0.54131 0.16133 0.31208 0.0
C1355 C 0.50886 0.17647 0.32731 0.0
C1356 C 0.52012 0.17139 0.32141 0.0
H1357 H 0.55978 0.12912 0.34068 0.0
H1358 H 0.54457 0.14092 0.35344 0.0
H1359 H 0.55727 0.18487 0.29945 0.0
H1360 H 0.47093 0.1631 0.31827 0.0
H1361 H 0.49032 0.15699 0.30091 0.0
C1362 C 0.80459 0.30555 0.34623 0.0
C1363 C 0.81714 0.30328 0.34938 0.0
C1364 C 0.80676 0.31999 0.33835 0.0
C1365 C 0.83316 0.3588 0.35661 0.0
H1366 H 0.82152 0.37152 0.26969 0.0
C1367 C 0.86565 0.41964 0.30775 0.0
C1368 C 0.85822 0.42642 0.29058 0.0
C1369 C 0.85771 0.40444 0.31774 0.0
C1370 C 0.82453 0.36809 0.29451 0.0
H1371 H 0.8417 0.3143 0.34484 0.0
H1372 H 0.84538 0.33938 0.33195 0.0
H1373 H 0.81272 0.34447 0.27959 0.0
H1374 H 0.83647 0.42263 0.27133 0.0
H1375 H 0.82241 0.3957 0.28893 0.0
H1376 H 0.84515 0.38221 0.37156 0.0
C1377 C 0.83392 0.32998 0.33552 0.0
C1378 C 0.81955 0.35265 0.30003 0.0
C1379 C 0.83178 0.31559 0.34281 0.0
C1380 C 0.84248 0.4177 0.28455 0.0
C1381 C 0.83448 0.4023 0.2944 0.0
C1382 C 0.83796 0.37412 0.35137 0.0
C1383 C 0.8215 0.33236 0.33402 0.0
C1384 C 0.82431 0.34802 0.33053 0.0
C1385 C 0.84207 0.3955 0.31092 0.0
C1386 C 0.83424 0.37903 0.31958 0.0
H1387 H 0.79317 0.29629 0.35097 0.0
H1388 H 0.79703 0.32163 0.33723 0.0
H1389 H 0.8368 0.35542 0.38054 0.0
H1390 H 0.87774 0.42606 0.31305 0.0
H1391 H 0.864 0.39956 0.32982 0.0
C1392 C 0.586 0.4309 0.26656 0.0
C1393 C 0.57577 0.43171 0.29067 0.0
C1394 C 0.60167 0.43935 0.27269 0.0
C1395 C 0.63075 0.45985 0.34232 0.0
H1396 H 0.65541 0.48477 0.263 0.0
C1397 C 0.69109 0.51785 0.32395 0.0
C1398 C 0.70062 0.51481 0.34553 0.0
C1399 C 0.67664 0.5062 0.3142 0.0
C1400 C 0.64868 0.47782 0.28533 0.0
H1401 H 0.57396 0.44149 0.34099 0.0
H1402 H 0.60127 0.45607 0.35187 0.0
H1403 H 0.62841 0.46684 0.25352 0.0
H1404 H 0.70264 0.49699 0.37261 0.0
H1405 H 0.67727 0.47665 0.35582 0.0
H1406 H 0.65095 0.47108 0.37432 0.0
C1407 C 0.59718 0.44895 0.32816 0.0
C1408 C 0.63326 0.46748 0.27986 0.0
C1409 C 0.58153 0.44065 0.32182 0.0
C1410 C 0.6956 0.49972 0.35588 0.0
C1411 C 0.68104 0.48809 0.34652 0.0
C1412 C 0.64621 0.47006 0.34768 0.0
C1413 C 0.60743 0.44862 0.30331 0.0
C1414 C 0.62407 0.45857 0.30845 0.0
C1415 C 0.6713 0.49126 0.32616 0.0
C1416 C 0.65529 0.47934 0.3194 0.0
H1417 H 0.58196 0.42414 0.24228 0.0
H1418 H 0.6093 0.43877 0.25326 0.0
H1419 H 0.62397 0.45307 0.36479 0.0
H1420 H 0.69463 0.52934 0.31547 0.0
H1421 H 0.66937 0.50902 0.29867 0.0
C1422 C 0.52992 0.16951 0.8016 0.0
C1423 C 0.51973 0.1545 0.81231 0.0
C1424 C 0.52726 0.18132 0.81096 0.0
C1425 C 0.50582 0.19222 0.87255 0.0
H1426 H 0.5059 0.21691 0.79288 0.0
C1427 C 0.4759 0.22933 0.83648 0.0
C1428 C 0.47899 0.23813 0.86786 0.0
C1429 C 0.48341 0.22122 0.82979 0.0
C1430 C 0.5059 0.21015 0.81541 0.0
H1431 H 0.49931 0.14029 0.843 0.0
H1432 H 0.49483 0.16092 0.85976 0.0
H1433 H 0.51451 0.19861 0.78335 0.0
H1434 H 0.49287 0.24577 0.91607 0.0
H1435 H 0.50588 0.23149 0.90442 0.0
H1436 H 0.49686 0.20347 0.9044 0.0
C1437 C 0.5048 0.16354 0.84397 0.0
C1438 C 0.51095 0.19977 0.81005 0.0
C1439 C 0.50734 0.15171 0.83424 0.0
C1440 C 0.49021 0.23911 0.89164 0.0
C1441 C 0.4976 0.23085 0.88513 0.0
C1442 C 0.50095 0.20271 0.87802 0.0
C1443 C 0.51452 0.1784 0.83166 0.0
C1444 C 0.5107 0.1905 0.83841 0.0
C1445 C 0.49407 0.22161 0.85447 0.0
C1446 C 0.50068 0.2116 0.84936 0.0
H1447 H 0.53956 0.17205 0.78462 0.0
H1448 H 0.53502 0.19269 0.80141 0.0
H1449 H 0.50558 0.18528 0.89494 0.0
H1450 H 0.46736 0.22837 0.81755 0.0
H1451 H 0.48037 0.21412 0.80603 0.0
C1452 C 0.8531 0.3562 0.83946 0.0
C1453 C 0.85038 0.36616 0.8187 0.0
C1454 C 0.84116 0.34186 0.84896 0.0
C1455 C 0.80437 0.31256 0.81551 0.0
H1456 H 0.80092 0.29372 0.90835 0.0
C1457 C 0.76422 0.252 0.89444 0.0
C1458 C 0.76472 0.24181 0.86964 0.0
C1459 C 0.77288 0.26769 0.88884 0.0
C1460 C 0.80162 0.29887 0.8824 0.0
H1461 H 0.83283 0.36907 0.793 0.0
H1462 H 0.81201 0.34395 0.80939 0.0
H1463 H 0.81955 0.32059 0.89988 0.0
H1464 H 0.77407 0.2401 0.81856 0.0
H1465 H 0.78898 0.26745 0.80857 0.0
H1466 H 0.78674 0.29073 0.79774 0.0
C1467 C 0.82341 0.34727 0.81818 0.0
C1468 C 0.81236 0.31422 0.87749 0.0
C1469 C 0.83534 0.3617 0.80905 0.0
C1470 C 0.77347 0.24763 0.83824 0.0
C1471 C 0.78196 0.26331 0.83243 0.0
C1472 C 0.79376 0.29717 0.82029 0.0
C1473 C 0.82625 0.33709 0.83761 0.0
C1474 C 0.81396 0.32119 0.84388 0.0
C1475 C 0.78204 0.27351 0.85807 0.0
C1476 C 0.79238 0.29012 0.85368 0.0
H1477 H 0.86454 0.35929 0.8474 0.0
H1478 H 0.84371 0.33423 0.86378 0.0
H1479 H 0.80544 0.31758 0.7892 0.0
H1480 H 0.75764 0.2479 0.91895 0.0
H1481 H 0.77261 0.27528 0.90887 0.0
C1482 C 0.75674 0.52729 0.83938 0.0
C1483 C 0.76255 0.52434 0.87076 0.0
C1484 C 0.74107 0.52001 0.83334 0.0
C1485 C 0.70526 0.50341 0.88253 0.0
H1486 H 0.68702 0.4886 0.78885 0.0
C1487 C 0.64752 0.49638 0.83869 0.0
C1488 C 0.6378 0.48366 0.81776 0.0
C1489 C 0.66196 0.4991 0.84836 0.0
C1490 C 0.69191 0.49253 0.81529 0.0
H1491 H 0.75644 0.511 0.91982 0.0
H1492 H 0.72907 0.49839 0.90933 0.0
H1493 H 0.71395 0.49722 0.79792 0.0
H1494 H 0.63544 0.46346 0.79186 0.0
H1495 H 0.66073 0.46831 0.80854 0.0
H1496 H 0.68331 0.49911 0.89961 0.0
C1497 C 0.73667 0.50638 0.8895 0.0
C1498 C 0.70735 0.49758 0.82038 0.0
C1499 C 0.75235 0.51353 0.89534 0.0
C1500 C 0.64261 0.47335 0.80806 0.0
C1501 C 0.65714 0.47618 0.81735 0.0
C1502 C 0.68987 0.49854 0.87732 0.0
C1503 C 0.73086 0.50972 0.85871 0.0
C1504 C 0.71423 0.50322 0.85395 0.0
C1505 C 0.66708 0.48924 0.83699 0.0
C1506 C 0.68306 0.49319 0.84354 0.0
H1507 H 0.76428 0.53552 0.81987 0.0
H1508 H 0.73694 0.52289 0.80947 0.0
H1509 H 0.71028 0.50783 0.90862 0.0
H1510 H 0.64415 0.50452 0.84666 0.0
H1511 H 0.66938 0.50931 0.86334 0.0
C1512 C 0.42995 0.84559 0.71059 0.0
C1513 C 0.43514 0.86056 0.69891 0.0
C1514 C 0.43796 0.83813 0.70186 0.0
C1515 C 0.4687 0.8409 0.64159 0.0
H1516 H 0.47414 0.81736 0.71622 0.0
C1517 C 0.52018 0.83269 0.65031 0.0
C1518 C 0.51715 0.81774 0.64464 0.0
C1519 C 0.50843 0.83562 0.65725 0.0
C1520 C 0.47251 0.82372 0.69504 0.0
H1521 H 0.45268 0.87926 0.66821 0.0
H1522 H 0.46678 0.86654 0.65396 0.0
H1523 H 0.45658 0.82691 0.72604 0.0
H1524 H 0.49938 0.79407 0.644 0.0
H1525 H 0.47873 0.79931 0.65733 0.0
H1526 H 0.48537 0.83847 0.61167 0.0
C1527 C 0.45635 0.86034 0.66915 0.0
C1528 C 0.46243 0.82916 0.70051 0.0
C1529 C 0.44829 0.86773 0.67757 0.0
C1530 C 0.5021 0.80571 0.64813 0.0
C1531 C 0.4903 0.80867 0.65571 0.0
C1532 C 0.4789 0.83568 0.63644 0.0
C1533 C 0.45139 0.84549 0.68142 0.0
C1534 C 0.46066 0.83814 0.67414 0.0
C1535 C 0.49339 0.82369 0.65936 0.0
C1536 C 0.48109 0.8273 0.66335 0.0
H1537 H 0.4198 0.8397 0.7269 0.0
H1538 H 0.43366 0.82662 0.71132 0.0
H1539 H 0.46737 0.84741 0.62029 0.0
H1540 H 0.5316 0.84227 0.64798 0.0
H1541 H 0.51104 0.84729 0.66026 0.0
C1542 C 0.1602 0.58756 0.68499 0.0
C1543 C 0.14577 0.58129 0.701 0.0
C1544 C 0.16871 0.60321 0.67802 0.0
C1545 C 0.17389 0.6396 0.70859 0.0
H1546 H 0.18385 0.65391 0.61033 0.0
C1547 C 0.18156 0.69702 0.66472 0.0
C1548 C 0.19123 0.70495 0.63588 0.0
C1549 C 0.17927 0.68281 0.67496 0.0
C1550 C 0.18152 0.65021 0.63807 0.0
H1551 H 0.12911 0.58656 0.72288 0.0
H1552 H 0.14403 0.61365 0.7115 0.0
H1553 H 0.17421 0.6271 0.62375 0.0
H1554 H 0.20676 0.70451 0.59651 0.0
H1555 H 0.20305 0.67987 0.615 0.0
H1556 H 0.18096 0.66252 0.72316 0.0
C1557 C 0.14871 0.60652 0.70405 0.0
C1558 C 0.17597 0.63484 0.64566 0.0
C1559 C 0.14013 0.59096 0.71025 0.0
C1560 C 0.19912 0.69864 0.61865 0.0
C1561 C 0.19692 0.68446 0.6291 0.0
C1562 C 0.17961 0.65497 0.70115 0.0
C1563 C 0.16306 0.61281 0.68788 0.0
C1564 C 0.17164 0.62934 0.6808 0.0
C1565 C 0.18671 0.67621 0.6569 0.0
C1566 C 0.18299 0.6604 0.6656 0.0
H1567 H 0.1648 0.58036 0.67759 0.0
H1568 H 0.17975 0.60785 0.66538 0.0
H1569 H 0.17074 0.63561 0.73599 0.0
H1570 H 0.17526 0.7015 0.67856 0.0
H1571 H 0.17114 0.67674 0.69611 0.0
C1572 C 0.30769 0.48422 0.67073 0.0
C1573 C 0.30036 0.487 0.64207 0.0
C1574 C 0.32268 0.49484 0.67983 0.0
C1575 C 0.35335 0.53487 0.66804 0.0
H1576 H 0.37977 0.51792 0.68087 0.0
C1577 C 0.4214 0.55459 0.67198 0.0
C1578 C 0.42697 0.56662 0.69688 0.0
C1579 C 0.40584 0.54583 0.66504 0.0
C1580 C 0.37257 0.52285 0.67714 0.0
H1581 H 0.30286 0.50363 0.602 0.0
H1582 H 0.32897 0.52213 0.61799 0.0
H1583 H 0.35267 0.50102 0.67156 0.0
H1584 H 0.42048 0.57927 0.73267 0.0
H1585 H 0.39329 0.56398 0.72036 0.0
H1586 H 0.3734 0.55675 0.6732 0.0
C1587 C 0.32311 0.51171 0.63339 0.0
C1588 C 0.35699 0.51315 0.67228 0.0
C1589 C 0.30813 0.50106 0.62415 0.0
C1590 C 0.41661 0.57009 0.71338 0.0
C1591 C 0.40101 0.56134 0.70628 0.0
C1592 C 0.36897 0.5446 0.67318 0.0
C1593 C 0.3307 0.50855 0.66068 0.0
C1594 C 0.34718 0.51902 0.66752 0.0
C1595 C 0.39542 0.54889 0.68265 0.0
C1596 C 0.37878 0.5387 0.6775 0.0
H1597 H 0.30207 0.47357 0.68528 0.0
H1598 H 0.32812 0.49218 0.70144 0.0
H1599 H 0.34609 0.53975 0.66462 0.0
H1600 H 0.42901 0.55163 0.65855 0.0
H1601 H 0.40193 0.5365 0.64616 0.0
C1602 C 0.49417 0.85124 0.15928 0.0
C1603 C 0.48181 0.84781 0.18195 0.0
C1604 C 0.49783 0.84012 0.15043 0.0
C1605 C 0.48475 0.79891 0.15268 0.0
H1606 H 0.52792 0.81366 0.16204 0.0
C1607 C 0.53099 0.77636 0.16131 0.0
C1608 C 0.52632 0.76639 0.13181 0.0
C1609 C 0.52386 0.78474 0.16896 0.0
C1610 C 0.51581 0.80928 0.15972 0.0
H1611 H 0.46295 0.82975 0.21112 0.0
H1612 H 0.46947 0.8103 0.19593 0.0
H1613 H 0.51843 0.83114 0.1696 0.0
H1614 H 0.50987 0.75674 0.08848 0.0
H1615 H 0.49757 0.77153 0.10158 0.0
H1616 H 0.48221 0.77692 0.14338 0.0
C1617 C 0.47627 0.82159 0.18482 0.0
C1618 C 0.51038 0.81937 0.16346 0.0
C1619 C 0.47253 0.83274 0.19351 0.0
C1620 C 0.51379 0.76435 0.11137 0.0
C1621 C 0.50668 0.77279 0.11895 0.0
C1622 C 0.49021 0.78876 0.14886 0.0
C1623 C 0.4893 0.82533 0.16428 0.0
C1624 C 0.49481 0.81436 0.15978 0.0
C1625 C 0.51193 0.7834 0.14722 0.0
C1626 C 0.50582 0.79385 0.15237 0.0
H1627 H 0.50142 0.8627 0.14956 0.0
H1628 H 0.50769 0.84327 0.13372 0.0
H1629 H 0.4727 0.79469 0.14966 0.0
H1630 H 0.54047 0.77805 0.17793 0.0
H1631 H 0.52794 0.79255 0.19147 0.0
C1632 C 0.23663 0.74773 0.11812 0.0
C1633 C 0.23313 0.75801 0.13492 0.0
C1634 C 0.22773 0.73209 0.12434 0.0
C1635 C 0.18891 0.70365 0.15185 0.0
H1636 H 0.20537 0.67668 0.16144 0.0
C1637 C 0.16666 0.63875 0.2012 0.0
C1638 C 0.1524 0.63129 0.18409 0.0
C1639 C 0.17742 0.65369 0.19211 0.0
C1640 C 0.2006 0.68407 0.15883 0.0
H1641 H 0.21797 0.75987 0.17303 0.0
H1642 H 0.2026 0.7327 0.18408 0.0
H1643 H 0.22261 0.70401 0.15474 0.0
H1644 H 0.13872 0.63348 0.14225 0.0
H1645 H 0.15755 0.65947 0.1262 0.0
H1646 H 0.16696 0.68386 0.15659 0.0
C1647 C 0.21205 0.73671 0.16552 0.0
C1648 C 0.21048 0.69972 0.15476 0.0
C1649 C 0.22095 0.75232 0.15939 0.0
C1650 C 0.14953 0.63886 0.15615 0.0
C1651 C 0.16028 0.65382 0.14715 0.0
C1652 C 0.17907 0.68805 0.15573 0.0
C1653 C 0.21511 0.72637 0.14746 0.0
C1654 C 0.20474 0.70971 0.15153 0.0
C1655 C 0.17418 0.66156 0.16571 0.0
C1656 C 0.18477 0.67806 0.15946 0.0
H1657 H 0.24593 0.75169 0.09912 0.0
H1658 H 0.23037 0.72445 0.10991 0.0
H1659 H 0.1841 0.71099 0.14888 0.0
H1660 H 0.1693 0.63328 0.22278 0.0
H1661 H 0.18796 0.6593 0.20707 0.0
C1662 C 0.36399 0.52802 0.20756 0.0
C1663 C 0.37155 0.52147 0.18979 0.0
C1664 C 0.34931 0.52439 0.19723 0.0
C1665 C 0.31567 0.49253 0.15912 0.0
H1666 H 0.3 0.52006 0.14658 0.0
C1667 C 0.25575 0.47013 0.1069 0.0
C1668 C 0.24662 0.47536 0.12237 0.0
C1669 C 0.27125 0.47741 0.11385 0.0
C1670 C 0.30418 0.51223 0.15046 0.0
H1671 H 0.36996 0.50676 0.14565 0.0
H1672 H 0.34437 0.50038 0.12795 0.0
H1673 H 0.32705 0.53024 0.16007 0.0
H1674 H 0.24661 0.49271 0.15608 0.0
H1675 H 0.27397 0.50531 0.16952 0.0
H1676 H 0.29303 0.47451 0.15074 0.0
C1677 C 0.34977 0.50821 0.15007 0.0
C1678 C 0.31965 0.51807 0.15799 0.0
C1679 C 0.36446 0.51192 0.16015 0.0
C1680 C 0.25343 0.48844 0.14398 0.0
C1681 C 0.26907 0.49565 0.15151 0.0
C1682 C 0.3003 0.48673 0.15208 0.0
C1683 C 0.34189 0.51406 0.16914 0.0
C1684 C 0.32556 0.50824 0.16176 0.0
C1685 C 0.27807 0.48996 0.1371 0.0
C1686 C 0.29437 0.49647 0.14695 0.0
H1687 H 0.36916 0.5355 0.23036 0.0
H1688 H 0.34348 0.52904 0.21241 0.0
H1689 H 0.31983 0.48467 0.16288 0.0
H1690 H 0.25088 0.46029 0.08938 0.0
H1691 H 0.27788 0.47302 0.10122 0.0
C1692 C 0.17025 0.53304 0.69633 0.0
C1693 C 0.15534 0.52441 0.68309 0.0
C1694 C 0.18163 0.53001 0.68522 0.0
C1695 C 0.19057 0.50867 0.61688 0.0
H1696 H 0.21692 0.50811 0.69167 0.0
C1697 C 0.21761 0.47121 0.61013 0.0
C1698 C 0.23306 0.4774 0.61893 0.0
C1699 C 0.21027 0.47951 0.61529 0.0
C1700 C 0.20984 0.50848 0.67036 0.0
H1701 H 0.14086 0.50616 0.64677 0.0
H1702 H 0.16052 0.50066 0.62801 0.0
H1703 H 0.19986 0.51788 0.70507 0.0
H1704 H 0.2529 0.49725 0.64016 0.0
H1705 H 0.23977 0.51177 0.65029 0.0
H1706 H 0.20002 0.49851 0.5828 0.0
C1707 C 0.16356 0.50997 0.64653 0.0
C1708 C 0.20005 0.51409 0.67796 0.0
C1709 C 0.15222 0.51307 0.65743 0.0
C1710 C 0.24101 0.49219 0.63313 0.0
C1711 C 0.23351 0.50046 0.63896 0.0
C1712 C 0.20022 0.50293 0.60943 0.0
C1713 C 0.17836 0.51822 0.66073 0.0
C1714 C 0.19002 0.51392 0.65153 0.0
C1715 C 0.21807 0.49419 0.62984 0.0
C1716 C 0.20969 0.50245 0.63632 0.0
H1717 H 0.1731 0.54196 0.71592 0.0
H1718 H 0.19294 0.5368 0.69622 0.0
H1719 H 0.18331 0.50869 0.5956 0.0
H1720 H 0.21114 0.45989 0.5989 0.0
H1721 H 0.19834 0.4743 0.60846 0.0
C1722 C 0.53118 0.75497 0.66186 0.0
C1723 C 0.52659 0.76033 0.6323 0.0
C1724 C 0.52418 0.73943 0.66914 0.0
C1725 C 0.51643 0.70687 0.66029 0.0
H1726 H 0.47353 0.67806 0.64783 0.0
C1727 C 0.49527 0.64324 0.65961 0.0
C1728 C 0.4825 0.63401 0.68088 0.0
C1729 C 0.49903 0.65809 0.65117 0.0
C1730 C 0.48553 0.68598 0.65156 0.0
H1731 H 0.51042 0.75352 0.58837 0.0
H1732 H 0.49834 0.72637 0.60084 0.0
H1733 H 0.48286 0.7053 0.64145 0.0
H1734 H 0.46309 0.63286 0.7081 0.0
H1735 H 0.46974 0.65895 0.69362 0.0
H1736 H 0.51916 0.68775 0.67099 0.0
C1737 C 0.50729 0.73421 0.61857 0.0
C1738 C 0.49089 0.70157 0.64764 0.0
C1739 C 0.51426 0.7498 0.61136 0.0
C1740 C 0.47298 0.63966 0.69154 0.0
C1741 C 0.47681 0.65462 0.68326 0.0
C1742 C 0.5111 0.69136 0.66413 0.0
C1743 C 0.51245 0.72881 0.64696 0.0
C1744 C 0.50643 0.71221 0.652 0.0
C1745 C 0.49018 0.66417 0.66403 0.0
C1746 C 0.4956 0.68068 0.65962 0.0
H1747 H 0.54051 0.76276 0.67884 0.0
H1748 H 0.52821 0.7357 0.69177 0.0
H1749 H 0.52849 0.71467 0.6633 0.0
H1750 H 0.50274 0.63917 0.65059 0.0
H1751 H 0.50917 0.66497 0.63545 0.0
C1752 C 0.36512 0.83306 0.68103 0.0
C1753 C 0.36932 0.84838 0.67575 0.0
C1754 C 0.35119 0.82142 0.66801 0.0
C1755 C 0.31933 0.81387 0.60621 0.0
H1756 H 0.2941 0.78333 0.67632 0.0
C1757 C 0.2551 0.78701 0.60862 0.0
C1758 C 0.24596 0.77118 0.61227 0.0
C1759 C 0.2708 0.79406 0.61244 0.0
C1760 C 0.3011 0.79159 0.6562 0.0
H1761 H 0.36264 0.86344 0.65085 0.0
H1762 H 0.33852 0.8433 0.62842 0.0
H1763 H 0.32113 0.80018 0.6887 0.0
H1764 H 0.24618 0.75036 0.62347 0.0
H1765 H 0.27391 0.76291 0.63117 0.0
H1766 H 0.29913 0.80586 0.57467 0.0
C1767 C 0.34591 0.84019 0.64242 0.0
C1768 C 0.31658 0.80122 0.66321 0.0
C1769 C 0.35972 0.85177 0.65556 0.0
C1770 C 0.25293 0.76257 0.62043 0.0
C1771 C 0.26874 0.76972 0.62485 0.0
C1772 C 0.30389 0.80434 0.59935 0.0
C1773 C 0.34131 0.82488 0.64914 0.0
C1774 C 0.32574 0.81283 0.63884 0.0
C1775 C 0.27781 0.78552 0.62042 0.0
C1776 C 0.29453 0.79347 0.62482 0.0
H1777 H 0.37227 0.83007 0.69649 0.0
H1778 H 0.34802 0.80973 0.67333 0.0
H1779 H 0.32614 0.82247 0.58653 0.0
H1780 H 0.25017 0.79403 0.60228 0.0
H1781 H 0.27748 0.80628 0.60949 0.0
C1782 C 0.1548 0.57041 0.19146 0.0
C1783 C 0.14031 0.56309 0.20737 0.0
C1784 C 0.16215 0.56217 0.1832 0.0
C1785 C 0.15316 0.52216 0.16986 0.0
H1786 H 0.19643 0.53825 0.18196 0.0
C1787 C 0.17823 0.48295 0.17059 0.0
C1788 C 0.18965 0.48633 0.14491 0.0
C1789 C 0.17394 0.49364 0.17931 0.0
C1790 C 0.18434 0.53367 0.17836 0.0
H1791 H 0.12259 0.54162 0.22885 0.0
H1792 H 0.13542 0.52763 0.21578 0.0
H1793 H 0.18549 0.55457 0.19388 0.0
H1794 H 0.20628 0.50406 0.11032 0.0
H1795 H 0.19888 0.52284 0.12624 0.0
H1796 H 0.15189 0.5012 0.15541 0.0
C1797 C 0.14095 0.53949 0.20815 0.0
C1798 C 0.17808 0.54302 0.18496 0.0
C1799 C 0.1336 0.54759 0.21587 0.0
C1800 C 0.19738 0.50104 0.13007 0.0
C1801 C 0.19319 0.51183 0.1392 0.0
C1802 C 0.15935 0.51283 0.16386 0.0
C1803 C 0.15518 0.54653 0.19105 0.0
C1804 C 0.16234 0.53727 0.18139 0.0
C1805 C 0.18109 0.50803 0.16299 0.0
C1806 C 0.17494 0.51839 0.16852 0.0
H1807 H 0.16027 0.58236 0.18471 0.0
H1808 H 0.1731 0.56797 0.16999 0.0
H1809 H 0.14108 0.51744 0.16565 0.0
H1810 H 0.17206 0.47179 0.18269 0.0
H1811 H 0.16468 0.49049 0.19808 0.0
C1812 C 0.45148 0.5839 0.19194 0.0
C1813 C 0.43689 0.57672 0.20721 0.0
C1814 C 0.4585 0.59907 0.18174 0.0
C1815 C 0.45972 0.63484 0.20113 0.0
H1816 H 0.48585 0.64778 0.1171 0.0
C1817 C 0.50119 0.69744 0.14781 0.0
C1818 C 0.51622 0.70021 0.14619 0.0
C1819 C 0.48916 0.68288 0.15589 0.0
C1820 C 0.47848 0.64431 0.14044 0.0
H1821 H 0.41806 0.57978 0.22303 0.0
H1822 H 0.43051 0.60661 0.20508 0.0
H1823 H 0.46819 0.62083 0.12671 0.0
H1824 H 0.53041 0.69005 0.15405 0.0
H1825 H 0.50946 0.66479 0.16733 0.0
H1826 H 0.47044 0.65854 0.21492 0.0
C1827 C 0.43645 0.60037 0.20125 0.0
C1828 C 0.46842 0.62891 0.14605 0.0
C1829 C 0.42931 0.58502 0.21133 0.0
C1830 C 0.51901 0.68835 0.15473 0.0
C1831 C 0.50703 0.67386 0.16229 0.0
C1832 C 0.46974 0.65035 0.19526 0.0
C1833 C 0.45116 0.60754 0.18644 0.0
C1834 C 0.45938 0.62395 0.17718 0.0
C1835 C 0.49202 0.67093 0.16205 0.0
C1836 C 0.47955 0.65509 0.16552 0.0
H1837 H 0.45761 0.57783 0.18819 0.0
H1838 H 0.46993 0.60429 0.17103 0.0
H1839 H 0.45294 0.63135 0.22542 0.0
H1840 H 0.49866 0.70635 0.14154 0.0
H1841 H 0.47762 0.6808 0.15568 0.0
C1842 C 0.42134 0.86349 0.17347 0.0
C1843 C 0.42669 0.85893 0.2031 0.0
C1844 C 0.40579 0.85661 0.16642 0.0
C1845 C 0.36791 0.82357 0.18871 0.0
H1846 H 0.3542 0.85171 0.16303 0.0
C1847 C 0.3096 0.82783 0.17265 0.0
C1848 C 0.30049 0.81479 0.15208 0.0
C1849 C 0.32443 0.83172 0.18184 0.0
C1850 C 0.35778 0.84368 0.17059 0.0
H1851 H 0.41986 0.84301 0.24754 0.0
H1852 H 0.39269 0.83117 0.23553 0.0
H1853 H 0.3811 0.86106 0.17139 0.0
H1854 H 0.29948 0.79507 0.1269 0.0
H1855 H 0.32552 0.80199 0.14253 0.0
H1856 H 0.3444 0.80624 0.1886 0.0
C1857 C 0.40054 0.83997 0.21753 0.0
C1858 C 0.37327 0.84902 0.1748 0.0
C1859 C 0.41614 0.84681 0.22448 0.0
C1860 C 0.30621 0.80518 0.14286 0.0
C1861 C 0.32114 0.80915 0.15183 0.0
C1862 C 0.35233 0.8182 0.18449 0.0
C1863 C 0.39516 0.84505 0.18893 0.0
C1864 C 0.37858 0.83906 0.18384 0.0
C1865 C 0.33059 0.82275 0.17039 0.0
C1866 C 0.34707 0.82822 0.17552 0.0
H1867 H 0.42916 0.87265 0.15615 0.0
H1868 H 0.40208 0.86056 0.14362 0.0
H1869 H 0.37161 0.81557 0.19547 0.0
H1870 H 0.30546 0.83537 0.18059 0.0
H1871 H 0.33122 0.84204 0.19704 0.0
C1872 C 0.10373 0.24447 0.93324 0.0
C1873 C 0.08878 0.23419 0.94404 0.0
C1874 C 0.10813 0.24508 0.89743 0.0
C1875 C 0.09367 0.23262 0.80441 0.0
H1876 H 0.13274 0.23518 0.79162 0.0
C1877 C 0.12858 0.21837 0.69104 0.0
C1878 C 0.12604 0.2247 0.66003 0.0
C1879 C 0.12412 0.22071 0.7248 0.0
C1880 C 0.12177 0.23438 0.79469 0.0
H1881 H 0.06657 0.21687 0.92541 0.0
H1882 H 0.07433 0.2177 0.86297 0.0
H1883 H 0.12445 0.23714 0.8516 0.0
H1884 H 0.11687 0.23857 0.64033 0.0
H1885 H 0.10923 0.24281 0.69955 0.0
H1886 H 0.09081 0.22924 0.7474 0.0
C1887 C 0.08261 0.22547 0.88208 0.0
C1888 C 0.11709 0.23572 0.82909 0.0
C1889 C 0.07816 0.22495 0.91793 0.0
C1890 C 0.11896 0.23349 0.66365 0.0
C1891 C 0.1145 0.23586 0.69755 0.0
C1892 C 0.09835 0.23123 0.76989 0.0
C1893 C 0.09773 0.23532 0.87157 0.0
C1894 C 0.10293 0.23474 0.83448 0.0
C1895 C 0.11706 0.22951 0.72853 0.0
C1896 C 0.11238 0.23191 0.76472 0.0
H1897 H 0.11216 0.25188 0.95259 0.0
H1898 H 0.11978 0.25305 0.89015 0.0
H1899 H 0.08277 0.23196 0.80755 0.0
H1900 H 0.13396 0.2115 0.68933 0.0
H1901 H 0.12603 0.21543 0.74797 0.0
C1902 C 0.78067 0.85646 0.92146 0.0
C1903 C 0.77124 0.85807 0.94658 0.0
C1904 C 0.78052 0.86023 0.88532 0.0
C1905 C 0.77418 0.86411 0.80684 0.0
H1906 H 0.77251 0.90104 0.79268 0.0
C1907 C 0.7738 0.88842 0.66569 0.0
C1908 C 0.78271 0.90427 0.66185 0.0
C1909 C 0.77155 0.88167 0.69962 0.0
C1910 C 0.77307 0.89076 0.79615 0.0
H1911 H 0.75352 0.86385 0.95315 0.0
H1912 H 0.75299 0.87003 0.89021 0.0
H1913 H 0.76988 0.89076 0.85284 0.0
H1914 H 0.79642 0.92542 0.69064 0.0
H1915 H 0.79267 0.91367 0.74942 0.0
H1916 H 0.77794 0.86451 0.75003 0.0
C1917 C 0.76083 0.86632 0.89848 0.0
C1918 C 0.77134 0.88473 0.83062 0.0
C1919 C 0.76108 0.8627 0.93455 0.0
C1920 C 0.78941 0.91319 0.69259 0.0
C1921 C 0.78719 0.90646 0.72637 0.0
C1922 C 0.77594 0.87018 0.77223 0.0
C1923 C 0.77085 0.86556 0.87364 0.0
C1924 C 0.77196 0.87138 0.83647 0.0
C1925 C 0.77815 0.89064 0.73035 0.0
C1926 C 0.77557 0.88367 0.76661 0.0
H1927 H 0.78863 0.85295 0.92997 0.0
H1928 H 0.78845 0.85962 0.86694 0.0
H1929 H 0.77459 0.85375 0.81041 0.0
H1930 H 0.76845 0.88122 0.64256 0.0
H1931 H 0.76442 0.86947 0.70186 0.0
C1932 C 0.14249 0.89675 0.93548 0.0
C1933 C 0.14794 0.91199 0.94513 0.0
C1934 C 0.13987 0.89228 0.89953 0.0
C1935 C 0.14642 0.90562 0.80513 0.0
H1936 H 0.10621 0.87081 0.79074 0.0
C1937 C 0.12025 0.87912 0.66487 0.0
C1938 C 0.10587 0.87762 0.65945 0.0
C1939 C 0.12706 0.88287 0.69897 0.0
C1940 C 0.11751 0.88047 0.79435 0.0
H1941 H 0.15573 0.93463 0.92436 0.0
H1942 H 0.15093 0.92674 0.86127 0.0
H1943 H 0.1158 0.87864 0.85153 0.0
H1944 H 0.08724 0.87854 0.68552 0.0
H1945 H 0.09897 0.8848 0.74465 0.0
H1946 H 0.14778 0.90759 0.74753 0.0
C1947 C 0.14882 0.9183 0.88167 0.0
C1948 C 0.12306 0.88491 0.82914 0.0
C1949 C 0.15149 0.92281 0.9178 0.0
C1950 C 0.09837 0.8797 0.68874 0.0
C1951 C 0.10503 0.8832 0.72267 0.0
C1952 C 0.14088 0.90107 0.77013 0.0
C1953 C 0.14257 0.90291 0.87232 0.0
C1954 C 0.13747 0.89766 0.83499 0.0
C1955 C 0.11944 0.88485 0.72816 0.0
C1956 C 0.12624 0.88864 0.76454 0.0
H1957 H 0.13984 0.88814 0.95578 0.0
H1958 H 0.13531 0.88039 0.8931 0.0
H1959 H 0.1576 0.91543 0.80887 0.0
H1960 H 0.1263 0.8776 0.64275 0.0
H1961 H 0.13817 0.88405 0.70264 0.0
C1962 C 0.23467 0.10408 0.55755 0.0
C1963 C 0.2324 0.08974 0.54766 0.0
C1964 C 0.2338 0.10743 0.5935 0.0
C1965 C 0.23735 0.09909 0.68599 0.0
H1966 H 0.20744 0.11128 0.70482 0.0
C1967 C 0.22377 0.11083 0.83017 0.0
C1968 C 0.22044 0.12261 0.83398 0.0
C1969 C 0.22533 0.10604 0.79595 0.0
C1970 C 0.21601 0.10813 0.70007 0.0
H1971 H 0.2281 0.06793 0.56791 0.0
H1972 H 0.22696 0.07405 0.63129 0.0
H1973 H 0.21079 0.10474 0.6439 0.0
H1974 H 0.21673 0.13901 0.80516 0.0
H1975 H 0.22 0.13113 0.74583 0.0
H1976 H 0.24304 0.10305 0.7419 0.0
C1977 C 0.22927 0.08255 0.6109 0.0
C1978 C 0.21783 0.10429 0.6652 0.0
C1979 C 0.22989 0.07906 0.57472 0.0
C1980 C 0.21906 0.12973 0.80306 0.0
C1981 C 0.22084 0.12513 0.76899 0.0
C1982 C 0.23572 0.1032 0.72094 0.0
C1983 C 0.23087 0.09664 0.62037 0.0
C1984 C 0.22861 0.09989 0.65781 0.0
C1985 C 0.22379 0.11309 0.7649 0.0
C1986 C 0.22514 0.10795 0.7283 0.0
H1987 H 0.23656 0.11254 0.5374 0.0
H1988 H 0.23516 0.11841 0.6003 0.0
H1989 H 0.24576 0.09575 0.68076 0.0
H1990 H 0.22486 0.1051 0.85358 0.0
H1991 H 0.22744 0.09664 0.79386 0.0
C1992 C 0.89148 0.1161 0.8318 0.0
C1993 C 0.87931 0.10117 0.83513 0.0
C1994 C 0.8965 0.12258 0.79777 0.0
C1995 C 0.89454 0.11121 0.70212 0.0
H1996 H 0.90866 0.15368 0.68236 0.0
C1997 C 0.90002 0.13392 0.55939 0.0
C1998 C 0.91453 0.14566 0.54953 0.0
C1999 C 0.8965 0.12983 0.59534 0.0
C2000 C 0.90485 0.14184 0.68773 0.0
H2001 H 0.86235 0.08157 0.80572 0.0
H2002 H 0.87065 0.09297 0.74674 0.0
H2003 H 0.90068 0.14378 0.74343 0.0
H2004 H 0.93654 0.16276 0.56985 0.0
H2005 H 0.93016 0.15573 0.63329 0.0
H2006 H 0.89817 0.10917 0.64621 0.0
C2007 C 0.87677 0.09955 0.77012 0.0
C2008 C 0.90033 0.13616 0.72262 0.0
C2009 C 0.87192 0.09303 0.80397 0.0
C2010 C 0.92527 0.15365 0.57664 0.0
C2011 C 0.92164 0.14969 0.61284 0.0
C2012 C 0.89881 0.11681 0.66733 0.0
C2013 C 0.88931 0.11428 0.76649 0.0
C2014 C 0.89491 0.12071 0.73008 0.0
C2015 C 0.90733 0.13752 0.62228 0.0
C2016 C 0.90382 0.1321 0.65976 0.0
H2017 H 0.8974 0.12262 0.85542 0.0
H2018 H 0.90625 0.13391 0.79599 0.0
H2019 H 0.89088 0.09937 0.707 0.0
H2020 H 0.89149 0.12749 0.53923 0.0
H2021 H 0.88536 0.12047 0.60211 0.0
C2022 C 0.88899 0.76157 0.82267 0.0
C2023 C 0.89387 0.77506 0.84207 0.0
C2024 C 0.88242 0.7598 0.7886 0.0
C2025 C 0.88049 0.78345 0.71466 0.0
H2026 H 0.85086 0.74456 0.67446 0.0
C2027 C 0.8531 0.77857 0.57662 0.0
C2028 C 0.85509 0.76915 0.55223 0.0
C2029 C 0.85582 0.77807 0.61328 0.0
C2030 C 0.85912 0.75547 0.68549 0.0
H2031 H 0.89478 0.7968 0.84262 0.0
H2032 H 0.88262 0.79344 0.78448 0.0
H2033 H 0.85907 0.74599 0.73695 0.0
H2034 H 0.86071 0.75125 0.54737 0.0
H2035 H 0.8652 0.75023 0.61169 0.0
H2036 H 0.88032 0.79293 0.66342 0.0
C2037 C 0.88447 0.78448 0.79436 0.0
C2038 C 0.86391 0.75631 0.72116 0.0
C2039 C 0.89134 0.78638 0.82787 0.0
C2040 C 0.85916 0.75871 0.56549 0.0
C2041 C 0.86164 0.75805 0.60227 0.0
C2042 C 0.87551 0.78264 0.67938 0.0
C2043 C 0.88035 0.77139 0.7737 0.0
C2044 C 0.87472 0.77033 0.73618 0.0
C2045 C 0.86033 0.76796 0.62633 0.0
C2046 C 0.86486 0.76866 0.6644 0.0
H2047 H 0.89089 0.7527 0.8331 0.0
H2048 H 0.87953 0.74961 0.77346 0.0
H2049 H 0.88914 0.79439 0.7247 0.0
H2050 H 0.85 0.78674 0.56725 0.0
H2051 H 0.85467 0.78578 0.6314 0.0
C2052 C 0.88286 0.78984 0.31032 0.0
C2053 C 0.88168 0.78056 0.33956 0.0
C2054 C 0.88736 0.78757 0.27665 0.0
C2055 C 0.88568 0.7736 0.20502 0.0
H2056 H 0.91803 0.76468 0.18771 0.0
C2057 C 0.89622 0.76078 0.063 0.0
C2058 C 0.91134 0.76815 0.05122 0.0
C2059 C 0.89287 0.75995 0.09951 0.0
C2060 C 0.909 0.76721 0.19216 0.0
H2061 H 0.88479 0.7619 0.35663 0.0
H2062 H 0.89239 0.75769 0.29707 0.0
H2063 H 0.91224 0.76867 0.24943 0.0
H2064 H 0.93487 0.77973 0.06811 0.0
H2065 H 0.92903 0.77888 0.1324 0.0
H2066 H 0.88272 0.77282 0.14828 0.0
C2067 C 0.88998 0.76684 0.30055 0.0
C2068 C 0.9056 0.76935 0.22749 0.0
C2069 C 0.88556 0.76921 0.33456 0.0
C2070 C 0.92311 0.77398 0.07669 0.0
C2071 C 0.91975 0.77343 0.11343 0.0
C2072 C 0.8891 0.77155 0.16998 0.0
C2073 C 0.89064 0.77584 0.27109 0.0
C2074 C 0.894 0.77276 0.23419 0.0
C2075 C 0.90456 0.76684 0.1251 0.0
C2076 C 0.90081 0.76836 0.16298 0.0
H2077 H 0.8802 0.79885 0.3133 0.0
H2078 H 0.88814 0.79497 0.25478 0.0
H2079 H 0.8765 0.77594 0.20922 0.0
H2080 H 0.88694 0.75595 0.04384 0.0
H2081 H 0.88105 0.75435 0.10757 0.0
C2082 C 0.23563 0.13279 0.05704 0.0
C2083 C 0.23317 0.14474 0.0473 0.0
C2084 C 0.23481 0.12851 0.09292 0.0
C2085 C 0.23825 0.14013 0.18546 0.0
H2086 H 0.20877 0.09785 0.20376 0.0
C2087 C 0.22482 0.11442 0.32914 0.0
C2088 C 0.22161 0.09935 0.3328 0.0
C2089 C 0.22642 0.12084 0.29502 0.0
C2090 C 0.21722 0.10962 0.19915 0.0
H2091 H 0.22856 0.16203 0.06776 0.0
H2092 H 0.2275 0.15468 0.13108 0.0
H2093 H 0.2119 0.10791 0.14305 0.0
H2094 H 0.21818 0.07938 0.30383 0.0
H2095 H 0.22155 0.09068 0.24457 0.0
H2096 H 0.24404 0.14175 0.24128 0.0
C2097 C 0.22992 0.14861 0.11059 0.0
C2098 C 0.21891 0.11538 0.16442 0.0
C2099 C 0.2305 0.15277 0.07446 0.0
C2100 C 0.22043 0.09095 0.30181 0.0
C2101 C 0.22227 0.09742 0.26781 0.0
C2102 C 0.23675 0.1343 0.22027 0.0
C2103 C 0.23172 0.13622 0.11989 0.0
C2104 C 0.22953 0.13062 0.15722 0.0
C2105 C 0.22505 0.11237 0.2639 0.0
C2106 C 0.22633 0.11891 0.22742 0.0
H2107 H 0.23764 0.12632 0.03683 0.0
H2108 H 0.23633 0.11898 0.09958 0.0
H2109 H 0.24655 0.15193 0.18037 0.0
H2110 H 0.22573 0.12115 0.35261 0.0
H2111 H 0.22841 0.13231 0.29307 0.0
C2112 C 0.88944 0.11271 0.33157 0.0
C2113 C 0.90449 0.12471 0.33478 0.0
C2114 C 0.88299 0.10748 0.29763 0.0
C2115 C 0.89414 0.10853 0.20199 0.0
H2116 H 0.85183 0.09536 0.18255 0.0
C2117 C 0.87106 0.10368 0.05973 0.0
C2118 C 0.85902 0.08933 0.04979 0.0
C2119 C 0.87539 0.10698 0.09561 0.0
C2120 C 0.86362 0.09888 0.18785 0.0
H2121 H 0.92434 0.14106 0.30513 0.0
H2122 H 0.91298 0.13239 0.24617 0.0
H2123 H 0.86196 0.10346 0.24337 0.0
H2124 H 0.84172 0.06739 0.06991 0.0
H2125 H 0.84916 0.07343 0.13331 0.0
H2126 H 0.89591 0.10456 0.14615 0.0
C2127 C 0.90629 0.12658 0.26966 0.0
C2128 C 0.86943 0.10347 0.2226 0.0
C2129 C 0.9128 0.13165 0.30349 0.0
C2130 C 0.85104 0.07853 0.07677 0.0
C2131 C 0.85525 0.08197 0.11294 0.0
C2132 C 0.8884 0.10419 0.16731 0.0
C2133 C 0.8914 0.11428 0.26623 0.0
C2134 C 0.88484 0.10857 0.22995 0.0
C2135 C 0.86766 0.09612 0.12243 0.0
C2136 C 0.87317 0.09951 0.15986 0.0
H2137 H 0.88278 0.10711 0.35527 0.0
H2138 H 0.87155 0.0979 0.29604 0.0
H2139 H 0.90593 0.11194 0.20679 0.0
H2140 H 0.87751 0.11223 0.03966 0.0
H2141 H 0.88494 0.118 0.10242 0.0
C2142 C 0.78025 0.87267 0.19219 0.0
C2143 C 0.77988 0.88027 0.16104 0.0
C2144 C 0.77848 0.87748 0.22597 0.0
C2145 C 0.76592 0.90133 0.27372 0.0
H2146 H 0.79073 0.89876 0.34964 0.0
C2147 C 0.77397 0.92574 0.42064 0.0
C2148 C 0.77117 0.91483 0.44733 0.0
C2149 C 0.77407 0.92223 0.38425 0.0
C2150 C 0.78374 0.89952 0.32866 0.0
H2151 H 0.77696 0.89862 0.14062 0.0
H2152 H 0.77432 0.90739 0.20009 0.0
H2153 H 0.79314 0.89163 0.28863 0.0
H2154 H 0.7659 0.8916 0.4567 0.0
H2155 H 0.76639 0.8857 0.39347 0.0
H2156 H 0.75684 0.9096 0.3144 0.0
C2157 C 0.77572 0.89754 0.19828 0.0
C2158 C 0.78501 0.89534 0.29376 0.0
C2159 C 0.77728 0.89256 0.16426 0.0
C2160 C 0.76806 0.90026 0.43688 0.0
C2161 C 0.76839 0.89687 0.40072 0.0
C2162 C 0.76482 0.90574 0.30876 0.0
C2163 C 0.77656 0.89019 0.22956 0.0
C2164 C 0.77587 0.89582 0.26599 0.0
C2165 C 0.77164 0.90789 0.3742 0.0
C2166 C 0.7735 0.90454 0.33656 0.0
H2167 H 0.78196 0.86299 0.19049 0.0
H2168 H 0.7787 0.87124 0.24935 0.0
H2169 H 0.75868 0.90179 0.25301 0.0
H2170 H 0.77637 0.93704 0.42788 0.0
H2171 H 0.77664 0.93089 0.36412 0.0
C2172 C 0.09682 0.87661 0.43151 0.0
C2173 C 0.08872 0.86171 0.44497 0.0
C2174 C 0.09834 0.87929 0.39465 0.0
C2175 C 0.09958 0.86349 0.3085 0.0
H2176 H 0.09358 0.89586 0.27203 0.0
C2177 C 0.1123 0.88524 0.16037 0.0
C2178 C 0.12031 0.90115 0.15683 0.0
C2179 C 0.10638 0.87847 0.19375 0.0
C2180 C 0.09534 0.88682 0.28179 0.0
H2181 H 0.07594 0.83791 0.43014 0.0
H2182 H 0.0789 0.84269 0.36498 0.0
H2183 H 0.08663 0.88723 0.33385 0.0
H2184 H 0.12864 0.9224 0.18582 0.0
H2185 H 0.11848 0.91065 0.24364 0.0
H2186 H 0.10887 0.86352 0.25667 0.0
C2187 C 0.08395 0.85222 0.38338 0.0
C2188 C 0.0913 0.88184 0.3171 0.0
C2189 C 0.08224 0.84951 0.42056 0.0
C2190 C 0.12242 0.91012 0.18742 0.0
C2191 C 0.1165 0.90337 0.22059 0.0
C2192 C 0.1037 0.86852 0.27302 0.0
C2193 C 0.0919 0.86717 0.37019 0.0
C2194 C 0.09382 0.87047 0.33115 0.0
C2195 C 0.10831 0.88749 0.22413 0.0
C2196 C 0.10206 0.88059 0.25973 0.0
H2197 H 0.10189 0.88629 0.44947 0.0
H2198 H 0.10471 0.89092 0.38524 0.0
H2199 H 0.10167 0.85473 0.31877 0.0
H2200 H 0.1105 0.878 0.13734 0.0
H2201 H 0.10011 0.8662 0.19567 0.0
C2202 C 0.14833 0.22443 0.41822 0.0
C2203 C 0.14661 0.23355 0.44408 0.0
C2204 C 0.14428 0.22464 0.38232 0.0
C2205 C 0.14011 0.23145 0.30436 0.0
H2206 H 0.10281 0.23249 0.29104 0.0
C2207 C 0.11591 0.23254 0.16334 0.0
C2208 C 0.10009 0.2234 0.15914 0.0
C2209 C 0.12259 0.2347 0.19738 0.0
C2210 C 0.11321 0.23211 0.29425 0.0
H2211 H 0.1401 0.25068 0.45206 0.0
H2212 H 0.13339 0.25129 0.38958 0.0
H2213 H 0.11298 0.23463 0.35119 0.0
H2214 H 0.07892 0.20932 0.18758 0.0
H2215 H 0.09054 0.21292 0.24647 0.0
H2216 H 0.13996 0.22837 0.24728 0.0
C2217 C 0.13747 0.24366 0.3971 0.0
C2218 C 0.11917 0.23355 0.32875 0.0
C2219 C 0.14141 0.24337 0.43294 0.0
C2220 C 0.09113 0.21647 0.18973 0.0
C2221 C 0.09779 0.21862 0.22363 0.0
C2222 C 0.13411 0.22998 0.26972 0.0
C2223 C 0.13849 0.23403 0.3715 0.0
C2224 C 0.13265 0.23315 0.33433 0.0
C2225 C 0.11358 0.2278 0.22794 0.0
C2226 C 0.12049 0.23013 0.26433 0.0
H2227 H 0.15226 0.2167 0.42595 0.0
H2228 H 0.14509 0.21699 0.36339 0.0
H2229 H 0.15059 0.23123 0.30766 0.0
H2230 H 0.12314 0.23807 0.14035 0.0
H2231 H 0.13477 0.24195 0.19984 0.0
C2232 C 0.79984 0.55625 0.0247 0.0
C2233 C 0.79215 0.55608 0.99314 0.0
C2234 C 0.79523 0.55886 0.05804 0.0
C2235 C 0.76259 0.55402 0.10752 0.0
H2236 H 0.79201 0.58478 0.17149 0.0
C2237 C 0.74598 0.5631 0.25071 0.0
C2238 C 0.75671 0.56612 0.27796 0.0
C2239 C 0.74992 0.56346 0.21446 0.0
C2240 C 0.78366 0.57601 0.15419 0.0
H2241 H 0.77353 0.55835 0.97173 0.0
H2242 H 0.76521 0.56248 0.03043 0.0
H2243 H 0.7997 0.58199 0.11118 0.0
H2244 H 0.77996 0.57177 0.28846 0.0
H2245 H 0.78663 0.57189 0.226 0.0
H2246 H 0.74672 0.54743 0.15092 0.0
C2247 C 0.77491 0.56079 0.0291 0.0
C2248 C 0.78807 0.57451 0.11958 0.0
C2249 C 0.77971 0.55849 0.99561 0.0
C2250 C 0.77146 0.5696 0.26818 0.0
C2251 C 0.77533 0.56976 0.23216 0.0
C2252 C 0.75822 0.55533 0.14243 0.0
C2253 C 0.78268 0.56105 0.06056 0.0
C2254 C 0.77764 0.56337 0.09614 0.0
C2255 C 0.76463 0.56666 0.20473 0.0
C2256 C 0.76878 0.56618 0.16646 0.0
H2257 H 0.80949 0.55448 0.02359 0.0
H2258 H 0.80134 0.55892 0.082 0.0
H2259 H 0.75436 0.54528 0.08991 0.0
H2260 H 0.73452 0.56039 0.25738 0.0
H2261 H 0.74143 0.5612 0.19411 0.0
C2262 C 0.44396 0.21887 0.9938 0.0
C2263 C 0.44647 0.23376 0.99168 0.0
C2264 C 0.44142 0.21159 0.02712 0.0
C2265 C 0.42728 0.21087 0.1173 0.0
H2266 H 0.45461 0.19713 0.15015 0.0
C2267 C 0.43338 0.2017 0.26663 0.0
C2268 C 0.43676 0.19049 0.27758 0.0
C2269 C 0.43293 0.20475 0.23026 0.0
C2270 C 0.44664 0.20057 0.14121 0.0
H2271 H 0.44795 0.25257 0.02251 0.0
H2272 H 0.44312 0.23969 0.08049 0.0
H2273 H 0.45664 0.20639 0.0886 0.0
H2274 H 0.44202 0.17346 0.25875 0.0
H2275 H 0.4408 0.1785 0.19489 0.0
H2276 H 0.41715 0.20503 0.16942 0.0
C2277 C 0.44328 0.23374 0.05646 0.0
C2278 C 0.44787 0.20593 0.106 0.0
C2279 C 0.44613 0.24112 0.02335 0.0
C2280 C 0.43941 0.18219 0.25118 0.0
C2281 C 0.4388 0.18515 0.21459 0.0
C2282 C 0.42588 0.20529 0.15222 0.0
C2283 C 0.44099 0.21896 0.05867 0.0
C2284 C 0.43847 0.2115 0.09414 0.0
C2285 C 0.43566 0.19656 0.20369 0.0
C2286 C 0.43584 0.20051 0.16504 0.0
H2287 H 0.44421 0.21296 0.9698 0.0
H2288 H 0.43967 0.20018 0.02826 0.0
H2289 H 0.41977 0.21492 0.10852 0.0
H2290 H 0.43146 0.20846 0.28621 0.0
H2291 H 0.43086 0.21388 0.2231 0.0
C2292 C 0.7594 0.20547 0.02352 0.0
C2293 C 0.76739 0.21272 0.9921 0.0
C2294 C 0.76604 0.21054 0.05719 0.0
C2295 C 0.8027 0.23448 0.10413 0.0
H2296 H 0.7757 0.23242 0.18042 0.0
C2297 C 0.81969 0.25886 0.25127 0.0
C2298 C 0.81175 0.24777 0.27774 0.0
C2299 C 0.81589 0.25557 0.21485 0.0
C2300 C 0.78336 0.23307 0.15932 0.0
H2301 H 0.78872 0.23078 0.97116 0.0
H2302 H 0.80022 0.24 0.03032 0.0
H2303 H 0.76591 0.22508 0.11962 0.0
H2304 H 0.79384 0.22447 0.28662 0.0
H2305 H 0.78712 0.21896 0.22346 0.0
H2306 H 0.82021 0.24281 0.14448 0.0
C2307 C 0.78891 0.2302 0.02886 0.0
C2308 C 0.77775 0.22875 0.12454 0.0
C2309 C 0.78231 0.22496 0.99499 0.0
C2310 C 0.80024 0.23327 0.26699 0.0
C2311 C 0.79631 0.2301 0.23087 0.0
C2312 C 0.80838 0.23904 0.13904 0.0
C2313 C 0.78074 0.22317 0.0604 0.0
C2314 C 0.78724 0.22902 0.09665 0.0
C2315 C 0.80394 0.24126 0.20458 0.0
C2316 C 0.79863 0.23803 0.16697 0.0
H2317 H 0.74797 0.19584 0.02212 0.0
H2318 H 0.75957 0.20453 0.08077 0.0
H2319 H 0.81031 0.23478 0.08337 0.0
H2320 H 0.82863 0.27012 0.25873 0.0
H2321 H 0.82188 0.26434 0.1949 0.0
C2322 C 0.91049 0.43687 0.89615 0.0
C2323 C 0.90424 0.42167 0.88516 0.0
C2324 C 0.91165 0.44058 0.93262 0.0
C2325 C 0.91781 0.44652 0.01254 0.0
H2326 H 0.88189 0.42054 0.06866 0.0
C2327 C 0.9097 0.45908 0.16147 0.0
C2328 C 0.89526 0.45704 0.16935 0.0
C2329 C 0.91242 0.45422 0.12844 0.0
C2330 C 0.89202 0.42792 0.05337 0.0
H2331 H 0.89495 0.39851 0.90405 0.0
H2332 H 0.89718 0.40501 0.96775 0.0
H2333 H 0.88417 0.41313 0.00789 0.0
H2334 H 0.87251 0.44865 0.14824 0.0
H2335 H 0.87729 0.44039 0.0911 0.0
H2336 H 0.92525 0.46167 0.05771 0.0
C2337 C 0.90094 0.41404 0.94808 0.0
C2338 C 0.89342 0.42357 0.01865 0.0
C2339 C 0.89972 0.41032 0.91156 0.0
C2340 C 0.88373 0.45027 0.14333 0.0
C2341 C 0.88643 0.44542 0.11057 0.0
C2342 C 0.91639 0.45089 0.04737 0.0
C2343 C 0.90664 0.42918 0.95903 0.0
C2344 C 0.90617 0.43297 0.99748 0.0
C2345 C 0.90074 0.44718 0.10282 0.0
C2346 C 0.90328 0.44181 0.06777 0.0
H2347 H 0.91407 0.44591 0.87656 0.0
H2348 H 0.9159 0.45232 0.94001 0.0
H2349 H 0.92788 0.45392 0.99712 0.0
H2350 H 0.91884 0.46428 0.1809 0.0
H2351 H 0.92357 0.45572 0.1232 0.0
C2352 C 0.55712 0.4473 0.16462 0.0
C2353 C 0.54505 0.43232 0.16809 0.0
C2354 C 0.56202 0.4538 0.13055 0.0
C2355 C 0.55971 0.44258 0.03439 0.0
H2356 H 0.57473 0.48533 0.01604 0.0
C2357 C 0.56658 0.4665 0.89208 0.0
C2358 C 0.58119 0.4783 0.88302 0.0
C2359 C 0.56276 0.46207 0.92779 0.0
C2360 C 0.57065 0.4734 0.02098 0.0
H2361 H 0.52814 0.41266 0.13883 0.0
H2362 H 0.53618 0.42412 0.07975 0.0
H2363 H 0.56649 0.47516 0.07676 0.0
H2364 H 0.60307 0.49509 0.90457 0.0
H2365 H 0.59616 0.48748 0.96757 0.0
H2366 H 0.56335 0.44076 0.97836 0.0
C2367 C 0.54234 0.43071 0.10305 0.0
C2368 C 0.56598 0.46756 0.05571 0.0
C2369 C 0.53763 0.42416 0.13697 0.0
C2370 C 0.59173 0.48596 0.91072 0.0
C2371 C 0.58779 0.48166 0.94668 0.0
C2372 C 0.56412 0.44836 -0.00027 0.0
C2373 C 0.55479 0.44551 0.09927 0.0
C2374 C 0.56029 0.45202 0.06277 0.0
C2375 C 0.57337 0.46946 0.95534 0.0
C2376 C 0.5695 0.46376 0.99264 0.0
H2377 H 0.56309 0.45384 0.18818 0.0
H2378 H 0.57173 0.46515 0.12876 0.0
H2379 H 0.55585 0.43068 0.03886 0.0
H2380 H 0.5582 0.4603 0.87145 0.0
H2381 H 0.55154 0.45269 0.93388 0.0
C2382 C 0.55415 0.10366 0.16128 0.0
C2383 C 0.56996 0.11287 0.16547 0.0
C2384 C 0.54748 0.10141 0.12722 0.0
C2385 C 0.55693 0.10398 0.03042 0.0
H2386 H 0.51931 0.10437 0.01688 0.0
C2387 C 0.52172 0.11147 0.90655 0.0
C2388 C 0.52369 0.10258 0.88051 0.0
C2389 C 0.52568 0.11115 0.94246 0.0
C2390 C 0.52985 0.10429 0.02021 0.0
H2391 H 0.59112 0.12704 0.13709 0.0
H2392 H 0.5795 0.12331 0.07815 0.0
H2393 H 0.52995 0.10738 0.07726 0.0
H2394 H 0.53051 0.08571 0.87214 0.0
H2395 H 0.53705 0.08489 0.93469 0.0
H2396 H 0.55723 0.10149 0.97348 0.0
C2397 C 0.57226 0.11759 0.10099 0.0
C2398 C 0.53586 0.10585 0.05485 0.0
C2399 C 0.57892 0.11981 0.1349 0.0
C2400 C 0.52902 0.09284 0.89144 0.0
C2401 C 0.53285 0.09243 0.9273 0.0
C2402 C 0.55097 0.10247 0.9959 0.0
C2403 C 0.55648 0.10831 0.09666 0.0
C2404 C 0.54957 0.10588 0.06028 0.0
C2405 C 0.53161 0.10186 0.9531 0.0
C2406 C 0.53741 0.10271 0.99028 0.0
H2407 H 0.54693 0.09812 0.18425 0.0
H2408 H 0.53531 0.09408 0.12476 0.0
H2409 H 0.56739 0.10373 0.03367 0.0
H2410 H 0.51768 0.11913 0.89897 0.0
H2411 H 0.5247 0.11866 0.96153 0.0
C2412 C 0.54232 0.11959 0.63398 0.0
C2413 C 0.5445 0.11289 0.66479 0.0
C2414 C 0.54666 0.11718 0.60015 0.0
C2415 C 0.54839 0.10329 0.52999 0.0
H2416 H 0.58648 0.10378 0.51698 0.0
C2417 C 0.56532 0.09187 0.39148 0.0
C2418 C 0.58038 0.10165 0.38062 0.0
C2419 C 0.56103 0.0915 0.42729 0.0
C2420 C 0.57583 0.10366 0.52016 0.0
H2421 H 0.55293 0.09833 0.68408 0.0
H2422 H 0.56033 0.09395 0.62476 0.0
H2423 H 0.57885 0.10702 0.57712 0.0
H2424 H 0.6029 0.11831 0.39913 0.0
H2425 H 0.59534 0.11791 0.46156 0.0
H2426 H 0.54559 0.10055 0.47309 0.0
C2427 C 0.55545 0.10125 0.62695 0.0
C2428 C 0.57138 0.10535 0.55468 0.0
C2429 C 0.55113 0.1037 0.66092 0.0
C2430 C 0.5912 0.11061 0.40667 0.0
C2431 C 0.58688 0.11034 0.44251 0.0
C2432 C 0.55284 0.10165 0.49558 0.0
C2433 C 0.55322 0.10794 0.59616 0.0
C2434 C 0.55768 0.10535 0.55991 0.0
C2435 C 0.57166 0.10102 0.45307 0.0
C2436 C 0.56667 0.10192 0.49015 0.0
H2437 H 0.53731 0.12679 0.63594 0.0
H2438 H 0.54503 0.12273 0.57711 0.0
H2439 H 0.53766 0.10301 0.5331 0.0
H2440 H 0.55673 0.08469 0.37217 0.0
H2441 H 0.54929 0.08393 0.43464 0.0
C2442 C 0.89807 0.44819 0.66701 0.0
C2443 C 0.8904 0.43228 0.67073 0.0
C2444 C 0.89881 0.45485 0.63354 0.0
C2445 C 0.87899 0.44601 0.54605 0.0
H2446 H 0.91659 0.47925 0.50869 0.0
C2447 C 0.88899 0.45784 0.39616 0.0
C2448 C 0.89552 0.47285 0.38359 0.0
C2449 C 0.88822 0.45479 0.43281 0.0
C2450 C 0.90596 0.47015 0.51906 0.0
H2451 H 0.87788 0.41095 0.64187 0.0
H2452 H 0.87928 0.42252 0.58386 0.0
H2453 H 0.91574 0.47022 0.57026 0.0
H2454 H 0.90643 0.49648 0.39985 0.0
H2455 H 0.90526 0.49107 0.46463 0.0
H2456 H 0.86932 0.44558 0.4947 0.0
C2457 C 0.88447 0.42987 0.60686 0.0
C2458 C 0.90547 0.46497 0.55424 0.0
C2459 C 0.88376 0.42323 0.64014 0.0
C2460 C 0.90134 0.4848 0.40872 0.0
C2461 C 0.90072 0.48172 0.44569 0.0
C2462 C 0.8795 0.45114 0.51105 0.0
C2463 C 0.89183 0.44574 0.60321 0.0
C2464 C 0.89208 0.45254 0.56769 0.0
C2465 C 0.89402 0.46665 0.458 0.0
C2466 C 0.89308 0.46296 0.49682 0.0
H2467 H 0.90334 0.4555 0.69002 0.0
H2468 H 0.90454 0.46711 0.63156 0.0
H2469 H 0.8684 0.43668 0.55595 0.0
H2470 H 0.88432 0.44833 0.37765 0.0
H2471 H 0.8832 0.44308 0.44146 0.0
C2472 C 0.52304 0.40905 0.40952 0.0
C2473 C 0.52554 0.42041 0.38438 0.0
C2474 C 0.52704 0.41276 0.44561 0.0
C2475 C 0.53607 0.44212 0.51465 0.0
H2476 H 0.56069 0.42672 0.55642 0.0
C2477 C 0.55635 0.45222 0.66344 0.0
C2478 C 0.5718 0.45699 0.66867 0.0
C2479 C 0.54963 0.44725 0.62961 0.0
C2480 C 0.55382 0.4311 0.54511 0.0
H2481 H 0.53362 0.44447 0.37778 0.0
H2482 H 0.54047 0.45088 0.44084 0.0
H2483 H 0.55029 0.41877 0.49602 0.0
H2484 H 0.5923 0.4603 0.64238 0.0
H2485 H 0.58054 0.4515 0.5836 0.0
H2486 H 0.53981 0.45461 0.56369 0.0
C2487 C 0.53542 0.43912 0.43258 0.0
C2488 C 0.54775 0.42644 0.51069 0.0
C2489 C 0.53157 0.43545 0.39642 0.0
C2490 C 0.58038 0.45669 0.63934 0.0
C2491 C 0.57362 0.45156 0.6057 0.0
C2492 C 0.54201 0.44665 0.54929 0.0
C2493 C 0.53347 0.42787 0.4574 0.0
C2494 C 0.53896 0.43204 0.49493 0.0
C2495 C 0.55819 0.44678 0.60048 0.0
C2496 C 0.55112 0.44134 0.56465 0.0
H2497 H 0.51843 0.39736 0.40116 0.0
H2498 H 0.52528 0.40383 0.46424 0.0
H2499 H 0.52926 0.44654 0.50321 0.0
H2500 H 0.54944 0.45236 0.68545 0.0
H2501 H 0.53769 0.44356 0.62636 0.0
C2502 C 0.445 0.22526 0.49505 0.0
C2503 C 0.44788 0.21314 0.49214 0.0
C2504 C 0.44401 0.23074 0.52892 0.0
C2505 C 0.45479 0.23021 0.62429 0.0
H2506 H 0.42573 0.24333 0.64517 0.0
C2507 C 0.43664 0.23401 0.76714 0.0
C2508 C 0.43898 0.24825 0.77814 0.0
C2509 C 0.4377 0.23109 0.73099 0.0
C2510 C 0.43399 0.23985 0.63946 0.0
H2511 H 0.45125 0.19681 0.52231 0.0
H2512 H 0.44901 0.20594 0.58098 0.0
H2513 H 0.42746 0.23526 0.58404 0.0
H2514 H 0.44373 0.27043 0.75955 0.0
H2515 H 0.4452 0.26507 0.69562 0.0
H2516 H 0.46081 0.23415 0.68 0.0
C2517 C 0.44809 0.21165 0.55734 0.0
C2518 C 0.43503 0.23526 0.60453 0.0
C2519 C 0.44926 0.20632 0.52365 0.0
C2520 C 0.44188 0.25936 0.75189 0.0
C2521 C 0.44269 0.2563 0.71542 0.0
C2522 C 0.45358 0.23456 0.65911 0.0
C2523 C 0.44573 0.22411 0.56049 0.0
C2524 C 0.44525 0.2301 0.59671 0.0
C2525 C 0.4409 0.24224 0.70488 0.0
C2526 C 0.44302 0.23917 0.66713 0.0
H2527 H 0.44392 0.23076 0.4712 0.0
H2528 H 0.44228 0.2404 0.5303 0.0
H2529 H 0.46311 0.22677 0.61912 0.0
H2530 H 0.43446 0.22522 0.7866 0.0
H2531 H 0.43618 0.22012 0.72341 0.0
C2532 C 0.76812 0.20359 0.7665 0.0
C2533 C 0.75394 0.19157 0.77739 0.0
C2534 C 0.77111 0.20744 0.7303 0.0
C2535 C 0.76285 0.19459 0.63909 0.0
H2536 H 0.77476 0.23641 0.61747 0.0
C2537 C 0.77726 0.21988 0.49438 0.0
C2538 C 0.78918 0.23498 0.49157 0.0
C2539 C 0.77178 0.21338 0.52821 0.0
C2540 C 0.77163 0.22475 0.62303 0.0
H2541 H 0.73194 0.17379 0.75869 0.0
H2542 H 0.73742 0.1804 0.69472 0.0
H2543 H 0.76738 0.22688 0.67847 0.0
H2544 H 0.80521 0.25484 0.52179 0.0
H2545 H 0.79608 0.24342 0.5804 0.0
H2546 H 0.76776 0.19263 0.58393 0.0
C2547 C 0.74608 0.18685 0.7146 0.0
C2548 C 0.7673 0.21929 0.65789 0.0
C2549 C 0.74296 0.18312 0.75107 0.0
C2550 C 0.79585 0.24326 0.52308 0.0
C2551 C 0.79052 0.23673 0.55672 0.0
C2552 C 0.76742 0.20013 0.60412 0.0
C2553 C 0.76007 0.19923 0.70413 0.0
C2554 C 0.76313 0.20427 0.66634 0.0
C2555 C 0.77822 0.22183 0.55977 0.0
C2556 C 0.77217 0.21538 0.5959 0.0
H2557 H 0.7768 0.21039 0.78605 0.0
H2558 H 0.78201 0.21699 0.72273 0.0
H2559 H 0.7597 0.18296 0.64518 0.0
H2560 H 0.77189 0.21325 0.47049 0.0
H2561 H 0.76226 0.2019 0.52958 0.0
C2562 C 0.78343 0.56406 0.49667 0.0
C2563 C 0.7676 0.55505 0.49245 0.0
C2564 C 0.79007 0.56618 0.53074 0.0
C2565 C 0.80143 0.56144 0.60331 0.0
H2566 H 0.78027 0.56639 0.68429 0.0
C2567 C 0.81507 0.55578 0.75219 0.0
C2568 C 0.81326 0.5649 0.77788 0.0
C2569 C 0.81122 0.55608 0.71615 0.0
C2570 C 0.78647 0.56524 0.66199 0.0
H2571 H 0.74638 0.5411 0.5208 0.0
H2572 H 0.75794 0.5446 0.57972 0.0
H2573 H 0.77025 0.56427 0.62401 0.0
H2574 H 0.80693 0.58217 0.78551 0.0
H2575 H 0.80062 0.58295 0.72279 0.0
H2576 H 0.81778 0.56261 0.64153 0.0
C2577 C 0.76522 0.55025 0.5569 0.0
C2578 C 0.78059 0.56379 0.62742 0.0
C2579 C 0.7586 0.54816 0.52299 0.0
C2580 C 0.80826 0.57485 0.7665 0.0
C2581 C 0.80456 0.57524 0.73053 0.0
C2582 C 0.80736 0.56292 0.63803 0.0
C2583 C 0.78102 0.55935 0.56126 0.0
C2584 C 0.78787 0.56169 0.59769 0.0
C2585 C 0.8056 0.56557 0.70508 0.0
C2586 C 0.79988 0.56473 0.66782 0.0
H2587 H 0.79069 0.56956 0.47372 0.0
H2588 H 0.80226 0.57336 0.53325 0.0
H2589 H 0.80727 0.55974 0.58099 0.0
H2590 H 0.81886 0.54797 0.76015 0.0
H2591 H 0.81206 0.5484 0.69733 0.0
C2592 C 0.4126 0.89329 0.58968 0.0
C2593 C 0.42365 0.90171 0.61581 0.0
C2594 C 0.41672 0.89377 0.55364 0.0
C2595 C 0.45009 0.90138 0.49953 0.0
H2596 H 0.4239 0.89707 0.41917 0.0
C2597 C 0.45026 0.89837 0.33425 0.0
C2598 C 0.4561 0.8885 0.33025 0.0
C2599 C 0.44648 0.90132 0.36832 0.0
C2600 C 0.43142 0.89844 0.44127 0.0
H2601 H 0.44751 0.91798 0.62426 0.0
H2602 H 0.45462 0.91909 0.56134 0.0
H2603 H 0.41713 0.90097 0.47967 0.0
H2604 H 0.46237 0.87384 0.35894 0.0
H2605 H 0.45555 0.87876 0.418 0.0
H2606 H 0.46445 0.89901 0.46129 0.0
C2607 C 0.44285 0.9118 0.5688 0.0
C2608 C 0.42747 0.90052 0.47598 0.0
C2609 C 0.43875 0.91122 0.60486 0.0
C2610 C 0.45796 0.88156 0.36101 0.0
C2611 C 0.45415 0.88447 0.39496 0.0
C2612 C 0.45405 0.89935 0.46491 0.0
C2613 C 0.43196 0.90276 0.54292 0.0
C2614 C 0.43666 0.90182 0.50559 0.0
C2615 C 0.44846 0.89445 0.39908 0.0
C2616 C 0.44466 0.89761 0.43545 0.0
H2617 H 0.40087 0.8858 0.59725 0.0
H2618 H 0.40807 0.88655 0.53451 0.0
H2619 H 0.45735 0.90213 0.52169 0.0
H2620 H 0.44875 0.90396 0.31112 0.0
H2621 H 0.44225 0.90917 0.37063 0.0
C2622 C 0.0913 0.54863 0.33453 0.0
C2623 C 0.10631 0.55903 0.32431 0.0
C2624 C 0.08835 0.5407 0.36699 0.0
C2625 C 0.10672 0.53029 0.43903 0.0
H2626 H 0.07757 0.53281 0.50166 0.0
C2627 C 0.1006 0.5381 0.59665 0.0
C2628 C 0.10259 0.5266 0.61212 0.0
C2629 C 0.09786 0.53801 0.55997 0.0
C2630 C 0.08563 0.53187 0.48433 0.0
H2631 H 0.13 0.56903 0.33982 0.0
H2632 H 0.12485 0.5554 0.39635 0.0
H2633 H 0.07917 0.54013 0.43868 0.0
H2634 H 0.10301 0.50585 0.60131 0.0
H2635 H 0.09842 0.50587 0.53658 0.0
H2636 H 0.11382 0.52294 0.48531 0.0
C2637 C 0.11536 0.55318 0.37912 0.0
C2638 C 0.08646 0.53593 0.44822 0.0
C2639 C 0.1183 0.56113 0.34687 0.0
C2640 C 0.10153 0.51486 0.59012 0.0
C2641 C 0.09893 0.51487 0.55316 0.0
C2642 C 0.10587 0.5262 0.47515 0.0
C2643 C 0.10037 0.54297 0.38966 0.0
C2644 C 0.09743 0.53577 0.42559 0.0
C2645 C 0.09713 0.5265 0.53778 0.0
C2646 C 0.09574 0.52755 0.49843 0.0
H2647 H 0.08181 0.54672 0.31767 0.0
H2648 H 0.07669 0.53287 0.37445 0.0
H2649 H 0.11512 0.52983 0.42198 0.0
H2650 H 0.10127 0.54728 0.61282 0.0
H2651 H 0.0968 0.54728 0.54878 0.0
C2652 C 0.44576 0.55924 0.34559 0.0
C2653 C 0.44428 0.54656 0.32694 0.0
C2654 C 0.45334 0.56349 0.37848 0.0
C2655 C 0.45999 0.54777 0.4574 0.0
H2656 H 0.49054 0.58927 0.47987 0.0
C2657 C 0.48017 0.56518 0.60289 0.0
C2658 C 0.48213 0.57923 0.61414 0.0
C2659 C 0.4787 0.56145 0.5664 0.0
C2660 C 0.48194 0.57765 0.47417 0.0
H2661 H 0.44965 0.52844 0.32772 0.0
H2662 H 0.46251 0.53561 0.38633 0.0
H2663 H 0.48198 0.58225 0.41786 0.0
H2664 H 0.48444 0.60055 0.59616 0.0
H2665 H 0.48116 0.59385 0.53273 0.0
H2666 H 0.45901 0.54327 0.51364 0.0
C2667 C 0.45799 0.54235 0.37497 0.0
C2668 C 0.47715 0.57364 0.43863 0.0
C2669 C 0.45068 0.53828 0.34158 0.0
C2670 C 0.48302 0.58967 0.5882 0.0
C2671 C 0.48125 0.58583 0.55176 0.0
C2672 C 0.46455 0.55183 0.49303 0.0
C2673 C 0.45933 0.55497 0.39367 0.0
C2674 C 0.46594 0.55874 0.43011 0.0
C2675 C 0.47883 0.57157 0.54039 0.0
C2676 C 0.47536 0.56691 0.50202 0.0
H2677 H 0.44102 0.56588 0.33481 0.0
H2678 H 0.4541 0.57316 0.39262 0.0
H2679 H 0.45119 0.53624 0.45146 0.0
H2680 H 0.47964 0.55699 0.62233 0.0
H2681 H 0.47722 0.55053 0.55869 0.0
C2682 C 0.55959 0.77577 0.50083 0.0
C2683 C 0.55621 0.78754 0.50414 0.0
C2684 C 0.56099 0.77071 0.46673 0.0
C2685 C 0.55053 0.77178 0.37128 0.0
H2686 H 0.58056 0.76002 0.34964 0.0
C2687 C 0.56919 0.76948 0.22792 0.0
C2688 C 0.56666 0.75522 0.21645 0.0
C2689 C 0.56838 0.77231 0.26428 0.0
C2690 C 0.57205 0.76316 0.35556 0.0
H2691 H 0.55244 0.80374 0.47453 0.0
H2692 H 0.55541 0.79538 0.41563 0.0
H2693 H 0.57824 0.76727 0.41128 0.0
H2694 H 0.56194 0.73297 0.23439 0.0
H2695 H 0.5609 0.73817 0.29856 0.0
H2696 H 0.54482 0.76831 0.31535 0.0
C2697 C 0.55638 0.78958 0.43903 0.0
C2698 C 0.57067 0.76725 0.39077 0.0
C2699 C 0.55478 0.79446 0.47288 0.0
C2700 C 0.56393 0.74406 0.24241 0.0
C2701 C 0.56337 0.74701 0.27903 0.0
C2702 C 0.55209 0.76794 0.3362 0.0
C2703 C 0.5592 0.77744 0.4354 0.0
C2704 C 0.56006 0.7719 0.39888 0.0
C2705 C 0.56526 0.76105 0.29006 0.0
C2706 C 0.563 0.76383 0.32793 0.0
H2707 H 0.56075 0.77023 0.52451 0.0
H2708 H 0.56311 0.7613 0.46496 0.0
H2709 H 0.54191 0.77481 0.37664 0.0
H2710 H 0.57125 0.77831 0.20869 0.0
H2711 H 0.56993 0.78325 0.27227 0.0
C2712 C 0.22678 0.78121 0.48563 0.0
C2713 C 0.21369 0.77871 0.50411 0.0
C2714 C 0.23066 0.78889 0.45288 0.0
C2715 C 0.21368 0.79347 0.3738 0.0
H2716 H 0.25453 0.8251 0.34965 0.0
C2717 C 0.23048 0.81123 0.22668 0.0
C2718 C 0.24478 0.8136 0.2162 0.0
C2719 C 0.2267 0.81032 0.26306 0.0
C2720 C 0.24309 0.8162 0.35584 0.0
H2721 H 0.19452 0.78249 0.50341 0.0
H2722 H 0.20106 0.79552 0.44489 0.0
H2723 H 0.24791 0.81744 0.41229 0.0
H2724 H 0.26646 0.81722 0.23546 0.0
H2725 H 0.25969 0.81496 0.29877 0.0
H2726 H 0.20904 0.79131 0.3175 0.0
C2727 C 0.2084 0.79172 0.4563 0.0
C2728 C 0.23929 0.81194 0.39173 0.0
C2729 C 0.20469 0.78432 0.48963 0.0
C2730 C 0.25537 0.81545 0.24278 0.0
C2731 C 0.2515 0.81427 0.27914 0.0
C2732 C 0.21754 0.79753 0.33785 0.0
C2733 C 0.22137 0.79396 0.43761 0.0
C2734 C 0.22466 0.8003 0.40087 0.0
C2735 C 0.23703 0.81148 0.28978 0.0
C2736 C 0.23241 0.80868 0.32829 0.0
H2737 H 0.23398 0.7771 0.49635 0.0
H2738 H 0.24063 0.79033 0.43876 0.0
H2739 H 0.20237 0.78433 0.3802 0.0
H2740 H 0.22215 0.80997 0.20674 0.0
H2741 H 0.21558 0.80851 0.27016 0.0
C2742 C 0.22821 0.45232 0.4835 0.0
C2743 C 0.22656 0.44054 0.5062 0.0
C2744 C 0.2204 0.44907 0.45096 0.0
C2745 C 0.19759 0.4394 0.39047 0.0
H2746 H 0.20223 0.4115 0.32787 0.0
C2747 C 0.18131 0.43285 0.23971 0.0
C2748 C 0.19306 0.4343 0.2171 0.0
C2749 C 0.18185 0.43064 0.27673 0.0
C2750 C 0.20072 0.41922 0.34516 0.0
H2751 H 0.21522 0.41608 0.51279 0.0
H2752 H 0.20165 0.41039 0.45538 0.0
H2753 H 0.20959 0.4135 0.39098 0.0
H2754 H 0.21438 0.43421 0.21554 0.0
H2755 H 0.21531 0.43046 0.27968 0.0
H2756 H 0.18953 0.44575 0.34415 0.0
C2757 C 0.20899 0.42214 0.46303 0.0
C2758 C 0.2048 0.42026 0.38134 0.0
C2759 C 0.21673 0.4254 0.49585 0.0
C2760 C 0.20515 0.43318 0.23213 0.0
C2761 C 0.20561 0.43086 0.2689 0.0
C2762 C 0.19346 0.43833 0.35431 0.0
C2763 C 0.21082 0.43396 0.4402 0.0
C2764 C 0.2038 0.43078 0.40401 0.0
C2765 C 0.19406 0.42969 0.29165 0.0
C2766 C 0.19554 0.42864 0.33102 0.0
H2767 H 0.23564 0.46411 0.49068 0.0
H2768 H 0.22226 0.45842 0.43367 0.0
H2769 H 0.19651 0.44745 0.40752 0.0
H2770 H 0.17184 0.43365 0.22893 0.0
H2771 H 0.17279 0.42976 0.2937 0.0
C2772 C 0.23145 0.43609 0.73148 0.0
C2773 C 0.24424 0.43625 0.7166 0.0
C2774 C 0.22846 0.43373 0.76819 0.0
C2775 C 0.24728 0.43895 0.8543 0.0
H2776 H 0.20587 0.41555 0.88924 0.0
C2777 C 0.21066 0.42528 0.99533 0.0
C2778 C 0.2167 0.44031 0.00741 0.0
C2779 C 0.215 0.42229 0.96198 0.0
C2780 C 0.21753 0.4219 0.88006 0.0
H2781 H 0.26388 0.43396 0.72869 0.0
H2782 H 0.2587 0.43 0.79327 0.0
H2783 H 0.21127 0.41425 0.82582 0.0
H2784 H 0.23235 0.46395 0.99452 0.0
H2785 H 0.2398 0.45875 0.93661 0.0
H2786 H 0.25346 0.44696 0.90836 0.0
C2787 C 0.251 0.43166 0.77625 0.0
C2788 C 0.2206 0.42128 0.8437 0.0
C2789 C 0.25395 0.43391 0.73933 0.0
C2790 C 0.22743 0.45224 0.98598 0.0
C2791 C 0.23184 0.44926 0.95291 0.0
C2792 C 0.2442 0.43962 0.89064 0.0
C2793 C 0.23822 0.43156 0.791 0.0
C2794 C 0.23542 0.43018 0.83027 0.0
C2795 C 0.22555 0.43428 0.94036 0.0
C2796 C 0.22923 0.43149 0.90362 0.0
H2797 H 0.22371 0.43784 0.71482 0.0
H2798 H 0.21869 0.43401 0.77886 0.0
H2799 H 0.25881 0.44597 0.8447 0.0
H2800 H 0.20237 0.41584 0.01128 0.0
H2801 H 0.21001 0.41064 0.95296 0.0
C2802 C 0.54924 0.7599 0.97239 0.0
C2803 C 0.55603 0.76868 0.00329 0.0
C2804 C 0.55186 0.7667 0.93862 0.0
C2805 C 0.56452 0.80306 0.89201 0.0
H2806 H 0.56999 0.78149 0.81269 0.0
C2807 C 0.5785 0.80846 0.72901 0.0
C2808 C 0.56849 0.81324 0.7168 0.0
C2809 C 0.57902 0.80533 0.76535 0.0
C2810 C 0.56872 0.78782 0.83452 0.0
H2811 H 0.57078 0.79159 0.02286 0.0
H2812 H 0.57548 0.80348 0.96345 0.0
H2813 H 0.56709 0.77158 0.87328 0.0
H2814 H 0.55165 0.81917 0.73339 0.0
H2815 H 0.55228 0.81333 0.79684 0.0
H2816 H 0.56629 0.81939 0.85297 0.0
C2817 C 0.56801 0.79132 0.96562 0.0
C2818 C 0.56683 0.782 0.86926 0.0
C2819 C 0.56537 0.7845 -0.0004 0.0
C2820 C 0.55951 0.81552 0.742 0.0
C2821 C 0.55992 0.81223 0.7784 0.0
C2822 C 0.56644 0.80893 0.85711 0.0
C2823 C 0.56139 0.78245 0.93473 0.0
C2824 C 0.56446 0.78939 0.89834 0.0
C2825 C 0.5694 0.80673 0.79033 0.0
C2826 C 0.56841 0.80127 0.8279 0.0
H2827 H 0.54192 0.74771 0.97415 0.0
H2828 H 0.54634 0.75957 0.91547 0.0
H2829 H 0.56266 0.80899 0.91385 0.0
H2830 H 0.58572 0.80679 0.71036 0.0
H2831 H 0.58672 0.80147 0.77374 0.0
C2832 C 0.24208 0.78571 0.97548 0.0
C2833 C 0.23297 0.78373 0.00571 0.0
C2834 C 0.23552 0.78006 0.94204 0.0
C2835 C 0.20138 0.76878 0.88812 0.0
H2836 H 0.22005 0.75182 0.82681 0.0
C2837 C 0.18395 0.74997 0.73862 0.0
C2838 C 0.19645 0.75666 0.71506 0.0
C2839 C 0.18622 0.75099 0.77595 0.0
C2840 C 0.21468 0.75646 0.84369 0.0
H2841 H 0.20974 0.77436 0.0243 0.0
H2842 H 0.19823 0.76443 0.96538 0.0
H2843 H 0.2279 0.75756 0.88946 0.0
H2844 H 0.22108 0.76946 0.71216 0.0
H2845 H 0.22496 0.77106 0.77682 0.0
H2846 H 0.18839 0.76793 0.84172 0.0
C2847 C 0.21049 0.7704 0.96785 0.0
C2848 C 0.21919 0.7598 0.87949 0.0
C2849 C 0.21708 0.77605 0.00155 0.0
C2850 C 0.2112 0.76425 0.72951 0.0
C2851 C 0.21344 0.76507 0.76656 0.0
C2852 C 0.19679 0.76534 0.85218 0.0
C2853 C 0.21966 0.77226 0.93781 0.0
C2854 C 0.213 0.7665 0.90175 0.0
C2855 C 0.20101 0.75844 0.79015 0.0
C2856 C 0.20379 0.75964 0.8294 0.0
H2857 H 0.25435 0.79167 0.97752 0.0
H2858 H 0.24293 0.782 0.91928 0.0
H2859 H 0.19643 0.77397 0.90461 0.0
H2860 H 0.17246 0.74405 0.72825 0.0
H2861 H 0.17646 0.7458 0.79367 0.0
C2862 C 0.10025 0.58599 0.0899 0.0
C2863 C 0.09986 0.5752 0.1142 0.0
C2864 C 0.09962 0.58336 0.05278 0.0
C2865 C 0.11066 0.5633 0.9902 0.0
H2866 H 0.08723 0.57033 0.91819 0.0
C2867 C 0.0964 0.54825 0.83263 0.0
C2868 C 0.11126 0.55342 0.82017 0.0
C2869 C 0.09399 0.5522 0.86708 0.0
C2870 C 0.09378 0.56832 0.93814 0.0
H2871 H 0.09733 0.55274 0.11879 0.0
H2872 H 0.09621 0.54824 0.05451 0.0
H2873 H 0.08397 0.57412 0.98229 0.0
H2874 H 0.1352 0.56757 0.8331 0.0
H2875 H 0.13095 0.57436 0.89276 0.0
H2876 H 0.12046 0.55748 0.94673 0.0
C2877 C 0.09729 0.55881 0.064 0.0
C2878 C 0.092 0.57056 0.9746 0.0
C2879 C 0.09794 0.56142 0.10083 0.0
C2880 C 0.12361 0.56319 0.84201 0.0
C2881 C 0.12119 0.56711 0.87621 0.0
C2882 C 0.11253 0.56121 0.95404 0.0
C2883 C 0.09859 0.56993 0.03962 0.0
C2884 C 0.10036 0.56794 0.0009 0.0
C2885 C 0.1064 0.56133 0.88946 0.0
C2886 C 0.10415 0.56371 0.92765 0.0
H2887 H 0.10166 0.59668 0.09945 0.0
H2888 H 0.10069 0.59212 0.03443 0.0
H2889 H 0.11738 0.56139 0.00989 0.0
H2890 H 0.08667 0.54075 0.81634 0.0
H2891 H 0.08247 0.54756 0.87681 0.0
C2892 C 0.44469 0.55024 0.82832 0.0
C2893 C 0.45493 0.56594 0.82557 0.0
C2894 C 0.44068 0.5432 0.86207 0.0
C2895 C 0.45492 0.54756 0.95398 0.0
H2896 H 0.41285 0.52469 0.98461 0.0
C2897 C 0.43884 0.54173 0.10151 0.0
C2898 C 0.42702 0.52794 0.11503 0.0
C2899 C 0.4418 0.54373 0.06481 0.0
C2900 C 0.42463 0.53076 0.97623 0.0
H2901 H 0.46905 0.58652 0.85594 0.0
H2902 H 0.46222 0.57421 0.91453 0.0
H2903 H 0.41887 0.53309 0.92192 0.0
H2904 H 0.40892 0.50546 0.10025 0.0
H2905 H 0.41416 0.50904 0.03543 0.0
H2906 H 0.46079 0.54556 0.00805 0.0
C2907 C 0.45727 0.56737 0.89067 0.0
C2908 C 0.42806 0.53559 0.94043 0.0
C2909 C 0.46109 0.57443 0.85713 0.0
C2910 C 0.41814 0.51619 0.09071 0.0
C2911 C 0.4211 0.51825 0.05365 0.0
C2912 C 0.45151 0.54266 0.98951 0.0
C2913 C 0.44708 0.5517 0.89348 0.0
C2914 C 0.44326 0.54449 0.92941 0.0
C2915 C 0.43305 0.53203 0.04042 0.0
C2916 C 0.43636 0.53471 0.00138 0.0
H2917 H 0.43973 0.54342 0.80445 0.0
H2918 H 0.43279 0.5311 0.86362 0.0
H2919 H 0.46672 0.55416 0.94594 0.0
H2920 H 0.44586 0.5511 0.11928 0.0
H2921 H 0.45084 0.55462 0.05548 0.0
C2922 C 0.48139 0.8916 0.09004 0.0
C2923 C 0.47862 0.90001 0.11593 0.0
C2924 C 0.47768 0.89189 0.05394 0.0
C2925 C 0.47376 0.89865 0.97606 0.0
H2926 H 0.43501 0.89655 0.96075 0.0
C2927 C 0.44963 0.89794 0.83406 0.0
C2928 C 0.43398 0.88796 0.82922 0.0
C2929 C 0.45611 0.90042 0.86835 0.0
C2930 C 0.44582 0.89704 0.96454 0.0
H2931 H 0.47067 0.91602 0.12389 0.0
H2932 H 0.46454 0.91678 0.06094 0.0
H2933 H 0.44496 0.8994 0.0214 0.0
H2934 H 0.41293 0.87259 0.85662 0.0
H2935 H 0.42425 0.87673 0.91605 0.0
H2936 H 0.47426 0.89571 0.9191 0.0
C2937 C 0.46919 0.90965 0.06862 0.0
C2938 C 0.45164 0.89891 -0.0007 0.0
C2939 C 0.47279 0.90928 0.10469 0.0
C2940 C 0.425 0.88041 0.85934 0.0
C2941 C 0.43148 0.88287 0.89351 0.0
C2942 C 0.4679 0.89675 0.94119 0.0
C2943 C 0.47122 0.90066 0.04297 0.0
C2944 C 0.46562 0.89961 0.00556 0.0
C2945 C 0.44708 0.89297 0.89849 0.0
C2946 C 0.45377 0.89575 0.93512 0.0
H2947 H 0.48583 0.88431 0.09785 0.0
H2948 H 0.47927 0.88473 0.03496 0.0
H2949 H 0.48462 0.89929 0.97993 0.0
H2950 H 0.45686 0.90397 0.81144 0.0
H2951 H 0.46814 0.90837 0.87135 0.0
C2952 C 0.03548 0.22588 0.13418 0.0
C2953 C 0.04271 0.21716 0.13437 0.0
C2954 C 0.0269 0.22568 0.16396 0.0
C2955 C 0.02187 0.21704 0.26083 0.0
H2956 H 0.97894 0.20222 0.24607 0.0
C2957 C 0.97699 0.17727 0.35813 0.0
C2958 C 0.9644 0.17885 0.36661 0.0
C2959 C 0.98754 0.18663 0.33266 0.0
C2960 C 0.99097 0.20676 0.25067 0.0
H2961 H 0.04713 0.2019 0.16621 0.0
H2962 H 0.03246 0.20174 0.21789 0.0
H2963 H 0.9962 0.21051 0.19435 0.0
H2964 H 0.95306 0.19165 0.35549 0.0
H2965 H 0.97153 0.20797 0.30958 0.0
H2966 H 0.01658 0.21247 0.31673 0.0
C2967 C 0.0333 0.20866 0.19487 0.0
C2968 C 1.00083 0.21149 0.2211 0.0
C2969 C 0.04157 0.20863 0.16509 0.0
C2970 C 0.96271 0.19024 0.34946 0.0
C2971 C 0.97321 0.19951 0.32324 0.0
C2972 C 0.01206 0.21236 0.29026 0.0
C2973 C 0.02579 0.21708 0.1946 0.0
C2974 C 0.01623 0.21595 0.22582 0.0
C2975 C 0.9857 0.19774 0.31462 0.0
C2976 C 0.9964 0.20646 0.28526 0.0
H2977 H 0.03619 0.23257 0.11082 0.0
H2978 H 0.02116 0.23223 0.16311 0.0
H2979 H 0.03374 0.22066 0.26523 0.0
H2980 H 0.97867 0.16866 0.37106 0.0
H2981 H 0.99691 0.18482 0.32619 0.0
C2982 C 0.77893 0.8119 0.13314 0.0
C2983 C 0.78519 0.82761 0.13798 0.0
C2984 C 0.78014 0.80305 0.16045 0.0
C2985 C 0.79843 0.79377 0.21109 0.0
H2986 H 0.79121 0.7981 0.31175 0.0
C2987 C 0.83523 0.79352 0.32722 0.0
C2988 C 0.82819 0.7855 0.35879 0.0
C2989 C 0.82658 0.79436 0.29915 0.0
C2990 C 0.79302 0.79652 0.28374 0.0
H2991 H 0.7967 0.84626 0.17553 0.0
H2992 H 0.79841 0.83079 0.22342 0.0
H2993 H 0.78115 0.8077 0.26517 0.0
H2994 H 0.80659 0.77174 0.38551 0.0
H2995 H 0.7914 0.77369 0.33653 0.0
H2996 H 0.81124 0.78358 0.22975 0.0
C2997 C 0.79274 0.82531 0.19857 0.0
C2998 C 0.78734 0.80207 0.25716 0.0
C2999 C 0.79187 0.83418 0.17111 0.0
C3000 C 0.81227 0.77797 0.3614 0.0
C3001 C 0.80362 0.77911 0.33352 0.0
C3002 C 0.80433 0.78845 0.23769 0.0
C3003 C 0.78722 0.80975 0.19324 0.0
C3004 C 0.79038 0.80114 0.22067 0.0
C3005 C 0.81074 0.78743 0.30229 0.0
C3006 C 0.80206 0.7902 0.27426 0.0
H3007 H 0.77378 0.80662 0.10774 0.0
H3008 H 0.77584 0.79107 0.15574 0.0
H3009 H 0.80104 0.79303 0.18316 0.0
H3010 H 0.84748 0.79934 0.32442 0.0
H3011 H 0.83237 0.801 0.27555 0.0
C3012 C 0.18978 0.96525 0.13678 0.0
C3013 C 0.17384 0.95826 0.13591 0.0
C3014 C 0.19795 0.97414 0.16645 0.0
C3015 C 0.19353 0.98045 0.26215 0.0
H3016 H 0.22287 0.02294 0.24582 0.0
C3017 C 0.20015 0.0267 0.35729 0.0
C3018 C 0.21453 0.03903 0.36565 0.0
C3019 C 0.19858 0.01589 0.33213 0.0
C3020 C 0.21501 0.01103 0.2509 0.0
H3021 H 0.15397 0.95459 0.16582 0.0
H3022 H 0.1681 0.96977 0.21735 0.0
H3023 H 0.21379 0.00518 0.195 0.0
H3024 H 0.23862 0.0496 0.35449 0.0
H3025 H 0.23579 0.03063 0.30921 0.0
H3026 H 0.19407 0.98635 0.31756 0.0
C3027 C 0.17433 0.96852 0.19523 0.0
C3028 C 0.20981 1.00088 0.22183 0.0
C3029 C 0.16624 0.95994 0.16554 0.0
C3030 C 0.22741 0.04017 0.3486 0.0
C3031 C 0.22579 0.02939 0.3227 0.0
C3032 C 0.19873 0.99054 0.29107 0.0
C3033 C 0.19026 0.97581 0.19596 0.0
C3034 C 0.19849 0.98565 0.22703 0.0
C3035 C 0.21132 0.01715 0.31426 0.0
C3036 C 0.20897 0.00606 0.2855 0.0
H3037 H 0.19591 0.96414 0.11427 0.0
H3038 H 0.21023 0.97968 0.16637 0.0
H3039 H 0.18498 0.96872 0.26696 0.0
H3040 H 0.19 0.02543 0.3701 0.0
H3041 H 0.18725 0.00675 0.32583 0.0
C3042 C 0.04625 0.83427 0.67512 0.0
C3043 C 0.04475 0.82911 0.63945 0.0
C3044 C 0.03564 0.82539 0.70117 0.0
C3045 C 0.99567 0.79576 0.70856 0.0
H3046 H 0.00604 0.79876 0.80974 0.0
C3047 C 0.95462 0.79097 0.81972 0.0
C3048 C 0.95532 0.78537 0.8538 0.0
C3049 C 0.96473 0.79238 0.79261 0.0
C3050 C 0.00288 0.7975 0.7816 0.0
H3051 H 0.0314 0.81014 0.60374 0.0
H3052 H 0.01292 0.79451 0.64952 0.0
H3053 H 0.02608 0.808 0.7648 0.0
H3054 H 0.96665 0.77598 0.88537 0.0
H3055 H 0.98417 0.77825 0.83773 0.0
H3056 H 0.97247 0.78531 0.72538 0.0
C3057 C 0.02218 0.80558 0.65708 0.0
C3058 C 0.01441 0.80299 0.75582 0.0
C3059 C 0.03282 0.81451 0.6309 0.0
C3060 C 0.9659 0.7805 0.85954 0.0
C3061 C 0.97599 0.78185 0.83229 0.0
C3062 C 0.98413 0.79016 0.73434 0.0
C3063 C 0.02328 0.81107 0.69233 0.0
C3064 C 0.01099 0.8027 0.71908 0.0
C3065 C 0.97573 0.78812 0.79873 0.0
C3066 C 0.98763 0.79148 0.77123 0.0
H3067 H 0.05535 0.84542 0.68278 0.0
H3068 H 0.03677 0.83011 0.72786 0.0
H3069 H 0.99259 0.79539 0.68054 0.0
H3070 H 0.94659 0.79478 0.81425 0.0
H3071 H 0.96431 0.79746 0.76734 0.0
C3072 C 0.16985 0.2105 0.66622 0.0
C3073 C 0.17718 0.21844 0.63481 0.0
C3074 C 0.17819 0.21023 0.69557 0.0
C3075 C 0.2128 0.21083 0.719 0.0
H3076 H 0.19902 0.21191 0.81568 0.0
C3077 C 0.22918 0.18819 0.84626 0.0
C3078 C 0.216 0.17692 0.86342 0.0
C3079 C 0.22814 0.19758 0.82009 0.0
C3080 C 0.20316 0.21177 0.78891 0.0
H3081 H 0.19906 0.23263 0.60966 0.0
H3082 H 0.21385 0.2318 0.6613 0.0
H3083 H 0.19058 0.22131 0.76546 0.0
H3084 H 0.19156 0.167 0.8676 0.0
H3085 H 0.18984 0.18344 0.82282 0.0
H3086 H 0.22468 0.20043 0.74247 0.0
C3087 C 0.20157 0.22593 0.663 0.0
C3088 C 0.19834 0.21714 0.7602 0.0
C3089 C 0.19314 0.22642 0.63361 0.0
C3090 C 0.20191 0.1755 0.85471 0.0
C3091 C 0.20093 0.18502 0.82928 0.0
C3092 C 0.21768 0.20547 0.74788 0.0
C3093 C 0.19412 0.21778 0.69422 0.0
C3094 C 0.20249 0.21601 0.72478 0.0
C3095 C 0.21398 0.19608 0.8115 0.0
C3096 C 0.21228 0.20523 0.78281 0.0
H3097 H 0.15756 0.20436 0.66809 0.0
H3098 H 0.17211 0.20367 0.71899 0.0
H3099 H 0.21614 0.20979 0.69196 0.0
H3100 H 0.24017 0.18947 0.85244 0.0
H3101 H 0.23835 0.206 0.8066 0.0
C3102 C 0.77511 0.96245 0.64741 0.0
C3103 C 0.78835 0.964 0.6314 0.0
C3104 C 0.7761 0.97302 0.67313 0.0
C3105 C 0.80124 0.01209 0.70416 0.0
H3106 H 0.78767 0.99758 0.80112 0.0
C3107 C 0.83436 0.04408 0.82691 0.0
C3108 C 0.82703 0.0448 0.8582 0.0
C3109 C 0.82601 0.03558 0.79746 0.0
C3110 C 0.79116 0.00184 0.77404 0.0
H3111 H 0.81289 0.97802 0.62884 0.0
H3112 H 0.81454 0.99644 0.67279 0.0
H3113 H 0.77916 0.97949 0.75101 0.0
H3114 H 0.80515 0.03748 0.88301 0.0
H3115 H 0.79034 0.02207 0.83117 0.0
H3116 H 0.81395 0.03426 0.7272 0.0
C3117 C 0.80343 0.98709 0.66578 0.0
C3118 C 0.78631 0.99149 0.74541 0.0
C3119 C 0.80248 0.97645 0.64083 0.0
C3120 C 0.81106 0.0371 0.85914 0.0
C3121 C 0.80262 0.02829 0.82964 0.0
C3122 C 0.80604 0.02239 0.73262 0.0
C3123 C 0.7903 0.98546 0.68237 0.0
C3124 C 0.79193 0.99647 0.71054 0.0
C3125 C 0.81007 0.02742 0.79858 0.0
C3126 C 0.80168 0.01727 0.76807 0.0
H3127 H 0.76407 0.95291 0.64066 0.0
H3128 H 0.76582 0.9715 0.68574 0.0
H3129 H 0.80557 0.01622 0.67741 0.0
H3130 H 0.84665 0.05001 0.82529 0.0
H3131 H 0.83209 0.03497 0.77418 0.0
C3132 C 0.644 0.50862 0.69127 0.0
C3133 C 0.6318 0.51074 0.70055 0.0
C3134 C 0.65464 0.5179 0.66582 0.0
C3135 C 0.65897 0.53916 0.58519 0.0
H3136 H 0.70151 0.55211 0.60021 0.0
C3137 C 0.70381 0.55895 0.46931 0.0
C3138 C 0.71091 0.55011 0.46886 0.0
C3139 C 0.6952 0.55856 0.49924 0.0
C3140 C 0.68971 0.54875 0.59569 0.0
H3141 H 0.62123 0.52437 0.69068 0.0
H3142 H 0.63984 0.54052 0.64486 0.0
H3143 H 0.6841 0.54347 0.65126 0.0
H3144 H 0.71513 0.53449 0.49978 0.0
H3145 H 0.70042 0.534 0.55166 0.0
H3146 H 0.66449 0.54359 0.52912 0.0
C3147 C 0.64114 0.53171 0.65788 0.0
C3148 C 0.67976 0.54381 0.62486 0.0
C3149 C 0.63056 0.52253 0.68406 0.0
C3150 C 0.70967 0.54132 0.49915 0.0
C3151 C 0.70137 0.54115 0.52906 0.0
C3152 C 0.66897 0.54412 0.55585 0.0
C3153 C 0.65328 0.52946 0.6486 0.0
C3154 C 0.66418 0.53828 0.61965 0.0
C3155 C 0.69394 0.54965 0.5294 0.0
C3156 C 0.68428 0.54825 0.56068 0.0
H3157 H 0.64533 0.49971 0.70363 0.0
H3158 H 0.66373 0.51573 0.65884 0.0
H3159 H 0.647 0.53491 0.58043 0.0
H3160 H 0.7046 0.56584 0.44629 0.0
H3161 H 0.68953 0.56519 0.49886 0.0
C3162 C 0.49311 0.1343 0.68814 0.0
C3163 C 0.4913 0.12009 0.69735 0.0
C3164 C 0.48348 0.13541 0.66326 0.0
C3165 C 0.46193 0.11847 0.58339 0.0
H3166 H 0.44755 0.14675 0.60113 0.0
C3167 C 0.44158 0.14363 0.46931 0.0
C3168 C 0.45008 0.15958 0.47 0.0
C3169 C 0.44187 0.13518 0.4989 0.0
C3170 C 0.4513 0.13867 0.59584 0.0
H3171 H 0.47791 0.09586 0.68788 0.0
H3172 H 0.46118 0.09788 0.64291 0.0
H3173 H 0.4569 0.13815 0.65111 0.0
H3174 H 0.46484 0.1792 0.50256 0.0
H3175 H 0.46515 0.16462 0.55385 0.0
H3176 H 0.45728 0.11986 0.52762 0.0
C3177 C 0.46999 0.10809 0.65562 0.0
C3178 C 0.45663 0.13374 0.62441 0.0
C3179 C 0.47951 0.10694 0.6813 0.0
C3180 C 0.45829 0.16691 0.50113 0.0
C3181 C 0.45835 0.15856 0.53068 0.0
C3182 C 0.45661 0.12345 0.55465 0.0
C3183 C 0.47191 0.12237 0.6465 0.0
C3184 C 0.46267 0.12419 0.61821 0.0
C3185 C 0.45033 0.14262 0.52981 0.0
C3186 C 0.45195 0.13419 0.56045 0.0
H3187 H 0.50202 0.14464 0.70019 0.0
H3188 H 0.48537 0.14658 0.65636 0.0
H3189 H 0.46658 0.11114 0.5779 0.0
H3190 H 0.43517 0.13772 0.44557 0.0
H3191 H 0.43562 0.1229 0.49756 0.0
C3192 C 0.83424 0.29291 0.5012 0.0
C3193 C 0.84169 0.29157 0.47082 0.0
C3194 C 0.84247 0.30123 0.53101 0.0
C3195 C 0.87814 0.33355 0.55717 0.0
H3196 H 0.86242 0.31894 0.65287 0.0
C3197 C 0.89605 0.37237 0.68492 0.0
C3198 C 0.88321 0.37147 0.70166 0.0
C3199 C 0.89432 0.36165 0.65876 0.0
C3200 C 0.86708 0.32313 0.62639 0.0
H3201 H 0.86365 0.29771 0.44801 0.0
H3202 H 0.87824 0.31279 0.50041 0.0
H3203 H 0.85328 0.30136 0.60218 0.0
H3204 H 0.85862 0.35838 0.70516 0.0
H3205 H 0.85568 0.33975 0.66043 0.0
H3206 H 0.89129 0.35556 0.58133 0.0
C3207 C 0.86595 0.3072 0.50095 0.0
C3208 C 0.86185 0.31309 0.5974 0.0
C3209 C 0.85763 0.29857 0.47111 0.0
C3210 C 0.86874 0.35946 0.69262 0.0
C3211 C 0.86705 0.34868 0.66719 0.0
C3212 C 0.8834 0.34365 0.58631 0.0
C3213 C 0.85841 0.30859 0.53116 0.0
C3214 C 0.86678 0.31833 0.56228 0.0
C3215 C 0.87977 0.3497 0.64974 0.0
C3216 C 0.87736 0.33864 0.62089 0.0
H3217 H 0.82197 0.28754 0.50192 0.0
H3218 H 0.83634 0.30227 0.55364 0.0
H3219 H 0.88209 0.33789 0.53035 0.0
H3220 H 0.90733 0.38155 0.69135 0.0
H3221 H 0.9043 0.3627 0.64556 0.0
C3222 C 0.62908 0.10688 0.18159 0.0
C3223 C 0.63032 0.12001 0.19747 0.0
C3224 C 0.63978 0.10809 0.15598 0.0
C3225 C 0.6787 0.13387 0.12482 0.0
H3226 H 0.6642 0.12011 0.02794 0.0
C3227 C 0.70998 0.16741 0.00188 0.0
C3228 C 0.71083 0.16019 0.97053 0.0
C3229 C 0.70165 0.15895 0.0314 0.0
C3230 C 0.66846 0.12366 0.05499 0.0
H3231 H 0.64393 0.14458 0.20004 0.0
H3232 H 0.66258 0.14663 0.15627 0.0
H3233 H 0.64618 0.11122 0.07819 0.0
H3234 H 0.70395 0.13841 0.94569 0.0
H3235 H 0.68885 0.12341 0.99763 0.0
H3236 H 0.70078 0.14702 0.1016 0.0
C3237 C 0.65337 0.13543 0.16329 0.0
C3238 C 0.65816 0.11859 0.08371 0.0
C3239 C 0.6426 0.13426 0.18811 0.0
C3240 C 0.70345 0.14424 0.96959 0.0
C3241 C 0.69482 0.13569 -0.00084 0.0
C3242 C 0.68896 0.13889 0.09627 0.0
C3243 C 0.65204 0.12241 0.14676 0.0
C3244 C 0.66311 0.12427 0.11855 0.0
C3245 C 0.69382 0.14301 0.03028 0.0
C3246 C 0.68382 0.13446 0.06086 0.0
H3247 H 0.61968 0.09577 0.1883 0.0
H3248 H 0.63849 0.09791 0.14342 0.0
H3249 H 0.68281 0.13825 0.15155 0.0
H3250 H 0.71566 0.17969 0.00351 0.0
H3251 H 0.70092 0.16493 0.05475 0.0
C3252 C 0.88698 0.52165 0.19887 0.0
C3253 C 0.88469 0.50715 0.19065 0.0
C3254 C 0.8866 0.53099 0.1716 0.0
C3255 C 0.88704 0.53493 0.07157 0.0
H3256 H 0.86066 0.55159 0.08917 0.0
C3257 C 0.84677 0.53654 0.96804 0.0
C3258 C 0.84602 0.54984 0.96351 0.0
C3259 C 0.85592 0.53567 0.99472 0.0
C3260 C 0.86835 0.54733 0.08406 0.0
H3261 H 0.88091 0.4914 0.1471 0.0
H3262 H 0.88 0.50739 0.1002 0.0
H3263 H 0.86885 0.54195 0.13953 0.0
H3264 H 0.85431 0.57276 0.98271 0.0
H3265 H 0.87002 0.571 0.03097 0.0
H3266 H 0.88549 0.5392 0.01573 0.0
C3267 C 0.88228 0.51174 0.12744 0.0
C3268 C 0.87307 0.54182 0.11287 0.0
C3269 C 0.88262 0.50245 0.15453 0.0
C3270 C 0.85483 0.56243 0.98567 0.0
C3271 C 0.86373 0.56141 0.01318 0.0
C3272 C 0.88218 0.54025 0.04281 0.0
C3273 C 0.88405 0.52604 0.13559 0.0
C3274 C 0.88192 0.53494 0.10672 0.0
C3275 C 0.86426 0.54797 0.01797 0.0
C3276 C 0.87233 0.54595 0.04867 0.0
H3277 H 0.88866 0.52563 0.22643 0.0
H3278 H 0.8881 0.54198 0.17874 0.0
H3279 H 0.89418 0.53006 0.06599 0.0
H3280 H 0.8401 0.5267 0.95118 0.0
H3281 H 0.85599 0.52512 -0.00186 0.0
C3282 C 0.4942 0.359 0.19106 0.0
C3283 C 0.49236 0.37136 0.20043 0.0
C3284 C 0.48455 0.34827 0.1662 0.0
C3285 C 0.46288 0.34361 0.08655 0.0
H3286 H 0.44833 0.30093 0.10435 0.0
C3287 C 0.4422 0.29828 0.97219 0.0
C3288 C 0.45039 0.29051 0.97288 0.0
C3289 C 0.44261 0.30703 0.0019 0.0
C3290 C 0.45215 0.31278 0.09902 0.0
H3291 H 0.4789 0.38216 0.19129 0.0
H3292 H 0.46212 0.3634 0.14636 0.0
H3293 H 0.45789 0.31891 0.15424 0.0
H3294 H 0.46469 0.28508 0.0056 0.0
H3295 H 0.46525 0.3 0.05704 0.0
H3296 H 0.4581 0.33757 0.03083 0.0
C3297 C 0.47098 0.36203 0.15893 0.0
C3298 C 0.45759 0.32305 0.12756 0.0
C3299 C 0.48052 0.37269 0.18459 0.0
C3300 C 0.45838 0.29106 0.00417 0.0
C3301 C 0.45857 0.2995 0.03381 0.0
C3302 C 0.45746 0.3333 0.05784 0.0
C3303 C 0.47293 0.34971 0.14963 0.0
C3304 C 0.46366 0.33865 0.12135 0.0
C3305 C 0.4509 0.30776 0.03293 0.0
C3306 C 0.45274 0.31789 0.06362 0.0
H3307 H 0.50316 0.35761 0.20295 0.0
H3308 H 0.48646 0.33901 0.15918 0.0
H3309 H 0.46755 0.3556 0.08106 0.0
H3310 H 0.43597 0.29805 0.94834 0.0
H3311 H 0.43661 0.31331 0.00053 0.0
C3312 C 0.36187 0.86405 0.80897 0.0
C3313 C 0.37308 0.87874 0.79875 0.0
C3314 C 0.35072 0.86189 0.83372 0.0
C3315 C 0.34313 0.87832 0.911 0.0
H3316 H 0.30186 0.84584 0.89395 0.0
C3317 C 0.29646 0.85254 0.02264 0.0
C3318 C 0.29013 0.8367 0.025 0.0
C3319 C 0.30543 0.86053 0.99294 0.0
C3320 C 0.31329 0.85505 0.89902 0.0
H3321 H 0.38138 0.90276 0.80659 0.0
H3322 H 0.36183 0.89892 0.8511 0.0
H3323 H 0.32008 0.85512 0.84454 0.0
H3324 H 0.28775 0.81677 0.99767 0.0
H3325 H 0.30313 0.83058 0.94615 0.0
H3326 H 0.33647 0.87761 0.96609 0.0
C3327 C 0.36172 0.88913 0.83934 0.0
C3328 C 0.3237 0.86036 0.87078 0.0
C3329 C 0.37285 0.89131 0.81391 0.0
C3330 C 0.29257 0.82898 0.99681 0.0
C3331 C 0.30126 0.83688 0.96709 0.0
C3332 C 0.33266 0.87299 0.9394 0.0
C3333 C 0.35051 0.87436 0.84926 0.0
C3334 C 0.33888 0.87155 0.87685 0.0
C3335 C 0.30787 0.85272 0.96488 0.0
C3336 C 0.31784 0.86082 0.93393 0.0
H3337 H 0.36166 0.85411 0.79774 0.0
H3338 H 0.34238 0.85039 0.84129 0.0
H3339 H 0.35478 0.88694 0.91639 0.0
H3340 H 0.29476 0.85878 0.04402 0.0
H3341 H 0.31043 0.87275 0.99186 0.0
C3342 C 0.17587 0.46122 0.98719 0.0
C3343 C 0.16924 0.45622 0.0213 0.0
C3344 C 0.16862 0.46507 0.96088 0.0
C3345 C 0.15747 0.48502 0.92867 0.0
H3346 H 0.11575 0.46147 0.89588 0.0
C3347 C 0.12129 0.48975 0.80557 0.0
C3348 C 0.12494 0.50496 0.80999 0.0
C3349 C 0.12437 0.48223 0.833 0.0
C3350 C 0.12741 0.46813 0.90491 0.0
H3351 H 0.14921 0.45027 0.05349 0.0
H3352 H 0.13647 0.45697 0.00701 0.0
H3353 H 0.12564 0.45046 0.93988 0.0
H3354 H 0.13374 0.5238 0.84771 0.0
H3355 H 0.13922 0.51074 0.89503 0.0
H3356 H 0.15936 0.5027 0.89423 0.0
C3357 C 0.14735 0.45795 0.00101 0.0
C3358 C 0.13302 0.46188 0.93007 0.0
C3359 C 0.15468 0.45418 0.02759 0.0
C3360 C 0.13095 0.51217 0.84311 0.0
C3361 C 0.13411 0.50471 0.87028 0.0
C3362 C 0.15184 0.49131 0.90411 0.0
C3363 C 0.15452 0.4639 0.96788 0.0
C3364 C 0.14816 0.47025 0.94185 0.0
C3365 C 0.13124 0.48983 0.86514 0.0
C3366 C 0.13678 0.48294 0.89189 0.0
H3367 H 0.18697 0.46274 0.98114 0.0
H3368 H 0.17428 0.46942 0.93533 0.0
H3369 H 0.16914 0.49178 0.93761 0.0
H3370 H 0.11656 0.48383 0.78049 0.0
H3371 H 0.12209 0.47076 0.82839 0.0
C3372 C 0.55967 0.70441 0.02208 0.0
C3373 C 0.55088 0.71156 0.02287 0.0
C3374 C 0.55864 0.69525 0.99272 0.0
C3375 C 0.54595 0.68736 0.89785 0.0
H3376 H 0.53386 0.64541 0.91827 0.0
C3377 C 0.50417 0.63865 0.81088 0.0
C3378 C 0.50728 0.62722 0.80034 0.0
C3379 C 0.5135 0.64974 0.83546 0.0
C3380 C 0.53758 0.65716 0.91207 0.0
H3381 H 0.53475 0.71537 0.99303 0.0
H3382 H 0.53307 0.69967 0.94221 0.0
H3383 H 0.54374 0.66424 0.96685 0.0
H3384 H 0.52258 0.61836 0.80762 0.0
H3385 H 0.5388 0.63775 0.85194 0.0
H3386 H 0.53888 0.68015 0.84372 0.0
C3387 C 0.54072 0.70101 0.96403 0.0
C3388 C 0.54324 0.66794 0.93981 0.0
C3389 C 0.54156 0.70989 0.99335 0.0
C3390 C 0.51994 0.62708 0.8152 0.0
C3391 C 0.52918 0.63811 0.84051 0.0
C3392 C 0.54026 0.67663 0.8703 0.0
C3393 C 0.54908 0.69344 0.96347 0.0
C3394 C 0.5468 0.68299 0.93323 0.0
C3395 C 0.52608 0.64961 0.85053 0.0
C3396 C 0.53539 0.66132 0.87749 0.0
H3397 H 0.56694 0.70551 0.04453 0.0
H3398 H 0.5652 0.68952 0.99294 0.0
H3399 H 0.54887 0.69894 0.89188 0.0
H3400 H 0.49457 0.63916 0.79987 0.0
H3401 H 0.51071 0.65834 0.84313 0.0
C3402 C 0.36916 0.48294 0.30155 0.0
C3403 C 0.38127 0.49751 0.30975 0.0
C3404 C 0.35825 0.47441 0.32764 0.0
C3405 C 0.34992 0.47283 0.426 0.0
H3406 H 0.30817 0.45493 0.39389 0.0
C3407 C 0.30048 0.44995 0.52767 0.0
C3408 C 0.28963 0.45438 0.52102 0.0
C3409 C 0.31098 0.45165 0.50112 0.0
C3410 C 0.31976 0.45987 0.40334 0.0
H3411 H 0.3918 0.51415 0.35244 0.0
H3412 H 0.37277 0.49954 0.3973 0.0
H3413 H 0.32857 0.46473 0.34977 0.0
H3414 H 0.28095 0.46352 0.48062 0.0
H3415 H 0.29936 0.46679 0.43492 0.0
H3416 H 0.3412 0.4689 0.47963 0.0
C3417 C 0.37172 0.49454 0.37098 0.0
C3418 C 0.33147 0.4653 0.37797 0.0
C3419 C 0.3826 0.50302 0.34504 0.0
C3420 C 0.28916 0.46001 0.48678 0.0
C3421 C 0.29967 0.46177 0.46037 0.0
C3422 C 0.33822 0.46749 0.45137 0.0
C3423 C 0.35922 0.48027 0.36246 0.0
C3424 C 0.34673 0.47227 0.38903 0.0
C3425 C 0.31088 0.45785 0.46735 0.0
C3426 C 0.32303 0.46135 0.44038 0.0
H3427 H 0.36784 0.4783 0.2747 0.0
H3428 H 0.34889 0.46337 0.32032 0.0
H3429 H 0.36152 0.47787 0.43546 0.0
H3430 H 0.30108 0.44545 0.55364 0.0
H3431 H 0.31931 0.44831 0.50723 0.0
C3432 C 0.50608 0.86577 0.30913 0.0
C3433 C 0.50864 0.88022 0.29954 0.0
C3434 C 0.51562 0.86419 0.3334 0.0
C3435 C 0.53905 0.88095 0.41104 0.0
H3436 H 0.55105 0.85094 0.39138 0.0
C3437 C 0.56075 0.85585 0.52203 0.0
C3438 C 0.552 0.8399 0.52263 0.0
C3439 C 0.5599 0.86401 0.49255 0.0
C3440 C 0.54794 0.85948 0.3972 0.0
H3441 H 0.52323 0.90441 0.30794 0.0
H3442 H 0.53984 0.90158 0.35178 0.0
H3443 H 0.54126 0.85975 0.34275 0.0
H3444 H 0.53611 0.82 0.49234 0.0
H3445 H 0.53477 0.83411 0.44121 0.0
H3446 H 0.54484 0.87991 0.46608 0.0
C3447 C 0.53049 0.89153 0.33984 0.0
C3448 C 0.54236 0.86452 0.36939 0.0
C3449 C 0.52103 0.89314 0.31481 0.0
C3450 C 0.54289 0.83229 0.49279 0.0
C3451 C 0.54224 0.84037 0.46331 0.0
C3452 C 0.54462 0.87585 0.43902 0.0
C3453 C 0.52787 0.87701 0.34914 0.0
C3454 C 0.53721 0.87477 0.37637 0.0
C3455 C 0.55056 0.85631 0.46297 0.0
C3456 C 0.54843 0.86453 0.4326 0.0
H3457 H 0.4967 0.85558 0.29772 0.0
H3458 H 0.51319 0.85286 0.34049 0.0
H3459 H 0.53511 0.88883 0.41712 0.0
H3460 H 0.56786 0.86199 0.54474 0.0
H3461 H 0.56642 0.8763 0.49294 0.0
C3462 C 0.1712 0.71613 0.48275 0.0
C3463 C 0.16566 0.71469 0.51804 0.0
C3464 C 0.16277 0.70526 0.45671 0.0
C3465 C 0.13366 0.66498 0.44961 0.0
H3466 H 0.13705 0.67466 0.34796 0.0
C3467 C 0.12759 0.62237 0.34079 0.0
C3468 C 0.12165 0.62272 0.30689 0.0
C3469 C 0.12973 0.63306 0.36708 0.0
C3470 C 0.13572 0.6717 0.37622 0.0
H3471 H 0.14643 0.70116 0.55294 0.0
H3472 H 0.13158 0.68229 0.50716 0.0
H3473 H 0.14612 0.69501 0.39212 0.0
H3474 H 0.11264 0.63422 0.27466 0.0
H3475 H 0.11617 0.65276 0.32085 0.0
H3476 H 0.12324 0.64168 0.43373 0.0
C3477 C 0.14262 0.69168 0.49993 0.0
C3478 C 0.14111 0.68341 0.40158 0.0
C3479 C 0.1511 0.70255 0.52611 0.0
C3480 C 0.11737 0.6337 0.30038 0.0
C3481 C 0.11945 0.64437 0.3268 0.0
C3482 C 0.12818 0.65327 0.42427 0.0
C3483 C 0.14852 0.69272 0.46513 0.0
C3484 C 0.14058 0.68023 0.43854 0.0
C3485 C 0.12588 0.64433 0.36029 0.0
C3486 C 0.12957 0.65652 0.38724 0.0
H3487 H 0.18233 0.72536 0.47546 0.0
H3488 H 0.16779 0.70637 0.43039 0.0
H3489 H 0.13312 0.66208 0.47781 0.0
H3490 H 0.13101 0.61408 0.34682 0.0
H3491 H 0.13493 0.6328 0.39229 0.0
C3492 C 0.1082 0.2784 0.09037 0.0
C3493 C 0.09519 0.27021 0.06893 0.0
C3494 C 0.11437 0.29399 0.09571 0.0
C3495 C 0.11612 0.32788 0.05497 0.0
H3496 H 0.13466 0.3461 0.14634 0.0
C3497 C 0.14816 0.39331 0.08282 0.0
C3498 C 0.16248 0.3987 0.0989 0.0
C3499 C 0.13801 0.37764 0.07987 0.0
C3500 C 0.12952 0.34118 0.12067 0.0
H3501 H 0.07824 0.27197 0.03705 0.0
H3502 H 0.08898 0.2992 0.04672 0.0
H3503 H 0.12022 0.31855 0.14075 0.0
H3504 H 0.17733 0.39178 0.12431 0.0
H3505 H 0.15974 0.36478 0.11932 0.0
H3506 H 0.12569 0.35064 0.0349 0.0
C3507 C 0.09451 0.29356 0.05897 0.0
C3508 C 0.12129 0.32539 0.11741 0.0
C3509 C 0.08832 0.27794 0.05361 0.0
C3510 C 0.16641 0.38811 0.11181 0.0
C3511 C 0.15627 0.37258 0.10923 0.0
C3512 C 0.12432 0.34372 0.0583 0.0
C3513 C 0.10768 0.3018 0.07987 0.0
C3514 C 0.11484 0.31854 0.08429 0.0
C3515 C 0.14194 0.36714 0.09343 0.0
C3516 C 0.13144 0.35051 0.09094 0.0
H3517 H 0.11381 0.27285 0.10257 0.0
H3518 H 0.12466 0.29999 0.11152 0.0
H3519 H 0.11138 0.32298 0.029 0.0
H3520 H 0.14481 0.40117 0.07254 0.0
H3521 H 0.12701 0.37373 0.06751 0.0
C3522 C 0.72608 0.8154 0.06444 0.0
C3523 C 0.73359 0.83123 0.0689 0.0
C3524 C 0.71031 0.80665 0.06873 0.0
C3525 C 0.67711 0.80879 0.10509 0.0
H3526 H 0.65388 0.7741 0.04283 0.0
C3527 C 0.61268 0.78185 0.0843 0.0
C3528 C 0.60405 0.76621 0.09161 0.0
C3529 C 0.62847 0.78898 0.0815 0.0
C3530 C 0.66028 0.78371 0.0605 0.0
H3531 H 0.73041 0.85032 0.08108 0.0
H3532 H 0.70306 0.8353 0.08712 0.0
H3533 H 0.6816 0.78814 0.03879 0.0
H3534 H 0.60516 0.74569 0.10021 0.0
H3535 H 0.63286 0.7582 0.09423 0.0
H3536 H 0.65568 0.80467 0.12557 0.0
C3537 C 0.70927 0.82945 0.08154 0.0
C3538 C 0.67616 0.79172 0.05841 0.0
C3539 C 0.72501 0.83813 0.07784 0.0
C3540 C 0.61152 0.75776 0.09471 0.0
C3541 C 0.62732 0.76488 0.0912 0.0
C3542 C 0.66127 0.80096 0.10666 0.0
C3543 C 0.70167 0.81358 0.07708 0.0
C3544 C 0.68479 0.80447 0.08048 0.0
C3545 C 0.63594 0.7806 0.08526 0.0
C3546 C 0.65272 0.78844 0.08421 0.0
H3547 H 0.7324 0.80975 0.05774 0.0
H3548 H 0.70493 0.79446 0.06566 0.0
H3549 H 0.68331 0.81825 0.12324 0.0
H3550 H 0.6073 0.78869 0.08184 0.0
H3551 H 0.63488 0.80111 0.07663 0.0
C3552 C 0.21955 0.82921 0.08051 0.0
C3553 C 0.23512 0.83615 0.08841 0.0
C3554 C 0.21251 0.83792 0.07672 0.0
C3555 C 0.21794 0.87605 0.0992 0.0
H3556 H 0.18311 0.86279 0.03637 0.0
C3557 C 0.18783 0.91079 0.06644 0.0
C3558 C 0.17196 0.90271 0.07079 0.0
C3559 C 0.19623 0.90334 0.06919 0.0
C3560 C 0.1928 0.86658 0.0541 0.0
H3561 H 0.25566 0.85773 0.09701 0.0
H3562 H 0.24355 0.87303 0.08879 0.0
H3563 H 0.19682 0.84885 0.0371 0.0
H3564 H 0.15252 0.88052 0.08211 0.0
H3565 H 0.16717 0.86753 0.0861 0.0
H3566 H 0.21402 0.8941 0.11521 0.0
C3567 C 0.23662 0.8608 0.08679 0.0
C3568 C 0.20063 0.85856 0.05473 0.0
C3569 C 0.24361 0.85204 0.09119 0.0
C3570 C 0.16472 0.8871 0.07872 0.0
C3571 C 0.17307 0.87963 0.08077 0.0
C3572 C 0.21025 0.88425 0.09804 0.0
C3573 C 0.22091 0.85385 0.08008 0.0
C3574 C 0.21318 0.86303 0.07769 0.0
C3575 C 0.18886 0.88763 0.07564 0.0
C3576 C 0.19748 0.87944 0.07587 0.0
H3577 H 0.21264 0.81697 0.07854 0.0
H3578 H 0.20036 0.83207 0.07226 0.0
H3579 H 0.22736 0.87974 0.11769 0.0
H3580 H 0.19373 0.92282 0.06038 0.0
H3581 H 0.20841 0.90974 0.06511 0.0
C3582 C 0.39082 0.17123 0.40949 0.0
C3583 C 0.39926 0.1641 0.40152 0.0
C3584 C 0.37505 0.16271 0.41335 0.0
C3585 C 0.3418 0.12463 0.39226 0.0
H3586 H 0.32115 0.1385 0.45635 0.0
C3587 C 0.27719 0.09057 0.4283 0.0
C3588 C 0.26953 0.09878 0.42401 0.0
C3589 C 0.29303 0.09786 0.42506 0.0
C3590 C 0.32679 0.13453 0.43828 0.0
H3591 H 0.39783 0.14236 0.39256 0.0
H3592 H 0.37041 0.12739 0.40088 0.0
H3593 H 0.34879 0.15224 0.45396 0.0
H3594 H 0.27248 0.12103 0.4125 0.0
H3595 H 0.30009 0.13374 0.4077 0.0
H3596 H 0.3196 0.10661 0.37762 0.0
C3597 C 0.37586 0.13963 0.40291 0.0
C3598 C 0.34265 0.14245 0.43668 0.0
C3599 C 0.39162 0.1482 0.39842 0.0
C3600 C 0.27801 0.11436 0.41586 0.0
C3601 C 0.29382 0.12167 0.41332 0.0
C3602 C 0.32593 0.11654 0.39441 0.0
C3603 C 0.36731 0.14677 0.41003 0.0
C3604 C 0.3504 0.13776 0.41324 0.0
C3605 C 0.30148 0.11353 0.41819 0.0
C3606 C 0.31829 0.12156 0.41706 0.0
H3607 H 0.39634 0.18348 0.4117 0.0
H3608 H 0.36893 0.16871 0.41805 0.0
H3609 H 0.34727 0.12076 0.37346 0.0
H3610 H 0.27097 0.07856 0.43451 0.0
H3611 H 0.29871 0.09136 0.42895 0.0
C3612 C 0.83227 0.22165 0.41033 0.0
C3613 C 0.83916 0.23715 0.40175 0.0
C3614 C 0.841 0.21465 0.41451 0.0
C3615 C 0.87915 0.21979 0.39332 0.0
H3616 H 0.86578 0.18582 0.45895 0.0
C3617 C 0.9134 0.18947 0.4302 0.0
C3618 C 0.90516 0.1736 0.42613 0.0
C3619 C 0.90613 0.19803 0.42682 0.0
C3620 C 0.86961 0.19528 0.44047 0.0
H3621 H 0.8607 0.25759 0.39189 0.0
H3622 H 0.87605 0.24555 0.40071 0.0
H3623 H 0.85194 0.1996 0.45618 0.0
H3624 H 0.88287 0.15429 0.41492 0.0
H3625 H 0.87019 0.16921 0.40994 0.0
H3626 H 0.89714 0.21556 0.37862 0.0
C3627 C 0.86383 0.23864 0.40305 0.0
C3628 C 0.86164 0.20314 0.43865 0.0
C3629 C 0.85504 0.24559 0.39826 0.0
C3630 C 0.88957 0.16649 0.4181 0.0
C3631 C 0.88228 0.175 0.41545 0.0
C3632 C 0.8873 0.21208 0.39569 0.0
C3633 C 0.85691 0.22302 0.41091 0.0
C3634 C 0.86611 0.21535 0.41459 0.0
C3635 C 0.89045 0.19081 0.42007 0.0
C3636 C 0.88244 0.1996 0.41886 0.0
H3637 H 0.82004 0.21477 0.41286 0.0
H3638 H 0.83516 0.20256 0.41973 0.0
H3639 H 0.88286 0.22896 0.37409 0.0
H3640 H 0.92543 0.19526 0.43629 0.0
H3641 H 0.91266 0.21022 0.43053 0.0
C3642 C 0.81397 0.72512 0.43095 0.0
C3643 C 0.82985 0.73258 0.42739 0.0
C3644 C 0.80518 0.70938 0.42593 0.0
C3645 C 0.80752 0.67628 0.38931 0.0
H3646 H 0.77213 0.65276 0.44936 0.0
C3647 C 0.78068 0.61187 0.41017 0.0
C3648 C 0.76516 0.60312 0.40165 0.0
C3649 C 0.78766 0.62765 0.41286 0.0
C3650 C 0.78193 0.65923 0.43228 0.0
H3651 H 0.84896 0.72932 0.41604 0.0
H3652 H 0.83387 0.70205 0.40879 0.0
H3653 H 0.78613 0.68045 0.4542 0.0
H3654 H 0.74467 0.60401 0.39068 0.0
H3655 H 0.75688 0.63172 0.39654 0.0
H3656 H 0.80364 0.65495 0.36874 0.0
C3657 C 0.82802 0.70827 0.41419 0.0
C3658 C 0.78993 0.67511 0.43482 0.0
C3659 C 0.83674 0.72398 0.41861 0.0
C3660 C 0.75665 0.61047 0.39715 0.0
C3661 C 0.7636 0.62627 0.40058 0.0
C3662 C 0.79971 0.66045 0.38731 0.0
C3663 C 0.8121 0.70071 0.41774 0.0
C3664 C 0.80295 0.68386 0.41363 0.0
C3665 C 0.77922 0.635 0.4078 0.0
C3666 C 0.78694 0.65179 0.40898 0.0
H3667 H 0.80832 0.73145 0.43753 0.0
H3668 H 0.79296 0.70405 0.42834 0.0
H3669 H 0.81719 0.68256 0.37178 0.0
H3670 H 0.78757 0.60659 0.41371 0.0
H3671 H 0.7997 0.63415 0.41872 0.0
C3672 C 0.85656 0.61026 0.88848 0.0
C3673 C 0.84135 0.60246 0.90014 0.0
C3674 C 0.86532 0.62608 0.89173 0.0
C3675 C 0.86084 0.6596 0.89677 0.0
H3676 H 0.902 0.6807 0.93404 0.0
C3677 C 0.88883 0.72161 0.93956 0.0
C3678 C 0.90425 0.73155 0.93177 0.0
C3679 C 0.88227 0.70606 0.93384 0.0
C3680 C 0.89061 0.67498 0.92303 0.0
H3681 H 0.82362 0.60517 0.92553 0.0
H3682 H 0.83885 0.63266 0.931 0.0
H3683 H 0.88844 0.65296 0.92854 0.0
H3684 H 0.92491 0.73278 0.91203 0.0
H3685 H 0.91329 0.70535 0.9016 0.0
H3686 H 0.86287 0.68142 0.89108 0.0
C3687 C 0.84395 0.62656 0.91901 0.0
C3688 C 0.88284 0.65911 0.92001 0.0
C3689 C 0.83525 0.61079 0.91605 0.0
C3690 C 0.913 0.72545 0.91829 0.0
C3691 C 0.90637 0.70975 0.91246 0.0
C3692 C 0.8686 0.67538 0.89954 0.0
C3693 C 0.85899 0.63441 0.9064 0.0
C3694 C 0.86775 0.65125 0.90757 0.0
C3695 C 0.89087 0.69991 0.91991 0.0
C3696 C 0.88344 0.68326 0.91349 0.0
H3697 H 0.86164 0.60419 0.87625 0.0
H3698 H 0.87687 0.63183 0.88174 0.0
H3699 H 0.84936 0.65389 0.88626 0.0
H3700 H 0.88171 0.72581 0.95027 0.0
H3701 H 0.87041 0.69881 0.9407 0.0
C3702 C 0.27769 0.18744 0.92545 0.0
C3703 C 0.26985 0.17155 0.92168 0.0
C3704 C 0.2935 0.19582 0.92173 0.0
C3705 C 0.32704 0.19255 0.93485 0.0
H3706 H 0.34769 0.22704 0.87076 0.0
C3707 C 0.39121 0.22023 0.90788 0.0
C3708 C 0.39964 0.23586 0.9005 0.0
C3709 C 0.37542 0.2129 0.91111 0.0
C3710 C 0.34217 0.21762 0.88934 0.0
H3711 H 0.27246 0.15202 0.91048 0.0
H3712 H 0.30008 0.16665 0.90485 0.0
H3713 H 0.32 0.21345 0.87438 0.0
H3714 H 0.39817 0.25615 0.89183 0.0
H3715 H 0.37067 0.24353 0.89903 0.0
H3716 H 0.349 0.19685 0.95092 0.0
C3717 C 0.29394 0.17259 0.91044 0.0
C3718 C 0.32629 0.20979 0.89117 0.0
C3719 C 0.27813 0.16425 0.91345 0.0
C3720 C 0.39196 0.24407 0.89727 0.0
C3721 C 0.37616 0.23678 0.90112 0.0
C3722 C 0.34289 0.20052 0.93357 0.0
C3723 C 0.30178 0.18842 0.91488 0.0
C3724 C 0.31859 0.19707 0.9136 0.0
C3725 C 0.36763 0.22104 0.90772 0.0
C3726 C 0.35071 0.21306 0.91044 0.0
H3727 H 0.27161 0.19338 0.93168 0.0
H3728 H 0.2993 0.20802 0.92534 0.0
H3729 H 0.32135 0.1829 0.9528 0.0
H3730 H 0.39675 0.21353 0.91017 0.0
H3731 H 0.36931 0.20074 0.91541 0.0
C3732 C 0.78098 0.1708 0.90577 0.0
C3733 C 0.76531 0.16377 0.89881 0.0
C3734 C 0.78815 0.16217 0.90844 0.0
C3735 C 0.78278 0.12517 0.93068 0.0
H3736 H 0.81768 0.13653 0.86929 0.0
C3737 C 0.81465 0.09121 0.93063 0.0
C3738 C 0.8305 0.09953 0.9265 0.0
C3739 C 0.8059 0.09819 0.92539 0.0
C3740 C 0.80811 0.1333 0.88707 0.0
H3741 H 0.74479 0.14213 0.89039 0.0
H3742 H 0.75735 0.12697 0.89618 0.0
H3743 H 0.80404 0.15049 0.8655 0.0
H3744 H 0.84963 0.12171 0.91386 0.0
H3745 H 0.8346 0.13397 0.9062 0.0
H3746 H 0.78717 0.10844 0.95352 0.0
C3747 C 0.76403 0.13919 0.89905 0.0
C3748 C 0.80025 0.14126 0.88466 0.0
C3749 C 0.75689 0.14786 0.89564 0.0
C3750 C 0.83742 0.11493 0.91691 0.0
C3751 C 0.82873 0.12195 0.91226 0.0
C3752 C 0.79083 0.11736 0.93361 0.0
C3753 C 0.77977 0.14631 0.90491 0.0
C3754 C 0.7876 0.13735 0.90661 0.0
C3755 C 0.81284 0.1137 0.9164 0.0
C3756 C 0.80371 0.12141 0.91206 0.0
H3757 H 0.78782 0.18303 0.90825 0.0
H3758 H 0.80028 0.1679 0.91326 0.0
H3759 H 0.77309 0.12201 0.94802 0.0
H3760 H 0.80898 0.07929 0.93778 0.0
H3761 H 0.79369 0.09137 0.92822 0.0
C3762 C 0.72644 0.91282 0.56587 0.0
C3763 C 0.7343 0.90483 0.57068 0.0
C3764 C 0.71058 0.90532 0.56875 0.0
C3765 C 0.67722 0.86832 0.55553 0.0
H3766 H 0.65609 0.88187 0.61887 0.0
C3767 C 0.6132 0.83093 0.58367 0.0
C3768 C 0.60455 0.83789 0.5911 0.0
C3769 C 0.62896 0.83965 0.57984 0.0
C3770 C 0.66174 0.87806 0.60046 0.0
H3771 H 0.73166 0.88275 0.58278 0.0
H3772 H 0.70403 0.86968 0.58696 0.0
H3773 H 0.68377 0.89635 0.61527 0.0
H3774 H 0.60558 0.8595 0.59899 0.0
H3775 H 0.63298 0.87479 0.5907 0.0
H3776 H 0.65539 0.85032 0.53972 0.0
C3777 C 0.71016 0.88174 0.58119 0.0
C3778 C 0.67761 0.88633 0.59864 0.0
C3779 C 0.72599 0.88926 0.57901 0.0
C3780 C 0.61196 0.8538 0.59356 0.0
C3781 C 0.62771 0.86255 0.5891 0.0
C3782 C 0.66136 0.8602 0.55681 0.0
C3783 C 0.7023 0.88965 0.57578 0.0
C3784 C 0.68549 0.8814 0.57655 0.0
C3785 C 0.63647 0.85559 0.58264 0.0
C3786 C 0.65337 0.86481 0.5797 0.0
H3787 H 0.73253 0.92483 0.55952 0.0
H3788 H 0.70475 0.91165 0.56444 0.0
H3789 H 0.68304 0.86441 0.53788 0.0
H3790 H 0.60786 0.81869 0.58195 0.0
H3791 H 0.63526 0.83379 0.57562 0.0
C3792 C 0.16784 0.78105 0.60519 0.0
C3793 C 0.16232 0.76541 0.60099 0.0
C3794 C 0.15813 0.78696 0.60243 0.0
C3795 C 0.12134 0.77965 0.56627 0.0
H3796 H 0.12868 0.81254 0.63108 0.0
C3797 C 0.08714 0.81202 0.56491 0.0
C3798 C 0.09653 0.82791 0.56364 0.0
C3799 C 0.0934 0.80268 0.57139 0.0
C3800 C 0.12647 0.80335 0.61283 0.0
H3801 H 0.1422 0.74374 0.58984 0.0
H3802 H 0.12508 0.75415 0.58527 0.0
H3803 H 0.14268 0.7991 0.63902 0.0
H3804 H 0.11977 0.84641 0.56871 0.0
H3805 H 0.13053 0.8302 0.5804 0.0
H3806 H 0.10517 0.78414 0.53995 0.0
C3807 C 0.13702 0.7618 0.5906 0.0
C3808 C 0.13453 0.79568 0.61726 0.0
C3809 C 0.14681 0.75583 0.59333 0.0
C3810 C 0.11221 0.83423 0.56934 0.0
C3811 C 0.11838 0.82495 0.57629 0.0
C3812 C 0.11316 0.78729 0.56199 0.0
C3813 C 0.14257 0.77743 0.59553 0.0
C3814 C 0.13243 0.78406 0.59337 0.0
C3815 C 0.10908 0.80909 0.57739 0.0
C3816 C 0.116 0.79951 0.58462 0.0
H3817 H 0.17974 0.78883 0.61064 0.0
H3818 H 0.16289 0.7991 0.60543 0.0
H3819 H 0.11948 0.77078 0.54736 0.0
H3820 H 0.07502 0.80682 0.56057 0.0
H3821 H 0.08597 0.79048 0.57217 0.0
C3822 C 0.22382 0.38894 0.61272 0.0
C3823 C 0.23843 0.39933 0.59997 0.0
C3824 C 0.21812 0.37335 0.6099 0.0
C3825 C 0.22089 0.34432 0.5585 0.0
H3826 H 0.19908 0.31889 0.63999 0.0
C3827 C 0.1911 0.27852 0.55293 0.0
C3828 C 0.17642 0.27072 0.56784 0.0
C3829 C 0.20044 0.29416 0.55841 0.0
C3830 C 0.20505 0.32581 0.6169 0.0
H3831 H 0.25843 0.40141 0.57374 0.0
H3832 H 0.24829 0.37392 0.56837 0.0
H3833 H 0.21231 0.34642 0.64618 0.0
H3834 H 0.1602 0.27326 0.60078 0.0
H3835 H 0.17633 0.3004 0.6099 0.0
H3836 H 0.21321 0.32367 0.52886 0.0
C3837 C 0.24135 0.378 0.58074 0.0
C3838 C 0.21267 0.34158 0.6205 0.0
C3839 C 0.24716 0.39371 0.58391 0.0
C3840 C 0.17143 0.27887 0.58889 0.0
C3841 C 0.18075 0.29445 0.59435 0.0
C3842 C 0.21319 0.32849 0.55482 0.0
C3843 C 0.2268 0.36768 0.59402 0.0
C3844 C 0.22037 0.35101 0.59113 0.0
C3845 C 0.19534 0.30232 0.57902 0.0
C3846 C 0.20488 0.31905 0.58378 0.0
H3847 H 0.21673 0.39281 0.62521 0.0
H3848 H 0.20678 0.36571 0.61982 0.0
H3849 H 0.22666 0.35131 0.53535 0.0
H3850 H 0.19533 0.27259 0.53667 0.0
H3851 H 0.21168 0.29984 0.54654 0.0
C3852 C 0.94693 0.44276 0.73961 0.0
C3853 C 0.9389 0.42919 0.75923 0.0
C3854 C 0.96261 0.44949 0.73469 0.0
C3855 C 0.99677 0.45116 0.77414 0.0
H3856 H 0.01533 0.47241 0.68543 0.0
C3857 C 0.06231 0.48383 0.74702 0.0
C3858 C 0.06787 0.49845 0.73248 0.0
C3859 C 0.0466 0.47382 0.74993 0.0
C3860 C 0.01031 0.46654 0.7104 0.0
H3861 H 0.94108 0.41184 0.78822 0.0
H3862 H 0.96845 0.42354 0.77918 0.0
H3863 H 0.98776 0.45749 0.68995 0.0
H3864 H 0.06119 0.51403 0.71023 0.0
H3865 H 0.03412 0.49668 0.71519 0.0
H3866 H 0.01946 0.46041 0.79454 0.0
C3867 C 0.96262 0.42908 0.7681 0.0
C3868 C 0.99451 0.45803 0.71304 0.0
C3869 C 0.94691 0.42233 0.77306 0.0
C3870 C 0.05739 0.50286 0.72142 0.0
C3871 C 0.04182 0.49286 0.724 0.0
C3872 C 0.01263 0.45964 0.7714 0.0
C3873 C 0.97069 0.44282 0.74911 0.0
C3874 C 0.98752 0.45052 0.74521 0.0
C3875 C 0.03622 0.4782 0.73795 0.0
C3876 C 0.01954 0.46772 0.73978 0.0
H3877 H 0.94118 0.44839 0.72861 0.0
H3878 H 0.96846 0.46019 0.72038 0.0
H3879 H 0.99177 0.44562 0.79942 0.0
H3880 H 0.07006 0.4801 0.75587 0.0
H3881 H 0.04258 0.46257 0.76084 0.0
C3882 C 0.5809 0.5227 0.76519 0.0
C3883 C 0.57299 0.50697 0.75883 0.0
C3884 C 0.57361 0.53123 0.76128 0.0
C3885 C 0.53828 0.52888 0.72363 0.0
H3886 H 0.54802 0.56198 0.7899 0.0
C3887 C 0.49911 0.55384 0.74646 0.0
C3888 C 0.50585 0.56956 0.7405 0.0
C3889 C 0.50806 0.54701 0.74898 0.0
C3890 C 0.54527 0.55281 0.77114 0.0
H3891 H 0.5512 0.48787 0.74337 0.0
H3892 H 0.53842 0.50245 0.73799 0.0
H3893 H 0.56231 0.54854 0.79257 0.0
H3894 H 0.52729 0.59051 0.73414 0.0
H3895 H 0.54298 0.57853 0.73973 0.0
H3896 H 0.52079 0.5328 0.70342 0.0
C3897 C 0.55037 0.50843 0.74481 0.0
C3898 C 0.55351 0.54515 0.77242 0.0
C3899 C 0.5577 0.49999 0.74813 0.0
C3900 C 0.52178 0.57837 0.73862 0.0
C3901 C 0.53075 0.57155 0.74189 0.0
C3902 C 0.52989 0.53633 0.72287 0.0
C3903 C 0.55817 0.52417 0.75142 0.0
C3904 C 0.55004 0.53298 0.74886 0.0
C3905 C 0.52393 0.55577 0.74634 0.0
C3906 C 0.53323 0.54828 0.74676 0.0
H3907 H 0.59272 0.52843 0.7733 0.0
H3908 H 0.58011 0.54335 0.76598 0.0
H3909 H 0.5355 0.51988 0.70436 0.0
H3910 H 0.48687 0.54672 0.7479 0.0
H3911 H 0.50256 0.53482 0.75267 0.0
C3912 C 0.47971 0.05831 0.76327 0.0
C3913 C 0.4955 0.0658 0.75785 0.0
C3914 C 0.47093 0.04251 0.75955 0.0
C3915 C 0.47278 0.00898 0.72398 0.0
H3916 H 0.43876 0.98628 0.78842 0.0
C3917 C 0.44678 0.94499 0.74964 0.0
C3918 C 0.4312 0.93609 0.74186 0.0
C3919 C 0.45368 0.96078 0.75174 0.0
C3920 C 0.44818 0.99253 0.77016 0.0
H3921 H 0.51445 0.06255 0.74441 0.0
H3922 H 0.49939 0.03518 0.73941 0.0
H3923 H 0.45269 0.01403 0.79074 0.0
H3924 H 0.41051 0.93674 0.73187 0.0
H3925 H 0.42261 0.96447 0.73676 0.0
H3926 H 0.46863 0.98737 0.70474 0.0
C3927 C 0.49358 0.04141 0.74529 0.0
C3928 C 0.45612 0.00843 0.77124 0.0
C3929 C 0.50229 0.05717 0.7484 0.0
C3930 C 0.42254 0.9433 0.73779 0.0
C3931 C 0.42942 0.95912 0.74064 0.0
C3932 C 0.46504 0.99313 0.72345 0.0
C3933 C 0.47777 0.03381 0.75085 0.0
C3934 C 0.46865 0.01689 0.74839 0.0
C3935 C 0.44511 0.96799 0.74685 0.0
C3936 C 0.45277 0.98477 0.74671 0.0
H3937 H 0.47414 0.06465 0.7704 0.0
H3938 H 0.45877 0.03714 0.76344 0.0
H3939 H 0.48204 0.015 0.70523 0.0
H3940 H 0.45379 0.93982 0.75281 0.0
H3941 H 0.46578 0.96739 0.75681 0.0
C3942 C 0.58037 0.0578 0.26315 0.0
C3943 C 0.572 0.06525 0.25799 0.0
C3944 C 0.57323 0.04194 0.26095 0.0
C3945 C 0.53707 0.00831 0.27714 0.0
H3946 H 0.54952 0.987 0.21135 0.0
C3947 C 0.49908 0.94446 0.25036 0.0
C3948 C 0.50575 0.93567 0.24145 0.0
C3949 C 0.508 0.96018 0.25416 0.0
C3950 C 0.54605 0.99271 0.23046 0.0
H3951 H 0.54963 0.06191 0.24595 0.0
H3952 H 0.53718 0.03428 0.24306 0.0
H3953 H 0.56388 0.01472 0.21392 0.0
H3954 H 0.52707 0.93642 0.23083 0.0
H3955 H 0.54276 0.96381 0.23902 0.0
H3956 H 0.51955 0.98655 0.29464 0.0
C3957 C 0.54926 0.04073 0.24849 0.0
C3958 C 0.55425 0.0086 0.23169 0.0
C3959 C 0.55643 0.05655 0.24995 0.0
C3960 C 0.5216 0.94291 0.23746 0.0
C3961 C 0.53057 0.95865 0.24189 0.0
C3962 C 0.52907 0.99247 0.27647 0.0
C3963 C 0.55755 0.03329 0.25431 0.0
C3964 C 0.54964 0.01651 0.25457 0.0
C3965 C 0.52387 0.96754 0.24984 0.0
C3966 C 0.53323 0.98442 0.2526 0.0
H3967 H 0.59239 0.06421 0.26929 0.0
H3968 H 0.57983 0.03641 0.26553 0.0
H3969 H 0.53345 0.0142 0.29539 0.0
H3970 H 0.48689 0.93926 0.25328 0.0
H3971 H 0.50232 0.96658 0.25951 0.0
C3972 C 0.94304 0.52361 0.26341 0.0
C3973 C 0.93703 0.50802 0.27033 0.0
C3974 C 0.95881 0.53343 0.26192 0.0
C3975 C 0.99474 0.53602 0.29196 0.0
H3976 H 0.01364 0.56491 0.2142 0.0
C3977 C 0.05551 0.55669 0.24675 0.0
C3978 C 0.06513 0.57212 0.2387 0.0
C3979 C 0.04021 0.5511 0.25431 0.0
C3980 C 0.0085 0.5571 0.23644 0.0
H3981 H 0.94295 0.49055 0.28012 0.0
H3982 H 0.97015 0.50753 0.27725 0.0
H3983 H 0.98589 0.55082 0.21976 0.0
H3984 H 0.06623 0.59386 0.23256 0.0
H3985 H 0.03913 0.58391 0.2453 0.0
H3986 H 0.01722 0.54182 0.30789 0.0
C3987 C 0.96277 0.51226 0.27369 0.0
C3988 C 0.99264 0.54902 0.23962 0.0
C3989 C 0.94711 0.50249 0.27508 0.0
C3990 C 0.05909 0.58192 0.23875 0.0
C3991 C 0.04361 0.57623 0.24585 0.0
C3992 C 0.01051 0.54401 0.28871 0.0
C3993 C 0.96883 0.52786 0.26751 0.0
C3994 C 0.98558 0.53804 0.26676 0.0
C3995 C 0.03404 0.56075 0.25372 0.0
C3996 C 0.01755 0.55429 0.26031 0.0
H3997 H 0.93559 0.52824 0.25955 0.0
H3998 H 0.96315 0.54541 0.25708 0.0
H3999 H 0.98967 0.52792 0.31371 0.0
H4000 H 0.05982 0.54886 0.24714 0.0
H4001 H 0.03309 0.53909 0.25983 0.0
C4002 C 0.42412 0.47999 0.24507 0.0
C4003 C 0.43285 0.49447 0.22962 0.0
C4004 C 0.43003 0.47017 0.24797 0.0
C4005 C 0.45918 0.463 0.2086 0.0
H4006 H 0.45821 0.44402 0.29974 0.0
C4007 C 0.50052 0.44164 0.24048 0.0
C4008 C 0.49546 0.42836 0.26101 0.0
C4009 C 0.49118 0.44789 0.23506 0.0
C4010 C 0.45836 0.44901 0.2739 0.0
H4011 H 0.45462 0.50993 0.20507 0.0
H4012 H 0.46474 0.49289 0.20999 0.0
H4013 H 0.4446 0.45805 0.29328 0.0
H4014 H 0.47639 0.41106 0.29132 0.0
H4015 H 0.46002 0.42194 0.2815 0.0
H4016 H 0.47305 0.4542 0.18921 0.0
C4017 C 0.45333 0.48905 0.21966 0.0
C4018 C 0.45056 0.45705 0.27025 0.0
C4019 C 0.44754 0.49886 0.2171 0.0
C4020 C 0.48069 0.42134 0.27547 0.0
C4021 C 0.47132 0.42761 0.27002 0.0
C4022 C 0.4669 0.45494 0.21217 0.0
C4023 C 0.44466 0.47458 0.23502 0.0
C4024 C 0.45122 0.46444 0.23781 0.0
C4025 C 0.4765 0.44102 0.2499 0.0
C4026 C 0.46691 0.44816 0.24512 0.0
H4027 H 0.41279 0.47629 0.25505 0.0
H4028 H 0.4231 0.45906 0.25993 0.0
H4029 H 0.45966 0.46835 0.18305 0.0
H4030 H 0.51182 0.44738 0.22896 0.0
H4031 H 0.49565 0.45836 0.2199 0.0
loop_
_geom_bond_atom_site_label_1
_geom_bond_atom_site_label_2
_geom_bond_distance
_geom_bond_site_symmetry_2
_ccdc_geom_bond_type
Fe0 O2 1.918 . S
Fe0 O5 1.997 . S
Fe0 O6 2.002 . S
Fe0 O11 1.976 . S
Fe0 O14 1.996 . S
Fe1 O2 1.918 . S
Fe1 O9 1.997 . S
Fe1 O12 1.996 . S
Fe1 O16 1.976 . S
Fe1 O19 2.002 . S
O2 Fe0 1.918 . S
O2 Fe1 1.918 . S
O2 Fe3 1.918 . S
Fe3 O2 1.918 . S
Fe3 O4 2.002 . S
Fe3 O13 1.976 . S
Fe3 O17 1.996 . S
Fe3 O20 1.997 . S
O4 Fe3 2.002 . S
O4 C21 1.295 . S
O5 Fe0 1.997 . S
O5 C21 1.235 . S
O6 Fe0 2.002 . S
O6 C7 1.295 1_554 S
C7 O6 1.295 1_556 S
C7 O9 1.235 1_556 S
C8 O13 1.287 . S
C8 O14 1.255 . S
O9 Fe1 1.997 . S
O9 C7 1.235 1_554 S
C10 O16 1.287 . S
C10 O17 1.255 . S
O11 Fe0 1.976 . S
O11 C18 1.287 . S
O12 Fe1 1.996 . S
O12 C18 1.255 . S
O13 Fe3 1.976 . S
O13 C8 1.287 . S
O14 Fe0 1.996 . S
O14 C8 1.255 . S
C15 O19 1.295 . S
C15 O20 1.235 . S
O16 Fe1 1.976 . S
O16 C10 1.287 . S
O17 Fe3 1.996 . S
O17 C10 1.255 . S
C18 O11 1.287 . S
C18 O12 1.255 . S
O19 Fe1 2.002 . S
O19 C15 1.295 . S
O20 Fe3 1.997 . S
O20 C15 1.235 . S
C21 O4 1.295 . S
C21 O5 1.235 . S
Fe22 O24 1.918 . S
Fe22 O27 1.997 . S
Fe22 O28 2.002 . S
Fe22 O33 1.976 . S
Fe22 O36 1.996 . S
Fe23 O24 1.918 . S
Fe23 O31 1.997 . S
Fe23 O34 1.996 . S
Fe23 O38 1.976 . S
Fe23 O41 2.002 . S
O24 Fe22 1.918 . S
O24 Fe23 1.918 . S
O24 Fe25 1.918 . S
Fe25 O24 1.918 . S
Fe25 O26 2.002 . S
Fe25 O35 1.976 . S
Fe25 O39 1.996 . S
Fe25 O42 1.997 . S
O26 Fe25 2.002 . S
O26 C43 1.295 . S
O27 Fe22 1.997 . S
O27 C43 1.235 . S
O28 Fe22 2.002 . S
O28 C29 1.295 . S
C29 O28 1.295 . S
C29 O31 1.235 . S
C30 O35 1.287 . S
C30 O36 1.255 . S
O31 Fe23 1.997 . S
O31 C29 1.235 . S
C32 O38 1.287 . S
C32 O39 1.255 . S
O33 Fe22 1.976 . S
O33 C40 1.287 . S
O34 Fe23 1.996 . S
O34 C40 1.255 . S
O35 Fe25 1.976 . S
O35 C30 1.287 . S
O36 Fe22 1.996 . S
O36 C30 1.255 . S
C37 O41 1.295 1_556 S
C37 O42 1.235 1_556 S
O38 Fe23 1.976 . S
O38 C32 1.287 . S
O39 Fe25 1.996 . S
O39 C32 1.255 . S
C40 O33 1.287 . S
C40 O34 1.255 . S
O41 Fe23 2.002 . S
O41 C37 1.295 1_554 S
O42 Fe25 1.997 . S
O42 C37 1.235 1_554 S
C43 O26 1.295 . S
C43 O27 1.235 . S
Fe44 O46 1.918 . S
Fe44 O49 1.997 . S
Fe44 O50 2.002 . S
Fe44 O55 1.976 . S
Fe44 O58 1.996 . S
Fe45 O46 1.918 . S
Fe45 O53 1.997 . S
Fe45 O56 1.996 . S
Fe45 O60 1.976 . S
Fe45 O63 2.002 . S
O46 Fe44 1.918 . S
O46 Fe45 1.918 . S
O46 Fe47 1.918 . S
Fe47 O46 1.918 . S
Fe47 O48 2.002 . S
Fe47 O57 1.976 . S
Fe47 O61 1.996 . S
Fe47 O64 1.997 . S
O48 Fe47 2.002 . S
O48 C65 1.295 . S
O49 Fe44 1.997 . S
O49 C65 1.235 . S
O50 Fe44 2.002 . S
O50 C51 1.295 . S
C51 O50 1.295 . S
C51 O53 1.235 . S
C52 O57 1.287 . S
C52 O58 1.255 . S
O53 Fe45 1.997 . S
O53 C51 1.235 . S
C54 O60 1.287 . S
C54 O61 1.255 . S
O55 Fe44 1.976 . S
O55 C62 1.287 . S
O56 Fe45 1.996 . S
O56 C62 1.255 . S
O57 Fe47 1.976 . S
O57 C52 1.287 . S
O58 Fe44 1.996 . S
O58 C52 1.255 . S
C59 O63 1.295 1_556 S
C59 O64 1.235 1_556 S
O60 Fe45 1.976 . S
O60 C54 1.287 . S
O61 Fe47 1.996 . S
O61 C54 1.255 . S
C62 O55 1.287 . S
C62 O56 1.255 . S
O63 Fe45 2.002 . S
O63 C59 1.295 1_554 S
O64 Fe47 1.997 . S
O64 C59 1.235 1_554 S
C65 O48 1.295 . S
C65 O49 1.235 . S
Fe66 O68 1.918 . S
Fe66 O71 1.997 . S
Fe66 O72 2.002 . S
Fe66 O77 1.976 . S
Fe66 O80 1.996 . S
Fe67 O68 1.918 . S
Fe67 O75 1.997 . S
Fe67 O78 1.996 . S
Fe67 O82 1.976 . S
Fe67 O85 2.002 . S
O68 Fe66 1.918 . S
O68 Fe67 1.918 . S
O68 Fe69 1.918 . S
Fe69 O68 1.918 . S
Fe69 O70 2.002 . S
Fe69 O79 1.976 . S
Fe69 O83 1.996 . S
Fe69 O86 1.997 . S
O70 Fe69 2.002 . S
O70 C87 1.295 . S
O71 Fe66 1.997 . S
O71 C87 1.235 . S
O72 Fe66 2.002 . S
O72 C73 1.295 . S
C73 O72 1.295 . S
C73 O75 1.235 . S
C74 O79 1.287 . S
C74 O80 1.255 . S
O75 Fe67 1.997 . S
O75 C73 1.235 . S
C76 O82 1.287 . S
C76 O83 1.255 . S
O77 Fe66 1.976 . S
O77 C84 1.287 . S
O78 Fe67 1.996 . S
O78 C84 1.255 . S
O79 Fe69 1.976 . S
O79 C74 1.287 . S
O80 Fe66 1.996 . S
O80 C74 1.255 . S
C81 O85 1.295 . S
C81 O86 1.235 . S
O82 Fe67 1.976 . S
O82 C76 1.287 . S
O83 Fe69 1.996 . S
O83 C76 1.255 . S
C84 O77 1.287 . S
C84 O78 1.255 . S
O85 Fe67 2.002 . S
O85 C81 1.295 . S
O86 Fe69 1.997 . S
O86 C81 1.235 . S
C87 O70 1.295 . S
C87 O71 1.235 . S
Fe88 O90 1.918 . S
Fe88 O93 1.997 . S
Fe88 O94 2.002 . S
Fe88 O99 1.976 . S
Fe88 O102 1.996 . S
Fe89 O90 1.918 . S
Fe89 O97 1.997 . S
Fe89 O100 1.996 . S
Fe89 O104 1.976 . S
Fe89 O107 2.002 . S
O90 Fe88 1.918 . S
O90 Fe89 1.918 . S
O90 Fe91 1.918 . S
Fe91 O90 1.918 . S
Fe91 O92 2.002 . S
Fe91 O101 1.976 . S
Fe91 O105 1.996 . S
Fe91 O108 1.997 . S
O92 Fe91 2.002 . S
O92 C109 1.295 . S
O93 Fe88 1.997 . S
O93 C109 1.235 . S
O94 Fe88 2.002 . S
O94 C95 1.295 . S
C95 O94 1.295 . S
C95 O97 1.235 . S
C96 O101 1.287 . S
C96 O102 1.255 . S
O97 Fe89 1.997 . S
O97 C95 1.235 . S
C98 O104 1.287 . S
C98 O105 1.255 . S
O99 Fe88 1.976 . S
O99 C106 1.287 . S
O100 Fe89 1.996 . S
O100 C106 1.255 . S
O101 Fe91 1.976 . S
O101 C96 1.287 . S
O102 Fe88 1.996 . S
O102 C96 1.255 . S
C103 O107 1.295 . S
C103 O108 1.235 . S
O104 Fe89 1.976 . S
O104 C98 1.287 . S
O105 Fe91 1.996 . S
O105 C98 1.255 . S
C106 O99 1.287 . S
C106 O100 1.255 . S
O107 Fe89 2.002 . S
O107 C103 1.295 . S
O108 Fe91 1.997 . S
O108 C103 1.235 . S
C109 O92 1.295 . S
C109 O93 1.235 . S
Fe110 O112 1.918 . S
Fe110 O115 1.997 . S
Fe110 O116 2.002 . S
Fe110 O121 1.976 . S
Fe110 O124 1.996 . S
Fe111 O112 1.918 . S
Fe111 O119 1.997 . S
Fe111 O122 1.996 . S
Fe111 O126 1.976 . S
Fe111 O129 2.002 . S
O112 Fe110 1.918 . S
O112 Fe111 1.918 . S
O112 Fe113 1.918 . S
Fe113 O112 1.918 . S
Fe113 O114 2.002 . S
Fe113 O123 1.976 . S
Fe113 O127 1.996 . S
Fe113 O130 1.997 . S
O114 Fe113 2.002 . S
O114 C131 1.295 . S
O115 Fe110 1.997 . S
O115 C131 1.235 . S
O116 Fe110 2.002 . S
O116 C117 1.295 . S
C117 O116 1.295 . S
C117 O119 1.235 . S
C118 O123 1.287 . S
C118 O124 1.255 . S
O119 Fe111 1.997 . S
O119 C117 1.235 . S
C120 O126 1.287 . S
C120 O127 1.255 . S
O121 Fe110 1.976 . S
O121 C128 1.287 . S
O122 Fe111 1.996 . S
O122 C128 1.255 . S
O123 Fe113 1.976 . S
O123 C118 1.287 . S
O124 Fe110 1.996 . S
O124 C118 1.255 . S
C125 O129 1.295 . S
C125 O130 1.235 . S
O126 Fe111 1.976 . S
O126 C120 1.287 . S
O127 Fe113 1.996 . S
O127 C120 1.255 . S
C128 O121 1.287 . S
C128 O122 1.255 . S
O129 Fe111 2.002 . S
O129 C125 1.295 . S
O130 Fe113 1.997 . S
O130 C125 1.235 . S
C131 O114 1.295 . S
C131 O115 1.235 . S
Fe132 O134 1.918 . S
Fe132 O137 1.997 . S
Fe132 O138 2.002 . S
Fe132 O143 1.976 . S
Fe132 O146 1.996 . S
Fe133 O134 1.918 . S
Fe133 O141 1.997 . S
Fe133 O144 1.996 . S
Fe133 O148 1.976 . S
Fe133 O151 2.002 . S
O134 Fe132 1.918 . S
O134 Fe133 1.918 . S
O134 Fe135 1.918 . S
Fe135 O134 1.918 . S
Fe135 O136 2.002 . S
Fe135 O145 1.976 . S
Fe135 O149 1.996 . S
Fe135 O152 1.997 . S
O136 Fe135 2.002 . S
O136 C153 1.295 . S
O137 Fe132 1.997 . S
O137 C153 1.235 . S
O138 Fe132 2.002 . S
O138 C139 1.295 . S
C139 O138 1.295 . S
C139 O141 1.235 . S
C140 O145 1.287 . S
C140 O146 1.255 . S
O141 Fe133 1.997 . S
O141 C139 1.235 . S
C142 O148 1.287 . S
C142 O149 1.255 . S
O143 Fe132 1.976 . S
O143 C150 1.287 . S
O144 Fe133 1.996 . S
O144 C150 1.255 . S
O145 Fe135 1.976 . S
O145 C140 1.287 . S
O146 Fe132 1.996 . S
O146 C140 1.255 . S
C147 O151 1.295 1_554 S
C147 O152 1.235 1_554 S
O148 Fe133 1.976 . S
O148 C142 1.287 . S
O149 Fe135 1.996 . S
O149 C142 1.255 . S
C150 O143 1.287 . S
C150 O144 1.255 . S
O151 Fe133 2.002 . S
O151 C147 1.295 1_556 S
O152 Fe135 1.997 . S
O152 C147 1.235 1_556 S
C153 O136 1.295 . S
C153 O137 1.235 . S
Fe154 O156 1.918 . S
Fe154 O159 1.997 . S
Fe154 O160 2.002 . S
Fe154 O165 1.976 . S
Fe154 O168 1.996 . S
Fe155 O156 1.918 . S
Fe155 O163 1.997 . S
Fe155 O166 1.996 . S
Fe155 O170 1.976 . S
Fe155 O173 2.002 . S
O156 Fe154 1.918 . S
O156 Fe155 1.918 . S
O156 Fe157 1.918 . S
Fe157 O156 1.918 . S
Fe157 O158 2.002 . S
Fe157 O167 1.976 . S
Fe157 O171 1.996 . S
Fe157 O174 1.997 . S
O158 Fe157 2.002 . S
O158 C175 1.295 1_556 S
O159 Fe154 1.997 . S
O159 C175 1.235 1_556 S
O160 Fe154 2.002 . S
O160 C161 1.295 . S
C161 O160 1.295 . S
C161 O163 1.235 . S
C162 O167 1.287 . S
C162 O168 1.255 . S
O163 Fe155 1.997 . S
O163 C161 1.235 . S
C164 O170 1.287 . S
C164 O171 1.255 . S
O165 Fe154 1.976 . S
O165 C172 1.287 . S
O166 Fe155 1.996 . S
O166 C172 1.255 . S
O167 Fe157 1.976 . S
O167 C162 1.287 . S
O168 Fe154 1.996 . S
O168 C162 1.255 . S
C169 O173 1.295 . S
C169 O174 1.235 . S
O170 Fe155 1.976 . S
O170 C164 1.287 . S
O171 Fe157 1.996 . S
O171 C164 1.255 . S
C172 O165 1.287 . S
C172 O166 1.255 . S
O173 Fe155 2.002 . S
O173 C169 1.295 . S
O174 Fe157 1.997 . S
O174 C169 1.235 . S
C175 O158 1.295 1_554 S
C175 O159 1.235 1_554 S
Fe176 O178 1.918 . S
Fe176 O181 1.997 . S
Fe176 O182 2.002 . S
Fe176 O187 1.976 . S
Fe176 O190 1.996 . S
Fe177 O178 1.918 . S
Fe177 O185 1.997 . S
Fe177 O188 1.996 . S
Fe177 O192 1.976 . S
Fe177 O195 2.002 . S
O178 Fe176 1.918 . S
O178 Fe177 1.918 . S
O178 Fe179 1.918 . S
Fe179 O178 1.918 . S
Fe179 O180 2.002 . S
Fe179 O189 1.976 . S
Fe179 O193 1.996 . S
Fe179 O196 1.997 . S
O180 Fe179 2.002 . S
O180 C197 1.295 . S
O181 Fe176 1.997 . S
O181 C197 1.235 . S
O182 Fe176 2.002 . S
O182 C183 1.295 . S
C183 O182 1.295 . S
C183 O185 1.235 . S
C184 O189 1.287 . S
C184 O190 1.255 . S
O185 Fe177 1.997 . S
O185 C183 1.235 . S
C186 O192 1.287 . S
C186 O193 1.255 . S
O187 Fe176 1.976 . S
O187 C194 1.287 . S
O188 Fe177 1.996 . S
O188 C194 1.255 . S
O189 Fe179 1.976 . S
O189 C184 1.287 . S
O190 Fe176 1.996 . S
O190 C184 1.255 . S
C191 O195 1.295 1_554 S
C191 O196 1.235 1_554 S
O192 Fe177 1.976 . S
O192 C186 1.287 . S
O193 Fe179 1.996 . S
O193 C186 1.255 . S
C194 O187 1.287 . S
C194 O188 1.255 . S
O195 Fe177 2.002 . S
O195 C191 1.295 1_556 S
O196 Fe179 1.997 . S
O196 C191 1.235 1_556 S
C197 O180 1.295 . S
C197 O181 1.235 . S
Fe198 O200 1.918 . S
Fe198 O203 1.997 . S
Fe198 O204 2.002 . S
Fe198 O209 1.976 . S
Fe198 O212 1.996 . S
Fe199 O200 1.918 . S
Fe199 O207 1.997 . S
Fe199 O210 1.996 . S
Fe199 O214 1.976 . S
Fe199 O217 2.002 . S
O200 Fe198 1.918 . S
O200 Fe199 1.918 . S
O200 Fe201 1.918 . S
Fe201 O200 1.918 . S
Fe201 O202 2.002 . S
Fe201 O211 1.976 . S
Fe201 O215 1.996 . S
Fe201 O218 1.997 . S
O202 Fe201 2.002 . S
O202 C219 1.295 . S
O203 Fe198 1.997 . S
O203 C219 1.235 . S
O204 Fe198 2.002 . S
O204 C205 1.295 . S
C205 O204 1.295 . S
C205 O207 1.235 . S
C206 O211 1.287 . S
C206 O212 1.255 . S
O207 Fe199 1.997 . S
O207 C205 1.235 . S
C208 O214 1.287 . S
C208 O215 1.255 . S
O209 Fe198 1.976 . S
O209 C216 1.287 . S
O210 Fe199 1.996 . S
O210 C216 1.255 . S
O211 Fe201 1.976 . S
O211 C206 1.287 . S
O212 Fe198 1.996 . S
O212 C206 1.255 . S
C213 O217 1.295 . S
C213 O218 1.235 . S
O214 Fe199 1.976 . S
O214 C208 1.287 . S
O215 Fe201 1.996 . S
O215 C208 1.255 . S
C216 O209 1.287 . S
C216 O210 1.255 . S
O217 Fe199 2.002 . S
O217 C213 1.295 . S
O218 Fe201 1.997 . S
O218 C213 1.235 . S
C219 O202 1.295 . S
C219 O203 1.235 . S
Fe220 O222 1.918 . S
Fe220 O225 1.997 . S
Fe220 O226 2.002 . S
Fe220 O231 1.976 . S
Fe220 O234 1.996 . S
Fe221 O222 1.918 . S
Fe221 O229 1.997 . S
Fe221 O232 1.996 . S
Fe221 O236 1.976 . S
Fe221 O239 2.002 . S
O222 Fe220 1.918 . S
O222 Fe221 1.918 . S
O222 Fe223 1.918 . S
Fe223 O222 1.918 . S
Fe223 O224 2.002 . S
Fe223 O233 1.976 . S
Fe223 O237 1.996 . S
Fe223 O240 1.997 . S
O224 Fe223 2.002 . S
O224 C241 1.295 . S
O225 Fe220 1.997 . S
O225 C241 1.235 . S
O226 Fe220 2.002 . S
O226 C227 1.295 . S
C227 O226 1.295 . S
C227 O229 1.235 . S
C228 O233 1.287 . S
C228 O234 1.255 . S
O229 Fe221 1.997 . S
O229 C227 1.235 . S
C230 O236 1.287 . S
C230 O237 1.255 . S
O231 Fe220 1.976 . S
O231 C238 1.287 . S
O232 Fe221 1.996 . S
O232 C238 1.255 . S
O233 Fe223 1.976 . S
O233 C228 1.287 . S
O234 Fe220 1.996 . S
O234 C228 1.255 . S
C235 O239 1.295 . S
C235 O240 1.235 . S
O236 Fe221 1.976 . S
O236 C230 1.287 . S
O237 Fe223 1.996 . S
O237 C230 1.255 . S
C238 O231 1.287 . S
C238 O232 1.255 . S
O239 Fe221 2.002 . S
O239 C235 1.295 . S
O240 Fe223 1.997 . S
O240 C235 1.235 . S
C241 O224 1.295 . S
C241 O225 1.235 . S
Fe242 O244 1.918 . S
Fe242 O247 1.997 . S
Fe242 O248 2.002 . S
Fe242 O253 1.976 . S
Fe242 O256 1.996 . S
Fe243 O244 1.918 . S
Fe243 O251 1.997 . S
Fe243 O254 1.996 . S
Fe243 O258 1.976 . S
Fe243 O261 2.002 . S
O244 Fe242 1.918 . S
O244 Fe243 1.918 . S
O244 Fe245 1.918 . S
Fe245 O244 1.918 . S
Fe245 O246 2.002 . S
Fe245 O255 1.976 . S
Fe245 O259 1.996 . S
Fe245 O262 1.997 . S
O246 Fe245 2.002 . S
O246 C263 1.295 . S
O247 Fe242 1.997 . S
O247 C263 1.235 . S
O248 Fe242 2.002 . S
O248 C249 1.295 . S
C249 O248 1.295 . S
C249 O251 1.235 . S
C250 O255 1.287 . S
C250 O256 1.255 . S
O251 Fe243 1.997 . S
O251 C249 1.235 . S
C252 O258 1.287 . S
C252 O259 1.255 . S
O253 Fe242 1.976 . S
O253 C260 1.287 . S
O254 Fe243 1.996 . S
O254 C260 1.255 . S
O255 Fe245 1.976 . S
O255 C250 1.287 . S
O256 Fe242 1.996 . S
O256 C250 1.255 . S
C257 O261 1.295 . S
C257 O262 1.235 . S
O258 Fe243 1.976 . S
O258 C252 1.287 . S
O259 Fe245 1.996 . S
O259 C252 1.255 . S
C260 O253 1.287 . S
C260 O254 1.255 . S
O261 Fe243 2.002 . S
O261 C257 1.295 . S
O262 Fe245 1.997 . S
O262 C257 1.235 . S
C263 O246 1.295 . S
C263 O247 1.235 . S
Fe264 O266 1.918 . S
Fe264 O269 1.997 . S
Fe264 O270 2.002 . S
Fe264 O275 1.976 . S
Fe264 O278 1.996 . S
Fe265 O266 1.918 . S
Fe265 O273 1.997 . S
Fe265 O276 1.996 . S
Fe265 O280 1.976 . S
Fe265 O283 2.002 . S
O266 Fe264 1.918 . S
O266 Fe265 1.918 . S
O266 Fe267 1.918 . S
Fe267 O266 1.918 . S
Fe267 O268 2.002 . S
Fe267 O277 1.976 . S
Fe267 O281 1.996 . S
Fe267 O284 1.997 . S
O268 Fe267 2.002 . S
O268 C285 1.295 . S
O269 Fe264 1.997 . S
O269 C285 1.235 . S
O270 Fe264 2.002 . S
O270 C271 1.295 . S
C271 O270 1.295 . S
C271 O273 1.235 . S
C272 O277 1.287 . S
C272 O278 1.255 . S
O273 Fe265 1.997 . S
O273 C271 1.235 . S
C274 O280 1.287 . S
C274 O281 1.255 . S
O275 Fe264 1.976 . S
O275 C282 1.287 . S
O276 Fe265 1.996 . S
O276 C282 1.255 . S
O277 Fe267 1.976 . S
O277 C272 1.287 . S
O278 Fe264 1.996 . S
O278 C272 1.255 . S
C279 O283 1.295 . S
C279 O284 1.235 . S
O280 Fe265 1.976 . S
O280 C274 1.287 . S
O281 Fe267 1.996 . S
O281 C274 1.255 . S
C282 O275 1.287 . S
C282 O276 1.255 . S
O283 Fe265 2.002 . S
O283 C279 1.295 . S
O284 Fe267 1.997 . S
O284 C279 1.235 . S
C285 O268 1.295 . S
C285 O269 1.235 . S
Fe286 O288 1.918 . S
Fe286 O291 1.997 . S
Fe286 O292 2.002 . S
Fe286 O297 1.976 . S
Fe286 O300 1.996 . S
Fe287 O288 1.918 . S
Fe287 O295 1.997 . S
Fe287 O298 1.996 . S
Fe287 O302 1.976 . S
Fe287 O305 2.002 . S
O288 Fe286 1.918 . S
O288 Fe287 1.918 . S
O288 Fe289 1.918 . S
Fe289 O288 1.918 . S
Fe289 O290 2.002 . S
Fe289 O299 1.976 . S
Fe289 O303 1.996 . S
Fe289 O306 1.997 . S
O290 Fe289 2.002 . S
O290 C307 1.295 . S
O291 Fe286 1.997 . S
O291 C307 1.235 . S
O292 Fe286 2.002 . S
O292 C293 1.295 . S
C293 O292 1.295 . S
C293 O295 1.235 . S
C294 O299 1.287 . S
C294 O300 1.255 . S
O295 Fe287 1.997 . S
O295 C293 1.235 . S
C296 O302 1.287 . S
C296 O303 1.255 . S
O297 Fe286 1.976 . S
O297 C304 1.287 . S
O298 Fe287 1.996 . S
O298 C304 1.255 . S
O299 Fe289 1.976 . S
O299 C294 1.287 . S
O300 Fe286 1.996 . S
O300 C294 1.255 . S
C301 O305 1.295 . S
C301 O306 1.235 . S
O302 Fe287 1.976 . S
O302 C296 1.287 . S
O303 Fe289 1.996 . S
O303 C296 1.255 . S
C304 O297 1.287 . S
C304 O298 1.255 . S
O305 Fe287 2.002 . S
O305 C301 1.295 . S
O306 Fe289 1.997 . S
O306 C301 1.235 . S
C307 O290 1.295 . S
C307 O291 1.235 . S
Fe308 O310 1.918 . S
Fe308 O313 1.997 . S
Fe308 O314 2.002 . S
Fe308 O319 1.976 . S
Fe308 O322 1.996 . S
Fe309 O310 1.918 . S
Fe309 O317 1.997 . S
Fe309 O320 1.996 . S
Fe309 O324 1.976 . S
Fe309 O327 2.002 . S
O310 Fe308 1.918 . S
O310 Fe309 1.918 . S
O310 Fe311 1.918 . S
Fe311 O310 1.918 . S
Fe311 O312 2.002 . S
Fe311 O321 1.976 . S
Fe311 O325 1.996 . S
Fe311 O328 1.997 . S
O312 Fe311 2.002 . S
O312 C329 1.295 . S
O313 Fe308 1.997 . S
O313 C329 1.235 . S
O314 Fe308 2.002 . S
O314 C315 1.295 . S
C315 O314 1.295 . S
C315 O317 1.235 . S
C316 O321 1.287 . S
C316 O322 1.255 . S
O317 Fe309 1.997 . S
O317 C315 1.235 . S
C318 O324 1.287 . S
C318 O325 1.255 . S
O319 Fe308 1.976 . S
O319 C326 1.287 . S
O320 Fe309 1.996 . S
O320 C326 1.255 . S
O321 Fe311 1.976 . S
O321 C316 1.287 . S
O322 Fe308 1.996 . S
O322 C316 1.255 . S
C323 O327 1.295 . S
C323 O328 1.235 . S
O324 Fe309 1.976 . S
O324 C318 1.287 . S
O325 Fe311 1.996 . S
O325 C318 1.255 . S
C326 O319 1.287 . S
C326 O320 1.255 . S
O327 Fe309 2.002 . S
O327 C323 1.295 . S
O328 Fe311 1.997 . S
O328 C323 1.235 . S
C329 O312 1.295 . S
C329 O313 1.235 . S
Fe330 O332 1.918 . S
Fe330 O335 1.997 . S
Fe330 O336 2.002 . S
Fe330 O341 1.976 . S
Fe330 O344 1.996 . S
Fe331 O332 1.918 . S
Fe331 O339 1.997 . S
Fe331 O342 1.996 . S
Fe331 O346 1.976 . S
Fe331 O349 2.002 . S
O332 Fe330 1.918 . S
O332 Fe331 1.918 . S
O332 Fe333 1.918 . S
Fe333 O332 1.918 . S
Fe333 O334 2.002 . S
Fe333 O343 1.976 . S
Fe333 O347 1.996 . S
Fe333 O350 1.997 . S
O334 Fe333 2.002 . S
O334 C351 1.295 . S
O335 Fe330 1.997 . S
O335 C351 1.235 . S
O336 Fe330 2.002 . S
O336 C337 1.295 . S
C337 O336 1.295 . S
C337 O339 1.235 . S
C338 O343 1.287 . S
C338 O344 1.255 . S
O339 Fe331 1.997 . S
O339 C337 1.235 . S
C340 O346 1.287 . S
C340 O347 1.255 . S
O341 Fe330 1.976 . S
O341 C348 1.287 . S
O342 Fe331 1.996 . S
O342 C348 1.255 . S
O343 Fe333 1.976 . S
O343 C338 1.287 . S
O344 Fe330 1.996 . S
O344 C338 1.255 . S
C345 O349 1.295 . S
C345 O350 1.235 . S
O346 Fe331 1.976 . S
O346 C340 1.287 . S
O347 Fe333 1.996 . S
O347 C340 1.255 . S
C348 O341 1.287 . S
C348 O342 1.255 . S
O349 Fe331 2.002 . S
O349 C345 1.295 . S
O350 Fe333 1.997 . S
O350 C345 1.235 . S
C351 O334 1.295 . S
C351 O335 1.235 . S
Fe352 O354 1.918 . S
Fe352 O357 1.997 . S
Fe352 O358 2.002 . S
Fe352 O363 1.976 . S
Fe352 O366 1.996 . S
Fe353 O354 1.918 . S
Fe353 O361 1.997 . S
Fe353 O364 1.996 . S
Fe353 O368 1.976 . S
Fe353 O371 2.002 . S
O354 Fe352 1.918 . S
O354 Fe353 1.918 . S
O354 Fe355 1.918 . S
Fe355 O354 1.918 . S
Fe355 O356 2.002 . S
Fe355 O365 1.976 . S
Fe355 O369 1.996 . S
Fe355 O372 1.997 . S
O356 Fe355 2.002 . S
O356 C373 1.295 . S
O357 Fe352 1.997 . S
O357 C373 1.235 . S
O358 Fe352 2.002 . S
O358 C359 1.295 . S
C359 O358 1.295 . S
C359 O361 1.235 . S
C360 O365 1.287 . S
C360 O366 1.255 . S
O361 Fe353 1.997 . S
O361 C359 1.235 . S
C362 O368 1.287 . S
C362 O369 1.255 . S
O363 Fe352 1.976 . S
O363 C370 1.287 . S
O364 Fe353 1.996 . S
O364 C370 1.255 . S
O365 Fe355 1.976 . S
O365 C360 1.287 . S
O366 Fe352 1.996 . S
O366 C360 1.255 . S
C367 O371 1.295 . S
C367 O372 1.235 . S
O368 Fe353 1.976 . S
O368 C362 1.287 . S
O369 Fe355 1.996 . S
O369 C362 1.255 . S
C370 O363 1.287 . S
C370 O364 1.255 . S
O371 Fe353 2.002 . S
O371 C367 1.295 . S
O372 Fe355 1.997 . S
O372 C367 1.235 . S
C373 O356 1.295 . S
C373 O357 1.235 . S
Fe374 O376 1.918 . S
Fe374 O379 1.997 . S
Fe374 O380 2.002 . S
Fe374 O385 1.976 . S
Fe374 O388 1.996 . S
Fe375 O376 1.918 . S
Fe375 O383 1.997 . S
Fe375 O386 1.996 . S
Fe375 O390 1.976 . S
Fe375 O393 2.002 . S
O376 Fe374 1.918 . S
O376 Fe375 1.918 . S
O376 Fe377 1.918 . S
Fe377 O376 1.918 . S
Fe377 O378 2.002 . S
Fe377 O387 1.976 . S
Fe377 O391 1.996 . S
Fe377 O394 1.997 . S
O378 Fe377 2.002 . S
O378 C395 1.295 . S
O379 Fe374 1.997 . S
O379 C395 1.235 . S
O380 Fe374 2.002 . S
O380 C381 1.295 . S
C381 O380 1.295 . S
C381 O383 1.235 . S
C382 O387 1.287 . S
C382 O388 1.255 . S
O383 Fe375 1.997 . S
O383 C381 1.235 . S
C384 O390 1.287 . S
C384 O391 1.255 . S
O385 Fe374 1.976 . S
O385 C392 1.287 . S
O386 Fe375 1.996 . S
O386 C392 1.255 . S
O387 Fe377 1.976 . S
O387 C382 1.287 . S
O388 Fe374 1.996 . S
O388 C382 1.255 . S
C389 O393 1.295 . S
C389 O394 1.235 . S
O390 Fe375 1.976 . S
O390 C384 1.287 . S
O391 Fe377 1.996 . S
O391 C384 1.255 . S
C392 O385 1.287 . S
C392 O386 1.255 . S
O393 Fe375 2.002 . S
O393 C389 1.295 . S
O394 Fe377 1.997 . S
O394 C389 1.235 . S
C395 O378 1.295 . S
C395 O379 1.235 . S
Fe396 O398 1.918 . S
Fe396 O401 1.997 . S
Fe396 O402 2.002 . S
Fe396 O407 1.976 . S
Fe396 O410 1.996 . S
Fe397 O398 1.918 . S
Fe397 O405 1.997 . S
Fe397 O408 1.996 . S
Fe397 O412 1.976 . S
Fe397 O415 2.002 . S
O398 Fe396 1.918 . S
O398 Fe397 1.918 . S
O398 Fe399 1.918 . S
Fe399 O398 1.918 . S
Fe399 O400 2.002 . S
Fe399 O409 1.976 . S
Fe399 O413 1.996 . S
Fe399 O416 1.997 . S
O400 Fe399 2.002 . S
O400 C417 1.295 . S
O401 Fe396 1.997 . S
O401 C417 1.235 . S
O402 Fe396 2.002 . S
O402 C403 1.295 . S
C403 O402 1.295 . S
C403 O405 1.235 . S
C404 O409 1.287 . S
C404 O410 1.255 . S
O405 Fe397 1.997 . S
O405 C403 1.235 . S
C406 O412 1.287 . S
C406 O413 1.255 . S
O407 Fe396 1.976 . S
O407 C414 1.287 . S
O408 Fe397 1.996 . S
O408 C414 1.255 . S
O409 Fe399 1.976 . S
O409 C404 1.287 . S
O410 Fe396 1.996 . S
O410 C404 1.255 . S
C411 O415 1.295 . S
C411 O416 1.235 . S
O412 Fe397 1.976 . S
O412 C406 1.287 . S
O413 Fe399 1.996 . S
O413 C406 1.255 . S
C414 O407 1.287 . S
C414 O408 1.255 . S
O415 Fe397 2.002 . S
O415 C411 1.295 . S
O416 Fe399 1.997 . S
O416 C411 1.235 . S
C417 O400 1.295 . S
C417 O401 1.235 . S
Fe418 O420 1.918 . S
Fe418 O423 1.997 . S
Fe418 O424 2.002 . S
Fe418 O429 1.976 . S
Fe418 O432 1.996 . S
Fe419 O420 1.918 . S
Fe419 O427 1.997 . S
Fe419 O430 1.996 . S
Fe419 O434 1.976 . S
Fe419 O437 2.002 . S
O420 Fe418 1.918 . S
O420 Fe419 1.918 . S
O420 Fe421 1.918 . S
Fe421 O420 1.918 . S
Fe421 O422 2.002 . S
Fe421 O431 1.976 . S
Fe421 O435 1.996 . S
Fe421 O438 1.997 . S
O422 Fe421 2.002 . S
O422 C439 1.295 . S
O423 Fe418 1.997 . S
O423 C439 1.235 . S
O424 Fe418 2.002 . S
O424 C425 1.295 . S
C425 O424 1.295 . S
C425 O427 1.235 . S
C426 O431 1.287 . S
C426 O432 1.255 . S
O427 Fe419 1.997 . S
O427 C425 1.235 . S
C428 O434 1.287 . S
C428 O435 1.255 . S
O429 Fe418 1.976 . S
O429 C436 1.287 . S
O430 Fe419 1.996 . S
O430 C436 1.255 . S
O431 Fe421 1.976 . S
O431 C426 1.287 . S
O432 Fe418 1.996 . S
O432 C426 1.255 . S
C433 O437 1.295 . S
C433 O438 1.235 . S
O434 Fe419 1.976 . S
O434 C428 1.287 . S
O435 Fe421 1.996 . S
O435 C428 1.255 . S
C436 O429 1.287 . S
C436 O430 1.255 . S
O437 Fe419 2.002 . S
O437 C433 1.295 . S
O438 Fe421 1.997 . S
O438 C433 1.235 . S
C439 O422 1.295 . S
C439 O423 1.235 . S
Fe440 O442 1.918 . S
Fe440 O445 1.997 . S
Fe440 O446 2.002 . S
Fe440 O451 1.976 . S
Fe440 O454 1.996 . S
Fe441 O442 1.918 . S
Fe441 O449 1.997 . S
Fe441 O452 1.996 . S
Fe441 O456 1.976 . S
Fe441 O459 2.002 . S
O442 Fe440 1.918 . S
O442 Fe441 1.918 . S
O442 Fe443 1.918 . S
Fe443 O442 1.918 . S
Fe443 O444 2.002 . S
Fe443 O453 1.976 . S
Fe443 O457 1.996 . S
Fe443 O460 1.997 . S
O444 Fe443 2.002 . S
O444 C461 1.295 . S
O445 Fe440 1.997 . S
O445 C461 1.235 . S
O446 Fe440 2.002 . S
O446 C447 1.295 . S
C447 O446 1.295 . S
C447 O449 1.235 . S
C448 O453 1.287 . S
C448 O454 1.255 . S
O449 Fe441 1.997 . S
O449 C447 1.235 . S
C450 O456 1.287 . S
C450 O457 1.255 . S
O451 Fe440 1.976 . S
O451 C458 1.287 . S
O452 Fe441 1.996 . S
O452 C458 1.255 . S
O453 Fe443 1.976 . S
O453 C448 1.287 . S
O454 Fe440 1.996 . S
O454 C448 1.255 . S
C455 O459 1.295 . S
C455 O460 1.235 . S
O456 Fe441 1.976 . S
O456 C450 1.287 . S
O457 Fe443 1.996 . S
O457 C450 1.255 . S
C458 O451 1.287 . S
C458 O452 1.255 . S
O459 Fe441 2.002 . S
O459 C455 1.295 . S
O460 Fe443 1.997 . S
O460 C455 1.235 . S
C461 O444 1.295 . S
C461 O445 1.235 . S
Fe462 O464 1.918 . S
Fe462 O467 1.997 . S
Fe462 O468 2.002 . S
Fe462 O473 1.976 . S
Fe462 O476 1.996 . S
Fe463 O464 1.918 . S
Fe463 O471 1.997 . S
Fe463 O474 1.996 . S
Fe463 O478 1.976 . S
Fe463 O481 2.002 . S
O464 Fe462 1.918 . S
O464 Fe463 1.918 . S
O464 Fe465 1.918 . S
Fe465 O464 1.918 . S
Fe465 O466 2.002 . S
Fe465 O475 1.976 . S
Fe465 O479 1.996 . S
Fe465 O482 1.997 . S
O466 Fe465 2.002 . S
O466 C483 1.295 . S
O467 Fe462 1.997 . S
O467 C483 1.235 . S
O468 Fe462 2.002 . S
O468 C469 1.295 . S
C469 O468 1.295 . S
C469 O471 1.235 . S
C470 O475 1.287 . S
C470 O476 1.255 . S
O471 Fe463 1.997 . S
O471 C469 1.235 . S
C472 O478 1.287 . S
C472 O479 1.255 . S
O473 Fe462 1.976 . S
O473 C480 1.287 . S
O474 Fe463 1.996 . S
O474 C480 1.255 . S
O475 Fe465 1.976 . S
O475 C470 1.287 . S
O476 Fe462 1.996 . S
O476 C470 1.255 . S
C477 O481 1.295 . S
C477 O482 1.235 . S
O478 Fe463 1.976 . S
O478 C472 1.287 . S
O479 Fe465 1.996 . S
O479 C472 1.255 . S
C480 O473 1.287 . S
C480 O474 1.255 . S
O481 Fe463 2.002 . S
O481 C477 1.295 . S
O482 Fe465 1.997 . S
O482 C477 1.235 . S
C483 O466 1.295 . S
C483 O467 1.235 . S
Fe484 O486 1.918 . S
Fe484 O489 1.997 . S
Fe484 O490 2.002 . S
Fe484 O495 1.976 . S
Fe484 O498 1.996 . S
Fe485 O486 1.918 . S
Fe485 O493 1.997 . S
Fe485 O496 1.996 . S
Fe485 O500 1.976 . S
Fe485 O503 2.002 . S
O486 Fe484 1.918 . S
O486 Fe485 1.918 . S
O486 Fe487 1.918 . S
Fe487 O486 1.918 . S
Fe487 O488 2.002 . S
Fe487 O497 1.976 . S
Fe487 O501 1.996 . S
Fe487 O504 1.997 . S
O488 Fe487 2.002 . S
O488 C505 1.295 . S
O489 Fe484 1.997 . S
O489 C505 1.235 . S
O490 Fe484 2.002 . S
O490 C491 1.295 . S
C491 O490 1.295 . S
C491 O493 1.235 . S
C492 O497 1.287 . S
C492 O498 1.255 . S
O493 Fe485 1.997 . S
O493 C491 1.235 . S
C494 O500 1.287 . S
C494 O501 1.255 . S
O495 Fe484 1.976 . S
O495 C502 1.287 . S
O496 Fe485 1.996 . S
O496 C502 1.255 . S
O497 Fe487 1.976 . S
O497 C492 1.287 . S
O498 Fe484 1.996 . S
O498 C492 1.255 . S
C499 O503 1.295 . S
C499 O504 1.235 . S
O500 Fe485 1.976 . S
O500 C494 1.287 . S
O501 Fe487 1.996 . S
O501 C494 1.255 . S
C502 O495 1.287 . S
C502 O496 1.255 . S
O503 Fe485 2.002 . S
O503 C499 1.295 . S
O504 Fe487 1.997 . S
O504 C499 1.235 . S
C505 O488 1.295 . S
C505 O489 1.235 . S
Fe506 O508 1.918 . S
Fe506 O511 1.997 . S
Fe506 O512 2.002 . S
Fe506 O517 1.976 . S
Fe506 O520 1.996 . S
Fe507 O508 1.918 . S
Fe507 O515 1.997 . S
Fe507 O518 1.996 . S
Fe507 O522 1.976 . S
Fe507 O525 2.002 . S
O508 Fe506 1.918 . S
O508 Fe507 1.918 . S
O508 Fe509 1.918 . S
Fe509 O508 1.918 . S
Fe509 O510 2.002 . S
Fe509 O519 1.976 . S
Fe509 O523 1.996 . S
Fe509 O526 1.997 . S
O510 Fe509 2.002 . S
O510 C527 1.295 . S
O511 Fe506 1.997 . S
O511 C527 1.235 . S
O512 Fe506 2.002 . S
O512 C513 1.295 . S
C513 O512 1.295 . S
C513 O515 1.235 . S
C514 O519 1.287 . S
C514 O520 1.255 . S
O515 Fe507 1.997 . S
O515 C513 1.235 . S
C516 O522 1.287 . S
C516 O523 1.255 . S
O517 Fe506 1.976 . S
O517 C524 1.287 . S
O518 Fe507 1.996 . S
O518 C524 1.255 . S
O519 Fe509 1.976 . S
O519 C514 1.287 . S
O520 Fe506 1.996 . S
O520 C514 1.255 . S
C521 O525 1.295 . S
C521 O526 1.235 . S
O522 Fe507 1.976 . S
O522 C516 1.287 . S
O523 Fe509 1.996 . S
O523 C516 1.255 . S
C524 O517 1.287 . S
C524 O518 1.255 . S
O525 Fe507 2.002 . S
O525 C521 1.295 . S
O526 Fe509 1.997 . S
O526 C521 1.235 . S
C527 O510 1.295 . S
C527 O511 1.235 . S
Fe528 O530 1.918 . S
Fe528 O533 1.997 . S
Fe528 O534 2.002 . S
Fe528 O539 1.976 . S
Fe528 O542 1.996 . S
Fe529 O530 1.918 . S
Fe529 O537 1.997 . S
Fe529 O540 1.996 . S
Fe529 O544 1.976 . S
Fe529 O547 2.002 . S
O530 Fe528 1.918 . S
O530 Fe529 1.918 . S
O530 Fe531 1.918 . S
Fe531 O530 1.918 . S
Fe531 O532 2.002 . S
Fe531 O541 1.976 . S
Fe531 O545 1.996 . S
Fe531 O548 1.997 . S
O532 Fe531 2.002 . S
O532 C549 1.295 . S
O533 Fe528 1.997 . S
O533 C549 1.235 . S
O534 Fe528 2.002 . S
O534 C535 1.295 . S
C535 O534 1.295 . S
C535 O537 1.235 . S
C536 O541 1.287 . S
C536 O542 1.255 . S
O537 Fe529 1.997 . S
O537 C535 1.235 . S
C538 O544 1.287 . S
C538 O545 1.255 . S
O539 Fe528 1.976 . S
O539 C546 1.287 . S
O540 Fe529 1.996 . S
O540 C546 1.255 . S
O541 Fe531 1.976 . S
O541 C536 1.287 . S
O542 Fe528 1.996 . S
O542 C536 1.255 . S
C543 O547 1.295 . S
C543 O548 1.235 . S
O544 Fe529 1.976 . S
O544 C538 1.287 . S
O545 Fe531 1.996 . S
O545 C538 1.255 . S
C546 O539 1.287 . S
C546 O540 1.255 . S
O547 Fe529 2.002 . S
O547 C543 1.295 . S
O548 Fe531 1.997 . S
O548 C543 1.235 . S
C549 O532 1.295 . S
C549 O533 1.235 . S
Fe550 O552 1.918 . S
Fe550 O555 1.997 . S
Fe550 O556 2.002 . S
Fe550 O561 1.976 . S
Fe550 O564 1.996 . S
Fe551 O552 1.918 . S
Fe551 O559 1.997 . S
Fe551 O562 1.996 . S
Fe551 O566 1.976 . S
Fe551 O569 2.002 . S
O552 Fe550 1.918 . S
O552 Fe551 1.918 . S
O552 Fe553 1.918 . S
Fe553 O552 1.918 . S
Fe553 O554 2.002 . S
Fe553 O563 1.976 . S
Fe553 O567 1.996 . S
Fe553 O570 1.997 . S
O554 Fe553 2.002 . S
O554 C571 1.295 . S
O555 Fe550 1.997 . S
O555 C571 1.235 . S
O556 Fe550 2.002 . S
O556 C557 1.295 . S
C557 O556 1.295 . S
C557 O559 1.235 . S
C558 O563 1.287 . S
C558 O564 1.255 . S
O559 Fe551 1.997 . S
O559 C557 1.235 . S
C560 O566 1.287 . S
C560 O567 1.255 . S
O561 Fe550 1.976 . S
O561 C568 1.287 . S
O562 Fe551 1.996 . S
O562 C568 1.255 . S
O563 Fe553 1.976 . S
O563 C558 1.287 . S
O564 Fe550 1.996 . S
O564 C558 1.255 . S
C565 O569 1.295 . S
C565 O570 1.235 . S
O566 Fe551 1.976 . S
O566 C560 1.287 . S
O567 Fe553 1.996 . S
O567 C560 1.255 . S
C568 O561 1.287 . S
C568 O562 1.255 . S
O569 Fe551 2.002 . S
O569 C565 1.295 . S
O570 Fe553 1.997 . S
O570 C565 1.235 . S
C571 O554 1.295 . S
C571 O555 1.235 . S
Fe572 O574 1.918 . S
Fe572 O577 1.997 . S
Fe572 O578 2.002 . S
Fe572 O583 1.976 . S
Fe572 O586 1.996 . S
Fe573 O574 1.918 . S
Fe573 O581 1.997 . S
Fe573 O584 1.996 . S
Fe573 O588 1.976 . S
Fe573 O591 2.002 . S
O574 Fe572 1.918 . S
O574 Fe573 1.918 . S
O574 Fe575 1.918 . S
Fe575 O574 1.918 . S
Fe575 O576 2.002 . S
Fe575 O585 1.976 . S
Fe575 O589 1.996 . S
Fe575 O592 1.997 . S
O576 Fe575 2.002 . S
O576 C593 1.295 . S
O577 Fe572 1.997 . S
O577 C593 1.235 . S
O578 Fe572 2.002 . S
O578 C579 1.295 . S
C579 O578 1.295 . S
C579 O581 1.235 . S
C580 O585 1.287 . S
C580 O586 1.255 . S
O581 Fe573 1.997 . S
O581 C579 1.235 . S
C582 O588 1.287 . S
C582 O589 1.255 . S
O583 Fe572 1.976 . S
O583 C590 1.287 . S
O584 Fe573 1.996 . S
O584 C590 1.255 . S
O585 Fe575 1.976 . S
O585 C580 1.287 . S
O586 Fe572 1.996 . S
O586 C580 1.255 . S
C587 O591 1.295 . S
C587 O592 1.235 . S
O588 Fe573 1.976 . S
O588 C582 1.287 . S
O589 Fe575 1.996 . S
O589 C582 1.255 . S
C590 O583 1.287 . S
C590 O584 1.255 . S
O591 Fe573 2.002 . S
O591 C587 1.295 . S
O592 Fe575 1.997 . S
O592 C587 1.235 . S
C593 O576 1.295 . S
C593 O577 1.235 . S
Fe594 O596 1.918 . S
Fe594 O599 1.997 . S
Fe594 O600 2.002 . S
Fe594 O605 1.976 . S
Fe594 O608 1.996 . S
Fe595 O596 1.918 . S
Fe595 O603 1.997 . S
Fe595 O606 1.996 . S
Fe595 O610 1.976 . S
Fe595 O613 2.002 . S
O596 Fe594 1.918 . S
O596 Fe595 1.918 . S
O596 Fe597 1.918 . S
Fe597 O596 1.918 . S
Fe597 O598 2.002 . S
Fe597 O607 1.976 . S
Fe597 O611 1.996 . S
Fe597 O614 1.997 . S
O598 Fe597 2.002 . S
O598 C615 1.295 . S
O599 Fe594 1.997 . S
O599 C615 1.235 . S
O600 Fe594 2.002 . S
O600 C601 1.295 . S
C601 O600 1.295 . S
C601 O603 1.235 . S
C602 O607 1.287 . S
C602 O608 1.255 . S
O603 Fe595 1.997 . S
O603 C601 1.235 . S
C604 O610 1.287 . S
C604 O611 1.255 . S
O605 Fe594 1.976 . S
O605 C612 1.287 . S
O606 Fe595 1.996 . S
O606 C612 1.255 . S
O607 Fe597 1.976 . S
O607 C602 1.287 . S
O608 Fe594 1.996 . S
O608 C602 1.255 . S
C609 O613 1.295 . S
C609 O614 1.235 . S
O610 Fe595 1.976 . S
O610 C604 1.287 . S
O611 Fe597 1.996 . S
O611 C604 1.255 . S
C612 O605 1.287 . S
C612 O606 1.255 . S
O613 Fe595 2.002 . S
O613 C609 1.295 . S
O614 Fe597 1.997 . S
O614 C609 1.235 . S
C615 O598 1.295 . S
C615 O599 1.235 . S
Fe616 O618 1.918 . S
Fe616 O621 1.997 . S
Fe616 O622 2.002 . S
Fe616 O627 1.976 . S
Fe616 O630 1.996 . S
Fe617 O618 1.918 . S
Fe617 O625 1.997 . S
Fe617 O628 1.996 . S
Fe617 O632 1.976 . S
Fe617 O635 2.002 . S
O618 Fe616 1.918 . S
O618 Fe617 1.918 . S
O618 Fe619 1.918 . S
Fe619 O618 1.918 . S
Fe619 O620 2.002 . S
Fe619 O629 1.976 . S
Fe619 O633 1.996 . S
Fe619 O636 1.997 . S
O620 Fe619 2.002 . S
O620 C637 1.295 . S
O621 Fe616 1.997 . S
O621 C637 1.235 . S
O622 Fe616 2.002 . S
O622 C623 1.295 . S
C623 O622 1.295 . S
C623 O625 1.235 . S
C624 O629 1.287 . S
C624 O630 1.255 . S
O625 Fe617 1.997 . S
O625 C623 1.235 . S
C626 O632 1.287 . S
C626 O633 1.255 . S
O627 Fe616 1.976 . S
O627 C634 1.287 . S
O628 Fe617 1.996 . S
O628 C634 1.255 . S
O629 Fe619 1.976 . S
O629 C624 1.287 . S
O630 Fe616 1.996 . S
O630 C624 1.255 . S
C631 O635 1.295 . S
C631 O636 1.235 . S
O632 Fe617 1.976 . S
O632 C626 1.287 . S
O633 Fe619 1.996 . S
O633 C626 1.255 . S
C634 O627 1.287 . S
C634 O628 1.255 . S
O635 Fe617 2.002 . S
O635 C631 1.295 . S
O636 Fe619 1.997 . S
O636 C631 1.235 . S
C637 O620 1.295 . S
C637 O621 1.235 . S
Fe638 O640 1.918 . S
Fe638 O643 1.997 . S
Fe638 O644 2.002 . S
Fe638 O649 1.976 . S
Fe638 O652 1.996 . S
Fe639 O640 1.918 . S
Fe639 O647 1.997 . S
Fe639 O650 1.996 . S
Fe639 O654 1.976 . S
Fe639 O657 2.002 . S
O640 Fe638 1.918 . S
O640 Fe639 1.918 . S
O640 Fe641 1.918 . S
Fe641 O640 1.918 . S
Fe641 O642 2.002 . S
Fe641 O651 1.976 . S
Fe641 O655 1.996 . S
Fe641 O658 1.997 . S
O642 Fe641 2.002 . S
O642 C659 1.295 . S
O643 Fe638 1.997 . S
O643 C659 1.235 . S
O644 Fe638 2.002 . S
O644 C645 1.295 . S
C645 O644 1.295 . S
C645 O647 1.235 . S
C646 O651 1.287 . S
C646 O652 1.255 . S
O647 Fe639 1.997 . S
O647 C645 1.235 . S
C648 O654 1.287 . S
C648 O655 1.255 . S
O649 Fe638 1.976 . S
O649 C656 1.287 . S
O650 Fe639 1.996 . S
O650 C656 1.255 . S
O651 Fe641 1.976 . S
O651 C646 1.287 . S
O652 Fe638 1.996 . S
O652 C646 1.255 . S
C653 O657 1.295 . S
C653 O658 1.235 . S
O654 Fe639 1.976 . S
O654 C648 1.287 . S
O655 Fe641 1.996 . S
O655 C648 1.255 . S
C656 O649 1.287 . S
C656 O650 1.255 . S
O657 Fe639 2.002 . S
O657 C653 1.295 . S
O658 Fe641 1.997 . S
O658 C653 1.235 . S
C659 O642 1.295 . S
C659 O643 1.235 . S
Fe660 O662 1.918 . S
Fe660 O665 1.997 . S
Fe660 O666 2.002 . S
Fe660 O671 1.976 . S
Fe660 O674 1.996 . S
Fe661 O662 1.918 . S
Fe661 O669 1.997 . S
Fe661 O672 1.996 . S
Fe661 O676 1.976 . S
Fe661 O679 2.002 . S
O662 Fe660 1.918 . S
O662 Fe661 1.918 . S
O662 Fe663 1.918 . S
Fe663 O662 1.918 . S
Fe663 O664 2.002 . S
Fe663 O673 1.976 . S
Fe663 O677 1.996 . S
Fe663 O680 1.997 . S
O664 Fe663 2.002 . S
O664 C681 1.295 . S
O665 Fe660 1.997 . S
O665 C681 1.235 . S
O666 Fe660 2.002 . S
O666 C667 1.295 . S
C667 O666 1.295 . S
C667 O669 1.235 . S
C668 O673 1.287 . S
C668 O674 1.255 . S
O669 Fe661 1.997 . S
O669 C667 1.235 . S
C670 O676 1.287 . S
C670 O677 1.255 . S
O671 Fe660 1.976 . S
O671 C678 1.287 . S
O672 Fe661 1.996 . S
O672 C678 1.255 . S
O673 Fe663 1.976 . S
O673 C668 1.287 . S
O674 Fe660 1.996 . S
O674 C668 1.255 . S
C675 O679 1.295 . S
C675 O680 1.235 . S
O676 Fe661 1.976 . S
O676 C670 1.287 . S
O677 Fe663 1.996 . S
O677 C670 1.255 . S
C678 O671 1.287 . S
C678 O672 1.255 . S
O679 Fe661 2.002 . S
O679 C675 1.295 . S
O680 Fe663 1.997 . S
O680 C675 1.235 . S
C681 O664 1.295 . S
C681 O665 1.235 . S
Fe682 O684 1.918 . S
Fe682 O687 1.997 . S
Fe682 O688 2.002 . S
Fe682 O693 1.976 . S
Fe682 O696 1.996 . S
Fe683 O684 1.918 . S
Fe683 O691 1.997 . S
Fe683 O694 1.996 . S
Fe683 O698 1.976 . S
Fe683 O701 2.002 . S
O684 Fe682 1.918 . S
O684 Fe683 1.918 . S
O684 Fe685 1.918 . S
Fe685 O684 1.918 . S
Fe685 O686 2.002 . S
Fe685 O695 1.976 . S
Fe685 O699 1.996 . S
Fe685 O702 1.997 . S
O686 Fe685 2.002 . S
O686 C703 1.295 . S
O687 Fe682 1.997 . S
O687 C703 1.235 . S
O688 Fe682 2.002 . S
O688 C689 1.295 . S
C689 O688 1.295 . S
C689 O691 1.235 . S
C690 O695 1.287 . S
C690 O696 1.255 . S
O691 Fe683 1.997 . S
O691 C689 1.235 . S
C692 O698 1.287 . S
C692 O699 1.255 . S
O693 Fe682 1.976 . S
O693 C700 1.287 . S
O694 Fe683 1.996 . S
O694 C700 1.255 . S
O695 Fe685 1.976 . S
O695 C690 1.287 . S
O696 Fe682 1.996 . S
O696 C690 1.255 . S
C697 O701 1.295 . S
C697 O702 1.235 . S
O698 Fe683 1.976 . S
O698 C692 1.287 . S
O699 Fe685 1.996 . S
O699 C692 1.255 . S
C700 O693 1.287 . S
C700 O694 1.255 . S
O701 Fe683 2.002 . S
O701 C697 1.295 . S
O702 Fe685 1.997 . S
O702 C697 1.235 . S
C703 O686 1.295 . S
C703 O687 1.235 . S
Fe704 O706 1.918 . S
Fe704 O709 1.997 . S
Fe704 O710 2.002 . S
Fe704 O715 1.976 . S
Fe704 O718 1.996 . S
Fe705 O706 1.918 . S
Fe705 O713 1.997 . S
Fe705 O716 1.996 . S
Fe705 O720 1.976 . S
Fe705 O723 2.002 . S
O706 Fe704 1.918 . S
O706 Fe705 1.918 . S
O706 Fe707 1.918 . S
Fe707 O706 1.918 . S
Fe707 O708 2.002 . S
Fe707 O717 1.976 . S
Fe707 O721 1.996 . S
Fe707 O724 1.997 . S
O708 Fe707 2.002 . S
O708 C725 1.295 . S
O709 Fe704 1.997 . S
O709 C725 1.235 . S
O710 Fe704 2.002 . S
O710 C711 1.295 . S
C711 O710 1.295 . S
C711 O713 1.235 . S
C712 O717 1.287 . S
C712 O718 1.255 . S
O713 Fe705 1.997 . S
O713 C711 1.235 . S
C714 O720 1.287 . S
C714 O721 1.255 . S
O715 Fe704 1.976 . S
O715 C722 1.287 . S
O716 Fe705 1.996 . S
O716 C722 1.255 . S
O717 Fe707 1.976 . S
O717 C712 1.287 . S
O718 Fe704 1.996 . S
O718 C712 1.255 . S
C719 O723 1.295 . S
C719 O724 1.235 . S
O720 Fe705 1.976 . S
O720 C714 1.287 . S
O721 Fe707 1.996 . S
O721 C714 1.255 . S
C722 O715 1.287 . S
C722 O716 1.255 . S
O723 Fe705 2.002 . S
O723 C719 1.295 . S
O724 Fe707 1.997 . S
O724 C719 1.235 . S
C725 O708 1.295 . S
C725 O709 1.235 . S
Fe726 O728 1.918 . S
Fe726 O731 1.997 . S
Fe726 O732 2.002 . S
Fe726 O737 1.976 . S
Fe726 O740 1.996 . S
Fe727 O728 1.918 . S
Fe727 O735 1.997 . S
Fe727 O738 1.996 . S
Fe727 O742 1.976 . S
Fe727 O745 2.002 . S
O728 Fe726 1.918 . S
O728 Fe727 1.918 . S
O728 Fe729 1.918 . S
Fe729 O728 1.918 . S
Fe729 O730 2.002 . S
Fe729 O739 1.976 . S
Fe729 O743 1.996 . S
Fe729 O746 1.997 . S
O730 Fe729 2.002 . S
O730 C747 1.295 . S
O731 Fe726 1.997 . S
O731 C747 1.235 . S
O732 Fe726 2.002 . S
O732 C733 1.295 . S
C733 O732 1.295 . S
C733 O735 1.235 . S
C734 O739 1.287 . S
C734 O740 1.255 . S
O735 Fe727 1.997 . S
O735 C733 1.235 . S
C736 O742 1.287 . S
C736 O743 1.255 . S
O737 Fe726 1.976 . S
O737 C744 1.287 . S
O738 Fe727 1.996 . S
O738 C744 1.255 . S
O739 Fe729 1.976 . S
O739 C734 1.287 . S
O740 Fe726 1.996 . S
O740 C734 1.255 . S
C741 O745 1.295 . S
C741 O746 1.235 . S
O742 Fe727 1.976 . S
O742 C736 1.287 . S
O743 Fe729 1.996 . S
O743 C736 1.255 . S
C744 O737 1.287 . S
C744 O738 1.255 . S
O745 Fe727 2.002 . S
O745 C741 1.295 . S
O746 Fe729 1.997 . S
O746 C741 1.235 . S
C747 O730 1.295 . S
C747 O731 1.235 . S
Fe748 O750 1.918 . S
Fe748 O753 1.997 . S
Fe748 O754 2.002 . S
Fe748 O759 1.976 . S
Fe748 O762 1.996 . S
Fe749 O750 1.918 . S
Fe749 O757 1.997 . S
Fe749 O760 1.996 . S
Fe749 O764 1.976 . S
Fe749 O767 2.002 . S
O750 Fe748 1.918 . S
O750 Fe749 1.918 . S
O750 Fe751 1.918 . S
Fe751 O750 1.918 . S
Fe751 O752 2.002 . S
Fe751 O761 1.976 . S
Fe751 O765 1.996 . S
Fe751 O768 1.997 . S
O752 Fe751 2.002 . S
O752 C769 1.295 . S
O753 Fe748 1.997 . S
O753 C769 1.235 . S
O754 Fe748 2.002 . S
O754 C755 1.295 . S
C755 O754 1.295 . S
C755 O757 1.235 . S
C756 O761 1.287 . S
C756 O762 1.255 . S
O757 Fe749 1.997 . S
O757 C755 1.235 . S
C758 O764 1.287 . S
C758 O765 1.255 . S
O759 Fe748 1.976 . S
O759 C766 1.287 . S
O760 Fe749 1.996 . S
O760 C766 1.255 . S
O761 Fe751 1.976 . S
O761 C756 1.287 . S
O762 Fe748 1.996 . S
O762 C756 1.255 . S
C763 O767 1.295 . S
C763 O768 1.235 . S
O764 Fe749 1.976 . S
O764 C758 1.287 . S
O765 Fe751 1.996 . S
O765 C758 1.255 . S
C766 O759 1.287 . S
C766 O760 1.255 . S
O767 Fe749 2.002 . S
O767 C763 1.295 . S
O768 Fe751 1.997 . S
O768 C763 1.235 . S
C769 O752 1.295 . S
C769 O753 1.235 . S
Fe770 O772 1.918 . S
Fe770 O775 1.997 . S
Fe770 O776 2.002 . S
Fe770 O781 1.976 . S
Fe770 O784 1.996 . S
Fe771 O772 1.918 . S
Fe771 O779 1.997 . S
Fe771 O782 1.996 . S
Fe771 O786 1.976 . S
Fe771 O789 2.002 . S
O772 Fe770 1.918 . S
O772 Fe771 1.918 . S
O772 Fe773 1.918 . S
Fe773 O772 1.918 . S
Fe773 O774 2.002 . S
Fe773 O783 1.976 . S
Fe773 O787 1.996 . S
Fe773 O790 1.997 . S
O774 Fe773 2.002 . S
O774 C791 1.295 . S
O775 Fe770 1.997 . S
O775 C791 1.235 . S
O776 Fe770 2.002 . S
O776 C777 1.295 . S
C777 O776 1.295 . S
C777 O779 1.235 . S
C778 O783 1.287 . S
C778 O784 1.255 . S
O779 Fe771 1.997 . S
O779 C777 1.235 . S
C780 O786 1.287 . S
C780 O787 1.255 . S
O781 Fe770 1.976 . S
O781 C788 1.287 . S
O782 Fe771 1.996 . S
O782 C788 1.255 . S
O783 Fe773 1.976 . S
O783 C778 1.287 . S
O784 Fe770 1.996 . S
O784 C778 1.255 . S
C785 O789 1.295 . S
C785 O790 1.235 . S
O786 Fe771 1.976 . S
O786 C780 1.287 . S
O787 Fe773 1.996 . S
O787 C780 1.255 . S
C788 O781 1.287 . S
C788 O782 1.255 . S
O789 Fe771 2.002 . S
O789 C785 1.295 . S
O790 Fe773 1.997 . S
O790 C785 1.235 . S
C791 O774 1.295 . S
C791 O775 1.235 . S
C792 C793 1.349 . S
C792 C794 1.327 . S
C792 H817 0.950 . S
C793 C792 1.349 . S
C793 C809 1.349 . S
C794 C792 1.327 . S
C794 C813 1.429 . S
C794 H818 0.950 . S
C795 C812 1.574 . S
C795 C814 1.368 . S
C795 H819 0.949 . S
H796 C800 0.949 . S
C797 C798 1.349 . S
C797 C799 1.327 . S
C797 H820 0.950 . S
C798 C797 1.349 . S
C798 C810 1.349 . S
C799 C797 1.327 . S
C799 C815 1.429 . S
C799 H821 0.950 1_556 S
C800 H796 0.949 . S
C800 C808 1.574 1_556 S
C800 C816 1.368 1_556 S
H801 C809 0.950 . S
H802 C807 0.950 . S
H803 C808 0.949 . S
H804 C810 0.950 . S
H805 C811 0.950 . S
H806 C812 0.949 . S
C807 H802 0.950 . S
C807 C809 1.327 . S
C807 C813 1.429 . S
C808 C800 1.574 1_554 S
C808 H803 0.949 . S
C808 C814 1.368 . S
C809 C793 1.349 . S
C809 H801 0.950 . S
C809 C807 1.327 . S
C810 C798 1.349 . S
C810 H804 0.950 . S
C810 C811 1.327 . S
C811 H805 0.950 . S
C811 C810 1.327 . S
C811 C815 1.429 . S
C812 C795 1.574 . S
C812 H806 0.949 . S
C812 C816 1.368 . S
C813 C794 1.429 . S
C813 C807 1.429 . S
C813 C814 1.523 . S
C814 C795 1.368 . S
C814 C808 1.368 . S
C814 C813 1.523 . S
C815 C799 1.429 . S
C815 C811 1.429 . S
C815 C816 1.523 1_556 S
C816 C800 1.368 1_554 S
C816 C812 1.368 . S
C816 C815 1.523 1_554 S
H817 C792 0.950 . S
H818 C794 0.950 . S
H819 C795 0.949 . S
H820 C797 0.950 . S
H821 C799 0.950 1_554 S
C822 C823 1.349 1_554 S
C822 C824 1.327 . S
C822 H847 0.950 . S
C823 C822 1.349 1_556 S
C823 C839 1.349 . S
C824 C822 1.327 . S
C824 C843 1.429 1_554 S
C824 H848 0.950 . S
C825 C842 1.574 . S
C825 C844 1.368 1_556 S
C825 H849 0.949 . S
H826 C830 0.949 . S
C827 C828 1.349 . S
C827 C829 1.327 . S
C827 H850 0.950 . S
C828 C827 1.349 . S
C828 C840 1.349 . S
C829 C827 1.327 . S
C829 C845 1.429 . S
C829 H851 0.950 1_554 S
C830 H826 0.949 . S
C830 C838 1.574 . S
C830 C846 1.368 . S
H831 C839 0.950 . S
H832 C837 0.950 . S
H833 C838 0.949 . S
H834 C840 0.950 . S
H835 C841 0.950 . S
H836 C842 0.949 . S
C837 H832 0.950 . S
C837 C839 1.327 . S
C837 C843 1.429 . S
C838 C830 1.574 . S
C838 H833 0.949 . S
C838 C844 1.368 . S
C839 C823 1.349 . S
C839 H831 0.950 . S
C839 C837 1.327 . S
C840 C828 1.349 . S
C840 H834 0.950 . S
C840 C841 1.327 . S
C841 H835 0.950 . S
C841 C840 1.327 . S
C841 C845 1.429 . S
C842 C825 1.574 . S
C842 H836 0.949 . S
C842 C846 1.368 1_556 S
C843 C824 1.429 1_556 S
C843 C837 1.429 . S
C843 C844 1.523 1_546 S
C844 C825 1.368 1_554 S
C844 C838 1.368 . S
C844 C843 1.523 1_564 S
C845 C829 1.429 . S
C845 C841 1.429 . S
C845 C846 1.523 . S
C846 C830 1.368 . S
C846 C842 1.368 1_554 S
C846 C845 1.523 . S
H847 C822 0.950 . S
H848 C824 0.950 . S
H849 C825 0.949 . S
H850 C827 0.950 . S
H851 C829 0.950 1_556 S
C852 C853 1.349 . S
C852 C854 1.327 . S
C852 H877 0.950 . S
C853 C852 1.349 . S
C853 C869 1.349 . S
C854 C852 1.327 . S
C854 C873 1.429 . S
C854 H878 0.950 . S
C855 C872 1.574 . S
C855 C874 1.368 . S
C855 H879 0.949 . S
H856 C860 0.949 . S
C857 C858 1.349 . S
C857 C859 1.327 . S
C857 H880 0.950 . S
C858 C857 1.349 . S
C858 C870 1.349 . S
C859 C857 1.327 . S
C859 C875 1.429 . S
C859 H881 0.950 1_556 S
C860 H856 0.949 . S
C860 C868 1.574 1_556 S
C860 C876 1.368 1_556 S
H861 C869 0.950 . S
H862 C867 0.950 . S
H863 C868 0.949 . S
H864 C870 0.950 . S
H865 C871 0.891 1_455 S
H866 C872 0.949 . S
C867 H862 0.950 . S
C867 C869 1.327 . S
C867 C873 1.429 . S
C868 C860 1.574 1_554 S
C868 H863 0.949 . S
C868 C874 1.368 . S
C869 C853 1.349 . S
C869 H861 0.950 . S
C869 C867 1.327 . S
C870 C858 1.349 . S
C870 H864 0.950 . S
C870 C871 1.327 . S
C871 H865 0.891 1_655 S
C871 C870 1.327 . S
C871 C875 1.429 . S
C872 C855 1.574 . S
C872 H866 0.949 . S
C872 C876 1.368 . S
C873 C854 1.429 . S
C873 C867 1.429 . S
C873 C874 1.523 . S
C874 C855 1.368 . S
C874 C868 1.368 . S
C874 C873 1.523 . S
C875 C859 1.429 . S
C875 C871 1.429 . S
C875 C876 1.523 1_656 S
C876 C860 1.368 1_554 S
C876 C872 1.368 . S
C876 C875 1.523 1_454 S
H877 C852 0.950 . S
H878 C854 0.950 . S
H879 C855 0.949 . S
H880 C857 0.950 . S
H881 C859 0.950 1_554 S
C882 C883 1.349 . S
C882 C884 1.327 . S
C882 H907 0.950 . S
C883 C882 1.349 . S
C883 C899 1.349 . S
C884 C882 1.327 . S
C884 C903 1.429 . S
C884 H908 0.950 . S
C885 C902 1.574 . S
C885 C904 1.368 . S
C885 H909 0.949 . S
H886 C890 0.949 . S
C887 C888 1.349 . S
C887 C889 1.327 . S
C887 H910 0.950 . S
C888 C887 1.349 . S
C888 C900 1.349 . S
C889 C887 1.327 . S
C889 C905 1.429 . S
C889 H911 0.950 . S
C890 H886 0.949 . S
C890 C898 1.574 . S
C890 C906 1.368 . S
H891 C899 0.950 . S
H892 C897 0.950 . S
H893 C898 0.949 . S
H894 C900 0.950 . S
H895 C901 0.950 . S
H896 C902 0.949 . S
C897 H892 0.950 . S
C897 C899 1.327 . S
C897 C903 1.429 . S
C898 C890 1.574 . S
C898 H893 0.949 . S
C898 C904 1.368 . S
C899 C883 1.349 . S
C899 H891 0.950 . S
C899 C897 1.327 . S
C900 C888 1.349 . S
C900 H894 0.950 . S
C900 C901 1.327 . S
C901 H895 0.950 . S
C901 C900 1.327 . S
C901 C905 1.429 . S
C902 C885 1.574 . S
C902 H896 0.949 . S
C902 C906 1.368 . S
C903 C884 1.429 . S
C903 C897 1.429 . S
C903 C904 1.523 . S
C904 C885 1.368 . S
C904 C898 1.368 . S
C904 C903 1.523 . S
C905 C889 1.429 . S
C905 C901 1.429 . S
C905 C906 1.523 . S
C906 C890 1.368 . S
C906 C902 1.368 . S
C906 C905 1.523 . S
H907 C882 0.950 . S
H908 C884 0.950 . S
H909 C885 0.949 . S
H910 C887 0.950 . S
H911 C889 0.950 . S
C912 C913 1.349 . S
C912 C914 1.327 . S
C912 H937 0.950 . S
C913 C912 1.349 . S
C913 C929 1.349 . S
C914 C912 1.327 . S
C914 C933 1.429 . S
C914 H938 0.950 . S
C915 C932 1.574 . S
C915 C934 1.368 . S
C915 H939 0.949 . S
H916 C920 0.949 . S
C917 C918 1.349 . S
C917 C919 1.327 . S
C917 H940 0.950 . S
C918 C917 1.349 . S
C918 C930 1.349 . S
C919 C917 1.327 . S
C919 C935 1.429 . S
C919 H941 0.950 1_565 S
C920 H916 0.949 . S
C920 C928 1.574 . S
C920 C936 1.368 . S
H921 C929 0.950 . S
H922 C927 0.950 . S
H923 C928 0.949 . S
H924 C930 0.950 . S
H925 C931 0.950 . S
H926 C932 0.949 . S
C927 H922 0.950 . S
C927 C929 1.327 . S
C927 C933 1.429 . S
C928 C920 1.574 . S
C928 H923 0.949 . S
C928 C934 1.368 . S
C929 C913 1.349 . S
C929 H921 0.950 . S
C929 C927 1.327 . S
C930 C918 1.349 . S
C930 H924 0.950 . S
C930 C931 1.327 . S
C931 H925 0.950 . S
C931 C930 1.327 . S
C931 C935 1.429 . S
C932 C915 1.574 . S
C932 H926 0.949 . S
C932 C936 1.368 . S
C933 C914 1.429 . S
C933 C927 1.429 . S
C933 C934 1.523 . S
C934 C915 1.368 . S
C934 C928 1.368 . S
C934 C933 1.523 . S
C935 C919 1.429 . S
C935 C931 1.429 . S
C935 C936 1.523 1_565 S
C936 C920 1.368 . S
C936 C932 1.368 . S
C936 C935 1.523 1_545 S
H937 C912 0.950 . S
H938 C914 0.950 . S
H939 C915 0.949 . S
H940 C917 0.950 . S
H941 C919 0.950 1_545 S
C942 C943 1.349 . S
C942 C944 1.327 . S
C942 H967 0.950 . S
C943 C942 1.349 . S
C943 C959 1.349 . S
C944 C942 1.327 . S
C944 C963 1.429 . S
C944 H968 0.950 . S
C945 C962 1.574 . S
C945 C964 1.368 . S
C945 H969 0.949 . S
H946 C950 0.949 . S
C947 C948 1.349 . S
C947 C949 1.327 . S
C947 H970 0.950 . S
C948 C947 1.349 . S
C948 C960 1.349 . S
C949 C947 1.327 . S
C949 C965 1.429 . S
C949 H971 0.932 1_455 S
C950 H946 0.949 . S
C950 C958 1.574 . S
C950 C966 1.368 . S
H951 C959 0.950 . S
H952 C957 0.950 . S
H953 C958 0.949 . S
H954 C960 0.950 . S
H955 C961 0.950 . S
H956 C962 0.949 . S
C957 H952 0.950 . S
C957 C959 1.327 . S
C957 C963 1.429 . S
C958 C950 1.574 . S
C958 H953 0.949 . S
C958 C964 1.368 . S
C959 C943 1.349 . S
C959 H951 0.950 . S
C959 C957 1.327 . S
C960 C948 1.349 . S
C960 H954 0.950 . S
C960 C961 1.327 . S
C961 H955 0.950 . S
C961 C960 1.327 . S
C961 C965 1.429 . S
C962 C945 1.574 . S
C962 H956 0.949 . S
C962 C966 1.368 . S
C963 C944 1.429 . S
C963 C957 1.429 . S
C963 C964 1.523 . S
C964 C945 1.368 . S
C964 C958 1.368 . S
C964 C963 1.523 . S
C965 C949 1.429 . S
C965 C961 1.429 . S
C965 C966 1.523 1_455 S
C966 C950 1.368 . S
C966 C962 1.368 . S
C966 C965 1.523 1_655 S
H967 C942 0.950 . S
H968 C944 0.950 . S
H969 C945 0.949 . S
H970 C947 0.950 . S
H971 C949 0.932 1_655 S
C972 C973 1.349 . S
C972 C974 1.327 . S
C972 H997 0.950 . S
C973 C972 1.349 . S
C973 C989 1.349 . S
C974 C972 1.327 . S
C974 C993 1.429 . S
C974 H998 0.950 1_556 S
C975 C992 1.574 . S
C975 C994 1.368 . S
C975 H999 0.949 . S
H976 C980 0.949 . S
C977 C978 1.373 . S
C977 C979 1.319 1_554 S
C977 H1000 0.935 1_554 S
C978 C977 1.373 . S
C978 C990 1.349 . S
C979 C977 1.319 1_556 S
C979 C995 1.429 1_556 S
C979 H1001 0.950 . S
C980 H976 0.949 . S
C980 C988 1.574 . S
C980 C996 1.368 1_554 S
H981 C989 0.950 . S
H982 C987 0.950 . S
H983 C988 0.949 . S
H984 C990 0.950 . S
H985 C991 0.950 . S
H986 C992 0.949 . S
C987 H982 0.950 . S
C987 C989 1.327 . S
C987 C993 1.429 . S
C988 C980 1.574 . S
C988 H983 0.949 . S
C988 C994 1.368 1_554 S
C989 C973 1.349 . S
C989 H981 0.950 . S
C989 C987 1.327 . S
C990 C978 1.349 . S
C990 H984 0.950 . S
C990 C991 1.327 . S
C991 H985 0.950 . S
C991 C990 1.327 . S
C991 C995 1.429 . S
C992 C975 1.574 . S
C992 H986 0.949 . S
C992 C996 1.368 . S
C993 C974 1.429 . S
C993 C987 1.429 . S
C993 C994 1.523 . S
C994 C975 1.368 . S
C994 C988 1.368 1_556 S
C994 C993 1.523 . S
C995 C979 1.429 1_554 S
C995 C991 1.429 . S
C995 C996 1.523 1_554 S
C996 C980 1.368 1_556 S
C996 C992 1.368 . S
C996 C995 1.523 1_556 S
H997 C972 0.950 . S
H998 C974 0.950 1_554 S
H999 C975 0.949 . S
H1000 C977 0.935 1_556 S
H1001 C979 0.950 . S
C1002 C1003 1.349 . S
C1002 C1004 1.327 . S
C1002 H1027 0.950 . S
C1003 C1002 1.349 . S
C1003 C1019 1.349 1_554 S
C1004 C1002 1.327 . S
C1004 C1023 1.429 . S
C1004 H1028 0.950 1_565 S
C1005 C1022 1.574 . S
C1005 C1024 1.368 . S
C1005 H1029 0.949 . S
H1006 C1010 0.949 . S
C1007 C1008 1.349 . S
C1007 C1009 1.327 . S
C1007 H1030 0.950 . S
C1008 C1007 1.349 . S
C1008 C1020 1.349 . S
C1009 C1007 1.327 . S
C1009 C1025 1.429 . S
C1009 H1031 0.950 . S
C1010 H1006 0.949 . S
C1010 C1018 1.574 . S
C1010 C1026 1.368 1_554 S
H1011 C1019 0.950 . S
H1012 C1017 0.950 . S
H1013 C1018 0.949 . S
H1014 C1020 0.950 . S
H1015 C1021 0.950 1_554 S
H1016 C1022 0.949 . S
C1017 H1012 0.950 . S
C1017 C1019 1.327 . S
C1017 C1023 1.429 1_556 S
C1018 C1010 1.574 . S
C1018 H1013 0.949 . S
C1018 C1024 1.368 1_554 S
C1019 C1003 1.349 1_556 S
C1019 H1011 0.950 . S
C1019 C1017 1.327 . S
C1020 C1008 1.349 . S
C1020 H1014 0.950 . S
C1020 C1021 1.327 . S
C1021 H1015 0.950 1_556 S
C1021 C1020 1.327 . S
C1021 C1025 1.429 . S
C1022 C1005 1.574 . S
C1022 H1016 0.949 . S
C1022 C1026 1.368 . S
C1023 C1004 1.429 . S
C1023 C1017 1.429 1_554 S
C1023 C1024 1.523 1_564 S
C1024 C1005 1.368 . S
C1024 C1018 1.368 1_556 S
C1024 C1023 1.523 1_546 S
C1025 C1009 1.429 . S
C1025 C1021 1.429 . S
C1025 C1026 1.523 . S
C1026 C1010 1.368 1_556 S
C1026 C1022 1.368 . S
C1026 C1025 1.523 . S
H1027 C1002 0.950 . S
H1028 C1004 0.950 1_545 S
H1029 C1005 0.949 . S
H1030 C1007 0.950 . S
H1031 C1009 0.950 . S
C1032 C1033 1.349 . S
C1032 C1034 1.327 . S
C1032 H1057 0.950 . S
C1033 C1032 1.349 . S
C1033 C1049 1.349 . S
C1034 C1032 1.327 . S
C1034 C1053 1.429 . S
C1034 H1058 0.950 1_554 S
C1035 C1052 1.574 1_554 S
C1035 C1054 1.368 1_554 S
C1035 H1059 0.949 . S
H1036 C1040 0.949 . S
C1037 C1038 1.349 . S
C1037 C1039 1.327 . S
C1037 H1060 0.950 . S
C1038 C1037 1.349 . S
C1038 C1050 1.349 . S
C1039 C1037 1.327 . S
C1039 C1055 1.429 . S
C1039 H1061 0.950 . S
C1040 H1036 0.949 . S
C1040 C1048 1.574 . S
C1040 C1056 1.368 . S
H1041 C1049 0.950 . S
H1042 C1047 0.950 . S
H1043 C1048 0.949 . S
H1044 C1050 0.950 . S
H1045 C1051 0.950 . S
H1046 C1052 0.949 . S
C1047 H1042 0.950 . S
C1047 C1049 1.327 . S
C1047 C1053 1.429 . S
C1048 C1040 1.574 . S
C1048 H1043 0.949 . S
C1048 C1054 1.368 . S
C1049 C1033 1.349 . S
C1049 H1041 0.950 . S
C1049 C1047 1.327 . S
C1050 C1038 1.349 . S
C1050 H1044 0.950 . S
C1050 C1051 1.327 . S
C1051 H1045 0.950 . S
C1051 C1050 1.327 . S
C1051 C1055 1.429 . S
C1052 C1035 1.574 1_556 S
C1052 H1046 0.949 . S
C1052 C1056 1.368 . S
C1053 C1034 1.429 . S
C1053 C1047 1.429 . S
C1053 C1054 1.523 1_454 S
C1054 C1035 1.368 1_556 S
C1054 C1048 1.368 . S
C1054 C1053 1.523 1_656 S
C1055 C1039 1.429 . S
C1055 C1051 1.429 . S
C1055 C1056 1.523 . S
C1056 C1040 1.368 . S
C1056 C1052 1.368 . S
C1056 C1055 1.523 . S
H1057 C1032 0.950 . S
H1058 C1034 0.950 1_556 S
H1059 C1035 0.949 . S
H1060 C1037 0.950 . S
H1061 C1039 0.950 . S
C1062 C1063 1.349 . S
C1062 C1064 1.327 . S
C1062 H1087 0.950 . S
C1063 C1062 1.349 . S
C1063 C1079 1.349 . S
C1064 C1062 1.327 . S
C1064 C1083 1.429 . S
C1064 H1088 0.950 . S
C1065 C1082 1.574 . S
C1065 C1084 1.368 . S
C1065 H1089 0.949 . S
H1066 C1070 0.949 . S
C1067 C1068 1.349 . S
C1067 C1069 1.327 . S
C1067 H1090 0.950 . S
C1068 C1067 1.349 . S
C1068 C1080 1.349 . S
C1069 C1067 1.327 . S
C1069 C1085 1.429 . S
C1069 H1091 0.950 . S
C1070 H1066 0.949 . S
C1070 C1078 1.574 . S
C1070 C1086 1.368 . S
H1071 C1079 0.950 . S
H1072 C1077 0.950 . S
H1073 C1078 0.949 . S
H1074 C1080 0.950 . S
H1075 C1081 0.950 . S
H1076 C1082 0.949 . S
C1077 H1072 0.950 . S
C1077 C1079 1.327 . S
C1077 C1083 1.429 . S
C1078 C1070 1.574 . S
C1078 H1073 0.949 . S
C1078 C1084 1.368 . S
C1079 C1063 1.349 . S
C1079 H1071 0.950 . S
C1079 C1077 1.327 . S
C1080 C1068 1.349 . S
C1080 H1074 0.950 . S
C1080 C1081 1.327 . S
C1081 H1075 0.950 . S
C1081 C1080 1.327 . S
C1081 C1085 1.429 . S
C1082 C1065 1.574 . S
C1082 H1076 0.949 . S
C1082 C1086 1.368 . S
C1083 C1064 1.429 . S
C1083 C1077 1.429 . S
C1083 C1084 1.523 . S
C1084 C1065 1.368 . S
C1084 C1078 1.368 . S
C1084 C1083 1.523 . S
C1085 C1069 1.429 . S
C1085 C1081 1.429 . S
C1085 C1086 1.523 . S
C1086 C1070 1.368 . S
C1086 C1082 1.368 . S
C1086 C1085 1.523 . S
H1087 C1062 0.950 . S
H1088 C1064 0.950 . S
H1089 C1065 0.949 . S
H1090 C1067 0.950 . S
H1091 C1069 0.950 . S
C1092 C1093 1.349 . S
C1092 C1094 1.327 . S
C1092 H1117 0.950 . S
C1093 C1092 1.349 . S
C1093 C1109 1.349 . S
C1094 C1092 1.327 . S
C1094 C1113 1.429 . S
C1094 H1118 0.950 . S
C1095 C1112 1.574 . S
C1095 C1114 1.368 . S
C1095 H1119 0.949 . S
H1096 C1100 0.949 . S
C1097 C1098 1.349 . S
C1097 C1099 1.327 . S
C1097 H1120 0.950 . S
C1098 C1097 1.349 . S
C1098 C1110 1.349 . S
C1099 C1097 1.327 . S
C1099 C1115 1.429 . S
C1099 H1121 0.950 . S
C1100 H1096 0.949 . S
C1100 C1108 1.574 . S
C1100 C1116 1.368 . S
H1101 C1109 0.950 . S
H1102 C1107 0.950 1_565 S
H1103 C1108 0.949 . S
H1104 C1110 0.950 . S
H1105 C1111 0.950 . S
H1106 C1112 0.949 . S
C1107 H1102 0.950 1_545 S
C1107 C1109 1.327 . S
C1107 C1113 1.429 . S
C1108 C1100 1.574 . S
C1108 H1103 0.949 . S
C1108 C1114 1.368 . S
C1109 C1093 1.349 . S
C1109 H1101 0.950 . S
C1109 C1107 1.327 . S
C1110 C1098 1.349 . S
C1110 H1104 0.950 . S
C1110 C1111 1.327 . S
C1111 H1105 0.950 . S
C1111 C1110 1.327 . S
C1111 C1115 1.429 . S
C1112 C1095 1.574 . S
C1112 H1106 0.949 . S
C1112 C1116 1.368 . S
C1113 C1094 1.429 . S
C1113 C1107 1.429 . S
C1113 C1114 1.523 1_545 S
C1114 C1095 1.368 . S
C1114 C1108 1.368 . S
C1114 C1113 1.523 1_565 S
C1115 C1099 1.429 . S
C1115 C1111 1.429 . S
C1115 C1116 1.523 . S
C1116 C1100 1.368 . S
C1116 C1112 1.368 . S
C1116 C1115 1.523 . S
H1117 C1092 0.950 . S
H1118 C1094 0.950 . S
H1119 C1095 0.949 . S
H1120 C1097 0.950 . S
H1121 C1099 0.950 . S
C1122 C1123 1.349 . S
C1122 C1124 1.327 . S
C1122 H1147 0.950 . S
C1123 C1122 1.349 . S
C1123 C1139 1.349 . S
C1124 C1122 1.327 . S
C1124 C1143 1.429 . S
C1124 H1148 0.950 . S
C1125 C1142 1.574 . S
C1125 C1144 1.368 . S
C1125 H1149 0.949 . S
H1126 C1130 0.949 . S
C1127 C1128 1.349 . S
C1127 C1129 1.327 . S
C1127 H1150 0.950 . S
C1128 C1127 1.349 . S
C1128 C1140 1.349 . S
C1129 C1127 1.327 . S
C1129 C1145 1.429 . S
C1129 H1151 0.950 . S
C1130 H1126 0.949 . S
C1130 C1138 1.574 . S
C1130 C1146 1.368 . S
H1131 C1139 0.950 . S
H1132 C1137 0.950 . S
H1133 C1138 0.949 . S
H1134 C1140 0.950 . S
H1135 C1141 0.950 . S
H1136 C1142 0.949 . S
C1137 H1132 0.950 . S
C1137 C1139 1.327 . S
C1137 C1143 1.429 . S
C1138 C1130 1.574 . S
C1138 H1133 0.949 . S
C1138 C1144 1.368 . S
C1139 C1123 1.349 . S
C1139 H1131 0.950 . S
C1139 C1137 1.327 . S
C1140 C1128 1.349 . S
C1140 H1134 0.950 . S
C1140 C1141 1.327 . S
C1141 H1135 0.950 . S
C1141 C1140 1.327 . S
C1141 C1145 1.429 . S
C1142 C1125 1.574 . S
C1142 H1136 0.949 . S
C1142 C1146 1.368 . S
C1143 C1124 1.429 . S
C1143 C1137 1.429 . S
C1143 C1144 1.523 1_655 S
C1144 C1125 1.368 . S
C1144 C1138 1.368 . S
C1144 C1143 1.523 1_455 S
C1145 C1129 1.429 . S
C1145 C1141 1.429 . S
C1145 C1146 1.523 . S
C1146 C1130 1.368 . S
C1146 C1142 1.368 . S
C1146 C1145 1.523 . S
H1147 C1122 0.950 . S
H1148 C1124 0.950 . S
H1149 C1125 0.949 . S
H1150 C1127 0.950 . S
H1151 C1129 0.950 . S
C1152 C1153 1.349 . S
C1152 C1154 1.327 . S
C1152 H1177 0.950 . S
C1153 C1152 1.349 . S
C1153 C1169 1.349 . S
C1154 C1152 1.327 . S
C1154 C1173 1.429 . S
C1154 H1178 0.950 . S
C1155 C1172 1.574 . S
C1155 C1174 1.368 . S
C1155 H1179 0.949 . S
H1156 C1160 0.949 . S
C1157 C1158 1.349 . S
C1157 C1159 1.327 . S
C1157 H1180 0.950 . S
C1158 C1157 1.349 . S
C1158 C1170 1.349 . S
C1159 C1157 1.327 . S
C1159 C1175 1.429 . S
C1159 H1181 0.950 . S
C1160 H1156 0.949 . S
C1160 C1168 1.574 . S
C1160 C1176 1.368 . S
H1161 C1169 0.950 . S
H1162 C1167 0.950 . S
H1163 C1168 0.949 . S
H1164 C1170 0.950 . S
H1165 C1171 0.950 . S
H1166 C1172 0.949 . S
C1167 H1162 0.950 . S
C1167 C1169 1.327 . S
C1167 C1173 1.429 . S
C1168 C1160 1.574 . S
C1168 H1163 0.949 . S
C1168 C1174 1.368 . S
C1169 C1153 1.349 . S
C1169 H1161 0.950 . S
C1169 C1167 1.327 . S
C1170 C1158 1.349 . S
C1170 H1164 0.950 . S
C1170 C1171 1.327 . S
C1171 H1165 0.950 . S
C1171 C1170 1.327 . S
C1171 C1175 1.429 . S
C1172 C1155 1.574 . S
C1172 H1166 0.949 . S
C1172 C1176 1.368 . S
C1173 C1154 1.429 . S
C1173 C1167 1.429 . S
C1173 C1174 1.523 . S
C1174 C1155 1.368 . S
C1174 C1168 1.368 . S
C1174 C1173 1.523 . S
C1175 C1159 1.429 . S
C1175 C1171 1.429 . S
C1175 C1176 1.523 . S
C1176 C1160 1.368 . S
C1176 C1172 1.368 . S
C1176 C1175 1.523 . S
H1177 C1152 0.950 . S
H1178 C1154 0.950 . S
H1179 C1155 0.949 . S
H1180 C1157 0.950 . S
H1181 C1159 0.950 . S
C1182 C1183 1.349 . S
C1182 C1184 1.327 . S
C1182 H1207 0.950 . S
C1183 C1182 1.349 . S
C1183 C1199 1.349 . S
C1184 C1182 1.327 . S
C1184 C1203 1.429 . S
C1184 H1208 0.950 . S
C1185 C1202 1.574 . S
C1185 C1204 1.368 . S
C1185 H1209 0.949 . S
H1186 C1190 0.949 . S
C1187 C1188 1.349 . S
C1187 C1189 1.327 . S
C1187 H1210 0.950 . S
C1188 C1187 1.349 . S
C1188 C1200 1.349 . S
C1189 C1187 1.327 . S
C1189 C1205 1.429 . S
C1189 H1211 0.950 . S
C1190 H1186 0.949 . S
C1190 C1198 1.574 . S
C1190 C1206 1.368 . S
H1191 C1199 0.950 . S
H1192 C1197 0.950 . S
H1193 C1198 0.949 . S
H1194 C1200 0.950 . S
H1195 C1201 0.950 . S
H1196 C1202 0.949 . S
C1197 H1192 0.950 . S
C1197 C1199 1.327 . S
C1197 C1203 1.429 . S
C1198 C1190 1.574 . S
C1198 H1193 0.949 . S
C1198 C1204 1.368 . S
C1199 C1183 1.349 . S
C1199 H1191 0.950 . S
C1199 C1197 1.327 . S
C1200 C1188 1.349 . S
C1200 H1194 0.950 . S
C1200 C1201 1.327 . S
C1201 H1195 0.950 . S
C1201 C1200 1.327 . S
C1201 C1205 1.429 . S
C1202 C1185 1.574 . S
C1202 H1196 0.949 . S
C1202 C1206 1.368 . S
C1203 C1184 1.429 . S
C1203 C1197 1.429 . S
C1203 C1204 1.523 . S
C1204 C1185 1.368 . S
C1204 C1198 1.368 . S
C1204 C1203 1.523 . S
C1205 C1189 1.429 . S
C1205 C1201 1.429 . S
C1205 C1206 1.523 . S
C1206 C1190 1.368 . S
C1206 C1202 1.368 . S
C1206 C1205 1.523 . S
H1207 C1182 0.950 . S
H1208 C1184 0.950 . S
H1209 C1185 0.949 . S
H1210 C1187 0.950 . S
H1211 C1189 0.950 . S
C1212 C1213 1.349 . S
C1212 C1214 1.327 . S
C1212 H1237 0.950 . S
C1213 C1212 1.349 . S
C1213 C1229 1.349 . S
C1214 C1212 1.327 . S
C1214 C1233 1.429 . S
C1214 H1238 0.950 . S
C1215 C1232 1.574 . S
C1215 C1234 1.368 . S
C1215 H1239 0.949 . S
H1216 C1220 0.949 . S
C1217 C1218 1.349 . S
C1217 C1219 1.327 . S
C1217 H1240 0.950 . S
C1218 C1217 1.349 . S
C1218 C1230 1.349 . S
C1219 C1217 1.327 . S
C1219 C1235 1.429 . S
C1219 H1241 0.950 . S
C1220 H1216 0.949 . S
C1220 C1228 1.574 . S
C1220 C1236 1.368 . S
H1221 C1229 0.950 . S
H1222 C1227 0.950 . S
H1223 C1228 0.949 . S
H1224 C1230 0.950 . S
H1225 C1231 0.950 . S
H1226 C1232 0.949 . S
C1227 H1222 0.950 . S
C1227 C1229 1.327 . S
C1227 C1233 1.429 . S
C1228 C1220 1.574 . S
C1228 H1223 0.949 . S
C1228 C1234 1.368 . S
C1229 C1213 1.349 . S
C1229 H1221 0.950 . S
C1229 C1227 1.327 . S
C1230 C1218 1.349 . S
C1230 H1224 0.950 . S
C1230 C1231 1.327 . S
C1231 H1225 0.950 . S
C1231 C1230 1.327 . S
C1231 C1235 1.429 . S
C1232 C1215 1.574 . S
C1232 H1226 0.949 . S
C1232 C1236 1.368 . S
C1233 C1214 1.429 . S
C1233 C1227 1.429 . S
C1233 C1234 1.523 . S
C1234 C1215 1.368 . S
C1234 C1228 1.368 . S
C1234 C1233 1.523 . S
C1235 C1219 1.429 . S
C1235 C1231 1.429 . S
C1235 C1236 1.523 . S
C1236 C1220 1.368 . S
C1236 C1232 1.368 . S
C1236 C1235 1.523 . S
H1237 C1212 0.950 . S
H1238 C1214 0.950 . S
H1239 C1215 0.949 . S
H1240 C1217 0.950 . S
H1241 C1219 0.950 . S
C1242 C1243 1.349 . S
C1242 C1244 1.327 . S
C1242 H1267 0.950 . S
C1243 C1242 1.349 . S
C1243 C1259 1.349 . S
C1244 C1242 1.327 . S
C1244 C1263 1.429 . S
C1244 H1268 0.950 . S
C1245 C1262 1.574 . S
C1245 C1264 1.368 . S
C1245 H1269 0.949 . S
H1246 C1250 0.949 . S
C1247 C1248 1.349 . S
C1247 C1249 1.327 . S
C1247 H1270 0.950 . S
C1248 C1247 1.349 . S
C1248 C1260 1.349 . S
C1249 C1247 1.327 . S
C1249 C1265 1.429 . S
C1249 H1271 0.950 . S
C1250 H1246 0.949 . S
C1250 C1258 1.574 . S
C1250 C1266 1.368 . S
H1251 C1259 0.950 . S
H1252 C1257 0.950 . S
H1253 C1258 0.949 . S
H1254 C1260 0.950 . S
H1255 C1261 0.950 . S
H1256 C1262 0.949 . S
C1257 H1252 0.950 . S
C1257 C1259 1.327 . S
C1257 C1263 1.429 . S
C1258 C1250 1.574 . S
C1258 H1253 0.949 . S
C1258 C1264 1.368 . S
C1259 C1243 1.349 . S
C1259 H1251 0.950 . S
C1259 C1257 1.327 . S
C1260 C1248 1.349 . S
C1260 H1254 0.950 . S
C1260 C1261 1.327 . S
C1261 H1255 0.950 . S
C1261 C1260 1.327 . S
C1261 C1265 1.429 . S
C1262 C1245 1.574 . S
C1262 H1256 0.949 . S
C1262 C1266 1.368 . S
C1263 C1244 1.429 . S
C1263 C1257 1.429 . S
C1263 C1264 1.523 . S
C1264 C1245 1.368 . S
C1264 C1258 1.368 . S
C1264 C1263 1.523 . S
C1265 C1249 1.429 . S
C1265 C1261 1.429 . S
C1265 C1266 1.523 . S
C1266 C1250 1.368 . S
C1266 C1262 1.368 . S
C1266 C1265 1.523 . S
H1267 C1242 0.950 . S
H1268 C1244 0.950 . S
H1269 C1245 0.949 . S
H1270 C1247 0.950 . S
H1271 C1249 0.950 . S
C1272 C1273 1.349 . S
C1272 C1274 1.327 . S
C1272 H1297 0.950 . S
C1273 C1272 1.349 . S
C1273 C1289 1.349 . S
C1274 C1272 1.327 . S
C1274 C1293 1.429 . S
C1274 H1298 0.950 . S
C1275 C1292 1.574 . S
C1275 C1294 1.368 . S
C1275 H1299 0.949 . S
H1276 C1280 0.949 . S
C1277 C1278 1.349 . S
C1277 C1279 1.327 . S
C1277 H1300 0.950 . S
C1278 C1277 1.349 . S
C1278 C1290 1.349 . S
C1279 C1277 1.327 . S
C1279 C1295 1.429 . S
C1279 H1301 0.950 . S
C1280 H1276 0.949 . S
C1280 C1288 1.574 . S
C1280 C1296 1.368 . S
H1281 C1289 0.950 . S
H1282 C1287 0.950 . S
H1283 C1288 0.949 . S
H1284 C1290 0.950 . S
H1285 C1291 0.950 . S
H1286 C1292 0.949 . S
C1287 H1282 0.950 . S
C1287 C1289 1.327 . S
C1287 C1293 1.429 . S
C1288 C1280 1.574 . S
C1288 H1283 0.949 . S
C1288 C1294 1.368 . S
C1289 C1273 1.349 . S
C1289 H1281 0.950 . S
C1289 C1287 1.327 . S
C1290 C1278 1.349 . S
C1290 H1284 0.950 . S
C1290 C1291 1.327 . S
C1291 H1285 0.950 . S
C1291 C1290 1.327 . S
C1291 C1295 1.429 . S
C1292 C1275 1.574 . S
C1292 H1286 0.949 . S
C1292 C1296 1.368 . S
C1293 C1274 1.429 . S
C1293 C1287 1.429 . S
C1293 C1294 1.523 . S
C1294 C1275 1.368 . S
C1294 C1288 1.368 . S
C1294 C1293 1.523 . S
C1295 C1279 1.429 . S
C1295 C1291 1.429 . S
C1295 C1296 1.523 . S
C1296 C1280 1.368 . S
C1296 C1292 1.368 . S
C1296 C1295 1.523 . S
H1297 C1272 0.950 . S
H1298 C1274 0.950 . S
H1299 C1275 0.949 . S
H1300 C1277 0.950 . S
H1301 C1279 0.950 . S
C1302 C1303 1.349 . S
C1302 C1304 1.327 . S
C1302 H1327 0.950 . S
C1303 C1302 1.349 . S
C1303 C1319 1.349 . S
C1304 C1302 1.327 . S
C1304 C1323 1.429 . S
C1304 H1328 0.950 . S
C1305 C1322 1.574 . S
C1305 C1324 1.368 . S
C1305 H1329 0.949 . S
H1306 C1310 0.949 . S
C1307 C1308 1.349 . S
C1307 C1309 1.327 . S
C1307 H1330 0.950 . S
C1308 C1307 1.349 . S
C1308 C1320 1.349 . S
C1309 C1307 1.327 . S
C1309 C1325 1.429 . S
C1309 H1331 0.950 . S
C1310 H1306 0.949 . S
C1310 C1318 1.574 . S
C1310 C1326 1.368 . S
H1311 C1319 0.950 . S
H1312 C1317 0.950 . S
H1313 C1318 0.949 . S
H1314 C1320 0.950 . S
H1315 C1321 0.950 . S
H1316 C1322 0.949 . S
C1317 H1312 0.950 . S
C1317 C1319 1.327 . S
C1317 C1323 1.429 . S
C1318 C1310 1.574 . S
C1318 H1313 0.949 . S
C1318 C1324 1.368 . S
C1319 C1303 1.349 . S
C1319 H1311 0.950 . S
C1319 C1317 1.327 . S
C1320 C1308 1.349 . S
C1320 H1314 0.950 . S
C1320 C1321 1.327 . S
C1321 H1315 0.950 . S
C1321 C1320 1.327 . S
C1321 C1325 1.429 . S
C1322 C1305 1.574 . S
C1322 H1316 0.949 . S
C1322 C1326 1.368 . S
C1323 C1304 1.429 . S
C1323 C1317 1.429 . S
C1323 C1324 1.523 . S
C1324 C1305 1.368 . S
C1324 C1318 1.368 . S
C1324 C1323 1.523 . S
C1325 C1309 1.429 . S
C1325 C1321 1.429 . S
C1325 C1326 1.523 . S
C1326 C1310 1.368 . S
C1326 C1322 1.368 . S
C1326 C1325 1.523 . S
H1327 C1302 0.950 . S
H1328 C1304 0.950 . S
H1329 C1305 0.949 . S
H1330 C1307 0.950 . S
H1331 C1309 0.950 . S
C1332 C1333 1.349 . S
C1332 C1334 1.327 . S
C1332 H1357 0.950 . S
C1333 C1332 1.349 . S
C1333 C1349 1.349 . S
C1334 C1332 1.327 . S
C1334 C1353 1.429 . S
C1334 H1358 0.950 . S
C1335 C1352 1.574 . S
C1335 C1354 1.368 . S
C1335 H1359 0.949 . S
H1336 C1340 0.949 . S
C1337 C1338 1.349 . S
C1337 C1339 1.327 . S
C1337 H1360 0.950 . S
C1338 C1337 1.349 . S
C1338 C1350 1.349 . S
C1339 C1337 1.327 . S
C1339 C1355 1.429 . S
C1339 H1361 0.950 . S
C1340 H1336 0.949 . S
C1340 C1348 1.574 . S
C1340 C1356 1.368 . S
H1341 C1349 0.950 . S
H1342 C1347 0.950 . S
H1343 C1348 0.949 . S
H1344 C1350 0.950 . S
H1345 C1351 0.950 . S
H1346 C1352 0.949 . S
C1347 H1342 0.950 . S
C1347 C1349 1.327 . S
C1347 C1353 1.429 . S
C1348 C1340 1.574 . S
C1348 H1343 0.949 . S
C1348 C1354 1.368 . S
C1349 C1333 1.349 . S
C1349 H1341 0.950 . S
C1349 C1347 1.327 . S
C1350 C1338 1.349 . S
C1350 H1344 0.950 . S
C1350 C1351 1.327 . S
C1351 H1345 0.950 . S
C1351 C1350 1.327 . S
C1351 C1355 1.429 . S
C1352 C1335 1.574 . S
C1352 H1346 0.949 . S
C1352 C1356 1.368 . S
C1353 C1334 1.429 . S
C1353 C1347 1.429 . S
C1353 C1354 1.523 . S
C1354 C1335 1.368 . S
C1354 C1348 1.368 . S
C1354 C1353 1.523 . S
C1355 C1339 1.429 . S
C1355 C1351 1.429 . S
C1355 C1356 1.523 . S
C1356 C1340 1.368 . S
C1356 C1352 1.368 . S
C1356 C1355 1.523 . S
H1357 C1332 0.950 . S
H1358 C1334 0.950 . S
H1359 C1335 0.949 . S
H1360 C1337 0.950 . S
H1361 C1339 0.950 . S
C1362 C1363 1.349 . S
C1362 C1364 1.327 . S
C1362 H1387 0.950 . S
C1363 C1362 1.349 . S
C1363 C1379 1.349 . S
C1364 C1362 1.327 . S
C1364 C1383 1.429 . S
C1364 H1388 0.950 . S
C1365 C1382 1.574 . S
C1365 C1384 1.368 . S
C1365 H1389 0.949 . S
H1366 C1370 0.949 . S
C1367 C1368 1.349 . S
C1367 C1369 1.327 . S
C1367 H1390 0.950 . S
C1368 C1367 1.349 . S
C1368 C1380 1.349 . S
C1369 C1367 1.327 . S
C1369 C1385 1.429 . S
C1369 H1391 0.950 . S
C1370 H1366 0.949 . S
C1370 C1378 1.574 . S
C1370 C1386 1.368 . S
H1371 C1379 0.950 . S
H1372 C1377 0.950 . S
H1373 C1378 0.949 . S
H1374 C1380 0.950 . S
H1375 C1381 0.950 . S
H1376 C1382 0.949 . S
C1377 H1372 0.950 . S
C1377 C1379 1.327 . S
C1377 C1383 1.429 . S
C1378 C1370 1.574 . S
C1378 H1373 0.949 . S
C1378 C1384 1.368 . S
C1379 C1363 1.349 . S
C1379 H1371 0.950 . S
C1379 C1377 1.327 . S
C1380 C1368 1.349 . S
C1380 H1374 0.950 . S
C1380 C1381 1.327 . S
C1381 H1375 0.950 . S
C1381 C1380 1.327 . S
C1381 C1385 1.429 . S
C1382 C1365 1.574 . S
C1382 H1376 0.949 . S
C1382 C1386 1.368 . S
C1383 C1364 1.429 . S
C1383 C1377 1.429 . S
C1383 C1384 1.523 . S
C1384 C1365 1.368 . S
C1384 C1378 1.368 . S
C1384 C1383 1.523 . S
C1385 C1369 1.429 . S
C1385 C1381 1.429 . S
C1385 C1386 1.523 . S
C1386 C1370 1.368 . S
C1386 C1382 1.368 . S
C1386 C1385 1.523 . S
H1387 C1362 0.950 . S
H1388 C1364 0.950 . S
H1389 C1365 0.949 . S
H1390 C1367 0.950 . S
H1391 C1369 0.950 . S
C1392 C1393 1.349 . S
C1392 C1394 1.327 . S
C1392 H1417 0.950 . S
C1393 C1392 1.349 . S
C1393 C1409 1.349 . S
C1394 C1392 1.327 . S
C1394 C1413 1.429 . S
C1394 H1418 0.950 . S
C1395 C1412 1.574 . S
C1395 C1414 1.368 . S
C1395 H1419 0.949 . S
H1396 C1400 0.949 . S
C1397 C1398 1.349 . S
C1397 C1399 1.327 . S
C1397 H1420 0.950 . S
C1398 C1397 1.349 . S
C1398 C1410 1.349 . S
C1399 C1397 1.327 . S
C1399 C1415 1.429 . S
C1399 H1421 0.950 . S
C1400 H1396 0.949 . S
C1400 C1408 1.574 . S
C1400 C1416 1.368 . S
H1401 C1409 0.950 . S
H1402 C1407 0.950 . S
H1403 C1408 0.949 . S
H1404 C1410 0.950 . S
H1405 C1411 0.950 . S
H1406 C1412 0.949 . S
C1407 H1402 0.950 . S
C1407 C1409 1.327 . S
C1407 C1413 1.429 . S
C1408 C1400 1.574 . S
C1408 H1403 0.949 . S
C1408 C1414 1.368 . S
C1409 C1393 1.349 . S
C1409 H1401 0.950 . S
C1409 C1407 1.327 . S
C1410 C1398 1.349 . S
C1410 H1404 0.950 . S
C1410 C1411 1.327 . S
C1411 H1405 0.950 . S
C1411 C1410 1.327 . S
C1411 C1415 1.429 . S
C1412 C1395 1.574 . S
C1412 H1406 0.949 . S
C1412 C1416 1.368 . S
C1413 C1394 1.429 . S
C1413 C1407 1.429 . S
C1413 C1414 1.523 . S
C1414 C1395 1.368 . S
C1414 C1408 1.368 . S
C1414 C1413 1.523 . S
C1415 C1399 1.429 . S
C1415 C1411 1.429 . S
C1415 C1416 1.523 . S
C1416 C1400 1.368 . S
C1416 C1412 1.368 . S
C1416 C1415 1.523 . S
H1417 C1392 0.950 . S
H1418 C1394 0.950 . S
H1419 C1395 0.949 . S
H1420 C1397 0.950 . S
H1421 C1399 0.950 . S
C1422 C1423 1.349 . S
C1422 C1424 1.327 . S
C1422 H1447 0.950 . S
C1423 C1422 1.349 . S
C1423 C1439 1.349 . S
C1424 C1422 1.327 . S
C1424 C1443 1.429 . S
C1424 H1448 0.950 . S
C1425 C1442 1.574 . S
C1425 C1444 1.368 . S
C1425 H1449 0.949 . S
H1426 C1430 0.949 . S
C1427 C1428 1.349 . S
C1427 C1429 1.327 . S
C1427 H1450 0.950 . S
C1428 C1427 1.349 . S
C1428 C1440 1.349 . S
C1429 C1427 1.327 . S
C1429 C1445 1.429 . S
C1429 H1451 0.950 . S
C1430 H1426 0.949 . S
C1430 C1438 1.574 . S
C1430 C1446 1.368 . S
H1431 C1439 0.950 . S
H1432 C1437 0.950 . S
H1433 C1438 0.949 . S
H1434 C1440 0.950 . S
H1435 C1441 0.950 . S
H1436 C1442 0.949 . S
C1437 H1432 0.950 . S
C1437 C1439 1.327 . S
C1437 C1443 1.429 . S
C1438 C1430 1.574 . S
C1438 H1433 0.949 . S
C1438 C1444 1.368 . S
C1439 C1423 1.349 . S
C1439 H1431 0.950 . S
C1439 C1437 1.327 . S
C1440 C1428 1.349 . S
C1440 H1434 0.950 . S
C1440 C1441 1.327 . S
C1441 H1435 0.950 . S
C1441 C1440 1.327 . S
C1441 C1445 1.429 . S
C1442 C1425 1.574 . S
C1442 H1436 0.949 . S
C1442 C1446 1.368 . S
C1443 C1424 1.429 . S
C1443 C1437 1.429 . S
C1443 C1444 1.523 . S
C1444 C1425 1.368 . S
C1444 C1438 1.368 . S
C1444 C1443 1.523 . S
C1445 C1429 1.429 . S
C1445 C1441 1.429 . S
C1445 C1446 1.523 . S
C1446 C1430 1.368 . S
C1446 C1442 1.368 . S
C1446 C1445 1.523 . S
H1447 C1422 0.950 . S
H1448 C1424 0.950 . S
H1449 C1425 0.949 . S
H1450 C1427 0.950 . S
H1451 C1429 0.950 . S
C1452 C1453 1.349 . S
C1452 C1454 1.327 . S
C1452 H1477 0.950 . S
C1453 C1452 1.349 . S
C1453 C1469 1.349 . S
C1454 C1452 1.327 . S
C1454 C1473 1.429 . S
C1454 H1478 0.950 . S
C1455 C1472 1.574 . S
C1455 C1474 1.368 . S
C1455 H1479 0.949 . S
H1456 C1460 0.949 . S
C1457 C1458 1.349 . S
C1457 C1459 1.327 . S
C1457 H1480 0.950 . S
C1458 C1457 1.349 . S
C1458 C1470 1.349 . S
C1459 C1457 1.327 . S
C1459 C1475 1.429 . S
C1459 H1481 0.950 . S
C1460 H1456 0.949 . S
C1460 C1468 1.574 . S
C1460 C1476 1.368 . S
H1461 C1469 0.950 . S
H1462 C1467 0.950 . S
H1463 C1468 0.949 . S
H1464 C1470 0.950 . S
H1465 C1471 0.950 . S
H1466 C1472 0.949 . S
C1467 H1462 0.950 . S
C1467 C1469 1.327 . S
C1467 C1473 1.429 . S
C1468 C1460 1.574 . S
C1468 H1463 0.949 . S
C1468 C1474 1.368 . S
C1469 C1453 1.349 . S
C1469 H1461 0.950 . S
C1469 C1467 1.327 . S
C1470 C1458 1.349 . S
C1470 H1464 0.950 . S
C1470 C1471 1.327 . S
C1471 H1465 0.950 . S
C1471 C1470 1.327 . S
C1471 C1475 1.429 . S
C1472 C1455 1.574 . S
C1472 H1466 0.949 . S
C1472 C1476 1.368 . S
C1473 C1454 1.429 . S
C1473 C1467 1.429 . S
C1473 C1474 1.523 . S
C1474 C1455 1.368 . S
C1474 C1468 1.368 . S
C1474 C1473 1.523 . S
C1475 C1459 1.429 . S
C1475 C1471 1.429 . S
C1475 C1476 1.523 . S
C1476 C1460 1.368 . S
C1476 C1472 1.368 . S
C1476 C1475 1.523 . S
H1477 C1452 0.950 . S
H1478 C1454 0.950 . S
H1479 C1455 0.949 . S
H1480 C1457 0.950 . S
H1481 C1459 0.950 . S
C1482 C1483 1.349 . S
C1482 C1484 1.327 . S
C1482 H1507 0.950 . S
C1483 C1482 1.349 . S
C1483 C1499 1.349 . S
C1484 C1482 1.327 . S
C1484 C1503 1.429 . S
C1484 H1508 0.950 . S
C1485 C1502 1.574 . S
C1485 C1504 1.368 . S
C1485 H1509 0.949 . S
H1486 C1490 0.949 . S
C1487 C1488 1.349 . S
C1487 C1489 1.327 . S
C1487 H1510 0.950 . S
C1488 C1487 1.349 . S
C1488 C1500 1.349 . S
C1489 C1487 1.327 . S
C1489 C1505 1.429 . S
C1489 H1511 0.950 . S
C1490 H1486 0.949 . S
C1490 C1498 1.574 . S
C1490 C1506 1.368 . S
H1491 C1499 0.950 . S
H1492 C1497 0.950 . S
H1493 C1498 0.949 . S
H1494 C1500 0.950 . S
H1495 C1501 0.950 . S
H1496 C1502 0.949 . S
C1497 H1492 0.950 . S
C1497 C1499 1.327 . S
C1497 C1503 1.429 . S
C1498 C1490 1.574 . S
C1498 H1493 0.949 . S
C1498 C1504 1.368 . S
C1499 C1483 1.349 . S
C1499 H1491 0.950 . S
C1499 C1497 1.327 . S
C1500 C1488 1.349 . S
C1500 H1494 0.950 . S
C1500 C1501 1.327 . S
C1501 H1495 0.950 . S
C1501 C1500 1.327 . S
C1501 C1505 1.429 . S
C1502 C1485 1.574 . S
C1502 H1496 0.949 . S
C1502 C1506 1.368 . S
C1503 C1484 1.429 . S
C1503 C1497 1.429 . S
C1503 C1504 1.523 . S
C1504 C1485 1.368 . S
C1504 C1498 1.368 . S
C1504 C1503 1.523 . S
C1505 C1489 1.429 . S
C1505 C1501 1.429 . S
C1505 C1506 1.523 . S
C1506 C1490 1.368 . S
C1506 C1502 1.368 . S
C1506 C1505 1.523 . S
H1507 C1482 0.950 . S
H1508 C1484 0.950 . S
H1509 C1485 0.949 . S
H1510 C1487 0.950 . S
H1511 C1489 0.950 . S
C1512 C1513 1.349 . S
C1512 C1514 1.327 . S
C1512 H1537 0.950 . S
C1513 C1512 1.349 . S
C1513 C1529 1.349 . S
C1514 C1512 1.327 . S
C1514 C1533 1.429 . S
C1514 H1538 0.950 . S
C1515 C1532 1.574 . S
C1515 C1534 1.368 . S
C1515 H1539 0.949 . S
H1516 C1520 0.949 . S
C1517 C1518 1.349 . S
C1517 C1519 1.327 . S
C1517 H1540 0.950 . S
C1518 C1517 1.349 . S
C1518 C1530 1.349 . S
C1519 C1517 1.327 . S
C1519 C1535 1.429 . S
C1519 H1541 0.950 . S
C1520 H1516 0.949 . S
C1520 C1528 1.574 . S
C1520 C1536 1.368 . S
H1521 C1529 0.950 . S
H1522 C1527 0.950 . S
H1523 C1528 0.949 . S
H1524 C1530 0.950 . S
H1525 C1531 0.950 . S
H1526 C1532 0.949 . S
C1527 H1522 0.950 . S
C1527 C1529 1.327 . S
C1527 C1533 1.429 . S
C1528 C1520 1.574 . S
C1528 H1523 0.949 . S
C1528 C1534 1.368 . S
C1529 C1513 1.349 . S
C1529 H1521 0.950 . S
C1529 C1527 1.327 . S
C1530 C1518 1.349 . S
C1530 H1524 0.950 . S
C1530 C1531 1.327 . S
C1531 H1525 0.950 . S
C1531 C1530 1.327 . S
C1531 C1535 1.429 . S
C1532 C1515 1.574 . S
C1532 H1526 0.949 . S
C1532 C1536 1.368 . S
C1533 C1514 1.429 . S
C1533 C1527 1.429 . S
C1533 C1534 1.523 . S
C1534 C1515 1.368 . S
C1534 C1528 1.368 . S
C1534 C1533 1.523 . S
C1535 C1519 1.429 . S
C1535 C1531 1.429 . S
C1535 C1536 1.523 . S
C1536 C1520 1.368 . S
C1536 C1532 1.368 . S
C1536 C1535 1.523 . S
H1537 C1512 0.950 . S
H1538 C1514 0.950 . S
H1539 C1515 0.949 . S
H1540 C1517 0.950 . S
H1541 C1519 0.950 . S
C1542 C1543 1.349 . S
C1542 C1544 1.327 . S
C1542 H1567 0.950 . S
C1543 C1542 1.349 . S
C1543 C1559 1.349 . S
C1544 C1542 1.327 . S
C1544 C1563 1.429 . S
C1544 H1568 0.950 . S
C1545 C1562 1.574 . S
C1545 C1564 1.368 . S
C1545 H1569 0.949 . S
H1546 C1550 0.949 . S
C1547 C1548 1.349 . S
C1547 C1549 1.327 . S
C1547 H1570 0.950 . S
C1548 C1547 1.349 . S
C1548 C1560 1.349 . S
C1549 C1547 1.327 . S
C1549 C1565 1.429 . S
C1549 H1571 0.950 . S
C1550 H1546 0.949 . S
C1550 C1558 1.574 . S
C1550 C1566 1.368 . S
H1551 C1559 0.950 . S
H1552 C1557 0.950 . S
H1553 C1558 0.949 . S
H1554 C1560 0.950 . S
H1555 C1561 0.950 . S
H1556 C1562 0.949 . S
C1557 H1552 0.950 . S
C1557 C1559 1.327 . S
C1557 C1563 1.429 . S
C1558 C1550 1.574 . S
C1558 H1553 0.949 . S
C1558 C1564 1.368 . S
C1559 C1543 1.349 . S
C1559 H1551 0.950 . S
C1559 C1557 1.327 . S
C1560 C1548 1.349 . S
C1560 H1554 0.950 . S
C1560 C1561 1.327 . S
C1561 H1555 0.950 . S
C1561 C1560 1.327 . S
C1561 C1565 1.429 . S
C1562 C1545 1.574 . S
C1562 H1556 0.949 . S
C1562 C1566 1.368 . S
C1563 C1544 1.429 . S
C1563 C1557 1.429 . S
C1563 C1564 1.523 . S
C1564 C1545 1.368 . S
C1564 C1558 1.368 . S
C1564 C1563 1.523 . S
C1565 C1549 1.429 . S
C1565 C1561 1.429 . S
C1565 C1566 1.523 . S
C1566 C1550 1.368 . S
C1566 C1562 1.368 . S
C1566 C1565 1.523 . S
H1567 C1542 0.950 . S
H1568 C1544 0.950 . S
H1569 C1545 0.949 . S
H1570 C1547 0.950 . S
H1571 C1549 0.950 . S
C1572 C1573 1.349 . S
C1572 C1574 1.327 . S
C1572 H1597 0.950 . S
C1573 C1572 1.349 . S
C1573 C1589 1.349 . S
C1574 C1572 1.327 . S
C1574 C1593 1.429 . S
C1574 H1598 0.950 . S
C1575 C1592 1.574 . S
C1575 C1594 1.368 . S
C1575 H1599 0.949 . S
H1576 C1580 0.949 . S
C1577 C1578 1.349 . S
C1577 C1579 1.327 . S
C1577 H1600 0.950 . S
C1578 C1577 1.349 . S
C1578 C1590 1.349 . S
C1579 C1577 1.327 . S
C1579 C1595 1.429 . S
C1579 H1601 0.950 . S
C1580 H1576 0.949 . S
C1580 C1588 1.574 . S
C1580 C1596 1.368 . S
H1581 C1589 0.950 . S
H1582 C1587 0.950 . S
H1583 C1588 0.949 . S
H1584 C1590 0.950 . S
H1585 C1591 0.950 . S
H1586 C1592 0.949 . S
C1587 H1582 0.950 . S
C1587 C1589 1.327 . S
C1587 C1593 1.429 . S
C1588 C1580 1.574 . S
C1588 H1583 0.949 . S
C1588 C1594 1.368 . S
C1589 C1573 1.349 . S
C1589 H1581 0.950 . S
C1589 C1587 1.327 . S
C1590 C1578 1.349 . S
C1590 H1584 0.950 . S
C1590 C1591 1.327 . S
C1591 H1585 0.950 . S
C1591 C1590 1.327 . S
C1591 C1595 1.429 . S
C1592 C1575 1.574 . S
C1592 H1586 0.949 . S
C1592 C1596 1.368 . S
C1593 C1574 1.429 . S
C1593 C1587 1.429 . S
C1593 C1594 1.523 . S
C1594 C1575 1.368 . S
C1594 C1588 1.368 . S
C1594 C1593 1.523 . S
C1595 C1579 1.429 . S
C1595 C1591 1.429 . S
C1595 C1596 1.523 . S
C1596 C1580 1.368 . S
C1596 C1592 1.368 . S
C1596 C1595 1.523 . S
H1597 C1572 0.950 . S
H1598 C1574 0.950 . S
H1599 C1575 0.949 . S
H1600 C1577 0.950 . S
H1601 C1579 0.950 . S
C1602 C1603 1.349 . S
C1602 C1604 1.327 . S
C1602 H1627 0.950 . S
C1603 C1602 1.349 . S
C1603 C1619 1.349 . S
C1604 C1602 1.327 . S
C1604 C1623 1.429 . S
C1604 H1628 0.950 . S
C1605 C1622 1.574 . S
C1605 C1624 1.368 . S
C1605 H1629 0.949 . S
H1606 C1610 0.949 . S
C1607 C1608 1.349 . S
C1607 C1609 1.327 . S
C1607 H1630 0.950 . S
C1608 C1607 1.349 . S
C1608 C1620 1.349 . S
C1609 C1607 1.327 . S
C1609 C1625 1.429 . S
C1609 H1631 0.950 . S
C1610 H1606 0.949 . S
C1610 C1618 1.574 . S
C1610 C1626 1.368 . S
H1611 C1619 0.950 . S
H1612 C1617 0.950 . S
H1613 C1618 0.949 . S
H1614 C1620 0.950 . S
H1615 C1621 0.950 . S
H1616 C1622 0.949 . S
C1617 H1612 0.950 . S
C1617 C1619 1.327 . S
C1617 C1623 1.429 . S
C1618 C1610 1.574 . S
C1618 H1613 0.949 . S
C1618 C1624 1.368 . S
C1619 C1603 1.349 . S
C1619 H1611 0.950 . S
C1619 C1617 1.327 . S
C1620 C1608 1.349 . S
C1620 H1614 0.950 . S
C1620 C1621 1.327 . S
C1621 H1615 0.950 . S
C1621 C1620 1.327 . S
C1621 C1625 1.429 . S
C1622 C1605 1.574 . S
C1622 H1616 0.949 . S
C1622 C1626 1.368 . S
C1623 C1604 1.429 . S
C1623 C1617 1.429 . S
C1623 C1624 1.523 . S
C1624 C1605 1.368 . S
C1624 C1618 1.368 . S
C1624 C1623 1.523 . S
C1625 C1609 1.429 . S
C1625 C1621 1.429 . S
C1625 C1626 1.523 . S
C1626 C1610 1.368 . S
C1626 C1622 1.368 . S
C1626 C1625 1.523 . S
H1627 C1602 0.950 . S
H1628 C1604 0.950 . S
H1629 C1605 0.949 . S
H1630 C1607 0.950 . S
H1631 C1609 0.950 . S
C1632 C1633 1.349 . S
C1632 C1634 1.327 . S
C1632 H1657 0.950 . S
C1633 C1632 1.349 . S
C1633 C1649 1.349 . S
C1634 C1632 1.327 . S
C1634 C1653 1.429 . S
C1634 H1658 0.950 . S
C1635 C1652 1.574 . S
C1635 C1654 1.368 . S
C1635 H1659 0.949 . S
H1636 C1640 0.949 . S
C1637 C1638 1.349 . S
C1637 C1639 1.327 . S
C1637 H1660 0.950 . S
C1638 C1637 1.349 . S
C1638 C1650 1.349 . S
C1639 C1637 1.327 . S
C1639 C1655 1.429 . S
C1639 H1661 0.950 . S
C1640 H1636 0.949 . S
C1640 C1648 1.574 . S
C1640 C1656 1.368 . S
H1641 C1649 0.950 . S
H1642 C1647 0.950 . S
H1643 C1648 0.949 . S
H1644 C1650 0.950 . S
H1645 C1651 0.950 . S
H1646 C1652 0.949 . S
C1647 H1642 0.950 . S
C1647 C1649 1.327 . S
C1647 C1653 1.429 . S
C1648 C1640 1.574 . S
C1648 H1643 0.949 . S
C1648 C1654 1.368 . S
C1649 C1633 1.349 . S
C1649 H1641 0.950 . S
C1649 C1647 1.327 . S
C1650 C1638 1.349 . S
C1650 H1644 0.950 . S
C1650 C1651 1.327 . S
C1651 H1645 0.950 . S
C1651 C1650 1.327 . S
C1651 C1655 1.429 . S
C1652 C1635 1.574 . S
C1652 H1646 0.949 . S
C1652 C1656 1.368 . S
C1653 C1634 1.429 . S
C1653 C1647 1.429 . S
C1653 C1654 1.523 . S
C1654 C1635 1.368 . S
C1654 C1648 1.368 . S
C1654 C1653 1.523 . S
C1655 C1639 1.429 . S
C1655 C1651 1.429 . S
C1655 C1656 1.523 . S
C1656 C1640 1.368 . S
C1656 C1652 1.368 . S
C1656 C1655 1.523 . S
H1657 C1632 0.950 . S
H1658 C1634 0.950 . S
H1659 C1635 0.949 . S
H1660 C1637 0.950 . S
H1661 C1639 0.950 . S
C1662 C1663 1.349 . S
C1662 C1664 1.327 . S
C1662 H1687 0.950 . S
C1663 C1662 1.349 . S
C1663 C1679 1.349 . S
C1664 C1662 1.327 . S
C1664 C1683 1.429 . S
C1664 H1688 0.950 . S
C1665 C1682 1.574 . S
C1665 C1684 1.368 . S
C1665 H1689 0.949 . S
H1666 C1670 0.949 . S
C1667 C1668 1.349 . S
C1667 C1669 1.327 . S
C1667 H1690 0.950 . S
C1668 C1667 1.349 . S
C1668 C1680 1.349 . S
C1669 C1667 1.327 . S
C1669 C1685 1.429 . S
C1669 H1691 0.950 . S
C1670 H1666 0.949 . S
C1670 C1678 1.574 . S
C1670 C1686 1.368 . S
H1671 C1679 0.950 . S
H1672 C1677 0.950 . S
H1673 C1678 0.949 . S
H1674 C1680 0.950 . S
H1675 C1681 0.950 . S
H1676 C1682 0.949 . S
C1677 H1672 0.950 . S
C1677 C1679 1.327 . S
C1677 C1683 1.429 . S
C1678 C1670 1.574 . S
C1678 H1673 0.949 . S
C1678 C1684 1.368 . S
C1679 C1663 1.349 . S
C1679 H1671 0.950 . S
C1679 C1677 1.327 . S
C1680 C1668 1.349 . S
C1680 H1674 0.950 . S
C1680 C1681 1.327 . S
C1681 H1675 0.950 . S
C1681 C1680 1.327 . S
C1681 C1685 1.429 . S
C1682 C1665 1.574 . S
C1682 H1676 0.949 . S
C1682 C1686 1.368 . S
C1683 C1664 1.429 . S
C1683 C1677 1.429 . S
C1683 C1684 1.523 . S
C1684 C1665 1.368 . S
C1684 C1678 1.368 . S
C1684 C1683 1.523 . S
C1685 C1669 1.429 . S
C1685 C1681 1.429 . S
C1685 C1686 1.523 . S
C1686 C1670 1.368 . S
C1686 C1682 1.368 . S
C1686 C1685 1.523 . S
H1687 C1662 0.950 . S
H1688 C1664 0.950 . S
H1689 C1665 0.949 . S
H1690 C1667 0.950 . S
H1691 C1669 0.950 . S
C1692 C1693 1.349 . S
C1692 C1694 1.327 . S
C1692 H1717 0.950 . S
C1693 C1692 1.349 . S
C1693 C1709 1.349 . S
C1694 C1692 1.327 . S
C1694 C1713 1.429 . S
C1694 H1718 0.950 . S
C1695 C1712 1.574 . S
C1695 C1714 1.368 . S
C1695 H1719 0.949 . S
H1696 C1700 0.949 . S
C1697 C1698 1.349 . S
C1697 C1699 1.327 . S
C1697 H1720 0.950 . S
C1698 C1697 1.349 . S
C1698 C1710 1.349 . S
C1699 C1697 1.327 . S
C1699 C1715 1.429 . S
C1699 H1721 0.950 . S
C1700 H1696 0.949 . S
C1700 C1708 1.574 . S
C1700 C1716 1.368 . S
H1701 C1709 0.950 . S
H1702 C1707 0.950 . S
H1703 C1708 0.949 . S
H1704 C1710 0.950 . S
H1705 C1711 0.950 . S
H1706 C1712 0.949 . S
C1707 H1702 0.950 . S
C1707 C1709 1.327 . S
C1707 C1713 1.429 . S
C1708 C1700 1.574 . S
C1708 H1703 0.949 . S
C1708 C1714 1.368 . S
C1709 C1693 1.349 . S
C1709 H1701 0.950 . S
C1709 C1707 1.327 . S
C1710 C1698 1.349 . S
C1710 H1704 0.950 . S
C1710 C1711 1.327 . S
C1711 H1705 0.950 . S
C1711 C1710 1.327 . S
C1711 C1715 1.429 . S
C1712 C1695 1.574 . S
C1712 H1706 0.949 . S
C1712 C1716 1.368 . S
C1713 C1694 1.429 . S
C1713 C1707 1.429 . S
C1713 C1714 1.523 . S
C1714 C1695 1.368 . S
C1714 C1708 1.368 . S
C1714 C1713 1.523 . S
C1715 C1699 1.429 . S
C1715 C1711 1.429 . S
C1715 C1716 1.523 . S
C1716 C1700 1.368 . S
C1716 C1712 1.368 . S
C1716 C1715 1.523 . S
H1717 C1692 0.950 . S
H1718 C1694 0.950 . S
H1719 C1695 0.949 . S
H1720 C1697 0.950 . S
H1721 C1699 0.950 . S
C1722 C1723 1.349 . S
C1722 C1724 1.327 . S
C1722 H1747 0.950 . S
C1723 C1722 1.349 . S
C1723 C1739 1.349 . S
C1724 C1722 1.327 . S
C1724 C1743 1.429 . S
C1724 H1748 0.950 . S
C1725 C1742 1.574 . S
C1725 C1744 1.368 . S
C1725 H1749 0.949 . S
H1726 C1730 0.949 . S
C1727 C1728 1.349 . S
C1727 C1729 1.327 . S
C1727 H1750 0.950 . S
C1728 C1727 1.349 . S
C1728 C1740 1.349 . S
C1729 C1727 1.327 . S
C1729 C1745 1.429 . S
C1729 H1751 0.950 . S
C1730 H1726 0.949 . S
C1730 C1738 1.574 . S
C1730 C1746 1.368 . S
H1731 C1739 0.950 . S
H1732 C1737 0.950 . S
H1733 C1738 0.949 . S
H1734 C1740 0.950 . S
H1735 C1741 0.950 . S
H1736 C1742 0.949 . S
C1737 H1732 0.950 . S
C1737 C1739 1.327 . S
C1737 C1743 1.429 . S
C1738 C1730 1.574 . S
C1738 H1733 0.949 . S
C1738 C1744 1.368 . S
C1739 C1723 1.349 . S
C1739 H1731 0.950 . S
C1739 C1737 1.327 . S
C1740 C1728 1.349 . S
C1740 H1734 0.950 . S
C1740 C1741 1.327 . S
C1741 H1735 0.950 . S
C1741 C1740 1.327 . S
C1741 C1745 1.429 . S
C1742 C1725 1.574 . S
C1742 H1736 0.949 . S
C1742 C1746 1.368 . S
C1743 C1724 1.429 . S
C1743 C1737 1.429 . S
C1743 C1744 1.523 . S
C1744 C1725 1.368 . S
C1744 C1738 1.368 . S
C1744 C1743 1.523 . S
C1745 C1729 1.429 . S
C1745 C1741 1.429 . S
C1745 C1746 1.523 . S
C1746 C1730 1.368 . S
C1746 C1742 1.368 . S
C1746 C1745 1.523 . S
H1747 C1722 0.950 . S
H1748 C1724 0.950 . S
H1749 C1725 0.949 . S
H1750 C1727 0.950 . S
H1751 C1729 0.950 . S
C1752 C1753 1.349 . S
C1752 C1754 1.327 . S
C1752 H1777 0.950 . S
C1753 C1752 1.349 . S
C1753 C1769 1.349 . S
C1754 C1752 1.327 . S
C1754 C1773 1.429 . S
C1754 H1778 0.950 . S
C1755 C1772 1.574 . S
C1755 C1774 1.368 . S
C1755 H1779 0.949 . S
H1756 C1760 0.949 . S
C1757 C1758 1.349 . S
C1757 C1759 1.327 . S
C1757 H1780 0.950 . S
C1758 C1757 1.349 . S
C1758 C1770 1.349 . S
C1759 C1757 1.327 . S
C1759 C1775 1.429 . S
C1759 H1781 0.950 . S
C1760 H1756 0.949 . S
C1760 C1768 1.574 . S
C1760 C1776 1.368 . S
H1761 C1769 0.950 . S
H1762 C1767 0.950 . S
H1763 C1768 0.949 . S
H1764 C1770 0.950 . S
H1765 C1771 0.950 . S
H1766 C1772 0.949 . S
C1767 H1762 0.950 . S
C1767 C1769 1.327 . S
C1767 C1773 1.429 . S
C1768 C1760 1.574 . S
C1768 H1763 0.949 . S
C1768 C1774 1.368 . S
C1769 C1753 1.349 . S
C1769 H1761 0.950 . S
C1769 C1767 1.327 . S
C1770 C1758 1.349 . S
C1770 H1764 0.950 . S
C1770 C1771 1.327 . S
C1771 H1765 0.950 . S
C1771 C1770 1.327 . S
C1771 C1775 1.429 . S
C1772 C1755 1.574 . S
C1772 H1766 0.949 . S
C1772 C1776 1.368 . S
C1773 C1754 1.429 . S
C1773 C1767 1.429 . S
C1773 C1774 1.523 . S
C1774 C1755 1.368 . S
C1774 C1768 1.368 . S
C1774 C1773 1.523 . S
C1775 C1759 1.429 . S
C1775 C1771 1.429 . S
C1775 C1776 1.523 . S
C1776 C1760 1.368 . S
C1776 C1772 1.368 . S
C1776 C1775 1.523 . S
H1777 C1752 0.950 . S
H1778 C1754 0.950 . S
H1779 C1755 0.949 . S
H1780 C1757 0.950 . S
H1781 C1759 0.950 . S
C1782 C1783 1.349 . S
C1782 C1784 1.327 . S
C1782 H1807 0.950 . S
C1783 C1782 1.349 . S
C1783 C1799 1.349 . S
C1784 C1782 1.327 . S
C1784 C1803 1.429 . S
C1784 H1808 0.950 . S
C1785 C1802 1.574 . S
C1785 C1804 1.368 . S
C1785 H1809 0.949 . S
H1786 C1790 0.949 . S
C1787 C1788 1.349 . S
C1787 C1789 1.327 . S
C1787 H1810 0.950 . S
C1788 C1787 1.349 . S
C1788 C1800 1.349 . S
C1789 C1787 1.327 . S
C1789 C1805 1.429 . S
C1789 H1811 0.950 . S
C1790 H1786 0.949 . S
C1790 C1798 1.574 . S
C1790 C1806 1.368 . S
H1791 C1799 0.950 . S
H1792 C1797 0.950 . S
H1793 C1798 0.949 . S
H1794 C1800 0.950 . S
H1795 C1801 0.950 . S
H1796 C1802 0.949 . S
C1797 H1792 0.950 . S
C1797 C1799 1.327 . S
C1797 C1803 1.429 . S
C1798 C1790 1.574 . S
C1798 H1793 0.949 . S
C1798 C1804 1.368 . S
C1799 C1783 1.349 . S
C1799 H1791 0.950 . S
C1799 C1797 1.327 . S
C1800 C1788 1.349 . S
C1800 H1794 0.950 . S
C1800 C1801 1.327 . S
C1801 H1795 0.950 . S
C1801 C1800 1.327 . S
C1801 C1805 1.429 . S
C1802 C1785 1.574 . S
C1802 H1796 0.949 . S
C1802 C1806 1.368 . S
C1803 C1784 1.429 . S
C1803 C1797 1.429 . S
C1803 C1804 1.523 . S
C1804 C1785 1.368 . S
C1804 C1798 1.368 . S
C1804 C1803 1.523 . S
C1805 C1789 1.429 . S
C1805 C1801 1.429 . S
C1805 C1806 1.523 . S
C1806 C1790 1.368 . S
C1806 C1802 1.368 . S
C1806 C1805 1.523 . S
H1807 C1782 0.950 . S
H1808 C1784 0.950 . S
H1809 C1785 0.949 . S
H1810 C1787 0.950 . S
H1811 C1789 0.950 . S
C1812 C1813 1.349 . S
C1812 C1814 1.327 . S
C1812 H1837 0.950 . S
C1813 C1812 1.349 . S
C1813 C1829 1.349 . S
C1814 C1812 1.327 . S
C1814 C1833 1.429 . S
C1814 H1838 0.950 . S
C1815 C1832 1.574 . S
C1815 C1834 1.368 . S
C1815 H1839 0.949 . S
H1816 C1820 0.949 . S
C1817 C1818 1.349 . S
C1817 C1819 1.327 . S
C1817 H1840 0.950 . S
C1818 C1817 1.349 . S
C1818 C1830 1.349 . S
C1819 C1817 1.327 . S
C1819 C1835 1.429 . S
C1819 H1841 0.950 . S
C1820 H1816 0.949 . S
C1820 C1828 1.574 . S
C1820 C1836 1.368 . S
H1821 C1829 0.950 . S
H1822 C1827 0.950 . S
H1823 C1828 0.949 . S
H1824 C1830 0.950 . S
H1825 C1831 0.950 . S
H1826 C1832 0.949 . S
C1827 H1822 0.950 . S
C1827 C1829 1.327 . S
C1827 C1833 1.429 . S
C1828 C1820 1.574 . S
C1828 H1823 0.949 . S
C1828 C1834 1.368 . S
C1829 C1813 1.349 . S
C1829 H1821 0.950 . S
C1829 C1827 1.327 . S
C1830 C1818 1.349 . S
C1830 H1824 0.950 . S
C1830 C1831 1.327 . S
C1831 H1825 0.950 . S
C1831 C1830 1.327 . S
C1831 C1835 1.429 . S
C1832 C1815 1.574 . S
C1832 H1826 0.949 . S
C1832 C1836 1.368 . S
C1833 C1814 1.429 . S
C1833 C1827 1.429 . S
C1833 C1834 1.523 . S
C1834 C1815 1.368 . S
C1834 C1828 1.368 . S
C1834 C1833 1.523 . S
C1835 C1819 1.429 . S
C1835 C1831 1.429 . S
C1835 C1836 1.523 . S
C1836 C1820 1.368 . S
C1836 C1832 1.368 . S
C1836 C1835 1.523 . S
H1837 C1812 0.950 . S
H1838 C1814 0.950 . S
H1839 C1815 0.949 . S
H1840 C1817 0.950 . S
H1841 C1819 0.950 . S
C1842 C1843 1.349 . S
C1842 C1844 1.327 . S
C1842 H1867 0.950 . S
C1843 C1842 1.349 . S
C1843 C1859 1.349 . S
C1844 C1842 1.327 . S
C1844 C1863 1.429 . S
C1844 H1868 0.950 . S
C1845 C1862 1.574 . S
C1845 C1864 1.368 . S
C1845 H1869 0.949 . S
H1846 C1850 0.949 . S
C1847 C1848 1.349 . S
C1847 C1849 1.327 . S
C1847 H1870 0.950 . S
C1848 C1847 1.349 . S
C1848 C1860 1.349 . S
C1849 C1847 1.327 . S
C1849 C1865 1.429 . S
C1849 H1871 0.950 . S
C1850 H1846 0.949 . S
C1850 C1858 1.574 . S
C1850 C1866 1.368 . S
H1851 C1859 0.950 . S
H1852 C1857 0.950 . S
H1853 C1858 0.949 . S
H1854 C1860 0.950 . S
H1855 C1861 0.950 . S
H1856 C1862 0.949 . S
C1857 H1852 0.950 . S
C1857 C1859 1.327 . S
C1857 C1863 1.429 . S
C1858 C1850 1.574 . S
C1858 H1853 0.949 . S
C1858 C1864 1.368 . S
C1859 C1843 1.349 . S
C1859 H1851 0.950 . S
C1859 C1857 1.327 . S
C1860 C1848 1.349 . S
C1860 H1854 0.950 . S
C1860 C1861 1.327 . S
C1861 H1855 0.950 . S
C1861 C1860 1.327 . S
C1861 C1865 1.429 . S
C1862 C1845 1.574 . S
C1862 H1856 0.949 . S
C1862 C1866 1.368 . S
C1863 C1844 1.429 . S
C1863 C1857 1.429 . S
C1863 C1864 1.523 . S
C1864 C1845 1.368 . S
C1864 C1858 1.368 . S
C1864 C1863 1.523 . S
C1865 C1849 1.429 . S
C1865 C1861 1.429 . S
C1865 C1866 1.523 . S
C1866 C1850 1.368 . S
C1866 C1862 1.368 . S
C1866 C1865 1.523 . S
H1867 C1842 0.950 . S
H1868 C1844 0.950 . S
H1869 C1845 0.949 . S
H1870 C1847 0.950 . S
H1871 C1849 0.950 . S
C1872 C1873 1.349 . S
C1872 C1874 1.327 . S
C1872 H1897 0.950 . S
C1873 C1872 1.349 . S
C1873 C1889 1.349 . S
C1874 C1872 1.327 . S
C1874 C1893 1.429 . S
C1874 H1898 0.950 . S
C1875 C1892 1.574 . S
C1875 C1894 1.368 . S
C1875 H1899 0.949 . S
H1876 C1880 0.949 . S
C1877 C1878 1.349 . S
C1877 C1879 1.327 . S
C1877 H1900 0.950 . S
C1878 C1877 1.349 . S
C1878 C1890 1.349 . S
C1879 C1877 1.327 . S
C1879 C1895 1.429 . S
C1879 H1901 0.950 . S
C1880 H1876 0.949 . S
C1880 C1888 1.574 . S
C1880 C1896 1.368 . S
H1881 C1889 0.950 . S
H1882 C1887 0.950 . S
H1883 C1888 0.949 . S
H1884 C1890 0.950 . S
H1885 C1891 0.950 . S
H1886 C1892 0.949 . S
C1887 H1882 0.950 . S
C1887 C1889 1.327 . S
C1887 C1893 1.429 . S
C1888 C1880 1.574 . S
C1888 H1883 0.949 . S
C1888 C1894 1.368 . S
C1889 C1873 1.349 . S
C1889 H1881 0.950 . S
C1889 C1887 1.327 . S
C1890 C1878 1.349 . S
C1890 H1884 0.950 . S
C1890 C1891 1.327 . S
C1891 H1885 0.950 . S
C1891 C1890 1.327 . S
C1891 C1895 1.429 . S
C1892 C1875 1.574 . S
C1892 H1886 0.949 . S
C1892 C1896 1.368 . S
C1893 C1874 1.429 . S
C1893 C1887 1.429 . S
C1893 C1894 1.523 . S
C1894 C1875 1.368 . S
C1894 C1888 1.368 . S
C1894 C1893 1.523 . S
C1895 C1879 1.429 . S
C1895 C1891 1.429 . S
C1895 C1896 1.523 . S
C1896 C1880 1.368 . S
C1896 C1892 1.368 . S
C1896 C1895 1.523 . S
H1897 C1872 0.950 . S
H1898 C1874 0.950 . S
H1899 C1875 0.949 . S
H1900 C1877 0.950 . S
H1901 C1879 0.950 . S
C1902 C1903 1.349 . S
C1902 C1904 1.327 . S
C1902 H1927 0.950 . S
C1903 C1902 1.349 . S
C1903 C1919 1.349 . S
C1904 C1902 1.327 . S
C1904 C1923 1.429 . S
C1904 H1928 0.950 . S
C1905 C1922 1.574 . S
C1905 C1924 1.368 . S
C1905 H1929 0.949 . S
H1906 C1910 0.949 . S
C1907 C1908 1.349 . S
C1907 C1909 1.327 . S
C1907 H1930 0.950 . S
C1908 C1907 1.349 . S
C1908 C1920 1.349 . S
C1909 C1907 1.327 . S
C1909 C1925 1.429 . S
C1909 H1931 0.950 . S
C1910 H1906 0.949 . S
C1910 C1918 1.574 . S
C1910 C1926 1.368 . S
H1911 C1919 0.950 . S
H1912 C1917 0.950 . S
H1913 C1918 0.949 . S
H1914 C1920 0.950 . S
H1915 C1921 0.950 . S
H1916 C1922 0.949 . S
C1917 H1912 0.950 . S
C1917 C1919 1.327 . S
C1917 C1923 1.429 . S
C1918 C1910 1.574 . S
C1918 H1913 0.949 . S
C1918 C1924 1.368 . S
C1919 C1903 1.349 . S
C1919 H1911 0.950 . S
C1919 C1917 1.327 . S
C1920 C1908 1.349 . S
C1920 H1914 0.950 . S
C1920 C1921 1.327 . S
C1921 H1915 0.950 . S
C1921 C1920 1.327 . S
C1921 C1925 1.429 . S
C1922 C1905 1.574 . S
C1922 H1916 0.949 . S
C1922 C1926 1.368 . S
C1923 C1904 1.429 . S
C1923 C1917 1.429 . S
C1923 C1924 1.523 . S
C1924 C1905 1.368 . S
C1924 C1918 1.368 . S
C1924 C1923 1.523 . S
C1925 C1909 1.429 . S
C1925 C1921 1.429 . S
C1925 C1926 1.523 . S
C1926 C1910 1.368 . S
C1926 C1922 1.368 . S
C1926 C1925 1.523 . S
H1927 C1902 0.950 . S
H1928 C1904 0.950 . S
H1929 C1905 0.949 . S
H1930 C1907 0.950 . S
H1931 C1909 0.950 . S
C1932 C1933 1.349 . S
C1932 C1934 1.327 . S
C1932 H1957 0.950 . S
C1933 C1932 1.349 . S
C1933 C1949 1.349 . S
C1934 C1932 1.327 . S
C1934 C1953 1.429 . S
C1934 H1958 0.950 . S
C1935 C1952 1.574 . S
C1935 C1954 1.368 . S
C1935 H1959 0.949 . S
H1936 C1940 0.949 . S
C1937 C1938 1.349 . S
C1937 C1939 1.327 . S
C1937 H1960 0.950 . S
C1938 C1937 1.349 . S
C1938 C1950 1.349 . S
C1939 C1937 1.327 . S
C1939 C1955 1.429 . S
C1939 H1961 0.950 . S
C1940 H1936 0.949 . S
C1940 C1948 1.574 . S
C1940 C1956 1.368 . S
H1941 C1949 0.950 . S
H1942 C1947 0.950 . S
H1943 C1948 0.949 . S
H1944 C1950 0.950 . S
H1945 C1951 0.950 . S
H1946 C1952 0.949 . S
C1947 H1942 0.950 . S
C1947 C1949 1.327 . S
C1947 C1953 1.429 . S
C1948 C1940 1.574 . S
C1948 H1943 0.949 . S
C1948 C1954 1.368 . S
C1949 C1933 1.349 . S
C1949 H1941 0.950 . S
C1949 C1947 1.327 . S
C1950 C1938 1.349 . S
C1950 H1944 0.950 . S
C1950 C1951 1.327 . S
C1951 H1945 0.950 . S
C1951 C1950 1.327 . S
C1951 C1955 1.429 . S
C1952 C1935 1.574 . S
C1952 H1946 0.949 . S
C1952 C1956 1.368 . S
C1953 C1934 1.429 . S
C1953 C1947 1.429 . S
C1953 C1954 1.523 . S
C1954 C1935 1.368 . S
C1954 C1948 1.368 . S
C1954 C1953 1.523 . S
C1955 C1939 1.429 . S
C1955 C1951 1.429 . S
C1955 C1956 1.523 . S
C1956 C1940 1.368 . S
C1956 C1952 1.368 . S
C1956 C1955 1.523 . S
H1957 C1932 0.950 . S
H1958 C1934 0.950 . S
H1959 C1935 0.949 . S
H1960 C1937 0.950 . S
H1961 C1939 0.950 . S
C1962 C1963 1.349 . S
C1962 C1964 1.327 . S
C1962 H1987 0.950 . S
C1963 C1962 1.349 . S
C1963 C1979 1.349 . S
C1964 C1962 1.327 . S
C1964 C1983 1.429 . S
C1964 H1988 0.950 . S
C1965 C1982 1.574 . S
C1965 C1984 1.368 . S
C1965 H1989 0.949 . S
H1966 C1970 0.949 . S
C1967 C1968 1.349 . S
C1967 C1969 1.327 . S
C1967 H1990 0.950 . S
C1968 C1967 1.349 . S
C1968 C1980 1.349 . S
C1969 C1967 1.327 . S
C1969 C1985 1.429 . S
C1969 H1991 0.950 . S
C1970 H1966 0.949 . S
C1970 C1978 1.574 . S
C1970 C1986 1.368 . S
H1971 C1979 0.950 . S
H1972 C1977 0.950 . S
H1973 C1978 0.949 . S
H1974 C1980 0.950 . S
H1975 C1981 0.950 . S
H1976 C1982 0.949 . S
C1977 H1972 0.950 . S
C1977 C1979 1.327 . S
C1977 C1983 1.429 . S
C1978 C1970 1.574 . S
C1978 H1973 0.949 . S
C1978 C1984 1.368 . S
C1979 C1963 1.349 . S
C1979 H1971 0.950 . S
C1979 C1977 1.327 . S
C1980 C1968 1.349 . S
C1980 H1974 0.950 . S
C1980 C1981 1.327 . S
C1981 H1975 0.950 . S
C1981 C1980 1.327 . S
C1981 C1985 1.429 . S
C1982 C1965 1.574 . S
C1982 H1976 0.949 . S
C1982 C1986 1.368 . S
C1983 C1964 1.429 . S
C1983 C1977 1.429 . S
C1983 C1984 1.523 . S
C1984 C1965 1.368 . S
C1984 C1978 1.368 . S
C1984 C1983 1.523 . S
C1985 C1969 1.429 . S
C1985 C1981 1.429 . S
C1985 C1986 1.523 . S
C1986 C1970 1.368 . S
C1986 C1982 1.368 . S
C1986 C1985 1.523 . S
H1987 C1962 0.950 . S
H1988 C1964 0.950 . S
H1989 C1965 0.949 . S
H1990 C1967 0.950 . S
H1991 C1969 0.950 . S
C1992 C1993 1.349 . S
C1992 C1994 1.327 . S
C1992 H2017 0.950 . S
C1993 C1992 1.349 . S
C1993 C2009 1.349 . S
C1994 C1992 1.327 . S
C1994 C2013 1.429 . S
C1994 H2018 0.950 . S
C1995 C2012 1.574 . S
C1995 C2014 1.368 . S
C1995 H2019 0.949 . S
H1996 C2000 0.949 . S
C1997 C1998 1.349 . S
C1997 C1999 1.327 . S
C1997 H2020 0.950 . S
C1998 C1997 1.349 . S
C1998 C2010 1.349 . S
C1999 C1997 1.327 . S
C1999 C2015 1.429 . S
C1999 H2021 0.950 . S
C2000 H1996 0.949 . S
C2000 C2008 1.574 . S
C2000 C2016 1.368 . S
H2001 C2009 0.950 . S
H2002 C2007 0.950 . S
H2003 C2008 0.949 . S
H2004 C2010 0.950 . S
H2005 C2011 0.950 . S
H2006 C2012 0.949 . S
C2007 H2002 0.950 . S
C2007 C2009 1.327 . S
C2007 C2013 1.429 . S
C2008 C2000 1.574 . S
C2008 H2003 0.949 . S
C2008 C2014 1.368 . S
C2009 C1993 1.349 . S
C2009 H2001 0.950 . S
C2009 C2007 1.327 . S
C2010 C1998 1.349 . S
C2010 H2004 0.950 . S
C2010 C2011 1.327 . S
C2011 H2005 0.950 . S
C2011 C2010 1.327 . S
C2011 C2015 1.429 . S
C2012 C1995 1.574 . S
C2012 H2006 0.949 . S
C2012 C2016 1.368 . S
C2013 C1994 1.429 . S
C2013 C2007 1.429 . S
C2013 C2014 1.523 . S
C2014 C1995 1.368 . S
C2014 C2008 1.368 . S
C2014 C2013 1.523 . S
C2015 C1999 1.429 . S
C2015 C2011 1.429 . S
C2015 C2016 1.523 . S
C2016 C2000 1.368 . S
C2016 C2012 1.368 . S
C2016 C2015 1.523 . S
H2017 C1992 0.950 . S
H2018 C1994 0.950 . S
H2019 C1995 0.949 . S
H2020 C1997 0.950 . S
H2021 C1999 0.950 . S
C2022 C2023 1.349 . S
C2022 C2024 1.327 . S
C2022 H2047 0.950 . S
C2023 C2022 1.349 . S
C2023 C2039 1.349 . S
C2024 C2022 1.327 . S
C2024 C2043 1.429 . S
C2024 H2048 0.950 . S
C2025 C2042 1.574 . S
C2025 C2044 1.368 . S
C2025 H2049 0.949 . S
H2026 C2030 0.949 . S
C2027 C2028 1.349 . S
C2027 C2029 1.327 . S
C2027 H2050 0.950 . S
C2028 C2027 1.349 . S
C2028 C2040 1.349 . S
C2029 C2027 1.327 . S
C2029 C2045 1.429 . S
C2029 H2051 0.950 . S
C2030 H2026 0.949 . S
C2030 C2038 1.574 . S
C2030 C2046 1.368 . S
H2031 C2039 0.950 . S
H2032 C2037 0.950 . S
H2033 C2038 0.949 . S
H2034 C2040 0.950 . S
H2035 C2041 0.950 . S
H2036 C2042 0.949 . S
C2037 H2032 0.950 . S
C2037 C2039 1.327 . S
C2037 C2043 1.429 . S
C2038 C2030 1.574 . S
C2038 H2033 0.949 . S
C2038 C2044 1.368 . S
C2039 C2023 1.349 . S
C2039 H2031 0.950 . S
C2039 C2037 1.327 . S
C2040 C2028 1.349 . S
C2040 H2034 0.950 . S
C2040 C2041 1.327 . S
C2041 H2035 0.950 . S
C2041 C2040 1.327 . S
C2041 C2045 1.429 . S
C2042 C2025 1.574 . S
C2042 H2036 0.949 . S
C2042 C2046 1.368 . S
C2043 C2024 1.429 . S
C2043 C2037 1.429 . S
C2043 C2044 1.523 . S
C2044 C2025 1.368 . S
C2044 C2038 1.368 . S
C2044 C2043 1.523 . S
C2045 C2029 1.429 . S
C2045 C2041 1.429 . S
C2045 C2046 1.523 . S
C2046 C2030 1.368 . S
C2046 C2042 1.368 . S
C2046 C2045 1.523 . S
H2047 C2022 0.950 . S
H2048 C2024 0.950 . S
H2049 C2025 0.949 . S
H2050 C2027 0.950 . S
H2051 C2029 0.950 . S
C2052 C2053 1.349 . S
C2052 C2054 1.327 . S
C2052 H2077 0.950 . S
C2053 C2052 1.349 . S
C2053 C2069 1.349 . S
C2054 C2052 1.327 . S
C2054 C2073 1.429 . S
C2054 H2078 0.950 . S
C2055 C2072 1.574 . S
C2055 C2074 1.368 . S
C2055 H2079 0.949 . S
H2056 C2060 0.949 . S
C2057 C2058 1.349 . S
C2057 C2059 1.327 . S
C2057 H2080 0.950 . S
C2058 C2057 1.349 . S
C2058 C2070 1.349 . S
C2059 C2057 1.327 . S
C2059 C2075 1.429 . S
C2059 H2081 0.950 . S
C2060 H2056 0.949 . S
C2060 C2068 1.574 . S
C2060 C2076 1.368 . S
H2061 C2069 0.950 . S
H2062 C2067 0.950 . S
H2063 C2068 0.949 . S
H2064 C2070 0.950 . S
H2065 C2071 0.950 . S
H2066 C2072 0.949 . S
C2067 H2062 0.950 . S
C2067 C2069 1.327 . S
C2067 C2073 1.429 . S
C2068 C2060 1.574 . S
C2068 H2063 0.949 . S
C2068 C2074 1.368 . S
C2069 C2053 1.349 . S
C2069 H2061 0.950 . S
C2069 C2067 1.327 . S
C2070 C2058 1.349 . S
C2070 H2064 0.950 . S
C2070 C2071 1.327 . S
C2071 H2065 0.950 . S
C2071 C2070 1.327 . S
C2071 C2075 1.429 . S
C2072 C2055 1.574 . S
C2072 H2066 0.949 . S
C2072 C2076 1.368 . S
C2073 C2054 1.429 . S
C2073 C2067 1.429 . S
C2073 C2074 1.523 . S
C2074 C2055 1.368 . S
C2074 C2068 1.368 . S
C2074 C2073 1.523 . S
C2075 C2059 1.429 . S
C2075 C2071 1.429 . S
C2075 C2076 1.523 . S
C2076 C2060 1.368 . S
C2076 C2072 1.368 . S
C2076 C2075 1.523 . S
H2077 C2052 0.950 . S
H2078 C2054 0.950 . S
H2079 C2055 0.949 . S
H2080 C2057 0.950 . S
H2081 C2059 0.950 . S
C2082 C2083 1.349 . S
C2082 C2084 1.327 . S
C2082 H2107 0.950 . S
C2083 C2082 1.349 . S
C2083 C2099 1.349 . S
C2084 C2082 1.327 . S
C2084 C2103 1.429 . S
C2084 H2108 0.950 . S
C2085 C2102 1.574 . S
C2085 C2104 1.368 . S
C2085 H2109 0.949 . S
H2086 C2090 0.949 . S
C2087 C2088 1.349 . S
C2087 C2089 1.327 . S
C2087 H2110 0.950 . S
C2088 C2087 1.349 . S
C2088 C2100 1.349 . S
C2089 C2087 1.327 . S
C2089 C2105 1.429 . S
C2089 H2111 0.950 . S
C2090 H2086 0.949 . S
C2090 C2098 1.574 . S
C2090 C2106 1.368 . S
H2091 C2099 0.950 . S
H2092 C2097 0.950 . S
H2093 C2098 0.949 . S
H2094 C2100 0.950 . S
H2095 C2101 0.950 . S
H2096 C2102 0.949 . S
C2097 H2092 0.950 . S
C2097 C2099 1.327 . S
C2097 C2103 1.429 . S
C2098 C2090 1.574 . S
C2098 H2093 0.949 . S
C2098 C2104 1.368 . S
C2099 C2083 1.349 . S
C2099 H2091 0.950 . S
C2099 C2097 1.327 . S
C2100 C2088 1.349 . S
C2100 H2094 0.950 . S
C2100 C2101 1.327 . S
C2101 H2095 0.950 . S
C2101 C2100 1.327 . S
C2101 C2105 1.429 . S
C2102 C2085 1.574 . S
C2102 H2096 0.949 . S
C2102 C2106 1.368 . S
C2103 C2084 1.429 . S
C2103 C2097 1.429 . S
C2103 C2104 1.523 . S
C2104 C2085 1.368 . S
C2104 C2098 1.368 . S
C2104 C2103 1.523 . S
C2105 C2089 1.429 . S
C2105 C2101 1.429 . S
C2105 C2106 1.523 . S
C2106 C2090 1.368 . S
C2106 C2102 1.368 . S
C2106 C2105 1.523 . S
H2107 C2082 0.950 . S
H2108 C2084 0.950 . S
H2109 C2085 0.949 . S
H2110 C2087 0.950 . S
H2111 C2089 0.950 . S
C2112 C2113 1.349 . S
C2112 C2114 1.327 . S
C2112 H2137 0.950 . S
C2113 C2112 1.349 . S
C2113 C2129 1.349 . S
C2114 C2112 1.327 . S
C2114 C2133 1.429 . S
C2114 H2138 0.950 . S
C2115 C2132 1.574 . S
C2115 C2134 1.368 . S
C2115 H2139 0.949 . S
H2116 C2120 0.949 . S
C2117 C2118 1.349 . S
C2117 C2119 1.327 . S
C2117 H2140 0.950 . S
C2118 C2117 1.349 . S
C2118 C2130 1.349 . S
C2119 C2117 1.327 . S
C2119 C2135 1.429 . S
C2119 H2141 0.950 . S
C2120 H2116 0.949 . S
C2120 C2128 1.574 . S
C2120 C2136 1.368 . S
H2121 C2129 0.950 . S
H2122 C2127 0.950 . S
H2123 C2128 0.949 . S
H2124 C2130 0.950 . S
H2125 C2131 0.950 . S
H2126 C2132 0.949 . S
C2127 H2122 0.950 . S
C2127 C2129 1.327 . S
C2127 C2133 1.429 . S
C2128 C2120 1.574 . S
C2128 H2123 0.949 . S
C2128 C2134 1.368 . S
C2129 C2113 1.349 . S
C2129 H2121 0.950 . S
C2129 C2127 1.327 . S
C2130 C2118 1.349 . S
C2130 H2124 0.950 . S
C2130 C2131 1.327 . S
C2131 H2125 0.950 . S
C2131 C2130 1.327 . S
C2131 C2135 1.429 . S
C2132 C2115 1.574 . S
C2132 H2126 0.949 . S
C2132 C2136 1.368 . S
C2133 C2114 1.429 . S
C2133 C2127 1.429 . S
C2133 C2134 1.523 . S
C2134 C2115 1.368 . S
C2134 C2128 1.368 . S
C2134 C2133 1.523 . S
C2135 C2119 1.429 . S
C2135 C2131 1.429 . S
C2135 C2136 1.523 . S
C2136 C2120 1.368 . S
C2136 C2132 1.368 . S
C2136 C2135 1.523 . S
H2137 C2112 0.950 . S
H2138 C2114 0.950 . S
H2139 C2115 0.949 . S
H2140 C2117 0.950 . S
H2141 C2119 0.950 . S
C2142 C2143 1.349 . S
C2142 C2144 1.327 . S
C2142 H2167 0.950 . S
C2143 C2142 1.349 . S
C2143 C2159 1.349 . S
C2144 C2142 1.327 . S
C2144 C2163 1.429 . S
C2144 H2168 0.950 . S
C2145 C2162 1.574 . S
C2145 C2164 1.368 . S
C2145 H2169 0.949 . S
H2146 C2150 0.949 . S
C2147 C2148 1.349 . S
C2147 C2149 1.327 . S
C2147 H2170 0.950 . S
C2148 C2147 1.349 . S
C2148 C2160 1.349 . S
C2149 C2147 1.327 . S
C2149 C2165 1.429 . S
C2149 H2171 0.950 . S
C2150 H2146 0.949 . S
C2150 C2158 1.574 . S
C2150 C2166 1.368 . S
H2151 C2159 0.950 . S
H2152 C2157 0.950 . S
H2153 C2158 0.949 . S
H2154 C2160 0.950 . S
H2155 C2161 0.950 . S
H2156 C2162 0.949 . S
C2157 H2152 0.950 . S
C2157 C2159 1.327 . S
C2157 C2163 1.429 . S
C2158 C2150 1.574 . S
C2158 H2153 0.949 . S
C2158 C2164 1.368 . S
C2159 C2143 1.349 . S
C2159 H2151 0.950 . S
C2159 C2157 1.327 . S
C2160 C2148 1.349 . S
C2160 H2154 0.950 . S
C2160 C2161 1.327 . S
C2161 H2155 0.950 . S
C2161 C2160 1.327 . S
C2161 C2165 1.429 . S
C2162 C2145 1.574 . S
C2162 H2156 0.949 . S
C2162 C2166 1.368 . S
C2163 C2144 1.429 . S
C2163 C2157 1.429 . S
C2163 C2164 1.523 . S
C2164 C2145 1.368 . S
C2164 C2158 1.368 . S
C2164 C2163 1.523 . S
C2165 C2149 1.429 . S
C2165 C2161 1.429 . S
C2165 C2166 1.523 . S
C2166 C2150 1.368 . S
C2166 C2162 1.368 . S
C2166 C2165 1.523 . S
H2167 C2142 0.950 . S
H2168 C2144 0.950 . S
H2169 C2145 0.949 . S
H2170 C2147 0.950 . S
H2171 C2149 0.950 . S
C2172 C2173 1.349 . S
C2172 C2174 1.327 . S
C2172 H2197 0.950 . S
C2173 C2172 1.349 . S
C2173 C2189 1.349 . S
C2174 C2172 1.327 . S
C2174 C2193 1.429 . S
C2174 H2198 0.950 . S
C2175 C2192 1.574 . S
C2175 C2194 1.368 . S
C2175 H2199 0.949 . S
H2176 C2180 0.949 . S
C2177 C2178 1.349 . S
C2177 C2179 1.327 . S
C2177 H2200 0.950 . S
C2178 C2177 1.349 . S
C2178 C2190 1.349 . S
C2179 C2177 1.327 . S
C2179 C2195 1.429 . S
C2179 H2201 0.950 . S
C2180 H2176 0.949 . S
C2180 C2188 1.574 . S
C2180 C2196 1.368 . S
H2181 C2189 0.950 . S
H2182 C2187 0.950 . S
H2183 C2188 0.949 . S
H2184 C2190 0.950 . S
H2185 C2191 0.950 . S
H2186 C2192 0.949 . S
C2187 H2182 0.950 . S
C2187 C2189 1.327 . S
C2187 C2193 1.429 . S
C2188 C2180 1.574 . S
C2188 H2183 0.949 . S
C2188 C2194 1.368 . S
C2189 C2173 1.349 . S
C2189 H2181 0.950 . S
C2189 C2187 1.327 . S
C2190 C2178 1.349 . S
C2190 H2184 0.950 . S
C2190 C2191 1.327 . S
C2191 H2185 0.950 . S
C2191 C2190 1.327 . S
C2191 C2195 1.429 . S
C2192 C2175 1.574 . S
C2192 H2186 0.949 . S
C2192 C2196 1.368 . S
C2193 C2174 1.429 . S
C2193 C2187 1.429 . S
C2193 C2194 1.523 . S
C2194 C2175 1.368 . S
C2194 C2188 1.368 . S
C2194 C2193 1.523 . S
C2195 C2179 1.429 . S
C2195 C2191 1.429 . S
C2195 C2196 1.523 . S
C2196 C2180 1.368 . S
C2196 C2192 1.368 . S
C2196 C2195 1.523 . S
H2197 C2172 0.950 . S
H2198 C2174 0.950 . S
H2199 C2175 0.949 . S
H2200 C2177 0.950 . S
H2201 C2179 0.950 . S
C2202 C2203 1.349 . S
C2202 C2204 1.327 . S
C2202 H2227 0.950 . S
C2203 C2202 1.349 . S
C2203 C2219 1.349 . S
C2204 C2202 1.327 . S
C2204 C2223 1.429 . S
C2204 H2228 0.950 . S
C2205 C2222 1.574 . S
C2205 C2224 1.368 . S
C2205 H2229 0.949 . S
H2206 C2210 0.949 . S
C2207 C2208 1.349 . S
C2207 C2209 1.327 . S
C2207 H2230 0.950 . S
C2208 C2207 1.349 . S
C2208 C2220 1.349 . S
C2209 C2207 1.327 . S
C2209 C2225 1.429 . S
C2209 H2231 0.950 . S
C2210 H2206 0.949 . S
C2210 C2218 1.574 . S
C2210 C2226 1.368 . S
H2211 C2219 0.950 . S
H2212 C2217 0.950 . S
H2213 C2218 0.949 . S
H2214 C2220 0.950 . S
H2215 C2221 0.950 . S
H2216 C2222 0.949 . S
C2217 H2212 0.950 . S
C2217 C2219 1.327 . S
C2217 C2223 1.429 . S
C2218 C2210 1.574 . S
C2218 H2213 0.949 . S
C2218 C2224 1.368 . S
C2219 C2203 1.349 . S
C2219 H2211 0.950 . S
C2219 C2217 1.327 . S
C2220 C2208 1.349 . S
C2220 H2214 0.950 . S
C2220 C2221 1.327 . S
C2221 H2215 0.950 . S
C2221 C2220 1.327 . S
C2221 C2225 1.429 . S
C2222 C2205 1.574 . S
C2222 H2216 0.949 . S
C2222 C2226 1.368 . S
C2223 C2204 1.429 . S
C2223 C2217 1.429 . S
C2223 C2224 1.523 . S
C2224 C2205 1.368 . S
C2224 C2218 1.368 . S
C2224 C2223 1.523 . S
C2225 C2209 1.429 . S
C2225 C2221 1.429 . S
C2225 C2226 1.523 . S
C2226 C2210 1.368 . S
C2226 C2222 1.368 . S
C2226 C2225 1.523 . S
H2227 C2202 0.950 . S
H2228 C2204 0.950 . S
H2229 C2205 0.949 . S
H2230 C2207 0.950 . S
H2231 C2209 0.950 . S
C2232 C2233 1.349 . S
C2232 C2234 1.327 . S
C2232 H2257 0.950 . S
C2233 C2232 1.349 . S
C2233 C2249 1.349 . S
C2234 C2232 1.327 . S
C2234 C2253 1.429 . S
C2234 H2258 0.950 . S
C2235 C2252 1.574 . S
C2235 C2254 1.368 . S
C2235 H2259 0.949 . S
H2236 C2240 0.949 . S
C2237 C2238 1.349 . S
C2237 C2239 1.327 . S
C2237 H2260 0.950 . S
C2238 C2237 1.349 . S
C2238 C2250 1.349 . S
C2239 C2237 1.327 . S
C2239 C2255 1.429 . S
C2239 H2261 0.950 . S
C2240 H2236 0.949 . S
C2240 C2248 1.574 . S
C2240 C2256 1.368 . S
H2241 C2249 0.950 . S
H2242 C2247 0.950 . S
H2243 C2248 0.949 . S
H2244 C2250 0.950 . S
H2245 C2251 0.950 . S
H2246 C2252 0.949 . S
C2247 H2242 0.950 . S
C2247 C2249 1.327 . S
C2247 C2253 1.429 . S
C2248 C2240 1.574 . S
C2248 H2243 0.949 . S
C2248 C2254 1.368 . S
C2249 C2233 1.349 . S
C2249 H2241 0.950 . S
C2249 C2247 1.327 . S
C2250 C2238 1.349 . S
C2250 H2244 0.950 . S
C2250 C2251 1.327 . S
C2251 H2245 0.950 . S
C2251 C2250 1.327 . S
C2251 C2255 1.429 . S
C2252 C2235 1.574 . S
C2252 H2246 0.949 . S
C2252 C2256 1.368 . S
C2253 C2234 1.429 . S
C2253 C2247 1.429 . S
C2253 C2254 1.523 . S
C2254 C2235 1.368 . S
C2254 C2248 1.368 . S
C2254 C2253 1.523 . S
C2255 C2239 1.429 . S
C2255 C2251 1.429 . S
C2255 C2256 1.523 . S
C2256 C2240 1.368 . S
C2256 C2252 1.368 . S
C2256 C2255 1.523 . S
H2257 C2232 0.950 . S
H2258 C2234 0.950 . S
H2259 C2235 0.949 . S
H2260 C2237 0.950 . S
H2261 C2239 0.950 . S
C2262 C2263 1.349 . S
C2262 C2264 1.327 . S
C2262 H2287 0.950 . S
C2263 C2262 1.349 . S
C2263 C2279 1.349 . S
C2264 C2262 1.327 . S
C2264 C2283 1.429 . S
C2264 H2288 0.950 . S
C2265 C2282 1.574 . S
C2265 C2284 1.368 . S
C2265 H2289 0.949 . S
H2266 C2270 0.949 . S
C2267 C2268 1.349 . S
C2267 C2269 1.327 . S
C2267 H2290 0.950 . S
C2268 C2267 1.349 . S
C2268 C2280 1.349 . S
C2269 C2267 1.327 . S
C2269 C2285 1.429 . S
C2269 H2291 0.950 . S
C2270 H2266 0.949 . S
C2270 C2278 1.574 . S
C2270 C2286 1.368 . S
H2271 C2279 0.950 . S
H2272 C2277 0.950 . S
H2273 C2278 0.949 . S
H2274 C2280 0.950 . S
H2275 C2281 0.950 . S
H2276 C2282 0.949 . S
C2277 H2272 0.950 . S
C2277 C2279 1.327 . S
C2277 C2283 1.429 . S
C2278 C2270 1.574 . S
C2278 H2273 0.949 . S
C2278 C2284 1.368 . S
C2279 C2263 1.349 . S
C2279 H2271 0.950 . S
C2279 C2277 1.327 . S
C2280 C2268 1.349 . S
C2280 H2274 0.950 . S
C2280 C2281 1.327 . S
C2281 H2275 0.950 . S
C2281 C2280 1.327 . S
C2281 C2285 1.429 . S
C2282 C2265 1.574 . S
C2282 H2276 0.949 . S
C2282 C2286 1.368 . S
C2283 C2264 1.429 . S
C2283 C2277 1.429 . S
C2283 C2284 1.523 . S
C2284 C2265 1.368 . S
C2284 C2278 1.368 . S
C2284 C2283 1.523 . S
C2285 C2269 1.429 . S
C2285 C2281 1.429 . S
C2285 C2286 1.523 . S
C2286 C2270 1.368 . S
C2286 C2282 1.368 . S
C2286 C2285 1.523 . S
H2287 C2262 0.950 . S
H2288 C2264 0.950 . S
H2289 C2265 0.949 . S
H2290 C2267 0.950 . S
H2291 C2269 0.950 . S
C2292 C2293 1.349 . S
C2292 C2294 1.327 . S
C2292 H2317 0.950 . S
C2293 C2292 1.349 . S
C2293 C2309 1.349 . S
C2294 C2292 1.327 . S
C2294 C2313 1.429 . S
C2294 H2318 0.950 . S
C2295 C2312 1.574 . S
C2295 C2314 1.368 . S
C2295 H2319 0.949 . S
H2296 C2300 0.949 . S
C2297 C2298 1.349 . S
C2297 C2299 1.327 . S
C2297 H2320 0.950 . S
C2298 C2297 1.349 . S
C2298 C2310 1.349 . S
C2299 C2297 1.327 . S
C2299 C2315 1.429 . S
C2299 H2321 0.950 . S
C2300 H2296 0.949 . S
C2300 C2308 1.574 . S
C2300 C2316 1.368 . S
H2301 C2309 0.946 1_556 S
H2302 C2307 0.950 . S
H2303 C2308 0.949 . S
H2304 C2310 0.950 . S
H2305 C2311 0.950 . S
H2306 C2312 0.949 . S
C2307 H2302 0.950 . S
C2307 C2309 1.327 . S
C2307 C2313 1.429 . S
C2308 C2300 1.574 . S
C2308 H2303 0.949 . S
C2308 C2314 1.368 . S
C2309 C2293 1.349 . S
C2309 H2301 0.946 1_554 S
C2309 C2307 1.327 . S
C2310 C2298 1.349 . S
C2310 H2304 0.950 . S
C2310 C2311 1.327 . S
C2311 H2305 0.950 . S
C2311 C2310 1.327 . S
C2311 C2315 1.429 . S
C2312 C2295 1.574 . S
C2312 H2306 0.949 . S
C2312 C2316 1.368 . S
C2313 C2294 1.429 . S
C2313 C2307 1.429 . S
C2313 C2314 1.523 . S
C2314 C2295 1.368 . S
C2314 C2308 1.368 . S
C2314 C2313 1.523 . S
C2315 C2299 1.429 . S
C2315 C2311 1.429 . S
C2315 C2316 1.523 . S
C2316 C2300 1.368 . S
C2316 C2312 1.368 . S
C2316 C2315 1.523 . S
H2317 C2292 0.950 . S
H2318 C2294 0.950 . S
H2319 C2295 0.949 . S
H2320 C2297 0.950 . S
H2321 C2299 0.950 . S
C2322 C2323 1.349 . S
C2322 C2324 1.327 . S
C2322 H2347 0.950 . S
C2323 C2322 1.349 . S
C2323 C2339 1.349 . S
C2324 C2322 1.327 . S
C2324 C2343 1.429 . S
C2324 H2348 0.950 . S
C2325 C2342 1.574 . S
C2325 C2344 1.368 1_554 S
C2325 H2349 0.949 1_554 S
H2326 C2330 0.949 . S
C2327 C2328 1.349 . S
C2327 C2329 1.327 . S
C2327 H2350 0.950 . S
C2328 C2327 1.349 . S
C2328 C2340 1.349 . S
C2329 C2327 1.327 . S
C2329 C2345 1.429 . S
C2329 H2351 0.950 . S
C2330 H2326 0.949 . S
C2330 C2338 1.574 1_554 S
C2330 C2346 1.368 . S
H2331 C2339 0.950 . S
H2332 C2337 0.950 . S
H2333 C2338 0.949 . S
H2334 C2340 0.950 . S
H2335 C2341 0.950 . S
H2336 C2342 0.949 . S
C2337 H2332 0.950 . S
C2337 C2339 1.327 . S
C2337 C2343 1.429 . S
C2338 C2330 1.574 1_556 S
C2338 H2333 0.949 . S
C2338 C2344 1.368 . S
C2339 C2323 1.349 . S
C2339 H2331 0.950 . S
C2339 C2337 1.327 . S
C2340 C2328 1.349 . S
C2340 H2334 0.950 . S
C2340 C2341 1.327 . S
C2341 H2335 0.950 . S
C2341 C2340 1.327 . S
C2341 C2345 1.429 . S
C2342 C2325 1.574 . S
C2342 H2336 0.949 . S
C2342 C2346 1.368 . S
C2343 C2324 1.429 . S
C2343 C2337 1.429 . S
C2343 C2344 1.523 . S
C2344 C2325 1.368 1_556 S
C2344 C2338 1.368 . S
C2344 C2343 1.523 . S
C2345 C2329 1.429 . S
C2345 C2341 1.429 . S
C2345 C2346 1.523 . S
C2346 C2330 1.368 . S
C2346 C2342 1.368 . S
C2346 C2345 1.523 . S
H2347 C2322 0.950 . S
H2348 C2324 0.950 . S
H2349 C2325 0.949 1_556 S
H2350 C2327 0.950 . S
H2351 C2329 0.950 . S
C2352 C2353 1.349 . S
C2352 C2354 1.327 . S
C2352 H2377 0.950 . S
C2353 C2352 1.349 . S
C2353 C2369 1.349 . S
C2354 C2352 1.327 . S
C2354 C2373 1.429 . S
C2354 H2378 0.950 . S
C2355 C2372 1.574 1_554 S
C2355 C2374 1.368 . S
C2355 H2379 0.949 . S
H2356 C2360 0.951 . S
C2357 C2358 1.349 . S
C2357 C2359 1.327 . S
C2357 H2380 0.950 . S
C2358 C2357 1.349 . S
C2358 C2370 1.349 . S
C2359 C2357 1.327 . S
C2359 C2375 1.429 . S
C2359 H2381 0.950 . S
C2360 H2356 0.951 . S
C2360 C2368 1.567 1_556 S
C2360 C2376 1.373 . S
H2361 C2369 0.950 . S
H2362 C2367 0.950 . S
H2363 C2368 0.949 . S
H2364 C2370 0.950 . S
H2365 C2371 0.950 . S
H2366 C2372 0.949 . S
C2367 H2362 0.950 . S
C2367 C2369 1.327 . S
C2367 C2373 1.429 . S
C2368 C2360 1.567 1_554 S
C2368 H2363 0.949 . S
C2368 C2374 1.368 . S
C2369 C2353 1.349 . S
C2369 H2361 0.950 . S
C2369 C2367 1.327 . S
C2370 C2358 1.349 . S
C2370 H2364 0.950 . S
C2370 C2371 1.327 . S
C2371 H2365 0.950 . S
C2371 C2370 1.327 . S
C2371 C2375 1.429 . S
C2372 C2355 1.574 1_556 S
C2372 H2366 0.949 . S
C2372 C2376 1.368 . S
C2373 C2354 1.429 . S
C2373 C2367 1.429 . S
C2373 C2374 1.523 . S
C2374 C2355 1.368 . S
C2374 C2368 1.368 . S
C2374 C2373 1.523 . S
C2375 C2359 1.429 . S
C2375 C2371 1.429 . S
C2375 C2376 1.523 . S
C2376 C2360 1.373 . S
C2376 C2372 1.368 . S
C2376 C2375 1.523 . S
H2377 C2352 0.950 . S
H2378 C2354 0.950 . S
H2379 C2355 0.949 . S
H2380 C2357 0.950 . S
H2381 C2359 0.950 . S
C2382 C2383 1.349 . S
C2382 C2384 1.327 . S
C2382 H2407 0.950 . S
C2383 C2382 1.349 . S
C2383 C2399 1.349 . S
C2384 C2382 1.327 . S
C2384 C2403 1.429 . S
C2384 H2408 0.950 . S
C2385 C2402 1.574 1_554 S
C2385 C2404 1.368 . S
C2385 H2409 0.949 . S
H2386 C2390 0.949 . S
C2387 C2388 1.349 . S
C2387 C2389 1.327 . S
C2387 H2410 0.950 . S
C2388 C2387 1.349 . S
C2388 C2400 1.349 . S
C2389 C2387 1.327 . S
C2389 C2405 1.429 . S
C2389 H2411 0.950 . S
C2390 H2386 0.949 . S
C2390 C2398 1.574 1_556 S
C2390 C2406 1.368 . S
H2391 C2399 0.950 . S
H2392 C2397 0.950 . S
H2393 C2398 0.949 . S
H2394 C2400 0.950 . S
H2395 C2401 0.950 . S
H2396 C2402 0.949 . S
C2397 H2392 0.950 . S
C2397 C2399 1.327 . S
C2397 C2403 1.429 . S
C2398 C2390 1.574 1_554 S
C2398 H2393 0.949 . S
C2398 C2404 1.368 . S
C2399 C2383 1.349 . S
C2399 H2391 0.950 . S
C2399 C2397 1.327 . S
C2400 C2388 1.349 . S
C2400 H2394 0.950 . S
C2400 C2401 1.327 . S
C2401 H2395 0.950 . S
C2401 C2400 1.327 . S
C2401 C2405 1.429 . S
C2402 C2385 1.574 1_556 S
C2402 H2396 0.949 . S
C2402 C2406 1.368 . S
C2403 C2384 1.429 . S
C2403 C2397 1.429 . S
C2403 C2404 1.523 . S
C2404 C2385 1.368 . S
C2404 C2398 1.368 . S
C2404 C2403 1.523 . S
C2405 C2389 1.429 . S
C2405 C2401 1.429 . S
C2405 C2406 1.523 . S
C2406 C2390 1.368 . S
C2406 C2402 1.368 . S
C2406 C2405 1.523 . S
H2407 C2382 0.950 . S
H2408 C2384 0.950 . S
H2409 C2385 0.949 . S
H2410 C2387 0.950 . S
H2411 C2389 0.950 . S
C2412 C2413 1.349 . S
C2412 C2414 1.327 . S
C2412 H2437 0.950 . S
C2413 C2412 1.349 . S
C2413 C2429 1.349 . S
C2414 C2412 1.327 . S
C2414 C2433 1.429 . S
C2414 H2438 0.950 . S
C2415 C2432 1.574 . S
C2415 C2434 1.368 . S
C2415 H2439 0.949 . S
H2416 C2420 0.949 . S
C2417 C2418 1.349 . S
C2417 C2419 1.327 . S
C2417 H2440 0.950 . S
C2418 C2417 1.349 . S
C2418 C2430 1.349 . S
C2419 C2417 1.327 . S
C2419 C2435 1.429 . S
C2419 H2441 0.950 . S
C2420 H2416 0.949 . S
C2420 C2428 1.574 . S
C2420 C2436 1.368 . S
H2421 C2429 0.950 . S
H2422 C2427 0.950 . S
H2423 C2428 0.949 . S
H2424 C2430 0.950 . S
H2425 C2431 0.950 . S
H2426 C2432 0.949 . S
C2427 H2422 0.950 . S
C2427 C2429 1.327 . S
C2427 C2433 1.429 . S
C2428 C2420 1.574 . S
C2428 H2423 0.949 . S
C2428 C2434 1.368 . S
C2429 C2413 1.349 . S
C2429 H2421 0.950 . S
C2429 C2427 1.327 . S
C2430 C2418 1.349 . S
C2430 H2424 0.950 . S
C2430 C2431 1.327 . S
C2431 H2425 0.950 . S
C2431 C2430 1.327 . S
C2431 C2435 1.429 . S
C2432 C2415 1.574 . S
C2432 H2426 0.949 . S
C2432 C2436 1.368 . S
C2433 C2414 1.429 . S
C2433 C2427 1.429 . S
C2433 C2434 1.523 . S
C2434 C2415 1.368 . S
C2434 C2428 1.368 . S
C2434 C2433 1.523 . S
C2435 C2419 1.429 . S
C2435 C2431 1.429 . S
C2435 C2436 1.523 . S
C2436 C2420 1.368 . S
C2436 C2432 1.368 . S
C2436 C2435 1.523 . S
H2437 C2412 0.950 . S
H2438 C2414 0.950 . S
H2439 C2415 0.949 . S
H2440 C2417 0.950 . S
H2441 C2419 0.950 . S
C2442 C2443 1.349 . S
C2442 C2444 1.327 . S
C2442 H2467 0.950 . S
C2443 C2442 1.349 . S
C2443 C2459 1.349 . S
C2444 C2442 1.327 . S
C2444 C2463 1.429 . S
C2444 H2468 0.950 . S
C2445 C2462 1.574 . S
C2445 C2464 1.368 . S
C2445 H2469 0.949 . S
H2446 C2450 0.949 . S
C2447 C2448 1.349 . S
C2447 C2449 1.327 . S
C2447 H2470 0.950 . S
C2448 C2447 1.349 . S
C2448 C2460 1.349 . S
C2449 C2447 1.327 . S
C2449 C2465 1.429 . S
C2449 H2471 0.950 . S
C2450 H2446 0.949 . S
C2450 C2458 1.574 . S
C2450 C2466 1.368 . S
H2451 C2459 0.950 . S
H2452 C2457 0.950 . S
H2453 C2458 0.949 . S
H2454 C2460 0.950 . S
H2455 C2461 0.950 . S
H2456 C2462 0.949 . S
C2457 H2452 0.950 . S
C2457 C2459 1.327 . S
C2457 C2463 1.429 . S
C2458 C2450 1.574 . S
C2458 H2453 0.949 . S
C2458 C2464 1.368 . S
C2459 C2443 1.349 . S
C2459 H2451 0.950 . S
C2459 C2457 1.327 . S
C2460 C2448 1.349 . S
C2460 H2454 0.950 . S
C2460 C2461 1.327 . S
C2461 H2455 0.950 . S
C2461 C2460 1.327 . S
C2461 C2465 1.429 . S
C2462 C2445 1.574 . S
C2462 H2456 0.949 . S
C2462 C2466 1.368 . S
C2463 C2444 1.429 . S
C2463 C2457 1.429 . S
C2463 C2464 1.523 . S
C2464 C2445 1.368 . S
C2464 C2458 1.368 . S
C2464 C2463 1.523 . S
C2465 C2449 1.429 . S
C2465 C2461 1.429 . S
C2465 C2466 1.523 . S
C2466 C2450 1.368 . S
C2466 C2462 1.368 . S
C2466 C2465 1.523 . S
H2467 C2442 0.950 . S
H2468 C2444 0.950 . S
H2469 C2445 0.949 . S
H2470 C2447 0.950 . S
H2471 C2449 0.950 . S
C2472 C2473 1.349 . S
C2472 C2474 1.327 . S
C2472 H2497 0.950 . S
C2473 C2472 1.349 . S
C2473 C2489 1.349 . S
C2474 C2472 1.327 . S
C2474 C2493 1.429 . S
C2474 H2498 0.950 . S
C2475 C2492 1.574 . S
C2475 C2494 1.368 . S
C2475 H2499 0.949 . S
H2476 C2480 0.949 . S
C2477 C2478 1.349 . S
C2477 C2479 1.327 . S
C2477 H2500 0.950 . S
C2478 C2477 1.349 . S
C2478 C2490 1.349 . S
C2479 C2477 1.327 . S
C2479 C2495 1.429 . S
C2479 H2501 0.950 . S
C2480 H2476 0.949 . S
C2480 C2488 1.574 . S
C2480 C2496 1.368 . S
H2481 C2489 0.950 . S
H2482 C2487 0.950 . S
H2483 C2488 0.949 . S
H2484 C2490 0.950 . S
H2485 C2491 0.950 . S
H2486 C2492 0.949 . S
C2487 H2482 0.950 . S
C2487 C2489 1.327 . S
C2487 C2493 1.429 . S
C2488 C2480 1.574 . S
C2488 H2483 0.949 . S
C2488 C2494 1.368 . S
C2489 C2473 1.349 . S
C2489 H2481 0.950 . S
C2489 C2487 1.327 . S
C2490 C2478 1.349 . S
C2490 H2484 0.950 . S
C2490 C2491 1.327 . S
C2491 H2485 0.950 . S
C2491 C2490 1.327 . S
C2491 C2495 1.429 . S
C2492 C2475 1.574 . S
C2492 H2486 0.949 . S
C2492 C2496 1.368 . S
C2493 C2474 1.429 . S
C2493 C2487 1.429 . S
C2493 C2494 1.523 . S
C2494 C2475 1.368 . S
C2494 C2488 1.368 . S
C2494 C2493 1.523 . S
C2495 C2479 1.429 . S
C2495 C2491 1.429 . S
C2495 C2496 1.523 . S
C2496 C2480 1.368 . S
C2496 C2492 1.368 . S
C2496 C2495 1.523 . S
H2497 C2472 0.950 . S
H2498 C2474 0.950 . S
H2499 C2475 0.949 . S
H2500 C2477 0.950 . S
H2501 C2479 0.950 . S
C2502 C2503 1.349 . S
C2502 C2504 1.327 . S
C2502 H2527 0.950 . S
C2503 C2502 1.349 . S
C2503 C2519 1.349 . S
C2504 C2502 1.327 . S
C2504 C2523 1.429 . S
C2504 H2528 0.950 . S
C2505 C2522 1.574 . S
C2505 C2524 1.368 . S
C2505 H2529 0.949 . S
H2506 C2510 0.949 . S
C2507 C2508 1.349 . S
C2507 C2509 1.327 . S
C2507 H2530 0.950 . S
C2508 C2507 1.349 . S
C2508 C2520 1.349 . S
C2509 C2507 1.327 . S
C2509 C2525 1.429 . S
C2509 H2531 0.950 . S
C2510 H2506 0.949 . S
C2510 C2518 1.574 . S
C2510 C2526 1.368 . S
H2511 C2519 0.950 . S
H2512 C2517 0.950 . S
H2513 C2518 0.949 . S
H2514 C2520 0.950 . S
H2515 C2521 0.950 . S
H2516 C2522 0.949 . S
C2517 H2512 0.950 . S
C2517 C2519 1.327 . S
C2517 C2523 1.429 . S
C2518 C2510 1.574 . S
C2518 H2513 0.949 . S
C2518 C2524 1.368 . S
C2519 C2503 1.349 . S
C2519 H2511 0.950 . S
C2519 C2517 1.327 . S
C2520 C2508 1.349 . S
C2520 H2514 0.950 . S
C2520 C2521 1.327 . S
C2521 H2515 0.950 . S
C2521 C2520 1.327 . S
C2521 C2525 1.429 . S
C2522 C2505 1.574 . S
C2522 H2516 0.949 . S
C2522 C2526 1.368 . S
C2523 C2504 1.429 . S
C2523 C2517 1.429 . S
C2523 C2524 1.523 . S
C2524 C2505 1.368 . S
C2524 C2518 1.368 . S
C2524 C2523 1.523 . S
C2525 C2509 1.429 . S
C2525 C2521 1.429 . S
C2525 C2526 1.523 . S
C2526 C2510 1.368 . S
C2526 C2522 1.368 . S
C2526 C2525 1.523 . S
H2527 C2502 0.950 . S
H2528 C2504 0.950 . S
H2529 C2505 0.949 . S
H2530 C2507 0.950 . S
H2531 C2509 0.950 . S
C2532 C2533 1.349 . S
C2532 C2534 1.327 . S
C2532 H2557 0.950 . S
C2533 C2532 1.349 . S
C2533 C2549 1.349 . S
C2534 C2532 1.327 . S
C2534 C2553 1.429 . S
C2534 H2558 0.950 . S
C2535 C2552 1.574 . S
C2535 C2554 1.368 . S
C2535 H2559 0.949 . S
H2536 C2540 0.949 . S
C2537 C2538 1.349 . S
C2537 C2539 1.327 . S
C2537 H2560 0.950 . S
C2538 C2537 1.349 . S
C2538 C2550 1.349 . S
C2539 C2537 1.327 . S
C2539 C2555 1.429 . S
C2539 H2561 0.950 . S
C2540 H2536 0.949 . S
C2540 C2548 1.574 . S
C2540 C2556 1.368 . S
H2541 C2549 0.950 . S
H2542 C2547 0.950 . S
H2543 C2548 0.949 . S
H2544 C2550 0.950 . S
H2545 C2551 0.950 . S
H2546 C2552 0.949 . S
C2547 H2542 0.950 . S
C2547 C2549 1.327 . S
C2547 C2553 1.429 . S
C2548 C2540 1.574 . S
C2548 H2543 0.949 . S
C2548 C2554 1.368 . S
C2549 C2533 1.349 . S
C2549 H2541 0.950 . S
C2549 C2547 1.327 . S
C2550 C2538 1.349 . S
C2550 H2544 0.950 . S
C2550 C2551 1.327 . S
C2551 H2545 0.950 . S
C2551 C2550 1.327 . S
C2551 C2555 1.429 . S
C2552 C2535 1.574 . S
C2552 H2546 0.949 . S
C2552 C2556 1.368 . S
C2553 C2534 1.429 . S
C2553 C2547 1.429 . S
C2553 C2554 1.523 . S
C2554 C2535 1.368 . S
C2554 C2548 1.368 . S
C2554 C2553 1.523 . S
C2555 C2539 1.429 . S
C2555 C2551 1.429 . S
C2555 C2556 1.523 . S
C2556 C2540 1.368 . S
C2556 C2552 1.368 . S
C2556 C2555 1.523 . S
H2557 C2532 0.950 . S
H2558 C2534 0.950 . S
H2559 C2535 0.949 . S
H2560 C2537 0.950 . S
H2561 C2539 0.950 . S
C2562 C2563 1.349 . S
C2562 C2564 1.327 . S
C2562 H2587 0.950 . S
C2563 C2562 1.349 . S
C2563 C2579 1.349 . S
C2564 C2562 1.327 . S
C2564 C2583 1.429 . S
C2564 H2588 0.950 . S
C2565 C2582 1.574 . S
C2565 C2584 1.368 . S
C2565 H2589 0.949 . S
H2566 C2570 0.949 . S
C2567 C2568 1.349 . S
C2567 C2569 1.327 . S
C2567 H2590 0.950 . S
C2568 C2567 1.349 . S
C2568 C2580 1.349 . S
C2569 C2567 1.327 . S
C2569 C2585 1.429 . S
C2569 H2591 0.950 . S
C2570 H2566 0.949 . S
C2570 C2578 1.574 . S
C2570 C2586 1.368 . S
H2571 C2579 0.950 . S
H2572 C2577 0.950 . S
H2573 C2578 0.949 . S
H2574 C2580 0.950 . S
H2575 C2581 0.950 . S
H2576 C2582 0.949 . S
C2577 H2572 0.950 . S
C2577 C2579 1.327 . S
C2577 C2583 1.429 . S
C2578 C2570 1.574 . S
C2578 H2573 0.949 . S
C2578 C2584 1.368 . S
C2579 C2563 1.349 . S
C2579 H2571 0.950 . S
C2579 C2577 1.327 . S
C2580 C2568 1.349 . S
C2580 H2574 0.950 . S
C2580 C2581 1.327 . S
C2581 H2575 0.950 . S
C2581 C2580 1.327 . S
C2581 C2585 1.429 . S
C2582 C2565 1.574 . S
C2582 H2576 0.949 . S
C2582 C2586 1.368 . S
C2583 C2564 1.429 . S
C2583 C2577 1.429 . S
C2583 C2584 1.523 . S
C2584 C2565 1.368 . S
C2584 C2578 1.368 . S
C2584 C2583 1.523 . S
C2585 C2569 1.429 . S
C2585 C2581 1.429 . S
C2585 C2586 1.523 . S
C2586 C2570 1.368 . S
C2586 C2582 1.368 . S
C2586 C2585 1.523 . S
H2587 C2562 0.950 . S
H2588 C2564 0.950 . S
H2589 C2565 0.949 . S
H2590 C2567 0.950 . S
H2591 C2569 0.950 . S
C2592 C2593 1.349 . S
C2592 C2594 1.327 . S
C2592 H2617 0.950 . S
C2593 C2592 1.349 . S
C2593 C2609 1.349 . S
C2594 C2592 1.327 . S
C2594 C2613 1.429 . S
C2594 H2618 0.950 . S
C2595 C2612 1.574 . S
C2595 C2614 1.368 . S
C2595 H2619 0.949 . S
H2596 C2600 0.949 . S
C2597 C2598 1.349 . S
C2597 C2599 1.327 . S
C2597 H2620 0.950 . S
C2598 C2597 1.349 . S
C2598 C2610 1.349 . S
C2599 C2597 1.327 . S
C2599 C2615 1.429 . S
C2599 H2621 0.950 . S
C2600 H2596 0.949 . S
C2600 C2608 1.574 . S
C2600 C2616 1.368 . S
H2601 C2609 0.950 . S
H2602 C2607 0.950 . S
H2603 C2608 0.949 . S
H2604 C2610 0.950 . S
H2605 C2611 0.950 . S
H2606 C2612 0.949 . S
C2607 H2602 0.950 . S
C2607 C2609 1.327 . S
C2607 C2613 1.429 . S
C2608 C2600 1.574 . S
C2608 H2603 0.949 . S
C2608 C2614 1.368 . S
C2609 C2593 1.349 . S
C2609 H2601 0.950 . S
C2609 C2607 1.327 . S
C2610 C2598 1.349 . S
C2610 H2604 0.950 . S
C2610 C2611 1.327 . S
C2611 H2605 0.950 . S
C2611 C2610 1.327 . S
C2611 C2615 1.429 . S
C2612 C2595 1.574 . S
C2612 H2606 0.949 . S
C2612 C2616 1.368 . S
C2613 C2594 1.429 . S
C2613 C2607 1.429 . S
C2613 C2614 1.523 . S
C2614 C2595 1.368 . S
C2614 C2608 1.368 . S
C2614 C2613 1.523 . S
C2615 C2599 1.429 . S
C2615 C2611 1.429 . S
C2615 C2616 1.523 . S
C2616 C2600 1.368 . S
C2616 C2612 1.368 . S
C2616 C2615 1.523 . S
H2617 C2592 0.950 . S
H2618 C2594 0.950 . S
H2619 C2595 0.949 . S
H2620 C2597 0.950 . S
H2621 C2599 0.950 . S
C2622 C2623 1.349 . S
C2622 C2624 1.327 . S
C2622 H2647 0.950 . S
C2623 C2622 1.349 . S
C2623 C2639 1.349 . S
C2624 C2622 1.327 . S
C2624 C2643 1.429 . S
C2624 H2648 0.950 . S
C2625 C2642 1.574 . S
C2625 C2644 1.368 . S
C2625 H2649 0.949 . S
H2626 C2630 0.949 . S
C2627 C2628 1.349 . S
C2627 C2629 1.327 . S
C2627 H2650 0.950 . S
C2628 C2627 1.349 . S
C2628 C2640 1.349 . S
C2629 C2627 1.327 . S
C2629 C2645 1.429 . S
C2629 H2651 0.950 . S
C2630 H2626 0.949 . S
C2630 C2638 1.574 . S
C2630 C2646 1.368 . S
H2631 C2639 0.950 . S
H2632 C2637 0.950 . S
H2633 C2638 0.949 . S
H2634 C2640 0.950 . S
H2635 C2641 0.950 . S
H2636 C2642 0.949 . S
C2637 H2632 0.950 . S
C2637 C2639 1.327 . S
C2637 C2643 1.429 . S
C2638 C2630 1.574 . S
C2638 H2633 0.949 . S
C2638 C2644 1.368 . S
C2639 C2623 1.349 . S
C2639 H2631 0.950 . S
C2639 C2637 1.327 . S
C2640 C2628 1.349 . S
C2640 H2634 0.950 . S
C2640 C2641 1.327 . S
C2641 H2635 0.950 . S
C2641 C2640 1.327 . S
C2641 C2645 1.429 . S
C2642 C2625 1.574 . S
C2642 H2636 0.949 . S
C2642 C2646 1.368 . S
C2643 C2624 1.429 . S
C2643 C2637 1.429 . S
C2643 C2644 1.523 . S
C2644 C2625 1.368 . S
C2644 C2638 1.368 . S
C2644 C2643 1.523 . S
C2645 C2629 1.429 . S
C2645 C2641 1.429 . S
C2645 C2646 1.523 . S
C2646 C2630 1.368 . S
C2646 C2642 1.368 . S
C2646 C2645 1.523 . S
H2647 C2622 0.950 . S
H2648 C2624 0.950 . S
H2649 C2625 0.949 . S
H2650 C2627 0.950 . S
H2651 C2629 0.950 . S
C2652 C2653 1.349 . S
C2652 C2654 1.327 . S
C2652 H2677 0.950 . S
C2653 C2652 1.349 . S
C2653 C2669 1.349 . S
C2654 C2652 1.327 . S
C2654 C2673 1.429 . S
C2654 H2678 0.950 . S
C2655 C2672 1.574 . S
C2655 C2674 1.368 . S
C2655 H2679 0.949 . S
H2656 C2660 0.949 . S
C2657 C2658 1.349 . S
C2657 C2659 1.327 . S
C2657 H2680 0.950 . S
C2658 C2657 1.349 . S
C2658 C2670 1.349 . S
C2659 C2657 1.327 . S
C2659 C2675 1.429 . S
C2659 H2681 0.950 . S
C2660 H2656 0.949 . S
C2660 C2668 1.574 . S
C2660 C2676 1.368 . S
H2661 C2669 0.950 . S
H2662 C2667 0.950 . S
H2663 C2668 0.949 . S
H2664 C2670 0.950 . S
H2665 C2671 0.950 . S
H2666 C2672 0.949 . S
C2667 H2662 0.950 . S
C2667 C2669 1.327 . S
C2667 C2673 1.429 . S
C2668 C2660 1.574 . S
C2668 H2663 0.949 . S
C2668 C2674 1.368 . S
C2669 C2653 1.349 . S
C2669 H2661 0.950 . S
C2669 C2667 1.327 . S
C2670 C2658 1.349 . S
C2670 H2664 0.950 . S
C2670 C2671 1.327 . S
C2671 H2665 0.950 . S
C2671 C2670 1.327 . S
C2671 C2675 1.429 . S
C2672 C2655 1.574 . S
C2672 H2666 0.949 . S
C2672 C2676 1.368 . S
C2673 C2654 1.429 . S
C2673 C2667 1.429 . S
C2673 C2674 1.523 . S
C2674 C2655 1.368 . S
C2674 C2668 1.368 . S
C2674 C2673 1.523 . S
C2675 C2659 1.429 . S
C2675 C2671 1.429 . S
C2675 C2676 1.523 . S
C2676 C2660 1.368 . S
C2676 C2672 1.368 . S
C2676 C2675 1.523 . S
H2677 C2652 0.950 . S
H2678 C2654 0.950 . S
H2679 C2655 0.949 . S
H2680 C2657 0.950 . S
H2681 C2659 0.950 . S
C2682 C2683 1.349 . S
C2682 C2684 1.327 . S
C2682 H2707 0.950 . S
C2683 C2682 1.349 . S
C2683 C2699 1.349 . S
C2684 C2682 1.327 . S
C2684 C2703 1.429 . S
C2684 H2708 0.950 . S
C2685 C2702 1.574 . S
C2685 C2704 1.368 . S
C2685 H2709 0.949 . S
H2686 C2690 0.949 . S
C2687 C2688 1.349 . S
C2687 C2689 1.327 . S
C2687 H2710 0.950 . S
C2688 C2687 1.349 . S
C2688 C2700 1.349 . S
C2689 C2687 1.327 . S
C2689 C2705 1.429 . S
C2689 H2711 0.950 . S
C2690 H2686 0.949 . S
C2690 C2698 1.574 . S
C2690 C2706 1.368 . S
H2691 C2699 0.950 . S
H2692 C2697 0.950 . S
H2693 C2698 0.949 . S
H2694 C2700 0.950 . S
H2695 C2701 0.950 . S
H2696 C2702 0.949 . S
C2697 H2692 0.950 . S
C2697 C2699 1.327 . S
C2697 C2703 1.429 . S
C2698 C2690 1.574 . S
C2698 H2693 0.949 . S
C2698 C2704 1.368 . S
C2699 C2683 1.349 . S
C2699 H2691 0.950 . S
C2699 C2697 1.327 . S
C2700 C2688 1.349 . S
C2700 H2694 0.950 . S
C2700 C2701 1.327 . S
C2701 H2695 0.950 . S
C2701 C2700 1.327 . S
C2701 C2705 1.429 . S
C2702 C2685 1.574 . S
C2702 H2696 0.949 . S
C2702 C2706 1.368 . S
C2703 C2684 1.429 . S
C2703 C2697 1.429 . S
C2703 C2704 1.523 . S
C2704 C2685 1.368 . S
C2704 C2698 1.368 . S
C2704 C2703 1.523 . S
C2705 C2689 1.429 . S
C2705 C2701 1.429 . S
C2705 C2706 1.523 . S
C2706 C2690 1.368 . S
C2706 C2702 1.368 . S
C2706 C2705 1.523 . S
H2707 C2682 0.950 . S
H2708 C2684 0.950 . S
H2709 C2685 0.949 . S
H2710 C2687 0.950 . S
H2711 C2689 0.950 . S
C2712 C2713 1.349 . S
C2712 C2714 1.327 . S
C2712 H2737 0.950 . S
C2713 C2712 1.349 . S
C2713 C2729 1.349 . S
C2714 C2712 1.327 . S
C2714 C2733 1.429 . S
C2714 H2738 0.950 . S
C2715 C2732 1.574 . S
C2715 C2734 1.368 . S
C2715 H2739 0.949 . S
H2716 C2720 0.949 . S
C2717 C2718 1.349 . S
C2717 C2719 1.327 . S
C2717 H2740 0.950 . S
C2718 C2717 1.349 . S
C2718 C2730 1.349 . S
C2719 C2717 1.327 . S
C2719 C2735 1.429 . S
C2719 H2741 0.950 . S
C2720 H2716 0.949 . S
C2720 C2728 1.574 . S
C2720 C2736 1.368 . S
H2721 C2729 0.950 . S
H2722 C2727 0.950 . S
H2723 C2728 0.949 . S
H2724 C2730 0.950 . S
H2725 C2731 0.950 . S
H2726 C2732 0.949 . S
C2727 H2722 0.950 . S
C2727 C2729 1.327 . S
C2727 C2733 1.429 . S
C2728 C2720 1.574 . S
C2728 H2723 0.949 . S
C2728 C2734 1.368 . S
C2729 C2713 1.349 . S
C2729 H2721 0.950 . S
C2729 C2727 1.327 . S
C2730 C2718 1.349 . S
C2730 H2724 0.950 . S
C2730 C2731 1.327 . S
C2731 H2725 0.950 . S
C2731 C2730 1.327 . S
C2731 C2735 1.429 . S
C2732 C2715 1.574 . S
C2732 H2726 0.949 . S
C2732 C2736 1.368 . S
C2733 C2714 1.429 . S
C2733 C2727 1.429 . S
C2733 C2734 1.523 . S
C2734 C2715 1.368 . S
C2734 C2728 1.368 . S
C2734 C2733 1.523 . S
C2735 C2719 1.429 . S
C2735 C2731 1.429 . S
C2735 C2736 1.523 . S
C2736 C2720 1.368 . S
C2736 C2732 1.368 . S
C2736 C2735 1.523 . S
H2737 C2712 0.950 . S
H2738 C2714 0.950 . S
H2739 C2715 0.949 . S
H2740 C2717 0.950 . S
H2741 C2719 0.950 . S
C2742 C2743 1.349 . S
C2742 C2744 1.327 . S
C2742 H2767 0.950 . S
C2743 C2742 1.349 . S
C2743 C2759 1.349 . S
C2744 C2742 1.327 . S
C2744 C2763 1.429 . S
C2744 H2768 0.950 . S
C2745 C2762 1.574 . S
C2745 C2764 1.368 . S
C2745 H2769 0.949 . S
H2746 C2750 0.949 . S
C2747 C2748 1.349 . S
C2747 C2749 1.327 . S
C2747 H2770 0.950 . S
C2748 C2747 1.349 . S
C2748 C2760 1.349 . S
C2749 C2747 1.327 . S
C2749 C2765 1.429 . S
C2749 H2771 0.950 . S
C2750 H2746 0.949 . S
C2750 C2758 1.574 . S
C2750 C2766 1.368 . S
H2751 C2759 0.950 . S
H2752 C2757 0.950 . S
H2753 C2758 0.949 . S
H2754 C2760 0.950 . S
H2755 C2761 0.950 . S
H2756 C2762 0.949 . S
C2757 H2752 0.950 . S
C2757 C2759 1.327 . S
C2757 C2763 1.429 . S
C2758 C2750 1.574 . S
C2758 H2753 0.949 . S
C2758 C2764 1.368 . S
C2759 C2743 1.349 . S
C2759 H2751 0.950 . S
C2759 C2757 1.327 . S
C2760 C2748 1.349 . S
C2760 H2754 0.950 . S
C2760 C2761 1.327 . S
C2761 H2755 0.950 . S
C2761 C2760 1.327 . S
C2761 C2765 1.429 . S
C2762 C2745 1.574 . S
C2762 H2756 0.949 . S
C2762 C2766 1.368 . S
C2763 C2744 1.429 . S
C2763 C2757 1.429 . S
C2763 C2764 1.523 . S
C2764 C2745 1.368 . S
C2764 C2758 1.368 . S
C2764 C2763 1.523 . S
C2765 C2749 1.429 . S
C2765 C2761 1.429 . S
C2765 C2766 1.523 . S
C2766 C2750 1.368 . S
C2766 C2762 1.368 . S
C2766 C2765 1.523 . S
H2767 C2742 0.950 . S
H2768 C2744 0.950 . S
H2769 C2745 0.949 . S
H2770 C2747 0.950 . S
H2771 C2749 0.950 . S
C2772 C2773 1.349 . S
C2772 C2774 1.327 . S
C2772 H2797 0.950 . S
C2773 C2772 1.349 . S
C2773 C2789 1.349 . S
C2774 C2772 1.327 . S
C2774 C2793 1.429 . S
C2774 H2798 0.950 . S
C2775 C2792 1.574 . S
C2775 C2794 1.368 . S
C2775 H2799 0.949 . S
H2776 C2780 0.949 . S
C2777 C2778 1.349 . S
C2777 C2779 1.327 . S
C2777 H2800 0.950 . S
C2778 C2777 1.349 . S
C2778 C2790 1.349 . S
C2779 C2777 1.327 . S
C2779 C2795 1.429 . S
C2779 H2801 0.950 . S
C2780 H2776 0.949 . S
C2780 C2788 1.574 . S
C2780 C2796 1.368 . S
H2781 C2789 0.950 . S
H2782 C2787 0.950 . S
H2783 C2788 0.949 . S
H2784 C2790 0.950 . S
H2785 C2791 0.950 . S
H2786 C2792 0.949 . S
C2787 H2782 0.950 . S
C2787 C2789 1.327 . S
C2787 C2793 1.429 . S
C2788 C2780 1.574 . S
C2788 H2783 0.949 . S
C2788 C2794 1.368 . S
C2789 C2773 1.349 . S
C2789 H2781 0.950 . S
C2789 C2787 1.327 . S
C2790 C2778 1.349 . S
C2790 H2784 0.950 . S
C2790 C2791 1.327 . S
C2791 H2785 0.950 . S
C2791 C2790 1.327 . S
C2791 C2795 1.429 . S
C2792 C2775 1.574 . S
C2792 H2786 0.949 . S
C2792 C2796 1.368 . S
C2793 C2774 1.429 . S
C2793 C2787 1.429 . S
C2793 C2794 1.523 . S
C2794 C2775 1.368 . S
C2794 C2788 1.368 . S
C2794 C2793 1.523 . S
C2795 C2779 1.429 . S
C2795 C2791 1.429 . S
C2795 C2796 1.523 . S
C2796 C2780 1.368 . S
C2796 C2792 1.368 . S
C2796 C2795 1.523 . S
H2797 C2772 0.950 . S
H2798 C2774 0.950 . S
H2799 C2775 0.949 . S
H2800 C2777 0.950 . S
H2801 C2779 0.950 . S
C2802 C2803 1.349 . S
C2802 C2804 1.327 . S
C2802 H2827 0.950 . S
C2803 C2802 1.349 . S
C2803 C2819 1.349 . S
C2804 C2802 1.327 . S
C2804 C2823 1.429 . S
C2804 H2828 0.950 . S
C2805 C2822 1.574 . S
C2805 C2824 1.368 . S
C2805 H2829 0.949 . S
H2806 C2810 0.949 . S
C2807 C2808 1.349 . S
C2807 C2809 1.327 . S
C2807 H2830 0.950 . S
C2808 C2807 1.349 . S
C2808 C2820 1.349 . S
C2809 C2807 1.327 . S
C2809 C2825 1.429 . S
C2809 H2831 0.950 . S
C2810 H2806 0.949 . S
C2810 C2818 1.574 . S
C2810 C2826 1.368 . S
H2811 C2819 0.950 . S
H2812 C2817 0.950 . S
H2813 C2818 0.949 . S
H2814 C2820 0.950 . S
H2815 C2821 0.950 . S
H2816 C2822 0.949 . S
C2817 H2812 0.950 . S
C2817 C2819 1.327 . S
C2817 C2823 1.429 . S
C2818 C2810 1.574 . S
C2818 H2813 0.949 . S
C2818 C2824 1.368 . S
C2819 C2803 1.349 . S
C2819 H2811 0.950 . S
C2819 C2817 1.327 . S
C2820 C2808 1.349 . S
C2820 H2814 0.950 . S
C2820 C2821 1.327 . S
C2821 H2815 0.950 . S
C2821 C2820 1.327 . S
C2821 C2825 1.429 . S
C2822 C2805 1.574 . S
C2822 H2816 0.949 . S
C2822 C2826 1.368 . S
C2823 C2804 1.429 . S
C2823 C2817 1.429 . S
C2823 C2824 1.523 . S
C2824 C2805 1.368 . S
C2824 C2818 1.368 . S
C2824 C2823 1.523 . S
C2825 C2809 1.429 . S
C2825 C2821 1.429 . S
C2825 C2826 1.523 . S
C2826 C2810 1.368 . S
C2826 C2822 1.368 . S
C2826 C2825 1.523 . S
H2827 C2802 0.950 . S
H2828 C2804 0.950 . S
H2829 C2805 0.949 . S
H2830 C2807 0.950 . S
H2831 C2809 0.950 . S
C2832 C2833 1.349 . S
C2832 C2834 1.327 . S
C2832 H2857 0.950 . S
C2833 C2832 1.349 . S
C2833 C2849 1.349 . S
C2834 C2832 1.327 . S
C2834 C2853 1.429 . S
C2834 H2858 0.950 . S
C2835 C2852 1.574 . S
C2835 C2854 1.368 . S
C2835 H2859 0.949 . S
H2836 C2840 0.949 . S
C2837 C2838 1.349 . S
C2837 C2839 1.327 . S
C2837 H2860 0.950 . S
C2838 C2837 1.349 . S
C2838 C2850 1.349 . S
C2839 C2837 1.327 . S
C2839 C2855 1.429 . S
C2839 H2861 0.950 . S
C2840 H2836 0.949 . S
C2840 C2848 1.574 . S
C2840 C2856 1.368 . S
H2841 C2849 0.961 . S
H2842 C2847 0.950 . S
H2843 C2848 0.949 . S
H2844 C2850 0.950 . S
H2845 C2851 0.950 . S
H2846 C2852 0.949 . S
C2847 H2842 0.950 . S
C2847 C2849 1.327 . S
C2847 C2853 1.429 . S
C2848 C2840 1.574 . S
C2848 H2843 0.949 . S
C2848 C2854 1.368 . S
C2849 C2833 1.349 . S
C2849 H2841 0.961 . S
C2849 C2847 1.327 . S
C2850 C2838 1.349 . S
C2850 H2844 0.950 . S
C2850 C2851 1.327 . S
C2851 H2845 0.950 . S
C2851 C2850 1.327 . S
C2851 C2855 1.429 . S
C2852 C2835 1.574 . S
C2852 H2846 0.949 . S
C2852 C2856 1.368 . S
C2853 C2834 1.429 . S
C2853 C2847 1.429 . S
C2853 C2854 1.523 . S
C2854 C2835 1.368 . S
C2854 C2848 1.368 . S
C2854 C2853 1.523 . S
C2855 C2839 1.429 . S
C2855 C2851 1.429 . S
C2855 C2856 1.523 . S
C2856 C2840 1.368 . S
C2856 C2852 1.368 . S
C2856 C2855 1.523 . S
H2857 C2832 0.950 . S
H2858 C2834 0.950 . S
H2859 C2835 0.949 . S
H2860 C2837 0.950 . S
H2861 C2839 0.950 . S
C2862 C2863 1.349 . S
C2862 C2864 1.327 . S
C2862 H2887 0.950 . S
C2863 C2862 1.349 . S
C2863 C2879 1.349 . S
C2864 C2862 1.327 . S
C2864 C2883 1.429 . S
C2864 H2888 0.950 . S
C2865 C2882 1.574 1_554 S
C2865 C2884 1.368 . S
C2865 H2889 0.949 . S
H2866 C2870 0.949 . S
C2867 C2868 1.349 . S
C2867 C2869 1.327 . S
C2867 H2890 0.950 . S
C2868 C2867 1.349 . S
C2868 C2880 1.349 . S
C2869 C2867 1.327 . S
C2869 C2885 1.429 . S
C2869 H2891 0.950 . S
C2870 H2866 0.949 . S
C2870 C2878 1.591 . S
C2870 C2886 1.368 . S
H2871 C2879 0.950 . S
H2872 C2877 0.950 . S
H2873 C2878 0.944 1_554 S
H2874 C2880 0.950 . S
H2875 C2881 0.950 . S
H2876 C2882 0.949 . S
C2877 H2872 0.950 . S
C2877 C2879 1.327 . S
C2877 C2883 1.429 . S
C2878 C2870 1.591 . S
C2878 H2873 0.944 1_556 S
C2878 C2884 1.357 1_556 S
C2879 C2863 1.349 . S
C2879 H2871 0.950 . S
C2879 C2877 1.327 . S
C2880 C2868 1.349 . S
C2880 H2874 0.950 . S
C2880 C2881 1.327 . S
C2881 H2875 0.950 . S
C2881 C2880 1.327 . S
C2881 C2885 1.429 . S
C2882 C2865 1.574 1_556 S
C2882 H2876 0.949 . S
C2882 C2886 1.368 . S
C2883 C2864 1.429 . S
C2883 C2877 1.429 . S
C2883 C2884 1.523 . S
C2884 C2865 1.368 . S
C2884 C2878 1.357 1_554 S
C2884 C2883 1.523 . S
C2885 C2869 1.429 . S
C2885 C2881 1.429 . S
C2885 C2886 1.523 . S
C2886 C2870 1.368 . S
C2886 C2882 1.368 . S
C2886 C2885 1.523 . S
H2887 C2862 0.950 . S
H2888 C2864 0.950 . S
H2889 C2865 0.949 . S
H2890 C2867 0.950 . S
H2891 C2869 0.950 . S
C2892 C2893 1.349 . S
C2892 C2894 1.327 . S
C2892 H2917 0.950 . S
C2893 C2892 1.349 . S
C2893 C2909 1.349 . S
C2894 C2892 1.327 . S
C2894 C2913 1.429 . S
C2894 H2918 0.950 . S
C2895 C2912 1.574 1_556 S
C2895 C2914 1.368 . S
C2895 H2919 0.949 . S
H2896 C2900 0.949 . S
C2897 C2898 1.349 . S
C2897 C2899 1.327 . S
C2897 H2920 0.950 . S
C2898 C2897 1.349 . S
C2898 C2910 1.349 . S
C2899 C2897 1.327 . S
C2899 C2915 1.429 . S
C2899 H2921 0.950 . S
C2900 H2896 0.949 . S
C2900 C2908 1.574 1_554 S
C2900 C2916 1.368 . S
H2901 C2909 0.950 . S
H2902 C2907 0.950 . S
H2903 C2908 0.949 . S
H2904 C2910 0.950 . S
H2905 C2911 0.950 . S
H2906 C2912 0.949 . S
C2907 H2902 0.950 . S
C2907 C2909 1.327 . S
C2907 C2913 1.429 . S
C2908 C2900 1.574 1_556 S
C2908 H2903 0.949 . S
C2908 C2914 1.368 . S
C2909 C2893 1.349 . S
C2909 H2901 0.950 . S
C2909 C2907 1.327 . S
C2910 C2898 1.349 . S
C2910 H2904 0.950 . S
C2910 C2911 1.327 . S
C2911 H2905 0.950 . S
C2911 C2910 1.327 . S
C2911 C2915 1.429 . S
C2912 C2895 1.574 1_554 S
C2912 H2906 0.949 . S
C2912 C2916 1.368 . S
C2913 C2894 1.429 . S
C2913 C2907 1.429 . S
C2913 C2914 1.523 . S
C2914 C2895 1.368 . S
C2914 C2908 1.368 . S
C2914 C2913 1.523 . S
C2915 C2899 1.429 . S
C2915 C2911 1.429 . S
C2915 C2916 1.523 . S
C2916 C2900 1.368 . S
C2916 C2912 1.368 . S
C2916 C2915 1.523 . S
H2917 C2892 0.950 . S
H2918 C2894 0.950 . S
H2919 C2895 0.949 . S
H2920 C2897 0.950 . S
H2921 C2899 0.950 . S
C2922 C2923 1.349 . S
C2922 C2924 1.327 . S
C2922 H2947 0.950 . S
C2923 C2922 1.349 . S
C2923 C2939 1.349 . S
C2924 C2922 1.327 . S
C2924 C2943 1.429 . S
C2924 H2948 0.950 . S
C2925 C2942 1.574 1_554 S
C2925 C2944 1.368 . S
C2925 H2949 0.949 . S
H2926 C2930 0.949 . S
C2927 C2928 1.349 . S
C2927 C2929 1.327 . S
C2927 H2950 0.950 . S
C2928 C2927 1.349 . S
C2928 C2940 1.349 . S
C2929 C2927 1.327 . S
C2929 C2945 1.429 . S
C2929 H2951 0.950 . S
C2930 H2926 0.949 . S
C2930 C2938 1.574 1_556 S
C2930 C2946 1.368 . S
H2931 C2939 0.950 . S
H2932 C2937 0.950 . S
H2933 C2938 0.949 . S
H2934 C2940 0.950 . S
H2935 C2941 0.950 . S
H2936 C2942 0.949 . S
C2937 H2932 0.950 . S
C2937 C2939 1.327 . S
C2937 C2943 1.429 . S
C2938 C2930 1.574 1_554 S
C2938 H2933 0.949 . S
C2938 C2944 1.368 . S
C2939 C2923 1.349 . S
C2939 H2931 0.950 . S
C2939 C2937 1.327 . S
C2940 C2928 1.349 . S
C2940 H2934 0.950 . S
C2940 C2941 1.327 . S
C2941 H2935 0.950 . S
C2941 C2940 1.327 . S
C2941 C2945 1.429 . S
C2942 C2925 1.574 1_556 S
C2942 H2936 0.949 . S
C2942 C2946 1.368 . S
C2943 C2924 1.429 . S
C2943 C2937 1.429 . S
C2943 C2944 1.523 . S
C2944 C2925 1.368 . S
C2944 C2938 1.368 . S
C2944 C2943 1.523 . S
C2945 C2929 1.429 . S
C2945 C2941 1.429 . S
C2945 C2946 1.523 . S
C2946 C2930 1.368 . S
C2946 C2942 1.368 . S
C2946 C2945 1.523 . S
H2947 C2922 0.950 . S
H2948 C2924 0.950 . S
H2949 C2925 0.949 . S
H2950 C2927 0.950 . S
H2951 C2929 0.950 . S
C2952 C2953 1.349 . S
C2952 C2954 1.327 . S
C2952 H2977 0.950 . S
C2953 C2952 1.349 . S
C2953 C2969 1.349 . S
C2954 C2952 1.327 . S
C2954 C2973 1.429 . S
C2954 H2978 0.950 . S
C2955 C2972 1.574 . S
C2955 C2974 1.368 1_655 S
C2955 H2979 0.949 . S
H2956 C2960 0.949 . S
C2957 C2958 1.349 . S
C2957 C2959 1.327 . S
C2957 H2980 0.950 . S
C2958 C2957 1.349 . S
C2958 C2970 1.349 . S
C2959 C2957 1.327 . S
C2959 C2975 1.429 . S
C2959 H2981 0.950 . S
C2960 H2956 0.949 . S
C2960 C2968 1.574 . S
C2960 C2976 1.368 1_455 S
H2961 C2969 0.950 . S
H2962 C2967 0.950 . S
H2963 C2968 0.949 . S
H2964 C2970 0.950 . S
H2965 C2971 0.950 . S
H2966 C2972 0.949 . S
C2967 H2962 0.950 . S
C2967 C2969 1.327 . S
C2967 C2973 1.429 . S
C2968 C2960 1.574 . S
C2968 H2963 0.949 . S
C2968 C2974 1.368 . S
C2969 C2953 1.349 . S
C2969 H2961 0.950 . S
C2969 C2967 1.327 . S
C2970 C2958 1.349 . S
C2970 H2964 0.950 . S
C2970 C2971 1.327 . S
C2971 H2965 0.950 . S
C2971 C2970 1.327 . S
C2971 C2975 1.429 . S
C2972 C2955 1.574 . S
C2972 H2966 0.949 . S
C2972 C2976 1.368 . S
C2973 C2954 1.429 . S
C2973 C2967 1.429 . S
C2973 C2974 1.523 . S
C2974 C2955 1.368 1_455 S
C2974 C2968 1.368 . S
C2974 C2973 1.523 . S
C2975 C2959 1.429 . S
C2975 C2971 1.429 . S
C2975 C2976 1.523 . S
C2976 C2960 1.368 1_655 S
C2976 C2972 1.368 . S
C2976 C2975 1.523 . S
H2977 C2952 0.950 . S
H2978 C2954 0.950 . S
H2979 C2955 0.949 . S
H2980 C2957 0.950 . S
H2981 C2959 0.950 . S
C2982 C2983 1.349 . S
C2982 C2984 1.327 . S
C2982 H3007 0.950 . S
C2983 C2982 1.349 . S
C2983 C2999 1.349 . S
C2984 C2982 1.327 . S
C2984 C3003 1.429 . S
C2984 H3008 0.950 . S
C2985 C3002 1.574 . S
C2985 C3004 1.368 . S
C2985 H3009 0.949 . S
H2986 C2990 0.949 . S
C2987 C2988 1.349 . S
C2987 C2989 1.327 . S
C2987 H3010 0.950 . S
C2988 C2987 1.349 . S
C2988 C3000 1.349 . S
C2989 C2987 1.327 . S
C2989 C3005 1.429 . S
C2989 H3011 0.950 . S
C2990 H2986 0.949 . S
C2990 C2998 1.574 . S
C2990 C3006 1.368 . S
H2991 C2999 0.950 . S
H2992 C2997 0.950 . S
H2993 C2998 0.949 . S
H2994 C3000 0.950 . S
H2995 C3001 0.950 . S
H2996 C3002 0.949 . S
C2997 H2992 0.950 . S
C2997 C2999 1.327 . S
C2997 C3003 1.429 . S
C2998 C2990 1.574 . S
C2998 H2993 0.949 . S
C2998 C3004 1.368 . S
C2999 C2983 1.349 . S
C2999 H2991 0.950 . S
C2999 C2997 1.327 . S
C3000 C2988 1.349 . S
C3000 H2994 0.950 . S
C3000 C3001 1.327 . S
C3001 H2995 0.950 . S
C3001 C3000 1.327 . S
C3001 C3005 1.429 . S
C3002 C2985 1.574 . S
C3002 H2996 0.949 . S
C3002 C3006 1.368 . S
C3003 C2984 1.429 . S
C3003 C2997 1.429 . S
C3003 C3004 1.523 . S
C3004 C2985 1.368 . S
C3004 C2998 1.368 . S
C3004 C3003 1.523 . S
C3005 C2989 1.429 . S
C3005 C3001 1.429 . S
C3005 C3006 1.523 . S
C3006 C2990 1.368 . S
C3006 C3002 1.368 . S
C3006 C3005 1.523 . S
H3007 C2982 0.950 . S
H3008 C2984 0.950 . S
H3009 C2985 0.949 . S
H3010 C2987 0.950 . S
H3011 C2989 0.950 . S
C3012 C3013 1.349 . S
C3012 C3014 1.327 . S
C3012 H3037 0.950 . S
C3013 C3012 1.349 . S
C3013 C3029 1.349 . S
C3014 C3012 1.327 . S
C3014 C3033 1.429 . S
C3014 H3038 0.950 . S
C3015 C3032 1.574 . S
C3015 C3034 1.368 . S
C3015 H3039 0.949 . S
H3016 C3020 0.949 . S
C3017 C3018 1.349 . S
C3017 C3019 1.327 . S
C3017 H3040 0.950 . S
C3018 C3017 1.349 . S
C3018 C3030 1.349 . S
C3019 C3017 1.327 . S
C3019 C3035 1.429 . S
C3019 H3041 0.950 . S
C3020 H3016 0.949 . S
C3020 C3028 1.574 . S
C3020 C3036 1.368 . S
H3021 C3029 0.950 . S
H3022 C3027 0.950 . S
H3023 C3028 0.949 . S
H3024 C3030 0.950 . S
H3025 C3031 0.950 . S
H3026 C3032 0.949 . S
C3027 H3022 0.950 . S
C3027 C3029 1.327 . S
C3027 C3033 1.429 . S
C3028 C3020 1.574 . S
C3028 H3023 0.949 . S
C3028 C3034 1.368 1_545 S
C3029 C3013 1.349 . S
C3029 H3021 0.950 . S
C3029 C3027 1.327 . S
C3030 C3018 1.349 . S
C3030 H3024 0.950 . S
C3030 C3031 1.327 . S
C3031 H3025 0.950 . S
C3031 C3030 1.327 . S
C3031 C3035 1.429 . S
C3032 C3015 1.574 . S
C3032 H3026 0.949 . S
C3032 C3036 1.368 1_565 S
C3033 C3014 1.429 . S
C3033 C3027 1.429 . S
C3033 C3034 1.523 . S
C3034 C3015 1.368 . S
C3034 C3028 1.368 1_565 S
C3034 C3033 1.523 . S
C3035 C3019 1.429 . S
C3035 C3031 1.429 . S
C3035 C3036 1.523 . S
C3036 C3020 1.368 . S
C3036 C3032 1.368 1_545 S
C3036 C3035 1.523 . S
H3037 C3012 0.950 . S
H3038 C3014 0.950 . S
H3039 C3015 0.949 . S
H3040 C3017 0.950 . S
H3041 C3019 0.950 . S
C3042 C3043 1.349 . S
C3042 C3044 1.327 . S
C3042 H3067 0.950 . S
C3043 C3042 1.349 . S
C3043 C3059 1.349 . S
C3044 C3042 1.327 . S
C3044 C3063 1.429 . S
C3044 H3068 0.950 . S
C3045 C3062 1.574 1_455 S
C3045 C3064 1.368 . S
C3045 H3069 0.949 . S
H3046 C3050 0.949 . S
C3047 C3048 1.349 . S
C3047 C3049 1.327 . S
C3047 H3070 0.950 . S
C3048 C3047 1.349 . S
C3048 C3060 1.349 . S
C3049 C3047 1.327 . S
C3049 C3065 1.429 . S
C3049 H3071 0.950 . S
C3050 H3046 0.949 . S
C3050 C3058 1.574 1_655 S
C3050 C3066 1.368 . S
H3051 C3059 0.950 . S
H3052 C3057 0.950 . S
H3053 C3058 0.949 . S
H3054 C3060 0.950 . S
H3055 C3061 0.950 . S
H3056 C3062 0.949 . S
C3057 H3052 0.950 . S
C3057 C3059 1.327 . S
C3057 C3063 1.429 . S
C3058 C3050 1.574 1_455 S
C3058 H3053 0.949 . S
C3058 C3064 1.368 . S
C3059 C3043 1.349 . S
C3059 H3051 0.950 . S
C3059 C3057 1.327 . S
C3060 C3048 1.349 . S
C3060 H3054 0.950 . S
C3060 C3061 1.327 . S
C3061 H3055 0.950 . S
C3061 C3060 1.327 . S
C3061 C3065 1.429 . S
C3062 C3045 1.574 1_655 S
C3062 H3056 0.949 . S
C3062 C3066 1.368 . S
C3063 C3044 1.429 . S
C3063 C3057 1.429 . S
C3063 C3064 1.523 . S
C3064 C3045 1.368 . S
C3064 C3058 1.368 . S
C3064 C3063 1.523 . S
C3065 C3049 1.429 . S
C3065 C3061 1.429 . S
C3065 C3066 1.523 . S
C3066 C3050 1.368 . S
C3066 C3062 1.368 . S
C3066 C3065 1.523 . S
H3067 C3042 0.950 . S
H3068 C3044 0.950 . S
H3069 C3045 0.949 . S
H3070 C3047 0.950 . S
H3071 C3049 0.950 . S
C3072 C3073 1.349 . S
C3072 C3074 1.327 . S
C3072 H3097 0.950 . S
C3073 C3072 1.349 . S
C3073 C3089 1.349 . S
C3074 C3072 1.327 . S
C3074 C3093 1.429 . S
C3074 H3098 0.950 . S
C3075 C3092 1.574 . S
C3075 C3094 1.368 . S
C3075 H3099 0.949 . S
H3076 C3080 0.949 . S
C3077 C3078 1.349 . S
C3077 C3079 1.327 . S
C3077 H3100 0.950 . S
C3078 C3077 1.349 . S
C3078 C3090 1.349 . S
C3079 C3077 1.327 . S
C3079 C3095 1.429 . S
C3079 H3101 0.950 . S
C3080 H3076 0.949 . S
C3080 C3088 1.574 . S
C3080 C3096 1.368 . S
H3081 C3089 0.950 . S
H3082 C3087 0.950 . S
H3083 C3088 0.949 . S
H3084 C3090 0.950 . S
H3085 C3091 0.950 . S
H3086 C3092 0.949 . S
C3087 H3082 0.950 . S
C3087 C3089 1.327 . S
C3087 C3093 1.429 . S
C3088 C3080 1.574 . S
C3088 H3083 0.949 . S
C3088 C3094 1.368 . S
C3089 C3073 1.349 . S
C3089 H3081 0.950 . S
C3089 C3087 1.327 . S
C3090 C3078 1.349 . S
C3090 H3084 0.950 . S
C3090 C3091 1.327 . S
C3091 H3085 0.950 . S
C3091 C3090 1.327 . S
C3091 C3095 1.429 . S
C3092 C3075 1.574 . S
C3092 H3086 0.949 . S
C3092 C3096 1.368 . S
C3093 C3074 1.429 . S
C3093 C3087 1.429 . S
C3093 C3094 1.523 . S
C3094 C3075 1.368 . S
C3094 C3088 1.368 . S
C3094 C3093 1.523 . S
C3095 C3079 1.429 . S
C3095 C3091 1.429 . S
C3095 C3096 1.523 . S
C3096 C3080 1.368 . S
C3096 C3092 1.368 . S
C3096 C3095 1.523 . S
H3097 C3072 0.950 . S
H3098 C3074 0.950 . S
H3099 C3075 0.949 . S
H3100 C3077 0.950 . S
H3101 C3079 0.950 . S
C3102 C3103 1.349 . S
C3102 C3104 1.327 . S
C3102 H3127 0.950 . S
C3103 C3102 1.349 . S
C3103 C3119 1.349 . S
C3104 C3102 1.327 . S
C3104 C3123 1.429 . S
C3104 H3128 0.950 . S
C3105 C3122 1.574 . S
C3105 C3124 1.368 . S
C3105 H3129 0.949 . S
H3106 C3110 0.949 . S
C3107 C3108 1.349 . S
C3107 C3109 1.327 . S
C3107 H3130 0.950 . S
C3108 C3107 1.349 . S
C3108 C3120 1.349 . S
C3109 C3107 1.327 . S
C3109 C3125 1.429 . S
C3109 H3131 0.950 . S
C3110 H3106 0.949 . S
C3110 C3118 1.574 . S
C3110 C3126 1.368 . S
H3111 C3119 0.950 . S
H3112 C3117 0.950 . S
H3113 C3118 0.949 . S
H3114 C3120 0.950 . S
H3115 C3121 0.950 . S
H3116 C3122 0.949 . S
C3117 H3112 0.950 . S
C3117 C3119 1.327 . S
C3117 C3123 1.429 . S
C3118 C3110 1.574 . S
C3118 H3113 0.949 . S
C3118 C3124 1.368 1_545 S
C3119 C3103 1.349 . S
C3119 H3111 0.950 . S
C3119 C3117 1.327 . S
C3120 C3108 1.349 . S
C3120 H3114 0.950 . S
C3120 C3121 1.327 . S
C3121 H3115 0.950 . S
C3121 C3120 1.327 . S
C3121 C3125 1.429 . S
C3122 C3105 1.574 . S
C3122 H3116 0.949 . S
C3122 C3126 1.368 1_565 S
C3123 C3104 1.429 . S
C3123 C3117 1.429 . S
C3123 C3124 1.523 . S
C3124 C3105 1.368 . S
C3124 C3118 1.368 1_565 S
C3124 C3123 1.523 . S
C3125 C3109 1.429 . S
C3125 C3121 1.429 . S
C3125 C3126 1.523 . S
C3126 C3110 1.368 . S
C3126 C3122 1.368 1_545 S
C3126 C3125 1.523 . S
H3127 C3102 0.950 . S
H3128 C3104 0.950 . S
H3129 C3105 0.949 . S
H3130 C3107 0.950 . S
H3131 C3109 0.950 . S
C3132 C3133 1.349 . S
C3132 C3134 1.327 . S
C3132 H3157 0.950 . S
C3133 C3132 1.349 . S
C3133 C3149 1.349 . S
C3134 C3132 1.327 . S
C3134 C3153 1.429 . S
C3134 H3158 0.950 . S
C3135 C3152 1.574 . S
C3135 C3154 1.368 . S
C3135 H3159 0.949 . S
H3136 C3140 0.949 . S
C3137 C3138 1.349 . S
C3137 C3139 1.327 . S
C3137 H3160 0.950 . S
C3138 C3137 1.349 . S
C3138 C3150 1.349 . S
C3139 C3137 1.327 . S
C3139 C3155 1.429 . S
C3139 H3161 0.950 . S
C3140 H3136 0.949 . S
C3140 C3148 1.574 . S
C3140 C3156 1.368 . S
H3141 C3149 0.950 . S
H3142 C3147 0.950 . S
H3143 C3148 0.949 . S
H3144 C3150 0.950 . S
H3145 C3151 0.950 . S
H3146 C3152 0.949 . S
C3147 H3142 0.950 . S
C3147 C3149 1.327 . S
C3147 C3153 1.429 . S
C3148 C3140 1.574 . S
C3148 H3143 0.949 . S
C3148 C3154 1.368 . S
C3149 C3133 1.349 . S
C3149 H3141 0.950 . S
C3149 C3147 1.327 . S
C3150 C3138 1.349 . S
C3150 H3144 0.950 . S
C3150 C3151 1.327 . S
C3151 H3145 0.950 . S
C3151 C3150 1.327 . S
C3151 C3155 1.429 . S
C3152 C3135 1.574 . S
C3152 H3146 0.949 . S
C3152 C3156 1.368 . S
C3153 C3134 1.429 . S
C3153 C3147 1.429 . S
C3153 C3154 1.523 . S
C3154 C3135 1.368 . S
C3154 C3148 1.368 . S
C3154 C3153 1.523 . S
C3155 C3139 1.429 . S
C3155 C3151 1.429 . S
C3155 C3156 1.523 . S
C3156 C3140 1.368 . S
C3156 C3152 1.368 . S
C3156 C3155 1.523 . S
H3157 C3132 0.950 . S
H3158 C3134 0.950 . S
H3159 C3135 0.949 . S
H3160 C3137 0.950 . S
H3161 C3139 0.950 . S
C3162 C3163 1.349 . S
C3162 C3164 1.327 . S
C3162 H3187 0.950 . S
C3163 C3162 1.349 . S
C3163 C3179 1.349 . S
C3164 C3162 1.327 . S
C3164 C3183 1.429 . S
C3164 H3188 0.950 . S
C3165 C3182 1.574 . S
C3165 C3184 1.368 . S
C3165 H3189 0.949 . S
H3166 C3170 0.949 . S
C3167 C3168 1.349 . S
C3167 C3169 1.327 . S
C3167 H3190 0.950 . S
C3168 C3167 1.349 . S
C3168 C3180 1.349 . S
C3169 C3167 1.327 . S
C3169 C3185 1.429 . S
C3169 H3191 0.950 . S
C3170 H3166 0.949 . S
C3170 C3178 1.574 . S
C3170 C3186 1.368 . S
H3171 C3179 0.950 . S
H3172 C3177 0.950 . S
H3173 C3178 0.949 . S
H3174 C3180 0.950 . S
H3175 C3181 0.950 . S
H3176 C3182 0.949 . S
C3177 H3172 0.950 . S
C3177 C3179 1.327 . S
C3177 C3183 1.429 . S
C3178 C3170 1.574 . S
C3178 H3173 0.949 . S
C3178 C3184 1.368 . S
C3179 C3163 1.349 . S
C3179 H3171 0.950 . S
C3179 C3177 1.327 . S
C3180 C3168 1.349 . S
C3180 H3174 0.950 . S
C3180 C3181 1.327 . S
C3181 H3175 0.950 . S
C3181 C3180 1.327 . S
C3181 C3185 1.429 . S
C3182 C3165 1.574 . S
C3182 H3176 0.949 . S
C3182 C3186 1.368 . S
C3183 C3164 1.429 . S
C3183 C3177 1.429 . S
C3183 C3184 1.523 . S
C3184 C3165 1.368 . S
C3184 C3178 1.368 . S
C3184 C3183 1.523 . S
C3185 C3169 1.429 . S
C3185 C3181 1.429 . S
C3185 C3186 1.523 . S
C3186 C3170 1.368 . S
C3186 C3182 1.368 . S
C3186 C3185 1.523 . S
H3187 C3162 0.950 . S
H3188 C3164 0.950 . S
H3189 C3165 0.949 . S
H3190 C3167 0.950 . S
H3191 C3169 0.950 . S
C3192 C3193 1.349 . S
C3192 C3194 1.327 . S
C3192 H3217 0.950 . S
C3193 C3192 1.349 . S
C3193 C3209 1.349 . S
C3194 C3192 1.327 . S
C3194 C3213 1.429 . S
C3194 H3218 0.950 . S
C3195 C3212 1.574 . S
C3195 C3214 1.368 . S
C3195 H3219 0.949 . S
H3196 C3200 0.949 . S
C3197 C3198 1.349 . S
C3197 C3199 1.327 . S
C3197 H3220 0.950 . S
C3198 C3197 1.349 . S
C3198 C3210 1.349 . S
C3199 C3197 1.327 . S
C3199 C3215 1.429 . S
C3199 H3221 0.950 . S
C3200 H3196 0.949 . S
C3200 C3208 1.574 . S
C3200 C3216 1.368 . S
H3201 C3209 0.950 . S
H3202 C3207 0.950 . S
H3203 C3208 0.949 . S
H3204 C3210 0.950 . S
H3205 C3211 0.950 . S
H3206 C3212 0.949 . S
C3207 H3202 0.950 . S
C3207 C3209 1.327 . S
C3207 C3213 1.429 . S
C3208 C3200 1.574 . S
C3208 H3203 0.949 . S
C3208 C3214 1.368 . S
C3209 C3193 1.349 . S
C3209 H3201 0.950 . S
C3209 C3207 1.327 . S
C3210 C3198 1.349 . S
C3210 H3204 0.950 . S
C3210 C3211 1.327 . S
C3211 H3205 0.950 . S
C3211 C3210 1.327 . S
C3211 C3215 1.429 . S
C3212 C3195 1.574 . S
C3212 H3206 0.949 . S
C3212 C3216 1.368 . S
C3213 C3194 1.429 . S
C3213 C3207 1.429 . S
C3213 C3214 1.523 . S
C3214 C3195 1.368 . S
C3214 C3208 1.368 . S
C3214 C3213 1.523 . S
C3215 C3199 1.429 . S
C3215 C3211 1.429 . S
C3215 C3216 1.523 . S
C3216 C3200 1.368 . S
C3216 C3212 1.368 . S
C3216 C3215 1.523 . S
H3217 C3192 0.950 . S
H3218 C3194 0.950 . S
H3219 C3195 0.949 . S
H3220 C3197 0.950 . S
H3221 C3199 0.950 . S
C3222 C3223 1.349 . S
C3222 C3224 1.327 . S
C3222 H3247 0.950 . S
C3223 C3222 1.349 . S
C3223 C3239 1.349 . S
C3224 C3222 1.327 . S
C3224 C3243 1.429 . S
C3224 H3248 0.950 . S
C3225 C3242 1.574 . S
C3225 C3244 1.368 . S
C3225 H3249 0.949 . S
H3226 C3230 0.949 . S
C3227 C3228 1.349 1_554 S
C3227 C3229 1.327 . S
C3227 H3250 0.950 . S
C3228 C3227 1.349 1_556 S
C3228 C3240 1.349 . S
C3229 C3227 1.327 . S
C3229 C3245 1.429 . S
C3229 H3251 0.950 . S
C3230 H3226 0.949 . S
C3230 C3238 1.574 . S
C3230 C3246 1.368 . S
H3231 C3239 0.950 . S
H3232 C3237 0.950 . S
H3233 C3238 0.949 . S
H3234 C3240 0.950 . S
H3235 C3241 0.950 . S
H3236 C3242 0.949 . S
C3237 H3232 0.950 . S
C3237 C3239 1.327 . S
C3237 C3243 1.429 . S
C3238 C3230 1.574 . S
C3238 H3233 0.949 . S
C3238 C3244 1.368 . S
C3239 C3223 1.349 . S
C3239 H3231 0.950 . S
C3239 C3237 1.327 . S
C3240 C3228 1.349 . S
C3240 H3234 0.950 . S
C3240 C3241 1.327 . S
C3241 H3235 0.950 . S
C3241 C3240 1.327 . S
C3241 C3245 1.429 1_556 S
C3242 C3225 1.574 . S
C3242 H3236 0.949 . S
C3242 C3246 1.368 . S
C3243 C3224 1.429 . S
C3243 C3237 1.429 . S
C3243 C3244 1.523 . S
C3244 C3225 1.368 . S
C3244 C3238 1.368 . S
C3244 C3243 1.523 . S
C3245 C3229 1.429 . S
C3245 C3241 1.429 1_554 S
C3245 C3246 1.523 . S
C3246 C3230 1.368 . S
C3246 C3242 1.368 . S
C3246 C3245 1.523 . S
H3247 C3222 0.950 . S
H3248 C3224 0.950 . S
H3249 C3225 0.949 . S
H3250 C3227 0.950 . S
H3251 C3229 0.950 . S
C3252 C3253 1.349 . S
C3252 C3254 1.327 . S
C3252 H3277 0.950 . S
C3253 C3252 1.349 . S
C3253 C3269 1.349 . S
C3254 C3252 1.327 . S
C3254 C3273 1.429 . S
C3254 H3278 0.950 . S
C3255 C3272 1.574 . S
C3255 C3274 1.368 . S
C3255 H3279 0.949 . S
H3256 C3260 0.949 . S
C3257 C3258 1.349 . S
C3257 C3259 1.327 . S
C3257 H3280 0.950 . S
C3258 C3257 1.349 . S
C3258 C3270 1.329 1_556 S
C3259 C3257 1.327 . S
C3259 C3275 1.429 1_556 S
C3259 H3281 0.950 . S
C3260 H3256 0.949 . S
C3260 C3268 1.574 . S
C3260 C3276 1.368 . S
H3261 C3269 0.950 . S
H3262 C3267 0.950 . S
H3263 C3268 0.949 . S
H3264 C3270 0.952 . S
H3265 C3271 0.950 . S
H3266 C3272 0.949 . S
C3267 H3262 0.950 . S
C3267 C3269 1.327 . S
C3267 C3273 1.429 . S
C3268 C3260 1.574 . S
C3268 H3263 0.949 . S
C3268 C3274 1.368 . S
C3269 C3253 1.349 . S
C3269 H3261 0.950 . S
C3269 C3267 1.327 . S
C3270 C3258 1.329 1_554 S
C3270 H3264 0.952 . S
C3270 C3271 1.346 . S
C3271 H3265 0.950 . S
C3271 C3270 1.346 . S
C3271 C3275 1.429 . S
C3272 C3255 1.574 . S
C3272 H3266 0.949 . S
C3272 C3276 1.368 . S
C3273 C3254 1.429 . S
C3273 C3267 1.429 . S
C3273 C3274 1.523 . S
C3274 C3255 1.368 . S
C3274 C3268 1.368 . S
C3274 C3273 1.523 . S
C3275 C3259 1.429 1_554 S
C3275 C3271 1.429 . S
C3275 C3276 1.523 . S
C3276 C3260 1.368 . S
C3276 C3272 1.368 . S
C3276 C3275 1.523 . S
H3277 C3252 0.950 . S
H3278 C3254 0.950 . S
H3279 C3255 0.949 . S
H3280 C3257 0.950 . S
H3281 C3259 0.950 . S
C3282 C3283 1.349 . S
C3282 C3284 1.327 . S
C3282 H3307 0.950 . S
C3283 C3282 1.349 . S
C3283 C3299 1.349 . S
C3284 C3282 1.327 . S
C3284 C3303 1.429 . S
C3284 H3308 0.950 . S
C3285 C3302 1.574 . S
C3285 C3304 1.368 . S
C3285 H3309 0.949 . S
H3286 C3290 0.949 . S
C3287 C3288 1.349 1_554 S
C3287 C3289 1.327 . S
C3287 H3310 0.950 . S
C3288 C3287 1.349 1_556 S
C3288 C3300 1.349 . S
C3289 C3287 1.327 . S
C3289 C3305 1.429 . S
C3289 H3311 0.950 . S
C3290 H3286 0.949 . S
C3290 C3298 1.574 . S
C3290 C3306 1.368 . S
H3291 C3299 0.950 . S
H3292 C3297 0.950 . S
H3293 C3298 0.949 . S
H3294 C3300 0.950 . S
H3295 C3301 0.950 . S
H3296 C3302 0.949 . S
C3297 H3292 0.950 . S
C3297 C3299 1.327 . S
C3297 C3303 1.429 . S
C3298 C3290 1.574 . S
C3298 H3293 0.949 . S
C3298 C3304 1.368 . S
C3299 C3283 1.349 . S
C3299 H3291 0.950 . S
C3299 C3297 1.327 . S
C3300 C3288 1.349 . S
C3300 H3294 0.950 . S
C3300 C3301 1.327 . S
C3301 H3295 0.950 . S
C3301 C3300 1.327 . S
C3301 C3305 1.429 1_556 S
C3302 C3285 1.574 . S
C3302 H3296 0.949 . S
C3302 C3306 1.368 . S
C3303 C3284 1.429 . S
C3303 C3297 1.429 . S
C3303 C3304 1.523 . S
C3304 C3285 1.368 . S
C3304 C3298 1.368 . S
C3304 C3303 1.523 . S
C3305 C3289 1.429 . S
C3305 C3301 1.429 1_554 S
C3305 C3306 1.523 . S
C3306 C3290 1.368 . S
C3306 C3302 1.368 . S
C3306 C3305 1.523 . S
H3307 C3282 0.950 . S
H3308 C3284 0.950 . S
H3309 C3285 0.949 . S
H3310 C3287 0.950 . S
H3311 C3289 0.950 . S
C3312 C3313 1.349 . S
C3312 C3314 1.327 . S
C3312 H3337 0.950 . S
C3313 C3312 1.349 . S
C3313 C3329 1.349 . S
C3314 C3312 1.327 . S
C3314 C3333 1.429 . S
C3314 H3338 0.950 . S
C3315 C3332 1.574 . S
C3315 C3334 1.368 . S
C3315 H3339 0.949 . S
H3316 C3320 0.949 . S
C3317 C3318 1.349 . S
C3317 C3319 1.327 1_554 S
C3317 H3340 0.950 . S
C3318 C3317 1.349 . S
C3318 C3330 1.349 . S
C3319 C3317 1.327 1_556 S
C3319 C3335 1.429 . S
C3319 H3341 0.950 . S
C3320 H3316 0.949 . S
C3320 C3328 1.574 . S
C3320 C3336 1.368 . S
H3321 C3329 0.950 . S
H3322 C3327 0.950 . S
H3323 C3328 0.949 . S
H3324 C3330 0.950 . S
H3325 C3331 0.950 . S
H3326 C3332 0.949 . S
C3327 H3322 0.950 . S
C3327 C3329 1.327 . S
C3327 C3333 1.429 . S
C3328 C3320 1.574 . S
C3328 H3323 0.949 . S
C3328 C3334 1.368 . S
C3329 C3313 1.349 . S
C3329 H3321 0.950 . S
C3329 C3327 1.327 . S
C3330 C3318 1.349 . S
C3330 H3324 0.950 . S
C3330 C3331 1.327 1_554 S
C3331 H3325 0.950 . S
C3331 C3330 1.327 1_556 S
C3331 C3335 1.429 . S
C3332 C3315 1.574 . S
C3332 H3326 0.949 . S
C3332 C3336 1.368 . S
C3333 C3314 1.429 . S
C3333 C3327 1.429 . S
C3333 C3334 1.523 . S
C3334 C3315 1.368 . S
C3334 C3328 1.368 . S
C3334 C3333 1.523 . S
C3335 C3319 1.429 . S
C3335 C3331 1.429 . S
C3335 C3336 1.523 . S
C3336 C3320 1.368 . S
C3336 C3332 1.368 . S
C3336 C3335 1.523 . S
H3337 C3312 0.950 . S
H3338 C3314 0.950 . S
H3339 C3315 0.949 . S
H3340 C3317 0.950 . S
H3341 C3319 0.950 . S
C3342 C3343 1.349 . S
C3342 C3344 1.327 1_554 S
C3342 H3367 0.950 . S
C3343 C3342 1.349 . S
C3343 C3359 1.349 . S
C3344 C3342 1.327 1_556 S
C3344 C3363 1.429 . S
C3344 H3368 0.950 . S
C3345 C3362 1.574 . S
C3345 C3364 1.368 . S
C3345 H3369 0.949 . S
H3346 C3350 0.949 . S
C3347 C3348 1.349 . S
C3347 C3349 1.327 . S
C3347 H3370 0.950 . S
C3348 C3347 1.349 . S
C3348 C3360 1.349 . S
C3349 C3347 1.327 . S
C3349 C3365 1.429 . S
C3349 H3371 0.950 . S
C3350 H3346 0.949 . S
C3350 C3358 1.574 . S
C3350 C3366 1.368 . S
H3351 C3359 0.950 . S
H3352 C3357 0.950 . S
H3353 C3358 0.949 . S
H3354 C3360 0.950 . S
H3355 C3361 0.950 . S
H3356 C3362 0.949 . S
C3357 H3352 0.950 . S
C3357 C3359 1.327 1_556 S
C3357 C3363 1.429 . S
C3358 C3350 1.574 . S
C3358 H3353 0.949 . S
C3358 C3364 1.368 . S
C3359 C3343 1.349 . S
C3359 H3351 0.950 . S
C3359 C3357 1.327 1_554 S
C3360 C3348 1.349 . S
C3360 H3354 0.950 . S
C3360 C3361 1.327 . S
C3361 H3355 0.950 . S
C3361 C3360 1.327 . S
C3361 C3365 1.429 . S
C3362 C3345 1.574 . S
C3362 H3356 0.949 . S
C3362 C3366 1.368 . S
C3363 C3344 1.429 . S
C3363 C3357 1.429 . S
C3363 C3364 1.523 . S
C3364 C3345 1.368 . S
C3364 C3358 1.368 . S
C3364 C3363 1.523 . S
C3365 C3349 1.429 . S
C3365 C3361 1.429 . S
C3365 C3366 1.523 . S
C3366 C3350 1.368 . S
C3366 C3362 1.368 . S
C3366 C3365 1.523 . S
H3367 C3342 0.950 . S
H3368 C3344 0.950 . S
H3369 C3345 0.949 . S
H3370 C3347 0.950 . S
H3371 C3349 0.950 . S
C3372 C3373 1.349 1_556 S
C3372 C3374 1.327 . S
C3372 H3397 0.950 . S
C3373 C3372 1.349 1_554 S
C3373 C3389 1.349 . S
C3374 C3372 1.327 . S
C3374 C3393 1.429 . S
C3374 H3398 0.950 . S
C3375 C3392 1.574 . S
C3375 C3394 1.368 . S
C3375 H3399 0.949 . S
H3376 C3380 0.949 . S
C3377 C3378 1.349 . S
C3377 C3379 1.327 . S
C3377 H3400 0.950 . S
C3378 C3377 1.349 . S
C3378 C3390 1.349 . S
C3379 C3377 1.327 . S
C3379 C3395 1.429 . S
C3379 H3401 0.950 . S
C3380 H3376 0.949 . S
C3380 C3388 1.574 . S
C3380 C3396 1.368 . S
H3381 C3389 0.950 . S
H3382 C3387 0.950 . S
H3383 C3388 0.949 . S
H3384 C3390 0.950 . S
H3385 C3391 0.950 . S
H3386 C3392 0.949 . S
C3387 H3382 0.950 . S
C3387 C3389 1.327 . S
C3387 C3393 1.429 1_554 S
C3388 C3380 1.574 . S
C3388 H3383 0.949 . S
C3388 C3394 1.368 . S
C3389 C3373 1.349 . S
C3389 H3381 0.950 . S
C3389 C3387 1.327 . S
C3390 C3378 1.349 . S
C3390 H3384 0.950 . S
C3390 C3391 1.327 . S
C3391 H3385 0.950 . S
C3391 C3390 1.327 . S
C3391 C3395 1.429 . S
C3392 C3375 1.574 . S
C3392 H3386 0.949 . S
C3392 C3396 1.368 . S
C3393 C3374 1.429 . S
C3393 C3387 1.429 1_556 S
C3393 C3394 1.523 . S
C3394 C3375 1.368 . S
C3394 C3388 1.368 . S
C3394 C3393 1.523 . S
C3395 C3379 1.429 . S
C3395 C3391 1.429 . S
C3395 C3396 1.523 . S
C3396 C3380 1.368 . S
C3396 C3392 1.368 . S
C3396 C3395 1.523 . S
H3397 C3372 0.950 . S
H3398 C3374 0.950 . S
H3399 C3375 0.949 . S
H3400 C3377 0.950 . S
H3401 C3379 0.950 . S
C3402 C3403 1.349 . S
C3402 C3404 1.327 . S
C3402 H3427 0.950 . S
C3403 C3402 1.349 . S
C3403 C3419 1.349 . S
C3404 C3402 1.327 . S
C3404 C3423 1.429 . S
C3404 H3428 0.950 . S
C3405 C3422 1.574 . S
C3405 C3424 1.368 . S
C3405 H3429 0.949 . S
H3406 C3410 0.949 . S
C3407 C3408 1.349 . S
C3407 C3409 1.327 . S
C3407 H3430 0.950 . S
C3408 C3407 1.349 . S
C3408 C3420 1.349 . S
C3409 C3407 1.327 . S
C3409 C3425 1.429 . S
C3409 H3431 0.950 . S
C3410 H3406 0.949 . S
C3410 C3418 1.574 . S
C3410 C3426 1.368 . S
H3411 C3419 0.950 . S
H3412 C3417 0.950 . S
H3413 C3418 0.949 . S
H3414 C3420 0.950 . S
H3415 C3421 0.950 . S
H3416 C3422 0.949 . S
C3417 H3412 0.950 . S
C3417 C3419 1.327 . S
C3417 C3423 1.429 . S
C3418 C3410 1.574 . S
C3418 H3413 0.949 . S
C3418 C3424 1.368 . S
C3419 C3403 1.349 . S
C3419 H3411 0.950 . S
C3419 C3417 1.327 . S
C3420 C3408 1.349 . S
C3420 H3414 0.950 . S
C3420 C3421 1.327 . S
C3421 H3415 0.950 . S
C3421 C3420 1.327 . S
C3421 C3425 1.429 . S
C3422 C3405 1.574 . S
C3422 H3416 0.949 . S
C3422 C3426 1.368 . S
C3423 C3404 1.429 . S
C3423 C3417 1.429 . S
C3423 C3424 1.523 . S
C3424 C3405 1.368 . S
C3424 C3418 1.368 . S
C3424 C3423 1.523 . S
C3425 C3409 1.429 . S
C3425 C3421 1.429 . S
C3425 C3426 1.523 . S
C3426 C3410 1.368 . S
C3426 C3422 1.368 . S
C3426 C3425 1.523 . S
H3427 C3402 0.950 . S
H3428 C3404 0.950 . S
H3429 C3405 0.949 . S
H3430 C3407 0.950 . S
H3431 C3409 0.950 . S
C3432 C3433 1.349 . S
C3432 C3434 1.327 . S
C3432 H3457 0.950 . S
C3433 C3432 1.349 . S
C3433 C3449 1.349 . S
C3434 C3432 1.327 . S
C3434 C3453 1.429 . S
C3434 H3458 0.950 . S
C3435 C3452 1.574 . S
C3435 C3454 1.368 . S
C3435 H3459 0.949 . S
H3436 C3440 0.949 . S
C3437 C3438 1.349 . S
C3437 C3439 1.327 . S
C3437 H3460 0.950 . S
C3438 C3437 1.349 . S
C3438 C3450 1.349 . S
C3439 C3437 1.327 . S
C3439 C3455 1.429 . S
C3439 H3461 0.950 . S
C3440 H3436 0.949 . S
C3440 C3448 1.574 . S
C3440 C3456 1.368 . S
H3441 C3449 0.950 . S
H3442 C3447 0.950 . S
H3443 C3448 0.949 . S
H3444 C3450 0.950 . S
H3445 C3451 0.950 . S
H3446 C3452 0.949 . S
C3447 H3442 0.950 . S
C3447 C3449 1.327 . S
C3447 C3453 1.429 . S
C3448 C3440 1.574 . S
C3448 H3443 0.949 . S
C3448 C3454 1.368 . S
C3449 C3433 1.349 . S
C3449 H3441 0.950 . S
C3449 C3447 1.327 . S
C3450 C3438 1.349 . S
C3450 H3444 0.950 . S
C3450 C3451 1.327 . S
C3451 H3445 0.950 . S
C3451 C3450 1.327 . S
C3451 C3455 1.429 . S
C3452 C3435 1.574 . S
C3452 H3446 0.949 . S
C3452 C3456 1.368 . S
C3453 C3434 1.429 . S
C3453 C3447 1.429 . S
C3453 C3454 1.523 . S
C3454 C3435 1.368 . S
C3454 C3448 1.368 . S
C3454 C3453 1.523 . S
C3455 C3439 1.429 . S
C3455 C3451 1.429 . S
C3455 C3456 1.523 . S
C3456 C3440 1.368 . S
C3456 C3452 1.368 . S
C3456 C3455 1.523 . S
H3457 C3432 0.950 . S
H3458 C3434 0.950 . S
H3459 C3435 0.949 . S
H3460 C3437 0.950 . S
H3461 C3439 0.950 . S
C3462 C3463 1.349 . S
C3462 C3464 1.327 . S
C3462 H3487 0.950 . S
C3463 C3462 1.349 . S
C3463 C3479 1.349 . S
C3464 C3462 1.327 . S
C3464 C3483 1.429 . S
C3464 H3488 0.950 . S
C3465 C3482 1.574 . S
C3465 C3484 1.368 . S
C3465 H3489 0.949 . S
H3466 C3470 0.949 . S
C3467 C3468 1.349 . S
C3467 C3469 1.327 . S
C3467 H3490 0.950 . S
C3468 C3467 1.349 . S
C3468 C3480 1.349 . S
C3469 C3467 1.327 . S
C3469 C3485 1.429 . S
C3469 H3491 0.950 . S
C3470 H3466 0.949 . S
C3470 C3478 1.574 . S
C3470 C3486 1.368 . S
H3471 C3479 0.950 . S
H3472 C3477 0.950 . S
H3473 C3478 0.949 . S
H3474 C3480 0.950 . S
H3475 C3481 0.950 . S
H3476 C3482 0.949 . S
C3477 H3472 0.950 . S
C3477 C3479 1.327 . S
C3477 C3483 1.429 . S
C3478 C3470 1.574 . S
C3478 H3473 0.949 . S
C3478 C3484 1.368 . S
C3479 C3463 1.349 . S
C3479 H3471 0.950 . S
C3479 C3477 1.327 . S
C3480 C3468 1.349 . S
C3480 H3474 0.950 . S
C3480 C3481 1.327 . S
C3481 H3475 0.950 . S
C3481 C3480 1.327 . S
C3481 C3485 1.429 . S
C3482 C3465 1.574 . S
C3482 H3476 0.949 . S
C3482 C3486 1.368 . S
C3483 C3464 1.429 . S
C3483 C3477 1.429 . S
C3483 C3484 1.523 . S
C3484 C3465 1.368 . S
C3484 C3478 1.368 . S
C3484 C3483 1.523 . S
C3485 C3469 1.429 . S
C3485 C3481 1.429 . S
C3485 C3486 1.523 . S
C3486 C3470 1.368 . S
C3486 C3482 1.368 . S
C3486 C3485 1.523 . S
H3487 C3462 0.950 . S
H3488 C3464 0.950 . S
H3489 C3465 0.949 . S
H3490 C3467 0.950 . S
H3491 C3469 0.950 . S
C3492 C3493 1.349 . S
C3492 C3494 1.327 . S
C3492 H3517 0.950 . S
C3493 C3492 1.349 . S
C3493 C3509 1.349 . S
C3494 C3492 1.327 . S
C3494 C3513 1.429 . S
C3494 H3518 0.950 . S
C3495 C3512 1.574 . S
C3495 C3514 1.368 . S
C3495 H3519 0.949 . S
H3496 C3500 0.949 . S
C3497 C3498 1.349 . S
C3497 C3499 1.327 . S
C3497 H3520 0.950 . S
C3498 C3497 1.349 . S
C3498 C3510 1.349 . S
C3499 C3497 1.327 . S
C3499 C3515 1.429 . S
C3499 H3521 0.950 . S
C3500 H3496 0.949 . S
C3500 C3508 1.574 . S
C3500 C3516 1.368 . S
H3501 C3509 0.950 . S
H3502 C3507 0.950 . S
H3503 C3508 0.949 . S
H3504 C3510 0.950 . S
H3505 C3511 0.950 . S
H3506 C3512 0.949 . S
C3507 H3502 0.950 . S
C3507 C3509 1.327 . S
C3507 C3513 1.429 . S
C3508 C3500 1.574 . S
C3508 H3503 0.949 . S
C3508 C3514 1.368 . S
C3509 C3493 1.349 . S
C3509 H3501 0.950 . S
C3509 C3507 1.327 . S
C3510 C3498 1.349 . S
C3510 H3504 0.950 . S
C3510 C3511 1.327 . S
C3511 H3505 0.950 . S
C3511 C3510 1.327 . S
C3511 C3515 1.429 . S
C3512 C3495 1.574 . S
C3512 H3506 0.949 . S
C3512 C3516 1.368 . S
C3513 C3494 1.429 . S
C3513 C3507 1.429 . S
C3513 C3514 1.523 . S
C3514 C3495 1.368 . S
C3514 C3508 1.368 . S
C3514 C3513 1.523 . S
C3515 C3499 1.429 . S
C3515 C3511 1.429 . S
C3515 C3516 1.523 . S
C3516 C3500 1.368 . S
C3516 C3512 1.368 . S
C3516 C3515 1.523 . S
H3517 C3492 0.950 . S
H3518 C3494 0.950 . S
H3519 C3495 0.949 . S
H3520 C3497 0.950 . S
H3521 C3499 0.950 . S
C3522 C3523 1.349 . S
C3522 C3524 1.327 . S
C3522 H3547 0.950 . S
C3523 C3522 1.349 . S
C3523 C3539 1.349 . S
C3524 C3522 1.327 . S
C3524 C3543 1.429 . S
C3524 H3548 0.950 . S
C3525 C3542 1.574 . S
C3525 C3544 1.368 . S
C3525 H3549 0.949 . S
H3526 C3530 0.949 . S
C3527 C3528 1.349 . S
C3527 C3529 1.327 . S
C3527 H3550 0.950 . S
C3528 C3527 1.349 . S
C3528 C3540 1.349 . S
C3529 C3527 1.327 . S
C3529 C3545 1.429 . S
C3529 H3551 0.950 . S
C3530 H3526 0.949 . S
C3530 C3538 1.574 . S
C3530 C3546 1.368 . S
H3531 C3539 0.950 . S
H3532 C3537 0.950 . S
H3533 C3538 0.949 . S
H3534 C3540 0.950 . S
H3535 C3541 0.950 . S
H3536 C3542 0.949 . S
C3537 H3532 0.950 . S
C3537 C3539 1.327 . S
C3537 C3543 1.429 . S
C3538 C3530 1.574 . S
C3538 H3533 0.949 . S
C3538 C3544 1.368 . S
C3539 C3523 1.349 . S
C3539 H3531 0.950 . S
C3539 C3537 1.327 . S
C3540 C3528 1.349 . S
C3540 H3534 0.950 . S
C3540 C3541 1.327 . S
C3541 H3535 0.950 . S
C3541 C3540 1.327 . S
C3541 C3545 1.429 . S
C3542 C3525 1.574 . S
C3542 H3536 0.949 . S
C3542 C3546 1.368 . S
C3543 C3524 1.429 . S
C3543 C3537 1.429 . S
C3543 C3544 1.523 . S
C3544 C3525 1.368 . S
C3544 C3538 1.368 . S
C3544 C3543 1.523 . S
C3545 C3529 1.429 . S
C3545 C3541 1.429 . S
C3545 C3546 1.523 . S
C3546 C3530 1.368 . S
C3546 C3542 1.368 . S
C3546 C3545 1.523 . S
H3547 C3522 0.950 . S
H3548 C3524 0.950 . S
H3549 C3525 0.949 . S
H3550 C3527 0.950 . S
H3551 C3529 0.950 . S
C3552 C3553 1.349 . S
C3552 C3554 1.327 . S
C3552 H3577 0.950 . S
C3553 C3552 1.349 . S
C3553 C3569 1.349 . S
C3554 C3552 1.327 . S
C3554 C3573 1.429 . S
C3554 H3578 0.950 . S
C3555 C3572 1.574 . S
C3555 C3574 1.368 . S
C3555 H3579 0.949 . S
H3556 C3560 0.949 . S
C3557 C3558 1.349 . S
C3557 C3559 1.327 . S
C3557 H3580 0.950 . S
C3558 C3557 1.349 . S
C3558 C3570 1.349 . S
C3559 C3557 1.327 . S
C3559 C3575 1.429 . S
C3559 H3581 0.950 . S
C3560 H3556 0.949 . S
C3560 C3568 1.574 . S
C3560 C3576 1.368 . S
H3561 C3569 0.950 . S
H3562 C3567 0.950 . S
H3563 C3568 0.949 . S
H3564 C3570 0.950 . S
H3565 C3571 0.950 . S
H3566 C3572 0.949 . S
C3567 H3562 0.950 . S
C3567 C3569 1.327 . S
C3567 C3573 1.429 . S
C3568 C3560 1.574 . S
C3568 H3563 0.949 . S
C3568 C3574 1.368 . S
C3569 C3553 1.349 . S
C3569 H3561 0.950 . S
C3569 C3567 1.327 . S
C3570 C3558 1.349 . S
C3570 H3564 0.950 . S
C3570 C3571 1.327 . S
C3571 H3565 0.950 . S
C3571 C3570 1.327 . S
C3571 C3575 1.429 . S
C3572 C3555 1.574 . S
C3572 H3566 0.949 . S
C3572 C3576 1.368 . S
C3573 C3554 1.429 . S
C3573 C3567 1.429 . S
C3573 C3574 1.523 . S
C3574 C3555 1.368 . S
C3574 C3568 1.368 . S
C3574 C3573 1.523 . S
C3575 C3559 1.429 . S
C3575 C3571 1.429 . S
C3575 C3576 1.523 . S
C3576 C3560 1.368 . S
C3576 C3572 1.368 . S
C3576 C3575 1.523 . S
H3577 C3552 0.950 . S
H3578 C3554 0.950 . S
H3579 C3555 0.949 . S
H3580 C3557 0.950 . S
H3581 C3559 0.950 . S
C3582 C3583 1.349 . S
C3582 C3584 1.327 . S
C3582 H3607 0.950 . S
C3583 C3582 1.349 . S
C3583 C3599 1.349 . S
C3584 C3582 1.327 . S
C3584 C3603 1.429 . S
C3584 H3608 0.950 . S
C3585 C3602 1.574 . S
C3585 C3604 1.368 . S
C3585 H3609 0.949 . S
H3586 C3590 0.949 . S
C3587 C3588 1.349 . S
C3587 C3589 1.327 . S
C3587 H3610 0.950 . S
C3588 C3587 1.349 . S
C3588 C3600 1.349 . S
C3589 C3587 1.327 . S
C3589 C3605 1.429 . S
C3589 H3611 0.950 . S
C3590 H3586 0.949 . S
C3590 C3598 1.574 . S
C3590 C3606 1.368 . S
H3591 C3599 0.950 . S
H3592 C3597 0.950 . S
H3593 C3598 0.949 . S
H3594 C3600 0.950 . S
H3595 C3601 0.950 . S
H3596 C3602 0.949 . S
C3597 H3592 0.950 . S
C3597 C3599 1.327 . S
C3597 C3603 1.429 . S
C3598 C3590 1.574 . S
C3598 H3593 0.949 . S
C3598 C3604 1.368 . S
C3599 C3583 1.349 . S
C3599 H3591 0.950 . S
C3599 C3597 1.327 . S
C3600 C3588 1.349 . S
C3600 H3594 0.950 . S
C3600 C3601 1.327 . S
C3601 H3595 0.950 . S
C3601 C3600 1.327 . S
C3601 C3605 1.429 . S
C3602 C3585 1.574 . S
C3602 H3596 0.949 . S
C3602 C3606 1.368 . S
C3603 C3584 1.429 . S
C3603 C3597 1.429 . S
C3603 C3604 1.523 . S
C3604 C3585 1.368 . S
C3604 C3598 1.368 . S
C3604 C3603 1.523 . S
C3605 C3589 1.429 . S
C3605 C3601 1.429 . S
C3605 C3606 1.523 . S
C3606 C3590 1.368 . S
C3606 C3602 1.368 . S
C3606 C3605 1.523 . S
H3607 C3582 0.950 . S
H3608 C3584 0.950 . S
H3609 C3585 0.949 . S
H3610 C3587 0.950 . S
H3611 C3589 0.950 . S
C3612 C3613 1.349 . S
C3612 C3614 1.327 . S
C3612 H3637 0.950 . S
C3613 C3612 1.349 . S
C3613 C3629 1.349 . S
C3614 C3612 1.327 . S
C3614 C3633 1.429 . S
C3614 H3638 0.950 . S
C3615 C3632 1.574 . S
C3615 C3634 1.368 . S
C3615 H3639 0.949 . S
H3616 C3620 0.949 . S
C3617 C3618 1.349 . S
C3617 C3619 1.327 . S
C3617 H3640 0.950 . S
C3618 C3617 1.349 . S
C3618 C3630 1.349 . S
C3619 C3617 1.327 . S
C3619 C3635 1.429 . S
C3619 H3641 0.950 . S
C3620 H3616 0.949 . S
C3620 C3628 1.574 . S
C3620 C3636 1.368 . S
H3621 C3629 0.950 . S
H3622 C3627 0.950 . S
H3623 C3628 0.949 . S
H3624 C3630 0.950 . S
H3625 C3631 0.950 . S
H3626 C3632 0.949 . S
C3627 H3622 0.950 . S
C3627 C3629 1.327 . S
C3627 C3633 1.429 . S
C3628 C3620 1.574 . S
C3628 H3623 0.949 . S
C3628 C3634 1.368 . S
C3629 C3613 1.349 . S
C3629 H3621 0.950 . S
C3629 C3627 1.327 . S
C3630 C3618 1.349 . S
C3630 H3624 0.950 . S
C3630 C3631 1.327 . S
C3631 H3625 0.950 . S
C3631 C3630 1.327 . S
C3631 C3635 1.429 . S
C3632 C3615 1.574 . S
C3632 H3626 0.949 . S
C3632 C3636 1.368 . S
C3633 C3614 1.429 . S
C3633 C3627 1.429 . S
C3633 C3634 1.523 . S
C3634 C3615 1.368 . S
C3634 C3628 1.368 . S
C3634 C3633 1.523 . S
C3635 C3619 1.429 . S
C3635 C3631 1.429 . S
C3635 C3636 1.523 . S
C3636 C3620 1.368 . S
C3636 C3632 1.368 . S
C3636 C3635 1.523 . S
H3637 C3612 0.950 . S
H3638 C3614 0.950 . S
H3639 C3615 0.949 . S
H3640 C3617 0.950 . S
H3641 C3619 0.950 . S
C3642 C3643 1.349 . S
C3642 C3644 1.327 . S
C3642 H3667 0.950 . S
C3643 C3642 1.349 . S
C3643 C3659 1.349 . S
C3644 C3642 1.327 . S
C3644 C3663 1.429 . S
C3644 H3668 0.950 . S
C3645 C3662 1.574 . S
C3645 C3664 1.368 . S
C3645 H3669 0.949 . S
H3646 C3650 0.949 . S
C3647 C3648 1.349 . S
C3647 C3649 1.327 . S
C3647 H3670 0.950 . S
C3648 C3647 1.349 . S
C3648 C3660 1.349 . S
C3649 C3647 1.327 . S
C3649 C3665 1.429 . S
C3649 H3671 0.950 . S
C3650 H3646 0.949 . S
C3650 C3658 1.574 . S
C3650 C3666 1.368 . S
H3651 C3659 0.950 . S
H3652 C3657 0.950 . S
H3653 C3658 0.949 . S
H3654 C3660 0.950 . S
H3655 C3661 0.950 . S
H3656 C3662 0.949 . S
C3657 H3652 0.950 . S
C3657 C3659 1.327 . S
C3657 C3663 1.429 . S
C3658 C3650 1.574 . S
C3658 H3653 0.949 . S
C3658 C3664 1.368 . S
C3659 C3643 1.349 . S
C3659 H3651 0.950 . S
C3659 C3657 1.327 . S
C3660 C3648 1.349 . S
C3660 H3654 0.950 . S
C3660 C3661 1.327 . S
C3661 H3655 0.950 . S
C3661 C3660 1.327 . S
C3661 C3665 1.429 . S
C3662 C3645 1.574 . S
C3662 H3656 0.949 . S
C3662 C3666 1.368 . S
C3663 C3644 1.429 . S
C3663 C3657 1.429 . S
C3663 C3664 1.523 . S
C3664 C3645 1.368 . S
C3664 C3658 1.368 . S
C3664 C3663 1.523 . S
C3665 C3649 1.429 . S
C3665 C3661 1.429 . S
C3665 C3666 1.523 . S
C3666 C3650 1.368 . S
C3666 C3662 1.368 . S
C3666 C3665 1.523 . S
H3667 C3642 0.950 . S
H3668 C3644 0.950 . S
H3669 C3645 0.949 . S
H3670 C3647 0.950 . S
H3671 C3649 0.950 . S
C3672 C3673 1.349 . S
C3672 C3674 1.327 . S
C3672 H3697 0.950 . S
C3673 C3672 1.349 . S
C3673 C3689 1.349 . S
C3674 C3672 1.327 . S
C3674 C3693 1.429 . S
C3674 H3698 0.950 . S
C3675 C3692 1.574 . S
C3675 C3694 1.368 . S
C3675 H3699 0.949 . S
H3676 C3680 0.949 . S
C3677 C3678 1.349 . S
C3677 C3679 1.327 . S
C3677 H3700 0.950 . S
C3678 C3677 1.349 . S
C3678 C3690 1.349 . S
C3679 C3677 1.327 . S
C3679 C3695 1.429 . S
C3679 H3701 0.950 . S
C3680 H3676 0.949 . S
C3680 C3688 1.574 . S
C3680 C3696 1.368 . S
H3681 C3689 0.950 . S
H3682 C3687 0.950 . S
H3683 C3688 0.949 . S
H3684 C3690 0.950 . S
H3685 C3691 0.950 . S
H3686 C3692 0.949 . S
C3687 H3682 0.950 . S
C3687 C3689 1.327 . S
C3687 C3693 1.429 . S
C3688 C3680 1.574 . S
C3688 H3683 0.949 . S
C3688 C3694 1.368 . S
C3689 C3673 1.349 . S
C3689 H3681 0.950 . S
C3689 C3687 1.327 . S
C3690 C3678 1.349 . S
C3690 H3684 0.950 . S
C3690 C3691 1.327 . S
C3691 H3685 0.950 . S
C3691 C3690 1.327 . S
C3691 C3695 1.429 . S
C3692 C3675 1.574 . S
C3692 H3686 0.949 . S
C3692 C3696 1.368 . S
C3693 C3674 1.429 . S
C3693 C3687 1.429 . S
C3693 C3694 1.523 . S
C3694 C3675 1.368 . S
C3694 C3688 1.368 . S
C3694 C3693 1.523 . S
C3695 C3679 1.429 . S
C3695 C3691 1.429 . S
C3695 C3696 1.523 . S
C3696 C3680 1.368 . S
C3696 C3692 1.368 . S
C3696 C3695 1.523 . S
H3697 C3672 0.950 . S
H3698 C3674 0.950 . S
H3699 C3675 0.949 . S
H3700 C3677 0.950 . S
H3701 C3679 0.950 . S
C3702 C3703 1.349 . S
C3702 C3704 1.327 . S
C3702 H3727 0.950 . S
C3703 C3702 1.349 . S
C3703 C3719 1.349 . S
C3704 C3702 1.327 . S
C3704 C3723 1.429 . S
C3704 H3728 0.950 . S
C3705 C3722 1.574 . S
C3705 C3724 1.368 . S
C3705 H3729 0.949 . S
H3706 C3710 0.949 . S
C3707 C3708 1.349 . S
C3707 C3709 1.327 . S
C3707 H3730 0.950 . S
C3708 C3707 1.349 . S
C3708 C3720 1.349 . S
C3709 C3707 1.327 . S
C3709 C3725 1.429 . S
C3709 H3731 0.950 . S
C3710 H3706 0.949 . S
C3710 C3718 1.574 . S
C3710 C3726 1.368 . S
H3711 C3719 0.950 . S
H3712 C3717 0.950 . S
H3713 C3718 0.949 . S
H3714 C3720 0.950 . S
H3715 C3721 0.950 . S
H3716 C3722 0.949 . S
C3717 H3712 0.950 . S
C3717 C3719 1.327 . S
C3717 C3723 1.429 . S
C3718 C3710 1.574 . S
C3718 H3713 0.949 . S
C3718 C3724 1.368 . S
C3719 C3703 1.349 . S
C3719 H3711 0.950 . S
C3719 C3717 1.327 . S
C3720 C3708 1.349 . S
C3720 H3714 0.950 . S
C3720 C3721 1.327 . S
C3721 H3715 0.950 . S
C3721 C3720 1.327 . S
C3721 C3725 1.429 . S
C3722 C3705 1.574 . S
C3722 H3716 0.949 . S
C3722 C3726 1.368 . S
C3723 C3704 1.429 . S
C3723 C3717 1.429 . S
C3723 C3724 1.523 . S
C3724 C3705 1.368 . S
C3724 C3718 1.368 . S
C3724 C3723 1.523 . S
C3725 C3709 1.429 . S
C3725 C3721 1.429 . S
C3725 C3726 1.523 . S
C3726 C3710 1.368 . S
C3726 C3722 1.368 . S
C3726 C3725 1.523 . S
H3727 C3702 0.950 . S
H3728 C3704 0.950 . S
H3729 C3705 0.949 . S
H3730 C3707 0.950 . S
H3731 C3709 0.950 . S
C3732 C3733 1.349 . S
C3732 C3734 1.327 . S
C3732 H3757 0.950 . S
C3733 C3732 1.349 . S
C3733 C3749 1.349 . S
C3734 C3732 1.327 . S
C3734 C3753 1.429 . S
C3734 H3758 0.950 . S
C3735 C3752 1.574 . S
C3735 C3754 1.368 . S
C3735 H3759 0.949 . S
H3736 C3740 0.949 . S
C3737 C3738 1.349 . S
C3737 C3739 1.327 . S
C3737 H3760 0.950 . S
C3738 C3737 1.349 . S
C3738 C3750 1.349 . S
C3739 C3737 1.327 . S
C3739 C3755 1.429 . S
C3739 H3761 0.950 . S
C3740 H3736 0.949 . S
C3740 C3748 1.574 . S
C3740 C3756 1.368 . S
H3741 C3749 0.950 . S
H3742 C3747 0.950 . S
H3743 C3748 0.949 . S
H3744 C3750 0.950 . S
H3745 C3751 0.950 . S
H3746 C3752 0.949 . S
C3747 H3742 0.950 . S
C3747 C3749 1.327 . S
C3747 C3753 1.429 . S
C3748 C3740 1.574 . S
C3748 H3743 0.949 . S
C3748 C3754 1.368 . S
C3749 C3733 1.349 . S
C3749 H3741 0.950 . S
C3749 C3747 1.327 . S
C3750 C3738 1.349 . S
C3750 H3744 0.950 . S
C3750 C3751 1.327 . S
C3751 H3745 0.950 . S
C3751 C3750 1.327 . S
C3751 C3755 1.429 . S
C3752 C3735 1.574 . S
C3752 H3746 0.949 . S
C3752 C3756 1.368 . S
C3753 C3734 1.429 . S
C3753 C3747 1.429 . S
C3753 C3754 1.523 . S
C3754 C3735 1.368 . S
C3754 C3748 1.368 . S
C3754 C3753 1.523 . S
C3755 C3739 1.429 . S
C3755 C3751 1.429 . S
C3755 C3756 1.523 . S
C3756 C3740 1.368 . S
C3756 C3752 1.368 . S
C3756 C3755 1.523 . S
H3757 C3732 0.950 . S
H3758 C3734 0.950 . S
H3759 C3735 0.949 . S
H3760 C3737 0.950 . S
H3761 C3739 0.950 . S
C3762 C3763 1.349 . S
C3762 C3764 1.327 . S
C3762 H3787 0.950 . S
C3763 C3762 1.349 . S
C3763 C3779 1.349 . S
C3764 C3762 1.327 . S
C3764 C3783 1.429 . S
C3764 H3788 0.950 . S
C3765 C3782 1.574 . S
C3765 C3784 1.368 . S
C3765 H3789 0.949 . S
H3766 C3770 0.949 . S
C3767 C3768 1.349 . S
C3767 C3769 1.327 . S
C3767 H3790 0.950 . S
C3768 C3767 1.349 . S
C3768 C3780 1.349 . S
C3769 C3767 1.327 . S
C3769 C3785 1.429 . S
C3769 H3791 0.950 . S
C3770 H3766 0.949 . S
C3770 C3778 1.574 . S
C3770 C3786 1.368 . S
H3771 C3779 0.950 . S
H3772 C3777 0.950 . S
H3773 C3778 0.949 . S
H3774 C3780 0.950 . S
H3775 C3781 0.950 . S
H3776 C3782 0.949 . S
C3777 H3772 0.950 . S
C3777 C3779 1.327 . S
C3777 C3783 1.429 . S
C3778 C3770 1.574 . S
C3778 H3773 0.949 . S
C3778 C3784 1.368 . S
C3779 C3763 1.349 . S
C3779 H3771 0.950 . S
C3779 C3777 1.327 . S
C3780 C3768 1.349 . S
C3780 H3774 0.950 . S
C3780 C3781 1.327 . S
C3781 H3775 0.950 . S
C3781 C3780 1.327 . S
C3781 C3785 1.429 . S
C3782 C3765 1.574 . S
C3782 H3776 0.949 . S
C3782 C3786 1.368 . S
C3783 C3764 1.429 . S
C3783 C3777 1.429 . S
C3783 C3784 1.523 . S
C3784 C3765 1.368 . S
C3784 C3778 1.368 . S
C3784 C3783 1.523 . S
C3785 C3769 1.429 . S
C3785 C3781 1.429 . S
C3785 C3786 1.523 . S
C3786 C3770 1.368 . S
C3786 C3782 1.368 . S
C3786 C3785 1.523 . S
H3787 C3762 0.950 . S
H3788 C3764 0.950 . S
H3789 C3765 0.949 . S
H3790 C3767 0.950 . S
H3791 C3769 0.950 . S
C3792 C3793 1.349 . S
C3792 C3794 1.327 . S
C3792 H3817 0.950 . S
C3793 C3792 1.349 . S
C3793 C3809 1.349 . S
C3794 C3792 1.327 . S
C3794 C3813 1.429 . S
C3794 H3818 0.950 . S
C3795 C3812 1.574 . S
C3795 C3814 1.368 . S
C3795 H3819 0.949 . S
H3796 C3800 0.949 . S
C3797 C3798 1.349 . S
C3797 C3799 1.327 . S
C3797 H3820 0.950 . S
C3798 C3797 1.349 . S
C3798 C3810 1.349 . S
C3799 C3797 1.327 . S
C3799 C3815 1.429 . S
C3799 H3821 0.950 . S
C3800 H3796 0.949 . S
C3800 C3808 1.574 . S
C3800 C3816 1.368 . S
H3801 C3809 0.950 . S
H3802 C3807 0.950 . S
H3803 C3808 0.949 . S
H3804 C3810 0.950 . S
H3805 C3811 0.950 . S
H3806 C3812 0.949 . S
C3807 H3802 0.950 . S
C3807 C3809 1.327 . S
C3807 C3813 1.429 . S
C3808 C3800 1.574 . S
C3808 H3803 0.949 . S
C3808 C3814 1.368 . S
C3809 C3793 1.349 . S
C3809 H3801 0.950 . S
C3809 C3807 1.327 . S
C3810 C3798 1.349 . S
C3810 H3804 0.950 . S
C3810 C3811 1.327 . S
C3811 H3805 0.950 . S
C3811 C3810 1.327 . S
C3811 C3815 1.429 . S
C3812 C3795 1.574 . S
C3812 H3806 0.949 . S
C3812 C3816 1.368 . S
C3813 C3794 1.429 . S
C3813 C3807 1.429 . S
C3813 C3814 1.523 . S
C3814 C3795 1.368 . S
C3814 C3808 1.368 . S
C3814 C3813 1.523 . S
C3815 C3799 1.429 . S
C3815 C3811 1.429 . S
C3815 C3816 1.523 . S
C3816 C3800 1.368 . S
C3816 C3812 1.368 . S
C3816 C3815 1.523 . S
H3817 C3792 0.950 . S
H3818 C3794 0.950 . S
H3819 C3795 0.949 . S
H3820 C3797 0.950 . S
H3821 C3799 0.950 . S
C3822 C3823 1.349 . S
C3822 C3824 1.327 . S
C3822 H3847 0.950 . S
C3823 C3822 1.349 . S
C3823 C3839 1.349 . S
C3824 C3822 1.327 . S
C3824 C3843 1.429 . S
C3824 H3848 0.950 . S
C3825 C3842 1.574 . S
C3825 C3844 1.368 . S
C3825 H3849 0.949 . S
H3826 C3830 0.949 . S
C3827 C3828 1.349 . S
C3827 C3829 1.327 . S
C3827 H3850 0.950 . S
C3828 C3827 1.349 . S
C3828 C3840 1.349 . S
C3829 C3827 1.327 . S
C3829 C3845 1.429 . S
C3829 H3851 0.950 . S
C3830 H3826 0.949 . S
C3830 C3838 1.574 . S
C3830 C3846 1.368 . S
H3831 C3839 0.950 . S
H3832 C3837 0.950 . S
H3833 C3838 0.949 . S
H3834 C3840 0.950 . S
H3835 C3841 0.950 . S
H3836 C3842 0.949 . S
C3837 H3832 0.950 . S
C3837 C3839 1.327 . S
C3837 C3843 1.429 . S
C3838 C3830 1.574 . S
C3838 H3833 0.949 . S
C3838 C3844 1.368 . S
C3839 C3823 1.349 . S
C3839 H3831 0.950 . S
C3839 C3837 1.327 . S
C3840 C3828 1.349 . S
C3840 H3834 0.950 . S
C3840 C3841 1.327 . S
C3841 H3835 0.950 . S
C3841 C3840 1.327 . S
C3841 C3845 1.429 . S
C3842 C3825 1.574 . S
C3842 H3836 0.949 . S
C3842 C3846 1.368 . S
C3843 C3824 1.429 . S
C3843 C3837 1.429 . S
C3843 C3844 1.523 . S
C3844 C3825 1.368 . S
C3844 C3838 1.368 . S
C3844 C3843 1.523 . S
C3845 C3829 1.429 . S
C3845 C3841 1.429 . S
C3845 C3846 1.523 . S
C3846 C3830 1.368 . S
C3846 C3842 1.368 . S
C3846 C3845 1.523 . S
H3847 C3822 0.950 . S
H3848 C3824 0.950 . S
H3849 C3825 0.949 . S
H3850 C3827 0.950 . S
H3851 C3829 0.950 . S
C3852 C3853 1.349 . S
C3852 C3854 1.327 . S
C3852 H3877 0.950 . S
C3853 C3852 1.349 . S
C3853 C3869 1.349 . S
C3854 C3852 1.327 . S
C3854 C3873 1.429 . S
C3854 H3878 0.950 . S
C3855 C3872 1.574 1_655 S
C3855 C3874 1.368 . S
C3855 H3879 0.949 . S
H3856 C3860 0.949 . S
C3857 C3858 1.349 . S
C3857 C3859 1.327 . S
C3857 H3880 0.950 . S
C3858 C3857 1.349 . S
C3858 C3870 1.349 . S
C3859 C3857 1.327 . S
C3859 C3875 1.429 . S
C3859 H3881 0.950 . S
C3860 H3856 0.949 . S
C3860 C3868 1.574 1_455 S
C3860 C3876 1.368 . S
H3861 C3869 0.950 . S
H3862 C3867 0.950 . S
H3863 C3868 0.949 . S
H3864 C3870 0.950 . S
H3865 C3871 0.950 . S
H3866 C3872 0.949 . S
C3867 H3862 0.950 . S
C3867 C3869 1.327 . S
C3867 C3873 1.429 . S
C3868 C3860 1.574 1_655 S
C3868 H3863 0.949 . S
C3868 C3874 1.368 . S
C3869 C3853 1.349 . S
C3869 H3861 0.950 . S
C3869 C3867 1.327 . S
C3870 C3858 1.349 . S
C3870 H3864 0.950 . S
C3870 C3871 1.327 . S
C3871 H3865 0.950 . S
C3871 C3870 1.327 . S
C3871 C3875 1.429 . S
C3872 C3855 1.574 1_455 S
C3872 H3866 0.949 . S
C3872 C3876 1.368 . S
C3873 C3854 1.429 . S
C3873 C3867 1.429 . S
C3873 C3874 1.523 . S
C3874 C3855 1.368 . S
C3874 C3868 1.368 . S
C3874 C3873 1.523 . S
C3875 C3859 1.429 . S
C3875 C3871 1.429 . S
C3875 C3876 1.523 . S
C3876 C3860 1.368 . S
C3876 C3872 1.368 . S
C3876 C3875 1.523 . S
H3877 C3852 0.950 . S
H3878 C3854 0.950 . S
H3879 C3855 0.949 . S
H3880 C3857 0.950 . S
H3881 C3859 0.950 . S
C3882 C3883 1.349 . S
C3882 C3884 1.327 . S
C3882 H3907 0.950 . S
C3883 C3882 1.349 . S
C3883 C3899 1.349 . S
C3884 C3882 1.327 . S
C3884 C3903 1.429 . S
C3884 H3908 0.950 . S
C3885 C3902 1.574 . S
C3885 C3904 1.368 . S
C3885 H3909 0.949 . S
H3886 C3890 0.949 . S
C3887 C3888 1.349 . S
C3887 C3889 1.327 . S
C3887 H3910 0.950 . S
C3888 C3887 1.349 . S
C3888 C3900 1.349 . S
C3889 C3887 1.327 . S
C3889 C3905 1.429 . S
C3889 H3911 0.950 . S
C3890 H3886 0.949 . S
C3890 C3898 1.574 . S
C3890 C3906 1.368 . S
H3891 C3899 0.950 . S
H3892 C3897 0.950 . S
H3893 C3898 0.949 . S
H3894 C3900 0.950 . S
H3895 C3901 0.950 . S
H3896 C3902 0.949 . S
C3897 H3892 0.950 . S
C3897 C3899 1.327 . S
C3897 C3903 1.429 . S
C3898 C3890 1.574 . S
C3898 H3893 0.949 . S
C3898 C3904 1.368 . S
C3899 C3883 1.349 . S
C3899 H3891 0.950 . S
C3899 C3897 1.327 . S
C3900 C3888 1.349 . S
C3900 H3894 0.950 . S
C3900 C3901 1.327 . S
C3901 H3895 0.950 . S
C3901 C3900 1.327 . S
C3901 C3905 1.429 . S
C3902 C3885 1.574 . S
C3902 H3896 0.949 . S
C3902 C3906 1.368 . S
C3903 C3884 1.429 . S
C3903 C3897 1.429 . S
C3903 C3904 1.523 . S
C3904 C3885 1.368 . S
C3904 C3898 1.368 . S
C3904 C3903 1.523 . S
C3905 C3889 1.429 . S
C3905 C3901 1.429 . S
C3905 C3906 1.523 . S
C3906 C3890 1.368 . S
C3906 C3902 1.368 . S
C3906 C3905 1.523 . S
H3907 C3882 0.950 . S
H3908 C3884 0.950 . S
H3909 C3885 0.949 . S
H3910 C3887 0.950 . S
H3911 C3889 0.950 . S
C3912 C3913 1.349 . S
C3912 C3914 1.327 . S
C3912 H3937 0.950 . S
C3913 C3912 1.349 . S
C3913 C3929 1.349 . S
C3914 C3912 1.327 . S
C3914 C3933 1.429 . S
C3914 H3938 0.950 . S
C3915 C3932 1.574 1_545 S
C3915 C3934 1.368 . S
C3915 H3939 0.949 . S
H3916 C3920 0.949 . S
C3917 C3918 1.349 . S
C3917 C3919 1.327 . S
C3917 H3940 0.950 . S
C3918 C3917 1.349 . S
C3918 C3930 1.349 . S
C3919 C3917 1.327 . S
C3919 C3935 1.429 . S
C3919 H3941 0.950 . S
C3920 H3916 0.949 . S
C3920 C3928 1.574 1_565 S
C3920 C3936 1.368 . S
H3921 C3929 0.950 . S
H3922 C3927 0.950 . S
H3923 C3928 0.949 . S
H3924 C3930 0.950 . S
H3925 C3931 0.950 . S
H3926 C3932 0.949 . S
C3927 H3922 0.950 . S
C3927 C3929 1.327 . S
C3927 C3933 1.429 . S
C3928 C3920 1.574 1_545 S
C3928 H3923 0.949 . S
C3928 C3934 1.368 . S
C3929 C3913 1.349 . S
C3929 H3921 0.950 . S
C3929 C3927 1.327 . S
C3930 C3918 1.349 . S
C3930 H3924 0.950 . S
C3930 C3931 1.327 . S
C3931 H3925 0.950 . S
C3931 C3930 1.327 . S
C3931 C3935 1.429 . S
C3932 C3915 1.574 1_565 S
C3932 H3926 0.949 . S
C3932 C3936 1.368 . S
C3933 C3914 1.429 . S
C3933 C3927 1.429 . S
C3933 C3934 1.523 . S
C3934 C3915 1.368 . S
C3934 C3928 1.368 . S
C3934 C3933 1.523 . S
C3935 C3919 1.429 . S
C3935 C3931 1.429 . S
C3935 C3936 1.523 . S
C3936 C3920 1.368 . S
C3936 C3932 1.368 . S
C3936 C3935 1.523 . S
H3937 C3912 0.950 . S
H3938 C3914 0.950 . S
H3939 C3915 0.949 . S
H3940 C3917 0.950 . S
H3941 C3919 0.950 . S
C3942 C3943 1.349 . S
C3942 C3944 1.327 . S
C3942 H3967 0.950 . S
C3943 C3942 1.349 . S
C3943 C3959 1.349 . S
C3944 C3942 1.327 . S
C3944 C3963 1.429 . S
C3944 H3968 0.950 . S
C3945 C3962 1.574 1_545 S
C3945 C3964 1.368 . S
C3945 H3969 0.949 . S
H3946 C3950 0.949 . S
C3947 C3948 1.349 . S
C3947 C3949 1.327 . S
C3947 H3970 0.950 . S
C3948 C3947 1.349 . S
C3948 C3960 1.349 . S
C3949 C3947 1.327 . S
C3949 C3965 1.429 . S
C3949 H3971 0.950 . S
C3950 H3946 0.949 . S
C3950 C3958 1.574 1_565 S
C3950 C3966 1.368 . S
H3951 C3959 0.950 . S
H3952 C3957 0.950 . S
H3953 C3958 0.949 . S
H3954 C3960 0.950 . S
H3955 C3961 0.950 . S
H3956 C3962 0.949 . S
C3957 H3952 0.950 . S
C3957 C3959 1.327 . S
C3957 C3963 1.429 . S
C3958 C3950 1.574 1_545 S
C3958 H3953 0.949 . S
C3958 C3964 1.368 . S
C3959 C3943 1.349 . S
C3959 H3951 0.950 . S
C3959 C3957 1.327 . S
C3960 C3948 1.349 . S
C3960 H3954 0.950 . S
C3960 C3961 1.327 . S
C3961 H3955 0.950 . S
C3961 C3960 1.327 . S
C3961 C3965 1.429 . S
C3962 C3945 1.574 1_565 S
C3962 H3956 0.949 . S
C3962 C3966 1.368 . S
C3963 C3944 1.429 . S
C3963 C3957 1.429 . S
C3963 C3964 1.523 . S
C3964 C3945 1.368 . S
C3964 C3958 1.368 . S
C3964 C3963 1.523 . S
C3965 C3949 1.429 . S
C3965 C3961 1.429 . S
C3965 C3966 1.523 . S
C3966 C3950 1.368 . S
C3966 C3962 1.368 . S
C3966 C3965 1.523 . S
H3967 C3942 0.950 . S
H3968 C3944 0.950 . S
H3969 C3945 0.949 . S
H3970 C3947 0.950 . S
H3971 C3949 0.950 . S
C3972 C3973 1.349 . S
C3972 C3974 1.327 . S
C3972 H3997 0.950 . S
C3973 C3972 1.349 . S
C3973 C3989 1.349 . S
C3974 C3972 1.327 . S
C3974 C3993 1.429 . S
C3974 H3998 0.950 . S
C3975 C3992 1.574 1_655 S
C3975 C3994 1.368 . S
C3975 H3999 0.949 . S
H3976 C3980 0.949 . S
C3977 C3978 1.349 . S
C3977 C3979 1.327 . S
C3977 H4000 0.950 . S
C3978 C3977 1.349 . S
C3978 C3990 1.349 . S
C3979 C3977 1.327 . S
C3979 C3995 1.429 . S
C3979 H4001 0.950 . S
C3980 H3976 0.949 . S
C3980 C3988 1.574 1_455 S
C3980 C3996 1.368 . S
H3981 C3989 0.950 . S
H3982 C3987 0.950 . S
H3983 C3988 0.949 . S
H3984 C3990 0.950 . S
H3985 C3991 0.950 . S
H3986 C3992 0.949 . S
C3987 H3982 0.950 . S
C3987 C3989 1.327 . S
C3987 C3993 1.429 . S
C3988 C3980 1.574 1_655 S
C3988 H3983 0.949 . S
C3988 C3994 1.368 . S
C3989 C3973 1.349 . S
C3989 H3981 0.950 . S
C3989 C3987 1.327 . S
C3990 C3978 1.349 . S
C3990 H3984 0.950 . S
C3990 C3991 1.327 . S
C3991 H3985 0.950 . S
C3991 C3990 1.327 . S
C3991 C3995 1.429 . S
C3992 C3975 1.574 1_455 S
C3992 H3986 0.949 . S
C3992 C3996 1.368 . S
C3993 C3974 1.429 . S
C3993 C3987 1.429 . S
C3993 C3994 1.523 . S
C3994 C3975 1.368 . S
C3994 C3988 1.368 . S
C3994 C3993 1.523 . S
C3995 C3979 1.429 . S
C3995 C3991 1.429 . S
C3995 C3996 1.523 . S
C3996 C3980 1.368 . S
C3996 C3992 1.368 . S
C3996 C3995 1.523 . S
H3997 C3972 0.950 . S
H3998 C3974 0.950 . S
H3999 C3975 0.949 . S
H4000 C3977 0.950 . S
H4001 C3979 0.950 . S
C4002 C4003 1.349 . S
C4002 C4004 1.327 . S
C4002 H4027 0.950 . S
C4003 C4002 1.349 . S
C4003 C4019 1.349 . S
C4004 C4002 1.327 . S
C4004 C4023 1.429 . S
C4004 H4028 0.950 . S
C4005 C4022 1.574 . S
C4005 C4024 1.368 . S
C4005 H4029 0.949 . S
H4006 C4010 0.949 . S
C4007 C4008 1.349 . S
C4007 C4009 1.327 . S
C4007 H4030 0.950 . S
C4008 C4007 1.349 . S
C4008 C4020 1.349 . S
C4009 C4007 1.327 . S
C4009 C4025 1.429 . S
C4009 H4031 0.950 . S
C4010 H4006 0.949 . S
C4010 C4018 1.574 . S
C4010 C4026 1.368 . S
H4011 C4019 0.950 . S
H4012 C4017 0.950 . S
H4013 C4018 0.949 . S
H4014 C4020 0.950 . S
H4015 C4021 0.950 . S
H4016 C4022 0.949 . S
C4017 H4012 0.950 . S
C4017 C4019 1.327 . S
C4017 C4023 1.429 . S
C4018 C4010 1.574 . S
C4018 H4013 0.949 . S
C4018 C4024 1.368 . S
C4019 C4003 1.349 . S
C4019 H4011 0.950 . S
C4019 C4017 1.327 . S
C4020 C4008 1.349 . S
C4020 H4014 0.950 . S
C4020 C4021 1.327 . S
C4021 H4015 0.950 . S
C4021 C4020 1.327 . S
C4021 C4025 1.429 . S
C4022 C4005 1.574 . S
C4022 H4016 0.949 . S
C4022 C4026 1.368 . S
C4023 C4004 1.429 . S
C4023 C4017 1.429 . S
C4023 C4024 1.523 . S
C4024 C4005 1.368 . S
C4024 C4018 1.368 . S
C4024 C4023 1.523 . S
C4025 C4009 1.429 . S
C4025 C4021 1.429 . S
C4025 C4026 1.523 . S
C4026 C4010 1.368 . S
C4026 C4022 1.368 . S
C4026 C4025 1.523 . S
H4027 C4002 0.950 . S
H4028 C4004 0.950 . S
H4029 C4005 0.949 . S
H4030 C4007 0.950 . S
H4031 C4009 0.950 . S
C793 C15 1.383 . S
C798 C161 1.364 . S
C823 C197 1.364 . S
C828 C43 1.383 . S
C853 C65 1.383 . S
C858 C153 1.365 . S
C883 C263 1.364 . S
C888 C81 1.383 . S
C913 C103 1.383 . S
C918 C219 1.365 . S
C943 C117 1.383 . S
C948 C241 1.364 . S
C973 C139 1.401 . S
C978 C29 1.378 . S
C1003 C51 1.378 . S
C1008 C169 1.401 . S
C1033 C21 1.379 . S
C1038 C183 1.401 . S
C1063 C125 1.378 . S
C1068 C205 1.401 . S
C1093 C87 1.379 . S
C1098 C227 1.401 . S
C1123 C109 1.378 . S
C1128 C249 1.401 . S
C1153 C285 1.383 . S
C1158 C425 1.364 . S
C1183 C447 1.364 . S
C1188 C307 1.383 . S
C1213 C403 1.365 . S
C1218 C329 1.383 . S
C1243 C345 1.383 . S
C1248 C527 1.364 . S
C1273 C483 1.365 . S
C1278 C367 1.383 . S
C1303 C389 1.383 . S
C1308 C491 1.364 . S
C1333 C411 1.401 . S
C1338 C293 1.378 . S
C1363 C315 1.378 . S
C1368 C433 1.401 . S
C1393 C455 1.401 . S
C1398 C271 1.379 . S
C1423 C395 1.378 . S
C1428 C469 1.401 . S
C1453 C351 1.379 . S
C1458 C499 1.401 . S
C1483 C513 1.401 . S
C1488 C373 1.378 . S
C1513 C549 1.383 . S
C1518 C689 1.364 . S
C1543 C571 1.383 . S
C1548 C711 1.364 . S
C1573 C667 1.365 . S
C1578 C593 1.383 . S
C1603 C791 1.364 . S
C1608 C609 1.383 . S
C1633 C631 1.383 . S
C1638 C747 1.365 . S
C1663 C769 1.364 . S
C1668 C653 1.383 . S
C1693 C557 1.378 . S
C1698 C675 1.401 . S
C1723 C697 1.401 . S
C1728 C579 1.378 . S
C1753 C535 1.379 . S
C1758 C719 1.401 . S
C1783 C733 1.401 . S
C1788 C659 1.378 . S
C1813 C755 1.401 . S
C1818 C615 1.379 . S
C1843 C777 1.401 . S
C1848 C637 1.378 . S
C1873 C7 1.205 . S
C1878 C260 1.207 . S
C1903 C37 1.205 . S
C1908 C216 1.207 . S
C1933 C59 1.205 . S
C1938 C238 1.207 . S
C1963 C73 1.205 . S
C1968 C164 1.207 . S
C1993 C194 1.207 . S
C1998 C95 1.205 . S
C2023 C150 1.207 . S
C2028 C131 1.205 . S
C2053 C128 1.197 . S
C2058 C147 1.196 . S
C2083 C175 1.197 . S
C2088 C76 1.197 . S
C2113 C98 1.197 . S
C2118 C191 1.197 . S
C2143 C30 1.197 . S
C2148 C213 1.196 . S
C2173 C235 1.197 . S
C2178 C52 1.197 . S
C2203 C257 1.197 . S
C2208 C10 1.197 . S
C2233 C524 1.207 1_554 S
C2238 C279 1.205 . S
C2263 C480 1.207 1_554 S
C2268 C301 1.205 . S
C2293 C494 1.207 1_554 S
C2298 C323 1.205 . S
C2323 C337 1.205 . S
C2328 C428 1.207 . S
C2353 C450 1.207 . S
C2358 C359 1.205 . S
C2383 C406 1.207 . S
C2388 C381 1.205 . S
C2413 C384 1.197 . S
C2418 C417 1.196 . S
C2443 C340 1.197 . S
C2448 C439 1.197 . S
C2473 C461 1.197 . S
C2478 C362 1.197 . S
C2503 C294 1.197 . S
C2508 C477 1.196 . S
C2533 C505 1.197 . S
C2538 C316 1.197 . S
C2563 C272 1.197 . S
C2568 C521 1.197 . S
C2593 C543 1.205 . S
C2598 C788 1.207 . S
C2623 C744 1.207 . S
C2628 C565 1.205 . S
C2653 C766 1.207 . S
C2658 C587 1.205 . S
C2683 C692 1.207 . S
C2688 C601 1.205 . S
C2713 C714 1.207 . S
C2718 C623 1.205 . S
C2743 C670 1.207 . S
C2748 C645 1.205 . S
C2773 C681 1.196 . S
C2778 C648 1.197 1_556 S
C2803 C604 1.197 1_556 S
C2808 C703 1.197 . S
C2833 C626 1.197 1_556 S
C2838 C725 1.197 . S
C2863 C741 1.196 . S
C2868 C558 1.197 . S
C2893 C580 1.197 . S
C2898 C763 1.197 . S
C2923 C785 1.197 . S
C2928 C536 1.197 . S
C2953 C8 0.630 . S
C2958 C96 0.630 . S
C2983 C40 0.630 . S
C2988 C120 0.630 . S
C3013 C62 0.630 . S
C3018 C74 0.630 . S
C3043 C228 0.622 . S
C3048 C140 0.622 . S
C3073 C250 0.621 . S
C3078 C172 0.621 . S
C3103 C206 0.622 . S
C3108 C184 0.622 . S
C3133 C360 0.630 . S
C3138 C282 0.630 . S
C3163 C382 0.630 . S
C3168 C304 0.630 . S
C3193 C326 0.630 . S
C3198 C338 0.630 . S
C3223 C414 0.622 . S
C3228 C502 0.622 . S
C3253 C436 0.621 . S
C3258 C514 0.621 . S
C3283 C458 0.622 . S
C3288 C470 0.622 . S
C3313 C546 0.630 . S
C3318 C624 0.630 . S
C3343 C646 0.630 . S
C3348 C568 0.630 . S
C3373 C602 0.630 . S
C3378 C590 0.630 . S
C3403 C756 0.622 . S
C3408 C678 0.622 . S
C3433 C778 0.621 . S
C3438 C700 0.621 . S
C3463 C722 0.622 . S
C3468 C734 0.622 . S
C3493 C18 1.633 . S
C3498 C656 1.633 . S
C3523 C32 1.633 . S
C3528 C612 1.633 . S
C3553 C634 1.632 . S
C3558 C54 1.632 . S
C3583 C296 1.633 . S
C3588 C84 1.633 . S
C3613 C318 1.632 . S
C3618 C106 1.632 . S
C3643 C118 1.633 . S
C3648 C274 1.633 . S
C3673 C516 1.644 . S
C3678 C142 1.644 . S
C3703 C162 1.644 . S
C3708 C472 1.644 . S
C3733 C492 1.643 . S
C3738 C186 1.643 . S
C3763 C208 1.644 . S
C3768 C690 1.644 . S
C3793 C712 1.643 . S
C3798 C230 1.643 . S
C3823 C668 1.644 . S
C3828 C252 1.644 . S
C3853 C348 1.633 . S
C3858 C560 1.633 . S
C3883 C370 1.632 . S
C3888 C582 1.632 . S
C3913 C392 1.633 . S
C3918 C538 1.633 . S
C3943 C404 1.644 . S
C3948 C780 1.644 . S
C3973 C426 1.644 . S
C3978 C736 1.644 . S
C4003 C758 1.643 . S
C4008 C448 1.643 . S
