# Generated by pormake.
# Topology sni, (6)-cn, num edge types: 1
# Building blocks:
#     Node 0, Type 0, BuildingBlock: OJICUG_clean_sbu_0, # of connection points: 6
#     Node 1, Type 0, BuildingBlock: OJICUG_clean_sbu_0, # of connection points: 6
#     Node 2, Type 0, BuildingBlock: OJICUG_clean_sbu_0, # of connection points: 6
#     Node 3, Type 0, BuildingBlock: OJICUG_clean_sbu_0, # of connection points: 6
#     Node 4, Type 0, BuildingBlock: OJICUG_clean_sbu_0, # of connection points: 6
#     Node 5, Type 0, BuildingBlock: OJICUG_clean_sbu_0, # of connection points: 6
#     Node 6, Type 0, BuildingBlock: OJICUG_clean_sbu_0, # of connection points: 6
#     Node 7, Type 0, BuildingBlock: OJICUG_clean_sbu_0, # of connection points: 6
#     Edge 8, Type (0, 0), BuildingBlock: TEMPAE_clean_linker_10, # of connection points: 2
#     Edge 9, Type (0, 0), BuildingBlock: TEMPAE_clean_linker_10, # of connection points: 2
#     Edge 10, Type (0, 0), BuildingBlock: TEMPAE_clean_linker_10, # of connection points: 2
#     Edge 11, Type (0, 0), BuildingBlock: TEMPAE_clean_linker_10, # of connection points: 2
#     Edge 12, Type (0, 0), BuildingBlock: TEMPAE_clean_linker_10, # of connection points: 2
#     Edge 13, Type (0, 0), BuildingBlock: TEMPAE_clean_linker_10, # of connection points: 2
#     Edge 14, Type (0, 0), BuildingBlock: TEMPAE_clean_linker_10, # of connection points: 2
#     Edge 15, Type (0, 0), BuildingBlock: TEMPAE_clean_linker_10, # of connection points: 2
#     Edge 16, Type (0, 0), BuildingBlock: TEMPAE_clean_linker_10, # of connection points: 2
#     Edge 17, Type (0, 0), BuildingBlock: TEMPAE_clean_linker_10, # of connection points: 2
#     Edge 18, Type (0, 0), BuildingBlock: TEMPAE_clean_linker_10, # of connection points: 2
#     Edge 19, Type (0, 0), BuildingBlock: TEMPAE_clean_linker_10, # of connection points: 2
#     Edge 20, Type (0, 0), BuildingBlock: TEMPAE_clean_linker_10, # of connection points: 2
#     Edge 21, Type (0, 0), BuildingBlock: TEMPAE_clean_linker_10, # of connection points: 2
#     Edge 22, Type (0, 0), BuildingBlock: TEMPAE_clean_linker_10, # of connection points: 2
#     Edge 23, Type (0, 0), BuildingBlock: TEMPAE_clean_linker_10, # of connection points: 2
#     Edge 24, Type (0, 0), BuildingBlock: TEMPAE_clean_linker_10, # of connection points: 2
#     Edge 25, Type (0, 0), BuildingBlock: TEMPAE_clean_linker_10, # of connection points: 2
#     Edge 26, Type (0, 0), BuildingBlock: TEMPAE_clean_linker_10, # of connection points: 2
#     Edge 27, Type (0, 0), BuildingBlock: TEMPAE_clean_linker_10, # of connection points: 2
#     Edge 28, Type (0, 0), BuildingBlock: TEMPAE_clean_linker_10, # of connection points: 2
#     Edge 29, Type (0, 0), BuildingBlock: TEMPAE_clean_linker_10, # of connection points: 2
#     Edge 30, Type (0, 0), BuildingBlock: TEMPAE_clean_linker_10, # of connection points: 2
#     Edge 31, Type (0, 0), BuildingBlock: TEMPAE_clean_linker_10, # of connection points: 2
# Relax obj value: 0.093
# Max RMSD: 0.105
# Mean RMSD: 0.105
data_MOF--net-sni--node1-OJICUG_clean_sbu_0--edge1-TEMPAE_clean_linker_10
_symmetry_space_group_name_H-M    P1
_symmetry_Int_Tables_number       1
_symmetry_cell_setting            triclinic
loop_
_symmetry_equiv_pos_as_xyz
'x, y, z'
_cell_length_a     40.647494
_cell_length_b     40.677549
_cell_length_c     22.640396
_cell_angle_alpha  89.971617
_cell_angle_beta   90.040279
_cell_angle_gamma 90.077486
loop_
_atom_site_label
_atom_site_type_symbol
_atom_site_fract_x
_atom_site_fract_y
_atom_site_fract_z
_atom_type_partial_charge
Sc0 Sc 0.61558 0.11099 0.01887 0.0
Sc1 Sc 0.69553 0.13741 -0.00989 0.0
Sc2 Sc 0.63108 0.19439 -0.00187 0.0
O3 O 0.64746 0.1476 0.00214 0.0
C4 C 0.57412 0.15775 0.93297 0.0
C5 C 0.65949 0.07798 0.92334 0.0
C6 C 0.68415 0.19145 0.89443 0.0
C7 C 0.67926 0.08819 0.09077 0.0
C8 C 0.59059 0.1647 0.10602 0.0
C9 C 0.6973 0.20328 0.06692 0.0
O10 O 0.5768 0.13267 0.96624 0.0
O11 O 0.6852 0.0934 0.93976 0.0
O12 O 0.66346 0.207 0.92593 0.0
O13 O 0.65004 0.0843 0.07217 0.0
O14 O 0.59651 0.18799 0.07003 0.0
O15 O 0.71152 0.18027 0.03872 0.0
O16 O 0.59917 0.13518 0.09692 0.0
O17 O 0.69868 0.10999 0.07097 0.0
O18 O 0.66685 0.20971 0.06174 0.0
O19 O 0.63093 0.0841 0.94313 0.0
O20 O 0.59438 0.18156 0.93418 0.0
O21 O 0.69587 0.16369 0.9087 0.0
Sc22 Sc 0.87448 0.6073 -0.00229 0.0
Sc23 Sc 0.85681 0.69009 0.96776 0.0
Sc24 Sc 0.79205 0.63388 -0.00339 0.0
O25 O 0.84104 0.64378 0.98727 0.0
C26 C 0.81676 0.57015 0.9293 0.0
C27 C 0.90365 0.64627 0.88734 0.0
C28 C 0.79242 0.68327 0.88832 0.0
C29 C 0.91062 0.66723 0.06042 0.0
C30 C 0.82357 0.59177 0.10025 0.0
C31 C 0.79935 0.70341 0.0599 0.0
O32 O 0.84637 0.57304 0.9465 0.0
O33 O 0.88936 0.67311 0.89994 0.0
O34 O 0.77902 0.66104 0.91935 0.0
O35 O 0.9056 0.63689 0.05163 0.0
O36 O 0.79901 0.60524 0.07553 0.0
O37 O 0.82574 0.71166 0.03377 0.0
O38 O 0.85214 0.591 0.07789 0.0
O39 O 0.89552 0.68984 0.03298 0.0
O40 O 0.78445 0.67638 0.05099 0.0
O41 O 0.90084 0.62039 0.91847 0.0
O42 O 0.79436 0.59064 0.94224 0.0
O43 O 0.82022 0.69591 0.90021 0.0
Sc44 Sc 0.29722 0.85099 0.98733 0.0
Sc45 Sc 0.36275 0.79404 0.98019 0.0
Sc46 Sc 0.37684 0.87751 0.95004 0.0
O47 O 0.34555 0.84084 0.97258 0.0
C48 C 0.31249 0.89583 0.87637 0.0
C49 C 0.29483 0.78342 0.91514 0.0
C50 C 0.4027 0.82007 0.86847 0.0
C51 C 0.31126 0.79812 0.08648 0.0
C52 C 0.33274 0.91248 0.04724 0.0
C53 C 0.41955 0.83505 0.04096 0.0
O54 O 0.29218 0.87989 0.90795 0.0
O55 O 0.32473 0.7757 0.92385 0.0
O56 O 0.39682 0.85014 0.87825 0.0
O57 O 0.29686 0.82382 0.06823 0.0
O58 O 0.35953 0.90924 0.01901 0.0
O59 O 0.40197 0.80926 0.0373 0.0
O60 O 0.30801 0.89386 0.03939 0.0
O61 O 0.33388 0.78373 0.05778 0.0
O62 O 0.41441 0.86068 0.01009 0.0
O63 O 0.28127 0.8087 0.93753 0.0
O64 O 0.34303 0.89762 0.88741 0.0
O65 O 0.39415 0.79715 0.90332 0.0
Sc66 Sc 0.11589 0.38316 -0.00604 0.0
Sc67 Sc 0.13653 0.30103 0.00458 0.0
Sc68 Sc 0.19725 0.35974 0.97551 0.0
O69 O 0.1501 0.34792 -0.00844 0.0
C70 C 0.15691 0.40488 0.88549 0.0
C71 C 0.07767 0.32488 0.92979 0.0
C72 C 0.18987 0.29501 0.90245 0.0
C73 C 0.09348 0.34042 0.09876 0.0
C74 C 0.17764 0.41906 0.05318 0.0
C75 C 0.20216 0.3048 0.07623 0.0
O76 O 0.12878 0.39813 0.90667 0.0
O77 O 0.10052 0.30389 0.93556 0.0
O78 O 0.19946 0.32468 0.90541 0.0
O79 O 0.10202 0.36887 0.08135 0.0
O80 O 0.19787 0.39585 0.04445 0.0
O81 O 0.17209 0.2963 0.07361 0.0
O82 O 0.14878 0.41919 0.03148 0.0
O83 O 0.10031 0.31423 0.07054 0.0
O84 O 0.21558 0.32428 0.03923 0.0
O85 O 0.07788 0.35242 0.95635 0.0
O86 O 0.18386 0.39659 0.91022 0.0
O87 O 0.17063 0.28202 0.9401 0.0
Sc88 Sc 0.62496 0.81349 0.46638 0.0
Sc89 Sc 0.68664 0.87235 0.49622 0.0
Sc90 Sc 0.60431 0.89691 0.48369 0.0
O91 O 0.63867 0.86089 0.48208 0.0
C92 C 0.57931 0.85192 0.37695 0.0
C93 C 0.69205 0.81966 0.3943 0.0
C94 C 0.66268 0.93271 0.41732 0.0
C95 C 0.67857 0.80448 0.5657 0.0
C96 C 0.56771 0.83919 0.55093 0.0
C97 C 0.65214 0.91883 0.5885 0.0
O98 O 0.59652 0.82699 0.39039 0.0
O99 O 0.70217 0.8456 0.41957 0.0
O100 O 0.63211 0.92771 0.42519 0.0
O101 O 0.65244 0.79513 0.54 0.0
O102 O 0.57405 0.86949 0.5435 0.0
O103 O 0.67604 0.90054 0.5739 0.0
O104 O 0.58247 0.81635 0.52334 0.0
O105 O 0.69381 0.83079 0.55286 0.0
O106 O 0.62573 0.92079 0.55876 0.0
O107 O 0.66577 0.80472 0.40845 0.0
O108 O 0.57842 0.87783 0.40821 0.0
O109 O 0.6849 0.91549 0.44172 0.0
Sc110 Sc 0.18206 0.62197 0.48516 0.0
Sc111 Sc 0.12176 0.68333 0.48253 0.0
Sc112 Sc 0.10009 0.60169 0.45845 0.0
O113 O 0.13469 0.6357 0.47521 0.0
C114 C 0.16126 0.57617 0.38171 0.0
C115 C 0.18774 0.68916 0.41255 0.0
C116 C 0.07725 0.65862 0.3753 0.0
C117 C 0.1754 0.67482 0.58428 0.0
C118 C 0.14303 0.56456 0.55099 0.0
C119 C 0.06337 0.6494 0.5488 0.0
O120 O 0.18226 0.59617 0.4026 0.0
O121 O 0.15776 0.69732 0.41834 0.0
O122 O 0.0836 0.62829 0.38234 0.0
O123 O 0.18495 0.64644 0.56863 0.0
O124 O 0.11466 0.57338 0.53373 0.0
O125 O 0.08508 0.6719 0.54745 0.0
O126 O 0.16956 0.57737 0.53202 0.0
O127 O 0.15573 0.69224 0.55384 0.0
O128 O 0.06373 0.62487 0.51397 0.0
O129 O 0.20059 0.66482 0.43931 0.0
O130 O 0.13206 0.5738 0.40153 0.0
O131 O 0.08611 0.68064 0.41189 0.0
Sc132 Sc 0.36794 0.17608 0.50521 0.0
Sc133 Sc 0.30509 0.118 0.47681 0.0
Sc134 Sc 0.38679 0.09199 0.49677 0.0
O135 O 0.35324 0.12873 0.4929 0.0
C136 C 0.42499 0.14676 0.42446 0.0
C137 C 0.31577 0.18337 0.40124 0.0
C138 C 0.34027 0.06749 0.39171 0.0
C139 C 0.30018 0.17328 0.57551 0.0
C140 C 0.41288 0.13962 0.59882 0.0
C141 C 0.32645 0.06119 0.56618 0.0
O142 O 0.40988 0.17074 0.44807 0.0
O143 O 0.30044 0.15703 0.41366 0.0
O144 O 0.36619 0.066 0.42287 0.0
O145 O 0.32806 0.18583 0.56404 0.0
O146 O 0.41251 0.1125 0.57115 0.0
O147 O 0.30468 0.07722 0.53794 0.0
O148 O 0.39679 0.1646 0.58188 0.0
O149 O 0.28832 0.14882 0.54782 0.0
O150 O 0.35719 0.06484 0.55806 0.0
O151 O 0.34054 0.19354 0.4302 0.0
O152 O 0.41859 0.1168 0.43571 0.0
O153 O 0.3164 0.08634 0.4039 0.0
Sc154 Sc 0.80795 0.36887 0.49339 0.0
Sc155 Sc 0.872 0.31062 0.49828 0.0
Sc156 Sc 0.88961 0.39503 0.50916 0.0
O157 O 0.8566 0.35811 0.50039 0.0
C158 C 0.83966 0.42827 0.42191 0.0
C159 C 0.81749 0.31434 0.39617 0.0
C160 C 0.92725 0.34633 0.42283 0.0
C161 C 0.80589 0.30284 0.569 0.0
C162 C 0.8303 0.41699 0.59397 0.0
C163 C 0.9184 0.34129 0.5974 0.0
O164 O 0.81512 0.41246 0.44144 0.0
O165 O 0.84014 0.29948 0.42448 0.0
O166 O 0.92258 0.37441 0.4456 0.0
O167 O 0.79236 0.32733 0.54444 0.0
O168 O 0.85926 0.41982 0.57307 0.0
O169 O 0.90493 0.31697 0.57176 0.0
O170 O 0.80888 0.39735 0.57311 0.0
O171 O 0.83566 0.295 0.56056 0.0
O172 O 0.9146 0.37087 0.58058 0.0
O173 O 0.80455 0.34115 0.41324 0.0
O174 O 0.86897 0.42281 0.43808 0.0
O175 O 0.91082 0.32088 0.43653 0.0
C176 C 0.47039 0.18206 0.38605 0.0
C177 C 0.45062 0.15397 0.38063 0.0
C178 C 0.49525 0.18866 0.34478 0.0
C179 C 0.49962 0.16707 0.29648 0.0
C180 C 0.47916 0.13908 0.29022 0.0
C181 C 0.45517 0.13264 0.3329 0.0
C182 C 0.51725 0.2182 0.35346 0.0
C183 C 0.48266 0.11582 0.23857 0.0
C184 C 0.54233 0.19044 0.15455 0.0
C185 C 0.57074 0.1712 0.1587 0.0
C186 C 0.51958 0.19111 0.20103 0.0
C187 C 0.5261 0.17275 0.2529 0.0
C188 C 0.55628 0.15582 0.25916 0.0
C189 C 0.57807 0.15484 0.21146 0.0
C190 C 0.48739 0.20896 0.19244 0.0
C191 C 0.56448 0.13671 0.31444 0.0
H192 H 0.46691 0.19844 0.42329 0.0
H193 H 0.43958 0.11113 0.32843 0.0
H194 H 0.5431 0.21003 0.35909 0.0
H195 H 0.5165 0.23422 0.31384 0.0
H196 H 0.51008 0.23297 0.39265 0.0
H197 H 0.46347 0.09634 0.23852 0.0
H198 H 0.48105 0.12962 0.19638 0.0
H199 H 0.50714 0.10383 0.23994 0.0
H200 H 0.53672 0.20293 0.11344 0.0
H201 H 0.60034 0.14027 0.21459 0.0
H202 H 0.48106 0.22356 0.23217 0.0
H203 H 0.46741 0.19071 0.18574 0.0
H204 H 0.48803 0.22561 0.15353 0.0
H205 H 0.55862 0.15132 0.35442 0.0
H206 H 0.59084 0.12957 0.31601 0.0
H207 H 0.54939 0.11398 0.31601 0.0
C208 C 0.84063 0.57891 0.20235 0.0
C209 C 0.81871 0.57396 0.15557 0.0
C210 C 0.84041 0.5579 0.25125 0.0
C211 C 0.81865 0.53072 0.25171 0.0
C212 C 0.79524 0.52675 0.2059 0.0
C213 C 0.79524 0.54889 0.15851 0.0
C214 C 0.86495 0.56354 0.30034 0.0
C215 C 0.77225 0.49757 0.20418 0.0
C216 C 0.85253 0.45506 0.32675 0.0
C217 C 0.83385 0.45418 0.37846 0.0
C218 C 0.84716 0.4795 0.28442 0.0
C219 C 0.82344 0.50423 0.29554 0.0
C220 C 0.80487 0.50369 0.34834 0.0
C221 C 0.80989 0.47815 0.38889 0.0
C222 C 0.8668 0.47878 0.22778 0.0
C223 C 0.78031 0.53036 0.36244 0.0
H224 H 0.85866 0.59854 0.19967 0.0
H225 H 0.77859 0.54509 0.12167 0.0
H226 H 0.85311 0.56026 0.34409 0.0
H227 H 0.88507 0.54524 0.29698 0.0
H228 H 0.876 0.58852 0.29823 0.0
H229 H 0.75319 0.50011 0.16929 0.0
H230 H 0.78665 0.47494 0.19532 0.0
H231 H 0.75985 0.49421 0.24736 0.0
H232 H 0.87089 0.43622 0.319 0.0
H233 H 0.79577 0.47738 0.42949 0.0
H234 H 0.88259 0.50097 0.22484 0.0
H235 H 0.84997 0.47911 0.18916 0.0
H236 H 0.88277 0.4567 0.22464 0.0
H237 H 0.79294 0.55457 0.36351 0.0
H238 H 0.76797 0.52632 0.4056 0.0
H239 H 0.76126 0.53169 0.32744 0.0
C240 C 0.56621 0.82839 0.27784 0.0
C241 C 0.55862 0.85037 0.32352 0.0
C242 C 0.54593 0.82581 0.22798 0.0
C243 C 0.51714 0.8452 0.22451 0.0
C244 C 0.50962 0.8678 0.27003 0.0
C245 C 0.53065 0.87032 0.3188 0.0
C246 C 0.55497 0.80194 0.17958 0.0
C247 C 0.47884 0.88856 0.26814 0.0
C248 C 0.47183 0.85878 0.08043 0.0
C249 C 0.44612 0.83592 0.08532 0.0
C250 C 0.49596 0.86125 0.12445 0.0
C251 C 0.49386 0.84079 0.17485 0.0
C252 C 0.46838 0.81721 0.17944 0.0
C253 C 0.44494 0.81487 0.13431 0.0
C254 C 0.5232 0.88625 0.11774 0.0
C255 C 0.46513 0.7953 0.23303 0.0
H256 H 0.58803 0.81319 0.28106 0.0
H257 H 0.52462 0.88724 0.35414 0.0
H258 H 0.53624 0.78214 0.17698 0.0
H259 H 0.55519 0.81465 0.13621 0.0
H260 H 0.57943 0.79051 0.18698 0.0
H261 H 0.47704 0.90552 0.30645 0.0
H262 H 0.47822 0.90333 0.22696 0.0
H263 H 0.45681 0.87242 0.26785 0.0
H264 H 0.47298 0.87491 0.04235 0.0
H265 H 0.42501 0.79729 0.13849 0.0
H266 H 0.5475 0.87437 0.12423 0.0
H267 H 0.52072 0.9055 0.15213 0.0
H268 H 0.52288 0.8983 0.0737 0.0
H269 H 0.48823 0.78139 0.24028 0.0
H270 H 0.4445 0.7775 0.22879 0.0
H271 H 0.46091 0.81057 0.27291 0.0
C272 C 0.20784 0.44059 0.14107 0.0
C273 C 0.1865 0.44605 0.09346 0.0
C274 C 0.21074 0.46389 0.18644 0.0
C275 C 0.19206 0.49319 0.18336 0.0
C276 C 0.17329 0.50022 0.13229 0.0
C277 C 0.17057 0.47642 0.08805 0.0
C278 C 0.23119 0.45567 0.24009 0.0
C279 C 0.15346 0.53146 0.12687 0.0
C280 C 0.15222 0.52594 0.32148 0.0
C281 C 0.17092 0.5542 0.3329 0.0
C282 C 0.15984 0.50524 0.27428 0.0
C283 C 0.18672 0.51313 0.23714 0.0
C284 C 0.20637 0.54106 0.24925 0.0
C285 C 0.19828 0.5613 0.29732 0.0
C286 C 0.13843 0.47544 0.26315 0.0
C287 C 0.2351 0.5502 0.21034 0.0
H288 H 0.22037 0.41718 0.14512 0.0
H289 H 0.1546 0.48096 0.05052 0.0
H290 H 0.24487 0.47758 0.2559 0.0
H291 H 0.21472 0.44755 0.27637 0.0
H292 H 0.249 0.43562 0.23091 0.0
H293 H 0.14474 0.53562 0.08094 0.0
H294 H 0.13164 0.5299 0.15619 0.0
H295 H 0.16817 0.55305 0.14102 0.0
H296 H 0.13136 0.52002 0.34935 0.0
H297 H 0.21285 0.58311 0.30605 0.0
H298 H 0.15379 0.45298 0.26027 0.0
H299 H 0.12542 0.47821 0.22033 0.0
H300 H 0.11975 0.47175 0.29835 0.0
H301 H 0.25086 0.52846 0.20192 0.0
H302 H 0.25041 0.56999 0.2301 0.0
H303 H 0.22584 0.55887 0.16694 0.0
C304 C 0.52286 0.80236 0.5879 0.0
C305 C 0.54269 0.8303 0.59517 0.0
C306 C 0.49815 0.79478 0.62909 0.0
C307 C 0.49392 0.81524 0.67906 0.0
C308 C 0.51472 0.8428 0.68745 0.0
C309 C 0.53857 0.8502 0.64502 0.0
C310 C 0.47594 0.76564 0.6182 0.0
C311 C 0.51145 0.86488 0.74082 0.0
C312 C 0.41536 0.82902 0.76286 0.0
C313 C 0.42198 0.81229 0.81555 0.0
C314 C 0.43721 0.82741 0.71527 0.0
C315 C 0.46678 0.80941 0.72149 0.0
C316 C 0.47234 0.79045 0.77305 0.0
C317 C 0.44954 0.79184 0.8195 0.0
C318 C 0.42994 0.84725 0.66041 0.0
C319 C 0.50377 0.77131 0.7816 0.0
H320 H 0.52602 0.78703 0.54918 0.0
H321 H 0.55423 0.87154 0.65108 0.0
H322 H 0.47512 0.74955 0.65773 0.0
H323 H 0.45048 0.77435 0.61001 0.0
H324 H 0.48401 0.75082 0.57966 0.0
H325 H 0.53114 0.88383 0.74278 0.0
H326 H 0.48731 0.87754 0.73978 0.0
H327 H 0.51239 0.85006 0.78195 0.0
H328 H 0.39374 0.84457 0.75986 0.0
H329 H 0.4546 0.77903 0.86053 0.0
H330 H 0.43566 0.83287 0.6201 0.0
H331 H 0.44567 0.86957 0.65992 0.0
H332 H 0.4038 0.85515 0.65851 0.0
H333 H 0.51028 0.75755 0.741 0.0
H334 H 0.50193 0.75373 0.81903 0.0
H335 H 0.5242 0.78869 0.79091 0.0
C336 C 0.17955 0.45166 0.82807 0.0
C337 C 0.15803 0.42489 0.8317 0.0
C338 C 0.17798 0.4734 0.78014 0.0
C339 C 0.1551 0.46738 0.73417 0.0
C340 C 0.13453 0.43931 0.73629 0.0
C341 C 0.13583 0.41867 0.78574 0.0
C342 C 0.1996 0.50364 0.78016 0.0
C343 C 0.11059 0.43154 0.68717 0.0
C344 C 0.12438 0.53988 0.64527 0.0
C345 C 0.14536 0.53897 0.59637 0.0
C346 C 0.12745 0.51676 0.69073 0.0
C347 C 0.15129 0.49155 0.6858 0.0
C348 C 0.17184 0.48995 0.63545 0.0
C349 C 0.16904 0.51417 0.59169 0.0
C350 C 0.10577 0.5198 0.74462 0.0
C351 C 0.19669 0.46273 0.62786 0.0
H352 H 0.19644 0.45651 0.86414 0.0
H353 H 0.11936 0.39773 0.78872 0.0
H354 H 0.21433 0.50479 0.73902 0.0
H355 H 0.184 0.52601 0.78141 0.0
H356 H 0.21664 0.50423 0.81853 0.0
H357 H 0.09883 0.40707 0.69289 0.0
H358 H 0.09097 0.45045 0.68581 0.0
H359 H 0.12334 0.43212 0.64386 0.0
H360 H 0.10628 0.55936 0.64881 0.0
H361 H 0.18503 0.51349 0.5534 0.0
H362 H 0.12123 0.52231 0.7848 0.0
H363 H 0.0907 0.49726 0.75006 0.0
H364 H 0.08899 0.54129 0.74198 0.0
H365 H 0.21552 0.46416 0.66322 0.0
H366 H 0.20931 0.46393 0.5844 0.0
H367 H 0.18438 0.43846 0.63198 0.0
C368 C 0.46047 0.12109 0.65983 0.0
C369 C 0.43386 0.14253 0.65185 0.0
C370 C 0.48176 0.12457 0.70808 0.0
C371 C 0.47593 0.14976 0.74988 0.0
C372 C 0.44858 0.1709 0.74308 0.0
C373 C 0.42799 0.16723 0.69376 0.0
C374 C 0.51095 0.1018 0.71352 0.0
C375 C 0.44129 0.19759 0.78749 0.0
C376 C 0.51955 0.13813 0.89625 0.0
C377 C 0.54732 0.15822 0.8889 0.0
C378 C 0.49527 0.13625 0.85237 0.0
C379 C 0.49923 0.15445 0.79958 0.0
C380 C 0.52672 0.17549 0.79262 0.0
C381 C 0.55032 0.17734 0.83764 0.0
C382 C 0.46595 0.11402 0.86171 0.0
C383 C 0.53196 0.19493 0.73654 0.0
H384 H 0.46522 0.10206 0.62743 0.0
H385 H 0.40726 0.18367 0.68807 0.0
H386 H 0.53409 0.11629 0.71254 0.0
H387 H 0.51017 0.08867 0.75644 0.0
H388 H 0.51178 0.08329 0.67748 0.0
H389 H 0.41793 0.21064 0.77766 0.0
H390 H 0.43973 0.18696 0.83255 0.0
H391 H 0.46162 0.21581 0.78784 0.0
H392 H 0.51696 0.12355 0.93607 0.0
H393 H 0.57181 0.19279 0.83159 0.0
H394 H 0.46706 0.09311 0.83036 0.0
H395 H 0.44279 0.12753 0.85265 0.0
H396 H 0.46493 0.10404 0.90737 0.0
H397 H 0.53547 0.17782 0.6989 0.0
H398 H 0.55375 0.21138 0.73931 0.0
H399 H 0.50997 0.21006 0.72661 0.0
C400 C 0.78482 0.54644 0.84545 0.0
C401 C 0.80896 0.5428 0.88915 0.0
C402 C 0.78189 0.52332 0.79985 0.0
C403 C 0.80336 0.49597 0.79883 0.0
C404 C 0.82537 0.49053 0.84624 0.0
C405 C 0.8281 0.51421 0.89068 0.0
C406 C 0.75808 0.52987 0.75005 0.0
C407 C 0.84823 0.46129 0.84729 0.0
C408 C 0.79669 0.42832 0.68423 0.0
C409 C 0.82138 0.4379 0.64451 0.0
C410 C 0.78967 0.44744 0.73424 0.0
C411 C 0.80754 0.47683 0.74386 0.0
C412 C 0.83153 0.48719 0.70255 0.0
C413 C 0.8383 0.46747 0.65361 0.0
C414 C 0.76417 0.43559 0.77777 0.0
C415 C 0.85083 0.51866 0.71087 0.0
H416 H 0.76984 0.56848 0.84442 0.0
H417 H 0.84632 0.51105 0.92524 0.0
H418 H 0.77181 0.53951 0.71138 0.0
H419 H 0.7456 0.50689 0.73603 0.0
H420 H 0.73913 0.54824 0.76264 0.0
H421 H 0.85968 0.45774 0.89141 0.0
H422 H 0.83491 0.43849 0.83497 0.0
H423 H 0.86816 0.46504 0.81448 0.0
H424 H 0.78361 0.40541 0.67725 0.0
H425 H 0.85703 0.4752 0.62247 0.0
H426 H 0.74702 0.45575 0.78945 0.0
H427 H 0.77652 0.4277 0.81912 0.0
H428 H 0.74971 0.41453 0.7603 0.0
H429 H 0.83384 0.53967 0.7174 0.0
H430 H 0.86702 0.5242 0.67261 0.0
H431 H 0.8664 0.51674 0.751 0.0
C432 C 0.95046 0.62262 0.82995 0.0
C433 C 0.92489 0.64556 0.83451 0.0
C434 C 0.97202 0.62316 0.78165 0.0
C435 C 0.96747 0.64685 0.73654 0.0
C436 C 0.94104 0.66933 0.73992 0.0
C437 C 0.9202 0.66859 0.78914 0.0
C438 C 0.00017 0.59899 0.77966 0.0
C439 C 0.93508 0.6945 0.69203 0.0
C440 C 0.04187 0.67027 0.64502 0.0
C441 C 0.03761 0.65059 0.59477 0.0
C442 C 0.01903 0.66947 0.69133 0.0
C443 C 0.99109 0.64883 0.68684 0.0
C444 C 0.9861 0.62965 0.63552 0.0
C445 C 0.00955 0.6306 0.5902 0.0
C446 C 0.02524 0.69007 0.74572 0.0
C447 C 0.9563 0.60773 0.62892 0.0
H448 H 0.95422 0.60485 0.865 0.0
H449 H 0.90019 0.68611 0.79211 0.0
H450 H -0.00076 0.58457 0.73812 0.0
H451 H 0.02393 0.61246 0.78003 0.0
H452 H -0.00019 0.58165 0.81759 0.0
H453 H 0.91223 0.70886 0.69962 0.0
H454 H 0.95614 0.71183 0.68986 0.0
H455 H 0.93327 0.68223 0.64839 0.0
H456 H 0.06358 0.68561 0.64905 0.0
H457 H 0.00599 0.61547 0.55131 0.0
H458 H 0.02759 0.67389 0.78497 0.0
H459 H 0.00411 0.7067 0.75375 0.0
H460 H 0.04794 0.70517 0.74187 0.0
H461 H 0.95662 0.58839 0.66347 0.0
H462 H 0.95525 0.59565 0.58497 0.0
H463 H 0.93347 0.62224 0.63525 0.0
C464 C 0.33522 0.03259 0.66145 0.0
C465 C 0.31586 0.03726 0.61106 0.0
C466 C 0.3271 0.00859 0.70313 0.0
C467 C 0.29933 0.98822 0.69339 0.0
C468 C 0.27902 0.99349 0.64349 0.0
C469 C 0.28738 0.0183 0.603 0.0
C470 C 0.34906 0.00425 0.75648 0.0
C471 C 0.24955 0.97193 0.63129 0.0
C472 C 0.31607 0.90842 0.77027 0.0
C473 C 0.3008 0.91393 0.82467 0.0
C474 C 0.31244 0.93083 0.72391 0.0
C475 C 0.29391 0.95981 0.73321 0.0
C476 C 0.27592 0.96385 0.78629 0.0
C477 C 0.27943 0.94055 0.83161 0.0
C478 C 0.3314 0.92519 0.66748 0.0
C479 C 0.25599 0.99443 0.79787 0.0
H480 H 0.35697 0.04763 0.66807 0.0
H481 H 0.27245 0.02194 0.56384 0.0
H482 H 0.33415 0.00408 0.79752 0.0
H483 H 0.36196 0.98028 0.75372 0.0
H484 H 0.36785 0.02401 0.76009 0.0
H485 H 0.23355 0.98232 0.59614 0.0
H486 H 0.25807 0.94731 0.61686 0.0
H487 H 0.23469 0.96839 0.67188 0.0
H488 H 0.33252 0.88762 0.7653 0.0
H489 H 0.26787 0.94473 0.8741 0.0
H490 H 0.35355 0.94116 0.6671 0.0
H491 H 0.31625 0.93171 0.62843 0.0
H492 H 0.33955 0.89923 0.66316 0.0
H493 H 0.27287 0.01488 0.80963 0.0
H494 H 0.23842 0.99085 0.8349 0.0
H495 H 0.24211 0.00197 0.75791 0.0
C496 C 0.93607 0.30663 0.68289 0.0
C497 C 0.94019 0.33491 0.64818 0.0
C498 C 0.95671 0.30054 0.73136 0.0
C499 C 0.98234 0.32295 0.74441 0.0
C500 C 0.9869 0.35125 0.7089 0.0
C501 C 0.96554 0.35705 0.66157 0.0
C502 C 0.95083 0.27047 0.76903 0.0
C503 C 0.01433 0.37549 0.72097 0.0
C504 C 0.02043 0.33402 0.89493 0.0
C505 C 0.05102 0.3188 0.88713 0.0
C506 C -0.00332 0.33337 0.85017 0.0
C507 C 0.00407 0.31768 0.79606 0.0
C508 C 0.0341 0.30049 0.78933 0.0
C509 C 0.05719 0.30101 0.83536 0.0
C510 C 0.96463 0.35138 0.8594 0.0
C511 C 0.04295 0.28378 0.73199 0.0
H512 H 0.91635 0.28956 0.67276 0.0
H513 H 0.96902 0.37874 0.63443 0.0
H514 H 0.97331 0.25506 0.77039 0.0
H515 H 0.94541 0.27801 0.8151 0.0
H516 H 0.93006 0.25528 0.75247 0.0
H517 H 0.01534 0.39548 0.68757 0.0
H518 H 0.01094 0.38674 0.76517 0.0
H519 H 0.03839 0.36263 0.72135 0.0
H520 H 0.0155 0.34745 0.93533 0.0
H521 H 0.08091 0.28933 0.82922 0.0
H522 H 0.94356 0.33612 0.84448 0.0
H523 H 0.96457 0.37424 0.83264 0.0
H524 H 0.96078 0.35815 0.90643 0.0
H525 H 0.02224 0.26839 0.716 0.0
H526 H 0.06517 0.26809 0.73642 0.0
H527 H 0.04783 0.3027 0.69776 0.0
C528 C 0.6867 0.05373 0.83508 0.0
C529 C 0.66276 0.05169 0.87935 0.0
C530 C 0.68791 0.03024 0.78991 0.0
C531 C 0.66507 0.00394 0.79017 0.0
C532 C 0.64216 0.00077 0.83679 0.0
C533 C 0.64103 0.02496 0.88056 0.0
C534 C 0.71229 0.03463 0.74023 0.0
C535 C 0.61783 0.97268 0.83901 0.0
C536 C 0.63705 0.96905 0.64432 0.0
C537 C 0.65557 0.9401 0.64068 0.0
C538 C 0.64043 0.99027 0.6924 0.0
C539 C 0.66245 0.982 0.73843 0.0
C540 C 0.68108 0.9527 0.73541 0.0
C541 C 0.67765 0.93215 0.68608 0.0
C542 C 0.62043 0.02157 0.69385 0.0
C543 C 0.70428 0.94294 0.78446 0.0
H544 H 0.70348 0.07447 0.83426 0.0
H545 H 0.62286 0.02314 0.91548 0.0
H546 H 0.72594 0.01146 0.73227 0.0
H547 H 0.69891 0.0407 0.6989 0.0
H548 H 0.73027 0.05458 0.74942 0.0
H549 H 0.60454 0.97158 0.88183 0.0
H550 H 0.59945 0.97559 0.80314 0.0
H551 H 0.63054 0.94889 0.83179 0.0
H552 H 0.62024 0.97546 0.60896 0.0
H553 H 0.69188 0.90968 0.68339 0.0
H554 H 0.63694 0.04314 0.69881 0.0
H555 H 0.60368 0.02131 0.73251 0.0
H556 H 0.6054 0.02493 0.65329 0.0
H557 H 0.7231 0.96237 0.7911 0.0
H558 H 0.71699 0.91933 0.77523 0.0
H559 H 0.6905 0.94051 0.82653 0.0
C560 C 0.07721 0.35864 0.19932 0.0
C561 C 0.07216 0.33799 0.15073 0.0
C562 C 0.05542 0.35815 0.24722 0.0
C563 C 0.02746 0.3374 0.24502 0.0
C564 C 0.02262 0.31611 0.19637 0.0
C565 C 0.04542 0.31628 0.15012 0.0
C566 C 0.06185 0.38042 0.29933 0.0
C567 C 0.99252 0.29444 0.19169 0.0
C568 C 0.97701 0.31945 0.38189 0.0
C569 C 0.95263 0.34353 0.37744 0.0
C570 C 0.00221 0.31765 0.33979 0.0
C571 C 0.00197 0.33968 0.29136 0.0
C572 C 0.9769 0.36365 0.28633 0.0
C573 C 0.95281 0.36568 0.33023 0.0
C574 C 0.02923 0.29257 0.34743 0.0
C575 C 0.97526 0.38686 0.23429 0.0
H576 H 0.09812 0.37523 0.19968 0.0
H577 H 0.04146 0.30058 0.11206 0.0
H578 H 0.04288 0.39996 0.30106 0.0
H579 H 0.06017 0.36628 0.34117 0.0
H580 H 0.08644 0.39231 0.29694 0.0
H581 H 0.99306 0.27853 0.15182 0.0
H582 H 0.99031 0.27855 0.23129 0.0
H583 H 0.97011 0.30998 0.1898 0.0
H584 H 0.97682 0.30265 0.4191 0.0
H585 H 0.93368 0.38418 0.32714 0.0
H586 H 0.05353 0.30505 0.34784 0.0
H587 H 0.02924 0.27524 0.30965 0.0
H588 H 0.02651 0.27824 0.38893 0.0
H589 H -0.00233 0.40241 0.23287 0.0
H590 H 0.95339 0.40319 0.2361 0.0
H591 H 0.9744 0.37264 0.19248 0.0
C592 C 0.65011 0.98315 0.35928 0.0
C593 C 0.67287 0.95924 0.37685 0.0
C594 C 0.65837 0.00667 0.31678 0.0
C595 C 0.69007 0.00601 0.29094 0.0
C596 C 0.71388 0.98337 0.3112 0.0
C597 C 0.70499 0.96018 0.35411 0.0
C598 C 0.6324 0.03079 0.29675 0.0
C599 C 0.74795 0.98215 0.28484 0.0
C600 C 0.68243 0.03275 0.13333 0.0
C601 C 0.69018 0.06613 0.13777 0.0
C602 C 0.68546 0.01202 0.1821 0.0
C603 C 0.69592 0.02535 0.2367 0.0
C604 C 0.70658 0.05846 0.24003 0.0
C605 C 0.70373 0.07862 0.18997 0.0
C606 C 0.67444 0.97666 0.17641 0.0
C607 C 0.71812 0.07334 0.29745 0.0
H608 H 0.62547 0.98299 0.37759 0.0
H609 H 0.72283 0.94194 0.36789 0.0
H610 H 0.64251 0.05613 0.29585 0.0
H611 H 0.62446 0.0246 0.25118 0.0
H612 H 0.61039 0.03048 0.32582 0.0
H613 H 0.76528 0.96804 0.3131 0.0
H614 H 0.74678 0.97006 0.24096 0.0
H615 H 0.75792 0.00727 0.27813 0.0
H616 H 0.67232 0.02324 0.09238 0.0
H617 H 0.70965 0.10457 0.193 0.0
H618 H 0.65061 0.97335 0.19958 0.0
H619 H 0.69252 0.95991 0.19735 0.0
H620 H 0.67116 0.96922 0.12956 0.0
H621 H 0.69644 0.07908 0.32534 0.0
H622 H 0.73209 0.09648 0.29008 0.0
H623 H 0.7338 0.05587 0.32238 0.0
C624 C 0.96001 0.6975 0.09691 0.0
C625 C 0.93393 0.67578 0.10724 0.0
C626 C 0.98524 0.70105 0.13889 0.0
C627 C 0.98363 0.68285 0.1922 0.0
C628 C 0.95593 0.66282 0.20425 0.0
C629 C 0.9316 0.65926 0.16123 0.0
C630 C 0.01453 0.72241 0.12449 0.0
C631 C 0.95289 0.64352 0.26107 0.0
C632 C 0.05676 0.64872 0.27333 0.0
C633 C 0.05709 0.66833 0.32413 0.0
C634 C 0.03474 0.65513 0.22727 0.0
C635 C 0.01211 0.68137 0.23286 0.0
C636 C 0.01378 0.70257 0.28226 0.0
C637 C 0.03652 0.69592 0.3273 0.0
C638 C 0.03414 0.63235 0.17461 0.0
C639 C 0.98991 0.73065 0.28985 0.0
H640 H 0.96165 0.71012 0.05481 0.0
H641 H 0.91108 0.64273 0.16908 0.0
H642 H 0.02175 0.73752 0.16317 0.0
H643 H 0.0358 0.70653 0.11323 0.0
H644 H 0.00958 0.73894 0.08645 0.0
H645 H 0.92825 0.63198 0.266 0.0
H646 H 0.97171 0.62379 0.262 0.0
H647 H 0.9574 0.6597 0.29967 0.0
H648 H 0.07312 0.62774 0.27031 0.0
H649 H 0.03682 0.71122 0.36649 0.0
H650 H 0.03276 0.64663 0.13292 0.0
H651 H 0.01193 0.61649 0.17683 0.0
H652 H 0.05617 0.61624 0.17298 0.0
H653 H 0.98686 0.74442 0.24791 0.0
H654 H -0.00203 0.748 0.32489 0.0
H655 H 0.96544 0.72069 0.30221 0.0
C656 C 0.30826 0.93486 0.13985 0.0
C657 C 0.33092 0.93797 0.09348 0.0
C658 C 0.30826 0.95717 0.18696 0.0
C659 C 0.3311 0.98344 0.1871 0.0
C660 C 0.35309 0.98752 0.13924 0.0
C661 C 0.35292 0.96455 0.09316 0.0
C662 C 0.28475 0.95182 0.23772 0.0
C663 C 0.37746 0.01558 0.13758 0.0
C664 C 0.31609 0.05395 0.29312 0.0
C665 C 0.33786 0.04618 0.33915 0.0
C666 C 0.31388 0.03395 0.24284 0.0
C667 C 0.33348 0.00532 0.23919 0.0
C668 C 0.35536 -0.00272 0.28562 0.0
C669 C 0.35747 0.01797 0.33486 0.0
C670 C 0.2907 0.0435 0.19359 0.0
C671 C 0.37637 0.96667 0.28352 0.0
H672 H 0.29132 0.91426 0.14051 0.0
H673 H 0.37028 0.96722 0.05714 0.0
H674 H 0.29885 0.94643 0.27857 0.0
H675 H 0.27026 0.97443 0.24602 0.0
H676 H 0.26746 0.93115 0.22943 0.0
H677 H 0.39086 0.01688 0.09489 0.0
H678 H 0.36468 0.03931 0.145 0.0
H679 H 0.39572 0.01259 0.17362 0.0
H680 H 0.3011 0.07591 0.29602 0.0
H681 H 0.37418 0.01175 0.37047 0.0
H682 H 0.27206 0.0239 0.18695 0.0
H683 H 0.30452 0.04603 0.15158 0.0
H684 H 0.27776 0.06699 0.20271 0.0
H685 H 0.36049 0.94461 0.2789 0.0
H686 H 0.39179 0.96376 0.32371 0.0
H687 H 0.39277 0.96746 0.24441 0.0
C688 C 0.79163 0.31869 0.29685 0.0
C689 C 0.80445 0.29905 0.34219 0.0
C690 C 0.77672 0.30443 0.24733 0.0
C691 C 0.77386 0.26982 0.24416 0.0
C692 C 0.78764 0.24985 0.28901 0.0
C693 C 0.80318 0.26477 0.33728 0.0
C694 C 0.76304 0.32639 0.19948 0.0
C695 C 0.78448 0.21285 0.28757 0.0
C696 C 0.70143 0.23465 0.16066 0.0
C697 C 0.7167 0.22217 0.11 0.0
C698 C 0.71982 0.25046 0.2045 0.0
C699 C 0.75412 0.25454 0.19663 0.0
C700 C 0.76951 0.24302 0.1446 0.0
C701 C 0.75062 0.22652 0.10209 0.0
C702 C 0.7027 0.2619 0.26002 0.0
C703 C 0.8059 0.24774 0.13426 0.0
H704 H 0.79301 0.34525 0.30039 0.0
H705 H 0.81297 0.2496 0.37254 0.0
H706 H 0.77137 0.31788 0.1554 0.0
H707 H 0.73578 0.32516 0.19982 0.0
H708 H 0.77057 0.35245 0.20535 0.0
H709 H 0.79801 0.20086 0.32436 0.0
H710 H 0.75813 0.20586 0.29067 0.0
H711 H 0.79391 0.20306 0.24515 0.0
H712 H 0.67524 0.23101 0.16704 0.0
H713 H 0.76236 0.21706 0.06263 0.0
H714 H 0.7065 0.28868 0.26621 0.0
H715 H 0.71344 0.24932 0.29903 0.0
H716 H 0.67582 0.25689 0.25905 0.0
H717 H 0.81256 0.27405 0.13938 0.0
H718 H 0.81359 0.23941 0.08964 0.0
H719 H 0.8201 0.23377 0.16773 0.0
C720 C 0.8067 0.74104 0.1451 0.0
C721 C 0.78581 0.72576 0.1043 0.0
C722 C 0.79373 0.75944 0.19187 0.0
C723 C 0.75923 0.76327 0.19638 0.0
C724 C 0.73823 0.74954 0.15299 0.0
C725 C 0.75179 0.73038 0.10791 0.0
C726 C 0.81674 0.77301 0.23824 0.0
C727 C 0.70136 0.75394 0.15553 0.0
C728 C 0.71772 0.77224 0.34435 0.0
C729 C 0.71158 0.80602 0.346 0.0
C730 C 0.73475 0.7583 0.29701 0.0
C731 C 0.7447 0.77859 0.24944 0.0
C732 C 0.73893 0.81288 0.25133 0.0
C733 C 0.72281 0.82634 0.30037 0.0
C734 C 0.74135 0.72175 0.29726 0.0
C735 C 0.74839 0.83502 0.20055 0.0
H736 H 0.83304 0.73717 0.14217 0.0
H737 H 0.7358 0.71877 0.07571 0.0
H738 H 0.81151 0.79934 0.24656 0.0
H739 H 0.81281 0.7597 0.28047 0.0
H740 H 0.84299 0.77043 0.22541 0.0
H741 H 0.68904 0.74525 0.11458 0.0
H742 H 0.69124 0.73991 0.19343 0.0
H743 H 0.6951 0.7802 0.16248 0.0
H744 H 0.70917 0.75675 0.38022 0.0
H745 H 0.7177 0.85249 0.30191 0.0
H746 H 0.76771 0.71693 0.28802 0.0
H747 H 0.7268 0.70969 0.2619 0.0
H748 H 0.73484 0.71014 0.34012 0.0
H749 H 0.77468 0.83164 0.18905 0.0
H750 H 0.74408 0.86139 0.21066 0.0
H751 H 0.73375 0.82833 0.16093 0.0
C752 C 0.29779 0.7489 0.14678 0.0
C753 C 0.29936 0.78315 0.14155 0.0
C754 C 0.28203 0.73424 0.19508 0.0
C755 C 0.26842 0.75444 0.2397 0.0
C756 C 0.27197 0.789 0.23656 0.0
C757 C 0.287 0.80301 0.18691 0.0
C758 C 0.2781 0.69731 0.19637 0.0
C759 C 0.25861 0.81121 0.28424 0.0
C760 C 0.19396 0.721 0.31968 0.0
C761 C 0.20823 0.7077 0.37064 0.0
C762 C 0.21335 0.73652 0.27691 0.0
C763 C 0.24766 0.73955 0.28628 0.0
C764 C 0.26204 0.72727 0.33873 0.0
C765 C 0.24215 0.71098 0.38003 0.0
C766 C 0.19725 0.74873 0.22087 0.0
C767 C 0.29839 0.73097 0.3508 0.0
H768 H 0.30721 0.73358 0.11145 0.0
H769 H 0.28857 0.82954 0.18303 0.0
H770 H 0.28661 0.68728 0.23927 0.0
H771 H 0.25167 0.69089 0.19177 0.0
H772 H 0.29197 0.68506 0.16032 0.0
H773 H 0.26733 0.83696 0.27917 0.0
H774 H 0.23134 0.81117 0.28257 0.0
H775 H 0.26596 0.8021 0.32853 0.0
H776 H 0.16775 0.71819 0.31221 0.0
H777 H 0.2531 0.7009 0.41979 0.0
H778 H 0.20821 0.73617 0.18209 0.0
H779 H 0.20175 0.77546 0.21543 0.0
H780 H 0.17026 0.74437 0.22052 0.0
H781 H 0.31266 0.71665 0.31797 0.0
H782 H 0.30521 0.72236 0.39574 0.0
H783 H 0.30584 0.75709 0.34609 0.0
C784 C 0.30798 0.23724 0.35014 0.0
C785 C 0.30389 0.20302 0.35091 0.0
C786 C 0.29437 0.25627 0.30458 0.0
C787 C 0.27694 0.2405 0.25843 0.0
C788 C 0.27422 0.20582 0.25757 0.0
C789 C 0.28744 0.18752 0.30419 0.0
C790 C 0.29731 0.29324 0.30729 0.0
C791 C 0.25634 0.18809 0.20845 0.0
C792 C 0.20744 0.2828 0.1781 0.0
C793 C 0.2223 0.29097 0.12424 0.0
C794 C 0.22549 0.26778 0.22324 0.0
C795 C 0.25901 0.26013 0.21371 0.0
C796 C 0.27442 0.26912 0.16001 0.0
C797 C 0.25589 0.28481 0.11597 0.0
C798 C 0.20838 0.25917 0.28043 0.0
C799 C 0.31 0.26085 0.14811 0.0
H800 H 0.32067 0.24925 0.38632 0.0
H801 H 0.28472 0.16099 0.30426 0.0
H802 H 0.30653 0.30307 0.26471 0.0
H803 H 0.27264 0.30411 0.31487 0.0
H804 H 0.31401 0.30148 0.34324 0.0
H805 H 0.2592 0.16098 0.21142 0.0
H806 H 0.22973 0.194 0.21033 0.0
H807 H 0.2656 0.19641 0.16483 0.0
H808 H 0.18156 0.28801 0.18484 0.0
H809 H 0.26735 0.29107 0.07421 0.0
H810 H 0.2227 0.26857 0.31861 0.0
H811 H 0.2068 0.23206 0.28504 0.0
H812 H 0.18308 0.26942 0.28269 0.0
H813 H 0.32582 0.26959 0.18482 0.0
H814 H 0.31898 0.27182 0.10615 0.0
H815 H 0.31289 0.23376 0.14552 0.0
C816 C 0.1936 0.72292 0.64315 0.0
C817 C 0.18898 0.68891 0.63879 0.0
C818 C 0.209 0.73663 0.69258 0.0
C819 C 0.21919 0.71579 0.73918 0.0
C820 C 0.21308 0.68159 0.73634 0.0
C821 C 0.1984 0.66843 0.6856 0.0
C822 C 0.21573 0.77317 0.69364 0.0
C823 C 0.22287 0.65886 0.78607 0.0
C824 C 0.29141 0.74749 0.82694 0.0
C825 C 0.27555 0.76324 0.87394 0.0
C826 C 0.27329 0.73102 0.78358 0.0
C827 C 0.23862 0.72968 0.78835 0.0
C828 C 0.22259 0.74399 0.83742 0.0
C829 C 0.24129 0.76109 0.87939 0.0
C830 C 0.29115 0.71659 0.73114 0.0
C831 C 0.1857 0.74219 0.84451 0.0
H832 H 0.18642 0.73872 0.60678 0.0
H833 H 0.19439 0.64213 0.68242 0.0
H834 H 0.20535 0.78431 0.73424 0.0
H835 H 0.24268 0.77757 0.69439 0.0
H836 H 0.20517 0.78602 0.6547 0.0
H837 H 0.21301 0.63361 0.77988 0.0
H838 H 0.25008 0.65742 0.78878 0.0
H839 H 0.21395 0.66859 0.82893 0.0
H840 H 0.31791 0.74933 0.82254 0.0
H841 H 0.2291 0.773 0.91618 0.0
H842 H 0.2835 0.72958 0.69025 0.0
H843 H 0.28457 0.69031 0.72565 0.0
H844 H 0.31831 0.71858 0.73547 0.0
H845 H 0.17368 0.75751 0.81021 0.0
H846 H 0.17757 0.75098 0.88859 0.0
H847 H 0.17698 0.71656 0.83827 0.0
C848 C 0.24682 0.18707 0.62397 0.0
C849 C 0.28128 0.18759 0.62438 0.0
C850 C 0.22893 0.20251 0.66901 0.0
C851 C 0.24608 0.21808 0.71569 0.0
C852 C 0.28085 0.21745 0.71744 0.0
C853 C 0.29804 0.20246 0.67139 0.0
C854 C 0.19185 0.2032 0.66558 0.0
C855 C 0.29996 0.2333 0.76716 0.0
C856 C 0.21084 0.28973 0.79992 0.0
C857 C 0.20181 0.27475 0.85322 0.0
C858 C 0.22365 0.27113 0.75343 0.0
C859 C 0.22808 0.23691 0.76108 0.0
C860 C 0.21812 0.22147 0.81414 0.0
C861 C 0.20477 0.24062 0.85957 0.0
C862 C 0.23351 0.28831 0.69696 0.0
C863 C 0.22302 0.18508 0.82397 0.0
H864 H 0.23391 0.17558 0.58749 0.0
H865 H 0.32473 0.20238 0.67218 0.0
H866 H 0.18097 0.19407 0.70741 0.0
H867 H 0.18338 0.22891 0.65957 0.0
H868 H 0.18223 0.18813 0.62846 0.0
H869 H 0.32679 0.22842 0.76406 0.0
H870 H 0.29609 0.26029 0.76638 0.0
H871 H 0.29098 0.22415 0.81043 0.0
H872 H 0.20803 0.31607 0.79465 0.0
H873 H 0.19777 0.22904 0.90085 0.0
H874 H 0.22289 0.2754 0.65821 0.0
H875 H 0.26067 0.2877 0.69221 0.0
H876 H 0.2254 0.31437 0.69598 0.0
H877 H 0.21271 0.17084 0.7865 0.0
H878 H 0.21134 0.17643 0.86553 0.0
H879 H 0.24973 0.1796 0.82611 0.0
C880 C 0.80159 0.269 0.65991 0.0
C881 C 0.78633 0.28362 0.61113 0.0
C882 C 0.78291 0.25309 0.7032 0.0
C883 C 0.74834 0.25117 0.69647 0.0
C884 C 0.73295 0.2647 0.64604 0.0
C885 C 0.75216 0.28119 0.60417 0.0
C886 C 0.80004 0.23936 0.75707 0.0
C887 C 0.69621 0.26229 0.63692 0.0
C888 C 0.70778 0.18758 0.79359 0.0
C889 C 0.69686 0.20706 0.84066 0.0
C890 C 0.72314 0.20185 0.74461 0.0
C891 C 0.7283 0.23622 0.74373 0.0
C892 C 0.7163 0.25612 0.79021 0.0
C893 C 0.70031 0.24126 0.83799 0.0
C894 C 0.7349 0.18006 0.69495 0.0
C895 C 0.72187 0.29285 0.79099 0.0
H896 H 0.82802 0.27112 0.6654 0.0
H897 H 0.74044 0.29227 0.566 0.0
H898 H 0.79077 0.25181 0.79735 0.0
H899 H 0.7945 0.21278 0.76179 0.0
H900 H 0.82717 0.24256 0.75505 0.0
H901 H 0.6885 0.27181 0.59305 0.0
H902 H 0.68804 0.23634 0.64097 0.0
H903 H 0.68329 0.27652 0.67163 0.0
H904 H 0.70472 0.16111 0.79549 0.0
H905 H 0.69199 0.25626 0.87462 0.0
H906 H 0.76218 0.17956 0.69442 0.0
H907 H 0.72669 0.18997 0.65173 0.0
H908 H 0.72578 0.15441 0.69945 0.0
H909 H 0.74865 0.29805 0.79348 0.0
H910 H 0.70959 0.30492 0.82905 0.0
H911 H 0.7126 0.30411 0.74961 0.0
C912 C 0.69211 0.74966 0.60746 0.0
C913 C 0.69221 0.78394 0.61273 0.0
C914 C 0.7074 0.73007 0.65029 0.0
C915 C 0.72213 0.74532 0.69985 0.0
C916 C 0.72114 0.7799 0.70629 0.0
C917 C 0.70655 0.79887 0.66206 0.0
C918 C 0.70874 0.69329 0.64165 0.0
C919 C 0.73589 0.79691 0.75942 0.0
C920 C 0.73982 0.69825 0.83981 0.0
C921 C 0.77417 0.696 0.83742 0.0
C922 C 0.72225 0.71328 0.79408 0.0
C923 C 0.73954 0.72548 0.74452 0.0
C924 C 0.77405 0.72152 0.74039 0.0
C925 C 0.79107 0.70719 0.78749 0.0
C926 C 0.68554 0.71779 0.80039 0.0
C927 C 0.7931 0.73354 0.68735 0.0
H928 H 0.68115 0.7383 0.56883 0.0
H929 H 0.70624 0.82544 0.66611 0.0
H930 H 0.73474 0.68534 0.63749 0.0
H931 H 0.6983 0.68049 0.68064 0.0
H932 H 0.6951 0.68525 0.60162 0.0
H933 H 0.73108 0.82379 0.75937 0.0
H934 H 0.72574 0.78624 0.80069 0.0
H935 H 0.76289 0.79301 0.76023 0.0
H936 H 0.72683 0.68965 0.87869 0.0
H937 H 0.81764 0.70496 0.78551 0.0
H938 H 0.6726 0.70904 0.76023 0.0
H939 H 0.67991 0.74434 0.80531 0.0
H940 H 0.67551 0.7045 0.83931 0.0
H941 H 0.78132 0.72487 0.64595 0.0
H942 H 0.81908 0.72507 0.68798 0.0
H943 H 0.79297 0.76081 0.6864 0.0
loop_
_geom_bond_atom_site_label_1
_geom_bond_atom_site_label_2
_geom_bond_distance
_geom_bond_site_symmetry_2
_ccdc_geom_bond_type
Sc0 O3 2.025 . S
Sc0 O10 2.105 1_554 S
Sc0 O13 2.105 . S
Sc0 O16 2.105 . S
Sc0 O19 2.105 1_554 S
Sc1 O3 2.025 . S
Sc1 O11 2.105 1_554 S
Sc1 O15 2.105 . S
Sc1 O17 2.105 . S
Sc1 O21 2.105 1_554 S
Sc2 O3 2.025 . S
Sc2 O12 2.105 1_554 S
Sc2 O14 2.105 . S
Sc2 O18 2.105 . S
Sc2 O20 2.105 1_554 S
O3 Sc0 2.025 . S
O3 Sc1 2.025 . S
O3 Sc2 2.025 . S
C4 O10 1.268 . S
C4 O20 1.268 . S
C5 O11 1.268 . S
C5 O19 1.268 . S
C6 O12 1.268 . S
C6 O21 1.268 . S
C7 O13 1.268 . S
C7 O17 1.268 . S
C8 O14 1.268 . S
C8 O16 1.268 . S
C9 O15 1.268 . S
C9 O18 1.268 . S
O10 Sc0 2.105 1_556 S
O10 C4 1.268 . S
O11 Sc1 2.105 1_556 S
O11 C5 1.268 . S
O12 Sc2 2.105 1_556 S
O12 C6 1.268 . S
O13 Sc0 2.105 . S
O13 C7 1.268 . S
O14 Sc2 2.105 . S
O14 C8 1.268 . S
O15 Sc1 2.105 . S
O15 C9 1.268 . S
O16 Sc0 2.105 . S
O16 C8 1.268 . S
O17 Sc1 2.105 . S
O17 C7 1.268 . S
O18 Sc2 2.105 . S
O18 C9 1.268 . S
O19 Sc0 2.105 1_556 S
O19 C5 1.268 . S
O20 Sc2 2.105 1_556 S
O20 C4 1.268 . S
O21 Sc1 2.105 1_556 S
O21 C6 1.268 . S
Sc22 O25 2.025 . S
Sc22 O32 2.105 1_554 S
Sc22 O35 2.105 . S
Sc22 O38 2.105 . S
Sc22 O41 2.105 1_554 S
Sc23 O25 2.025 . S
Sc23 O33 2.105 1_554 S
Sc23 O37 2.105 . S
Sc23 O39 2.105 . S
Sc23 O43 2.105 1_554 S
Sc24 O25 2.025 . S
Sc24 O34 2.105 1_554 S
Sc24 O36 2.105 . S
Sc24 O40 2.105 . S
Sc24 O42 2.105 1_554 S
O25 Sc22 2.025 . S
O25 Sc23 2.025 . S
O25 Sc24 2.025 . S
C26 O32 1.268 . S
C26 O42 1.268 . S
C27 O33 1.268 . S
C27 O41 1.268 . S
C28 O34 1.268 . S
C28 O43 1.268 . S
C29 O35 1.268 . S
C29 O39 1.268 . S
C30 O36 1.268 . S
C30 O38 1.268 . S
C31 O37 1.268 . S
C31 O40 1.268 . S
O32 Sc22 2.105 1_556 S
O32 C26 1.268 . S
O33 Sc23 2.105 1_556 S
O33 C27 1.268 . S
O34 Sc24 2.105 1_556 S
O34 C28 1.268 . S
O35 Sc22 2.105 . S
O35 C29 1.268 . S
O36 Sc24 2.105 . S
O36 C30 1.268 . S
O37 Sc23 2.105 . S
O37 C31 1.268 . S
O38 Sc22 2.105 . S
O38 C30 1.268 . S
O39 Sc23 2.105 . S
O39 C29 1.268 . S
O40 Sc24 2.105 . S
O40 C31 1.268 . S
O41 Sc22 2.105 1_556 S
O41 C27 1.268 . S
O42 Sc24 2.105 1_556 S
O42 C26 1.268 . S
O43 Sc23 2.105 1_556 S
O43 C28 1.268 . S
Sc44 O47 2.025 . S
Sc44 O54 2.105 1_554 S
Sc44 O57 2.105 . S
Sc44 O60 2.105 . S
Sc44 O63 2.105 1_554 S
Sc45 O47 2.025 . S
Sc45 O55 2.105 1_554 S
Sc45 O59 2.105 . S
Sc45 O61 2.105 . S
Sc45 O65 2.105 1_554 S
Sc46 O47 2.025 . S
Sc46 O56 2.105 1_554 S
Sc46 O58 2.105 . S
Sc46 O62 2.105 . S
Sc46 O64 2.105 1_554 S
O47 Sc44 2.025 . S
O47 Sc45 2.025 . S
O47 Sc46 2.025 . S
C48 O54 1.268 . S
C48 O64 1.268 . S
C49 O55 1.268 . S
C49 O63 1.268 . S
C50 O56 1.268 . S
C50 O65 1.268 . S
C51 O57 1.268 . S
C51 O61 1.268 . S
C52 O58 1.268 . S
C52 O60 1.268 . S
C53 O59 1.268 . S
C53 O62 1.268 . S
O54 Sc44 2.105 1_556 S
O54 C48 1.268 . S
O55 Sc45 2.105 1_556 S
O55 C49 1.268 . S
O56 Sc46 2.105 1_556 S
O56 C50 1.268 . S
O57 Sc44 2.105 . S
O57 C51 1.268 . S
O58 Sc46 2.105 . S
O58 C52 1.268 . S
O59 Sc45 2.105 . S
O59 C53 1.268 . S
O60 Sc44 2.105 . S
O60 C52 1.268 . S
O61 Sc45 2.105 . S
O61 C51 1.268 . S
O62 Sc46 2.105 . S
O62 C53 1.268 . S
O63 Sc44 2.105 1_556 S
O63 C49 1.268 . S
O64 Sc46 2.105 1_556 S
O64 C48 1.268 . S
O65 Sc45 2.105 1_556 S
O65 C50 1.268 . S
Sc66 O69 2.025 . S
Sc66 O76 2.105 1_554 S
Sc66 O79 2.105 . S
Sc66 O82 2.105 . S
Sc66 O85 2.105 1_554 S
Sc67 O69 2.025 . S
Sc67 O77 2.105 1_554 S
Sc67 O81 2.105 . S
Sc67 O83 2.105 . S
Sc67 O87 2.105 1_554 S
Sc68 O69 2.025 . S
Sc68 O78 2.105 1_554 S
Sc68 O80 2.105 . S
Sc68 O84 2.105 . S
Sc68 O86 2.105 1_554 S
O69 Sc66 2.025 . S
O69 Sc67 2.025 . S
O69 Sc68 2.025 . S
C70 O76 1.268 . S
C70 O86 1.268 . S
C71 O77 1.268 . S
C71 O85 1.268 . S
C72 O78 1.268 . S
C72 O87 1.268 . S
C73 O79 1.268 . S
C73 O83 1.268 . S
C74 O80 1.268 . S
C74 O82 1.268 . S
C75 O81 1.268 . S
C75 O84 1.268 . S
O76 Sc66 2.105 1_556 S
O76 C70 1.268 . S
O77 Sc67 2.105 1_556 S
O77 C71 1.268 . S
O78 Sc68 2.105 1_556 S
O78 C72 1.268 . S
O79 Sc66 2.105 . S
O79 C73 1.268 . S
O80 Sc68 2.105 . S
O80 C74 1.268 . S
O81 Sc67 2.105 . S
O81 C75 1.268 . S
O82 Sc66 2.105 . S
O82 C74 1.268 . S
O83 Sc67 2.105 . S
O83 C73 1.268 . S
O84 Sc68 2.105 . S
O84 C75 1.268 . S
O85 Sc66 2.105 1_556 S
O85 C71 1.268 . S
O86 Sc68 2.105 1_556 S
O86 C70 1.268 . S
O87 Sc67 2.105 1_556 S
O87 C72 1.268 . S
Sc88 O91 2.025 . S
Sc88 O98 2.105 . S
Sc88 O101 2.105 . S
Sc88 O104 2.105 . S
Sc88 O107 2.105 . S
Sc89 O91 2.025 . S
Sc89 O99 2.105 . S
Sc89 O103 2.105 . S
Sc89 O105 2.105 . S
Sc89 O109 2.105 . S
Sc90 O91 2.025 . S
Sc90 O100 2.105 . S
Sc90 O102 2.105 . S
Sc90 O106 2.105 . S
Sc90 O108 2.105 . S
O91 Sc88 2.025 . S
O91 Sc89 2.025 . S
O91 Sc90 2.025 . S
C92 O98 1.268 . S
C92 O108 1.268 . S
C93 O99 1.268 . S
C93 O107 1.268 . S
C94 O100 1.268 . S
C94 O109 1.268 . S
C95 O101 1.268 . S
C95 O105 1.268 . S
C96 O102 1.268 . S
C96 O104 1.268 . S
C97 O103 1.268 . S
C97 O106 1.268 . S
O98 Sc88 2.105 . S
O98 C92 1.268 . S
O99 Sc89 2.105 . S
O99 C93 1.268 . S
O100 Sc90 2.105 . S
O100 C94 1.268 . S
O101 Sc88 2.105 . S
O101 C95 1.268 . S
O102 Sc90 2.105 . S
O102 C96 1.268 . S
O103 Sc89 2.105 . S
O103 C97 1.268 . S
O104 Sc88 2.105 . S
O104 C96 1.268 . S
O105 Sc89 2.105 . S
O105 C95 1.268 . S
O106 Sc90 2.105 . S
O106 C97 1.268 . S
O107 Sc88 2.105 . S
O107 C93 1.268 . S
O108 Sc90 2.105 . S
O108 C92 1.268 . S
O109 Sc89 2.105 . S
O109 C94 1.268 . S
Sc110 O113 2.025 . S
Sc110 O120 2.105 . S
Sc110 O123 2.105 . S
Sc110 O126 2.105 . S
Sc110 O129 2.105 . S
Sc111 O113 2.025 . S
Sc111 O121 2.105 . S
Sc111 O125 2.105 . S
Sc111 O127 2.105 . S
Sc111 O131 2.105 . S
Sc112 O113 2.025 . S
Sc112 O122 2.105 . S
Sc112 O124 2.105 . S
Sc112 O128 2.105 . S
Sc112 O130 2.105 . S
O113 Sc110 2.025 . S
O113 Sc111 2.025 . S
O113 Sc112 2.025 . S
C114 O120 1.268 . S
C114 O130 1.268 . S
C115 O121 1.268 . S
C115 O129 1.268 . S
C116 O122 1.268 . S
C116 O131 1.268 . S
C117 O123 1.268 . S
C117 O127 1.268 . S
C118 O124 1.268 . S
C118 O126 1.268 . S
C119 O125 1.268 . S
C119 O128 1.268 . S
O120 Sc110 2.105 . S
O120 C114 1.268 . S
O121 Sc111 2.105 . S
O121 C115 1.268 . S
O122 Sc112 2.105 . S
O122 C116 1.268 . S
O123 Sc110 2.105 . S
O123 C117 1.268 . S
O124 Sc112 2.105 . S
O124 C118 1.268 . S
O125 Sc111 2.105 . S
O125 C119 1.268 . S
O126 Sc110 2.105 . S
O126 C118 1.268 . S
O127 Sc111 2.105 . S
O127 C117 1.268 . S
O128 Sc112 2.105 . S
O128 C119 1.268 . S
O129 Sc110 2.105 . S
O129 C115 1.268 . S
O130 Sc112 2.105 . S
O130 C114 1.268 . S
O131 Sc111 2.105 . S
O131 C116 1.268 . S
Sc132 O135 2.025 . S
Sc132 O142 2.105 . S
Sc132 O145 2.105 . S
Sc132 O148 2.105 . S
Sc132 O151 2.105 . S
Sc133 O135 2.025 . S
Sc133 O143 2.105 . S
Sc133 O147 2.105 . S
Sc133 O149 2.105 . S
Sc133 O153 2.105 . S
Sc134 O135 2.025 . S
Sc134 O144 2.105 . S
Sc134 O146 2.105 . S
Sc134 O150 2.105 . S
Sc134 O152 2.105 . S
O135 Sc132 2.025 . S
O135 Sc133 2.025 . S
O135 Sc134 2.025 . S
C136 O142 1.268 . S
C136 O152 1.268 . S
C137 O143 1.268 . S
C137 O151 1.268 . S
C138 O144 1.268 . S
C138 O153 1.268 . S
C139 O145 1.268 . S
C139 O149 1.268 . S
C140 O146 1.268 . S
C140 O148 1.268 . S
C141 O147 1.268 . S
C141 O150 1.268 . S
O142 Sc132 2.105 . S
O142 C136 1.268 . S
O143 Sc133 2.105 . S
O143 C137 1.268 . S
O144 Sc134 2.105 . S
O144 C138 1.268 . S
O145 Sc132 2.105 . S
O145 C139 1.268 . S
O146 Sc134 2.105 . S
O146 C140 1.268 . S
O147 Sc133 2.105 . S
O147 C141 1.268 . S
O148 Sc132 2.105 . S
O148 C140 1.268 . S
O149 Sc133 2.105 . S
O149 C139 1.268 . S
O150 Sc134 2.105 . S
O150 C141 1.268 . S
O151 Sc132 2.105 . S
O151 C137 1.268 . S
O152 Sc134 2.105 . S
O152 C136 1.268 . S
O153 Sc133 2.105 . S
O153 C138 1.268 . S
Sc154 O157 2.025 . S
Sc154 O164 2.105 . S
Sc154 O167 2.105 . S
Sc154 O170 2.105 . S
Sc154 O173 2.105 . S
Sc155 O157 2.025 . S
Sc155 O165 2.105 . S
Sc155 O169 2.105 . S
Sc155 O171 2.105 . S
Sc155 O175 2.105 . S
Sc156 O157 2.025 . S
Sc156 O166 2.105 . S
Sc156 O168 2.105 . S
Sc156 O172 2.105 . S
Sc156 O174 2.105 . S
O157 Sc154 2.025 . S
O157 Sc155 2.025 . S
O157 Sc156 2.025 . S
C158 O164 1.268 . S
C158 O174 1.268 . S
C159 O165 1.268 . S
C159 O173 1.268 . S
C160 O166 1.268 . S
C160 O175 1.268 . S
C161 O167 1.268 . S
C161 O171 1.268 . S
C162 O168 1.268 . S
C162 O170 1.268 . S
C163 O169 1.268 . S
C163 O172 1.268 . S
O164 Sc154 2.105 . S
O164 C158 1.268 . S
O165 Sc155 2.105 . S
O165 C159 1.268 . S
O166 Sc156 2.105 . S
O166 C160 1.268 . S
O167 Sc154 2.105 . S
O167 C161 1.268 . S
O168 Sc156 2.105 . S
O168 C162 1.268 . S
O169 Sc155 2.105 . S
O169 C163 1.268 . S
O170 Sc154 2.105 . S
O170 C162 1.268 . S
O171 Sc155 2.105 . S
O171 C161 1.268 . S
O172 Sc156 2.105 . S
O172 C163 1.268 . S
O173 Sc154 2.105 . S
O173 C159 1.268 . S
O174 Sc156 2.105 . S
O174 C158 1.268 . S
O175 Sc155 2.105 . S
O175 C160 1.268 . S
C176 C177 1.391 . S
C176 C178 1.394 . S
C176 H192 0.931 . S
C177 C176 1.391 . S
C177 C181 1.376 . S
C178 C176 1.394 . S
C178 C179 1.369 . S
C178 C182 1.531 . S
C179 C178 1.369 . S
C179 C180 1.410 . S
C179 C187 1.503 . S
C180 C179 1.410 . S
C180 C181 1.392 . S
C180 C183 1.511 . S
C181 C177 1.376 . S
C181 C180 1.392 . S
C181 H193 0.929 . S
C182 C178 1.531 . S
C182 H194 0.960 . S
C182 H195 0.962 . S
C182 H196 0.960 . S
C183 C180 1.511 . S
C183 H197 0.961 . S
C183 H198 0.961 . S
C183 H199 0.961 . S
C184 C185 1.370 . S
C184 C186 1.363 . S
C184 H200 0.931 . S
C185 C184 1.370 . S
C185 C189 1.408 . S
C186 C184 1.363 . S
C186 C187 1.370 . S
C186 C190 1.524 . S
C187 C179 1.503 . S
C187 C186 1.370 . S
C187 C188 1.403 . S
C188 C187 1.403 . S
C188 C189 1.404 . S
C188 C191 1.539 . S
C189 C185 1.408 . S
C189 C188 1.404 . S
C189 H201 0.930 . S
C190 C186 1.524 . S
C190 H202 0.956 . S
C190 H203 0.961 . S
C190 H204 0.961 . S
C191 C188 1.539 . S
C191 H205 0.958 . S
C191 H206 0.961 . S
C191 H207 0.960 . S
H192 C176 0.931 . S
H193 C181 0.929 . S
H194 C182 0.960 . S
H195 C182 0.962 . S
H196 C182 0.960 . S
H197 C183 0.961 . S
H198 C183 0.961 . S
H199 C183 0.961 . S
H200 C184 0.931 . S
H201 C189 0.930 . S
H202 C190 0.956 . S
H203 C190 0.961 . S
H204 C190 0.961 . S
H205 C191 0.958 . S
H206 C191 0.961 . S
H207 C191 0.960 . S
C208 C209 1.391 . S
C208 C210 1.394 . S
C208 H224 0.931 . S
C209 C208 1.391 . S
C209 C213 1.376 . S
C210 C208 1.394 . S
C210 C211 1.369 . S
C210 C214 1.531 . S
C211 C210 1.369 . S
C211 C212 1.410 . S
C211 C219 1.503 . S
C212 C211 1.410 . S
C212 C213 1.392 . S
C212 C215 1.511 . S
C213 C209 1.376 . S
C213 C212 1.392 . S
C213 H225 0.929 . S
C214 C210 1.531 . S
C214 H226 0.960 . S
C214 H227 0.962 . S
C214 H228 0.960 . S
C215 C212 1.511 . S
C215 H229 0.961 . S
C215 H230 0.961 . S
C215 H231 0.961 . S
C216 C217 1.370 . S
C216 C218 1.363 . S
C216 H232 0.931 . S
C217 C216 1.370 . S
C217 C221 1.408 . S
C218 C216 1.363 . S
C218 C219 1.370 . S
C218 C222 1.524 . S
C219 C211 1.503 . S
C219 C218 1.370 . S
C219 C220 1.403 . S
C220 C219 1.403 . S
C220 C221 1.404 . S
C220 C223 1.539 . S
C221 C217 1.408 . S
C221 C220 1.404 . S
C221 H233 0.930 . S
C222 C218 1.524 . S
C222 H234 0.956 . S
C222 H235 0.961 . S
C222 H236 0.961 . S
C223 C220 1.539 . S
C223 H237 0.958 . S
C223 H238 0.961 . S
C223 H239 0.960 . S
H224 C208 0.931 . S
H225 C213 0.929 . S
H226 C214 0.960 . S
H227 C214 0.962 . S
H228 C214 0.960 . S
H229 C215 0.961 . S
H230 C215 0.961 . S
H231 C215 0.961 . S
H232 C216 0.931 . S
H233 C221 0.930 . S
H234 C222 0.956 . S
H235 C222 0.961 . S
H236 C222 0.961 . S
H237 C223 0.958 . S
H238 C223 0.961 . S
H239 C223 0.960 . S
C240 C241 1.391 . S
C240 C242 1.394 . S
C240 H256 0.931 . S
C241 C240 1.391 . S
C241 C245 1.376 . S
C242 C240 1.394 . S
C242 C243 1.369 . S
C242 C246 1.531 . S
C243 C242 1.369 . S
C243 C244 1.410 . S
C243 C251 1.503 . S
C244 C243 1.410 . S
C244 C245 1.392 . S
C244 C247 1.511 . S
C245 C241 1.376 . S
C245 C244 1.392 . S
C245 H257 0.929 . S
C246 C242 1.531 . S
C246 H258 0.960 . S
C246 H259 0.962 . S
C246 H260 0.960 . S
C247 C244 1.511 . S
C247 H261 0.961 . S
C247 H262 0.961 . S
C247 H263 0.961 . S
C248 C249 1.370 . S
C248 C250 1.363 . S
C248 H264 0.931 . S
C249 C248 1.370 . S
C249 C253 1.408 . S
C250 C248 1.363 . S
C250 C251 1.370 . S
C250 C254 1.524 . S
C251 C243 1.503 . S
C251 C250 1.370 . S
C251 C252 1.403 . S
C252 C251 1.403 . S
C252 C253 1.404 . S
C252 C255 1.539 . S
C253 C249 1.408 . S
C253 C252 1.404 . S
C253 H265 0.930 . S
C254 C250 1.524 . S
C254 H266 0.956 . S
C254 H267 0.961 . S
C254 H268 0.961 . S
C255 C252 1.539 . S
C255 H269 0.958 . S
C255 H270 0.961 . S
C255 H271 0.960 . S
H256 C240 0.931 . S
H257 C245 0.929 . S
H258 C246 0.960 . S
H259 C246 0.962 . S
H260 C246 0.960 . S
H261 C247 0.961 . S
H262 C247 0.961 . S
H263 C247 0.961 . S
H264 C248 0.931 . S
H265 C253 0.930 . S
H266 C254 0.956 . S
H267 C254 0.961 . S
H268 C254 0.961 . S
H269 C255 0.958 . S
H270 C255 0.961 . S
H271 C255 0.960 . S
C272 C273 1.391 . S
C272 C274 1.394 . S
C272 H288 0.931 . S
C273 C272 1.391 . S
C273 C277 1.376 . S
C274 C272 1.394 . S
C274 C275 1.369 . S
C274 C278 1.531 . S
C275 C274 1.369 . S
C275 C276 1.410 . S
C275 C283 1.503 . S
C276 C275 1.410 . S
C276 C277 1.392 . S
C276 C279 1.511 . S
C277 C273 1.376 . S
C277 C276 1.392 . S
C277 H289 0.929 . S
C278 C274 1.531 . S
C278 H290 0.960 . S
C278 H291 0.962 . S
C278 H292 0.960 . S
C279 C276 1.511 . S
C279 H293 0.961 . S
C279 H294 0.961 . S
C279 H295 0.961 . S
C280 C281 1.370 . S
C280 C282 1.363 . S
C280 H296 0.931 . S
C281 C280 1.370 . S
C281 C285 1.408 . S
C282 C280 1.363 . S
C282 C283 1.370 . S
C282 C286 1.524 . S
C283 C275 1.503 . S
C283 C282 1.370 . S
C283 C284 1.403 . S
C284 C283 1.403 . S
C284 C285 1.404 . S
C284 C287 1.539 . S
C285 C281 1.408 . S
C285 C284 1.404 . S
C285 H297 0.930 . S
C286 C282 1.524 . S
C286 H298 0.956 . S
C286 H299 0.961 . S
C286 H300 0.961 . S
C287 C284 1.539 . S
C287 H301 0.958 . S
C287 H302 0.961 . S
C287 H303 0.960 . S
H288 C272 0.931 . S
H289 C277 0.929 . S
H290 C278 0.960 . S
H291 C278 0.962 . S
H292 C278 0.960 . S
H293 C279 0.961 . S
H294 C279 0.961 . S
H295 C279 0.961 . S
H296 C280 0.931 . S
H297 C285 0.930 . S
H298 C286 0.956 . S
H299 C286 0.961 . S
H300 C286 0.961 . S
H301 C287 0.958 . S
H302 C287 0.961 . S
H303 C287 0.960 . S
C304 C305 1.391 . S
C304 C306 1.394 . S
C304 H320 0.931 . S
C305 C304 1.391 . S
C305 C309 1.376 . S
C306 C304 1.394 . S
C306 C307 1.369 . S
C306 C310 1.531 . S
C307 C306 1.369 . S
C307 C308 1.410 . S
C307 C315 1.503 . S
C308 C307 1.410 . S
C308 C309 1.392 . S
C308 C311 1.511 . S
C309 C305 1.376 . S
C309 C308 1.392 . S
C309 H321 0.929 . S
C310 C306 1.531 . S
C310 H322 0.960 . S
C310 H323 0.962 . S
C310 H324 0.960 . S
C311 C308 1.511 . S
C311 H325 0.961 . S
C311 H326 0.961 . S
C311 H327 0.961 . S
C312 C313 1.370 . S
C312 C314 1.363 . S
C312 H328 0.931 . S
C313 C312 1.370 . S
C313 C317 1.408 . S
C314 C312 1.363 . S
C314 C315 1.370 . S
C314 C318 1.524 . S
C315 C307 1.503 . S
C315 C314 1.370 . S
C315 C316 1.403 . S
C316 C315 1.403 . S
C316 C317 1.404 . S
C316 C319 1.539 . S
C317 C313 1.408 . S
C317 C316 1.404 . S
C317 H329 0.930 . S
C318 C314 1.524 . S
C318 H330 0.956 . S
C318 H331 0.961 . S
C318 H332 0.961 . S
C319 C316 1.539 . S
C319 H333 0.958 . S
C319 H334 0.961 . S
C319 H335 0.960 . S
H320 C304 0.931 . S
H321 C309 0.929 . S
H322 C310 0.960 . S
H323 C310 0.962 . S
H324 C310 0.960 . S
H325 C311 0.961 . S
H326 C311 0.961 . S
H327 C311 0.961 . S
H328 C312 0.931 . S
H329 C317 0.930 . S
H330 C318 0.956 . S
H331 C318 0.961 . S
H332 C318 0.961 . S
H333 C319 0.958 . S
H334 C319 0.961 . S
H335 C319 0.960 . S
C336 C337 1.391 . S
C336 C338 1.394 . S
C336 H352 0.931 . S
C337 C336 1.391 . S
C337 C341 1.376 . S
C338 C336 1.394 . S
C338 C339 1.369 . S
C338 C342 1.531 . S
C339 C338 1.369 . S
C339 C340 1.410 . S
C339 C347 1.503 . S
C340 C339 1.410 . S
C340 C341 1.392 . S
C340 C343 1.511 . S
C341 C337 1.376 . S
C341 C340 1.392 . S
C341 H353 0.929 . S
C342 C338 1.531 . S
C342 H354 0.960 . S
C342 H355 0.962 . S
C342 H356 0.960 . S
C343 C340 1.511 . S
C343 H357 0.961 . S
C343 H358 0.961 . S
C343 H359 0.961 . S
C344 C345 1.370 . S
C344 C346 1.363 . S
C344 H360 0.931 . S
C345 C344 1.370 . S
C345 C349 1.408 . S
C346 C344 1.363 . S
C346 C347 1.370 . S
C346 C350 1.524 . S
C347 C339 1.503 . S
C347 C346 1.370 . S
C347 C348 1.403 . S
C348 C347 1.403 . S
C348 C349 1.404 . S
C348 C351 1.539 . S
C349 C345 1.408 . S
C349 C348 1.404 . S
C349 H361 0.930 . S
C350 C346 1.524 . S
C350 H362 0.956 . S
C350 H363 0.961 . S
C350 H364 0.961 . S
C351 C348 1.539 . S
C351 H365 0.958 . S
C351 H366 0.961 . S
C351 H367 0.960 . S
H352 C336 0.931 . S
H353 C341 0.929 . S
H354 C342 0.960 . S
H355 C342 0.962 . S
H356 C342 0.960 . S
H357 C343 0.961 . S
H358 C343 0.961 . S
H359 C343 0.961 . S
H360 C344 0.931 . S
H361 C349 0.930 . S
H362 C350 0.956 . S
H363 C350 0.961 . S
H364 C350 0.961 . S
H365 C351 0.958 . S
H366 C351 0.961 . S
H367 C351 0.960 . S
C368 C369 1.391 . S
C368 C370 1.394 . S
C368 H384 0.931 . S
C369 C368 1.391 . S
C369 C373 1.376 . S
C370 C368 1.394 . S
C370 C371 1.369 . S
C370 C374 1.531 . S
C371 C370 1.369 . S
C371 C372 1.410 . S
C371 C379 1.503 . S
C372 C371 1.410 . S
C372 C373 1.392 . S
C372 C375 1.511 . S
C373 C369 1.376 . S
C373 C372 1.392 . S
C373 H385 0.929 . S
C374 C370 1.531 . S
C374 H386 0.960 . S
C374 H387 0.962 . S
C374 H388 0.960 . S
C375 C372 1.511 . S
C375 H389 0.961 . S
C375 H390 0.961 . S
C375 H391 0.961 . S
C376 C377 1.370 . S
C376 C378 1.363 . S
C376 H392 0.931 . S
C377 C376 1.370 . S
C377 C381 1.408 . S
C378 C376 1.363 . S
C378 C379 1.370 . S
C378 C382 1.524 . S
C379 C371 1.503 . S
C379 C378 1.370 . S
C379 C380 1.403 . S
C380 C379 1.403 . S
C380 C381 1.404 . S
C380 C383 1.539 . S
C381 C377 1.408 . S
C381 C380 1.404 . S
C381 H393 0.930 . S
C382 C378 1.524 . S
C382 H394 0.956 . S
C382 H395 0.961 . S
C382 H396 0.961 . S
C383 C380 1.539 . S
C383 H397 0.958 . S
C383 H398 0.961 . S
C383 H399 0.960 . S
H384 C368 0.931 . S
H385 C373 0.929 . S
H386 C374 0.960 . S
H387 C374 0.962 . S
H388 C374 0.960 . S
H389 C375 0.961 . S
H390 C375 0.961 . S
H391 C375 0.961 . S
H392 C376 0.931 . S
H393 C381 0.930 . S
H394 C382 0.956 . S
H395 C382 0.961 . S
H396 C382 0.961 . S
H397 C383 0.958 . S
H398 C383 0.961 . S
H399 C383 0.960 . S
C400 C401 1.391 . S
C400 C402 1.394 . S
C400 H416 0.931 . S
C401 C400 1.391 . S
C401 C405 1.376 . S
C402 C400 1.394 . S
C402 C403 1.369 . S
C402 C406 1.531 . S
C403 C402 1.369 . S
C403 C404 1.410 . S
C403 C411 1.503 . S
C404 C403 1.410 . S
C404 C405 1.392 . S
C404 C407 1.511 . S
C405 C401 1.376 . S
C405 C404 1.392 . S
C405 H417 0.929 . S
C406 C402 1.531 . S
C406 H418 0.960 . S
C406 H419 0.962 . S
C406 H420 0.960 . S
C407 C404 1.511 . S
C407 H421 0.961 . S
C407 H422 0.961 . S
C407 H423 0.961 . S
C408 C409 1.370 . S
C408 C410 1.363 . S
C408 H424 0.931 . S
C409 C408 1.370 . S
C409 C413 1.408 . S
C410 C408 1.363 . S
C410 C411 1.370 . S
C410 C414 1.524 . S
C411 C403 1.503 . S
C411 C410 1.370 . S
C411 C412 1.403 . S
C412 C411 1.403 . S
C412 C413 1.404 . S
C412 C415 1.539 . S
C413 C409 1.408 . S
C413 C412 1.404 . S
C413 H425 0.930 . S
C414 C410 1.524 . S
C414 H426 0.956 . S
C414 H427 0.961 . S
C414 H428 0.961 . S
C415 C412 1.539 . S
C415 H429 0.958 . S
C415 H430 0.961 . S
C415 H431 0.960 . S
H416 C400 0.931 . S
H417 C405 0.929 . S
H418 C406 0.960 . S
H419 C406 0.962 . S
H420 C406 0.960 . S
H421 C407 0.961 . S
H422 C407 0.961 . S
H423 C407 0.961 . S
H424 C408 0.931 . S
H425 C413 0.930 . S
H426 C414 0.956 . S
H427 C414 0.961 . S
H428 C414 0.961 . S
H429 C415 0.958 . S
H430 C415 0.961 . S
H431 C415 0.960 . S
C432 C433 1.391 . S
C432 C434 1.394 . S
C432 H448 0.931 . S
C433 C432 1.391 . S
C433 C437 1.376 . S
C434 C432 1.394 . S
C434 C435 1.369 . S
C434 C438 1.531 1_655 S
C435 C434 1.369 . S
C435 C436 1.410 . S
C435 C443 1.503 1_655 S
C436 C435 1.410 . S
C436 C437 1.392 . S
C436 C439 1.511 . S
C437 C433 1.376 . S
C437 C436 1.392 . S
C437 H449 0.929 . S
C438 C434 1.531 1_455 S
C438 H450 0.960 . S
C438 H451 0.962 . S
C438 H452 0.960 . S
C439 C436 1.511 . S
C439 H453 0.961 . S
C439 H454 0.961 . S
C439 H455 0.961 . S
C440 C441 1.370 . S
C440 C442 1.363 . S
C440 H456 0.931 . S
C441 C440 1.370 . S
C441 C445 1.408 . S
C442 C440 1.363 . S
C442 C443 1.370 . S
C442 C446 1.524 . S
C443 C435 1.503 1_455 S
C443 C442 1.370 . S
C443 C444 1.403 . S
C444 C443 1.403 . S
C444 C445 1.404 . S
C444 C447 1.539 . S
C445 C441 1.408 . S
C445 C444 1.404 . S
C445 H457 0.930 . S
C446 C442 1.524 . S
C446 H458 0.956 . S
C446 H459 0.961 1_455 S
C446 H460 0.961 . S
C447 C444 1.539 . S
C447 H461 0.958 . S
C447 H462 0.961 . S
C447 H463 0.960 1_455 S
H448 C432 0.931 . S
H449 C437 0.929 . S
H450 C438 0.960 . S
H451 C438 0.962 . S
H452 C438 0.960 . S
H453 C439 0.961 . S
H454 C439 0.961 . S
H455 C439 0.961 . S
H456 C440 0.931 . S
H457 C445 0.930 . S
H458 C446 0.956 . S
H459 C446 0.961 1_655 S
H460 C446 0.961 . S
H461 C447 0.958 . S
H462 C447 0.961 . S
H463 C447 0.960 1_655 S
C464 C465 1.391 . S
C464 C466 1.394 . S
C464 H480 0.931 . S
C465 C464 1.391 . S
C465 C469 1.376 . S
C466 C464 1.394 . S
C466 C467 1.369 . S
C466 C470 1.531 . S
C467 C466 1.369 . S
C467 C468 1.410 . S
C467 C475 1.503 1_545 S
C468 C467 1.410 . S
C468 C469 1.392 . S
C468 C471 1.511 1_545 S
C469 C465 1.376 . S
C469 C468 1.392 . S
C469 H481 0.929 . S
C470 C466 1.531 . S
C470 H482 0.960 . S
C470 H483 0.962 . S
C470 H484 0.960 . S
C471 C468 1.511 1_565 S
C471 H485 0.961 . S
C471 H486 0.961 . S
C471 H487 0.961 . S
C472 C473 1.370 . S
C472 C474 1.363 . S
C472 H488 0.931 . S
C473 C472 1.370 . S
C473 C477 1.408 . S
C474 C472 1.363 . S
C474 C475 1.370 . S
C474 C478 1.524 . S
C475 C467 1.503 1_565 S
C475 C474 1.370 . S
C475 C476 1.403 . S
C476 C475 1.403 . S
C476 C477 1.404 . S
C476 C479 1.539 . S
C477 C473 1.408 . S
C477 C476 1.404 . S
C477 H489 0.930 . S
C478 C474 1.524 . S
C478 H490 0.927 1_565 S
C478 H491 0.961 . S
C478 H492 0.961 . S
C479 C476 1.539 . S
C479 H493 0.958 1_565 S
C479 H494 0.961 . S
C479 H495 0.960 1_565 S
H480 C464 0.931 . S
H481 C469 0.929 . S
H482 C470 0.960 . S
H483 C470 0.962 . S
H484 C470 0.960 . S
H485 C471 0.961 . S
H486 C471 0.961 . S
H487 C471 0.961 . S
H488 C472 0.931 . S
H489 C477 0.930 . S
H490 C478 0.927 1_545 S
H491 C478 0.961 . S
H492 C478 0.961 . S
H493 C479 0.958 1_545 S
H494 C479 0.961 . S
H495 C479 0.960 1_545 S
C496 C497 1.391 . S
C496 C498 1.394 . S
C496 H512 0.931 . S
C497 C496 1.391 . S
C497 C501 1.376 . S
C498 C496 1.394 . S
C498 C499 1.369 . S
C498 C502 1.531 . S
C499 C498 1.369 . S
C499 C500 1.410 . S
C499 C507 1.503 1_655 S
C500 C499 1.410 . S
C500 C501 1.392 . S
C500 C503 1.511 1_655 S
C501 C497 1.376 . S
C501 C500 1.392 . S
C501 H513 0.929 . S
C502 C498 1.531 . S
C502 H514 0.960 . S
C502 H515 0.962 . S
C502 H516 0.960 . S
C503 C500 1.511 1_455 S
C503 H517 0.961 . S
C503 H518 0.961 . S
C503 H519 0.961 . S
C504 C505 1.370 . S
C504 C506 1.363 . S
C504 H520 0.931 . S
C505 C504 1.370 . S
C505 C509 1.408 . S
C506 C504 1.363 . S
C506 C507 1.370 . S
C506 C510 1.524 1_455 S
C507 C499 1.503 1_455 S
C507 C506 1.370 . S
C507 C508 1.403 . S
C508 C507 1.403 . S
C508 C509 1.404 . S
C508 C511 1.539 . S
C509 C505 1.408 . S
C509 C508 1.404 . S
C509 H521 0.930 . S
C510 C506 1.524 1_655 S
C510 H522 0.956 . S
C510 H523 0.961 . S
C510 H524 0.961 . S
C511 C508 1.539 . S
C511 H525 0.958 . S
C511 H526 0.961 . S
C511 H527 0.960 . S
H512 C496 0.931 . S
H513 C501 0.929 . S
H514 C502 0.960 . S
H515 C502 0.962 . S
H516 C502 0.960 . S
H517 C503 0.961 . S
H518 C503 0.961 . S
H519 C503 0.961 . S
H520 C504 0.931 . S
H521 C509 0.930 . S
H522 C510 0.956 . S
H523 C510 0.961 . S
H524 C510 0.961 . S
H525 C511 0.958 . S
H526 C511 0.961 . S
H527 C511 0.960 . S
C528 C529 1.391 . S
C528 C530 1.394 . S
C528 H544 0.931 . S
C529 C528 1.391 . S
C529 C533 1.376 . S
C530 C528 1.394 . S
C530 C531 1.369 . S
C530 C534 1.531 . S
C531 C530 1.369 . S
C531 C532 1.410 . S
C531 C539 1.503 1_545 S
C532 C531 1.410 . S
C532 C533 1.392 . S
C532 C535 1.511 1_545 S
C533 C529 1.376 . S
C533 C532 1.392 . S
C533 H545 0.929 . S
C534 C530 1.531 . S
C534 H546 0.960 . S
C534 H547 0.962 . S
C534 H548 0.960 . S
C535 C532 1.511 1_565 S
C535 H549 0.961 . S
C535 H550 0.961 . S
C535 H551 0.961 . S
C536 C537 1.370 . S
C536 C538 1.363 . S
C536 H552 0.931 . S
C537 C536 1.370 . S
C537 C541 1.408 . S
C538 C536 1.363 . S
C538 C539 1.370 . S
C538 C542 1.524 1_565 S
C539 C531 1.503 1_565 S
C539 C538 1.370 . S
C539 C540 1.403 . S
C540 C539 1.403 . S
C540 C541 1.404 . S
C540 C543 1.539 . S
C541 C537 1.408 . S
C541 C540 1.404 . S
C541 H553 0.930 . S
C542 C538 1.524 1_545 S
C542 H554 0.956 . S
C542 H555 0.961 . S
C542 H556 0.961 . S
C543 C540 1.539 . S
C543 H557 0.958 . S
C543 H558 0.961 . S
C543 H559 0.960 . S
H544 C528 0.931 . S
H545 C533 0.929 . S
H546 C534 0.960 . S
H547 C534 0.962 . S
H548 C534 0.960 . S
H549 C535 0.961 . S
H550 C535 0.961 . S
H551 C535 0.961 . S
H552 C536 0.931 . S
H553 C541 0.930 . S
H554 C542 0.956 . S
H555 C542 0.961 . S
H556 C542 0.961 . S
H557 C543 0.958 . S
H558 C543 0.961 . S
H559 C543 0.960 . S
C560 C561 1.391 . S
C560 C562 1.394 . S
C560 H576 0.931 . S
C561 C560 1.391 . S
C561 C565 1.376 . S
C562 C560 1.394 . S
C562 C563 1.369 . S
C562 C566 1.531 . S
C563 C562 1.369 . S
C563 C564 1.410 . S
C563 C571 1.503 1_455 S
C564 C563 1.410 . S
C564 C565 1.392 . S
C564 C567 1.511 1_455 S
C565 C561 1.376 . S
C565 C564 1.392 . S
C565 H577 0.929 . S
C566 C562 1.531 . S
C566 H578 0.960 . S
C566 H579 0.962 . S
C566 H580 0.960 . S
C567 C564 1.511 1_655 S
C567 H581 0.961 . S
C567 H582 0.961 . S
C567 H583 0.961 . S
C568 C569 1.370 . S
C568 C570 1.363 . S
C568 H584 0.931 . S
C569 C568 1.370 . S
C569 C573 1.408 . S
C570 C568 1.363 . S
C570 C571 1.370 . S
C570 C574 1.524 1_655 S
C571 C563 1.503 1_655 S
C571 C570 1.370 . S
C571 C572 1.403 . S
C572 C571 1.403 . S
C572 C573 1.404 . S
C572 C575 1.539 . S
C573 C569 1.408 . S
C573 C572 1.404 . S
C573 H585 0.930 . S
C574 C570 1.524 1_455 S
C574 H586 0.956 . S
C574 H587 0.961 . S
C574 H588 0.961 1_455 S
C575 C572 1.539 . S
C575 H589 0.958 . S
C575 H590 0.961 . S
C575 H591 0.960 . S
H576 C560 0.931 . S
H577 C565 0.929 . S
H578 C566 0.960 . S
H579 C566 0.962 . S
H580 C566 0.960 . S
H581 C567 0.961 . S
H582 C567 0.961 . S
H583 C567 0.961 . S
H584 C568 0.931 . S
H585 C573 0.930 . S
H586 C574 0.956 . S
H587 C574 0.961 . S
H588 C574 0.961 1_655 S
H589 C575 0.958 . S
H590 C575 0.961 . S
H591 C575 0.960 . S
C592 C593 1.391 . S
C592 C594 1.394 . S
C592 H608 0.931 . S
C593 C592 1.391 . S
C593 C597 1.376 . S
C594 C592 1.394 . S
C594 C595 1.369 . S
C594 C598 1.531 1_565 S
C595 C594 1.369 . S
C595 C596 1.410 . S
C595 C603 1.503 1_565 S
C596 C595 1.410 . S
C596 C597 1.392 . S
C596 C599 1.511 . S
C597 C593 1.376 . S
C597 C596 1.392 . S
C597 H609 0.929 . S
C598 C594 1.531 1_545 S
C598 H610 0.960 . S
C598 H611 0.962 . S
C598 H612 0.960 . S
C599 C596 1.511 . S
C599 H613 0.961 . S
C599 H614 0.961 . S
C599 H615 0.961 . S
C600 C601 1.370 . S
C600 C602 1.363 . S
C600 H616 0.931 . S
C601 C600 1.370 . S
C601 C605 1.408 . S
C602 C600 1.363 . S
C602 C603 1.370 . S
C602 C606 1.524 1_545 S
C603 C595 1.503 1_545 S
C603 C602 1.370 . S
C603 C604 1.403 . S
C604 C603 1.403 . S
C604 C605 1.404 . S
C604 C607 1.539 . S
C605 C601 1.408 . S
C605 C604 1.404 . S
C605 H617 0.930 . S
C606 C602 1.524 1_565 S
C606 H618 0.956 . S
C606 H619 0.961 . S
C606 H620 0.961 . S
C607 C604 1.539 . S
C607 H621 0.958 . S
C607 H622 0.961 . S
C607 H623 0.960 . S
H608 C592 0.931 . S
H609 C597 0.929 . S
H610 C598 0.960 . S
H611 C598 0.962 . S
H612 C598 0.960 . S
H613 C599 0.961 . S
H614 C599 0.961 . S
H615 C599 0.961 . S
H616 C600 0.931 . S
H617 C605 0.930 . S
H618 C606 0.956 . S
H619 C606 0.961 . S
H620 C606 0.961 . S
H621 C607 0.958 . S
H622 C607 0.961 . S
H623 C607 0.960 . S
C624 C625 1.391 . S
C624 C626 1.394 . S
C624 H640 0.931 . S
C625 C624 1.391 . S
C625 C629 1.376 . S
C626 C624 1.394 . S
C626 C627 1.369 . S
C626 C630 1.531 1_655 S
C627 C626 1.369 . S
C627 C628 1.410 . S
C627 C635 1.503 1_655 S
C628 C627 1.410 . S
C628 C629 1.392 . S
C628 C631 1.511 . S
C629 C625 1.376 . S
C629 C628 1.392 . S
C629 H641 0.929 . S
C630 C626 1.531 1_455 S
C630 H642 0.960 . S
C630 H643 0.962 . S
C630 H644 0.960 . S
C631 C628 1.511 . S
C631 H645 0.961 . S
C631 H646 0.961 . S
C631 H647 0.961 . S
C632 C633 1.370 . S
C632 C634 1.363 . S
C632 H648 0.931 . S
C633 C632 1.370 . S
C633 C637 1.408 . S
C634 C632 1.363 . S
C634 C635 1.370 . S
C634 C638 1.524 . S
C635 C627 1.503 1_455 S
C635 C634 1.370 . S
C635 C636 1.403 . S
C636 C635 1.403 . S
C636 C637 1.404 . S
C636 C639 1.539 . S
C637 C633 1.408 . S
C637 C636 1.404 . S
C637 H649 0.930 . S
C638 C634 1.524 . S
C638 H650 0.956 . S
C638 H651 0.961 1_455 S
C638 H652 0.961 . S
C639 C636 1.539 . S
C639 H653 0.958 . S
C639 H654 0.961 . S
C639 H655 0.960 1_455 S
H640 C624 0.931 . S
H641 C629 0.929 . S
H642 C630 0.960 . S
H643 C630 0.962 . S
H644 C630 0.960 . S
H645 C631 0.961 . S
H646 C631 0.961 . S
H647 C631 0.961 . S
H648 C632 0.931 . S
H649 C637 0.930 . S
H650 C638 0.956 . S
H651 C638 0.961 1_655 S
H652 C638 0.961 . S
H653 C639 0.958 . S
H654 C639 0.961 . S
H655 C639 0.960 1_655 S
C656 C657 1.391 . S
C656 C658 1.394 . S
C656 H672 0.931 . S
C657 C656 1.391 . S
C657 C661 1.376 . S
C658 C656 1.394 . S
C658 C659 1.369 . S
C658 C662 1.531 . S
C659 C658 1.369 . S
C659 C660 1.410 . S
C659 C667 1.503 1_565 S
C660 C659 1.410 . S
C660 C661 1.392 . S
C660 C663 1.509 . S
C661 C657 1.376 . S
C661 C660 1.392 . S
C661 H673 0.929 . S
C662 C658 1.531 . S
C662 H674 0.960 . S
C662 H675 0.962 . S
C662 H676 0.960 . S
C663 C660 1.509 . S
C663 H677 0.961 1_565 S
C663 H678 0.964 1_565 S
C663 H679 0.959 . S
C664 C665 1.370 . S
C664 C666 1.363 . S
C664 H680 0.931 . S
C665 C664 1.370 . S
C665 C669 1.408 . S
C666 C664 1.363 . S
C666 C667 1.370 . S
C666 C670 1.524 . S
C667 C659 1.503 1_545 S
C667 C666 1.370 . S
C667 C668 1.403 . S
C668 C667 1.403 . S
C668 C669 1.404 . S
C668 C671 1.539 1_545 S
C669 C665 1.408 . S
C669 C668 1.404 . S
C669 H681 0.930 . S
C670 C666 1.524 . S
C670 H682 0.956 . S
C670 H683 0.961 . S
C670 H684 0.961 . S
C671 C668 1.539 1_565 S
C671 H685 0.958 . S
C671 H686 0.961 . S
C671 H687 0.960 . S
H672 C656 0.931 . S
H673 C661 0.929 . S
H674 C662 0.960 . S
H675 C662 0.962 . S
H676 C662 0.960 . S
H677 C663 0.961 1_545 S
H678 C663 0.964 1_545 S
H679 C663 0.959 . S
H680 C664 0.931 . S
H681 C669 0.930 . S
H682 C670 0.956 . S
H683 C670 0.961 . S
H684 C670 0.961 . S
H685 C671 0.958 . S
H686 C671 0.961 . S
H687 C671 0.960 . S
C688 C689 1.391 . S
C688 C690 1.394 . S
C688 H704 0.931 . S
C689 C688 1.391 . S
C689 C693 1.376 . S
C690 C688 1.394 . S
C690 C691 1.369 . S
C690 C694 1.531 . S
C691 C690 1.369 . S
C691 C692 1.410 . S
C691 C699 1.503 . S
C692 C691 1.410 . S
C692 C693 1.392 . S
C692 C695 1.511 . S
C693 C689 1.376 . S
C693 C692 1.392 . S
C693 H705 0.929 . S
C694 C690 1.531 . S
C694 H706 0.960 . S
C694 H707 0.962 . S
C694 H708 0.960 . S
C695 C692 1.511 . S
C695 H709 0.961 . S
C695 H710 0.961 . S
C695 H711 0.961 . S
C696 C697 1.370 . S
C696 C698 1.363 . S
C696 H712 0.931 . S
C697 C696 1.370 . S
C697 C701 1.408 . S
C698 C696 1.363 . S
C698 C699 1.370 . S
C698 C702 1.524 . S
C699 C691 1.503 . S
C699 C698 1.370 . S
C699 C700 1.403 . S
C700 C699 1.403 . S
C700 C701 1.404 . S
C700 C703 1.539 . S
C701 C697 1.408 . S
C701 C700 1.404 . S
C701 H713 0.930 . S
C702 C698 1.524 . S
C702 H714 0.956 . S
C702 H715 0.961 . S
C702 H716 0.961 . S
C703 C700 1.539 . S
C703 H717 0.958 . S
C703 H718 0.961 . S
C703 H719 0.960 . S
H704 C688 0.931 . S
H705 C693 0.929 . S
H706 C694 0.960 . S
H707 C694 0.962 . S
H708 C694 0.960 . S
H709 C695 0.961 . S
H710 C695 0.961 . S
H711 C695 0.961 . S
H712 C696 0.931 . S
H713 C701 0.930 . S
H714 C702 0.956 . S
H715 C702 0.961 . S
H716 C702 0.961 . S
H717 C703 0.958 . S
H718 C703 0.961 . S
H719 C703 0.960 . S
C720 C721 1.391 . S
C720 C722 1.394 . S
C720 H736 0.931 . S
C721 C720 1.391 . S
C721 C725 1.376 . S
C722 C720 1.394 . S
C722 C723 1.369 . S
C722 C726 1.531 . S
C723 C722 1.369 . S
C723 C724 1.410 . S
C723 C731 1.503 . S
C724 C723 1.410 . S
C724 C725 1.392 . S
C724 C727 1.511 . S
C725 C721 1.376 . S
C725 C724 1.392 . S
C725 H737 0.929 . S
C726 C722 1.531 . S
C726 H738 0.960 . S
C726 H739 0.962 . S
C726 H740 0.960 . S
C727 C724 1.511 . S
C727 H741 0.961 . S
C727 H742 0.961 . S
C727 H743 0.961 . S
C728 C729 1.370 . S
C728 C730 1.363 . S
C728 H744 0.931 . S
C729 C728 1.370 . S
C729 C733 1.408 . S
C730 C728 1.363 . S
C730 C731 1.370 . S
C730 C734 1.524 . S
C731 C723 1.503 . S
C731 C730 1.370 . S
C731 C732 1.403 . S
C732 C731 1.403 . S
C732 C733 1.404 . S
C732 C735 1.539 . S
C733 C729 1.408 . S
C733 C732 1.404 . S
C733 H745 0.930 . S
C734 C730 1.524 . S
C734 H746 0.956 . S
C734 H747 0.961 . S
C734 H748 0.961 . S
C735 C732 1.539 . S
C735 H749 0.958 . S
C735 H750 0.961 . S
C735 H751 0.960 . S
H736 C720 0.931 . S
H737 C725 0.929 . S
H738 C726 0.960 . S
H739 C726 0.962 . S
H740 C726 0.960 . S
H741 C727 0.961 . S
H742 C727 0.961 . S
H743 C727 0.961 . S
H744 C728 0.931 . S
H745 C733 0.930 . S
H746 C734 0.956 . S
H747 C734 0.961 . S
H748 C734 0.961 . S
H749 C735 0.958 . S
H750 C735 0.961 . S
H751 C735 0.960 . S
C752 C753 1.391 . S
C752 C754 1.394 . S
C752 H768 0.931 . S
C753 C752 1.391 . S
C753 C757 1.376 . S
C754 C752 1.394 . S
C754 C755 1.369 . S
C754 C758 1.531 . S
C755 C754 1.369 . S
C755 C756 1.410 . S
C755 C763 1.503 . S
C756 C755 1.410 . S
C756 C757 1.392 . S
C756 C759 1.511 . S
C757 C753 1.376 . S
C757 C756 1.392 . S
C757 H769 0.929 . S
C758 C754 1.531 . S
C758 H770 0.960 . S
C758 H771 0.962 . S
C758 H772 0.960 . S
C759 C756 1.511 . S
C759 H773 0.961 . S
C759 H774 0.961 . S
C759 H775 0.961 . S
C760 C761 1.370 . S
C760 C762 1.363 . S
C760 H776 0.931 . S
C761 C760 1.370 . S
C761 C765 1.408 . S
C762 C760 1.363 . S
C762 C763 1.370 . S
C762 C766 1.524 . S
C763 C755 1.503 . S
C763 C762 1.370 . S
C763 C764 1.403 . S
C764 C763 1.403 . S
C764 C765 1.404 . S
C764 C767 1.539 . S
C765 C761 1.408 . S
C765 C764 1.404 . S
C765 H777 0.930 . S
C766 C762 1.524 . S
C766 H778 0.956 . S
C766 H779 0.961 . S
C766 H780 0.961 . S
C767 C764 1.539 . S
C767 H781 0.958 . S
C767 H782 0.961 . S
C767 H783 0.960 . S
H768 C752 0.931 . S
H769 C757 0.929 . S
H770 C758 0.960 . S
H771 C758 0.962 . S
H772 C758 0.960 . S
H773 C759 0.961 . S
H774 C759 0.961 . S
H775 C759 0.961 . S
H776 C760 0.931 . S
H777 C765 0.930 . S
H778 C766 0.956 . S
H779 C766 0.961 . S
H780 C766 0.961 . S
H781 C767 0.958 . S
H782 C767 0.961 . S
H783 C767 0.960 . S
C784 C785 1.391 . S
C784 C786 1.394 . S
C784 H800 0.931 . S
C785 C784 1.391 . S
C785 C789 1.376 . S
C786 C784 1.394 . S
C786 C787 1.369 . S
C786 C790 1.531 . S
C787 C786 1.369 . S
C787 C788 1.410 . S
C787 C795 1.503 . S
C788 C787 1.410 . S
C788 C789 1.392 . S
C788 C791 1.511 . S
C789 C785 1.376 . S
C789 C788 1.392 . S
C789 H801 0.929 . S
C790 C786 1.531 . S
C790 H802 0.960 . S
C790 H803 0.962 . S
C790 H804 0.960 . S
C791 C788 1.511 . S
C791 H805 0.961 . S
C791 H806 0.961 . S
C791 H807 0.961 . S
C792 C793 1.370 . S
C792 C794 1.363 . S
C792 H808 0.931 . S
C793 C792 1.370 . S
C793 C797 1.408 . S
C794 C792 1.363 . S
C794 C795 1.370 . S
C794 C798 1.524 . S
C795 C787 1.503 . S
C795 C794 1.370 . S
C795 C796 1.403 . S
C796 C795 1.403 . S
C796 C797 1.404 . S
C796 C799 1.539 . S
C797 C793 1.408 . S
C797 C796 1.404 . S
C797 H809 0.930 . S
C798 C794 1.524 . S
C798 H810 0.956 . S
C798 H811 0.961 . S
C798 H812 0.961 . S
C799 C796 1.539 . S
C799 H813 0.958 . S
C799 H814 0.961 . S
C799 H815 0.960 . S
H800 C784 0.931 . S
H801 C789 0.929 . S
H802 C790 0.960 . S
H803 C790 0.962 . S
H804 C790 0.960 . S
H805 C791 0.961 . S
H806 C791 0.961 . S
H807 C791 0.961 . S
H808 C792 0.931 . S
H809 C797 0.930 . S
H810 C798 0.956 . S
H811 C798 0.961 . S
H812 C798 0.961 . S
H813 C799 0.958 . S
H814 C799 0.961 . S
H815 C799 0.960 . S
C816 C817 1.391 . S
C816 C818 1.394 . S
C816 H832 0.931 . S
C817 C816 1.391 . S
C817 C821 1.376 . S
C818 C816 1.394 . S
C818 C819 1.369 . S
C818 C822 1.531 . S
C819 C818 1.369 . S
C819 C820 1.410 . S
C819 C827 1.503 . S
C820 C819 1.410 . S
C820 C821 1.392 . S
C820 C823 1.511 . S
C821 C817 1.376 . S
C821 C820 1.392 . S
C821 H833 0.929 . S
C822 C818 1.531 . S
C822 H834 0.960 . S
C822 H835 0.962 . S
C822 H836 0.960 . S
C823 C820 1.511 . S
C823 H837 0.961 . S
C823 H838 0.961 . S
C823 H839 0.961 . S
C824 C825 1.370 . S
C824 C826 1.363 . S
C824 H840 0.931 . S
C825 C824 1.370 . S
C825 C829 1.408 . S
C826 C824 1.363 . S
C826 C827 1.370 . S
C826 C830 1.524 . S
C827 C819 1.503 . S
C827 C826 1.370 . S
C827 C828 1.403 . S
C828 C827 1.403 . S
C828 C829 1.404 . S
C828 C831 1.539 . S
C829 C825 1.408 . S
C829 C828 1.404 . S
C829 H841 0.930 . S
C830 C826 1.524 . S
C830 H842 0.956 . S
C830 H843 0.961 . S
C830 H844 0.961 . S
C831 C828 1.539 . S
C831 H845 0.958 . S
C831 H846 0.961 . S
C831 H847 0.960 . S
H832 C816 0.931 . S
H833 C821 0.929 . S
H834 C822 0.960 . S
H835 C822 0.962 . S
H836 C822 0.960 . S
H837 C823 0.961 . S
H838 C823 0.961 . S
H839 C823 0.961 . S
H840 C824 0.931 . S
H841 C829 0.930 . S
H842 C830 0.956 . S
H843 C830 0.961 . S
H844 C830 0.961 . S
H845 C831 0.958 . S
H846 C831 0.961 . S
H847 C831 0.960 . S
C848 C849 1.391 . S
C848 C850 1.394 . S
C848 H864 0.931 . S
C849 C848 1.391 . S
C849 C853 1.376 . S
C850 C848 1.394 . S
C850 C851 1.369 . S
C850 C854 1.531 . S
C851 C850 1.369 . S
C851 C852 1.410 . S
C851 C859 1.503 . S
C852 C851 1.410 . S
C852 C853 1.392 . S
C852 C855 1.511 . S
C853 C849 1.376 . S
C853 C852 1.392 . S
C853 H865 0.929 . S
C854 C850 1.531 . S
C854 H866 0.960 . S
C854 H867 0.962 . S
C854 H868 0.960 . S
C855 C852 1.511 . S
C855 H869 0.961 . S
C855 H870 0.961 . S
C855 H871 0.961 . S
C856 C857 1.370 . S
C856 C858 1.363 . S
C856 H872 0.931 . S
C857 C856 1.370 . S
C857 C861 1.408 . S
C858 C856 1.363 . S
C858 C859 1.370 . S
C858 C862 1.524 . S
C859 C851 1.503 . S
C859 C858 1.370 . S
C859 C860 1.403 . S
C860 C859 1.403 . S
C860 C861 1.404 . S
C860 C863 1.539 . S
C861 C857 1.408 . S
C861 C860 1.404 . S
C861 H873 0.930 . S
C862 C858 1.524 . S
C862 H874 0.956 . S
C862 H875 0.961 . S
C862 H876 0.961 . S
C863 C860 1.539 . S
C863 H877 0.958 . S
C863 H878 0.961 . S
C863 H879 0.960 . S
H864 C848 0.931 . S
H865 C853 0.929 . S
H866 C854 0.960 . S
H867 C854 0.962 . S
H868 C854 0.960 . S
H869 C855 0.961 . S
H870 C855 0.961 . S
H871 C855 0.961 . S
H872 C856 0.931 . S
H873 C861 0.930 . S
H874 C862 0.956 . S
H875 C862 0.961 . S
H876 C862 0.961 . S
H877 C863 0.958 . S
H878 C863 0.961 . S
H879 C863 0.960 . S
C880 C881 1.391 . S
C880 C882 1.394 . S
C880 H896 0.931 . S
C881 C880 1.391 . S
C881 C885 1.376 . S
C882 C880 1.394 . S
C882 C883 1.369 . S
C882 C886 1.531 . S
C883 C882 1.369 . S
C883 C884 1.410 . S
C883 C891 1.503 . S
C884 C883 1.410 . S
C884 C885 1.392 . S
C884 C887 1.511 . S
C885 C881 1.376 . S
C885 C884 1.392 . S
C885 H897 0.929 . S
C886 C882 1.531 . S
C886 H898 0.960 . S
C886 H899 0.962 . S
C886 H900 0.960 . S
C887 C884 1.511 . S
C887 H901 0.961 . S
C887 H902 0.961 . S
C887 H903 0.961 . S
C888 C889 1.370 . S
C888 C890 1.363 . S
C888 H904 0.931 . S
C889 C888 1.370 . S
C889 C893 1.408 . S
C890 C888 1.363 . S
C890 C891 1.370 . S
C890 C894 1.524 . S
C891 C883 1.503 . S
C891 C890 1.370 . S
C891 C892 1.403 . S
C892 C891 1.403 . S
C892 C893 1.404 . S
C892 C895 1.539 . S
C893 C889 1.408 . S
C893 C892 1.404 . S
C893 H905 0.930 . S
C894 C890 1.524 . S
C894 H906 0.956 . S
C894 H907 0.961 . S
C894 H908 0.961 . S
C895 C892 1.539 . S
C895 H909 0.958 . S
C895 H910 0.961 . S
C895 H911 0.960 . S
H896 C880 0.931 . S
H897 C885 0.929 . S
H898 C886 0.960 . S
H899 C886 0.962 . S
H900 C886 0.960 . S
H901 C887 0.961 . S
H902 C887 0.961 . S
H903 C887 0.961 . S
H904 C888 0.931 . S
H905 C893 0.930 . S
H906 C894 0.956 . S
H907 C894 0.961 . S
H908 C894 0.961 . S
H909 C895 0.958 . S
H910 C895 0.961 . S
H911 C895 0.960 . S
C912 C913 1.391 . S
C912 C914 1.394 . S
C912 H928 0.931 . S
C913 C912 1.391 . S
C913 C917 1.376 . S
C914 C912 1.394 . S
C914 C915 1.369 . S
C914 C918 1.531 . S
C915 C914 1.369 . S
C915 C916 1.410 . S
C915 C923 1.503 . S
C916 C915 1.410 . S
C916 C917 1.392 . S
C916 C919 1.511 . S
C917 C913 1.376 . S
C917 C916 1.392 . S
C917 H929 0.929 . S
C918 C914 1.531 . S
C918 H930 0.960 . S
C918 H931 0.962 . S
C918 H932 0.960 . S
C919 C916 1.511 . S
C919 H933 0.961 . S
C919 H934 0.961 . S
C919 H935 0.961 . S
C920 C921 1.370 . S
C920 C922 1.363 . S
C920 H936 0.931 . S
C921 C920 1.370 . S
C921 C925 1.408 . S
C922 C920 1.363 . S
C922 C923 1.370 . S
C922 C926 1.524 . S
C923 C915 1.503 . S
C923 C922 1.370 . S
C923 C924 1.403 . S
C924 C923 1.403 . S
C924 C925 1.404 . S
C924 C927 1.539 . S
C925 C921 1.408 . S
C925 C924 1.404 . S
C925 H937 0.930 . S
C926 C922 1.524 . S
C926 H938 0.956 . S
C926 H939 0.961 . S
C926 H940 0.961 . S
C927 C924 1.539 . S
C927 H941 0.958 . S
C927 H942 0.961 . S
C927 H943 0.960 . S
H928 C912 0.931 . S
H929 C917 0.929 . S
H930 C918 0.960 . S
H931 C918 0.962 . S
H932 C918 0.960 . S
H933 C919 0.961 . S
H934 C919 0.961 . S
H935 C919 0.961 . S
H936 C920 0.931 . S
H937 C925 0.930 . S
H938 C926 0.956 . S
H939 C926 0.961 . S
H940 C926 0.961 . S
H941 C927 0.958 . S
H942 C927 0.961 . S
H943 C927 0.960 . S
C177 C136 1.407 . S
C185 C8 1.433 . S
C209 C30 1.448 . S
C217 C158 1.424 . S
C241 C92 1.431 . S
C249 C53 1.435 . S
C273 C74 1.407 . S
C281 C114 1.436 . S
C305 C96 1.441 . S
C313 C50 1.432 . S
C337 C70 1.436 . S
C345 C118 1.434 . S
C369 C140 1.438 . S
C377 C4 1.434 . S
C401 C26 1.446 . S
C409 C162 1.424 . S
C433 C27 1.422 . S
C441 C119 1.427 . S
C465 C141 1.440 . S
C473 C48 1.435 . S
C497 C163 1.417 . S
C505 C71 1.441 . S
C529 C5 1.421 . S
C537 C97 1.441 . S
C561 C73 1.413 . S
C569 C160 1.430 . S
C593 C94 1.427 . S
C601 C7 1.434 . S
C625 C29 1.433 . S
C633 C116 1.432 . S
C657 C52 1.441 . S
C665 C138 1.421 . S
C689 C159 1.219 . S
C697 C9 1.195 . S
C721 C31 1.183 . S
C729 C93 1.209 . S
C753 C51 1.217 . S
C761 C115 1.196 . S
C785 C137 1.218 . S
C793 C75 1.196 . S
C817 C117 1.210 . S
C825 C49 1.201 . S
C849 C139 1.219 . S
C857 C72 1.198 . S
C881 C161 1.196 . S
C889 C6 1.209 . S
C913 C95 1.184 . S
C921 C28 1.213 . S
