# Generated by pormake.
# Topology ung, (4)-cn, num edge types: 1
# Building blocks:
#     Node 0, Type 0, BuildingBlock: QUQFOY_clean_sbu_3, # of connection points: 4
#     Node 1, Type 0, BuildingBlock: QUQFOY_clean_sbu_3, # of connection points: 4
#     Node 2, Type 0, BuildingBlock: QUQFOY_clean_sbu_3, # of connection points: 4
#     Node 3, Type 0, BuildingBlock: QUQFOY_clean_sbu_3, # of connection points: 4
#     Node 4, Type 0, BuildingBlock: QUQFOY_clean_sbu_3, # of connection points: 4
#     Node 5, Type 0, BuildingBlock: QUQFOY_clean_sbu_3, # of connection points: 4
#     Node 6, Type 0, BuildingBlock: QUQFOY_clean_sbu_3, # of connection points: 4
#     Node 7, Type 0, BuildingBlock: QUQFOY_clean_sbu_3, # of connection points: 4
#     Node 8, Type 0, BuildingBlock: QUQFOY_clean_sbu_3, # of connection points: 4
#     Node 9, Type 0, BuildingBlock: QUQFOY_clean_sbu_3, # of connection points: 4
#     Node 10, Type 0, BuildingBlock: QUQFOY_clean_sbu_3, # of connection points: 4
#     Node 11, Type 0, BuildingBlock: QUQFOY_clean_sbu_3, # of connection points: 4
#     Node 12, Type 0, BuildingBlock: QUQFOY_clean_sbu_3, # of connection points: 4
#     Node 13, Type 0, BuildingBlock: QUQFOY_clean_sbu_3, # of connection points: 4
#     Node 14, Type 0, BuildingBlock: QUQFOY_clean_sbu_3, # of connection points: 4
#     Node 15, Type 0, BuildingBlock: QUQFOY_clean_sbu_3, # of connection points: 4
#     Node 16, Type 0, BuildingBlock: QUQFOY_clean_sbu_3, # of connection points: 4
#     Node 17, Type 0, BuildingBlock: QUQFOY_clean_sbu_3, # of connection points: 4
#     Edge 18, Type (0, 0), None
#     Edge 19, Type (0, 0), None
#     Edge 20, Type (0, 0), None
#     Edge 21, Type (0, 0), None
#     Edge 22, Type (0, 0), None
#     Edge 23, Type (0, 0), None
#     Edge 24, Type (0, 0), None
#     Edge 25, Type (0, 0), None
#     Edge 26, Type (0, 0), None
#     Edge 27, Type (0, 0), None
#     Edge 28, Type (0, 0), None
#     Edge 29, Type (0, 0), None
#     Edge 30, Type (0, 0), None
#     Edge 31, Type (0, 0), None
#     Edge 32, Type (0, 0), None
#     Edge 33, Type (0, 0), None
#     Edge 34, Type (0, 0), None
#     Edge 35, Type (0, 0), None
#     Edge 36, Type (0, 0), None
#     Edge 37, Type (0, 0), None
#     Edge 38, Type (0, 0), None
#     Edge 39, Type (0, 0), None
#     Edge 40, Type (0, 0), None
#     Edge 41, Type (0, 0), None
#     Edge 42, Type (0, 0), None
#     Edge 43, Type (0, 0), None
#     Edge 44, Type (0, 0), None
#     Edge 45, Type (0, 0), None
#     Edge 46, Type (0, 0), None
#     Edge 47, Type (0, 0), None
#     Edge 48, Type (0, 0), None
#     Edge 49, Type (0, 0), None
#     Edge 50, Type (0, 0), None
#     Edge 51, Type (0, 0), None
#     Edge 52, Type (0, 0), None
#     Edge 53, Type (0, 0), None
# Relax obj value: 0.079
# Max RMSD: 0.199
# Mean RMSD: 0.194
data_MOF--net-ung--node1-QUQFOY_clean_sbu_3--edge1-none
_symmetry_space_group_name_H-M    P1
_symmetry_Int_Tables_number       1
_symmetry_cell_setting            triclinic
loop_
_symmetry_equiv_pos_as_xyz
'x, y, z'
_cell_length_a     33.947678
_cell_length_b     33.906621
_cell_length_c     10.953913
_cell_angle_alpha  89.175359
_cell_angle_beta   91.523505
_cell_angle_gamma 122.15578
loop_
_atom_site_label
_atom_site_type_symbol
_atom_site_fract_x
_atom_site_fract_y
_atom_site_fract_z
_atom_type_partial_charge
C0 C 0.1229 0.70431 0.38094 0.0
O1 O 0.14185 0.69976 0.28804 0.0
Cd2 Cd 0.10357 0.62828 0.1616 0.0
O3 O 0.08382 0.67115 0.41641 0.0
Cd4 Cd 0.02679 0.58948 0.38447 0.0
C5 C -0.00194 0.61862 0.1096 0.0
O6 O 0.06642 0.56049 0.28489 0.0
O7 O -0.00833 0.51293 0.29258 0.0
O8 O 0.06301 0.59016 0.57077 0.0
C9 C 0.03018 0.52247 0.24991 0.0
O10 O 0.03497 0.62312 0.06805 0.0
C11 C 0.02572 0.56806 0.63015 0.0
O12 O 0.98865 0.61176 0.22353 0.0
O13 O 0.98749 0.55766 0.57592 0.0
C14 C 0.41798 0.39991 0.11134 0.0
O15 O 0.44373 0.4072 0.20538 0.0
Cd16 Cd 0.46443 0.47094 0.34745 0.0
O17 O 0.40641 0.42858 0.07966 0.0
Cd18 Cd 0.42627 0.50759 0.12258 0.0
C19 C 0.35503 0.45507 0.36175 0.0
O20 O 0.49594 0.54202 0.23936 0.0
O21 O 0.46071 0.5798 0.23843 0.0
O22 O 0.46647 0.51486 0.94499 0.0
C23 C 0.49412 0.5762 0.27806 0.0
O24 O 0.38895 0.45466 0.41304 0.0
C25 C 0.454 0.53922 0.88716 0.0
O26 O 0.35681 0.46874 0.25135 0.0
O27 O 0.42454 0.54639 0.93603 0.0
C28 C 0.63211 0.02337 0.38152 0.0
O29 O 0.58942 0.00669 0.3589 0.0
Cd30 Cd 0.60822 0.07393 0.22696 0.0
O31 O 0.66078 0.06286 0.33636 0.0
Cd32 Cd 0.61449 0.09862 0.2465 0.0
C33 C 0.70182 0.1416 0.10467 0.0
O34 O 0.55466 0.05735 0.07648 0.0
O35 O 0.59046 0.13284 0.08756 0.0
O36 O 0.55073 0.05879 0.38769 0.0
C37 C 0.5594 0.09506 0.03708 0.0
O38 O 0.67573 0.09768 0.10018 0.0
C39 C 0.55937 0.09559 0.44044 0.0
O40 O 0.69061 0.16336 0.17484 0.0
O41 O 0.59539 0.13402 0.40874 0.0
C42 C 0.12611 0.47041 0.88288 0.0
O43 O 0.14771 0.50079 0.80048 0.0
Cd44 Cd 0.10811 0.53055 0.67198 0.0
O45 O 0.08573 0.45913 0.91347 0.0
Cd46 Cd 0.02991 0.48174 0.89034 0.0
C47 C 0.00963 0.42287 0.62132 0.0
O48 O 0.06456 0.55253 0.7871 0.0
O49 O 0.98898 0.51401 0.78862 0.0
O50 O 0.06696 0.52144 0.07276 0.0
C51 C 0.02669 0.54798 0.74745 0.0
O52 O 0.04474 0.45944 0.57779 0.0
C53 C 0.03006 0.50184 0.13435 0.0
O54 O -0.00127 0.41969 0.73381 0.0
O55 O -0.00782 0.4697 0.08333 0.0
C56 C 0.6518 0.62681 0.59892 0.0
O57 O 0.63567 0.58903 0.65822 0.0
Cd58 Cd 0.58269 0.579 0.81851 0.0
O59 O 0.63073 0.64851 0.59612 0.0
Cd60 Cd 0.55037 0.62673 0.62759 0.0
C61 C 0.61648 0.69467 0.85829 0.0
O62 O 0.50831 0.55555 0.7342 0.0
O63 O 0.48222 0.60173 0.74766 0.0
O64 O 0.53988 0.58393 0.45067 0.0
C65 C 0.47935 0.56408 0.77904 0.0
O66 O 0.61694 0.65881 0.89225 0.0
C67 C 0.51923 0.60003 0.38955 0.0
O68 O 0.59479 0.69464 0.76113 0.0
O69 O 0.51575 0.63233 0.43694 0.0
C70 C 0.43605 0.14944 0.60189 0.0
O71 O 0.47979 0.17509 0.61698 0.0
Cd72 Cd 0.47791 0.11398 0.74975 0.0
O73 O 0.4158 0.10881 0.64643 0.0
Cd74 Cd 0.47354 0.08707 0.7306 0.0
C75 C 0.38688 0.03575 0.87406 0.0
O76 O 0.53352 0.13204 0.89883 0.0
O77 O 0.50025 0.05665 0.88752 0.0
O78 O 0.5354 0.12974 0.58427 0.0
C79 C 0.53034 0.09488 0.93782 0.0
O80 O 0.40802 0.07976 0.87561 0.0
C81 C 0.52873 0.09306 0.53472 0.0
O82 O 0.40285 0.01722 0.80797 0.0
O83 O 0.49458 0.054 0.57026 0.0
C84 C 0.64806 -0.00022 0.46309 0.0
O85 O 0.62104 0.97078 0.54171 0.0
Cd86 Cd 0.65921 0.95916 0.7168 0.0
O87 O 0.69016 0.01112 0.46029 0.0
Cd88 Cd 0.72811 0.97122 0.54225 0.0
C89 C 0.76794 0.05969 0.73053 0.0
O90 O 0.68462 0.90743 0.68205 0.0
O91 O 0.76069 0.94559 0.69612 0.0
O92 O 0.68647 0.91595 0.38592 0.0
C93 C 0.72145 0.91194 0.73013 0.0
O94 O 0.7273 0.03414 0.77279 0.0
C95 C 0.72239 0.9222 0.33436 0.0
O96 O 0.78033 0.04763 0.63632 0.0
O97 O 0.76237 0.95432 0.37518 0.0
C98 C 0.14115 0.74962 0.43864 0.0
O99 O 0.16447 0.75964 0.53848 0.0
Cd100 Cd 0.1731 0.82051 0.67708 0.0
O101 O 0.12386 0.77303 0.40283 0.0
Cd102 Cd 0.12613 0.84382 0.45118 0.0
C103 C 0.05716 0.77876 0.68716 0.0
O104 O 0.19379 0.89105 0.5729 0.0
O105 O 0.143 0.91151 0.56772 0.0
O106 O 0.16946 0.86319 0.27354 0.0
C107 C 0.18144 0.91837 0.60912 0.0
O108 O 0.09408 0.7888 0.74674 0.0
C109 C 0.14726 0.87827 0.2156 0.0
O110 O 0.05818 0.79057 0.57519 0.0
O111 O 0.11192 0.87484 0.26545 0.0
C112 C 0.31047 0.42965 0.42276 0.0
O113 O 0.30306 0.44647 0.51598 0.0
Cd114 Cd 0.23454 0.3986 0.63917 0.0
O115 O 0.28211 0.3879 0.38986 0.0
Cd116 Cd 0.20727 0.31624 0.41933 0.0
C117 C 0.25381 0.3087 0.69146 0.0
O118 O 0.17123 0.3515 0.50443 0.0
O119 O 0.12842 0.27664 0.50595 0.0
O120 O 0.21644 0.34635 0.22298 0.0
C121 C 0.1352 0.31505 0.54341 0.0
O122 O 0.24969 0.34156 0.73059 0.0
C123 C 0.19293 0.30784 0.16739 0.0
O124 O 0.2451 0.29521 0.57995 0.0
O125 O 0.17765 0.27047 0.2297 0.0
C126 C 0.7644 0.7917 0.20019 0.0
O127 O 0.79255 0.83295 0.16453 0.0
Cd128 Cd 0.73188 0.83024 0.03086 0.0
O129 O 0.72262 0.77177 0.16151 0.0
Cd130 Cd 0.70611 0.82934 0.0495 0.0
C131 C 0.64755 0.73826 0.92255 0.0
O132 O 0.75397 0.88338 0.87592 0.0
O133 O 0.6793 0.85415 0.87734 0.0
O134 O 0.75237 0.89378 0.19066 0.0
C135 C 0.7183 0.88158 0.82917 0.0
O136 O 0.69108 0.75595 0.9205 0.0
C137 C 0.71714 0.89122 0.2361 0.0
O138 O 0.63256 0.7592 -0.01768 0.0
O139 O 0.67698 0.85909 0.19781 0.0
C140 C 0.3433 0.00813 0.93883 0.0
O141 O 0.33764 0.97704 0.01513 0.0
Cd142 Cd 0.27587 0.94715 0.16544 0.0
O143 O 0.31213 0.01752 0.92021 0.0
Cd144 Cd 0.22909 0.97839 0.95587 0.0
C145 C 0.27262 0.04646 0.20725 0.0
O146 O 0.20331 0.90854 0.06223 0.0
O147 O 0.15781 0.93525 0.0712 0.0
O148 O 0.23043 0.93949 0.78244 0.0
C149 C 0.16712 0.90504 0.10502 0.0
O150 O 0.2792 0.01523 0.25023 0.0
C151 C 0.20261 0.94607 0.71901 0.0
O152 O 0.25817 0.04492 0.0972 0.0
O153 O 0.18922 0.97176 0.76302 0.0
C154 C 0.14285 0.44141 0.93047 0.0
O155 O 0.17359 0.45601 0.0155 0.0
Cd156 Cd 0.18102 0.39952 0.13828 0.0
O157 O 0.11984 0.39878 0.89948 0.0
Cd158 Cd 0.11228 0.32318 0.9149 0.0
C159 C 0.06281 0.32 0.18626 0.0
O160 O 0.18446 0.3475 0.00392 0.0
O161 O 0.13739 0.27297 0.00795 0.0
O162 O 0.1418 0.35463 0.72289 0.0
C163 C 0.17534 0.30843 0.04529 0.0
O164 O 0.10347 0.34996 0.22765 0.0
C165 C 0.11863 0.31696 0.66326 0.0
O166 O 0.05529 0.30703 0.07421 0.0
O167 O 0.08823 0.28051 0.7202 0.0
C168 C 0.39431 0.35475 0.04996 0.0
O169 O 0.41371 0.34642 0.96508 0.0
Cd170 Cd 0.36928 0.27867 0.83034 0.0
O171 O 0.35228 0.32582 0.07669 0.0
Cd172 Cd 0.28727 0.24639 0.04201 0.0
C173 C 0.27474 0.29045 0.7743 0.0
O174 O 0.32347 0.21206 0.95141 0.0
O175 O 0.24843 0.16938 0.94393 0.0
O176 O 0.31978 0.24946 0.23354 0.0
C177 C 0.28692 0.17602 0.90956 0.0
O178 O 0.30942 0.28948 0.73642 0.0
C179 C 0.28171 0.2266 0.28917 0.0
O180 O 0.26135 0.28079 0.88487 0.0
O181 O 0.24397 0.21473 0.23 0.0
C182 C 0.79663 0.10651 0.7804 0.0
O183 O 0.82687 0.11539 0.86419 0.0
Cd184 Cd 0.85383 0.18186 -0.0001 0.0
O185 O 0.78494 0.13537 0.75211 0.0
Cd186 Cd 0.80725 0.21577 0.77736 0.0
C187 C 0.74437 0.16514 0.03445 0.0
O188 O 0.87767 0.24962 0.882 0.0
O189 O 0.84667 0.29133 0.88145 0.0
O190 O 0.84464 0.21627 0.60004 0.0
C191 C 0.87839 0.28507 0.92148 0.0
O192 O 0.77901 0.16377 0.07648 0.0
C193 C 0.83064 0.23786 0.53493 0.0
O194 O 0.74364 0.17995 0.92659 0.0
O195 O 0.80199 0.2469 0.58091 0.0
C196 C 0.96969 0.62793 0.0253 0.0
O197 O 0.96143 0.61252 0.91662 0.0
Cd198 Cd 0.92523 0.63466 0.75365 0.0
O199 O 0.95957 0.65711 0.05648 0.0
Cd200 Cd 0.92556 0.6939 0.94353 0.0
C201 C 0.01265 0.74405 0.73955 0.0
O202 O 0.86567 0.65113 0.78745 0.0
O203 O 0.90175 0.72744 0.79451 0.0
O204 O 0.86484 0.65601 0.08607 0.0
C205 C 0.86974 0.689 0.74888 0.0
O206 O 0.9868 0.70745 0.67716 0.0
C207 C 0.87493 0.69323 0.13992 0.0
O208 O 0.00312 0.74728 0.8499 0.0
O209 O 0.91023 0.73169 0.10432 0.0
C210 C 0.40807 0.16486 0.53863 0.0
O211 O 0.42486 0.19586 0.45581 0.0
Cd212 Cd 0.3712 0.20564 0.32428 0.0
O213 O 0.36564 0.14481 0.56718 0.0
Cd214 Cd 0.29369 0.14353 0.54501 0.0
C215 C 0.28772 0.08751 0.28288 0.0
O216 O 0.32099 0.21473 0.44966 0.0
O217 O 0.24608 0.16975 0.44254 0.0
O218 O 0.3263 0.17884 0.73454 0.0
C219 C 0.2823 0.20693 0.40735 0.0
O220 O 0.31858 0.12712 0.24024 0.0
C221 C 0.28875 0.15712 0.79282 0.0
O222 O 0.27462 0.08226 0.39375 0.0
O223 O 0.2522 0.12509 0.73699 0.0
C224 C 0.02317 0.30772 0.26274 0.0
O225 O 0.01594 0.28481 0.3614 0.0
Cd226 Cd 0.95268 0.26811 0.50022 0.0
O227 O -0.00244 0.32288 0.23022 0.0
Cd228 Cd 0.92871 0.32278 0.28039 0.0
C229 C 0.98495 0.38177 0.54302 0.0
O230 O 0.88547 0.2522 0.38489 0.0
O231 O 0.85448 0.29394 0.37885 0.0
O232 O 0.91831 0.28478 0.09712 0.0
C233 C 0.85396 0.25862 0.42102 0.0
O234 O 0.97692 0.34331 0.58747 0.0
C235 C 0.90169 0.30515 0.03751 0.0
O236 O 0.97587 0.38586 0.43084 0.0
O237 O 0.89977 0.33755 0.09016 0.0
C238 C 0.77869 0.76723 0.28375 0.0
O239 O 0.81978 0.78635 0.32698 0.0
Cd240 Cd 0.79743 0.71673 0.45074 0.0
O241 O 0.74976 0.72548 0.31466 0.0
Cd242 Cd 0.79073 0.68875 0.42982 0.0
C243 C 0.69739 0.64902 0.5431 0.0
O244 O 0.84578 0.72758 0.61184 0.0
O245 O 0.8121 0.65258 0.59119 0.0
O246 O 0.85597 0.72843 0.2929 0.0
C247 C 0.84093 0.68952 0.64894 0.0
O248 O 0.72386 0.69293 0.54627 0.0
C249 C 0.84612 0.6915 0.23829 0.0
O250 O 0.71175 0.6261 0.4902 0.0
O251 O 0.81009 0.65326 0.27097 0.0
loop_
_geom_bond_atom_site_label_1
_geom_bond_atom_site_label_2
_geom_bond_distance
_geom_bond_site_symmetry_2
_ccdc_geom_bond_type
C0 O1 1.306 . S
C0 O3 1.160 . S
O1 C0 1.306 . S
O1 Cd2 2.228 . S
Cd2 O1 2.228 . S
Cd2 O6 2.273 . S
Cd2 O10 2.277 . S
O3 C0 1.160 . S
O3 Cd4 2.203 . S
Cd4 O3 2.203 . S
Cd4 O6 2.411 . S
Cd4 O7 2.333 . S
Cd4 O8 2.352 . S
Cd4 O12 2.277 1_455 S
Cd4 O13 2.356 1_455 S
C5 O10 1.209 1_655 S
C5 O12 1.226 . S
O6 Cd2 2.273 . S
O6 Cd4 2.411 . S
O6 C9 1.320 . S
O7 Cd4 2.333 . S
O7 C9 1.214 . S
O8 Cd4 2.352 . S
O8 C11 1.258 . S
C9 O6 1.320 . S
C9 O7 1.214 . S
O10 Cd2 2.277 . S
O10 C5 1.209 1_455 S
C11 O8 1.258 . S
C11 O13 1.282 1_455 S
O12 Cd4 2.277 1_655 S
O12 C5 1.226 . S
O13 Cd4 2.356 1_655 S
O13 C11 1.282 1_655 S
C14 O15 1.306 . S
C14 O17 1.160 . S
O15 C14 1.306 . S
O15 Cd16 2.228 . S
Cd16 O15 2.228 . S
Cd16 O20 2.273 . S
Cd16 O24 2.277 . S
O17 C14 1.160 . S
O17 Cd18 2.203 . S
Cd18 O17 2.203 . S
Cd18 O20 2.411 . S
Cd18 O21 2.333 . S
Cd18 O22 2.352 . S
Cd18 O26 2.277 . S
Cd18 O27 2.356 . S
C19 O24 1.209 . S
C19 O26 1.226 . S
O20 Cd16 2.273 . S
O20 Cd18 2.411 . S
O20 C23 1.320 . S
O21 Cd18 2.333 . S
O21 C23 1.214 . S
O22 Cd18 2.352 . S
O22 C25 1.258 . S
C23 O20 1.320 . S
C23 O21 1.214 . S
O24 Cd16 2.277 . S
O24 C19 1.209 . S
C25 O22 1.258 . S
C25 O27 1.282 . S
O26 Cd18 2.277 . S
O26 C19 1.226 . S
O27 Cd18 2.356 . S
O27 C25 1.282 . S
C28 O29 1.306 . S
C28 O31 1.160 1_565 S
O29 C28 1.306 . S
O29 Cd30 2.228 . S
Cd30 O29 2.228 . S
Cd30 O34 2.273 1_565 S
Cd30 O38 2.277 1_565 S
O31 C28 1.160 1_545 S
O31 Cd32 2.203 . S
Cd32 O31 2.203 . S
Cd32 O34 2.411 . S
Cd32 O35 2.333 . S
Cd32 O36 2.352 . S
Cd32 O40 2.277 . S
Cd32 O41 2.356 . S
C33 O38 1.209 . S
C33 O40 1.226 . S
O34 Cd30 2.273 1_545 S
O34 Cd32 2.411 . S
O34 C37 1.320 . S
O35 Cd32 2.333 . S
O35 C37 1.214 . S
O36 Cd32 2.352 . S
O36 C39 1.258 . S
C37 O34 1.320 . S
C37 O35 1.214 . S
O38 Cd30 2.277 1_545 S
O38 C33 1.209 . S
C39 O36 1.258 . S
C39 O41 1.282 . S
O40 Cd32 2.277 . S
O40 C33 1.226 . S
O41 Cd32 2.356 . S
O41 C39 1.282 . S
C42 O43 1.306 . S
C42 O45 1.160 . S
O43 C42 1.306 . S
O43 Cd44 2.228 . S
Cd44 O43 2.228 . S
Cd44 O48 2.273 . S
Cd44 O52 2.277 . S
O45 C42 1.160 . S
O45 Cd46 2.203 . S
Cd46 O45 2.203 . S
Cd46 O48 2.411 . S
Cd46 O49 2.333 . S
Cd46 O50 2.352 . S
Cd46 O54 2.277 1_455 S
Cd46 O55 2.356 1_455 S
C47 O52 1.209 1_655 S
C47 O54 1.226 . S
O48 Cd44 2.273 . S
O48 Cd46 2.411 . S
O48 C51 1.320 . S
O49 Cd46 2.333 . S
O49 C51 1.214 . S
O50 Cd46 2.352 . S
O50 C53 1.258 . S
C51 O48 1.320 . S
C51 O49 1.214 . S
O52 Cd44 2.277 . S
O52 C47 1.209 1_455 S
C53 O50 1.258 . S
C53 O55 1.282 1_455 S
O54 Cd46 2.277 1_655 S
O54 C47 1.226 . S
O55 Cd46 2.356 1_655 S
O55 C53 1.282 1_655 S
C56 O57 1.306 . S
C56 O59 1.160 . S
O57 C56 1.306 . S
O57 Cd58 2.228 . S
Cd58 O57 2.228 . S
Cd58 O62 2.273 . S
Cd58 O66 2.277 . S
O59 C56 1.160 . S
O59 Cd60 2.203 . S
Cd60 O59 2.203 . S
Cd60 O62 2.411 . S
Cd60 O63 2.333 . S
Cd60 O64 2.352 . S
Cd60 O68 2.277 . S
Cd60 O69 2.356 . S
C61 O66 1.209 . S
C61 O68 1.226 . S
O62 Cd58 2.273 . S
O62 Cd60 2.411 . S
O62 C65 1.320 . S
O63 Cd60 2.333 . S
O63 C65 1.214 . S
O64 Cd60 2.352 . S
O64 C67 1.258 . S
C65 O62 1.320 . S
C65 O63 1.214 . S
O66 Cd58 2.277 . S
O66 C61 1.209 . S
C67 O64 1.258 . S
C67 O69 1.282 . S
O68 Cd60 2.277 . S
O68 C61 1.226 . S
O69 Cd60 2.356 . S
O69 C67 1.282 . S
C70 O71 1.306 . S
C70 O73 1.160 . S
O71 C70 1.306 . S
O71 Cd72 2.228 1_556 S
Cd72 O71 2.228 1_554 S
Cd72 O76 2.273 1_554 S
Cd72 O80 2.277 1_554 S
O73 C70 1.160 . S
O73 Cd74 2.203 . S
Cd74 O73 2.203 . S
Cd74 O76 2.411 . S
Cd74 O77 2.333 . S
Cd74 O78 2.352 . S
Cd74 O82 2.277 1_545 S
Cd74 O83 2.356 . S
C75 O80 1.209 . S
C75 O82 1.226 1_545 S
O76 Cd72 2.273 1_556 S
O76 Cd74 2.411 . S
O76 C79 1.320 . S
O77 Cd74 2.333 . S
O77 C79 1.214 . S
O78 Cd74 2.352 . S
O78 C81 1.258 . S
C79 O76 1.320 . S
C79 O77 1.214 . S
O80 Cd72 2.277 1_556 S
O80 C75 1.209 . S
C81 O78 1.258 . S
C81 O83 1.282 . S
O82 Cd74 2.277 1_565 S
O82 C75 1.226 1_565 S
O83 Cd74 2.356 . S
O83 C81 1.282 . S
C84 O85 1.306 . S
C84 O87 1.160 . S
O85 C84 1.306 . S
O85 Cd86 2.228 . S
Cd86 O85 2.228 . S
Cd86 O90 2.273 . S
Cd86 O94 2.277 1_565 S
O87 C84 1.160 . S
O87 Cd88 2.203 . S
Cd88 O87 2.203 . S
Cd88 O90 2.411 . S
Cd88 O91 2.333 . S
Cd88 O92 2.352 . S
Cd88 O96 2.277 1_565 S
Cd88 O97 2.356 . S
C89 O94 1.209 . S
C89 O96 1.226 . S
O90 Cd86 2.273 . S
O90 Cd88 2.411 . S
O90 C93 1.320 . S
O91 Cd88 2.333 . S
O91 C93 1.214 . S
O92 Cd88 2.352 . S
O92 C95 1.258 . S
C93 O90 1.320 . S
C93 O91 1.214 . S
O94 Cd86 2.277 1_545 S
O94 C89 1.209 . S
C95 O92 1.258 . S
C95 O97 1.282 . S
O96 Cd88 2.277 1_545 S
O96 C89 1.226 . S
O97 Cd88 2.356 . S
O97 C95 1.282 . S
C98 O99 1.306 . S
C98 O101 1.160 . S
O99 C98 1.306 . S
O99 Cd100 2.228 . S
Cd100 O99 2.228 . S
Cd100 O104 2.273 . S
Cd100 O108 2.277 . S
O101 C98 1.160 . S
O101 Cd102 2.203 . S
Cd102 O101 2.203 . S
Cd102 O104 2.411 . S
Cd102 O105 2.333 . S
Cd102 O106 2.352 . S
Cd102 O110 2.277 . S
Cd102 O111 2.356 . S
C103 O108 1.209 . S
C103 O110 1.226 . S
O104 Cd100 2.273 . S
O104 Cd102 2.411 . S
O104 C107 1.320 . S
O105 Cd102 2.333 . S
O105 C107 1.214 . S
O106 Cd102 2.352 . S
O106 C109 1.258 . S
C107 O104 1.320 . S
C107 O105 1.214 . S
O108 Cd100 2.277 . S
O108 C103 1.209 . S
C109 O106 1.258 . S
C109 O111 1.282 . S
O110 Cd102 2.277 . S
O110 C103 1.226 . S
O111 Cd102 2.356 . S
O111 C109 1.282 . S
C112 O113 1.306 . S
C112 O115 1.160 . S
O113 C112 1.306 . S
O113 Cd114 2.228 . S
Cd114 O113 2.228 . S
Cd114 O118 2.273 . S
Cd114 O122 2.277 . S
O115 C112 1.160 . S
O115 Cd116 2.203 . S
Cd116 O115 2.203 . S
Cd116 O118 2.411 . S
Cd116 O119 2.333 . S
Cd116 O120 2.352 . S
Cd116 O124 2.277 . S
Cd116 O125 2.356 . S
C117 O122 1.209 . S
C117 O124 1.226 . S
O118 Cd114 2.273 . S
O118 Cd116 2.411 . S
O118 C121 1.320 . S
O119 Cd116 2.333 . S
O119 C121 1.214 . S
O120 Cd116 2.352 . S
O120 C123 1.258 . S
C121 O118 1.320 . S
C121 O119 1.214 . S
O122 Cd114 2.277 . S
O122 C117 1.209 . S
C123 O120 1.258 . S
C123 O125 1.282 . S
O124 Cd116 2.277 . S
O124 C117 1.226 . S
O125 Cd116 2.356 . S
O125 C123 1.282 . S
C126 O127 1.306 . S
C126 O129 1.160 . S
O127 C126 1.306 . S
O127 Cd128 2.228 1_554 S
Cd128 O127 2.228 1_556 S
Cd128 O132 2.273 . S
Cd128 O136 2.277 . S
O129 C126 1.160 . S
O129 Cd130 2.203 . S
Cd130 O129 2.203 . S
Cd130 O132 2.411 1_554 S
Cd130 O133 2.333 1_554 S
Cd130 O134 2.352 . S
Cd130 O138 2.277 . S
Cd130 O139 2.356 . S
C131 O136 1.209 . S
C131 O138 1.226 1_556 S
O132 Cd128 2.273 . S
O132 Cd130 2.411 1_556 S
O132 C135 1.320 . S
O133 Cd130 2.333 1_556 S
O133 C135 1.214 . S
O134 Cd130 2.352 . S
O134 C137 1.258 . S
C135 O132 1.320 . S
C135 O133 1.214 . S
O136 Cd128 2.277 . S
O136 C131 1.209 . S
C137 O134 1.258 . S
C137 O139 1.282 . S
O138 Cd130 2.277 . S
O138 C131 1.226 1_554 S
O139 Cd130 2.356 . S
O139 C137 1.282 . S
C140 O141 1.306 1_556 S
C140 O143 1.160 . S
O141 C140 1.306 1_554 S
O141 Cd142 2.228 . S
Cd142 O141 2.228 . S
Cd142 O146 2.273 . S
Cd142 O150 2.277 1_565 S
O143 C140 1.160 . S
O143 Cd144 2.203 1_556 S
Cd144 O143 2.203 1_554 S
Cd144 O146 2.411 . S
Cd144 O147 2.333 . S
Cd144 O148 2.352 1_554 S
Cd144 O152 2.277 1_565 S
Cd144 O153 2.356 1_554 S
C145 O150 1.209 . S
C145 O152 1.226 . S
O146 Cd142 2.273 . S
O146 Cd144 2.411 . S
O146 C149 1.320 . S
O147 Cd144 2.333 . S
O147 C149 1.214 . S
O148 Cd144 2.352 1_556 S
O148 C151 1.258 . S
C149 O146 1.320 . S
C149 O147 1.214 . S
O150 Cd142 2.277 1_545 S
O150 C145 1.209 . S
C151 O148 1.258 . S
C151 O153 1.282 . S
O152 Cd144 2.277 1_545 S
O152 C145 1.226 . S
O153 Cd144 2.356 1_556 S
O153 C151 1.282 . S
C154 O155 1.306 1_556 S
C154 O157 1.160 . S
O155 C154 1.306 1_554 S
O155 Cd156 2.228 . S
Cd156 O155 2.228 . S
Cd156 O160 2.273 . S
Cd156 O164 2.277 . S
O157 C154 1.160 . S
O157 Cd158 2.203 1_556 S
Cd158 O157 2.203 1_554 S
Cd158 O160 2.411 . S
Cd158 O161 2.333 . S
Cd158 O162 2.352 1_554 S
Cd158 O166 2.277 . S
Cd158 O167 2.356 1_554 S
C159 O164 1.209 . S
C159 O166 1.226 . S
O160 Cd156 2.273 . S
O160 Cd158 2.411 . S
O160 C163 1.320 . S
O161 Cd158 2.333 . S
O161 C163 1.214 . S
O162 Cd158 2.352 1_556 S
O162 C165 1.258 . S
C163 O160 1.320 . S
C163 O161 1.214 . S
O164 Cd156 2.277 . S
O164 C159 1.209 . S
C165 O162 1.258 . S
C165 O167 1.282 . S
O166 Cd158 2.277 . S
O166 C159 1.226 . S
O167 Cd158 2.356 1_556 S
O167 C165 1.282 . S
C168 O169 1.306 1_554 S
C168 O171 1.160 . S
O169 C168 1.306 1_556 S
O169 Cd170 2.228 . S
Cd170 O169 2.228 . S
Cd170 O174 2.273 . S
Cd170 O178 2.277 . S
O171 C168 1.160 . S
O171 Cd172 2.203 1_554 S
Cd172 O171 2.203 1_556 S
Cd172 O174 2.411 . S
Cd172 O175 2.333 . S
Cd172 O176 2.352 1_556 S
Cd172 O180 2.277 . S
Cd172 O181 2.356 1_556 S
C173 O178 1.209 . S
C173 O180 1.226 . S
O174 Cd170 2.273 . S
O174 Cd172 2.411 . S
O174 C177 1.320 . S
O175 Cd172 2.333 . S
O175 C177 1.214 . S
O176 Cd172 2.352 1_554 S
O176 C179 1.258 . S
C177 O174 1.320 . S
C177 O175 1.214 . S
O178 Cd170 2.277 . S
O178 C173 1.209 . S
C179 O176 1.258 . S
C179 O181 1.282 . S
O180 Cd172 2.277 . S
O180 C173 1.226 . S
O181 Cd172 2.356 1_554 S
O181 C179 1.282 . S
C182 O183 1.306 . S
C182 O185 1.160 . S
O183 C182 1.306 . S
O183 Cd184 2.228 1_556 S
Cd184 O183 2.228 1_554 S
Cd184 O188 2.273 . S
Cd184 O192 2.277 . S
O185 C182 1.160 . S
O185 Cd186 2.203 . S
Cd186 O185 2.203 . S
Cd186 O188 2.411 1_556 S
Cd186 O189 2.333 1_556 S
Cd186 O190 2.352 . S
Cd186 O194 2.277 . S
Cd186 O195 2.356 . S
C187 O192 1.209 . S
C187 O194 1.226 1_554 S
O188 Cd184 2.273 . S
O188 Cd186 2.411 1_554 S
O188 C191 1.320 . S
O189 Cd186 2.333 1_554 S
O189 C191 1.214 . S
O190 Cd186 2.352 . S
O190 C193 1.258 . S
C191 O188 1.320 . S
C191 O189 1.214 . S
O192 Cd184 2.277 . S
O192 C187 1.209 . S
C193 O190 1.258 . S
C193 O195 1.282 . S
O194 Cd186 2.277 . S
O194 C187 1.226 1_556 S
O195 Cd186 2.356 . S
O195 C193 1.282 . S
C196 O197 1.306 . S
C196 O199 1.160 1_556 S
O197 C196 1.306 . S
O197 Cd198 2.228 . S
Cd198 O197 2.228 . S
Cd198 O202 2.273 . S
Cd198 O206 2.277 . S
O199 C196 1.160 1_554 S
O199 Cd200 2.203 1_554 S
Cd200 O199 2.203 1_556 S
Cd200 O202 2.411 . S
Cd200 O203 2.333 . S
Cd200 O204 2.352 1_556 S
Cd200 O208 2.277 1_655 S
Cd200 O209 2.356 1_556 S
C201 O206 1.209 1_455 S
C201 O208 1.226 . S
O202 Cd198 2.273 . S
O202 Cd200 2.411 . S
O202 C205 1.320 . S
O203 Cd200 2.333 . S
O203 C205 1.214 . S
O204 Cd200 2.352 1_554 S
O204 C207 1.258 . S
C205 O202 1.320 . S
C205 O203 1.214 . S
O206 Cd198 2.277 . S
O206 C201 1.209 1_655 S
C207 O204 1.258 . S
C207 O209 1.282 . S
O208 Cd200 2.277 1_455 S
O208 C201 1.226 . S
O209 Cd200 2.356 1_554 S
O209 C207 1.282 . S
C210 O211 1.306 . S
C210 O213 1.160 . S
O211 C210 1.306 . S
O211 Cd212 2.228 . S
Cd212 O211 2.228 . S
Cd212 O216 2.273 . S
Cd212 O220 2.277 . S
O213 C210 1.160 . S
O213 Cd214 2.203 . S
Cd214 O213 2.203 . S
Cd214 O216 2.411 . S
Cd214 O217 2.333 . S
Cd214 O218 2.352 . S
Cd214 O222 2.277 . S
Cd214 O223 2.356 . S
C215 O220 1.209 . S
C215 O222 1.226 . S
O216 Cd212 2.273 . S
O216 Cd214 2.411 . S
O216 C219 1.320 . S
O217 Cd214 2.333 . S
O217 C219 1.214 . S
O218 Cd214 2.352 . S
O218 C221 1.258 . S
C219 O216 1.320 . S
C219 O217 1.214 . S
O220 Cd212 2.277 . S
O220 C215 1.209 . S
C221 O218 1.258 . S
C221 O223 1.282 . S
O222 Cd214 2.277 . S
O222 C215 1.226 . S
O223 Cd214 2.356 . S
O223 C221 1.282 . S
C224 O225 1.306 . S
C224 O227 1.160 1_455 S
O225 C224 1.306 . S
O225 Cd226 2.228 . S
Cd226 O225 2.228 . S
Cd226 O230 2.273 1_455 S
Cd226 O234 2.277 1_455 S
O227 C224 1.160 1_655 S
O227 Cd228 2.203 . S
Cd228 O227 2.203 . S
Cd228 O230 2.411 . S
Cd228 O231 2.333 . S
Cd228 O232 2.352 . S
Cd228 O236 2.277 . S
Cd228 O237 2.356 . S
C229 O234 1.209 . S
C229 O236 1.226 . S
O230 Cd226 2.273 1_655 S
O230 Cd228 2.411 . S
O230 C233 1.320 . S
O231 Cd228 2.333 . S
O231 C233 1.214 . S
O232 Cd228 2.352 . S
O232 C235 1.258 . S
C233 O230 1.320 . S
C233 O231 1.214 . S
O234 Cd226 2.277 1_655 S
O234 C229 1.209 . S
C235 O232 1.258 . S
C235 O237 1.282 . S
O236 Cd228 2.277 . S
O236 C229 1.226 . S
O237 Cd228 2.356 . S
O237 C235 1.282 . S
C238 O239 1.306 . S
C238 O241 1.160 . S
O239 C238 1.306 . S
O239 Cd240 2.228 . S
Cd240 O239 2.228 . S
Cd240 O244 2.273 . S
Cd240 O248 2.277 . S
O241 C238 1.160 . S
O241 Cd242 2.203 . S
Cd242 O241 2.203 . S
Cd242 O244 2.411 . S
Cd242 O245 2.333 . S
Cd242 O246 2.352 . S
Cd242 O250 2.277 . S
Cd242 O251 2.356 . S
C243 O248 1.209 . S
C243 O250 1.226 . S
O244 Cd240 2.273 . S
O244 Cd242 2.411 . S
O244 C247 1.320 . S
O245 Cd242 2.333 . S
O245 C247 1.214 . S
O246 Cd242 2.352 . S
O246 C249 1.258 . S
C247 O244 1.320 . S
C247 O245 1.214 . S
O248 Cd240 2.277 . S
O248 C243 1.209 . S
C249 O246 1.258 . S
C249 O251 1.282 . S
O250 Cd242 2.277 . S
O250 C243 1.226 . S
O251 Cd242 2.356 . S
O251 C249 1.282 . S
C53 C9 1.675 1_556 S
C65 C25 1.689 1_556 S
C37 C79 1.708 1_554 S
C39 C81 1.579 . S
C11 C51 1.599 . S
C67 C23 1.633 . S
C137 C95 1.552 . S
C109 C149 1.629 . S
C123 C163 1.627 . S
C165 C121 1.700 . S
C135 C93 1.726 . S
C151 C107 1.736 . S
C177 C221 1.681 . S
C193 C233 1.723 . S
C205 C247 1.742 . S
C249 C207 1.582 . S
C219 C179 1.640 . S
C235 C191 1.666 . S
C0 C98 1.564 . S
C19 C112 1.500 . S
C84 C28 1.624 . S
C33 C187 1.391 . S
C196 C5 1.473 1_556 S
C168 C14 1.473 . S
C229 C47 1.396 . S
C56 C243 1.422 . S
C210 C70 1.532 . S
C140 C75 1.354 1_565 S
C42 C154 1.401 . S
C61 C131 1.329 . S
C89 C182 1.351 . S
C103 C201 1.336 . S
C117 C173 1.342 . S
C224 C159 1.504 . S
C238 C126 1.624 . S
C145 C215 1.462 . S
