# Generated by pormake.
# Topology ukr, (4)-cn, num edge types: 1
# Building blocks:
#     Node 0, Type 0, BuildingBlock: CEKHIL_clean_sbu_0, # of connection points: 4
#     Node 1, Type 0, BuildingBlock: CEKHIL_clean_sbu_0, # of connection points: 4
#     Node 2, Type 0, BuildingBlock: CEKHIL_clean_sbu_0, # of connection points: 4
#     Node 3, Type 0, BuildingBlock: CEKHIL_clean_sbu_0, # of connection points: 4
#     Node 4, Type 0, BuildingBlock: CEKHIL_clean_sbu_0, # of connection points: 4
#     Node 5, Type 0, BuildingBlock: CEKHIL_clean_sbu_0, # of connection points: 4
#     Node 6, Type 0, BuildingBlock: CEKHIL_clean_sbu_0, # of connection points: 4
#     Node 7, Type 0, BuildingBlock: CEKHIL_clean_sbu_0, # of connection points: 4
#     Node 8, Type 0, BuildingBlock: CEKHIL_clean_sbu_0, # of connection points: 4
#     Node 9, Type 0, BuildingBlock: CEKHIL_clean_sbu_0, # of connection points: 4
#     Node 10, Type 0, BuildingBlock: CEKHIL_clean_sbu_0, # of connection points: 4
#     Node 11, Type 0, BuildingBlock: CEKHIL_clean_sbu_0, # of connection points: 4
#     Node 12, Type 0, BuildingBlock: CEKHIL_clean_sbu_0, # of connection points: 4
#     Node 13, Type 0, BuildingBlock: CEKHIL_clean_sbu_0, # of connection points: 4
#     Node 14, Type 0, BuildingBlock: CEKHIL_clean_sbu_0, # of connection points: 4
#     Node 15, Type 0, BuildingBlock: CEKHIL_clean_sbu_0, # of connection points: 4
#     Node 16, Type 0, BuildingBlock: CEKHIL_clean_sbu_0, # of connection points: 4
#     Node 17, Type 0, BuildingBlock: CEKHIL_clean_sbu_0, # of connection points: 4
#     Node 18, Type 0, BuildingBlock: CEKHIL_clean_sbu_0, # of connection points: 4
#     Node 19, Type 0, BuildingBlock: CEKHIL_clean_sbu_0, # of connection points: 4
#     Node 20, Type 0, BuildingBlock: CEKHIL_clean_sbu_0, # of connection points: 4
#     Node 21, Type 0, BuildingBlock: CEKHIL_clean_sbu_0, # of connection points: 4
#     Node 22, Type 0, BuildingBlock: CEKHIL_clean_sbu_0, # of connection points: 4
#     Node 23, Type 0, BuildingBlock: CEKHIL_clean_sbu_0, # of connection points: 4
#     Node 24, Type 0, BuildingBlock: CEKHIL_clean_sbu_0, # of connection points: 4
#     Node 25, Type 0, BuildingBlock: CEKHIL_clean_sbu_0, # of connection points: 4
#     Node 26, Type 0, BuildingBlock: CEKHIL_clean_sbu_0, # of connection points: 4
#     Node 27, Type 0, BuildingBlock: CEKHIL_clean_sbu_0, # of connection points: 4
#     Node 28, Type 0, BuildingBlock: CEKHIL_clean_sbu_0, # of connection points: 4
#     Node 29, Type 0, BuildingBlock: CEKHIL_clean_sbu_0, # of connection points: 4
#     Node 30, Type 0, BuildingBlock: CEKHIL_clean_sbu_0, # of connection points: 4
#     Node 31, Type 0, BuildingBlock: CEKHIL_clean_sbu_0, # of connection points: 4
#     Node 32, Type 0, BuildingBlock: CEKHIL_clean_sbu_0, # of connection points: 4
#     Node 33, Type 0, BuildingBlock: CEKHIL_clean_sbu_0, # of connection points: 4
#     Node 34, Type 0, BuildingBlock: CEKHIL_clean_sbu_0, # of connection points: 4
#     Node 35, Type 0, BuildingBlock: CEKHIL_clean_sbu_0, # of connection points: 4
#     Node 36, Type 0, BuildingBlock: CEKHIL_clean_sbu_0, # of connection points: 4
#     Node 37, Type 0, BuildingBlock: CEKHIL_clean_sbu_0, # of connection points: 4
#     Node 38, Type 0, BuildingBlock: CEKHIL_clean_sbu_0, # of connection points: 4
#     Node 39, Type 0, BuildingBlock: CEKHIL_clean_sbu_0, # of connection points: 4
#     Node 40, Type 0, BuildingBlock: CEKHIL_clean_sbu_0, # of connection points: 4
#     Node 41, Type 0, BuildingBlock: CEKHIL_clean_sbu_0, # of connection points: 4
#     Node 42, Type 0, BuildingBlock: CEKHIL_clean_sbu_0, # of connection points: 4
#     Node 43, Type 0, BuildingBlock: CEKHIL_clean_sbu_0, # of connection points: 4
#     Node 44, Type 0, BuildingBlock: CEKHIL_clean_sbu_0, # of connection points: 4
#     Node 45, Type 0, BuildingBlock: CEKHIL_clean_sbu_0, # of connection points: 4
#     Node 46, Type 0, BuildingBlock: CEKHIL_clean_sbu_0, # of connection points: 4
#     Node 47, Type 0, BuildingBlock: CEKHIL_clean_sbu_0, # of connection points: 4
#     Edge 48, Type (0, 0), BuildingBlock: MIFKUJ_clean_linker_0, # of connection points: 2
#     Edge 49, Type (0, 0), BuildingBlock: MIFKUJ_clean_linker_0, # of connection points: 2
#     Edge 50, Type (0, 0), BuildingBlock: MIFKUJ_clean_linker_0, # of connection points: 2
#     Edge 51, Type (0, 0), BuildingBlock: MIFKUJ_clean_linker_0, # of connection points: 2
#     Edge 52, Type (0, 0), BuildingBlock: MIFKUJ_clean_linker_0, # of connection points: 2
#     Edge 53, Type (0, 0), BuildingBlock: MIFKUJ_clean_linker_0, # of connection points: 2
#     Edge 54, Type (0, 0), BuildingBlock: MIFKUJ_clean_linker_0, # of connection points: 2
#     Edge 55, Type (0, 0), BuildingBlock: MIFKUJ_clean_linker_0, # of connection points: 2
#     Edge 56, Type (0, 0), BuildingBlock: MIFKUJ_clean_linker_0, # of connection points: 2
#     Edge 57, Type (0, 0), BuildingBlock: MIFKUJ_clean_linker_0, # of connection points: 2
#     Edge 58, Type (0, 0), BuildingBlock: MIFKUJ_clean_linker_0, # of connection points: 2
#     Edge 59, Type (0, 0), BuildingBlock: MIFKUJ_clean_linker_0, # of connection points: 2
#     Edge 60, Type (0, 0), BuildingBlock: MIFKUJ_clean_linker_0, # of connection points: 2
#     Edge 61, Type (0, 0), BuildingBlock: MIFKUJ_clean_linker_0, # of connection points: 2
#     Edge 62, Type (0, 0), BuildingBlock: MIFKUJ_clean_linker_0, # of connection points: 2
#     Edge 63, Type (0, 0), BuildingBlock: MIFKUJ_clean_linker_0, # of connection points: 2
#     Edge 64, Type (0, 0), BuildingBlock: MIFKUJ_clean_linker_0, # of connection points: 2
#     Edge 65, Type (0, 0), BuildingBlock: MIFKUJ_clean_linker_0, # of connection points: 2
#     Edge 66, Type (0, 0), BuildingBlock: MIFKUJ_clean_linker_0, # of connection points: 2
#     Edge 67, Type (0, 0), BuildingBlock: MIFKUJ_clean_linker_0, # of connection points: 2
#     Edge 68, Type (0, 0), BuildingBlock: MIFKUJ_clean_linker_0, # of connection points: 2
#     Edge 69, Type (0, 0), BuildingBlock: MIFKUJ_clean_linker_0, # of connection points: 2
#     Edge 70, Type (0, 0), BuildingBlock: MIFKUJ_clean_linker_0, # of connection points: 2
#     Edge 71, Type (0, 0), BuildingBlock: MIFKUJ_clean_linker_0, # of connection points: 2
#     Edge 72, Type (0, 0), BuildingBlock: MIFKUJ_clean_linker_0, # of connection points: 2
#     Edge 73, Type (0, 0), BuildingBlock: MIFKUJ_clean_linker_0, # of connection points: 2
#     Edge 74, Type (0, 0), BuildingBlock: MIFKUJ_clean_linker_0, # of connection points: 2
#     Edge 75, Type (0, 0), BuildingBlock: MIFKUJ_clean_linker_0, # of connection points: 2
#     Edge 76, Type (0, 0), BuildingBlock: MIFKUJ_clean_linker_0, # of connection points: 2
#     Edge 77, Type (0, 0), BuildingBlock: MIFKUJ_clean_linker_0, # of connection points: 2
#     Edge 78, Type (0, 0), BuildingBlock: MIFKUJ_clean_linker_0, # of connection points: 2
#     Edge 79, Type (0, 0), BuildingBlock: MIFKUJ_clean_linker_0, # of connection points: 2
#     Edge 80, Type (0, 0), BuildingBlock: MIFKUJ_clean_linker_0, # of connection points: 2
#     Edge 81, Type (0, 0), BuildingBlock: MIFKUJ_clean_linker_0, # of connection points: 2
#     Edge 82, Type (0, 0), BuildingBlock: MIFKUJ_clean_linker_0, # of connection points: 2
#     Edge 83, Type (0, 0), BuildingBlock: MIFKUJ_clean_linker_0, # of connection points: 2
#     Edge 84, Type (0, 0), BuildingBlock: MIFKUJ_clean_linker_0, # of connection points: 2
#     Edge 85, Type (0, 0), BuildingBlock: MIFKUJ_clean_linker_0, # of connection points: 2
#     Edge 86, Type (0, 0), BuildingBlock: MIFKUJ_clean_linker_0, # of connection points: 2
#     Edge 87, Type (0, 0), BuildingBlock: MIFKUJ_clean_linker_0, # of connection points: 2
#     Edge 88, Type (0, 0), BuildingBlock: MIFKUJ_clean_linker_0, # of connection points: 2
#     Edge 89, Type (0, 0), BuildingBlock: MIFKUJ_clean_linker_0, # of connection points: 2
#     Edge 90, Type (0, 0), BuildingBlock: MIFKUJ_clean_linker_0, # of connection points: 2
#     Edge 91, Type (0, 0), BuildingBlock: MIFKUJ_clean_linker_0, # of connection points: 2
#     Edge 92, Type (0, 0), BuildingBlock: MIFKUJ_clean_linker_0, # of connection points: 2
#     Edge 93, Type (0, 0), BuildingBlock: MIFKUJ_clean_linker_0, # of connection points: 2
#     Edge 94, Type (0, 0), BuildingBlock: MIFKUJ_clean_linker_0, # of connection points: 2
#     Edge 95, Type (0, 0), BuildingBlock: MIFKUJ_clean_linker_0, # of connection points: 2
#     Edge 96, Type (0, 0), BuildingBlock: MIFKUJ_clean_linker_0, # of connection points: 2
#     Edge 97, Type (0, 0), BuildingBlock: MIFKUJ_clean_linker_0, # of connection points: 2
#     Edge 98, Type (0, 0), BuildingBlock: MIFKUJ_clean_linker_0, # of connection points: 2
#     Edge 99, Type (0, 0), BuildingBlock: MIFKUJ_clean_linker_0, # of connection points: 2
#     Edge 100, Type (0, 0), BuildingBlock: MIFKUJ_clean_linker_0, # of connection points: 2
#     Edge 101, Type (0, 0), BuildingBlock: MIFKUJ_clean_linker_0, # of connection points: 2
#     Edge 102, Type (0, 0), BuildingBlock: MIFKUJ_clean_linker_0, # of connection points: 2
#     Edge 103, Type (0, 0), BuildingBlock: MIFKUJ_clean_linker_0, # of connection points: 2
#     Edge 104, Type (0, 0), BuildingBlock: MIFKUJ_clean_linker_0, # of connection points: 2
#     Edge 105, Type (0, 0), BuildingBlock: MIFKUJ_clean_linker_0, # of connection points: 2
#     Edge 106, Type (0, 0), BuildingBlock: MIFKUJ_clean_linker_0, # of connection points: 2
#     Edge 107, Type (0, 0), BuildingBlock: MIFKUJ_clean_linker_0, # of connection points: 2
#     Edge 108, Type (0, 0), BuildingBlock: MIFKUJ_clean_linker_0, # of connection points: 2
#     Edge 109, Type (0, 0), BuildingBlock: MIFKUJ_clean_linker_0, # of connection points: 2
#     Edge 110, Type (0, 0), BuildingBlock: MIFKUJ_clean_linker_0, # of connection points: 2
#     Edge 111, Type (0, 0), BuildingBlock: MIFKUJ_clean_linker_0, # of connection points: 2
#     Edge 112, Type (0, 0), BuildingBlock: MIFKUJ_clean_linker_0, # of connection points: 2
#     Edge 113, Type (0, 0), BuildingBlock: MIFKUJ_clean_linker_0, # of connection points: 2
#     Edge 114, Type (0, 0), BuildingBlock: MIFKUJ_clean_linker_0, # of connection points: 2
#     Edge 115, Type (0, 0), BuildingBlock: MIFKUJ_clean_linker_0, # of connection points: 2
#     Edge 116, Type (0, 0), BuildingBlock: MIFKUJ_clean_linker_0, # of connection points: 2
#     Edge 117, Type (0, 0), BuildingBlock: MIFKUJ_clean_linker_0, # of connection points: 2
#     Edge 118, Type (0, 0), BuildingBlock: MIFKUJ_clean_linker_0, # of connection points: 2
#     Edge 119, Type (0, 0), BuildingBlock: MIFKUJ_clean_linker_0, # of connection points: 2
#     Edge 120, Type (0, 0), BuildingBlock: MIFKUJ_clean_linker_0, # of connection points: 2
#     Edge 121, Type (0, 0), BuildingBlock: MIFKUJ_clean_linker_0, # of connection points: 2
#     Edge 122, Type (0, 0), BuildingBlock: MIFKUJ_clean_linker_0, # of connection points: 2
#     Edge 123, Type (0, 0), BuildingBlock: MIFKUJ_clean_linker_0, # of connection points: 2
#     Edge 124, Type (0, 0), BuildingBlock: MIFKUJ_clean_linker_0, # of connection points: 2
#     Edge 125, Type (0, 0), BuildingBlock: MIFKUJ_clean_linker_0, # of connection points: 2
#     Edge 126, Type (0, 0), BuildingBlock: MIFKUJ_clean_linker_0, # of connection points: 2
#     Edge 127, Type (0, 0), BuildingBlock: MIFKUJ_clean_linker_0, # of connection points: 2
#     Edge 128, Type (0, 0), BuildingBlock: MIFKUJ_clean_linker_0, # of connection points: 2
#     Edge 129, Type (0, 0), BuildingBlock: MIFKUJ_clean_linker_0, # of connection points: 2
#     Edge 130, Type (0, 0), BuildingBlock: MIFKUJ_clean_linker_0, # of connection points: 2
#     Edge 131, Type (0, 0), BuildingBlock: MIFKUJ_clean_linker_0, # of connection points: 2
#     Edge 132, Type (0, 0), BuildingBlock: MIFKUJ_clean_linker_0, # of connection points: 2
#     Edge 133, Type (0, 0), BuildingBlock: MIFKUJ_clean_linker_0, # of connection points: 2
#     Edge 134, Type (0, 0), BuildingBlock: MIFKUJ_clean_linker_0, # of connection points: 2
#     Edge 135, Type (0, 0), BuildingBlock: MIFKUJ_clean_linker_0, # of connection points: 2
#     Edge 136, Type (0, 0), BuildingBlock: MIFKUJ_clean_linker_0, # of connection points: 2
#     Edge 137, Type (0, 0), BuildingBlock: MIFKUJ_clean_linker_0, # of connection points: 2
#     Edge 138, Type (0, 0), BuildingBlock: MIFKUJ_clean_linker_0, # of connection points: 2
#     Edge 139, Type (0, 0), BuildingBlock: MIFKUJ_clean_linker_0, # of connection points: 2
#     Edge 140, Type (0, 0), BuildingBlock: MIFKUJ_clean_linker_0, # of connection points: 2
#     Edge 141, Type (0, 0), BuildingBlock: MIFKUJ_clean_linker_0, # of connection points: 2
#     Edge 142, Type (0, 0), BuildingBlock: MIFKUJ_clean_linker_0, # of connection points: 2
#     Edge 143, Type (0, 0), BuildingBlock: MIFKUJ_clean_linker_0, # of connection points: 2
# Relax obj value: 0.470
# Max RMSD: 0.180
# Mean RMSD: 0.180
data_MOF--net-ukr--node1-CEKHIL_clean_sbu_0--edge1-MIFKUJ_clean_linker_0
_symmetry_space_group_name_H-M    P1
_symmetry_Int_Tables_number       1
_symmetry_cell_setting            triclinic
loop_
_symmetry_equiv_pos_as_xyz
'x, y, z'
_cell_length_a     87.899595
_cell_length_b     87.912607
_cell_length_c     87.888582
_cell_angle_alpha  89.996442
_cell_angle_beta   89.999371
_cell_angle_gamma 90.002686
loop_
_atom_site_label
_atom_site_type_symbol
_atom_site_fract_x
_atom_site_fract_y
_atom_site_fract_z
_atom_type_partial_charge
Co0 Co 0.09859 0.27113 0.19607 0.0
O1 O 0.07922 0.27766 0.20367 0.0
O2 O 0.08676 0.27959 0.17965 0.0
C3 C 0.09876 0.24848 0.20792 0.0
O4 O 0.11725 0.26507 0.18375 0.0
Co5 Co 0.12603 0.26431 0.21717 0.0
O6 O 0.13349 0.25284 0.1992 0.0
C7 C 0.11711 0.29613 0.21087 0.0
C8 C 0.07624 0.28183 0.18981 0.0
C9 C 0.1288 0.25635 0.18595 0.0
O10 O 0.10728 0.29177 0.20097 0.0
O11 O 0.12513 0.28704 0.21894 0.0
O12 O 0.09155 0.25006 0.1951 0.0
O13 O 0.10457 0.26071 0.21358 0.0
Co14 Co 0.22793 0.59926 0.69791 0.0
O15 O 0.22195 0.57976 0.7057 0.0
O16 O 0.21965 0.58716 0.68167 0.0
C17 C 0.25079 0.60061 0.70934 0.0
O18 O 0.23349 0.61787 0.68531 0.0
Co19 Co 0.23393 0.62713 0.71879 0.0
O20 O 0.24436 0.63526 0.70052 0.0
C21 C 0.20243 0.61724 0.7127 0.0
C22 C 0.21767 0.57666 0.69188 0.0
C23 C 0.24136 0.63005 0.68733 0.0
O24 O 0.20705 0.60745 0.70287 0.0
O25 O 0.21131 0.62555 0.7207 0.0
O26 O 0.24923 0.59288 0.69681 0.0
O27 O 0.23839 0.60584 0.71518 0.0
Co28 Co 0.90197 0.7313 0.20121 0.0
O29 O 0.92215 0.72613 0.20771 0.0
O30 O 0.91296 0.72234 0.1845 0.0
C31 C 0.9005 0.75482 0.21106 0.0
O32 O 0.88227 0.73596 0.19005 0.0
Co33 Co 0.87618 0.73706 0.22472 0.0
O34 O 0.86551 0.74569 0.20676 0.0
C35 C 0.88713 0.706 0.21943 0.0
C36 C 0.92426 0.72109 0.19397 0.0
C37 C 0.86981 0.74299 0.19318 0.0
O38 O 0.89464 0.71053 0.20774 0.0
O39 O 0.87998 0.71492 0.22841 0.0
O40 O 0.90764 0.75256 0.1983 0.0
O41 O 0.89655 0.74267 0.21833 0.0
Co42 Co 0.77145 0.40357 0.69467 0.0
O43 O 0.77924 0.42335 0.69924 0.0
O44 O 0.78243 0.41131 0.67723 0.0
C45 C 0.74777 0.40731 0.7037 0.0
O46 O 0.76454 0.38339 0.68573 0.0
Co47 Co 0.76101 0.38226 0.7209 0.0
O48 O 0.75424 0.36875 0.70407 0.0
C49 C 0.79322 0.39014 0.71716 0.0
C50 C 0.78487 0.42327 0.68559 0.0
C51 C 0.75755 0.37133 0.69018 0.0
O52 O 0.79057 0.39431 0.70338 0.0
O53 O 0.78268 0.38671 0.72659 0.0
O54 O 0.75129 0.41193 0.69009 0.0
O55 O 0.75893 0.40214 0.71169 0.0
Co56 Co 0.09333 0.72897 0.79934 0.0
O57 O 0.07444 0.71914 0.79475 0.0
O58 O 0.08552 0.71923 0.81745 0.0
C59 C 0.08831 0.7512 0.78774 0.0
O60 O 0.11244 0.73845 0.80856 0.0
Co61 Co 0.11565 0.7393 0.77398 0.0
O62 O 0.12459 0.75182 0.79047 0.0
C63 C 0.11335 0.70675 0.78206 0.0
C64 C 0.07419 0.71499 0.80893 0.0
C65 C 0.12244 0.74834 0.80437 0.0
O66 O 0.10448 0.70986 0.79327 0.0
O67 O 0.11841 0.71672 0.77273 0.0
O68 O 0.0832 0.74863 0.80138 0.0
O69 O 0.09481 0.73982 0.78113 0.0
Co70 Co 0.76914 0.59892 0.30102 0.0
O71 O 0.77505 0.57935 0.29348 0.0
O72 O 0.78018 0.58812 0.31661 0.0
C73 C 0.74493 0.59821 0.29263 0.0
O74 O 0.76443 0.61799 0.31319 0.0
Co75 Co 0.75843 0.62496 0.27968 0.0
O76 O 0.7493 0.63274 0.29888 0.0
C77 C 0.79082 0.6157 0.28045 0.0
C78 C 0.78126 0.57718 0.30672 0.0
C79 C 0.75476 0.62884 0.31172 0.0
O80 O 0.78855 0.60784 0.2926 0.0
O81 O 0.7801 0.62231 0.27311 0.0
O82 O 0.74848 0.59164 0.30541 0.0
O83 O 0.75614 0.60375 0.285 0.0
Co84 Co 0.9013 0.26724 0.79874 0.0
O85 O 0.92152 0.2728 0.793 0.0
O86 O 0.91061 0.27895 0.81491 0.0
C87 C 0.90278 0.24272 0.79163 0.0
O88 O 0.88087 0.26282 0.80874 0.0
Co89 Co 0.87842 0.25657 0.77396 0.0
O90 O 0.86586 0.2508 0.79182 0.0
C91 C 0.88741 0.28876 0.77568 0.0
C92 C 0.92248 0.27957 0.80608 0.0
C93 C 0.86866 0.25549 0.80527 0.0
O94 O 0.89337 0.28641 0.78885 0.0
O95 O 0.88222 0.27804 0.7673 0.0
O96 O 0.90805 0.24689 0.8048 0.0
O97 O 0.89833 0.25357 0.78282 0.0
Co98 Co 0.22871 0.40053 0.30116 0.0
O99 O 0.22442 0.4209 0.29455 0.0
O100 O 0.21762 0.41111 0.31681 0.0
C101 C 0.25329 0.40015 0.29383 0.0
O102 O 0.23153 0.38061 0.31249 0.0
Co103 Co 0.23905 0.37478 0.27928 0.0
O104 O 0.24681 0.3657 0.29852 0.0
C105 C 0.20723 0.38606 0.27875 0.0
C106 C 0.21772 0.42269 0.30762 0.0
C107 C 0.24074 0.36937 0.31115 0.0
O108 O 0.20923 0.3933 0.29134 0.0
O109 O 0.21796 0.3791 0.27175 0.0
O110 O 0.24959 0.40622 0.30682 0.0
O111 O 0.24212 0.39565 0.2855 0.0
Co112 Co 0.2011 0.10182 0.2707 0.0
O113 O 0.20945 0.08168 0.27155 0.0
O114 O 0.18633 0.08817 0.27937 0.0
C115 C 0.2082 0.10778 0.24682 0.0
O116 O 0.18837 0.12105 0.27101 0.0
Co117 Co 0.22263 0.1297 0.26746 0.0
O118 O 0.20327 0.14127 0.26599 0.0
C119 C 0.2226 0.11178 0.29538 0.0
C120 C 0.19658 0.07765 0.27762 0.0
C121 C 0.19025 0.13532 0.26839 0.0
O122 O 0.20964 0.10616 0.2916 0.0
O123 O 0.23065 0.11992 0.28642 0.0
O124 O 0.1962 0.09941 0.24905 0.0
O125 O 0.21632 0.11049 0.25875 0.0
Co126 Co 0.4052 0.7013 0.76624 0.0
O127 O 0.42575 0.70445 0.77284 0.0
O128 O 0.41245 0.6833 0.7765 0.0
C129 C 0.40741 0.71033 0.74238 0.0
O130 O 0.38416 0.69365 0.76053 0.0
Co131 Co 0.38453 0.72862 0.75741 0.0
O132 O 0.37142 0.71236 0.7486 0.0
C133 C 0.39271 0.72339 0.78941 0.0
C134 C 0.4251 0.69074 0.77831 0.0
C135 C 0.37292 0.69845 0.75247 0.0
O136 O 0.39749 0.70997 0.78605 0.0
O137 O 0.38861 0.73316 0.77943 0.0
O138 O 0.41189 0.69658 0.74555 0.0
O139 O 0.4038 0.71856 0.75398 0.0
Co140 Co 0.79727 0.90744 0.26412 0.0
O141 O 0.79502 0.92789 0.2712 0.0
O142 O 0.81442 0.91274 0.27688 0.0
C143 C 0.79181 0.91123 0.23943 0.0
O144 O 0.80355 0.88597 0.25832 0.0
Co145 Co 0.76909 0.89029 0.25146 0.0
O146 O 0.78464 0.87526 0.24478 0.0
C147 C 0.77172 0.8956 0.28425 0.0
C148 C 0.80781 0.92591 0.2783 0.0
C149 C 0.79824 0.87526 0.24984 0.0
O150 O 0.78562 0.89979 0.28238 0.0
O151 O 0.76265 0.8929 0.27319 0.0
O152 O 0.80533 0.91429 0.24459 0.0
O153 O 0.7817 0.90826 0.24967 0.0
Co154 Co 0.60527 0.30745 0.77607 0.0
O155 O 0.58815 0.29529 0.78207 0.0
O156 O 0.58912 0.32049 0.78309 0.0
C157 C 0.60982 0.29527 0.75402 0.0
O158 O 0.6204 0.32401 0.77011 0.0
Co159 Co 0.63752 0.29345 0.77233 0.0
O160 O 0.64306 0.31361 0.76416 0.0
C161 C 0.62442 0.29756 0.80293 0.0
C162 C 0.58142 0.30805 0.78528 0.0
C163 C 0.63413 0.32496 0.76512 0.0
O164 O 0.61358 0.30569 0.79743 0.0
O165 O 0.63437 0.29083 0.7947 0.0
O166 O 0.59931 0.30565 0.75473 0.0
O167 O 0.61623 0.29176 0.76676 0.0
Co168 Co 0.19456 0.89797 0.72855 0.0
O169 O 0.20099 0.91865 0.72575 0.0
O170 O 0.17831 0.90952 0.71944 0.0
C171 C 0.20296 0.89474 0.75253 0.0
O172 O 0.18353 0.87779 0.73035 0.0
Co173 Co 0.21808 0.87205 0.73382 0.0
O174 O 0.19974 0.85945 0.73788 0.0
C175 C 0.21621 0.88748 0.70431 0.0
C176 C 0.18758 0.92102 0.71998 0.0
C177 C 0.18635 0.86418 0.73491 0.0
O178 O 0.20298 0.89265 0.70781 0.0
O179 O 0.22483 0.88054 0.71376 0.0
O180 O 0.1901 0.90166 0.75009 0.0
O181 O 0.21088 0.89176 0.74054 0.0
Co182 Co 0.59312 0.70103 0.23192 0.0
O183 O 0.57265 0.70625 0.22657 0.0
O184 O 0.58346 0.68385 0.22223 0.0
C185 C 0.59325 0.71032 0.25574 0.0
O186 O 0.61353 0.6913 0.23649 0.0
Co187 Co 0.61668 0.72649 0.23886 0.0
O188 O 0.62979 0.70913 0.24514 0.0
C189 C 0.6057 0.72191 0.20775 0.0
C190 C 0.57156 0.69257 0.22109 0.0
C191 C 0.6263 0.69531 0.24238 0.0
O192 O 0.60041 0.70882 0.21155 0.0
O193 O 0.61101 0.73148 0.21734 0.0
O194 O 0.58734 0.69703 0.25304 0.0
O195 O 0.59693 0.71814 0.24388 0.0
Co196 Co 0.80161 0.09916 0.72405 0.0
O197 O 0.78974 0.08124 0.72033 0.0
O198 O 0.81402 0.08411 0.71401 0.0
C199 C 0.7945 0.10277 0.74836 0.0
O200 O 0.81775 0.1156 0.7268 0.0
Co201 Co 0.78549 0.12994 0.73135 0.0
O202 O 0.80643 0.13698 0.73531 0.0
C203 C 0.78527 0.11803 0.70007 0.0
C204 C 0.80196 0.07553 0.7143 0.0
C205 C 0.81824 0.12932 0.73189 0.0
O206 O 0.79483 0.10757 0.70372 0.0
O207 O 0.77941 0.12728 0.70966 0.0
O208 O 0.80501 0.09289 0.74515 0.0
O209 O 0.7876 0.10874 0.73685 0.0
Co210 Co 0.40097 0.29403 0.22917 0.0
O211 O 0.42128 0.28802 0.22402 0.0
O212 O 0.41153 0.31098 0.2201 0.0
C213 C 0.40008 0.28409 0.25274 0.0
O214 O 0.38099 0.30464 0.23369 0.0
Co215 Co 0.37602 0.26969 0.23527 0.0
O216 O 0.36394 0.28753 0.24221 0.0
C217 C 0.3879 0.27422 0.20444 0.0
C218 C 0.42308 0.3018 0.21898 0.0
C219 C 0.36808 0.30121 0.23965 0.0
O220 O 0.39367 0.28703 0.20852 0.0
O221 O 0.38195 0.26479 0.21379 0.0
O222 O 0.40662 0.29717 0.25049 0.0
O223 O 0.39615 0.27684 0.24061 0.0
Co224 Co 0.26644 0.20227 0.08846 0.0
O225 O 0.27394 0.20544 0.06824 0.0
O226 O 0.27846 0.18499 0.08236 0.0
C227 C 0.24219 0.20931 0.08457 0.0
O228 O 0.26014 0.1945 0.10924 0.0
Co229 Co 0.25442 0.22904 0.10806 0.0
O230 O 0.24734 0.21264 0.12196 0.0
C231 C 0.28727 0.22604 0.10245 0.0
C232 C 0.28041 0.19222 0.0696 0.0
C233 C 0.25196 0.19897 0.12051 0.0
O234 O 0.28507 0.21265 0.09697 0.0
O235 O 0.27637 0.23495 0.10619 0.0
O236 O 0.24664 0.19572 0.08083 0.0
O237 O 0.2528 0.21858 0.0887 0.0
Co238 Co 0.2665 0.79329 0.90327 0.0
O239 O 0.27313 0.78864 0.92352 0.0
O240 O 0.27795 0.81019 0.91125 0.0
C241 C 0.24212 0.78584 0.90515 0.0
O242 O 0.26093 0.80247 0.88283 0.0
Co243 Co 0.25613 0.76766 0.88132 0.0
O244 O 0.24811 0.78502 0.86921 0.0
C245 C 0.28851 0.7709 0.88874 0.0
C246 C 0.27945 0.80201 0.92347 0.0
C247 C 0.25247 0.79867 0.8715 0.0
O248 O 0.28571 0.78389 0.89487 0.0
O249 O 0.27805 0.76198 0.88394 0.0
O250 O 0.24628 0.79899 0.9105 0.0
O251 O 0.25312 0.77696 0.90109 0.0
Co252 Co 0.70155 0.76907 0.4046 0.0
O253 O 0.70696 0.77696 0.42415 0.0
O254 O 0.68499 0.7812 0.4125 0.0
C255 C 0.70934 0.74506 0.4087 0.0
O256 O 0.69177 0.7623 0.38476 0.0
Co257 Co 0.72625 0.7564 0.38275 0.0
O258 O 0.70833 0.7473 0.37229 0.0
C259 C 0.72326 0.78952 0.38717 0.0
C260 C 0.69364 0.78333 0.42432 0.0
C261 C 0.69499 0.75266 0.37422 0.0
O262 O 0.71076 0.78748 0.3945 0.0
O263 O 0.73178 0.77858 0.3827 0.0
O264 O 0.69604 0.74942 0.41346 0.0
O265 O 0.71788 0.75559 0.4031 0.0
Co266 Co 0.72318 0.19587 0.89817 0.0
O267 O 0.71725 0.20333 0.91785 0.0
O268 O 0.71464 0.1795 0.90995 0.0
C269 C 0.74628 0.20693 0.89717 0.0
O270 O 0.72865 0.18356 0.87935 0.0
Co271 Co 0.72943 0.2175 0.87086 0.0
O272 O 0.7377 0.19902 0.86105 0.0
C273 C 0.69785 0.21156 0.88062 0.0
C274 C 0.71284 0.1895 0.92069 0.0
C275 C 0.73512 0.18581 0.86641 0.0
O276 O 0.70235 0.20129 0.89003 0.0
O277 O 0.70689 0.21978 0.87271 0.0
O278 O 0.7444 0.1943 0.90465 0.0
O279 O 0.73401 0.21312 0.892 0.0
Co280 Co 0.29585 0.23128 0.40701 0.0
O281 O 0.29173 0.22412 0.42714 0.0
O282 O 0.31336 0.22044 0.41463 0.0
C283 C 0.2869 0.255 0.41012 0.0
O284 O 0.30445 0.23742 0.38646 0.0
Co285 Co 0.26969 0.24127 0.38554 0.0
O286 O 0.28654 0.2496 0.37291 0.0
C287 C 0.27417 0.20879 0.39253 0.0
C288 C 0.30531 0.21829 0.42685 0.0
C289 C 0.30029 0.24543 0.37495 0.0
O290 O 0.28717 0.21188 0.39848 0.0
O291 O 0.26489 0.21906 0.38797 0.0
O292 O 0.30062 0.25165 0.41454 0.0
O293 O 0.27874 0.24373 0.40547 0.0
Co294 Co 0.73138 0.79704 0.09749 0.0
O295 O 0.72433 0.79102 0.07782 0.0
O296 O 0.71934 0.81325 0.08874 0.0
C297 C 0.75574 0.78979 0.09474 0.0
O298 O 0.73734 0.80738 0.11734 0.0
Co299 Co 0.74353 0.77295 0.12035 0.0
O300 O 0.75213 0.79121 0.13057 0.0
C301 C 0.71069 0.77477 0.11377 0.0
C302 C 0.71779 0.80424 0.07711 0.0
C303 C 0.74684 0.8045 0.12812 0.0
O304 O 0.71273 0.78755 0.10692 0.0
O305 O 0.72167 0.7666 0.11878 0.0
O306 O 0.75123 0.80276 0.08926 0.0
O307 O 0.74512 0.78109 0.09996 0.0
Co308 Co 0.69102 0.22277 0.59999 0.0
O309 O 0.69787 0.22237 0.57929 0.0
O310 O 0.67512 0.21478 0.58716 0.0
C311 C 0.69938 0.24633 0.60591 0.0
O312 O 0.67966 0.22208 0.62013 0.0
Co313 Co 0.71441 0.22487 0.62644 0.0
O314 O 0.69598 0.22618 0.63942 0.0
C315 C 0.71276 0.19755 0.60749 0.0
C316 C 0.68468 0.21656 0.576 0.0
C317 C 0.68255 0.22408 0.63433 0.0
O318 O 0.69943 0.20158 0.603 0.0
O319 O 0.72138 0.20623 0.61537 0.0
O320 O 0.68662 0.24467 0.59859 0.0
O321 O 0.70718 0.23406 0.6078 0.0
Co322 Co 0.29767 0.76874 0.59502 0.0
O323 O 0.29259 0.77648 0.57528 0.0
O324 O 0.31512 0.77889 0.58639 0.0
C325 C 0.28741 0.74546 0.5921 0.0
O326 O 0.30741 0.76166 0.61482 0.0
Co327 Co 0.27258 0.75945 0.61812 0.0
O328 O 0.28981 0.75126 0.63023 0.0
C329 C 0.27722 0.79162 0.61017 0.0
C330 C 0.30648 0.78149 0.57467 0.0
C331 C 0.30359 0.75436 0.62694 0.0
O332 O 0.2903 0.78835 0.60445 0.0
O333 O 0.2678 0.78149 0.6147 0.0
O334 O 0.30086 0.74833 0.58665 0.0
O335 O 0.28023 0.75701 0.5976 0.0
Co336 Co 0.90263 0.72674 0.79854 0.0
O337 O 0.92205 0.71855 0.79313 0.0
O338 O 0.911 0.71567 0.81564 0.0
C339 C 0.90681 0.75017 0.78918 0.0
O340 O 0.88305 0.73419 0.8085 0.0
Co341 Co 0.88016 0.73847 0.77388 0.0
O342 O 0.86886 0.74693 0.79143 0.0
C343 C 0.88555 0.70545 0.77765 0.0
C344 C 0.92261 0.71309 0.80683 0.0
C345 C 0.87165 0.74271 0.80501 0.0
O346 O 0.89258 0.70776 0.7903 0.0
O347 O 0.881 0.71626 0.76901 0.0
O348 O 0.91165 0.74667 0.8027 0.0
O349 O 0.90079 0.73924 0.78148 0.0
Co350 Co 0.76845 0.4028 0.29314 0.0
O351 O 0.77586 0.42241 0.28737 0.0
O352 O 0.77898 0.41193 0.31014 0.0
C353 C 0.74489 0.40543 0.28347 0.0
O354 O 0.76187 0.38308 0.30333 0.0
Co355 Co 0.75841 0.37931 0.26867 0.0
O356 O 0.7486 0.36922 0.28639 0.0
C357 C 0.79096 0.38645 0.27299 0.0
C358 C 0.78126 0.42341 0.30108 0.0
C359 C 0.75294 0.37198 0.29996 0.0
O360 O 0.78789 0.39337 0.28551 0.0
O361 O 0.7807 0.38123 0.26405 0.0
O362 O 0.74807 0.41105 0.29678 0.0
O363 O 0.75628 0.39991 0.27606 0.0
Co364 Co 0.09755 0.2712 0.79914 0.0
O365 O 0.07711 0.27473 0.79231 0.0
O366 O 0.08556 0.27914 0.81569 0.0
C367 C 0.10093 0.24798 0.78887 0.0
O368 O 0.11734 0.26825 0.81065 0.0
Co369 Co 0.12415 0.26766 0.77601 0.0
O370 O 0.13626 0.26233 0.79436 0.0
C371 C 0.109 0.29709 0.77995 0.0
C372 C 0.07436 0.27952 0.80604 0.0
C373 C 0.13105 0.2641 0.80778 0.0
O374 O 0.10331 0.29251 0.79264 0.0
O375 O 0.11613 0.28835 0.77077 0.0
O376 O 0.09362 0.24938 0.80167 0.0
O377 O 0.1042 0.26056 0.78207 0.0
Co378 Co 0.23037 0.59456 0.29573 0.0
O379 O 0.22558 0.57387 0.2909 0.0
O380 O 0.22076 0.58503 0.31305 0.0
C381 C 0.25425 0.59501 0.28649 0.0
O382 O 0.23431 0.61537 0.30501 0.0
Co383 Co 0.23719 0.61784 0.26996 0.0
O384 O 0.24582 0.62975 0.28721 0.0
C385 C 0.20623 0.60605 0.27431 0.0
C386 C 0.21996 0.57294 0.30454 0.0
C387 C 0.24208 0.62711 0.30099 0.0
O388 O 0.20992 0.60108 0.28756 0.0
O389 O 0.2158 0.61169 0.2649 0.0
O390 O 0.25164 0.58932 0.29991 0.0
O391 O 0.2423 0.59829 0.27866 0.0
Co392 Co 0.90122 0.26595 0.20263 0.0
O393 O 0.92198 0.26915 0.20858 0.0
O394 O 0.91234 0.27458 0.18586 0.0
C395 C 0.89809 0.24231 0.21192 0.0
O396 O 0.8809 0.26362 0.19204 0.0
Co397 Co 0.87583 0.26169 0.22689 0.0
O398 O 0.86277 0.25719 0.20896 0.0
C399 C 0.89098 0.29111 0.22339 0.0
C400 C 0.924 0.27457 0.19496 0.0
C401 C 0.86729 0.25944 0.19535 0.0
O402 O 0.89589 0.28696 0.21025 0.0
O403 O 0.88433 0.28206 0.23263 0.0
O404 O 0.90491 0.24428 0.19892 0.0
O405 O 0.89534 0.25457 0.2195 0.0
Co406 Co 0.23056 0.40258 0.70253 0.0
O407 O 0.22608 0.42298 0.70883 0.0
O408 O 0.2202 0.41311 0.68634 0.0
C409 C 0.25486 0.40172 0.71065 0.0
O410 O 0.23391 0.38253 0.6916 0.0
Co411 Co 0.23859 0.3775 0.72612 0.0
O412 O 0.24323 0.36507 0.70784 0.0
C413 C 0.20738 0.38938 0.72422 0.0
C414 C 0.21987 0.4247 0.69552 0.0
C415 C 0.23955 0.36935 0.69447 0.0
O416 O 0.21049 0.39558 0.71131 0.0
O417 O 0.21747 0.38307 0.73261 0.0
O418 O 0.25165 0.4081 0.69768 0.0
O419 O 0.2433 0.3977 0.71874 0.0
Co420 Co 0.09734 0.72767 0.20011 0.0
O421 O 0.07709 0.72258 0.20626 0.0
O422 O 0.08685 0.71788 0.18345 0.0
C423 C 0.09757 0.75148 0.20941 0.0
O424 O 0.11745 0.73193 0.18949 0.0
Co425 Co 0.12206 0.73503 0.2243 0.0
O426 O 0.13427 0.74133 0.20635 0.0
C427 C 0.11069 0.70377 0.22079 0.0
C428 C 0.07533 0.71698 0.1927 0.0
C429 C 0.13034 0.73807 0.19276 0.0
O430 O 0.10467 0.70738 0.20794 0.0
O431 O 0.11671 0.71353 0.22975 0.0
O432 O 0.09143 0.74881 0.19621 0.0
O433 O 0.10184 0.73966 0.21696 0.0
Co434 Co 0.77173 0.60099 0.69758 0.0
O435 O 0.77661 0.58104 0.70494 0.0
O436 O 0.77824 0.5884 0.68083 0.0
C437 C 0.74955 0.60394 0.71005 0.0
O438 O 0.76692 0.62021 0.68555 0.0
Co439 Co 0.76939 0.62853 0.71977 0.0
O440 O 0.76067 0.63898 0.70183 0.0
C441 C 0.79941 0.61602 0.7118 0.0
C442 C 0.77993 0.57771 0.69092 0.0
C443 C 0.76177 0.63362 0.6884 0.0
O444 O 0.79344 0.6075 0.70152 0.0
O445 O 0.79171 0.62439 0.72087 0.0
O446 O 0.75001 0.59618 0.69746 0.0
O447 O 0.76258 0.60804 0.71542 0.0
Co448 Co 0.80038 0.89066 0.72053 0.0
O449 O 0.78801 0.90816 0.7162 0.0
O450 O 0.8131 0.9071 0.71373 0.0
C451 C 0.78944 0.88466 0.74294 0.0
O452 O 0.81719 0.87523 0.72459 0.0
Co453 Co 0.78721 0.85807 0.72376 0.0
O454 O 0.80622 0.8549 0.7355 0.0
C455 C 0.79034 0.87203 0.69324 0.0
C456 C 0.80064 0.91497 0.71263 0.0
C457 C 0.81783 0.86306 0.73267 0.0
O458 O 0.79752 0.88346 0.69891 0.0
O459 O 0.78481 0.86123 0.70131 0.0
O460 O 0.79976 0.89525 0.74232 0.0
O461 O 0.78526 0.87912 0.73 0.0
Co462 Co 0.59959 0.29924 0.22551 0.0
O463 O 0.57909 0.29217 0.22281 0.0
O464 O 0.58728 0.31547 0.21754 0.0
C465 C 0.60355 0.28953 0.24885 0.0
O466 O 0.6192 0.31115 0.22742 0.0
Co467 Co 0.62693 0.27719 0.22943 0.0
O468 O 0.63758 0.29591 0.23644 0.0
C469 C 0.61099 0.27957 0.20007 0.0
C470 C 0.57614 0.30577 0.21778 0.0
C471 C 0.63235 0.3091 0.23342 0.0
O472 O 0.6047 0.29208 0.20427 0.0
O473 O 0.61897 0.2712 0.20891 0.0
O474 O 0.59636 0.30239 0.24736 0.0
O475 O 0.60671 0.2825 0.23639 0.0
Co476 Co 0.20282 0.09343 0.73099 0.0
O477 O 0.20692 0.07258 0.72618 0.0
O478 O 0.18555 0.08478 0.72052 0.0
C479 C 0.21086 0.09301 0.75527 0.0
O480 O 0.19422 0.11454 0.73477 0.0
Co481 Co 0.22922 0.11539 0.73942 0.0
O482 O 0.21234 0.12931 0.74519 0.0
C483 C 0.22584 0.10447 0.70805 0.0
C484 C 0.19347 0.0723 0.72006 0.0
C485 C 0.19856 0.12691 0.74129 0.0
O486 O 0.21227 0.09988 0.71106 0.0
O487 O 0.23505 0.10938 0.7182 0.0
O488 O 0.19727 0.08822 0.75191 0.0
O489 O 0.21949 0.09615 0.74385 0.0
Co490 Co 0.40271 0.70507 0.23289 0.0
O491 O 0.42348 0.70921 0.22766 0.0
O492 O 0.41102 0.68802 0.22186 0.0
C493 C 0.40362 0.71265 0.25732 0.0
O494 O 0.3817 0.69631 0.23691 0.0
Co495 Co 0.38049 0.73072 0.24268 0.0
O496 O 0.36873 0.71324 0.25099 0.0
C497 C 0.38994 0.72808 0.21057 0.0
C498 C 0.42352 0.6959 0.22124 0.0
C499 C 0.37068 0.69981 0.24587 0.0
O500 O 0.39589 0.71497 0.21331 0.0
O501 O 0.38435 0.7366 0.22099 0.0
O502 O 0.40842 0.69916 0.2536 0.0
O503 O 0.40016 0.72145 0.2461 0.0
Co504 Co 0.79363 0.08919 0.2676 0.0
O505 O 0.79015 0.06881 0.27465 0.0
O506 O 0.81142 0.08193 0.2782 0.0
C507 C 0.78483 0.08636 0.24372 0.0
O508 O 0.80181 0.10988 0.26147 0.0
Co509 Co 0.76703 0.11024 0.25782 0.0
O510 O 0.78359 0.12328 0.24956 0.0
C511 C 0.77199 0.10374 0.29032 0.0
C512 C 0.80387 0.06938 0.28016 0.0
C513 C 0.79741 0.12135 0.25353 0.0
O514 O 0.78488 0.09754 0.28715 0.0
O515 O 0.7626 0.10821 0.28012 0.0
O516 O 0.79852 0.08194 0.24716 0.0
O517 O 0.77648 0.09053 0.25506 0.0
Co518 Co 0.3996 0.291 0.77152 0.0
O519 O 0.41904 0.28267 0.77666 0.0
O520 O 0.41207 0.30662 0.78061 0.0
C521 C 0.39792 0.28108 0.74801 0.0
O522 O 0.38082 0.30378 0.76695 0.0
Co523 Co 0.37213 0.26959 0.76518 0.0
O524 O 0.36249 0.28854 0.75762 0.0
C525 C 0.38463 0.27246 0.7961 0.0
C526 C 0.42245 0.29614 0.78169 0.0
C527 C 0.36785 0.30172 0.76047 0.0
O528 O 0.3917 0.28466 0.79215 0.0
O529 O 0.37747 0.26404 0.78662 0.0
O530 O 0.40574 0.29345 0.75022 0.0
O531 O 0.39297 0.27448 0.76013 0.0
Co532 Co 0.2032 0.89715 0.27193 0.0
O533 O 0.21171 0.91711 0.27446 0.0
O534 O 0.18838 0.91026 0.2813 0.0
C535 C 0.2106 0.89302 0.24777 0.0
O536 O 0.1902 0.87815 0.27051 0.0
Co537 Co 0.22431 0.86924 0.26686 0.0
O538 O 0.20483 0.85809 0.26431 0.0
C539 C 0.22358 0.88428 0.29653 0.0
C540 C 0.19869 0.92082 0.28043 0.0
C541 C 0.19188 0.86409 0.26689 0.0
O542 O 0.21126 0.89113 0.29261 0.0
O543 O 0.23155 0.87642 0.28723 0.0
O544 O 0.19869 0.90134 0.25051 0.0
O545 O 0.21854 0.88922 0.25954 0.0
Co546 Co 0.59106 0.69882 0.76966 0.0
O547 O 0.57052 0.70265 0.77585 0.0
O548 O 0.5831 0.68114 0.77998 0.0
C549 C 0.58911 0.70784 0.74575 0.0
O550 O 0.61196 0.69049 0.76441 0.0
Co551 Co 0.61253 0.72559 0.76104 0.0
O552 O 0.62707 0.70918 0.75551 0.0
C553 C 0.60286 0.72125 0.79268 0.0
C554 C 0.57064 0.68898 0.78147 0.0
C555 C 0.62452 0.69523 0.75858 0.0
O556 O 0.59861 0.7076 0.78951 0.0
O557 O 0.60698 0.73085 0.78254 0.0
O558 O 0.5845 0.69413 0.74887 0.0
O559 O 0.59308 0.71594 0.75731 0.0
Co560 Co 0.72814 0.79284 0.9032 0.0
O561 O 0.7226 0.78854 0.9238 0.0
O562 O 0.71738 0.81009 0.91163 0.0
C563 C 0.75247 0.78497 0.90404 0.0
O564 O 0.73264 0.80143 0.8822 0.0
Co565 Co 0.73683 0.76609 0.88168 0.0
O566 O 0.74217 0.78276 0.86741 0.0
C567 C 0.7051 0.77012 0.89112 0.0
C568 C 0.71642 0.80196 0.92396 0.0
C569 C 0.73873 0.79666 0.86977 0.0
O570 O 0.70836 0.7835 0.89611 0.0
O571 O 0.71521 0.76075 0.88645 0.0
O572 O 0.74885 0.79837 0.90917 0.0
O573 O 0.74113 0.77626 0.90072 0.0
Co574 Co 0.72883 0.19615 0.0956 0.0
O575 O 0.72394 0.20282 0.07543 0.0
O576 O 0.7187 0.17996 0.08477 0.0
C577 C 0.75282 0.20506 0.09599 0.0
O578 O 0.73264 0.18486 0.11543 0.0
Co579 Co 0.7374 0.21889 0.12127 0.0
O580 O 0.74617 0.20024 0.1307 0.0
C581 C 0.7057 0.21683 0.11017 0.0
C582 C 0.71803 0.18943 0.07342 0.0
C583 C 0.74129 0.18711 0.127 0.0
O584 O 0.70876 0.20438 0.10309 0.0
O585 O 0.71581 0.22487 0.11692 0.0
O586 O 0.74997 0.19196 0.08972 0.0
O587 O 0.74115 0.21263 0.10054 0.0
Co588 Co 0.29568 0.22877 0.59379 0.0
O589 O 0.29031 0.22309 0.57336 0.0
O590 O 0.31279 0.21912 0.58419 0.0
C591 C 0.28619 0.25253 0.5939 0.0
O592 O 0.30593 0.23352 0.6138 0.0
Co593 Co 0.27131 0.23608 0.61831 0.0
O594 O 0.28904 0.24189 0.63113 0.0
C595 C 0.27542 0.2047 0.60769 0.0
C596 C 0.30407 0.21771 0.57235 0.0
C597 C 0.30262 0.23911 0.62686 0.0
O598 O 0.28812 0.20846 0.60145 0.0
O599 O 0.26622 0.2144 0.61346 0.0
O600 O 0.29937 0.24988 0.58772 0.0
O601 O 0.27859 0.24066 0.59798 0.0
Co602 Co 0.27261 0.79635 0.09382 0.0
O603 O 0.27828 0.79029 0.07364 0.0
O604 O 0.28036 0.81369 0.0829 0.0
C605 C 0.24992 0.78453 0.09504 0.0
O606 O 0.26733 0.80713 0.11353 0.0
Co607 Co 0.26849 0.77248 0.11961 0.0
O608 O 0.26083 0.79011 0.13153 0.0
C609 C 0.29873 0.77873 0.10704 0.0
C610 C 0.28232 0.80437 0.07159 0.0
C611 C 0.26216 0.80376 0.12678 0.0
O612 O 0.29375 0.79118 0.10121 0.0
O613 O 0.2901 0.76883 0.1133 0.0
O614 O 0.2511 0.79754 0.08807 0.0
O615 O 0.26261 0.77848 0.09924 0.0
Co616 Co 0.68991 0.77427 0.59693 0.0
O617 O 0.69797 0.77948 0.57732 0.0
O618 O 0.67399 0.78277 0.58447 0.0
C619 C 0.70062 0.75105 0.59896 0.0
O620 O 0.67718 0.76959 0.61575 0.0
Co621 Co 0.71121 0.76872 0.62472 0.0
O622 O 0.69249 0.76062 0.6342 0.0
C623 C 0.70571 0.79998 0.61389 0.0
C624 C 0.68435 0.7842 0.57401 0.0
C625 C 0.67931 0.76331 0.62881 0.0
O626 O 0.69548 0.79528 0.60454 0.0
O627 O 0.71377 0.79113 0.62216 0.0
O628 O 0.68821 0.75281 0.59108 0.0
O629 O 0.70682 0.76343 0.60379 0.0
Co630 Co 0.27069 0.19774 0.90523 0.0
O631 O 0.27559 0.20171 0.92611 0.0
O632 O 0.27924 0.1797 0.91425 0.0
C633 C 0.24745 0.20856 0.905 0.0
O634 O 0.26662 0.18901 0.88428 0.0
Co635 Co 0.2651 0.22391 0.88208 0.0
O636 O 0.25618 0.20717 0.86965 0.0
C637 C 0.29569 0.21834 0.89457 0.0
C638 C 0.28053 0.18778 0.92657 0.0
C639 C 0.25944 0.19328 0.8723 0.0
O640 O 0.29157 0.20506 0.89912 0.0
O641 O 0.28648 0.22811 0.88894 0.0
O642 O 0.24908 0.19476 0.91013 0.0
O643 O 0.25987 0.21559 0.90176 0.0
Co644 Co 0.29599 0.76569 0.40668 0.0
O645 O 0.29241 0.76981 0.42781 0.0
O646 O 0.31317 0.77648 0.41503 0.0
C647 C 0.28869 0.7411 0.40639 0.0
O648 O 0.30406 0.76299 0.38525 0.0
Co649 Co 0.26947 0.75696 0.38497 0.0
O650 O 0.28666 0.74969 0.37206 0.0
C651 C 0.27232 0.78836 0.39623 0.0
C652 C 0.30562 0.77646 0.42775 0.0
C653 C 0.30009 0.75489 0.37377 0.0
O654 O 0.28582 0.78548 0.40109 0.0
O655 O 0.2634 0.7782 0.39081 0.0
O656 O 0.30225 0.74474 0.41107 0.0
O657 O 0.27966 0.75239 0.40393 0.0
Co658 Co 0.70333 0.22915 0.40266 0.0
O659 O 0.70606 0.22614 0.42405 0.0
O660 O 0.686 0.21834 0.41076 0.0
C661 C 0.7101 0.25378 0.40184 0.0
O662 O 0.69602 0.23131 0.38091 0.0
Co663 Co 0.7308 0.23733 0.38194 0.0
O664 O 0.71457 0.24205 0.36688 0.0
C665 C 0.7275 0.20617 0.39341 0.0
C666 C 0.69282 0.21959 0.42382 0.0
C667 C 0.70085 0.2377 0.36868 0.0
O668 O 0.71393 0.20926 0.39798 0.0
O669 O 0.73667 0.21623 0.38825 0.0
O670 O 0.69647 0.25 0.40615 0.0
O671 O 0.71953 0.24266 0.4001 0.0
H672 H 0.93296 0.28298 0.16631 0.0
H673 H 0.95813 0.29228 0.15857 0.0
H674 H 0.9734 0.28955 0.20514 0.0
H675 H 0.94847 0.28027 0.21292 0.0
H676 H 0.98342 0.31602 0.18998 0.0
H677 H 0.97956 0.26039 0.18137 0.0
H678 H 0.96818 0.23808 0.16868 0.0
H679 H 0.9785 0.25739 0.12499 0.0
H680 H 0.98979 0.27989 0.13747 0.0
H681 H 0.05377 0.29008 0.20926 0.0
H682 H 0.02792 0.2974 0.20297 0.0
H683 H 0.03874 0.29551 0.1551 0.0
H684 H 0.06484 0.28786 0.16139 0.0
H685 H 0.01462 0.27898 0.16102 0.0
H686 H 0.0273 0.32961 0.17101 0.0
H687 H 0.03926 0.3515 0.1838 0.0
H688 H 0.01288 0.34283 0.22397 0.0
H689 H 0.00092 0.32074 0.21156 0.0
C690 C 0.94167 0.28449 0.17489 0.0
C691 C 0.93884 0.28075 0.1902 0.0
C692 C 0.95599 0.28985 0.17046 0.0
C693 C 0.96757 0.29161 0.1813 0.0
C694 C 0.96456 0.28838 0.19663 0.0
C695 C 0.95035 0.28293 0.20103 0.0
C696 C 0.98331 0.29539 0.17682 0.0
C697 C 0.9903 0.30806 0.18353 0.0
C698 C 0.99205 0.28539 0.16776 0.0
C699 C 0.98532 0.27187 0.16032 0.0
C700 C 0.97929 0.25991 0.16906 0.0
C701 C 0.97288 0.24723 0.16191 0.0
C702 C 0.97257 0.24634 0.14604 0.0
C703 C 0.97871 0.25811 0.13728 0.0
C704 C 0.98511 0.27082 0.14438 0.0
C705 C 0.05077 0.29147 0.19739 0.0
C706 C 0.06127 0.28823 0.18582 0.0
C707 C 0.036 0.29586 0.1938 0.0
C708 C 0.03142 0.29722 0.17855 0.0
C709 C 0.04207 0.29464 0.16693 0.0
C710 C 0.05695 0.29025 0.17054 0.0
C711 C 0.01503 0.29906 0.17513 0.0
C712 C 0.00781 0.28744 0.16689 0.0
C713 C 0.00611 0.31012 0.1827 0.0
C714 C 0.01318 0.32348 0.1903 0.0
C715 C 0.02409 0.33231 0.1826 0.0
C716 C 0.03087 0.34477 0.18979 0.0
C717 C 0.02683 0.34856 0.20468 0.0
C718 C 0.01598 0.3399 0.21242 0.0
C719 C 0.00915 0.32742 0.20529 0.0
H720 H 0.0321 0.3582 0.21023 0.0
H721 H 0.9676 0.23652 0.14052 0.0
H722 H 0.21102 0.5655 0.66357 0.0
H723 H 0.20229 0.53976 0.65725 0.0
H724 H 0.20105 0.52857 0.70506 0.0
H725 H 0.20958 0.55411 0.7114 0.0
H726 H 0.21796 0.51463 0.66297 0.0
H727 H 0.17552 0.50295 0.71339 0.0
H728 H 0.15429 0.51615 0.72607 0.0
H729 H 0.14723 0.54361 0.6863 0.0
H730 H 0.16825 0.53042 0.67326 0.0
H731 H 0.21337 0.44859 0.71393 0.0
H732 H 0.2043 0.47367 0.70649 0.0
H733 H 0.20157 0.45907 0.65969 0.0
H734 H 0.21072 0.43374 0.66711 0.0
H735 H 0.17891 0.48548 0.69145 0.0
H736 H 0.21541 0.48995 0.63902 0.0
H737 H 0.23724 0.47743 0.62651 0.0
H738 H 0.25593 0.46593 0.67017 0.0
H739 H 0.2343 0.47852 0.68289 0.0
C740 C 0.20862 0.5576 0.67272 0.0
C741 C 0.2111 0.56173 0.68798 0.0
C742 C 0.2036 0.54294 0.66909 0.0
C743 C 0.20082 0.53232 0.68068 0.0
C744 C 0.20277 0.53667 0.69592 0.0
C745 C 0.20783 0.55123 0.69954 0.0
C746 C 0.19797 0.51611 0.67712 0.0
C747 C 0.20907 0.50829 0.66873 0.0
C748 C 0.18634 0.50784 0.68457 0.0
C749 C 0.17352 0.51567 0.69233 0.0
C750 C 0.16937 0.5117 0.70728 0.0
C751 C 0.15738 0.51922 0.71455 0.0
C752 C 0.14943 0.53072 0.70701 0.0
C753 C 0.15342 0.53472 0.69215 0.0
C754 C 0.16539 0.52724 0.68482 0.0
C755 C 0.21067 0.45063 0.70208 0.0
C756 C 0.21296 0.4393 0.69107 0.0
C757 C 0.20533 0.46492 0.69786 0.0
C758 C 0.20232 0.46822 0.68254 0.0
C759 C 0.20387 0.45672 0.67157 0.0
C760 C 0.20913 0.44231 0.67582 0.0
C761 C 0.19946 0.4842 0.67822 0.0
C762 C 0.1873 0.49191 0.68509 0.0
C763 C 0.21005 0.49242 0.66933 0.0
C764 C 0.22317 0.48497 0.66186 0.0
C765 C 0.2242 0.48475 0.64592 0.0
C766 C 0.23653 0.47765 0.6388 0.0
C767 C 0.24794 0.47083 0.64754 0.0
C768 C 0.24707 0.47116 0.66342 0.0
C769 C 0.23478 0.47826 0.67058 0.0
H770 H 0.25746 0.46533 0.64201 0.0
H771 H 0.14016 0.53653 0.71267 0.0
H772 H 0.05197 0.70938 0.21125 0.0
H773 H 0.02673 0.70091 0.20405 0.0
H774 H 0.04001 0.70064 0.15676 0.0
H775 H 0.06559 0.70936 0.16399 0.0
H776 H 0.01468 0.71672 0.16104 0.0
H777 H 0.02916 0.667 0.17339 0.0
H778 H 0.0417 0.64632 0.18757 0.0
H779 H 0.01353 0.65549 0.22641 0.0
H780 H 0.00098 0.67638 0.21258 0.0
H781 H 0.93333 0.71226 0.16544 0.0
H782 H 0.95848 0.70265 0.15799 0.0
H783 H 0.97314 0.70504 0.20479 0.0
H784 H 0.94822 0.71447 0.21227 0.0
H785 H 0.98407 0.67942 0.19031 0.0
H786 H 0.97906 0.7348 0.18015 0.0
H787 H 0.96726 0.75644 0.1667 0.0
H788 H 0.97825 0.73601 0.1237 0.0
H789 H 0.98997 0.71417 0.13693 0.0
C790 C 0.04965 0.7073 0.19933 0.0
C791 C 0.0607 0.71017 0.18817 0.0
C792 C 0.03523 0.70226 0.19522 0.0
C793 C 0.03153 0.69989 0.17987 0.0
C794 C 0.04269 0.70224 0.16868 0.0
C795 C 0.05725 0.70724 0.17282 0.0
C796 C 0.01542 0.69714 0.17581 0.0
C797 C 0.00802 0.70818 0.16697 0.0
C798 C 0.00671 0.68597 0.18347 0.0
C799 C 0.01408 0.67328 0.19189 0.0
C800 C 0.02567 0.66466 0.18497 0.0
C801 C 0.03278 0.65289 0.19296 0.0
C802 C 0.02841 0.64959 0.20788 0.0
C803 C 0.01689 0.65804 0.21484 0.0
C804 C 0.00973 0.66982 0.20691 0.0
C805 C 0.94189 0.71055 0.17414 0.0
C806 C 0.9389 0.7143 0.18941 0.0
C807 C 0.9562 0.70503 0.16987 0.0
C808 C 0.96766 0.70318 0.18084 0.0
C809 C 0.96443 0.70628 0.19616 0.0
C810 C 0.95021 0.71182 0.2004 0.0
C811 C 0.98354 0.69965 0.17655 0.0
C812 C 0.99081 0.68741 0.18376 0.0
C813 C 0.99216 0.70968 0.1674 0.0
C814 C 0.9852 0.72281 0.1595 0.0
C815 C 0.97886 0.7349 0.16783 0.0
C816 C 0.97221 0.7472 0.16025 0.0
C817 C 0.97196 0.74758 0.14436 0.0
C818 C 0.97841 0.73568 0.13601 0.0
C819 C 0.98506 0.72335 0.14353 0.0
H820 H 0.9668 0.75711 0.13851 0.0
H821 H 0.03394 0.64048 0.21405 0.0
H822 H 0.80442 0.44114 0.70098 0.0
H823 H 0.81018 0.46761 0.69506 0.0
H824 H 0.78754 0.46301 0.65179 0.0
H825 H 0.78214 0.4362 0.65751 0.0
H826 H 0.81376 0.48868 0.65657 0.0
H827 H 0.7637 0.47012 0.67345 0.0
H828 H 0.74837 0.45261 0.68917 0.0
H829 H 0.7693 0.47027 0.72964 0.0
H830 H 0.78496 0.48766 0.7141 0.0
H831 H 0.78126 0.56494 0.66251 0.0
H832 H 0.78723 0.53837 0.65633 0.0
H833 H 0.79655 0.52954 0.70373 0.0
H834 H 0.79027 0.5558 0.70998 0.0
H835 H 0.77618 0.51032 0.69279 0.0
H836 H 0.82481 0.53031 0.67642 0.0
H837 H 0.84173 0.54667 0.66116 0.0
H838 H 0.82443 0.5267 0.62007 0.0
H839 H 0.80725 0.51035 0.63509 0.0
C840 C 0.80136 0.44556 0.68989 0.0
C841 C 0.79262 0.43685 0.67979 0.0
C842 C 0.80477 0.46063 0.68645 0.0
C843 C 0.79908 0.46725 0.6731 0.0
C844 C 0.79209 0.45803 0.6621 0.0
C845 C 0.78892 0.44277 0.66542 0.0
C846 C 0.79638 0.48379 0.67311 0.0
C847 C 0.80539 0.49351 0.66425 0.0
C848 C 0.78552 0.48996 0.68323 0.0
C849 C 0.77555 0.4801 0.69263 0.0
C850 C 0.76505 0.47023 0.6857 0.0
C851 C 0.75632 0.46032 0.69457 0.0
C852 C 0.75788 0.46031 0.71039 0.0
C853 C 0.76811 0.47028 0.71738 0.0
C854 C 0.7769 0.48017 0.70855 0.0
C855 C 0.78478 0.55735 0.67155 0.0
C856 C 0.78509 0.56233 0.68675 0.0
C857 C 0.78827 0.54222 0.66799 0.0
C858 C 0.7923 0.532 0.67958 0.0
C859 C 0.79336 0.53723 0.69463 0.0
C860 C 0.78974 0.55222 0.69819 0.0
C861 C 0.79385 0.51551 0.67655 0.0
C862 C 0.78444 0.50568 0.68488 0.0
C863 C 0.80429 0.50941 0.66589 0.0
C864 C 0.81461 0.51924 0.65688 0.0
C865 C 0.82451 0.52951 0.66413 0.0
C866 C 0.83417 0.53876 0.65552 0.0
C867 C 0.83412 0.53776 0.63966 0.0
C868 C 0.82444 0.52748 0.63236 0.0
C869 C 0.81474 0.51821 0.64092 0.0
H870 H 0.84162 0.54493 0.63301 0.0
H871 H 0.75114 0.4526 0.71723 0.0
H872 H 0.94323 0.6981 0.78971 0.0
H873 H 0.96916 0.69156 0.79699 0.0
H874 H 0.95984 0.70506 0.84323 0.0
H875 H 0.93358 0.71152 0.836 0.0
H876 H 0.98519 0.71788 0.80864 0.0
H877 H 0.99148 0.68295 0.8634 0.0
H878 H 0.97783 0.66311 0.87783 0.0
H879 H 0.95796 0.64636 0.83646 0.0
H880 H 0.97165 0.66594 0.82177 0.0
H881 H 0.06264 0.71624 0.8378 0.0
H882 H 0.0367 0.70892 0.8452 0.0
H883 H 0.03005 0.68828 0.8012 0.0
H884 H 0.05565 0.69581 0.79367 0.0
H885 H 0.01279 0.68013 0.84034 0.0
H886 H 0.00723 0.71403 0.78581 0.0
H887 H 0.02172 0.73304 0.77105 0.0
H888 H 0.03962 0.75185 0.81244 0.0
H889 H 0.025 0.73314 0.82742 0.0
C890 C 0.94654 0.69923 0.80154 0.0
C891 C 0.93655 0.70556 0.81225 0.0
C892 C 0.96132 0.69542 0.80569 0.0
C893 C 0.96639 0.69796 0.8206 0.0
C894 C 0.95606 0.70294 0.83169 0.0
C895 C 0.94111 0.70665 0.82754 0.0
C896 C 0.98294 0.6984 0.82338 0.0
C897 C 0.99117 0.70965 0.81565 0.0
C898 C 0.99066 0.68796 0.83289 0.0
C899 C 0.98242 0.67606 0.84153 0.0
C900 C 0.98421 0.67502 0.85738 0.0
C901 C 0.97647 0.66382 0.86561 0.0
C902 C 0.96698 0.65353 0.85808 0.0
C903 C 0.96524 0.65439 0.8423 0.0
C904 C 0.97296 0.66557 0.83402 0.0
C905 C 0.05584 0.70958 0.82998 0.0
C906 C 0.06091 0.70688 0.81506 0.0
C907 C 0.0411 0.70529 0.83427 0.0
C908 C 0.0315 0.69818 0.82369 0.0
C909 C 0.03734 0.69374 0.80952 0.0
C910 C 0.0519 0.6982 0.80517 0.0
C911 C 0.01485 0.69933 0.82525 0.0
C912 C 0.00667 0.68854 0.83371 0.0
C913 C 0.00697 0.71031 0.81656 0.0
C914 C 0.01513 0.72213 0.8077 0.0
C915 C 0.01415 0.72232 0.79174 0.0
C916 C 0.02241 0.73302 0.78335 0.0
C917 C 0.03162 0.74362 0.7908 0.0
C918 C 0.03251 0.74362 0.80667 0.0
C919 C 0.02424 0.73297 0.81512 0.0
H920 H 0.03806 0.75185 0.78428 0.0
H921 H 0.961 0.64486 0.86446 0.0
H922 H 0.79295 0.55677 0.28688 0.0
H923 H 0.79972 0.53042 0.2922 0.0
H924 H 0.79207 0.53785 0.34009 0.0
H925 H 0.78554 0.56453 0.33486 0.0
H926 H 0.81681 0.51402 0.3304 0.0
H927 H 0.76345 0.52705 0.32609 0.0
H928 H 0.74198 0.54084 0.31441 0.0
H929 H 0.7511 0.51924 0.27155 0.0
H930 H 0.77281 0.50554 0.28292 0.0
H931 H 0.78411 0.43429 0.33019 0.0
H932 H 0.79089 0.4605 0.3373 0.0
H933 H 0.80161 0.47036 0.29046 0.0
H934 H 0.79481 0.44447 0.28329 0.0
H935 H 0.77459 0.48545 0.30606 0.0
H936 H 0.8286 0.47316 0.31045 0.0
H937 H 0.85039 0.45984 0.32204 0.0
H938 H 0.83957 0.4794 0.36548 0.0
H939 H 0.81756 0.49267 0.35418 0.0
C940 C 0.79314 0.55294 0.2986 0.0
C941 C 0.78841 0.56253 0.31043 0.0
C942 C 0.79715 0.53794 0.30163 0.0
C943 C 0.79622 0.53223 0.3165 0.0
C944 C 0.79292 0.54213 0.32856 0.0
C945 C 0.78908 0.55729 0.32554 0.0
C946 C 0.79539 0.51562 0.31859 0.0
C947 C 0.80747 0.5077 0.32538 0.0
C948 C 0.78313 0.50749 0.3121 0.0
C949 C 0.7698 0.51535 0.30533 0.0
C950 C 0.76092 0.52531 0.31415 0.0
C951 C 0.74871 0.53311 0.30759 0.0
C952 C 0.74519 0.53094 0.29224 0.0
C953 C 0.75384 0.52092 0.28344 0.0
C954 C 0.76609 0.51312 0.28994 0.0
C955 C 0.78842 0.44193 0.32154 0.0
C956 C 0.78866 0.43753 0.30616 0.0
C957 C 0.79234 0.45683 0.32562 0.0
C958 C 0.7967 0.46726 0.31437 0.0
C959 C 0.79831 0.46239 0.29927 0.0
C960 C 0.79432 0.44765 0.29519 0.0
C961 C 0.7963 0.48373 0.3173 0.0
C962 C 0.78379 0.49167 0.31146 0.0
C963 C 0.80809 0.49171 0.32477 0.0
C964 C 0.8213 0.48372 0.33152 0.0
C965 C 0.83074 0.47447 0.32251 0.0
C966 C 0.84317 0.46697 0.32902 0.0
C967 C 0.84633 0.46873 0.3445 0.0
C968 C 0.8371 0.47802 0.3535 0.0
C969 C 0.82465 0.48554 0.34705 0.0
H970 H 0.85596 0.46292 0.34952 0.0
H971 H 0.73574 0.537 0.28718 0.0
H972 H 0.06429 0.28798 0.83434 0.0
H973 H 0.03859 0.29647 0.84128 0.0
H974 H 0.02471 0.29254 0.79436 0.0
H975 H 0.05018 0.28418 0.78737 0.0
H976 H 0.01318 0.31842 0.80813 0.0
H977 H 0.019 0.26347 0.81966 0.0
H978 H 0.03085 0.2423 0.83379 0.0
H979 H 0.01853 0.26335 0.87613 0.0
H980 H 0.00674 0.28472 0.86221 0.0
H981 H 0.94553 0.28781 0.78752 0.0
H982 H 0.97059 0.29676 0.79468 0.0
H983 H 0.95718 0.29739 0.84193 0.0
H984 H 0.93176 0.28813 0.83472 0.0
H985 H 0.98264 0.28157 0.83805 0.0
H986 H 0.96802 0.33099 0.82472 0.0
H987 H 0.95549 0.3514 0.81014 0.0
H988 H 0.98376 0.3416 0.77154 0.0
H989 H 0.99632 0.32097 0.78576 0.0
C990 C 0.05576 0.28906 0.82551 0.0
C991 C 0.05918 0.28527 0.81033 0.0
C992 C 0.04113 0.29394 0.82949 0.0
C993 C 0.02977 0.29512 0.81833 0.0
C994 C 0.03335 0.29181 0.80313 0.0
C995 C 0.04788 0.2869 0.79917 0.0
C996 C 0.01376 0.29847 0.82229 0.0
C997 C 0.00644 0.3105 0.81479 0.0
C998 C 0.00515 0.28859 0.83163 0.0
C999 C 0.01218 0.27574 0.83993 0.0
C1000 C 0.01892 0.26361 0.83198 0.0
C1001 C 0.0256 0.25158 0.83995 0.0
C1002 C 0.02549 0.2515 0.85585 0.0
C1003 C 0.01864 0.26344 0.86382 0.0
C1004 C 0.01196 0.27551 0.8559 0.0
C1005 C 0.94777 0.29011 0.79942 0.0
C1006 C 0.93675 0.28713 0.81058 0.0
C1007 C 0.96209 0.29542 0.8035 0.0
C1008 C 0.96574 0.29798 0.81883 0.0
C1009 C 0.95455 0.29563 0.83002 0.0
C1010 C 0.94007 0.29035 0.8259 0.0
C1011 C 0.98185 0.30086 0.82289 0.0
C1012 C 0.98928 0.29002 0.83196 0.0
C1013 C 0.99054 0.31189 0.81503 0.0
C1014 C 0.98316 0.32442 0.80637 0.0
C1015 C 0.97154 0.33314 0.8131 0.0
C1016 C 0.96443 0.34475 0.80489 0.0
C1017 C 0.96884 0.3478 0.78993 0.0
C1018 C 0.98039 0.33925 0.78315 0.0
C1019 C 0.98754 0.32762 0.7913 0.0
H1020 H 0.9633 0.35679 0.78359 0.0
H1021 H 0.03067 0.24218 0.862 0.0
H1022 H 0.21137 0.44644 0.28896 0.0
H1023 H 0.20286 0.47179 0.29623 0.0
H1024 H 0.20037 0.45776 0.34321 0.0
H1025 H 0.20888 0.43216 0.33596 0.0
H1026 H 0.17769 0.48418 0.31176 0.0
H1027 H 0.21544 0.4888 0.36307 0.0
H1028 H 0.23721 0.476 0.37539 0.0
H1029 H 0.25486 0.46339 0.3316 0.0
H1030 H 0.23327 0.47626 0.31906 0.0
H1031 H 0.21319 0.56457 0.33388 0.0
H1032 H 0.20359 0.53971 0.34244 0.0
H1033 H 0.20151 0.52464 0.29575 0.0
H1034 H 0.21099 0.54914 0.28725 0.0
H1035 H 0.21834 0.51307 0.33819 0.0
H1036 H 0.17416 0.50081 0.28941 0.0
H1037 H 0.15314 0.51429 0.27668 0.0
H1038 H 0.14826 0.54375 0.31533 0.0
H1039 H 0.16909 0.53031 0.32842 0.0
C1040 C 0.20881 0.44866 0.30081 0.0
C1041 C 0.21097 0.43741 0.31192 0.0
C1042 C 0.2038 0.46311 0.30494 0.0
C1043 C 0.20103 0.46663 0.32025 0.0
C1044 C 0.20246 0.45523 0.33133 0.0
C1045 C 0.20735 0.44066 0.32717 0.0
C1046 C 0.19857 0.48273 0.32443 0.0
C1047 C 0.18641 0.49056 0.31771 0.0
C1048 C 0.20959 0.4909 0.33283 0.0
C1049 C 0.22268 0.48329 0.34018 0.0
C1050 C 0.22399 0.4833 0.3561 0.0
C1051 C 0.23629 0.47604 0.36311 0.0
C1052 C 0.24738 0.46883 0.35429 0.0
C1053 C 0.24623 0.46893 0.33842 0.0
C1054 C 0.23397 0.47619 0.33136 0.0
C1055 C 0.21042 0.55599 0.32548 0.0
C1056 C 0.21296 0.5587 0.30992 0.0
C1057 C 0.20492 0.54186 0.33037 0.0
C1058 C 0.2016 0.53042 0.31972 0.0
C1059 C 0.20364 0.53339 0.30417 0.0
C1060 C 0.20925 0.54736 0.29932 0.0
C1061 C 0.19805 0.51468 0.3245 0.0
C1062 C 0.20909 0.50682 0.33293 0.0
C1063 C 0.18594 0.50652 0.31772 0.0
C1064 C 0.17322 0.5145 0.30993 0.0
C1065 C 0.16852 0.51006 0.29528 0.0
C1066 C 0.15666 0.51773 0.28797 0.0
C1067 C 0.14937 0.52987 0.29519 0.0
C1068 C 0.15393 0.53436 0.30974 0.0
C1069 C 0.16578 0.52673 0.3171 0.0
H1070 H 0.1402 0.5358 0.28951 0.0
H1071 H 0.25688 0.46321 0.35974 0.0
H1072 H 0.21899 0.94403 0.2826 0.0
H1073 H 0.21385 0.97037 0.2894 0.0
H1074 H 0.16659 0.95946 0.29697 0.0
H1075 H 0.17166 0.93291 0.29004 0.0
H1076 H 0.16981 0.98366 0.27855 0.0
H1077 H 0.18777 0.97009 0.32698 0.0
H1078 H 0.20423 0.95798 0.34617 0.0
H1079 H 0.24186 0.98556 0.33171 0.0
H1080 H 0.22571 0.99768 0.31225 0.0
H1081 H 0.17007 0.06506 0.28813 0.0
H1082 H 0.16579 0.03847 0.29548 0.0
H1083 H 0.21276 0.02822 0.28558 0.0
H1084 H 0.21713 0.0546 0.2783 0.0
H1085 H 0.20269 0.01472 0.31233 0.0
H1086 H 0.18543 0.02173 0.25946 0.0
H1087 H 0.1689 0.03335 0.23997 0.0
H1088 H 0.12929 0.01761 0.26385 0.0
H1089 H 0.14561 0.00605 0.28358 0.0
C1090 C 0.20753 0.94716 0.28588 0.0
C1091 C 0.19571 0.93644 0.28571 0.0
C1092 C 0.20463 0.9622 0.28991 0.0
C1093 C 0.18987 0.96682 0.29389 0.0
C1094 C 0.17807 0.95608 0.29404 0.0
C1095 C 0.18099 0.94095 0.29007 0.0
C1096 C 0.18676 0.98318 0.29628 0.0
C1097 C 0.17665 0.99043 0.28629 0.0
C1098 C 0.19567 0.99198 0.30637 0.0
C1099 C 0.2055 0.98479 0.3181 0.0
C1100 C 0.19958 0.97352 0.32781 0.0
C1101 C 0.20886 0.96665 0.33876 0.0
C1102 C 0.22408 0.97099 0.34015 0.0
C1103 C 0.23005 0.98222 0.33062 0.0
C1104 C 0.22083 0.98912 0.31965 0.0
C1105 C 0.17949 0.05713 0.28762 0.0
C1106 C 0.1939 0.06185 0.28252 0.0
C1107 C 0.17703 0.04199 0.29185 0.0
C1108 C 0.18896 0.03142 0.29105 0.0
C1109 C 0.20343 0.03624 0.28636 0.0
C1110 C 0.20587 0.05129 0.28208 0.0
C1111 C 0.18644 0.01508 0.29401 0.0
C1112 C 0.19546 0.00788 0.30503 0.0
C1113 C 0.17647 0.0063 0.28493 0.0
C1114 C 0.16671 0.01322 0.27307 0.0
C1115 C 0.17319 0.02086 0.2606 0.0
C1116 C 0.16387 0.02741 0.24951 0.0
C1117 C 0.14805 0.02627 0.2507 0.0
C1118 C 0.14154 0.01853 0.26296 0.0
C1119 C 0.15081 0.01198 0.2741 0.0
H1120 H 0.14085 0.03134 0.24209 0.0
H1121 H 0.23124 0.96566 0.34863 0.0
H1122 H 0.56346 0.65899 0.78626 0.0
H1123 H 0.5388 0.64891 0.79479 0.0
H1124 H 0.52252 0.69474 0.80145 0.0
H1125 H 0.54687 0.70476 0.79296 0.0
H1126 H 0.51122 0.67463 0.82329 0.0
H1127 H 0.51843 0.67757 0.76692 0.0
H1128 H 0.53157 0.66941 0.74347 0.0
H1129 H 0.52159 0.62273 0.75389 0.0
H1130 H 0.50852 0.63066 0.77748 0.0
H1131 H 0.44854 0.70573 0.79143 0.0
H1132 H 0.4721 0.69499 0.80119 0.0
H1133 H 0.45559 0.6497 0.7919 0.0
H1134 H 0.43167 0.66051 0.78219 0.0
H1135 H 0.4829 0.65568 0.77831 0.0
H1136 H 0.46465 0.65724 0.82808 0.0
H1137 H 0.45089 0.66681 0.85055 0.0
H1138 H 0.48095 0.70522 0.85297 0.0
H1139 H 0.49477 0.69605 0.83038 0.0
C1140 C 0.5547 0.66685 0.78989 0.0
C1141 C 0.55693 0.68265 0.78873 0.0
C1142 C 0.54067 0.66109 0.79479 0.0
C1143 C 0.52884 0.67109 0.79869 0.0
C1144 C 0.53152 0.68682 0.79858 0.0
C1145 C 0.5454 0.69254 0.79357 0.0
C1146 C 0.51297 0.66581 0.80053 0.0
C1147 C 0.50496 0.67022 0.81362 0.0
C1148 C 0.50494 0.6594 0.78815 0.0
C1149 C 0.51268 0.65467 0.77398 0.0
C1150 C 0.51912 0.66557 0.76422 0.0
C1151 C 0.52654 0.66099 0.75092 0.0
C1152 C 0.52746 0.64556 0.74722 0.0
C1153 C 0.52091 0.63467 0.75679 0.0
C1154 C 0.5135 0.6392 0.77012 0.0
C1155 C 0.44978 0.69347 0.79174 0.0
C1156 C 0.43838 0.68395 0.78593 0.0
C1157 C 0.46319 0.68732 0.79749 0.0
C1158 C 0.46553 0.67152 0.79746 0.0
C1159 C 0.45392 0.6619 0.79219 0.0
C1160 C 0.44032 0.66808 0.78663 0.0
C1161 C 0.48101 0.66572 0.80061 0.0
C1162 C 0.48902 0.6592 0.78844 0.0
C1163 C 0.48899 0.67024 0.81383 0.0
C1164 C 0.4808 0.6759 0.82751 0.0
C1165 C 0.4683 0.66777 0.83335 0.0
C1166 C 0.46049 0.67313 0.84612 0.0
C1167 C 0.46506 0.6866 0.8532 0.0
C1168 C 0.47746 0.69475 0.84751 0.0
C1169 C 0.48531 0.68945 0.83473 0.0
H1170 H 0.45898 0.69073 0.86308 0.0
H1171 H 0.53321 0.64203 0.73691 0.0
H1172 H 0.83406 0.06359 0.28534 0.0
H1173 H 0.84518 0.03963 0.29446 0.0
H1174 H 0.80011 0.02132 0.301 0.0
H1175 H 0.78902 0.045 0.29185 0.0
H1176 H 0.82101 0.01181 0.32362 0.0
H1177 H 0.81744 0.01694 0.26708 0.0
H1178 H 0.8248 0.02963 0.24313 0.0
H1179 H 0.87198 0.02235 0.25352 0.0
H1180 H 0.86486 0.00975 0.27762 0.0
H1181 H 0.79257 0.9477 0.2935 0.0
H1182 H 0.80278 0.97118 0.30386 0.0
H1183 H 0.84834 0.95642 0.29295 0.0
H1184 H 0.83799 0.93253 0.28262 0.0
H1185 H 0.84137 0.98301 0.27958 0.0
H1186 H 0.84134 0.96642 0.32971 0.0
H1187 H 0.83311 0.953 0.3529 0.0
H1188 H 0.79321 0.98105 0.35533 0.0
H1189 H 0.80103 0.99449 0.33202 0.0
C1190 C 0.82656 0.05455 0.28905 0.0
C1191 C 0.81068 0.05603 0.28769 0.0
C1192 C 0.83292 0.04091 0.29429 0.0
C1193 C 0.82346 0.02871 0.29837 0.0
C1194 C 0.80762 0.03063 0.29801 0.0
C1195 C 0.80128 0.04412 0.29263 0.0
C1196 C 0.82953 0.0132 0.30073 0.0
C1197 C 0.8257 0.00545 0.31415 0.0
C1198 C 0.83639 0.00512 0.28864 0.0
C1199 C 0.84064 0.0126 0.27418 0.0
C1200 C 0.82938 0.01814 0.26427 0.0
C1201 C 0.8335 0.02529 0.25068 0.0
C1202 C 0.84885 0.02684 0.24683 0.0
C1203 C 0.8601 0.02118 0.25654 0.0
C1204 C 0.85603 0.01404 0.27017 0.0
C1205 C 0.8048 0.94925 0.29371 0.0
C1206 C 0.8145 0.93844 0.28715 0.0
C1207 C 0.81067 0.96262 0.2998 0.0
C1208 C 0.82637 0.96553 0.29933 0.0
C1209 C 0.83621 0.95432 0.29358 0.0
C1210 C 0.83031 0.94073 0.28768 0.0
C1211 C 0.83159 0.98133 0.30202 0.0
C1212 C 0.83756 0.98926 0.28952 0.0
C1213 C 0.82673 0.98953 0.315 0.0
C1214 C 0.82184 0.98153 0.32908 0.0
C1215 C 0.83077 0.96969 0.33513 0.0
C1216 C 0.82617 0.96208 0.34831 0.0
C1217 C 0.81266 0.96618 0.35559 0.0
C1218 C 0.8037 0.97791 0.3497 0.0
C1219 C 0.80824 0.98557 0.33651 0.0
H1220 H 0.80912 0.96027 0.3658 0.0
H1221 H 0.85203 0.03237 0.2363 0.0
H1222 H 0.56332 0.33293 0.79009 0.0
H1223 H 0.53581 0.33296 0.79464 0.0
H1224 H 0.53599 0.28391 0.79616 0.0
H1225 H 0.56335 0.28376 0.79156 0.0
H1226 H 0.51677 0.29568 0.7746 0.0
H1227 H 0.52853 0.30368 0.82754 0.0
H1228 H 0.54024 0.31693 0.84931 0.0
H1229 H 0.51523 0.35745 0.83841 0.0
H1230 H 0.50353 0.3445 0.81643 0.0
H1231 H 0.44345 0.2755 0.79077 0.0
H1232 H 0.47016 0.28016 0.79652 0.0
H1233 H 0.46305 0.32844 0.79157 0.0
H1234 H 0.43604 0.32388 0.78598 0.0
H1235 H 0.48537 0.31967 0.81495 0.0
H1236 H 0.47416 0.31231 0.76199 0.0
H1237 H 0.46221 0.2994 0.74014 0.0
H1238 H 0.48667 0.25845 0.75064 0.0
H1239 H 0.49858 0.27105 0.77272 0.0
C1240 C 0.55753 0.32217 0.79169 0.0
C1241 C 0.56541 0.30833 0.79025 0.0
C1242 C 0.54185 0.32222 0.79436 0.0
C1243 C 0.53392 0.30844 0.79568 0.0
C1244 C 0.54194 0.29466 0.79512 0.0
C1245 C 0.55756 0.2946 0.79246 0.0
C1246 C 0.51712 0.30816 0.79569 0.0
C1247 C 0.50994 0.30077 0.78353 0.0
C1248 C 0.50824 0.31536 0.80703 0.0
C1249 C 0.51529 0.32317 0.82023 0.0
C1250 C 0.52564 0.31546 0.82969 0.0
C1251 C 0.53225 0.32291 0.84209 0.0
C1252 C 0.52852 0.33804 0.84521 0.0
C1253 C 0.51814 0.34574 0.83596 0.0
C1254 C 0.5115 0.33834 0.82354 0.0
C1255 C 0.44747 0.28714 0.79119 0.0
C1256 C 0.43778 0.29932 0.78763 0.0
C1257 C 0.46271 0.28978 0.79457 0.0
C1258 C 0.46855 0.30461 0.79423 0.0
C1259 C 0.45868 0.31692 0.79187 0.0
C1260 C 0.44332 0.31429 0.7886 0.0
C1261 C 0.48519 0.3068 0.7941 0.0
C1262 C 0.49229 0.31463 0.80606 0.0
C1263 C 0.49411 0.30014 0.7825 0.0
C1264 C 0.48716 0.29258 0.76908 0.0
C1265 C 0.47691 0.30052 0.7597 0.0
C1266 C 0.47015 0.29326 0.74727 0.0
C1267 C 0.47365 0.2781 0.74402 0.0
C1268 C 0.48396 0.27018 0.75318 0.0
C1269 C 0.49072 0.27738 0.76565 0.0
H1270 H 0.46841 0.2725 0.73439 0.0
H1271 H 0.53365 0.34378 0.85483 0.0
H1272 H 0.20991 0.04834 0.70999 0.0
H1273 H 0.20051 0.02367 0.70179 0.0
H1274 H 0.15425 0.03932 0.70686 0.0
H1275 H 0.16372 0.06436 0.71506 0.0
H1276 H 0.15977 0.01326 0.72267 0.0
H1277 H 0.16503 0.02833 0.67204 0.0
H1278 H 0.17616 0.04069 0.64947 0.0
H1279 H 0.21484 0.01098 0.65194 0.0
H1280 H 0.20409 0.99859 0.67466 0.0
H1281 H 0.1589 0.93168 0.71404 0.0
H1282 H 0.15183 0.95766 0.70649 0.0
H1283 H 0.19926 0.97021 0.70551 0.0
H1284 H 0.20636 0.94452 0.71316 0.0
H1285 H 0.18193 0.9824 0.68093 0.0
H1286 H 0.17959 0.97614 0.73695 0.0
H1287 H 0.16889 0.96434 0.76007 0.0
H1288 H 0.12399 0.97813 0.74659 0.0
H1289 H 0.13446 0.98986 0.72329 0.0
C1290 C 0.19773 0.04665 0.7091 0.0
C1291 C 0.18753 0.05818 0.71328 0.0
C1292 C 0.19236 0.03259 0.70425 0.0
C1293 C 0.17667 0.02971 0.70354 0.0
C1294 C 0.16639 0.04138 0.70719 0.0
C1295 C 0.1718 0.05563 0.71187 0.0
C1296 C 0.17151 0.01387 0.70113 0.0
C1297 C 0.16408 0.00657 0.71323 0.0
C1298 C 0.17708 0.00514 0.68881 0.0
C1299 C 0.18371 0.0125 0.6751 0.0
C1300 C 0.17595 0.02448 0.66783 0.0
C1301 C 0.1822 0.03149 0.655 0.0
C1302 C 0.1962 0.02662 0.64927 0.0
C1303 C 0.20398 0.01472 0.65637 0.0
C1304 C 0.19779 0.00767 0.66921 0.0
C1305 C 0.1678 0.93997 0.71202 0.0
C1306 C 0.18317 0.93617 0.71433 0.0
C1307 C 0.16374 0.95474 0.70768 0.0
C1308 C 0.17504 0.96579 0.70542 0.0
C1309 C 0.19039 0.96179 0.70708 0.0
C1310 C 0.19442 0.94716 0.7116 0.0
C1311 C 0.17119 0.98195 0.70291 0.0
C1312 C 0.17692 0.98922 0.68991 0.0
C1313 C 0.164 0.99068 0.71434 0.0
C1314 C 0.15776 0.98367 0.72832 0.0
C1315 C 0.16743 0.97654 0.73888 0.0
C1316 C 0.16141 0.96989 0.75201 0.0
C1317 C 0.14576 0.97044 0.75477 0.0
C1318 C 0.13611 0.97768 0.74442 0.0
C1319 C 0.14207 0.98432 0.73125 0.0
H1320 H 0.14113 0.96529 0.76495 0.0
H1321 H 0.20102 0.03207 0.63933 0.0
H1322 H 0.44766 0.71226 0.21135 0.0
H1323 H 0.4718 0.70266 0.20184 0.0
H1324 H 0.4551 0.65662 0.20514 0.0
H1325 H 0.43062 0.66627 0.21463 0.0
H1326 H 0.48176 0.66096 0.22053 0.0
H1327 H 0.46545 0.66847 0.17054 0.0
H1328 H 0.4526 0.68082 0.14889 0.0
H1329 H 0.483 0.7189 0.15222 0.0
H1330 H 0.49588 0.70693 0.17404 0.0
H1331 H 0.56295 0.66328 0.21444 0.0
H1332 H 0.53788 0.65487 0.20529 0.0
H1333 H 0.52319 0.70165 0.20287 0.0
H1334 H 0.54795 0.71004 0.21189 0.0
H1335 H 0.51189 0.68447 0.17901 0.0
H1336 H 0.51783 0.68071 0.23532 0.0
H1337 H 0.52991 0.66957 0.2581 0.0
H1338 H 0.51831 0.62472 0.24257 0.0
H1339 H 0.5063 0.63563 0.21962 0.0
C1340 C 0.44901 0.7001 0.2098 0.0
C1341 C 0.43735 0.68999 0.21385 0.0
C1342 C 0.46276 0.69463 0.20419 0.0
C1343 C 0.46518 0.67893 0.20259 0.0
C1344 C 0.45337 0.66878 0.20613 0.0
C1345 C 0.43945 0.6743 0.21157 0.0
C1346 C 0.4808 0.6735 0.19947 0.0
C1347 C 0.48829 0.66555 0.21111 0.0
C1348 C 0.4893 0.67941 0.18716 0.0
C1349 C 0.48168 0.68674 0.17394 0.0
C1350 C 0.46936 0.67951 0.16671 0.0
C1351 C 0.46207 0.68645 0.1544 0.0
C1352 C 0.46699 0.70063 0.14917 0.0
C1353 C 0.47922 0.7079 0.15625 0.0
C1354 C 0.48656 0.70101 0.16858 0.0
C1355 C 0.55441 0.67174 0.21169 0.0
C1356 C 0.55728 0.6873 0.21408 0.0
C1357 C 0.54016 0.66692 0.20644 0.0
C1358 C 0.52869 0.67764 0.20345 0.0
C1359 C 0.5319 0.69319 0.20501 0.0
C1360 C 0.54602 0.69797 0.21033 0.0
C1361 C 0.51273 0.67309 0.20066 0.0
C1362 C 0.50524 0.67911 0.18792 0.0
C1363 C 0.50419 0.66546 0.21196 0.0
C1364 C 0.51137 0.65894 0.22572 0.0
C1365 C 0.51795 0.66847 0.23674 0.0
C1366 C 0.52477 0.6622 0.24968 0.0
C1367 C 0.52492 0.64644 0.25175 0.0
C1368 C 0.51822 0.63692 0.24092 0.0
C1369 C 0.51142 0.64313 0.22795 0.0
H1370 H 0.5302 0.64161 0.26178 0.0
H1371 H 0.46132 0.70599 0.13965 0.0
H1372 H 0.77768 0.05707 0.70944 0.0
H1373 H 0.77806 0.02981 0.70431 0.0
H1374 H 0.82708 0.03072 0.70216 0.0
H1375 H 0.82679 0.05819 0.70705 0.0
H1376 H 0.81403 0.00998 0.68146 0.0
H1377 H 0.81186 0.02212 0.73456 0.0
H1378 H 0.80198 0.03512 0.75737 0.0
H1379 H 0.75833 0.01425 0.75068 0.0
H1380 H 0.76789 0.0013 0.72767 0.0
H1381 H 0.82541 0.93249 0.70581 0.0
H1382 H 0.82585 0.95995 0.70131 0.0
H1383 H 0.77692 0.96138 0.70491 0.0
H1384 H 0.77638 0.93399 0.70955 0.0
H1385 H 0.79083 0.98106 0.72407 0.0
H1386 H 0.79427 0.96756 0.67114 0.0
H1387 H 0.80514 0.95456 0.64879 0.0
H1388 H 0.84772 0.97743 0.65585 0.0
H1389 H 0.83717 0.99041 0.67839 0.0
C1390 C 0.78854 0.05154 0.70762 0.0
C1391 C 0.80222 0.05967 0.70891 0.0
C1392 C 0.78873 0.03598 0.70465 0.0
C1393 C 0.80261 0.02826 0.70314 0.0
C1394 C 0.81627 0.03651 0.70333 0.0
C1395 C 0.81608 0.05216 0.70619 0.0
C1396 C 0.8028 0.01146 0.70319 0.0
C1397 C 0.8091 0.0036 0.69081 0.0
C1398 C 0.79629 0.00322 0.71538 0.0
C1399 C 0.79054 0.01086 0.72931 0.0
C1400 C 0.80012 0.02039 0.73789 0.0
C1401 C 0.79458 0.02774 0.75086 0.0
C1402 C 0.77953 0.02554 0.75545 0.0
C1403 C 0.76998 0.01595 0.74709 0.0
C1404 C 0.77545 0.0086 0.73409 0.0
C1405 C 0.81473 0.93863 0.70542 0.0
C1406 C 0.80087 0.93114 0.7082 0.0
C1407 C 0.815 0.95429 0.70275 0.0
C1408 C 0.80141 0.96266 0.70275 0.0
C1409 C 0.78752 0.95509 0.70488 0.0
C1410 C 0.78724 0.93946 0.70755 0.0
C1411 C 0.80173 0.97946 0.70217 0.0
C1412 C 0.79566 0.98736 0.71461 0.0
C1413 C 0.80861 0.98763 0.69012 0.0
C1414 C 0.81497 0.97985 0.67655 0.0
C1415 C 0.80599 0.96972 0.66802 0.0
C1416 C 0.81209 0.96237 0.65529 0.0
C1417 C 0.82712 0.96514 0.65093 0.0
C1418 C 0.83608 0.97529 0.65926 0.0
C1419 C 0.83004 0.98265 0.672 0.0
H1420 H 0.83182 0.95944 0.64107 0.0
H1421 H 0.77526 0.03124 0.76549 0.0
H1422 H 0.55276 0.28664 0.21134 0.0
H1423 H 0.52698 0.29339 0.20371 0.0
H1424 H 0.53891 0.34099 0.20462 0.0
H1425 H 0.56495 0.33427 0.2122 0.0
H1426 H 0.51318 0.3343 0.22131 0.0
H1427 H 0.52989 0.32691 0.17124 0.0
H1428 H 0.54355 0.3149 0.1499 0.0
H1429 H 0.51602 0.27483 0.15448 0.0
H1430 H 0.50234 0.28647 0.17601 0.0
H1431 H 0.43238 0.33084 0.21237 0.0
H1432 H 0.45794 0.33885 0.2044 0.0
H1433 H 0.47226 0.29191 0.20344 0.0
H1434 H 0.44696 0.28389 0.21126 0.0
H1435 H 0.48477 0.30846 0.17993 0.0
H1436 H 0.47652 0.31343 0.23549 0.0
H1437 H 0.46359 0.32471 0.25772 0.0
H1438 H 0.47588 0.36946 0.24243 0.0
H1439 H 0.48874 0.35841 0.22002 0.0
C1440 C 0.54996 0.29854 0.20978 0.0
C1441 C 0.56081 0.30993 0.21245 0.0
C1442 C 0.53528 0.30238 0.20527 0.0
C1443 C 0.53113 0.31769 0.2034 0.0
C1444 C 0.54197 0.32912 0.20586 0.0
C1445 C 0.55678 0.32526 0.21021 0.0
C1446 C 0.515 0.32144 0.20052 0.0
C1447 C 0.50698 0.32913 0.21196 0.0
C1448 C 0.50697 0.31472 0.1883 0.0
C1449 C 0.51508 0.30759 0.17528 0.0
C1450 C 0.5268 0.3155 0.16777 0.0
C1451 C 0.53454 0.30876 0.15562 0.0
C1452 C 0.53066 0.29411 0.15084 0.0
C1453 C 0.519 0.28618 0.15818 0.0
C1454 C 0.51122 0.29287 0.17034 0.0
C1455 C 0.44094 0.32225 0.2102 0.0
C1456 C 0.43778 0.30675 0.21263 0.0
C1457 C 0.45549 0.32684 0.20564 0.0
C1458 C 0.46698 0.31597 0.20342 0.0
C1459 C 0.46354 0.30048 0.20502 0.0
C1460 C 0.4491 0.29591 0.20964 0.0
C1461 C 0.48305 0.3204 0.20124 0.0
C1462 C 0.49103 0.31426 0.18885 0.0
C1463 C 0.49108 0.32854 0.21257 0.0
C1464 C 0.48339 0.33513 0.22602 0.0
C1465 C 0.47636 0.32568 0.23684 0.0
C1466 C 0.46907 0.33202 0.24946 0.0
C1467 C 0.46886 0.34779 0.25146 0.0
C1468 C 0.476 0.35725 0.24085 0.0
C1469 C 0.48329 0.35096 0.22819 0.0
H1470 H 0.46322 0.35268 0.26125 0.0
H1471 H 0.53667 0.28891 0.14144 0.0
H1472 H 0.29184 0.20707 0.04517 0.0
H1473 H 0.30233 0.1959 0.02215 0.0
H1474 H 0.29896 0.15114 0.04204 0.0
H1475 H 0.28837 0.16237 0.06534 0.0
H1476 H 0.32594 0.17677 0.0128 0.0
H1477 H 0.28442 0.12927 0.01349 0.0
H1478 H 0.26154 0.12017 0.02706 0.0
H1479 H 0.2462 0.16624 0.03253 0.0
H1480 H 0.26894 0.17555 0.01888 0.0
H1481 H 0.28567 0.15791 0.93394 0.0
H1482 H 0.29602 0.14807 0.95801 0.0
H1483 H 0.30192 0.19409 0.97408 0.0
H1484 H 0.29157 0.20386 0.95038 0.0
H1485 H 0.28252 0.15318 0.98555 0.0
H1486 H 0.33139 0.1979 0.99563 0.0
H1487 H 0.35291 0.20845 0.98113 0.0
H1488 H 0.35302 0.16918 0.95211 0.0
H1489 H 0.33166 0.15822 0.96658 0.0
C1490 C 0.29362 0.19488 0.04479 0.0
C1491 C 0.28903 0.18555 0.05689 0.0
C1492 C 0.29979 0.18851 0.03169 0.0
C1493 C 0.30135 0.17268 0.03037 0.0
C1494 C 0.29784 0.16338 0.04287 0.0
C1495 C 0.29175 0.1698 0.05611 0.0
C1496 C 0.30393 0.16632 0.01502 0.0
C1497 C 0.31666 0.1713 0.00678 0.0
C1498 C 0.29214 0.15851 0.00735 0.0
C1499 C 0.27839 0.15306 0.01535 0.0
C1500 C 0.27613 0.13742 0.01759 0.0
C1501 C 0.2632 0.13224 0.02528 0.0
C1502 C 0.25245 0.14263 0.03069 0.0
C1503 C 0.25456 0.15821 0.02836 0.0
C1504 C 0.26744 0.16344 0.02065 0.0
C1505 C 0.2894 0.16587 0.94257 0.0
C1506 C 0.28767 0.18163 0.94042 0.0
C1507 C 0.29537 0.16025 0.95623 0.0
C1508 C 0.3 0.17035 0.9677 0.0
C1509 C 0.29877 0.18608 0.96525 0.0
C1510 C 0.29264 0.19166 0.95178 0.0
C1511 C 0.30389 0.16495 0.98315 0.0
C1512 C 0.29237 0.1577 0.99145 0.0
C1513 C 0.31681 0.17071 0.99082 0.0
C1514 C 0.3299 0.17718 0.98227 0.0
C1515 C 0.33609 0.1914 0.98628 0.0
C1516 C 0.34824 0.19749 0.97802 0.0
C1517 C 0.35433 0.18949 0.96571 0.0
C1518 C 0.34829 0.17537 0.96164 0.0
C1519 C 0.33614 0.16922 0.96986 0.0
H1520 H 0.36373 0.19424 0.95932 0.0
H1521 H 0.24246 0.13859 0.03667 0.0
H1522 H 0.28837 0.83356 0.06243 0.0
H1523 H 0.29711 0.84181 0.03721 0.0
H1524 H 0.29951 0.79494 0.02282 0.0
H1525 H 0.29093 0.78668 0.04781 0.0
H1526 H 0.32324 0.81213 0.01121 0.0
H1527 H 0.26707 0.81587 0.01748 0.0
H1528 H 0.24428 0.82687 0.02965 0.0
H1529 H 0.25953 0.87182 0.01804 0.0
H1530 H 0.28249 0.86104 0.00593 0.0
H1531 H 0.29064 0.78528 0.94679 0.0
H1532 H 0.30086 0.79454 0.97076 0.0
H1533 H 0.29661 0.84083 0.95495 0.0
H1534 H 0.28636 0.83152 0.93067 0.0
H1535 H 0.28177 0.83612 0.9814 0.0
H1536 H 0.33168 0.8289 0.96499 0.0
H1537 H 0.35342 0.81688 0.95199 0.0
H1538 H 0.35031 0.77836 0.98185 0.0
H1539 H 0.32841 0.79 0.99489 0.0
C1540 C 0.29098 0.82504 0.05392 0.0
C1541 C 0.28877 0.80948 0.05698 0.0
C1542 C 0.29602 0.82976 0.03958 0.0
C1543 C 0.29892 0.81898 0.02817 0.0
C1544 C 0.29744 0.80344 0.0315 0.0
C1545 C 0.29237 0.79874 0.04575 0.0
C1546 C 0.30159 0.8235 0.01219 0.0
C1547 C 0.31433 0.81756 0.00463 0.0
C1548 C 0.2903 0.83126 0.00376 0.0
C1549 C 0.27654 0.83769 0.01101 0.0
C1550 C 0.26559 0.8281 0.01762 0.0
C1551 C 0.25265 0.83429 0.02449 0.0
C1552 C 0.25048 0.85004 0.02467 0.0
C1553 C 0.26124 0.85963 0.01794 0.0
C1554 C 0.27421 0.85349 0.01108 0.0
C1555 C 0.29216 0.79742 0.94827 0.0
C1556 C 0.28755 0.80769 0.93698 0.0
C1557 C 0.29819 0.80271 0.96191 0.0
C1558 C 0.29967 0.81839 0.96458 0.0
C1559 C 0.29571 0.82869 0.95304 0.0
C1560 C 0.28983 0.82336 0.93924 0.0
C1561 C 0.30283 0.82359 0.98026 0.0
C1562 C 0.29119 0.83142 0.98786 0.0
C1563 C 0.31512 0.81753 0.98868 0.0
C1564 C 0.32838 0.81039 0.98096 0.0
C1565 C 0.33558 0.81784 0.96875 0.0
C1566 C 0.34794 0.81108 0.96137 0.0
C1567 C 0.35325 0.79687 0.9661 0.0
C1568 C 0.34621 0.78939 0.97823 0.0
C1569 C 0.33384 0.79609 0.98565 0.0
H1570 H 0.36282 0.79166 0.96037 0.0
H1571 H 0.24046 0.85481 0.02998 0.0
H1572 H 0.70447 0.791 0.55159 0.0
H1573 H 0.69898 0.8005 0.52621 0.0
H1574 H 0.6511 0.80228 0.53694 0.0
H1575 H 0.65655 0.79254 0.56256 0.0
H1576 H 0.65623 0.78732 0.51093 0.0
H1577 H 0.66972 0.83553 0.52959 0.0
H1578 H 0.68433 0.85447 0.54422 0.0
H1579 H 0.72379 0.8456 0.51684 0.0
H1580 H 0.70952 0.82644 0.50218 0.0
H1581 H 0.66486 0.79364 0.43097 0.0
H1582 H 0.65612 0.80395 0.45543 0.0
H1583 H 0.70212 0.80197 0.47254 0.0
H1584 H 0.71085 0.79209 0.4483 0.0
H1585 H 0.68759 0.82597 0.48432 0.0
H1586 H 0.67629 0.77099 0.47567 0.0
H1587 H 0.6629 0.7505 0.46189 0.0
H1588 H 0.62001 0.77202 0.47114 0.0
H1589 H 0.63321 0.7927 0.48486 0.0
C1590 C 0.69278 0.79356 0.54865 0.0
C1591 C 0.68093 0.79092 0.55902 0.0
C1592 C 0.68967 0.79918 0.53418 0.0
C1593 C 0.67465 0.80237 0.52977 0.0
C1594 C 0.66278 0.80004 0.54019 0.0
C1595 C 0.66591 0.79445 0.55477 0.0
C1596 C 0.67154 0.80628 0.51367 0.0
C1597 C 0.66265 0.79615 0.50515 0.0
C1598 C 0.67984 0.81783 0.50613 0.0
C1599 C 0.68849 0.82954 0.51475 0.0
C1600 C 0.68152 0.83757 0.52671 0.0
C1601 C 0.68976 0.84835 0.53502 0.0
C1602 C 0.70497 0.85125 0.53145 0.0
C1603 C 0.71199 0.84338 0.51956 0.0
C1604 C 0.70381 0.83258 0.51122 0.0
C1605 C 0.67312 0.79577 0.43986 0.0
C1606 C 0.68848 0.79179 0.43786 0.0
C1607 C 0.66812 0.80165 0.45381 0.0
C1608 C 0.67843 0.80352 0.46589 0.0
C1609 C 0.69393 0.80065 0.46341 0.0
C1610 C 0.6989 0.79484 0.44956 0.0
C1611 C 0.6733 0.80626 0.48171 0.0
C1612 C 0.68056 0.81769 0.49018 0.0
C1613 C 0.6636 0.79586 0.48925 0.0
C1614 C 0.65571 0.78343 0.4811 0.0
C1615 C 0.66401 0.77136 0.47469 0.0
C1616 C 0.65646 0.75973 0.4669 0.0
C1617 C 0.64062 0.75999 0.4656 0.0
C1618 C 0.63229 0.77186 0.47212 0.0
C1619 C 0.63979 0.78353 0.4799 0.0
H1620 H 0.63479 0.75097 0.45956 0.0
H1621 H 0.71133 0.85958 0.53791 0.0
H1622 H 0.70993 0.16103 0.06333 0.0
H1623 H 0.70078 0.15428 0.0378 0.0
H1624 H 0.70139 0.20169 0.02511 0.0
H1625 H 0.71045 0.20847 0.05039 0.0
H1626 H 0.67651 0.18633 0.01305 0.0
H1627 H 0.73212 0.17954 0.0187 0.0
H1628 H 0.75455 0.16729 0.03033 0.0
H1629 H 0.73753 0.12335 0.01743 0.0
H1630 H 0.7149 0.13537 0.00587 0.0
H1631 H 0.70477 0.20854 0.94367 0.0
H1632 H 0.69715 0.20166 0.96938 0.0
H1633 H 0.69914 0.15408 0.95747 0.0
H1634 H 0.7069 0.16094 0.93156 0.0
H1635 H 0.71571 0.16001 0.98214 0.0
H1636 H 0.66513 0.16907 0.96805 0.0
H1637 H 0.64338 0.18183 0.95579 0.0
H1638 H 0.65028 0.22116 0.98391 0.0
H1639 H 0.67222 0.20876 0.99618 0.0
C1640 C 0.70787 0.17 0.05514 0.0
C1641 C 0.71109 0.18525 0.05874 0.0
C1642 C 0.70262 0.16614 0.04061 0.0
C1643 C 0.70047 0.17749 0.02959 0.0
C1644 C 0.7029 0.19277 0.03348 0.0
C1645 C 0.70822 0.19661 0.04789 0.0
C1646 C 0.69749 0.17372 0.01347 0.0
C1647 C 0.68495 0.18045 0.00624 0.0
C1648 C 0.70819 0.16549 0.00473 0.0
C1649 C 0.72177 0.15831 0.01163 0.0
C1650 C 0.73313 0.16726 0.01845 0.0
C1651 C 0.74587 0.16037 0.02501 0.0
C1652 C 0.74744 0.14455 0.02467 0.0
C1653 C 0.73628 0.1356 0.01773 0.0
C1654 C 0.7235 0.14244 0.01118 0.0
C1655 C 0.70335 0.19662 0.94642 0.0
C1656 C 0.70657 0.18528 0.93566 0.0
C1657 C 0.69883 0.19269 0.9611 0.0
C1658 C 0.6974 0.17734 0.9653 0.0
C1659 C 0.70007 0.16598 0.95442 0.0
C1660 C 0.70452 0.16992 0.93965 0.0
C1661 C 0.69522 0.17348 0.98155 0.0
C1662 C 0.70681 0.1653 0.98886 0.0
C1663 C 0.68362 0.18037 0.99032 0.0
C1664 C 0.67037 0.18795 0.98305 0.0
C1665 C 0.66208 0.18047 0.97157 0.0
C1666 C 0.6497 0.18765 0.96462 0.0
C1667 C 0.64545 0.2023 0.96907 0.0
C1668 C 0.65357 0.2098 0.98049 0.0
C1669 C 0.66596 0.20269 0.98748 0.0
H1670 H 0.63587 0.20783 0.96367 0.0
H1671 H 0.75732 0.13924 0.02974 0.0
H1672 H 0.33328 0.20963 0.56524 0.0
H1673 H 0.34256 0.19967 0.54087 0.0
H1674 H 0.29662 0.19944 0.52358 0.0
H1675 H 0.28732 0.20935 0.54775 0.0
H1676 H 0.31399 0.17408 0.51389 0.0
H1677 H 0.3187 0.23059 0.51874 0.0
H1678 H 0.32977 0.25326 0.53108 0.0
H1679 H 0.37475 0.2361 0.52274 0.0
H1680 H 0.3639 0.21326 0.51048 0.0
H1681 H 0.28876 0.20585 0.44955 0.0
H1682 H 0.29801 0.19518 0.47322 0.0
H1683 H 0.34436 0.20087 0.45797 0.0
H1684 H 0.335 0.21176 0.43396 0.0
H1685 H 0.33988 0.21458 0.48433 0.0
H1686 H 0.33248 0.16487 0.46819 0.0
H1687 H 0.32078 0.14305 0.45504 0.0
H1688 H 0.28147 0.14642 0.48383 0.0
H1689 H 0.29278 0.16839 0.497 0.0
C1690 C 0.32515 0.20723 0.5563 0.0
C1691 C 0.3096 0.21046 0.55828 0.0
C1692 C 0.33047 0.20148 0.54245 0.0
C1693 C 0.32027 0.19883 0.53047 0.0
C1694 C 0.30466 0.20129 0.53275 0.0
C1695 C 0.29937 0.20712 0.5465 0.0
C1696 C 0.32564 0.19556 0.51489 0.0
C1697 C 0.31986 0.18274 0.50736 0.0
C1698 C 0.33404 0.20648 0.5066 0.0
C1699 C 0.34052 0.22019 0.51389 0.0
C1700 C 0.33095 0.23164 0.51963 0.0
C1701 C 0.33718 0.24451 0.52659 0.0
C1702 C 0.35296 0.2461 0.52774 0.0
C1703 C 0.36254 0.23484 0.52188 0.0
C1704 C 0.35636 0.22193 0.51493 0.0
C1705 C 0.30092 0.20456 0.45107 0.0
C1706 C 0.31117 0.20983 0.44005 0.0
C1707 C 0.30622 0.19823 0.46454 0.0
C1708 C 0.32191 0.19701 0.46732 0.0
C1709 C 0.33222 0.20155 0.45598 0.0
C1710 C 0.32687 0.20781 0.44233 0.0
C1711 C 0.32698 0.19374 0.48304 0.0
C1712 C 0.3348 0.20533 0.49074 0.0
C1713 C 0.32052 0.18162 0.49144 0.0
C1714 C 0.31356 0.16829 0.48366 0.0
C1715 C 0.32132 0.161 0.4717 0.0
C1716 C 0.31474 0.1486 0.46423 0.0
C1717 C 0.3004 0.14334 0.46861 0.0
C1718 C 0.29261 0.15047 0.48048 0.0
C1719 C 0.29912 0.16289 0.48799 0.0
H1720 H 0.29533 0.13374 0.4628 0.0
H1721 H 0.35776 0.25607 0.53313 0.0
H1722 H 0.7159 0.83273 0.06465 0.0
H1723 H 0.70894 0.83849 0.03815 0.0
H1724 H 0.69518 0.79183 0.03175 0.0
H1725 H 0.70238 0.786 0.05789 0.0
H1726 H 0.72052 0.80143 0.01463 0.0
H1727 H 0.66975 0.81844 0.02818 0.0
H1728 H 0.65136 0.83503 0.04134 0.0
H1729 H 0.67018 0.87413 0.01892 0.0
H1730 H 0.68884 0.8578 0.00578 0.0
H1731 H 0.69962 0.78562 0.94367 0.0
H1732 H 0.69287 0.79279 0.96961 0.0
H1733 H 0.71075 0.83783 0.96199 0.0
H1734 H 0.71707 0.8308 0.93563 0.0
H1735 H 0.68457 0.83411 0.98583 0.0
H1736 H 0.73561 0.81764 0.97295 0.0
H1737 H 0.75383 0.80123 0.9593 0.0
H1738 H 0.73509 0.76181 0.98124 0.0
H1739 H 0.71656 0.77798 0.99479 0.0
C1740 C 0.71087 0.82389 0.0577 0.0
C1741 C 0.70992 0.80887 0.06311 0.0
C1742 C 0.70687 0.82719 0.04262 0.0
C1743 C 0.70169 0.81553 0.03302 0.0
C1744 C 0.69922 0.80095 0.039 0.0
C1745 C 0.70339 0.79762 0.05389 0.0
C1746 C 0.70193 0.81734 0.01633 0.0
C1747 C 0.7126 0.80856 0.00838 0.0
C1748 C 0.69205 0.82713 0.00824 0.0
C1749 C 0.68082 0.83692 0.01615 0.0
C1750 C 0.67009 0.8306 0.02618 0.0
C1751 C 0.65958 0.83995 0.03361 0.0
C1752 C 0.65963 0.85563 0.03101 0.0
C1753 C 0.67017 0.86199 0.02094 0.0
C1754 C 0.6807 0.85268 0.0135 0.0
C1755 C 0.70158 0.79722 0.94735 0.0
C1756 C 0.7091 0.8076 0.93787 0.0
C1757 C 0.6976 0.80135 0.96209 0.0
C1758 C 0.7015 0.81576 0.96771 0.0
C1759 C 0.70758 0.82669 0.95779 0.0
C1760 C 0.71129 0.82263 0.94282 0.0
C1761 C 0.7027 0.8177 0.98434 0.0
C1762 C 0.69256 0.8272 0.9922 0.0
C1763 C 0.7132 0.80871 0.99255 0.0
C1764 C 0.72464 0.79901 0.98479 0.0
C1765 C 0.73533 0.80547 0.97479 0.0
C1766 C 0.7457 0.79621 0.96707 0.0
C1767 C 0.7456 0.78048 0.96938 0.0
C1768 C 0.73515 0.77399 0.97946 0.0
C1769 C 0.72472 0.7832 0.98717 0.0
H1770 H 0.75363 0.77333 0.96339 0.0
H1771 H 0.65148 0.86285 0.03677 0.0
H1772 H 0.70277 0.21899 0.55113 0.0
H1773 H 0.69701 0.21156 0.52514 0.0
H1774 H 0.65281 0.19547 0.53923 0.0
H1775 H 0.65848 0.20313 0.56551 0.0
H1776 H 0.69012 0.18466 0.51159 0.0
H1777 H 0.62909 0.20293 0.50825 0.0
H1778 H 0.61006 0.2184 0.52197 0.0
H1779 H 0.64512 0.24934 0.53615 0.0
H1780 H 0.66431 0.2341 0.5224 0.0
H1781 H 0.67788 0.19296 0.43015 0.0
H1782 H 0.66832 0.18483 0.45531 0.0
H1783 H 0.68145 0.22822 0.47412 0.0
H1784 H 0.6915 0.236 0.44945 0.0
H1785 H 0.6514 0.21549 0.48445 0.0
H1786 H 0.70695 0.20402 0.47728 0.0
H1787 H 0.72725 0.19069 0.46318 0.0
H1788 H 0.70435 0.14809 0.47011 0.0
H1789 H 0.68382 0.16126 0.4841 0.0
C1790 C 0.69183 0.21383 0.54877 0.0
C1791 C 0.68103 0.21177 0.56034 0.0
C1792 C 0.6886 0.20944 0.53391 0.0
C1793 C 0.67451 0.2029 0.53026 0.0
C1794 C 0.66375 0.20051 0.54182 0.0
C1795 C 0.66699 0.20495 0.55678 0.0
C1796 C 0.67104 0.1999 0.51406 0.0
C1797 C 0.68132 0.19099 0.50568 0.0
C1798 C 0.65946 0.20796 0.50633 0.0
C1799 C 0.64809 0.21731 0.51448 0.0
C1800 C 0.6327 0.21305 0.51429 0.0
C1801 C 0.6219 0.22177 0.52207 0.0
C1802 C 0.62639 0.23481 0.52997 0.0
C1803 C 0.64167 0.2392 0.53006 0.0
C1804 C 0.65251 0.23053 0.52229 0.0
C1805 C 0.67846 0.20075 0.43967 0.0
C1806 C 0.68551 0.215 0.43807 0.0
C1807 C 0.67295 0.19616 0.45393 0.0
C1808 C 0.67406 0.20602 0.46645 0.0
C1809 C 0.68033 0.22055 0.46453 0.0
C1810 C 0.6862 0.22492 0.45052 0.0
C1811 C 0.67093 0.2009 0.4821 0.0
C1812 C 0.65949 0.2083 0.49038 0.0
C1813 C 0.68147 0.19152 0.48977 0.0
C1814 C 0.69383 0.1836 0.48156 0.0
C1815 C 0.70623 0.19182 0.47571 0.0
C1816 C 0.71776 0.18431 0.46775 0.0
C1817 C 0.71707 0.16855 0.46572 0.0
C1818 C 0.70485 0.16029 0.47167 0.0
C1819 C 0.69326 0.16777 0.4796 0.0
H1820 H 0.72601 0.16275 0.45956 0.0
H1821 H 0.61802 0.24154 0.536 0.0
H1822 H 0.28931 0.78658 0.45179 0.0
H1823 H 0.2989 0.79693 0.47562 0.0
H1824 H 0.34495 0.79306 0.45907 0.0
H1825 H 0.3353 0.78286 0.43484 0.0
H1826 H 0.3396 0.77843 0.48691 0.0
H1827 H 0.33428 0.82757 0.46734 0.0
H1828 H 0.32279 0.84863 0.45284 0.0
H1829 H 0.28418 0.84853 0.48275 0.0
H1830 H 0.29528 0.8273 0.4973 0.0
H1831 H 0.33612 0.78749 0.56693 0.0
H1832 H 0.3454 0.79617 0.54204 0.0
H1833 H 0.29905 0.80091 0.52654 0.0
H1834 H 0.2898 0.79245 0.55119 0.0
H1835 H 0.31739 0.82268 0.51399 0.0
H1836 H 0.31829 0.7667 0.52296 0.0
H1837 H 0.32789 0.74412 0.53662 0.0
H1838 H 0.37382 0.75686 0.52585 0.0
H1839 H 0.36445 0.77961 0.51225 0.0
C1840 C 0.30146 0.78813 0.45312 0.0
C1841 C 0.31158 0.78381 0.44156 0.0
C1842 C 0.30693 0.79421 0.46667 0.0
C1843 C 0.32263 0.79595 0.46901 0.0
C1844 C 0.33279 0.79197 0.45736 0.0
C1845 C 0.32728 0.78612 0.44361 0.0
C1846 C 0.32801 0.79987 0.48445 0.0
C1847 C 0.33534 0.78842 0.49277 0.0
C1848 C 0.32245 0.81291 0.49204 0.0
C1849 C 0.31567 0.82582 0.48345 0.0
C1850 C 0.3233 0.83198 0.4708 0.0
C1851 C 0.31685 0.84396 0.46257 0.0
C1852 C 0.30277 0.84992 0.46688 0.0
C1853 C 0.29511 0.84392 0.47945 0.0
C1854 C 0.3015 0.83193 0.48772 0.0
C1855 C 0.32795 0.79075 0.5583 0.0
C1856 C 0.31225 0.78903 0.56085 0.0
C1857 C 0.33326 0.79573 0.54413 0.0
C1858 C 0.32292 0.79904 0.53241 0.0
C1859 C 0.30725 0.79847 0.53542 0.0
C1860 C 0.30197 0.79347 0.54948 0.0
C1861 C 0.32786 0.80068 0.5164 0.0
C1862 C 0.32249 0.81317 0.50801 0.0
C1863 C 0.33511 0.78855 0.5087 0.0
C1864 C 0.34071 0.77489 0.51678 0.0
C1865 C 0.33044 0.7647 0.52358 0.0
C1866 C 0.33583 0.75188 0.5313 0.0
C1867 C 0.35146 0.74908 0.53214 0.0
C1868 C 0.36172 0.75907 0.52522 0.0
C1869 C 0.35638 0.77193 0.51752 0.0
H1870 H 0.35562 0.73915 0.53812 0.0
H1871 H 0.29778 0.85918 0.46047 0.0
H1872 H 0.20066 0.38038 0.24923 0.0
H1873 H 0.17609 0.37546 0.238 0.0
H1874 H 0.15419 0.38543 0.28083 0.0
H1875 H 0.17924 0.39014 0.29241 0.0
H1876 H 0.14519 0.35915 0.27099 0.0
H1877 H 0.14478 0.40669 0.2482 0.0
H1878 H 0.15417 0.4299 0.2356 0.0
H1879 H 0.16558 0.40401 0.19578 0.0
H1880 H 0.15652 0.3806 0.2082 0.0
H1881 H 0.09649 0.31538 0.22334 0.0
H1882 H 0.10203 0.34056 0.23428 0.0
H1883 H 0.14759 0.33824 0.21618 0.0
H1884 H 0.14225 0.31298 0.20579 0.0
H1885 H 0.13273 0.36939 0.21688 0.0
H1886 H 0.14427 0.32296 0.24869 0.0
H1887 H 0.13496 0.29972 0.26141 0.0
H1888 H 0.10068 0.32581 0.28448 0.0
H1889 H 0.10973 0.34917 0.27172 0.0
C1890 C 0.19065 0.38178 0.25628 0.0
C1891 C 0.19193 0.38539 0.27179 0.0
C1892 C 0.17649 0.37921 0.24974 0.0
C1893 C 0.16318 0.3803 0.25847 0.0
C1894 C 0.1643 0.38466 0.27383 0.0
C1895 C 0.17859 0.38732 0.28043 0.0
C1896 C 0.14881 0.37424 0.25195 0.0
C1897 C 0.14198 0.36188 0.25939 0.0
C1898 C 0.14439 0.3778 0.23685 0.0
C1899 C 0.14988 0.39184 0.22916 0.0
C1900 C 0.14935 0.40591 0.23678 0.0
C1901 C 0.15462 0.41912 0.22966 0.0
C1902 C 0.16045 0.41843 0.21489 0.0
C1903 C 0.16101 0.40453 0.20721 0.0
C1904 C 0.15576 0.39129 0.21427 0.0
C1905 C 0.10748 0.32058 0.22127 0.0
C1906 C 0.11898 0.31243 0.21376 0.0
C1907 C 0.11061 0.3349 0.22747 0.0
C1908 C 0.12519 0.34123 0.22596 0.0
C1909 C 0.13622 0.33361 0.21729 0.0
C1910 C 0.13321 0.31919 0.21142 0.0
C1911 C 0.13021 0.35398 0.23567 0.0
C1912 C 0.13527 0.36743 0.22879 0.0
C1913 C 0.13279 0.35165 0.25137 0.0
C1914 C 0.12756 0.33772 0.2592 0.0
C1915 C 0.13471 0.3237 0.25644 0.0
C1916 C 0.12949 0.31052 0.26364 0.0
C1917 C 0.11722 0.31128 0.27373 0.0
C1918 C 0.11017 0.32523 0.27665 0.0
C1919 C 0.11533 0.33844 0.26944 0.0
H1920 H 0.11319 0.30106 0.2793 0.0
H1921 H 0.16453 0.42867 0.2094 0.0
H1922 H 0.09477 0.68191 0.78099 0.0
H1923 H 0.10156 0.65651 0.77122 0.0
H1924 H 0.14832 0.67079 0.76703 0.0
H1925 H 0.14152 0.69612 0.77617 0.0
H1926 H 0.11564 0.65372 0.741 0.0
H1927 H 0.16987 0.64072 0.77732 0.0
H1928 H 0.17744 0.64156 0.8043 0.0
H1929 H 0.13068 0.63755 0.81784 0.0
H1930 H 0.12282 0.63644 0.79095 0.0
H1931 H 0.18534 0.64239 0.70896 0.0
H1932 H 0.16066 0.64733 0.72065 0.0
H1933 H 0.15873 0.6009 0.73649 0.0
H1934 H 0.18342 0.59584 0.7243 0.0
H1935 H 0.15846 0.62202 0.75957 0.0
H1936 H 0.12906 0.61245 0.7164 0.0
H1937 H 0.1219 0.61217 0.6893 0.0
H1938 H 0.11894 0.66092 0.68929 0.0
H1939 H 0.12631 0.66154 0.71632 0.0
C1940 C 0.10654 0.67941 0.77833 0.0
C1941 C 0.11767 0.69086 0.77927 0.0
C1942 C 0.11037 0.66498 0.77274 0.0
C1943 C 0.12544 0.6618 0.76853 0.0
C1944 C 0.13667 0.67298 0.7704 0.0
C1945 C 0.13279 0.68744 0.77557 0.0
C1946 C 0.12952 0.64776 0.76026 0.0
C1947 C 0.12475 0.64647 0.74508 0.0
C1948 C 0.14102 0.63803 0.76584 0.0
C1949 C 0.14575 0.63847 0.78207 0.0
C1950 C 0.1612 0.63986 0.78603 0.0
C1951 C 0.16554 0.64043 0.80133 0.0
C1952 C 0.15455 0.63961 0.81278 0.0
C1953 C 0.13919 0.63821 0.80896 0.0
C1954 C 0.13478 0.63763 0.79369 0.0
C1955 C 0.17929 0.63308 0.71432 0.0
C1956 C 0.18611 0.61875 0.71571 0.0
C1957 C 0.16518 0.63587 0.72097 0.0
C1958 C 0.15781 0.62445 0.72938 0.0
C1959 C 0.16415 0.60979 0.7299 0.0
C1960 C 0.17818 0.60691 0.72293 0.0
C1961 C 0.14553 0.62901 0.73996 0.0
C1962 C 0.14883 0.62862 0.75558 0.0
C1963 C 0.13271 0.63722 0.73477 0.0
C1964 C 0.1282 0.63702 0.71846 0.0
C1965 C 0.12695 0.62312 0.71062 0.0
C1966 C 0.12285 0.62291 0.69525 0.0
C1967 C 0.11995 0.63652 0.68758 0.0
C1968 C 0.12114 0.65038 0.69526 0.0
C1969 C 0.12524 0.65066 0.71063 0.0
H1970 H 0.11678 0.63632 0.67568 0.0
H1971 H 0.15794 0.64006 0.82461 0.0
H1972 H 0.79887 0.62485 0.2521 0.0
H1973 H 0.82409 0.63008 0.24246 0.0
H1974 H 0.84375 0.6155 0.28503 0.0
H1975 H 0.81812 0.61032 0.295 0.0
H1976 H 0.85376 0.64284 0.27718 0.0
H1977 H 0.8531 0.59603 0.2522 0.0
H1978 H 0.84268 0.57427 0.23793 0.0
H1979 H 0.83502 0.60296 0.19916 0.0
H1980 H 0.84515 0.62497 0.21323 0.0
H1981 H 0.90531 0.68847 0.23719 0.0
H1982 H 0.8989 0.66317 0.24728 0.0
H1983 H 0.8586 0.66243 0.21919 0.0
H1984 H 0.86522 0.68741 0.20896 0.0
H1985 H 0.86958 0.63362 0.22378 0.0
H1986 H 0.85859 0.67984 0.25514 0.0
H1987 H 0.86751 0.70228 0.2695 0.0
H1988 H 0.89677 0.67376 0.29631 0.0
H1989 H 0.8881 0.65119 0.28198 0.0
C1990 C 0.80851 0.62255 0.25943 0.0
C1991 C 0.80645 0.61737 0.27442 0.0
C1992 C 0.82301 0.62533 0.25378 0.0
C1993 C 0.83588 0.62292 0.2629 0.0
C1994 C 0.83397 0.61726 0.27774 0.0
C1995 C 0.81935 0.61437 0.28342 0.0
C1996 C 0.85078 0.62863 0.25742 0.0
C1997 C 0.85766 0.64038 0.26573 0.0
C1998 C 0.85595 0.62541 0.2425 0.0
C1999 C 0.84997 0.61218 0.2338 0.0
C2000 C 0.84916 0.59773 0.24064 0.0
C2001 C 0.84329 0.58534 0.23259 0.0
C2002 C 0.83821 0.58723 0.21764 0.0
C2003 C 0.839 0.60151 0.21072 0.0
C2004 C 0.84486 0.61394 0.21873 0.0
C2005 C 0.89544 0.68253 0.23278 0.0
C2006 C 0.88571 0.68969 0.22236 0.0
C2007 C 0.89178 0.66816 0.23854 0.0
C2008 C 0.87816 0.66102 0.23415 0.0
C2009 C 0.8692 0.66767 0.2227 0.0
C2010 C 0.87292 0.68195 0.21689 0.0
C2011 C 0.87154 0.64841 0.24317 0.0
C2012 C 0.86627 0.63542 0.23553 0.0
C2013 C 0.86783 0.65043 0.25872 0.0
C2014 C 0.87283 0.66392 0.26744 0.0
C2015 C 0.86695 0.6784 0.26409 0.0
C2016 C 0.87196 0.69112 0.2722 0.0
C2017 C 0.88273 0.68945 0.28379 0.0
C2018 C 0.88846 0.67504 0.28732 0.0
C2019 C 0.8835 0.66229 0.27921 0.0
H2020 H 0.8866 0.69931 0.29005 0.0
H2021 H 0.83365 0.57762 0.21143 0.0
H2022 H 0.88913 0.31533 0.79212 0.0
H2023 H 0.88136 0.34072 0.78359 0.0
H2024 H 0.87337 0.32317 0.73847 0.0
H2025 H 0.88122 0.29798 0.74676 0.0
H2026 H 0.88353 0.35318 0.73787 0.0
H2027 H 0.84532 0.32176 0.76487 0.0
H2028 H 0.83622 0.30792 0.78755 0.0
H2029 H 0.84093 0.34843 0.81445 0.0
H2030 H 0.85022 0.36245 0.79193 0.0
H2031 H 0.81622 0.37569 0.70233 0.0
H2032 H 0.83996 0.36675 0.71367 0.0
H2033 H 0.82957 0.39141 0.75491 0.0
H2034 H 0.80537 0.39948 0.74384 0.0
H2035 H 0.83389 0.36462 0.76209 0.0
H2036 H 0.86338 0.39795 0.73256 0.0
H2037 H 0.87219 0.41206 0.70999 0.0
H2038 H 0.88456 0.37013 0.68824 0.0
H2039 H 0.87561 0.35572 0.71056 0.0
C2040 C 0.88609 0.31697 0.78029 0.0
C2041 C 0.88542 0.30456 0.7702 0.0
C2042 C 0.8817 0.3315 0.77544 0.0
C2043 C 0.87661 0.33376 0.76045 0.0
C2044 C 0.87726 0.32168 0.75007 0.0
C2045 C 0.88158 0.30722 0.7549 0.0
C2046 C 0.86813 0.34764 0.75608 0.0
C2047 C 0.87272 0.35587 0.74317 0.0
C2048 C 0.85431 0.35146 0.76335 0.0
C2049 C 0.84862 0.34307 0.77681 0.0
C2050 C 0.84448 0.32767 0.77565 0.0
C2051 C 0.83929 0.31981 0.78847 0.0
C2052 C 0.83804 0.32728 0.80245 0.0
C2053 C 0.84194 0.34265 0.80363 0.0
C2054 C 0.84717 0.35055 0.79085 0.0
C2055 C 0.81928 0.37955 0.71363 0.0
C2056 C 0.80898 0.38807 0.72232 0.0
C2057 C 0.83292 0.37455 0.72011 0.0
C2058 C 0.83665 0.3784 0.73521 0.0
C2059 C 0.82694 0.38818 0.74331 0.0
C2060 C 0.81314 0.3928 0.73699 0.0
C2061 C 0.84888 0.36998 0.74335 0.0
C2062 C 0.84495 0.36262 0.757 0.0
C2063 C 0.86333 0.36716 0.73678 0.0
C2064 C 0.86876 0.37574 0.72327 0.0
C2065 C 0.86788 0.39171 0.72293 0.0
C2066 C 0.87292 0.39978 0.71018 0.0
C2067 C 0.87892 0.392 0.69769 0.0
C2068 C 0.87992 0.37614 0.69793 0.0
C2069 C 0.8749 0.36802 0.71065 0.0
H2070 H 0.88281 0.39826 0.68782 0.0
H2071 H 0.83402 0.32117 0.81235 0.0
H2072 H 0.29289 0.18383 0.39298 0.0
H2073 H 0.28657 0.15806 0.38448 0.0
H2074 H 0.23991 0.17164 0.37778 0.0
H2075 H 0.24605 0.19731 0.38622 0.0
H2076 H 0.24314 0.14072 0.38751 0.0
H2077 H 0.26364 0.17672 0.34941 0.0
H2078 H 0.28371 0.19386 0.3398 0.0
H2079 H 0.31608 0.15731 0.34157 0.0
H2080 H 0.29621 0.14002 0.35137 0.0
H2081 H 0.20711 0.12021 0.32059 0.0
H2082 H 0.21852 0.12687 0.34494 0.0
H2083 H 0.26128 0.10758 0.33022 0.0
H2084 H 0.25002 0.10196 0.30541 0.0
H2085 H 0.26597 0.13448 0.33631 0.0
H2086 H 0.24201 0.0965 0.36508 0.0
H2087 H 0.22175 0.07939 0.37416 0.0
H2088 H 0.19616 0.11774 0.39026 0.0
H2089 H 0.21613 0.13513 0.38107 0.0
C2090 C 0.2812 0.18123 0.39005 0.0
C2091 C 0.27003 0.1927 0.38992 0.0
C2092 C 0.27761 0.16649 0.38528 0.0
C2093 C 0.26281 0.16302 0.38041 0.0
C2094 C 0.25139 0.17408 0.38155 0.0
C2095 C 0.25497 0.18881 0.38619 0.0
C2096 C 0.25966 0.1491 0.37153 0.0
C2097 C 0.24815 0.13913 0.37635 0.0
C2098 C 0.26664 0.1468 0.35724 0.0
C2099 C 0.27853 0.15716 0.35129 0.0
C2100 C 0.27507 0.17239 0.34784 0.0
C2101 C 0.28639 0.18212 0.34236 0.0
C2102 C 0.30117 0.17669 0.34013 0.0
C2103 C 0.30464 0.16151 0.34334 0.0
C2104 C 0.29336 0.15174 0.34887 0.0
C2105 C 0.21875 0.11684 0.32284 0.0
C2106 C 0.22777 0.11074 0.3112 0.0
C2107 C 0.2253 0.12055 0.33684 0.0
C2108 C 0.24085 0.1178 0.33951 0.0
C2109 C 0.24931 0.10995 0.32844 0.0
C2110 C 0.24289 0.10669 0.31428 0.0
C2111 C 0.24883 0.12616 0.35188 0.0
C2112 C 0.26127 0.1353 0.34769 0.0
C2113 C 0.24273 0.12753 0.36675 0.0
C2114 C 0.23061 0.11715 0.37235 0.0
C2115 C 0.23202 0.10131 0.37047 0.0
C2116 C 0.22058 0.09155 0.37565 0.0
C2117 C 0.20767 0.09747 0.38278 0.0
C2118 C 0.20618 0.11317 0.38475 0.0
C2119 C 0.21758 0.12298 0.37959 0.0
H2120 H 0.19883 0.08989 0.38677 0.0
H2121 H 0.30992 0.18424 0.33587 0.0
H2122 H 0.29937 0.74253 0.88244 0.0
H2123 H 0.3247 0.73587 0.87346 0.0
H2124 H 0.33927 0.78233 0.87957 0.0
H2125 H 0.31381 0.78914 0.88862 0.0
H2126 H 0.34234 0.7725 0.85061 0.0
H2127 H 0.35719 0.75461 0.89911 0.0
H2128 H 0.35484 0.74078 0.92339 0.0
H2129 H 0.3526 0.69835 0.89931 0.0
H2130 H 0.35469 0.71192 0.87486 0.0
H2131 H 0.40066 0.74965 0.80353 0.0
H2132 H 0.39127 0.75872 0.82814 0.0
H2133 H 0.36861 0.71573 0.83524 0.0
H2134 H 0.37888 0.70633 0.81113 0.0
H2135 H 0.37503 0.7279 0.86191 0.0
H2136 H 0.35155 0.74583 0.81503 0.0
H2137 H 0.35168 0.75856 0.79 0.0
H2138 H 0.36767 0.79978 0.81079 0.0
H2139 H 0.36781 0.78721 0.83592 0.0
C2140 C 0.30803 0.75129 0.8822 0.0
C2141 C 0.3045 0.76643 0.88598 0.0
C2142 C 0.32259 0.74741 0.87723 0.0
C2143 C 0.3339 0.75859 0.8759 0.0
C2144 C 0.33071 0.77352 0.8806 0.0
C2145 C 0.31615 0.77739 0.88572 0.0
C2146 C 0.34782 0.75517 0.86705 0.0
C2147 C 0.34983 0.76306 0.85335 0.0
C2148 C 0.35728 0.74259 0.87043 0.0
C2149 C 0.35605 0.73432 0.88511 0.0
C2150 C 0.35609 0.74234 0.89897 0.0
C2151 C 0.35482 0.73454 0.91277 0.0
C2152 C 0.35356 0.7187 0.91289 0.0
C2153 C 0.35359 0.71062 0.8992 0.0
C2154 C 0.35485 0.71836 0.88536 0.0
C2155 C 0.39413 0.74199 0.81065 0.0
C2156 C 0.39026 0.72741 0.80544 0.0
C2157 C 0.38874 0.74717 0.82466 0.0
C2158 C 0.3788 0.73809 0.83328 0.0
C2159 C 0.37617 0.72298 0.82875 0.0
C2160 C 0.38199 0.71763 0.81495 0.0
C2161 C 0.36917 0.74496 0.84534 0.0
C2162 C 0.36791 0.73768 0.85951 0.0
C2163 C 0.36009 0.75795 0.84233 0.0
C2164 C 0.35987 0.76555 0.82728 0.0
C2165 C 0.35516 0.75759 0.81423 0.0
C2166 C 0.35518 0.76477 0.80004 0.0
C2167 C 0.35972 0.77995 0.7988 0.0
C2168 C 0.3642 0.788 0.81176 0.0
C2169 C 0.36423 0.78086 0.82598 0.0
H2170 H 0.35974 0.78549 0.7878 0.0
H2171 H 0.35257 0.71268 0.92359 0.0
H2172 H 0.75156 0.80013 0.38013 0.0
H2173 H 0.75797 0.82466 0.36875 0.0
H2174 H 0.71105 0.83859 0.372 0.0
H2175 H 0.70454 0.81411 0.38364 0.0
H2176 H 0.72358 0.83841 0.34227 0.0
H2177 H 0.73516 0.85829 0.39132 0.0
H2178 H 0.74694 0.85851 0.41677 0.0
H2179 H 0.79138 0.85812 0.39649 0.0
H2180 H 0.77988 0.85767 0.37091 0.0
H2181 H 0.74306 0.89876 0.29561 0.0
H2182 H 0.73312 0.88751 0.31903 0.0
H2183 H 0.77817 0.8717 0.33053 0.0
H2184 H 0.78826 0.88371 0.30757 0.0
H2185 H 0.76306 0.87646 0.35571 0.0
H2186 H 0.75299 0.84998 0.30866 0.0
H2187 H 0.74303 0.84723 0.28256 0.0
H2188 H 0.69788 0.85693 0.2985 0.0
H2189 H 0.70763 0.85994 0.32468 0.0
C2190 C 0.74265 0.80853 0.37873 0.0
C2191 C 0.72751 0.80514 0.38261 0.0
C2192 C 0.74636 0.82259 0.37235 0.0
C2193 C 0.73498 0.83342 0.36961 0.0
C2194 C 0.71999 0.83038 0.37415 0.0
C2195 C 0.7163 0.8164 0.38078 0.0
C2196 C 0.73842 0.84671 0.35989 0.0
C2197 C 0.73188 0.84702 0.34536 0.0
C2198 C 0.74965 0.85754 0.36379 0.0
C2199 C 0.75664 0.85786 0.37917 0.0
C2200 C 0.74745 0.85813 0.39227 0.0
C2201 C 0.75408 0.85832 0.40673 0.0
C2202 C 0.7699 0.85831 0.40825 0.0
C2203 C 0.77912 0.85813 0.3953 0.0
C2204 C 0.77255 0.85793 0.38082 0.0
C2205 C 0.75089 0.89327 0.30338 0.0
C2206 C 0.76637 0.89186 0.2997 0.0
C2207 C 0.74521 0.88681 0.31673 0.0
C2208 C 0.75481 0.87833 0.32629 0.0
C2209 C 0.77051 0.8781 0.3233 0.0
C2210 C 0.77627 0.88493 0.31014 0.0
C2211 C 0.74836 0.868 0.338 0.0
C2212 C 0.75442 0.86814 0.3528 0.0
C2213 C 0.73694 0.85724 0.33427 0.0
C2214 C 0.73105 0.85538 0.31857 0.0
C2215 C 0.74095 0.85162 0.30657 0.0
C2216 C 0.73535 0.85001 0.29177 0.0
C2217 C 0.71984 0.85195 0.28887 0.0
C2218 C 0.7099 0.85547 0.30077 0.0
C2219 C 0.71545 0.85714 0.31558 0.0
H2220 H 0.71553 0.85069 0.2774 0.0
H2221 H 0.77501 0.85845 0.41945 0.0
H2222 H 0.68237 0.2155 0.8545 0.0
H2223 H 0.65813 0.22849 0.85162 0.0
H2224 H 0.65245 0.22907 0.90041 0.0
H2225 H 0.67696 0.21585 0.90329 0.0
H2226 H 0.62796 0.22799 0.85927 0.0
H2227 H 0.64206 0.26456 0.90835 0.0
H2228 H 0.66274 0.26986 0.92667 0.0
H2229 H 0.69596 0.26264 0.89155 0.0
H2230 H 0.67545 0.25742 0.87306 0.0
H2231 H 0.60039 0.29264 0.82212 0.0
H2232 H 0.60175 0.27931 0.84665 0.0
H2233 H 0.65079 0.28123 0.84474 0.0
H2234 H 0.64944 0.29447 0.82052 0.0
H2235 H 0.64117 0.28082 0.87405 0.0
H2236 H 0.63079 0.25194 0.82535 0.0
H2237 H 0.61369 0.24674 0.80366 0.0
H2238 H 0.57673 0.23842 0.83454 0.0
H2239 H 0.59364 0.2437 0.85639 0.0
C2240 C 0.67566 0.21785 0.86458 0.0
C2241 C 0.68153 0.21487 0.8791 0.0
C2242 C 0.66174 0.2252 0.86295 0.0
C2243 C 0.65354 0.22994 0.87581 0.0
C2244 C 0.65862 0.22555 0.89034 0.0
C2245 C 0.67257 0.21798 0.89197 0.0
C2246 C 0.64198 0.24203 0.87364 0.0
C2247 C 0.63033 0.23951 0.86302 0.0
C2248 C 0.64497 0.25707 0.87854 0.0
C2249 C 0.65729 0.26053 0.88943 0.0
C2250 C 0.65379 0.26417 0.90458 0.0
C2251 C 0.66546 0.26714 0.91497 0.0
C2252 C 0.68065 0.26656 0.91028 0.0
C2253 C 0.6842 0.26308 0.89517 0.0
C2254 C 0.67256 0.26014 0.88474 0.0
C2255 C 0.61141 0.29081 0.82733 0.0
C2256 C 0.62484 0.29433 0.81938 0.0
C2257 C 0.61217 0.28315 0.84131 0.0
C2258 C 0.62637 0.27904 0.84741 0.0
C2259 C 0.63969 0.28426 0.8403 0.0
C2260 C 0.63893 0.29176 0.82638 0.0
C2261 C 0.62795 0.2668 0.85893 0.0
C2262 C 0.63773 0.26929 0.87129 0.0
C2263 C 0.62343 0.25173 0.85544 0.0
C2264 C 0.61339 0.24828 0.84242 0.0
C2265 C 0.61901 0.24898 0.82747 0.0
C2266 C 0.60936 0.24606 0.81517 0.0
C2267 C 0.59412 0.24227 0.81772 0.0
C2268 C 0.58852 0.24137 0.83258 0.0
C2269 C 0.59813 0.24433 0.84492 0.0
H2270 H 0.58666 0.24003 0.80819 0.0
H2271 H 0.68967 0.26883 0.91835 0.0
H2272 H 0.24864 0.80314 0.61185 0.0
H2273 H 0.24117 0.82852 0.61987 0.0
H2274 H 0.28834 0.84199 0.62177 0.0
H2275 H 0.29596 0.81637 0.61366 0.0
H2276 H 0.27407 0.8453 0.64858 0.0
H2277 H 0.26426 0.86126 0.59838 0.0
H2278 H 0.25477 0.85965 0.57204 0.0
H2279 H 0.20886 0.85675 0.58847 0.0
H2280 H 0.21806 0.8581 0.61492 0.0
H2281 H 0.24232 0.89993 0.69387 0.0
H2282 H 0.25491 0.89349 0.66989 0.0
H2283 H 0.21519 0.86822 0.65593 0.0
H2284 H 0.20231 0.87539 0.67957 0.0
H2285 H 0.23117 0.87763 0.63122 0.0
H2286 H 0.24186 0.85194 0.6793 0.0
H2287 H 0.25012 0.85126 0.70613 0.0
H2288 H 0.29341 0.87008 0.6935 0.0
H2289 H 0.28529 0.87105 0.66661 0.0
C2290 C 0.25744 0.81159 0.61365 0.0
C2291 C 0.2729 0.80771 0.6124 0.0
C2292 C 0.25313 0.82618 0.61804 0.0
C2293 C 0.26418 0.83721 0.62132 0.0
C2294 C 0.27963 0.83367 0.61917 0.0
C2295 C 0.28396 0.81904 0.61459 0.0
C2296 C 0.25955 0.85108 0.6297 0.0
C2297 C 0.26509 0.85276 0.64455 0.0
C2298 C 0.24755 0.86054 0.62459 0.0
C2299 C 0.24188 0.85976 0.60868 0.0
C2300 C 0.25214 0.86018 0.5964 0.0
C2301 C 0.24681 0.85933 0.58144 0.0
C2302 C 0.23122 0.8581 0.57859 0.0
C2303 C 0.22093 0.85773 0.5907 0.0
C2304 C 0.2262 0.85858 0.60568 0.0
C2305 C 0.23605 0.89364 0.68531 0.0
C2306 C 0.22146 0.88801 0.68849 0.0
C2307 C 0.24325 0.88993 0.67165 0.0
C2308 C 0.23617 0.87999 0.66135 0.0
C2309 C 0.2209 0.87585 0.66375 0.0
C2310 C 0.21355 0.87991 0.67726 0.0
C2311 C 0.24538 0.87137 0.65015 0.0
C2312 C 0.24062 0.87062 0.63492 0.0
C2313 C 0.25796 0.86248 0.65492 0.0
C2314 C 0.26291 0.86175 0.67102 0.0
C2315 C 0.25311 0.856 0.68228 0.0
C2316 C 0.25776 0.85556 0.69748 0.0
C2317 C 0.27226 0.86067 0.70152 0.0
C2318 C 0.28216 0.86617 0.69036 0.0
C2319 C 0.27754 0.86668 0.67514 0.0
H2320 H 0.27584 0.86032 0.7133 0.0
H2321 H 0.22712 0.85744 0.56699 0.0
H2322 H 0.6839 0.79059 0.11045 0.0
H2323 H 0.65843 0.78231 0.11822 0.0
H2324 H 0.67656 0.73861 0.13121 0.0
H2325 H 0.70186 0.74664 0.12343 0.0
H2326 H 0.64741 0.73634 0.1188 0.0
H2327 H 0.67508 0.76708 0.15693 0.0
H2328 H 0.68763 0.79075 0.16534 0.0
H2329 H 0.64692 0.816 0.15572 0.0
H2330 H 0.63421 0.79247 0.1471 0.0
H2331 H 0.62065 0.70544 0.18649 0.0
H2332 H 0.63054 0.71512 0.16247 0.0
H2333 H 0.60471 0.75651 0.16847 0.0
H2334 H 0.59579 0.74719 0.19314 0.0
H2335 H 0.63131 0.76403 0.16522 0.0
H2336 H 0.60118 0.7313 0.13551 0.0
H2337 H 0.58842 0.70771 0.12733 0.0
H2338 H 0.63177 0.68639 0.12021 0.0
H2339 H 0.64482 0.70974 0.12856 0.0
C2340 C 0.68241 0.77912 0.11471 0.0
C2341 C 0.69498 0.76939 0.11662 0.0
C2342 C 0.66784 0.7744 0.11908 0.0
C2343 C 0.66566 0.75989 0.1254 0.0
C2344 C 0.67799 0.74983 0.12632 0.0
C2345 C 0.6925 0.75453 0.12202 0.0
C2346 C 0.65128 0.75577 0.13315 0.0
C2347 C 0.6437 0.74237 0.12891 0.0
C2348 C 0.64616 0.76402 0.14595 0.0
C2349 C 0.65378 0.77809 0.15121 0.0
C2350 C 0.66885 0.7777 0.15653 0.0
C2351 C 0.67598 0.79108 0.16134 0.0
C2352 C 0.66809 0.80488 0.16102 0.0
C2353 C 0.65303 0.80531 0.15593 0.0
C2354 C 0.64586 0.79197 0.15108 0.0
C2355 C 0.61667 0.71636 0.18236 0.0
C2356 C 0.60758 0.72565 0.19159 0.0
C2357 C 0.62224 0.72189 0.16854 0.0
C2358 C 0.6184 0.73661 0.16352 0.0
C2359 C 0.60796 0.74519 0.17209 0.0
C2360 C 0.60281 0.73986 0.18614 0.0
C2361 C 0.62756 0.74405 0.15137 0.0
C2362 C 0.63432 0.75814 0.1548 0.0
C2363 C 0.63176 0.73646 0.13777 0.0
C2364 C 0.62399 0.72231 0.13271 0.0
C2365 C 0.60801 0.72155 0.1323 0.0
C2366 C 0.60072 0.70822 0.12761 0.0
C2367 C 0.60928 0.69556 0.12326 0.0
C2368 C 0.62515 0.69621 0.12356 0.0
C2369 C 0.63251 0.70951 0.12824 0.0
H2370 H 0.60361 0.68524 0.11964 0.0
H2371 H 0.67363 0.81522 0.16475 0.0
H2372 H 0.77744 0.09541 0.68001 0.0
H2373 H 0.76316 0.09894 0.65606 0.0
H2374 H 0.76739 0.14758 0.66096 0.0
H2375 H 0.78126 0.14416 0.68469 0.0
H2376 H 0.73662 0.13482 0.66079 0.0
H2377 H 0.7863 0.13266 0.63464 0.0
H2378 H 0.80931 0.11904 0.62613 0.0
H2379 H 0.78157 0.08596 0.60328 0.0
H2380 H 0.75838 0.0993 0.61183 0.0
H2381 H 0.74171 0.18809 0.60325 0.0
H2382 H 0.75138 0.16294 0.60928 0.0
H2383 H 0.70545 0.14602 0.61296 0.0
H2384 H 0.69566 0.17146 0.60707 0.0
H2385 H 0.75089 0.13173 0.60627 0.0
H2386 H 0.70217 0.13302 0.64715 0.0
H2387 H 0.68162 0.15003 0.65607 0.0
H2388 H 0.71094 0.18872 0.65053 0.0
H2389 H 0.73167 0.1719 0.64178 0.0
C2390 C 0.77568 0.1068 0.67564 0.0
C2391 C 0.78023 0.11955 0.68419 0.0
C2392 C 0.76751 0.10879 0.66205 0.0
C2393 C 0.76409 0.12352 0.65694 0.0
C2394 C 0.76982 0.13613 0.66484 0.0
C2395 C 0.77774 0.13417 0.67836 0.0
C2396 C 0.75301 0.12639 0.64465 0.0
C2397 C 0.73945 0.13365 0.64881 0.0
C2398 C 0.7567 0.12481 0.6291 0.0
C2399 C 0.77063 0.11682 0.62407 0.0
C2400 C 0.78511 0.12238 0.62796 0.0
C2401 C 0.79819 0.11474 0.62309 0.0
C2402 C 0.79691 0.1016 0.61423 0.0
C2403 C 0.78255 0.09611 0.61018 0.0
C2404 C 0.76944 0.1037 0.61503 0.0
C2405 C 0.73366 0.17886 0.60471 0.0
C2406 C 0.71797 0.18178 0.60528 0.0
C2407 C 0.73921 0.1644 0.60797 0.0
C2408 C 0.72914 0.15271 0.61202 0.0
C2409 C 0.71341 0.15497 0.61005 0.0
C2410 C 0.70782 0.16952 0.60674 0.0
C2411 C 0.73494 0.14087 0.62252 0.0
C2412 C 0.74747 0.13194 0.61813 0.0
C2413 C 0.73058 0.14118 0.63803 0.0
C2414 C 0.71834 0.15126 0.64371 0.0
C2415 C 0.7042 0.14515 0.64791 0.0
C2416 C 0.69254 0.15475 0.65293 0.0
C2417 C 0.69496 0.17045 0.65383 0.0
C2418 C 0.70908 0.17657 0.64982 0.0
C2419 C 0.72078 0.16702 0.64487 0.0
H2420 H 0.6859 0.17786 0.65765 0.0
H2421 H 0.80704 0.09571 0.61046 0.0
H2422 H 0.31352 0.20909 0.10173 0.0
H2423 H 0.3385 0.21656 0.1115 0.0
H2424 H 0.32155 0.2617 0.12053 0.0
H2425 H 0.29672 0.25447 0.11066 0.0
H2426 H 0.35217 0.26187 0.11215 0.0
H2427 H 0.31802 0.23467 0.14725 0.0
H2428 H 0.30259 0.21239 0.15463 0.0
H2429 H 0.34198 0.18369 0.15111 0.0
H2430 H 0.35758 0.2058 0.14354 0.0
H2431 H 0.3756 0.29174 0.18222 0.0
H2432 H 0.3665 0.28273 0.15758 0.0
H2433 H 0.38824 0.23935 0.16543 0.0
H2434 H 0.39639 0.24811 0.19054 0.0
H2435 H 0.36093 0.23441 0.16064 0.0
H2436 H 0.3966 0.26372 0.13325 0.0
H2437 H 0.41195 0.28605 0.12604 0.0
H2438 H 0.37133 0.31068 0.1147 0.0
H2439 H 0.35569 0.2886 0.12205 0.0
C2440 C 0.3152 0.22071 0.10545 0.0
C2441 C 0.30301 0.23108 0.10575 0.0
C2442 C 0.3295 0.22496 0.11099 0.0
C2443 C 0.33179 0.23962 0.11693 0.0
C2444 C 0.32003 0.25034 0.116 0.0
C2445 C 0.30577 0.24611 0.1105 0.0
C2446 C 0.34528 0.24317 0.12635 0.0
C2447 C 0.35425 0.25588 0.12273 0.0
C2448 C 0.34823 0.23503 0.1399 0.0
C2449 C 0.3389 0.22182 0.14465 0.0
C2450 C 0.32335 0.22358 0.14798 0.0
C2451 C 0.31459 0.211 0.1522 0.0
C2452 C 0.32129 0.19663 0.15328 0.0
C2453 C 0.33679 0.19483 0.15022 0.0
C2454 C 0.3456 0.20737 0.14597 0.0
C2455 C 0.37887 0.28049 0.1784 0.0
C2456 C 0.38655 0.27055 0.1882 0.0
C2457 C 0.37375 0.27534 0.16424 0.0
C2458 C 0.37665 0.2603 0.15955 0.0
C2459 C 0.38574 0.25094 0.16879 0.0
C2460 C 0.39044 0.25594 0.1831 0.0
C2461 C 0.36781 0.25353 0.14679 0.0
C2462 C 0.35951 0.24021 0.14983 0.0
C2463 C 0.36562 0.26111 0.13272 0.0
C2464 C 0.37496 0.27448 0.12827 0.0
C2465 C 0.39092 0.27393 0.12932 0.0
C2466 C 0.39968 0.28654 0.12518 0.0
C2467 C 0.39262 0.29977 0.11993 0.0
C2468 C 0.37678 0.30041 0.11877 0.0
C2469 C 0.36797 0.28783 0.12288 0.0
H2470 H 0.39943 0.30953 0.11673 0.0
H2471 H 0.31448 0.18689 0.1565 0.0
H2472 H 0.81807 0.59344 0.7219 0.0
H2473 H 0.84374 0.59723 0.73245 0.0
H2474 H 0.84293 0.64384 0.717 0.0
H2475 H 0.81748 0.64007 0.70671 0.0
H2476 H 0.87252 0.63164 0.71729 0.0
H2477 H 0.826 0.63489 0.75221 0.0
H2478 H 0.80431 0.62132 0.76387 0.0
H2479 H 0.83444 0.5861 0.77935 0.0
H2480 H 0.85625 0.59946 0.76768 0.0
H2481 H 0.86845 0.6969 0.75342 0.0
H2482 H 0.86455 0.67163 0.74334 0.0
H2483 H 0.89182 0.65252 0.77936 0.0
H2484 H 0.89603 0.67827 0.78973 0.0
H2485 H 0.86145 0.63775 0.77232 0.0
H2486 H 0.90811 0.64774 0.74845 0.0
H2487 H 0.92791 0.66371 0.73665 0.0
H2488 H 0.89778 0.67424 0.69968 0.0
H2489 H 0.87771 0.65853 0.71134 0.0
C2490 C 0.82376 0.60424 0.72019 0.0
C2491 C 0.81597 0.6165 0.71354 0.0
C2492 C 0.83836 0.60641 0.72624 0.0
C2493 C 0.8452 0.62084 0.72561 0.0
C2494 C 0.83795 0.63257 0.71752 0.0
C2495 C 0.82339 0.63046 0.71168 0.0
C2496 C 0.85791 0.62514 0.7358 0.0
C2497 C 0.8705 0.63258 0.72942 0.0
C2498 C 0.85562 0.62586 0.75173 0.0
C2499 C 0.84267 0.61811 0.75911 0.0
C2500 C 0.82795 0.62428 0.75816 0.0
C2501 C 0.81566 0.61661 0.76473 0.0
C2502 C 0.818 0.60285 0.77235 0.0
C2503 C 0.83265 0.59675 0.77345 0.0
C2504 C 0.84497 0.60436 0.76687 0.0
C2505 C 0.87373 0.68744 0.75929 0.0
C2506 C 0.88268 0.68969 0.77235 0.0
C2507 C 0.87152 0.67296 0.75344 0.0
C2508 C 0.87817 0.66028 0.76042 0.0
C2509 C 0.88676 0.66224 0.77373 0.0
C2510 C 0.88909 0.67691 0.77964 0.0
C2511 C 0.87529 0.64521 0.75354 0.0
C2512 C 0.86444 0.63585 0.76049 0.0
C2513 C 0.87928 0.64266 0.73815 0.0
C2514 C 0.89142 0.65181 0.73074 0.0
C2515 C 0.9057 0.65345 0.73779 0.0
C2516 C 0.91697 0.66248 0.73114 0.0
C2517 C 0.91412 0.66994 0.7174 0.0
C2518 C 0.89999 0.66838 0.71028 0.0
C2519 C 0.88868 0.65936 0.71689 0.0
H2520 H 0.92285 0.67697 0.71229 0.0
H2521 H 0.80847 0.59692 0.7774 0.0
H2522 H 0.87952 0.31463 0.20718 0.0
H2523 H 0.87215 0.33923 0.21756 0.0
H2524 H 0.89565 0.32866 0.25945 0.0
H2525 H 0.902 0.30353 0.24934 0.0
H2526 H 0.86908 0.33382 0.26613 0.0
H2527 H 0.90302 0.36272 0.23699 0.0
H2528 H 0.9179 0.37122 0.21479 0.0
H2529 H 0.87671 0.383 0.19133 0.0
H2530 H 0.86155 0.37436 0.21326 0.0
H2531 H 0.81631 0.38896 0.29114 0.0
H2532 H 0.84236 0.38133 0.2847 0.0
H2533 H 0.82793 0.37052 0.23906 0.0
H2534 H 0.80208 0.37813 0.24529 0.0
H2535 H 0.85755 0.38243 0.23999 0.0
H2536 H 0.82605 0.34367 0.26633 0.0
H2537 H 0.81133 0.33467 0.28849 0.0
H2538 H 0.84998 0.34208 0.31746 0.0
H2539 H 0.86486 0.35128 0.29546 0.0
C2540 C 0.88361 0.31785 0.21836 0.0
C2541 C 0.89117 0.30726 0.22756 0.0
C2542 C 0.8795 0.33201 0.2243 0.0
C2543 C 0.88329 0.33591 0.23938 0.0
C2544 C 0.89246 0.32591 0.24786 0.0
C2545 C 0.89613 0.31159 0.24209 0.0
C2546 C 0.8749 0.34838 0.24717 0.0
C2547 C 0.8671 0.34469 0.26064 0.0
C2548 C 0.8721 0.36261 0.24013 0.0
C2549 C 0.88113 0.36787 0.22682 0.0
C2550 C 0.89711 0.36704 0.22707 0.0
C2551 C 0.9056 0.3719 0.21453 0.0
C2552 C 0.89826 0.37765 0.20166 0.0
C2553 C 0.88239 0.37857 0.20132 0.0
C2554 C 0.87384 0.37373 0.21383 0.0
C2555 C 0.81876 0.38524 0.27965 0.0
C2556 C 0.80706 0.38382 0.26882 0.0
C2557 C 0.83366 0.38097 0.27599 0.0
C2558 C 0.83702 0.37527 0.26144 0.0
C2559 C 0.82559 0.37494 0.25033 0.0
C2560 C 0.81075 0.37911 0.25399 0.0
C2561 C 0.8515 0.36732 0.25826 0.0
C2562 C 0.86029 0.37185 0.24572 0.0
C2563 C 0.85539 0.3539 0.26618 0.0
C2564 C 0.84647 0.34833 0.27934 0.0
C2565 C 0.83136 0.34346 0.27746 0.0
C2566 C 0.823 0.33832 0.28997 0.0
C2567 C 0.8297 0.33785 0.30439 0.0
C2568 C 0.84479 0.34248 0.3063 0.0
C2569 C 0.85319 0.34767 0.29382 0.0
H2570 H 0.82321 0.33386 0.31406 0.0
H2571 H 0.90485 0.3814 0.19196 0.0
H2572 H 0.12214 0.32017 0.79553 0.0
H2573 H 0.12937 0.3447 0.78478 0.0
H2574 H 0.10275 0.33499 0.74461 0.0
H2575 H 0.09636 0.31 0.75507 0.0
H2576 H 0.12935 0.33942 0.73638 0.0
H2577 H 0.09737 0.36871 0.76755 0.0
H2578 H 0.08414 0.37722 0.79076 0.0
H2579 H 0.12694 0.38869 0.8113 0.0
H2580 H 0.14047 0.38003 0.78832 0.0
H2581 H 0.18125 0.39259 0.70726 0.0
H2582 H 0.15532 0.3861 0.71532 0.0
H2583 H 0.17165 0.37737 0.76078 0.0
H2584 H 0.1973 0.384 0.75296 0.0
H2585 H 0.14242 0.38829 0.76126 0.0
H2586 H 0.17229 0.34924 0.73367 0.0
H2587 H 0.1858 0.33992 0.71088 0.0
H2588 H 0.14564 0.34692 0.68394 0.0
H2589 H 0.13196 0.35644 0.70658 0.0
C2590 C 0.11732 0.3236 0.78471 0.0
C2591 C 0.10877 0.31331 0.77607 0.0
C2592 C 0.12138 0.33769 0.77855 0.0
C2593 C 0.11664 0.34179 0.7638 0.0
C2594 C 0.10664 0.3321 0.75595 0.0
C2595 C 0.10293 0.31787 0.76194 0.0
C2596 C 0.12472 0.35415 0.75551 0.0
C2597 C 0.13168 0.35035 0.74161 0.0
C2598 C 0.12799 0.36841 0.76226 0.0
C2599 C 0.11995 0.37369 0.77617 0.0
C2600 C 0.10398 0.37296 0.77704 0.0
C2601 C 0.09642 0.37782 0.79017 0.0
C2602 C 0.1047 0.38349 0.8025 0.0
C2603 C 0.12055 0.38432 0.80172 0.0
C2604 C 0.12817 0.37947 0.78863 0.0
C2605 C 0.17921 0.38969 0.71906 0.0
C2606 C 0.19138 0.38842 0.72938 0.0
C2607 C 0.1644 0.38602 0.72365 0.0
C2608 C 0.16161 0.38102 0.7386 0.0
C2609 C 0.17351 0.38117 0.7492 0.0
C2610 C 0.18824 0.38479 0.74464 0.0
C2611 C 0.14733 0.37307 0.74274 0.0
C2612 C 0.13935 0.37767 0.7558 0.0
C2613 C 0.14301 0.35951 0.73526 0.0
C2614 C 0.15119 0.35371 0.72172 0.0
C2615 C 0.16639 0.34886 0.72286 0.0
C2616 C 0.17406 0.34354 0.70999 0.0
C2617 C 0.16659 0.34287 0.69596 0.0
C2618 C 0.15142 0.34748 0.6948 0.0
C2619 C 0.1437 0.35284 0.70764 0.0
H2620 H 0.17255 0.33875 0.686 0.0
H2621 H 0.09882 0.38725 0.81265 0.0
H2622 H 0.19357 0.59436 0.24879 0.0
H2623 H 0.16867 0.601 0.23823 0.0
H2624 H 0.15849 0.62682 0.27874 0.0
H2625 H 0.183 0.61935 0.28968 0.0
H2626 H 0.13252 0.61753 0.2656 0.0
H2627 H 0.17939 0.64252 0.24895 0.0
H2628 H 0.20512 0.64267 0.23769 0.0
H2629 H 0.18755 0.62266 0.19672 0.0
H2630 H 0.16174 0.62223 0.20784 0.0
H2631 H 0.11378 0.69223 0.2493 0.0
H2632 H 0.12096 0.66645 0.2562 0.0
H2633 H 0.11756 0.65273 0.20918 0.0
H2634 H 0.11035 0.67875 0.20213 0.0
H2635 H 0.14543 0.64871 0.22035 0.0
H2636 H 0.09645 0.63402 0.23593 0.0
H2637 H 0.07134 0.63624 0.24818 0.0
H2638 H 0.09267 0.63927 0.29202 0.0
H2639 H 0.11794 0.63732 0.28004 0.0
C2640 C 0.1857 0.60092 0.25565 0.0
C2641 C 0.19014 0.60655 0.26991 0.0
C2642 C 0.17152 0.60472 0.24962 0.0
C2643 C 0.16193 0.6148 0.25749 0.0
C2644 C 0.16572 0.6191 0.27243 0.0
C2645 C 0.17974 0.61489 0.27865 0.0
C2646 C 0.14985 0.62326 0.24928 0.0
C2647 C 0.13523 0.6243 0.25565 0.0
C2648 C 0.15328 0.63177 0.23602 0.0
C2649 C 0.16872 0.63217 0.22927 0.0
C2650 C 0.18105 0.6381 0.23756 0.0
C2651 C 0.19563 0.63823 0.23122 0.0
C2652 C 0.19797 0.63263 0.21652 0.0
C2653 C 0.18572 0.62694 0.20812 0.0
C2654 C 0.17113 0.62675 0.21444 0.0
C2655 C 0.11418 0.68365 0.24045 0.0
C2656 C 0.11183 0.68757 0.22513 0.0
C2657 C 0.11808 0.66883 0.24445 0.0
C2658 C 0.11975 0.65762 0.23322 0.0
C2659 C 0.11624 0.6612 0.21804 0.0
C2660 C 0.11218 0.67607 0.21402 0.0
C2661 C 0.12822 0.64356 0.23703 0.0
C2662 C 0.14231 0.64149 0.22988 0.0
C2663 C 0.12433 0.63439 0.24969 0.0
C2664 C 0.10914 0.63553 0.25704 0.0
C2665 C 0.09582 0.63525 0.24817 0.0
C2666 C 0.08154 0.63646 0.25508 0.0
C2667 C 0.08041 0.6379 0.27087 0.0
C2668 C 0.09356 0.63813 0.27979 0.0
C2669 C 0.10787 0.63694 0.27294 0.0
H2670 H 0.06935 0.63883 0.27619 0.0
H2671 H 0.20927 0.63274 0.21162 0.0
H2672 H 0.78571 0.89629 0.67415 0.0
H2673 H 0.77306 0.89531 0.64925 0.0
H2674 H 0.77405 0.84625 0.65088 0.0
H2675 H 0.78669 0.84718 0.67541 0.0
H2676 H 0.77513 0.85594 0.62173 0.0
H2677 H 0.74403 0.86703 0.669 0.0
H2678 H 0.73809 0.88432 0.69035 0.0
H2679 H 0.73233 0.92136 0.65899 0.0
H2680 H 0.73834 0.90425 0.63749 0.0
H2681 H 0.70878 0.81616 0.63965 0.0
H2682 H 0.72188 0.84033 0.64234 0.0
H2683 H 0.7243 0.84466 0.59346 0.0
H2684 H 0.711 0.82016 0.59078 0.0
H2685 H 0.72194 0.87018 0.63404 0.0
H2686 H 0.75952 0.85525 0.58647 0.0
H2687 H 0.7653 0.83445 0.56845 0.0
H2688 H 0.75772 0.80151 0.60374 0.0
H2689 H 0.75198 0.82216 0.62194 0.0
C2690 C 0.78376 0.88533 0.66887 0.0
C2691 C 0.78689 0.87179 0.67681 0.0
C2692 C 0.7765 0.88479 0.65466 0.0
C2693 C 0.77237 0.87071 0.64831 0.0
C2694 C 0.7771 0.85726 0.65551 0.0
C2695 C 0.78423 0.85779 0.66963 0.0
C2696 C 0.76068 0.86942 0.6362 0.0
C2697 C 0.76355 0.85959 0.62395 0.0
C2698 C 0.74556 0.87428 0.63892 0.0
C2699 C 0.7417 0.88445 0.65173 0.0
C2700 C 0.74148 0.87887 0.6667 0.0
C2701 C 0.73813 0.88862 0.67881 0.0
C2702 C 0.73486 0.90393 0.67603 0.0
C2703 C 0.73489 0.9095 0.66113 0.0
C2704 C 0.73826 0.8998 0.64898 0.0
C2705 C 0.71156 0.82256 0.62948 0.0
C2706 C 0.70907 0.81631 0.61504 0.0
C2707 C 0.71898 0.83644 0.631 0.0
C2708 C 0.72427 0.84425 0.6181 0.0
C2709 C 0.72037 0.8388 0.60356 0.0
C2710 C 0.71274 0.82486 0.60204 0.0
C2711 C 0.73636 0.85579 0.62043 0.0
C2712 C 0.73358 0.86759 0.63082 0.0
C2713 C 0.75155 0.85256 0.61617 0.0
C2714 C 0.75528 0.84017 0.60546 0.0
C2715 C 0.75915 0.84356 0.59035 0.0
C2716 C 0.7624 0.83182 0.58012 0.0
C2717 C 0.76186 0.81667 0.58494 0.0
C2718 C 0.75813 0.81324 0.60002 0.0
C2719 C 0.7549 0.82494 0.61029 0.0
H2720 H 0.76434 0.80759 0.577 0.0
H2721 H 0.73228 0.91148 0.68541 0.0
H2722 H 0.62322 0.29323 0.17531 0.0
H2723 H 0.62914 0.28052 0.15134 0.0
H2724 H 0.60249 0.24167 0.16533 0.0
H2725 H 0.59729 0.25417 0.18965 0.0
H2726 H 0.62931 0.23308 0.16097 0.0
H2727 H 0.59588 0.26098 0.13019 0.0
H2728 H 0.58197 0.28313 0.12012 0.0
H2729 H 0.62395 0.30297 0.10498 0.0
H2730 H 0.63817 0.28107 0.11517 0.0
H2731 H 0.67955 0.19977 0.10851 0.0
H2732 H 0.65373 0.2083 0.11494 0.0
H2733 H 0.6703 0.25416 0.12054 0.0
H2734 H 0.69589 0.2458 0.11417 0.0
H2735 H 0.64038 0.25342 0.10954 0.0
H2736 H 0.67186 0.23045 0.15019 0.0
H2737 H 0.68628 0.20903 0.16123 0.0
H2738 H 0.6468 0.18044 0.15785 0.0
H2739 H 0.63222 0.20169 0.14662 0.0
C2740 C 0.61809 0.28228 0.17292 0.0
C2741 C 0.60987 0.2746 0.1842 0.0
C2742 C 0.62139 0.275 0.15917 0.0
C2743 C 0.61629 0.26005 0.15647 0.0
C2744 C 0.6066 0.25315 0.16714 0.0
C2745 C 0.60358 0.26029 0.181 0.0
C2746 C 0.6239 0.25065 0.14464 0.0
C2747 C 0.63118 0.23727 0.14951 0.0
C2748 C 0.62657 0.25608 0.12971 0.0
C2749 C 0.61811 0.26933 0.12348 0.0
C2750 C 0.60218 0.2701 0.1248 0.0
C2751 C 0.59423 0.28261 0.11905 0.0
C2752 C 0.60207 0.29444 0.11191 0.0
C2753 C 0.61789 0.29378 0.11049 0.0
C2754 C 0.6259 0.28129 0.11622 0.0
C2755 C 0.67757 0.21173 0.11072 0.0
C2756 C 0.68977 0.22207 0.11121 0.0
C2757 C 0.66283 0.21659 0.11432 0.0
C2758 C 0.66016 0.23184 0.11835 0.0
C2759 C 0.67209 0.24236 0.11744 0.0
C2760 C 0.68677 0.23752 0.11399 0.0
C2761 C 0.64605 0.23648 0.12626 0.0
C2762 C 0.63772 0.24894 0.12072 0.0
C2763 C 0.64232 0.23026 0.14061 0.0
C2764 C 0.65104 0.21755 0.14741 0.0
C2765 C 0.66631 0.21956 0.15173 0.0
C2766 C 0.6745 0.20747 0.15802 0.0
C2767 C 0.66748 0.19337 0.16019 0.0
C2768 C 0.65224 0.19135 0.15612 0.0
C2769 C 0.64401 0.20341 0.14979 0.0
H2770 H 0.67384 0.18402 0.16507 0.0
H2771 H 0.59589 0.30413 0.10748 0.0
H2772 H 0.29513 0.18073 0.61024 0.0
H2773 H 0.28898 0.15526 0.61981 0.0
H2774 H 0.24127 0.16677 0.61979 0.0
H2775 H 0.24731 0.19211 0.61036 0.0
H2776 H 0.27585 0.15408 0.6479 0.0
H2777 H 0.21972 0.13489 0.61829 0.0
H2778 H 0.20893 0.13401 0.59242 0.0
H2779 H 0.2539 0.13321 0.57338 0.0
H2780 H 0.26499 0.13385 0.59913 0.0
H2781 H 0.20947 0.11519 0.68406 0.0
H2782 H 0.22003 0.12437 0.65996 0.0
H2783 H 0.26379 0.10563 0.67197 0.0
H2784 H 0.25346 0.0972 0.69639 0.0
H2785 H 0.23553 0.11688 0.63461 0.0
H2786 H 0.29057 0.132 0.66669 0.0
H2787 H 0.29964 0.13548 0.69306 0.0
H2788 H 0.25464 0.14833 0.70711 0.0
H2789 H 0.24538 0.14514 0.6808 0.0
C2790 C 0.28331 0.17763 0.61178 0.0
C2791 C 0.27171 0.18846 0.60981 0.0
C2792 C 0.27981 0.16309 0.61723 0.0
C2793 C 0.26467 0.15912 0.62049 0.0
C2794 C 0.25301 0.16949 0.61718 0.0
C2795 C 0.25649 0.18404 0.61193 0.0
C2796 C 0.2612 0.14574 0.63012 0.0
C2797 C 0.26743 0.1456 0.64479 0.0
C2798 C 0.24978 0.13507 0.62624 0.0
C2799 C 0.24319 0.13448 0.61068 0.0
C2800 C 0.22732 0.13442 0.6086 0.0
C2801 C 0.22115 0.13399 0.59395 0.0
C2802 C 0.23072 0.13358 0.58126 0.0
C2803 C 0.2465 0.13357 0.58321 0.0
C2804 C 0.25273 0.13399 0.59784 0.0
C2805 C 0.22121 0.11262 0.6813 0.0
C2806 C 0.23077 0.1058 0.69211 0.0
C2807 C 0.22723 0.11782 0.66752 0.0
C2808 C 0.2428 0.11604 0.66436 0.0
C2809 C 0.25183 0.10742 0.67434 0.0
C2810 C 0.24593 0.10261 0.68826 0.0
C2811 C 0.25003 0.12548 0.65238 0.0
C2812 C 0.24439 0.12499 0.63744 0.0
C2813 C 0.26176 0.13591 0.65605 0.0
C2814 C 0.26727 0.13812 0.67185 0.0
C2815 C 0.28264 0.1356 0.67541 0.0
C2816 C 0.28781 0.13753 0.69034 0.0
C2817 C 0.27771 0.14206 0.70176 0.0
C2818 C 0.26244 0.14477 0.69827 0.0
C2819 C 0.25723 0.14291 0.68336 0.0
H2820 H 0.28173 0.1435 0.71331 0.0
H2821 H 0.22592 0.13326 0.56993 0.0
H2822 H 0.31955 0.7957 0.12207 0.0
H2823 H 0.34432 0.78675 0.1308 0.0
H2824 H 0.33961 0.74652 0.10295 0.0
H2825 H 0.31433 0.75511 0.09507 0.0
H2826 H 0.3428 0.73812 0.12964 0.0
H2827 H 0.37174 0.77213 0.10033 0.0
H2828 H 0.37933 0.7962 0.08811 0.0
H2829 H 0.38617 0.81661 0.13195 0.0
H2830 H 0.3784 0.79276 0.14446 0.0
H2831 H 0.39502 0.71196 0.1842 0.0
H2832 H 0.38902 0.7201 0.15821 0.0
H2833 H 0.37594 0.76429 0.17505 0.0
H2834 H 0.3821 0.75644 0.20081 0.0
H2835 H 0.38856 0.76638 0.14658 0.0
H2836 H 0.34997 0.73524 0.17322 0.0
H2837 H 0.34143 0.71155 0.18564 0.0
H2838 H 0.35284 0.68616 0.14547 0.0
H2839 H 0.36159 0.70972 0.1329 0.0
C2840 C 0.32413 0.78527 0.11736 0.0
C2841 C 0.31514 0.77601 0.10802 0.0
C2842 C 0.33837 0.78016 0.12226 0.0
C2843 C 0.34393 0.76589 0.11757 0.0
C2844 C 0.33557 0.7575 0.10682 0.0
C2845 C 0.32117 0.76241 0.10227 0.0
C2846 C 0.35631 0.7584 0.12637 0.0
C2847 C 0.3531 0.74413 0.13282 0.0
C2848 C 0.36972 0.76617 0.13077 0.0
C2849 C 0.37445 0.78061 0.12334 0.0
C2850 C 0.37477 0.78177 0.10738 0.0
C2851 C 0.37912 0.79538 0.1004 0.0
C2852 C 0.38323 0.80792 0.10925 0.0
C2853 C 0.38301 0.80688 0.12511 0.0
C2854 C 0.37867 0.79329 0.13215 0.0
C2855 C 0.39119 0.72351 0.18231 0.0
C2856 C 0.38867 0.73342 0.19464 0.0
C2857 C 0.38782 0.72816 0.16745 0.0
C2858 C 0.38184 0.74273 0.16474 0.0
C2859 C 0.38055 0.753 0.17687 0.0
C2860 C 0.3839 0.7484 0.19165 0.0
C2861 C 0.3745 0.74666 0.15008 0.0
C2862 C 0.37862 0.7602 0.14267 0.0
C2863 C 0.3619 0.73826 0.14469 0.0
C2864 C 0.3566 0.72416 0.15222 0.0
C2865 C 0.35073 0.72458 0.16709 0.0
C2866 C 0.34585 0.71119 0.17415 0.0
C2867 C 0.34664 0.69735 0.16637 0.0
C2868 C 0.35227 0.69688 0.1515 0.0
C2869 C 0.35719 0.71024 0.14441 0.0
H2870 H 0.34286 0.68699 0.17184 0.0
H2871 H 0.38658 0.81845 0.10382 0.0
H2872 H 0.71033 0.18231 0.38387 0.0
H2873 H 0.71992 0.15824 0.37402 0.0
H2874 H 0.76504 0.16972 0.38976 0.0
H2875 H 0.75555 0.19427 0.39874 0.0
H2876 H 0.76678 0.16438 0.36209 0.0
H2877 H 0.74417 0.13635 0.40196 0.0
H2878 H 0.72442 0.12828 0.42016 0.0
H2879 H 0.69591 0.11382 0.38323 0.0
H2880 H 0.71536 0.12202 0.36478 0.0
H2881 H 0.79129 0.1049 0.31485 0.0
H2882 H 0.78561 0.11538 0.34005 0.0
H2883 H 0.73857 0.12088 0.32722 0.0
H2884 H 0.74409 0.11041 0.30215 0.0
H2885 H 0.74221 0.11375 0.35835 0.0
H2886 H 0.76242 0.14892 0.31994 0.0
H2887 H 0.78201 0.15728 0.30165 0.0
H2888 H 0.81534 0.15803 0.33736 0.0
H2889 H 0.79596 0.14947 0.35582 0.0
C2890 C 0.72217 0.17944 0.38571 0.0
C2891 C 0.73225 0.19016 0.3919 0.0
C2892 C 0.72768 0.16559 0.38014 0.0
C2893 C 0.74327 0.16207 0.38109 0.0
C2894 C 0.753 0.17219 0.38875 0.0
C2895 C 0.74758 0.18619 0.39393 0.0
C2896 C 0.74975 0.14951 0.37174 0.0
C2897 C 0.76168 0.15315 0.36173 0.0
C2898 C 0.74302 0.13487 0.37092 0.0
C2899 C 0.73124 0.12987 0.38197 0.0
C2900 C 0.73365 0.13154 0.3977 0.0
C2901 C 0.72251 0.12693 0.40807 0.0
C2902 C 0.70891 0.12055 0.40286 0.0
C2903 C 0.70645 0.11875 0.38726 0.0
C2904 C 0.71755 0.12336 0.37684 0.0
C2905 C 0.77966 0.10795 0.31754 0.0
C2906 C 0.7682 0.10713 0.30639 0.0
C2907 C 0.77643 0.11391 0.33195 0.0
C2908 C 0.76171 0.11907 0.33541 0.0
C2909 C 0.75001 0.11697 0.32478 0.0
C2910 C 0.75323 0.11112 0.31039 0.0
C2911 C 0.75887 0.1289 0.34879 0.0
C2912 C 0.74759 0.1248 0.35933 0.0
C2913 C 0.76622 0.14312 0.35024 0.0
C2914 C 0.77781 0.14839 0.33919 0.0
C2915 C 0.77395 0.15077 0.32385 0.0
C2916 C 0.78501 0.15555 0.31346 0.0
C2917 C 0.79992 0.15814 0.31833 0.0
C2918 C 0.8038 0.15599 0.3336 0.0
C2919 C 0.79279 0.15117 0.34403 0.0
H2920 H 0.80846 0.16185 0.31028 0.0
H2921 H 0.7003 0.11699 0.41091 0.0
H2922 H 0.31892 0.20347 0.88082 0.0
H2923 H 0.3436 0.21441 0.87446 0.0
H2924 H 0.33356 0.2535 0.90254 0.0
H2925 H 0.3084 0.24292 0.90798 0.0
H2926 H 0.33871 0.26299 0.87676 0.0
H2927 H 0.36744 0.23041 0.90736 0.0
H2928 H 0.37566 0.20676 0.91997 0.0
H2929 H 0.38699 0.18727 0.87664 0.0
H2930 H 0.37861 0.21067 0.86371 0.0
H2931 H 0.38975 0.2902 0.82143 0.0
H2932 H 0.38482 0.28309 0.84801 0.0
H2933 H 0.37346 0.23755 0.83364 0.0
H2934 H 0.3785 0.24443 0.8074 0.0
H2935 H 0.3867 0.23741 0.86191 0.0
H2936 H 0.34607 0.26612 0.83425 0.0
H2937 H 0.33677 0.28936 0.8215 0.0
H2938 H 0.34821 0.31583 0.86095 0.0
H2939 H 0.3577 0.29273 0.87385 0.0
C2940 C 0.32227 0.21411 0.88607 0.0
C2941 C 0.31185 0.22247 0.89473 0.0
C2942 C 0.33647 0.22035 0.88256 0.0
C2943 C 0.34056 0.23486 0.88801 0.0
C2944 C 0.33068 0.24236 0.8981 0.0
C2945 C 0.31634 0.23633 0.90123 0.0
C2946 C 0.35309 0.2434 0.88049 0.0
C2947 C 0.34948 0.25759 0.87408 0.0
C2948 C 0.36722 0.23653 0.87688 0.0
C2949 C 0.37239 0.22237 0.88455 0.0
C2950 C 0.37162 0.22106 0.90049 0.0
C2951 C 0.37631 0.20769 0.9077 0.0
C2952 C 0.38186 0.19553 0.89911 0.0
C2953 C 0.38273 0.19672 0.88329 0.0
C2954 C 0.37804 0.21006 0.87601 0.0
C2955 C 0.38656 0.27859 0.82403 0.0
C2956 C 0.38411 0.26798 0.8123 0.0
C2957 C 0.3838 0.27453 0.8392 0.0
C2958 C 0.37861 0.25983 0.84277 0.0
C2959 C 0.37748 0.24894 0.83118 0.0
C2960 C 0.38016 0.25297 0.81612 0.0
C2961 C 0.37164 0.25623 0.85768 0.0
C2962 C 0.3763 0.24304 0.86542 0.0
C2963 C 0.35847 0.26399 0.86264 0.0
C2964 C 0.35274 0.2778 0.85491 0.0
C2965 C 0.34665 0.27693 0.84015 0.0
C2966 C 0.34135 0.29006 0.83291 0.0
C2967 C 0.34194 0.30407 0.84039 0.0
C2968 C 0.3478 0.30498 0.85515 0.0
C2969 C 0.35315 0.29188 0.86243 0.0
H2970 H 0.33783 0.31423 0.83477 0.0
H2971 H 0.38548 0.18518 0.90472 0.0
H2972 H 0.28843 0.81269 0.38618 0.0
H2973 H 0.27801 0.83715 0.37835 0.0
H2974 H 0.23428 0.82449 0.39691 0.0
H2975 H 0.24452 0.79954 0.4037 0.0
H2976 H 0.23014 0.83128 0.37018 0.0
H2977 H 0.25574 0.8579 0.4088 0.0
H2978 H 0.27665 0.8653 0.42596 0.0
H2979 H 0.30284 0.88082 0.38776 0.0
H2980 H 0.28222 0.87329 0.37033 0.0
H2981 H 0.20546 0.88832 0.3216 0.0
H2982 H 0.21183 0.88112 0.34777 0.0
H2983 H 0.25807 0.8721 0.33408 0.0
H2984 H 0.25185 0.87925 0.30805 0.0
H2985 H 0.25548 0.88143 0.3652 0.0
H2986 H 0.23301 0.84487 0.32852 0.0
H2987 H 0.21238 0.83709 0.31113 0.0
H2988 H 0.18004 0.84069 0.34759 0.0
H2989 H 0.2005 0.8487 0.36512 0.0
C2990 C 0.27673 0.81535 0.389 0.0
C2991 C 0.2672 0.80425 0.39534 0.0
C2992 C 0.27077 0.82943 0.38465 0.0
C2993 C 0.25529 0.8328 0.38704 0.0
C2994 C 0.2462 0.82218 0.39482 0.0
C2995 C 0.25204 0.80794 0.39871 0.0
C2996 C 0.24808 0.84572 0.37881 0.0
C2997 C 0.2354 0.84243 0.36964 0.0
C2998 C 0.25492 0.8603 0.37781 0.0
C2999 C 0.26739 0.86499 0.38823 0.0
C3000 C 0.26598 0.86281 0.40404 0.0
C3001 C 0.27779 0.86704 0.41382 0.0
C3002 C 0.29106 0.87353 0.40795 0.0
C3003 C 0.29254 0.87582 0.39229 0.0
C3004 C 0.28078 0.8716 0.38246 0.0
C3005 C 0.21711 0.88534 0.3243 0.0
C3006 C 0.22807 0.88393 0.31273 0.0
C3007 C 0.22074 0.88129 0.33926 0.0
C3008 C 0.23536 0.87587 0.34278 0.0
C3009 C 0.24672 0.87624 0.33161 0.0
C3010 C 0.2431 0.88016 0.31668 0.0
C3011 C 0.23806 0.8666 0.35656 0.0
C3012 C 0.24989 0.87052 0.36654 0.0
C3013 C 0.23042 0.85259 0.35849 0.0
C3014 C 0.2182 0.84753 0.34805 0.0
C3015 C 0.22148 0.84406 0.33278 0.0
C3016 C 0.20983 0.83962 0.32291 0.0
C3017 C 0.1949 0.83844 0.32824 0.0
C3018 C 0.1916 0.84165 0.34347 0.0
C3019 C 0.20321 0.84615 0.35337 0.0
H3020 H 0.18589 0.835 0.32058 0.0
H3021 H 0.3002 0.87678 0.41554 0.0
H3022 H 0.61453 0.70459 0.81604 0.0
H3023 H 0.62369 0.71459 0.84028 0.0
H3024 H 0.60405 0.75837 0.82967 0.0
H3025 H 0.5957 0.74856 0.80504 0.0
H3026 H 0.63177 0.7621 0.8346 0.0
H3027 H 0.5938 0.73657 0.86268 0.0
H3028 H 0.57707 0.71554 0.8707 0.0
H3029 H 0.61598 0.68958 0.88475 0.0
H3030 H 0.63298 0.71034 0.87661 0.0
H3031 H 0.67986 0.78854 0.89178 0.0
H3032 H 0.65425 0.78184 0.8831 0.0
H3033 H 0.66835 0.73521 0.87728 0.0
H3034 H 0.69378 0.7417 0.88608 0.0
H3035 H 0.63767 0.73744 0.885 0.0
H3036 H 0.67412 0.7599 0.8489 0.0
H3037 H 0.6912 0.78051 0.84043 0.0
H3038 H 0.65393 0.81209 0.84142 0.0
H3039 H 0.63669 0.79167 0.8501 0.0
C3040 C 0.61175 0.71619 0.81914 0.0
C3041 C 0.60461 0.72589 0.80867 0.0
C3042 C 0.6169 0.72191 0.83307 0.0
C3043 C 0.6146 0.73729 0.83688 0.0
C3044 C 0.60608 0.74651 0.82698 0.0
C3045 C 0.6013 0.74091 0.81292 0.0
C3046 C 0.62347 0.74435 0.84944 0.0
C3047 C 0.63258 0.75697 0.8458 0.0
C3048 C 0.62484 0.73759 0.86401 0.0
C3049 C 0.61468 0.72503 0.86897 0.0
C3050 C 0.59881 0.72634 0.86738 0.0
C3051 C 0.58927 0.71447 0.87197 0.0
C3052 C 0.59546 0.70123 0.87821 0.0
C3053 C 0.6112 0.69985 0.87991 0.0
C3054 C 0.62079 0.71168 0.87534 0.0
C3055 C 0.67738 0.77677 0.88909 0.0
C3056 C 0.68896 0.76573 0.88921 0.0
C3057 C 0.66273 0.77296 0.88418 0.0
C3058 C 0.65951 0.75808 0.87931 0.0
C3059 C 0.6706 0.74676 0.88095 0.0
C3060 C 0.68521 0.75055 0.88582 0.0
C3061 C 0.64597 0.75478 0.86985 0.0
C3062 C 0.63619 0.74286 0.87401 0.0
C3063 C 0.64387 0.76214 0.85571 0.0
C3064 C 0.65418 0.77434 0.85031 0.0
C3065 C 0.6696 0.77126 0.84739 0.0
C3066 C 0.67931 0.7829 0.84255 0.0
C3067 C 0.67367 0.79761 0.84043 0.0
C3068 C 0.6583 0.8007 0.8431 0.0
C3069 C 0.64855 0.78911 0.84798 0.0
H3070 H 0.68119 0.8066 0.83669 0.0
H3071 H 0.58805 0.69205 0.88175 0.0
H3072 H 0.10044 0.22093 0.19345 0.0
H3073 H 0.11046 0.1971 0.20415 0.0
H3074 H 0.11555 0.2189 0.24784 0.0
H3075 H 0.10578 0.24259 0.23723 0.0
H3076 H 0.13954 0.19486 0.21607 0.0
H3077 H 0.11051 0.19302 0.27576 0.0
H3078 H 0.08527 0.19804 0.28691 0.0
H3079 H 0.06419 0.18962 0.24366 0.0
H3080 H 0.08927 0.18433 0.23228 0.0
H3081 H 0.18898 0.16632 0.26857 0.0
H3082 H 0.16787 0.18212 0.25996 0.0
H3083 H 0.13975 0.14226 0.25492 0.0
H3084 H 0.16078 0.12629 0.26377 0.0
H3085 H 0.12354 0.1697 0.26409 0.0
H3086 H 0.1585 0.15142 0.22631 0.0
H3087 H 0.18488 0.14658 0.21817 0.0
H3088 H 0.19353 0.19462 0.21677 0.0
H3089 H 0.16742 0.19974 0.22567 0.0
C3090 C 0.10336 0.22047 0.20541 0.0
C3091 C 0.10239 0.23355 0.21454 0.0
C3092 C 0.10911 0.20691 0.21148 0.0
C3093 C 0.11362 0.20623 0.2268 0.0
C3094 C 0.11192 0.21911 0.23605 0.0
C3095 C 0.10643 0.23266 0.22996 0.0
C3096 C 0.12179 0.19284 0.23288 0.0
C3097 C 0.1359 0.18916 0.2264 0.0
C3098 C 0.11699 0.18537 0.24632 0.0
C3099 C 0.10181 0.18835 0.25315 0.0
C3100 C 0.10049 0.19214 0.26864 0.0
C3101 C 0.08621 0.19505 0.275 0.0
C3102 C 0.07314 0.19417 0.26599 0.0
C3103 C 0.07432 0.19034 0.25061 0.0
C3104 C 0.08858 0.18741 0.2442 0.0
C3105 C 0.1782 0.16092 0.26601 0.0
C3106 C 0.17665 0.14503 0.26653 0.0
C3107 C 0.16614 0.16998 0.26116 0.0
C3108 C 0.15241 0.16328 0.25654 0.0
C3109 C 0.1503 0.14759 0.25841 0.0
C3110 C 0.16236 0.1385 0.2634 0.0
C3111 C 0.14143 0.17233 0.2476 0.0
C3112 C 0.12692 0.17514 0.25354 0.0
C3113 C 0.14579 0.17894 0.23357 0.0
C3114 C 0.161 0.17596 0.22678 0.0
C3115 C 0.16603 0.16096 0.22432 0.0
C3116 C 0.18098 0.15816 0.21969 0.0
C3117 C 0.19089 0.17029 0.21702 0.0
C3118 C 0.18585 0.18524 0.21889 0.0
C3119 C 0.17098 0.1881 0.22379 0.0
H3120 H 0.20246 0.16809 0.2134 0.0
H3121 H 0.06209 0.19644 0.27093 0.0
H3122 H 0.35221 0.70157 0.72941 0.0
H3123 H 0.33318 0.68306 0.7211 0.0
H3124 H 0.34853 0.6517 0.75563 0.0
H3125 H 0.36779 0.66997 0.76376 0.0
H3126 H 0.34273 0.63679 0.73005 0.0
H3127 H 0.31727 0.67449 0.76067 0.0
H3128 H 0.30928 0.70043 0.76775 0.0
H3129 H 0.28629 0.70531 0.72491 0.0
H3130 H 0.29428 0.67944 0.71752 0.0
H3131 H 0.25722 0.61274 0.73685 0.0
H3132 H 0.27985 0.62708 0.74404 0.0
H3133 H 0.30016 0.61709 0.70047 0.0
H3134 H 0.27749 0.60247 0.69326 0.0
H3135 H 0.2885 0.65236 0.7301 0.0
H3136 H 0.33961 0.61938 0.70501 0.0
H3137 H 0.34739 0.59288 0.69999 0.0
H3138 H 0.31819 0.57725 0.73591 0.0
H3139 H 0.3104 0.60366 0.74127 0.0
C3140 C 0.3515 0.69075 0.73526 0.0
C3141 C 0.36137 0.68732 0.74739 0.0
C3142 C 0.34066 0.68016 0.73047 0.0
C3143 C 0.33932 0.66606 0.73787 0.0
C3144 C 0.34938 0.66249 0.74974 0.0
C3145 C 0.36032 0.673 0.75443 0.0
C3146 C 0.32703 0.65526 0.73376 0.0
C3147 C 0.33087 0.6402 0.73 0.0
C3148 C 0.31154 0.65964 0.7339 0.0
C3149 C 0.30658 0.67513 0.73844 0.0
C3150 C 0.31062 0.68114 0.75271 0.0
C3151 C 0.30606 0.69582 0.75679 0.0
C3152 C 0.29734 0.70454 0.74676 0.0
C3153 C 0.29308 0.69857 0.73266 0.0
C3154 C 0.29762 0.6839 0.72852 0.0
C3155 C 0.26665 0.6133 0.72892 0.0
C3156 C 0.2656 0.60656 0.71448 0.0
C3157 C 0.27954 0.62155 0.73302 0.0
C3158 C 0.29163 0.62325 0.72275 0.0
C3159 C 0.29099 0.61582 0.70861 0.0
C3160 C 0.27807 0.60745 0.70452 0.0
C3161 C 0.30418 0.63388 0.72646 0.0
C3162 C 0.30037 0.64895 0.73007 0.0
C3163 C 0.31963 0.6294 0.72647 0.0
C3164 C 0.32429 0.61349 0.7234 0.0
C3165 C 0.33488 0.61029 0.71185 0.0
C3166 C 0.33929 0.59529 0.70895 0.0
C3167 C 0.33324 0.58339 0.71759 0.0
C3168 C 0.32281 0.58647 0.72918 0.0
C3169 C 0.31837 0.60145 0.73213 0.0
H3170 H 0.33667 0.57178 0.71532 0.0
H3171 H 0.29383 0.71591 0.74994 0.0
H3172 H 0.82867 0.87239 0.25586 0.0
H3173 H 0.8459 0.85249 0.247 0.0
H3174 H 0.80871 0.83025 0.22399 0.0
H3175 H 0.79132 0.85008 0.23279 0.0
H3176 H 0.82616 0.81033 0.24022 0.0
H3177 H 0.83282 0.8492 0.20382 0.0
H3178 H 0.83709 0.87547 0.19509 0.0
H3179 H 0.88197 0.87488 0.21433 0.0
H3180 H 0.87775 0.8488 0.22377 0.0
H3181 H 0.89197 0.77676 0.19081 0.0
H3182 H 0.87424 0.79766 0.19555 0.0
H3183 H 0.87376 0.7864 0.24336 0.0
H3184 H 0.89092 0.76508 0.23852 0.0
H3185 H 0.87289 0.82261 0.21098 0.0
H3186 H 0.84046 0.79119 0.25887 0.0
H3187 H 0.83385 0.76506 0.26666 0.0
H3188 H 0.83727 0.75009 0.22035 0.0
H3189 H 0.84396 0.77618 0.2122 0.0
C3190 C 0.82409 0.86324 0.24899 0.0
C3191 C 0.80857 0.86282 0.2451 0.0
C3192 C 0.83399 0.85193 0.24386 0.0
C3193 C 0.82858 0.84 0.23476 0.0
C3194 C 0.81308 0.83939 0.23102 0.0
C3195 C 0.80318 0.85074 0.23607 0.0
C3196 C 0.83911 0.82803 0.22937 0.0
C3197 C 0.83637 0.81299 0.2338 0.0
C3198 C 0.85216 0.83149 0.2206 0.0
C3199 C 0.85491 0.84706 0.21463 0.0
C3200 C 0.84356 0.8547 0.20631 0.0
C3201 C 0.84597 0.86956 0.20122 0.0
C3202 C 0.85981 0.87682 0.20409 0.0
C3203 C 0.87126 0.86924 0.21211 0.0
C3204 C 0.86885 0.85442 0.21737 0.0
C3205 C 0.88834 0.77898 0.20238 0.0
C3206 C 0.89279 0.76933 0.21433 0.0
C3207 C 0.87811 0.79086 0.20506 0.0
C3208 C 0.8723 0.79335 0.21974 0.0
C3209 C 0.87768 0.78441 0.23185 0.0
C3210 C 0.88765 0.77236 0.22913 0.0
C3211 C 0.86028 0.80493 0.22239 0.0
C3212 C 0.86268 0.81991 0.21736 0.0
C3213 C 0.84668 0.80135 0.23029 0.0
C3214 C 0.84282 0.78561 0.23497 0.0
C3215 C 0.8398 0.78233 0.25033 0.0
C3216 C 0.83608 0.76753 0.2548 0.0
C3217 C 0.83523 0.75593 0.24398 0.0
C3218 C 0.83807 0.75911 0.22867 0.0
C3219 C 0.84187 0.77388 0.22413 0.0
H3220 H 0.83232 0.74448 0.24746 0.0
H3221 H 0.86166 0.88833 0.20012 0.0
H3222 H 0.65997 0.33884 0.77413 0.0
H3223 H 0.67227 0.36077 0.76218 0.0
H3224 H 0.63442 0.3653 0.73127 0.0
H3225 H 0.62174 0.3436 0.74371 0.0
H3226 H 0.66599 0.35969 0.71865 0.0
H3227 H 0.63831 0.39394 0.74999 0.0
H3228 H 0.62728 0.4036 0.7739 0.0
H3229 H 0.67201 0.40833 0.79294 0.0
H3230 H 0.68331 0.39849 0.76924 0.0
H3231 H 0.72154 0.4089 0.68684 0.0
H3232 H 0.69578 0.40232 0.69544 0.0
H3233 H 0.71281 0.39528 0.74095 0.0
H3234 H 0.73835 0.40188 0.7325 0.0
H3235 H 0.68473 0.40764 0.74177 0.0
H3236 H 0.71044 0.36549 0.7173 0.0
H3237 H 0.72373 0.35266 0.69625 0.0
H3238 H 0.68528 0.36005 0.66705 0.0
H3239 H 0.67171 0.37297 0.68804 0.0
C3240 C 0.65408 0.34485 0.76512 0.0
C3241 C 0.63994 0.33969 0.75984 0.0
C3242 C 0.66106 0.35736 0.75833 0.0
C3243 C 0.65419 0.36466 0.74592 0.0
C3244 C 0.63978 0.35988 0.74095 0.0
C3245 C 0.63257 0.34757 0.74806 0.0
C3246 C 0.66327 0.37564 0.73703 0.0
C3247 C 0.66966 0.3705 0.72335 0.0
C3248 C 0.66837 0.38943 0.74351 0.0
C3249 C 0.66166 0.39542 0.75782 0.0
C3250 C 0.64579 0.39694 0.75931 0.0
C3251 C 0.63949 0.40247 0.77283 0.0
C3252 C 0.64893 0.40657 0.78494 0.0
C3253 C 0.66471 0.40517 0.78355 0.0
C3254 C 0.67107 0.39964 0.77006 0.0
C3255 C 0.71968 0.40628 0.69874 0.0
C3256 C 0.73194 0.40571 0.70898 0.0
C3257 C 0.70499 0.40251 0.70362 0.0
C3258 C 0.70242 0.3982 0.71881 0.0
C3259 C 0.71451 0.39863 0.7292 0.0
C3260 C 0.72913 0.40229 0.72433 0.0
C3261 C 0.68777 0.39141 0.72367 0.0
C3262 C 0.68048 0.39726 0.73663 0.0
C3263 C 0.6821 0.378 0.7168 0.0
C3264 C 0.69017 0.37038 0.70413 0.0
C3265 C 0.70487 0.36449 0.70635 0.0
C3266 C 0.71245 0.35719 0.69444 0.0
C3267 C 0.70542 0.35565 0.68027 0.0
C3268 C 0.69073 0.36133 0.67802 0.0
C3269 C 0.68308 0.36862 0.68992 0.0
H3270 H 0.71133 0.35 0.67108 0.0
H3271 H 0.64403 0.41084 0.79539 0.0
H3272 H 0.09217 0.77707 0.80443 0.0
H3273 H 0.10406 0.80061 0.7954 0.0
H3274 H 0.10328 0.78344 0.74943 0.0
H3275 H 0.09162 0.75987 0.7584 0.0
H3276 H 0.13248 0.79792 0.7821 0.0
H3277 H 0.10339 0.81416 0.725 0.0
H3278 H 0.07754 0.81542 0.71419 0.0
H3279 H 0.05879 0.8209 0.75896 0.0
H3280 H 0.08453 0.8199 0.77004 0.0
H3281 H 0.18609 0.83308 0.73498 0.0
H3282 H 0.16525 0.81646 0.74298 0.0
H3283 H 0.13679 0.85572 0.75068 0.0
H3284 H 0.15731 0.87231 0.74199 0.0
H3285 H 0.12022 0.83332 0.73987 0.0
H3286 H 0.15869 0.83814 0.77913 0.0
H3287 H 0.1851 0.8362 0.78837 0.0
H3288 H 0.18471 0.78805 0.78008 0.0
H3289 H 0.1585 0.78978 0.77036 0.0
C3290 C 0.09397 0.77859 0.79233 0.0
C3291 C 0.09107 0.76669 0.78208 0.0
C3292 C 0.10083 0.79199 0.78721 0.0
C3293 C 0.10454 0.79373 0.77177 0.0
C3294 C 0.10036 0.78239 0.76136 0.0
C3295 C 0.09374 0.76893 0.7665 0.0
C3296 C 0.11504 0.8059 0.76687 0.0
C3297 C 0.12975 0.80582 0.77301 0.0
C3298 C 0.11145 0.81606 0.75494 0.0
C3299 C 0.09591 0.81684 0.74836 0.0
C3300 C 0.09377 0.81571 0.73254 0.0
C3301 C 0.07912 0.81637 0.72636 0.0
C3302 C 0.06653 0.8182 0.73588 0.0
C3303 C 0.06855 0.81943 0.7516 0.0
C3304 C 0.08317 0.81878 0.75784 0.0
C3305 C 0.17531 0.83813 0.73817 0.0
C3306 C 0.17337 0.85398 0.738 0.0
C3307 C 0.16343 0.82864 0.74279 0.0
C3308 C 0.1496 0.83488 0.74783 0.0
C3309 C 0.14739 0.85066 0.74693 0.0
C3310 C 0.15914 0.86013 0.74197 0.0
C3311 C 0.13779 0.82511 0.75489 0.0
C3312 C 0.12288 0.8256 0.74913 0.0
C3313 C 0.14119 0.81524 0.76719 0.0
C3314 C 0.15667 0.81413 0.77387 0.0
C3315 C 0.16425 0.82715 0.77925 0.0
C3316 C 0.17921 0.82608 0.78453 0.0
C3317 C 0.1866 0.812 0.78479 0.0
C3318 C 0.179 0.79895 0.77988 0.0
C3319 C 0.1641 0.79997 0.77444 0.0
H3320 H 0.19821 0.81118 0.78882 0.0
H3321 H 0.0552 0.8187 0.73108 0.0
H3322 H 0.65722 0.69682 0.24217 0.0
H3323 H 0.67514 0.67744 0.25083 0.0
H3324 H 0.63762 0.64792 0.26252 0.0
H3325 H 0.61973 0.66698 0.25299 0.0
H3326 H 0.68036 0.66717 0.27655 0.0
H3327 H 0.64876 0.61081 0.26305 0.0
H3328 H 0.63097 0.60045 0.24396 0.0
H3329 H 0.64657 0.63321 0.21125 0.0
H3330 H 0.66457 0.64364 0.23008 0.0
H3331 H 0.7227 0.60832 0.31189 0.0
H3332 H 0.69989 0.62267 0.30437 0.0
H3333 H 0.70996 0.61386 0.25713 0.0
H3334 H 0.73282 0.59992 0.26458 0.0
H3335 H 0.67956 0.61256 0.26247 0.0
H3336 H 0.72125 0.64587 0.2705 0.0
H3337 H 0.7422 0.66017 0.28243 0.0
H3338 H 0.71181 0.67639 0.31704 0.0
H3339 H 0.69064 0.6621 0.30534 0.0
C3340 C 0.65284 0.6861 0.2464 0.0
C3341 C 0.63713 0.68333 0.24684 0.0
C3342 C 0.66306 0.67505 0.25142 0.0
C3343 C 0.65778 0.66113 0.2573 0.0
C3344 C 0.64204 0.65837 0.25774 0.0
C3345 C 0.63182 0.66929 0.25234 0.0
C3346 C 0.66881 0.64991 0.26353 0.0
C3347 C 0.68006 0.6552 0.27354 0.0
C3348 C 0.66863 0.63432 0.25946 0.0
C3349 C 0.65786 0.62812 0.24804 0.0
C3350 C 0.6484 0.61578 0.25178 0.0
C3351 C 0.63828 0.6099 0.241 0.0
C3352 C 0.63759 0.61621 0.22643 0.0
C3353 C 0.64706 0.62838 0.22257 0.0
C3354 C 0.65721 0.6343 0.23329 0.0
C3355 C 0.71969 0.60901 0.29995 0.0
C3356 C 0.72938 0.60297 0.28878 0.0
C3357 C 0.70679 0.61733 0.29566 0.0
C3358 C 0.70333 0.61942 0.28019 0.0
C3359 C 0.7124 0.61237 0.26912 0.0
C3360 C 0.72541 0.60437 0.27338 0.0
C3361 C 0.6911 0.62994 0.27531 0.0
C3362 C 0.67959 0.62448 0.26568 0.0
C3363 C 0.69146 0.64557 0.27909 0.0
C3364 C 0.70443 0.65267 0.28721 0.0
C3365 C 0.71909 0.65221 0.28084 0.0
C3366 C 0.73097 0.66044 0.28747 0.0
C3367 C 0.72833 0.66917 0.30048 0.0
C3368 C 0.71382 0.66962 0.30696 0.0
C3369 C 0.70189 0.66143 0.30035 0.0
H3370 H 0.73755 0.67556 0.30553 0.0
H3371 H 0.62975 0.61164 0.2181 0.0
H3372 H 0.89895 0.21835 0.81071 0.0
H3373 H 0.89108 0.1925 0.8034 0.0
H3374 H 0.89252 0.20555 0.75609 0.0
H3375 H 0.90012 0.2312 0.76329 0.0
H3376 H 0.86453 0.18623 0.78803 0.0
H3377 H 0.90289 0.17655 0.73444 0.0
H3378 H 0.92962 0.18065 0.72706 0.0
H3379 H 0.94307 0.17939 0.774 0.0
H3380 H 0.91646 0.17505 0.78168 0.0
H3381 H 0.82545 0.159 0.72866 0.0
H3382 H 0.84674 0.17216 0.74058 0.0
H3383 H 0.86537 0.12923 0.75529 0.0
H3384 H 0.84398 0.11584 0.74313 0.0
H3385 H 0.8876 0.15557 0.74653 0.0
H3386 H 0.84633 0.14175 0.77941 0.0
H3387 H 0.8189 0.13824 0.78408 0.0
H3388 H 0.81171 0.1863 0.77938 0.0
H3389 H 0.83897 0.19003 0.77393 0.0
C3390 C 0.8979 0.21554 0.79875 0.0
C3391 C 0.90012 0.22671 0.78753 0.0
C3392 C 0.8934 0.20082 0.79461 0.0
C3393 C 0.89143 0.19706 0.7792 0.0
C3394 C 0.89426 0.2081 0.76802 0.0
C3395 C 0.89849 0.22279 0.77215 0.0
C3396 C 0.88465 0.18237 0.77455 0.0
C3397 C 0.86974 0.17925 0.77928 0.0
C3398 C 0.89152 0.17318 0.76324 0.0
C3399 C 0.90763 0.17549 0.75864 0.0
C3400 C 0.91155 0.17701 0.74319 0.0
C3401 C 0.92669 0.17941 0.73896 0.0
C3402 C 0.93804 0.18029 0.75005 0.0
C3403 C 0.93427 0.17874 0.76542 0.0
C3404 C 0.91915 0.17632 0.76972 0.0
C3405 C 0.83434 0.15231 0.73398 0.0
C3406 C 0.83302 0.13645 0.73518 0.0
C3407 C 0.8465 0.15983 0.74074 0.0
C3408 C 0.85741 0.15164 0.74899 0.0
C3409 C 0.85701 0.13569 0.74894 0.0
C3410 C 0.84482 0.12809 0.74201 0.0
C3411 C 0.86738 0.16008 0.75952 0.0
C3412 C 0.88273 0.16209 0.7558 0.0
C3413 C 0.86098 0.16818 0.77188 0.0
C3414 C 0.84473 0.16615 0.7762 0.0
C3415 C 0.83889 0.15157 0.77927 0.0
C3416 C 0.82335 0.14952 0.78195 0.0
C3417 C 0.81357 0.16204 0.78204 0.0
C3418 C 0.8193 0.17661 0.77931 0.0
C3419 C 0.8348 0.17869 0.77637 0.0
H3420 H 0.80157 0.16045 0.78426 0.0
H3421 H 0.94975 0.18218 0.74675 0.0
H3422 H 0.33723 0.30046 0.24243 0.0
H3423 H 0.32066 0.32043 0.25225 0.0
H3424 H 0.35958 0.3497 0.25874 0.0
H3425 H 0.37612 0.32996 0.2482 0.0
H3426 H 0.31896 0.33145 0.27842 0.0
H3427 H 0.34819 0.38721 0.2589 0.0
H3428 H 0.36359 0.39683 0.23747 0.0
H3429 H 0.34466 0.36263 0.20818 0.0
H3430 H 0.32902 0.35294 0.22936 0.0
H3431 H 0.2757 0.39005 0.3131 0.0
H3432 H 0.29868 0.37595 0.30553 0.0
H3433 H 0.28793 0.384 0.25828 0.0
H3434 H 0.2652 0.39794 0.26578 0.0
H3435 H 0.31729 0.38524 0.2616 0.0
H3436 H 0.27744 0.35082 0.27488 0.0
H3437 H 0.25837 0.33592 0.28908 0.0
H3438 H 0.29215 0.32371 0.32218 0.0
H3439 H 0.31145 0.33855 0.30815 0.0
C3440 C 0.34222 0.31122 0.24577 0.0
C3441 C 0.35794 0.31367 0.24452 0.0
C3442 C 0.33276 0.32262 0.25144 0.0
C3443 C 0.33884 0.33661 0.25626 0.0
C3444 C 0.35455 0.33914 0.25487 0.0
C3445 C 0.364 0.32783 0.24887 0.0
C3446 C 0.32868 0.34813 0.26335 0.0
C3447 C 0.31872 0.34326 0.27482 0.0
C3448 C 0.32823 0.36351 0.25859 0.0
C3449 C 0.33761 0.36922 0.24578 0.0
C3450 C 0.34732 0.38175 0.24788 0.0
C3451 C 0.35608 0.38722 0.23578 0.0
C3452 C 0.35515 0.3803 0.22149 0.0
C3453 C 0.34542 0.36793 0.21927 0.0
C3454 C 0.33663 0.36243 0.23133 0.0
C3455 C 0.2786 0.38923 0.30115 0.0
C3456 C 0.26878 0.3951 0.29 0.0
C3457 C 0.2916 0.38104 0.29682 0.0
C3458 C 0.29495 0.37879 0.28132 0.0
C3459 C 0.28565 0.3856 0.27029 0.0
C3460 C 0.27266 0.39359 0.27458 0.0
C3461 C 0.30727 0.36838 0.27632 0.0
C3462 C 0.3178 0.37351 0.26542 0.0
C3463 C 0.30773 0.35299 0.28099 0.0
C3464 C 0.29581 0.34598 0.29061 0.0
C3465 C 0.28072 0.34523 0.28536 0.0
C3466 C 0.26993 0.33665 0.29327 0.0
C3467 C 0.2741 0.32878 0.30643 0.0
C3468 C 0.28898 0.32974 0.31192 0.0
C3469 C 0.29984 0.33826 0.30402 0.0
H3470 H 0.26576 0.32202 0.31241 0.0
H3471 H 0.36194 0.38455 0.21214 0.0
H3472 H 0.24504 0.20388 0.15038 0.0
H3473 H 0.23751 0.18487 0.16934 0.0
H3474 H 0.24042 0.14959 0.1354 0.0
H3475 H 0.24834 0.16846 0.11643 0.0
H3476 H 0.2117 0.15167 0.1562 0.0
H3477 H 0.26634 0.14692 0.15563 0.0
H3478 H 0.2926 0.15678 0.1561 0.0
H3479 H 0.28456 0.17684 0.19991 0.0
H3480 H 0.25815 0.16734 0.19958 0.0
H3481 H 0.20237 0.0971 0.21816 0.0
H3482 H 0.20958 0.10902 0.19399 0.0
H3483 H 0.22716 0.14779 0.21847 0.0
H3484 H 0.22133 0.13534 0.2424 0.0
H3485 H 0.24677 0.1393 0.19864 0.0
H3486 H 0.19044 0.1565 0.18797 0.0
H3487 H 0.16324 0.14934 0.18806 0.0
H3488 H 0.17423 0.10704 0.1662 0.0
H3489 H 0.20148 0.114 0.16622 0.0
C3490 C 0.24409 0.19208 0.14697 0.0
C3491 C 0.24739 0.18762 0.13199 0.0
C3492 C 0.23979 0.18127 0.15778 0.0
C3493 C 0.23845 0.1659 0.1537 0.0
C3494 C 0.24141 0.16143 0.1387 0.0
C3495 C 0.24603 0.17219 0.12795 0.0
C3496 C 0.23425 0.15456 0.16532 0.0
C3497 C 0.21943 0.14868 0.16535 0.0
C3498 C 0.24432 0.15085 0.17725 0.0
C3499 C 0.26022 0.15653 0.17751 0.0
C3500 C 0.27012 0.15357 0.1653 0.0
C3501 C 0.28504 0.15907 0.16555 0.0
C3502 C 0.29024 0.16745 0.17801 0.0
C3503 C 0.28052 0.17035 0.19025 0.0
C3504 C 0.26557 0.1649 0.19005 0.0
C3505 C 0.20769 0.10821 0.21829 0.0
C3506 C 0.21137 0.11526 0.23214 0.0
C3507 C 0.2116 0.11514 0.20446 0.0
C3508 C 0.21865 0.1295 0.2043 0.0
C3509 C 0.22179 0.1367 0.21822 0.0
C3510 C 0.21841 0.12957 0.23195 0.0
C3511 C 0.22393 0.13679 0.18998 0.0
C3512 C 0.23906 0.14195 0.18937 0.0
C3513 C 0.21413 0.13988 0.17757 0.0
C3514 C 0.19793 0.13551 0.17766 0.0
C3515 C 0.18702 0.14556 0.1835 0.0
C3516 C 0.17161 0.14159 0.18343 0.0
C3517 C 0.16702 0.12766 0.17729 0.0
C3518 C 0.17781 0.11776 0.17108 0.0
C3519 C 0.19322 0.12171 0.17113 0.0
H3520 H 0.15509 0.1246 0.17723 0.0
H3521 H 0.3018 0.17167 0.17821 0.0
H3522 H 0.3337 0.75008 0.62047 0.0
H3523 H 0.35345 0.74017 0.63729 0.0
H3524 H 0.32089 0.73753 0.67397 0.0
H3525 H 0.30093 0.74651 0.65694 0.0
H3526 H 0.36608 0.75063 0.66035 0.0
H3527 H 0.32878 0.71533 0.69989 0.0
H3528 H 0.30645 0.69834 0.69953 0.0
H3529 H 0.31743 0.68439 0.65408 0.0
H3530 H 0.3396 0.70176 0.65397 0.0
H3531 H 0.39901 0.73839 0.7327 0.0
H3532 H 0.38433 0.74449 0.70999 0.0
H3533 H 0.38808 0.69792 0.69494 0.0
H3534 H 0.4026 0.69167 0.7179 0.0
H3535 H 0.35927 0.70686 0.69529 0.0
H3536 H 0.40552 0.72702 0.67522 0.0
H3537 H 0.42901 0.74234 0.67536 0.0
H3538 H 0.40268 0.78316 0.68041 0.0
H3539 H 0.37902 0.76807 0.68051 0.0
C3540 C 0.33074 0.74733 0.63211 0.0
C3541 C 0.31573 0.74906 0.63736 0.0
C3542 C 0.34205 0.74161 0.64173 0.0
C3543 C 0.33868 0.73775 0.65688 0.0
C3544 C 0.32374 0.73982 0.66222 0.0
C3545 C 0.31235 0.74519 0.65251 0.0
C3546 C 0.35099 0.73255 0.66732 0.0
C3547 C 0.36461 0.74095 0.66786 0.0
C3548 C 0.34926 0.71988 0.67714 0.0
C3549 C 0.33566 0.70996 0.67683 0.0
C3550 C 0.32634 0.70873 0.68976 0.0
C3551 C 0.3137 0.69908 0.68963 0.0
C3552 C 0.31046 0.69037 0.67674 0.0
C3553 C 0.31984 0.69134 0.66394 0.0
C3554 C 0.33235 0.70118 0.66391 0.0
C3555 C 0.39706 0.72953 0.72436 0.0
C3556 C 0.4019 0.71454 0.72709 0.0
C3557 C 0.38869 0.73304 0.71135 0.0
C3558 C 0.38513 0.72167 0.70074 0.0
C3559 C 0.39072 0.70686 0.70299 0.0
C3560 C 0.39912 0.70334 0.71604 0.0
C3561 C 0.37425 0.72493 0.68825 0.0
C3562 C 0.36085 0.71631 0.6875 0.0
C3563 C 0.37629 0.73725 0.67811 0.0
C3564 C 0.39049 0.74639 0.67795 0.0
C3565 C 0.40474 0.73925 0.67645 0.0
C3566 C 0.41809 0.7479 0.67648 0.0
C3567 C 0.41734 0.76371 0.67791 0.0
C3568 C 0.40324 0.77091 0.6793 0.0
C3569 C 0.38985 0.76232 0.67929 0.0
H3570 H 0.42769 0.77038 0.67794 0.0
H3571 H 0.30073 0.68282 0.67669 0.0
H3572 H 0.8114 0.89433 0.22261 0.0
H3573 H 0.80474 0.87874 0.20072 0.0
H3574 H 0.76054 0.9002 0.1989 0.0
H3575 H 0.76677 0.91474 0.22179 0.0
H3576 H 0.75616 0.87258 0.1987 0.0
H3577 H 0.79078 0.90314 0.16989 0.0
H3578 H 0.81494 0.91596 0.16366 0.0
H3579 H 0.8378 0.87283 0.16226 0.0
H3580 H 0.81386 0.85976 0.1688 0.0
H3581 H 0.73342 0.83227 0.13229 0.0
H3582 H 0.74227 0.85308 0.14855 0.0
H3583 H 0.7811 0.82628 0.162 0.0
H3584 H 0.77235 0.80538 0.14584 0.0
H3585 H 0.78792 0.85739 0.15463 0.0
H3586 H 0.75316 0.82778 0.18545 0.0
H3587 H 0.72864 0.81527 0.19087 0.0
H3588 H 0.70562 0.85819 0.18714 0.0
H3589 H 0.73 0.87092 0.18148 0.0
C3590 C 0.80045 0.89608 0.21721 0.0
C3591 C 0.78957 0.90573 0.22381 0.0
C3592 C 0.79665 0.88716 0.20461 0.0
C3593 C 0.78212 0.88828 0.19799 0.0
C3594 C 0.77176 0.89899 0.20384 0.0
C3595 C 0.77536 0.90743 0.2168 0.0
C3596 C 0.77699 0.87701 0.18642 0.0
C3597 C 0.76301 0.86962 0.18887 0.0
C3598 C 0.78607 0.87263 0.17381 0.0
C3599 C 0.80052 0.88048 0.16994 0.0
C3600 C 0.80098 0.89639 0.16838 0.0
C3601 C 0.81464 0.90371 0.16478 0.0
C3602 C 0.8279 0.89522 0.16259 0.0
C3603 C 0.82752 0.87939 0.16394 0.0
C3604 C 0.81391 0.87202 0.16761 0.0
C3605 C 0.74385 0.83081 0.13869 0.0
C3606 C 0.75209 0.81712 0.13792 0.0
C3607 C 0.74889 0.8427 0.14795 0.0
C3608 C 0.7623 0.84116 0.15647 0.0
C3609 C 0.77073 0.82767 0.15547 0.0
C3610 C 0.76563 0.8157 0.14635 0.0
C3611 C 0.76717 0.85338 0.16695 0.0
C3612 C 0.78109 0.86073 0.16435 0.0
C3613 C 0.758 0.8579 0.17933 0.0
C3614 C 0.74337 0.85027 0.18287 0.0
C3615 C 0.74285 0.83452 0.18566 0.0
C3616 C 0.72898 0.8274 0.1888 0.0
C3617 C 0.71557 0.83592 0.1893 0.0
C3618 C 0.71601 0.8516 0.18672 0.0
C3619 C 0.72985 0.85877 0.18355 0.0
H3620 H 0.70485 0.83038 0.19173 0.0
H3621 H 0.83846 0.9009 0.15981 0.0
H3622 H 0.5928 0.29211 0.72817 0.0
H3623 H 0.5998 0.27808 0.70496 0.0
H3624 H 0.64367 0.26791 0.72441 0.0
H3625 H 0.63664 0.28141 0.74766 0.0
H3626 H 0.64254 0.28031 0.6922 0.0
H3627 H 0.62164 0.24163 0.72686 0.0
H3628 H 0.60101 0.23099 0.74263 0.0
H3629 H 0.57168 0.2294 0.70358 0.0
H3630 H 0.59211 0.24025 0.68763 0.0
H3631 H 0.6836 0.22186 0.66525 0.0
H3632 H 0.66424 0.23052 0.68309 0.0
H3633 H 0.63317 0.23837 0.646 0.0
H3634 H 0.65251 0.22967 0.62792 0.0
H3635 H 0.62268 0.22817 0.68294 0.0
H3636 H 0.64246 0.26801 0.64816 0.0
H3637 H 0.66395 0.27503 0.63147 0.0
H3638 H 0.69436 0.27353 0.66967 0.0
H3639 H 0.67305 0.26626 0.68654 0.0
C3640 C 0.60396 0.28695 0.72741 0.0
C3641 C 0.61419 0.2878 0.73968 0.0
C3642 C 0.6079 0.27893 0.71422 0.0
C3643 C 0.62222 0.272 0.71307 0.0
C3644 C 0.63257 0.27322 0.72514 0.0
C3645 C 0.62853 0.2809 0.7384 0.0
C3646 C 0.62657 0.26316 0.69949 0.0
C3647 C 0.63798 0.26905 0.69003 0.0
C3648 C 0.6205 0.24854 0.69655 0.0
C3649 C 0.60831 0.24194 0.70612 0.0
C3650 C 0.61074 0.23916 0.72168 0.0
C3651 C 0.5991 0.23306 0.73064 0.0
C3652 C 0.58502 0.22958 0.72412 0.0
C3653 C 0.58258 0.23214 0.70862 0.0
C3654 C 0.59418 0.23826 0.69962 0.0
C3655 C 0.6725 0.22495 0.66088 0.0
C3656 C 0.66972 0.22545 0.64514 0.0
C3657 C 0.66138 0.2297 0.67112 0.0
C3658 C 0.64734 0.2351 0.66582 0.0
C3659 C 0.6439 0.23407 0.65028 0.0
C3660 C 0.65503 0.22923 0.63997 0.0
C3661 C 0.6386 0.24536 0.67581 0.0
C3662 C 0.62665 0.23972 0.6847 0.0
C3663 C 0.64386 0.26037 0.67809 0.0
C3664 C 0.65622 0.26663 0.66855 0.0
C3665 C 0.65372 0.26932 0.65299 0.0
C3666 C 0.66586 0.27319 0.6435 0.0
C3667 C 0.68049 0.27455 0.64951 0.0
C3668 C 0.683 0.27236 0.66506 0.0
C3669 C 0.6709 0.26842 0.67459 0.0
H3670 H 0.68985 0.27748 0.64214 0.0
H3671 H 0.57602 0.22485 0.73107 0.0
H3672 H 0.18702 0.89598 0.77944 0.0
H3673 H 0.19382 0.88365 0.80362 0.0
H3674 H 0.23471 0.86599 0.78297 0.0
H3675 H 0.22832 0.87855 0.75923 0.0
H3676 H 0.19721 0.85493 0.81124 0.0
H3677 H 0.2632 0.86358 0.80649 0.0
H3678 H 0.28107 0.88346 0.79799 0.0
H3679 H 0.24686 0.91759 0.80504 0.0
H3680 H 0.22885 0.89796 0.81379 0.0
H3681 H 0.23672 0.79528 0.84486 0.0
H3682 H 0.22652 0.81526 0.82858 0.0
H3683 H 0.24456 0.8494 0.85891 0.0
H3684 H 0.25522 0.82948 0.87505 0.0
H3685 H 0.24986 0.85757 0.83147 0.0
H3686 H 0.20559 0.84244 0.85758 0.0
H3687 H 0.1868 0.82474 0.86863 0.0
H3688 H 0.17601 0.80799 0.82403 0.0
H3689 H 0.19498 0.82542 0.81285 0.0
C3690 C 0.19756 0.88964 0.78019 0.0
C3691 C 0.20717 0.8883 0.76747 0.0
C3692 C 0.20138 0.88255 0.79396 0.0
C3693 C 0.21489 0.87408 0.79519 0.0
C3694 C 0.22442 0.87276 0.78245 0.0
C3695 C 0.22069 0.87989 0.76882 0.0
C3696 C 0.21901 0.86605 0.80947 0.0
C3697 C 0.20866 0.85564 0.81579 0.0
C3698 C 0.23377 0.86735 0.81582 0.0
C3699 C 0.24464 0.87926 0.81074 0.0
C3700 C 0.25952 0.87533 0.80633 0.0
C3701 C 0.26966 0.88656 0.80144 0.0
C3702 C 0.2651 0.90177 0.80095 0.0
C3703 C 0.25037 0.9058 0.80538 0.0
C3704 C 0.24018 0.89462 0.81029 0.0
C3705 C 0.23859 0.80703 0.84806 0.0
C3706 C 0.24686 0.81076 0.86123 0.0
C3707 C 0.2326 0.81846 0.83882 0.0
C3708 C 0.23451 0.83384 0.84269 0.0
C3709 C 0.24288 0.83761 0.85574 0.0
C3710 C 0.24901 0.82619 0.86492 0.0
C3711 C 0.22834 0.84592 0.83265 0.0
C3712 C 0.23831 0.8571 0.82716 0.0
C3713 C 0.21307 0.84574 0.82755 0.0
C3714 C 0.20162 0.83528 0.83431 0.0
C3715 C 0.19925 0.83494 0.85014 0.0
C3716 C 0.1886 0.82494 0.85645 0.0
C3717 C 0.18021 0.81525 0.84704 0.0
C3718 C 0.18246 0.81554 0.83131 0.0
C3719 C 0.19313 0.82549 0.82498 0.0
H3720 H 0.17195 0.80756 0.85194 0.0
H3721 H 0.27297 0.91044 0.79715 0.0
H3722 H 0.60308 0.69134 0.27823 0.0
H3723 H 0.61796 0.69847 0.30063 0.0
H3724 H 0.61206 0.74593 0.28943 0.0
H3725 H 0.59786 0.73875 0.26662 0.0
H3726 H 0.63995 0.74142 0.29419 0.0
H3727 H 0.59531 0.72804 0.32185 0.0
H3728 H 0.57363 0.71214 0.32983 0.0
H3729 H 0.6044 0.67776 0.34587 0.0
H3730 H 0.62629 0.69338 0.3378 0.0
H3731 H 0.67021 0.76896 0.36512 0.0
H3732 H 0.65059 0.76121 0.34684 0.0
H3733 H 0.6723 0.71752 0.34188 0.0
H3734 H 0.69223 0.72533 0.35982 0.0
H3735 H 0.63593 0.72054 0.34649 0.0
H3736 H 0.68033 0.73465 0.31573 0.0
H3737 H 0.70105 0.7522 0.30866 0.0
H3738 H 0.66843 0.78743 0.29962 0.0
H3739 H 0.64753 0.77012 0.30688 0.0
C3740 C 0.60462 0.70329 0.28081 0.0
C3741 C 0.59929 0.71452 0.27079 0.0
C3742 C 0.61313 0.70737 0.29363 0.0
C3743 C 0.61611 0.72277 0.29682 0.0
C3744 C 0.61001 0.73399 0.2872 0.0
C3745 C 0.60181 0.7299 0.27424 0.0
C3746 C 0.62673 0.72717 0.30924 0.0
C3747 C 0.63884 0.73699 0.30566 0.0
C3748 C 0.62556 0.72126 0.32421 0.0
C3749 C 0.61244 0.71183 0.32909 0.0
C3750 C 0.59746 0.71704 0.32697 0.0
C3751 C 0.58513 0.70809 0.33153 0.0
C3752 C 0.58764 0.69393 0.33831 0.0
C3753 C 0.60248 0.68872 0.34059 0.0
C3754 C 0.61485 0.69763 0.33604 0.0
C3755 C 0.67074 0.75767 0.3602 0.0
C3756 C 0.68279 0.74779 0.36376 0.0
C3757 C 0.65954 0.75327 0.34982 0.0
C3758 C 0.66004 0.73881 0.34311 0.0
C3759 C 0.67175 0.72871 0.34702 0.0
C3760 C 0.68315 0.73322 0.35714 0.0
C3761 C 0.64889 0.73464 0.33127 0.0
C3762 C 0.63681 0.72492 0.33498 0.0
C3763 C 0.64988 0.74081 0.31649 0.0
C3764 C 0.66241 0.75117 0.31203 0.0
C3765 C 0.6776 0.74619 0.3124 0.0
C3766 C 0.68937 0.75608 0.30832 0.0
C3767 C 0.68606 0.77094 0.30375 0.0
C3768 C 0.67098 0.77593 0.3032 0.0
C3769 C 0.65917 0.76608 0.30729 0.0
H3770 H 0.69519 0.77858 0.30059 0.0
H3771 H 0.57807 0.68702 0.34184 0.0
H3772 H 0.78653 0.13103 0.75786 0.0
H3773 H 0.77949 0.13891 0.78354 0.0
H3774 H 0.787 0.09326 0.7998 0.0
H3775 H 0.795 0.08545 0.7741 0.0
H3776 H 0.75418 0.11319 0.80143 0.0
H3777 H 0.80577 0.10713 0.81661 0.0
H3778 H 0.83362 0.10982 0.81555 0.0
H3779 H 0.8294 0.15821 0.81993 0.0
H3780 H 0.80147 0.15597 0.82018 0.0
H3781 H 0.74616 0.15885 0.87717 0.0
H3782 H 0.75746 0.1381 0.86217 0.0
H3783 H 0.7469 0.16227 0.82081 0.0
H3784 H 0.73608 0.18317 0.83566 0.0
H3785 H 0.78281 0.14469 0.83847 0.0
H3786 H 0.73221 0.13219 0.79807 0.0
H3787 H 0.70425 0.13025 0.79939 0.0
H3788 H 0.70702 0.11878 0.84679 0.0
H3789 H 0.73499 0.12041 0.84571 0.0
C3790 C 0.787 0.12273 0.76694 0.0
C3791 C 0.79127 0.10763 0.76404 0.0
C3792 C 0.78307 0.12727 0.7816 0.0
C3793 C 0.78297 0.11671 0.79353 0.0
C3794 C 0.78734 0.10162 0.79075 0.0
C3795 C 0.79181 0.09718 0.77612 0.0
C3796 C 0.77627 0.12131 0.80819 0.0
C3797 C 0.76047 0.11981 0.80974 0.0
C3798 C 0.7846 0.12982 0.81901 0.0
C3799 C 0.80142 0.13136 0.81816 0.0
C3800 C 0.81072 0.1184 0.81694 0.0
C3801 C 0.82656 0.11985 0.81654 0.0
C3802 C 0.83328 0.1342 0.81761 0.0
C3803 C 0.82417 0.14713 0.81907 0.0
C3804 C 0.80832 0.14577 0.81925 0.0
C3805 C 0.74608 0.15959 0.86487 0.0
C3806 C 0.74029 0.17258 0.85753 0.0
C3807 C 0.75256 0.1478 0.85636 0.0
C3808 C 0.75291 0.1487 0.84045 0.0
C3809 C 0.74662 0.16139 0.83311 0.0
C3810 C 0.74049 0.1733 0.84158 0.0
C3811 C 0.76073 0.13708 0.83123 0.0
C3812 C 0.77665 0.13754 0.83052 0.0
C3813 C 0.75255 0.12766 0.82113 0.0
C3814 C 0.73571 0.12652 0.82182 0.0
C3815 C 0.72686 0.12917 0.80875 0.0
C3816 C 0.711 0.12814 0.80946 0.0
C3817 C 0.70386 0.12443 0.82317 0.0
C3818 C 0.71256 0.12171 0.8362 0.0
C3819 C 0.72842 0.12272 0.83554 0.0
H3820 H 0.69158 0.12363 0.8237 0.0
H3821 H 0.84554 0.1353 0.81735 0.0
H3822 H 0.39458 0.30209 0.27756 0.0
H3823 H 0.37984 0.29513 0.30018 0.0
H3824 H 0.37678 0.24889 0.28395 0.0
H3825 H 0.3911 0.25589 0.26121 0.0
H3826 H 0.34988 0.2587 0.29073 0.0
H3827 H 0.39824 0.25874 0.31563 0.0
H3828 H 0.42307 0.26914 0.32351 0.0
H3829 H 0.40063 0.30568 0.34691 0.0
H3830 H 0.37566 0.29561 0.33899 0.0
H3831 H 0.33014 0.23657 0.3737 0.0
H3832 H 0.34904 0.24316 0.35443 0.0
H3833 H 0.31594 0.27111 0.33138 0.0
H3834 H 0.29688 0.26442 0.35044 0.0
H3835 H 0.36177 0.26932 0.34487 0.0
H3836 H 0.32069 0.26737 0.29343 0.0
H3837 H 0.29692 0.25454 0.28578 0.0
H3838 H 0.3071 0.21729 0.3157 0.0
H3839 H 0.33102 0.22979 0.32336 0.0
C3840 C 0.39109 0.29037 0.27904 0.0
C3841 C 0.39394 0.27952 0.26766 0.0
C3842 C 0.38265 0.2864 0.29195 0.0
C3843 C 0.37718 0.27148 0.29376 0.0
C3844 C 0.38078 0.26049 0.28276 0.0
C3845 C 0.38903 0.26448 0.26981 0.0
C3846 C 0.36662 0.26754 0.30634 0.0
C3847 C 0.35253 0.26102 0.30256 0.0
C3848 C 0.37008 0.27041 0.3218 0.0
C3849 C 0.38508 0.27649 0.3266 0.0
C3850 C 0.3986 0.26906 0.32236 0.0
C3851 C 0.4127 0.27489 0.32685 0.0
C3852 C 0.41343 0.28809 0.33567 0.0
C3853 C 0.40005 0.29547 0.34006 0.0
C3854 C 0.38592 0.2897 0.33558 0.0
C3855 C 0.32686 0.24415 0.36456 0.0
C3856 C 0.31191 0.24981 0.36354 0.0
C3857 C 0.33772 0.24796 0.3536 0.0
C3858 C 0.33386 0.25749 0.34139 0.0
C3859 C 0.3191 0.26354 0.34058 0.0
C3860 C 0.30821 0.25969 0.3515 0.0
C3861 C 0.34508 0.26061 0.32918 0.0
C3862 C 0.3592 0.26703 0.33302 0.0
C3863 C 0.34183 0.25732 0.31377 0.0
C3864 C 0.32756 0.2496 0.30908 0.0
C3865 C 0.31788 0.25642 0.29833 0.0
C3866 C 0.30438 0.24921 0.294 0.0
C3867 C 0.30048 0.23513 0.30029 0.0
C3868 C 0.3101 0.22821 0.31088 0.0
C3869 C 0.32362 0.23536 0.31523 0.0
H3870 H 0.29001 0.22958 0.29693 0.0
H3871 H 0.42436 0.29258 0.33914 0.0
H3872 H 0.22232 0.19045 0.09879 0.0
H3873 H 0.19904 0.19802 0.11185 0.0
H3874 H 0.20304 0.24315 0.09278 0.0
H3875 H 0.22699 0.2358 0.08066 0.0
H3876 H 0.19979 0.24616 0.12054 0.0
H3877 H 0.17216 0.21671 0.08462 0.0
H3878 H 0.16561 0.19443 0.0689 0.0
H3879 H 0.15783 0.16795 0.10921 0.0
H3880 H 0.16453 0.19001 0.12519 0.0
H3881 H 0.13128 0.26936 0.15782 0.0
H3882 H 0.14692 0.26057 0.13644 0.0
H3883 H 0.16082 0.22146 0.16256 0.0
H3884 H 0.14553 0.23033 0.18411 0.0
H3885 H 0.15241 0.21668 0.12898 0.0
H3886 H 0.18415 0.24645 0.16379 0.0
H3887 H 0.18989 0.26951 0.1787 0.0
H3888 H 0.18851 0.29646 0.13796 0.0
H3889 H 0.18252 0.27355 0.12285 0.0
C3890 C 0.21791 0.20182 0.09698 0.0
C3891 C 0.22633 0.21256 0.0887 0.0
C3892 C 0.20455 0.20616 0.10443 0.0
C3893 C 0.19913 0.22118 0.10328 0.0
C3894 C 0.20699 0.23153 0.09395 0.0
C3895 C 0.22059 0.22732 0.08692 0.0
C3896 C 0.18667 0.22663 0.11338 0.0
C3897 C 0.18928 0.23984 0.122 0.0
C3898 C 0.17302 0.21833 0.11567 0.0
C3899 C 0.16895 0.20501 0.10611 0.0
C3900 C 0.16915 0.20611 0.09014 0.0
C3901 C 0.1654 0.19352 0.08118 0.0
C3902 C 0.16133 0.17978 0.08805 0.0
C3903 C 0.16098 0.1786 0.1039 0.0
C3904 C 0.16473 0.19116 0.11292 0.0
C3905 C 0.13755 0.25882 0.15894 0.0
C3906 C 0.13734 0.25061 0.17267 0.0
C3907 C 0.14641 0.25381 0.14673 0.0
C3908 C 0.15494 0.24037 0.14797 0.0
C3909 C 0.15422 0.23181 0.1614 0.0
C3910 C 0.14562 0.23697 0.17372 0.0
C3911 C 0.16573 0.23601 0.13587 0.0
C3912 C 0.16282 0.22303 0.12707 0.0
C3913 C 0.17901 0.24461 0.13317 0.0
C3914 C 0.1827 0.25834 0.14224 0.0
C3915 C 0.18492 0.25732 0.15804 0.0
C3916 C 0.18825 0.27035 0.16652 0.0
C3917 C 0.18951 0.28445 0.15929 0.0
C3918 C 0.18749 0.28553 0.14355 0.0
C3919 C 0.18413 0.27253 0.13503 0.0
H3920 H 0.1921 0.29453 0.16587 0.0
H3921 H 0.15843 0.17004 0.08109 0.0
H3922 H 0.21931 0.80681 0.9014 0.0
H3923 H 0.19636 0.80364 0.88584 0.0
H3924 H 0.20758 0.7564 0.87892 0.0
H3925 H 0.23037 0.75941 0.89447 0.0
H3926 H 0.20387 0.7732 0.8519 0.0
H3927 H 0.17805 0.7652 0.90063 0.0
H3928 H 0.17027 0.77333 0.92635 0.0
H3929 H 0.1483 0.81269 0.9075 0.0
H3930 H 0.15612 0.80486 0.88168 0.0
H3931 H 0.12585 0.74012 0.83422 0.0
H3932 H 0.14389 0.75044 0.85264 0.0
H3933 H 0.15914 0.78333 0.81955 0.0
H3934 H 0.14133 0.77289 0.80092 0.0
H3935 H 0.14939 0.77774 0.86594 0.0
H3936 H 0.19884 0.78706 0.82444 0.0
H3937 H 0.20724 0.77933 0.79882 0.0
H3938 H 0.18305 0.73712 0.80337 0.0
H3939 H 0.17471 0.74451 0.82913 0.0
C3940 C 0.21662 0.79564 0.89695 0.0
C3941 C 0.22667 0.78336 0.89908 0.0
C3942 C 0.20357 0.79389 0.88798 0.0
C3943 C 0.20042 0.77984 0.8811 0.0
C3944 C 0.20992 0.76737 0.88404 0.0
C3945 C 0.22288 0.76908 0.893 0.0
C3946 C 0.188 0.77821 0.86987 0.0
C3947 C 0.19195 0.77428 0.85493 0.0
C3948 C 0.17252 0.77991 0.87379 0.0
C3949 C 0.16775 0.78451 0.88927 0.0
C3950 C 0.17164 0.77564 0.902 0.0
C3951 C 0.16721 0.78018 0.91658 0.0
C3952 C 0.15882 0.79354 0.91856 0.0
C3953 C 0.15481 0.80235 0.90595 0.0
C3954 C 0.15922 0.79786 0.89135 0.0
C3955 C 0.13293 0.74963 0.83088 0.0
C3956 C 0.13234 0.75547 0.816 0.0
C3957 C 0.14318 0.75559 0.84146 0.0
C3958 C 0.153 0.76752 0.83741 0.0
C3959 C 0.15183 0.77396 0.82285 0.0
C3960 C 0.14167 0.76794 0.8122 0.0
C3961 C 0.16524 0.77219 0.84804 0.0
C3962 C 0.1613 0.77683 0.86283 0.0
C3963 C 0.1808 0.77122 0.84396 0.0
C3964 C 0.18589 0.76649 0.82858 0.0
C3965 C 0.19528 0.77615 0.81996 0.0
C3966 C 0.20007 0.7718 0.80544 0.0
C3967 C 0.19559 0.75779 0.79943 0.0
C3968 C 0.18643 0.74802 0.808 0.0
C3969 C 0.18167 0.75228 0.82257 0.0
H3970 H 0.19927 0.75447 0.78815 0.0
H3971 H 0.1554 0.79704 0.92986 0.0
H3972 H 0.6905 0.72314 0.39773 0.0
H3973 H 0.69839 0.69902 0.3864 0.0
H3974 H 0.74438 0.70682 0.40189 0.0
H3975 H 0.73662 0.73141 0.41229 0.0
H3976 H 0.74513 0.70217 0.37381 0.0
H3977 H 0.72088 0.67554 0.41429 0.0
H3978 H 0.70033 0.66886 0.43218 0.0
H3979 H 0.67167 0.65585 0.39483 0.0
H3980 H 0.69197 0.66264 0.37668 0.0
H3981 H 0.77177 0.63618 0.33662 0.0
H3982 H 0.7639 0.65181 0.35837 0.0
H3983 H 0.71876 0.65551 0.33945 0.0
H3984 H 0.72658 0.63985 0.31774 0.0
H3985 H 0.71916 0.65212 0.37179 0.0
H3986 H 0.74198 0.68323 0.33216 0.0
H3987 H 0.76245 0.68991 0.31411 0.0
H3988 H 0.79396 0.69428 0.3512 0.0
H3989 H 0.77369 0.68742 0.36941 0.0
C3990 C 0.70215 0.7194 0.39916 0.0
C3991 C 0.71299 0.72902 0.40586 0.0
C3992 C 0.70668 0.70558 0.39272 0.0
C3993 C 0.72201 0.70101 0.3933 0.0
C3994 C 0.73252 0.71011 0.4012 0.0
C3995 C 0.72809 0.7241 0.40722 0.0
C3996 C 0.72753 0.68819 0.38375 0.0
C3997 C 0.73966 0.6911 0.37376 0.0
C3998 C 0.72018 0.67385 0.38324 0.0
C3999 C 0.70793 0.6697 0.39411 0.0
C4000 C 0.71016 0.67136 0.40988 0.0
C4001 C 0.69856 0.66753 0.42007 0.0
C4002 C 0.6847 0.66196 0.41464 0.0
C4003 C 0.68242 0.66017 0.39901 0.0
C4004 C 0.69398 0.66398 0.38877 0.0
C4005 C 0.76014 0.64021 0.33722 0.0
C4006 C 0.74987 0.63723 0.32536 0.0
C4007 C 0.75565 0.64908 0.34963 0.0
C4008 C 0.7408 0.65492 0.35041 0.0
C4009 C 0.73028 0.65114 0.33902 0.0
C4010 C 0.73481 0.64241 0.32656 0.0
C4011 C 0.73667 0.66624 0.36214 0.0
C4012 C 0.72477 0.6631 0.37231 0.0
C4013 C 0.74425 0.68038 0.36296 0.0
C4014 C 0.7564 0.68463 0.35208 0.0
C4015 C 0.75332 0.68549 0.33641 0.0
C4016 C 0.76486 0.68933 0.32617 0.0
C4017 C 0.77951 0.69246 0.3315 0.0
C4018 C 0.78262 0.69181 0.34709 0.0
C4019 C 0.77111 0.68796 0.35737 0.0
H4020 H 0.78844 0.69543 0.32356 0.0
H4021 H 0.67573 0.65901 0.42255 0.0
H4022 H 0.77377 0.19241 0.89976 0.0
H4023 H 0.7982 0.20064 0.889 0.0
H4024 H 0.77707 0.24181 0.87262 0.0
H4025 H 0.75284 0.23377 0.8834 0.0
H4026 H 0.80454 0.20503 0.8598 0.0
H4027 H 0.80185 0.27055 0.87147 0.0
H4028 H 0.79384 0.28773 0.89215 0.0
H4029 H 0.80004 0.25187 0.92473 0.0
H4030 H 0.8083 0.23454 0.9043 0.0
H4031 H 0.83961 0.24511 0.80182 0.0
H4032 H 0.82203 0.23697 0.82161 0.0
H4033 H 0.85487 0.24894 0.85606 0.0
H4034 H 0.87256 0.25744 0.83624 0.0
H4035 H 0.82665 0.25674 0.86481 0.0
H4036 H 0.85067 0.21259 0.84581 0.0
H4037 H 0.86024 0.1951 0.82608 0.0
H4038 H 0.81451 0.18629 0.81136 0.0
H4039 H 0.80468 0.20407 0.83067 0.0
C4040 C 0.77444 0.20334 0.89412 0.0
C4041 C 0.76141 0.21244 0.89239 0.0
C4042 C 0.78837 0.208 0.88793 0.0
C4043 C 0.78949 0.22189 0.88011 0.0
C4044 C 0.77657 0.23117 0.87883 0.0
C4045 C 0.76268 0.22651 0.88492 0.0
C4046 C 0.80369 0.22623 0.87206 0.0
C4047 C 0.80948 0.21627 0.86101 0.0
C4048 C 0.81041 0.24075 0.87392 0.0
C4049 C 0.80561 0.2512 0.88631 0.0
C4050 C 0.8016 0.26634 0.88305 0.0
C4051 C 0.79699 0.27611 0.89473 0.0
C4052 C 0.7964 0.27089 0.90974 0.0
C4053 C 0.80045 0.25589 0.9131 0.0
C4054 C 0.80508 0.24609 0.90146 0.0
C4055 C 0.84312 0.24611 0.81359 0.0
C4056 C 0.85758 0.25179 0.81742 0.0
C4057 C 0.83305 0.2414 0.8249 0.0
C4058 C 0.83727 0.24203 0.84029 0.0
C4059 C 0.85143 0.24826 0.84424 0.0
C4060 C 0.86152 0.2531 0.83289 0.0
C4061 C 0.8269 0.23582 0.85208 0.0
C4062 C 0.82187 0.24541 0.8638 0.0
C4063 C 0.82112 0.22081 0.85109 0.0
C4064 C 0.82694 0.20978 0.83965 0.0
C4065 C 0.84265 0.20702 0.83829 0.0
C4066 C 0.84813 0.19707 0.82715 0.0
C4067 C 0.838 0.18967 0.81741 0.0
C4068 C 0.82236 0.19212 0.81884 0.0
C4069 C 0.81682 0.20213 0.8299 0.0
H4070 H 0.84228 0.18195 0.80884 0.0
H4071 H 0.79282 0.27846 0.91876 0.0
H4072 H 0.30417 0.27813 0.39903 0.0
H4073 H 0.29472 0.30165 0.38766 0.0
H4074 H 0.24922 0.29059 0.40261 0.0
H4075 H 0.2586 0.26661 0.41311 0.0
H4076 H 0.24807 0.29584 0.37482 0.0
H4077 H 0.27008 0.32341 0.41546 0.0
H4078 H 0.28961 0.33126 0.434 0.0
H4079 H 0.3186 0.34609 0.39758 0.0
H4080 H 0.29935 0.33813 0.3788 0.0
H4081 H 0.22162 0.36052 0.33393 0.0
H4082 H 0.22799 0.34487 0.35618 0.0
H4083 H 0.27481 0.34315 0.34152 0.0
H4084 H 0.26848 0.35892 0.31942 0.0
H4085 H 0.27213 0.34682 0.37271 0.0
H4086 H 0.25129 0.31376 0.33312 0.0
H4087 H 0.23141 0.30598 0.31485 0.0
H4088 H 0.19924 0.30194 0.35142 0.0
H4089 H 0.21893 0.30995 0.3698 0.0
C4090 C 0.29226 0.28101 0.40031 0.0
C4091 C 0.28208 0.27066 0.40691 0.0
C4092 C 0.28683 0.29449 0.39385 0.0
C4093 C 0.27122 0.298 0.39431 0.0
C4094 C 0.26128 0.28814 0.40203 0.0
C4095 C 0.26664 0.27449 0.40809 0.0
C4096 C 0.26499 0.31058 0.38486 0.0
C4097 C 0.2531 0.30712 0.37475 0.0
C4098 C 0.27163 0.32525 0.38446 0.0
C4099 C 0.28328 0.33008 0.3957 0.0
C4100 C 0.28067 0.32824 0.41139 0.0
C4101 C 0.29168 0.33273 0.42195 0.0
C4102 C 0.30535 0.33915 0.41697 0.0
C4103 C 0.30801 0.34111 0.40142 0.0
C4104 C 0.29704 0.33664 0.39081 0.0
C4105 C 0.23326 0.35682 0.33554 0.0
C4106 C 0.2445 0.36045 0.3248 0.0
C4107 C 0.23689 0.34792 0.34822 0.0
C4108 C 0.25183 0.34268 0.35036 0.0
C4109 C 0.2632 0.34699 0.34002 0.0
C4110 C 0.25955 0.35578 0.32731 0.0
C4111 C 0.25553 0.33185 0.36272 0.0
C4112 C 0.26693 0.33564 0.37324 0.0
C4113 C 0.24832 0.31752 0.36371 0.0
C4114 C 0.23649 0.31266 0.35273 0.0
C4115 C 0.23993 0.31137 0.33718 0.0
C4116 C 0.22871 0.30689 0.32684 0.0
C4117 C 0.21404 0.30353 0.33196 0.0
C4118 C 0.21059 0.30459 0.34745 0.0
C4119 C 0.22177 0.3091 0.35783 0.0
H4120 H 0.20537 0.30005 0.32395 0.0
H4121 H 0.31386 0.34261 0.42516 0.0
H4122 H 0.77875 0.81055 0.09781 0.0
H4123 H 0.80349 0.80614 0.10997 0.0
H4124 H 0.79292 0.75836 0.11394 0.0
H4125 H 0.76841 0.76268 0.10177 0.0
H4126 H 0.80692 0.79672 0.13841 0.0
H4127 H 0.82359 0.73698 0.11395 0.0
H4128 H 0.8238 0.724 0.08909 0.0
H4129 H 0.82517 0.76715 0.06625 0.0
H4130 H 0.82519 0.7804 0.09096 0.0
H4131 H 0.83961 0.75018 0.19337 0.0
H4132 H 0.8249 0.76195 0.17305 0.0
H4133 H 0.8647 0.76226 0.14428 0.0
H4134 H 0.8794 0.75006 0.16451 0.0
H4135 H 0.842 0.75364 0.12849 0.0
H4136 H 0.85039 0.79548 0.1611 0.0
H4137 H 0.85134 0.81034 0.18488 0.0
H4138 H 0.80294 0.80626 0.18974 0.0
H4139 H 0.80165 0.79126 0.16608 0.0
C4140 C 0.78196 0.79905 0.10083 0.0
C4141 C 0.77171 0.78693 0.09887 0.0
C4142 C 0.79603 0.79657 0.10786 0.0
C4143 C 0.80008 0.78192 0.11278 0.0
C4144 C 0.79017 0.76972 0.11001 0.0
C4145 C 0.77613 0.7722 0.1031 0.0
C4146 C 0.81368 0.77942 0.12242 0.0
C4147 C 0.81476 0.78745 0.13619 0.0
C4148 C 0.82415 0.76763 0.11928 0.0
C4149 C 0.82433 0.75969 0.10435 0.0
C4150 C 0.82405 0.74371 0.10364 0.0
C4151 C 0.8241 0.7363 0.08956 0.0
C4152 C 0.82448 0.74474 0.0761 0.0
C4153 C 0.82483 0.76062 0.07668 0.0
C4154 C 0.82479 0.76809 0.09073 0.0
C4155 C 0.84524 0.75275 0.18274 0.0
C4156 C 0.86065 0.74917 0.18055 0.0
C4157 C 0.83685 0.75962 0.17115 0.0
C4158 C 0.84378 0.76334 0.15724 0.0
C4159 C 0.85913 0.75959 0.15494 0.0
C4160 C 0.86749 0.75253 0.16648 0.0
C4161 C 0.83469 0.77036 0.14488 0.0
C4162 C 0.83446 0.76317 0.13061 0.0
C4163 C 0.82524 0.78317 0.14745 0.0
C4164 C 0.82595 0.79214 0.1618 0.0
C4165 C 0.83995 0.79763 0.16729 0.0
C4166 C 0.84056 0.80609 0.18076 0.0
C4167 C 0.82723 0.80917 0.18885 0.0
C4168 C 0.81326 0.80384 0.18347 0.0
C4169 C 0.81258 0.79539 0.17001 0.0
H4170 H 0.82771 0.81575 0.19924 0.0
H4171 H 0.8245 0.73898 0.06522 0.0
H4172 H 0.75514 0.34068 0.69378 0.0
H4173 H 0.74609 0.32207 0.67517 0.0
H4174 H 0.73983 0.35782 0.64217 0.0
H4175 H 0.74912 0.37656 0.66073 0.0
H4176 H 0.71407 0.33733 0.64641 0.0
H4177 H 0.76723 0.33598 0.63522 0.0
H4178 H 0.79458 0.33447 0.64127 0.0
H4179 H 0.78805 0.29027 0.661 0.0
H4180 H 0.76061 0.2916 0.65527 0.0
H4181 H 0.69251 0.27523 0.59633 0.0
H4182 H 0.70293 0.29913 0.60621 0.0
H4183 H 0.72722 0.2741 0.64082 0.0
H4184 H 0.71783 0.25039 0.63027 0.0
H4185 H 0.74521 0.2933 0.62995 0.0
H4186 H 0.69259 0.30573 0.65483 0.0
H4187 H 0.66466 0.30787 0.65239 0.0
H4188 H 0.66998 0.33021 0.60925 0.0
H4189 H 0.69794 0.32826 0.61158 0.0
C4190 C 0.75196 0.34456 0.68252 0.0
C4191 C 0.75286 0.36003 0.67867 0.0
C4192 C 0.74684 0.33393 0.6719 0.0
C4193 C 0.7424 0.33859 0.65729 0.0
C4194 C 0.74328 0.35403 0.65338 0.0
C4195 C 0.74865 0.36467 0.66394 0.0
C4196 C 0.73638 0.32724 0.64643 0.0
C4197 C 0.72092 0.32782 0.64257 0.0
C4198 C 0.7453 0.31483 0.64152 0.0
C4199 C 0.76183 0.31393 0.64488 0.0
C4200 C 0.7716 0.32598 0.64094 0.0
C4201 C 0.78712 0.32515 0.6443 0.0
C4202 C 0.79304 0.31229 0.65153 0.0
C4203 C 0.78345 0.30022 0.65539 0.0
C4204 C 0.76791 0.301 0.65207 0.0
C4205 C 0.69999 0.27493 0.60612 0.0
C4206 C 0.7044 0.26096 0.6125 0.0
C4207 C 0.7058 0.28862 0.61191 0.0
C4208 C 0.71569 0.28858 0.62451 0.0
C4209 C 0.71974 0.27456 0.63103 0.0
C4210 C 0.71429 0.26094 0.62502 0.0
C4211 C 0.72258 0.30281 0.63069 0.0
C4212 C 0.73833 0.30288 0.63358 0.0
C4213 C 0.71388 0.3157 0.63493 0.0
C4214 C 0.69721 0.31636 0.63313 0.0
C4215 C 0.68774 0.31089 0.64474 0.0
C4216 C 0.67194 0.31217 0.64344 0.0
C4217 C 0.66554 0.31901 0.63059 0.0
C4218 C 0.67494 0.32477 0.61912 0.0
C4219 C 0.69075 0.3236 0.62045 0.0
H4220 H 0.6533 0.31995 0.62957 0.0
H4221 H 0.80506 0.31167 0.65412 0.0
H4222 H 0.25769 0.65649 0.68694 0.0
H4223 H 0.26666 0.67058 0.66487 0.0
H4224 H 0.24766 0.6365 0.63509 0.0
H4225 H 0.23834 0.62238 0.65719 0.0
H4226 H 0.28578 0.66464 0.64194 0.0
H4227 H 0.23466 0.65511 0.6031 0.0
H4228 H 0.20754 0.64789 0.60449 0.0
H4229 H 0.20438 0.6675 0.64913 0.0
H4230 H 0.23141 0.67497 0.64791 0.0
H4231 H 0.30097 0.71838 0.58422 0.0
H4232 H 0.29338 0.6929 0.59279 0.0
H4233 H 0.25425 0.71228 0.61529 0.0
H4234 H 0.26121 0.73729 0.6061 0.0
H4235 H 0.2472 0.68531 0.60628 0.0
H4236 H 0.29189 0.70818 0.6323 0.0
H4237 H 0.31831 0.71753 0.63139 0.0
H4238 H 0.33351 0.67417 0.61498 0.0
H4239 H 0.30711 0.66457 0.61558 0.0
C4240 C 0.25539 0.65194 0.67573 0.0
C4241 C 0.24709 0.63839 0.67386 0.0
C4242 C 0.26066 0.65996 0.6631 0.0
C4243 C 0.25777 0.65463 0.64833 0.0
C4244 C 0.24989 0.64089 0.64639 0.0
C4245 C 0.24454 0.63286 0.65904 0.0
C4246 C 0.26222 0.66415 0.63515 0.0
C4247 C 0.27739 0.66899 0.63399 0.0
C4248 C 0.25134 0.66969 0.62465 0.0
C4249 C 0.23507 0.66539 0.62548 0.0
C4250 C 0.22815 0.65789 0.61319 0.0
C4251 C 0.2128 0.65376 0.61395 0.0
C4252 C 0.20426 0.65718 0.62692 0.0
C4253 C 0.21102 0.6648 0.63913 0.0
C4254 C 0.22635 0.66897 0.63841 0.0
C4255 C 0.29055 0.71708 0.59066 0.0
C4256 C 0.28187 0.72985 0.59481 0.0
C4257 C 0.28624 0.70254 0.59558 0.0
C4258 C 0.27345 0.70071 0.60503 0.0
C4259 C 0.26419 0.71334 0.60808 0.0
C4260 C 0.26829 0.72772 0.60294 0.0
C4261 C 0.27058 0.68643 0.61358 0.0
C4262 C 0.25573 0.68056 0.61385 0.0
C4263 C 0.28167 0.68017 0.62347 0.0
C4264 C 0.29755 0.68573 0.6238 0.0
C4265 C 0.30087 0.70066 0.62845 0.0
C4266 C 0.31581 0.70604 0.6279 0.0
C4267 C 0.32756 0.69654 0.62298 0.0
C4268 C 0.32439 0.68156 0.6187 0.0
C4269 C 0.30944 0.67614 0.61913 0.0
H4270 H 0.33913 0.70074 0.62262 0.0
H4271 H 0.19239 0.65396 0.62749 0.0
H4272 H 0.84359 0.85746 0.71645 0.0
H4273 H 0.86611 0.84358 0.72556 0.0
H4274 H 0.84757 0.84327 0.77099 0.0
H4275 H 0.82489 0.85668 0.76181 0.0
H4276 H 0.88106 0.84526 0.76926 0.0
H4277 H 0.83748 0.81607 0.7513 0.0
H4278 H 0.81796 0.80939 0.73227 0.0
H4279 H 0.85295 0.79843 0.69997 0.0
H4280 H 0.87266 0.8053 0.71879 0.0
H4281 H 0.89833 0.77509 0.8055 0.0
H4282 H 0.89 0.79948 0.79498 0.0
H4283 H 0.90396 0.78489 0.75016 0.0
H4284 H 0.91141 0.76023 0.76059 0.0
H4285 H 0.87647 0.79277 0.74903 0.0
H4286 H 0.92046 0.81665 0.76965 0.0
H4287 H 0.93952 0.82317 0.78917 0.0
H4288 H 0.90478 0.84385 0.81658 0.0
H4289 H 0.88546 0.83728 0.79733 0.0
C4290 C 0.84459 0.85478 0.72844 0.0
C4291 C 0.83256 0.85781 0.73845 0.0
C4292 C 0.85743 0.84695 0.73363 0.0
C4293 C 0.85839 0.84235 0.74892 0.0
C4294 C 0.84701 0.84675 0.75918 0.0
C4295 C 0.83405 0.85425 0.75393 0.0
C4296 C 0.86938 0.83054 0.75358 0.0
C4297 C 0.88021 0.83377 0.76485 0.0
C4298 C 0.86829 0.81566 0.74763 0.0
C4299 C 0.8565 0.81138 0.73636 0.0
C4300 C 0.84098 0.81235 0.7401 0.0
C4301 C 0.8299 0.80852 0.72936 0.0
C4302 C 0.83422 0.80353 0.71489 0.0
C4303 C 0.84963 0.80233 0.71116 0.0
C4304 C 0.86076 0.8062 0.72186 0.0
C4305 C 0.90006 0.77735 0.7935 0.0
C4306 C 0.90545 0.7659 0.7838 0.0
C4307 C 0.89536 0.7913 0.78748 0.0
C4308 C 0.89639 0.79409 0.77174 0.0
C4309 C 0.90298 0.78301 0.76231 0.0
C4310 C 0.90728 0.76896 0.76825 0.0
C4311 C 0.88845 0.80731 0.76481 0.0
C4312 C 0.8779 0.8043 0.75319 0.0
C4313 C 0.8899 0.82233 0.77047 0.0
C4314 C 0.90149 0.82639 0.78206 0.0
C4315 C 0.91686 0.8225 0.77988 0.0
C4316 C 0.92772 0.82622 0.79089 0.0
C4317 C 0.92336 0.8339 0.80411 0.0
C4318 C 0.90814 0.83791 0.80633 0.0
C4319 C 0.89723 0.83421 0.79536 0.0
H4320 H 0.93178 0.83676 0.81263 0.0
H4321 H 0.82562 0.80056 0.70659 0.0
H4322 H 0.66164 0.31016 0.24343 0.0
H4323 H 0.67517 0.332 0.25411 0.0
H4324 H 0.63681 0.36081 0.24379 0.0
H4325 H 0.62303 0.33887 0.23364 0.0
H4326 H 0.66379 0.37384 0.23577 0.0
H4327 H 0.6417 0.35116 0.278 0.0
H4328 H 0.63376 0.33177 0.29655 0.0
H4329 H 0.68022 0.32526 0.31008 0.0
H4330 H 0.68861 0.34392 0.29098 0.0
H4331 H 0.71839 0.40827 0.29979 0.0
H4332 H 0.69318 0.39886 0.2923 0.0
H4333 H 0.71132 0.38552 0.24863 0.0
H4334 H 0.7361 0.39525 0.25582 0.0
H4335 H 0.68634 0.37113 0.28744 0.0
H4336 H 0.68654 0.38325 0.22154 0.0
H4337 H 0.69238 0.40472 0.20448 0.0
H4338 H 0.68542 0.43615 0.24121 0.0
H4339 H 0.6793 0.4149 0.25846 0.0
C4340 C 0.65606 0.32109 0.24362 0.0
C4341 C 0.6412 0.32267 0.238 0.0
C4342 C 0.66377 0.33357 0.24966 0.0
C4343 C 0.65684 0.34794 0.25 0.0
C4344 C 0.64228 0.34976 0.24376 0.0
C4345 C 0.63447 0.33722 0.2379 0.0
C4346 C 0.66508 0.36104 0.2566 0.0
C4347 C 0.66866 0.37334 0.24709 0.0
C4348 C 0.67071 0.36071 0.27169 0.0
C4349 C 0.66582 0.34893 0.28286 0.0
C4350 C 0.6503 0.34539 0.28468 0.0
C4351 C 0.6457 0.3345 0.29532 0.0
C4352 C 0.65647 0.32727 0.30448 0.0
C4353 C 0.67188 0.33086 0.30297 0.0
C4354 C 0.67657 0.34153 0.29214 0.0
C4355 C 0.71682 0.40375 0.28844 0.0
C4356 C 0.7292 0.40239 0.27842 0.0
C4357 C 0.70245 0.39833 0.28419 0.0
C4358 C 0.70028 0.39159 0.26984 0.0
C4359 C 0.71253 0.39098 0.25961 0.0
C4360 C 0.72678 0.39642 0.26381 0.0
C4361 C 0.68611 0.38321 0.26614 0.0
C4362 C 0.68128 0.3718 0.27621 0.0
C4363 C 0.67901 0.38457 0.25174 0.0
C4364 C 0.68248 0.39744 0.24132 0.0
C4365 C 0.68612 0.39474 0.22596 0.0
C4366 C 0.68952 0.40688 0.21626 0.0
C4367 C 0.68929 0.42179 0.22176 0.0
C4368 C 0.68563 0.42459 0.23697 0.0
C4369 C 0.68221 0.4125 0.24672 0.0
H4370 H 0.69193 0.43116 0.21423 0.0
H4371 H 0.65289 0.31889 0.31276 0.0
H4372 H 0.16754 0.12358 0.74213 0.0
H4373 H 0.14872 0.1424 0.75036 0.0
H4374 H 0.18456 0.17514 0.75754 0.0
H4375 H 0.2033 0.15653 0.74901 0.0
H4376 H 0.16526 0.174 0.78161 0.0
H4377 H 0.1623 0.17809 0.72724 0.0
H4378 H 0.1588 0.16874 0.70102 0.0
H4379 H 0.11357 0.15394 0.71208 0.0
H4380 H 0.1169 0.16302 0.73845 0.0
H4381 H 0.11507 0.24266 0.76203 0.0
H4382 H 0.12934 0.22019 0.75451 0.0
H4383 H 0.11687 0.19802 0.79651 0.0
H4384 H 0.1027 0.22082 0.8043 0.0
H4385 H 0.12282 0.1918 0.74895 0.0
H4386 H 0.14728 0.1754 0.80749 0.0
H4387 H 0.1547 0.18677 0.83207 0.0
H4388 H 0.16111 0.23006 0.81037 0.0
H4389 H 0.15376 0.21893 0.78566 0.0
C4390 C 0.1714 0.13484 0.74531 0.0
C4391 C 0.18698 0.13853 0.74511 0.0
C4392 C 0.16063 0.14555 0.75006 0.0
C4393 C 0.16526 0.16013 0.75465 0.0
C4394 C 0.18076 0.1639 0.75422 0.0
C4395 C 0.19148 0.15324 0.7494 0.0
C4396 C 0.15404 0.17154 0.75997 0.0
C4397 C 0.15588 0.1778 0.77453 0.0
C4398 C 0.14193 0.17658 0.75067 0.0
C4399 C 0.13992 0.17105 0.73486 0.0
C4400 C 0.15166 0.1727 0.72412 0.0
C4401 C 0.1497 0.16748 0.70923 0.0
C4402 C 0.13599 0.1607 0.7049 0.0
C4403 C 0.1242 0.15916 0.71546 0.0
C4404 C 0.12612 0.16434 0.73038 0.0
C4405 C 0.11522 0.23297 0.76963 0.0
C4406 C 0.10783 0.23353 0.78379 0.0
C4407 C 0.12335 0.22009 0.76528 0.0
C4408 C 0.12431 0.20746 0.77499 0.0
C4409 C 0.11644 0.20772 0.78892 0.0
C4410 C 0.10826 0.22069 0.79331 0.0
C4411 C 0.13411 0.19444 0.77058 0.0
C4412 C 0.13199 0.18779 0.75619 0.0
C4413 C 0.14622 0.18932 0.77989 0.0
C4414 C 0.1498 0.19637 0.79479 0.0
C4415 C 0.15018 0.18737 0.808 0.0
C4416 C 0.15439 0.19376 0.82194 0.0
C4417 C 0.15836 0.20913 0.82278 0.0
C4418 C 0.15796 0.21818 0.80971 0.0
C4419 C 0.15372 0.21184 0.79574 0.0
H4420 H 0.16186 0.21396 0.83354 0.0
H4421 H 0.13449 0.15668 0.69336 0.0
H4422 H 0.36358 0.67337 0.23105 0.0
H4423 H 0.34591 0.65351 0.23946 0.0
H4424 H 0.33714 0.67869 0.28067 0.0
H4425 H 0.35477 0.6985 0.2723 0.0
H4426 H 0.34449 0.63483 0.26484 0.0
H4427 H 0.29963 0.67517 0.28904 0.0
H4428 H 0.29188 0.70206 0.28682 0.0
H4429 H 0.30711 0.70287 0.24039 0.0
H4430 H 0.31476 0.67594 0.24229 0.0
H4431 H 0.27967 0.59872 0.30437 0.0
H4432 H 0.30197 0.6145 0.29836 0.0
H4433 H 0.28408 0.62272 0.25343 0.0
H4434 H 0.26209 0.60682 0.25915 0.0
H4435 H 0.29057 0.64962 0.27275 0.0
H4436 H 0.31228 0.60226 0.25392 0.0
H4437 H 0.3206 0.57562 0.25675 0.0
H4438 H 0.3515 0.58878 0.29223 0.0
H4439 H 0.34319 0.61549 0.28975 0.0
C4440 C 0.35787 0.67465 0.24189 0.0
C4441 C 0.36016 0.6877 0.25084 0.0
C4442 C 0.34787 0.66326 0.24673 0.0
C4443 C 0.34008 0.66473 0.26059 0.0
C4444 C 0.34282 0.67747 0.2698 0.0
C4445 C 0.35274 0.68887 0.26494 0.0
C4446 C 0.32843 0.65337 0.26498 0.0
C4447 C 0.33271 0.63806 0.26661 0.0
C4448 C 0.31309 0.65761 0.26739 0.0
C4449 C 0.30788 0.67359 0.26586 0.0
C4450 C 0.30122 0.68106 0.27833 0.0
C4451 C 0.29687 0.69632 0.27713 0.0
C4452 C 0.29905 0.70418 0.26349 0.0
C4453 C 0.30547 0.69678 0.25097 0.0
C4454 C 0.30982 0.68152 0.2521 0.0
C4455 C 0.28073 0.60353 0.29308 0.0
C4456 C 0.2691 0.60162 0.28225 0.0
C4457 C 0.29341 0.61259 0.2897 0.0
C4458 C 0.29451 0.61984 0.27552 0.0
C4459 C 0.28333 0.61727 0.26447 0.0
C4460 C 0.27082 0.60814 0.26775 0.0
C4461 C 0.3066 0.63109 0.27242 0.0
C4462 C 0.30238 0.64642 0.2711 0.0
C4463 C 0.32195 0.62685 0.27034 0.0
C4464 C 0.32698 0.61083 0.27177 0.0
C4465 C 0.32074 0.59945 0.26242 0.0
C4466 C 0.32548 0.58434 0.26394 0.0
C4467 C 0.33654 0.5805 0.2747 0.0
C4468 C 0.34292 0.59177 0.28392 0.0
C4469 C 0.3382 0.60689 0.28246 0.0
H4470 H 0.3402 0.5688 0.27585 0.0
H4471 H 0.29573 0.71601 0.2626 0.0
H4472 H 0.82837 0.1187 0.25501 0.0
H4473 H 0.84742 0.13715 0.24683 0.0
H4474 H 0.81179 0.16794 0.23298 0.0
H4475 H 0.79263 0.14937 0.24074 0.0
H4476 H 0.83351 0.16808 0.21262 0.0
H4477 H 0.83113 0.17237 0.26703 0.0
H4478 H 0.83205 0.16313 0.2935 0.0
H4479 H 0.87813 0.14828 0.287 0.0
H4480 H 0.87742 0.15727 0.2604 0.0
H4481 H 0.88241 0.23635 0.2378 0.0
H4482 H 0.86738 0.21393 0.24373 0.0
H4483 H 0.88236 0.19269 0.20206 0.0
H4484 H 0.8971 0.21555 0.19575 0.0
H4485 H 0.87255 0.18592 0.24926 0.0
H4486 H 0.85389 0.17012 0.18838 0.0
H4487 H 0.84944 0.18216 0.16338 0.0
H4488 H 0.84038 0.22478 0.18539 0.0
H4489 H 0.8448 0.21307 0.2104 0.0
C4490 C 0.82456 0.12941 0.25025 0.0
C4491 C 0.80895 0.13262 0.24867 0.0
C4492 C 0.83549 0.13995 0.24558 0.0
C4493 C 0.83105 0.15401 0.23947 0.0
C4494 C 0.81549 0.15715 0.23766 0.0
C4495 C 0.80454 0.14656 0.24218 0.0
C4496 C 0.84257 0.16561 0.23525 0.0
C4497 C 0.84211 0.17191 0.2206 0.0
C4498 C 0.85369 0.17074 0.2457 0.0
C4499 C 0.85416 0.16533 0.26168 0.0
C4500 C 0.84142 0.16702 0.27121 0.0
C4501 C 0.84191 0.16185 0.28624 0.0
C4502 C 0.85512 0.15507 0.29192 0.0
C4503 C 0.86789 0.1535 0.28258 0.0
C4504 C 0.86746 0.15864 0.26753 0.0
C4505 C 0.88262 0.22689 0.22992 0.0
C4506 C 0.89084 0.22778 0.21624 0.0
C4507 C 0.87405 0.21402 0.23336 0.0
C4508 C 0.87356 0.20166 0.22327 0.0
C4509 C 0.88235 0.20219 0.2099 0.0
C4510 C 0.89086 0.2152 0.20637 0.0
C4511 C 0.86335 0.18862 0.22668 0.0
C4512 C 0.86411 0.18193 0.24118 0.0
C4513 C 0.85217 0.18352 0.21626 0.0
C4514 C 0.84989 0.19077 0.20122 0.0
C4515 C 0.85102 0.18209 0.18784 0.0
C4516 C 0.8485 0.18887 0.17366 0.0
C4517 C 0.84474 0.20429 0.17276 0.0
C4518 C 0.84345 0.21293 0.18604 0.0
C4519 C 0.846 0.20623 0.20022 0.0
H4520 H 0.84276 0.20951 0.16178 0.0
H4521 H 0.85547 0.15108 0.30356 0.0
H4522 H 0.28074 0.40141 0.69297 0.0
H4523 H 0.30526 0.38961 0.69948 0.0
H4524 H 0.28793 0.37855 0.74409 0.0
H4525 H 0.26384 0.3905 0.73783 0.0
H4526 H 0.31675 0.38631 0.74628 0.0
H4527 H 0.28606 0.35374 0.7122 0.0
H4528 H 0.27393 0.34731 0.68778 0.0
H4529 H 0.31667 0.35233 0.66476 0.0
H4530 H 0.32911 0.35888 0.68909 0.0
H4531 H 0.3379 0.30251 0.75249 0.0
H4532 H 0.3236 0.32395 0.74232 0.0
H4533 H 0.36318 0.35265 0.74649 0.0
H4534 H 0.37766 0.33117 0.75688 0.0
H4535 H 0.32927 0.34023 0.71622 0.0
H4536 H 0.34833 0.3895 0.75372 0.0
H4537 H 0.35944 0.39434 0.77907 0.0
H4538 H 0.33815 0.35392 0.79638 0.0
H4539 H 0.32679 0.34896 0.77119 0.0
C4540 C 0.28234 0.39674 0.70426 0.0
C4541 C 0.27034 0.39673 0.71485 0.0
C4542 C 0.29631 0.38995 0.70794 0.0
C4543 C 0.29838 0.38302 0.72222 0.0
C4544 C 0.28666 0.38383 0.73302 0.0
C4545 C 0.27282 0.39059 0.72938 0.0
C4546 C 0.31198 0.37366 0.7258 0.0
C4547 C 0.31969 0.37639 0.73954 0.0
C4548 C 0.31597 0.36077 0.71699 0.0
C4549 C 0.30844 0.35707 0.70239 0.0
C4550 C 0.29284 0.35362 0.70191 0.0
C4551 C 0.28591 0.34993 0.68808 0.0
C4552 C 0.29446 0.34953 0.67469 0.0
C4553 C 0.31002 0.35273 0.67512 0.0
C4554 C 0.31702 0.35643 0.68892 0.0
C4555 C 0.34359 0.31339 0.75135 0.0
C4556 C 0.35894 0.31511 0.75548 0.0
C4557 C 0.33541 0.32562 0.74546 0.0
C4558 C 0.34237 0.33984 0.74353 0.0
C4559 C 0.35761 0.34175 0.7479 0.0
C4560 C 0.36583 0.32949 0.75388 0.0
C4561 C 0.33339 0.35251 0.73702 0.0
C4562 C 0.32671 0.35044 0.72268 0.0
C4563 C 0.33024 0.3659 0.74534 0.0
C4564 C 0.33691 0.36877 0.76054 0.0
C4565 C 0.34603 0.38167 0.76295 0.0
C4566 C 0.35236 0.38443 0.77729 0.0
C4567 C 0.34956 0.37441 0.78931 0.0
C4568 C 0.34037 0.36163 0.78704 0.0
C4569 C 0.33401 0.35883 0.77273 0.0
H4570 H 0.35447 0.37657 0.80039 0.0
H4571 H 0.28904 0.3467 0.664 0.0
H4572 H 0.18992 0.83316 0.26604 0.0
H4573 H 0.16874 0.81809 0.25635 0.0
H4574 H 0.14185 0.85879 0.25115 0.0
H4575 H 0.16293 0.874 0.26113 0.0
H4576 H 0.12447 0.83322 0.25942 0.0
H4577 H 0.16133 0.84792 0.22285 0.0
H4578 H 0.18791 0.85129 0.21471 0.0
H4579 H 0.19391 0.80285 0.21331 0.0
H4580 H 0.16763 0.79916 0.22238 0.0
H4581 H 0.10147 0.77724 0.19225 0.0
H4582 H 0.1123 0.80154 0.20093 0.0
H4583 H 0.11428 0.78417 0.24681 0.0
H4584 H 0.10362 0.76009 0.23825 0.0
H4585 H 0.14048 0.80448 0.21347 0.0
H4586 H 0.10956 0.81192 0.27203 0.0
H4587 H 0.08365 0.80912 0.2824 0.0
H4588 H 0.06483 0.81517 0.23773 0.0
H4589 H 0.09059 0.81824 0.22712 0.0
C4590 C 0.1794 0.83888 0.26316 0.0
C4591 C 0.17819 0.85479 0.26408 0.0
C4592 C 0.1673 0.83026 0.25766 0.0
C4593 C 0.15391 0.83741 0.25272 0.0
C4594 C 0.15215 0.85311 0.25483 0.0
C4595 C 0.16422 0.86176 0.26051 0.0
C4596 C 0.1427 0.82867 0.24374 0.0
C4597 C 0.12787 0.827 0.24932 0.0
C4598 C 0.14706 0.82116 0.23016 0.0
C4599 C 0.16248 0.82326 0.22345 0.0
C4600 C 0.16833 0.83796 0.22093 0.0
C4601 C 0.1834 0.83994 0.21629 0.0
C4602 C 0.19261 0.82729 0.21354 0.0
C4603 C 0.18676 0.81264 0.21547 0.0
C4604 C 0.17179 0.8106 0.22046 0.0
C4605 C 0.10389 0.77881 0.20423 0.0
C4606 C 0.10176 0.76683 0.2146 0.0
C4607 C 0.11011 0.79263 0.20915 0.0
C4608 C 0.11396 0.79469 0.22453 0.0
C4609 C 0.11116 0.78294 0.23495 0.0
C4610 C 0.10515 0.76914 0.23003 0.0
C4611 C 0.12247 0.80828 0.22968 0.0
C4612 C 0.13687 0.81096 0.22334 0.0
C4613 C 0.11762 0.8169 0.24239 0.0
C4614 C 0.10205 0.81526 0.24877 0.0
C4615 C 0.0999 0.81277 0.26443 0.0
C4616 C 0.08523 0.8111 0.27035 0.0
C4617 C 0.0726 0.81194 0.26073 0.0
C4618 C 0.07462 0.81448 0.24517 0.0
C4619 C 0.08926 0.81616 0.23919 0.0
H4620 H 0.06126 0.81063 0.26534 0.0
H4621 H 0.20425 0.82886 0.20984 0.0
H4622 H 0.72072 0.60092 0.69855 0.0
H4623 H 0.69764 0.61377 0.70746 0.0
H4624 H 0.72321 0.63447 0.7439 0.0
H4625 H 0.74613 0.62143 0.73532 0.0
H4626 H 0.69632 0.62633 0.754 0.0
H4627 H 0.71563 0.65345 0.7107 0.0
H4628 H 0.7241 0.65685 0.68422 0.0
H4629 H 0.67998 0.6436 0.66805 0.0
H4630 H 0.67125 0.63996 0.69449 0.0
H4631 H 0.65529 0.69901 0.75947 0.0
H4632 H 0.67484 0.68056 0.75192 0.0
H4633 H 0.63996 0.6479 0.74094 0.0
H4634 H 0.62033 0.66611 0.74889 0.0
H4635 H 0.66966 0.66052 0.71786 0.0
H4636 H 0.65142 0.63271 0.76338 0.0
H4637 H 0.64438 0.63196 0.79054 0.0
H4638 H 0.68834 0.6495 0.80266 0.0
H4639 H 0.69553 0.65056 0.77552 0.0
C4640 C 0.72135 0.60804 0.70859 0.0
C4641 C 0.73525 0.61027 0.71617 0.0
C4642 C 0.70818 0.61544 0.71361 0.0
C4643 C 0.70876 0.62527 0.72621 0.0
C4644 C 0.7225 0.62697 0.73415 0.0
C4645 C 0.73561 0.61955 0.72918 0.0
C4646 C 0.6953 0.63435 0.73082 0.0
C4647 C 0.69046 0.63373 0.74604 0.0
C4648 C 0.68763 0.64407 0.72048 0.0
C4649 C 0.69286 0.6462 0.70457 0.0
C4650 C 0.70777 0.65112 0.7015 0.0
C4651 C 0.71262 0.65311 0.68649 0.0
C4652 C 0.70263 0.65035 0.67444 0.0
C4653 C 0.68773 0.64568 0.67739 0.0
C4654 C 0.68282 0.64365 0.69239 0.0
C4655 C 0.65181 0.68783 0.7556 0.0
C4656 C 0.63633 0.68393 0.75482 0.0
C4657 C 0.66295 0.67735 0.7513 0.0
C4658 C 0.65877 0.66292 0.74598 0.0
C4659 C 0.64335 0.65897 0.74517 0.0
C4660 C 0.6322 0.66933 0.74975 0.0
C4661 C 0.6706 0.6522 0.74085 0.0
C4662 C 0.67526 0.65274 0.72562 0.0
C4663 C 0.67822 0.64256 0.75117 0.0
C4664 C 0.67392 0.64191 0.76744 0.0
C4665 C 0.65951 0.63658 0.77183 0.0
C4666 C 0.65551 0.63605 0.78722 0.0
C4667 C 0.66588 0.64074 0.79831 0.0
C4668 C 0.6803 0.64591 0.79405 0.0
C4669 C 0.68434 0.64647 0.77867 0.0
H4670 H 0.66277 0.64031 0.81022 0.0
H4671 H 0.70642 0.65189 0.66282 0.0
H4672 H 0.7491 0.82567 0.87347 0.0
H4673 H 0.75857 0.84277 0.85359 0.0
H4674 H 0.74604 0.80979 0.81938 0.0
H4675 H 0.7374 0.79244 0.83925 0.0
H4676 H 0.77282 0.81853 0.814 0.0
H4677 H 0.72647 0.84523 0.82626 0.0
H4678 H 0.70817 0.85841 0.84295 0.0
H4679 H 0.74213 0.89162 0.85438 0.0
H4680 H 0.7607 0.87852 0.83789 0.0
H4681 H 0.7705 0.86051 0.74628 0.0
H4682 H 0.76351 0.84744 0.76967 0.0
H4683 H 0.79022 0.87927 0.79574 0.0
H4684 H 0.79753 0.89245 0.77214 0.0
H4685 H 0.75965 0.87298 0.80731 0.0
H4686 H 0.80525 0.84552 0.79254 0.0
H4687 H 0.82225 0.831 0.77556 0.0
H4688 H 0.78675 0.79861 0.76713 0.0
H4689 H 0.76957 0.81277 0.7842 0.0
C4690 C 0.74819 0.82223 0.86167 0.0
C4691 C 0.74256 0.80777 0.85784 0.0
C4692 C 0.75356 0.83201 0.85031 0.0
C4693 C 0.75297 0.82763 0.83494 0.0
C4694 C 0.74675 0.8134 0.83115 0.0
C4695 C 0.74175 0.80351 0.84248 0.0
C4696 C 0.75965 0.83728 0.82276 0.0
C4697 C 0.76975 0.83039 0.81249 0.0
C4698 C 0.75616 0.85293 0.82105 0.0
C4699 C 0.74502 0.86079 0.83099 0.0
C4700 C 0.73007 0.85527 0.83243 0.0
C4701 C 0.71965 0.86274 0.84184 0.0
C4702 C 0.724 0.87581 0.84976 0.0
C4703 C 0.73878 0.88147 0.84826 0.0
C4704 C 0.74926 0.87403 0.83888 0.0
C4705 C 0.77492 0.86479 0.75695 0.0
C4706 C 0.78464 0.87748 0.75736 0.0
C4707 C 0.77095 0.85725 0.77031 0.0
C4708 C 0.7765 0.86229 0.78437 0.0
C4709 C 0.78589 0.87519 0.78494 0.0
C4710 C 0.79003 0.88269 0.77149 0.0
C4711 C 0.77223 0.85398 0.79836 0.0
C4712 C 0.76272 0.86114 0.80899 0.0
C4713 C 0.77594 0.83846 0.80025 0.0
C4714 C 0.7861 0.83028 0.78955 0.0
C4715 C 0.80101 0.8354 0.78693 0.0
C4716 C 0.81069 0.82721 0.77731 0.0
C4717 C 0.80554 0.81399 0.77017 0.0
C4718 C 0.79071 0.80887 0.77264 0.0
C4719 C 0.78103 0.81693 0.78234 0.0
H4720 H 0.81307 0.80763 0.76279 0.0
H4721 H 0.71591 0.88158 0.85703 0.0
H4722 H 0.61652 0.30724 0.27097 0.0
H4723 H 0.63233 0.29827 0.29229 0.0
H4724 H 0.6229 0.25179 0.27964 0.0
H4725 H 0.60748 0.26068 0.25828 0.0
H4726 H 0.62139 0.25569 0.31019 0.0
H4727 H 0.65408 0.26653 0.26903 0.0
H4728 H 0.66865 0.27952 0.24895 0.0
H4729 H 0.68818 0.30955 0.28211 0.0
H4730 H 0.6735 0.29689 0.30242 0.0
H4731 H 0.70503 0.23703 0.33795 0.0
H4732 H 0.68682 0.24464 0.31832 0.0
H4733 H 0.65403 0.25587 0.35319 0.0
H4734 H 0.67182 0.24719 0.37266 0.0
H4735 H 0.67608 0.26941 0.31147 0.0
H4736 H 0.61815 0.25572 0.34037 0.0
H4737 H 0.60715 0.2366 0.35773 0.0
H4738 H 0.64111 0.20427 0.34404 0.0
H4739 H 0.6522 0.22313 0.32646 0.0
C4740 C 0.61755 0.29513 0.27303 0.0
C4741 C 0.61069 0.28461 0.26316 0.0
C4742 C 0.62669 0.29003 0.28507 0.0
C4743 C 0.62882 0.27436 0.28747 0.0
C4744 C 0.62137 0.26391 0.278 0.0
C4745 C 0.61255 0.26899 0.26585 0.0
C4746 C 0.63919 0.26868 0.29948 0.0
C4747 C 0.63334 0.25878 0.31057 0.0
C4748 C 0.65487 0.27229 0.29963 0.0
C4749 C 0.66237 0.281 0.28724 0.0
C4750 C 0.66114 0.27616 0.27203 0.0
C4751 C 0.66956 0.28336 0.26062 0.0
C4752 C 0.67935 0.29534 0.26428 0.0
C4753 C 0.68056 0.3003 0.27931 0.0
C4754 C 0.67216 0.29315 0.29076 0.0
C4755 C 0.69381 0.24084 0.34133 0.0
C4756 C 0.6897 0.24133 0.35674 0.0
C4757 C 0.68343 0.24528 0.33015 0.0
C4758 C 0.66891 0.2507 0.3342 0.0
C4759 C 0.66491 0.2513 0.34966 0.0
C4760 C 0.67511 0.2464 0.3608 0.0
C4761 C 0.65834 0.25645 0.32229 0.0
C4762 C 0.6641 0.26644 0.31125 0.0
C4763 C 0.64275 0.25237 0.32178 0.0
C4764 C 0.6361 0.2409 0.33223 0.0
C4765 C 0.62324 0.24452 0.34103 0.0
C4766 C 0.617 0.23373 0.35091 0.0
C4767 C 0.62346 0.21925 0.35202 0.0
C4768 C 0.63615 0.21551 0.34321 0.0
C4769 C 0.64243 0.22625 0.3333 0.0
H4770 H 0.61862 0.21092 0.35969 0.0
H4771 H 0.686 0.30079 0.25546 0.0
H4772 H 0.19306 0.11013 0.77378 0.0
H4773 H 0.20172 0.12517 0.79567 0.0
H4774 H 0.24604 0.1044 0.79252 0.0
H4775 H 0.23768 0.08998 0.77009 0.0
H4776 H 0.2279 0.1106 0.82533 0.0
H4777 H 0.25073 0.13054 0.77895 0.0
H4778 H 0.2511 0.14023 0.75266 0.0
H4779 H 0.21978 0.17561 0.76504 0.0
H4780 H 0.21861 0.16563 0.79123 0.0
H4781 H 0.27179 0.16509 0.86767 0.0
H4782 H 0.26324 0.1456 0.84966 0.0
H4783 H 0.227 0.17521 0.83483 0.0
H4784 H 0.23544 0.19458 0.85282 0.0
H4785 H 0.24201 0.16341 0.81121 0.0
H4786 H 0.22009 0.14468 0.85771 0.0
H4787 H 0.22039 0.13603 0.88439 0.0
H4788 H 0.25072 0.09963 0.87251 0.0
H4789 H 0.25077 0.10821 0.84577 0.0
C4790 C 0.2045 0.10846 0.77806 0.0
C4791 C 0.21472 0.09888 0.77041 0.0
C4792 C 0.20944 0.11709 0.79046 0.0
C4793 C 0.22452 0.11591 0.79556 0.0
C4794 C 0.23438 0.10543 0.78868 0.0
C4795 C 0.2296 0.0972 0.77596 0.0
C4796 C 0.23035 0.12667 0.80703 0.0
C4797 C 0.23117 0.1221 0.82229 0.0
C4798 C 0.23435 0.1417 0.80297 0.0
C4799 C 0.23428 0.14708 0.78697 0.0
C4800 C 0.24355 0.14009 0.77597 0.0
C4801 C 0.24398 0.1457 0.76109 0.0
C4802 C 0.23542 0.15849 0.75716 0.0
C4803 C 0.22637 0.16566 0.76808 0.0
C4804 C 0.22571 0.15995 0.78291 0.0
C4805 C 0.262 0.16742 0.86056 0.0
C4806 C 0.25447 0.18152 0.86138 0.0
C4807 C 0.25708 0.15625 0.85035 0.0
C4808 C 0.24445 0.15894 0.84095 0.0
C4809 C 0.23685 0.17294 0.8419 0.0
C4810 C 0.24177 0.18408 0.85205 0.0
C4811 C 0.23946 0.14749 0.82965 0.0
C4812 C 0.23877 0.15192 0.81435 0.0
C4813 C 0.23561 0.13238 0.83371 0.0
C4814 C 0.23556 0.12719 0.84977 0.0
C4815 C 0.22693 0.13491 0.8608 0.0
C4816 C 0.22702 0.13001 0.87594 0.0
C4817 C 0.23561 0.11732 0.88015 0.0
C4818 C 0.24409 0.10948 0.86923 0.0
C4819 C 0.24406 0.11435 0.85409 0.0
H4820 H 0.23566 0.11353 0.89187 0.0
H4821 H 0.23583 0.16287 0.74566 0.0
H4822 H 0.30502 0.72709 0.36155 0.0
H4823 H 0.32534 0.71957 0.344 0.0
H4824 H 0.34178 0.76577 0.34323 0.0
H4825 H 0.3218 0.77321 0.36137 0.0
H4826 H 0.3344 0.74794 0.31284 0.0
H4827 H 0.36284 0.74705 0.36042 0.0
H4828 H 0.36682 0.73903 0.38701 0.0
H4829 H 0.36657 0.69219 0.37316 0.0
H4830 H 0.36234 0.69994 0.34651 0.0
H4831 H 0.40043 0.74049 0.26983 0.0
H4832 H 0.38481 0.74717 0.29182 0.0
H4833 H 0.37639 0.69962 0.30046 0.0
H4834 H 0.39245 0.69283 0.27861 0.0
H4835 H 0.37974 0.71751 0.3274 0.0
H4836 H 0.34039 0.7173 0.28574 0.0
H4837 H 0.3337 0.72164 0.25877 0.0
H4838 H 0.35253 0.76668 0.26123 0.0
H4839 H 0.35929 0.76249 0.28822 0.0
C4840 C 0.313 0.7356 0.35766 0.0
C4841 C 0.31183 0.75071 0.36264 0.0
C4842 C 0.3246 0.7313 0.34773 0.0
C4843 C 0.33501 0.74213 0.34244 0.0
C4844 C 0.33382 0.75729 0.34728 0.0
C4845 C 0.32244 0.76151 0.35755 0.0
C4846 C 0.34676 0.73769 0.33135 0.0
C4847 C 0.34447 0.74157 0.31608 0.0
C4848 C 0.35945 0.72873 0.33551 0.0
C4849 C 0.3621 0.72407 0.3515 0.0
C4850 C 0.36347 0.73504 0.36307 0.0
C4851 C 0.36581 0.73054 0.37815 0.0
C4852 C 0.3669 0.7151 0.38178 0.0
C4853 C 0.3657 0.70414 0.37034 0.0
C4854 C 0.36334 0.70858 0.35524 0.0
C4855 C 0.39562 0.73145 0.2767 0.0
C4856 C 0.39763 0.71617 0.27257 0.0
C4857 C 0.38657 0.73528 0.28913 0.0
C4858 C 0.37913 0.7239 0.29747 0.0
C4859 C 0.38199 0.70856 0.29408 0.0
C4860 C 0.39125 0.70469 0.2817 0.0
C4861 C 0.36763 0.72822 0.30898 0.0
C4862 C 0.36981 0.72412 0.32424 0.0
C4863 C 0.35462 0.73673 0.30485 0.0
C4864 C 0.35061 0.73947 0.28877 0.0
C4865 C 0.34322 0.72805 0.28042 0.0
C4866 C 0.33935 0.73051 0.26519 0.0
C4867 C 0.34278 0.7444 0.25826 0.0
C4868 C 0.34995 0.7559 0.2666 0.0
C4869 C 0.35377 0.7535 0.28186 0.0
H4870 H 0.33983 0.74628 0.24645 0.0
H4871 H 0.36871 0.71164 0.39346 0.0
H4872 H 0.72365 0.16306 0.13549 0.0
H4873 H 0.73084 0.14195 0.15233 0.0
H4874 H 0.7762 0.16031 0.15605 0.0
H4875 H 0.76902 0.18145 0.13928 0.0
H4876 H 0.77447 0.12726 0.15232 0.0
H4877 H 0.75422 0.16819 0.1837 0.0
H4878 H 0.73459 0.18713 0.19041 0.0
H4879 H 0.70166 0.15142 0.19565 0.0
H4880 H 0.72108 0.13233 0.18876 0.0
H4881 H 0.80343 0.0975 0.2216 0.0
H4882 H 0.7955 0.11068 0.19848 0.0
H4883 H 0.74874 0.09866 0.20766 0.0
H4884 H 0.75663 0.08629 0.2313 0.0
H4885 H 0.74965 0.12666 0.20301 0.0
H4886 H 0.77032 0.08492 0.17546 0.0
H4887 H 0.78925 0.06564 0.16798 0.0
H4888 H 0.82027 0.1009 0.15455 0.0
H4889 H 0.8016 0.12042 0.16214 0.0
C4890 C 0.73517 0.16249 0.13984 0.0
C4891 C 0.74571 0.17399 0.13643 0.0
C4892 C 0.73926 0.15046 0.14941 0.0
C4893 C 0.75402 0.14965 0.15547 0.0
C4894 C 0.76476 0.16076 0.15148 0.0
C4895 C 0.76061 0.17289 0.14209 0.0
C4896 C 0.75794 0.13791 0.16688 0.0
C4897 C 0.76915 0.12709 0.16345 0.0
C4898 C 0.75064 0.1375 0.18118 0.0
C4899 C 0.73903 0.1489 0.18555 0.0
C4900 C 0.74275 0.16443 0.18616 0.0
C4901 C 0.73168 0.17517 0.19002 0.0
C4902 C 0.71687 0.17049 0.1934 0.0
C4903 C 0.71313 0.15504 0.193 0.0
C4904 C 0.72416 0.14426 0.18913 0.0
C4905 C 0.79152 0.09727 0.21841 0.0
C4906 C 0.78062 0.09086 0.22816 0.0
C4907 C 0.78697 0.1048 0.20515 0.0
C4908 C 0.77148 0.10564 0.20119 0.0
C4909 C 0.76074 0.09826 0.21046 0.0
C4910 C 0.76524 0.09111 0.2239 0.0
C4911 C 0.76632 0.11574 0.18861 0.0
C4912 C 0.75488 0.12645 0.19183 0.0
C4913 C 0.7733 0.11584 0.17407 0.0
C4914 C 0.78459 0.10414 0.16949 0.0
C4915 C 0.78122 0.08858 0.17102 0.0
C4916 C 0.7919 0.0776 0.16674 0.0
C4917 C 0.80597 0.08204 0.16083 0.0
C4918 C 0.80937 0.09747 0.15915 0.0
C4919 C 0.79873 0.1085 0.16341 0.0
H4920 H 0.81422 0.07352 0.15752 0.0
H4921 H 0.7083 0.17882 0.19637 0.0
H4922 H 0.40301 0.29482 0.72036 0.0
H4923 H 0.39159 0.28779 0.69583 0.0
H4924 H 0.36877 0.25003 0.71742 0.0
H4925 H 0.38048 0.25657 0.74152 0.0
H4926 H 0.37815 0.24143 0.69115 0.0
H4927 H 0.35193 0.28592 0.71073 0.0
H4928 H 0.3492 0.31258 0.71894 0.0
H4929 H 0.36442 0.32799 0.6752 0.0
H4930 H 0.36748 0.30138 0.66675 0.0
H4931 H 0.30621 0.23119 0.65654 0.0
H4932 H 0.32759 0.2379 0.67325 0.0
H4933 H 0.34849 0.26299 0.63661 0.0
H4934 H 0.32737 0.25587 0.61973 0.0
H4935 H 0.3451 0.27911 0.66527 0.0
H4936 H 0.3656 0.23312 0.64514 0.0
H4937 H 0.36527 0.20609 0.63769 0.0
H4938 H 0.3575 0.19311 0.68415 0.0
H4939 H 0.35755 0.22008 0.69185 0.0
C4940 C 0.39574 0.28489 0.71975 0.0
C4941 C 0.39253 0.27631 0.73286 0.0
C4942 C 0.38916 0.28094 0.70578 0.0
C4943 C 0.37915 0.2685 0.70483 0.0
C4944 C 0.37646 0.25965 0.71783 0.0
C4945 C 0.38311 0.26347 0.73166 0.0
C4946 C 0.37079 0.26483 0.69064 0.0
C4947 C 0.3709 0.24968 0.68553 0.0
C4948 C 0.36165 0.27568 0.68298 0.0
C4949 C 0.3602 0.29166 0.6882 0.0
C4950 C 0.35489 0.29499 0.70292 0.0
C4951 C 0.35324 0.31009 0.70761 0.0
C4952 C 0.35669 0.32198 0.69765 0.0
C4953 C 0.3618 0.31878 0.68294 0.0
C4954 C 0.36352 0.30369 0.6782 0.0
C4955 C 0.31545 0.23803 0.65209 0.0
C4956 C 0.31527 0.24304 0.63696 0.0
C4957 C 0.32765 0.24176 0.66155 0.0
C4958 C 0.33962 0.25081 0.65606 0.0
C4959 C 0.33939 0.25591 0.64096 0.0
C4960 C 0.32738 0.25186 0.63139 0.0
C4961 C 0.35186 0.25562 0.66648 0.0
C4962 C 0.35256 0.27096 0.67076 0.0
C4963 C 0.36144 0.24491 0.67362 0.0
C4964 C 0.36149 0.22865 0.66906 0.0
C4965 C 0.36371 0.22451 0.65376 0.0
C4966 C 0.36359 0.20919 0.64949 0.0
C4967 C 0.36134 0.19789 0.66043 0.0
C4968 C 0.35924 0.20188 0.67568 0.0
C4969 C 0.35933 0.21718 0.68001 0.0
H4970 H 0.36126 0.18604 0.65711 0.0
H4971 H 0.35536 0.33366 0.70131 0.0
H4972 H 0.20742 0.90722 0.22035 0.0
H4973 H 0.21456 0.89717 0.19522 0.0
H4974 H 0.22694 0.85444 0.21586 0.0
H4975 H 0.22131 0.86487 0.24093 0.0
H4976 H 0.24951 0.87448 0.1953 0.0
H4977 H 0.19854 0.83632 0.17954 0.0
H4978 H 0.17054 0.83589 0.18064 0.0
H4979 H 0.16955 0.88471 0.18081 0.0
H4980 H 0.19747 0.88541 0.17893 0.0
H4981 H 0.26191 0.80435 0.15779 0.0
H4982 H 0.25249 0.82478 0.17424 0.0
H4983 H 0.24087 0.85147 0.13477 0.0
H4984 H 0.25068 0.83125 0.11819 0.0
H4985 H 0.21683 0.84614 0.15912 0.0
H4986 H 0.26685 0.86566 0.15087 0.0
H4987 H 0.29481 0.86417 0.14917 0.0
H4988 H 0.29724 0.85142 0.19627 0.0
H4989 H 0.26927 0.8526 0.19819 0.0
C4990 C 0.21153 0.89564 0.21943 0.0
C4991 C 0.21379 0.8868 0.23255 0.0
C4992 C 0.21537 0.88985 0.20508 0.0
C4993 C 0.22068 0.87486 0.20364 0.0
C4994 C 0.22252 0.86592 0.21672 0.0
C4995 C 0.21935 0.87191 0.23105 0.0
C4996 C 0.22648 0.8689 0.18904 0.0
C4997 C 0.24234 0.86851 0.18721 0.0
C4998 C 0.21706 0.86118 0.1785 0.0
C4999 C 0.20022 0.86094 0.17979 0.0
C5000 C 0.19237 0.84698 0.17986 0.0
C5001 C 0.17648 0.84668 0.18047 0.0
C5002 C 0.16827 0.86026 0.18102 0.0
C5003 C 0.17593 0.87418 0.18067 0.0
C5004 C 0.19182 0.87454 0.17988 0.0
C5005 C 0.25748 0.81463 0.15263 0.0
C5006 C 0.25709 0.81627 0.13674 0.0
C5007 C 0.25216 0.82627 0.16201 0.0
C5008 C 0.24611 0.8396 0.15566 0.0
C5009 C 0.24562 0.84128 0.13982 0.0
C5010 C 0.25126 0.82977 0.13041 0.0
C5011 C 0.23974 0.85139 0.16575 0.0
C5012 C 0.2239 0.85261 0.16688 0.0
C5013 C 0.24911 0.8598 0.1757 0.0
C5014 C 0.26595 0.85914 0.17464 0.0
C5015 C 0.27333 0.86242 0.16083 0.0
C5016 C 0.28919 0.86165 0.15984 0.0
C5017 C 0.29779 0.85768 0.1726 0.0
C5018 C 0.29056 0.85449 0.18639 0.0
C5019 C 0.2747 0.85523 0.18745 0.0
H5020 H 0.31007 0.85709 0.17181 0.0
H5021 H 0.15597 0.86001 0.18158 0.0
H5022 H 0.65025 0.75709 0.61907 0.0
H5023 H 0.62926 0.74665 0.6344 0.0
H5024 H 0.65748 0.74891 0.67445 0.0
H5025 H 0.67843 0.75891 0.65935 0.0
H5026 H 0.64431 0.71972 0.66858 0.0
H5027 H 0.63128 0.77387 0.67075 0.0
H5028 H 0.62383 0.79829 0.6591 0.0
H5029 H 0.58405 0.77733 0.63999 0.0
H5030 H 0.59139 0.75272 0.65139 0.0
H5031 H 0.59706 0.73627 0.73691 0.0
H5032 H 0.60629 0.74426 0.71207 0.0
H5033 H 0.59751 0.69939 0.69419 0.0
H5034 H 0.58845 0.69119 0.71931 0.0
H5035 H 0.59663 0.74618 0.6831 0.0
H5036 H 0.62636 0.69053 0.67112 0.0
H5037 H 0.63535 0.66732 0.6842 0.0
H5038 H 0.64414 0.69329 0.7246 0.0
H5039 H 0.63504 0.71655 0.71186 0.0
C5040 C 0.65189 0.75549 0.63118 0.0
C5041 C 0.66603 0.75865 0.63799 0.0
C5042 C 0.63993 0.74951 0.63987 0.0
C5043 C 0.64199 0.74678 0.65546 0.0
C5044 C 0.65582 0.75066 0.66236 0.0
C5045 C 0.66776 0.75642 0.65372 0.0
C5046 C 0.63017 0.73937 0.66482 0.0
C5047 C 0.63372 0.72535 0.67153 0.0
C5048 C 0.61635 0.74667 0.66855 0.0
C5049 C 0.61199 0.76144 0.66173 0.0
C5050 C 0.62103 0.77444 0.66394 0.0
C5051 C 0.61681 0.78832 0.65741 0.0
C5052 C 0.60351 0.78935 0.64876 0.0
C5053 C 0.59437 0.77651 0.64666 0.0
C5054 C 0.59855 0.7626 0.65315 0.0
C5055 C 0.59685 0.72815 0.72765 0.0
C5056 C 0.59225 0.71305 0.7301 0.0
C5057 C 0.60202 0.73277 0.7134 0.0
C5058 C 0.60274 0.7224 0.70131 0.0
C5059 C 0.59718 0.70755 0.70342 0.0
C5060 C 0.59199 0.70289 0.71775 0.0
C5061 C 0.61108 0.72681 0.68733 0.0
C5062 C 0.60689 0.74023 0.6797 0.0
C5063 C 0.62445 0.71906 0.68283 0.0
C5064 C 0.62984 0.70517 0.69063 0.0
C5065 C 0.63017 0.69123 0.68283 0.0
C5066 C 0.63524 0.67807 0.69019 0.0
C5067 C 0.64015 0.67879 0.7053 0.0
C5068 C 0.64013 0.69269 0.71301 0.0
C5069 C 0.63498 0.70585 0.70574 0.0
H5070 H 0.644 0.66859 0.711 0.0
H5071 H 0.60026 0.8001 0.64373 0.0
H5072 H 0.84207 0.75162 0.80229 0.0
H5073 H 0.8252 0.76083 0.82227 0.0
H5074 H 0.86128 0.75581 0.85521 0.0
H5075 H 0.87804 0.74588 0.83531 0.0
H5076 H 0.83695 0.74634 0.86726 0.0
H5077 H 0.84929 0.79155 0.84055 0.0
H5078 H 0.85266 0.80859 0.81853 0.0
H5079 H 0.80479 0.80632 0.80908 0.0
H5080 H 0.80115 0.78905 0.83087 0.0
H5081 H 0.77684 0.80424 0.90152 0.0
H5082 H 0.801 0.79905 0.88857 0.0
H5083 H 0.78674 0.75276 0.88061 0.0
H5084 H 0.76282 0.75779 0.89368 0.0
H5085 H 0.80449 0.79186 0.85963 0.0
H5086 H 0.8162 0.72922 0.87862 0.0
H5087 H 0.81425 0.71375 0.90194 0.0
H5088 H 0.81724 0.75409 0.9293 0.0
H5089 H 0.81943 0.7698 0.90617 0.0
C5090 C 0.84642 0.75248 0.81379 0.0
C5091 C 0.86139 0.74803 0.81723 0.0
C5092 C 0.8368 0.75788 0.8252 0.0
C5093 C 0.84204 0.75938 0.84022 0.0
C5094 C 0.85697 0.75483 0.84371 0.0
C5095 C 0.86653 0.74913 0.83233 0.0
C5096 C 0.8317 0.76509 0.85234 0.0
C5097 C 0.82996 0.75637 0.86562 0.0
C5098 C 0.82285 0.77845 0.85047 0.0
C5099 C 0.82497 0.78889 0.83732 0.0
C5100 C 0.83949 0.79459 0.83372 0.0
C5101 C 0.84145 0.8043 0.82127 0.0
C5102 C 0.82896 0.80852 0.8124 0.0
C5103 C 0.81446 0.80304 0.81595 0.0
C5104 C 0.81245 0.79329 0.82837 0.0
C5105 C 0.77904 0.79286 0.89734 0.0
C5106 C 0.76795 0.78141 0.89859 0.0
C5107 C 0.7928 0.78995 0.88987 0.0
C5108 C 0.79571 0.77551 0.88368 0.0
C5109 C 0.78487 0.76392 0.8855 0.0
C5110 C 0.77116 0.76683 0.89292 0.0
C5111 C 0.80937 0.77274 0.87415 0.0
C5112 C 0.81171 0.782 0.86135 0.0
C5113 C 0.81902 0.76011 0.87663 0.0
C5114 C 0.81789 0.7507 0.89062 0.0
C5115 C 0.81654 0.73479 0.88961 0.0
C5116 C 0.81536 0.72598 0.9028 0.0
C5117 C 0.81559 0.73293 0.91709 0.0
C5118 C 0.81702 0.74872 0.91822 0.0
C5119 C 0.8182 0.75758 0.90507 0.0
H5120 H 0.81467 0.72609 0.92729 0.0
H5121 H 0.83051 0.81605 0.80278 0.0
H5122 H 0.87455 0.24804 0.16756 0.0
H5123 H 0.85706 0.23918 0.14786 0.0
H5124 H 0.81897 0.2545 0.17483 0.0
H5125 H 0.83645 0.26272 0.19489 0.0
H5126 H 0.81427 0.22706 0.16634 0.0
H5127 H 0.83041 0.27237 0.14084 0.0
H5128 H 0.84872 0.29066 0.13002 0.0
H5129 H 0.86531 0.25638 0.09944 0.0
H5130 H 0.84722 0.23781 0.11022 0.0
H5131 H 0.76393 0.23352 0.09682 0.0
H5132 H 0.78599 0.24241 0.11117 0.0
H5133 H 0.79724 0.19605 0.12273 0.0
H5134 H 0.77517 0.18707 0.10803 0.0
H5135 H 0.81657 0.23798 0.11103 0.0
H5136 H 0.80619 0.19716 0.16184 0.0
H5137 H 0.78539 0.18429 0.1757 0.0
H5138 H 0.75328 0.21647 0.15784 0.0
H5139 H 0.77383 0.22946 0.14385 0.0
C5140 C 0.86245 0.24975 0.16915 0.0
C5141 C 0.85681 0.256 0.18274 0.0
C5142 C 0.85247 0.24473 0.15786 0.0
C5143 C 0.8367 0.24623 0.15982 0.0
C5144 C 0.8311 0.25317 0.1731 0.0
C5145 C 0.84106 0.25787 0.18454 0.0
C5146 C 0.82597 0.23943 0.14871 0.0
C5147 C 0.81485 0.22941 0.15423 0.0
C5148 C 0.82666 0.24254 0.13292 0.0
C5149 C 0.83758 0.25366 0.12645 0.0
C5150 C 0.83805 0.26869 0.1319 0.0
C5151 C 0.84837 0.27912 0.12575 0.0
C5152 C 0.8582 0.27467 0.11408 0.0
C5153 C 0.85771 0.2598 0.1085 0.0
C5154 C 0.84742 0.24932 0.11461 0.0
C5155 C 0.77143 0.22521 0.10199 0.0
C5156 C 0.768 0.20964 0.10125 0.0
C5157 C 0.78398 0.23029 0.11021 0.0
C5158 C 0.79315 0.21991 0.11812 0.0
C5159 C 0.79025 0.20424 0.11673 0.0
C5160 C 0.77778 0.19911 0.10822 0.0
C5161 C 0.80485 0.22574 0.12873 0.0
C5162 C 0.81621 0.23547 0.12311 0.0
C5163 C 0.80411 0.22278 0.14453 0.0
C5164 C 0.7915 0.2141 0.15159 0.0
C5165 C 0.79465 0.20135 0.16072 0.0
C5166 C 0.78292 0.1941 0.16867 0.0
C5167 C 0.76804 0.19959 0.16765 0.0
C5168 C 0.76481 0.21221 0.15856 0.0
C5169 C 0.77647 0.21945 0.15053 0.0
H5170 H 0.75898 0.19404 0.17386 0.0
H5171 H 0.86618 0.28276 0.10933 0.0
H5172 H 0.24629 0.37694 0.66512 0.0
H5173 H 0.25436 0.35978 0.64469 0.0
H5174 H 0.24774 0.32131 0.67446 0.0
H5175 H 0.23997 0.33839 0.69496 0.0
H5176 H 0.27507 0.32063 0.66163 0.0
H5177 H 0.22333 0.32919 0.64489 0.0
H5178 H 0.20159 0.34492 0.63671 0.0
H5179 H 0.22773 0.36199 0.59914 0.0
H5180 H 0.24971 0.3465 0.60722 0.0
H5181 H 0.25782 0.26194 0.60116 0.0
H5182 H 0.25069 0.28497 0.6149 0.0
H5183 H 0.29737 0.30013 0.61394 0.0
H5184 H 0.30459 0.27696 0.60009 0.0
H5185 H 0.25214 0.31534 0.61035 0.0
H5186 H 0.30436 0.31619 0.64964 0.0
H5187 H 0.3232 0.29944 0.66202 0.0
H5188 H 0.29266 0.26157 0.65765 0.0
H5189 H 0.27376 0.27803 0.6451 0.0
C5190 C 0.24631 0.36479 0.6672 0.0
C5191 C 0.2426 0.35897 0.68164 0.0
C5192 C 0.25093 0.35502 0.65552 0.0
C5193 C 0.25167 0.33928 0.65806 0.0
C5194 C 0.24734 0.33343 0.67229 0.0
C5195 C 0.24287 0.34318 0.68398 0.0
C5196 C 0.2578 0.32884 0.64634 0.0
C5197 C 0.27016 0.31962 0.65034 0.0
C5198 C 0.25143 0.32755 0.63162 0.0
C5199 C 0.23822 0.33683 0.62676 0.0
C5200 C 0.22449 0.3364 0.63496 0.0
C5201 C 0.21211 0.34525 0.63033 0.0
C5202 C 0.21329 0.35449 0.61744 0.0
C5203 C 0.22684 0.35486 0.60914 0.0
C5204 C 0.23926 0.34604 0.61373 0.0
C5205 C 0.26651 0.27034 0.60358 0.0
C5206 C 0.28174 0.26768 0.59958 0.0
C5207 C 0.26242 0.28351 0.61141 0.0
C5208 C 0.27351 0.2942 0.61556 0.0
C5209 C 0.28865 0.29197 0.61092 0.0
C5210 C 0.29273 0.2788 0.60291 0.0
C5211 C 0.26922 0.30691 0.6258 0.0
C5212 C 0.2573 0.31665 0.62149 0.0
C5213 C 0.27586 0.3086 0.64036 0.0
C5214 C 0.28778 0.29827 0.64622 0.0
C5215 C 0.30181 0.30422 0.65108 0.0
C5216 C 0.31248 0.29479 0.65815 0.0
C5217 C 0.30915 0.27944 0.66055 0.0
C5218 C 0.29529 0.27341 0.65563 0.0
C5219 C 0.28463 0.28276 0.64845 0.0
H5220 H 0.31722 0.27228 0.66643 0.0
H5221 H 0.2037 0.36133 0.61387 0.0
H5222 H 0.22133 0.79665 0.09136 0.0
H5223 H 0.19783 0.7882 0.10384 0.0
H5224 H 0.22235 0.7512 0.12484 0.0
H5225 H 0.24547 0.7591 0.11196 0.0
H5226 H 0.19582 0.74153 0.11787 0.0
H5227 H 0.21517 0.78667 0.1433 0.0
H5228 H 0.22316 0.81353 0.14467 0.0
H5229 H 0.17889 0.82774 0.12973 0.0
H5230 H 0.17064 0.80094 0.12824 0.0
H5231 H 0.16081 0.74385 0.19473 0.0
H5232 H 0.17806 0.75125 0.17418 0.0
H5233 H 0.1411 0.749 0.14205 0.0
H5234 H 0.12376 0.74121 0.16246 0.0
H5235 H 0.1703 0.77885 0.15166 0.0
H5236 H 0.15306 0.7306 0.12457 0.0
H5237 H 0.14714 0.70318 0.12612 0.0
H5238 H 0.1902 0.69491 0.14769 0.0
H5239 H 0.19622 0.72233 0.14645 0.0
C5240 C 0.22159 0.78656 0.09843 0.0
C5241 C 0.23528 0.77865 0.10083 0.0
C5242 C 0.2082 0.7818 0.10564 0.0
C5243 C 0.20837 0.76923 0.11554 0.0
C5244 C 0.22189 0.76094 0.1173 0.0
C5245 C 0.23516 0.76554 0.10997 0.0
C5246 C 0.19487 0.76506 0.12484 0.0
C5247 C 0.19016 0.74978 0.12509 0.0
C5248 C 0.18744 0.77573 0.13439 0.0
C5249 C 0.19236 0.79182 0.13545 0.0
C5250 C 0.20717 0.79553 0.14023 0.0
C5251 C 0.21174 0.81074 0.14104 0.0
C5252 C 0.20158 0.82233 0.13716 0.0
C5253 C 0.18676 0.81875 0.13266 0.0
C5254 C 0.18213 0.80356 0.13185 0.0
C5255 C 0.15635 0.74481 0.18328 0.0
C5256 C 0.14092 0.74188 0.18022 0.0
C5257 C 0.16622 0.74904 0.17158 0.0
C5258 C 0.16084 0.75052 0.15664 0.0
C5259 C 0.14548 0.74765 0.15349 0.0
C5260 C 0.13561 0.74322 0.16517 0.0
C5261 C 0.17138 0.75546 0.14454 0.0
C5262 C 0.17566 0.7708 0.14398 0.0
C5263 C 0.17858 0.74487 0.13489 0.0
C5264 C 0.17498 0.72847 0.13561 0.0
C5265 C 0.16117 0.72293 0.12979 0.0
C5266 C 0.15782 0.70741 0.13058 0.0
C5267 C 0.16827 0.69732 0.13706 0.0
C5268 C 0.1821 0.70274 0.14272 0.0
C5269 C 0.18548 0.71826 0.14199 0.0
H5270 H 0.16566 0.6853 0.13764 0.0
H5271 H 0.20517 0.83409 0.13763 0.0
H5272 H 0.74903 0.62443 0.66146 0.0
H5273 H 0.7366 0.64069 0.6424 0.0
H5274 H 0.74979 0.68049 0.66791 0.0
H5275 H 0.76184 0.66441 0.68701 0.0
H5276 H 0.71972 0.68 0.66207 0.0
H5277 H 0.76674 0.67095 0.63414 0.0
H5278 H 0.78576 0.65472 0.62142 0.0
H5279 H 0.75135 0.63758 0.59127 0.0
H5280 H 0.73208 0.65359 0.60395 0.0
H5281 H 0.72411 0.74556 0.61818 0.0
H5282 H 0.73131 0.7215 0.62981 0.0
H5283 H 0.69649 0.69835 0.6042 0.0
H5284 H 0.68878 0.72272 0.59267 0.0
H5285 H 0.73168 0.68559 0.60721 0.0
H5286 H 0.68533 0.698 0.63347 0.0
H5287 H 0.66653 0.71348 0.64744 0.0
H5288 H 0.70002 0.72396 0.6814 0.0
H5289 H 0.71911 0.70885 0.66749 0.0
C5290 C 0.7495 0.63667 0.6628 0.0
C5291 C 0.75629 0.64319 0.67575 0.0
C5292 C 0.7424 0.64592 0.65193 0.0
C5293 C 0.74221 0.66178 0.6538 0.0
C5294 C 0.74969 0.66827 0.66632 0.0
C5295 C 0.75659 0.65908 0.67722 0.0
C5296 C 0.73341 0.6718 0.6435 0.0
C5297 C 0.72231 0.68118 0.65006 0.0
C5298 C 0.73635 0.67289 0.62771 0.0
C5299 C 0.74794 0.66331 0.62011 0.0
C5300 C 0.7632 0.66361 0.62489 0.0
C5301 C 0.77404 0.65448 0.61766 0.0
C5302 C 0.76976 0.64508 0.60558 0.0
C5303 C 0.75464 0.64484 0.60065 0.0
C5304 C 0.74376 0.65394 0.60785 0.0
C5305 C 0.71796 0.7354 0.61492 0.0
C5306 C 0.70577 0.73607 0.6046 0.0
C5307 C 0.72213 0.72165 0.62157 0.0
C5308 C 0.71435 0.70825 0.61792 0.0
C5309 C 0.70257 0.70865 0.60715 0.0
C5310 C 0.69821 0.72254 0.6006 0.0
C5311 C 0.71851 0.69415 0.62601 0.0
C5312 C 0.72876 0.68405 0.61911 0.0
C5313 C 0.71485 0.69237 0.64155 0.0
C5314 C 0.70369 0.70236 0.64936 0.0
C5315 C 0.68877 0.70383 0.64376 0.0
C5316 C 0.67804 0.71248 0.65171 0.0
C5317 C 0.68208 0.71961 0.66533 0.0
C5318 C 0.69691 0.71838 0.67088 0.0
C5319 C 0.70769 0.70979 0.66295 0.0
H5320 H 0.67372 0.72597 0.67169 0.0
H5321 H 0.77816 0.63802 0.6 0.0
H5322 H 0.12724 0.24103 0.82765 0.0
H5323 H 0.14498 0.23261 0.84729 0.0
H5324 H 0.17432 0.27073 0.8369 0.0
H5325 H 0.15706 0.27829 0.81641 0.0
H5326 H 0.19101 0.24942 0.83881 0.0
H5327 H 0.15162 0.26471 0.87262 0.0
H5328 H 0.12574 0.26637 0.88334 0.0
H5329 H 0.12579 0.21823 0.8916 0.0
H5330 H 0.15161 0.21625 0.88076 0.0
H5331 H 0.24081 0.23809 0.89989 0.0
H5332 H 0.21894 0.24837 0.88627 0.0
H5333 H 0.19943 0.20345 0.88341 0.0
H5334 H 0.22141 0.19302 0.89728 0.0
H5335 H 0.17782 0.22809 0.88935 0.0
H5336 H 0.21811 0.21571 0.85125 0.0
H5337 H 0.24443 0.21752 0.84124 0.0
H5338 H 0.24258 0.26616 0.84453 0.0
H5339 H 0.21626 0.26464 0.85423 0.0
C5340 C 0.13743 0.24765 0.82977 0.0
C5341 C 0.14092 0.26023 0.82063 0.0
C5342 C 0.14752 0.24294 0.8411 0.0
C5343 C 0.16107 0.25105 0.84381 0.0
C5344 C 0.1641 0.2641 0.83501 0.0
C5345 C 0.15424 0.2685 0.82335 0.0
C5346 C 0.17273 0.24521 0.8547 0.0
C5347 C 0.18799 0.2451 0.84996 0.0
C5348 C 0.16903 0.23919 0.86924 0.0
C5349 C 0.1535 0.24032 0.87575 0.0
C5350 C 0.14607 0.25446 0.87662 0.0
C5351 C 0.13142 0.25546 0.88274 0.0
C5352 C 0.12412 0.24241 0.88811 0.0
C5353 C 0.13146 0.22833 0.88742 0.0
C5354 C 0.14611 0.22726 0.88131 0.0
C5355 C 0.23172 0.23042 0.89665 0.0
C5356 C 0.23282 0.21475 0.89958 0.0
C5357 C 0.21927 0.23631 0.88881 0.0
C5358 C 0.20774 0.22663 0.8836 0.0
C5359 C 0.20828 0.21109 0.88732 0.0
C5360 C 0.22077 0.20516 0.89529 0.0
C5361 C 0.19577 0.23266 0.87339 0.0
C5362 C 0.18057 0.23264 0.87821 0.0
C5363 C 0.19951 0.23919 0.85919 0.0
C5364 C 0.21537 0.24003 0.85359 0.0
C5365 C 0.22342 0.22675 0.84992 0.0
C5366 C 0.23827 0.22772 0.84427 0.0
C5367 C 0.2452 0.24191 0.84241 0.0
C5368 C 0.23723 0.25517 0.84603 0.0
C5369 C 0.22233 0.25427 0.85152 0.0
H5370 H 0.2567 0.24262 0.83808 0.0
H5371 H 0.11277 0.24321 0.89284 0.0
H5372 H 0.30861 0.72096 0.3935 0.0
H5373 H 0.30195 0.69967 0.37665 0.0
H5374 H 0.25443 0.70662 0.38654 0.0
H5375 H 0.26094 0.72817 0.40296 0.0
H5376 H 0.26928 0.67322 0.38583 0.0
H5377 H 0.25984 0.72088 0.35877 0.0
H5378 H 0.26543 0.74552 0.34663 0.0
H5379 H 0.30084 0.72477 0.32016 0.0
H5380 H 0.29569 0.70006 0.33241 0.0
H5381 H 0.22844 0.63408 0.32806 0.0
H5382 H 0.23782 0.65143 0.34772 0.0
H5383 H 0.27803 0.6601 0.32083 0.0
H5384 H 0.26828 0.64346 0.30086 0.0
H5385 H 0.26858 0.68505 0.33066 0.0
H5386 H 0.27726 0.63719 0.35498 0.0
H5387 H 0.27071 0.61172 0.36473 0.0
H5388 H 0.23777 0.63146 0.39493 0.0
H5389 H 0.24398 0.65704 0.38521 0.0
C5390 C 0.29679 0.71765 0.39243 0.0
C5391 C 0.28527 0.72617 0.39953 0.0
C5392 C 0.293 0.70562 0.38269 0.0
C5393 C 0.2777 0.7018 0.38022 0.0
C5394 C 0.26629 0.70952 0.38823 0.0
C5395 C 0.27003 0.72174 0.39766 0.0
C5396 C 0.27346 0.69025 0.36877 0.0
C5397 C 0.26907 0.67575 0.37375 0.0
C5398 C 0.27356 0.69353 0.35302 0.0
C5399 C 0.27764 0.70869 0.34683 0.0
C5400 C 0.26909 0.72164 0.35068 0.0
C5401 C 0.27208 0.73559 0.34365 0.0
C5402 C 0.28353 0.73673 0.33269 0.0
C5403 C 0.292 0.7239 0.32868 0.0
C5404 C 0.2891 0.70993 0.33572 0.0
C5405 C 0.23927 0.63974 0.32638 0.0
C5406 C 0.24756 0.63758 0.31289 0.0
C5407 C 0.24471 0.64951 0.33769 0.0
C5408 C 0.25879 0.65691 0.33593 0.0
C5409 C 0.26714 0.65457 0.32249 0.0
C5410 C 0.26153 0.64511 0.31104 0.0
C5411 C 0.26443 0.66781 0.34759 0.0
C5412 C 0.26903 0.68228 0.34269 0.0
C5413 C 0.26473 0.66439 0.36335 0.0
C5414 C 0.26101 0.64903 0.36927 0.0
C5415 C 0.26855 0.63609 0.36362 0.0
C5416 C 0.2649 0.62164 0.36916 0.0
C5417 C 0.25381 0.61997 0.38042 0.0
C5418 C 0.24636 0.63277 0.3862 0.0
C5419 C 0.24995 0.64725 0.38069 0.0
H5420 H 0.251 0.60877 0.38469 0.0
H5421 H 0.28584 0.74755 0.32728 0.0
H5422 H 0.7265 0.35579 0.30112 0.0
H5423 H 0.71827 0.33813 0.3211 0.0
H5424 H 0.75944 0.34714 0.34618 0.0
H5425 H 0.76759 0.36516 0.32647 0.0
H5426 H 0.74953 0.3136 0.33689 0.0
H5427 H 0.73448 0.36038 0.36265 0.0
H5428 H 0.72091 0.3849 0.36399 0.0
H5429 H 0.67847 0.36214 0.35578 0.0
H5430 H 0.69183 0.33751 0.35417 0.0
H5431 H 0.73764 0.26741 0.39975 0.0
H5432 H 0.7441 0.28997 0.38485 0.0
H5433 H 0.69679 0.29576 0.37302 0.0
H5434 H 0.69022 0.27356 0.38855 0.0
H5435 H 0.70937 0.32259 0.37559 0.0
H5436 H 0.72163 0.27734 0.34826 0.0
H5437 H 0.73296 0.25207 0.34373 0.0
H5438 H 0.77757 0.27038 0.35146 0.0
H5439 H 0.76652 0.2958 0.35592 0.0
C5440 C 0.73375 0.35407 0.31094 0.0
C5441 C 0.74773 0.36176 0.31223 0.0
C5442 C 0.729 0.34408 0.32235 0.0
C5443 C 0.73825 0.34145 0.33506 0.0
C5444 C 0.75215 0.34915 0.33644 0.0
C5445 C 0.75676 0.35941 0.32521 0.0
C5446 C 0.73389 0.32985 0.34637 0.0
C5447 C 0.74095 0.3156 0.34554 0.0
C5448 C 0.72221 0.33236 0.35711 0.0
C5449 C 0.71418 0.34714 0.35812 0.0
C5450 C 0.72228 0.36063 0.36097 0.0
C5451 C 0.71462 0.37454 0.36182 0.0
C5452 C 0.69884 0.37509 0.35993 0.0
C5453 C 0.69069 0.36171 0.35722 0.0
C5454 C 0.6983 0.34777 0.35636 0.0
C5455 C 0.7286 0.27374 0.39427 0.0
C5456 C 0.71347 0.26879 0.39525 0.0
C5457 C 0.73229 0.28654 0.38566 0.0
C5458 C 0.72098 0.29431 0.37747 0.0
C5459 C 0.70571 0.28991 0.37918 0.0
C5460 C 0.70197 0.27726 0.38809 0.0
C5461 C 0.72526 0.30631 0.36638 0.0
C5462 C 0.71808 0.32056 0.36707 0.0
C5463 C 0.73654 0.30369 0.35516 0.0
C5464 C 0.74324 0.28843 0.35256 0.0
C5465 C 0.73385 0.27595 0.34908 0.0
C5466 C 0.74022 0.26161 0.3465 0.0
C5467 C 0.75596 0.2596 0.34741 0.0
C5468 C 0.76538 0.27195 0.35079 0.0
C5469 C 0.75908 0.28634 0.35329 0.0
H5470 H 0.76086 0.24848 0.34545 0.0
H5471 H 0.69293 0.38587 0.36059 0.0
loop_
_geom_bond_atom_site_label_1
_geom_bond_atom_site_label_2
_geom_bond_distance
_geom_bond_site_symmetry_2
_ccdc_geom_bond_type
Co0 O1 2.216 . S
Co0 O2 2.091 . S
Co0 O4 2.004 . S
Co0 O10 2.021 . S
Co0 O12 2.137 . S
Co0 O13 2.244 . S
O1 Co0 2.216 . S
O1 C8 1.247 . S
O2 Co0 2.091 . S
O2 C8 1.261 . S
C3 O12 1.247 . S
C3 O13 1.272 . S
O4 Co0 2.004 . S
O4 C9 1.259 . S
Co5 O6 2.061 . S
Co5 O11 2.052 . S
Co5 O13 2.135 . S
O6 Co5 2.061 . S
O6 C9 1.235 . S
C7 O10 1.238 . S
C7 O11 1.241 . S
C8 O1 1.247 . S
C8 O2 1.261 . S
C9 O4 1.259 . S
C9 O6 1.235 . S
O10 Co0 2.021 . S
O10 C7 1.238 . S
O11 Co5 2.052 . S
O11 C7 1.241 . S
O12 Co0 2.137 . S
O12 C3 1.247 . S
O13 Co0 2.244 . S
O13 C3 1.272 . S
O13 Co5 2.135 . S
Co14 O15 2.216 . S
Co14 O16 2.091 . S
Co14 O18 2.004 . S
Co14 O24 2.021 . S
Co14 O26 2.137 . S
Co14 O27 2.244 . S
O15 Co14 2.216 . S
O15 C22 1.247 . S
O16 Co14 2.091 . S
O16 C22 1.261 . S
C17 O26 1.247 . S
C17 O27 1.272 . S
O18 Co14 2.004 . S
O18 C23 1.259 . S
Co19 O20 2.061 . S
Co19 O25 2.052 . S
Co19 O27 2.135 . S
O20 Co19 2.061 . S
O20 C23 1.235 . S
C21 O24 1.238 . S
C21 O25 1.241 . S
C22 O15 1.247 . S
C22 O16 1.261 . S
C23 O18 1.259 . S
C23 O20 1.235 . S
O24 Co14 2.021 . S
O24 C21 1.238 . S
O25 Co19 2.052 . S
O25 C21 1.241 . S
O26 Co14 2.137 . S
O26 C17 1.247 . S
O27 Co14 2.244 . S
O27 C17 1.272 . S
O27 Co19 2.135 . S
Co28 O29 2.216 . S
Co28 O30 2.091 . S
Co28 O32 2.004 . S
Co28 O38 2.021 . S
Co28 O40 2.137 . S
Co28 O41 2.244 . S
O29 Co28 2.216 . S
O29 C36 1.247 . S
O30 Co28 2.091 . S
O30 C36 1.261 . S
C31 O40 1.247 . S
C31 O41 1.272 . S
O32 Co28 2.004 . S
O32 C37 1.259 . S
Co33 O34 2.061 . S
Co33 O39 2.052 . S
Co33 O41 2.135 . S
O34 Co33 2.061 . S
O34 C37 1.235 . S
C35 O38 1.238 . S
C35 O39 1.241 . S
C36 O29 1.247 . S
C36 O30 1.261 . S
C37 O32 1.259 . S
C37 O34 1.235 . S
O38 Co28 2.021 . S
O38 C35 1.238 . S
O39 Co33 2.052 . S
O39 C35 1.241 . S
O40 Co28 2.137 . S
O40 C31 1.247 . S
O41 Co28 2.244 . S
O41 C31 1.272 . S
O41 Co33 2.135 . S
Co42 O43 2.216 . S
Co42 O44 2.091 . S
Co42 O46 2.004 . S
Co42 O52 2.021 . S
Co42 O54 2.137 . S
Co42 O55 2.244 . S
O43 Co42 2.216 . S
O43 C50 1.247 . S
O44 Co42 2.091 . S
O44 C50 1.261 . S
C45 O54 1.247 . S
C45 O55 1.272 . S
O46 Co42 2.004 . S
O46 C51 1.259 . S
Co47 O48 2.061 . S
Co47 O53 2.052 . S
Co47 O55 2.135 . S
O48 Co47 2.061 . S
O48 C51 1.235 . S
C49 O52 1.238 . S
C49 O53 1.241 . S
C50 O43 1.247 . S
C50 O44 1.261 . S
C51 O46 1.259 . S
C51 O48 1.235 . S
O52 Co42 2.021 . S
O52 C49 1.238 . S
O53 Co47 2.052 . S
O53 C49 1.241 . S
O54 Co42 2.137 . S
O54 C45 1.247 . S
O55 Co42 2.244 . S
O55 C45 1.272 . S
O55 Co47 2.135 . S
Co56 O57 2.216 . S
Co56 O58 2.091 . S
Co56 O60 2.004 . S
Co56 O66 2.021 . S
Co56 O68 2.137 . S
Co56 O69 2.244 . S
O57 Co56 2.216 . S
O57 C64 1.247 . S
O58 Co56 2.091 . S
O58 C64 1.261 . S
C59 O68 1.247 . S
C59 O69 1.272 . S
O60 Co56 2.004 . S
O60 C65 1.259 . S
Co61 O62 2.061 . S
Co61 O67 2.052 . S
Co61 O69 2.135 . S
O62 Co61 2.061 . S
O62 C65 1.235 . S
C63 O66 1.238 . S
C63 O67 1.241 . S
C64 O57 1.247 . S
C64 O58 1.261 . S
C65 O60 1.259 . S
C65 O62 1.235 . S
O66 Co56 2.021 . S
O66 C63 1.238 . S
O67 Co61 2.052 . S
O67 C63 1.241 . S
O68 Co56 2.137 . S
O68 C59 1.247 . S
O69 Co56 2.244 . S
O69 C59 1.272 . S
O69 Co61 2.135 . S
Co70 O71 2.216 . S
Co70 O72 2.091 . S
Co70 O74 2.004 . S
Co70 O80 2.021 . S
Co70 O82 2.137 . S
Co70 O83 2.244 . S
O71 Co70 2.216 . S
O71 C78 1.247 . S
O72 Co70 2.091 . S
O72 C78 1.261 . S
C73 O82 1.247 . S
C73 O83 1.272 . S
O74 Co70 2.004 . S
O74 C79 1.259 . S
Co75 O76 2.061 . S
Co75 O81 2.052 . S
Co75 O83 2.135 . S
O76 Co75 2.061 . S
O76 C79 1.235 . S
C77 O80 1.238 . S
C77 O81 1.241 . S
C78 O71 1.247 . S
C78 O72 1.261 . S
C79 O74 1.259 . S
C79 O76 1.235 . S
O80 Co70 2.021 . S
O80 C77 1.238 . S
O81 Co75 2.052 . S
O81 C77 1.241 . S
O82 Co70 2.137 . S
O82 C73 1.247 . S
O83 Co70 2.244 . S
O83 C73 1.272 . S
O83 Co75 2.135 . S
Co84 O85 2.216 . S
Co84 O86 2.091 . S
Co84 O88 2.004 . S
Co84 O94 2.021 . S
Co84 O96 2.137 . S
Co84 O97 2.244 . S
O85 Co84 2.216 . S
O85 C92 1.247 . S
O86 Co84 2.091 . S
O86 C92 1.261 . S
C87 O96 1.247 . S
C87 O97 1.272 . S
O88 Co84 2.004 . S
O88 C93 1.259 . S
Co89 O90 2.061 . S
Co89 O95 2.052 . S
Co89 O97 2.135 . S
O90 Co89 2.061 . S
O90 C93 1.235 . S
C91 O94 1.238 . S
C91 O95 1.241 . S
C92 O85 1.247 . S
C92 O86 1.261 . S
C93 O88 1.259 . S
C93 O90 1.235 . S
O94 Co84 2.021 . S
O94 C91 1.238 . S
O95 Co89 2.052 . S
O95 C91 1.241 . S
O96 Co84 2.137 . S
O96 C87 1.247 . S
O97 Co84 2.244 . S
O97 C87 1.272 . S
O97 Co89 2.135 . S
Co98 O99 2.216 . S
Co98 O100 2.091 . S
Co98 O102 2.004 . S
Co98 O108 2.021 . S
Co98 O110 2.137 . S
Co98 O111 2.244 . S
O99 Co98 2.216 . S
O99 C106 1.247 . S
O100 Co98 2.091 . S
O100 C106 1.261 . S
C101 O110 1.247 . S
C101 O111 1.272 . S
O102 Co98 2.004 . S
O102 C107 1.259 . S
Co103 O104 2.061 . S
Co103 O109 2.052 . S
Co103 O111 2.135 . S
O104 Co103 2.061 . S
O104 C107 1.235 . S
C105 O108 1.238 . S
C105 O109 1.241 . S
C106 O99 1.247 . S
C106 O100 1.261 . S
C107 O102 1.259 . S
C107 O104 1.235 . S
O108 Co98 2.021 . S
O108 C105 1.238 . S
O109 Co103 2.052 . S
O109 C105 1.241 . S
O110 Co98 2.137 . S
O110 C101 1.247 . S
O111 Co98 2.244 . S
O111 C101 1.272 . S
O111 Co103 2.135 . S
Co112 O113 2.216 . S
Co112 O114 2.091 . S
Co112 O116 2.004 . S
Co112 O122 2.021 . S
Co112 O124 2.137 . S
Co112 O125 2.244 . S
O113 Co112 2.216 . S
O113 C120 1.247 . S
O114 Co112 2.091 . S
O114 C120 1.261 . S
C115 O124 1.247 . S
C115 O125 1.272 . S
O116 Co112 2.004 . S
O116 C121 1.259 . S
Co117 O118 2.061 . S
Co117 O123 2.052 . S
Co117 O125 2.135 . S
O118 Co117 2.061 . S
O118 C121 1.235 . S
C119 O122 1.238 . S
C119 O123 1.241 . S
C120 O113 1.247 . S
C120 O114 1.261 . S
C121 O116 1.259 . S
C121 O118 1.235 . S
O122 Co112 2.021 . S
O122 C119 1.238 . S
O123 Co117 2.052 . S
O123 C119 1.241 . S
O124 Co112 2.137 . S
O124 C115 1.247 . S
O125 Co112 2.244 . S
O125 C115 1.272 . S
O125 Co117 2.135 . S
Co126 O127 2.216 . S
Co126 O128 2.091 . S
Co126 O130 2.004 . S
Co126 O136 2.021 . S
Co126 O138 2.137 . S
Co126 O139 2.244 . S
O127 Co126 2.216 . S
O127 C134 1.247 . S
O128 Co126 2.091 . S
O128 C134 1.261 . S
C129 O138 1.247 . S
C129 O139 1.272 . S
O130 Co126 2.004 . S
O130 C135 1.259 . S
Co131 O132 2.061 . S
Co131 O137 2.052 . S
Co131 O139 2.135 . S
O132 Co131 2.061 . S
O132 C135 1.235 . S
C133 O136 1.238 . S
C133 O137 1.241 . S
C134 O127 1.247 . S
C134 O128 1.261 . S
C135 O130 1.259 . S
C135 O132 1.235 . S
O136 Co126 2.021 . S
O136 C133 1.238 . S
O137 Co131 2.052 . S
O137 C133 1.241 . S
O138 Co126 2.137 . S
O138 C129 1.247 . S
O139 Co126 2.244 . S
O139 C129 1.272 . S
O139 Co131 2.135 . S
Co140 O141 2.216 . S
Co140 O142 2.091 . S
Co140 O144 2.004 . S
Co140 O150 2.021 . S
Co140 O152 2.137 . S
Co140 O153 2.244 . S
O141 Co140 2.216 . S
O141 C148 1.247 . S
O142 Co140 2.091 . S
O142 C148 1.261 . S
C143 O152 1.247 . S
C143 O153 1.272 . S
O144 Co140 2.004 . S
O144 C149 1.259 . S
Co145 O146 2.061 . S
Co145 O151 2.052 . S
Co145 O153 2.135 . S
O146 Co145 2.061 . S
O146 C149 1.235 . S
C147 O150 1.238 . S
C147 O151 1.241 . S
C148 O141 1.247 . S
C148 O142 1.261 . S
C149 O144 1.259 . S
C149 O146 1.235 . S
O150 Co140 2.021 . S
O150 C147 1.238 . S
O151 Co145 2.052 . S
O151 C147 1.241 . S
O152 Co140 2.137 . S
O152 C143 1.247 . S
O153 Co140 2.244 . S
O153 C143 1.272 . S
O153 Co145 2.135 . S
Co154 O155 2.216 . S
Co154 O156 2.091 . S
Co154 O158 2.004 . S
Co154 O164 2.021 . S
Co154 O166 2.137 . S
Co154 O167 2.244 . S
O155 Co154 2.216 . S
O155 C162 1.247 . S
O156 Co154 2.091 . S
O156 C162 1.261 . S
C157 O166 1.247 . S
C157 O167 1.272 . S
O158 Co154 2.004 . S
O158 C163 1.259 . S
Co159 O160 2.061 . S
Co159 O165 2.052 . S
Co159 O167 2.135 . S
O160 Co159 2.061 . S
O160 C163 1.235 . S
C161 O164 1.238 . S
C161 O165 1.241 . S
C162 O155 1.247 . S
C162 O156 1.261 . S
C163 O158 1.259 . S
C163 O160 1.235 . S
O164 Co154 2.021 . S
O164 C161 1.238 . S
O165 Co159 2.052 . S
O165 C161 1.241 . S
O166 Co154 2.137 . S
O166 C157 1.247 . S
O167 Co154 2.244 . S
O167 C157 1.272 . S
O167 Co159 2.135 . S
Co168 O169 2.216 . S
Co168 O170 2.091 . S
Co168 O172 2.004 . S
Co168 O178 2.021 . S
Co168 O180 2.137 . S
Co168 O181 2.244 . S
O169 Co168 2.216 . S
O169 C176 1.247 . S
O170 Co168 2.091 . S
O170 C176 1.261 . S
C171 O180 1.247 . S
C171 O181 1.272 . S
O172 Co168 2.004 . S
O172 C177 1.259 . S
Co173 O174 2.061 . S
Co173 O179 2.052 . S
Co173 O181 2.135 . S
O174 Co173 2.061 . S
O174 C177 1.235 . S
C175 O178 1.238 . S
C175 O179 1.241 . S
C176 O169 1.247 . S
C176 O170 1.261 . S
C177 O172 1.259 . S
C177 O174 1.235 . S
O178 Co168 2.021 . S
O178 C175 1.238 . S
O179 Co173 2.052 . S
O179 C175 1.241 . S
O180 Co168 2.137 . S
O180 C171 1.247 . S
O181 Co168 2.244 . S
O181 C171 1.272 . S
O181 Co173 2.135 . S
Co182 O183 2.216 . S
Co182 O184 2.091 . S
Co182 O186 2.004 . S
Co182 O192 2.021 . S
Co182 O194 2.137 . S
Co182 O195 2.244 . S
O183 Co182 2.216 . S
O183 C190 1.247 . S
O184 Co182 2.091 . S
O184 C190 1.261 . S
C185 O194 1.247 . S
C185 O195 1.272 . S
O186 Co182 2.004 . S
O186 C191 1.259 . S
Co187 O188 2.061 . S
Co187 O193 2.052 . S
Co187 O195 2.135 . S
O188 Co187 2.061 . S
O188 C191 1.235 . S
C189 O192 1.238 . S
C189 O193 1.241 . S
C190 O183 1.247 . S
C190 O184 1.261 . S
C191 O186 1.259 . S
C191 O188 1.235 . S
O192 Co182 2.021 . S
O192 C189 1.238 . S
O193 Co187 2.052 . S
O193 C189 1.241 . S
O194 Co182 2.137 . S
O194 C185 1.247 . S
O195 Co182 2.244 . S
O195 C185 1.272 . S
O195 Co187 2.135 . S
Co196 O197 2.216 . S
Co196 O198 2.091 . S
Co196 O200 2.004 . S
Co196 O206 2.021 . S
Co196 O208 2.137 . S
Co196 O209 2.244 . S
O197 Co196 2.216 . S
O197 C204 1.247 . S
O198 Co196 2.091 . S
O198 C204 1.261 . S
C199 O208 1.247 . S
C199 O209 1.272 . S
O200 Co196 2.004 . S
O200 C205 1.259 . S
Co201 O202 2.061 . S
Co201 O207 2.052 . S
Co201 O209 2.135 . S
O202 Co201 2.061 . S
O202 C205 1.235 . S
C203 O206 1.238 . S
C203 O207 1.241 . S
C204 O197 1.247 . S
C204 O198 1.261 . S
C205 O200 1.259 . S
C205 O202 1.235 . S
O206 Co196 2.021 . S
O206 C203 1.238 . S
O207 Co201 2.052 . S
O207 C203 1.241 . S
O208 Co196 2.137 . S
O208 C199 1.247 . S
O209 Co196 2.244 . S
O209 C199 1.272 . S
O209 Co201 2.135 . S
Co210 O211 2.216 . S
Co210 O212 2.091 . S
Co210 O214 2.004 . S
Co210 O220 2.021 . S
Co210 O222 2.137 . S
Co210 O223 2.244 . S
O211 Co210 2.216 . S
O211 C218 1.247 . S
O212 Co210 2.091 . S
O212 C218 1.261 . S
C213 O222 1.247 . S
C213 O223 1.272 . S
O214 Co210 2.004 . S
O214 C219 1.259 . S
Co215 O216 2.061 . S
Co215 O221 2.052 . S
Co215 O223 2.135 . S
O216 Co215 2.061 . S
O216 C219 1.235 . S
C217 O220 1.238 . S
C217 O221 1.241 . S
C218 O211 1.247 . S
C218 O212 1.261 . S
C219 O214 1.259 . S
C219 O216 1.235 . S
O220 Co210 2.021 . S
O220 C217 1.238 . S
O221 Co215 2.052 . S
O221 C217 1.241 . S
O222 Co210 2.137 . S
O222 C213 1.247 . S
O223 Co210 2.244 . S
O223 C213 1.272 . S
O223 Co215 2.135 . S
Co224 O225 2.216 . S
Co224 O226 2.091 . S
Co224 O228 2.004 . S
Co224 O234 2.021 . S
Co224 O236 2.137 . S
Co224 O237 2.244 . S
O225 Co224 2.216 . S
O225 C232 1.247 . S
O226 Co224 2.091 . S
O226 C232 1.261 . S
C227 O236 1.247 . S
C227 O237 1.272 . S
O228 Co224 2.004 . S
O228 C233 1.259 . S
Co229 O230 2.061 . S
Co229 O235 2.052 . S
Co229 O237 2.135 . S
O230 Co229 2.061 . S
O230 C233 1.235 . S
C231 O234 1.238 . S
C231 O235 1.241 . S
C232 O225 1.247 . S
C232 O226 1.261 . S
C233 O228 1.259 . S
C233 O230 1.235 . S
O234 Co224 2.021 . S
O234 C231 1.238 . S
O235 Co229 2.052 . S
O235 C231 1.241 . S
O236 Co224 2.137 . S
O236 C227 1.247 . S
O237 Co224 2.244 . S
O237 C227 1.272 . S
O237 Co229 2.135 . S
Co238 O239 2.216 . S
Co238 O240 2.091 . S
Co238 O242 2.004 . S
Co238 O248 2.021 . S
Co238 O250 2.137 . S
Co238 O251 2.244 . S
O239 Co238 2.216 . S
O239 C246 1.247 . S
O240 Co238 2.091 . S
O240 C246 1.261 . S
C241 O250 1.247 . S
C241 O251 1.272 . S
O242 Co238 2.004 . S
O242 C247 1.259 . S
Co243 O244 2.061 . S
Co243 O249 2.052 . S
Co243 O251 2.135 . S
O244 Co243 2.061 . S
O244 C247 1.235 . S
C245 O248 1.238 . S
C245 O249 1.241 . S
C246 O239 1.247 . S
C246 O240 1.261 . S
C247 O242 1.259 . S
C247 O244 1.235 . S
O248 Co238 2.021 . S
O248 C245 1.238 . S
O249 Co243 2.052 . S
O249 C245 1.241 . S
O250 Co238 2.137 . S
O250 C241 1.247 . S
O251 Co238 2.244 . S
O251 C241 1.272 . S
O251 Co243 2.135 . S
Co252 O253 2.216 . S
Co252 O254 2.091 . S
Co252 O256 2.004 . S
Co252 O262 2.021 . S
Co252 O264 2.137 . S
Co252 O265 2.244 . S
O253 Co252 2.216 . S
O253 C260 1.247 . S
O254 Co252 2.091 . S
O254 C260 1.261 . S
C255 O264 1.247 . S
C255 O265 1.272 . S
O256 Co252 2.004 . S
O256 C261 1.259 . S
Co257 O258 2.061 . S
Co257 O263 2.052 . S
Co257 O265 2.135 . S
O258 Co257 2.061 . S
O258 C261 1.235 . S
C259 O262 1.238 . S
C259 O263 1.241 . S
C260 O253 1.247 . S
C260 O254 1.261 . S
C261 O256 1.259 . S
C261 O258 1.235 . S
O262 Co252 2.021 . S
O262 C259 1.238 . S
O263 Co257 2.052 . S
O263 C259 1.241 . S
O264 Co252 2.137 . S
O264 C255 1.247 . S
O265 Co252 2.244 . S
O265 C255 1.272 . S
O265 Co257 2.135 . S
Co266 O267 2.216 . S
Co266 O268 2.091 . S
Co266 O270 2.004 . S
Co266 O276 2.021 . S
Co266 O278 2.137 . S
Co266 O279 2.244 . S
O267 Co266 2.216 . S
O267 C274 1.247 . S
O268 Co266 2.091 . S
O268 C274 1.261 . S
C269 O278 1.247 . S
C269 O279 1.272 . S
O270 Co266 2.004 . S
O270 C275 1.259 . S
Co271 O272 2.061 . S
Co271 O277 2.052 . S
Co271 O279 2.135 . S
O272 Co271 2.061 . S
O272 C275 1.235 . S
C273 O276 1.238 . S
C273 O277 1.241 . S
C274 O267 1.247 . S
C274 O268 1.261 . S
C275 O270 1.259 . S
C275 O272 1.235 . S
O276 Co266 2.021 . S
O276 C273 1.238 . S
O277 Co271 2.052 . S
O277 C273 1.241 . S
O278 Co266 2.137 . S
O278 C269 1.247 . S
O279 Co266 2.244 . S
O279 C269 1.272 . S
O279 Co271 2.135 . S
Co280 O281 2.216 . S
Co280 O282 2.091 . S
Co280 O284 2.004 . S
Co280 O290 2.021 . S
Co280 O292 2.137 . S
Co280 O293 2.244 . S
O281 Co280 2.216 . S
O281 C288 1.247 . S
O282 Co280 2.091 . S
O282 C288 1.261 . S
C283 O292 1.247 . S
C283 O293 1.272 . S
O284 Co280 2.004 . S
O284 C289 1.259 . S
Co285 O286 2.061 . S
Co285 O291 2.052 . S
Co285 O293 2.135 . S
O286 Co285 2.061 . S
O286 C289 1.235 . S
C287 O290 1.238 . S
C287 O291 1.241 . S
C288 O281 1.247 . S
C288 O282 1.261 . S
C289 O284 1.259 . S
C289 O286 1.235 . S
O290 Co280 2.021 . S
O290 C287 1.238 . S
O291 Co285 2.052 . S
O291 C287 1.241 . S
O292 Co280 2.137 . S
O292 C283 1.247 . S
O293 Co280 2.244 . S
O293 C283 1.272 . S
O293 Co285 2.135 . S
Co294 O295 2.216 . S
Co294 O296 2.091 . S
Co294 O298 2.004 . S
Co294 O304 2.021 . S
Co294 O306 2.137 . S
Co294 O307 2.244 . S
O295 Co294 2.216 . S
O295 C302 1.247 . S
O296 Co294 2.091 . S
O296 C302 1.261 . S
C297 O306 1.247 . S
C297 O307 1.272 . S
O298 Co294 2.004 . S
O298 C303 1.259 . S
Co299 O300 2.061 . S
Co299 O305 2.052 . S
Co299 O307 2.135 . S
O300 Co299 2.061 . S
O300 C303 1.235 . S
C301 O304 1.238 . S
C301 O305 1.241 . S
C302 O295 1.247 . S
C302 O296 1.261 . S
C303 O298 1.259 . S
C303 O300 1.235 . S
O304 Co294 2.021 . S
O304 C301 1.238 . S
O305 Co299 2.052 . S
O305 C301 1.241 . S
O306 Co294 2.137 . S
O306 C297 1.247 . S
O307 Co294 2.244 . S
O307 C297 1.272 . S
O307 Co299 2.135 . S
Co308 O309 2.216 . S
Co308 O310 2.091 . S
Co308 O312 2.004 . S
Co308 O318 2.021 . S
Co308 O320 2.137 . S
Co308 O321 2.244 . S
O309 Co308 2.216 . S
O309 C316 1.247 . S
O310 Co308 2.091 . S
O310 C316 1.261 . S
C311 O320 1.247 . S
C311 O321 1.272 . S
O312 Co308 2.004 . S
O312 C317 1.259 . S
Co313 O314 2.061 . S
Co313 O319 2.052 . S
Co313 O321 2.135 . S
O314 Co313 2.061 . S
O314 C317 1.235 . S
C315 O318 1.238 . S
C315 O319 1.241 . S
C316 O309 1.247 . S
C316 O310 1.261 . S
C317 O312 1.259 . S
C317 O314 1.235 . S
O318 Co308 2.021 . S
O318 C315 1.238 . S
O319 Co313 2.052 . S
O319 C315 1.241 . S
O320 Co308 2.137 . S
O320 C311 1.247 . S
O321 Co308 2.244 . S
O321 C311 1.272 . S
O321 Co313 2.135 . S
Co322 O323 2.216 . S
Co322 O324 2.091 . S
Co322 O326 2.004 . S
Co322 O332 2.021 . S
Co322 O334 2.137 . S
Co322 O335 2.244 . S
O323 Co322 2.216 . S
O323 C330 1.247 . S
O324 Co322 2.091 . S
O324 C330 1.261 . S
C325 O334 1.247 . S
C325 O335 1.272 . S
O326 Co322 2.004 . S
O326 C331 1.259 . S
Co327 O328 2.061 . S
Co327 O333 2.052 . S
Co327 O335 2.135 . S
O328 Co327 2.061 . S
O328 C331 1.235 . S
C329 O332 1.238 . S
C329 O333 1.241 . S
C330 O323 1.247 . S
C330 O324 1.261 . S
C331 O326 1.259 . S
C331 O328 1.235 . S
O332 Co322 2.021 . S
O332 C329 1.238 . S
O333 Co327 2.052 . S
O333 C329 1.241 . S
O334 Co322 2.137 . S
O334 C325 1.247 . S
O335 Co322 2.244 . S
O335 C325 1.272 . S
O335 Co327 2.135 . S
Co336 O337 2.216 . S
Co336 O338 2.091 . S
Co336 O340 2.004 . S
Co336 O346 2.021 . S
Co336 O348 2.137 . S
Co336 O349 2.244 . S
O337 Co336 2.216 . S
O337 C344 1.247 . S
O338 Co336 2.091 . S
O338 C344 1.261 . S
C339 O348 1.247 . S
C339 O349 1.272 . S
O340 Co336 2.004 . S
O340 C345 1.259 . S
Co341 O342 2.061 . S
Co341 O347 2.052 . S
Co341 O349 2.135 . S
O342 Co341 2.061 . S
O342 C345 1.235 . S
C343 O346 1.238 . S
C343 O347 1.241 . S
C344 O337 1.247 . S
C344 O338 1.261 . S
C345 O340 1.259 . S
C345 O342 1.235 . S
O346 Co336 2.021 . S
O346 C343 1.238 . S
O347 Co341 2.052 . S
O347 C343 1.241 . S
O348 Co336 2.137 . S
O348 C339 1.247 . S
O349 Co336 2.244 . S
O349 C339 1.272 . S
O349 Co341 2.135 . S
Co350 O351 2.216 . S
Co350 O352 2.091 . S
Co350 O354 2.004 . S
Co350 O360 2.021 . S
Co350 O362 2.137 . S
Co350 O363 2.244 . S
O351 Co350 2.216 . S
O351 C358 1.247 . S
O352 Co350 2.091 . S
O352 C358 1.261 . S
C353 O362 1.247 . S
C353 O363 1.272 . S
O354 Co350 2.004 . S
O354 C359 1.259 . S
Co355 O356 2.061 . S
Co355 O361 2.052 . S
Co355 O363 2.135 . S
O356 Co355 2.061 . S
O356 C359 1.235 . S
C357 O360 1.238 . S
C357 O361 1.241 . S
C358 O351 1.247 . S
C358 O352 1.261 . S
C359 O354 1.259 . S
C359 O356 1.235 . S
O360 Co350 2.021 . S
O360 C357 1.238 . S
O361 Co355 2.052 . S
O361 C357 1.241 . S
O362 Co350 2.137 . S
O362 C353 1.247 . S
O363 Co350 2.244 . S
O363 C353 1.272 . S
O363 Co355 2.135 . S
Co364 O365 2.216 . S
Co364 O366 2.091 . S
Co364 O368 2.004 . S
Co364 O374 2.021 . S
Co364 O376 2.137 . S
Co364 O377 2.244 . S
O365 Co364 2.216 . S
O365 C372 1.247 . S
O366 Co364 2.091 . S
O366 C372 1.261 . S
C367 O376 1.247 . S
C367 O377 1.272 . S
O368 Co364 2.004 . S
O368 C373 1.259 . S
Co369 O370 2.061 . S
Co369 O375 2.052 . S
Co369 O377 2.135 . S
O370 Co369 2.061 . S
O370 C373 1.235 . S
C371 O374 1.238 . S
C371 O375 1.241 . S
C372 O365 1.247 . S
C372 O366 1.261 . S
C373 O368 1.259 . S
C373 O370 1.235 . S
O374 Co364 2.021 . S
O374 C371 1.238 . S
O375 Co369 2.052 . S
O375 C371 1.241 . S
O376 Co364 2.137 . S
O376 C367 1.247 . S
O377 Co364 2.244 . S
O377 C367 1.272 . S
O377 Co369 2.135 . S
Co378 O379 2.216 . S
Co378 O380 2.091 . S
Co378 O382 2.004 . S
Co378 O388 2.021 . S
Co378 O390 2.137 . S
Co378 O391 2.244 . S
O379 Co378 2.216 . S
O379 C386 1.247 . S
O380 Co378 2.091 . S
O380 C386 1.261 . S
C381 O390 1.247 . S
C381 O391 1.272 . S
O382 Co378 2.004 . S
O382 C387 1.259 . S
Co383 O384 2.061 . S
Co383 O389 2.052 . S
Co383 O391 2.135 . S
O384 Co383 2.061 . S
O384 C387 1.235 . S
C385 O388 1.238 . S
C385 O389 1.241 . S
C386 O379 1.247 . S
C386 O380 1.261 . S
C387 O382 1.259 . S
C387 O384 1.235 . S
O388 Co378 2.021 . S
O388 C385 1.238 . S
O389 Co383 2.052 . S
O389 C385 1.241 . S
O390 Co378 2.137 . S
O390 C381 1.247 . S
O391 Co378 2.244 . S
O391 C381 1.272 . S
O391 Co383 2.135 . S
Co392 O393 2.216 . S
Co392 O394 2.091 . S
Co392 O396 2.004 . S
Co392 O402 2.021 . S
Co392 O404 2.137 . S
Co392 O405 2.244 . S
O393 Co392 2.216 . S
O393 C400 1.247 . S
O394 Co392 2.091 . S
O394 C400 1.261 . S
C395 O404 1.247 . S
C395 O405 1.272 . S
O396 Co392 2.004 . S
O396 C401 1.259 . S
Co397 O398 2.061 . S
Co397 O403 2.052 . S
Co397 O405 2.135 . S
O398 Co397 2.061 . S
O398 C401 1.235 . S
C399 O402 1.238 . S
C399 O403 1.241 . S
C400 O393 1.247 . S
C400 O394 1.261 . S
C401 O396 1.259 . S
C401 O398 1.235 . S
O402 Co392 2.021 . S
O402 C399 1.238 . S
O403 Co397 2.052 . S
O403 C399 1.241 . S
O404 Co392 2.137 . S
O404 C395 1.247 . S
O405 Co392 2.244 . S
O405 C395 1.272 . S
O405 Co397 2.135 . S
Co406 O407 2.216 . S
Co406 O408 2.091 . S
Co406 O410 2.004 . S
Co406 O416 2.021 . S
Co406 O418 2.137 . S
Co406 O419 2.244 . S
O407 Co406 2.216 . S
O407 C414 1.247 . S
O408 Co406 2.091 . S
O408 C414 1.261 . S
C409 O418 1.247 . S
C409 O419 1.272 . S
O410 Co406 2.004 . S
O410 C415 1.259 . S
Co411 O412 2.061 . S
Co411 O417 2.052 . S
Co411 O419 2.135 . S
O412 Co411 2.061 . S
O412 C415 1.235 . S
C413 O416 1.238 . S
C413 O417 1.241 . S
C414 O407 1.247 . S
C414 O408 1.261 . S
C415 O410 1.259 . S
C415 O412 1.235 . S
O416 Co406 2.021 . S
O416 C413 1.238 . S
O417 Co411 2.052 . S
O417 C413 1.241 . S
O418 Co406 2.137 . S
O418 C409 1.247 . S
O419 Co406 2.244 . S
O419 C409 1.272 . S
O419 Co411 2.135 . S
Co420 O421 2.216 . S
Co420 O422 2.091 . S
Co420 O424 2.004 . S
Co420 O430 2.021 . S
Co420 O432 2.137 . S
Co420 O433 2.244 . S
O421 Co420 2.216 . S
O421 C428 1.247 . S
O422 Co420 2.091 . S
O422 C428 1.261 . S
C423 O432 1.247 . S
C423 O433 1.272 . S
O424 Co420 2.004 . S
O424 C429 1.259 . S
Co425 O426 2.061 . S
Co425 O431 2.052 . S
Co425 O433 2.135 . S
O426 Co425 2.061 . S
O426 C429 1.235 . S
C427 O430 1.238 . S
C427 O431 1.241 . S
C428 O421 1.247 . S
C428 O422 1.261 . S
C429 O424 1.259 . S
C429 O426 1.235 . S
O430 Co420 2.021 . S
O430 C427 1.238 . S
O431 Co425 2.052 . S
O431 C427 1.241 . S
O432 Co420 2.137 . S
O432 C423 1.247 . S
O433 Co420 2.244 . S
O433 C423 1.272 . S
O433 Co425 2.135 . S
Co434 O435 2.216 . S
Co434 O436 2.091 . S
Co434 O438 2.004 . S
Co434 O444 2.021 . S
Co434 O446 2.137 . S
Co434 O447 2.244 . S
O435 Co434 2.216 . S
O435 C442 1.247 . S
O436 Co434 2.091 . S
O436 C442 1.261 . S
C437 O446 1.247 . S
C437 O447 1.272 . S
O438 Co434 2.004 . S
O438 C443 1.259 . S
Co439 O440 2.061 . S
Co439 O445 2.052 . S
Co439 O447 2.135 . S
O440 Co439 2.061 . S
O440 C443 1.235 . S
C441 O444 1.238 . S
C441 O445 1.241 . S
C442 O435 1.247 . S
C442 O436 1.261 . S
C443 O438 1.259 . S
C443 O440 1.235 . S
O444 Co434 2.021 . S
O444 C441 1.238 . S
O445 Co439 2.052 . S
O445 C441 1.241 . S
O446 Co434 2.137 . S
O446 C437 1.247 . S
O447 Co434 2.244 . S
O447 C437 1.272 . S
O447 Co439 2.135 . S
Co448 O449 2.216 . S
Co448 O450 2.091 . S
Co448 O452 2.004 . S
Co448 O458 2.021 . S
Co448 O460 2.137 . S
Co448 O461 2.244 . S
O449 Co448 2.216 . S
O449 C456 1.247 . S
O450 Co448 2.091 . S
O450 C456 1.261 . S
C451 O460 1.247 . S
C451 O461 1.272 . S
O452 Co448 2.004 . S
O452 C457 1.259 . S
Co453 O454 2.061 . S
Co453 O459 2.052 . S
Co453 O461 2.135 . S
O454 Co453 2.061 . S
O454 C457 1.235 . S
C455 O458 1.238 . S
C455 O459 1.241 . S
C456 O449 1.247 . S
C456 O450 1.261 . S
C457 O452 1.259 . S
C457 O454 1.235 . S
O458 Co448 2.021 . S
O458 C455 1.238 . S
O459 Co453 2.052 . S
O459 C455 1.241 . S
O460 Co448 2.137 . S
O460 C451 1.247 . S
O461 Co448 2.244 . S
O461 C451 1.272 . S
O461 Co453 2.135 . S
Co462 O463 2.216 . S
Co462 O464 2.091 . S
Co462 O466 2.004 . S
Co462 O472 2.021 . S
Co462 O474 2.137 . S
Co462 O475 2.244 . S
O463 Co462 2.216 . S
O463 C470 1.247 . S
O464 Co462 2.091 . S
O464 C470 1.261 . S
C465 O474 1.247 . S
C465 O475 1.272 . S
O466 Co462 2.004 . S
O466 C471 1.259 . S
Co467 O468 2.061 . S
Co467 O473 2.052 . S
Co467 O475 2.135 . S
O468 Co467 2.061 . S
O468 C471 1.235 . S
C469 O472 1.238 . S
C469 O473 1.241 . S
C470 O463 1.247 . S
C470 O464 1.261 . S
C471 O466 1.259 . S
C471 O468 1.235 . S
O472 Co462 2.021 . S
O472 C469 1.238 . S
O473 Co467 2.052 . S
O473 C469 1.241 . S
O474 Co462 2.137 . S
O474 C465 1.247 . S
O475 Co462 2.244 . S
O475 C465 1.272 . S
O475 Co467 2.135 . S
Co476 O477 2.216 . S
Co476 O478 2.091 . S
Co476 O480 2.004 . S
Co476 O486 2.021 . S
Co476 O488 2.137 . S
Co476 O489 2.244 . S
O477 Co476 2.216 . S
O477 C484 1.247 . S
O478 Co476 2.091 . S
O478 C484 1.261 . S
C479 O488 1.247 . S
C479 O489 1.272 . S
O480 Co476 2.004 . S
O480 C485 1.259 . S
Co481 O482 2.061 . S
Co481 O487 2.052 . S
Co481 O489 2.135 . S
O482 Co481 2.061 . S
O482 C485 1.235 . S
C483 O486 1.238 . S
C483 O487 1.241 . S
C484 O477 1.247 . S
C484 O478 1.261 . S
C485 O480 1.259 . S
C485 O482 1.235 . S
O486 Co476 2.021 . S
O486 C483 1.238 . S
O487 Co481 2.052 . S
O487 C483 1.241 . S
O488 Co476 2.137 . S
O488 C479 1.247 . S
O489 Co476 2.244 . S
O489 C479 1.272 . S
O489 Co481 2.135 . S
Co490 O491 2.216 . S
Co490 O492 2.091 . S
Co490 O494 2.004 . S
Co490 O500 2.021 . S
Co490 O502 2.137 . S
Co490 O503 2.244 . S
O491 Co490 2.216 . S
O491 C498 1.247 . S
O492 Co490 2.091 . S
O492 C498 1.261 . S
C493 O502 1.247 . S
C493 O503 1.272 . S
O494 Co490 2.004 . S
O494 C499 1.259 . S
Co495 O496 2.061 . S
Co495 O501 2.052 . S
Co495 O503 2.135 . S
O496 Co495 2.061 . S
O496 C499 1.235 . S
C497 O500 1.238 . S
C497 O501 1.241 . S
C498 O491 1.247 . S
C498 O492 1.261 . S
C499 O494 1.259 . S
C499 O496 1.235 . S
O500 Co490 2.021 . S
O500 C497 1.238 . S
O501 Co495 2.052 . S
O501 C497 1.241 . S
O502 Co490 2.137 . S
O502 C493 1.247 . S
O503 Co490 2.244 . S
O503 C493 1.272 . S
O503 Co495 2.135 . S
Co504 O505 2.216 . S
Co504 O506 2.091 . S
Co504 O508 2.004 . S
Co504 O514 2.021 . S
Co504 O516 2.137 . S
Co504 O517 2.244 . S
O505 Co504 2.216 . S
O505 C512 1.247 . S
O506 Co504 2.091 . S
O506 C512 1.261 . S
C507 O516 1.247 . S
C507 O517 1.272 . S
O508 Co504 2.004 . S
O508 C513 1.259 . S
Co509 O510 2.061 . S
Co509 O515 2.052 . S
Co509 O517 2.135 . S
O510 Co509 2.061 . S
O510 C513 1.235 . S
C511 O514 1.238 . S
C511 O515 1.241 . S
C512 O505 1.247 . S
C512 O506 1.261 . S
C513 O508 1.259 . S
C513 O510 1.235 . S
O514 Co504 2.021 . S
O514 C511 1.238 . S
O515 Co509 2.052 . S
O515 C511 1.241 . S
O516 Co504 2.137 . S
O516 C507 1.247 . S
O517 Co504 2.244 . S
O517 C507 1.272 . S
O517 Co509 2.135 . S
Co518 O519 2.216 . S
Co518 O520 2.091 . S
Co518 O522 2.004 . S
Co518 O528 2.021 . S
Co518 O530 2.137 . S
Co518 O531 2.244 . S
O519 Co518 2.216 . S
O519 C526 1.247 . S
O520 Co518 2.091 . S
O520 C526 1.261 . S
C521 O530 1.247 . S
C521 O531 1.272 . S
O522 Co518 2.004 . S
O522 C527 1.259 . S
Co523 O524 2.061 . S
Co523 O529 2.052 . S
Co523 O531 2.135 . S
O524 Co523 2.061 . S
O524 C527 1.235 . S
C525 O528 1.238 . S
C525 O529 1.241 . S
C526 O519 1.247 . S
C526 O520 1.261 . S
C527 O522 1.259 . S
C527 O524 1.235 . S
O528 Co518 2.021 . S
O528 C525 1.238 . S
O529 Co523 2.052 . S
O529 C525 1.241 . S
O530 Co518 2.137 . S
O530 C521 1.247 . S
O531 Co518 2.244 . S
O531 C521 1.272 . S
O531 Co523 2.135 . S
Co532 O533 2.216 . S
Co532 O534 2.091 . S
Co532 O536 2.004 . S
Co532 O542 2.021 . S
Co532 O544 2.137 . S
Co532 O545 2.244 . S
O533 Co532 2.216 . S
O533 C540 1.247 . S
O534 Co532 2.091 . S
O534 C540 1.261 . S
C535 O544 1.247 . S
C535 O545 1.272 . S
O536 Co532 2.004 . S
O536 C541 1.259 . S
Co537 O538 2.061 . S
Co537 O543 2.052 . S
Co537 O545 2.135 . S
O538 Co537 2.061 . S
O538 C541 1.235 . S
C539 O542 1.238 . S
C539 O543 1.241 . S
C540 O533 1.247 . S
C540 O534 1.261 . S
C541 O536 1.259 . S
C541 O538 1.235 . S
O542 Co532 2.021 . S
O542 C539 1.238 . S
O543 Co537 2.052 . S
O543 C539 1.241 . S
O544 Co532 2.137 . S
O544 C535 1.247 . S
O545 Co532 2.244 . S
O545 C535 1.272 . S
O545 Co537 2.135 . S
Co546 O547 2.216 . S
Co546 O548 2.091 . S
Co546 O550 2.004 . S
Co546 O556 2.021 . S
Co546 O558 2.137 . S
Co546 O559 2.244 . S
O547 Co546 2.216 . S
O547 C554 1.247 . S
O548 Co546 2.091 . S
O548 C554 1.261 . S
C549 O558 1.247 . S
C549 O559 1.272 . S
O550 Co546 2.004 . S
O550 C555 1.259 . S
Co551 O552 2.061 . S
Co551 O557 2.052 . S
Co551 O559 2.135 . S
O552 Co551 2.061 . S
O552 C555 1.235 . S
C553 O556 1.238 . S
C553 O557 1.241 . S
C554 O547 1.247 . S
C554 O548 1.261 . S
C555 O550 1.259 . S
C555 O552 1.235 . S
O556 Co546 2.021 . S
O556 C553 1.238 . S
O557 Co551 2.052 . S
O557 C553 1.241 . S
O558 Co546 2.137 . S
O558 C549 1.247 . S
O559 Co546 2.244 . S
O559 C549 1.272 . S
O559 Co551 2.135 . S
Co560 O561 2.216 . S
Co560 O562 2.091 . S
Co560 O564 2.004 . S
Co560 O570 2.021 . S
Co560 O572 2.137 . S
Co560 O573 2.244 . S
O561 Co560 2.216 . S
O561 C568 1.247 . S
O562 Co560 2.091 . S
O562 C568 1.261 . S
C563 O572 1.247 . S
C563 O573 1.272 . S
O564 Co560 2.004 . S
O564 C569 1.259 . S
Co565 O566 2.061 . S
Co565 O571 2.052 . S
Co565 O573 2.135 . S
O566 Co565 2.061 . S
O566 C569 1.235 . S
C567 O570 1.238 . S
C567 O571 1.241 . S
C568 O561 1.247 . S
C568 O562 1.261 . S
C569 O564 1.259 . S
C569 O566 1.235 . S
O570 Co560 2.021 . S
O570 C567 1.238 . S
O571 Co565 2.052 . S
O571 C567 1.241 . S
O572 Co560 2.137 . S
O572 C563 1.247 . S
O573 Co560 2.244 . S
O573 C563 1.272 . S
O573 Co565 2.135 . S
Co574 O575 2.216 . S
Co574 O576 2.091 . S
Co574 O578 2.004 . S
Co574 O584 2.021 . S
Co574 O586 2.137 . S
Co574 O587 2.244 . S
O575 Co574 2.216 . S
O575 C582 1.247 . S
O576 Co574 2.091 . S
O576 C582 1.261 . S
C577 O586 1.247 . S
C577 O587 1.272 . S
O578 Co574 2.004 . S
O578 C583 1.259 . S
Co579 O580 2.061 . S
Co579 O585 2.052 . S
Co579 O587 2.135 . S
O580 Co579 2.061 . S
O580 C583 1.235 . S
C581 O584 1.238 . S
C581 O585 1.241 . S
C582 O575 1.247 . S
C582 O576 1.261 . S
C583 O578 1.259 . S
C583 O580 1.235 . S
O584 Co574 2.021 . S
O584 C581 1.238 . S
O585 Co579 2.052 . S
O585 C581 1.241 . S
O586 Co574 2.137 . S
O586 C577 1.247 . S
O587 Co574 2.244 . S
O587 C577 1.272 . S
O587 Co579 2.135 . S
Co588 O589 2.216 . S
Co588 O590 2.091 . S
Co588 O592 2.004 . S
Co588 O598 2.021 . S
Co588 O600 2.137 . S
Co588 O601 2.244 . S
O589 Co588 2.216 . S
O589 C596 1.247 . S
O590 Co588 2.091 . S
O590 C596 1.261 . S
C591 O600 1.247 . S
C591 O601 1.272 . S
O592 Co588 2.004 . S
O592 C597 1.259 . S
Co593 O594 2.061 . S
Co593 O599 2.052 . S
Co593 O601 2.135 . S
O594 Co593 2.061 . S
O594 C597 1.235 . S
C595 O598 1.238 . S
C595 O599 1.241 . S
C596 O589 1.247 . S
C596 O590 1.261 . S
C597 O592 1.259 . S
C597 O594 1.235 . S
O598 Co588 2.021 . S
O598 C595 1.238 . S
O599 Co593 2.052 . S
O599 C595 1.241 . S
O600 Co588 2.137 . S
O600 C591 1.247 . S
O601 Co588 2.244 . S
O601 C591 1.272 . S
O601 Co593 2.135 . S
Co602 O603 2.216 . S
Co602 O604 2.091 . S
Co602 O606 2.004 . S
Co602 O612 2.021 . S
Co602 O614 2.137 . S
Co602 O615 2.244 . S
O603 Co602 2.216 . S
O603 C610 1.247 . S
O604 Co602 2.091 . S
O604 C610 1.261 . S
C605 O614 1.247 . S
C605 O615 1.272 . S
O606 Co602 2.004 . S
O606 C611 1.259 . S
Co607 O608 2.061 . S
Co607 O613 2.052 . S
Co607 O615 2.135 . S
O608 Co607 2.061 . S
O608 C611 1.235 . S
C609 O612 1.238 . S
C609 O613 1.241 . S
C610 O603 1.247 . S
C610 O604 1.261 . S
C611 O606 1.259 . S
C611 O608 1.235 . S
O612 Co602 2.021 . S
O612 C609 1.238 . S
O613 Co607 2.052 . S
O613 C609 1.241 . S
O614 Co602 2.137 . S
O614 C605 1.247 . S
O615 Co602 2.244 . S
O615 C605 1.272 . S
O615 Co607 2.135 . S
Co616 O617 2.216 . S
Co616 O618 2.091 . S
Co616 O620 2.004 . S
Co616 O626 2.021 . S
Co616 O628 2.137 . S
Co616 O629 2.244 . S
O617 Co616 2.216 . S
O617 C624 1.247 . S
O618 Co616 2.091 . S
O618 C624 1.261 . S
C619 O628 1.247 . S
C619 O629 1.272 . S
O620 Co616 2.004 . S
O620 C625 1.259 . S
Co621 O622 2.061 . S
Co621 O627 2.052 . S
Co621 O629 2.135 . S
O622 Co621 2.061 . S
O622 C625 1.235 . S
C623 O626 1.238 . S
C623 O627 1.241 . S
C624 O617 1.247 . S
C624 O618 1.261 . S
C625 O620 1.259 . S
C625 O622 1.235 . S
O626 Co616 2.021 . S
O626 C623 1.238 . S
O627 Co621 2.052 . S
O627 C623 1.241 . S
O628 Co616 2.137 . S
O628 C619 1.247 . S
O629 Co616 2.244 . S
O629 C619 1.272 . S
O629 Co621 2.135 . S
Co630 O631 2.216 . S
Co630 O632 2.091 . S
Co630 O634 2.004 . S
Co630 O640 2.021 . S
Co630 O642 2.137 . S
Co630 O643 2.244 . S
O631 Co630 2.216 . S
O631 C638 1.247 . S
O632 Co630 2.091 . S
O632 C638 1.261 . S
C633 O642 1.247 . S
C633 O643 1.272 . S
O634 Co630 2.004 . S
O634 C639 1.259 . S
Co635 O636 2.061 . S
Co635 O641 2.052 . S
Co635 O643 2.135 . S
O636 Co635 2.061 . S
O636 C639 1.235 . S
C637 O640 1.238 . S
C637 O641 1.241 . S
C638 O631 1.247 . S
C638 O632 1.261 . S
C639 O634 1.259 . S
C639 O636 1.235 . S
O640 Co630 2.021 . S
O640 C637 1.238 . S
O641 Co635 2.052 . S
O641 C637 1.241 . S
O642 Co630 2.137 . S
O642 C633 1.247 . S
O643 Co630 2.244 . S
O643 C633 1.272 . S
O643 Co635 2.135 . S
Co644 O645 2.216 . S
Co644 O646 2.091 . S
Co644 O648 2.004 . S
Co644 O654 2.021 . S
Co644 O656 2.137 . S
Co644 O657 2.244 . S
O645 Co644 2.216 . S
O645 C652 1.247 . S
O646 Co644 2.091 . S
O646 C652 1.261 . S
C647 O656 1.247 . S
C647 O657 1.272 . S
O648 Co644 2.004 . S
O648 C653 1.259 . S
Co649 O650 2.061 . S
Co649 O655 2.052 . S
Co649 O657 2.135 . S
O650 Co649 2.061 . S
O650 C653 1.235 . S
C651 O654 1.238 . S
C651 O655 1.241 . S
C652 O645 1.247 . S
C652 O646 1.261 . S
C653 O648 1.259 . S
C653 O650 1.235 . S
O654 Co644 2.021 . S
O654 C651 1.238 . S
O655 Co649 2.052 . S
O655 C651 1.241 . S
O656 Co644 2.137 . S
O656 C647 1.247 . S
O657 Co644 2.244 . S
O657 C647 1.272 . S
O657 Co649 2.135 . S
Co658 O659 2.216 . S
Co658 O660 2.091 . S
Co658 O662 2.004 . S
Co658 O668 2.021 . S
Co658 O670 2.137 . S
Co658 O671 2.244 . S
O659 Co658 2.216 . S
O659 C666 1.247 . S
O660 Co658 2.091 . S
O660 C666 1.261 . S
C661 O670 1.247 . S
C661 O671 1.272 . S
O662 Co658 2.004 . S
O662 C667 1.259 . S
Co663 O664 2.061 . S
Co663 O669 2.052 . S
Co663 O671 2.135 . S
O664 Co663 2.061 . S
O664 C667 1.235 . S
C665 O668 1.238 . S
C665 O669 1.241 . S
C666 O659 1.247 . S
C666 O660 1.261 . S
C667 O662 1.259 . S
C667 O664 1.235 . S
O668 Co658 2.021 . S
O668 C665 1.238 . S
O669 Co663 2.052 . S
O669 C665 1.241 . S
O670 Co658 2.137 . S
O670 C661 1.247 . S
O671 Co658 2.244 . S
O671 C661 1.272 . S
O671 Co663 2.135 . S
H672 C690 0.951 . S
H673 C692 0.951 . S
H674 C694 0.950 . S
H675 C695 0.950 . S
H676 C697 0.950 . S
H677 C700 0.950 . S
H678 C701 0.950 . S
H679 C703 0.950 . S
H680 C704 0.950 . S
H681 C705 0.951 . S
H682 C707 0.951 . S
H683 C709 0.950 . S
H684 C710 0.950 . S
H685 C712 0.950 . S
H686 C715 0.950 . S
H687 C716 0.950 . S
H688 C718 0.950 . S
H689 C719 0.950 . S
C690 H672 0.951 . S
C690 C691 1.366 . S
C690 C692 1.388 . S
C691 C690 1.366 . S
C691 C695 1.385 . S
C692 H673 0.951 . S
C692 C690 1.388 . S
C692 C693 1.366 . S
C693 C692 1.366 . S
C693 C694 1.414 . S
C693 C696 1.499 . S
C694 H674 0.950 . S
C694 C693 1.414 . S
C694 C695 1.374 . S
C695 H675 0.950 . S
C695 C691 1.385 . S
C695 C694 1.374 . S
C696 C693 1.499 . S
C696 C697 1.373 . S
C696 C698 1.389 . S
C697 H676 0.950 . S
C697 C696 1.373 . S
C697 C713 1.377 1_655 S
C698 C696 1.389 . S
C698 C699 1.524 . S
C698 C712 1.377 1_655 S
C699 C698 1.524 . S
C699 C700 1.397 . S
C699 C704 1.363 . S
C700 H677 0.950 . S
C700 C699 1.397 . S
C700 C701 1.334 . S
C701 H678 0.950 . S
C701 C700 1.334 . S
C701 C702 1.287 . S
C702 C701 1.287 . S
C702 C703 1.524 . S
C702 H721 0.913 . S
C703 H679 0.950 . S
C703 C702 1.524 . S
C703 C704 1.415 . S
C704 H680 0.950 . S
C704 C699 1.363 . S
C704 C703 1.415 . S
C705 H681 0.951 . S
C705 C706 1.366 . S
C705 C707 1.388 . S
C706 C705 1.366 . S
C706 C710 1.385 . S
C707 H682 0.951 . S
C707 C705 1.388 . S
C707 C708 1.366 . S
C708 C707 1.366 . S
C708 C709 1.414 . S
C708 C711 1.499 . S
C709 H683 0.950 . S
C709 C708 1.414 . S
C709 C710 1.374 . S
C710 H684 0.950 . S
C710 C706 1.385 . S
C710 C709 1.374 . S
C711 C708 1.499 . S
C711 C712 1.373 . S
C711 C713 1.389 . S
C712 H685 0.950 . S
C712 C698 1.377 1_455 S
C712 C711 1.373 . S
C713 C697 1.377 1_455 S
C713 C711 1.389 . S
C713 C714 1.524 . S
C714 C713 1.524 . S
C714 C715 1.397 . S
C714 C719 1.363 . S
C715 H686 0.950 . S
C715 C714 1.397 . S
C715 C716 1.334 . S
C716 H687 0.950 . S
C716 C715 1.334 . S
C716 C717 1.287 . S
C717 C716 1.287 . S
C717 C718 1.524 . S
C717 H720 0.999 . S
C718 H688 0.950 . S
C718 C717 1.524 . S
C718 C719 1.415 . S
C719 H689 0.950 . S
C719 C714 1.363 . S
C719 C718 1.415 . S
H720 C717 0.999 . S
H721 C702 0.913 . S
H722 C740 0.951 . S
H723 C742 0.951 . S
H724 C744 0.950 . S
H725 C745 0.950 . S
H726 C747 0.950 . S
H727 C750 0.950 . S
H728 C751 0.950 . S
H729 C753 0.950 . S
H730 C754 0.950 . S
H731 C755 0.951 . S
H732 C757 0.951 . S
H733 C759 0.950 . S
H734 C760 0.950 . S
H735 C762 0.950 . S
H736 C765 0.950 . S
H737 C766 0.950 . S
H738 C768 0.950 . S
H739 C769 0.950 . S
C740 H722 0.951 . S
C740 C741 1.366 . S
C740 C742 1.388 . S
C741 C740 1.366 . S
C741 C745 1.385 . S
C742 H723 0.951 . S
C742 C740 1.388 . S
C742 C743 1.366 . S
C743 C742 1.366 . S
C743 C744 1.414 . S
C743 C746 1.499 . S
C744 H724 0.950 . S
C744 C743 1.414 . S
C744 C745 1.374 . S
C745 H725 0.950 . S
C745 C741 1.385 . S
C745 C744 1.374 . S
C746 C743 1.499 . S
C746 C747 1.373 . S
C746 C748 1.389 . S
C747 H726 0.950 . S
C747 C746 1.373 . S
C747 C763 1.377 . S
C748 C746 1.389 . S
C748 C749 1.524 . S
C748 C762 1.377 . S
C749 C748 1.524 . S
C749 C750 1.397 . S
C749 C754 1.363 . S
C750 H727 0.950 . S
C750 C749 1.397 . S
C750 C751 1.334 . S
C751 H728 0.950 . S
C751 C750 1.334 . S
C751 C752 1.287 . S
C752 C751 1.287 . S
C752 C753 1.524 . S
C752 H771 0.913 . S
C753 H729 0.950 . S
C753 C752 1.524 . S
C753 C754 1.415 . S
C754 H730 0.950 . S
C754 C749 1.363 . S
C754 C753 1.415 . S
C755 H731 0.951 . S
C755 C756 1.366 . S
C755 C757 1.388 . S
C756 C755 1.366 . S
C756 C760 1.385 . S
C757 H732 0.951 . S
C757 C755 1.388 . S
C757 C758 1.366 . S
C758 C757 1.366 . S
C758 C759 1.414 . S
C758 C761 1.499 . S
C759 H733 0.950 . S
C759 C758 1.414 . S
C759 C760 1.374 . S
C760 H734 0.950 . S
C760 C756 1.385 . S
C760 C759 1.374 . S
C761 C758 1.499 . S
C761 C762 1.373 . S
C761 C763 1.389 . S
C762 H735 0.950 . S
C762 C748 1.377 . S
C762 C761 1.373 . S
C763 C747 1.377 . S
C763 C761 1.389 . S
C763 C764 1.524 . S
C764 C763 1.524 . S
C764 C765 1.397 . S
C764 C769 1.363 . S
C765 H736 0.950 . S
C765 C764 1.397 . S
C765 C766 1.334 . S
C766 H737 0.950 . S
C766 C765 1.334 . S
C766 C767 1.287 . S
C767 C766 1.287 . S
C767 C768 1.524 . S
C767 H770 0.999 . S
C768 H738 0.950 . S
C768 C767 1.524 . S
C768 C769 1.415 . S
C769 H739 0.950 . S
C769 C764 1.363 . S
C769 C768 1.415 . S
H770 C767 0.999 . S
H771 C752 0.913 . S
H772 C790 0.951 . S
H773 C792 0.951 . S
H774 C794 0.950 . S
H775 C795 0.950 . S
H776 C797 0.950 . S
H777 C800 0.950 . S
H778 C801 0.950 . S
H779 C803 0.950 . S
H780 C804 0.950 . S
H781 C805 0.951 . S
H782 C807 0.951 . S
H783 C809 0.950 . S
H784 C810 0.950 . S
H785 C812 0.950 . S
H786 C815 0.950 . S
H787 C816 0.950 . S
H788 C818 0.950 . S
H789 C819 0.950 . S
C790 H772 0.951 . S
C790 C791 1.366 . S
C790 C792 1.388 . S
C791 C790 1.366 . S
C791 C795 1.385 . S
C792 H773 0.951 . S
C792 C790 1.388 . S
C792 C793 1.366 . S
C793 C792 1.366 . S
C793 C794 1.414 . S
C793 C796 1.499 . S
C794 H774 0.950 . S
C794 C793 1.414 . S
C794 C795 1.374 . S
C795 H775 0.950 . S
C795 C791 1.385 . S
C795 C794 1.374 . S
C796 C793 1.499 . S
C796 C797 1.373 . S
C796 C798 1.389 . S
C797 H776 0.950 . S
C797 C796 1.373 . S
C797 C813 1.377 1_455 S
C798 C796 1.389 . S
C798 C799 1.524 . S
C798 C812 1.377 1_455 S
C799 C798 1.524 . S
C799 C800 1.397 . S
C799 C804 1.363 . S
C800 H777 0.950 . S
C800 C799 1.397 . S
C800 C801 1.334 . S
C801 H778 0.950 . S
C801 C800 1.334 . S
C801 C802 1.287 . S
C802 C801 1.287 . S
C802 C803 1.524 . S
C802 H821 0.913 . S
C803 H779 0.950 . S
C803 C802 1.524 . S
C803 C804 1.415 . S
C804 H780 0.950 . S
C804 C799 1.363 . S
C804 C803 1.415 . S
C805 H781 0.951 . S
C805 C806 1.366 . S
C805 C807 1.388 . S
C806 C805 1.366 . S
C806 C810 1.385 . S
C807 H782 0.951 . S
C807 C805 1.388 . S
C807 C808 1.366 . S
C808 C807 1.366 . S
C808 C809 1.414 . S
C808 C811 1.499 . S
C809 H783 0.950 . S
C809 C808 1.414 . S
C809 C810 1.374 . S
C810 H784 0.950 . S
C810 C806 1.385 . S
C810 C809 1.374 . S
C811 C808 1.499 . S
C811 C812 1.373 . S
C811 C813 1.389 . S
C812 H785 0.950 . S
C812 C798 1.377 1_655 S
C812 C811 1.373 . S
C813 C797 1.377 1_655 S
C813 C811 1.389 . S
C813 C814 1.524 . S
C814 C813 1.524 . S
C814 C815 1.397 . S
C814 C819 1.363 . S
C815 H786 0.950 . S
C815 C814 1.397 . S
C815 C816 1.334 . S
C816 H787 0.950 . S
C816 C815 1.334 . S
C816 C817 1.287 . S
C817 C816 1.287 . S
C817 C818 1.524 . S
C817 H820 0.999 . S
C818 H788 0.950 . S
C818 C817 1.524 . S
C818 C819 1.415 . S
C819 H789 0.950 . S
C819 C814 1.363 . S
C819 C818 1.415 . S
H820 C817 0.999 . S
H821 C802 0.913 . S
H822 C840 0.951 . S
H823 C842 0.951 . S
H824 C844 0.950 . S
H825 C845 0.950 . S
H826 C847 0.950 . S
H827 C850 0.950 . S
H828 C851 0.950 . S
H829 C853 0.950 . S
H830 C854 0.950 . S
H831 C855 0.951 . S
H832 C857 0.951 . S
H833 C859 0.950 . S
H834 C860 0.950 . S
H835 C862 0.950 . S
H836 C865 0.950 . S
H837 C866 0.950 . S
H838 C868 0.950 . S
H839 C869 0.950 . S
C840 H822 0.951 . S
C840 C841 1.366 . S
C840 C842 1.388 . S
C841 C840 1.366 . S
C841 C845 1.385 . S
C842 H823 0.951 . S
C842 C840 1.388 . S
C842 C843 1.366 . S
C843 C842 1.366 . S
C843 C844 1.414 . S
C843 C846 1.499 . S
C844 H824 0.950 . S
C844 C843 1.414 . S
C844 C845 1.374 . S
C845 H825 0.950 . S
C845 C841 1.385 . S
C845 C844 1.374 . S
C846 C843 1.499 . S
C846 C847 1.373 . S
C846 C848 1.389 . S
C847 H826 0.950 . S
C847 C846 1.373 . S
C847 C863 1.377 . S
C848 C846 1.389 . S
C848 C849 1.524 . S
C848 C862 1.377 . S
C849 C848 1.524 . S
C849 C850 1.397 . S
C849 C854 1.363 . S
C850 H827 0.950 . S
C850 C849 1.397 . S
C850 C851 1.334 . S
C851 H828 0.950 . S
C851 C850 1.334 . S
C851 C852 1.287 . S
C852 C851 1.287 . S
C852 C853 1.524 . S
C852 H871 0.913 . S
C853 H829 0.950 . S
C853 C852 1.524 . S
C853 C854 1.415 . S
C854 H830 0.950 . S
C854 C849 1.363 . S
C854 C853 1.415 . S
C855 H831 0.951 . S
C855 C856 1.366 . S
C855 C857 1.388 . S
C856 C855 1.366 . S
C856 C860 1.385 . S
C857 H832 0.951 . S
C857 C855 1.388 . S
C857 C858 1.366 . S
C858 C857 1.366 . S
C858 C859 1.414 . S
C858 C861 1.499 . S
C859 H833 0.950 . S
C859 C858 1.414 . S
C859 C860 1.374 . S
C860 H834 0.950 . S
C860 C856 1.385 . S
C860 C859 1.374 . S
C861 C858 1.499 . S
C861 C862 1.373 . S
C861 C863 1.389 . S
C862 H835 0.950 . S
C862 C848 1.377 . S
C862 C861 1.373 . S
C863 C847 1.377 . S
C863 C861 1.389 . S
C863 C864 1.524 . S
C864 C863 1.524 . S
C864 C865 1.397 . S
C864 C869 1.363 . S
C865 H836 0.950 . S
C865 C864 1.397 . S
C865 C866 1.334 . S
C866 H837 0.950 . S
C866 C865 1.334 . S
C866 C867 1.287 . S
C867 C866 1.287 . S
C867 C868 1.524 . S
C867 H870 0.999 . S
C868 H838 0.950 . S
C868 C867 1.524 . S
C868 C869 1.415 . S
C869 H839 0.950 . S
C869 C864 1.363 . S
C869 C868 1.415 . S
H870 C867 0.999 . S
H871 C852 0.913 . S
H872 C890 0.951 . S
H873 C892 0.951 . S
H874 C894 0.950 . S
H875 C895 0.950 . S
H876 C897 0.950 . S
H877 C900 0.950 . S
H878 C901 0.950 . S
H879 C903 0.950 . S
H880 C904 0.950 . S
H881 C905 0.951 . S
H882 C907 0.951 . S
H883 C909 0.950 . S
H884 C910 0.950 . S
H885 C912 0.950 . S
H886 C915 0.950 . S
H887 C916 0.950 . S
H888 C918 0.950 . S
H889 C919 0.950 . S
C890 H872 0.951 . S
C890 C891 1.366 . S
C890 C892 1.388 . S
C891 C890 1.366 . S
C891 C895 1.385 . S
C892 H873 0.951 . S
C892 C890 1.388 . S
C892 C893 1.366 . S
C893 C892 1.366 . S
C893 C894 1.414 . S
C893 C896 1.499 . S
C894 H874 0.950 . S
C894 C893 1.414 . S
C894 C895 1.374 . S
C895 H875 0.950 . S
C895 C891 1.385 . S
C895 C894 1.374 . S
C896 C893 1.499 . S
C896 C897 1.373 . S
C896 C898 1.389 . S
C897 H876 0.950 . S
C897 C896 1.373 . S
C897 C913 1.377 1_655 S
C898 C896 1.389 . S
C898 C899 1.524 . S
C898 C912 1.377 1_655 S
C899 C898 1.524 . S
C899 C900 1.397 . S
C899 C904 1.363 . S
C900 H877 0.950 . S
C900 C899 1.397 . S
C900 C901 1.334 . S
C901 H878 0.950 . S
C901 C900 1.334 . S
C901 C902 1.287 . S
C902 C901 1.287 . S
C902 C903 1.524 . S
C902 H921 0.913 . S
C903 H879 0.950 . S
C903 C902 1.524 . S
C903 C904 1.415 . S
C904 H880 0.950 . S
C904 C899 1.363 . S
C904 C903 1.415 . S
C905 H881 0.951 . S
C905 C906 1.366 . S
C905 C907 1.388 . S
C906 C905 1.366 . S
C906 C910 1.385 . S
C907 H882 0.951 . S
C907 C905 1.388 . S
C907 C908 1.366 . S
C908 C907 1.366 . S
C908 C909 1.414 . S
C908 C911 1.499 . S
C909 H883 0.950 . S
C909 C908 1.414 . S
C909 C910 1.374 . S
C910 H884 0.950 . S
C910 C906 1.385 . S
C910 C909 1.374 . S
C911 C908 1.499 . S
C911 C912 1.373 . S
C911 C913 1.389 . S
C912 H885 0.950 . S
C912 C898 1.377 1_455 S
C912 C911 1.373 . S
C913 C897 1.377 1_455 S
C913 C911 1.389 . S
C913 C914 1.524 . S
C914 C913 1.524 . S
C914 C915 1.397 . S
C914 C919 1.363 . S
C915 H886 0.950 . S
C915 C914 1.397 . S
C915 C916 1.334 . S
C916 H887 0.950 . S
C916 C915 1.334 . S
C916 C917 1.287 . S
C917 C916 1.287 . S
C917 C918 1.524 . S
C917 H920 0.999 . S
C918 H888 0.950 . S
C918 C917 1.524 . S
C918 C919 1.415 . S
C919 H889 0.950 . S
C919 C914 1.363 . S
C919 C918 1.415 . S
H920 C917 0.999 . S
H921 C902 0.913 . S
H922 C940 0.951 . S
H923 C942 0.951 . S
H924 C944 0.950 . S
H925 C945 0.950 . S
H926 C947 0.950 . S
H927 C950 0.950 . S
H928 C951 0.950 . S
H929 C953 0.950 . S
H930 C954 0.950 . S
H931 C955 0.951 . S
H932 C957 0.951 . S
H933 C959 0.950 . S
H934 C960 0.950 . S
H935 C962 0.950 . S
H936 C965 0.950 . S
H937 C966 0.950 . S
H938 C968 0.950 . S
H939 C969 0.950 . S
C940 H922 0.951 . S
C940 C941 1.366 . S
C940 C942 1.388 . S
C941 C940 1.366 . S
C941 C945 1.385 . S
C942 H923 0.951 . S
C942 C940 1.388 . S
C942 C943 1.366 . S
C943 C942 1.366 . S
C943 C944 1.414 . S
C943 C946 1.499 . S
C944 H924 0.950 . S
C944 C943 1.414 . S
C944 C945 1.374 . S
C945 H925 0.950 . S
C945 C941 1.385 . S
C945 C944 1.374 . S
C946 C943 1.499 . S
C946 C947 1.373 . S
C946 C948 1.389 . S
C947 H926 0.950 . S
C947 C946 1.373 . S
C947 C963 1.377 . S
C948 C946 1.389 . S
C948 C949 1.524 . S
C948 C962 1.377 . S
C949 C948 1.524 . S
C949 C950 1.397 . S
C949 C954 1.363 . S
C950 H927 0.950 . S
C950 C949 1.397 . S
C950 C951 1.334 . S
C951 H928 0.950 . S
C951 C950 1.334 . S
C951 C952 1.287 . S
C952 C951 1.287 . S
C952 C953 1.524 . S
C952 H971 0.913 . S
C953 H929 0.950 . S
C953 C952 1.524 . S
C953 C954 1.415 . S
C954 H930 0.950 . S
C954 C949 1.363 . S
C954 C953 1.415 . S
C955 H931 0.951 . S
C955 C956 1.366 . S
C955 C957 1.388 . S
C956 C955 1.366 . S
C956 C960 1.385 . S
C957 H932 0.951 . S
C957 C955 1.388 . S
C957 C958 1.366 . S
C958 C957 1.366 . S
C958 C959 1.414 . S
C958 C961 1.499 . S
C959 H933 0.950 . S
C959 C958 1.414 . S
C959 C960 1.374 . S
C960 H934 0.950 . S
C960 C956 1.385 . S
C960 C959 1.374 . S
C961 C958 1.499 . S
C961 C962 1.373 . S
C961 C963 1.389 . S
C962 H935 0.950 . S
C962 C948 1.377 . S
C962 C961 1.373 . S
C963 C947 1.377 . S
C963 C961 1.389 . S
C963 C964 1.524 . S
C964 C963 1.524 . S
C964 C965 1.397 . S
C964 C969 1.363 . S
C965 H936 0.950 . S
C965 C964 1.397 . S
C965 C966 1.334 . S
C966 H937 0.950 . S
C966 C965 1.334 . S
C966 C967 1.287 . S
C967 C966 1.287 . S
C967 C968 1.524 . S
C967 H970 0.999 . S
C968 H938 0.950 . S
C968 C967 1.524 . S
C968 C969 1.415 . S
C969 H939 0.950 . S
C969 C964 1.363 . S
C969 C968 1.415 . S
H970 C967 0.999 . S
H971 C952 0.913 . S
H972 C990 0.951 . S
H973 C992 0.951 . S
H974 C994 0.950 . S
H975 C995 0.950 . S
H976 C997 0.950 . S
H977 C1000 0.950 . S
H978 C1001 0.950 . S
H979 C1003 0.950 . S
H980 C1004 0.950 . S
H981 C1005 0.951 . S
H982 C1007 0.951 . S
H983 C1009 0.950 . S
H984 C1010 0.950 . S
H985 C1012 0.950 . S
H986 C1015 0.950 . S
H987 C1016 0.950 . S
H988 C1018 0.950 . S
H989 C1019 0.950 . S
C990 H972 0.951 . S
C990 C991 1.366 . S
C990 C992 1.388 . S
C991 C990 1.366 . S
C991 C995 1.385 . S
C992 H973 0.951 . S
C992 C990 1.388 . S
C992 C993 1.366 . S
C993 C992 1.366 . S
C993 C994 1.414 . S
C993 C996 1.499 . S
C994 H974 0.950 . S
C994 C993 1.414 . S
C994 C995 1.374 . S
C995 H975 0.950 . S
C995 C991 1.385 . S
C995 C994 1.374 . S
C996 C993 1.499 . S
C996 C997 1.373 . S
C996 C998 1.389 . S
C997 H976 0.950 . S
C997 C996 1.373 . S
C997 C1013 1.377 1_455 S
C998 C996 1.389 . S
C998 C999 1.524 . S
C998 C1012 1.377 1_455 S
C999 C998 1.524 . S
C999 C1000 1.397 . S
C999 C1004 1.363 . S
C1000 H977 0.950 . S
C1000 C999 1.397 . S
C1000 C1001 1.334 . S
C1001 H978 0.950 . S
C1001 C1000 1.334 . S
C1001 C1002 1.287 . S
C1002 C1001 1.287 . S
C1002 C1003 1.524 . S
C1002 H1021 0.913 . S
C1003 H979 0.950 . S
C1003 C1002 1.524 . S
C1003 C1004 1.415 . S
C1004 H980 0.950 . S
C1004 C999 1.363 . S
C1004 C1003 1.415 . S
C1005 H981 0.951 . S
C1005 C1006 1.366 . S
C1005 C1007 1.388 . S
C1006 C1005 1.366 . S
C1006 C1010 1.385 . S
C1007 H982 0.951 . S
C1007 C1005 1.388 . S
C1007 C1008 1.366 . S
C1008 C1007 1.366 . S
C1008 C1009 1.414 . S
C1008 C1011 1.499 . S
C1009 H983 0.950 . S
C1009 C1008 1.414 . S
C1009 C1010 1.374 . S
C1010 H984 0.950 . S
C1010 C1006 1.385 . S
C1010 C1009 1.374 . S
C1011 C1008 1.499 . S
C1011 C1012 1.373 . S
C1011 C1013 1.389 . S
C1012 H985 0.950 . S
C1012 C998 1.377 1_655 S
C1012 C1011 1.373 . S
C1013 C997 1.377 1_655 S
C1013 C1011 1.389 . S
C1013 C1014 1.524 . S
C1014 C1013 1.524 . S
C1014 C1015 1.397 . S
C1014 C1019 1.363 . S
C1015 H986 0.950 . S
C1015 C1014 1.397 . S
C1015 C1016 1.334 . S
C1016 H987 0.950 . S
C1016 C1015 1.334 . S
C1016 C1017 1.287 . S
C1017 C1016 1.287 . S
C1017 C1018 1.524 . S
C1017 H1020 0.999 . S
C1018 H988 0.950 . S
C1018 C1017 1.524 . S
C1018 C1019 1.415 . S
C1019 H989 0.950 . S
C1019 C1014 1.363 . S
C1019 C1018 1.415 . S
H1020 C1017 0.999 . S
H1021 C1002 0.913 . S
H1022 C1040 0.951 . S
H1023 C1042 0.951 . S
H1024 C1044 0.950 . S
H1025 C1045 0.950 . S
H1026 C1047 0.950 . S
H1027 C1050 0.950 . S
H1028 C1051 0.950 . S
H1029 C1053 0.950 . S
H1030 C1054 0.950 . S
H1031 C1055 0.951 . S
H1032 C1057 0.951 . S
H1033 C1059 0.950 . S
H1034 C1060 0.950 . S
H1035 C1062 0.950 . S
H1036 C1065 0.950 . S
H1037 C1066 0.950 . S
H1038 C1068 0.950 . S
H1039 C1069 0.950 . S
C1040 H1022 0.951 . S
C1040 C1041 1.366 . S
C1040 C1042 1.388 . S
C1041 C1040 1.366 . S
C1041 C1045 1.385 . S
C1042 H1023 0.951 . S
C1042 C1040 1.388 . S
C1042 C1043 1.366 . S
C1043 C1042 1.366 . S
C1043 C1044 1.414 . S
C1043 C1046 1.499 . S
C1044 H1024 0.950 . S
C1044 C1043 1.414 . S
C1044 C1045 1.374 . S
C1045 H1025 0.950 . S
C1045 C1041 1.385 . S
C1045 C1044 1.374 . S
C1046 C1043 1.499 . S
C1046 C1047 1.373 . S
C1046 C1048 1.389 . S
C1047 H1026 0.950 . S
C1047 C1046 1.373 . S
C1047 C1063 1.377 . S
C1048 C1046 1.389 . S
C1048 C1049 1.524 . S
C1048 C1062 1.377 . S
C1049 C1048 1.524 . S
C1049 C1050 1.397 . S
C1049 C1054 1.363 . S
C1050 H1027 0.950 . S
C1050 C1049 1.397 . S
C1050 C1051 1.334 . S
C1051 H1028 0.950 . S
C1051 C1050 1.334 . S
C1051 C1052 1.287 . S
C1052 C1051 1.287 . S
C1052 C1053 1.524 . S
C1052 H1071 0.913 . S
C1053 H1029 0.950 . S
C1053 C1052 1.524 . S
C1053 C1054 1.415 . S
C1054 H1030 0.950 . S
C1054 C1049 1.363 . S
C1054 C1053 1.415 . S
C1055 H1031 0.951 . S
C1055 C1056 1.366 . S
C1055 C1057 1.388 . S
C1056 C1055 1.366 . S
C1056 C1060 1.385 . S
C1057 H1032 0.951 . S
C1057 C1055 1.388 . S
C1057 C1058 1.366 . S
C1058 C1057 1.366 . S
C1058 C1059 1.414 . S
C1058 C1061 1.499 . S
C1059 H1033 0.950 . S
C1059 C1058 1.414 . S
C1059 C1060 1.374 . S
C1060 H1034 0.950 . S
C1060 C1056 1.385 . S
C1060 C1059 1.374 . S
C1061 C1058 1.499 . S
C1061 C1062 1.373 . S
C1061 C1063 1.389 . S
C1062 H1035 0.950 . S
C1062 C1048 1.377 . S
C1062 C1061 1.373 . S
C1063 C1047 1.377 . S
C1063 C1061 1.389 . S
C1063 C1064 1.524 . S
C1064 C1063 1.524 . S
C1064 C1065 1.397 . S
C1064 C1069 1.363 . S
C1065 H1036 0.950 . S
C1065 C1064 1.397 . S
C1065 C1066 1.334 . S
C1066 H1037 0.950 . S
C1066 C1065 1.334 . S
C1066 C1067 1.287 . S
C1067 C1066 1.287 . S
C1067 C1068 1.524 . S
C1067 H1070 0.999 . S
C1068 H1038 0.950 . S
C1068 C1067 1.524 . S
C1068 C1069 1.415 . S
C1069 H1039 0.950 . S
C1069 C1064 1.363 . S
C1069 C1068 1.415 . S
H1070 C1067 0.999 . S
H1071 C1052 0.913 . S
H1072 C1090 0.951 . S
H1073 C1092 0.951 . S
H1074 C1094 0.950 . S
H1075 C1095 0.950 . S
H1076 C1097 0.950 . S
H1077 C1100 0.950 . S
H1078 C1101 0.950 . S
H1079 C1103 0.950 . S
H1080 C1104 0.950 . S
H1081 C1105 0.951 . S
H1082 C1107 0.951 . S
H1083 C1109 0.950 . S
H1084 C1110 0.950 . S
H1085 C1112 0.950 . S
H1086 C1115 0.950 . S
H1087 C1116 0.950 . S
H1088 C1118 0.950 . S
H1089 C1119 0.950 . S
C1090 H1072 0.951 . S
C1090 C1091 1.366 . S
C1090 C1092 1.388 . S
C1091 C1090 1.366 . S
C1091 C1095 1.385 . S
C1092 H1073 0.951 . S
C1092 C1090 1.388 . S
C1092 C1093 1.366 . S
C1093 C1092 1.366 . S
C1093 C1094 1.414 . S
C1093 C1096 1.499 . S
C1094 H1074 0.950 . S
C1094 C1093 1.414 . S
C1094 C1095 1.374 . S
C1095 H1075 0.950 . S
C1095 C1091 1.385 . S
C1095 C1094 1.374 . S
C1096 C1093 1.499 . S
C1096 C1097 1.373 . S
C1096 C1098 1.389 . S
C1097 H1076 0.950 . S
C1097 C1096 1.373 . S
C1097 C1113 1.377 1_565 S
C1098 C1096 1.389 . S
C1098 C1099 1.524 . S
C1098 C1112 1.377 1_565 S
C1099 C1098 1.524 . S
C1099 C1100 1.397 . S
C1099 C1104 1.363 . S
C1100 H1077 0.950 . S
C1100 C1099 1.397 . S
C1100 C1101 1.334 . S
C1101 H1078 0.950 . S
C1101 C1100 1.334 . S
C1101 C1102 1.287 . S
C1102 C1101 1.287 . S
C1102 C1103 1.524 . S
C1102 H1121 0.913 . S
C1103 H1079 0.950 . S
C1103 C1102 1.524 . S
C1103 C1104 1.415 . S
C1104 H1080 0.950 . S
C1104 C1099 1.363 . S
C1104 C1103 1.415 . S
C1105 H1081 0.951 . S
C1105 C1106 1.366 . S
C1105 C1107 1.388 . S
C1106 C1105 1.366 . S
C1106 C1110 1.385 . S
C1107 H1082 0.951 . S
C1107 C1105 1.388 . S
C1107 C1108 1.366 . S
C1108 C1107 1.366 . S
C1108 C1109 1.414 . S
C1108 C1111 1.499 . S
C1109 H1083 0.950 . S
C1109 C1108 1.414 . S
C1109 C1110 1.374 . S
C1110 H1084 0.950 . S
C1110 C1106 1.385 . S
C1110 C1109 1.374 . S
C1111 C1108 1.499 . S
C1111 C1112 1.373 . S
C1111 C1113 1.389 . S
C1112 H1085 0.950 . S
C1112 C1098 1.377 1_545 S
C1112 C1111 1.373 . S
C1113 C1097 1.377 1_545 S
C1113 C1111 1.389 . S
C1113 C1114 1.524 . S
C1114 C1113 1.524 . S
C1114 C1115 1.397 . S
C1114 C1119 1.363 . S
C1115 H1086 0.950 . S
C1115 C1114 1.397 . S
C1115 C1116 1.334 . S
C1116 H1087 0.950 . S
C1116 C1115 1.334 . S
C1116 C1117 1.287 . S
C1117 C1116 1.287 . S
C1117 C1118 1.524 . S
C1117 H1120 0.999 . S
C1118 H1088 0.950 . S
C1118 C1117 1.524 . S
C1118 C1119 1.415 . S
C1119 H1089 0.950 . S
C1119 C1114 1.363 . S
C1119 C1118 1.415 . S
H1120 C1117 0.999 . S
H1121 C1102 0.913 . S
H1122 C1140 0.951 . S
H1123 C1142 0.951 . S
H1124 C1144 0.950 . S
H1125 C1145 0.950 . S
H1126 C1147 0.950 . S
H1127 C1150 0.950 . S
H1128 C1151 0.950 . S
H1129 C1153 0.950 . S
H1130 C1154 0.950 . S
H1131 C1155 0.951 . S
H1132 C1157 0.951 . S
H1133 C1159 0.950 . S
H1134 C1160 0.950 . S
H1135 C1162 0.950 . S
H1136 C1165 0.950 . S
H1137 C1166 0.950 . S
H1138 C1168 0.950 . S
H1139 C1169 0.950 . S
C1140 H1122 0.951 . S
C1140 C1141 1.366 . S
C1140 C1142 1.388 . S
C1141 C1140 1.366 . S
C1141 C1145 1.385 . S
C1142 H1123 0.951 . S
C1142 C1140 1.388 . S
C1142 C1143 1.366 . S
C1143 C1142 1.366 . S
C1143 C1144 1.414 . S
C1143 C1146 1.499 . S
C1144 H1124 0.950 . S
C1144 C1143 1.414 . S
C1144 C1145 1.374 . S
C1145 H1125 0.950 . S
C1145 C1141 1.385 . S
C1145 C1144 1.374 . S
C1146 C1143 1.499 . S
C1146 C1147 1.373 . S
C1146 C1148 1.389 . S
C1147 H1126 0.950 . S
C1147 C1146 1.373 . S
C1147 C1163 1.377 . S
C1148 C1146 1.389 . S
C1148 C1149 1.524 . S
C1148 C1162 1.377 . S
C1149 C1148 1.524 . S
C1149 C1150 1.397 . S
C1149 C1154 1.363 . S
C1150 H1127 0.950 . S
C1150 C1149 1.397 . S
C1150 C1151 1.334 . S
C1151 H1128 0.950 . S
C1151 C1150 1.334 . S
C1151 C1152 1.287 . S
C1152 C1151 1.287 . S
C1152 C1153 1.524 . S
C1152 H1171 0.913 . S
C1153 H1129 0.950 . S
C1153 C1152 1.524 . S
C1153 C1154 1.415 . S
C1154 H1130 0.950 . S
C1154 C1149 1.363 . S
C1154 C1153 1.415 . S
C1155 H1131 0.951 . S
C1155 C1156 1.366 . S
C1155 C1157 1.388 . S
C1156 C1155 1.366 . S
C1156 C1160 1.385 . S
C1157 H1132 0.951 . S
C1157 C1155 1.388 . S
C1157 C1158 1.366 . S
C1158 C1157 1.366 . S
C1158 C1159 1.414 . S
C1158 C1161 1.499 . S
C1159 H1133 0.950 . S
C1159 C1158 1.414 . S
C1159 C1160 1.374 . S
C1160 H1134 0.950 . S
C1160 C1156 1.385 . S
C1160 C1159 1.374 . S
C1161 C1158 1.499 . S
C1161 C1162 1.373 . S
C1161 C1163 1.389 . S
C1162 H1135 0.950 . S
C1162 C1148 1.377 . S
C1162 C1161 1.373 . S
C1163 C1147 1.377 . S
C1163 C1161 1.389 . S
C1163 C1164 1.524 . S
C1164 C1163 1.524 . S
C1164 C1165 1.397 . S
C1164 C1169 1.363 . S
C1165 H1136 0.950 . S
C1165 C1164 1.397 . S
C1165 C1166 1.334 . S
C1166 H1137 0.950 . S
C1166 C1165 1.334 . S
C1166 C1167 1.287 . S
C1167 C1166 1.287 . S
C1167 C1168 1.524 . S
C1167 H1170 0.999 . S
C1168 H1138 0.950 . S
C1168 C1167 1.524 . S
C1168 C1169 1.415 . S
C1169 H1139 0.950 . S
C1169 C1164 1.363 . S
C1169 C1168 1.415 . S
H1170 C1167 0.999 . S
H1171 C1152 0.913 . S
H1172 C1190 0.951 . S
H1173 C1192 0.951 . S
H1174 C1194 0.950 . S
H1175 C1195 0.950 . S
H1176 C1197 0.950 . S
H1177 C1200 0.950 . S
H1178 C1201 0.950 . S
H1179 C1203 0.950 . S
H1180 C1204 0.950 . S
H1181 C1205 0.951 . S
H1182 C1207 0.951 . S
H1183 C1209 0.950 . S
H1184 C1210 0.950 . S
H1185 C1212 0.950 . S
H1186 C1215 0.950 . S
H1187 C1216 0.950 . S
H1188 C1218 0.950 . S
H1189 C1219 0.950 . S
C1190 H1172 0.951 . S
C1190 C1191 1.366 . S
C1190 C1192 1.388 . S
C1191 C1190 1.366 . S
C1191 C1195 1.385 . S
C1192 H1173 0.951 . S
C1192 C1190 1.388 . S
C1192 C1193 1.366 . S
C1193 C1192 1.366 . S
C1193 C1194 1.414 . S
C1193 C1196 1.499 . S
C1194 H1174 0.950 . S
C1194 C1193 1.414 . S
C1194 C1195 1.374 . S
C1195 H1175 0.950 . S
C1195 C1191 1.385 . S
C1195 C1194 1.374 . S
C1196 C1193 1.499 . S
C1196 C1197 1.373 . S
C1196 C1198 1.389 . S
C1197 H1176 0.950 . S
C1197 C1196 1.373 . S
C1197 C1213 1.377 1_545 S
C1198 C1196 1.389 . S
C1198 C1199 1.524 . S
C1198 C1212 1.377 1_545 S
C1199 C1198 1.524 . S
C1199 C1200 1.397 . S
C1199 C1204 1.363 . S
C1200 H1177 0.950 . S
C1200 C1199 1.397 . S
C1200 C1201 1.334 . S
C1201 H1178 0.950 . S
C1201 C1200 1.334 . S
C1201 C1202 1.287 . S
C1202 C1201 1.287 . S
C1202 C1203 1.524 . S
C1202 H1221 0.913 . S
C1203 H1179 0.950 . S
C1203 C1202 1.524 . S
C1203 C1204 1.415 . S
C1204 H1180 0.950 . S
C1204 C1199 1.363 . S
C1204 C1203 1.415 . S
C1205 H1181 0.951 . S
C1205 C1206 1.366 . S
C1205 C1207 1.388 . S
C1206 C1205 1.366 . S
C1206 C1210 1.385 . S
C1207 H1182 0.951 . S
C1207 C1205 1.388 . S
C1207 C1208 1.366 . S
C1208 C1207 1.366 . S
C1208 C1209 1.414 . S
C1208 C1211 1.499 . S
C1209 H1183 0.950 . S
C1209 C1208 1.414 . S
C1209 C1210 1.374 . S
C1210 H1184 0.950 . S
C1210 C1206 1.385 . S
C1210 C1209 1.374 . S
C1211 C1208 1.499 . S
C1211 C1212 1.373 . S
C1211 C1213 1.389 . S
C1212 H1185 0.950 . S
C1212 C1198 1.377 1_565 S
C1212 C1211 1.373 . S
C1213 C1197 1.377 1_565 S
C1213 C1211 1.389 . S
C1213 C1214 1.524 . S
C1214 C1213 1.524 . S
C1214 C1215 1.397 . S
C1214 C1219 1.363 . S
C1215 H1186 0.950 . S
C1215 C1214 1.397 . S
C1215 C1216 1.334 . S
C1216 H1187 0.950 . S
C1216 C1215 1.334 . S
C1216 C1217 1.287 . S
C1217 C1216 1.287 . S
C1217 C1218 1.524 . S
C1217 H1220 0.999 . S
C1218 H1188 0.950 . S
C1218 C1217 1.524 . S
C1218 C1219 1.415 . S
C1219 H1189 0.950 . S
C1219 C1214 1.363 . S
C1219 C1218 1.415 . S
H1220 C1217 0.999 . S
H1221 C1202 0.913 . S
H1222 C1240 0.951 . S
H1223 C1242 0.951 . S
H1224 C1244 0.950 . S
H1225 C1245 0.950 . S
H1226 C1247 0.950 . S
H1227 C1250 0.950 . S
H1228 C1251 0.950 . S
H1229 C1253 0.950 . S
H1230 C1254 0.950 . S
H1231 C1255 0.951 . S
H1232 C1257 0.951 . S
H1233 C1259 0.950 . S
H1234 C1260 0.950 . S
H1235 C1262 0.950 . S
H1236 C1265 0.950 . S
H1237 C1266 0.950 . S
H1238 C1268 0.950 . S
H1239 C1269 0.950 . S
C1240 H1222 0.951 . S
C1240 C1241 1.366 . S
C1240 C1242 1.388 . S
C1241 C1240 1.366 . S
C1241 C1245 1.385 . S
C1242 H1223 0.951 . S
C1242 C1240 1.388 . S
C1242 C1243 1.366 . S
C1243 C1242 1.366 . S
C1243 C1244 1.414 . S
C1243 C1246 1.499 . S
C1244 H1224 0.950 . S
C1244 C1243 1.414 . S
C1244 C1245 1.374 . S
C1245 H1225 0.950 . S
C1245 C1241 1.385 . S
C1245 C1244 1.374 . S
C1246 C1243 1.499 . S
C1246 C1247 1.373 . S
C1246 C1248 1.389 . S
C1247 H1226 0.950 . S
C1247 C1246 1.373 . S
C1247 C1263 1.377 . S
C1248 C1246 1.389 . S
C1248 C1249 1.524 . S
C1248 C1262 1.377 . S
C1249 C1248 1.524 . S
C1249 C1250 1.397 . S
C1249 C1254 1.363 . S
C1250 H1227 0.950 . S
C1250 C1249 1.397 . S
C1250 C1251 1.334 . S
C1251 H1228 0.950 . S
C1251 C1250 1.334 . S
C1251 C1252 1.287 . S
C1252 C1251 1.287 . S
C1252 C1253 1.524 . S
C1252 H1271 0.913 . S
C1253 H1229 0.950 . S
C1253 C1252 1.524 . S
C1253 C1254 1.415 . S
C1254 H1230 0.950 . S
C1254 C1249 1.363 . S
C1254 C1253 1.415 . S
C1255 H1231 0.951 . S
C1255 C1256 1.366 . S
C1255 C1257 1.388 . S
C1256 C1255 1.366 . S
C1256 C1260 1.385 . S
C1257 H1232 0.951 . S
C1257 C1255 1.388 . S
C1257 C1258 1.366 . S
C1258 C1257 1.366 . S
C1258 C1259 1.414 . S
C1258 C1261 1.499 . S
C1259 H1233 0.950 . S
C1259 C1258 1.414 . S
C1259 C1260 1.374 . S
C1260 H1234 0.950 . S
C1260 C1256 1.385 . S
C1260 C1259 1.374 . S
C1261 C1258 1.499 . S
C1261 C1262 1.373 . S
C1261 C1263 1.389 . S
C1262 H1235 0.950 . S
C1262 C1248 1.377 . S
C1262 C1261 1.373 . S
C1263 C1247 1.377 . S
C1263 C1261 1.389 . S
C1263 C1264 1.524 . S
C1264 C1263 1.524 . S
C1264 C1265 1.397 . S
C1264 C1269 1.363 . S
C1265 H1236 0.950 . S
C1265 C1264 1.397 . S
C1265 C1266 1.334 . S
C1266 H1237 0.950 . S
C1266 C1265 1.334 . S
C1266 C1267 1.287 . S
C1267 C1266 1.287 . S
C1267 C1268 1.524 . S
C1267 H1270 0.999 . S
C1268 H1238 0.950 . S
C1268 C1267 1.524 . S
C1268 C1269 1.415 . S
C1269 H1239 0.950 . S
C1269 C1264 1.363 . S
C1269 C1268 1.415 . S
H1270 C1267 0.999 . S
H1271 C1252 0.913 . S
H1272 C1290 0.951 . S
H1273 C1292 0.951 . S
H1274 C1294 0.950 . S
H1275 C1295 0.950 . S
H1276 C1297 0.950 . S
H1277 C1300 0.950 . S
H1278 C1301 0.950 . S
H1279 C1303 0.950 . S
H1280 C1304 0.950 . S
H1281 C1305 0.951 . S
H1282 C1307 0.951 . S
H1283 C1309 0.950 . S
H1284 C1310 0.950 . S
H1285 C1312 0.950 . S
H1286 C1315 0.950 . S
H1287 C1316 0.950 . S
H1288 C1318 0.950 . S
H1289 C1319 0.950 . S
C1290 H1272 0.951 . S
C1290 C1291 1.366 . S
C1290 C1292 1.388 . S
C1291 C1290 1.366 . S
C1291 C1295 1.385 . S
C1292 H1273 0.951 . S
C1292 C1290 1.388 . S
C1292 C1293 1.366 . S
C1293 C1292 1.366 . S
C1293 C1294 1.414 . S
C1293 C1296 1.499 . S
C1294 H1274 0.950 . S
C1294 C1293 1.414 . S
C1294 C1295 1.374 . S
C1295 H1275 0.950 . S
C1295 C1291 1.385 . S
C1295 C1294 1.374 . S
C1296 C1293 1.499 . S
C1296 C1297 1.373 . S
C1296 C1298 1.389 . S
C1297 H1276 0.950 . S
C1297 C1296 1.373 . S
C1297 C1313 1.377 1_545 S
C1298 C1296 1.389 . S
C1298 C1299 1.524 . S
C1298 C1312 1.377 1_545 S
C1299 C1298 1.524 . S
C1299 C1300 1.397 . S
C1299 C1304 1.363 . S
C1300 H1277 0.950 . S
C1300 C1299 1.397 . S
C1300 C1301 1.334 . S
C1301 H1278 0.950 . S
C1301 C1300 1.334 . S
C1301 C1302 1.287 . S
C1302 C1301 1.287 . S
C1302 C1303 1.524 . S
C1302 H1321 0.913 . S
C1303 H1279 0.950 . S
C1303 C1302 1.524 . S
C1303 C1304 1.415 . S
C1304 H1280 0.950 . S
C1304 C1299 1.363 . S
C1304 C1303 1.415 . S
C1305 H1281 0.951 . S
C1305 C1306 1.366 . S
C1305 C1307 1.388 . S
C1306 C1305 1.366 . S
C1306 C1310 1.385 . S
C1307 H1282 0.951 . S
C1307 C1305 1.388 . S
C1307 C1308 1.366 . S
C1308 C1307 1.366 . S
C1308 C1309 1.414 . S
C1308 C1311 1.499 . S
C1309 H1283 0.950 . S
C1309 C1308 1.414 . S
C1309 C1310 1.374 . S
C1310 H1284 0.950 . S
C1310 C1306 1.385 . S
C1310 C1309 1.374 . S
C1311 C1308 1.499 . S
C1311 C1312 1.373 . S
C1311 C1313 1.389 . S
C1312 H1285 0.950 . S
C1312 C1298 1.377 1_565 S
C1312 C1311 1.373 . S
C1313 C1297 1.377 1_565 S
C1313 C1311 1.389 . S
C1313 C1314 1.524 . S
C1314 C1313 1.524 . S
C1314 C1315 1.397 . S
C1314 C1319 1.363 . S
C1315 H1286 0.950 . S
C1315 C1314 1.397 . S
C1315 C1316 1.334 . S
C1316 H1287 0.950 . S
C1316 C1315 1.334 . S
C1316 C1317 1.287 . S
C1317 C1316 1.287 . S
C1317 C1318 1.524 . S
C1317 H1320 0.999 . S
C1318 H1288 0.950 . S
C1318 C1317 1.524 . S
C1318 C1319 1.415 . S
C1319 H1289 0.950 . S
C1319 C1314 1.363 . S
C1319 C1318 1.415 . S
H1320 C1317 0.999 . S
H1321 C1302 0.913 . S
H1322 C1340 0.951 . S
H1323 C1342 0.951 . S
H1324 C1344 0.950 . S
H1325 C1345 0.950 . S
H1326 C1347 0.950 . S
H1327 C1350 0.950 . S
H1328 C1351 0.950 . S
H1329 C1353 0.950 . S
H1330 C1354 0.950 . S
H1331 C1355 0.951 . S
H1332 C1357 0.951 . S
H1333 C1359 0.950 . S
H1334 C1360 0.950 . S
H1335 C1362 0.950 . S
H1336 C1365 0.950 . S
H1337 C1366 0.950 . S
H1338 C1368 0.950 . S
H1339 C1369 0.950 . S
C1340 H1322 0.951 . S
C1340 C1341 1.366 . S
C1340 C1342 1.388 . S
C1341 C1340 1.366 . S
C1341 C1345 1.385 . S
C1342 H1323 0.951 . S
C1342 C1340 1.388 . S
C1342 C1343 1.366 . S
C1343 C1342 1.366 . S
C1343 C1344 1.414 . S
C1343 C1346 1.499 . S
C1344 H1324 0.950 . S
C1344 C1343 1.414 . S
C1344 C1345 1.374 . S
C1345 H1325 0.950 . S
C1345 C1341 1.385 . S
C1345 C1344 1.374 . S
C1346 C1343 1.499 . S
C1346 C1347 1.373 . S
C1346 C1348 1.389 . S
C1347 H1326 0.950 . S
C1347 C1346 1.373 . S
C1347 C1363 1.377 . S
C1348 C1346 1.389 . S
C1348 C1349 1.524 . S
C1348 C1362 1.377 . S
C1349 C1348 1.524 . S
C1349 C1350 1.397 . S
C1349 C1354 1.363 . S
C1350 H1327 0.950 . S
C1350 C1349 1.397 . S
C1350 C1351 1.334 . S
C1351 H1328 0.950 . S
C1351 C1350 1.334 . S
C1351 C1352 1.287 . S
C1352 C1351 1.287 . S
C1352 C1353 1.524 . S
C1352 H1371 0.913 . S
C1353 H1329 0.950 . S
C1353 C1352 1.524 . S
C1353 C1354 1.415 . S
C1354 H1330 0.950 . S
C1354 C1349 1.363 . S
C1354 C1353 1.415 . S
C1355 H1331 0.951 . S
C1355 C1356 1.366 . S
C1355 C1357 1.388 . S
C1356 C1355 1.366 . S
C1356 C1360 1.385 . S
C1357 H1332 0.951 . S
C1357 C1355 1.388 . S
C1357 C1358 1.366 . S
C1358 C1357 1.366 . S
C1358 C1359 1.414 . S
C1358 C1361 1.499 . S
C1359 H1333 0.950 . S
C1359 C1358 1.414 . S
C1359 C1360 1.374 . S
C1360 H1334 0.950 . S
C1360 C1356 1.385 . S
C1360 C1359 1.374 . S
C1361 C1358 1.499 . S
C1361 C1362 1.373 . S
C1361 C1363 1.389 . S
C1362 H1335 0.950 . S
C1362 C1348 1.377 . S
C1362 C1361 1.373 . S
C1363 C1347 1.377 . S
C1363 C1361 1.389 . S
C1363 C1364 1.524 . S
C1364 C1363 1.524 . S
C1364 C1365 1.397 . S
C1364 C1369 1.363 . S
C1365 H1336 0.950 . S
C1365 C1364 1.397 . S
C1365 C1366 1.334 . S
C1366 H1337 0.950 . S
C1366 C1365 1.334 . S
C1366 C1367 1.287 . S
C1367 C1366 1.287 . S
C1367 C1368 1.524 . S
C1367 H1370 0.999 . S
C1368 H1338 0.950 . S
C1368 C1367 1.524 . S
C1368 C1369 1.415 . S
C1369 H1339 0.950 . S
C1369 C1364 1.363 . S
C1369 C1368 1.415 . S
H1370 C1367 0.999 . S
H1371 C1352 0.913 . S
H1372 C1390 0.951 . S
H1373 C1392 0.951 . S
H1374 C1394 0.950 . S
H1375 C1395 0.950 . S
H1376 C1397 0.950 . S
H1377 C1400 0.950 . S
H1378 C1401 0.950 . S
H1379 C1403 0.950 . S
H1380 C1404 0.950 . S
H1381 C1405 0.951 . S
H1382 C1407 0.951 . S
H1383 C1409 0.950 . S
H1384 C1410 0.950 . S
H1385 C1412 0.950 . S
H1386 C1415 0.950 . S
H1387 C1416 0.950 . S
H1388 C1418 0.950 . S
H1389 C1419 0.950 . S
C1390 H1372 0.951 . S
C1390 C1391 1.366 . S
C1390 C1392 1.388 . S
C1391 C1390 1.366 . S
C1391 C1395 1.385 . S
C1392 H1373 0.951 . S
C1392 C1390 1.388 . S
C1392 C1393 1.366 . S
C1393 C1392 1.366 . S
C1393 C1394 1.414 . S
C1393 C1396 1.499 . S
C1394 H1374 0.950 . S
C1394 C1393 1.414 . S
C1394 C1395 1.374 . S
C1395 H1375 0.950 . S
C1395 C1391 1.385 . S
C1395 C1394 1.374 . S
C1396 C1393 1.499 . S
C1396 C1397 1.373 . S
C1396 C1398 1.389 . S
C1397 H1376 0.950 . S
C1397 C1396 1.373 . S
C1397 C1413 1.377 1_545 S
C1398 C1396 1.389 . S
C1398 C1399 1.524 . S
C1398 C1412 1.377 1_545 S
C1399 C1398 1.524 . S
C1399 C1400 1.397 . S
C1399 C1404 1.363 . S
C1400 H1377 0.950 . S
C1400 C1399 1.397 . S
C1400 C1401 1.334 . S
C1401 H1378 0.950 . S
C1401 C1400 1.334 . S
C1401 C1402 1.287 . S
C1402 C1401 1.287 . S
C1402 C1403 1.524 . S
C1402 H1421 0.913 . S
C1403 H1379 0.950 . S
C1403 C1402 1.524 . S
C1403 C1404 1.415 . S
C1404 H1380 0.950 . S
C1404 C1399 1.363 . S
C1404 C1403 1.415 . S
C1405 H1381 0.951 . S
C1405 C1406 1.366 . S
C1405 C1407 1.388 . S
C1406 C1405 1.366 . S
C1406 C1410 1.385 . S
C1407 H1382 0.951 . S
C1407 C1405 1.388 . S
C1407 C1408 1.366 . S
C1408 C1407 1.366 . S
C1408 C1409 1.414 . S
C1408 C1411 1.499 . S
C1409 H1383 0.950 . S
C1409 C1408 1.414 . S
C1409 C1410 1.374 . S
C1410 H1384 0.950 . S
C1410 C1406 1.385 . S
C1410 C1409 1.374 . S
C1411 C1408 1.499 . S
C1411 C1412 1.373 . S
C1411 C1413 1.389 . S
C1412 H1385 0.950 . S
C1412 C1398 1.377 1_565 S
C1412 C1411 1.373 . S
C1413 C1397 1.377 1_565 S
C1413 C1411 1.389 . S
C1413 C1414 1.524 . S
C1414 C1413 1.524 . S
C1414 C1415 1.397 . S
C1414 C1419 1.363 . S
C1415 H1386 0.950 . S
C1415 C1414 1.397 . S
C1415 C1416 1.334 . S
C1416 H1387 0.950 . S
C1416 C1415 1.334 . S
C1416 C1417 1.287 . S
C1417 C1416 1.287 . S
C1417 C1418 1.524 . S
C1417 H1420 0.999 . S
C1418 H1388 0.950 . S
C1418 C1417 1.524 . S
C1418 C1419 1.415 . S
C1419 H1389 0.950 . S
C1419 C1414 1.363 . S
C1419 C1418 1.415 . S
H1420 C1417 0.999 . S
H1421 C1402 0.913 . S
H1422 C1440 0.951 . S
H1423 C1442 0.951 . S
H1424 C1444 0.950 . S
H1425 C1445 0.950 . S
H1426 C1447 0.950 . S
H1427 C1450 0.950 . S
H1428 C1451 0.950 . S
H1429 C1453 0.950 . S
H1430 C1454 0.950 . S
H1431 C1455 0.951 . S
H1432 C1457 0.951 . S
H1433 C1459 0.950 . S
H1434 C1460 0.950 . S
H1435 C1462 0.950 . S
H1436 C1465 0.950 . S
H1437 C1466 0.950 . S
H1438 C1468 0.950 . S
H1439 C1469 0.950 . S
C1440 H1422 0.951 . S
C1440 C1441 1.366 . S
C1440 C1442 1.388 . S
C1441 C1440 1.366 . S
C1441 C1445 1.385 . S
C1442 H1423 0.951 . S
C1442 C1440 1.388 . S
C1442 C1443 1.366 . S
C1443 C1442 1.366 . S
C1443 C1444 1.414 . S
C1443 C1446 1.499 . S
C1444 H1424 0.950 . S
C1444 C1443 1.414 . S
C1444 C1445 1.374 . S
C1445 H1425 0.950 . S
C1445 C1441 1.385 . S
C1445 C1444 1.374 . S
C1446 C1443 1.499 . S
C1446 C1447 1.373 . S
C1446 C1448 1.389 . S
C1447 H1426 0.950 . S
C1447 C1446 1.373 . S
C1447 C1463 1.377 . S
C1448 C1446 1.389 . S
C1448 C1449 1.524 . S
C1448 C1462 1.377 . S
C1449 C1448 1.524 . S
C1449 C1450 1.397 . S
C1449 C1454 1.363 . S
C1450 H1427 0.950 . S
C1450 C1449 1.397 . S
C1450 C1451 1.334 . S
C1451 H1428 0.950 . S
C1451 C1450 1.334 . S
C1451 C1452 1.287 . S
C1452 C1451 1.287 . S
C1452 C1453 1.524 . S
C1452 H1471 0.913 . S
C1453 H1429 0.950 . S
C1453 C1452 1.524 . S
C1453 C1454 1.415 . S
C1454 H1430 0.950 . S
C1454 C1449 1.363 . S
C1454 C1453 1.415 . S
C1455 H1431 0.951 . S
C1455 C1456 1.366 . S
C1455 C1457 1.388 . S
C1456 C1455 1.366 . S
C1456 C1460 1.385 . S
C1457 H1432 0.951 . S
C1457 C1455 1.388 . S
C1457 C1458 1.366 . S
C1458 C1457 1.366 . S
C1458 C1459 1.414 . S
C1458 C1461 1.499 . S
C1459 H1433 0.950 . S
C1459 C1458 1.414 . S
C1459 C1460 1.374 . S
C1460 H1434 0.950 . S
C1460 C1456 1.385 . S
C1460 C1459 1.374 . S
C1461 C1458 1.499 . S
C1461 C1462 1.373 . S
C1461 C1463 1.389 . S
C1462 H1435 0.950 . S
C1462 C1448 1.377 . S
C1462 C1461 1.373 . S
C1463 C1447 1.377 . S
C1463 C1461 1.389 . S
C1463 C1464 1.524 . S
C1464 C1463 1.524 . S
C1464 C1465 1.397 . S
C1464 C1469 1.363 . S
C1465 H1436 0.950 . S
C1465 C1464 1.397 . S
C1465 C1466 1.334 . S
C1466 H1437 0.950 . S
C1466 C1465 1.334 . S
C1466 C1467 1.287 . S
C1467 C1466 1.287 . S
C1467 C1468 1.524 . S
C1467 H1470 0.999 . S
C1468 H1438 0.950 . S
C1468 C1467 1.524 . S
C1468 C1469 1.415 . S
C1469 H1439 0.950 . S
C1469 C1464 1.363 . S
C1469 C1468 1.415 . S
H1470 C1467 0.999 . S
H1471 C1452 0.913 . S
H1472 C1490 0.951 . S
H1473 C1492 0.951 . S
H1474 C1494 0.950 . S
H1475 C1495 0.950 . S
H1476 C1497 0.950 . S
H1477 C1500 0.950 . S
H1478 C1501 0.950 . S
H1479 C1503 0.950 . S
H1480 C1504 0.950 . S
H1481 C1505 0.951 . S
H1482 C1507 0.951 . S
H1483 C1509 0.950 . S
H1484 C1510 0.950 . S
H1485 C1512 0.950 . S
H1486 C1515 0.950 . S
H1487 C1516 0.950 . S
H1488 C1518 0.950 . S
H1489 C1519 0.950 . S
C1490 H1472 0.951 . S
C1490 C1491 1.366 . S
C1490 C1492 1.388 . S
C1491 C1490 1.366 . S
C1491 C1495 1.385 . S
C1492 H1473 0.951 . S
C1492 C1490 1.388 . S
C1492 C1493 1.366 . S
C1493 C1492 1.366 . S
C1493 C1494 1.414 . S
C1493 C1496 1.499 . S
C1494 H1474 0.950 . S
C1494 C1493 1.414 . S
C1494 C1495 1.374 . S
C1495 H1475 0.950 . S
C1495 C1491 1.385 . S
C1495 C1494 1.374 . S
C1496 C1493 1.499 . S
C1496 C1497 1.373 . S
C1496 C1498 1.389 . S
C1497 H1476 0.950 . S
C1497 C1496 1.373 . S
C1497 C1513 1.377 1_554 S
C1498 C1496 1.389 . S
C1498 C1499 1.524 . S
C1498 C1512 1.377 1_554 S
C1499 C1498 1.524 . S
C1499 C1500 1.397 . S
C1499 C1504 1.363 . S
C1500 H1477 0.950 . S
C1500 C1499 1.397 . S
C1500 C1501 1.334 . S
C1501 H1478 0.950 . S
C1501 C1500 1.334 . S
C1501 C1502 1.287 . S
C1502 C1501 1.287 . S
C1502 C1503 1.524 . S
C1502 H1521 0.913 . S
C1503 H1479 0.950 . S
C1503 C1502 1.524 . S
C1503 C1504 1.415 . S
C1504 H1480 0.950 . S
C1504 C1499 1.363 . S
C1504 C1503 1.415 . S
C1505 H1481 0.951 . S
C1505 C1506 1.366 . S
C1505 C1507 1.388 . S
C1506 C1505 1.366 . S
C1506 C1510 1.385 . S
C1507 H1482 0.951 . S
C1507 C1505 1.388 . S
C1507 C1508 1.366 . S
C1508 C1507 1.366 . S
C1508 C1509 1.414 . S
C1508 C1511 1.499 . S
C1509 H1483 0.950 . S
C1509 C1508 1.414 . S
C1509 C1510 1.374 . S
C1510 H1484 0.950 . S
C1510 C1506 1.385 . S
C1510 C1509 1.374 . S
C1511 C1508 1.499 . S
C1511 C1512 1.373 . S
C1511 C1513 1.389 . S
C1512 H1485 0.950 . S
C1512 C1498 1.377 1_556 S
C1512 C1511 1.373 . S
C1513 C1497 1.377 1_556 S
C1513 C1511 1.389 . S
C1513 C1514 1.524 . S
C1514 C1513 1.524 . S
C1514 C1515 1.397 . S
C1514 C1519 1.363 . S
C1515 H1486 0.950 . S
C1515 C1514 1.397 . S
C1515 C1516 1.334 . S
C1516 H1487 0.950 . S
C1516 C1515 1.334 . S
C1516 C1517 1.287 . S
C1517 C1516 1.287 . S
C1517 C1518 1.524 . S
C1517 H1520 0.999 . S
C1518 H1488 0.950 . S
C1518 C1517 1.524 . S
C1518 C1519 1.415 . S
C1519 H1489 0.950 . S
C1519 C1514 1.363 . S
C1519 C1518 1.415 . S
H1520 C1517 0.999 . S
H1521 C1502 0.913 . S
H1522 C1540 0.951 . S
H1523 C1542 0.951 . S
H1524 C1544 0.950 . S
H1525 C1545 0.950 . S
H1526 C1547 0.950 . S
H1527 C1550 0.950 . S
H1528 C1551 0.950 . S
H1529 C1553 0.950 . S
H1530 C1554 0.950 . S
H1531 C1555 0.951 . S
H1532 C1557 0.951 . S
H1533 C1559 0.950 . S
H1534 C1560 0.950 . S
H1535 C1562 0.950 . S
H1536 C1565 0.950 . S
H1537 C1566 0.950 . S
H1538 C1568 0.950 . S
H1539 C1569 0.950 . S
C1540 H1522 0.951 . S
C1540 C1541 1.366 . S
C1540 C1542 1.388 . S
C1541 C1540 1.366 . S
C1541 C1545 1.385 . S
C1542 H1523 0.951 . S
C1542 C1540 1.388 . S
C1542 C1543 1.366 . S
C1543 C1542 1.366 . S
C1543 C1544 1.414 . S
C1543 C1546 1.499 . S
C1544 H1524 0.950 . S
C1544 C1543 1.414 . S
C1544 C1545 1.374 . S
C1545 H1525 0.950 . S
C1545 C1541 1.385 . S
C1545 C1544 1.374 . S
C1546 C1543 1.499 . S
C1546 C1547 1.373 . S
C1546 C1548 1.389 . S
C1547 H1526 0.950 . S
C1547 C1546 1.373 . S
C1547 C1563 1.377 1_554 S
C1548 C1546 1.389 . S
C1548 C1549 1.524 . S
C1548 C1562 1.377 1_554 S
C1549 C1548 1.524 . S
C1549 C1550 1.397 . S
C1549 C1554 1.363 . S
C1550 H1527 0.950 . S
C1550 C1549 1.397 . S
C1550 C1551 1.334 . S
C1551 H1528 0.950 . S
C1551 C1550 1.334 . S
C1551 C1552 1.287 . S
C1552 C1551 1.287 . S
C1552 C1553 1.524 . S
C1552 H1571 0.913 . S
C1553 H1529 0.950 . S
C1553 C1552 1.524 . S
C1553 C1554 1.415 . S
C1554 H1530 0.950 . S
C1554 C1549 1.363 . S
C1554 C1553 1.415 . S
C1555 H1531 0.951 . S
C1555 C1556 1.366 . S
C1555 C1557 1.388 . S
C1556 C1555 1.366 . S
C1556 C1560 1.385 . S
C1557 H1532 0.951 . S
C1557 C1555 1.388 . S
C1557 C1558 1.366 . S
C1558 C1557 1.366 . S
C1558 C1559 1.414 . S
C1558 C1561 1.499 . S
C1559 H1533 0.950 . S
C1559 C1558 1.414 . S
C1559 C1560 1.374 . S
C1560 H1534 0.950 . S
C1560 C1556 1.385 . S
C1560 C1559 1.374 . S
C1561 C1558 1.499 . S
C1561 C1562 1.373 . S
C1561 C1563 1.389 . S
C1562 H1535 0.950 . S
C1562 C1548 1.377 1_556 S
C1562 C1561 1.373 . S
C1563 C1547 1.377 1_556 S
C1563 C1561 1.389 . S
C1563 C1564 1.524 . S
C1564 C1563 1.524 . S
C1564 C1565 1.397 . S
C1564 C1569 1.363 . S
C1565 H1536 0.950 . S
C1565 C1564 1.397 . S
C1565 C1566 1.334 . S
C1566 H1537 0.950 . S
C1566 C1565 1.334 . S
C1566 C1567 1.287 . S
C1567 C1566 1.287 . S
C1567 C1568 1.524 . S
C1567 H1570 0.999 . S
C1568 H1538 0.950 . S
C1568 C1567 1.524 . S
C1568 C1569 1.415 . S
C1569 H1539 0.950 . S
C1569 C1564 1.363 . S
C1569 C1568 1.415 . S
H1570 C1567 0.999 . S
H1571 C1552 0.913 . S
H1572 C1590 0.951 . S
H1573 C1592 0.951 . S
H1574 C1594 0.950 . S
H1575 C1595 0.950 . S
H1576 C1597 0.950 . S
H1577 C1600 0.950 . S
H1578 C1601 0.950 . S
H1579 C1603 0.950 . S
H1580 C1604 0.950 . S
H1581 C1605 0.951 . S
H1582 C1607 0.951 . S
H1583 C1609 0.950 . S
H1584 C1610 0.950 . S
H1585 C1612 0.950 . S
H1586 C1615 0.950 . S
H1587 C1616 0.950 . S
H1588 C1618 0.950 . S
H1589 C1619 0.950 . S
C1590 H1572 0.951 . S
C1590 C1591 1.366 . S
C1590 C1592 1.388 . S
C1591 C1590 1.366 . S
C1591 C1595 1.385 . S
C1592 H1573 0.951 . S
C1592 C1590 1.388 . S
C1592 C1593 1.366 . S
C1593 C1592 1.366 . S
C1593 C1594 1.414 . S
C1593 C1596 1.499 . S
C1594 H1574 0.950 . S
C1594 C1593 1.414 . S
C1594 C1595 1.374 . S
C1595 H1575 0.950 . S
C1595 C1591 1.385 . S
C1595 C1594 1.374 . S
C1596 C1593 1.499 . S
C1596 C1597 1.373 . S
C1596 C1598 1.389 . S
C1597 H1576 0.950 . S
C1597 C1596 1.373 . S
C1597 C1613 1.377 . S
C1598 C1596 1.389 . S
C1598 C1599 1.524 . S
C1598 C1612 1.377 . S
C1599 C1598 1.524 . S
C1599 C1600 1.397 . S
C1599 C1604 1.363 . S
C1600 H1577 0.950 . S
C1600 C1599 1.397 . S
C1600 C1601 1.334 . S
C1601 H1578 0.950 . S
C1601 C1600 1.334 . S
C1601 C1602 1.287 . S
C1602 C1601 1.287 . S
C1602 C1603 1.524 . S
C1602 H1621 0.913 . S
C1603 H1579 0.950 . S
C1603 C1602 1.524 . S
C1603 C1604 1.415 . S
C1604 H1580 0.950 . S
C1604 C1599 1.363 . S
C1604 C1603 1.415 . S
C1605 H1581 0.951 . S
C1605 C1606 1.366 . S
C1605 C1607 1.388 . S
C1606 C1605 1.366 . S
C1606 C1610 1.385 . S
C1607 H1582 0.951 . S
C1607 C1605 1.388 . S
C1607 C1608 1.366 . S
C1608 C1607 1.366 . S
C1608 C1609 1.414 . S
C1608 C1611 1.499 . S
C1609 H1583 0.950 . S
C1609 C1608 1.414 . S
C1609 C1610 1.374 . S
C1610 H1584 0.950 . S
C1610 C1606 1.385 . S
C1610 C1609 1.374 . S
C1611 C1608 1.499 . S
C1611 C1612 1.373 . S
C1611 C1613 1.389 . S
C1612 H1585 0.950 . S
C1612 C1598 1.377 . S
C1612 C1611 1.373 . S
C1613 C1597 1.377 . S
C1613 C1611 1.389 . S
C1613 C1614 1.524 . S
C1614 C1613 1.524 . S
C1614 C1615 1.397 . S
C1614 C1619 1.363 . S
C1615 H1586 0.950 . S
C1615 C1614 1.397 . S
C1615 C1616 1.334 . S
C1616 H1587 0.950 . S
C1616 C1615 1.334 . S
C1616 C1617 1.287 . S
C1617 C1616 1.287 . S
C1617 C1618 1.524 . S
C1617 H1620 0.999 . S
C1618 H1588 0.950 . S
C1618 C1617 1.524 . S
C1618 C1619 1.415 . S
C1619 H1589 0.950 . S
C1619 C1614 1.363 . S
C1619 C1618 1.415 . S
H1620 C1617 0.999 . S
H1621 C1602 0.913 . S
H1622 C1640 0.951 . S
H1623 C1642 0.951 . S
H1624 C1644 0.950 . S
H1625 C1645 0.950 . S
H1626 C1647 0.950 . S
H1627 C1650 0.950 . S
H1628 C1651 0.950 . S
H1629 C1653 0.950 . S
H1630 C1654 0.950 . S
H1631 C1655 0.951 . S
H1632 C1657 0.951 . S
H1633 C1659 0.950 . S
H1634 C1660 0.950 . S
H1635 C1662 0.950 . S
H1636 C1665 0.950 . S
H1637 C1666 0.950 . S
H1638 C1668 0.950 . S
H1639 C1669 0.950 . S
C1640 H1622 0.951 . S
C1640 C1641 1.366 . S
C1640 C1642 1.388 . S
C1641 C1640 1.366 . S
C1641 C1645 1.385 . S
C1642 H1623 0.951 . S
C1642 C1640 1.388 . S
C1642 C1643 1.366 . S
C1643 C1642 1.366 . S
C1643 C1644 1.414 . S
C1643 C1646 1.499 . S
C1644 H1624 0.950 . S
C1644 C1643 1.414 . S
C1644 C1645 1.374 . S
C1645 H1625 0.950 . S
C1645 C1641 1.385 . S
C1645 C1644 1.374 . S
C1646 C1643 1.499 . S
C1646 C1647 1.373 . S
C1646 C1648 1.389 . S
C1647 H1626 0.950 . S
C1647 C1646 1.373 . S
C1647 C1663 1.377 1_554 S
C1648 C1646 1.389 . S
C1648 C1649 1.524 . S
C1648 C1662 1.377 1_554 S
C1649 C1648 1.524 . S
C1649 C1650 1.397 . S
C1649 C1654 1.363 . S
C1650 H1627 0.950 . S
C1650 C1649 1.397 . S
C1650 C1651 1.334 . S
C1651 H1628 0.950 . S
C1651 C1650 1.334 . S
C1651 C1652 1.287 . S
C1652 C1651 1.287 . S
C1652 C1653 1.524 . S
C1652 H1671 0.913 . S
C1653 H1629 0.950 . S
C1653 C1652 1.524 . S
C1653 C1654 1.415 . S
C1654 H1630 0.950 . S
C1654 C1649 1.363 . S
C1654 C1653 1.415 . S
C1655 H1631 0.951 . S
C1655 C1656 1.366 . S
C1655 C1657 1.388 . S
C1656 C1655 1.366 . S
C1656 C1660 1.385 . S
C1657 H1632 0.951 . S
C1657 C1655 1.388 . S
C1657 C1658 1.366 . S
C1658 C1657 1.366 . S
C1658 C1659 1.414 . S
C1658 C1661 1.499 . S
C1659 H1633 0.950 . S
C1659 C1658 1.414 . S
C1659 C1660 1.374 . S
C1660 H1634 0.950 . S
C1660 C1656 1.385 . S
C1660 C1659 1.374 . S
C1661 C1658 1.499 . S
C1661 C1662 1.373 . S
C1661 C1663 1.389 . S
C1662 H1635 0.950 . S
C1662 C1648 1.377 1_556 S
C1662 C1661 1.373 . S
C1663 C1647 1.377 1_556 S
C1663 C1661 1.389 . S
C1663 C1664 1.524 . S
C1664 C1663 1.524 . S
C1664 C1665 1.397 . S
C1664 C1669 1.363 . S
C1665 H1636 0.950 . S
C1665 C1664 1.397 . S
C1665 C1666 1.334 . S
C1666 H1637 0.950 . S
C1666 C1665 1.334 . S
C1666 C1667 1.287 . S
C1667 C1666 1.287 . S
C1667 C1668 1.524 . S
C1667 H1670 0.999 . S
C1668 H1638 0.950 . S
C1668 C1667 1.524 . S
C1668 C1669 1.415 . S
C1669 H1639 0.950 . S
C1669 C1664 1.363 . S
C1669 C1668 1.415 . S
H1670 C1667 0.999 . S
H1671 C1652 0.913 . S
H1672 C1690 0.951 . S
H1673 C1692 0.951 . S
H1674 C1694 0.950 . S
H1675 C1695 0.950 . S
H1676 C1697 0.950 . S
H1677 C1700 0.950 . S
H1678 C1701 0.950 . S
H1679 C1703 0.950 . S
H1680 C1704 0.950 . S
H1681 C1705 0.951 . S
H1682 C1707 0.951 . S
H1683 C1709 0.950 . S
H1684 C1710 0.950 . S
H1685 C1712 0.950 . S
H1686 C1715 0.950 . S
H1687 C1716 0.950 . S
H1688 C1718 0.950 . S
H1689 C1719 0.950 . S
C1690 H1672 0.951 . S
C1690 C1691 1.366 . S
C1690 C1692 1.388 . S
C1691 C1690 1.366 . S
C1691 C1695 1.385 . S
C1692 H1673 0.951 . S
C1692 C1690 1.388 . S
C1692 C1693 1.366 . S
C1693 C1692 1.366 . S
C1693 C1694 1.414 . S
C1693 C1696 1.499 . S
C1694 H1674 0.950 . S
C1694 C1693 1.414 . S
C1694 C1695 1.374 . S
C1695 H1675 0.950 . S
C1695 C1691 1.385 . S
C1695 C1694 1.374 . S
C1696 C1693 1.499 . S
C1696 C1697 1.373 . S
C1696 C1698 1.389 . S
C1697 H1676 0.950 . S
C1697 C1696 1.373 . S
C1697 C1713 1.377 . S
C1698 C1696 1.389 . S
C1698 C1699 1.524 . S
C1698 C1712 1.377 . S
C1699 C1698 1.524 . S
C1699 C1700 1.397 . S
C1699 C1704 1.363 . S
C1700 H1677 0.950 . S
C1700 C1699 1.397 . S
C1700 C1701 1.334 . S
C1701 H1678 0.950 . S
C1701 C1700 1.334 . S
C1701 C1702 1.287 . S
C1702 C1701 1.287 . S
C1702 C1703 1.524 . S
C1702 H1721 0.913 . S
C1703 H1679 0.950 . S
C1703 C1702 1.524 . S
C1703 C1704 1.415 . S
C1704 H1680 0.950 . S
C1704 C1699 1.363 . S
C1704 C1703 1.415 . S
C1705 H1681 0.951 . S
C1705 C1706 1.366 . S
C1705 C1707 1.388 . S
C1706 C1705 1.366 . S
C1706 C1710 1.385 . S
C1707 H1682 0.951 . S
C1707 C1705 1.388 . S
C1707 C1708 1.366 . S
C1708 C1707 1.366 . S
C1708 C1709 1.414 . S
C1708 C1711 1.499 . S
C1709 H1683 0.950 . S
C1709 C1708 1.414 . S
C1709 C1710 1.374 . S
C1710 H1684 0.950 . S
C1710 C1706 1.385 . S
C1710 C1709 1.374 . S
C1711 C1708 1.499 . S
C1711 C1712 1.373 . S
C1711 C1713 1.389 . S
C1712 H1685 0.950 . S
C1712 C1698 1.377 . S
C1712 C1711 1.373 . S
C1713 C1697 1.377 . S
C1713 C1711 1.389 . S
C1713 C1714 1.524 . S
C1714 C1713 1.524 . S
C1714 C1715 1.397 . S
C1714 C1719 1.363 . S
C1715 H1686 0.950 . S
C1715 C1714 1.397 . S
C1715 C1716 1.334 . S
C1716 H1687 0.950 . S
C1716 C1715 1.334 . S
C1716 C1717 1.287 . S
C1717 C1716 1.287 . S
C1717 C1718 1.524 . S
C1717 H1720 0.999 . S
C1718 H1688 0.950 . S
C1718 C1717 1.524 . S
C1718 C1719 1.415 . S
C1719 H1689 0.950 . S
C1719 C1714 1.363 . S
C1719 C1718 1.415 . S
H1720 C1717 0.999 . S
H1721 C1702 0.913 . S
H1722 C1740 0.951 . S
H1723 C1742 0.951 . S
H1724 C1744 0.950 . S
H1725 C1745 0.950 . S
H1726 C1747 0.950 . S
H1727 C1750 0.950 . S
H1728 C1751 0.950 . S
H1729 C1753 0.950 . S
H1730 C1754 0.950 . S
H1731 C1755 0.951 . S
H1732 C1757 0.951 . S
H1733 C1759 0.950 . S
H1734 C1760 0.950 . S
H1735 C1762 0.950 . S
H1736 C1765 0.950 . S
H1737 C1766 0.950 . S
H1738 C1768 0.950 . S
H1739 C1769 0.950 . S
C1740 H1722 0.951 . S
C1740 C1741 1.366 . S
C1740 C1742 1.388 . S
C1741 C1740 1.366 . S
C1741 C1745 1.385 . S
C1742 H1723 0.951 . S
C1742 C1740 1.388 . S
C1742 C1743 1.366 . S
C1743 C1742 1.366 . S
C1743 C1744 1.414 . S
C1743 C1746 1.499 . S
C1744 H1724 0.950 . S
C1744 C1743 1.414 . S
C1744 C1745 1.374 . S
C1745 H1725 0.950 . S
C1745 C1741 1.385 . S
C1745 C1744 1.374 . S
C1746 C1743 1.499 . S
C1746 C1747 1.373 . S
C1746 C1748 1.389 . S
C1747 H1726 0.950 . S
C1747 C1746 1.373 . S
C1747 C1763 1.377 1_554 S
C1748 C1746 1.389 . S
C1748 C1749 1.524 . S
C1748 C1762 1.377 1_554 S
C1749 C1748 1.524 . S
C1749 C1750 1.397 . S
C1749 C1754 1.363 . S
C1750 H1727 0.950 . S
C1750 C1749 1.397 . S
C1750 C1751 1.334 . S
C1751 H1728 0.950 . S
C1751 C1750 1.334 . S
C1751 C1752 1.287 . S
C1752 C1751 1.287 . S
C1752 C1753 1.524 . S
C1752 H1771 0.913 . S
C1753 H1729 0.950 . S
C1753 C1752 1.524 . S
C1753 C1754 1.415 . S
C1754 H1730 0.950 . S
C1754 C1749 1.363 . S
C1754 C1753 1.415 . S
C1755 H1731 0.951 . S
C1755 C1756 1.366 . S
C1755 C1757 1.388 . S
C1756 C1755 1.366 . S
C1756 C1760 1.385 . S
C1757 H1732 0.951 . S
C1757 C1755 1.388 . S
C1757 C1758 1.366 . S
C1758 C1757 1.366 . S
C1758 C1759 1.414 . S
C1758 C1761 1.499 . S
C1759 H1733 0.950 . S
C1759 C1758 1.414 . S
C1759 C1760 1.374 . S
C1760 H1734 0.950 . S
C1760 C1756 1.385 . S
C1760 C1759 1.374 . S
C1761 C1758 1.499 . S
C1761 C1762 1.373 . S
C1761 C1763 1.389 . S
C1762 H1735 0.950 . S
C1762 C1748 1.377 1_556 S
C1762 C1761 1.373 . S
C1763 C1747 1.377 1_556 S
C1763 C1761 1.389 . S
C1763 C1764 1.524 . S
C1764 C1763 1.524 . S
C1764 C1765 1.397 . S
C1764 C1769 1.363 . S
C1765 H1736 0.950 . S
C1765 C1764 1.397 . S
C1765 C1766 1.334 . S
C1766 H1737 0.950 . S
C1766 C1765 1.334 . S
C1766 C1767 1.287 . S
C1767 C1766 1.287 . S
C1767 C1768 1.524 . S
C1767 H1770 0.999 . S
C1768 H1738 0.950 . S
C1768 C1767 1.524 . S
C1768 C1769 1.415 . S
C1769 H1739 0.950 . S
C1769 C1764 1.363 . S
C1769 C1768 1.415 . S
H1770 C1767 0.999 . S
H1771 C1752 0.913 . S
H1772 C1790 0.951 . S
H1773 C1792 0.951 . S
H1774 C1794 0.950 . S
H1775 C1795 0.950 . S
H1776 C1797 0.950 . S
H1777 C1800 0.950 . S
H1778 C1801 0.950 . S
H1779 C1803 0.950 . S
H1780 C1804 0.950 . S
H1781 C1805 0.951 . S
H1782 C1807 0.951 . S
H1783 C1809 0.950 . S
H1784 C1810 0.950 . S
H1785 C1812 0.950 . S
H1786 C1815 0.950 . S
H1787 C1816 0.950 . S
H1788 C1818 0.950 . S
H1789 C1819 0.950 . S
C1790 H1772 0.951 . S
C1790 C1791 1.366 . S
C1790 C1792 1.388 . S
C1791 C1790 1.366 . S
C1791 C1795 1.385 . S
C1792 H1773 0.951 . S
C1792 C1790 1.388 . S
C1792 C1793 1.366 . S
C1793 C1792 1.366 . S
C1793 C1794 1.414 . S
C1793 C1796 1.499 . S
C1794 H1774 0.950 . S
C1794 C1793 1.414 . S
C1794 C1795 1.374 . S
C1795 H1775 0.950 . S
C1795 C1791 1.385 . S
C1795 C1794 1.374 . S
C1796 C1793 1.499 . S
C1796 C1797 1.373 . S
C1796 C1798 1.389 . S
C1797 H1776 0.950 . S
C1797 C1796 1.373 . S
C1797 C1813 1.377 . S
C1798 C1796 1.389 . S
C1798 C1799 1.524 . S
C1798 C1812 1.377 . S
C1799 C1798 1.524 . S
C1799 C1800 1.397 . S
C1799 C1804 1.363 . S
C1800 H1777 0.950 . S
C1800 C1799 1.397 . S
C1800 C1801 1.334 . S
C1801 H1778 0.950 . S
C1801 C1800 1.334 . S
C1801 C1802 1.287 . S
C1802 C1801 1.287 . S
C1802 C1803 1.524 . S
C1802 H1821 0.913 . S
C1803 H1779 0.950 . S
C1803 C1802 1.524 . S
C1803 C1804 1.415 . S
C1804 H1780 0.950 . S
C1804 C1799 1.363 . S
C1804 C1803 1.415 . S
C1805 H1781 0.951 . S
C1805 C1806 1.366 . S
C1805 C1807 1.388 . S
C1806 C1805 1.366 . S
C1806 C1810 1.385 . S
C1807 H1782 0.951 . S
C1807 C1805 1.388 . S
C1807 C1808 1.366 . S
C1808 C1807 1.366 . S
C1808 C1809 1.414 . S
C1808 C1811 1.499 . S
C1809 H1783 0.950 . S
C1809 C1808 1.414 . S
C1809 C1810 1.374 . S
C1810 H1784 0.950 . S
C1810 C1806 1.385 . S
C1810 C1809 1.374 . S
C1811 C1808 1.499 . S
C1811 C1812 1.373 . S
C1811 C1813 1.389 . S
C1812 H1785 0.950 . S
C1812 C1798 1.377 . S
C1812 C1811 1.373 . S
C1813 C1797 1.377 . S
C1813 C1811 1.389 . S
C1813 C1814 1.524 . S
C1814 C1813 1.524 . S
C1814 C1815 1.397 . S
C1814 C1819 1.363 . S
C1815 H1786 0.950 . S
C1815 C1814 1.397 . S
C1815 C1816 1.334 . S
C1816 H1787 0.950 . S
C1816 C1815 1.334 . S
C1816 C1817 1.287 . S
C1817 C1816 1.287 . S
C1817 C1818 1.524 . S
C1817 H1820 0.999 . S
C1818 H1788 0.950 . S
C1818 C1817 1.524 . S
C1818 C1819 1.415 . S
C1819 H1789 0.950 . S
C1819 C1814 1.363 . S
C1819 C1818 1.415 . S
H1820 C1817 0.999 . S
H1821 C1802 0.913 . S
H1822 C1840 0.951 . S
H1823 C1842 0.951 . S
H1824 C1844 0.950 . S
H1825 C1845 0.950 . S
H1826 C1847 0.950 . S
H1827 C1850 0.950 . S
H1828 C1851 0.950 . S
H1829 C1853 0.950 . S
H1830 C1854 0.950 . S
H1831 C1855 0.951 . S
H1832 C1857 0.951 . S
H1833 C1859 0.950 . S
H1834 C1860 0.950 . S
H1835 C1862 0.950 . S
H1836 C1865 0.950 . S
H1837 C1866 0.950 . S
H1838 C1868 0.950 . S
H1839 C1869 0.950 . S
C1840 H1822 0.951 . S
C1840 C1841 1.366 . S
C1840 C1842 1.388 . S
C1841 C1840 1.366 . S
C1841 C1845 1.385 . S
C1842 H1823 0.951 . S
C1842 C1840 1.388 . S
C1842 C1843 1.366 . S
C1843 C1842 1.366 . S
C1843 C1844 1.414 . S
C1843 C1846 1.499 . S
C1844 H1824 0.950 . S
C1844 C1843 1.414 . S
C1844 C1845 1.374 . S
C1845 H1825 0.950 . S
C1845 C1841 1.385 . S
C1845 C1844 1.374 . S
C1846 C1843 1.499 . S
C1846 C1847 1.373 . S
C1846 C1848 1.389 . S
C1847 H1826 0.950 . S
C1847 C1846 1.373 . S
C1847 C1863 1.377 . S
C1848 C1846 1.389 . S
C1848 C1849 1.524 . S
C1848 C1862 1.377 . S
C1849 C1848 1.524 . S
C1849 C1850 1.397 . S
C1849 C1854 1.363 . S
C1850 H1827 0.950 . S
C1850 C1849 1.397 . S
C1850 C1851 1.334 . S
C1851 H1828 0.950 . S
C1851 C1850 1.334 . S
C1851 C1852 1.287 . S
C1852 C1851 1.287 . S
C1852 C1853 1.524 . S
C1852 H1871 0.913 . S
C1853 H1829 0.950 . S
C1853 C1852 1.524 . S
C1853 C1854 1.415 . S
C1854 H1830 0.950 . S
C1854 C1849 1.363 . S
C1854 C1853 1.415 . S
C1855 H1831 0.951 . S
C1855 C1856 1.366 . S
C1855 C1857 1.388 . S
C1856 C1855 1.366 . S
C1856 C1860 1.385 . S
C1857 H1832 0.951 . S
C1857 C1855 1.388 . S
C1857 C1858 1.366 . S
C1858 C1857 1.366 . S
C1858 C1859 1.414 . S
C1858 C1861 1.499 . S
C1859 H1833 0.950 . S
C1859 C1858 1.414 . S
C1859 C1860 1.374 . S
C1860 H1834 0.950 . S
C1860 C1856 1.385 . S
C1860 C1859 1.374 . S
C1861 C1858 1.499 . S
C1861 C1862 1.373 . S
C1861 C1863 1.389 . S
C1862 H1835 0.950 . S
C1862 C1848 1.377 . S
C1862 C1861 1.373 . S
C1863 C1847 1.377 . S
C1863 C1861 1.389 . S
C1863 C1864 1.524 . S
C1864 C1863 1.524 . S
C1864 C1865 1.397 . S
C1864 C1869 1.363 . S
C1865 H1836 0.950 . S
C1865 C1864 1.397 . S
C1865 C1866 1.334 . S
C1866 H1837 0.950 . S
C1866 C1865 1.334 . S
C1866 C1867 1.287 . S
C1867 C1866 1.287 . S
C1867 C1868 1.524 . S
C1867 H1870 0.999 . S
C1868 H1838 0.950 . S
C1868 C1867 1.524 . S
C1868 C1869 1.415 . S
C1869 H1839 0.950 . S
C1869 C1864 1.363 . S
C1869 C1868 1.415 . S
H1870 C1867 0.999 . S
H1871 C1852 0.913 . S
H1872 C1890 0.951 . S
H1873 C1892 0.951 . S
H1874 C1894 0.950 . S
H1875 C1895 0.950 . S
H1876 C1897 0.950 . S
H1877 C1900 0.950 . S
H1878 C1901 0.950 . S
H1879 C1903 0.950 . S
H1880 C1904 0.950 . S
H1881 C1905 0.951 . S
H1882 C1907 0.951 . S
H1883 C1909 0.950 . S
H1884 C1910 0.950 . S
H1885 C1912 0.950 . S
H1886 C1915 0.950 . S
H1887 C1916 0.950 . S
H1888 C1918 0.950 . S
H1889 C1919 0.950 . S
C1890 H1872 0.951 . S
C1890 C1891 1.366 . S
C1890 C1892 1.388 . S
C1891 C1890 1.366 . S
C1891 C1895 1.385 . S
C1892 H1873 0.951 . S
C1892 C1890 1.388 . S
C1892 C1893 1.366 . S
C1893 C1892 1.366 . S
C1893 C1894 1.414 . S
C1893 C1896 1.499 . S
C1894 H1874 0.950 . S
C1894 C1893 1.414 . S
C1894 C1895 1.374 . S
C1895 H1875 0.950 . S
C1895 C1891 1.385 . S
C1895 C1894 1.374 . S
C1896 C1893 1.499 . S
C1896 C1897 1.373 . S
C1896 C1898 1.389 . S
C1897 H1876 0.950 . S
C1897 C1896 1.373 . S
C1897 C1913 1.377 . S
C1898 C1896 1.389 . S
C1898 C1899 1.524 . S
C1898 C1912 1.377 . S
C1899 C1898 1.524 . S
C1899 C1900 1.397 . S
C1899 C1904 1.363 . S
C1900 H1877 0.950 . S
C1900 C1899 1.397 . S
C1900 C1901 1.334 . S
C1901 H1878 0.950 . S
C1901 C1900 1.334 . S
C1901 C1902 1.287 . S
C1902 C1901 1.287 . S
C1902 C1903 1.524 . S
C1902 H1921 0.913 . S
C1903 H1879 0.950 . S
C1903 C1902 1.524 . S
C1903 C1904 1.415 . S
C1904 H1880 0.950 . S
C1904 C1899 1.363 . S
C1904 C1903 1.415 . S
C1905 H1881 0.951 . S
C1905 C1906 1.366 . S
C1905 C1907 1.388 . S
C1906 C1905 1.366 . S
C1906 C1910 1.385 . S
C1907 H1882 0.951 . S
C1907 C1905 1.388 . S
C1907 C1908 1.366 . S
C1908 C1907 1.366 . S
C1908 C1909 1.414 . S
C1908 C1911 1.499 . S
C1909 H1883 0.950 . S
C1909 C1908 1.414 . S
C1909 C1910 1.374 . S
C1910 H1884 0.950 . S
C1910 C1906 1.385 . S
C1910 C1909 1.374 . S
C1911 C1908 1.499 . S
C1911 C1912 1.373 . S
C1911 C1913 1.389 . S
C1912 H1885 0.950 . S
C1912 C1898 1.377 . S
C1912 C1911 1.373 . S
C1913 C1897 1.377 . S
C1913 C1911 1.389 . S
C1913 C1914 1.524 . S
C1914 C1913 1.524 . S
C1914 C1915 1.397 . S
C1914 C1919 1.363 . S
C1915 H1886 0.950 . S
C1915 C1914 1.397 . S
C1915 C1916 1.334 . S
C1916 H1887 0.950 . S
C1916 C1915 1.334 . S
C1916 C1917 1.287 . S
C1917 C1916 1.287 . S
C1917 C1918 1.524 . S
C1917 H1920 0.999 . S
C1918 H1888 0.950 . S
C1918 C1917 1.524 . S
C1918 C1919 1.415 . S
C1919 H1889 0.950 . S
C1919 C1914 1.363 . S
C1919 C1918 1.415 . S
H1920 C1917 0.999 . S
H1921 C1902 0.913 . S
H1922 C1940 0.951 . S
H1923 C1942 0.951 . S
H1924 C1944 0.950 . S
H1925 C1945 0.950 . S
H1926 C1947 0.950 . S
H1927 C1950 0.950 . S
H1928 C1951 0.950 . S
H1929 C1953 0.950 . S
H1930 C1954 0.950 . S
H1931 C1955 0.951 . S
H1932 C1957 0.951 . S
H1933 C1959 0.950 . S
H1934 C1960 0.950 . S
H1935 C1962 0.950 . S
H1936 C1965 0.950 . S
H1937 C1966 0.950 . S
H1938 C1968 0.950 . S
H1939 C1969 0.950 . S
C1940 H1922 0.951 . S
C1940 C1941 1.366 . S
C1940 C1942 1.388 . S
C1941 C1940 1.366 . S
C1941 C1945 1.385 . S
C1942 H1923 0.951 . S
C1942 C1940 1.388 . S
C1942 C1943 1.366 . S
C1943 C1942 1.366 . S
C1943 C1944 1.414 . S
C1943 C1946 1.499 . S
C1944 H1924 0.950 . S
C1944 C1943 1.414 . S
C1944 C1945 1.374 . S
C1945 H1925 0.950 . S
C1945 C1941 1.385 . S
C1945 C1944 1.374 . S
C1946 C1943 1.499 . S
C1946 C1947 1.373 . S
C1946 C1948 1.389 . S
C1947 H1926 0.950 . S
C1947 C1946 1.373 . S
C1947 C1963 1.377 . S
C1948 C1946 1.389 . S
C1948 C1949 1.524 . S
C1948 C1962 1.377 . S
C1949 C1948 1.524 . S
C1949 C1950 1.397 . S
C1949 C1954 1.363 . S
C1950 H1927 0.950 . S
C1950 C1949 1.397 . S
C1950 C1951 1.334 . S
C1951 H1928 0.950 . S
C1951 C1950 1.334 . S
C1951 C1952 1.287 . S
C1952 C1951 1.287 . S
C1952 C1953 1.524 . S
C1952 H1971 0.913 . S
C1953 H1929 0.950 . S
C1953 C1952 1.524 . S
C1953 C1954 1.415 . S
C1954 H1930 0.950 . S
C1954 C1949 1.363 . S
C1954 C1953 1.415 . S
C1955 H1931 0.951 . S
C1955 C1956 1.366 . S
C1955 C1957 1.388 . S
C1956 C1955 1.366 . S
C1956 C1960 1.385 . S
C1957 H1932 0.951 . S
C1957 C1955 1.388 . S
C1957 C1958 1.366 . S
C1958 C1957 1.366 . S
C1958 C1959 1.414 . S
C1958 C1961 1.499 . S
C1959 H1933 0.950 . S
C1959 C1958 1.414 . S
C1959 C1960 1.374 . S
C1960 H1934 0.950 . S
C1960 C1956 1.385 . S
C1960 C1959 1.374 . S
C1961 C1958 1.499 . S
C1961 C1962 1.373 . S
C1961 C1963 1.389 . S
C1962 H1935 0.950 . S
C1962 C1948 1.377 . S
C1962 C1961 1.373 . S
C1963 C1947 1.377 . S
C1963 C1961 1.389 . S
C1963 C1964 1.524 . S
C1964 C1963 1.524 . S
C1964 C1965 1.397 . S
C1964 C1969 1.363 . S
C1965 H1936 0.950 . S
C1965 C1964 1.397 . S
C1965 C1966 1.334 . S
C1966 H1937 0.950 . S
C1966 C1965 1.334 . S
C1966 C1967 1.287 . S
C1967 C1966 1.287 . S
C1967 C1968 1.524 . S
C1967 H1970 0.999 . S
C1968 H1938 0.950 . S
C1968 C1967 1.524 . S
C1968 C1969 1.415 . S
C1969 H1939 0.950 . S
C1969 C1964 1.363 . S
C1969 C1968 1.415 . S
H1970 C1967 0.999 . S
H1971 C1952 0.913 . S
H1972 C1990 0.951 . S
H1973 C1992 0.951 . S
H1974 C1994 0.950 . S
H1975 C1995 0.950 . S
H1976 C1997 0.950 . S
H1977 C2000 0.950 . S
H1978 C2001 0.950 . S
H1979 C2003 0.950 . S
H1980 C2004 0.950 . S
H1981 C2005 0.951 . S
H1982 C2007 0.951 . S
H1983 C2009 0.950 . S
H1984 C2010 0.950 . S
H1985 C2012 0.950 . S
H1986 C2015 0.950 . S
H1987 C2016 0.950 . S
H1988 C2018 0.950 . S
H1989 C2019 0.950 . S
C1990 H1972 0.951 . S
C1990 C1991 1.366 . S
C1990 C1992 1.388 . S
C1991 C1990 1.366 . S
C1991 C1995 1.385 . S
C1992 H1973 0.951 . S
C1992 C1990 1.388 . S
C1992 C1993 1.366 . S
C1993 C1992 1.366 . S
C1993 C1994 1.414 . S
C1993 C1996 1.499 . S
C1994 H1974 0.950 . S
C1994 C1993 1.414 . S
C1994 C1995 1.374 . S
C1995 H1975 0.950 . S
C1995 C1991 1.385 . S
C1995 C1994 1.374 . S
C1996 C1993 1.499 . S
C1996 C1997 1.373 . S
C1996 C1998 1.389 . S
C1997 H1976 0.950 . S
C1997 C1996 1.373 . S
C1997 C2013 1.377 . S
C1998 C1996 1.389 . S
C1998 C1999 1.524 . S
C1998 C2012 1.377 . S
C1999 C1998 1.524 . S
C1999 C2000 1.397 . S
C1999 C2004 1.363 . S
C2000 H1977 0.950 . S
C2000 C1999 1.397 . S
C2000 C2001 1.334 . S
C2001 H1978 0.950 . S
C2001 C2000 1.334 . S
C2001 C2002 1.287 . S
C2002 C2001 1.287 . S
C2002 C2003 1.524 . S
C2002 H2021 0.913 . S
C2003 H1979 0.950 . S
C2003 C2002 1.524 . S
C2003 C2004 1.415 . S
C2004 H1980 0.950 . S
C2004 C1999 1.363 . S
C2004 C2003 1.415 . S
C2005 H1981 0.951 . S
C2005 C2006 1.366 . S
C2005 C2007 1.388 . S
C2006 C2005 1.366 . S
C2006 C2010 1.385 . S
C2007 H1982 0.951 . S
C2007 C2005 1.388 . S
C2007 C2008 1.366 . S
C2008 C2007 1.366 . S
C2008 C2009 1.414 . S
C2008 C2011 1.499 . S
C2009 H1983 0.950 . S
C2009 C2008 1.414 . S
C2009 C2010 1.374 . S
C2010 H1984 0.950 . S
C2010 C2006 1.385 . S
C2010 C2009 1.374 . S
C2011 C2008 1.499 . S
C2011 C2012 1.373 . S
C2011 C2013 1.389 . S
C2012 H1985 0.950 . S
C2012 C1998 1.377 . S
C2012 C2011 1.373 . S
C2013 C1997 1.377 . S
C2013 C2011 1.389 . S
C2013 C2014 1.524 . S
C2014 C2013 1.524 . S
C2014 C2015 1.397 . S
C2014 C2019 1.363 . S
C2015 H1986 0.950 . S
C2015 C2014 1.397 . S
C2015 C2016 1.334 . S
C2016 H1987 0.950 . S
C2016 C2015 1.334 . S
C2016 C2017 1.287 . S
C2017 C2016 1.287 . S
C2017 C2018 1.524 . S
C2017 H2020 0.999 . S
C2018 H1988 0.950 . S
C2018 C2017 1.524 . S
C2018 C2019 1.415 . S
C2019 H1989 0.950 . S
C2019 C2014 1.363 . S
C2019 C2018 1.415 . S
H2020 C2017 0.999 . S
H2021 C2002 0.913 . S
H2022 C2040 0.951 . S
H2023 C2042 0.951 . S
H2024 C2044 0.950 . S
H2025 C2045 0.950 . S
H2026 C2047 0.950 . S
H2027 C2050 0.950 . S
H2028 C2051 0.950 . S
H2029 C2053 0.950 . S
H2030 C2054 0.950 . S
H2031 C2055 0.951 . S
H2032 C2057 0.951 . S
H2033 C2059 0.950 . S
H2034 C2060 0.950 . S
H2035 C2062 0.950 . S
H2036 C2065 0.950 . S
H2037 C2066 0.950 . S
H2038 C2068 0.950 . S
H2039 C2069 0.950 . S
C2040 H2022 0.951 . S
C2040 C2041 1.366 . S
C2040 C2042 1.388 . S
C2041 C2040 1.366 . S
C2041 C2045 1.385 . S
C2042 H2023 0.951 . S
C2042 C2040 1.388 . S
C2042 C2043 1.366 . S
C2043 C2042 1.366 . S
C2043 C2044 1.414 . S
C2043 C2046 1.499 . S
C2044 H2024 0.950 . S
C2044 C2043 1.414 . S
C2044 C2045 1.374 . S
C2045 H2025 0.950 . S
C2045 C2041 1.385 . S
C2045 C2044 1.374 . S
C2046 C2043 1.499 . S
C2046 C2047 1.373 . S
C2046 C2048 1.389 . S
C2047 H2026 0.950 . S
C2047 C2046 1.373 . S
C2047 C2063 1.377 . S
C2048 C2046 1.389 . S
C2048 C2049 1.524 . S
C2048 C2062 1.377 . S
C2049 C2048 1.524 . S
C2049 C2050 1.397 . S
C2049 C2054 1.363 . S
C2050 H2027 0.950 . S
C2050 C2049 1.397 . S
C2050 C2051 1.334 . S
C2051 H2028 0.950 . S
C2051 C2050 1.334 . S
C2051 C2052 1.287 . S
C2052 C2051 1.287 . S
C2052 C2053 1.524 . S
C2052 H2071 0.913 . S
C2053 H2029 0.950 . S
C2053 C2052 1.524 . S
C2053 C2054 1.415 . S
C2054 H2030 0.950 . S
C2054 C2049 1.363 . S
C2054 C2053 1.415 . S
C2055 H2031 0.951 . S
C2055 C2056 1.366 . S
C2055 C2057 1.388 . S
C2056 C2055 1.366 . S
C2056 C2060 1.385 . S
C2057 H2032 0.951 . S
C2057 C2055 1.388 . S
C2057 C2058 1.366 . S
C2058 C2057 1.366 . S
C2058 C2059 1.414 . S
C2058 C2061 1.499 . S
C2059 H2033 0.950 . S
C2059 C2058 1.414 . S
C2059 C2060 1.374 . S
C2060 H2034 0.950 . S
C2060 C2056 1.385 . S
C2060 C2059 1.374 . S
C2061 C2058 1.499 . S
C2061 C2062 1.373 . S
C2061 C2063 1.389 . S
C2062 H2035 0.950 . S
C2062 C2048 1.377 . S
C2062 C2061 1.373 . S
C2063 C2047 1.377 . S
C2063 C2061 1.389 . S
C2063 C2064 1.524 . S
C2064 C2063 1.524 . S
C2064 C2065 1.397 . S
C2064 C2069 1.363 . S
C2065 H2036 0.950 . S
C2065 C2064 1.397 . S
C2065 C2066 1.334 . S
C2066 H2037 0.950 . S
C2066 C2065 1.334 . S
C2066 C2067 1.287 . S
C2067 C2066 1.287 . S
C2067 C2068 1.524 . S
C2067 H2070 0.999 . S
C2068 H2038 0.950 . S
C2068 C2067 1.524 . S
C2068 C2069 1.415 . S
C2069 H2039 0.950 . S
C2069 C2064 1.363 . S
C2069 C2068 1.415 . S
H2070 C2067 0.999 . S
H2071 C2052 0.913 . S
H2072 C2090 0.951 . S
H2073 C2092 0.951 . S
H2074 C2094 0.950 . S
H2075 C2095 0.950 . S
H2076 C2097 0.950 . S
H2077 C2100 0.950 . S
H2078 C2101 0.950 . S
H2079 C2103 0.950 . S
H2080 C2104 0.950 . S
H2081 C2105 0.951 . S
H2082 C2107 0.951 . S
H2083 C2109 0.950 . S
H2084 C2110 0.950 . S
H2085 C2112 0.950 . S
H2086 C2115 0.950 . S
H2087 C2116 0.950 . S
H2088 C2118 0.950 . S
H2089 C2119 0.950 . S
C2090 H2072 0.951 . S
C2090 C2091 1.366 . S
C2090 C2092 1.388 . S
C2091 C2090 1.366 . S
C2091 C2095 1.385 . S
C2092 H2073 0.951 . S
C2092 C2090 1.388 . S
C2092 C2093 1.366 . S
C2093 C2092 1.366 . S
C2093 C2094 1.414 . S
C2093 C2096 1.499 . S
C2094 H2074 0.950 . S
C2094 C2093 1.414 . S
C2094 C2095 1.374 . S
C2095 H2075 0.950 . S
C2095 C2091 1.385 . S
C2095 C2094 1.374 . S
C2096 C2093 1.499 . S
C2096 C2097 1.373 . S
C2096 C2098 1.389 . S
C2097 H2076 0.950 . S
C2097 C2096 1.373 . S
C2097 C2113 1.377 . S
C2098 C2096 1.389 . S
C2098 C2099 1.524 . S
C2098 C2112 1.377 . S
C2099 C2098 1.524 . S
C2099 C2100 1.397 . S
C2099 C2104 1.363 . S
C2100 H2077 0.950 . S
C2100 C2099 1.397 . S
C2100 C2101 1.334 . S
C2101 H2078 0.950 . S
C2101 C2100 1.334 . S
C2101 C2102 1.287 . S
C2102 C2101 1.287 . S
C2102 C2103 1.524 . S
C2102 H2121 0.913 . S
C2103 H2079 0.950 . S
C2103 C2102 1.524 . S
C2103 C2104 1.415 . S
C2104 H2080 0.950 . S
C2104 C2099 1.363 . S
C2104 C2103 1.415 . S
C2105 H2081 0.951 . S
C2105 C2106 1.366 . S
C2105 C2107 1.388 . S
C2106 C2105 1.366 . S
C2106 C2110 1.385 . S
C2107 H2082 0.951 . S
C2107 C2105 1.388 . S
C2107 C2108 1.366 . S
C2108 C2107 1.366 . S
C2108 C2109 1.414 . S
C2108 C2111 1.499 . S
C2109 H2083 0.950 . S
C2109 C2108 1.414 . S
C2109 C2110 1.374 . S
C2110 H2084 0.950 . S
C2110 C2106 1.385 . S
C2110 C2109 1.374 . S
C2111 C2108 1.499 . S
C2111 C2112 1.373 . S
C2111 C2113 1.389 . S
C2112 H2085 0.950 . S
C2112 C2098 1.377 . S
C2112 C2111 1.373 . S
C2113 C2097 1.377 . S
C2113 C2111 1.389 . S
C2113 C2114 1.524 . S
C2114 C2113 1.524 . S
C2114 C2115 1.397 . S
C2114 C2119 1.363 . S
C2115 H2086 0.950 . S
C2115 C2114 1.397 . S
C2115 C2116 1.334 . S
C2116 H2087 0.950 . S
C2116 C2115 1.334 . S
C2116 C2117 1.287 . S
C2117 C2116 1.287 . S
C2117 C2118 1.524 . S
C2117 H2120 0.999 . S
C2118 H2088 0.950 . S
C2118 C2117 1.524 . S
C2118 C2119 1.415 . S
C2119 H2089 0.950 . S
C2119 C2114 1.363 . S
C2119 C2118 1.415 . S
H2120 C2117 0.999 . S
H2121 C2102 0.913 . S
H2122 C2140 0.951 . S
H2123 C2142 0.951 . S
H2124 C2144 0.950 . S
H2125 C2145 0.950 . S
H2126 C2147 0.950 . S
H2127 C2150 0.950 . S
H2128 C2151 0.950 . S
H2129 C2153 0.950 . S
H2130 C2154 0.950 . S
H2131 C2155 0.951 . S
H2132 C2157 0.951 . S
H2133 C2159 0.950 . S
H2134 C2160 0.950 . S
H2135 C2162 0.950 . S
H2136 C2165 0.950 . S
H2137 C2166 0.950 . S
H2138 C2168 0.950 . S
H2139 C2169 0.950 . S
C2140 H2122 0.951 . S
C2140 C2141 1.366 . S
C2140 C2142 1.388 . S
C2141 C2140 1.366 . S
C2141 C2145 1.385 . S
C2142 H2123 0.951 . S
C2142 C2140 1.388 . S
C2142 C2143 1.366 . S
C2143 C2142 1.366 . S
C2143 C2144 1.414 . S
C2143 C2146 1.499 . S
C2144 H2124 0.950 . S
C2144 C2143 1.414 . S
C2144 C2145 1.374 . S
C2145 H2125 0.950 . S
C2145 C2141 1.385 . S
C2145 C2144 1.374 . S
C2146 C2143 1.499 . S
C2146 C2147 1.373 . S
C2146 C2148 1.389 . S
C2147 H2126 0.950 . S
C2147 C2146 1.373 . S
C2147 C2163 1.377 . S
C2148 C2146 1.389 . S
C2148 C2149 1.524 . S
C2148 C2162 1.377 . S
C2149 C2148 1.524 . S
C2149 C2150 1.397 . S
C2149 C2154 1.363 . S
C2150 H2127 0.950 . S
C2150 C2149 1.397 . S
C2150 C2151 1.334 . S
C2151 H2128 0.950 . S
C2151 C2150 1.334 . S
C2151 C2152 1.287 . S
C2152 C2151 1.287 . S
C2152 C2153 1.524 . S
C2152 H2171 0.913 . S
C2153 H2129 0.950 . S
C2153 C2152 1.524 . S
C2153 C2154 1.415 . S
C2154 H2130 0.950 . S
C2154 C2149 1.363 . S
C2154 C2153 1.415 . S
C2155 H2131 0.951 . S
C2155 C2156 1.366 . S
C2155 C2157 1.388 . S
C2156 C2155 1.366 . S
C2156 C2160 1.385 . S
C2157 H2132 0.951 . S
C2157 C2155 1.388 . S
C2157 C2158 1.366 . S
C2158 C2157 1.366 . S
C2158 C2159 1.414 . S
C2158 C2161 1.499 . S
C2159 H2133 0.950 . S
C2159 C2158 1.414 . S
C2159 C2160 1.374 . S
C2160 H2134 0.950 . S
C2160 C2156 1.385 . S
C2160 C2159 1.374 . S
C2161 C2158 1.499 . S
C2161 C2162 1.373 . S
C2161 C2163 1.389 . S
C2162 H2135 0.950 . S
C2162 C2148 1.377 . S
C2162 C2161 1.373 . S
C2163 C2147 1.377 . S
C2163 C2161 1.389 . S
C2163 C2164 1.524 . S
C2164 C2163 1.524 . S
C2164 C2165 1.397 . S
C2164 C2169 1.363 . S
C2165 H2136 0.950 . S
C2165 C2164 1.397 . S
C2165 C2166 1.334 . S
C2166 H2137 0.950 . S
C2166 C2165 1.334 . S
C2166 C2167 1.287 . S
C2167 C2166 1.287 . S
C2167 C2168 1.524 . S
C2167 H2170 0.999 . S
C2168 H2138 0.950 . S
C2168 C2167 1.524 . S
C2168 C2169 1.415 . S
C2169 H2139 0.950 . S
C2169 C2164 1.363 . S
C2169 C2168 1.415 . S
H2170 C2167 0.999 . S
H2171 C2152 0.913 . S
H2172 C2190 0.951 . S
H2173 C2192 0.951 . S
H2174 C2194 0.950 . S
H2175 C2195 0.950 . S
H2176 C2197 0.950 . S
H2177 C2200 0.950 . S
H2178 C2201 0.950 . S
H2179 C2203 0.950 . S
H2180 C2204 0.950 . S
H2181 C2205 0.951 . S
H2182 C2207 0.951 . S
H2183 C2209 0.950 . S
H2184 C2210 0.950 . S
H2185 C2212 0.950 . S
H2186 C2215 0.950 . S
H2187 C2216 0.950 . S
H2188 C2218 0.950 . S
H2189 C2219 0.950 . S
C2190 H2172 0.951 . S
C2190 C2191 1.366 . S
C2190 C2192 1.388 . S
C2191 C2190 1.366 . S
C2191 C2195 1.385 . S
C2192 H2173 0.951 . S
C2192 C2190 1.388 . S
C2192 C2193 1.366 . S
C2193 C2192 1.366 . S
C2193 C2194 1.414 . S
C2193 C2196 1.499 . S
C2194 H2174 0.950 . S
C2194 C2193 1.414 . S
C2194 C2195 1.374 . S
C2195 H2175 0.950 . S
C2195 C2191 1.385 . S
C2195 C2194 1.374 . S
C2196 C2193 1.499 . S
C2196 C2197 1.373 . S
C2196 C2198 1.389 . S
C2197 H2176 0.950 . S
C2197 C2196 1.373 . S
C2197 C2213 1.377 . S
C2198 C2196 1.389 . S
C2198 C2199 1.524 . S
C2198 C2212 1.377 . S
C2199 C2198 1.524 . S
C2199 C2200 1.397 . S
C2199 C2204 1.363 . S
C2200 H2177 0.950 . S
C2200 C2199 1.397 . S
C2200 C2201 1.334 . S
C2201 H2178 0.950 . S
C2201 C2200 1.334 . S
C2201 C2202 1.287 . S
C2202 C2201 1.287 . S
C2202 C2203 1.524 . S
C2202 H2221 0.913 . S
C2203 H2179 0.950 . S
C2203 C2202 1.524 . S
C2203 C2204 1.415 . S
C2204 H2180 0.950 . S
C2204 C2199 1.363 . S
C2204 C2203 1.415 . S
C2205 H2181 0.951 . S
C2205 C2206 1.366 . S
C2205 C2207 1.388 . S
C2206 C2205 1.366 . S
C2206 C2210 1.385 . S
C2207 H2182 0.951 . S
C2207 C2205 1.388 . S
C2207 C2208 1.366 . S
C2208 C2207 1.366 . S
C2208 C2209 1.414 . S
C2208 C2211 1.499 . S
C2209 H2183 0.950 . S
C2209 C2208 1.414 . S
C2209 C2210 1.374 . S
C2210 H2184 0.950 . S
C2210 C2206 1.385 . S
C2210 C2209 1.374 . S
C2211 C2208 1.499 . S
C2211 C2212 1.373 . S
C2211 C2213 1.389 . S
C2212 H2185 0.950 . S
C2212 C2198 1.377 . S
C2212 C2211 1.373 . S
C2213 C2197 1.377 . S
C2213 C2211 1.389 . S
C2213 C2214 1.524 . S
C2214 C2213 1.524 . S
C2214 C2215 1.397 . S
C2214 C2219 1.363 . S
C2215 H2186 0.950 . S
C2215 C2214 1.397 . S
C2215 C2216 1.334 . S
C2216 H2187 0.950 . S
C2216 C2215 1.334 . S
C2216 C2217 1.287 . S
C2217 C2216 1.287 . S
C2217 C2218 1.524 . S
C2217 H2220 0.999 . S
C2218 H2188 0.950 . S
C2218 C2217 1.524 . S
C2218 C2219 1.415 . S
C2219 H2189 0.950 . S
C2219 C2214 1.363 . S
C2219 C2218 1.415 . S
H2220 C2217 0.999 . S
H2221 C2202 0.913 . S
H2222 C2240 0.951 . S
H2223 C2242 0.951 . S
H2224 C2244 0.950 . S
H2225 C2245 0.950 . S
H2226 C2247 0.950 . S
H2227 C2250 0.950 . S
H2228 C2251 0.950 . S
H2229 C2253 0.950 . S
H2230 C2254 0.950 . S
H2231 C2255 0.951 . S
H2232 C2257 0.951 . S
H2233 C2259 0.950 . S
H2234 C2260 0.950 . S
H2235 C2262 0.950 . S
H2236 C2265 0.950 . S
H2237 C2266 0.950 . S
H2238 C2268 0.950 . S
H2239 C2269 0.950 . S
C2240 H2222 0.951 . S
C2240 C2241 1.366 . S
C2240 C2242 1.388 . S
C2241 C2240 1.366 . S
C2241 C2245 1.385 . S
C2242 H2223 0.951 . S
C2242 C2240 1.388 . S
C2242 C2243 1.366 . S
C2243 C2242 1.366 . S
C2243 C2244 1.414 . S
C2243 C2246 1.499 . S
C2244 H2224 0.950 . S
C2244 C2243 1.414 . S
C2244 C2245 1.374 . S
C2245 H2225 0.950 . S
C2245 C2241 1.385 . S
C2245 C2244 1.374 . S
C2246 C2243 1.499 . S
C2246 C2247 1.373 . S
C2246 C2248 1.389 . S
C2247 H2226 0.950 . S
C2247 C2246 1.373 . S
C2247 C2263 1.377 . S
C2248 C2246 1.389 . S
C2248 C2249 1.524 . S
C2248 C2262 1.377 . S
C2249 C2248 1.524 . S
C2249 C2250 1.397 . S
C2249 C2254 1.363 . S
C2250 H2227 0.950 . S
C2250 C2249 1.397 . S
C2250 C2251 1.334 . S
C2251 H2228 0.950 . S
C2251 C2250 1.334 . S
C2251 C2252 1.287 . S
C2252 C2251 1.287 . S
C2252 C2253 1.524 . S
C2252 H2271 0.913 . S
C2253 H2229 0.950 . S
C2253 C2252 1.524 . S
C2253 C2254 1.415 . S
C2254 H2230 0.950 . S
C2254 C2249 1.363 . S
C2254 C2253 1.415 . S
C2255 H2231 0.951 . S
C2255 C2256 1.366 . S
C2255 C2257 1.388 . S
C2256 C2255 1.366 . S
C2256 C2260 1.385 . S
C2257 H2232 0.951 . S
C2257 C2255 1.388 . S
C2257 C2258 1.366 . S
C2258 C2257 1.366 . S
C2258 C2259 1.414 . S
C2258 C2261 1.499 . S
C2259 H2233 0.950 . S
C2259 C2258 1.414 . S
C2259 C2260 1.374 . S
C2260 H2234 0.950 . S
C2260 C2256 1.385 . S
C2260 C2259 1.374 . S
C2261 C2258 1.499 . S
C2261 C2262 1.373 . S
C2261 C2263 1.389 . S
C2262 H2235 0.950 . S
C2262 C2248 1.377 . S
C2262 C2261 1.373 . S
C2263 C2247 1.377 . S
C2263 C2261 1.389 . S
C2263 C2264 1.524 . S
C2264 C2263 1.524 . S
C2264 C2265 1.397 . S
C2264 C2269 1.363 . S
C2265 H2236 0.950 . S
C2265 C2264 1.397 . S
C2265 C2266 1.334 . S
C2266 H2237 0.950 . S
C2266 C2265 1.334 . S
C2266 C2267 1.287 . S
C2267 C2266 1.287 . S
C2267 C2268 1.524 . S
C2267 H2270 0.999 . S
C2268 H2238 0.950 . S
C2268 C2267 1.524 . S
C2268 C2269 1.415 . S
C2269 H2239 0.950 . S
C2269 C2264 1.363 . S
C2269 C2268 1.415 . S
H2270 C2267 0.999 . S
H2271 C2252 0.913 . S
H2272 C2290 0.951 . S
H2273 C2292 0.951 . S
H2274 C2294 0.950 . S
H2275 C2295 0.950 . S
H2276 C2297 0.950 . S
H2277 C2300 0.950 . S
H2278 C2301 0.950 . S
H2279 C2303 0.950 . S
H2280 C2304 0.950 . S
H2281 C2305 0.951 . S
H2282 C2307 0.951 . S
H2283 C2309 0.950 . S
H2284 C2310 0.950 . S
H2285 C2312 0.950 . S
H2286 C2315 0.950 . S
H2287 C2316 0.950 . S
H2288 C2318 0.950 . S
H2289 C2319 0.950 . S
C2290 H2272 0.951 . S
C2290 C2291 1.366 . S
C2290 C2292 1.388 . S
C2291 C2290 1.366 . S
C2291 C2295 1.385 . S
C2292 H2273 0.951 . S
C2292 C2290 1.388 . S
C2292 C2293 1.366 . S
C2293 C2292 1.366 . S
C2293 C2294 1.414 . S
C2293 C2296 1.499 . S
C2294 H2274 0.950 . S
C2294 C2293 1.414 . S
C2294 C2295 1.374 . S
C2295 H2275 0.950 . S
C2295 C2291 1.385 . S
C2295 C2294 1.374 . S
C2296 C2293 1.499 . S
C2296 C2297 1.373 . S
C2296 C2298 1.389 . S
C2297 H2276 0.950 . S
C2297 C2296 1.373 . S
C2297 C2313 1.377 . S
C2298 C2296 1.389 . S
C2298 C2299 1.524 . S
C2298 C2312 1.377 . S
C2299 C2298 1.524 . S
C2299 C2300 1.397 . S
C2299 C2304 1.363 . S
C2300 H2277 0.950 . S
C2300 C2299 1.397 . S
C2300 C2301 1.334 . S
C2301 H2278 0.950 . S
C2301 C2300 1.334 . S
C2301 C2302 1.287 . S
C2302 C2301 1.287 . S
C2302 C2303 1.524 . S
C2302 H2321 0.913 . S
C2303 H2279 0.950 . S
C2303 C2302 1.524 . S
C2303 C2304 1.415 . S
C2304 H2280 0.950 . S
C2304 C2299 1.363 . S
C2304 C2303 1.415 . S
C2305 H2281 0.951 . S
C2305 C2306 1.366 . S
C2305 C2307 1.388 . S
C2306 C2305 1.366 . S
C2306 C2310 1.385 . S
C2307 H2282 0.951 . S
C2307 C2305 1.388 . S
C2307 C2308 1.366 . S
C2308 C2307 1.366 . S
C2308 C2309 1.414 . S
C2308 C2311 1.499 . S
C2309 H2283 0.950 . S
C2309 C2308 1.414 . S
C2309 C2310 1.374 . S
C2310 H2284 0.950 . S
C2310 C2306 1.385 . S
C2310 C2309 1.374 . S
C2311 C2308 1.499 . S
C2311 C2312 1.373 . S
C2311 C2313 1.389 . S
C2312 H2285 0.950 . S
C2312 C2298 1.377 . S
C2312 C2311 1.373 . S
C2313 C2297 1.377 . S
C2313 C2311 1.389 . S
C2313 C2314 1.524 . S
C2314 C2313 1.524 . S
C2314 C2315 1.397 . S
C2314 C2319 1.363 . S
C2315 H2286 0.950 . S
C2315 C2314 1.397 . S
C2315 C2316 1.334 . S
C2316 H2287 0.950 . S
C2316 C2315 1.334 . S
C2316 C2317 1.287 . S
C2317 C2316 1.287 . S
C2317 C2318 1.524 . S
C2317 H2320 0.999 . S
C2318 H2288 0.950 . S
C2318 C2317 1.524 . S
C2318 C2319 1.415 . S
C2319 H2289 0.950 . S
C2319 C2314 1.363 . S
C2319 C2318 1.415 . S
H2320 C2317 0.999 . S
H2321 C2302 0.913 . S
H2322 C2340 0.951 . S
H2323 C2342 0.951 . S
H2324 C2344 0.950 . S
H2325 C2345 0.950 . S
H2326 C2347 0.950 . S
H2327 C2350 0.950 . S
H2328 C2351 0.950 . S
H2329 C2353 0.950 . S
H2330 C2354 0.950 . S
H2331 C2355 0.951 . S
H2332 C2357 0.951 . S
H2333 C2359 0.950 . S
H2334 C2360 0.950 . S
H2335 C2362 0.950 . S
H2336 C2365 0.950 . S
H2337 C2366 0.950 . S
H2338 C2368 0.950 . S
H2339 C2369 0.950 . S
C2340 H2322 0.951 . S
C2340 C2341 1.366 . S
C2340 C2342 1.388 . S
C2341 C2340 1.366 . S
C2341 C2345 1.385 . S
C2342 H2323 0.951 . S
C2342 C2340 1.388 . S
C2342 C2343 1.366 . S
C2343 C2342 1.366 . S
C2343 C2344 1.414 . S
C2343 C2346 1.499 . S
C2344 H2324 0.950 . S
C2344 C2343 1.414 . S
C2344 C2345 1.374 . S
C2345 H2325 0.950 . S
C2345 C2341 1.385 . S
C2345 C2344 1.374 . S
C2346 C2343 1.499 . S
C2346 C2347 1.373 . S
C2346 C2348 1.389 . S
C2347 H2326 0.950 . S
C2347 C2346 1.373 . S
C2347 C2363 1.377 . S
C2348 C2346 1.389 . S
C2348 C2349 1.524 . S
C2348 C2362 1.377 . S
C2349 C2348 1.524 . S
C2349 C2350 1.397 . S
C2349 C2354 1.363 . S
C2350 H2327 0.950 . S
C2350 C2349 1.397 . S
C2350 C2351 1.334 . S
C2351 H2328 0.950 . S
C2351 C2350 1.334 . S
C2351 C2352 1.287 . S
C2352 C2351 1.287 . S
C2352 C2353 1.524 . S
C2352 H2371 0.913 . S
C2353 H2329 0.950 . S
C2353 C2352 1.524 . S
C2353 C2354 1.415 . S
C2354 H2330 0.950 . S
C2354 C2349 1.363 . S
C2354 C2353 1.415 . S
C2355 H2331 0.951 . S
C2355 C2356 1.366 . S
C2355 C2357 1.388 . S
C2356 C2355 1.366 . S
C2356 C2360 1.385 . S
C2357 H2332 0.951 . S
C2357 C2355 1.388 . S
C2357 C2358 1.366 . S
C2358 C2357 1.366 . S
C2358 C2359 1.414 . S
C2358 C2361 1.499 . S
C2359 H2333 0.950 . S
C2359 C2358 1.414 . S
C2359 C2360 1.374 . S
C2360 H2334 0.950 . S
C2360 C2356 1.385 . S
C2360 C2359 1.374 . S
C2361 C2358 1.499 . S
C2361 C2362 1.373 . S
C2361 C2363 1.389 . S
C2362 H2335 0.950 . S
C2362 C2348 1.377 . S
C2362 C2361 1.373 . S
C2363 C2347 1.377 . S
C2363 C2361 1.389 . S
C2363 C2364 1.524 . S
C2364 C2363 1.524 . S
C2364 C2365 1.397 . S
C2364 C2369 1.363 . S
C2365 H2336 0.950 . S
C2365 C2364 1.397 . S
C2365 C2366 1.334 . S
C2366 H2337 0.950 . S
C2366 C2365 1.334 . S
C2366 C2367 1.287 . S
C2367 C2366 1.287 . S
C2367 C2368 1.524 . S
C2367 H2370 0.999 . S
C2368 H2338 0.950 . S
C2368 C2367 1.524 . S
C2368 C2369 1.415 . S
C2369 H2339 0.950 . S
C2369 C2364 1.363 . S
C2369 C2368 1.415 . S
H2370 C2367 0.999 . S
H2371 C2352 0.913 . S
H2372 C2390 0.951 . S
H2373 C2392 0.951 . S
H2374 C2394 0.950 . S
H2375 C2395 0.950 . S
H2376 C2397 0.950 . S
H2377 C2400 0.950 . S
H2378 C2401 0.950 . S
H2379 C2403 0.950 . S
H2380 C2404 0.950 . S
H2381 C2405 0.951 . S
H2382 C2407 0.951 . S
H2383 C2409 0.950 . S
H2384 C2410 0.950 . S
H2385 C2412 0.950 . S
H2386 C2415 0.950 . S
H2387 C2416 0.950 . S
H2388 C2418 0.950 . S
H2389 C2419 0.950 . S
C2390 H2372 0.951 . S
C2390 C2391 1.366 . S
C2390 C2392 1.388 . S
C2391 C2390 1.366 . S
C2391 C2395 1.385 . S
C2392 H2373 0.951 . S
C2392 C2390 1.388 . S
C2392 C2393 1.366 . S
C2393 C2392 1.366 . S
C2393 C2394 1.414 . S
C2393 C2396 1.499 . S
C2394 H2374 0.950 . S
C2394 C2393 1.414 . S
C2394 C2395 1.374 . S
C2395 H2375 0.950 . S
C2395 C2391 1.385 . S
C2395 C2394 1.374 . S
C2396 C2393 1.499 . S
C2396 C2397 1.373 . S
C2396 C2398 1.389 . S
C2397 H2376 0.950 . S
C2397 C2396 1.373 . S
C2397 C2413 1.377 . S
C2398 C2396 1.389 . S
C2398 C2399 1.524 . S
C2398 C2412 1.377 . S
C2399 C2398 1.524 . S
C2399 C2400 1.397 . S
C2399 C2404 1.363 . S
C2400 H2377 0.950 . S
C2400 C2399 1.397 . S
C2400 C2401 1.334 . S
C2401 H2378 0.950 . S
C2401 C2400 1.334 . S
C2401 C2402 1.287 . S
C2402 C2401 1.287 . S
C2402 C2403 1.524 . S
C2402 H2421 0.913 . S
C2403 H2379 0.950 . S
C2403 C2402 1.524 . S
C2403 C2404 1.415 . S
C2404 H2380 0.950 . S
C2404 C2399 1.363 . S
C2404 C2403 1.415 . S
C2405 H2381 0.951 . S
C2405 C2406 1.366 . S
C2405 C2407 1.388 . S
C2406 C2405 1.366 . S
C2406 C2410 1.385 . S
C2407 H2382 0.951 . S
C2407 C2405 1.388 . S
C2407 C2408 1.366 . S
C2408 C2407 1.366 . S
C2408 C2409 1.414 . S
C2408 C2411 1.499 . S
C2409 H2383 0.950 . S
C2409 C2408 1.414 . S
C2409 C2410 1.374 . S
C2410 H2384 0.950 . S
C2410 C2406 1.385 . S
C2410 C2409 1.374 . S
C2411 C2408 1.499 . S
C2411 C2412 1.373 . S
C2411 C2413 1.389 . S
C2412 H2385 0.950 . S
C2412 C2398 1.377 . S
C2412 C2411 1.373 . S
C2413 C2397 1.377 . S
C2413 C2411 1.389 . S
C2413 C2414 1.524 . S
C2414 C2413 1.524 . S
C2414 C2415 1.397 . S
C2414 C2419 1.363 . S
C2415 H2386 0.950 . S
C2415 C2414 1.397 . S
C2415 C2416 1.334 . S
C2416 H2387 0.950 . S
C2416 C2415 1.334 . S
C2416 C2417 1.287 . S
C2417 C2416 1.287 . S
C2417 C2418 1.524 . S
C2417 H2420 0.999 . S
C2418 H2388 0.950 . S
C2418 C2417 1.524 . S
C2418 C2419 1.415 . S
C2419 H2389 0.950 . S
C2419 C2414 1.363 . S
C2419 C2418 1.415 . S
H2420 C2417 0.999 . S
H2421 C2402 0.913 . S
H2422 C2440 0.951 . S
H2423 C2442 0.951 . S
H2424 C2444 0.950 . S
H2425 C2445 0.950 . S
H2426 C2447 0.950 . S
H2427 C2450 0.950 . S
H2428 C2451 0.950 . S
H2429 C2453 0.950 . S
H2430 C2454 0.950 . S
H2431 C2455 0.951 . S
H2432 C2457 0.951 . S
H2433 C2459 0.950 . S
H2434 C2460 0.950 . S
H2435 C2462 0.950 . S
H2436 C2465 0.950 . S
H2437 C2466 0.950 . S
H2438 C2468 0.950 . S
H2439 C2469 0.950 . S
C2440 H2422 0.951 . S
C2440 C2441 1.366 . S
C2440 C2442 1.388 . S
C2441 C2440 1.366 . S
C2441 C2445 1.385 . S
C2442 H2423 0.951 . S
C2442 C2440 1.388 . S
C2442 C2443 1.366 . S
C2443 C2442 1.366 . S
C2443 C2444 1.414 . S
C2443 C2446 1.499 . S
C2444 H2424 0.950 . S
C2444 C2443 1.414 . S
C2444 C2445 1.374 . S
C2445 H2425 0.950 . S
C2445 C2441 1.385 . S
C2445 C2444 1.374 . S
C2446 C2443 1.499 . S
C2446 C2447 1.373 . S
C2446 C2448 1.389 . S
C2447 H2426 0.950 . S
C2447 C2446 1.373 . S
C2447 C2463 1.377 . S
C2448 C2446 1.389 . S
C2448 C2449 1.524 . S
C2448 C2462 1.377 . S
C2449 C2448 1.524 . S
C2449 C2450 1.397 . S
C2449 C2454 1.363 . S
C2450 H2427 0.950 . S
C2450 C2449 1.397 . S
C2450 C2451 1.334 . S
C2451 H2428 0.950 . S
C2451 C2450 1.334 . S
C2451 C2452 1.287 . S
C2452 C2451 1.287 . S
C2452 C2453 1.524 . S
C2452 H2471 0.913 . S
C2453 H2429 0.950 . S
C2453 C2452 1.524 . S
C2453 C2454 1.415 . S
C2454 H2430 0.950 . S
C2454 C2449 1.363 . S
C2454 C2453 1.415 . S
C2455 H2431 0.951 . S
C2455 C2456 1.366 . S
C2455 C2457 1.388 . S
C2456 C2455 1.366 . S
C2456 C2460 1.385 . S
C2457 H2432 0.951 . S
C2457 C2455 1.388 . S
C2457 C2458 1.366 . S
C2458 C2457 1.366 . S
C2458 C2459 1.414 . S
C2458 C2461 1.499 . S
C2459 H2433 0.950 . S
C2459 C2458 1.414 . S
C2459 C2460 1.374 . S
C2460 H2434 0.950 . S
C2460 C2456 1.385 . S
C2460 C2459 1.374 . S
C2461 C2458 1.499 . S
C2461 C2462 1.373 . S
C2461 C2463 1.389 . S
C2462 H2435 0.950 . S
C2462 C2448 1.377 . S
C2462 C2461 1.373 . S
C2463 C2447 1.377 . S
C2463 C2461 1.389 . S
C2463 C2464 1.524 . S
C2464 C2463 1.524 . S
C2464 C2465 1.397 . S
C2464 C2469 1.363 . S
C2465 H2436 0.950 . S
C2465 C2464 1.397 . S
C2465 C2466 1.334 . S
C2466 H2437 0.950 . S
C2466 C2465 1.334 . S
C2466 C2467 1.287 . S
C2467 C2466 1.287 . S
C2467 C2468 1.524 . S
C2467 H2470 0.999 . S
C2468 H2438 0.950 . S
C2468 C2467 1.524 . S
C2468 C2469 1.415 . S
C2469 H2439 0.950 . S
C2469 C2464 1.363 . S
C2469 C2468 1.415 . S
H2470 C2467 0.999 . S
H2471 C2452 0.913 . S
H2472 C2490 0.951 . S
H2473 C2492 0.951 . S
H2474 C2494 0.950 . S
H2475 C2495 0.950 . S
H2476 C2497 0.950 . S
H2477 C2500 0.950 . S
H2478 C2501 0.950 . S
H2479 C2503 0.950 . S
H2480 C2504 0.950 . S
H2481 C2505 0.951 . S
H2482 C2507 0.951 . S
H2483 C2509 0.950 . S
H2484 C2510 0.950 . S
H2485 C2512 0.950 . S
H2486 C2515 0.950 . S
H2487 C2516 0.950 . S
H2488 C2518 0.950 . S
H2489 C2519 0.950 . S
C2490 H2472 0.951 . S
C2490 C2491 1.366 . S
C2490 C2492 1.388 . S
C2491 C2490 1.366 . S
C2491 C2495 1.385 . S
C2492 H2473 0.951 . S
C2492 C2490 1.388 . S
C2492 C2493 1.366 . S
C2493 C2492 1.366 . S
C2493 C2494 1.414 . S
C2493 C2496 1.499 . S
C2494 H2474 0.950 . S
C2494 C2493 1.414 . S
C2494 C2495 1.374 . S
C2495 H2475 0.950 . S
C2495 C2491 1.385 . S
C2495 C2494 1.374 . S
C2496 C2493 1.499 . S
C2496 C2497 1.373 . S
C2496 C2498 1.389 . S
C2497 H2476 0.950 . S
C2497 C2496 1.373 . S
C2497 C2513 1.377 . S
C2498 C2496 1.389 . S
C2498 C2499 1.524 . S
C2498 C2512 1.377 . S
C2499 C2498 1.524 . S
C2499 C2500 1.397 . S
C2499 C2504 1.363 . S
C2500 H2477 0.950 . S
C2500 C2499 1.397 . S
C2500 C2501 1.334 . S
C2501 H2478 0.950 . S
C2501 C2500 1.334 . S
C2501 C2502 1.287 . S
C2502 C2501 1.287 . S
C2502 C2503 1.524 . S
C2502 H2521 0.913 . S
C2503 H2479 0.950 . S
C2503 C2502 1.524 . S
C2503 C2504 1.415 . S
C2504 H2480 0.950 . S
C2504 C2499 1.363 . S
C2504 C2503 1.415 . S
C2505 H2481 0.951 . S
C2505 C2506 1.366 . S
C2505 C2507 1.388 . S
C2506 C2505 1.366 . S
C2506 C2510 1.385 . S
C2507 H2482 0.951 . S
C2507 C2505 1.388 . S
C2507 C2508 1.366 . S
C2508 C2507 1.366 . S
C2508 C2509 1.414 . S
C2508 C2511 1.499 . S
C2509 H2483 0.950 . S
C2509 C2508 1.414 . S
C2509 C2510 1.374 . S
C2510 H2484 0.950 . S
C2510 C2506 1.385 . S
C2510 C2509 1.374 . S
C2511 C2508 1.499 . S
C2511 C2512 1.373 . S
C2511 C2513 1.389 . S
C2512 H2485 0.950 . S
C2512 C2498 1.377 . S
C2512 C2511 1.373 . S
C2513 C2497 1.377 . S
C2513 C2511 1.389 . S
C2513 C2514 1.524 . S
C2514 C2513 1.524 . S
C2514 C2515 1.397 . S
C2514 C2519 1.363 . S
C2515 H2486 0.950 . S
C2515 C2514 1.397 . S
C2515 C2516 1.334 . S
C2516 H2487 0.950 . S
C2516 C2515 1.334 . S
C2516 C2517 1.287 . S
C2517 C2516 1.287 . S
C2517 C2518 1.524 . S
C2517 H2520 0.999 . S
C2518 H2488 0.950 . S
C2518 C2517 1.524 . S
C2518 C2519 1.415 . S
C2519 H2489 0.950 . S
C2519 C2514 1.363 . S
C2519 C2518 1.415 . S
H2520 C2517 0.999 . S
H2521 C2502 0.913 . S
H2522 C2540 0.951 . S
H2523 C2542 0.951 . S
H2524 C2544 0.950 . S
H2525 C2545 0.950 . S
H2526 C2547 0.950 . S
H2527 C2550 0.950 . S
H2528 C2551 0.950 . S
H2529 C2553 0.950 . S
H2530 C2554 0.950 . S
H2531 C2555 0.951 . S
H2532 C2557 0.951 . S
H2533 C2559 0.950 . S
H2534 C2560 0.950 . S
H2535 C2562 0.950 . S
H2536 C2565 0.950 . S
H2537 C2566 0.950 . S
H2538 C2568 0.950 . S
H2539 C2569 0.950 . S
C2540 H2522 0.951 . S
C2540 C2541 1.366 . S
C2540 C2542 1.388 . S
C2541 C2540 1.366 . S
C2541 C2545 1.385 . S
C2542 H2523 0.951 . S
C2542 C2540 1.388 . S
C2542 C2543 1.366 . S
C2543 C2542 1.366 . S
C2543 C2544 1.414 . S
C2543 C2546 1.499 . S
C2544 H2524 0.950 . S
C2544 C2543 1.414 . S
C2544 C2545 1.374 . S
C2545 H2525 0.950 . S
C2545 C2541 1.385 . S
C2545 C2544 1.374 . S
C2546 C2543 1.499 . S
C2546 C2547 1.373 . S
C2546 C2548 1.389 . S
C2547 H2526 0.950 . S
C2547 C2546 1.373 . S
C2547 C2563 1.377 . S
C2548 C2546 1.389 . S
C2548 C2549 1.524 . S
C2548 C2562 1.377 . S
C2549 C2548 1.524 . S
C2549 C2550 1.397 . S
C2549 C2554 1.363 . S
C2550 H2527 0.950 . S
C2550 C2549 1.397 . S
C2550 C2551 1.334 . S
C2551 H2528 0.950 . S
C2551 C2550 1.334 . S
C2551 C2552 1.287 . S
C2552 C2551 1.287 . S
C2552 C2553 1.524 . S
C2552 H2571 0.913 . S
C2553 H2529 0.950 . S
C2553 C2552 1.524 . S
C2553 C2554 1.415 . S
C2554 H2530 0.950 . S
C2554 C2549 1.363 . S
C2554 C2553 1.415 . S
C2555 H2531 0.951 . S
C2555 C2556 1.366 . S
C2555 C2557 1.388 . S
C2556 C2555 1.366 . S
C2556 C2560 1.385 . S
C2557 H2532 0.951 . S
C2557 C2555 1.388 . S
C2557 C2558 1.366 . S
C2558 C2557 1.366 . S
C2558 C2559 1.414 . S
C2558 C2561 1.499 . S
C2559 H2533 0.950 . S
C2559 C2558 1.414 . S
C2559 C2560 1.374 . S
C2560 H2534 0.950 . S
C2560 C2556 1.385 . S
C2560 C2559 1.374 . S
C2561 C2558 1.499 . S
C2561 C2562 1.373 . S
C2561 C2563 1.389 . S
C2562 H2535 0.950 . S
C2562 C2548 1.377 . S
C2562 C2561 1.373 . S
C2563 C2547 1.377 . S
C2563 C2561 1.389 . S
C2563 C2564 1.524 . S
C2564 C2563 1.524 . S
C2564 C2565 1.397 . S
C2564 C2569 1.363 . S
C2565 H2536 0.950 . S
C2565 C2564 1.397 . S
C2565 C2566 1.334 . S
C2566 H2537 0.950 . S
C2566 C2565 1.334 . S
C2566 C2567 1.287 . S
C2567 C2566 1.287 . S
C2567 C2568 1.524 . S
C2567 H2570 0.999 . S
C2568 H2538 0.950 . S
C2568 C2567 1.524 . S
C2568 C2569 1.415 . S
C2569 H2539 0.950 . S
C2569 C2564 1.363 . S
C2569 C2568 1.415 . S
H2570 C2567 0.999 . S
H2571 C2552 0.913 . S
H2572 C2590 0.951 . S
H2573 C2592 0.951 . S
H2574 C2594 0.950 . S
H2575 C2595 0.950 . S
H2576 C2597 0.950 . S
H2577 C2600 0.950 . S
H2578 C2601 0.950 . S
H2579 C2603 0.950 . S
H2580 C2604 0.950 . S
H2581 C2605 0.951 . S
H2582 C2607 0.951 . S
H2583 C2609 0.950 . S
H2584 C2610 0.950 . S
H2585 C2612 0.950 . S
H2586 C2615 0.950 . S
H2587 C2616 0.950 . S
H2588 C2618 0.950 . S
H2589 C2619 0.950 . S
C2590 H2572 0.951 . S
C2590 C2591 1.366 . S
C2590 C2592 1.388 . S
C2591 C2590 1.366 . S
C2591 C2595 1.385 . S
C2592 H2573 0.951 . S
C2592 C2590 1.388 . S
C2592 C2593 1.366 . S
C2593 C2592 1.366 . S
C2593 C2594 1.414 . S
C2593 C2596 1.499 . S
C2594 H2574 0.950 . S
C2594 C2593 1.414 . S
C2594 C2595 1.374 . S
C2595 H2575 0.950 . S
C2595 C2591 1.385 . S
C2595 C2594 1.374 . S
C2596 C2593 1.499 . S
C2596 C2597 1.373 . S
C2596 C2598 1.389 . S
C2597 H2576 0.950 . S
C2597 C2596 1.373 . S
C2597 C2613 1.377 . S
C2598 C2596 1.389 . S
C2598 C2599 1.524 . S
C2598 C2612 1.377 . S
C2599 C2598 1.524 . S
C2599 C2600 1.397 . S
C2599 C2604 1.363 . S
C2600 H2577 0.950 . S
C2600 C2599 1.397 . S
C2600 C2601 1.334 . S
C2601 H2578 0.950 . S
C2601 C2600 1.334 . S
C2601 C2602 1.287 . S
C2602 C2601 1.287 . S
C2602 C2603 1.524 . S
C2602 H2621 0.913 . S
C2603 H2579 0.950 . S
C2603 C2602 1.524 . S
C2603 C2604 1.415 . S
C2604 H2580 0.950 . S
C2604 C2599 1.363 . S
C2604 C2603 1.415 . S
C2605 H2581 0.951 . S
C2605 C2606 1.366 . S
C2605 C2607 1.388 . S
C2606 C2605 1.366 . S
C2606 C2610 1.385 . S
C2607 H2582 0.951 . S
C2607 C2605 1.388 . S
C2607 C2608 1.366 . S
C2608 C2607 1.366 . S
C2608 C2609 1.414 . S
C2608 C2611 1.499 . S
C2609 H2583 0.950 . S
C2609 C2608 1.414 . S
C2609 C2610 1.374 . S
C2610 H2584 0.950 . S
C2610 C2606 1.385 . S
C2610 C2609 1.374 . S
C2611 C2608 1.499 . S
C2611 C2612 1.373 . S
C2611 C2613 1.389 . S
C2612 H2585 0.950 . S
C2612 C2598 1.377 . S
C2612 C2611 1.373 . S
C2613 C2597 1.377 . S
C2613 C2611 1.389 . S
C2613 C2614 1.524 . S
C2614 C2613 1.524 . S
C2614 C2615 1.397 . S
C2614 C2619 1.363 . S
C2615 H2586 0.950 . S
C2615 C2614 1.397 . S
C2615 C2616 1.334 . S
C2616 H2587 0.950 . S
C2616 C2615 1.334 . S
C2616 C2617 1.287 . S
C2617 C2616 1.287 . S
C2617 C2618 1.524 . S
C2617 H2620 0.999 . S
C2618 H2588 0.950 . S
C2618 C2617 1.524 . S
C2618 C2619 1.415 . S
C2619 H2589 0.950 . S
C2619 C2614 1.363 . S
C2619 C2618 1.415 . S
H2620 C2617 0.999 . S
H2621 C2602 0.913 . S
H2622 C2640 0.951 . S
H2623 C2642 0.951 . S
H2624 C2644 0.950 . S
H2625 C2645 0.950 . S
H2626 C2647 0.950 . S
H2627 C2650 0.950 . S
H2628 C2651 0.950 . S
H2629 C2653 0.950 . S
H2630 C2654 0.950 . S
H2631 C2655 0.951 . S
H2632 C2657 0.951 . S
H2633 C2659 0.950 . S
H2634 C2660 0.950 . S
H2635 C2662 0.950 . S
H2636 C2665 0.950 . S
H2637 C2666 0.950 . S
H2638 C2668 0.950 . S
H2639 C2669 0.950 . S
C2640 H2622 0.951 . S
C2640 C2641 1.366 . S
C2640 C2642 1.388 . S
C2641 C2640 1.366 . S
C2641 C2645 1.385 . S
C2642 H2623 0.951 . S
C2642 C2640 1.388 . S
C2642 C2643 1.366 . S
C2643 C2642 1.366 . S
C2643 C2644 1.414 . S
C2643 C2646 1.499 . S
C2644 H2624 0.950 . S
C2644 C2643 1.414 . S
C2644 C2645 1.374 . S
C2645 H2625 0.950 . S
C2645 C2641 1.385 . S
C2645 C2644 1.374 . S
C2646 C2643 1.499 . S
C2646 C2647 1.373 . S
C2646 C2648 1.389 . S
C2647 H2626 0.950 . S
C2647 C2646 1.373 . S
C2647 C2663 1.377 . S
C2648 C2646 1.389 . S
C2648 C2649 1.524 . S
C2648 C2662 1.377 . S
C2649 C2648 1.524 . S
C2649 C2650 1.397 . S
C2649 C2654 1.363 . S
C2650 H2627 0.950 . S
C2650 C2649 1.397 . S
C2650 C2651 1.334 . S
C2651 H2628 0.950 . S
C2651 C2650 1.334 . S
C2651 C2652 1.287 . S
C2652 C2651 1.287 . S
C2652 C2653 1.524 . S
C2652 H2671 0.913 . S
C2653 H2629 0.950 . S
C2653 C2652 1.524 . S
C2653 C2654 1.415 . S
C2654 H2630 0.950 . S
C2654 C2649 1.363 . S
C2654 C2653 1.415 . S
C2655 H2631 0.951 . S
C2655 C2656 1.366 . S
C2655 C2657 1.388 . S
C2656 C2655 1.366 . S
C2656 C2660 1.385 . S
C2657 H2632 0.951 . S
C2657 C2655 1.388 . S
C2657 C2658 1.366 . S
C2658 C2657 1.366 . S
C2658 C2659 1.414 . S
C2658 C2661 1.499 . S
C2659 H2633 0.950 . S
C2659 C2658 1.414 . S
C2659 C2660 1.374 . S
C2660 H2634 0.950 . S
C2660 C2656 1.385 . S
C2660 C2659 1.374 . S
C2661 C2658 1.499 . S
C2661 C2662 1.373 . S
C2661 C2663 1.389 . S
C2662 H2635 0.950 . S
C2662 C2648 1.377 . S
C2662 C2661 1.373 . S
C2663 C2647 1.377 . S
C2663 C2661 1.389 . S
C2663 C2664 1.524 . S
C2664 C2663 1.524 . S
C2664 C2665 1.397 . S
C2664 C2669 1.363 . S
C2665 H2636 0.950 . S
C2665 C2664 1.397 . S
C2665 C2666 1.334 . S
C2666 H2637 0.950 . S
C2666 C2665 1.334 . S
C2666 C2667 1.287 . S
C2667 C2666 1.287 . S
C2667 C2668 1.524 . S
C2667 H2670 0.999 . S
C2668 H2638 0.950 . S
C2668 C2667 1.524 . S
C2668 C2669 1.415 . S
C2669 H2639 0.950 . S
C2669 C2664 1.363 . S
C2669 C2668 1.415 . S
H2670 C2667 0.999 . S
H2671 C2652 0.913 . S
H2672 C2690 0.951 . S
H2673 C2692 0.951 . S
H2674 C2694 0.950 . S
H2675 C2695 0.950 . S
H2676 C2697 0.950 . S
H2677 C2700 0.950 . S
H2678 C2701 0.950 . S
H2679 C2703 0.950 . S
H2680 C2704 0.950 . S
H2681 C2705 0.951 . S
H2682 C2707 0.951 . S
H2683 C2709 0.950 . S
H2684 C2710 0.950 . S
H2685 C2712 0.950 . S
H2686 C2715 0.950 . S
H2687 C2716 0.950 . S
H2688 C2718 0.950 . S
H2689 C2719 0.950 . S
C2690 H2672 0.951 . S
C2690 C2691 1.366 . S
C2690 C2692 1.388 . S
C2691 C2690 1.366 . S
C2691 C2695 1.385 . S
C2692 H2673 0.951 . S
C2692 C2690 1.388 . S
C2692 C2693 1.366 . S
C2693 C2692 1.366 . S
C2693 C2694 1.414 . S
C2693 C2696 1.499 . S
C2694 H2674 0.950 . S
C2694 C2693 1.414 . S
C2694 C2695 1.374 . S
C2695 H2675 0.950 . S
C2695 C2691 1.385 . S
C2695 C2694 1.374 . S
C2696 C2693 1.499 . S
C2696 C2697 1.373 . S
C2696 C2698 1.389 . S
C2697 H2676 0.950 . S
C2697 C2696 1.373 . S
C2697 C2713 1.377 . S
C2698 C2696 1.389 . S
C2698 C2699 1.524 . S
C2698 C2712 1.377 . S
C2699 C2698 1.524 . S
C2699 C2700 1.397 . S
C2699 C2704 1.363 . S
C2700 H2677 0.950 . S
C2700 C2699 1.397 . S
C2700 C2701 1.334 . S
C2701 H2678 0.950 . S
C2701 C2700 1.334 . S
C2701 C2702 1.287 . S
C2702 C2701 1.287 . S
C2702 C2703 1.524 . S
C2702 H2721 0.913 . S
C2703 H2679 0.950 . S
C2703 C2702 1.524 . S
C2703 C2704 1.415 . S
C2704 H2680 0.950 . S
C2704 C2699 1.363 . S
C2704 C2703 1.415 . S
C2705 H2681 0.951 . S
C2705 C2706 1.366 . S
C2705 C2707 1.388 . S
C2706 C2705 1.366 . S
C2706 C2710 1.385 . S
C2707 H2682 0.951 . S
C2707 C2705 1.388 . S
C2707 C2708 1.366 . S
C2708 C2707 1.366 . S
C2708 C2709 1.414 . S
C2708 C2711 1.499 . S
C2709 H2683 0.950 . S
C2709 C2708 1.414 . S
C2709 C2710 1.374 . S
C2710 H2684 0.950 . S
C2710 C2706 1.385 . S
C2710 C2709 1.374 . S
C2711 C2708 1.499 . S
C2711 C2712 1.373 . S
C2711 C2713 1.389 . S
C2712 H2685 0.950 . S
C2712 C2698 1.377 . S
C2712 C2711 1.373 . S
C2713 C2697 1.377 . S
C2713 C2711 1.389 . S
C2713 C2714 1.524 . S
C2714 C2713 1.524 . S
C2714 C2715 1.397 . S
C2714 C2719 1.363 . S
C2715 H2686 0.950 . S
C2715 C2714 1.397 . S
C2715 C2716 1.334 . S
C2716 H2687 0.950 . S
C2716 C2715 1.334 . S
C2716 C2717 1.287 . S
C2717 C2716 1.287 . S
C2717 C2718 1.524 . S
C2717 H2720 0.999 . S
C2718 H2688 0.950 . S
C2718 C2717 1.524 . S
C2718 C2719 1.415 . S
C2719 H2689 0.950 . S
C2719 C2714 1.363 . S
C2719 C2718 1.415 . S
H2720 C2717 0.999 . S
H2721 C2702 0.913 . S
H2722 C2740 0.951 . S
H2723 C2742 0.951 . S
H2724 C2744 0.950 . S
H2725 C2745 0.950 . S
H2726 C2747 0.950 . S
H2727 C2750 0.950 . S
H2728 C2751 0.950 . S
H2729 C2753 0.950 . S
H2730 C2754 0.950 . S
H2731 C2755 0.951 . S
H2732 C2757 0.951 . S
H2733 C2759 0.950 . S
H2734 C2760 0.950 . S
H2735 C2762 0.950 . S
H2736 C2765 0.950 . S
H2737 C2766 0.950 . S
H2738 C2768 0.950 . S
H2739 C2769 0.950 . S
C2740 H2722 0.951 . S
C2740 C2741 1.366 . S
C2740 C2742 1.388 . S
C2741 C2740 1.366 . S
C2741 C2745 1.385 . S
C2742 H2723 0.951 . S
C2742 C2740 1.388 . S
C2742 C2743 1.366 . S
C2743 C2742 1.366 . S
C2743 C2744 1.414 . S
C2743 C2746 1.499 . S
C2744 H2724 0.950 . S
C2744 C2743 1.414 . S
C2744 C2745 1.374 . S
C2745 H2725 0.950 . S
C2745 C2741 1.385 . S
C2745 C2744 1.374 . S
C2746 C2743 1.499 . S
C2746 C2747 1.373 . S
C2746 C2748 1.389 . S
C2747 H2726 0.950 . S
C2747 C2746 1.373 . S
C2747 C2763 1.377 . S
C2748 C2746 1.389 . S
C2748 C2749 1.524 . S
C2748 C2762 1.377 . S
C2749 C2748 1.524 . S
C2749 C2750 1.397 . S
C2749 C2754 1.363 . S
C2750 H2727 0.950 . S
C2750 C2749 1.397 . S
C2750 C2751 1.334 . S
C2751 H2728 0.950 . S
C2751 C2750 1.334 . S
C2751 C2752 1.287 . S
C2752 C2751 1.287 . S
C2752 C2753 1.524 . S
C2752 H2771 0.913 . S
C2753 H2729 0.950 . S
C2753 C2752 1.524 . S
C2753 C2754 1.415 . S
C2754 H2730 0.950 . S
C2754 C2749 1.363 . S
C2754 C2753 1.415 . S
C2755 H2731 0.951 . S
C2755 C2756 1.366 . S
C2755 C2757 1.388 . S
C2756 C2755 1.366 . S
C2756 C2760 1.385 . S
C2757 H2732 0.951 . S
C2757 C2755 1.388 . S
C2757 C2758 1.366 . S
C2758 C2757 1.366 . S
C2758 C2759 1.414 . S
C2758 C2761 1.499 . S
C2759 H2733 0.950 . S
C2759 C2758 1.414 . S
C2759 C2760 1.374 . S
C2760 H2734 0.950 . S
C2760 C2756 1.385 . S
C2760 C2759 1.374 . S
C2761 C2758 1.499 . S
C2761 C2762 1.373 . S
C2761 C2763 1.389 . S
C2762 H2735 0.950 . S
C2762 C2748 1.377 . S
C2762 C2761 1.373 . S
C2763 C2747 1.377 . S
C2763 C2761 1.389 . S
C2763 C2764 1.524 . S
C2764 C2763 1.524 . S
C2764 C2765 1.397 . S
C2764 C2769 1.363 . S
C2765 H2736 0.950 . S
C2765 C2764 1.397 . S
C2765 C2766 1.334 . S
C2766 H2737 0.950 . S
C2766 C2765 1.334 . S
C2766 C2767 1.287 . S
C2767 C2766 1.287 . S
C2767 C2768 1.524 . S
C2767 H2770 0.999 . S
C2768 H2738 0.950 . S
C2768 C2767 1.524 . S
C2768 C2769 1.415 . S
C2769 H2739 0.950 . S
C2769 C2764 1.363 . S
C2769 C2768 1.415 . S
H2770 C2767 0.999 . S
H2771 C2752 0.913 . S
H2772 C2790 0.951 . S
H2773 C2792 0.951 . S
H2774 C2794 0.950 . S
H2775 C2795 0.950 . S
H2776 C2797 0.950 . S
H2777 C2800 0.950 . S
H2778 C2801 0.950 . S
H2779 C2803 0.950 . S
H2780 C2804 0.950 . S
H2781 C2805 0.951 . S
H2782 C2807 0.951 . S
H2783 C2809 0.950 . S
H2784 C2810 0.950 . S
H2785 C2812 0.950 . S
H2786 C2815 0.950 . S
H2787 C2816 0.950 . S
H2788 C2818 0.950 . S
H2789 C2819 0.950 . S
C2790 H2772 0.951 . S
C2790 C2791 1.366 . S
C2790 C2792 1.388 . S
C2791 C2790 1.366 . S
C2791 C2795 1.385 . S
C2792 H2773 0.951 . S
C2792 C2790 1.388 . S
C2792 C2793 1.366 . S
C2793 C2792 1.366 . S
C2793 C2794 1.414 . S
C2793 C2796 1.499 . S
C2794 H2774 0.950 . S
C2794 C2793 1.414 . S
C2794 C2795 1.374 . S
C2795 H2775 0.950 . S
C2795 C2791 1.385 . S
C2795 C2794 1.374 . S
C2796 C2793 1.499 . S
C2796 C2797 1.373 . S
C2796 C2798 1.389 . S
C2797 H2776 0.950 . S
C2797 C2796 1.373 . S
C2797 C2813 1.377 . S
C2798 C2796 1.389 . S
C2798 C2799 1.524 . S
C2798 C2812 1.377 . S
C2799 C2798 1.524 . S
C2799 C2800 1.397 . S
C2799 C2804 1.363 . S
C2800 H2777 0.950 . S
C2800 C2799 1.397 . S
C2800 C2801 1.334 . S
C2801 H2778 0.950 . S
C2801 C2800 1.334 . S
C2801 C2802 1.287 . S
C2802 C2801 1.287 . S
C2802 C2803 1.524 . S
C2802 H2821 0.913 . S
C2803 H2779 0.950 . S
C2803 C2802 1.524 . S
C2803 C2804 1.415 . S
C2804 H2780 0.950 . S
C2804 C2799 1.363 . S
C2804 C2803 1.415 . S
C2805 H2781 0.951 . S
C2805 C2806 1.366 . S
C2805 C2807 1.388 . S
C2806 C2805 1.366 . S
C2806 C2810 1.385 . S
C2807 H2782 0.951 . S
C2807 C2805 1.388 . S
C2807 C2808 1.366 . S
C2808 C2807 1.366 . S
C2808 C2809 1.414 . S
C2808 C2811 1.499 . S
C2809 H2783 0.950 . S
C2809 C2808 1.414 . S
C2809 C2810 1.374 . S
C2810 H2784 0.950 . S
C2810 C2806 1.385 . S
C2810 C2809 1.374 . S
C2811 C2808 1.499 . S
C2811 C2812 1.373 . S
C2811 C2813 1.389 . S
C2812 H2785 0.950 . S
C2812 C2798 1.377 . S
C2812 C2811 1.373 . S
C2813 C2797 1.377 . S
C2813 C2811 1.389 . S
C2813 C2814 1.524 . S
C2814 C2813 1.524 . S
C2814 C2815 1.397 . S
C2814 C2819 1.363 . S
C2815 H2786 0.950 . S
C2815 C2814 1.397 . S
C2815 C2816 1.334 . S
C2816 H2787 0.950 . S
C2816 C2815 1.334 . S
C2816 C2817 1.287 . S
C2817 C2816 1.287 . S
C2817 C2818 1.524 . S
C2817 H2820 0.999 . S
C2818 H2788 0.950 . S
C2818 C2817 1.524 . S
C2818 C2819 1.415 . S
C2819 H2789 0.950 . S
C2819 C2814 1.363 . S
C2819 C2818 1.415 . S
H2820 C2817 0.999 . S
H2821 C2802 0.913 . S
H2822 C2840 0.951 . S
H2823 C2842 0.951 . S
H2824 C2844 0.950 . S
H2825 C2845 0.950 . S
H2826 C2847 0.950 . S
H2827 C2850 0.950 . S
H2828 C2851 0.950 . S
H2829 C2853 0.950 . S
H2830 C2854 0.950 . S
H2831 C2855 0.951 . S
H2832 C2857 0.951 . S
H2833 C2859 0.950 . S
H2834 C2860 0.950 . S
H2835 C2862 0.950 . S
H2836 C2865 0.950 . S
H2837 C2866 0.950 . S
H2838 C2868 0.950 . S
H2839 C2869 0.950 . S
C2840 H2822 0.951 . S
C2840 C2841 1.366 . S
C2840 C2842 1.388 . S
C2841 C2840 1.366 . S
C2841 C2845 1.385 . S
C2842 H2823 0.951 . S
C2842 C2840 1.388 . S
C2842 C2843 1.366 . S
C2843 C2842 1.366 . S
C2843 C2844 1.414 . S
C2843 C2846 1.499 . S
C2844 H2824 0.950 . S
C2844 C2843 1.414 . S
C2844 C2845 1.374 . S
C2845 H2825 0.950 . S
C2845 C2841 1.385 . S
C2845 C2844 1.374 . S
C2846 C2843 1.499 . S
C2846 C2847 1.373 . S
C2846 C2848 1.389 . S
C2847 H2826 0.950 . S
C2847 C2846 1.373 . S
C2847 C2863 1.377 . S
C2848 C2846 1.389 . S
C2848 C2849 1.524 . S
C2848 C2862 1.377 . S
C2849 C2848 1.524 . S
C2849 C2850 1.397 . S
C2849 C2854 1.363 . S
C2850 H2827 0.950 . S
C2850 C2849 1.397 . S
C2850 C2851 1.334 . S
C2851 H2828 0.950 . S
C2851 C2850 1.334 . S
C2851 C2852 1.287 . S
C2852 C2851 1.287 . S
C2852 C2853 1.524 . S
C2852 H2871 0.913 . S
C2853 H2829 0.950 . S
C2853 C2852 1.524 . S
C2853 C2854 1.415 . S
C2854 H2830 0.950 . S
C2854 C2849 1.363 . S
C2854 C2853 1.415 . S
C2855 H2831 0.951 . S
C2855 C2856 1.366 . S
C2855 C2857 1.388 . S
C2856 C2855 1.366 . S
C2856 C2860 1.385 . S
C2857 H2832 0.951 . S
C2857 C2855 1.388 . S
C2857 C2858 1.366 . S
C2858 C2857 1.366 . S
C2858 C2859 1.414 . S
C2858 C2861 1.499 . S
C2859 H2833 0.950 . S
C2859 C2858 1.414 . S
C2859 C2860 1.374 . S
C2860 H2834 0.950 . S
C2860 C2856 1.385 . S
C2860 C2859 1.374 . S
C2861 C2858 1.499 . S
C2861 C2862 1.373 . S
C2861 C2863 1.389 . S
C2862 H2835 0.950 . S
C2862 C2848 1.377 . S
C2862 C2861 1.373 . S
C2863 C2847 1.377 . S
C2863 C2861 1.389 . S
C2863 C2864 1.524 . S
C2864 C2863 1.524 . S
C2864 C2865 1.397 . S
C2864 C2869 1.363 . S
C2865 H2836 0.950 . S
C2865 C2864 1.397 . S
C2865 C2866 1.334 . S
C2866 H2837 0.950 . S
C2866 C2865 1.334 . S
C2866 C2867 1.287 . S
C2867 C2866 1.287 . S
C2867 C2868 1.524 . S
C2867 H2870 0.999 . S
C2868 H2838 0.950 . S
C2868 C2867 1.524 . S
C2868 C2869 1.415 . S
C2869 H2839 0.950 . S
C2869 C2864 1.363 . S
C2869 C2868 1.415 . S
H2870 C2867 0.999 . S
H2871 C2852 0.913 . S
H2872 C2890 0.951 . S
H2873 C2892 0.951 . S
H2874 C2894 0.950 . S
H2875 C2895 0.950 . S
H2876 C2897 0.950 . S
H2877 C2900 0.950 . S
H2878 C2901 0.950 . S
H2879 C2903 0.950 . S
H2880 C2904 0.950 . S
H2881 C2905 0.951 . S
H2882 C2907 0.951 . S
H2883 C2909 0.950 . S
H2884 C2910 0.950 . S
H2885 C2912 0.950 . S
H2886 C2915 0.950 . S
H2887 C2916 0.950 . S
H2888 C2918 0.950 . S
H2889 C2919 0.950 . S
C2890 H2872 0.951 . S
C2890 C2891 1.366 . S
C2890 C2892 1.388 . S
C2891 C2890 1.366 . S
C2891 C2895 1.385 . S
C2892 H2873 0.951 . S
C2892 C2890 1.388 . S
C2892 C2893 1.366 . S
C2893 C2892 1.366 . S
C2893 C2894 1.414 . S
C2893 C2896 1.499 . S
C2894 H2874 0.950 . S
C2894 C2893 1.414 . S
C2894 C2895 1.374 . S
C2895 H2875 0.950 . S
C2895 C2891 1.385 . S
C2895 C2894 1.374 . S
C2896 C2893 1.499 . S
C2896 C2897 1.373 . S
C2896 C2898 1.389 . S
C2897 H2876 0.950 . S
C2897 C2896 1.373 . S
C2897 C2913 1.377 . S
C2898 C2896 1.389 . S
C2898 C2899 1.524 . S
C2898 C2912 1.377 . S
C2899 C2898 1.524 . S
C2899 C2900 1.397 . S
C2899 C2904 1.363 . S
C2900 H2877 0.950 . S
C2900 C2899 1.397 . S
C2900 C2901 1.334 . S
C2901 H2878 0.950 . S
C2901 C2900 1.334 . S
C2901 C2902 1.287 . S
C2902 C2901 1.287 . S
C2902 C2903 1.524 . S
C2902 H2921 0.913 . S
C2903 H2879 0.950 . S
C2903 C2902 1.524 . S
C2903 C2904 1.415 . S
C2904 H2880 0.950 . S
C2904 C2899 1.363 . S
C2904 C2903 1.415 . S
C2905 H2881 0.951 . S
C2905 C2906 1.366 . S
C2905 C2907 1.388 . S
C2906 C2905 1.366 . S
C2906 C2910 1.385 . S
C2907 H2882 0.951 . S
C2907 C2905 1.388 . S
C2907 C2908 1.366 . S
C2908 C2907 1.366 . S
C2908 C2909 1.414 . S
C2908 C2911 1.499 . S
C2909 H2883 0.950 . S
C2909 C2908 1.414 . S
C2909 C2910 1.374 . S
C2910 H2884 0.950 . S
C2910 C2906 1.385 . S
C2910 C2909 1.374 . S
C2911 C2908 1.499 . S
C2911 C2912 1.373 . S
C2911 C2913 1.389 . S
C2912 H2885 0.950 . S
C2912 C2898 1.377 . S
C2912 C2911 1.373 . S
C2913 C2897 1.377 . S
C2913 C2911 1.389 . S
C2913 C2914 1.524 . S
C2914 C2913 1.524 . S
C2914 C2915 1.397 . S
C2914 C2919 1.363 . S
C2915 H2886 0.950 . S
C2915 C2914 1.397 . S
C2915 C2916 1.334 . S
C2916 H2887 0.950 . S
C2916 C2915 1.334 . S
C2916 C2917 1.287 . S
C2917 C2916 1.287 . S
C2917 C2918 1.524 . S
C2917 H2920 0.999 . S
C2918 H2888 0.950 . S
C2918 C2917 1.524 . S
C2918 C2919 1.415 . S
C2919 H2889 0.950 . S
C2919 C2914 1.363 . S
C2919 C2918 1.415 . S
H2920 C2917 0.999 . S
H2921 C2902 0.913 . S
H2922 C2940 0.951 . S
H2923 C2942 0.951 . S
H2924 C2944 0.950 . S
H2925 C2945 0.950 . S
H2926 C2947 0.950 . S
H2927 C2950 0.950 . S
H2928 C2951 0.950 . S
H2929 C2953 0.950 . S
H2930 C2954 0.950 . S
H2931 C2955 0.951 . S
H2932 C2957 0.951 . S
H2933 C2959 0.950 . S
H2934 C2960 0.950 . S
H2935 C2962 0.950 . S
H2936 C2965 0.950 . S
H2937 C2966 0.950 . S
H2938 C2968 0.950 . S
H2939 C2969 0.950 . S
C2940 H2922 0.951 . S
C2940 C2941 1.366 . S
C2940 C2942 1.388 . S
C2941 C2940 1.366 . S
C2941 C2945 1.385 . S
C2942 H2923 0.951 . S
C2942 C2940 1.388 . S
C2942 C2943 1.366 . S
C2943 C2942 1.366 . S
C2943 C2944 1.414 . S
C2943 C2946 1.499 . S
C2944 H2924 0.950 . S
C2944 C2943 1.414 . S
C2944 C2945 1.374 . S
C2945 H2925 0.950 . S
C2945 C2941 1.385 . S
C2945 C2944 1.374 . S
C2946 C2943 1.499 . S
C2946 C2947 1.373 . S
C2946 C2948 1.389 . S
C2947 H2926 0.950 . S
C2947 C2946 1.373 . S
C2947 C2963 1.377 . S
C2948 C2946 1.389 . S
C2948 C2949 1.524 . S
C2948 C2962 1.377 . S
C2949 C2948 1.524 . S
C2949 C2950 1.397 . S
C2949 C2954 1.363 . S
C2950 H2927 0.950 . S
C2950 C2949 1.397 . S
C2950 C2951 1.334 . S
C2951 H2928 0.950 . S
C2951 C2950 1.334 . S
C2951 C2952 1.287 . S
C2952 C2951 1.287 . S
C2952 C2953 1.524 . S
C2952 H2971 0.913 . S
C2953 H2929 0.950 . S
C2953 C2952 1.524 . S
C2953 C2954 1.415 . S
C2954 H2930 0.950 . S
C2954 C2949 1.363 . S
C2954 C2953 1.415 . S
C2955 H2931 0.951 . S
C2955 C2956 1.366 . S
C2955 C2957 1.388 . S
C2956 C2955 1.366 . S
C2956 C2960 1.385 . S
C2957 H2932 0.951 . S
C2957 C2955 1.388 . S
C2957 C2958 1.366 . S
C2958 C2957 1.366 . S
C2958 C2959 1.414 . S
C2958 C2961 1.499 . S
C2959 H2933 0.950 . S
C2959 C2958 1.414 . S
C2959 C2960 1.374 . S
C2960 H2934 0.950 . S
C2960 C2956 1.385 . S
C2960 C2959 1.374 . S
C2961 C2958 1.499 . S
C2961 C2962 1.373 . S
C2961 C2963 1.389 . S
C2962 H2935 0.950 . S
C2962 C2948 1.377 . S
C2962 C2961 1.373 . S
C2963 C2947 1.377 . S
C2963 C2961 1.389 . S
C2963 C2964 1.524 . S
C2964 C2963 1.524 . S
C2964 C2965 1.397 . S
C2964 C2969 1.363 . S
C2965 H2936 0.950 . S
C2965 C2964 1.397 . S
C2965 C2966 1.334 . S
C2966 H2937 0.950 . S
C2966 C2965 1.334 . S
C2966 C2967 1.287 . S
C2967 C2966 1.287 . S
C2967 C2968 1.524 . S
C2967 H2970 0.999 . S
C2968 H2938 0.950 . S
C2968 C2967 1.524 . S
C2968 C2969 1.415 . S
C2969 H2939 0.950 . S
C2969 C2964 1.363 . S
C2969 C2968 1.415 . S
H2970 C2967 0.999 . S
H2971 C2952 0.913 . S
H2972 C2990 0.951 . S
H2973 C2992 0.951 . S
H2974 C2994 0.950 . S
H2975 C2995 0.950 . S
H2976 C2997 0.950 . S
H2977 C3000 0.950 . S
H2978 C3001 0.950 . S
H2979 C3003 0.950 . S
H2980 C3004 0.950 . S
H2981 C3005 0.951 . S
H2982 C3007 0.951 . S
H2983 C3009 0.950 . S
H2984 C3010 0.950 . S
H2985 C3012 0.950 . S
H2986 C3015 0.950 . S
H2987 C3016 0.950 . S
H2988 C3018 0.950 . S
H2989 C3019 0.950 . S
C2990 H2972 0.951 . S
C2990 C2991 1.366 . S
C2990 C2992 1.388 . S
C2991 C2990 1.366 . S
C2991 C2995 1.385 . S
C2992 H2973 0.951 . S
C2992 C2990 1.388 . S
C2992 C2993 1.366 . S
C2993 C2992 1.366 . S
C2993 C2994 1.414 . S
C2993 C2996 1.499 . S
C2994 H2974 0.950 . S
C2994 C2993 1.414 . S
C2994 C2995 1.374 . S
C2995 H2975 0.950 . S
C2995 C2991 1.385 . S
C2995 C2994 1.374 . S
C2996 C2993 1.499 . S
C2996 C2997 1.373 . S
C2996 C2998 1.389 . S
C2997 H2976 0.950 . S
C2997 C2996 1.373 . S
C2997 C3013 1.377 . S
C2998 C2996 1.389 . S
C2998 C2999 1.524 . S
C2998 C3012 1.377 . S
C2999 C2998 1.524 . S
C2999 C3000 1.397 . S
C2999 C3004 1.363 . S
C3000 H2977 0.950 . S
C3000 C2999 1.397 . S
C3000 C3001 1.334 . S
C3001 H2978 0.950 . S
C3001 C3000 1.334 . S
C3001 C3002 1.287 . S
C3002 C3001 1.287 . S
C3002 C3003 1.524 . S
C3002 H3021 0.913 . S
C3003 H2979 0.950 . S
C3003 C3002 1.524 . S
C3003 C3004 1.415 . S
C3004 H2980 0.950 . S
C3004 C2999 1.363 . S
C3004 C3003 1.415 . S
C3005 H2981 0.951 . S
C3005 C3006 1.366 . S
C3005 C3007 1.388 . S
C3006 C3005 1.366 . S
C3006 C3010 1.385 . S
C3007 H2982 0.951 . S
C3007 C3005 1.388 . S
C3007 C3008 1.366 . S
C3008 C3007 1.366 . S
C3008 C3009 1.414 . S
C3008 C3011 1.499 . S
C3009 H2983 0.950 . S
C3009 C3008 1.414 . S
C3009 C3010 1.374 . S
C3010 H2984 0.950 . S
C3010 C3006 1.385 . S
C3010 C3009 1.374 . S
C3011 C3008 1.499 . S
C3011 C3012 1.373 . S
C3011 C3013 1.389 . S
C3012 H2985 0.950 . S
C3012 C2998 1.377 . S
C3012 C3011 1.373 . S
C3013 C2997 1.377 . S
C3013 C3011 1.389 . S
C3013 C3014 1.524 . S
C3014 C3013 1.524 . S
C3014 C3015 1.397 . S
C3014 C3019 1.363 . S
C3015 H2986 0.950 . S
C3015 C3014 1.397 . S
C3015 C3016 1.334 . S
C3016 H2987 0.950 . S
C3016 C3015 1.334 . S
C3016 C3017 1.287 . S
C3017 C3016 1.287 . S
C3017 C3018 1.524 . S
C3017 H3020 0.999 . S
C3018 H2988 0.950 . S
C3018 C3017 1.524 . S
C3018 C3019 1.415 . S
C3019 H2989 0.950 . S
C3019 C3014 1.363 . S
C3019 C3018 1.415 . S
H3020 C3017 0.999 . S
H3021 C3002 0.913 . S
H3022 C3040 0.951 . S
H3023 C3042 0.951 . S
H3024 C3044 0.950 . S
H3025 C3045 0.950 . S
H3026 C3047 0.950 . S
H3027 C3050 0.950 . S
H3028 C3051 0.950 . S
H3029 C3053 0.950 . S
H3030 C3054 0.950 . S
H3031 C3055 0.951 . S
H3032 C3057 0.951 . S
H3033 C3059 0.950 . S
H3034 C3060 0.950 . S
H3035 C3062 0.950 . S
H3036 C3065 0.950 . S
H3037 C3066 0.950 . S
H3038 C3068 0.950 . S
H3039 C3069 0.950 . S
C3040 H3022 0.951 . S
C3040 C3041 1.366 . S
C3040 C3042 1.388 . S
C3041 C3040 1.366 . S
C3041 C3045 1.385 . S
C3042 H3023 0.951 . S
C3042 C3040 1.388 . S
C3042 C3043 1.366 . S
C3043 C3042 1.366 . S
C3043 C3044 1.414 . S
C3043 C3046 1.499 . S
C3044 H3024 0.950 . S
C3044 C3043 1.414 . S
C3044 C3045 1.374 . S
C3045 H3025 0.950 . S
C3045 C3041 1.385 . S
C3045 C3044 1.374 . S
C3046 C3043 1.499 . S
C3046 C3047 1.373 . S
C3046 C3048 1.389 . S
C3047 H3026 0.950 . S
C3047 C3046 1.373 . S
C3047 C3063 1.377 . S
C3048 C3046 1.389 . S
C3048 C3049 1.524 . S
C3048 C3062 1.377 . S
C3049 C3048 1.524 . S
C3049 C3050 1.397 . S
C3049 C3054 1.363 . S
C3050 H3027 0.950 . S
C3050 C3049 1.397 . S
C3050 C3051 1.334 . S
C3051 H3028 0.950 . S
C3051 C3050 1.334 . S
C3051 C3052 1.287 . S
C3052 C3051 1.287 . S
C3052 C3053 1.524 . S
C3052 H3071 0.913 . S
C3053 H3029 0.950 . S
C3053 C3052 1.524 . S
C3053 C3054 1.415 . S
C3054 H3030 0.950 . S
C3054 C3049 1.363 . S
C3054 C3053 1.415 . S
C3055 H3031 0.951 . S
C3055 C3056 1.366 . S
C3055 C3057 1.388 . S
C3056 C3055 1.366 . S
C3056 C3060 1.385 . S
C3057 H3032 0.951 . S
C3057 C3055 1.388 . S
C3057 C3058 1.366 . S
C3058 C3057 1.366 . S
C3058 C3059 1.414 . S
C3058 C3061 1.499 . S
C3059 H3033 0.950 . S
C3059 C3058 1.414 . S
C3059 C3060 1.374 . S
C3060 H3034 0.950 . S
C3060 C3056 1.385 . S
C3060 C3059 1.374 . S
C3061 C3058 1.499 . S
C3061 C3062 1.373 . S
C3061 C3063 1.389 . S
C3062 H3035 0.950 . S
C3062 C3048 1.377 . S
C3062 C3061 1.373 . S
C3063 C3047 1.377 . S
C3063 C3061 1.389 . S
C3063 C3064 1.524 . S
C3064 C3063 1.524 . S
C3064 C3065 1.397 . S
C3064 C3069 1.363 . S
C3065 H3036 0.950 . S
C3065 C3064 1.397 . S
C3065 C3066 1.334 . S
C3066 H3037 0.950 . S
C3066 C3065 1.334 . S
C3066 C3067 1.287 . S
C3067 C3066 1.287 . S
C3067 C3068 1.524 . S
C3067 H3070 0.999 . S
C3068 H3038 0.950 . S
C3068 C3067 1.524 . S
C3068 C3069 1.415 . S
C3069 H3039 0.950 . S
C3069 C3064 1.363 . S
C3069 C3068 1.415 . S
H3070 C3067 0.999 . S
H3071 C3052 0.913 . S
H3072 C3090 0.951 . S
H3073 C3092 0.951 . S
H3074 C3094 0.950 . S
H3075 C3095 0.950 . S
H3076 C3097 0.950 . S
H3077 C3100 0.950 . S
H3078 C3101 0.950 . S
H3079 C3103 0.950 . S
H3080 C3104 0.950 . S
H3081 C3105 0.951 . S
H3082 C3107 0.951 . S
H3083 C3109 0.950 . S
H3084 C3110 0.950 . S
H3085 C3112 0.950 . S
H3086 C3115 0.950 . S
H3087 C3116 0.950 . S
H3088 C3118 0.950 . S
H3089 C3119 0.950 . S
C3090 H3072 0.951 . S
C3090 C3091 1.366 . S
C3090 C3092 1.388 . S
C3091 C3090 1.366 . S
C3091 C3095 1.385 . S
C3092 H3073 0.951 . S
C3092 C3090 1.388 . S
C3092 C3093 1.366 . S
C3093 C3092 1.366 . S
C3093 C3094 1.414 . S
C3093 C3096 1.499 . S
C3094 H3074 0.950 . S
C3094 C3093 1.414 . S
C3094 C3095 1.374 . S
C3095 H3075 0.950 . S
C3095 C3091 1.385 . S
C3095 C3094 1.374 . S
C3096 C3093 1.499 . S
C3096 C3097 1.373 . S
C3096 C3098 1.389 . S
C3097 H3076 0.950 . S
C3097 C3096 1.373 . S
C3097 C3113 1.377 . S
C3098 C3096 1.389 . S
C3098 C3099 1.524 . S
C3098 C3112 1.377 . S
C3099 C3098 1.524 . S
C3099 C3100 1.397 . S
C3099 C3104 1.363 . S
C3100 H3077 0.950 . S
C3100 C3099 1.397 . S
C3100 C3101 1.334 . S
C3101 H3078 0.950 . S
C3101 C3100 1.334 . S
C3101 C3102 1.287 . S
C3102 C3101 1.287 . S
C3102 C3103 1.524 . S
C3102 H3121 0.913 . S
C3103 H3079 0.950 . S
C3103 C3102 1.524 . S
C3103 C3104 1.415 . S
C3104 H3080 0.950 . S
C3104 C3099 1.363 . S
C3104 C3103 1.415 . S
C3105 H3081 0.951 . S
C3105 C3106 1.366 . S
C3105 C3107 1.388 . S
C3106 C3105 1.366 . S
C3106 C3110 1.385 . S
C3107 H3082 0.951 . S
C3107 C3105 1.388 . S
C3107 C3108 1.366 . S
C3108 C3107 1.366 . S
C3108 C3109 1.414 . S
C3108 C3111 1.499 . S
C3109 H3083 0.950 . S
C3109 C3108 1.414 . S
C3109 C3110 1.374 . S
C3110 H3084 0.950 . S
C3110 C3106 1.385 . S
C3110 C3109 1.374 . S
C3111 C3108 1.499 . S
C3111 C3112 1.373 . S
C3111 C3113 1.389 . S
C3112 H3085 0.950 . S
C3112 C3098 1.377 . S
C3112 C3111 1.373 . S
C3113 C3097 1.377 . S
C3113 C3111 1.389 . S
C3113 C3114 1.524 . S
C3114 C3113 1.524 . S
C3114 C3115 1.397 . S
C3114 C3119 1.363 . S
C3115 H3086 0.950 . S
C3115 C3114 1.397 . S
C3115 C3116 1.334 . S
C3116 H3087 0.950 . S
C3116 C3115 1.334 . S
C3116 C3117 1.287 . S
C3117 C3116 1.287 . S
C3117 C3118 1.524 . S
C3117 H3120 0.999 . S
C3118 H3088 0.950 . S
C3118 C3117 1.524 . S
C3118 C3119 1.415 . S
C3119 H3089 0.950 . S
C3119 C3114 1.363 . S
C3119 C3118 1.415 . S
H3120 C3117 0.999 . S
H3121 C3102 0.913 . S
H3122 C3140 0.951 . S
H3123 C3142 0.951 . S
H3124 C3144 0.950 . S
H3125 C3145 0.950 . S
H3126 C3147 0.950 . S
H3127 C3150 0.950 . S
H3128 C3151 0.950 . S
H3129 C3153 0.950 . S
H3130 C3154 0.950 . S
H3131 C3155 0.951 . S
H3132 C3157 0.951 . S
H3133 C3159 0.950 . S
H3134 C3160 0.950 . S
H3135 C3162 0.950 . S
H3136 C3165 0.950 . S
H3137 C3166 0.950 . S
H3138 C3168 0.950 . S
H3139 C3169 0.950 . S
C3140 H3122 0.951 . S
C3140 C3141 1.366 . S
C3140 C3142 1.388 . S
C3141 C3140 1.366 . S
C3141 C3145 1.385 . S
C3142 H3123 0.951 . S
C3142 C3140 1.388 . S
C3142 C3143 1.366 . S
C3143 C3142 1.366 . S
C3143 C3144 1.414 . S
C3143 C3146 1.499 . S
C3144 H3124 0.950 . S
C3144 C3143 1.414 . S
C3144 C3145 1.374 . S
C3145 H3125 0.950 . S
C3145 C3141 1.385 . S
C3145 C3144 1.374 . S
C3146 C3143 1.499 . S
C3146 C3147 1.373 . S
C3146 C3148 1.389 . S
C3147 H3126 0.950 . S
C3147 C3146 1.373 . S
C3147 C3163 1.377 . S
C3148 C3146 1.389 . S
C3148 C3149 1.524 . S
C3148 C3162 1.377 . S
C3149 C3148 1.524 . S
C3149 C3150 1.397 . S
C3149 C3154 1.363 . S
C3150 H3127 0.950 . S
C3150 C3149 1.397 . S
C3150 C3151 1.334 . S
C3151 H3128 0.950 . S
C3151 C3150 1.334 . S
C3151 C3152 1.287 . S
C3152 C3151 1.287 . S
C3152 C3153 1.524 . S
C3152 H3171 0.913 . S
C3153 H3129 0.950 . S
C3153 C3152 1.524 . S
C3153 C3154 1.415 . S
C3154 H3130 0.950 . S
C3154 C3149 1.363 . S
C3154 C3153 1.415 . S
C3155 H3131 0.951 . S
C3155 C3156 1.366 . S
C3155 C3157 1.388 . S
C3156 C3155 1.366 . S
C3156 C3160 1.385 . S
C3157 H3132 0.951 . S
C3157 C3155 1.388 . S
C3157 C3158 1.366 . S
C3158 C3157 1.366 . S
C3158 C3159 1.414 . S
C3158 C3161 1.499 . S
C3159 H3133 0.950 . S
C3159 C3158 1.414 . S
C3159 C3160 1.374 . S
C3160 H3134 0.950 . S
C3160 C3156 1.385 . S
C3160 C3159 1.374 . S
C3161 C3158 1.499 . S
C3161 C3162 1.373 . S
C3161 C3163 1.389 . S
C3162 H3135 0.950 . S
C3162 C3148 1.377 . S
C3162 C3161 1.373 . S
C3163 C3147 1.377 . S
C3163 C3161 1.389 . S
C3163 C3164 1.524 . S
C3164 C3163 1.524 . S
C3164 C3165 1.397 . S
C3164 C3169 1.363 . S
C3165 H3136 0.950 . S
C3165 C3164 1.397 . S
C3165 C3166 1.334 . S
C3166 H3137 0.950 . S
C3166 C3165 1.334 . S
C3166 C3167 1.287 . S
C3167 C3166 1.287 . S
C3167 C3168 1.524 . S
C3167 H3170 0.999 . S
C3168 H3138 0.950 . S
C3168 C3167 1.524 . S
C3168 C3169 1.415 . S
C3169 H3139 0.950 . S
C3169 C3164 1.363 . S
C3169 C3168 1.415 . S
H3170 C3167 0.999 . S
H3171 C3152 0.913 . S
H3172 C3190 0.951 . S
H3173 C3192 0.951 . S
H3174 C3194 0.950 . S
H3175 C3195 0.950 . S
H3176 C3197 0.950 . S
H3177 C3200 0.950 . S
H3178 C3201 0.950 . S
H3179 C3203 0.950 . S
H3180 C3204 0.950 . S
H3181 C3205 0.951 . S
H3182 C3207 0.951 . S
H3183 C3209 0.950 . S
H3184 C3210 0.950 . S
H3185 C3212 0.950 . S
H3186 C3215 0.950 . S
H3187 C3216 0.950 . S
H3188 C3218 0.950 . S
H3189 C3219 0.950 . S
C3190 H3172 0.951 . S
C3190 C3191 1.366 . S
C3190 C3192 1.388 . S
C3191 C3190 1.366 . S
C3191 C3195 1.385 . S
C3192 H3173 0.951 . S
C3192 C3190 1.388 . S
C3192 C3193 1.366 . S
C3193 C3192 1.366 . S
C3193 C3194 1.414 . S
C3193 C3196 1.499 . S
C3194 H3174 0.950 . S
C3194 C3193 1.414 . S
C3194 C3195 1.374 . S
C3195 H3175 0.950 . S
C3195 C3191 1.385 . S
C3195 C3194 1.374 . S
C3196 C3193 1.499 . S
C3196 C3197 1.373 . S
C3196 C3198 1.389 . S
C3197 H3176 0.950 . S
C3197 C3196 1.373 . S
C3197 C3213 1.377 . S
C3198 C3196 1.389 . S
C3198 C3199 1.524 . S
C3198 C3212 1.377 . S
C3199 C3198 1.524 . S
C3199 C3200 1.397 . S
C3199 C3204 1.363 . S
C3200 H3177 0.950 . S
C3200 C3199 1.397 . S
C3200 C3201 1.334 . S
C3201 H3178 0.950 . S
C3201 C3200 1.334 . S
C3201 C3202 1.287 . S
C3202 C3201 1.287 . S
C3202 C3203 1.524 . S
C3202 H3221 0.913 . S
C3203 H3179 0.950 . S
C3203 C3202 1.524 . S
C3203 C3204 1.415 . S
C3204 H3180 0.950 . S
C3204 C3199 1.363 . S
C3204 C3203 1.415 . S
C3205 H3181 0.951 . S
C3205 C3206 1.366 . S
C3205 C3207 1.388 . S
C3206 C3205 1.366 . S
C3206 C3210 1.385 . S
C3207 H3182 0.951 . S
C3207 C3205 1.388 . S
C3207 C3208 1.366 . S
C3208 C3207 1.366 . S
C3208 C3209 1.414 . S
C3208 C3211 1.499 . S
C3209 H3183 0.950 . S
C3209 C3208 1.414 . S
C3209 C3210 1.374 . S
C3210 H3184 0.950 . S
C3210 C3206 1.385 . S
C3210 C3209 1.374 . S
C3211 C3208 1.499 . S
C3211 C3212 1.373 . S
C3211 C3213 1.389 . S
C3212 H3185 0.950 . S
C3212 C3198 1.377 . S
C3212 C3211 1.373 . S
C3213 C3197 1.377 . S
C3213 C3211 1.389 . S
C3213 C3214 1.524 . S
C3214 C3213 1.524 . S
C3214 C3215 1.397 . S
C3214 C3219 1.363 . S
C3215 H3186 0.950 . S
C3215 C3214 1.397 . S
C3215 C3216 1.334 . S
C3216 H3187 0.950 . S
C3216 C3215 1.334 . S
C3216 C3217 1.287 . S
C3217 C3216 1.287 . S
C3217 C3218 1.524 . S
C3217 H3220 0.999 . S
C3218 H3188 0.950 . S
C3218 C3217 1.524 . S
C3218 C3219 1.415 . S
C3219 H3189 0.950 . S
C3219 C3214 1.363 . S
C3219 C3218 1.415 . S
H3220 C3217 0.999 . S
H3221 C3202 0.913 . S
H3222 C3240 0.951 . S
H3223 C3242 0.951 . S
H3224 C3244 0.950 . S
H3225 C3245 0.950 . S
H3226 C3247 0.950 . S
H3227 C3250 0.950 . S
H3228 C3251 0.950 . S
H3229 C3253 0.950 . S
H3230 C3254 0.950 . S
H3231 C3255 0.951 . S
H3232 C3257 0.951 . S
H3233 C3259 0.950 . S
H3234 C3260 0.950 . S
H3235 C3262 0.950 . S
H3236 C3265 0.950 . S
H3237 C3266 0.950 . S
H3238 C3268 0.950 . S
H3239 C3269 0.950 . S
C3240 H3222 0.951 . S
C3240 C3241 1.366 . S
C3240 C3242 1.388 . S
C3241 C3240 1.366 . S
C3241 C3245 1.385 . S
C3242 H3223 0.951 . S
C3242 C3240 1.388 . S
C3242 C3243 1.366 . S
C3243 C3242 1.366 . S
C3243 C3244 1.414 . S
C3243 C3246 1.499 . S
C3244 H3224 0.950 . S
C3244 C3243 1.414 . S
C3244 C3245 1.374 . S
C3245 H3225 0.950 . S
C3245 C3241 1.385 . S
C3245 C3244 1.374 . S
C3246 C3243 1.499 . S
C3246 C3247 1.373 . S
C3246 C3248 1.389 . S
C3247 H3226 0.950 . S
C3247 C3246 1.373 . S
C3247 C3263 1.377 . S
C3248 C3246 1.389 . S
C3248 C3249 1.524 . S
C3248 C3262 1.377 . S
C3249 C3248 1.524 . S
C3249 C3250 1.397 . S
C3249 C3254 1.363 . S
C3250 H3227 0.950 . S
C3250 C3249 1.397 . S
C3250 C3251 1.334 . S
C3251 H3228 0.950 . S
C3251 C3250 1.334 . S
C3251 C3252 1.287 . S
C3252 C3251 1.287 . S
C3252 C3253 1.524 . S
C3252 H3271 0.913 . S
C3253 H3229 0.950 . S
C3253 C3252 1.524 . S
C3253 C3254 1.415 . S
C3254 H3230 0.950 . S
C3254 C3249 1.363 . S
C3254 C3253 1.415 . S
C3255 H3231 0.951 . S
C3255 C3256 1.366 . S
C3255 C3257 1.388 . S
C3256 C3255 1.366 . S
C3256 C3260 1.385 . S
C3257 H3232 0.951 . S
C3257 C3255 1.388 . S
C3257 C3258 1.366 . S
C3258 C3257 1.366 . S
C3258 C3259 1.414 . S
C3258 C3261 1.499 . S
C3259 H3233 0.950 . S
C3259 C3258 1.414 . S
C3259 C3260 1.374 . S
C3260 H3234 0.950 . S
C3260 C3256 1.385 . S
C3260 C3259 1.374 . S
C3261 C3258 1.499 . S
C3261 C3262 1.373 . S
C3261 C3263 1.389 . S
C3262 H3235 0.950 . S
C3262 C3248 1.377 . S
C3262 C3261 1.373 . S
C3263 C3247 1.377 . S
C3263 C3261 1.389 . S
C3263 C3264 1.524 . S
C3264 C3263 1.524 . S
C3264 C3265 1.397 . S
C3264 C3269 1.363 . S
C3265 H3236 0.950 . S
C3265 C3264 1.397 . S
C3265 C3266 1.334 . S
C3266 H3237 0.950 . S
C3266 C3265 1.334 . S
C3266 C3267 1.287 . S
C3267 C3266 1.287 . S
C3267 C3268 1.524 . S
C3267 H3270 0.999 . S
C3268 H3238 0.950 . S
C3268 C3267 1.524 . S
C3268 C3269 1.415 . S
C3269 H3239 0.950 . S
C3269 C3264 1.363 . S
C3269 C3268 1.415 . S
H3270 C3267 0.999 . S
H3271 C3252 0.913 . S
H3272 C3290 0.951 . S
H3273 C3292 0.951 . S
H3274 C3294 0.950 . S
H3275 C3295 0.950 . S
H3276 C3297 0.950 . S
H3277 C3300 0.950 . S
H3278 C3301 0.950 . S
H3279 C3303 0.950 . S
H3280 C3304 0.950 . S
H3281 C3305 0.951 . S
H3282 C3307 0.951 . S
H3283 C3309 0.950 . S
H3284 C3310 0.950 . S
H3285 C3312 0.950 . S
H3286 C3315 0.950 . S
H3287 C3316 0.950 . S
H3288 C3318 0.950 . S
H3289 C3319 0.950 . S
C3290 H3272 0.951 . S
C3290 C3291 1.366 . S
C3290 C3292 1.388 . S
C3291 C3290 1.366 . S
C3291 C3295 1.385 . S
C3292 H3273 0.951 . S
C3292 C3290 1.388 . S
C3292 C3293 1.366 . S
C3293 C3292 1.366 . S
C3293 C3294 1.414 . S
C3293 C3296 1.499 . S
C3294 H3274 0.950 . S
C3294 C3293 1.414 . S
C3294 C3295 1.374 . S
C3295 H3275 0.950 . S
C3295 C3291 1.385 . S
C3295 C3294 1.374 . S
C3296 C3293 1.499 . S
C3296 C3297 1.373 . S
C3296 C3298 1.389 . S
C3297 H3276 0.950 . S
C3297 C3296 1.373 . S
C3297 C3313 1.377 . S
C3298 C3296 1.389 . S
C3298 C3299 1.524 . S
C3298 C3312 1.377 . S
C3299 C3298 1.524 . S
C3299 C3300 1.397 . S
C3299 C3304 1.363 . S
C3300 H3277 0.950 . S
C3300 C3299 1.397 . S
C3300 C3301 1.334 . S
C3301 H3278 0.950 . S
C3301 C3300 1.334 . S
C3301 C3302 1.287 . S
C3302 C3301 1.287 . S
C3302 C3303 1.524 . S
C3302 H3321 0.913 . S
C3303 H3279 0.950 . S
C3303 C3302 1.524 . S
C3303 C3304 1.415 . S
C3304 H3280 0.950 . S
C3304 C3299 1.363 . S
C3304 C3303 1.415 . S
C3305 H3281 0.951 . S
C3305 C3306 1.366 . S
C3305 C3307 1.388 . S
C3306 C3305 1.366 . S
C3306 C3310 1.385 . S
C3307 H3282 0.951 . S
C3307 C3305 1.388 . S
C3307 C3308 1.366 . S
C3308 C3307 1.366 . S
C3308 C3309 1.414 . S
C3308 C3311 1.499 . S
C3309 H3283 0.950 . S
C3309 C3308 1.414 . S
C3309 C3310 1.374 . S
C3310 H3284 0.950 . S
C3310 C3306 1.385 . S
C3310 C3309 1.374 . S
C3311 C3308 1.499 . S
C3311 C3312 1.373 . S
C3311 C3313 1.389 . S
C3312 H3285 0.950 . S
C3312 C3298 1.377 . S
C3312 C3311 1.373 . S
C3313 C3297 1.377 . S
C3313 C3311 1.389 . S
C3313 C3314 1.524 . S
C3314 C3313 1.524 . S
C3314 C3315 1.397 . S
C3314 C3319 1.363 . S
C3315 H3286 0.950 . S
C3315 C3314 1.397 . S
C3315 C3316 1.334 . S
C3316 H3287 0.950 . S
C3316 C3315 1.334 . S
C3316 C3317 1.287 . S
C3317 C3316 1.287 . S
C3317 C3318 1.524 . S
C3317 H3320 0.999 . S
C3318 H3288 0.950 . S
C3318 C3317 1.524 . S
C3318 C3319 1.415 . S
C3319 H3289 0.950 . S
C3319 C3314 1.363 . S
C3319 C3318 1.415 . S
H3320 C3317 0.999 . S
H3321 C3302 0.913 . S
H3322 C3340 0.951 . S
H3323 C3342 0.951 . S
H3324 C3344 0.950 . S
H3325 C3345 0.950 . S
H3326 C3347 0.950 . S
H3327 C3350 0.950 . S
H3328 C3351 0.950 . S
H3329 C3353 0.950 . S
H3330 C3354 0.950 . S
H3331 C3355 0.951 . S
H3332 C3357 0.951 . S
H3333 C3359 0.950 . S
H3334 C3360 0.950 . S
H3335 C3362 0.950 . S
H3336 C3365 0.950 . S
H3337 C3366 0.950 . S
H3338 C3368 0.950 . S
H3339 C3369 0.950 . S
C3340 H3322 0.951 . S
C3340 C3341 1.366 . S
C3340 C3342 1.388 . S
C3341 C3340 1.366 . S
C3341 C3345 1.385 . S
C3342 H3323 0.951 . S
C3342 C3340 1.388 . S
C3342 C3343 1.366 . S
C3343 C3342 1.366 . S
C3343 C3344 1.414 . S
C3343 C3346 1.499 . S
C3344 H3324 0.950 . S
C3344 C3343 1.414 . S
C3344 C3345 1.374 . S
C3345 H3325 0.950 . S
C3345 C3341 1.385 . S
C3345 C3344 1.374 . S
C3346 C3343 1.499 . S
C3346 C3347 1.373 . S
C3346 C3348 1.389 . S
C3347 H3326 0.950 . S
C3347 C3346 1.373 . S
C3347 C3363 1.377 . S
C3348 C3346 1.389 . S
C3348 C3349 1.524 . S
C3348 C3362 1.377 . S
C3349 C3348 1.524 . S
C3349 C3350 1.397 . S
C3349 C3354 1.363 . S
C3350 H3327 0.950 . S
C3350 C3349 1.397 . S
C3350 C3351 1.334 . S
C3351 H3328 0.950 . S
C3351 C3350 1.334 . S
C3351 C3352 1.287 . S
C3352 C3351 1.287 . S
C3352 C3353 1.524 . S
C3352 H3371 0.913 . S
C3353 H3329 0.950 . S
C3353 C3352 1.524 . S
C3353 C3354 1.415 . S
C3354 H3330 0.950 . S
C3354 C3349 1.363 . S
C3354 C3353 1.415 . S
C3355 H3331 0.951 . S
C3355 C3356 1.366 . S
C3355 C3357 1.388 . S
C3356 C3355 1.366 . S
C3356 C3360 1.385 . S
C3357 H3332 0.951 . S
C3357 C3355 1.388 . S
C3357 C3358 1.366 . S
C3358 C3357 1.366 . S
C3358 C3359 1.414 . S
C3358 C3361 1.499 . S
C3359 H3333 0.950 . S
C3359 C3358 1.414 . S
C3359 C3360 1.374 . S
C3360 H3334 0.950 . S
C3360 C3356 1.385 . S
C3360 C3359 1.374 . S
C3361 C3358 1.499 . S
C3361 C3362 1.373 . S
C3361 C3363 1.389 . S
C3362 H3335 0.950 . S
C3362 C3348 1.377 . S
C3362 C3361 1.373 . S
C3363 C3347 1.377 . S
C3363 C3361 1.389 . S
C3363 C3364 1.524 . S
C3364 C3363 1.524 . S
C3364 C3365 1.397 . S
C3364 C3369 1.363 . S
C3365 H3336 0.950 . S
C3365 C3364 1.397 . S
C3365 C3366 1.334 . S
C3366 H3337 0.950 . S
C3366 C3365 1.334 . S
C3366 C3367 1.287 . S
C3367 C3366 1.287 . S
C3367 C3368 1.524 . S
C3367 H3370 0.999 . S
C3368 H3338 0.950 . S
C3368 C3367 1.524 . S
C3368 C3369 1.415 . S
C3369 H3339 0.950 . S
C3369 C3364 1.363 . S
C3369 C3368 1.415 . S
H3370 C3367 0.999 . S
H3371 C3352 0.913 . S
H3372 C3390 0.951 . S
H3373 C3392 0.951 . S
H3374 C3394 0.950 . S
H3375 C3395 0.950 . S
H3376 C3397 0.950 . S
H3377 C3400 0.950 . S
H3378 C3401 0.950 . S
H3379 C3403 0.950 . S
H3380 C3404 0.950 . S
H3381 C3405 0.951 . S
H3382 C3407 0.951 . S
H3383 C3409 0.950 . S
H3384 C3410 0.950 . S
H3385 C3412 0.950 . S
H3386 C3415 0.950 . S
H3387 C3416 0.950 . S
H3388 C3418 0.950 . S
H3389 C3419 0.950 . S
C3390 H3372 0.951 . S
C3390 C3391 1.366 . S
C3390 C3392 1.388 . S
C3391 C3390 1.366 . S
C3391 C3395 1.385 . S
C3392 H3373 0.951 . S
C3392 C3390 1.388 . S
C3392 C3393 1.366 . S
C3393 C3392 1.366 . S
C3393 C3394 1.414 . S
C3393 C3396 1.499 . S
C3394 H3374 0.950 . S
C3394 C3393 1.414 . S
C3394 C3395 1.374 . S
C3395 H3375 0.950 . S
C3395 C3391 1.385 . S
C3395 C3394 1.374 . S
C3396 C3393 1.499 . S
C3396 C3397 1.373 . S
C3396 C3398 1.389 . S
C3397 H3376 0.950 . S
C3397 C3396 1.373 . S
C3397 C3413 1.377 . S
C3398 C3396 1.389 . S
C3398 C3399 1.524 . S
C3398 C3412 1.377 . S
C3399 C3398 1.524 . S
C3399 C3400 1.397 . S
C3399 C3404 1.363 . S
C3400 H3377 0.950 . S
C3400 C3399 1.397 . S
C3400 C3401 1.334 . S
C3401 H3378 0.950 . S
C3401 C3400 1.334 . S
C3401 C3402 1.287 . S
C3402 C3401 1.287 . S
C3402 C3403 1.524 . S
C3402 H3421 0.913 . S
C3403 H3379 0.950 . S
C3403 C3402 1.524 . S
C3403 C3404 1.415 . S
C3404 H3380 0.950 . S
C3404 C3399 1.363 . S
C3404 C3403 1.415 . S
C3405 H3381 0.951 . S
C3405 C3406 1.366 . S
C3405 C3407 1.388 . S
C3406 C3405 1.366 . S
C3406 C3410 1.385 . S
C3407 H3382 0.951 . S
C3407 C3405 1.388 . S
C3407 C3408 1.366 . S
C3408 C3407 1.366 . S
C3408 C3409 1.414 . S
C3408 C3411 1.499 . S
C3409 H3383 0.950 . S
C3409 C3408 1.414 . S
C3409 C3410 1.374 . S
C3410 H3384 0.950 . S
C3410 C3406 1.385 . S
C3410 C3409 1.374 . S
C3411 C3408 1.499 . S
C3411 C3412 1.373 . S
C3411 C3413 1.389 . S
C3412 H3385 0.950 . S
C3412 C3398 1.377 . S
C3412 C3411 1.373 . S
C3413 C3397 1.377 . S
C3413 C3411 1.389 . S
C3413 C3414 1.524 . S
C3414 C3413 1.524 . S
C3414 C3415 1.397 . S
C3414 C3419 1.363 . S
C3415 H3386 0.950 . S
C3415 C3414 1.397 . S
C3415 C3416 1.334 . S
C3416 H3387 0.950 . S
C3416 C3415 1.334 . S
C3416 C3417 1.287 . S
C3417 C3416 1.287 . S
C3417 C3418 1.524 . S
C3417 H3420 0.999 . S
C3418 H3388 0.950 . S
C3418 C3417 1.524 . S
C3418 C3419 1.415 . S
C3419 H3389 0.950 . S
C3419 C3414 1.363 . S
C3419 C3418 1.415 . S
H3420 C3417 0.999 . S
H3421 C3402 0.913 . S
H3422 C3440 0.951 . S
H3423 C3442 0.951 . S
H3424 C3444 0.950 . S
H3425 C3445 0.950 . S
H3426 C3447 0.950 . S
H3427 C3450 0.950 . S
H3428 C3451 0.950 . S
H3429 C3453 0.950 . S
H3430 C3454 0.950 . S
H3431 C3455 0.951 . S
H3432 C3457 0.951 . S
H3433 C3459 0.950 . S
H3434 C3460 0.950 . S
H3435 C3462 0.950 . S
H3436 C3465 0.950 . S
H3437 C3466 0.950 . S
H3438 C3468 0.950 . S
H3439 C3469 0.950 . S
C3440 H3422 0.951 . S
C3440 C3441 1.366 . S
C3440 C3442 1.388 . S
C3441 C3440 1.366 . S
C3441 C3445 1.385 . S
C3442 H3423 0.951 . S
C3442 C3440 1.388 . S
C3442 C3443 1.366 . S
C3443 C3442 1.366 . S
C3443 C3444 1.414 . S
C3443 C3446 1.499 . S
C3444 H3424 0.950 . S
C3444 C3443 1.414 . S
C3444 C3445 1.374 . S
C3445 H3425 0.950 . S
C3445 C3441 1.385 . S
C3445 C3444 1.374 . S
C3446 C3443 1.499 . S
C3446 C3447 1.373 . S
C3446 C3448 1.389 . S
C3447 H3426 0.950 . S
C3447 C3446 1.373 . S
C3447 C3463 1.377 . S
C3448 C3446 1.389 . S
C3448 C3449 1.524 . S
C3448 C3462 1.377 . S
C3449 C3448 1.524 . S
C3449 C3450 1.397 . S
C3449 C3454 1.363 . S
C3450 H3427 0.950 . S
C3450 C3449 1.397 . S
C3450 C3451 1.334 . S
C3451 H3428 0.950 . S
C3451 C3450 1.334 . S
C3451 C3452 1.287 . S
C3452 C3451 1.287 . S
C3452 C3453 1.524 . S
C3452 H3471 0.913 . S
C3453 H3429 0.950 . S
C3453 C3452 1.524 . S
C3453 C3454 1.415 . S
C3454 H3430 0.950 . S
C3454 C3449 1.363 . S
C3454 C3453 1.415 . S
C3455 H3431 0.951 . S
C3455 C3456 1.366 . S
C3455 C3457 1.388 . S
C3456 C3455 1.366 . S
C3456 C3460 1.385 . S
C3457 H3432 0.951 . S
C3457 C3455 1.388 . S
C3457 C3458 1.366 . S
C3458 C3457 1.366 . S
C3458 C3459 1.414 . S
C3458 C3461 1.499 . S
C3459 H3433 0.950 . S
C3459 C3458 1.414 . S
C3459 C3460 1.374 . S
C3460 H3434 0.950 . S
C3460 C3456 1.385 . S
C3460 C3459 1.374 . S
C3461 C3458 1.499 . S
C3461 C3462 1.373 . S
C3461 C3463 1.389 . S
C3462 H3435 0.950 . S
C3462 C3448 1.377 . S
C3462 C3461 1.373 . S
C3463 C3447 1.377 . S
C3463 C3461 1.389 . S
C3463 C3464 1.524 . S
C3464 C3463 1.524 . S
C3464 C3465 1.397 . S
C3464 C3469 1.363 . S
C3465 H3436 0.950 . S
C3465 C3464 1.397 . S
C3465 C3466 1.334 . S
C3466 H3437 0.950 . S
C3466 C3465 1.334 . S
C3466 C3467 1.287 . S
C3467 C3466 1.287 . S
C3467 C3468 1.524 . S
C3467 H3470 0.999 . S
C3468 H3438 0.950 . S
C3468 C3467 1.524 . S
C3468 C3469 1.415 . S
C3469 H3439 0.950 . S
C3469 C3464 1.363 . S
C3469 C3468 1.415 . S
H3470 C3467 0.999 . S
H3471 C3452 0.913 . S
H3472 C3490 0.951 . S
H3473 C3492 0.951 . S
H3474 C3494 0.950 . S
H3475 C3495 0.950 . S
H3476 C3497 0.950 . S
H3477 C3500 0.950 . S
H3478 C3501 0.950 . S
H3479 C3503 0.950 . S
H3480 C3504 0.950 . S
H3481 C3505 0.951 . S
H3482 C3507 0.951 . S
H3483 C3509 0.950 . S
H3484 C3510 0.950 . S
H3485 C3512 0.950 . S
H3486 C3515 0.950 . S
H3487 C3516 0.950 . S
H3488 C3518 0.950 . S
H3489 C3519 0.950 . S
C3490 H3472 0.951 . S
C3490 C3491 1.366 . S
C3490 C3492 1.388 . S
C3491 C3490 1.366 . S
C3491 C3495 1.385 . S
C3492 H3473 0.951 . S
C3492 C3490 1.388 . S
C3492 C3493 1.366 . S
C3493 C3492 1.366 . S
C3493 C3494 1.414 . S
C3493 C3496 1.499 . S
C3494 H3474 0.950 . S
C3494 C3493 1.414 . S
C3494 C3495 1.374 . S
C3495 H3475 0.950 . S
C3495 C3491 1.385 . S
C3495 C3494 1.374 . S
C3496 C3493 1.499 . S
C3496 C3497 1.373 . S
C3496 C3498 1.389 . S
C3497 H3476 0.950 . S
C3497 C3496 1.373 . S
C3497 C3513 1.377 . S
C3498 C3496 1.389 . S
C3498 C3499 1.524 . S
C3498 C3512 1.377 . S
C3499 C3498 1.524 . S
C3499 C3500 1.397 . S
C3499 C3504 1.363 . S
C3500 H3477 0.950 . S
C3500 C3499 1.397 . S
C3500 C3501 1.334 . S
C3501 H3478 0.950 . S
C3501 C3500 1.334 . S
C3501 C3502 1.287 . S
C3502 C3501 1.287 . S
C3502 C3503 1.524 . S
C3502 H3521 0.913 . S
C3503 H3479 0.950 . S
C3503 C3502 1.524 . S
C3503 C3504 1.415 . S
C3504 H3480 0.950 . S
C3504 C3499 1.363 . S
C3504 C3503 1.415 . S
C3505 H3481 0.951 . S
C3505 C3506 1.366 . S
C3505 C3507 1.388 . S
C3506 C3505 1.366 . S
C3506 C3510 1.385 . S
C3507 H3482 0.951 . S
C3507 C3505 1.388 . S
C3507 C3508 1.366 . S
C3508 C3507 1.366 . S
C3508 C3509 1.414 . S
C3508 C3511 1.499 . S
C3509 H3483 0.950 . S
C3509 C3508 1.414 . S
C3509 C3510 1.374 . S
C3510 H3484 0.950 . S
C3510 C3506 1.385 . S
C3510 C3509 1.374 . S
C3511 C3508 1.499 . S
C3511 C3512 1.373 . S
C3511 C3513 1.389 . S
C3512 H3485 0.950 . S
C3512 C3498 1.377 . S
C3512 C3511 1.373 . S
C3513 C3497 1.377 . S
C3513 C3511 1.389 . S
C3513 C3514 1.524 . S
C3514 C3513 1.524 . S
C3514 C3515 1.397 . S
C3514 C3519 1.363 . S
C3515 H3486 0.950 . S
C3515 C3514 1.397 . S
C3515 C3516 1.334 . S
C3516 H3487 0.950 . S
C3516 C3515 1.334 . S
C3516 C3517 1.287 . S
C3517 C3516 1.287 . S
C3517 C3518 1.524 . S
C3517 H3520 0.999 . S
C3518 H3488 0.950 . S
C3518 C3517 1.524 . S
C3518 C3519 1.415 . S
C3519 H3489 0.950 . S
C3519 C3514 1.363 . S
C3519 C3518 1.415 . S
H3520 C3517 0.999 . S
H3521 C3502 0.913 . S
H3522 C3540 0.951 . S
H3523 C3542 0.951 . S
H3524 C3544 0.950 . S
H3525 C3545 0.950 . S
H3526 C3547 0.950 . S
H3527 C3550 0.950 . S
H3528 C3551 0.950 . S
H3529 C3553 0.950 . S
H3530 C3554 0.950 . S
H3531 C3555 0.951 . S
H3532 C3557 0.951 . S
H3533 C3559 0.950 . S
H3534 C3560 0.950 . S
H3535 C3562 0.950 . S
H3536 C3565 0.950 . S
H3537 C3566 0.950 . S
H3538 C3568 0.950 . S
H3539 C3569 0.950 . S
C3540 H3522 0.951 . S
C3540 C3541 1.366 . S
C3540 C3542 1.388 . S
C3541 C3540 1.366 . S
C3541 C3545 1.385 . S
C3542 H3523 0.951 . S
C3542 C3540 1.388 . S
C3542 C3543 1.366 . S
C3543 C3542 1.366 . S
C3543 C3544 1.414 . S
C3543 C3546 1.499 . S
C3544 H3524 0.950 . S
C3544 C3543 1.414 . S
C3544 C3545 1.374 . S
C3545 H3525 0.950 . S
C3545 C3541 1.385 . S
C3545 C3544 1.374 . S
C3546 C3543 1.499 . S
C3546 C3547 1.373 . S
C3546 C3548 1.389 . S
C3547 H3526 0.950 . S
C3547 C3546 1.373 . S
C3547 C3563 1.377 . S
C3548 C3546 1.389 . S
C3548 C3549 1.524 . S
C3548 C3562 1.377 . S
C3549 C3548 1.524 . S
C3549 C3550 1.397 . S
C3549 C3554 1.363 . S
C3550 H3527 0.950 . S
C3550 C3549 1.397 . S
C3550 C3551 1.334 . S
C3551 H3528 0.950 . S
C3551 C3550 1.334 . S
C3551 C3552 1.287 . S
C3552 C3551 1.287 . S
C3552 C3553 1.524 . S
C3552 H3571 0.913 . S
C3553 H3529 0.950 . S
C3553 C3552 1.524 . S
C3553 C3554 1.415 . S
C3554 H3530 0.950 . S
C3554 C3549 1.363 . S
C3554 C3553 1.415 . S
C3555 H3531 0.951 . S
C3555 C3556 1.366 . S
C3555 C3557 1.388 . S
C3556 C3555 1.366 . S
C3556 C3560 1.385 . S
C3557 H3532 0.951 . S
C3557 C3555 1.388 . S
C3557 C3558 1.366 . S
C3558 C3557 1.366 . S
C3558 C3559 1.414 . S
C3558 C3561 1.499 . S
C3559 H3533 0.950 . S
C3559 C3558 1.414 . S
C3559 C3560 1.374 . S
C3560 H3534 0.950 . S
C3560 C3556 1.385 . S
C3560 C3559 1.374 . S
C3561 C3558 1.499 . S
C3561 C3562 1.373 . S
C3561 C3563 1.389 . S
C3562 H3535 0.950 . S
C3562 C3548 1.377 . S
C3562 C3561 1.373 . S
C3563 C3547 1.377 . S
C3563 C3561 1.389 . S
C3563 C3564 1.524 . S
C3564 C3563 1.524 . S
C3564 C3565 1.397 . S
C3564 C3569 1.363 . S
C3565 H3536 0.950 . S
C3565 C3564 1.397 . S
C3565 C3566 1.334 . S
C3566 H3537 0.950 . S
C3566 C3565 1.334 . S
C3566 C3567 1.287 . S
C3567 C3566 1.287 . S
C3567 C3568 1.524 . S
C3567 H3570 0.999 . S
C3568 H3538 0.950 . S
C3568 C3567 1.524 . S
C3568 C3569 1.415 . S
C3569 H3539 0.950 . S
C3569 C3564 1.363 . S
C3569 C3568 1.415 . S
H3570 C3567 0.999 . S
H3571 C3552 0.913 . S
H3572 C3590 0.951 . S
H3573 C3592 0.951 . S
H3574 C3594 0.950 . S
H3575 C3595 0.950 . S
H3576 C3597 0.950 . S
H3577 C3600 0.950 . S
H3578 C3601 0.950 . S
H3579 C3603 0.950 . S
H3580 C3604 0.950 . S
H3581 C3605 0.951 . S
H3582 C3607 0.951 . S
H3583 C3609 0.950 . S
H3584 C3610 0.950 . S
H3585 C3612 0.950 . S
H3586 C3615 0.950 . S
H3587 C3616 0.950 . S
H3588 C3618 0.950 . S
H3589 C3619 0.950 . S
C3590 H3572 0.951 . S
C3590 C3591 1.366 . S
C3590 C3592 1.388 . S
C3591 C3590 1.366 . S
C3591 C3595 1.385 . S
C3592 H3573 0.951 . S
C3592 C3590 1.388 . S
C3592 C3593 1.366 . S
C3593 C3592 1.366 . S
C3593 C3594 1.414 . S
C3593 C3596 1.499 . S
C3594 H3574 0.950 . S
C3594 C3593 1.414 . S
C3594 C3595 1.374 . S
C3595 H3575 0.950 . S
C3595 C3591 1.385 . S
C3595 C3594 1.374 . S
C3596 C3593 1.499 . S
C3596 C3597 1.373 . S
C3596 C3598 1.389 . S
C3597 H3576 0.950 . S
C3597 C3596 1.373 . S
C3597 C3613 1.377 . S
C3598 C3596 1.389 . S
C3598 C3599 1.524 . S
C3598 C3612 1.377 . S
C3599 C3598 1.524 . S
C3599 C3600 1.397 . S
C3599 C3604 1.363 . S
C3600 H3577 0.950 . S
C3600 C3599 1.397 . S
C3600 C3601 1.334 . S
C3601 H3578 0.950 . S
C3601 C3600 1.334 . S
C3601 C3602 1.287 . S
C3602 C3601 1.287 . S
C3602 C3603 1.524 . S
C3602 H3621 0.913 . S
C3603 H3579 0.950 . S
C3603 C3602 1.524 . S
C3603 C3604 1.415 . S
C3604 H3580 0.950 . S
C3604 C3599 1.363 . S
C3604 C3603 1.415 . S
C3605 H3581 0.951 . S
C3605 C3606 1.366 . S
C3605 C3607 1.388 . S
C3606 C3605 1.366 . S
C3606 C3610 1.385 . S
C3607 H3582 0.951 . S
C3607 C3605 1.388 . S
C3607 C3608 1.366 . S
C3608 C3607 1.366 . S
C3608 C3609 1.414 . S
C3608 C3611 1.499 . S
C3609 H3583 0.950 . S
C3609 C3608 1.414 . S
C3609 C3610 1.374 . S
C3610 H3584 0.950 . S
C3610 C3606 1.385 . S
C3610 C3609 1.374 . S
C3611 C3608 1.499 . S
C3611 C3612 1.373 . S
C3611 C3613 1.389 . S
C3612 H3585 0.950 . S
C3612 C3598 1.377 . S
C3612 C3611 1.373 . S
C3613 C3597 1.377 . S
C3613 C3611 1.389 . S
C3613 C3614 1.524 . S
C3614 C3613 1.524 . S
C3614 C3615 1.397 . S
C3614 C3619 1.363 . S
C3615 H3586 0.950 . S
C3615 C3614 1.397 . S
C3615 C3616 1.334 . S
C3616 H3587 0.950 . S
C3616 C3615 1.334 . S
C3616 C3617 1.287 . S
C3617 C3616 1.287 . S
C3617 C3618 1.524 . S
C3617 H3620 0.999 . S
C3618 H3588 0.950 . S
C3618 C3617 1.524 . S
C3618 C3619 1.415 . S
C3619 H3589 0.950 . S
C3619 C3614 1.363 . S
C3619 C3618 1.415 . S
H3620 C3617 0.999 . S
H3621 C3602 0.913 . S
H3622 C3640 0.951 . S
H3623 C3642 0.951 . S
H3624 C3644 0.950 . S
H3625 C3645 0.950 . S
H3626 C3647 0.950 . S
H3627 C3650 0.950 . S
H3628 C3651 0.950 . S
H3629 C3653 0.950 . S
H3630 C3654 0.950 . S
H3631 C3655 0.951 . S
H3632 C3657 0.951 . S
H3633 C3659 0.950 . S
H3634 C3660 0.950 . S
H3635 C3662 0.950 . S
H3636 C3665 0.950 . S
H3637 C3666 0.950 . S
H3638 C3668 0.950 . S
H3639 C3669 0.950 . S
C3640 H3622 0.951 . S
C3640 C3641 1.366 . S
C3640 C3642 1.388 . S
C3641 C3640 1.366 . S
C3641 C3645 1.385 . S
C3642 H3623 0.951 . S
C3642 C3640 1.388 . S
C3642 C3643 1.366 . S
C3643 C3642 1.366 . S
C3643 C3644 1.414 . S
C3643 C3646 1.499 . S
C3644 H3624 0.950 . S
C3644 C3643 1.414 . S
C3644 C3645 1.374 . S
C3645 H3625 0.950 . S
C3645 C3641 1.385 . S
C3645 C3644 1.374 . S
C3646 C3643 1.499 . S
C3646 C3647 1.373 . S
C3646 C3648 1.389 . S
C3647 H3626 0.950 . S
C3647 C3646 1.373 . S
C3647 C3663 1.377 . S
C3648 C3646 1.389 . S
C3648 C3649 1.524 . S
C3648 C3662 1.377 . S
C3649 C3648 1.524 . S
C3649 C3650 1.397 . S
C3649 C3654 1.363 . S
C3650 H3627 0.950 . S
C3650 C3649 1.397 . S
C3650 C3651 1.334 . S
C3651 H3628 0.950 . S
C3651 C3650 1.334 . S
C3651 C3652 1.287 . S
C3652 C3651 1.287 . S
C3652 C3653 1.524 . S
C3652 H3671 0.913 . S
C3653 H3629 0.950 . S
C3653 C3652 1.524 . S
C3653 C3654 1.415 . S
C3654 H3630 0.950 . S
C3654 C3649 1.363 . S
C3654 C3653 1.415 . S
C3655 H3631 0.951 . S
C3655 C3656 1.366 . S
C3655 C3657 1.388 . S
C3656 C3655 1.366 . S
C3656 C3660 1.385 . S
C3657 H3632 0.951 . S
C3657 C3655 1.388 . S
C3657 C3658 1.366 . S
C3658 C3657 1.366 . S
C3658 C3659 1.414 . S
C3658 C3661 1.499 . S
C3659 H3633 0.950 . S
C3659 C3658 1.414 . S
C3659 C3660 1.374 . S
C3660 H3634 0.950 . S
C3660 C3656 1.385 . S
C3660 C3659 1.374 . S
C3661 C3658 1.499 . S
C3661 C3662 1.373 . S
C3661 C3663 1.389 . S
C3662 H3635 0.950 . S
C3662 C3648 1.377 . S
C3662 C3661 1.373 . S
C3663 C3647 1.377 . S
C3663 C3661 1.389 . S
C3663 C3664 1.524 . S
C3664 C3663 1.524 . S
C3664 C3665 1.397 . S
C3664 C3669 1.363 . S
C3665 H3636 0.950 . S
C3665 C3664 1.397 . S
C3665 C3666 1.334 . S
C3666 H3637 0.950 . S
C3666 C3665 1.334 . S
C3666 C3667 1.287 . S
C3667 C3666 1.287 . S
C3667 C3668 1.524 . S
C3667 H3670 0.999 . S
C3668 H3638 0.950 . S
C3668 C3667 1.524 . S
C3668 C3669 1.415 . S
C3669 H3639 0.950 . S
C3669 C3664 1.363 . S
C3669 C3668 1.415 . S
H3670 C3667 0.999 . S
H3671 C3652 0.913 . S
H3672 C3690 0.951 . S
H3673 C3692 0.951 . S
H3674 C3694 0.950 . S
H3675 C3695 0.950 . S
H3676 C3697 0.950 . S
H3677 C3700 0.950 . S
H3678 C3701 0.950 . S
H3679 C3703 0.950 . S
H3680 C3704 0.950 . S
H3681 C3705 0.951 . S
H3682 C3707 0.951 . S
H3683 C3709 0.950 . S
H3684 C3710 0.950 . S
H3685 C3712 0.950 . S
H3686 C3715 0.950 . S
H3687 C3716 0.950 . S
H3688 C3718 0.950 . S
H3689 C3719 0.950 . S
C3690 H3672 0.951 . S
C3690 C3691 1.366 . S
C3690 C3692 1.388 . S
C3691 C3690 1.366 . S
C3691 C3695 1.385 . S
C3692 H3673 0.951 . S
C3692 C3690 1.388 . S
C3692 C3693 1.366 . S
C3693 C3692 1.366 . S
C3693 C3694 1.414 . S
C3693 C3696 1.499 . S
C3694 H3674 0.950 . S
C3694 C3693 1.414 . S
C3694 C3695 1.374 . S
C3695 H3675 0.950 . S
C3695 C3691 1.385 . S
C3695 C3694 1.374 . S
C3696 C3693 1.499 . S
C3696 C3697 1.373 . S
C3696 C3698 1.389 . S
C3697 H3676 0.950 . S
C3697 C3696 1.373 . S
C3697 C3713 1.377 . S
C3698 C3696 1.389 . S
C3698 C3699 1.524 . S
C3698 C3712 1.377 . S
C3699 C3698 1.524 . S
C3699 C3700 1.397 . S
C3699 C3704 1.363 . S
C3700 H3677 0.950 . S
C3700 C3699 1.397 . S
C3700 C3701 1.334 . S
C3701 H3678 0.950 . S
C3701 C3700 1.334 . S
C3701 C3702 1.287 . S
C3702 C3701 1.287 . S
C3702 C3703 1.524 . S
C3702 H3721 0.913 . S
C3703 H3679 0.950 . S
C3703 C3702 1.524 . S
C3703 C3704 1.415 . S
C3704 H3680 0.950 . S
C3704 C3699 1.363 . S
C3704 C3703 1.415 . S
C3705 H3681 0.951 . S
C3705 C3706 1.366 . S
C3705 C3707 1.388 . S
C3706 C3705 1.366 . S
C3706 C3710 1.385 . S
C3707 H3682 0.951 . S
C3707 C3705 1.388 . S
C3707 C3708 1.366 . S
C3708 C3707 1.366 . S
C3708 C3709 1.414 . S
C3708 C3711 1.499 . S
C3709 H3683 0.950 . S
C3709 C3708 1.414 . S
C3709 C3710 1.374 . S
C3710 H3684 0.950 . S
C3710 C3706 1.385 . S
C3710 C3709 1.374 . S
C3711 C3708 1.499 . S
C3711 C3712 1.373 . S
C3711 C3713 1.389 . S
C3712 H3685 0.950 . S
C3712 C3698 1.377 . S
C3712 C3711 1.373 . S
C3713 C3697 1.377 . S
C3713 C3711 1.389 . S
C3713 C3714 1.524 . S
C3714 C3713 1.524 . S
C3714 C3715 1.397 . S
C3714 C3719 1.363 . S
C3715 H3686 0.950 . S
C3715 C3714 1.397 . S
C3715 C3716 1.334 . S
C3716 H3687 0.950 . S
C3716 C3715 1.334 . S
C3716 C3717 1.287 . S
C3717 C3716 1.287 . S
C3717 C3718 1.524 . S
C3717 H3720 0.999 . S
C3718 H3688 0.950 . S
C3718 C3717 1.524 . S
C3718 C3719 1.415 . S
C3719 H3689 0.950 . S
C3719 C3714 1.363 . S
C3719 C3718 1.415 . S
H3720 C3717 0.999 . S
H3721 C3702 0.913 . S
H3722 C3740 0.951 . S
H3723 C3742 0.951 . S
H3724 C3744 0.950 . S
H3725 C3745 0.950 . S
H3726 C3747 0.950 . S
H3727 C3750 0.950 . S
H3728 C3751 0.950 . S
H3729 C3753 0.950 . S
H3730 C3754 0.950 . S
H3731 C3755 0.951 . S
H3732 C3757 0.951 . S
H3733 C3759 0.950 . S
H3734 C3760 0.950 . S
H3735 C3762 0.950 . S
H3736 C3765 0.950 . S
H3737 C3766 0.950 . S
H3738 C3768 0.950 . S
H3739 C3769 0.950 . S
C3740 H3722 0.951 . S
C3740 C3741 1.366 . S
C3740 C3742 1.388 . S
C3741 C3740 1.366 . S
C3741 C3745 1.385 . S
C3742 H3723 0.951 . S
C3742 C3740 1.388 . S
C3742 C3743 1.366 . S
C3743 C3742 1.366 . S
C3743 C3744 1.414 . S
C3743 C3746 1.499 . S
C3744 H3724 0.950 . S
C3744 C3743 1.414 . S
C3744 C3745 1.374 . S
C3745 H3725 0.950 . S
C3745 C3741 1.385 . S
C3745 C3744 1.374 . S
C3746 C3743 1.499 . S
C3746 C3747 1.373 . S
C3746 C3748 1.389 . S
C3747 H3726 0.950 . S
C3747 C3746 1.373 . S
C3747 C3763 1.377 . S
C3748 C3746 1.389 . S
C3748 C3749 1.524 . S
C3748 C3762 1.377 . S
C3749 C3748 1.524 . S
C3749 C3750 1.397 . S
C3749 C3754 1.363 . S
C3750 H3727 0.950 . S
C3750 C3749 1.397 . S
C3750 C3751 1.334 . S
C3751 H3728 0.950 . S
C3751 C3750 1.334 . S
C3751 C3752 1.287 . S
C3752 C3751 1.287 . S
C3752 C3753 1.524 . S
C3752 H3771 0.913 . S
C3753 H3729 0.950 . S
C3753 C3752 1.524 . S
C3753 C3754 1.415 . S
C3754 H3730 0.950 . S
C3754 C3749 1.363 . S
C3754 C3753 1.415 . S
C3755 H3731 0.951 . S
C3755 C3756 1.366 . S
C3755 C3757 1.388 . S
C3756 C3755 1.366 . S
C3756 C3760 1.385 . S
C3757 H3732 0.951 . S
C3757 C3755 1.388 . S
C3757 C3758 1.366 . S
C3758 C3757 1.366 . S
C3758 C3759 1.414 . S
C3758 C3761 1.499 . S
C3759 H3733 0.950 . S
C3759 C3758 1.414 . S
C3759 C3760 1.374 . S
C3760 H3734 0.950 . S
C3760 C3756 1.385 . S
C3760 C3759 1.374 . S
C3761 C3758 1.499 . S
C3761 C3762 1.373 . S
C3761 C3763 1.389 . S
C3762 H3735 0.950 . S
C3762 C3748 1.377 . S
C3762 C3761 1.373 . S
C3763 C3747 1.377 . S
C3763 C3761 1.389 . S
C3763 C3764 1.524 . S
C3764 C3763 1.524 . S
C3764 C3765 1.397 . S
C3764 C3769 1.363 . S
C3765 H3736 0.950 . S
C3765 C3764 1.397 . S
C3765 C3766 1.334 . S
C3766 H3737 0.950 . S
C3766 C3765 1.334 . S
C3766 C3767 1.287 . S
C3767 C3766 1.287 . S
C3767 C3768 1.524 . S
C3767 H3770 0.999 . S
C3768 H3738 0.950 . S
C3768 C3767 1.524 . S
C3768 C3769 1.415 . S
C3769 H3739 0.950 . S
C3769 C3764 1.363 . S
C3769 C3768 1.415 . S
H3770 C3767 0.999 . S
H3771 C3752 0.913 . S
H3772 C3790 0.951 . S
H3773 C3792 0.951 . S
H3774 C3794 0.950 . S
H3775 C3795 0.950 . S
H3776 C3797 0.950 . S
H3777 C3800 0.950 . S
H3778 C3801 0.950 . S
H3779 C3803 0.950 . S
H3780 C3804 0.950 . S
H3781 C3805 0.951 . S
H3782 C3807 0.951 . S
H3783 C3809 0.950 . S
H3784 C3810 0.950 . S
H3785 C3812 0.950 . S
H3786 C3815 0.950 . S
H3787 C3816 0.950 . S
H3788 C3818 0.950 . S
H3789 C3819 0.950 . S
C3790 H3772 0.951 . S
C3790 C3791 1.366 . S
C3790 C3792 1.388 . S
C3791 C3790 1.366 . S
C3791 C3795 1.385 . S
C3792 H3773 0.951 . S
C3792 C3790 1.388 . S
C3792 C3793 1.366 . S
C3793 C3792 1.366 . S
C3793 C3794 1.414 . S
C3793 C3796 1.499 . S
C3794 H3774 0.950 . S
C3794 C3793 1.414 . S
C3794 C3795 1.374 . S
C3795 H3775 0.950 . S
C3795 C3791 1.385 . S
C3795 C3794 1.374 . S
C3796 C3793 1.499 . S
C3796 C3797 1.373 . S
C3796 C3798 1.389 . S
C3797 H3776 0.950 . S
C3797 C3796 1.373 . S
C3797 C3813 1.377 . S
C3798 C3796 1.389 . S
C3798 C3799 1.524 . S
C3798 C3812 1.377 . S
C3799 C3798 1.524 . S
C3799 C3800 1.397 . S
C3799 C3804 1.363 . S
C3800 H3777 0.950 . S
C3800 C3799 1.397 . S
C3800 C3801 1.334 . S
C3801 H3778 0.950 . S
C3801 C3800 1.334 . S
C3801 C3802 1.287 . S
C3802 C3801 1.287 . S
C3802 C3803 1.524 . S
C3802 H3821 0.913 . S
C3803 H3779 0.950 . S
C3803 C3802 1.524 . S
C3803 C3804 1.415 . S
C3804 H3780 0.950 . S
C3804 C3799 1.363 . S
C3804 C3803 1.415 . S
C3805 H3781 0.951 . S
C3805 C3806 1.366 . S
C3805 C3807 1.388 . S
C3806 C3805 1.366 . S
C3806 C3810 1.385 . S
C3807 H3782 0.951 . S
C3807 C3805 1.388 . S
C3807 C3808 1.366 . S
C3808 C3807 1.366 . S
C3808 C3809 1.414 . S
C3808 C3811 1.499 . S
C3809 H3783 0.950 . S
C3809 C3808 1.414 . S
C3809 C3810 1.374 . S
C3810 H3784 0.950 . S
C3810 C3806 1.385 . S
C3810 C3809 1.374 . S
C3811 C3808 1.499 . S
C3811 C3812 1.373 . S
C3811 C3813 1.389 . S
C3812 H3785 0.950 . S
C3812 C3798 1.377 . S
C3812 C3811 1.373 . S
C3813 C3797 1.377 . S
C3813 C3811 1.389 . S
C3813 C3814 1.524 . S
C3814 C3813 1.524 . S
C3814 C3815 1.397 . S
C3814 C3819 1.363 . S
C3815 H3786 0.950 . S
C3815 C3814 1.397 . S
C3815 C3816 1.334 . S
C3816 H3787 0.950 . S
C3816 C3815 1.334 . S
C3816 C3817 1.287 . S
C3817 C3816 1.287 . S
C3817 C3818 1.524 . S
C3817 H3820 0.999 . S
C3818 H3788 0.950 . S
C3818 C3817 1.524 . S
C3818 C3819 1.415 . S
C3819 H3789 0.950 . S
C3819 C3814 1.363 . S
C3819 C3818 1.415 . S
H3820 C3817 0.999 . S
H3821 C3802 0.913 . S
H3822 C3840 0.951 . S
H3823 C3842 0.951 . S
H3824 C3844 0.950 . S
H3825 C3845 0.950 . S
H3826 C3847 0.950 . S
H3827 C3850 0.950 . S
H3828 C3851 0.950 . S
H3829 C3853 0.950 . S
H3830 C3854 0.950 . S
H3831 C3855 0.951 . S
H3832 C3857 0.951 . S
H3833 C3859 0.950 . S
H3834 C3860 0.950 . S
H3835 C3862 0.950 . S
H3836 C3865 0.950 . S
H3837 C3866 0.950 . S
H3838 C3868 0.950 . S
H3839 C3869 0.950 . S
C3840 H3822 0.951 . S
C3840 C3841 1.366 . S
C3840 C3842 1.388 . S
C3841 C3840 1.366 . S
C3841 C3845 1.385 . S
C3842 H3823 0.951 . S
C3842 C3840 1.388 . S
C3842 C3843 1.366 . S
C3843 C3842 1.366 . S
C3843 C3844 1.414 . S
C3843 C3846 1.499 . S
C3844 H3824 0.950 . S
C3844 C3843 1.414 . S
C3844 C3845 1.374 . S
C3845 H3825 0.950 . S
C3845 C3841 1.385 . S
C3845 C3844 1.374 . S
C3846 C3843 1.499 . S
C3846 C3847 1.373 . S
C3846 C3848 1.389 . S
C3847 H3826 0.950 . S
C3847 C3846 1.373 . S
C3847 C3863 1.377 . S
C3848 C3846 1.389 . S
C3848 C3849 1.524 . S
C3848 C3862 1.377 . S
C3849 C3848 1.524 . S
C3849 C3850 1.397 . S
C3849 C3854 1.363 . S
C3850 H3827 0.950 . S
C3850 C3849 1.397 . S
C3850 C3851 1.334 . S
C3851 H3828 0.950 . S
C3851 C3850 1.334 . S
C3851 C3852 1.287 . S
C3852 C3851 1.287 . S
C3852 C3853 1.524 . S
C3852 H3871 0.913 . S
C3853 H3829 0.950 . S
C3853 C3852 1.524 . S
C3853 C3854 1.415 . S
C3854 H3830 0.950 . S
C3854 C3849 1.363 . S
C3854 C3853 1.415 . S
C3855 H3831 0.951 . S
C3855 C3856 1.366 . S
C3855 C3857 1.388 . S
C3856 C3855 1.366 . S
C3856 C3860 1.385 . S
C3857 H3832 0.951 . S
C3857 C3855 1.388 . S
C3857 C3858 1.366 . S
C3858 C3857 1.366 . S
C3858 C3859 1.414 . S
C3858 C3861 1.499 . S
C3859 H3833 0.950 . S
C3859 C3858 1.414 . S
C3859 C3860 1.374 . S
C3860 H3834 0.950 . S
C3860 C3856 1.385 . S
C3860 C3859 1.374 . S
C3861 C3858 1.499 . S
C3861 C3862 1.373 . S
C3861 C3863 1.389 . S
C3862 H3835 0.950 . S
C3862 C3848 1.377 . S
C3862 C3861 1.373 . S
C3863 C3847 1.377 . S
C3863 C3861 1.389 . S
C3863 C3864 1.524 . S
C3864 C3863 1.524 . S
C3864 C3865 1.397 . S
C3864 C3869 1.363 . S
C3865 H3836 0.950 . S
C3865 C3864 1.397 . S
C3865 C3866 1.334 . S
C3866 H3837 0.950 . S
C3866 C3865 1.334 . S
C3866 C3867 1.287 . S
C3867 C3866 1.287 . S
C3867 C3868 1.524 . S
C3867 H3870 0.999 . S
C3868 H3838 0.950 . S
C3868 C3867 1.524 . S
C3868 C3869 1.415 . S
C3869 H3839 0.950 . S
C3869 C3864 1.363 . S
C3869 C3868 1.415 . S
H3870 C3867 0.999 . S
H3871 C3852 0.913 . S
H3872 C3890 0.951 . S
H3873 C3892 0.951 . S
H3874 C3894 0.950 . S
H3875 C3895 0.950 . S
H3876 C3897 0.950 . S
H3877 C3900 0.950 . S
H3878 C3901 0.950 . S
H3879 C3903 0.950 . S
H3880 C3904 0.950 . S
H3881 C3905 0.951 . S
H3882 C3907 0.951 . S
H3883 C3909 0.950 . S
H3884 C3910 0.950 . S
H3885 C3912 0.950 . S
H3886 C3915 0.950 . S
H3887 C3916 0.950 . S
H3888 C3918 0.950 . S
H3889 C3919 0.950 . S
C3890 H3872 0.951 . S
C3890 C3891 1.366 . S
C3890 C3892 1.388 . S
C3891 C3890 1.366 . S
C3891 C3895 1.385 . S
C3892 H3873 0.951 . S
C3892 C3890 1.388 . S
C3892 C3893 1.366 . S
C3893 C3892 1.366 . S
C3893 C3894 1.414 . S
C3893 C3896 1.499 . S
C3894 H3874 0.950 . S
C3894 C3893 1.414 . S
C3894 C3895 1.374 . S
C3895 H3875 0.950 . S
C3895 C3891 1.385 . S
C3895 C3894 1.374 . S
C3896 C3893 1.499 . S
C3896 C3897 1.373 . S
C3896 C3898 1.389 . S
C3897 H3876 0.950 . S
C3897 C3896 1.373 . S
C3897 C3913 1.377 . S
C3898 C3896 1.389 . S
C3898 C3899 1.524 . S
C3898 C3912 1.377 . S
C3899 C3898 1.524 . S
C3899 C3900 1.397 . S
C3899 C3904 1.363 . S
C3900 H3877 0.950 . S
C3900 C3899 1.397 . S
C3900 C3901 1.334 . S
C3901 H3878 0.950 . S
C3901 C3900 1.334 . S
C3901 C3902 1.287 . S
C3902 C3901 1.287 . S
C3902 C3903 1.524 . S
C3902 H3921 0.913 . S
C3903 H3879 0.950 . S
C3903 C3902 1.524 . S
C3903 C3904 1.415 . S
C3904 H3880 0.950 . S
C3904 C3899 1.363 . S
C3904 C3903 1.415 . S
C3905 H3881 0.951 . S
C3905 C3906 1.366 . S
C3905 C3907 1.388 . S
C3906 C3905 1.366 . S
C3906 C3910 1.385 . S
C3907 H3882 0.951 . S
C3907 C3905 1.388 . S
C3907 C3908 1.366 . S
C3908 C3907 1.366 . S
C3908 C3909 1.414 . S
C3908 C3911 1.499 . S
C3909 H3883 0.950 . S
C3909 C3908 1.414 . S
C3909 C3910 1.374 . S
C3910 H3884 0.950 . S
C3910 C3906 1.385 . S
C3910 C3909 1.374 . S
C3911 C3908 1.499 . S
C3911 C3912 1.373 . S
C3911 C3913 1.389 . S
C3912 H3885 0.950 . S
C3912 C3898 1.377 . S
C3912 C3911 1.373 . S
C3913 C3897 1.377 . S
C3913 C3911 1.389 . S
C3913 C3914 1.524 . S
C3914 C3913 1.524 . S
C3914 C3915 1.397 . S
C3914 C3919 1.363 . S
C3915 H3886 0.950 . S
C3915 C3914 1.397 . S
C3915 C3916 1.334 . S
C3916 H3887 0.950 . S
C3916 C3915 1.334 . S
C3916 C3917 1.287 . S
C3917 C3916 1.287 . S
C3917 C3918 1.524 . S
C3917 H3920 0.999 . S
C3918 H3888 0.950 . S
C3918 C3917 1.524 . S
C3918 C3919 1.415 . S
C3919 H3889 0.950 . S
C3919 C3914 1.363 . S
C3919 C3918 1.415 . S
H3920 C3917 0.999 . S
H3921 C3902 0.913 . S
H3922 C3940 0.951 . S
H3923 C3942 0.951 . S
H3924 C3944 0.950 . S
H3925 C3945 0.950 . S
H3926 C3947 0.950 . S
H3927 C3950 0.950 . S
H3928 C3951 0.950 . S
H3929 C3953 0.950 . S
H3930 C3954 0.950 . S
H3931 C3955 0.951 . S
H3932 C3957 0.951 . S
H3933 C3959 0.950 . S
H3934 C3960 0.950 . S
H3935 C3962 0.950 . S
H3936 C3965 0.950 . S
H3937 C3966 0.950 . S
H3938 C3968 0.950 . S
H3939 C3969 0.950 . S
C3940 H3922 0.951 . S
C3940 C3941 1.366 . S
C3940 C3942 1.388 . S
C3941 C3940 1.366 . S
C3941 C3945 1.385 . S
C3942 H3923 0.951 . S
C3942 C3940 1.388 . S
C3942 C3943 1.366 . S
C3943 C3942 1.366 . S
C3943 C3944 1.414 . S
C3943 C3946 1.499 . S
C3944 H3924 0.950 . S
C3944 C3943 1.414 . S
C3944 C3945 1.374 . S
C3945 H3925 0.950 . S
C3945 C3941 1.385 . S
C3945 C3944 1.374 . S
C3946 C3943 1.499 . S
C3946 C3947 1.373 . S
C3946 C3948 1.389 . S
C3947 H3926 0.950 . S
C3947 C3946 1.373 . S
C3947 C3963 1.377 . S
C3948 C3946 1.389 . S
C3948 C3949 1.524 . S
C3948 C3962 1.377 . S
C3949 C3948 1.524 . S
C3949 C3950 1.397 . S
C3949 C3954 1.363 . S
C3950 H3927 0.950 . S
C3950 C3949 1.397 . S
C3950 C3951 1.334 . S
C3951 H3928 0.950 . S
C3951 C3950 1.334 . S
C3951 C3952 1.287 . S
C3952 C3951 1.287 . S
C3952 C3953 1.524 . S
C3952 H3971 0.913 . S
C3953 H3929 0.950 . S
C3953 C3952 1.524 . S
C3953 C3954 1.415 . S
C3954 H3930 0.950 . S
C3954 C3949 1.363 . S
C3954 C3953 1.415 . S
C3955 H3931 0.951 . S
C3955 C3956 1.366 . S
C3955 C3957 1.388 . S
C3956 C3955 1.366 . S
C3956 C3960 1.385 . S
C3957 H3932 0.951 . S
C3957 C3955 1.388 . S
C3957 C3958 1.366 . S
C3958 C3957 1.366 . S
C3958 C3959 1.414 . S
C3958 C3961 1.499 . S
C3959 H3933 0.950 . S
C3959 C3958 1.414 . S
C3959 C3960 1.374 . S
C3960 H3934 0.950 . S
C3960 C3956 1.385 . S
C3960 C3959 1.374 . S
C3961 C3958 1.499 . S
C3961 C3962 1.373 . S
C3961 C3963 1.389 . S
C3962 H3935 0.950 . S
C3962 C3948 1.377 . S
C3962 C3961 1.373 . S
C3963 C3947 1.377 . S
C3963 C3961 1.389 . S
C3963 C3964 1.524 . S
C3964 C3963 1.524 . S
C3964 C3965 1.397 . S
C3964 C3969 1.363 . S
C3965 H3936 0.950 . S
C3965 C3964 1.397 . S
C3965 C3966 1.334 . S
C3966 H3937 0.950 . S
C3966 C3965 1.334 . S
C3966 C3967 1.287 . S
C3967 C3966 1.287 . S
C3967 C3968 1.524 . S
C3967 H3970 0.999 . S
C3968 H3938 0.950 . S
C3968 C3967 1.524 . S
C3968 C3969 1.415 . S
C3969 H3939 0.950 . S
C3969 C3964 1.363 . S
C3969 C3968 1.415 . S
H3970 C3967 0.999 . S
H3971 C3952 0.913 . S
H3972 C3990 0.951 . S
H3973 C3992 0.951 . S
H3974 C3994 0.950 . S
H3975 C3995 0.950 . S
H3976 C3997 0.950 . S
H3977 C4000 0.950 . S
H3978 C4001 0.950 . S
H3979 C4003 0.950 . S
H3980 C4004 0.950 . S
H3981 C4005 0.951 . S
H3982 C4007 0.951 . S
H3983 C4009 0.950 . S
H3984 C4010 0.950 . S
H3985 C4012 0.950 . S
H3986 C4015 0.950 . S
H3987 C4016 0.950 . S
H3988 C4018 0.950 . S
H3989 C4019 0.950 . S
C3990 H3972 0.951 . S
C3990 C3991 1.366 . S
C3990 C3992 1.388 . S
C3991 C3990 1.366 . S
C3991 C3995 1.385 . S
C3992 H3973 0.951 . S
C3992 C3990 1.388 . S
C3992 C3993 1.366 . S
C3993 C3992 1.366 . S
C3993 C3994 1.414 . S
C3993 C3996 1.499 . S
C3994 H3974 0.950 . S
C3994 C3993 1.414 . S
C3994 C3995 1.374 . S
C3995 H3975 0.950 . S
C3995 C3991 1.385 . S
C3995 C3994 1.374 . S
C3996 C3993 1.499 . S
C3996 C3997 1.373 . S
C3996 C3998 1.389 . S
C3997 H3976 0.950 . S
C3997 C3996 1.373 . S
C3997 C4013 1.377 . S
C3998 C3996 1.389 . S
C3998 C3999 1.524 . S
C3998 C4012 1.377 . S
C3999 C3998 1.524 . S
C3999 C4000 1.397 . S
C3999 C4004 1.363 . S
C4000 H3977 0.950 . S
C4000 C3999 1.397 . S
C4000 C4001 1.334 . S
C4001 H3978 0.950 . S
C4001 C4000 1.334 . S
C4001 C4002 1.287 . S
C4002 C4001 1.287 . S
C4002 C4003 1.524 . S
C4002 H4021 0.913 . S
C4003 H3979 0.950 . S
C4003 C4002 1.524 . S
C4003 C4004 1.415 . S
C4004 H3980 0.950 . S
C4004 C3999 1.363 . S
C4004 C4003 1.415 . S
C4005 H3981 0.951 . S
C4005 C4006 1.366 . S
C4005 C4007 1.388 . S
C4006 C4005 1.366 . S
C4006 C4010 1.385 . S
C4007 H3982 0.951 . S
C4007 C4005 1.388 . S
C4007 C4008 1.366 . S
C4008 C4007 1.366 . S
C4008 C4009 1.414 . S
C4008 C4011 1.499 . S
C4009 H3983 0.950 . S
C4009 C4008 1.414 . S
C4009 C4010 1.374 . S
C4010 H3984 0.950 . S
C4010 C4006 1.385 . S
C4010 C4009 1.374 . S
C4011 C4008 1.499 . S
C4011 C4012 1.373 . S
C4011 C4013 1.389 . S
C4012 H3985 0.950 . S
C4012 C3998 1.377 . S
C4012 C4011 1.373 . S
C4013 C3997 1.377 . S
C4013 C4011 1.389 . S
C4013 C4014 1.524 . S
C4014 C4013 1.524 . S
C4014 C4015 1.397 . S
C4014 C4019 1.363 . S
C4015 H3986 0.950 . S
C4015 C4014 1.397 . S
C4015 C4016 1.334 . S
C4016 H3987 0.950 . S
C4016 C4015 1.334 . S
C4016 C4017 1.287 . S
C4017 C4016 1.287 . S
C4017 C4018 1.524 . S
C4017 H4020 0.999 . S
C4018 H3988 0.950 . S
C4018 C4017 1.524 . S
C4018 C4019 1.415 . S
C4019 H3989 0.950 . S
C4019 C4014 1.363 . S
C4019 C4018 1.415 . S
H4020 C4017 0.999 . S
H4021 C4002 0.913 . S
H4022 C4040 0.951 . S
H4023 C4042 0.951 . S
H4024 C4044 0.950 . S
H4025 C4045 0.950 . S
H4026 C4047 0.950 . S
H4027 C4050 0.950 . S
H4028 C4051 0.950 . S
H4029 C4053 0.950 . S
H4030 C4054 0.950 . S
H4031 C4055 0.951 . S
H4032 C4057 0.951 . S
H4033 C4059 0.950 . S
H4034 C4060 0.950 . S
H4035 C4062 0.950 . S
H4036 C4065 0.950 . S
H4037 C4066 0.950 . S
H4038 C4068 0.950 . S
H4039 C4069 0.950 . S
C4040 H4022 0.951 . S
C4040 C4041 1.366 . S
C4040 C4042 1.388 . S
C4041 C4040 1.366 . S
C4041 C4045 1.385 . S
C4042 H4023 0.951 . S
C4042 C4040 1.388 . S
C4042 C4043 1.366 . S
C4043 C4042 1.366 . S
C4043 C4044 1.414 . S
C4043 C4046 1.499 . S
C4044 H4024 0.950 . S
C4044 C4043 1.414 . S
C4044 C4045 1.374 . S
C4045 H4025 0.950 . S
C4045 C4041 1.385 . S
C4045 C4044 1.374 . S
C4046 C4043 1.499 . S
C4046 C4047 1.373 . S
C4046 C4048 1.389 . S
C4047 H4026 0.950 . S
C4047 C4046 1.373 . S
C4047 C4063 1.377 . S
C4048 C4046 1.389 . S
C4048 C4049 1.524 . S
C4048 C4062 1.377 . S
C4049 C4048 1.524 . S
C4049 C4050 1.397 . S
C4049 C4054 1.363 . S
C4050 H4027 0.950 . S
C4050 C4049 1.397 . S
C4050 C4051 1.334 . S
C4051 H4028 0.950 . S
C4051 C4050 1.334 . S
C4051 C4052 1.287 . S
C4052 C4051 1.287 . S
C4052 C4053 1.524 . S
C4052 H4071 0.913 . S
C4053 H4029 0.950 . S
C4053 C4052 1.524 . S
C4053 C4054 1.415 . S
C4054 H4030 0.950 . S
C4054 C4049 1.363 . S
C4054 C4053 1.415 . S
C4055 H4031 0.951 . S
C4055 C4056 1.366 . S
C4055 C4057 1.388 . S
C4056 C4055 1.366 . S
C4056 C4060 1.385 . S
C4057 H4032 0.951 . S
C4057 C4055 1.388 . S
C4057 C4058 1.366 . S
C4058 C4057 1.366 . S
C4058 C4059 1.414 . S
C4058 C4061 1.499 . S
C4059 H4033 0.950 . S
C4059 C4058 1.414 . S
C4059 C4060 1.374 . S
C4060 H4034 0.950 . S
C4060 C4056 1.385 . S
C4060 C4059 1.374 . S
C4061 C4058 1.499 . S
C4061 C4062 1.373 . S
C4061 C4063 1.389 . S
C4062 H4035 0.950 . S
C4062 C4048 1.377 . S
C4062 C4061 1.373 . S
C4063 C4047 1.377 . S
C4063 C4061 1.389 . S
C4063 C4064 1.524 . S
C4064 C4063 1.524 . S
C4064 C4065 1.397 . S
C4064 C4069 1.363 . S
C4065 H4036 0.950 . S
C4065 C4064 1.397 . S
C4065 C4066 1.334 . S
C4066 H4037 0.950 . S
C4066 C4065 1.334 . S
C4066 C4067 1.287 . S
C4067 C4066 1.287 . S
C4067 C4068 1.524 . S
C4067 H4070 0.999 . S
C4068 H4038 0.950 . S
C4068 C4067 1.524 . S
C4068 C4069 1.415 . S
C4069 H4039 0.950 . S
C4069 C4064 1.363 . S
C4069 C4068 1.415 . S
H4070 C4067 0.999 . S
H4071 C4052 0.913 . S
H4072 C4090 0.951 . S
H4073 C4092 0.951 . S
H4074 C4094 0.950 . S
H4075 C4095 0.950 . S
H4076 C4097 0.950 . S
H4077 C4100 0.950 . S
H4078 C4101 0.950 . S
H4079 C4103 0.950 . S
H4080 C4104 0.950 . S
H4081 C4105 0.951 . S
H4082 C4107 0.951 . S
H4083 C4109 0.950 . S
H4084 C4110 0.950 . S
H4085 C4112 0.950 . S
H4086 C4115 0.950 . S
H4087 C4116 0.950 . S
H4088 C4118 0.950 . S
H4089 C4119 0.950 . S
C4090 H4072 0.951 . S
C4090 C4091 1.366 . S
C4090 C4092 1.388 . S
C4091 C4090 1.366 . S
C4091 C4095 1.385 . S
C4092 H4073 0.951 . S
C4092 C4090 1.388 . S
C4092 C4093 1.366 . S
C4093 C4092 1.366 . S
C4093 C4094 1.414 . S
C4093 C4096 1.499 . S
C4094 H4074 0.950 . S
C4094 C4093 1.414 . S
C4094 C4095 1.374 . S
C4095 H4075 0.950 . S
C4095 C4091 1.385 . S
C4095 C4094 1.374 . S
C4096 C4093 1.499 . S
C4096 C4097 1.373 . S
C4096 C4098 1.389 . S
C4097 H4076 0.950 . S
C4097 C4096 1.373 . S
C4097 C4113 1.377 . S
C4098 C4096 1.389 . S
C4098 C4099 1.524 . S
C4098 C4112 1.377 . S
C4099 C4098 1.524 . S
C4099 C4100 1.397 . S
C4099 C4104 1.363 . S
C4100 H4077 0.950 . S
C4100 C4099 1.397 . S
C4100 C4101 1.334 . S
C4101 H4078 0.950 . S
C4101 C4100 1.334 . S
C4101 C4102 1.287 . S
C4102 C4101 1.287 . S
C4102 C4103 1.524 . S
C4102 H4121 0.913 . S
C4103 H4079 0.950 . S
C4103 C4102 1.524 . S
C4103 C4104 1.415 . S
C4104 H4080 0.950 . S
C4104 C4099 1.363 . S
C4104 C4103 1.415 . S
C4105 H4081 0.951 . S
C4105 C4106 1.366 . S
C4105 C4107 1.388 . S
C4106 C4105 1.366 . S
C4106 C4110 1.385 . S
C4107 H4082 0.951 . S
C4107 C4105 1.388 . S
C4107 C4108 1.366 . S
C4108 C4107 1.366 . S
C4108 C4109 1.414 . S
C4108 C4111 1.499 . S
C4109 H4083 0.950 . S
C4109 C4108 1.414 . S
C4109 C4110 1.374 . S
C4110 H4084 0.950 . S
C4110 C4106 1.385 . S
C4110 C4109 1.374 . S
C4111 C4108 1.499 . S
C4111 C4112 1.373 . S
C4111 C4113 1.389 . S
C4112 H4085 0.950 . S
C4112 C4098 1.377 . S
C4112 C4111 1.373 . S
C4113 C4097 1.377 . S
C4113 C4111 1.389 . S
C4113 C4114 1.524 . S
C4114 C4113 1.524 . S
C4114 C4115 1.397 . S
C4114 C4119 1.363 . S
C4115 H4086 0.950 . S
C4115 C4114 1.397 . S
C4115 C4116 1.334 . S
C4116 H4087 0.950 . S
C4116 C4115 1.334 . S
C4116 C4117 1.287 . S
C4117 C4116 1.287 . S
C4117 C4118 1.524 . S
C4117 H4120 0.999 . S
C4118 H4088 0.950 . S
C4118 C4117 1.524 . S
C4118 C4119 1.415 . S
C4119 H4089 0.950 . S
C4119 C4114 1.363 . S
C4119 C4118 1.415 . S
H4120 C4117 0.999 . S
H4121 C4102 0.913 . S
H4122 C4140 0.951 . S
H4123 C4142 0.951 . S
H4124 C4144 0.950 . S
H4125 C4145 0.950 . S
H4126 C4147 0.950 . S
H4127 C4150 0.950 . S
H4128 C4151 0.950 . S
H4129 C4153 0.950 . S
H4130 C4154 0.950 . S
H4131 C4155 0.951 . S
H4132 C4157 0.951 . S
H4133 C4159 0.950 . S
H4134 C4160 0.950 . S
H4135 C4162 0.950 . S
H4136 C4165 0.950 . S
H4137 C4166 0.950 . S
H4138 C4168 0.950 . S
H4139 C4169 0.950 . S
C4140 H4122 0.951 . S
C4140 C4141 1.366 . S
C4140 C4142 1.388 . S
C4141 C4140 1.366 . S
C4141 C4145 1.385 . S
C4142 H4123 0.951 . S
C4142 C4140 1.388 . S
C4142 C4143 1.366 . S
C4143 C4142 1.366 . S
C4143 C4144 1.414 . S
C4143 C4146 1.499 . S
C4144 H4124 0.950 . S
C4144 C4143 1.414 . S
C4144 C4145 1.374 . S
C4145 H4125 0.950 . S
C4145 C4141 1.385 . S
C4145 C4144 1.374 . S
C4146 C4143 1.499 . S
C4146 C4147 1.373 . S
C4146 C4148 1.389 . S
C4147 H4126 0.950 . S
C4147 C4146 1.373 . S
C4147 C4163 1.377 . S
C4148 C4146 1.389 . S
C4148 C4149 1.524 . S
C4148 C4162 1.377 . S
C4149 C4148 1.524 . S
C4149 C4150 1.397 . S
C4149 C4154 1.363 . S
C4150 H4127 0.950 . S
C4150 C4149 1.397 . S
C4150 C4151 1.334 . S
C4151 H4128 0.950 . S
C4151 C4150 1.334 . S
C4151 C4152 1.287 . S
C4152 C4151 1.287 . S
C4152 C4153 1.524 . S
C4152 H4171 0.913 . S
C4153 H4129 0.950 . S
C4153 C4152 1.524 . S
C4153 C4154 1.415 . S
C4154 H4130 0.950 . S
C4154 C4149 1.363 . S
C4154 C4153 1.415 . S
C4155 H4131 0.951 . S
C4155 C4156 1.366 . S
C4155 C4157 1.388 . S
C4156 C4155 1.366 . S
C4156 C4160 1.385 . S
C4157 H4132 0.951 . S
C4157 C4155 1.388 . S
C4157 C4158 1.366 . S
C4158 C4157 1.366 . S
C4158 C4159 1.414 . S
C4158 C4161 1.499 . S
C4159 H4133 0.950 . S
C4159 C4158 1.414 . S
C4159 C4160 1.374 . S
C4160 H4134 0.950 . S
C4160 C4156 1.385 . S
C4160 C4159 1.374 . S
C4161 C4158 1.499 . S
C4161 C4162 1.373 . S
C4161 C4163 1.389 . S
C4162 H4135 0.950 . S
C4162 C4148 1.377 . S
C4162 C4161 1.373 . S
C4163 C4147 1.377 . S
C4163 C4161 1.389 . S
C4163 C4164 1.524 . S
C4164 C4163 1.524 . S
C4164 C4165 1.397 . S
C4164 C4169 1.363 . S
C4165 H4136 0.950 . S
C4165 C4164 1.397 . S
C4165 C4166 1.334 . S
C4166 H4137 0.950 . S
C4166 C4165 1.334 . S
C4166 C4167 1.287 . S
C4167 C4166 1.287 . S
C4167 C4168 1.524 . S
C4167 H4170 0.999 . S
C4168 H4138 0.950 . S
C4168 C4167 1.524 . S
C4168 C4169 1.415 . S
C4169 H4139 0.950 . S
C4169 C4164 1.363 . S
C4169 C4168 1.415 . S
H4170 C4167 0.999 . S
H4171 C4152 0.913 . S
H4172 C4190 0.951 . S
H4173 C4192 0.951 . S
H4174 C4194 0.950 . S
H4175 C4195 0.950 . S
H4176 C4197 0.950 . S
H4177 C4200 0.950 . S
H4178 C4201 0.950 . S
H4179 C4203 0.950 . S
H4180 C4204 0.950 . S
H4181 C4205 0.951 . S
H4182 C4207 0.951 . S
H4183 C4209 0.950 . S
H4184 C4210 0.950 . S
H4185 C4212 0.950 . S
H4186 C4215 0.950 . S
H4187 C4216 0.950 . S
H4188 C4218 0.950 . S
H4189 C4219 0.950 . S
C4190 H4172 0.951 . S
C4190 C4191 1.366 . S
C4190 C4192 1.388 . S
C4191 C4190 1.366 . S
C4191 C4195 1.385 . S
C4192 H4173 0.951 . S
C4192 C4190 1.388 . S
C4192 C4193 1.366 . S
C4193 C4192 1.366 . S
C4193 C4194 1.414 . S
C4193 C4196 1.499 . S
C4194 H4174 0.950 . S
C4194 C4193 1.414 . S
C4194 C4195 1.374 . S
C4195 H4175 0.950 . S
C4195 C4191 1.385 . S
C4195 C4194 1.374 . S
C4196 C4193 1.499 . S
C4196 C4197 1.373 . S
C4196 C4198 1.389 . S
C4197 H4176 0.950 . S
C4197 C4196 1.373 . S
C4197 C4213 1.377 . S
C4198 C4196 1.389 . S
C4198 C4199 1.524 . S
C4198 C4212 1.377 . S
C4199 C4198 1.524 . S
C4199 C4200 1.397 . S
C4199 C4204 1.363 . S
C4200 H4177 0.950 . S
C4200 C4199 1.397 . S
C4200 C4201 1.334 . S
C4201 H4178 0.950 . S
C4201 C4200 1.334 . S
C4201 C4202 1.287 . S
C4202 C4201 1.287 . S
C4202 C4203 1.524 . S
C4202 H4221 0.913 . S
C4203 H4179 0.950 . S
C4203 C4202 1.524 . S
C4203 C4204 1.415 . S
C4204 H4180 0.950 . S
C4204 C4199 1.363 . S
C4204 C4203 1.415 . S
C4205 H4181 0.951 . S
C4205 C4206 1.366 . S
C4205 C4207 1.388 . S
C4206 C4205 1.366 . S
C4206 C4210 1.385 . S
C4207 H4182 0.951 . S
C4207 C4205 1.388 . S
C4207 C4208 1.366 . S
C4208 C4207 1.366 . S
C4208 C4209 1.414 . S
C4208 C4211 1.499 . S
C4209 H4183 0.950 . S
C4209 C4208 1.414 . S
C4209 C4210 1.374 . S
C4210 H4184 0.950 . S
C4210 C4206 1.385 . S
C4210 C4209 1.374 . S
C4211 C4208 1.499 . S
C4211 C4212 1.373 . S
C4211 C4213 1.389 . S
C4212 H4185 0.950 . S
C4212 C4198 1.377 . S
C4212 C4211 1.373 . S
C4213 C4197 1.377 . S
C4213 C4211 1.389 . S
C4213 C4214 1.524 . S
C4214 C4213 1.524 . S
C4214 C4215 1.397 . S
C4214 C4219 1.363 . S
C4215 H4186 0.950 . S
C4215 C4214 1.397 . S
C4215 C4216 1.334 . S
C4216 H4187 0.950 . S
C4216 C4215 1.334 . S
C4216 C4217 1.287 . S
C4217 C4216 1.287 . S
C4217 C4218 1.524 . S
C4217 H4220 0.999 . S
C4218 H4188 0.950 . S
C4218 C4217 1.524 . S
C4218 C4219 1.415 . S
C4219 H4189 0.950 . S
C4219 C4214 1.363 . S
C4219 C4218 1.415 . S
H4220 C4217 0.999 . S
H4221 C4202 0.913 . S
H4222 C4240 0.951 . S
H4223 C4242 0.951 . S
H4224 C4244 0.950 . S
H4225 C4245 0.950 . S
H4226 C4247 0.950 . S
H4227 C4250 0.950 . S
H4228 C4251 0.950 . S
H4229 C4253 0.950 . S
H4230 C4254 0.950 . S
H4231 C4255 0.951 . S
H4232 C4257 0.951 . S
H4233 C4259 0.950 . S
H4234 C4260 0.950 . S
H4235 C4262 0.950 . S
H4236 C4265 0.950 . S
H4237 C4266 0.950 . S
H4238 C4268 0.950 . S
H4239 C4269 0.950 . S
C4240 H4222 0.951 . S
C4240 C4241 1.366 . S
C4240 C4242 1.388 . S
C4241 C4240 1.366 . S
C4241 C4245 1.385 . S
C4242 H4223 0.951 . S
C4242 C4240 1.388 . S
C4242 C4243 1.366 . S
C4243 C4242 1.366 . S
C4243 C4244 1.414 . S
C4243 C4246 1.499 . S
C4244 H4224 0.950 . S
C4244 C4243 1.414 . S
C4244 C4245 1.374 . S
C4245 H4225 0.950 . S
C4245 C4241 1.385 . S
C4245 C4244 1.374 . S
C4246 C4243 1.499 . S
C4246 C4247 1.373 . S
C4246 C4248 1.389 . S
C4247 H4226 0.950 . S
C4247 C4246 1.373 . S
C4247 C4263 1.377 . S
C4248 C4246 1.389 . S
C4248 C4249 1.524 . S
C4248 C4262 1.377 . S
C4249 C4248 1.524 . S
C4249 C4250 1.397 . S
C4249 C4254 1.363 . S
C4250 H4227 0.950 . S
C4250 C4249 1.397 . S
C4250 C4251 1.334 . S
C4251 H4228 0.950 . S
C4251 C4250 1.334 . S
C4251 C4252 1.287 . S
C4252 C4251 1.287 . S
C4252 C4253 1.524 . S
C4252 H4271 0.913 . S
C4253 H4229 0.950 . S
C4253 C4252 1.524 . S
C4253 C4254 1.415 . S
C4254 H4230 0.950 . S
C4254 C4249 1.363 . S
C4254 C4253 1.415 . S
C4255 H4231 0.951 . S
C4255 C4256 1.366 . S
C4255 C4257 1.388 . S
C4256 C4255 1.366 . S
C4256 C4260 1.385 . S
C4257 H4232 0.951 . S
C4257 C4255 1.388 . S
C4257 C4258 1.366 . S
C4258 C4257 1.366 . S
C4258 C4259 1.414 . S
C4258 C4261 1.499 . S
C4259 H4233 0.950 . S
C4259 C4258 1.414 . S
C4259 C4260 1.374 . S
C4260 H4234 0.950 . S
C4260 C4256 1.385 . S
C4260 C4259 1.374 . S
C4261 C4258 1.499 . S
C4261 C4262 1.373 . S
C4261 C4263 1.389 . S
C4262 H4235 0.950 . S
C4262 C4248 1.377 . S
C4262 C4261 1.373 . S
C4263 C4247 1.377 . S
C4263 C4261 1.389 . S
C4263 C4264 1.524 . S
C4264 C4263 1.524 . S
C4264 C4265 1.397 . S
C4264 C4269 1.363 . S
C4265 H4236 0.950 . S
C4265 C4264 1.397 . S
C4265 C4266 1.334 . S
C4266 H4237 0.950 . S
C4266 C4265 1.334 . S
C4266 C4267 1.287 . S
C4267 C4266 1.287 . S
C4267 C4268 1.524 . S
C4267 H4270 0.999 . S
C4268 H4238 0.950 . S
C4268 C4267 1.524 . S
C4268 C4269 1.415 . S
C4269 H4239 0.950 . S
C4269 C4264 1.363 . S
C4269 C4268 1.415 . S
H4270 C4267 0.999 . S
H4271 C4252 0.913 . S
H4272 C4290 0.951 . S
H4273 C4292 0.951 . S
H4274 C4294 0.950 . S
H4275 C4295 0.950 . S
H4276 C4297 0.950 . S
H4277 C4300 0.950 . S
H4278 C4301 0.950 . S
H4279 C4303 0.950 . S
H4280 C4304 0.950 . S
H4281 C4305 0.951 . S
H4282 C4307 0.951 . S
H4283 C4309 0.950 . S
H4284 C4310 0.950 . S
H4285 C4312 0.950 . S
H4286 C4315 0.950 . S
H4287 C4316 0.950 . S
H4288 C4318 0.950 . S
H4289 C4319 0.950 . S
C4290 H4272 0.951 . S
C4290 C4291 1.366 . S
C4290 C4292 1.388 . S
C4291 C4290 1.366 . S
C4291 C4295 1.385 . S
C4292 H4273 0.951 . S
C4292 C4290 1.388 . S
C4292 C4293 1.366 . S
C4293 C4292 1.366 . S
C4293 C4294 1.414 . S
C4293 C4296 1.499 . S
C4294 H4274 0.950 . S
C4294 C4293 1.414 . S
C4294 C4295 1.374 . S
C4295 H4275 0.950 . S
C4295 C4291 1.385 . S
C4295 C4294 1.374 . S
C4296 C4293 1.499 . S
C4296 C4297 1.373 . S
C4296 C4298 1.389 . S
C4297 H4276 0.950 . S
C4297 C4296 1.373 . S
C4297 C4313 1.377 . S
C4298 C4296 1.389 . S
C4298 C4299 1.524 . S
C4298 C4312 1.377 . S
C4299 C4298 1.524 . S
C4299 C4300 1.397 . S
C4299 C4304 1.363 . S
C4300 H4277 0.950 . S
C4300 C4299 1.397 . S
C4300 C4301 1.334 . S
C4301 H4278 0.950 . S
C4301 C4300 1.334 . S
C4301 C4302 1.287 . S
C4302 C4301 1.287 . S
C4302 C4303 1.524 . S
C4302 H4321 0.913 . S
C4303 H4279 0.950 . S
C4303 C4302 1.524 . S
C4303 C4304 1.415 . S
C4304 H4280 0.950 . S
C4304 C4299 1.363 . S
C4304 C4303 1.415 . S
C4305 H4281 0.951 . S
C4305 C4306 1.366 . S
C4305 C4307 1.388 . S
C4306 C4305 1.366 . S
C4306 C4310 1.385 . S
C4307 H4282 0.951 . S
C4307 C4305 1.388 . S
C4307 C4308 1.366 . S
C4308 C4307 1.366 . S
C4308 C4309 1.414 . S
C4308 C4311 1.499 . S
C4309 H4283 0.950 . S
C4309 C4308 1.414 . S
C4309 C4310 1.374 . S
C4310 H4284 0.950 . S
C4310 C4306 1.385 . S
C4310 C4309 1.374 . S
C4311 C4308 1.499 . S
C4311 C4312 1.373 . S
C4311 C4313 1.389 . S
C4312 H4285 0.950 . S
C4312 C4298 1.377 . S
C4312 C4311 1.373 . S
C4313 C4297 1.377 . S
C4313 C4311 1.389 . S
C4313 C4314 1.524 . S
C4314 C4313 1.524 . S
C4314 C4315 1.397 . S
C4314 C4319 1.363 . S
C4315 H4286 0.950 . S
C4315 C4314 1.397 . S
C4315 C4316 1.334 . S
C4316 H4287 0.950 . S
C4316 C4315 1.334 . S
C4316 C4317 1.287 . S
C4317 C4316 1.287 . S
C4317 C4318 1.524 . S
C4317 H4320 0.999 . S
C4318 H4288 0.950 . S
C4318 C4317 1.524 . S
C4318 C4319 1.415 . S
C4319 H4289 0.950 . S
C4319 C4314 1.363 . S
C4319 C4318 1.415 . S
H4320 C4317 0.999 . S
H4321 C4302 0.913 . S
H4322 C4340 0.951 . S
H4323 C4342 0.951 . S
H4324 C4344 0.950 . S
H4325 C4345 0.950 . S
H4326 C4347 0.950 . S
H4327 C4350 0.950 . S
H4328 C4351 0.950 . S
H4329 C4353 0.950 . S
H4330 C4354 0.950 . S
H4331 C4355 0.951 . S
H4332 C4357 0.951 . S
H4333 C4359 0.950 . S
H4334 C4360 0.950 . S
H4335 C4362 0.950 . S
H4336 C4365 0.950 . S
H4337 C4366 0.950 . S
H4338 C4368 0.950 . S
H4339 C4369 0.950 . S
C4340 H4322 0.951 . S
C4340 C4341 1.366 . S
C4340 C4342 1.388 . S
C4341 C4340 1.366 . S
C4341 C4345 1.385 . S
C4342 H4323 0.951 . S
C4342 C4340 1.388 . S
C4342 C4343 1.366 . S
C4343 C4342 1.366 . S
C4343 C4344 1.414 . S
C4343 C4346 1.499 . S
C4344 H4324 0.950 . S
C4344 C4343 1.414 . S
C4344 C4345 1.374 . S
C4345 H4325 0.950 . S
C4345 C4341 1.385 . S
C4345 C4344 1.374 . S
C4346 C4343 1.499 . S
C4346 C4347 1.373 . S
C4346 C4348 1.389 . S
C4347 H4326 0.950 . S
C4347 C4346 1.373 . S
C4347 C4363 1.377 . S
C4348 C4346 1.389 . S
C4348 C4349 1.524 . S
C4348 C4362 1.377 . S
C4349 C4348 1.524 . S
C4349 C4350 1.397 . S
C4349 C4354 1.363 . S
C4350 H4327 0.950 . S
C4350 C4349 1.397 . S
C4350 C4351 1.334 . S
C4351 H4328 0.950 . S
C4351 C4350 1.334 . S
C4351 C4352 1.287 . S
C4352 C4351 1.287 . S
C4352 C4353 1.524 . S
C4352 H4371 0.913 . S
C4353 H4329 0.950 . S
C4353 C4352 1.524 . S
C4353 C4354 1.415 . S
C4354 H4330 0.950 . S
C4354 C4349 1.363 . S
C4354 C4353 1.415 . S
C4355 H4331 0.951 . S
C4355 C4356 1.366 . S
C4355 C4357 1.388 . S
C4356 C4355 1.366 . S
C4356 C4360 1.385 . S
C4357 H4332 0.951 . S
C4357 C4355 1.388 . S
C4357 C4358 1.366 . S
C4358 C4357 1.366 . S
C4358 C4359 1.414 . S
C4358 C4361 1.499 . S
C4359 H4333 0.950 . S
C4359 C4358 1.414 . S
C4359 C4360 1.374 . S
C4360 H4334 0.950 . S
C4360 C4356 1.385 . S
C4360 C4359 1.374 . S
C4361 C4358 1.499 . S
C4361 C4362 1.373 . S
C4361 C4363 1.389 . S
C4362 H4335 0.950 . S
C4362 C4348 1.377 . S
C4362 C4361 1.373 . S
C4363 C4347 1.377 . S
C4363 C4361 1.389 . S
C4363 C4364 1.524 . S
C4364 C4363 1.524 . S
C4364 C4365 1.397 . S
C4364 C4369 1.363 . S
C4365 H4336 0.950 . S
C4365 C4364 1.397 . S
C4365 C4366 1.334 . S
C4366 H4337 0.950 . S
C4366 C4365 1.334 . S
C4366 C4367 1.287 . S
C4367 C4366 1.287 . S
C4367 C4368 1.524 . S
C4367 H4370 0.999 . S
C4368 H4338 0.950 . S
C4368 C4367 1.524 . S
C4368 C4369 1.415 . S
C4369 H4339 0.950 . S
C4369 C4364 1.363 . S
C4369 C4368 1.415 . S
H4370 C4367 0.999 . S
H4371 C4352 0.913 . S
H4372 C4390 0.951 . S
H4373 C4392 0.951 . S
H4374 C4394 0.950 . S
H4375 C4395 0.950 . S
H4376 C4397 0.950 . S
H4377 C4400 0.950 . S
H4378 C4401 0.950 . S
H4379 C4403 0.950 . S
H4380 C4404 0.950 . S
H4381 C4405 0.951 . S
H4382 C4407 0.951 . S
H4383 C4409 0.950 . S
H4384 C4410 0.950 . S
H4385 C4412 0.950 . S
H4386 C4415 0.950 . S
H4387 C4416 0.950 . S
H4388 C4418 0.950 . S
H4389 C4419 0.950 . S
C4390 H4372 0.951 . S
C4390 C4391 1.366 . S
C4390 C4392 1.388 . S
C4391 C4390 1.366 . S
C4391 C4395 1.385 . S
C4392 H4373 0.951 . S
C4392 C4390 1.388 . S
C4392 C4393 1.366 . S
C4393 C4392 1.366 . S
C4393 C4394 1.414 . S
C4393 C4396 1.499 . S
C4394 H4374 0.950 . S
C4394 C4393 1.414 . S
C4394 C4395 1.374 . S
C4395 H4375 0.950 . S
C4395 C4391 1.385 . S
C4395 C4394 1.374 . S
C4396 C4393 1.499 . S
C4396 C4397 1.373 . S
C4396 C4398 1.389 . S
C4397 H4376 0.950 . S
C4397 C4396 1.373 . S
C4397 C4413 1.377 . S
C4398 C4396 1.389 . S
C4398 C4399 1.524 . S
C4398 C4412 1.377 . S
C4399 C4398 1.524 . S
C4399 C4400 1.397 . S
C4399 C4404 1.363 . S
C4400 H4377 0.950 . S
C4400 C4399 1.397 . S
C4400 C4401 1.334 . S
C4401 H4378 0.950 . S
C4401 C4400 1.334 . S
C4401 C4402 1.287 . S
C4402 C4401 1.287 . S
C4402 C4403 1.524 . S
C4402 H4421 0.913 . S
C4403 H4379 0.950 . S
C4403 C4402 1.524 . S
C4403 C4404 1.415 . S
C4404 H4380 0.950 . S
C4404 C4399 1.363 . S
C4404 C4403 1.415 . S
C4405 H4381 0.951 . S
C4405 C4406 1.366 . S
C4405 C4407 1.388 . S
C4406 C4405 1.366 . S
C4406 C4410 1.385 . S
C4407 H4382 0.951 . S
C4407 C4405 1.388 . S
C4407 C4408 1.366 . S
C4408 C4407 1.366 . S
C4408 C4409 1.414 . S
C4408 C4411 1.499 . S
C4409 H4383 0.950 . S
C4409 C4408 1.414 . S
C4409 C4410 1.374 . S
C4410 H4384 0.950 . S
C4410 C4406 1.385 . S
C4410 C4409 1.374 . S
C4411 C4408 1.499 . S
C4411 C4412 1.373 . S
C4411 C4413 1.389 . S
C4412 H4385 0.950 . S
C4412 C4398 1.377 . S
C4412 C4411 1.373 . S
C4413 C4397 1.377 . S
C4413 C4411 1.389 . S
C4413 C4414 1.524 . S
C4414 C4413 1.524 . S
C4414 C4415 1.397 . S
C4414 C4419 1.363 . S
C4415 H4386 0.950 . S
C4415 C4414 1.397 . S
C4415 C4416 1.334 . S
C4416 H4387 0.950 . S
C4416 C4415 1.334 . S
C4416 C4417 1.287 . S
C4417 C4416 1.287 . S
C4417 C4418 1.524 . S
C4417 H4420 0.999 . S
C4418 H4388 0.950 . S
C4418 C4417 1.524 . S
C4418 C4419 1.415 . S
C4419 H4389 0.950 . S
C4419 C4414 1.363 . S
C4419 C4418 1.415 . S
H4420 C4417 0.999 . S
H4421 C4402 0.913 . S
H4422 C4440 0.951 . S
H4423 C4442 0.951 . S
H4424 C4444 0.950 . S
H4425 C4445 0.950 . S
H4426 C4447 0.950 . S
H4427 C4450 0.950 . S
H4428 C4451 0.950 . S
H4429 C4453 0.950 . S
H4430 C4454 0.950 . S
H4431 C4455 0.951 . S
H4432 C4457 0.951 . S
H4433 C4459 0.950 . S
H4434 C4460 0.950 . S
H4435 C4462 0.950 . S
H4436 C4465 0.950 . S
H4437 C4466 0.950 . S
H4438 C4468 0.950 . S
H4439 C4469 0.950 . S
C4440 H4422 0.951 . S
C4440 C4441 1.366 . S
C4440 C4442 1.388 . S
C4441 C4440 1.366 . S
C4441 C4445 1.385 . S
C4442 H4423 0.951 . S
C4442 C4440 1.388 . S
C4442 C4443 1.366 . S
C4443 C4442 1.366 . S
C4443 C4444 1.414 . S
C4443 C4446 1.499 . S
C4444 H4424 0.950 . S
C4444 C4443 1.414 . S
C4444 C4445 1.374 . S
C4445 H4425 0.950 . S
C4445 C4441 1.385 . S
C4445 C4444 1.374 . S
C4446 C4443 1.499 . S
C4446 C4447 1.373 . S
C4446 C4448 1.389 . S
C4447 H4426 0.950 . S
C4447 C4446 1.373 . S
C4447 C4463 1.377 . S
C4448 C4446 1.389 . S
C4448 C4449 1.524 . S
C4448 C4462 1.377 . S
C4449 C4448 1.524 . S
C4449 C4450 1.397 . S
C4449 C4454 1.363 . S
C4450 H4427 0.950 . S
C4450 C4449 1.397 . S
C4450 C4451 1.334 . S
C4451 H4428 0.950 . S
C4451 C4450 1.334 . S
C4451 C4452 1.287 . S
C4452 C4451 1.287 . S
C4452 C4453 1.524 . S
C4452 H4471 0.913 . S
C4453 H4429 0.950 . S
C4453 C4452 1.524 . S
C4453 C4454 1.415 . S
C4454 H4430 0.950 . S
C4454 C4449 1.363 . S
C4454 C4453 1.415 . S
C4455 H4431 0.951 . S
C4455 C4456 1.366 . S
C4455 C4457 1.388 . S
C4456 C4455 1.366 . S
C4456 C4460 1.385 . S
C4457 H4432 0.951 . S
C4457 C4455 1.388 . S
C4457 C4458 1.366 . S
C4458 C4457 1.366 . S
C4458 C4459 1.414 . S
C4458 C4461 1.499 . S
C4459 H4433 0.950 . S
C4459 C4458 1.414 . S
C4459 C4460 1.374 . S
C4460 H4434 0.950 . S
C4460 C4456 1.385 . S
C4460 C4459 1.374 . S
C4461 C4458 1.499 . S
C4461 C4462 1.373 . S
C4461 C4463 1.389 . S
C4462 H4435 0.950 . S
C4462 C4448 1.377 . S
C4462 C4461 1.373 . S
C4463 C4447 1.377 . S
C4463 C4461 1.389 . S
C4463 C4464 1.524 . S
C4464 C4463 1.524 . S
C4464 C4465 1.397 . S
C4464 C4469 1.363 . S
C4465 H4436 0.950 . S
C4465 C4464 1.397 . S
C4465 C4466 1.334 . S
C4466 H4437 0.950 . S
C4466 C4465 1.334 . S
C4466 C4467 1.287 . S
C4467 C4466 1.287 . S
C4467 C4468 1.524 . S
C4467 H4470 0.999 . S
C4468 H4438 0.950 . S
C4468 C4467 1.524 . S
C4468 C4469 1.415 . S
C4469 H4439 0.950 . S
C4469 C4464 1.363 . S
C4469 C4468 1.415 . S
H4470 C4467 0.999 . S
H4471 C4452 0.913 . S
H4472 C4490 0.951 . S
H4473 C4492 0.951 . S
H4474 C4494 0.950 . S
H4475 C4495 0.950 . S
H4476 C4497 0.950 . S
H4477 C4500 0.950 . S
H4478 C4501 0.950 . S
H4479 C4503 0.950 . S
H4480 C4504 0.950 . S
H4481 C4505 0.951 . S
H4482 C4507 0.951 . S
H4483 C4509 0.950 . S
H4484 C4510 0.950 . S
H4485 C4512 0.950 . S
H4486 C4515 0.950 . S
H4487 C4516 0.950 . S
H4488 C4518 0.950 . S
H4489 C4519 0.950 . S
C4490 H4472 0.951 . S
C4490 C4491 1.366 . S
C4490 C4492 1.388 . S
C4491 C4490 1.366 . S
C4491 C4495 1.385 . S
C4492 H4473 0.951 . S
C4492 C4490 1.388 . S
C4492 C4493 1.366 . S
C4493 C4492 1.366 . S
C4493 C4494 1.414 . S
C4493 C4496 1.499 . S
C4494 H4474 0.950 . S
C4494 C4493 1.414 . S
C4494 C4495 1.374 . S
C4495 H4475 0.950 . S
C4495 C4491 1.385 . S
C4495 C4494 1.374 . S
C4496 C4493 1.499 . S
C4496 C4497 1.373 . S
C4496 C4498 1.389 . S
C4497 H4476 0.950 . S
C4497 C4496 1.373 . S
C4497 C4513 1.377 . S
C4498 C4496 1.389 . S
C4498 C4499 1.524 . S
C4498 C4512 1.377 . S
C4499 C4498 1.524 . S
C4499 C4500 1.397 . S
C4499 C4504 1.363 . S
C4500 H4477 0.950 . S
C4500 C4499 1.397 . S
C4500 C4501 1.334 . S
C4501 H4478 0.950 . S
C4501 C4500 1.334 . S
C4501 C4502 1.287 . S
C4502 C4501 1.287 . S
C4502 C4503 1.524 . S
C4502 H4521 0.913 . S
C4503 H4479 0.950 . S
C4503 C4502 1.524 . S
C4503 C4504 1.415 . S
C4504 H4480 0.950 . S
C4504 C4499 1.363 . S
C4504 C4503 1.415 . S
C4505 H4481 0.951 . S
C4505 C4506 1.366 . S
C4505 C4507 1.388 . S
C4506 C4505 1.366 . S
C4506 C4510 1.385 . S
C4507 H4482 0.951 . S
C4507 C4505 1.388 . S
C4507 C4508 1.366 . S
C4508 C4507 1.366 . S
C4508 C4509 1.414 . S
C4508 C4511 1.499 . S
C4509 H4483 0.950 . S
C4509 C4508 1.414 . S
C4509 C4510 1.374 . S
C4510 H4484 0.950 . S
C4510 C4506 1.385 . S
C4510 C4509 1.374 . S
C4511 C4508 1.499 . S
C4511 C4512 1.373 . S
C4511 C4513 1.389 . S
C4512 H4485 0.950 . S
C4512 C4498 1.377 . S
C4512 C4511 1.373 . S
C4513 C4497 1.377 . S
C4513 C4511 1.389 . S
C4513 C4514 1.524 . S
C4514 C4513 1.524 . S
C4514 C4515 1.397 . S
C4514 C4519 1.363 . S
C4515 H4486 0.950 . S
C4515 C4514 1.397 . S
C4515 C4516 1.334 . S
C4516 H4487 0.950 . S
C4516 C4515 1.334 . S
C4516 C4517 1.287 . S
C4517 C4516 1.287 . S
C4517 C4518 1.524 . S
C4517 H4520 0.999 . S
C4518 H4488 0.950 . S
C4518 C4517 1.524 . S
C4518 C4519 1.415 . S
C4519 H4489 0.950 . S
C4519 C4514 1.363 . S
C4519 C4518 1.415 . S
H4520 C4517 0.999 . S
H4521 C4502 0.913 . S
H4522 C4540 0.951 . S
H4523 C4542 0.951 . S
H4524 C4544 0.950 . S
H4525 C4545 0.950 . S
H4526 C4547 0.950 . S
H4527 C4550 0.950 . S
H4528 C4551 0.950 . S
H4529 C4553 0.950 . S
H4530 C4554 0.950 . S
H4531 C4555 0.951 . S
H4532 C4557 0.951 . S
H4533 C4559 0.950 . S
H4534 C4560 0.950 . S
H4535 C4562 0.950 . S
H4536 C4565 0.950 . S
H4537 C4566 0.950 . S
H4538 C4568 0.950 . S
H4539 C4569 0.950 . S
C4540 H4522 0.951 . S
C4540 C4541 1.366 . S
C4540 C4542 1.388 . S
C4541 C4540 1.366 . S
C4541 C4545 1.385 . S
C4542 H4523 0.951 . S
C4542 C4540 1.388 . S
C4542 C4543 1.366 . S
C4543 C4542 1.366 . S
C4543 C4544 1.414 . S
C4543 C4546 1.499 . S
C4544 H4524 0.950 . S
C4544 C4543 1.414 . S
C4544 C4545 1.374 . S
C4545 H4525 0.950 . S
C4545 C4541 1.385 . S
C4545 C4544 1.374 . S
C4546 C4543 1.499 . S
C4546 C4547 1.373 . S
C4546 C4548 1.389 . S
C4547 H4526 0.950 . S
C4547 C4546 1.373 . S
C4547 C4563 1.377 . S
C4548 C4546 1.389 . S
C4548 C4549 1.524 . S
C4548 C4562 1.377 . S
C4549 C4548 1.524 . S
C4549 C4550 1.397 . S
C4549 C4554 1.363 . S
C4550 H4527 0.950 . S
C4550 C4549 1.397 . S
C4550 C4551 1.334 . S
C4551 H4528 0.950 . S
C4551 C4550 1.334 . S
C4551 C4552 1.287 . S
C4552 C4551 1.287 . S
C4552 C4553 1.524 . S
C4552 H4571 0.913 . S
C4553 H4529 0.950 . S
C4553 C4552 1.524 . S
C4553 C4554 1.415 . S
C4554 H4530 0.950 . S
C4554 C4549 1.363 . S
C4554 C4553 1.415 . S
C4555 H4531 0.951 . S
C4555 C4556 1.366 . S
C4555 C4557 1.388 . S
C4556 C4555 1.366 . S
C4556 C4560 1.385 . S
C4557 H4532 0.951 . S
C4557 C4555 1.388 . S
C4557 C4558 1.366 . S
C4558 C4557 1.366 . S
C4558 C4559 1.414 . S
C4558 C4561 1.499 . S
C4559 H4533 0.950 . S
C4559 C4558 1.414 . S
C4559 C4560 1.374 . S
C4560 H4534 0.950 . S
C4560 C4556 1.385 . S
C4560 C4559 1.374 . S
C4561 C4558 1.499 . S
C4561 C4562 1.373 . S
C4561 C4563 1.389 . S
C4562 H4535 0.950 . S
C4562 C4548 1.377 . S
C4562 C4561 1.373 . S
C4563 C4547 1.377 . S
C4563 C4561 1.389 . S
C4563 C4564 1.524 . S
C4564 C4563 1.524 . S
C4564 C4565 1.397 . S
C4564 C4569 1.363 . S
C4565 H4536 0.950 . S
C4565 C4564 1.397 . S
C4565 C4566 1.334 . S
C4566 H4537 0.950 . S
C4566 C4565 1.334 . S
C4566 C4567 1.287 . S
C4567 C4566 1.287 . S
C4567 C4568 1.524 . S
C4567 H4570 0.999 . S
C4568 H4538 0.950 . S
C4568 C4567 1.524 . S
C4568 C4569 1.415 . S
C4569 H4539 0.950 . S
C4569 C4564 1.363 . S
C4569 C4568 1.415 . S
H4570 C4567 0.999 . S
H4571 C4552 0.913 . S
H4572 C4590 0.951 . S
H4573 C4592 0.951 . S
H4574 C4594 0.950 . S
H4575 C4595 0.950 . S
H4576 C4597 0.950 . S
H4577 C4600 0.950 . S
H4578 C4601 0.950 . S
H4579 C4603 0.950 . S
H4580 C4604 0.950 . S
H4581 C4605 0.951 . S
H4582 C4607 0.951 . S
H4583 C4609 0.950 . S
H4584 C4610 0.950 . S
H4585 C4612 0.950 . S
H4586 C4615 0.950 . S
H4587 C4616 0.950 . S
H4588 C4618 0.950 . S
H4589 C4619 0.950 . S
C4590 H4572 0.951 . S
C4590 C4591 1.366 . S
C4590 C4592 1.388 . S
C4591 C4590 1.366 . S
C4591 C4595 1.385 . S
C4592 H4573 0.951 . S
C4592 C4590 1.388 . S
C4592 C4593 1.366 . S
C4593 C4592 1.366 . S
C4593 C4594 1.414 . S
C4593 C4596 1.499 . S
C4594 H4574 0.950 . S
C4594 C4593 1.414 . S
C4594 C4595 1.374 . S
C4595 H4575 0.950 . S
C4595 C4591 1.385 . S
C4595 C4594 1.374 . S
C4596 C4593 1.499 . S
C4596 C4597 1.373 . S
C4596 C4598 1.389 . S
C4597 H4576 0.950 . S
C4597 C4596 1.373 . S
C4597 C4613 1.377 . S
C4598 C4596 1.389 . S
C4598 C4599 1.524 . S
C4598 C4612 1.377 . S
C4599 C4598 1.524 . S
C4599 C4600 1.397 . S
C4599 C4604 1.363 . S
C4600 H4577 0.950 . S
C4600 C4599 1.397 . S
C4600 C4601 1.334 . S
C4601 H4578 0.950 . S
C4601 C4600 1.334 . S
C4601 C4602 1.287 . S
C4602 C4601 1.287 . S
C4602 C4603 1.524 . S
C4602 H4621 0.913 . S
C4603 H4579 0.950 . S
C4603 C4602 1.524 . S
C4603 C4604 1.415 . S
C4604 H4580 0.950 . S
C4604 C4599 1.363 . S
C4604 C4603 1.415 . S
C4605 H4581 0.951 . S
C4605 C4606 1.366 . S
C4605 C4607 1.388 . S
C4606 C4605 1.366 . S
C4606 C4610 1.385 . S
C4607 H4582 0.951 . S
C4607 C4605 1.388 . S
C4607 C4608 1.366 . S
C4608 C4607 1.366 . S
C4608 C4609 1.414 . S
C4608 C4611 1.499 . S
C4609 H4583 0.950 . S
C4609 C4608 1.414 . S
C4609 C4610 1.374 . S
C4610 H4584 0.950 . S
C4610 C4606 1.385 . S
C4610 C4609 1.374 . S
C4611 C4608 1.499 . S
C4611 C4612 1.373 . S
C4611 C4613 1.389 . S
C4612 H4585 0.950 . S
C4612 C4598 1.377 . S
C4612 C4611 1.373 . S
C4613 C4597 1.377 . S
C4613 C4611 1.389 . S
C4613 C4614 1.524 . S
C4614 C4613 1.524 . S
C4614 C4615 1.397 . S
C4614 C4619 1.363 . S
C4615 H4586 0.950 . S
C4615 C4614 1.397 . S
C4615 C4616 1.334 . S
C4616 H4587 0.950 . S
C4616 C4615 1.334 . S
C4616 C4617 1.287 . S
C4617 C4616 1.287 . S
C4617 C4618 1.524 . S
C4617 H4620 0.999 . S
C4618 H4588 0.950 . S
C4618 C4617 1.524 . S
C4618 C4619 1.415 . S
C4619 H4589 0.950 . S
C4619 C4614 1.363 . S
C4619 C4618 1.415 . S
H4620 C4617 0.999 . S
H4621 C4602 0.913 . S
H4622 C4640 0.951 . S
H4623 C4642 0.951 . S
H4624 C4644 0.950 . S
H4625 C4645 0.950 . S
H4626 C4647 0.950 . S
H4627 C4650 0.950 . S
H4628 C4651 0.950 . S
H4629 C4653 0.950 . S
H4630 C4654 0.950 . S
H4631 C4655 0.951 . S
H4632 C4657 0.951 . S
H4633 C4659 0.950 . S
H4634 C4660 0.950 . S
H4635 C4662 0.950 . S
H4636 C4665 0.950 . S
H4637 C4666 0.950 . S
H4638 C4668 0.950 . S
H4639 C4669 0.950 . S
C4640 H4622 0.951 . S
C4640 C4641 1.366 . S
C4640 C4642 1.388 . S
C4641 C4640 1.366 . S
C4641 C4645 1.385 . S
C4642 H4623 0.951 . S
C4642 C4640 1.388 . S
C4642 C4643 1.366 . S
C4643 C4642 1.366 . S
C4643 C4644 1.414 . S
C4643 C4646 1.499 . S
C4644 H4624 0.950 . S
C4644 C4643 1.414 . S
C4644 C4645 1.374 . S
C4645 H4625 0.950 . S
C4645 C4641 1.385 . S
C4645 C4644 1.374 . S
C4646 C4643 1.499 . S
C4646 C4647 1.373 . S
C4646 C4648 1.389 . S
C4647 H4626 0.950 . S
C4647 C4646 1.373 . S
C4647 C4663 1.377 . S
C4648 C4646 1.389 . S
C4648 C4649 1.524 . S
C4648 C4662 1.377 . S
C4649 C4648 1.524 . S
C4649 C4650 1.397 . S
C4649 C4654 1.363 . S
C4650 H4627 0.950 . S
C4650 C4649 1.397 . S
C4650 C4651 1.334 . S
C4651 H4628 0.950 . S
C4651 C4650 1.334 . S
C4651 C4652 1.287 . S
C4652 C4651 1.287 . S
C4652 C4653 1.524 . S
C4652 H4671 0.913 . S
C4653 H4629 0.950 . S
C4653 C4652 1.524 . S
C4653 C4654 1.415 . S
C4654 H4630 0.950 . S
C4654 C4649 1.363 . S
C4654 C4653 1.415 . S
C4655 H4631 0.951 . S
C4655 C4656 1.366 . S
C4655 C4657 1.388 . S
C4656 C4655 1.366 . S
C4656 C4660 1.385 . S
C4657 H4632 0.951 . S
C4657 C4655 1.388 . S
C4657 C4658 1.366 . S
C4658 C4657 1.366 . S
C4658 C4659 1.414 . S
C4658 C4661 1.499 . S
C4659 H4633 0.950 . S
C4659 C4658 1.414 . S
C4659 C4660 1.374 . S
C4660 H4634 0.950 . S
C4660 C4656 1.385 . S
C4660 C4659 1.374 . S
C4661 C4658 1.499 . S
C4661 C4662 1.373 . S
C4661 C4663 1.389 . S
C4662 H4635 0.950 . S
C4662 C4648 1.377 . S
C4662 C4661 1.373 . S
C4663 C4647 1.377 . S
C4663 C4661 1.389 . S
C4663 C4664 1.524 . S
C4664 C4663 1.524 . S
C4664 C4665 1.397 . S
C4664 C4669 1.363 . S
C4665 H4636 0.950 . S
C4665 C4664 1.397 . S
C4665 C4666 1.334 . S
C4666 H4637 0.950 . S
C4666 C4665 1.334 . S
C4666 C4667 1.287 . S
C4667 C4666 1.287 . S
C4667 C4668 1.524 . S
C4667 H4670 0.999 . S
C4668 H4638 0.950 . S
C4668 C4667 1.524 . S
C4668 C4669 1.415 . S
C4669 H4639 0.950 . S
C4669 C4664 1.363 . S
C4669 C4668 1.415 . S
H4670 C4667 0.999 . S
H4671 C4652 0.913 . S
H4672 C4690 0.951 . S
H4673 C4692 0.951 . S
H4674 C4694 0.950 . S
H4675 C4695 0.950 . S
H4676 C4697 0.950 . S
H4677 C4700 0.950 . S
H4678 C4701 0.950 . S
H4679 C4703 0.950 . S
H4680 C4704 0.950 . S
H4681 C4705 0.951 . S
H4682 C4707 0.951 . S
H4683 C4709 0.950 . S
H4684 C4710 0.950 . S
H4685 C4712 0.950 . S
H4686 C4715 0.950 . S
H4687 C4716 0.950 . S
H4688 C4718 0.950 . S
H4689 C4719 0.950 . S
C4690 H4672 0.951 . S
C4690 C4691 1.366 . S
C4690 C4692 1.388 . S
C4691 C4690 1.366 . S
C4691 C4695 1.385 . S
C4692 H4673 0.951 . S
C4692 C4690 1.388 . S
C4692 C4693 1.366 . S
C4693 C4692 1.366 . S
C4693 C4694 1.414 . S
C4693 C4696 1.499 . S
C4694 H4674 0.950 . S
C4694 C4693 1.414 . S
C4694 C4695 1.374 . S
C4695 H4675 0.950 . S
C4695 C4691 1.385 . S
C4695 C4694 1.374 . S
C4696 C4693 1.499 . S
C4696 C4697 1.373 . S
C4696 C4698 1.389 . S
C4697 H4676 0.950 . S
C4697 C4696 1.373 . S
C4697 C4713 1.377 . S
C4698 C4696 1.389 . S
C4698 C4699 1.524 . S
C4698 C4712 1.377 . S
C4699 C4698 1.524 . S
C4699 C4700 1.397 . S
C4699 C4704 1.363 . S
C4700 H4677 0.950 . S
C4700 C4699 1.397 . S
C4700 C4701 1.334 . S
C4701 H4678 0.950 . S
C4701 C4700 1.334 . S
C4701 C4702 1.287 . S
C4702 C4701 1.287 . S
C4702 C4703 1.524 . S
C4702 H4721 0.913 . S
C4703 H4679 0.950 . S
C4703 C4702 1.524 . S
C4703 C4704 1.415 . S
C4704 H4680 0.950 . S
C4704 C4699 1.363 . S
C4704 C4703 1.415 . S
C4705 H4681 0.951 . S
C4705 C4706 1.366 . S
C4705 C4707 1.388 . S
C4706 C4705 1.366 . S
C4706 C4710 1.385 . S
C4707 H4682 0.951 . S
C4707 C4705 1.388 . S
C4707 C4708 1.366 . S
C4708 C4707 1.366 . S
C4708 C4709 1.414 . S
C4708 C4711 1.499 . S
C4709 H4683 0.950 . S
C4709 C4708 1.414 . S
C4709 C4710 1.374 . S
C4710 H4684 0.950 . S
C4710 C4706 1.385 . S
C4710 C4709 1.374 . S
C4711 C4708 1.499 . S
C4711 C4712 1.373 . S
C4711 C4713 1.389 . S
C4712 H4685 0.950 . S
C4712 C4698 1.377 . S
C4712 C4711 1.373 . S
C4713 C4697 1.377 . S
C4713 C4711 1.389 . S
C4713 C4714 1.524 . S
C4714 C4713 1.524 . S
C4714 C4715 1.397 . S
C4714 C4719 1.363 . S
C4715 H4686 0.950 . S
C4715 C4714 1.397 . S
C4715 C4716 1.334 . S
C4716 H4687 0.950 . S
C4716 C4715 1.334 . S
C4716 C4717 1.287 . S
C4717 C4716 1.287 . S
C4717 C4718 1.524 . S
C4717 H4720 0.999 . S
C4718 H4688 0.950 . S
C4718 C4717 1.524 . S
C4718 C4719 1.415 . S
C4719 H4689 0.950 . S
C4719 C4714 1.363 . S
C4719 C4718 1.415 . S
H4720 C4717 0.999 . S
H4721 C4702 0.913 . S
H4722 C4740 0.951 . S
H4723 C4742 0.951 . S
H4724 C4744 0.950 . S
H4725 C4745 0.950 . S
H4726 C4747 0.950 . S
H4727 C4750 0.950 . S
H4728 C4751 0.950 . S
H4729 C4753 0.950 . S
H4730 C4754 0.950 . S
H4731 C4755 0.951 . S
H4732 C4757 0.951 . S
H4733 C4759 0.950 . S
H4734 C4760 0.950 . S
H4735 C4762 0.950 . S
H4736 C4765 0.950 . S
H4737 C4766 0.950 . S
H4738 C4768 0.950 . S
H4739 C4769 0.950 . S
C4740 H4722 0.951 . S
C4740 C4741 1.366 . S
C4740 C4742 1.388 . S
C4741 C4740 1.366 . S
C4741 C4745 1.385 . S
C4742 H4723 0.951 . S
C4742 C4740 1.388 . S
C4742 C4743 1.366 . S
C4743 C4742 1.366 . S
C4743 C4744 1.414 . S
C4743 C4746 1.499 . S
C4744 H4724 0.950 . S
C4744 C4743 1.414 . S
C4744 C4745 1.374 . S
C4745 H4725 0.950 . S
C4745 C4741 1.385 . S
C4745 C4744 1.374 . S
C4746 C4743 1.499 . S
C4746 C4747 1.373 . S
C4746 C4748 1.389 . S
C4747 H4726 0.950 . S
C4747 C4746 1.373 . S
C4747 C4763 1.377 . S
C4748 C4746 1.389 . S
C4748 C4749 1.524 . S
C4748 C4762 1.377 . S
C4749 C4748 1.524 . S
C4749 C4750 1.397 . S
C4749 C4754 1.363 . S
C4750 H4727 0.950 . S
C4750 C4749 1.397 . S
C4750 C4751 1.334 . S
C4751 H4728 0.950 . S
C4751 C4750 1.334 . S
C4751 C4752 1.287 . S
C4752 C4751 1.287 . S
C4752 C4753 1.524 . S
C4752 H4771 0.913 . S
C4753 H4729 0.950 . S
C4753 C4752 1.524 . S
C4753 C4754 1.415 . S
C4754 H4730 0.950 . S
C4754 C4749 1.363 . S
C4754 C4753 1.415 . S
C4755 H4731 0.951 . S
C4755 C4756 1.366 . S
C4755 C4757 1.388 . S
C4756 C4755 1.366 . S
C4756 C4760 1.385 . S
C4757 H4732 0.951 . S
C4757 C4755 1.388 . S
C4757 C4758 1.366 . S
C4758 C4757 1.366 . S
C4758 C4759 1.414 . S
C4758 C4761 1.499 . S
C4759 H4733 0.950 . S
C4759 C4758 1.414 . S
C4759 C4760 1.374 . S
C4760 H4734 0.950 . S
C4760 C4756 1.385 . S
C4760 C4759 1.374 . S
C4761 C4758 1.499 . S
C4761 C4762 1.373 . S
C4761 C4763 1.389 . S
C4762 H4735 0.950 . S
C4762 C4748 1.377 . S
C4762 C4761 1.373 . S
C4763 C4747 1.377 . S
C4763 C4761 1.389 . S
C4763 C4764 1.524 . S
C4764 C4763 1.524 . S
C4764 C4765 1.397 . S
C4764 C4769 1.363 . S
C4765 H4736 0.950 . S
C4765 C4764 1.397 . S
C4765 C4766 1.334 . S
C4766 H4737 0.950 . S
C4766 C4765 1.334 . S
C4766 C4767 1.287 . S
C4767 C4766 1.287 . S
C4767 C4768 1.524 . S
C4767 H4770 0.999 . S
C4768 H4738 0.950 . S
C4768 C4767 1.524 . S
C4768 C4769 1.415 . S
C4769 H4739 0.950 . S
C4769 C4764 1.363 . S
C4769 C4768 1.415 . S
H4770 C4767 0.999 . S
H4771 C4752 0.913 . S
H4772 C4790 0.951 . S
H4773 C4792 0.951 . S
H4774 C4794 0.950 . S
H4775 C4795 0.950 . S
H4776 C4797 0.950 . S
H4777 C4800 0.950 . S
H4778 C4801 0.950 . S
H4779 C4803 0.950 . S
H4780 C4804 0.950 . S
H4781 C4805 0.951 . S
H4782 C4807 0.951 . S
H4783 C4809 0.950 . S
H4784 C4810 0.950 . S
H4785 C4812 0.950 . S
H4786 C4815 0.950 . S
H4787 C4816 0.950 . S
H4788 C4818 0.950 . S
H4789 C4819 0.950 . S
C4790 H4772 0.951 . S
C4790 C4791 1.366 . S
C4790 C4792 1.388 . S
C4791 C4790 1.366 . S
C4791 C4795 1.385 . S
C4792 H4773 0.951 . S
C4792 C4790 1.388 . S
C4792 C4793 1.366 . S
C4793 C4792 1.366 . S
C4793 C4794 1.414 . S
C4793 C4796 1.499 . S
C4794 H4774 0.950 . S
C4794 C4793 1.414 . S
C4794 C4795 1.374 . S
C4795 H4775 0.950 . S
C4795 C4791 1.385 . S
C4795 C4794 1.374 . S
C4796 C4793 1.499 . S
C4796 C4797 1.373 . S
C4796 C4798 1.389 . S
C4797 H4776 0.950 . S
C4797 C4796 1.373 . S
C4797 C4813 1.377 . S
C4798 C4796 1.389 . S
C4798 C4799 1.524 . S
C4798 C4812 1.377 . S
C4799 C4798 1.524 . S
C4799 C4800 1.397 . S
C4799 C4804 1.363 . S
C4800 H4777 0.950 . S
C4800 C4799 1.397 . S
C4800 C4801 1.334 . S
C4801 H4778 0.950 . S
C4801 C4800 1.334 . S
C4801 C4802 1.287 . S
C4802 C4801 1.287 . S
C4802 C4803 1.524 . S
C4802 H4821 0.913 . S
C4803 H4779 0.950 . S
C4803 C4802 1.524 . S
C4803 C4804 1.415 . S
C4804 H4780 0.950 . S
C4804 C4799 1.363 . S
C4804 C4803 1.415 . S
C4805 H4781 0.951 . S
C4805 C4806 1.366 . S
C4805 C4807 1.388 . S
C4806 C4805 1.366 . S
C4806 C4810 1.385 . S
C4807 H4782 0.951 . S
C4807 C4805 1.388 . S
C4807 C4808 1.366 . S
C4808 C4807 1.366 . S
C4808 C4809 1.414 . S
C4808 C4811 1.499 . S
C4809 H4783 0.950 . S
C4809 C4808 1.414 . S
C4809 C4810 1.374 . S
C4810 H4784 0.950 . S
C4810 C4806 1.385 . S
C4810 C4809 1.374 . S
C4811 C4808 1.499 . S
C4811 C4812 1.373 . S
C4811 C4813 1.389 . S
C4812 H4785 0.950 . S
C4812 C4798 1.377 . S
C4812 C4811 1.373 . S
C4813 C4797 1.377 . S
C4813 C4811 1.389 . S
C4813 C4814 1.524 . S
C4814 C4813 1.524 . S
C4814 C4815 1.397 . S
C4814 C4819 1.363 . S
C4815 H4786 0.950 . S
C4815 C4814 1.397 . S
C4815 C4816 1.334 . S
C4816 H4787 0.950 . S
C4816 C4815 1.334 . S
C4816 C4817 1.287 . S
C4817 C4816 1.287 . S
C4817 C4818 1.524 . S
C4817 H4820 0.999 . S
C4818 H4788 0.950 . S
C4818 C4817 1.524 . S
C4818 C4819 1.415 . S
C4819 H4789 0.950 . S
C4819 C4814 1.363 . S
C4819 C4818 1.415 . S
H4820 C4817 0.999 . S
H4821 C4802 0.913 . S
H4822 C4840 0.951 . S
H4823 C4842 0.951 . S
H4824 C4844 0.950 . S
H4825 C4845 0.950 . S
H4826 C4847 0.950 . S
H4827 C4850 0.950 . S
H4828 C4851 0.950 . S
H4829 C4853 0.950 . S
H4830 C4854 0.950 . S
H4831 C4855 0.951 . S
H4832 C4857 0.951 . S
H4833 C4859 0.950 . S
H4834 C4860 0.950 . S
H4835 C4862 0.950 . S
H4836 C4865 0.950 . S
H4837 C4866 0.950 . S
H4838 C4868 0.950 . S
H4839 C4869 0.950 . S
C4840 H4822 0.951 . S
C4840 C4841 1.366 . S
C4840 C4842 1.388 . S
C4841 C4840 1.366 . S
C4841 C4845 1.385 . S
C4842 H4823 0.951 . S
C4842 C4840 1.388 . S
C4842 C4843 1.366 . S
C4843 C4842 1.366 . S
C4843 C4844 1.414 . S
C4843 C4846 1.499 . S
C4844 H4824 0.950 . S
C4844 C4843 1.414 . S
C4844 C4845 1.374 . S
C4845 H4825 0.950 . S
C4845 C4841 1.385 . S
C4845 C4844 1.374 . S
C4846 C4843 1.499 . S
C4846 C4847 1.373 . S
C4846 C4848 1.389 . S
C4847 H4826 0.950 . S
C4847 C4846 1.373 . S
C4847 C4863 1.377 . S
C4848 C4846 1.389 . S
C4848 C4849 1.524 . S
C4848 C4862 1.377 . S
C4849 C4848 1.524 . S
C4849 C4850 1.397 . S
C4849 C4854 1.363 . S
C4850 H4827 0.950 . S
C4850 C4849 1.397 . S
C4850 C4851 1.334 . S
C4851 H4828 0.950 . S
C4851 C4850 1.334 . S
C4851 C4852 1.287 . S
C4852 C4851 1.287 . S
C4852 C4853 1.524 . S
C4852 H4871 0.913 . S
C4853 H4829 0.950 . S
C4853 C4852 1.524 . S
C4853 C4854 1.415 . S
C4854 H4830 0.950 . S
C4854 C4849 1.363 . S
C4854 C4853 1.415 . S
C4855 H4831 0.951 . S
C4855 C4856 1.366 . S
C4855 C4857 1.388 . S
C4856 C4855 1.366 . S
C4856 C4860 1.385 . S
C4857 H4832 0.951 . S
C4857 C4855 1.388 . S
C4857 C4858 1.366 . S
C4858 C4857 1.366 . S
C4858 C4859 1.414 . S
C4858 C4861 1.499 . S
C4859 H4833 0.950 . S
C4859 C4858 1.414 . S
C4859 C4860 1.374 . S
C4860 H4834 0.950 . S
C4860 C4856 1.385 . S
C4860 C4859 1.374 . S
C4861 C4858 1.499 . S
C4861 C4862 1.373 . S
C4861 C4863 1.389 . S
C4862 H4835 0.950 . S
C4862 C4848 1.377 . S
C4862 C4861 1.373 . S
C4863 C4847 1.377 . S
C4863 C4861 1.389 . S
C4863 C4864 1.524 . S
C4864 C4863 1.524 . S
C4864 C4865 1.397 . S
C4864 C4869 1.363 . S
C4865 H4836 0.950 . S
C4865 C4864 1.397 . S
C4865 C4866 1.334 . S
C4866 H4837 0.950 . S
C4866 C4865 1.334 . S
C4866 C4867 1.287 . S
C4867 C4866 1.287 . S
C4867 C4868 1.524 . S
C4867 H4870 0.999 . S
C4868 H4838 0.950 . S
C4868 C4867 1.524 . S
C4868 C4869 1.415 . S
C4869 H4839 0.950 . S
C4869 C4864 1.363 . S
C4869 C4868 1.415 . S
H4870 C4867 0.999 . S
H4871 C4852 0.913 . S
H4872 C4890 0.951 . S
H4873 C4892 0.951 . S
H4874 C4894 0.950 . S
H4875 C4895 0.950 . S
H4876 C4897 0.950 . S
H4877 C4900 0.950 . S
H4878 C4901 0.950 . S
H4879 C4903 0.950 . S
H4880 C4904 0.950 . S
H4881 C4905 0.951 . S
H4882 C4907 0.951 . S
H4883 C4909 0.950 . S
H4884 C4910 0.950 . S
H4885 C4912 0.950 . S
H4886 C4915 0.950 . S
H4887 C4916 0.950 . S
H4888 C4918 0.950 . S
H4889 C4919 0.950 . S
C4890 H4872 0.951 . S
C4890 C4891 1.366 . S
C4890 C4892 1.388 . S
C4891 C4890 1.366 . S
C4891 C4895 1.385 . S
C4892 H4873 0.951 . S
C4892 C4890 1.388 . S
C4892 C4893 1.366 . S
C4893 C4892 1.366 . S
C4893 C4894 1.414 . S
C4893 C4896 1.499 . S
C4894 H4874 0.950 . S
C4894 C4893 1.414 . S
C4894 C4895 1.374 . S
C4895 H4875 0.950 . S
C4895 C4891 1.385 . S
C4895 C4894 1.374 . S
C4896 C4893 1.499 . S
C4896 C4897 1.373 . S
C4896 C4898 1.389 . S
C4897 H4876 0.950 . S
C4897 C4896 1.373 . S
C4897 C4913 1.377 . S
C4898 C4896 1.389 . S
C4898 C4899 1.524 . S
C4898 C4912 1.377 . S
C4899 C4898 1.524 . S
C4899 C4900 1.397 . S
C4899 C4904 1.363 . S
C4900 H4877 0.950 . S
C4900 C4899 1.397 . S
C4900 C4901 1.334 . S
C4901 H4878 0.950 . S
C4901 C4900 1.334 . S
C4901 C4902 1.287 . S
C4902 C4901 1.287 . S
C4902 C4903 1.524 . S
C4902 H4921 0.913 . S
C4903 H4879 0.950 . S
C4903 C4902 1.524 . S
C4903 C4904 1.415 . S
C4904 H4880 0.950 . S
C4904 C4899 1.363 . S
C4904 C4903 1.415 . S
C4905 H4881 0.951 . S
C4905 C4906 1.366 . S
C4905 C4907 1.388 . S
C4906 C4905 1.366 . S
C4906 C4910 1.385 . S
C4907 H4882 0.951 . S
C4907 C4905 1.388 . S
C4907 C4908 1.366 . S
C4908 C4907 1.366 . S
C4908 C4909 1.414 . S
C4908 C4911 1.499 . S
C4909 H4883 0.950 . S
C4909 C4908 1.414 . S
C4909 C4910 1.374 . S
C4910 H4884 0.950 . S
C4910 C4906 1.385 . S
C4910 C4909 1.374 . S
C4911 C4908 1.499 . S
C4911 C4912 1.373 . S
C4911 C4913 1.389 . S
C4912 H4885 0.950 . S
C4912 C4898 1.377 . S
C4912 C4911 1.373 . S
C4913 C4897 1.377 . S
C4913 C4911 1.389 . S
C4913 C4914 1.524 . S
C4914 C4913 1.524 . S
C4914 C4915 1.397 . S
C4914 C4919 1.363 . S
C4915 H4886 0.950 . S
C4915 C4914 1.397 . S
C4915 C4916 1.334 . S
C4916 H4887 0.950 . S
C4916 C4915 1.334 . S
C4916 C4917 1.287 . S
C4917 C4916 1.287 . S
C4917 C4918 1.524 . S
C4917 H4920 0.999 . S
C4918 H4888 0.950 . S
C4918 C4917 1.524 . S
C4918 C4919 1.415 . S
C4919 H4889 0.950 . S
C4919 C4914 1.363 . S
C4919 C4918 1.415 . S
H4920 C4917 0.999 . S
H4921 C4902 0.913 . S
H4922 C4940 0.951 . S
H4923 C4942 0.951 . S
H4924 C4944 0.950 . S
H4925 C4945 0.950 . S
H4926 C4947 0.950 . S
H4927 C4950 0.950 . S
H4928 C4951 0.950 . S
H4929 C4953 0.950 . S
H4930 C4954 0.950 . S
H4931 C4955 0.951 . S
H4932 C4957 0.951 . S
H4933 C4959 0.950 . S
H4934 C4960 0.950 . S
H4935 C4962 0.950 . S
H4936 C4965 0.950 . S
H4937 C4966 0.950 . S
H4938 C4968 0.950 . S
H4939 C4969 0.950 . S
C4940 H4922 0.951 . S
C4940 C4941 1.366 . S
C4940 C4942 1.388 . S
C4941 C4940 1.366 . S
C4941 C4945 1.385 . S
C4942 H4923 0.951 . S
C4942 C4940 1.388 . S
C4942 C4943 1.366 . S
C4943 C4942 1.366 . S
C4943 C4944 1.414 . S
C4943 C4946 1.499 . S
C4944 H4924 0.950 . S
C4944 C4943 1.414 . S
C4944 C4945 1.374 . S
C4945 H4925 0.950 . S
C4945 C4941 1.385 . S
C4945 C4944 1.374 . S
C4946 C4943 1.499 . S
C4946 C4947 1.373 . S
C4946 C4948 1.389 . S
C4947 H4926 0.950 . S
C4947 C4946 1.373 . S
C4947 C4963 1.377 . S
C4948 C4946 1.389 . S
C4948 C4949 1.524 . S
C4948 C4962 1.377 . S
C4949 C4948 1.524 . S
C4949 C4950 1.397 . S
C4949 C4954 1.363 . S
C4950 H4927 0.950 . S
C4950 C4949 1.397 . S
C4950 C4951 1.334 . S
C4951 H4928 0.950 . S
C4951 C4950 1.334 . S
C4951 C4952 1.287 . S
C4952 C4951 1.287 . S
C4952 C4953 1.524 . S
C4952 H4971 0.913 . S
C4953 H4929 0.950 . S
C4953 C4952 1.524 . S
C4953 C4954 1.415 . S
C4954 H4930 0.950 . S
C4954 C4949 1.363 . S
C4954 C4953 1.415 . S
C4955 H4931 0.951 . S
C4955 C4956 1.366 . S
C4955 C4957 1.388 . S
C4956 C4955 1.366 . S
C4956 C4960 1.385 . S
C4957 H4932 0.951 . S
C4957 C4955 1.388 . S
C4957 C4958 1.366 . S
C4958 C4957 1.366 . S
C4958 C4959 1.414 . S
C4958 C4961 1.499 . S
C4959 H4933 0.950 . S
C4959 C4958 1.414 . S
C4959 C4960 1.374 . S
C4960 H4934 0.950 . S
C4960 C4956 1.385 . S
C4960 C4959 1.374 . S
C4961 C4958 1.499 . S
C4961 C4962 1.373 . S
C4961 C4963 1.389 . S
C4962 H4935 0.950 . S
C4962 C4948 1.377 . S
C4962 C4961 1.373 . S
C4963 C4947 1.377 . S
C4963 C4961 1.389 . S
C4963 C4964 1.524 . S
C4964 C4963 1.524 . S
C4964 C4965 1.397 . S
C4964 C4969 1.363 . S
C4965 H4936 0.950 . S
C4965 C4964 1.397 . S
C4965 C4966 1.334 . S
C4966 H4937 0.950 . S
C4966 C4965 1.334 . S
C4966 C4967 1.287 . S
C4967 C4966 1.287 . S
C4967 C4968 1.524 . S
C4967 H4970 0.999 . S
C4968 H4938 0.950 . S
C4968 C4967 1.524 . S
C4968 C4969 1.415 . S
C4969 H4939 0.950 . S
C4969 C4964 1.363 . S
C4969 C4968 1.415 . S
H4970 C4967 0.999 . S
H4971 C4952 0.913 . S
H4972 C4990 0.951 . S
H4973 C4992 0.951 . S
H4974 C4994 0.950 . S
H4975 C4995 0.950 . S
H4976 C4997 0.950 . S
H4977 C5000 0.950 . S
H4978 C5001 0.950 . S
H4979 C5003 0.950 . S
H4980 C5004 0.950 . S
H4981 C5005 0.951 . S
H4982 C5007 0.951 . S
H4983 C5009 0.950 . S
H4984 C5010 0.950 . S
H4985 C5012 0.950 . S
H4986 C5015 0.950 . S
H4987 C5016 0.950 . S
H4988 C5018 0.950 . S
H4989 C5019 0.950 . S
C4990 H4972 0.951 . S
C4990 C4991 1.366 . S
C4990 C4992 1.388 . S
C4991 C4990 1.366 . S
C4991 C4995 1.385 . S
C4992 H4973 0.951 . S
C4992 C4990 1.388 . S
C4992 C4993 1.366 . S
C4993 C4992 1.366 . S
C4993 C4994 1.414 . S
C4993 C4996 1.499 . S
C4994 H4974 0.950 . S
C4994 C4993 1.414 . S
C4994 C4995 1.374 . S
C4995 H4975 0.950 . S
C4995 C4991 1.385 . S
C4995 C4994 1.374 . S
C4996 C4993 1.499 . S
C4996 C4997 1.373 . S
C4996 C4998 1.389 . S
C4997 H4976 0.950 . S
C4997 C4996 1.373 . S
C4997 C5013 1.377 . S
C4998 C4996 1.389 . S
C4998 C4999 1.524 . S
C4998 C5012 1.377 . S
C4999 C4998 1.524 . S
C4999 C5000 1.397 . S
C4999 C5004 1.363 . S
C5000 H4977 0.950 . S
C5000 C4999 1.397 . S
C5000 C5001 1.334 . S
C5001 H4978 0.950 . S
C5001 C5000 1.334 . S
C5001 C5002 1.287 . S
C5002 C5001 1.287 . S
C5002 C5003 1.524 . S
C5002 H5021 0.913 . S
C5003 H4979 0.950 . S
C5003 C5002 1.524 . S
C5003 C5004 1.415 . S
C5004 H4980 0.950 . S
C5004 C4999 1.363 . S
C5004 C5003 1.415 . S
C5005 H4981 0.951 . S
C5005 C5006 1.366 . S
C5005 C5007 1.388 . S
C5006 C5005 1.366 . S
C5006 C5010 1.385 . S
C5007 H4982 0.951 . S
C5007 C5005 1.388 . S
C5007 C5008 1.366 . S
C5008 C5007 1.366 . S
C5008 C5009 1.414 . S
C5008 C5011 1.499 . S
C5009 H4983 0.950 . S
C5009 C5008 1.414 . S
C5009 C5010 1.374 . S
C5010 H4984 0.950 . S
C5010 C5006 1.385 . S
C5010 C5009 1.374 . S
C5011 C5008 1.499 . S
C5011 C5012 1.373 . S
C5011 C5013 1.389 . S
C5012 H4985 0.950 . S
C5012 C4998 1.377 . S
C5012 C5011 1.373 . S
C5013 C4997 1.377 . S
C5013 C5011 1.389 . S
C5013 C5014 1.524 . S
C5014 C5013 1.524 . S
C5014 C5015 1.397 . S
C5014 C5019 1.363 . S
C5015 H4986 0.950 . S
C5015 C5014 1.397 . S
C5015 C5016 1.334 . S
C5016 H4987 0.950 . S
C5016 C5015 1.334 . S
C5016 C5017 1.287 . S
C5017 C5016 1.287 . S
C5017 C5018 1.524 . S
C5017 H5020 0.999 . S
C5018 H4988 0.950 . S
C5018 C5017 1.524 . S
C5018 C5019 1.415 . S
C5019 H4989 0.950 . S
C5019 C5014 1.363 . S
C5019 C5018 1.415 . S
H5020 C5017 0.999 . S
H5021 C5002 0.913 . S
H5022 C5040 0.951 . S
H5023 C5042 0.951 . S
H5024 C5044 0.950 . S
H5025 C5045 0.950 . S
H5026 C5047 0.950 . S
H5027 C5050 0.950 . S
H5028 C5051 0.950 . S
H5029 C5053 0.950 . S
H5030 C5054 0.950 . S
H5031 C5055 0.951 . S
H5032 C5057 0.951 . S
H5033 C5059 0.950 . S
H5034 C5060 0.950 . S
H5035 C5062 0.950 . S
H5036 C5065 0.950 . S
H5037 C5066 0.950 . S
H5038 C5068 0.950 . S
H5039 C5069 0.950 . S
C5040 H5022 0.951 . S
C5040 C5041 1.366 . S
C5040 C5042 1.388 . S
C5041 C5040 1.366 . S
C5041 C5045 1.385 . S
C5042 H5023 0.951 . S
C5042 C5040 1.388 . S
C5042 C5043 1.366 . S
C5043 C5042 1.366 . S
C5043 C5044 1.414 . S
C5043 C5046 1.499 . S
C5044 H5024 0.950 . S
C5044 C5043 1.414 . S
C5044 C5045 1.374 . S
C5045 H5025 0.950 . S
C5045 C5041 1.385 . S
C5045 C5044 1.374 . S
C5046 C5043 1.499 . S
C5046 C5047 1.373 . S
C5046 C5048 1.389 . S
C5047 H5026 0.950 . S
C5047 C5046 1.373 . S
C5047 C5063 1.377 . S
C5048 C5046 1.389 . S
C5048 C5049 1.524 . S
C5048 C5062 1.377 . S
C5049 C5048 1.524 . S
C5049 C5050 1.397 . S
C5049 C5054 1.363 . S
C5050 H5027 0.950 . S
C5050 C5049 1.397 . S
C5050 C5051 1.334 . S
C5051 H5028 0.950 . S
C5051 C5050 1.334 . S
C5051 C5052 1.287 . S
C5052 C5051 1.287 . S
C5052 C5053 1.524 . S
C5052 H5071 0.913 . S
C5053 H5029 0.950 . S
C5053 C5052 1.524 . S
C5053 C5054 1.415 . S
C5054 H5030 0.950 . S
C5054 C5049 1.363 . S
C5054 C5053 1.415 . S
C5055 H5031 0.951 . S
C5055 C5056 1.366 . S
C5055 C5057 1.388 . S
C5056 C5055 1.366 . S
C5056 C5060 1.385 . S
C5057 H5032 0.951 . S
C5057 C5055 1.388 . S
C5057 C5058 1.366 . S
C5058 C5057 1.366 . S
C5058 C5059 1.414 . S
C5058 C5061 1.499 . S
C5059 H5033 0.950 . S
C5059 C5058 1.414 . S
C5059 C5060 1.374 . S
C5060 H5034 0.950 . S
C5060 C5056 1.385 . S
C5060 C5059 1.374 . S
C5061 C5058 1.499 . S
C5061 C5062 1.373 . S
C5061 C5063 1.389 . S
C5062 H5035 0.950 . S
C5062 C5048 1.377 . S
C5062 C5061 1.373 . S
C5063 C5047 1.377 . S
C5063 C5061 1.389 . S
C5063 C5064 1.524 . S
C5064 C5063 1.524 . S
C5064 C5065 1.397 . S
C5064 C5069 1.363 . S
C5065 H5036 0.950 . S
C5065 C5064 1.397 . S
C5065 C5066 1.334 . S
C5066 H5037 0.950 . S
C5066 C5065 1.334 . S
C5066 C5067 1.287 . S
C5067 C5066 1.287 . S
C5067 C5068 1.524 . S
C5067 H5070 0.999 . S
C5068 H5038 0.950 . S
C5068 C5067 1.524 . S
C5068 C5069 1.415 . S
C5069 H5039 0.950 . S
C5069 C5064 1.363 . S
C5069 C5068 1.415 . S
H5070 C5067 0.999 . S
H5071 C5052 0.913 . S
H5072 C5090 0.951 . S
H5073 C5092 0.951 . S
H5074 C5094 0.950 . S
H5075 C5095 0.950 . S
H5076 C5097 0.950 . S
H5077 C5100 0.950 . S
H5078 C5101 0.950 . S
H5079 C5103 0.950 . S
H5080 C5104 0.950 . S
H5081 C5105 0.951 . S
H5082 C5107 0.951 . S
H5083 C5109 0.950 . S
H5084 C5110 0.950 . S
H5085 C5112 0.950 . S
H5086 C5115 0.950 . S
H5087 C5116 0.950 . S
H5088 C5118 0.950 . S
H5089 C5119 0.950 . S
C5090 H5072 0.951 . S
C5090 C5091 1.366 . S
C5090 C5092 1.388 . S
C5091 C5090 1.366 . S
C5091 C5095 1.385 . S
C5092 H5073 0.951 . S
C5092 C5090 1.388 . S
C5092 C5093 1.366 . S
C5093 C5092 1.366 . S
C5093 C5094 1.414 . S
C5093 C5096 1.499 . S
C5094 H5074 0.950 . S
C5094 C5093 1.414 . S
C5094 C5095 1.374 . S
C5095 H5075 0.950 . S
C5095 C5091 1.385 . S
C5095 C5094 1.374 . S
C5096 C5093 1.499 . S
C5096 C5097 1.373 . S
C5096 C5098 1.389 . S
C5097 H5076 0.950 . S
C5097 C5096 1.373 . S
C5097 C5113 1.377 . S
C5098 C5096 1.389 . S
C5098 C5099 1.524 . S
C5098 C5112 1.377 . S
C5099 C5098 1.524 . S
C5099 C5100 1.397 . S
C5099 C5104 1.363 . S
C5100 H5077 0.950 . S
C5100 C5099 1.397 . S
C5100 C5101 1.334 . S
C5101 H5078 0.950 . S
C5101 C5100 1.334 . S
C5101 C5102 1.287 . S
C5102 C5101 1.287 . S
C5102 C5103 1.524 . S
C5102 H5121 0.913 . S
C5103 H5079 0.950 . S
C5103 C5102 1.524 . S
C5103 C5104 1.415 . S
C5104 H5080 0.950 . S
C5104 C5099 1.363 . S
C5104 C5103 1.415 . S
C5105 H5081 0.951 . S
C5105 C5106 1.366 . S
C5105 C5107 1.388 . S
C5106 C5105 1.366 . S
C5106 C5110 1.385 . S
C5107 H5082 0.951 . S
C5107 C5105 1.388 . S
C5107 C5108 1.366 . S
C5108 C5107 1.366 . S
C5108 C5109 1.414 . S
C5108 C5111 1.499 . S
C5109 H5083 0.950 . S
C5109 C5108 1.414 . S
C5109 C5110 1.374 . S
C5110 H5084 0.950 . S
C5110 C5106 1.385 . S
C5110 C5109 1.374 . S
C5111 C5108 1.499 . S
C5111 C5112 1.373 . S
C5111 C5113 1.389 . S
C5112 H5085 0.950 . S
C5112 C5098 1.377 . S
C5112 C5111 1.373 . S
C5113 C5097 1.377 . S
C5113 C5111 1.389 . S
C5113 C5114 1.524 . S
C5114 C5113 1.524 . S
C5114 C5115 1.397 . S
C5114 C5119 1.363 . S
C5115 H5086 0.950 . S
C5115 C5114 1.397 . S
C5115 C5116 1.334 . S
C5116 H5087 0.950 . S
C5116 C5115 1.334 . S
C5116 C5117 1.287 . S
C5117 C5116 1.287 . S
C5117 C5118 1.524 . S
C5117 H5120 0.999 . S
C5118 H5088 0.950 . S
C5118 C5117 1.524 . S
C5118 C5119 1.415 . S
C5119 H5089 0.950 . S
C5119 C5114 1.363 . S
C5119 C5118 1.415 . S
H5120 C5117 0.999 . S
H5121 C5102 0.913 . S
H5122 C5140 0.951 . S
H5123 C5142 0.951 . S
H5124 C5144 0.950 . S
H5125 C5145 0.950 . S
H5126 C5147 0.950 . S
H5127 C5150 0.950 . S
H5128 C5151 0.950 . S
H5129 C5153 0.950 . S
H5130 C5154 0.950 . S
H5131 C5155 0.951 . S
H5132 C5157 0.951 . S
H5133 C5159 0.950 . S
H5134 C5160 0.950 . S
H5135 C5162 0.950 . S
H5136 C5165 0.950 . S
H5137 C5166 0.950 . S
H5138 C5168 0.950 . S
H5139 C5169 0.950 . S
C5140 H5122 0.951 . S
C5140 C5141 1.366 . S
C5140 C5142 1.388 . S
C5141 C5140 1.366 . S
C5141 C5145 1.385 . S
C5142 H5123 0.951 . S
C5142 C5140 1.388 . S
C5142 C5143 1.366 . S
C5143 C5142 1.366 . S
C5143 C5144 1.414 . S
C5143 C5146 1.499 . S
C5144 H5124 0.950 . S
C5144 C5143 1.414 . S
C5144 C5145 1.374 . S
C5145 H5125 0.950 . S
C5145 C5141 1.385 . S
C5145 C5144 1.374 . S
C5146 C5143 1.499 . S
C5146 C5147 1.373 . S
C5146 C5148 1.389 . S
C5147 H5126 0.950 . S
C5147 C5146 1.373 . S
C5147 C5163 1.377 . S
C5148 C5146 1.389 . S
C5148 C5149 1.524 . S
C5148 C5162 1.377 . S
C5149 C5148 1.524 . S
C5149 C5150 1.397 . S
C5149 C5154 1.363 . S
C5150 H5127 0.950 . S
C5150 C5149 1.397 . S
C5150 C5151 1.334 . S
C5151 H5128 0.950 . S
C5151 C5150 1.334 . S
C5151 C5152 1.287 . S
C5152 C5151 1.287 . S
C5152 C5153 1.524 . S
C5152 H5171 0.913 . S
C5153 H5129 0.950 . S
C5153 C5152 1.524 . S
C5153 C5154 1.415 . S
C5154 H5130 0.950 . S
C5154 C5149 1.363 . S
C5154 C5153 1.415 . S
C5155 H5131 0.951 . S
C5155 C5156 1.366 . S
C5155 C5157 1.388 . S
C5156 C5155 1.366 . S
C5156 C5160 1.385 . S
C5157 H5132 0.951 . S
C5157 C5155 1.388 . S
C5157 C5158 1.366 . S
C5158 C5157 1.366 . S
C5158 C5159 1.414 . S
C5158 C5161 1.499 . S
C5159 H5133 0.950 . S
C5159 C5158 1.414 . S
C5159 C5160 1.374 . S
C5160 H5134 0.950 . S
C5160 C5156 1.385 . S
C5160 C5159 1.374 . S
C5161 C5158 1.499 . S
C5161 C5162 1.373 . S
C5161 C5163 1.389 . S
C5162 H5135 0.950 . S
C5162 C5148 1.377 . S
C5162 C5161 1.373 . S
C5163 C5147 1.377 . S
C5163 C5161 1.389 . S
C5163 C5164 1.524 . S
C5164 C5163 1.524 . S
C5164 C5165 1.397 . S
C5164 C5169 1.363 . S
C5165 H5136 0.950 . S
C5165 C5164 1.397 . S
C5165 C5166 1.334 . S
C5166 H5137 0.950 . S
C5166 C5165 1.334 . S
C5166 C5167 1.287 . S
C5167 C5166 1.287 . S
C5167 C5168 1.524 . S
C5167 H5170 0.999 . S
C5168 H5138 0.950 . S
C5168 C5167 1.524 . S
C5168 C5169 1.415 . S
C5169 H5139 0.950 . S
C5169 C5164 1.363 . S
C5169 C5168 1.415 . S
H5170 C5167 0.999 . S
H5171 C5152 0.913 . S
H5172 C5190 0.951 . S
H5173 C5192 0.951 . S
H5174 C5194 0.950 . S
H5175 C5195 0.950 . S
H5176 C5197 0.950 . S
H5177 C5200 0.950 . S
H5178 C5201 0.950 . S
H5179 C5203 0.950 . S
H5180 C5204 0.950 . S
H5181 C5205 0.951 . S
H5182 C5207 0.951 . S
H5183 C5209 0.950 . S
H5184 C5210 0.950 . S
H5185 C5212 0.950 . S
H5186 C5215 0.950 . S
H5187 C5216 0.950 . S
H5188 C5218 0.950 . S
H5189 C5219 0.950 . S
C5190 H5172 0.951 . S
C5190 C5191 1.366 . S
C5190 C5192 1.388 . S
C5191 C5190 1.366 . S
C5191 C5195 1.385 . S
C5192 H5173 0.951 . S
C5192 C5190 1.388 . S
C5192 C5193 1.366 . S
C5193 C5192 1.366 . S
C5193 C5194 1.414 . S
C5193 C5196 1.499 . S
C5194 H5174 0.950 . S
C5194 C5193 1.414 . S
C5194 C5195 1.374 . S
C5195 H5175 0.950 . S
C5195 C5191 1.385 . S
C5195 C5194 1.374 . S
C5196 C5193 1.499 . S
C5196 C5197 1.373 . S
C5196 C5198 1.389 . S
C5197 H5176 0.950 . S
C5197 C5196 1.373 . S
C5197 C5213 1.377 . S
C5198 C5196 1.389 . S
C5198 C5199 1.524 . S
C5198 C5212 1.377 . S
C5199 C5198 1.524 . S
C5199 C5200 1.397 . S
C5199 C5204 1.363 . S
C5200 H5177 0.950 . S
C5200 C5199 1.397 . S
C5200 C5201 1.334 . S
C5201 H5178 0.950 . S
C5201 C5200 1.334 . S
C5201 C5202 1.287 . S
C5202 C5201 1.287 . S
C5202 C5203 1.524 . S
C5202 H5221 0.913 . S
C5203 H5179 0.950 . S
C5203 C5202 1.524 . S
C5203 C5204 1.415 . S
C5204 H5180 0.950 . S
C5204 C5199 1.363 . S
C5204 C5203 1.415 . S
C5205 H5181 0.951 . S
C5205 C5206 1.366 . S
C5205 C5207 1.388 . S
C5206 C5205 1.366 . S
C5206 C5210 1.385 . S
C5207 H5182 0.951 . S
C5207 C5205 1.388 . S
C5207 C5208 1.366 . S
C5208 C5207 1.366 . S
C5208 C5209 1.414 . S
C5208 C5211 1.499 . S
C5209 H5183 0.950 . S
C5209 C5208 1.414 . S
C5209 C5210 1.374 . S
C5210 H5184 0.950 . S
C5210 C5206 1.385 . S
C5210 C5209 1.374 . S
C5211 C5208 1.499 . S
C5211 C5212 1.373 . S
C5211 C5213 1.389 . S
C5212 H5185 0.950 . S
C5212 C5198 1.377 . S
C5212 C5211 1.373 . S
C5213 C5197 1.377 . S
C5213 C5211 1.389 . S
C5213 C5214 1.524 . S
C5214 C5213 1.524 . S
C5214 C5215 1.397 . S
C5214 C5219 1.363 . S
C5215 H5186 0.950 . S
C5215 C5214 1.397 . S
C5215 C5216 1.334 . S
C5216 H5187 0.950 . S
C5216 C5215 1.334 . S
C5216 C5217 1.287 . S
C5217 C5216 1.287 . S
C5217 C5218 1.524 . S
C5217 H5220 0.999 . S
C5218 H5188 0.950 . S
C5218 C5217 1.524 . S
C5218 C5219 1.415 . S
C5219 H5189 0.950 . S
C5219 C5214 1.363 . S
C5219 C5218 1.415 . S
H5220 C5217 0.999 . S
H5221 C5202 0.913 . S
H5222 C5240 0.951 . S
H5223 C5242 0.951 . S
H5224 C5244 0.950 . S
H5225 C5245 0.950 . S
H5226 C5247 0.950 . S
H5227 C5250 0.950 . S
H5228 C5251 0.950 . S
H5229 C5253 0.950 . S
H5230 C5254 0.950 . S
H5231 C5255 0.951 . S
H5232 C5257 0.951 . S
H5233 C5259 0.950 . S
H5234 C5260 0.950 . S
H5235 C5262 0.950 . S
H5236 C5265 0.950 . S
H5237 C5266 0.950 . S
H5238 C5268 0.950 . S
H5239 C5269 0.950 . S
C5240 H5222 0.951 . S
C5240 C5241 1.366 . S
C5240 C5242 1.388 . S
C5241 C5240 1.366 . S
C5241 C5245 1.385 . S
C5242 H5223 0.951 . S
C5242 C5240 1.388 . S
C5242 C5243 1.366 . S
C5243 C5242 1.366 . S
C5243 C5244 1.414 . S
C5243 C5246 1.499 . S
C5244 H5224 0.950 . S
C5244 C5243 1.414 . S
C5244 C5245 1.374 . S
C5245 H5225 0.950 . S
C5245 C5241 1.385 . S
C5245 C5244 1.374 . S
C5246 C5243 1.499 . S
C5246 C5247 1.373 . S
C5246 C5248 1.389 . S
C5247 H5226 0.950 . S
C5247 C5246 1.373 . S
C5247 C5263 1.377 . S
C5248 C5246 1.389 . S
C5248 C5249 1.524 . S
C5248 C5262 1.377 . S
C5249 C5248 1.524 . S
C5249 C5250 1.397 . S
C5249 C5254 1.363 . S
C5250 H5227 0.950 . S
C5250 C5249 1.397 . S
C5250 C5251 1.334 . S
C5251 H5228 0.950 . S
C5251 C5250 1.334 . S
C5251 C5252 1.287 . S
C5252 C5251 1.287 . S
C5252 C5253 1.524 . S
C5252 H5271 0.913 . S
C5253 H5229 0.950 . S
C5253 C5252 1.524 . S
C5253 C5254 1.415 . S
C5254 H5230 0.950 . S
C5254 C5249 1.363 . S
C5254 C5253 1.415 . S
C5255 H5231 0.951 . S
C5255 C5256 1.366 . S
C5255 C5257 1.388 . S
C5256 C5255 1.366 . S
C5256 C5260 1.385 . S
C5257 H5232 0.951 . S
C5257 C5255 1.388 . S
C5257 C5258 1.366 . S
C5258 C5257 1.366 . S
C5258 C5259 1.414 . S
C5258 C5261 1.499 . S
C5259 H5233 0.950 . S
C5259 C5258 1.414 . S
C5259 C5260 1.374 . S
C5260 H5234 0.950 . S
C5260 C5256 1.385 . S
C5260 C5259 1.374 . S
C5261 C5258 1.499 . S
C5261 C5262 1.373 . S
C5261 C5263 1.389 . S
C5262 H5235 0.950 . S
C5262 C5248 1.377 . S
C5262 C5261 1.373 . S
C5263 C5247 1.377 . S
C5263 C5261 1.389 . S
C5263 C5264 1.524 . S
C5264 C5263 1.524 . S
C5264 C5265 1.397 . S
C5264 C5269 1.363 . S
C5265 H5236 0.950 . S
C5265 C5264 1.397 . S
C5265 C5266 1.334 . S
C5266 H5237 0.950 . S
C5266 C5265 1.334 . S
C5266 C5267 1.287 . S
C5267 C5266 1.287 . S
C5267 C5268 1.524 . S
C5267 H5270 0.999 . S
C5268 H5238 0.950 . S
C5268 C5267 1.524 . S
C5268 C5269 1.415 . S
C5269 H5239 0.950 . S
C5269 C5264 1.363 . S
C5269 C5268 1.415 . S
H5270 C5267 0.999 . S
H5271 C5252 0.913 . S
H5272 C5290 0.951 . S
H5273 C5292 0.951 . S
H5274 C5294 0.950 . S
H5275 C5295 0.950 . S
H5276 C5297 0.950 . S
H5277 C5300 0.950 . S
H5278 C5301 0.950 . S
H5279 C5303 0.950 . S
H5280 C5304 0.950 . S
H5281 C5305 0.951 . S
H5282 C5307 0.951 . S
H5283 C5309 0.950 . S
H5284 C5310 0.950 . S
H5285 C5312 0.950 . S
H5286 C5315 0.950 . S
H5287 C5316 0.950 . S
H5288 C5318 0.950 . S
H5289 C5319 0.950 . S
C5290 H5272 0.951 . S
C5290 C5291 1.366 . S
C5290 C5292 1.388 . S
C5291 C5290 1.366 . S
C5291 C5295 1.385 . S
C5292 H5273 0.951 . S
C5292 C5290 1.388 . S
C5292 C5293 1.366 . S
C5293 C5292 1.366 . S
C5293 C5294 1.414 . S
C5293 C5296 1.499 . S
C5294 H5274 0.950 . S
C5294 C5293 1.414 . S
C5294 C5295 1.374 . S
C5295 H5275 0.950 . S
C5295 C5291 1.385 . S
C5295 C5294 1.374 . S
C5296 C5293 1.499 . S
C5296 C5297 1.373 . S
C5296 C5298 1.389 . S
C5297 H5276 0.950 . S
C5297 C5296 1.373 . S
C5297 C5313 1.377 . S
C5298 C5296 1.389 . S
C5298 C5299 1.524 . S
C5298 C5312 1.377 . S
C5299 C5298 1.524 . S
C5299 C5300 1.397 . S
C5299 C5304 1.363 . S
C5300 H5277 0.950 . S
C5300 C5299 1.397 . S
C5300 C5301 1.334 . S
C5301 H5278 0.950 . S
C5301 C5300 1.334 . S
C5301 C5302 1.287 . S
C5302 C5301 1.287 . S
C5302 C5303 1.524 . S
C5302 H5321 0.913 . S
C5303 H5279 0.950 . S
C5303 C5302 1.524 . S
C5303 C5304 1.415 . S
C5304 H5280 0.950 . S
C5304 C5299 1.363 . S
C5304 C5303 1.415 . S
C5305 H5281 0.951 . S
C5305 C5306 1.366 . S
C5305 C5307 1.388 . S
C5306 C5305 1.366 . S
C5306 C5310 1.385 . S
C5307 H5282 0.951 . S
C5307 C5305 1.388 . S
C5307 C5308 1.366 . S
C5308 C5307 1.366 . S
C5308 C5309 1.414 . S
C5308 C5311 1.499 . S
C5309 H5283 0.950 . S
C5309 C5308 1.414 . S
C5309 C5310 1.374 . S
C5310 H5284 0.950 . S
C5310 C5306 1.385 . S
C5310 C5309 1.374 . S
C5311 C5308 1.499 . S
C5311 C5312 1.373 . S
C5311 C5313 1.389 . S
C5312 H5285 0.950 . S
C5312 C5298 1.377 . S
C5312 C5311 1.373 . S
C5313 C5297 1.377 . S
C5313 C5311 1.389 . S
C5313 C5314 1.524 . S
C5314 C5313 1.524 . S
C5314 C5315 1.397 . S
C5314 C5319 1.363 . S
C5315 H5286 0.950 . S
C5315 C5314 1.397 . S
C5315 C5316 1.334 . S
C5316 H5287 0.950 . S
C5316 C5315 1.334 . S
C5316 C5317 1.287 . S
C5317 C5316 1.287 . S
C5317 C5318 1.524 . S
C5317 H5320 0.999 . S
C5318 H5288 0.950 . S
C5318 C5317 1.524 . S
C5318 C5319 1.415 . S
C5319 H5289 0.950 . S
C5319 C5314 1.363 . S
C5319 C5318 1.415 . S
H5320 C5317 0.999 . S
H5321 C5302 0.913 . S
H5322 C5340 0.951 . S
H5323 C5342 0.951 . S
H5324 C5344 0.950 . S
H5325 C5345 0.950 . S
H5326 C5347 0.950 . S
H5327 C5350 0.950 . S
H5328 C5351 0.950 . S
H5329 C5353 0.950 . S
H5330 C5354 0.950 . S
H5331 C5355 0.951 . S
H5332 C5357 0.951 . S
H5333 C5359 0.950 . S
H5334 C5360 0.950 . S
H5335 C5362 0.950 . S
H5336 C5365 0.950 . S
H5337 C5366 0.950 . S
H5338 C5368 0.950 . S
H5339 C5369 0.950 . S
C5340 H5322 0.951 . S
C5340 C5341 1.366 . S
C5340 C5342 1.388 . S
C5341 C5340 1.366 . S
C5341 C5345 1.385 . S
C5342 H5323 0.951 . S
C5342 C5340 1.388 . S
C5342 C5343 1.366 . S
C5343 C5342 1.366 . S
C5343 C5344 1.414 . S
C5343 C5346 1.499 . S
C5344 H5324 0.950 . S
C5344 C5343 1.414 . S
C5344 C5345 1.374 . S
C5345 H5325 0.950 . S
C5345 C5341 1.385 . S
C5345 C5344 1.374 . S
C5346 C5343 1.499 . S
C5346 C5347 1.373 . S
C5346 C5348 1.389 . S
C5347 H5326 0.950 . S
C5347 C5346 1.373 . S
C5347 C5363 1.377 . S
C5348 C5346 1.389 . S
C5348 C5349 1.524 . S
C5348 C5362 1.377 . S
C5349 C5348 1.524 . S
C5349 C5350 1.397 . S
C5349 C5354 1.363 . S
C5350 H5327 0.950 . S
C5350 C5349 1.397 . S
C5350 C5351 1.334 . S
C5351 H5328 0.950 . S
C5351 C5350 1.334 . S
C5351 C5352 1.287 . S
C5352 C5351 1.287 . S
C5352 C5353 1.524 . S
C5352 H5371 0.913 . S
C5353 H5329 0.950 . S
C5353 C5352 1.524 . S
C5353 C5354 1.415 . S
C5354 H5330 0.950 . S
C5354 C5349 1.363 . S
C5354 C5353 1.415 . S
C5355 H5331 0.951 . S
C5355 C5356 1.366 . S
C5355 C5357 1.388 . S
C5356 C5355 1.366 . S
C5356 C5360 1.385 . S
C5357 H5332 0.951 . S
C5357 C5355 1.388 . S
C5357 C5358 1.366 . S
C5358 C5357 1.366 . S
C5358 C5359 1.414 . S
C5358 C5361 1.499 . S
C5359 H5333 0.950 . S
C5359 C5358 1.414 . S
C5359 C5360 1.374 . S
C5360 H5334 0.950 . S
C5360 C5356 1.385 . S
C5360 C5359 1.374 . S
C5361 C5358 1.499 . S
C5361 C5362 1.373 . S
C5361 C5363 1.389 . S
C5362 H5335 0.950 . S
C5362 C5348 1.377 . S
C5362 C5361 1.373 . S
C5363 C5347 1.377 . S
C5363 C5361 1.389 . S
C5363 C5364 1.524 . S
C5364 C5363 1.524 . S
C5364 C5365 1.397 . S
C5364 C5369 1.363 . S
C5365 H5336 0.950 . S
C5365 C5364 1.397 . S
C5365 C5366 1.334 . S
C5366 H5337 0.950 . S
C5366 C5365 1.334 . S
C5366 C5367 1.287 . S
C5367 C5366 1.287 . S
C5367 C5368 1.524 . S
C5367 H5370 0.999 . S
C5368 H5338 0.950 . S
C5368 C5367 1.524 . S
C5368 C5369 1.415 . S
C5369 H5339 0.950 . S
C5369 C5364 1.363 . S
C5369 C5368 1.415 . S
H5370 C5367 0.999 . S
H5371 C5352 0.913 . S
H5372 C5390 0.951 . S
H5373 C5392 0.951 . S
H5374 C5394 0.950 . S
H5375 C5395 0.950 . S
H5376 C5397 0.950 . S
H5377 C5400 0.950 . S
H5378 C5401 0.950 . S
H5379 C5403 0.950 . S
H5380 C5404 0.950 . S
H5381 C5405 0.951 . S
H5382 C5407 0.951 . S
H5383 C5409 0.950 . S
H5384 C5410 0.950 . S
H5385 C5412 0.950 . S
H5386 C5415 0.950 . S
H5387 C5416 0.950 . S
H5388 C5418 0.950 . S
H5389 C5419 0.950 . S
C5390 H5372 0.951 . S
C5390 C5391 1.366 . S
C5390 C5392 1.388 . S
C5391 C5390 1.366 . S
C5391 C5395 1.385 . S
C5392 H5373 0.951 . S
C5392 C5390 1.388 . S
C5392 C5393 1.366 . S
C5393 C5392 1.366 . S
C5393 C5394 1.414 . S
C5393 C5396 1.499 . S
C5394 H5374 0.950 . S
C5394 C5393 1.414 . S
C5394 C5395 1.374 . S
C5395 H5375 0.950 . S
C5395 C5391 1.385 . S
C5395 C5394 1.374 . S
C5396 C5393 1.499 . S
C5396 C5397 1.373 . S
C5396 C5398 1.389 . S
C5397 H5376 0.950 . S
C5397 C5396 1.373 . S
C5397 C5413 1.377 . S
C5398 C5396 1.389 . S
C5398 C5399 1.524 . S
C5398 C5412 1.377 . S
C5399 C5398 1.524 . S
C5399 C5400 1.397 . S
C5399 C5404 1.363 . S
C5400 H5377 0.950 . S
C5400 C5399 1.397 . S
C5400 C5401 1.334 . S
C5401 H5378 0.950 . S
C5401 C5400 1.334 . S
C5401 C5402 1.287 . S
C5402 C5401 1.287 . S
C5402 C5403 1.524 . S
C5402 H5421 0.913 . S
C5403 H5379 0.950 . S
C5403 C5402 1.524 . S
C5403 C5404 1.415 . S
C5404 H5380 0.950 . S
C5404 C5399 1.363 . S
C5404 C5403 1.415 . S
C5405 H5381 0.951 . S
C5405 C5406 1.366 . S
C5405 C5407 1.388 . S
C5406 C5405 1.366 . S
C5406 C5410 1.385 . S
C5407 H5382 0.951 . S
C5407 C5405 1.388 . S
C5407 C5408 1.366 . S
C5408 C5407 1.366 . S
C5408 C5409 1.414 . S
C5408 C5411 1.499 . S
C5409 H5383 0.950 . S
C5409 C5408 1.414 . S
C5409 C5410 1.374 . S
C5410 H5384 0.950 . S
C5410 C5406 1.385 . S
C5410 C5409 1.374 . S
C5411 C5408 1.499 . S
C5411 C5412 1.373 . S
C5411 C5413 1.389 . S
C5412 H5385 0.950 . S
C5412 C5398 1.377 . S
C5412 C5411 1.373 . S
C5413 C5397 1.377 . S
C5413 C5411 1.389 . S
C5413 C5414 1.524 . S
C5414 C5413 1.524 . S
C5414 C5415 1.397 . S
C5414 C5419 1.363 . S
C5415 H5386 0.950 . S
C5415 C5414 1.397 . S
C5415 C5416 1.334 . S
C5416 H5387 0.950 . S
C5416 C5415 1.334 . S
C5416 C5417 1.287 . S
C5417 C5416 1.287 . S
C5417 C5418 1.524 . S
C5417 H5420 0.999 . S
C5418 H5388 0.950 . S
C5418 C5417 1.524 . S
C5418 C5419 1.415 . S
C5419 H5389 0.950 . S
C5419 C5414 1.363 . S
C5419 C5418 1.415 . S
H5420 C5417 0.999 . S
H5421 C5402 0.913 . S
H5422 C5440 0.951 . S
H5423 C5442 0.951 . S
H5424 C5444 0.950 . S
H5425 C5445 0.950 . S
H5426 C5447 0.950 . S
H5427 C5450 0.950 . S
H5428 C5451 0.950 . S
H5429 C5453 0.950 . S
H5430 C5454 0.950 . S
H5431 C5455 0.951 . S
H5432 C5457 0.951 . S
H5433 C5459 0.950 . S
H5434 C5460 0.950 . S
H5435 C5462 0.950 . S
H5436 C5465 0.950 . S
H5437 C5466 0.950 . S
H5438 C5468 0.950 . S
H5439 C5469 0.950 . S
C5440 H5422 0.951 . S
C5440 C5441 1.366 . S
C5440 C5442 1.388 . S
C5441 C5440 1.366 . S
C5441 C5445 1.385 . S
C5442 H5423 0.951 . S
C5442 C5440 1.388 . S
C5442 C5443 1.366 . S
C5443 C5442 1.366 . S
C5443 C5444 1.414 . S
C5443 C5446 1.499 . S
C5444 H5424 0.950 . S
C5444 C5443 1.414 . S
C5444 C5445 1.374 . S
C5445 H5425 0.950 . S
C5445 C5441 1.385 . S
C5445 C5444 1.374 . S
C5446 C5443 1.499 . S
C5446 C5447 1.373 . S
C5446 C5448 1.389 . S
C5447 H5426 0.950 . S
C5447 C5446 1.373 . S
C5447 C5463 1.377 . S
C5448 C5446 1.389 . S
C5448 C5449 1.524 . S
C5448 C5462 1.377 . S
C5449 C5448 1.524 . S
C5449 C5450 1.397 . S
C5449 C5454 1.363 . S
C5450 H5427 0.950 . S
C5450 C5449 1.397 . S
C5450 C5451 1.334 . S
C5451 H5428 0.950 . S
C5451 C5450 1.334 . S
C5451 C5452 1.287 . S
C5452 C5451 1.287 . S
C5452 C5453 1.524 . S
C5452 H5471 0.913 . S
C5453 H5429 0.950 . S
C5453 C5452 1.524 . S
C5453 C5454 1.415 . S
C5454 H5430 0.950 . S
C5454 C5449 1.363 . S
C5454 C5453 1.415 . S
C5455 H5431 0.951 . S
C5455 C5456 1.366 . S
C5455 C5457 1.388 . S
C5456 C5455 1.366 . S
C5456 C5460 1.385 . S
C5457 H5432 0.951 . S
C5457 C5455 1.388 . S
C5457 C5458 1.366 . S
C5458 C5457 1.366 . S
C5458 C5459 1.414 . S
C5458 C5461 1.499 . S
C5459 H5433 0.950 . S
C5459 C5458 1.414 . S
C5459 C5460 1.374 . S
C5460 H5434 0.950 . S
C5460 C5456 1.385 . S
C5460 C5459 1.374 . S
C5461 C5458 1.499 . S
C5461 C5462 1.373 . S
C5461 C5463 1.389 . S
C5462 H5435 0.950 . S
C5462 C5448 1.377 . S
C5462 C5461 1.373 . S
C5463 C5447 1.377 . S
C5463 C5461 1.389 . S
C5463 C5464 1.524 . S
C5464 C5463 1.524 . S
C5464 C5465 1.397 . S
C5464 C5469 1.363 . S
C5465 H5436 0.950 . S
C5465 C5464 1.397 . S
C5465 C5466 1.334 . S
C5466 H5437 0.950 . S
C5466 C5465 1.334 . S
C5466 C5467 1.287 . S
C5467 C5466 1.287 . S
C5467 C5468 1.524 . S
C5467 H5470 0.999 . S
C5468 H5438 0.950 . S
C5468 C5467 1.524 . S
C5468 C5469 1.415 . S
C5469 H5439 0.950 . S
C5469 C5464 1.363 . S
C5469 C5468 1.415 . S
H5470 C5467 0.999 . S
H5471 C5452 0.913 . S
C691 C400 0.903 . S
C706 C8 0.902 . S
C741 C22 0.902 . S
C756 C414 0.902 . S
C791 C428 0.902 . S
C806 C36 0.902 . S
C841 C50 0.902 . S
C856 C442 0.902 . S
C891 C344 0.902 . S
C906 C64 0.902 . S
C941 C78 0.903 . S
C956 C358 0.902 . S
C991 C372 0.902 . S
C1006 C92 0.902 . S
C1041 C106 0.902 . S
C1056 C386 0.902 . S
C1091 C540 0.902 . S
C1106 C120 0.903 . S
C1141 C554 0.903 . S
C1156 C134 0.902 . S
C1191 C512 0.903 . S
C1206 C148 0.902 . S
C1241 C162 0.902 . S
C1256 C526 0.903 . S
C1291 C484 0.902 . S
C1306 C176 0.903 . S
C1341 C498 0.902 . S
C1356 C190 0.903 . S
C1391 C204 0.903 . S
C1406 C456 0.902 . S
C1441 C470 0.902 . S
C1456 C218 0.903 . S
C1491 C232 0.903 . S
C1506 C638 0.902 . S
C1541 C610 0.903 . S
C1556 C246 0.902 . S
C1591 C624 0.902 . S
C1606 C260 0.902 . S
C1641 C582 0.903 . S
C1656 C274 0.902 . S
C1691 C596 0.903 . S
C1706 C288 0.902 . S
C1741 C302 0.902 . S
C1756 C568 0.902 . S
C1791 C316 0.902 . S
C1806 C666 0.902 . S
C1841 C652 0.902 . S
C1856 C330 0.903 . S
C1891 C105 1.218 . S
C1906 C7 1.219 . S
C1941 C63 1.218 . S
C1956 C21 1.218 . S
C1991 C77 1.218 . S
C2006 C35 1.219 . S
C2041 C91 1.219 . S
C2056 C49 1.217 . S
C2091 C287 1.219 . S
C2106 C119 1.217 . S
C2141 C245 1.218 . S
C2156 C133 1.219 . S
C2191 C259 1.217 . S
C2206 C147 1.219 . S
C2241 C273 1.219 . S
C2256 C161 1.218 . S
C2291 C329 1.217 . S
C2306 C175 1.219 . S
C2341 C301 1.218 . S
C2356 C189 1.218 . S
C2391 C203 1.217 . S
C2406 C315 1.219 . S
C2441 C231 1.219 . S
C2456 C217 1.217 . S
C2491 C441 1.219 . S
C2506 C343 1.218 . S
C2541 C399 1.217 . S
C2556 C357 1.219 . S
C2591 C371 1.217 . S
C2606 C413 1.219 . S
C2641 C385 1.219 . S
C2656 C427 1.218 . S
C2691 C455 1.219 . S
C2706 C623 1.218 . S
C2741 C469 1.217 . S
C2756 C581 1.219 . S
C2791 C595 1.218 . S
C2806 C483 1.219 . S
C2841 C609 1.218 . S
C2856 C497 1.219 . S
C2891 C665 1.217 . S
C2906 C511 1.219 . S
C2941 C637 1.218 . S
C2956 C525 1.219 . S
C2991 C651 1.217 . S
C3006 C539 1.219 . S
C3041 C553 1.217 . S
C3056 C567 1.219 . S
C3091 C3 0.973 . S
C3106 C121 0.936 . S
C3141 C135 0.937 . S
C3156 C17 0.973 . S
C3191 C149 0.935 . S
C3206 C31 0.974 . S
C3241 C163 0.935 . S
C3256 C45 0.974 . S
C3291 C59 0.973 . S
C3306 C177 0.937 . S
C3341 C191 0.934 . S
C3356 C73 0.974 . S
C3391 C87 0.973 . S
C3406 C205 0.937 . S
C3441 C219 0.934 . S
C3456 C101 0.974 . S
C3491 C233 0.935 . S
C3506 C115 0.974 . S
C3541 C331 0.937 . S
C3556 C129 0.973 . S
C3591 C143 0.973 . S
C3606 C303 0.935 . S
C3641 C157 0.974 . S
C3656 C317 0.936 . S
C3691 C171 0.974 . S
C3706 C247 0.936 . S
C3741 C185 0.973 . S
C3756 C261 0.936 . S
C3791 C199 0.974 . S
C3806 C275 0.935 . S
C3841 C213 0.973 . S
C3856 C289 0.937 . S
C3891 C227 0.973 . S
C3906 C9 0.936 . S
C3941 C241 0.973 . S
C3956 C65 0.937 . S
C3991 C255 0.973 . S
C4006 C79 0.936 . S
C4041 C269 0.973 . S
C4056 C93 0.937 . S
C4091 C283 0.973 . S
C4106 C107 0.936 . S
C4141 C297 0.973 . S
C4156 C37 0.937 . S
C4191 C51 0.935 . S
C4206 C311 0.973 . S
C4241 C23 0.934 . S
C4256 C325 0.974 . S
C4291 C457 0.937 . S
C4306 C339 0.973 . S
C4341 C471 0.936 . S
C4356 C353 0.973 . S
C4391 C485 0.935 . S
C4406 C367 0.973 . S
C4441 C499 0.937 . S
C4456 C381 0.973 . S
C4491 C513 0.935 . S
C4506 C395 0.974 . S
C4541 C409 0.974 . S
C4556 C527 0.934 . S
C4591 C541 0.937 . S
C4606 C423 0.973 . S
C4641 C437 0.974 . S
C4656 C555 0.934 . S
C4691 C569 0.934 . S
C4706 C451 0.974 . S
C4741 C465 0.974 . S
C4756 C667 0.935 . S
C4791 C479 0.974 . S
C4806 C639 0.935 . S
C4841 C653 0.935 . S
C4856 C493 0.974 . S
C4891 C583 0.936 . S
C4906 C507 0.973 . S
C4941 C521 0.973 . S
C4956 C597 0.935 . S
C4991 C535 0.974 . S
C5006 C611 0.935 . S
C5041 C625 0.935 . S
C5056 C549 0.974 . S
C5091 C345 0.937 . S
C5106 C563 0.973 . S
C5141 C401 0.935 . S
C5156 C577 0.974 . S
C5191 C415 0.934 . S
C5206 C591 0.974 . S
C5241 C605 0.973 . S
C5256 C429 0.935 . S
C5291 C443 0.934 . S
C5306 C619 0.974 . S
C5341 C373 0.935 . S
C5356 C633 0.974 . S
C5391 C647 0.974 . S
C5406 C387 0.935 . S
C5441 C359 0.935 . S
C5456 C661 0.974 . S
