# Generated by pormake.
# Topology wme, (6)-cn, num edge types: 1
# Building blocks:
#     Node 0, Type 0, BuildingBlock: BETDAH_clean_sbu_0, # of connection points: 6
#     Node 1, Type 0, BuildingBlock: BETDAH_clean_sbu_0, # of connection points: 6
#     Node 2, Type 0, BuildingBlock: BETDAH_clean_sbu_0, # of connection points: 6
#     Node 3, Type 0, BuildingBlock: BETDAH_clean_sbu_0, # of connection points: 6
#     Node 4, Type 0, BuildingBlock: BETDAH_clean_sbu_0, # of connection points: 6
#     Node 5, Type 0, BuildingBlock: BETDAH_clean_sbu_0, # of connection points: 6
#     Node 6, Type 0, BuildingBlock: BETDAH_clean_sbu_0, # of connection points: 6
#     Node 7, Type 0, BuildingBlock: BETDAH_clean_sbu_0, # of connection points: 6
#     Node 8, Type 0, BuildingBlock: BETDAH_clean_sbu_0, # of connection points: 6
#     Node 9, Type 0, BuildingBlock: BETDAH_clean_sbu_0, # of connection points: 6
#     Node 10, Type 0, BuildingBlock: BETDAH_clean_sbu_0, # of connection points: 6
#     Node 11, Type 0, BuildingBlock: BETDAH_clean_sbu_0, # of connection points: 6
#     Edge 12, Type (0, 0), BuildingBlock: ZUJKAS_clean_linker_0, # of connection points: 2
#     Edge 13, Type (0, 0), BuildingBlock: ZUJKAS_clean_linker_0, # of connection points: 2
#     Edge 14, Type (0, 0), BuildingBlock: ZUJKAS_clean_linker_0, # of connection points: 2
#     Edge 15, Type (0, 0), BuildingBlock: ZUJKAS_clean_linker_0, # of connection points: 2
#     Edge 16, Type (0, 0), BuildingBlock: ZUJKAS_clean_linker_0, # of connection points: 2
#     Edge 17, Type (0, 0), BuildingBlock: ZUJKAS_clean_linker_0, # of connection points: 2
#     Edge 18, Type (0, 0), BuildingBlock: ZUJKAS_clean_linker_0, # of connection points: 2
#     Edge 19, Type (0, 0), BuildingBlock: ZUJKAS_clean_linker_0, # of connection points: 2
#     Edge 20, Type (0, 0), BuildingBlock: ZUJKAS_clean_linker_0, # of connection points: 2
#     Edge 21, Type (0, 0), BuildingBlock: ZUJKAS_clean_linker_0, # of connection points: 2
#     Edge 22, Type (0, 0), BuildingBlock: ZUJKAS_clean_linker_0, # of connection points: 2
#     Edge 23, Type (0, 0), BuildingBlock: ZUJKAS_clean_linker_0, # of connection points: 2
#     Edge 24, Type (0, 0), BuildingBlock: ZUJKAS_clean_linker_0, # of connection points: 2
#     Edge 25, Type (0, 0), BuildingBlock: ZUJKAS_clean_linker_0, # of connection points: 2
#     Edge 26, Type (0, 0), BuildingBlock: ZUJKAS_clean_linker_0, # of connection points: 2
#     Edge 27, Type (0, 0), BuildingBlock: ZUJKAS_clean_linker_0, # of connection points: 2
#     Edge 28, Type (0, 0), BuildingBlock: ZUJKAS_clean_linker_0, # of connection points: 2
#     Edge 29, Type (0, 0), BuildingBlock: ZUJKAS_clean_linker_0, # of connection points: 2
#     Edge 30, Type (0, 0), BuildingBlock: ZUJKAS_clean_linker_0, # of connection points: 2
#     Edge 31, Type (0, 0), BuildingBlock: ZUJKAS_clean_linker_0, # of connection points: 2
#     Edge 32, Type (0, 0), BuildingBlock: ZUJKAS_clean_linker_0, # of connection points: 2
#     Edge 33, Type (0, 0), BuildingBlock: ZUJKAS_clean_linker_0, # of connection points: 2
#     Edge 34, Type (0, 0), BuildingBlock: ZUJKAS_clean_linker_0, # of connection points: 2
#     Edge 35, Type (0, 0), BuildingBlock: ZUJKAS_clean_linker_0, # of connection points: 2
#     Edge 36, Type (0, 0), BuildingBlock: ZUJKAS_clean_linker_0, # of connection points: 2
#     Edge 37, Type (0, 0), BuildingBlock: ZUJKAS_clean_linker_0, # of connection points: 2
#     Edge 38, Type (0, 0), BuildingBlock: ZUJKAS_clean_linker_0, # of connection points: 2
#     Edge 39, Type (0, 0), BuildingBlock: ZUJKAS_clean_linker_0, # of connection points: 2
#     Edge 40, Type (0, 0), BuildingBlock: ZUJKAS_clean_linker_0, # of connection points: 2
#     Edge 41, Type (0, 0), BuildingBlock: ZUJKAS_clean_linker_0, # of connection points: 2
#     Edge 42, Type (0, 0), BuildingBlock: ZUJKAS_clean_linker_0, # of connection points: 2
#     Edge 43, Type (0, 0), BuildingBlock: ZUJKAS_clean_linker_0, # of connection points: 2
#     Edge 44, Type (0, 0), BuildingBlock: ZUJKAS_clean_linker_0, # of connection points: 2
#     Edge 45, Type (0, 0), BuildingBlock: ZUJKAS_clean_linker_0, # of connection points: 2
#     Edge 46, Type (0, 0), BuildingBlock: ZUJKAS_clean_linker_0, # of connection points: 2
#     Edge 47, Type (0, 0), BuildingBlock: ZUJKAS_clean_linker_0, # of connection points: 2
# Relax obj value: 0.098
# Max RMSD: 0.196
# Mean RMSD: 0.196
data_MOF--net-wme--node1-BETDAH_clean_sbu_0--edge1-ZUJKAS_clean_linker_0
_symmetry_space_group_name_H-M    P1
_symmetry_Int_Tables_number       1
_symmetry_cell_setting            triclinic
loop_
_symmetry_equiv_pos_as_xyz
'x, y, z'
_cell_length_a     49.358589
_cell_length_b     49.403722
_cell_length_c     68.120478
_cell_angle_alpha  90.102238
_cell_angle_beta   90.036316
_cell_angle_gamma 120.07962
loop_
_atom_site_label
_atom_site_type_symbol
_atom_site_fract_x
_atom_site_fract_y
_atom_site_fract_z
_atom_type_partial_charge
Ho0 Ho 0.21203 0.35893 0.12558 0.0
Ho1 Ho 0.24695 0.32023 0.13238 0.0
C2 C 0.28652 0.39497 0.13537 0.0
C3 C 0.1889 0.39575 0.12351 0.0
C4 C 0.18897 0.4245 0.13001 0.0
C5 C 0.1649 0.42181 0.14232 0.0
C6 C 0.16048 0.44733 0.14548 0.0
C7 C 0.17993 0.47621 0.13631 0.0
C8 C 0.20499 0.47936 0.12476 0.0
C9 C 0.20938 0.45377 0.12156 0.0
C10 C 0.22591 0.33478 0.09366 0.0
C11 C 0.1702 0.2858 0.13267 0.0
C12 C 0.26685 0.28224 0.12393 0.0
C13 C 0.25388 0.24803 0.12625 0.0
C14 C 0.22964 0.22663 0.1139 0.0
C15 C 0.21736 0.19445 0.11605 0.0
C16 C 0.229 0.18271 0.13053 0.0
C17 C 0.25337 0.20408 0.14281 0.0
C18 C 0.26569 0.23638 0.14067 0.0
C19 C 0.23002 0.33321 0.16747 0.0
O20 O 0.25961 0.39482 0.13682 0.0
O21 O 0.28803 0.36945 0.1311 0.0
O22 O 0.21158 0.39841 0.11219 0.0
O23 O 0.17878 0.37222 0.13575 0.0
O24 O 0.20005 0.33532 0.09545 0.0
O25 O 0.24254 0.34723 0.10854 0.0
O26 O 0.19538 0.28311 0.12975 0.0
O27 O 0.17165 0.31313 0.134 0.0
O28 O 0.27544 0.29951 0.1399 0.0
O29 O 0.2521 0.29049 0.11149 0.0
O30 O 0.24537 0.31837 0.16545 0.0
O31 O 0.22481 0.34013 0.15059 0.0
H32 H 0.14851 0.39953 0.14885 0.0
H33 H 0.14127 0.44418 0.15472 0.0
H34 H 0.22029 0.50117 0.11735 0.0
H35 H 0.22788 0.4566 0.11176 0.0
H36 H 0.2201 0.23463 0.10246 0.0
H37 H 0.19907 0.17878 0.10607 0.0
H38 H 0.26276 0.19585 0.15421 0.0
H39 H 0.28444 0.25224 0.15032 0.0
Ho40 Ho 0.86682 0.20838 0.62677 0.0
Ho41 Ho 0.93464 0.24031 0.63898 0.0
C42 C 0.9031 0.28231 0.63617 0.0
C43 C 0.80725 0.18557 0.62087 0.0
C44 C 0.77902 0.18815 0.6246 0.0
C45 C 0.76592 0.18404 0.64345 0.0
C46 C 0.7364 0.1812 0.646 0.0
C47 C 0.71928 0.18232 0.62977 0.0
C48 C 0.73305 0.18763 0.61105 0.0
C49 C 0.76248 0.19043 0.60852 0.0
C50 C 0.90907 0.22317 0.59716 0.0
C51 C 0.8947 0.16414 0.6334 0.0
C52 C 0.99372 0.25864 0.64187 0.0
C53 C 1.01288 0.24325 0.64121 0.0
C54 C 1.01106 0.22411 0.62534 0.0
C55 C 0.02972 0.21013 0.62499 0.0
C56 C 0.05034 0.21471 0.64057 0.0
C57 C 0.05182 0.23356 0.6565 0.0
C58 C 0.03339 0.24775 0.65677 0.0
C59 C 0.89508 0.22862 0.66924 0.0
O60 O 0.87626 0.25558 0.63714 0.0
O61 O 0.93008 0.28293 0.63383 0.0
O62 O 0.82886 0.20598 0.60923 0.0
O63 O 0.81885 0.17728 0.63539 0.0
O64 O 0.8823 0.19748 0.59776 0.0
O65 O 0.91138 0.2397 0.61176 0.0
O66 O 0.92261 0.18988 0.63359 0.0
O67 O 0.86877 0.16546 0.63289 0.0
O68 O 0.97533 0.25218 0.65705 0.0
O69 O 0.98028 0.25951 0.62553 0.0
O70 O 0.92237 0.25357 0.66753 0.0
O71 O 0.89036 0.21019 0.65498 0.0
H72 H 0.77797 0.18201 0.65617 0.0
H73 H 0.72677 0.17761 0.66067 0.0
H74 H 0.7205 0.18822 0.59817 0.0
H75 H 0.77175 0.19307 0.59379 0.0
H76 H 0.99528 0.21994 0.61318 0.0
H77 H 0.02783 0.19552 0.6126 0.0
H78 H 0.06771 0.23786 0.66862 0.0
H79 H 0.03525 0.2624 0.66915 0.0
Ho80 Ho 0.66959 0.8577 0.12613 0.0
Ho81 Ho 0.7094 0.93114 0.13398 0.0
C82 C 0.63428 0.89679 0.13559 0.0
C83 C 0.63229 0.79797 0.12278 0.0
C84 C 0.60178 0.76938 0.12636 0.0
C85 C 0.59103 0.7579 0.14535 0.0
C86 C 0.56471 0.72806 0.14795 0.0
C87 C 0.549 0.70908 0.13162 0.0
C88 C 0.55914 0.72123 0.1127 0.0
C89 C 0.58518 0.75098 0.11012 0.0
C90 C 0.69481 0.89681 0.09492 0.0
C91 C 0.74269 0.88776 0.13323 0.0
C92 C 0.74742 0.98939 0.12635 0.0
C93 C 0.78068 1.01116 0.13061 0.0
C94 C 0.79516 0.04177 0.12336 0.0
C95 C 0.82747 0.06166 0.1256 0.0
C96 C 0.84592 0.05118 0.13504 0.0
C97 C 0.83112 0.02057 0.1426 0.0
C98 C 0.79879 1.00077 0.14043 0.0
C99 C 0.69617 0.90014 0.1686 0.0
O100 O 0.63351 0.86956 0.13643 0.0
O101 O 0.66045 0.92375 0.1322 0.0
O102 O 0.6334 0.81829 0.11001 0.0
O103 O 0.65197 0.8109 0.13742 0.0
O104 O 0.69407 0.87029 0.09637 0.0
O105 O 0.68219 0.90068 0.10978 0.0
O106 O 0.74596 0.91603 0.13119 0.0
O107 O 0.71508 0.86201 0.13403 0.0
O108 O 0.72812 0.98007 0.14132 0.0
O109 O 0.74234 0.9665 0.11442 0.0
O110 O 0.71175 0.93042 0.167 0.0
O111 O 0.68882 0.88854 0.15157 0.0
H112 H 0.60351 0.77145 0.15816 0.0
H113 H 0.5575 0.71933 0.16272 0.0
H114 H 0.54727 0.70745 0.09983 0.0
H115 H 0.59311 0.75913 0.09533 0.0
H116 H 0.78161 0.05005 0.11553 0.0
H117 H 0.83813 0.08493 0.1194 0.0
H118 H 0.84454 1.01187 0.15014 0.0
H119 H 0.78801 0.97712 0.14606 0.0
Ho120 Ho 0.82589 0.66645 0.62511 0.0
Ho121 Ho 0.79164 0.70545 0.63244 0.0
C122 C 0.75135 0.63037 0.63438 0.0
C123 C 0.84921 0.62994 0.62198 0.0
C124 C 0.84757 0.59954 0.62526 0.0
C125 C 0.84701 0.58782 0.64415 0.0
C126 C 0.85062 0.56157 0.6466 0.0
C127 C 0.85527 0.5469 0.63023 0.0
C128 C 0.85462 0.55805 0.61138 0.0
C129 C 0.85081 0.58401 0.60895 0.0
C130 C 0.81161 0.69084 0.5936 0.0
C131 C 0.86837 0.73964 0.63145 0.0
C132 C 0.77079 0.7428 0.62451 0.0
C133 C 0.78204 0.77597 0.62879 0.0
C134 C 0.76696 0.79074 0.62037 0.0
C135 C 0.77942 0.82301 0.62262 0.0
C136 C 0.80733 0.84114 0.63325 0.0
C137 C 0.82207 0.82603 0.64195 0.0
C138 C 0.80953 0.79374 0.63973 0.0
C139 C 0.81042 0.69411 0.66735 0.0
O140 O 0.77798 0.62991 0.63519 0.0
O141 O 0.75029 0.65635 0.63101 0.0
O142 O 0.83048 0.63124 0.60888 0.0
O143 O 0.85493 0.64893 0.63687 0.0
O144 O 0.83771 0.69074 0.59531 0.0
O145 O 0.79506 0.67818 0.60843 0.0
O146 O 0.84309 0.74237 0.62915 0.0
O147 O 0.8669 0.7123 0.63276 0.0
O148 O 0.76079 0.72349 0.63946 0.0
O149 O 0.78891 0.738 0.61272 0.0
O150 O 0.79556 0.70943 0.66533 0.0
O151 O 0.8144 0.6859 0.65051 0.0
H152 H 0.84483 0.59948 0.65703 0.0
H153 H 0.85109 0.55356 0.66132 0.0
H154 H 0.85761 0.547 0.59846 0.0
H155 H 0.85159 0.59271 0.59424 0.0
H156 H 0.74597 0.77746 0.61164 0.0
H157 H 0.76768 0.83389 0.6155 0.0
H158 H 0.84337 0.83917 0.65041 0.0
H159 H 0.82165 0.78274 0.64621 0.0
Ho160 Ho 0.17147 0.81668 0.12686 0.0
Ho161 Ho 0.09801 0.78177 0.13444 0.0
C162 C 0.13301 0.74158 0.1352 0.0
C163 C 0.23145 0.84049 0.12377 0.0
C164 C 0.26028 0.83871 0.12647 0.0
C165 C 0.27165 0.83714 0.14513 0.0
C166 C 0.30169 0.84093 0.14717 0.0
C167 C 0.32097 0.84678 0.13064 0.0
C168 C 0.30894 0.84704 0.11199 0.0
C169 C 0.279 0.84305 0.10995 0.0
C170 C 0.13253 0.80354 0.09554 0.0
C171 C 0.14055 0.85849 0.13466 0.0
C172 C 0.03973 0.76187 0.12698 0.0
C173 C 0.01908 0.77525 0.12997 0.0
C174 C 0.0292 0.80652 0.12501 0.0
C175 C 1.00929 0.81878 0.12721 0.0
C176 C 0.97877 0.80018 0.13455 0.0
C177 C 0.96886 0.76899 0.1398 0.0
C178 C 0.9888 0.75666 0.13749 0.0
C179 C 0.12889 0.79924 0.16925 0.0
O180 O 0.16018 0.76826 0.13552 0.0
O181 O 0.10564 0.74038 0.13282 0.0
O182 O 0.21156 0.82301 0.11018 0.0
O183 O 0.21796 0.84472 0.13912 0.0
O184 O 0.15879 0.8296 0.09752 0.0
O185 O 0.12868 0.78637 0.11005 0.0
O186 O 0.11257 0.83332 0.13176 0.0
O187 O 0.16643 0.857 0.13585 0.0
O188 O 0.04904 0.75358 0.14274 0.0
O189 O 0.06218 0.77633 0.11414 0.0
O190 O 0.09862 0.78411 0.16749 0.0
O191 O 0.1406 0.80402 0.15225 0.0
H192 H 0.25786 0.8341 0.15816 0.0
H193 H 0.31034 0.84067 0.16174 0.0
H194 H 0.32298 0.851 0.09895 0.0
H195 H 0.27095 0.84464 0.09542 0.0
H196 H 0.05242 0.82148 0.11915 0.0
H197 H 1.01768 0.8427 0.12273 0.0
H198 H 0.94571 0.75408 0.14578 0.0
H199 H 0.98051 0.73254 0.14148 0.0
Ho200 Ho 0.36715 0.16862 0.62527 0.0
Ho201 Ho 0.32949 0.0953 0.63395 0.0
C202 C 0.40483 0.13119 0.63379 0.0
C203 C 0.40287 0.22854 0.62183 0.0
C204 C 0.43354 0.25736 0.62444 0.0
C205 C 0.44752 0.26795 0.64298 0.0
C206 C 0.47398 0.29786 0.64507 0.0
C207 C 0.48659 0.31775 0.62873 0.0
C208 C 0.47322 0.30649 0.61016 0.0
C209 C 0.44706 0.27669 0.60806 0.0
C210 C 0.34128 0.12844 0.59449 0.0
C211 C 0.29409 0.13686 0.63306 0.0
C212 C 0.29152 0.03666 0.62731 0.0
C213 C 0.25759 0.01586 0.63047 0.0
C214 C 0.23657 0.02683 0.62746 0.0
C215 C 0.20436 1.00679 0.6295 0.0
C216 C 0.19232 0.97526 0.63468 0.0
C217 C 0.2135 0.96448 0.63805 0.0
C218 C 0.24582 0.9846 0.63594 0.0
C219 C 0.34418 0.12772 0.66822 0.0
O220 O 0.40496 0.15816 0.63391 0.0
O221 O 0.37874 0.1036 0.63176 0.0
O222 O 0.40043 0.20856 0.60831 0.0
O223 O 0.38537 0.21517 0.63727 0.0
O224 O 0.3415 0.15473 0.5959 0.0
O225 O 0.35484 0.12533 0.60918 0.0
O226 O 0.29176 0.10892 0.63147 0.0
O227 O 0.32125 0.16316 0.63343 0.0
O228 O 0.3093 0.04678 0.64301 0.0
O229 O 0.29896 0.05857 0.61417 0.0
O230 O 0.32985 0.09741 0.66705 0.0
O231 O 0.34979 0.13852 0.65098 0.0
H232 H 0.43745 0.25363 0.6559 0.0
H233 H 0.48373 0.30592 0.65958 0.0
H234 H 0.48266 0.321 0.59724 0.0
H235 H 0.43661 0.26918 0.59364 0.0
H236 H 0.24494 0.0508 0.62313 0.0
H237 H 0.18886 0.01587 0.62648 0.0
H238 H 0.20512 0.94047 0.64233 0.0
H239 H 0.26159 0.97567 0.63839 0.0
Ho240 Ho 0.67114 0.81833 0.40625 0.0
Ho241 Ho 0.70986 0.78347 0.39889 0.0
C242 C 0.63508 0.74398 0.39665 0.0
C243 C 0.63391 0.84093 0.40881 0.0
C244 C 0.60501 0.84045 0.40218 0.0
C245 C 0.60727 0.86353 0.38915 0.0
C246 C 0.58158 0.86762 0.38579 0.0
C247 C 0.55298 0.84884 0.39545 0.0
C248 C 0.55024 0.82473 0.40776 0.0
C249 C 0.57599 0.82067 0.41115 0.0
C250 C 0.69633 0.80499 0.43782 0.0
C251 C 0.74398 0.86015 0.39803 0.0
C252 C 0.74784 0.76321 0.40641 0.0
C253 C 0.78169 0.77603 0.40306 0.0
C254 C 0.80279 0.80826 0.40502 0.0
C255 C 0.83495 0.82026 0.40283 0.0
C256 C 0.84684 0.80034 0.39852 0.0
C257 C 0.82556 0.76809 0.39617 0.0
C258 C 0.7933 0.75608 0.39845 0.0
C259 C 0.69548 0.79979 0.36406 0.0
O260 O 0.63525 0.77084 0.39496 0.0
O261 O 0.66062 0.74252 0.40095 0.0
O262 O 0.63135 0.81803 0.41983 0.0
O263 O 0.65772 0.85171 0.39672 0.0
O264 O 0.69549 0.83068 0.43613 0.0
O265 O 0.68351 0.78815 0.42309 0.0
O266 O 0.7469 0.83514 0.40105 0.0
O267 O 0.71653 0.85856 0.39704 0.0
O268 O 0.72974 0.75445 0.39084 0.0
O269 O 0.74078 0.7787 0.41905 0.0
O270 O 0.71041 0.78448 0.36576 0.0
O271 O 0.68931 0.80524 0.38108 0.0
H272 H 0.62935 0.87943 0.38219 0.0
H273 H 0.58439 0.88608 0.37598 0.0
H274 H 0.52867 0.81 0.41557 0.0
H275 H 0.5735 0.80297 0.42152 0.0
H276 H 0.7945 0.82419 0.40864 0.0
H277 H 0.85051 0.84509 0.40506 0.0
H278 H 0.83381 0.7521 0.39257 0.0
H279 H 0.77745 0.73116 0.3968 0.0
Ho280 Ho 0.86331 0.66516 0.90786 0.0
Ho281 Ho 0.93142 0.69966 0.89628 0.0
C282 C 0.89865 0.62591 0.89997 0.0
C283 C 0.80335 0.63003 0.91289 0.0
C284 C 0.77486 0.59889 0.91084 0.0
C285 C 0.76519 0.5833 0.89268 0.0
C286 C 0.73557 0.5564 0.89072 0.0
C287 C 0.71498 0.54476 0.90683 0.0
C288 C 0.72535 0.55976 0.92512 0.0
C289 C 0.75489 0.58647 0.92707 0.0
C290 C 0.90532 0.69249 0.93765 0.0
C291 C 0.893 0.73749 0.90163 0.0
C292 C 0.99079 0.73958 0.89424 0.0
C293 C 1.01054 0.77416 0.89523 0.0
C294 C 1.01249 0.79096 0.9124 0.0
C295 C 0.03147 0.82359 0.91298 0.0
C296 C 0.04874 0.84018 0.89639 0.0
C297 C 0.04662 0.82334 0.87923 0.0
C298 C 0.02786 0.79074 0.87869 0.0
C299 C 0.89205 0.67237 0.86576 0.0
O300 O 0.87195 0.62612 0.89938 0.0
O301 O 0.92598 0.65219 0.9014 0.0
O302 O 0.82401 0.63373 0.92621 0.0
O303 O 0.81608 0.64628 0.89698 0.0
O304 O 0.87908 0.69244 0.93658 0.0
O305 O 0.90732 0.67755 0.92336 0.0
O306 O 0.92055 0.73893 0.90136 0.0
O307 O 0.86664 0.71061 0.90182 0.0
O308 O 0.97278 0.72817 0.8788 0.0
O309 O 0.97675 0.72497 0.91038 0.0
O310 O 0.91891 0.67386 0.86779 0.0
O311 O 0.88769 0.68658 0.87987 0.0
H312 H 0.78001 0.59244 0.87985 0.0
H313 H 0.7283 0.54551 0.87641 0.0
H314 H 0.71039 0.55114 0.93791 0.0
H315 H 0.76169 0.59814 0.9412 0.0
H316 H 0.99938 0.77897 0.92541 0.0
H317 H 0.0324 0.83587 0.92638 0.0
H318 H 0.05994 0.83534 0.86629 0.0
H319 H 0.02695 0.77841 0.86531 0.0
Ho320 Ho 0.21274 0.85774 0.40815 0.0
Ho321 Ho 0.24765 0.93116 0.39948 0.0
C322 C 0.28777 0.89611 0.39916 0.0
C323 C 0.18902 0.79788 0.41154 0.0
C324 C 0.19048 0.76897 0.40846 0.0
C325 C 0.19249 0.75825 0.38968 0.0
C326 C 0.18865 0.72827 0.38724 0.0
C327 C 0.18232 0.7084 0.4035 0.0
C328 C 0.18154 0.71977 0.4223 0.0
C329 C 0.18558 0.74965 0.42472 0.0
C330 C 0.22675 0.89781 0.43895 0.0
C331 C 0.17074 0.88861 0.40039 0.0
C332 C 0.26783 0.98969 0.4062 0.0
C333 C 0.25447 1.01033 0.40327 0.0
C334 C 0.22262 0.99942 0.40695 0.0
C335 C 0.21039 0.01942 0.40518 0.0
C336 C 0.22966 0.05083 0.39961 0.0
C337 C 0.26145 0.0615 0.39555 0.0
C338 C 0.27371 0.04145 0.3974 0.0
C339 C 0.23002 0.89864 0.36525 0.0
O340 O 0.26105 0.86895 0.39912 0.0
O341 O 0.28903 0.92354 0.40129 0.0
O342 O 0.20752 0.818 0.42473 0.0
O343 O 0.18378 0.81109 0.39645 0.0
O344 O 0.20088 0.87123 0.43759 0.0
O345 O 0.24342 0.90122 0.42422 0.0
O346 O 0.19612 0.91675 0.40213 0.0
O347 O 0.17201 0.86258 0.3999 0.0
O348 O 0.27538 0.97976 0.39039 0.0
O349 O 0.25369 0.9677 0.41934 0.0
O350 O 0.24555 0.92897 0.36639 0.0
O351 O 0.22505 0.88789 0.38249 0.0
H352 H 0.19599 0.77253 0.37684 0.0
H353 H 0.18932 0.72016 0.37257 0.0
H354 H 0.17724 0.7053 0.43515 0.0
H355 H 0.18367 0.75724 0.43934 0.0
H356 H 0.2072 0.97555 0.41158 0.0
H357 H 0.18597 1.0104 0.40873 0.0
H358 H 0.27691 0.08539 0.39094 0.0
H359 H 0.29831 0.05034 0.39443 0.0
Ho360 Ho 0.36549 0.20499 0.90716 0.0
Ho361 Ho 0.32654 0.23952 0.90019 0.0
C362 C 0.40154 0.27944 0.89773 0.0
C363 C 0.40227 0.18178 0.90885 0.0
C364 C 0.43119 0.1823 0.90223 0.0
C365 C 0.42867 0.15849 0.88972 0.0
C366 C 0.45441 0.1545 0.88636 0.0
C367 C 0.48335 0.17414 0.89551 0.0
C368 C 0.48632 0.19896 0.90726 0.0
C369 C 0.46049 0.20291 0.91067 0.0
C370 C 0.34177 0.21938 0.93905 0.0
C371 C 0.29192 0.1628 0.90133 0.0
C372 C 0.2888 0.2599 0.90806 0.0
C373 C 0.25477 0.24684 0.90515 0.0
C374 C 0.23325 0.2159 0.91063 0.0
C375 C 0.2011 0.20392 0.90839 0.0
C376 C 0.18957 0.22246 0.90045 0.0
C377 C 0.21121 0.25331 0.8947 0.0
C378 C 0.24346 0.26537 0.89708 0.0
C379 C 0.33874 0.22162 0.86512 0.0
O380 O 0.40155 0.25263 0.8963 0.0
O381 O 0.37578 0.28073 0.90163 0.0
O382 O 0.40473 0.20397 0.92058 0.0
O383 O 0.37888 0.17209 0.89646 0.0
O384 O 0.34258 0.19365 0.93743 0.0
O385 O 0.3539 0.23571 0.92407 0.0
O386 O 0.28937 0.18818 0.90357 0.0
O387 O 0.31921 0.16414 0.89986 0.0
O388 O 0.30635 0.26832 0.89227 0.0
O389 O 0.29659 0.24506 0.92072 0.0
O390 O 0.32363 0.23669 0.86716 0.0
O391 O 0.34623 0.21704 0.88201 0.0
H392 H 0.40636 0.14197 0.88318 0.0
H393 H 0.4514 0.13547 0.87697 0.0
H394 H 0.50818 0.21439 0.91466 0.0
H395 H 0.4632 0.22125 0.9206 0.0
H396 H 0.24118 0.20093 0.91689 0.0
H397 H 0.18528 0.18028 0.91328 0.0
H398 H 0.20327 0.26814 0.88824 0.0
H399 H 0.25957 0.28923 0.89267 0.0
Ho400 Ho 0.17215 0.35953 0.40599 0.0
Ho401 Ho 0.09852 0.32025 0.39799 0.0
C402 C 0.13355 0.39554 0.39703 0.0
C403 C 0.23215 0.39578 0.40889 0.0
C404 C 0.26083 0.42649 0.40646 0.0
C405 C 0.26862 0.44337 0.3888 0.0
C406 C 0.29789 0.4707 0.38671 0.0
C407 C 0.31989 0.48148 0.40219 0.0
C408 C 0.31152 0.4646 0.4199 0.0
C409 C 0.2824 0.43758 0.42199 0.0
C410 C 0.1329 0.3353 0.4373 0.0
C411 C 0.14126 0.28625 0.39962 0.0
C412 C 0.04002 0.28233 0.40511 0.0
C413 C 1.0181 0.24932 0.40035 0.0
C414 C 0.98737 0.2348 0.40746 0.0
C415 C 0.96747 0.20257 0.40501 0.0
C416 C 0.97804 0.18424 0.39551 0.0
C417 C 1.00873 0.19911 0.388 0.0
C418 C 0.02856 0.23136 0.39039 0.0
C419 C 0.13 0.33304 0.3635 0.0
O420 O 0.16076 0.39621 0.39647 0.0
O421 O 0.10635 0.36939 0.40001 0.0
O422 O 0.2125 0.39299 0.4227 0.0
O423 O 0.21842 0.37864 0.39334 0.0
O424 O 0.15961 0.3363 0.43608 0.0
O425 O 0.129 0.34747 0.42221 0.0
O426 O 0.11313 0.28344 0.40142 0.0
O427 O 0.16725 0.31361 0.39864 0.0
O428 O 0.04971 0.30223 0.39047 0.0
O429 O 0.06269 0.28667 0.41702 0.0
O430 O 0.09968 0.318 0.36493 0.0
O431 O 0.14126 0.34006 0.38062 0.0
H432 H 0.25241 0.4352 0.37656 0.0
H433 H 0.30332 0.48324 0.37293 0.0
H434 H 0.32788 0.47159 0.43202 0.0
H435 H 0.27709 0.4247 0.43565 0.0
H436 H 0.97905 0.24823 0.4154 0.0
H437 H 0.94413 0.19185 0.41117 0.0
H438 H 1.0175 0.18579 0.38041 0.0
H439 H 0.05231 0.24218 0.38488 0.0
Ho440 Ho 0.8232 0.16592 0.90867 0.0
Ho441 Ho 0.78907 0.09249 0.90149 0.0
C442 C 0.74892 0.12725 0.89841 0.0
C443 C 0.84607 0.22585 0.91071 0.0
C444 C 0.84495 0.25393 0.90423 0.0
C445 C 0.8674 0.2747 0.89085 0.0
C446 C 0.87103 0.30428 0.88752 0.0
C447 C 0.85242 0.31392 0.89757 0.0
C448 C 0.82891 0.29255 0.91023 0.0
C449 C 0.82529 0.26294 0.91358 0.0
C450 C 0.8089 0.12776 0.94039 0.0
C451 C 0.86583 0.13536 0.90273 0.0
C452 C 0.76839 0.03426 0.9093 0.0
C453 C 0.78102 0.01314 0.90594 0.0
C454 C 0.81349 0.02493 0.90597 0.0
C455 C 0.82557 1.00486 0.90397 0.0
C456 C 0.80545 0.97244 0.9018 0.0
C457 C 0.77287 0.96075 0.90135 0.0
C458 C 0.7608 0.98094 0.90342 0.0
C459 C 0.80814 0.12254 0.86661 0.0
O460 O 0.77571 0.15422 0.89754 0.0
O461 O 0.74765 0.10016 0.90203 0.0
O462 O 0.82411 0.20587 0.92244 0.0
O463 O 0.85581 0.21241 0.89819 0.0
O464 O 0.83466 0.15435 0.93887 0.0
O465 O 0.79249 0.12346 0.9254 0.0
O466 O 0.8406 0.10728 0.90497 0.0
O467 O 0.86426 0.16115 0.90135 0.0
O468 O 0.75959 0.04347 0.89372 0.0
O469 O 0.78429 0.05703 0.92178 0.0
O470 O 0.79327 0.09235 0.86862 0.0
O471 O 0.81189 0.13476 0.88343 0.0
H472 H 0.88319 0.26868 0.88358 0.0
H473 H 0.88903 0.31993 0.87744 0.0
H474 H 0.81432 0.29925 0.91835 0.0
H475 H 0.80806 0.24773 0.9242 0.0
H476 H 0.8296 0.04964 0.908 0.0
H477 H 0.8507 0.01473 0.90471 0.0
H478 H 0.75668 0.93598 0.89943 0.0
H479 H 0.73567 0.97136 0.9033 0.0
H480 H 0.19303 0.91301 0.14445 0.0
H481 H 0.20101 0.96566 0.14407 0.0
H482 H 0.10463 0.92945 0.12738 0.0
H483 H 0.09618 0.87596 0.1277 0.0
H484 H 0.19014 0.99311 0.1092 0.0
H485 H 0.12149 0.99213 0.17439 0.0
H486 H 0.13517 0.96457 0.17168 0.0
H487 H 0.10313 0.9604 0.15702 0.0
C488 C 0.17329 0.91595 0.1408 0.0
C489 C 0.14394 0.89008 0.13595 0.0
C490 C 0.17798 0.9462 0.14063 0.0
C491 C 0.15347 0.95148 0.13573 0.0
C492 C 0.12381 0.92581 0.13138 0.0
H493 H 0.16769 0.13562 0.12784 0.0
H494 H 0.14733 0.07909 0.12847 0.0
C495 C 0.11904 0.89528 0.13153 0.0
C496 C 0.1601 0.98419 0.13415 0.0
H497 H 0.14996 0.0398 0.15742 0.0
C498 C 0.18114 1.00328 0.11964 0.0
C499 C 0.14819 0.99729 0.14771 0.0
C500 C 0.12583 0.97773 0.16369 0.0
C501 C 0.19117 0.03529 0.11856 0.0
C502 C 0.1804 0.04878 0.13266 0.0
C503 C 0.15841 0.02947 0.14675 0.0
C504 C 0.19248 0.08302 0.13325 0.0
C505 C 0.21325 0.0544 0.10231 0.0
C506 C 0.22454 0.10401 0.13618 0.0
C507 C 0.2363 0.13631 0.13569 0.0
C508 C 0.21621 0.14834 0.13236 0.0
C509 C 0.18392 0.12719 0.13008 0.0
C510 C 0.17218 0.09486 0.13058 0.0
H511 H 0.21204 0.03944 0.08975 0.0
H512 H 0.20794 0.07242 0.09687 0.0
H513 H 0.23761 0.06645 0.10799 0.0
H514 H 0.24056 0.09539 0.13863 0.0
H515 H 0.26127 0.15184 0.13739 0.0
H516 H 0.23266 0.09036 0.63913 0.0
H517 H 0.18644 0.0967 0.64147 0.0
H518 H 0.24473 0.19572 0.63125 0.0
H519 H 0.29056 0.18982 0.62927 0.0
H520 H 0.20618 0.1841 0.66203 0.0
H521 H 0.13886 0.11184 0.5979 0.0
H522 H 0.1495 0.09224 0.6159 0.0
H523 H 0.1795 0.12379 0.6019 0.0
C524 C 0.23554 0.11342 0.63727 0.0
C525 C 0.26542 0.13954 0.63406 0.0
C526 C 0.20907 0.117 0.63852 0.0
C527 C 0.21203 0.14669 0.63636 0.0
C528 C 0.24179 0.1726 0.63301 0.0
H529 H 0.0847 0.21253 0.60968 0.0
H530 H 0.12131 0.19272 0.60958 0.0
C531 C 0.26807 0.16912 0.6319 0.0
C532 C 0.18474 0.15164 0.63812 0.0
H533 H 0.11579 0.13551 0.61631 0.0
C534 C 0.18628 0.17327 0.65213 0.0
C535 C 0.15894 0.13777 0.62506 0.0
C536 C 0.15655 0.1153 0.60921 0.0
C537 C 0.1633 0.18204 0.65315 0.0
C538 C 0.13742 0.16814 0.64014 0.0
C539 C 0.13549 0.146 0.62637 0.0
C540 C 0.11318 0.17769 0.63989 0.0
C541 C 0.16779 0.20721 0.66758 0.0
C542 C 0.09579 0.17516 0.65681 0.0
C543 C 0.07505 0.18671 0.65694 0.0
C544 C 0.07086 0.20059 0.64006 0.0
C545 C 0.08727 0.20185 0.62289 0.0
C546 C 0.10823 0.19056 0.62282 0.0
H547 H 0.19241 0.22093 0.67277 0.0
H548 H 0.16115 0.22358 0.66094 0.0
H549 H 0.15271 0.19619 0.68058 0.0
H550 H 0.09857 0.1646 0.67001 0.0
H551 H 0.06232 0.18486 0.67029 0.0
H552 H 0.89141 0.03558 0.12924 0.0
H553 H 0.94833 0.07 0.13091 0.0
H554 H 0.93565 0.14799 0.14515 0.0
H555 H 0.87882 0.1137 0.14393 0.0
H556 H 0.98564 0.12417 0.10837 0.0
H557 H 0.99644 0.15195 0.1878 0.0
H558 H 0.96187 0.11935 0.17724 0.0
H559 H 0.96787 0.15832 0.17559 0.0
C560 C 0.90073 0.05997 0.13303 0.0
C561 C 0.88052 0.07185 0.13654 0.0
C562 C 0.93327 0.07963 0.13385 0.0
C563 C 0.94624 0.11146 0.13842 0.0
C564 C 0.92616 0.12339 0.14194 0.0
H565 H 0.11538 0.28349 0.14185 0.0
H566 H 0.06322 0.23808 0.14355 0.0
C567 C 0.89367 0.10381 0.14104 0.0
C568 C 0.98073 0.13263 0.13881 0.0
H569 H 0.04039 0.1856 0.16776 0.0
C570 C 0.99778 0.13726 0.12142 0.0
C571 C 0.99652 0.14952 0.15588 0.0
C572 C 0.97982 0.14436 0.17525 0.0
C573 C 0.02984 0.15971 0.12035 0.0
C574 C 0.04531 0.1776 0.13722 0.0
C575 C 0.02851 0.17192 0.15483 0.0
C576 C 0.07778 0.20461 0.13644 0.0
C577 C 0.04651 0.16531 0.10094 0.0
C578 C 0.10361 0.20095 0.13205 0.0
C579 C 0.13388 0.22716 0.131 0.0
C580 C 0.13872 0.25741 0.13434 0.0
C581 C 0.11273 0.2607 0.13905 0.0
C582 C 0.08274 0.23467 0.14011 0.0
H583 H 0.02999 0.15323 0.08862 0.0
H584 H 0.06014 0.19073 0.09767 0.0
H585 H 0.06316 0.15644 0.10169 0.0
H586 H 0.10038 0.17788 0.12946 0.0
H587 H 0.15334 0.22376 0.12741 0.0
H588 H 0.77711 0.87419 0.63941 0.0
H589 H 0.79983 0.93097 0.64058 0.0
H590 H 0.89196 0.94332 0.6324 0.0
H591 H 0.86933 0.88649 0.63064 0.0
H592 H 0.84543 0.9747 0.66655 0.0
H593 H 0.88627 0.99815 0.58902 0.0
H594 H 0.85857 0.95941 0.59765 0.0
H595 H 0.89939 0.97648 0.60346 0.0
C596 C 0.80218 0.88895 0.63768 0.0
C597 C 0.82134 0.87572 0.63481 0.0
C598 C 0.81516 0.92141 0.63848 0.0
C599 C 0.84754 0.94141 0.63632 0.0
C600 C 0.86686 0.92836 0.63379 0.0
H601 H 0.94131 0.14865 0.63175 0.0
H602 H 0.93467 0.09585 0.63363 0.0
C603 C 0.8539 0.89584 0.63302 0.0
C604 C 0.86078 0.97584 0.63683 0.0
H605 H 0.89526 0.04151 0.60827 0.0
C606 C 0.8566 0.98934 0.65387 0.0
C607 C 0.87561 0.99501 0.62032 0.0
C608 C 0.88012 0.98164 0.60149 0.0
C609 C 0.86597 0.02125 0.65465 0.0
C610 C 0.87946 0.0401 0.63787 0.0
C611 C 0.88498 0.027 0.62112 0.0
C612 C 0.88428 0.07222 0.6367 0.0
C613 C 0.86077 0.03444 0.67334 0.0
C614 C 0.85819 0.07628 0.63745 0.0
C615 C 0.86183 0.10608 0.63629 0.0
C616 C 0.89173 0.13272 0.6343 0.0
C617 C 0.91798 0.12867 0.63334 0.0
C618 C 0.91424 0.09856 0.63441 0.0
H619 H 0.85914 0.02004 0.68628 0.0
H620 H 0.87993 0.05884 0.67586 0.0
H621 H 0.83841 0.03458 0.67218 0.0
H622 H 0.83483 0.05626 0.63886 0.0
H623 H 0.841 0.10811 0.63704 0.0
H624 H 0.91555 0.77033 0.12723 0.0
H625 H 0.88059 0.79188 0.12939 0.0
H626 H 0.95794 0.88106 0.14712 0.0
H627 H 0.99308 0.85954 0.14565 0.0
H628 H 0.87304 0.8249 0.16536 0.0
H629 H 0.91433 0.89679 0.09729 0.0
H630 H 0.91907 0.86317 0.10093 0.0
H631 H 0.94291 0.89844 0.11448 0.0
C632 C 0.92516 0.7944 0.13187 0.0
C633 C 0.95725 0.81313 0.13626 0.0
C634 C 0.90515 0.80674 0.13294 0.0
C635 C 0.91677 0.83811 0.13822 0.0
C636 C 0.94863 0.85689 0.14276 0.0
H637 H 0.80515 0.93343 0.13644 0.0
H638 H 0.85032 0.92534 0.13942 0.0
C639 C 0.96867 0.84453 0.14183 0.0
C640 C 0.89525 0.85084 0.13918 0.0
H641 H 0.87192 0.89541 0.11396 0.0
C642 C 0.87297 0.84056 0.15425 0.0
C643 C 0.89554 0.87162 0.12482 0.0
C644 C 0.91911 0.88321 0.10836 0.0
C645 C 0.85033 0.84979 0.15502 0.0
C646 C 0.84939 0.86912 0.14001 0.0
C647 C 0.87259 0.88055 0.12542 0.0
C648 C 0.82265 0.87481 0.13813 0.0
C649 C 0.82737 0.83843 0.17184 0.0
C650 C 0.79233 0.84924 0.13594 0.0
C651 C 0.76672 0.85372 0.13431 0.0
C652 C 0.77069 0.884 0.13459 0.0
C653 C 0.80122 0.90981 0.13627 0.0
C654 C 0.82703 0.90522 0.13798 0.0
H655 H 0.83742 0.83353 0.18505 0.0
H656 H 0.82027 0.85581 0.17579 0.0
H657 H 0.80612 0.8163 0.16751 0.0
H658 H 0.78842 0.82562 0.13542 0.0
H659 H 0.74372 0.83321 0.13277 0.0
H660 H 0.88416 0.80172 0.63417 0.0
H661 H 0.93731 0.84772 0.63521 0.0
H662 H 0.97671 0.78735 0.63127 0.0
H663 H 0.92449 0.74172 0.63034 0.0
H664 H 0.99295 0.85278 0.66491 0.0
H665 H 1.01256 0.85859 0.58424 0.0
H666 H 0.97409 0.84365 0.59484 0.0
H667 H 0.99262 0.82036 0.59528 0.0
C668 C 0.90416 0.79829 0.63353 0.0
C669 C 0.89997 0.76797 0.63217 0.0
C670 C 0.93443 0.82455 0.63417 0.0
C671 C 0.96078 0.82077 0.63326 0.0
C672 C 0.95662 0.79067 0.63195 0.0
H673 H 0.15881 0.91421 0.62247 0.0
H674 H 0.10215 0.87937 0.62317 0.0
C675 C 0.92664 0.76459 0.63145 0.0
C676 C 0.99302 0.84786 0.63355 0.0
H677 H 0.05731 0.88715 0.60436 0.0
C678 C 1.00699 0.86087 0.65168 0.0
C679 C 1.01116 0.85789 0.61627 0.0
C680 C 0.99695 0.84462 0.59647 0.0
C681 C 0.03918 0.88276 0.65307 0.0
C682 C 0.05761 0.89215 0.6358 0.0
C683 C 0.04323 0.87989 0.6176 0.0
C684 C 0.09211 0.91331 0.63629 0.0
C685 C 0.05345 0.89436 0.6731 0.0
C686 C 0.1054 0.94399 0.64349 0.0
C687 C 0.1379 0.96389 0.64336 0.0
C688 C 0.15781 0.95362 0.63584 0.0
C689 C 0.14435 0.9228 0.62869 0.0
C690 C 0.11189 0.90292 0.6289 0.0
H691 H 0.03774 0.8795 0.68504 0.0
H692 H 0.07619 0.89502 0.67443 0.0
H693 H 0.05778 0.91848 0.67527 0.0
H694 H 0.09062 0.95273 0.64896 0.0
H695 H 0.14742 0.98736 0.64915 0.0
H696 H 0.15501 0.9348 0.39643 0.0
H697 H 0.10191 0.92768 0.39546 0.0
H698 H 0.06238 0.82811 0.40148 0.0
H699 H 0.11454 0.83467 0.40239 0.0
H700 H 0.04523 0.87477 0.36678 0.0
H701 H 0.02813 0.86706 0.44773 0.0
H702 H 0.06625 0.89 0.43656 0.0
H703 H 0.04791 0.84818 0.43722 0.0
C704 C 0.135 0.91142 0.39754 0.0
C705 C 0.13916 0.88535 0.3995 0.0
C706 C 0.10475 0.90741 0.39694 0.0
C707 C 0.07838 0.87737 0.39846 0.0
C708 C 0.08249 0.85146 0.40033 0.0
H709 H 0.88067 0.77386 0.41191 0.0
H710 H 0.93729 0.7956 0.4108 0.0
C711 C 0.11245 0.85535 0.40081 0.0
C712 C 0.04616 0.87224 0.39825 0.0
H713 H 0.98282 0.84956 0.428 0.0
C714 C 0.03162 0.86986 0.38014 0.0
C715 C 0.02857 0.86548 0.41571 0.0
C716 C 0.0434 0.86792 0.43549 0.0
C717 C 0.9994 0.85948 0.37897 0.0
C718 C 0.98152 0.8518 0.39646 0.0
C719 C 0.99648 0.85534 0.41461 0.0
C720 C 0.94701 0.83847 0.39627 0.0
C721 C 0.98452 0.85526 0.35901 0.0
C722 C 0.93356 0.85526 0.38842 0.0
C723 C 0.90106 0.84266 0.38877 0.0
C724 C 0.88133 0.81311 0.39718 0.0
C725 C 0.89497 0.79639 0.405 0.0
C726 C 0.92742 0.80894 0.40456 0.0
H727 H 0.9998 0.85506 0.34711 0.0
H728 H 0.96168 0.83313 0.35829 0.0
H729 H 0.98027 0.87493 0.35619 0.0
H730 H 0.9482 0.87831 0.38225 0.0
H731 H 0.89142 0.85613 0.38245 0.0
H732 H 0.05529 0.88306 0.86857 0.0
H733 H 0.09154 0.9396 0.86885 0.0
H734 H 0.12553 0.93223 0.92578 0.0
H735 H 0.08905 0.87574 0.9257 0.0
H736 H 0.11832 0.98381 0.92322 0.0
H737 H 0.18449 0.97818 0.85895 0.0
H738 H 0.14356 0.96295 0.85436 0.0
H739 H 0.15575 0.94363 0.87163 0.0
C740 C 0.07052 0.89348 0.88114 0.0
C741 C 0.06948 0.87482 0.89703 0.0
C742 C 0.09125 0.92582 0.88128 0.0
C743 C 0.11172 0.94014 0.89717 0.0
C744 C 0.11003 0.92173 0.91333 0.0
H745 H 0.28948 0.10649 0.90141 0.0
H746 H 0.24378 0.0545 0.90028 0.0
C747 C 0.08912 0.88943 0.91328 0.0
C748 C 0.13567 0.97405 0.89674 0.0
H749 H 0.20003 0.02824 0.87167 0.0
C750 C 0.13611 0.9936 0.9119 0.0
C751 C 0.15906 0.98677 0.88205 0.0
C752 C 0.16099 0.9668 0.86592 0.0
C753 C 0.15953 0.02536 0.91293 0.0
C754 C 0.18285 0.03803 0.89821 0.0
C755 C 0.182 0.0186 0.88286 0.0
C756 C 0.21017 0.07039 0.89937 0.0
C757 C 0.15985 0.04471 0.93019 0.0
C758 C 0.20665 0.09695 0.89925 0.0
C759 C 0.23305 0.12715 0.90002 0.0
C760 C 0.2634 0.13124 0.90072 0.0
C761 C 0.26661 0.10448 0.9008 0.0
C762 C 0.2404 0.07455 0.90014 0.0
H763 H 0.14426 0.02994 0.9422 0.0
H764 H 0.18394 0.05908 0.93611 0.0
H765 H 0.15164 0.06081 0.92532 0.0
H766 H 0.18358 0.09438 0.89832 0.0
H767 H 0.22969 0.14719 0.89984 0.0
H768 H 0.19546 0.28435 0.40027 0.0
H769 H 0.20206 0.23883 0.40003 0.0
H770 H 0.10201 0.17805 0.39762 0.0
H771 H 0.09485 0.22396 0.39795 0.0
H772 H 0.16751 0.18303 0.43003 0.0
H773 H 0.14839 0.15532 0.35009 0.0
H774 H 0.16287 0.19477 0.35885 0.0
H775 H 0.12313 0.16536 0.36355 0.0
C776 C 0.17467 0.26142 0.39961 0.0
C777 C 0.14454 0.25794 0.39911 0.0
C778 C 0.17859 0.23539 0.39951 0.0
C779 C 0.15258 0.20518 0.39875 0.0
C780 C 0.12238 0.2013 0.39813 0.0
H781 H 0.17177 0.03838 0.38647 0.0
H782 H 0.1498 0.07312 0.38706 0.0
C783 C 0.11835 0.22752 0.39836 0.0
C784 C 0.15779 0.17815 0.39904 0.0
H785 H 0.16783 0.12869 0.36879 0.0
C786 C 0.16712 0.17076 0.41672 0.0
C787 C 0.15718 0.16223 0.38166 0.0
C788 C 0.1474 0.16964 0.36236 0.0
C789 C 0.17673 0.1484 0.41739 0.0
C790 C 0.1779 0.13371 0.39979 0.0
C791 C 0.16722 0.14014 0.38224 0.0
C792 C 0.19132 0.11265 0.3992 0.0
C793 C 0.18569 0.1409 0.43697 0.0
C794 C 0.22222 0.12347 0.40543 0.0
C795 C 0.23476 0.10359 0.40532 0.0
C796 C 0.2168 0.07247 0.39876 0.0
C797 C 0.18612 0.06199 0.39197 0.0
C798 C 0.17356 0.08188 0.39217 0.0
H799 H 0.17414 0.14599 0.44928 0.0
H800 H 0.17933 0.11595 0.43779 0.0
H801 H 0.21137 0.15564 0.43905 0.0
H802 H 0.23669 0.14734 0.41046 0.0
H803 H 0.25833 0.11249 0.4108 0.0
H804 H 0.14378 0.16274 0.89045 0.0
H805 H 0.08715 0.14178 0.88889 0.0
H806 H 0.10057 0.23232 0.90433 0.0
H807 H 0.15702 0.25332 0.90659 0.0
H808 H 0.04689 0.14396 0.92085 0.0
H809 H 0.04635 0.20477 0.85252 0.0
H810 H 0.07827 0.19848 0.85904 0.0
H811 H 0.07468 0.22922 0.87062 0.0
C812 C 0.13474 0.17821 0.89368 0.0
C813 C 0.15514 0.20982 0.89864 0.0
C814 C 0.10236 0.16617 0.89267 0.0
C815 C 0.08976 0.18557 0.89632 0.0
C816 C 0.10992 0.21708 0.90118 0.0
H817 H 0.92172 0.18946 0.90527 0.0
H818 H 0.97402 0.19677 0.90294 0.0
C819 C 0.14224 0.22909 0.90235 0.0
C820 C 0.05549 0.17299 0.89546 0.0
H821 H 0.99978 0.18207 0.87161 0.0
C822 C 0.03638 0.15186 0.90994 0.0
C823 C 0.04197 0.18327 0.88114 0.0
C824 C 0.06126 0.20498 0.86481 0.0
C825 C 1.00432 0.14213 0.91116 0.0
C826 C 0.99105 0.15344 0.89728 0.0
C827 C 1.00997 0.17346 0.88227 0.0
C828 C 0.95859 0.14768 0.89916 0.0
C829 C 0.9853 0.1212 0.92785 0.0
C830 C 0.93228 0.11747 0.89787 0.0
C831 C 0.90193 0.11307 0.89928 0.0
C832 C 0.89751 0.13887 0.90184 0.0
C833 C 0.92404 0.16897 0.90318 0.0
C834 C 0.95411 0.17328 0.90186 0.0
H835 H 1.00028 0.11912 0.93923 0.0
H836 H 0.97107 0.13021 0.93487 0.0
H837 H 0.96901 0.09746 0.92205 0.0
H838 H 0.93517 0.09739 0.89547 0.0
H839 H 0.88207 0.08965 0.89801 0.0
H840 H 0.91544 0.15107 0.38669 0.0
H841 H 0.88124 0.09421 0.3858 0.0
H842 H 0.95976 0.08215 0.39969 0.0
H843 H 0.99404 0.13903 0.40107 0.0
H844 H 0.88655 0.04911 0.36194 0.0
H845 H 0.89364 0.02967 0.44181 0.0
H846 H 0.9053 0.06781 0.43185 0.0
H847 H 0.9302 0.05129 0.429 0.0
C848 C 0.92542 0.13635 0.38969 0.0
C849 C 0.95747 0.14965 0.39405 0.0
C850 C 0.90588 0.10386 0.38906 0.0
C851 C 0.91788 0.08396 0.39292 0.0
C852 C 0.94993 0.09708 0.39694 0.0
H853 H 0.80608 0.87819 0.40462 0.0
H854 H 0.85161 0.9312 0.40196 0.0
C855 C 0.96954 0.1296 0.39751 0.0
C856 C 0.89663 0.04953 0.39272 0.0
H857 H 0.86197 0.98531 0.42246 0.0
C858 C 0.88136 0.03511 0.37513 0.0
C859 C 0.89013 0.03125 0.40991 0.0
C860 C 0.90545 0.04568 0.42928 0.0
C861 C 0.8592 1.00304 0.37437 0.0
C862 C 0.85163 0.98501 0.39174 0.0
C863 C 0.86783 0.99915 0.40916 0.0
C864 C 0.82472 0.95252 0.39257 0.0
C865 C 0.84386 0.9888 0.35497 0.0
C866 C 0.79456 0.94699 0.38837 0.0
C867 C 0.7687 0.91697 0.38988 0.0
C868 C 0.77222 0.89159 0.39578 0.0
C869 C 0.80251 0.89708 0.39993 0.0
C870 C 0.82854 0.92737 0.39846 0.0
H871 H 0.85901 1.00229 0.34244 0.0
H872 H 0.83842 0.96416 0.35375 0.0
H873 H 0.82164 0.98919 0.35371 0.0
H874 H 0.79091 0.96609 0.38424 0.0
H875 H 0.74583 0.91382 0.38655 0.0
H876 H 0.84149 0.74192 0.90968 0.0
H877 H 0.83613 0.7882 0.90925 0.0
H878 H 0.93346 0.84515 0.8938 0.0
H879 H 0.93933 0.79842 0.89428 0.0
H880 H 0.87992 0.85054 0.93239 0.0
H881 H 0.87324 0.85723 0.85096 0.0
H882 H 0.86189 0.82043 0.86287 0.0
H883 H 0.90232 0.85024 0.86217 0.0
C884 C 0.86192 0.76419 0.90617 0.0
C885 C 0.89085 0.76639 0.90189 0.0
C886 C 0.85875 0.79065 0.906 0.0
C887 C 0.88431 0.81995 0.9014 0.0
C888 C 0.91343 0.82259 0.8973 0.0
H889 H 0.85849 0.98162 0.88272 0.0
H890 H 0.88162 0.9479 0.88308 0.0
C891 C 0.91675 0.79595 0.89763 0.0
C892 C 0.87963 0.84728 0.90089 0.0
H893 H 0.85944 0.88843 0.86981 0.0
C894 C 0.87599 0.85929 0.91872 0.0
C895 C 0.87457 0.85856 0.88304 0.0
C896 C 0.87812 0.84609 0.86358 0.0
C897 C 0.86638 0.88166 0.91919 0.0
C898 C 0.85937 0.89156 0.90135 0.0
C899 C 0.86452 0.88063 0.88348 0.0
C900 C 0.84527 0.912 0.90101 0.0
C901 C 0.86358 0.89422 0.93883 0.0
C902 C 0.81675 0.90273 0.91059 0.0
C903 C 0.80361 0.92207 0.9106 0.0
C904 C 0.81851 0.95101 0.90081 0.0
C905 C 0.84663 0.95979 0.89072 0.0
C906 C 0.85982 0.94045 0.8908 0.0
H907 H 0.87909 0.89249 0.94996 0.0
H908 H 0.86955 0.91903 0.93773 0.0
H909 H 0.83912 0.88019 0.94414 0.0
H910 H 0.80464 0.8805 0.91815 0.0
H911 H 0.78211 0.9146 0.91865 0.0
H912 H 0.0847 0.68035 0.13209 0.0
H913 H 0.08839 0.63264 0.13431 0.0
H914 H 0.18778 0.68876 0.14441 0.0
H915 H 0.1844 0.73605 0.14253 0.0
H916 H 0.12372 0.61504 0.1111 0.0
H917 H 0.16086 0.62566 0.18874 0.0
H918 H 0.14435 0.648 0.17863 0.0
H919 H 0.18505 0.66047 0.17493 0.0
C920 C 0.10726 0.6825 0.13499 0.0
C921 C 0.13418 0.71216 0.1372 0.0
C922 C 0.10935 0.65521 0.13622 0.0
C923 C 0.13829 0.65707 0.13988 0.0
C924 C 0.16507 0.68661 0.14206 0.0
H925 H 0.22119 0.53918 0.14096 0.0
H926 H 0.20923 0.58173 0.14191 0.0
C927 C 0.16306 0.71375 0.14082 0.0
C928 C 0.14118 0.62849 0.14056 0.0
H929 H 0.16939 0.59073 0.16866 0.0
C930 C 0.13327 0.60944 0.12378 0.0
C931 C 0.15376 0.62123 0.15709 0.0
C932 C 0.16121 0.63974 0.17594 0.0
C933 C 0.13874 0.58412 0.12281 0.0
C934 C 0.15212 0.57741 0.13916 0.0
C935 C 0.15937 0.59602 0.15609 0.0
C936 C 0.15916 0.55145 0.13887 0.0
C937 C 0.13123 0.56542 0.10405 0.0
C938 C 0.13498 0.52026 0.13715 0.0
C939 C 0.14173 0.49593 0.13658 0.0
C940 C 0.17286 0.50222 0.13779 0.0
C941 C 0.19701 0.5335 0.13979 0.0
C942 C 0.1902 0.55783 0.14044 0.0
H943 H 0.12768 0.5777 0.09152 0.0
H944 H 0.15025 0.56054 0.10025 0.0
H945 H 0.10936 0.54268 0.10606 0.0
H946 H 0.11082 0.51472 0.13619 0.0
H947 H 0.12255 0.4722 0.13479 0.0
H948 H 0.69149 0.21137 0.61096 0.0
H949 H 0.63708 0.19924 0.6133 0.0
H950 H 0.61839 0.12759 0.65592 0.0
H951 H 0.67266 0.13929 0.65354 0.0
H952 H 0.58244 0.14209 0.60535 0.0
H953 H 0.58465 0.17932 0.68263 0.0
H954 H 0.61991 0.19035 0.66886 0.0
H955 H 0.59786 0.15175 0.67904 0.0
C956 C 0.67585 0.193 0.62084 0.0
C957 C 0.68662 0.17639 0.6321 0.0
C958 C 0.64474 0.18615 0.62219 0.0
C959 C 0.62368 0.1627 0.63491 0.0
C960 C 0.63432 0.14619 0.64627 0.0
H961 H 0.41884 0.08414 0.62824 0.0
H962 H 0.4708 0.08884 0.6292 0.0
C963 C 0.66545 0.153 0.64493 0.0
C964 C 0.59045 0.15512 0.63587 0.0
H965 H 0.53565 0.15531 0.66646 0.0
C966 C 0.57215 0.14485 0.61873 0.0
C967 C 0.57709 0.15889 0.65331 0.0
C968 C 0.59588 0.17092 0.67199 0.0
C969 C 0.54098 0.13848 0.61851 0.0
C970 C 0.52758 0.14212 0.63596 0.0
C971 C 0.54581 0.15218 0.65314 0.0
C972 C 0.49564 0.13823 0.6363 0.0
C973 C 0.52299 0.12894 0.59943 0.0
C974 C 0.4922 0.16413 0.6405 0.0
C975 C 0.46269 0.16151 0.64002 0.0
C976 C 0.43571 0.13282 0.63543 0.0
C977 C 0.43905 0.10659 0.63177 0.0
C978 C 0.46877 0.10929 0.63219 0.0
H979 H 0.53851 0.13306 0.58662 0.0
H980 H 0.50538 0.10362 0.59993 0.0
H981 H 0.51034 0.14199 0.59716 0.0
H982 H 0.51252 0.18665 0.64377 0.0
H983 H 0.46117 0.18224 0.64306 0.0
H984 H 0.54065 0.65717 0.11204 0.0
H985 H 0.49733 0.60333 0.11502 0.0
H986 H 0.45558 0.63234 0.15984 0.0
H987 H 0.49892 0.6865 0.15688 0.0
H988 H 0.47416 0.56382 0.1516 0.0
H989 H 0.38728 0.58744 0.11497 0.0
H990 H 0.42899 0.61272 0.11199 0.0
H991 H 0.41042 0.61358 0.13442 0.0
C992 C 0.52219 0.65215 0.12248 0.0
C993 C 0.52306 0.6762 0.13409 0.0
C994 C 0.49758 0.62133 0.12426 0.0
C995 C 0.47316 0.6139 0.13753 0.0
C996 C 0.47414 0.63766 0.14941 0.0
H997 H 0.29307 0.4466 0.15418 0.0
H998 H 0.33937 0.49849 0.15604 0.0
C999 C 0.49895 0.66853 0.14777 0.0
C1000 C 0.44634 0.58139 0.13853 0.0
H1001 H 0.36906 0.5364 0.12655 0.0
C1002 C 0.45112 0.55773 0.14618 0.0
C1003 C 0.4164 0.57359 0.13141 0.0
C1004 C 0.41027 0.59802 0.12259 0.0
C1005 C 0.42653 0.52649 0.1472 0.0
C1006 C 0.39657 0.51856 0.13987 0.0
C1007 C 0.39194 0.54236 0.1322 0.0
C1008 C 0.36944 0.48596 0.14013 0.0
C1009 C 0.43276 0.50248 0.15658 0.0
C1010 C 0.37084 0.46125 0.13079 0.0
C1011 C 0.34431 0.43123 0.12991 0.0
C1012 C 0.31574 0.42551 0.13803 0.0
C1013 C 0.31462 0.45016 0.14766 0.0
C1014 C 0.34113 0.47994 0.14874 0.0
H1015 H 0.45341 0.51359 0.16651 0.0
H1016 H 0.41219 0.48513 0.1651 0.0
H1017 H 0.43773 0.48986 0.14493 0.0
H1018 H 0.39214 0.46538 0.12361 0.0
H1019 H 0.34587 0.41286 0.12221 0.0
H1020 H 0.90044 0.53981 0.61176 0.0
H1021 H 0.91065 0.49631 0.61449 0.0
H1022 H 0.83636 0.4519 0.65689 0.0
H1023 H 0.82586 0.49541 0.65419 0.0
H1024 H 0.92381 0.47051 0.65139 0.0
H1025 H 0.8165 0.38685 0.61026 0.0
H1026 H 0.83351 0.42873 0.60828 0.0
H1027 H 0.81185 0.40876 0.62981 0.0
C1028 C 0.88617 0.52074 0.62163 0.0
C1029 C 0.8621 0.52092 0.63262 0.0
C1030 C 0.89221 0.49603 0.62327 0.0
C1031 C 0.87414 0.47082 0.63577 0.0
C1032 C 0.85045 0.47109 0.64706 0.0
H1033 H 0.85668 0.28949 0.6522 0.0
H1034 H 0.85206 0.33628 0.65306 0.0
C1035 C 0.84457 0.496 0.64557 0.0
C1036 C 0.87959 0.44388 0.63657 0.0
H1037 H 0.84766 0.36736 0.62299 0.0
C1038 C 0.90721 0.4479 0.64521 0.0
C1039 C 0.85794 0.41453 0.62844 0.0
C1040 C 0.82832 0.40927 0.61853 0.0
C1041 C 0.91341 0.42305 0.64634 0.0
C1042 C 0.89177 0.39362 0.63811 0.0
C1043 C 0.86427 0.38983 0.62933 0.0
C1044 C 0.89645 0.36606 0.63882 0.0
C1045 C 0.9426 0.42835 0.65684 0.0
C1046 C 0.9232 0.36708 0.63073 0.0
C1047 C 0.92612 0.34022 0.63044 0.0
C1048 C 0.90206 0.31174 0.6379 0.0
C1049 C 0.87559 0.31097 0.6462 0.0
C1050 C 0.87288 0.33777 0.64671 0.0
H1051 H 0.95169 0.44869 0.66699 0.0
H1052 H 0.93817 0.40738 0.66535 0.0
H1053 H 0.9611 0.43329 0.64586 0.0
H1054 H 0.94141 0.38838 0.62412 0.0
H1055 H 0.94665 0.3415 0.62378 0.0
H1056 H 0.6189 0.94051 0.12341 0.0
H1057 H 0.56697 0.93597 0.12443 0.0
H1058 H 0.52944 0.84691 0.15349 0.0
H1059 H 0.5808 0.85107 0.15245 0.0
H1060 H 0.50995 0.88157 0.10704 0.0
H1061 H 0.49832 0.89803 0.18668 0.0
H1062 H 0.53585 0.91243 0.17487 0.0
H1063 H 0.5121 0.8716 0.18048 0.0
C1064 C 0.59969 0.92021 0.13029 0.0
C1065 C 0.60402 0.89614 0.13781 0.0
C1066 C 0.57004 0.91761 0.1308 0.0
C1067 C 0.54443 0.89121 0.13918 0.0
C1068 C 0.54893 0.86764 0.14717 0.0
H1069 H 0.34423 0.81677 0.15309 0.0
H1070 H 0.39871 0.82837 0.15513 0.0
C1071 C 0.57834 0.87002 0.14646 0.0
C1072 C 0.51246 0.88699 0.13843 0.0
H1073 H 0.45245 0.87947 0.16726 0.0
C1074 C 0.49745 0.88144 0.12016 0.0
C1075 C 0.49609 0.88634 0.15561 0.0
C1076 C 0.51138 0.89263 0.17555 0.0
C1077 C 0.4662 0.87451 0.11863 0.0
C1078 C 0.44977 0.87403 0.13582 0.0
C1079 C 0.46496 0.87984 0.15409 0.0
C1080 C 0.41687 0.86757 0.1351 0.0
C1081 C 0.45081 0.86664 0.09867 0.0
C1082 C 0.40899 0.88613 0.12355 0.0
C1083 C 0.37795 0.87938 0.12223 0.0
C1084 C 0.35406 0.85419 0.13269 0.0
C1085 C 0.36209 0.8363 0.14484 0.0
C1086 C 0.3932 0.84289 0.146 0.0
H1087 H 0.46296 0.85881 0.08836 0.0
H1088 H 0.42586 0.84797 0.09966 0.0
H1089 H 0.45184 0.88782 0.09234 0.0
H1090 H 0.42689 0.90591 0.1155 0.0
H1091 H 0.37267 0.89409 0.11311 0.0
H1092 H 0.69179 0.61498 0.62299 0.0
H1093 H 0.64444 0.56303 0.62399 0.0
H1094 H 0.69705 0.5252 0.65134 0.0
H1095 H 0.74423 0.57662 0.65036 0.0
H1096 H 0.64074 0.50681 0.60563 0.0
H1097 H 0.61628 0.493 0.6857 0.0
H1098 H 0.63937 0.53079 0.67424 0.0
H1099 H 0.6562 0.50652 0.67877 0.0
C1100 C 0.69314 0.5957 0.62949 0.0
C1101 C 0.72183 0.59999 0.63656 0.0
C1102 C 0.66611 0.56603 0.63 0.0
C1103 C 0.6672 0.54034 0.6379 0.0
C1104 C 0.69558 0.54477 0.64542 0.0
H1105 H 0.54107 0.3399 0.64999 0.0
H1106 H 0.58443 0.39414 0.65223 0.0
C1107 C 0.72259 0.57421 0.64473 0.0
C1108 C 0.63937 0.5084 0.63715 0.0
H1109 H 0.58802 0.44765 0.66593 0.0
C1110 C 0.62896 0.49394 0.61878 0.0
C1111 C 0.62442 0.49155 0.65435 0.0
C1112 C 0.63439 0.50623 0.67442 0.0
C1113 C 0.60443 0.46282 0.61716 0.0
C1114 C 0.58924 0.44593 0.63437 0.0
C1115 C 0.59959 0.46053 0.65275 0.0
C1116 C 0.56255 0.41317 0.63356 0.0
C1117 C 0.59582 0.44803 0.59703 0.0
C1118 C 0.53553 0.40588 0.62272 0.0
C1119 C 0.51095 0.37499 0.62131 0.0
C1120 C 0.51257 0.35066 0.63094 0.0
C1121 C 0.53914 0.35811 0.64239 0.0
C1122 C 0.56392 0.38907 0.64365 0.0
H1123 H 0.61532 0.46043 0.58642 0.0
H1124 H 0.58945 0.42307 0.59751 0.0
H1125 H 0.5754 0.44933 0.5914 0.0
H1126 H 0.53342 0.42411 0.61532 0.0
H1127 H 0.49049 0.37016 0.61275 0.0
H1128 H 0.29328 0.84424 0.39417 0.0
H1129 H 0.34071 0.84103 0.39206 0.0
H1130 H 0.39678 0.94136 0.39703 0.0
H1131 H 0.34901 0.94491 0.39953 0.0
H1132 H 0.38849 0.86608 0.36515 0.0
H1133 H 0.43327 0.91146 0.44006 0.0
H1134 H 0.39383 0.89977 0.43252 0.0
H1135 H 0.42594 0.93673 0.42479 0.0
C1136 C 0.3156 0.86578 0.39485 0.0
C1137 C 0.31718 0.8949 0.39715 0.0
C1138 C 0.34279 0.86383 0.39359 0.0
C1139 C 0.37235 0.89086 0.39464 0.0
C1140 C 0.37421 0.9201 0.39656 0.0
H1141 H 0.5569 0.90614 0.39542 0.0
H1142 H 0.51416 0.91761 0.39384 0.0
C1143 C 0.34687 0.92211 0.39786 0.0
C1144 C 0.40089 0.88788 0.39367 0.0
H1145 H 0.4642 0.89833 0.42028 0.0
C1146 C 0.40512 0.87327 0.37718 0.0
C1147 C 0.42259 0.89722 0.40936 0.0
C1148 C 0.41869 0.91194 0.42778 0.0
C1149 C 0.43025 0.86756 0.376 0.0
C1150 C 0.45155 0.87629 0.39187 0.0
C1151 C 0.4478 0.89158 0.40815 0.0
C1152 C 0.47748 0.86917 0.39205 0.0
C1153 C 0.43389 0.85237 0.35774 0.0
C1154 C 0.4711 0.83807 0.39165 0.0
C1155 C 0.49552 0.8314 0.39247 0.0
C1156 C 0.52687 0.85571 0.39372 0.0
C1157 C 0.53312 0.88684 0.39408 0.0
C1158 C 0.50869 0.89346 0.39334 0.0
H1159 H 0.42107 0.8548 0.34508 0.0
H1160 H 0.45895 0.86268 0.35372 0.0
H1161 H 0.4242 0.82703 0.36049 0.0
H1162 H 0.44716 0.81891 0.391 0.0
H1163 H 0.48985 0.8072 0.3921 0.0
H1164 H 0.66109 0.53906 0.92213 0.0
H1165 H 0.60766 0.49498 0.91905 0.0
H1166 H 0.64102 0.44618 0.88283 0.0
H1167 H 0.69478 0.49005 0.88611 0.0
H1168 H 0.57126 0.46703 0.88403 0.0
H1169 H 0.59134 0.3835 0.92742 0.0
H1170 H 0.61785 0.42523 0.92817 0.0
H1171 H 0.6183 0.40265 0.90761 0.0
C1172 C 0.65717 0.51883 0.91366 0.0
C1173 C 0.68235 0.51799 0.90455 0.0
C1174 C 0.62654 0.49376 0.91179 0.0
C1175 C 0.62035 0.46713 0.9009 0.0
C1176 C 0.64529 0.46633 0.89152 0.0
H1177 H 0.45517 0.28626 0.8816 0.0
H1178 H 0.50704 0.33274 0.88126 0.0
C1179 C 0.67598 0.49152 0.89329 0.0
C1180 C 0.58782 0.44019 0.89952 0.0
H1181 H 0.54189 0.36349 0.91233 0.0
C1182 C 0.56477 0.44437 0.89022 0.0
C1183 C 0.57939 0.41069 0.90765 0.0
C1184 C 0.60288 0.40513 0.91843 0.0
C1185 C 0.53365 0.41963 0.88845 0.0
C1186 C 0.52518 0.39009 0.89663 0.0
C1187 C 0.54829 0.38606 0.90602 0.0
C1188 C 0.49271 0.36276 0.89544 0.0
C1189 C 0.51041 0.42519 0.87738 0.0
C1190 C 0.46702 0.36405 0.90331 0.0
C1191 C 0.43701 0.33739 0.90335 0.0
C1192 C 0.43224 0.30879 0.89581 0.0
C1193 C 0.45791 0.3078 0.88762 0.0
C1194 C 0.4877 0.33442 0.88743 0.0
H1195 H 0.5223 0.44564 0.86741 0.0
H1196 H 0.49417 0.40435 0.86858 0.0
H1197 H 0.49637 0.43007 0.88802 0.0
H1198 H 0.4703 0.3854 0.90999 0.0
H1199 H 0.41786 0.3389 0.90995 0.0
H1200 H 0.21316 0.68638 0.38075 0.0
H1201 H 0.20199 0.63215 0.37781 0.0
H1202 H 0.12442 0.60198 0.41771 0.0
H1203 H 0.13527 0.65588 0.42065 0.0
H1204 H 0.19941 0.59303 0.41152 0.0
H1205 H 0.08807 0.54148 0.3692 0.0
H1206 H 0.1159 0.58298 0.36943 0.0
H1207 H 0.09092 0.56494 0.39019 0.0
C1208 C 0.19353 0.66813 0.38872 0.0
C1209 C 0.17521 0.67548 0.401 0.0
C1210 C 0.18723 0.6372 0.38707 0.0
C1211 C 0.16219 0.613 0.39739 0.0
C1212 C 0.14362 0.62021 0.40944 0.0
H1213 H 0.09084 0.41195 0.41006 0.0
H1214 H 0.09692 0.4645 0.40997 0.0
C1215 C 0.15006 0.65109 0.41124 0.0
C1216 C 0.1564 0.58046 0.39643 0.0
H1217 H 0.10358 0.50634 0.38121 0.0
C1218 C 0.17856 0.57409 0.40479 0.0
C1219 C 0.12894 0.55574 0.38793 0.0
C1220 C 0.1046 0.56147 0.37853 0.0
C1221 C 0.17391 0.54361 0.40507 0.0
C1222 C 0.14674 0.51887 0.39619 0.0
C1223 C 0.12442 0.52524 0.38795 0.0
C1224 C 0.1416 0.48649 0.39499 0.0
C1225 C 0.19784 0.53813 0.41537 0.0
C1226 C 0.16401 0.4811 0.38598 0.0
C1227 C 0.16074 0.45134 0.38618 0.0
C1228 C 0.13463 0.42601 0.39508 0.0
C1229 C 0.11122 0.43096 0.40311 0.0
C1230 C 0.11472 0.46099 0.4031 0.0
H1231 H 0.21139 0.55668 0.4264 0.0
H1232 H 0.18658 0.51511 0.42287 0.0
H1233 H 0.21466 0.53855 0.4044 0.0
H1234 H 0.18442 0.50009 0.37905 0.0
H1235 H 0.17898 0.44829 0.37955 0.0
H1236 H 0.74351 0.17855 0.89067 0.0
H1237 H 0.69619 0.18201 0.88873 0.0
H1238 H 0.63996 0.08262 0.89827 0.0
H1239 H 0.68763 0.0789 0.90067 0.0
H1240 H 0.6462 0.15494 0.86382 0.0
H1241 H 0.60772 0.11756 0.94059 0.0
H1242 H 0.64624 0.12772 0.93201 0.0
H1243 H 0.61308 0.09024 0.92606 0.0
C1244 C 0.72117 0.15726 0.89235 0.0
C1245 C 0.71953 0.1284 0.89598 0.0
C1246 C 0.69404 0.15935 0.89119 0.0
C1247 C 0.66448 0.13272 0.89365 0.0
C1248 C 0.66255 0.10365 0.89674 0.0
H1249 H 0.48004 0.11718 0.89691 0.0
H1250 H 0.523 0.10604 0.89522 0.0
C1251 C 0.68983 0.10151 0.89796 0.0
C1252 C 0.63604 0.13592 0.89306 0.0
H1253 H 0.57491 0.12826 0.92085 0.0
C1254 C 0.63056 0.14899 0.87628 0.0
C1255 C 0.61564 0.12825 0.90933 0.0
C1256 C 0.62099 0.11541 0.9281 0.0
C1257 C 0.60539 0.15469 0.87533 0.0
C1258 C 0.58532 0.14749 0.8917 0.0
C1259 C 0.59036 0.13381 0.90833 0.0
C1260 C 0.55925 0.1544 0.892 0.0
C1261 C 0.60035 0.16819 0.85676 0.0
C1262 C 0.56533 0.18535 0.89085 0.0
C1263 C 0.54077 0.19183 0.89175 0.0
C1264 C 0.5096 0.16746 0.89381 0.0
C1265 C 0.50366 0.13649 0.89494 0.0
C1266 C 0.52822 0.13006 0.89413 0.0
H1267 H 0.6125 0.16493 0.84403 0.0
H1268 H 0.57502 0.15725 0.85328 0.0
H1269 H 0.60984 0.19366 0.85881 0.0
H1270 H 0.58914 0.20457 0.88952 0.0
H1271 H 0.54619 0.21591 0.89079 0.0
H1272 H 0.35789 0.50036 0.3695 0.0
H1273 H 0.41145 0.54424 0.36676 0.0
H1274 H 0.40874 0.56864 0.42725 0.0
H1275 H 0.35471 0.52624 0.42976 0.0
H1276 H 0.43578 0.61922 0.40602 0.0
H1277 H 0.48909 0.54712 0.3869 0.0
H1278 H 0.4594 0.54253 0.36981 0.0
H1279 H 0.449 0.53014 0.39487 0.0
C1280 C 0.36847 0.51533 0.38215 0.0
C1281 C 0.35189 0.5094 0.39993 0.0
C1282 C 0.39938 0.54014 0.38065 0.0
C1283 C 0.41459 0.5593 0.39696 0.0
C1284 C 0.39777 0.55401 0.41451 0.0
H1285 H 0.61558 0.6862 0.41291 0.0
H1286 H 0.56229 0.64078 0.41245 0.0
C1287 C 0.36684 0.52951 0.41596 0.0
C1288 C 0.44775 0.58526 0.39582 0.0
H1289 H 0.5223 0.60232 0.38479 0.0
C1290 C 0.45466 0.61544 0.40141 0.0
C1291 C 0.47261 0.58037 0.39016 0.0
C1292 C 0.46727 0.54824 0.38529 0.0
C1293 C 0.48548 0.64079 0.40137 0.0
C1294 C 0.51017 0.6362 0.39488 0.0
C1295 C 0.50338 0.60597 0.38951 0.0
C1296 C 0.54312 0.66252 0.39377 0.0
C1297 C 0.49127 0.67206 0.40883 0.0
C1298 C 0.55043 0.68936 0.38281 0.0
C1299 C 0.58061 0.71534 0.38328 0.0
C1300 C 0.60445 0.71486 0.39432 0.0
C1301 C 0.59772 0.68727 0.40426 0.0
C1302 C 0.56726 0.66134 0.40404 0.0
H1303 H 0.4722 0.6694 0.41872 0.0
H1304 H 0.51381 0.68473 0.41691 0.0
H1305 H 0.49211 0.68661 0.3962 0.0
H1306 H 0.53257 0.69051 0.37422 0.0
H1307 H 0.58514 0.73607 0.3752 0.0
H1308 H 0.84629 0.56831 0.89726 0.0
H1309 H 0.84277 0.51747 0.89567 0.0
H1310 H 0.94342 0.56197 0.89801 0.0
H1311 H 0.94727 0.61344 0.89992 0.0
H1312 H 0.86655 0.49421 0.8679 0.0
H1313 H 0.91575 0.49678 0.94179 0.0
H1314 H 0.90349 0.52415 0.93461 0.0
H1315 H 0.94015 0.52915 0.92608 0.0
C1316 C 0.86781 0.5675 0.8975 0.0
C1317 C 0.89713 0.59512 0.89882 0.0
C1318 C 0.86569 0.53828 0.89654 0.0
C1319 C 0.89276 0.53581 0.89694 0.0
C1320 C 0.92216 0.56327 0.89804 0.0
H1321 H 0.90948 0.36772 0.89672 0.0
H1322 H 0.92037 0.42172 0.8952 0.0
C1323 C 0.92434 0.59269 0.89903 0.0
C1324 C 0.88972 0.50431 0.89598 0.0
H1325 H 0.9019 0.45235 0.92211 0.0
C1326 C 0.87439 0.4851 0.87972 0.0
C1327 C 0.89995 0.49243 0.91141 0.0
C1328 C 0.91553 0.51152 0.92956 0.0
C1329 C 0.86886 0.45434 0.87852 0.0
C1330 C 0.87849 0.44224 0.89413 0.0
C1331 C 0.89445 0.46165 0.91018 0.0
C1332 C 0.87169 0.40932 0.89428 0.0
C1333 C 0.85294 0.43512 0.86048 0.0
C1334 C 0.84067 0.38433 0.89435 0.0
C1335 C 0.83433 0.35337 0.89512 0.0
C1336 C 0.85891 0.34674 0.89587 0.0
C1337 C 0.88996 0.37189 0.89577 0.0
C1338 C 0.89626 0.40282 0.89507 0.0
H1339 H 0.8547 0.45011 0.84784 0.0
H1340 H 0.86323 0.4205 0.85619 0.0
H1341 H 0.82774 0.41933 0.86367 0.0
H1342 H 0.82131 0.3888 0.89409 0.0
H1343 H 0.81017 0.33461 0.89511 0.0
H1344 H 0.19096 0.34898 0.3546 0.0
H1345 H 0.21412 0.35787 0.32141 0.0
H1346 H 0.12864 0.34648 0.29659 0.0
H1347 H 0.10559 0.33734 0.3292 0.0
H1348 H 0.18435 0.31118 0.28974 0.0
H1349 H 0.19858 0.4262 0.26911 0.0
H1350 H 0.19639 0.41399 0.29435 0.0
H1351 H 0.1614 0.39921 0.27982 0.0
C1352 C 0.1775 0.34903 0.34205 0.0
C1353 C 0.14652 0.34245 0.34444 0.0
C1354 C 0.19064 0.35403 0.32314 0.0
C1355 C 0.1732 0.35324 0.30654 0.0
C1356 C 0.14274 0.34778 0.30914 0.0
H1357 H 0.1824 0.34422 0.17859 0.0
H1358 H 0.1695 0.35135 0.21258 0.0
C1359 C 0.12954 0.34234 0.32783 0.0
C1360 C 0.18502 0.35474 0.28626 0.0
H1361 H 0.20057 0.39496 0.243 0.0
C1362 C 0.18839 0.32973 0.27959 0.0
C1363 C 0.18951 0.37858 0.27292 0.0
C1364 C 0.18654 0.40619 0.27939 0.0
C1365 C 0.19538 0.32748 0.25987 0.0
C1366 C 0.2001 0.35143 0.24649 0.0
C1367 C 0.19694 0.37661 0.25319 0.0
C1368 C 0.20928 0.3509 0.2257 0.0
C1369 C 0.19651 0.29879 0.25345 0.0
C1370 C 0.2365 0.3497 0.22172 0.0
C1371 C 0.24352 0.34525 0.20258 0.0
C1372 C 0.22395 0.34267 0.18684 0.0
C1373 C 0.19785 0.34615 0.19049 0.0
C1374 C 0.19049 0.35014 0.20987 0.0
H1375 H 0.18319 0.27884 0.26359 0.0
H1376 H 0.18687 0.2914 0.23841 0.0
H1377 H 0.2212 0.30415 0.25344 0.0
H1378 H 0.2519 0.3512 0.23353 0.0
H1379 H 0.26405 0.34309 0.20018 0.0
H1380 H 0.85555 0.16932 0.68313 0.0
H1381 H 0.83841 0.15484 0.71731 0.0
H1382 H 0.88388 0.25241 0.73329 0.0
H1383 H 0.90089 0.26692 0.69935 0.0
H1384 H 0.88249 0.17304 0.74879 0.0
H1385 H 0.79874 0.21538 0.76142 0.0
H1386 H 0.80875 0.20849 0.73713 0.0
H1387 H 0.83534 0.24323 0.75044 0.0
C1388 C 0.86114 0.18761 0.69385 0.0
C1389 C 0.87961 0.21923 0.68862 0.0
C1390 C 0.85149 0.17935 0.71338 0.0
C1391 C 0.85971 0.20256 0.72786 0.0
C1392 C 0.87682 0.23411 0.72238 0.0
H1393 H 0.83998 0.18595 0.85754 0.0
H1394 H 0.85479 0.20898 0.82432 0.0
C1395 C 0.88664 0.24235 0.70297 0.0
C1396 C 0.85332 0.19395 0.74895 0.0
H1397 H 0.81461 0.19828 0.78942 0.0
C1398 C 0.86758 0.17851 0.75764 0.0
C1399 C 0.8344 0.20168 0.76061 0.0
C1400 C 0.81819 0.2179 0.75195 0.0
C1401 C 0.86322 0.17028 0.77757 0.0
C1402 C 0.84352 0.17709 0.78912 0.0
C1403 C 0.82983 0.19324 0.78059 0.0
C1404 C 0.83421 0.16432 0.80929 0.0
C1405 C 0.8797 0.15423 0.78612 0.0
C1406 C 0.81733 0.13184 0.81176 0.0
C1407 C 0.80908 0.11889 0.83043 0.0
C1408 C 0.81723 0.13802 0.84722 0.0
C1409 C 0.83356 0.17069 0.84486 0.0
C1410 C 0.84193 0.18378 0.82594 0.0
H1411 H 0.90075 0.15924 0.77744 0.0
H1412 H 0.8869 0.1616 0.80156 0.0
H1413 H 0.86352 0.12855 0.78592 0.0
H1414 H 0.8106 0.11637 0.79915 0.0
H1415 H 0.79627 0.09363 0.83167 0.0
H1416 H 0.69959 0.9266 0.20369 0.0
H1417 H 0.69007 0.90295 0.23611 0.0
H1418 H 0.6639 0.81365 0.20984 0.0
H1419 H 0.67336 0.83749 0.17687 0.0
H1420 H 0.63469 0.84929 0.25311 0.0
H1421 H 0.7396 0.83521 0.24781 0.0
H1422 H 0.73365 0.86057 0.23154 0.0
H1423 H 0.71117 0.81896 0.22833 0.0
C1424 C 0.69153 0.90182 0.20472 0.0
C1425 C 0.68743 0.8839 0.18775 0.0
C1426 C 0.68595 0.88833 0.2233 0.0
C1427 C 0.67647 0.85664 0.22543 0.0
C1428 C 0.6714 0.83826 0.2085 0.0
H1429 H 0.68232 0.76414 0.33181 0.0
H1430 H 0.67264 0.77549 0.29863 0.0
C1431 C 0.67671 0.85179 0.18972 0.0
C1432 C 0.67413 0.844 0.24553 0.0
H1433 H 0.71294 0.82265 0.27778 0.0
C1434 C 0.65152 0.84305 0.2585 0.0
C1435 C 0.69633 0.83628 0.25257 0.0
C1436 C 0.72175 0.83791 0.23946 0.0
C1437 C 0.65045 0.83442 0.27831 0.0
C1438 C 0.67315 0.82737 0.28547 0.0
C1439 C 0.6955 0.82803 0.27237 0.0
C1440 C 0.6743 0.81881 0.30634 0.0
C1441 C 0.62482 0.83259 0.29126 0.0
C1442 C 0.67751 0.83886 0.32205 0.0
C1443 C 0.68245 0.83199 0.34132 0.0
C1444 C 0.68495 0.80537 0.34497 0.0
C1445 C 0.68064 0.78493 0.32939 0.0
C1446 C 0.67516 0.79143 0.31037 0.0
H1447 H 0.60443 0.82938 0.28248 0.0
H1448 H 0.61669 0.81306 0.3019 0.0
H1449 H 0.63392 0.85478 0.29962 0.0
H1450 H 0.67762 0.8605 0.31933 0.0
H1451 H 0.68607 0.84827 0.35307 0.0
H1452 H 0.79895 0.71147 0.70228 0.0
H1453 H 0.81239 0.70216 0.73488 0.0
H1454 H 0.85461 0.65191 0.70987 0.0
H1455 H 0.84086 0.66118 0.67656 0.0
H1456 H 0.81066 0.62331 0.74551 0.0
H1457 H 0.90501 0.74647 0.75603 0.0
H1458 H 0.86917 0.74192 0.74617 0.0
H1459 H 0.89152 0.72923 0.73204 0.0
C1460 C 0.81113 0.69842 0.70357 0.0
C1461 C 0.81907 0.68726 0.68679 0.0
C1462 C 0.81881 0.69315 0.72229 0.0
C1463 C 0.83478 0.67668 0.72483 0.0
C1464 C 0.84235 0.66482 0.70819 0.0
H1465 H 0.89565 0.63755 0.83629 0.0
H1466 H 0.87951 0.63524 0.80208 0.0
C1467 C 0.83462 0.67018 0.68922 0.0
C1468 C 0.84359 0.67275 0.74505 0.0
H1469 H 0.88558 0.7154 0.78485 0.0
C1470 C 0.82742 0.64328 0.75406 0.0
C1471 C 0.86521 0.69892 0.75622 0.0
C1472 C 0.88397 0.73092 0.74713 0.0
C1473 C 0.83157 0.63958 0.77415 0.0
C1474 C 0.85252 0.66599 0.78543 0.0
C1475 C 0.8692 0.69525 0.77627 0.0
C1476 C 0.85831 0.66386 0.80666 0.0
C1477 C 0.81276 0.60771 0.78337 0.0
C1478 C 0.85137 0.68039 0.82074 0.0
C1479 C 0.86041 0.68157 0.84041 0.0
C1480 C 0.87703 0.6667 0.8462 0.0
C1481 C 0.88282 0.6492 0.83224 0.0
C1482 C 0.87352 0.64776 0.81269 0.0
H1483 H 0.793 0.5913 0.77384 0.0
H1484 H 0.82819 0.5977 0.78588 0.0
H1485 H 0.80331 0.60945 0.79781 0.0
H1486 H 0.83978 0.69313 0.81638 0.0
H1487 H 0.85586 0.69543 0.85081 0.0
H1488 H 0.10195 0.77645 0.20422 0.0
H1489 H 0.12522 0.79032 0.23678 0.0
H1490 H 0.2152 0.85293 0.21117 0.0
H1491 H 0.19167 0.83892 0.17803 0.0
H1492 H 0.17625 0.78694 0.25441 0.0
H1493 H 0.19704 0.90836 0.24909 0.0
H1494 H 0.17166 0.87786 0.23224 0.0
H1495 H 0.21336 0.89572 0.22998 0.0
C1496 C 0.12679 0.79304 0.20541 0.0
C1497 C 0.14497 0.80679 0.18854 0.0
C1498 C 0.14007 0.80082 0.2241 0.0
C1499 C 0.17186 0.82281 0.22649 0.0
C1500 C 0.19049 0.83607 0.20966 0.0
H1501 H 0.26676 0.91855 0.33342 0.0
H1502 H 0.25474 0.89725 0.30026 0.0
C1503 C 0.17714 0.82802 0.19077 0.0
C1504 C 0.18441 0.83269 0.24673 0.0
H1505 H 0.20878 0.89341 0.27905 0.0
C1506 C 0.18373 0.81033 0.25979 0.0
C1507 C 0.19378 0.86306 0.25379 0.0
C1508 C 0.19388 0.88769 0.24067 0.0
C1509 C 0.19232 0.81759 0.27966 0.0
C1510 C 0.2011 0.84782 0.28682 0.0
C1511 C 0.20208 0.87021 0.27365 0.0
C1512 C 0.20987 0.85733 0.30775 0.0
C1513 C 0.19226 0.79292 0.2927 0.0
C1514 C 0.18917 0.84145 0.32337 0.0
C1515 C 0.1964 0.8534 0.34264 0.0
C1516 C 0.22409 0.88169 0.3464 0.0
C1517 C 0.24518 0.89671 0.33093 0.0
C1518 C 0.23828 0.8846 0.31192 0.0
H1519 H 0.19411 0.77487 0.284 0.0
H1520 H 0.21186 0.80341 0.30342 0.0
H1521 H 0.16993 0.78103 0.30098 0.0
H1522 H 0.16679 0.82071 0.32055 0.0
H1523 H 0.17959 0.84164 0.35427 0.0
H1524 H 0.36222 0.18258 0.85565 0.0
H1525 H 0.37242 0.17008 0.82226 0.0
H1526 H 0.34444 0.23275 0.79773 0.0
H1527 H 0.33418 0.24497 0.83048 0.0
H1528 H 0.3258 0.14471 0.79101 0.0
H1529 H 0.42776 0.25828 0.7694 0.0
H1530 H 0.41672 0.2476 0.79472 0.0
H1531 H 0.39609 0.26147 0.77986 0.0
C1532 C 0.35868 0.19389 0.8431 0.0
C1533 C 0.3474 0.21472 0.84568 0.0
C1534 C 0.36448 0.18678 0.82407 0.0
C1535 C 0.35968 0.20091 0.80748 0.0
C1536 C 0.34897 0.22206 0.81023 0.0
H1537 H 0.34601 0.18212 0.68011 0.0
H1538 H 0.35279 0.20158 0.71423 0.0
C1539 C 0.34288 0.22883 0.82903 0.0
C1540 C 0.36315 0.19205 0.78712 0.0
H1541 H 0.39964 0.22256 0.7433 0.0
C1542 C 0.3423 0.16156 0.78065 0.0
C1543 C 0.38427 0.21425 0.77351 0.0
C1544 C 0.40769 0.24718 0.77972 0.0
C1545 C 0.34125 0.15291 0.76087 0.0
C1546 C 0.3623 0.17513 0.74718 0.0
C1547 C 0.38349 0.20554 0.75371 0.0
C1548 C 0.36265 0.16677 0.72615 0.0
C1549 C 0.31666 0.12031 0.7547 0.0
C1550 C 0.36753 0.14194 0.72136 0.0
C1551 C 0.36333 0.13075 0.70213 0.0
C1552 C 0.35499 0.14464 0.68709 0.0
C1553 C 0.35265 0.17118 0.69144 0.0
C1554 C 0.35636 0.18214 0.71091 0.0
H1555 H 0.297 0.10964 0.76534 0.0
H1556 H 0.30702 0.12039 0.73999 0.0
H1557 H 0.32735 0.10522 0.75402 0.0
H1558 H 0.37334 0.1303 0.73267 0.0
H1559 H 0.36552 0.11038 0.69914 0.0
H1560 H 0.30137 0.18194 0.96787 0.0
H1561 H 0.27708 0.19733 0.99386 0.0
H1562 H 0.32748 0.29263 0.97336 0.0
H1563 H 0.35125 0.27731 0.94737 0.0
H1564 H 0.30158 0.23838 0.02428 0.0
H1565 H 0.23918 0.27744 0.97478 0.0
H1566 H 0.25667 0.25515 0.96614 0.0
H1567 H 0.28029 0.29681 0.96956 0.0
C1568 C 0.30721 0.20614 0.96896 0.0
C1569 C 0.32791 0.22833 0.95543 0.0
C1570 C 0.29328 0.21493 0.98378 0.0
C1571 C 0.29978 0.24606 0.98535 0.0
C1572 C 0.32126 0.26833 0.97218 0.0
H1573 H 0.284 0.34501 0.085 0.0
H1574 H 0.2993 0.32125 0.05898 0.0
C1575 C 0.33505 0.25957 0.95739 0.0
C1576 C 0.2849 0.25564 1.00096 0.0
H1577 H 0.24472 0.29465 1.0083 0.0
C1578 C 0.28889 0.25041 0.02075 0.0
C1579 C 0.26769 0.27078 0.99648 0.0
C1580 C 0.26038 0.27508 0.97558 0.0
C1581 C 0.27746 0.26109 0.03609 0.0
C1582 C 0.26215 0.27813 0.03161 0.0
C1583 C 0.25688 0.28209 1.01182 0.0
C1584 C 0.25252 0.29296 0.04722 0.0
C1585 C 0.2818 0.25388 0.05699 0.0
C1586 C 0.22127 0.28607 0.04893 0.0
C1587 C 0.21247 0.29994 0.06379 0.0
C1588 C 0.2348 0.32099 0.0772 0.0
C1589 C 0.26616 0.32854 0.07507 0.0
C1590 C 0.27491 0.31476 0.06027 0.0
H1591 H 0.28449 0.23288 0.05778 0.0
H1592 H 0.30339 0.27393 0.06313 0.0
H1593 H 0.26173 0.24991 0.06635 0.0
H1594 H 0.20358 0.26959 0.03893 0.0
H1595 H 0.18817 0.29379 0.065 0.0
H1596 H 0.07804 0.33539 0.44132 0.0
H1597 H 0.04059 0.31454 0.46824 0.0
H1598 H 0.10093 0.28907 0.49905 0.0
H1599 H 0.13757 0.30799 0.47128 0.0
H1600 H 0.04361 0.24488 0.50385 0.0
H1601 H 0.0452 0.35548 0.51867 0.0
H1602 H 0.03305 0.34297 0.49393 0.0
H1603 H 0.07204 0.35333 0.50171 0.0
C1604 C 0.08325 0.32509 0.45375 0.0
C1605 C 0.11069 0.32311 0.45407 0.0
C1606 C 0.06195 0.31355 0.46933 0.0
C1607 C 0.06809 0.30087 0.48607 0.0
C1608 C 0.09556 0.29884 0.48641 0.0
H1609 H 0.96426 0.27814 0.59422 0.0
H1610 H 1.00343 0.29491 0.56831 0.0
C1611 C 0.1166 0.30978 0.47057 0.0
C1612 C 0.04568 0.28945 0.503 0.0
H1613 H 1.00317 0.30959 0.53313 0.0
C1614 C 0.03501 0.25918 0.51036 0.0
C1615 C 0.0347 0.30813 0.5119 0.0
C1616 C 0.04713 0.34188 0.50628 0.0
C1617 C 1.01344 0.24696 0.52599 0.0
C1618 C 1.00105 0.26497 0.53408 0.0
C1619 C 1.01212 0.29541 0.52689 0.0
C1620 C 0.97744 0.25341 0.55037 0.0
C1621 C 1.00499 0.21521 0.53397 0.0
C1622 C 0.94941 0.2244 0.54919 0.0
C1623 C 0.92732 0.21427 0.56445 0.0
C1624 C 0.93239 0.23327 0.58101 0.0
C1625 C 0.95995 0.26256 0.58193 0.0
C1626 C 0.98229 0.27235 0.56695 0.0
H1627 H 0.02365 0.20946 0.5309 0.0
H1628 H 1.00102 0.21393 0.55006 0.0
H1629 H 0.98325 0.19711 0.52672 0.0
H1630 H 0.94432 0.2097 0.53635 0.0
H1631 H 0.9061 0.19177 0.56317 0.0
H1632 H 0.68649 0.94617 0.08766 0.0
H1633 H 0.70912 0.98474 0.06138 0.0
H1634 H 0.75779 0.93881 0.03945 0.0
H1635 H 0.73439 0.8995 0.06561 0.0
H1636 H 0.76843 0.02675 0.053 0.0
H1637 H 0.71683 0.94527 0.98994 0.0
H1638 H 0.70446 0.93337 1.0149 0.0
H1639 H 0.74007 0.9362 1.00595 0.0
C1640 C 0.70189 0.94416 0.07717 0.0
C1641 C 0.7086 0.91973 0.07866 0.0
C1642 C 0.71491 0.96632 0.06216 0.0
C1643 C 0.73494 0.96464 0.04819 0.0
C1644 C 0.74189 0.94032 0.04973 0.0
H1645 H 0.84653 0.12484 0.96908 0.0
H1646 H 0.8311 0.08565 0.99526 0.0
C1647 C 0.72863 0.91793 0.06473 0.0
C1648 C 0.74856 0.98865 0.03228 0.0
H1649 H 0.75229 0.9982 0.98244 0.0
C1650 C 0.76497 0.02048 0.03757 0.0
C1651 C 0.74385 0.9806 1.0121 0.0
C1652 C 0.72511 0.94704 1.00532 0.0
C1653 C 0.77635 0.04434 0.02335 0.0
C1654 C 0.77195 0.0363 1.00316 0.0
C1655 C 0.75591 1.00447 0.99787 0.0
C1656 C 0.78197 0.06033 0.9873 0.0
C1657 C 0.7919 0.07792 0.03017 0.0
C1658 C 0.75981 0.05892 0.97376 0.0
C1659 C 0.76866 0.08101 0.95872 0.0
C1660 C 0.79995 0.10509 0.95678 0.0
C1661 C 0.82221 0.10669 0.97031 0.0
C1662 C 0.81336 0.08435 0.98533 0.0
H1663 H 0.78612 0.07977 0.0457 0.0
H1664 H 0.81768 0.08851 0.0291 0.0
H1665 H 0.78478 0.09178 0.0209 0.0
H1666 H 0.73548 0.04073 0.97488 0.0
H1667 H 0.75095 0.0792 0.94854 0.0
H1668 H 0.75377 0.68221 0.58595 0.0
H1669 H 0.73798 0.70485 0.55954 0.0
H1670 H 0.833 0.75405 0.53823 0.0
H1671 H 0.84877 0.73071 0.56451 0.0
H1672 H 0.75531 0.76427 0.55113 0.0
H1673 H 0.7861 0.71296 0.48847 0.0
H1674 H 0.78526 0.70054 0.51345 0.0
H1675 H 0.81824 0.73616 0.50468 0.0
C1676 C 0.7713 0.69772 0.57557 0.0
C1677 C 0.80251 0.7046 0.57727 0.0
C1678 C 0.76225 0.71075 0.56049 0.0
C1679 C 0.78413 0.73093 0.54665 0.0
C1680 C 0.81546 0.73803 0.5484 0.0
H1681 H 0.73688 0.84266 0.46663 0.0
H1682 H 0.76023 0.82719 0.49311 0.0
C1683 C 0.82451 0.7248 0.56348 0.0
C1684 C 0.77385 0.7445 0.53062 0.0
H1685 H 0.76876 0.7484 0.48071 0.0
C1686 C 0.75835 0.76087 0.53573 0.0
C1687 C 0.77747 0.73987 0.51048 0.0
C1688 C 0.7924 0.72119 0.50387 0.0
C1689 C 0.74612 0.77234 0.52136 0.0
C1690 C 0.75006 0.76802 0.50121 0.0
C1691 C 0.76589 0.75198 0.49612 0.0
C1692 C 0.73628 0.77808 0.48519 0.0
C1693 C 0.72805 0.78791 0.52797 0.0
C1694 C 0.71556 0.75594 0.4716 0.0
C1695 C 0.70254 0.76481 0.45641 0.0
C1696 C 0.70995 0.7961 0.45434 0.0
C1697 C 0.73059 0.81835 0.46793 0.0
C1698 C 0.74382 0.80947 0.48312 0.0
H1699 H 0.72027 0.7822 0.54347 0.0
H1700 H 0.74331 0.81366 0.52689 0.0
H1701 H 0.70714 0.78077 0.51858 0.0
H1702 H 0.70928 0.73161 0.47279 0.0
H1703 H 0.68663 0.74708 0.44621 0.0
H1704 H 0.9557 0.68505 0.94409 0.0
H1705 H 0.99417 0.70691 0.97067 0.0
H1706 H 0.94739 0.75401 0.99379 0.0
H1707 H 0.90832 0.73149 0.96737 0.0
H1708 H 0.03601 0.7656 0.98102 0.0
H1709 H 0.95189 0.7098 0.04212 0.0
H1710 H 0.94107 0.69912 0.0168 0.0
H1711 H 0.94313 0.73388 0.02674 0.0
C1712 C 0.95357 0.70005 0.95485 0.0
C1713 C 0.92884 0.70639 0.95369 0.0
C1714 C 0.97564 0.71259 0.97006 0.0
C1715 C 0.97355 0.73178 0.98453 0.0
C1716 C 0.94918 0.73868 0.98316 0.0
H1717 H 0.12963 0.84151 0.06717 0.0
H1718 H 0.09153 0.82621 0.04022 0.0
C1719 C 0.92693 0.72593 0.96798 0.0
C1720 C 0.99696 0.74439 1.00092 0.0
H1721 H 1.00427 0.7458 0.05093 0.0
C1722 C 0.02904 0.7613 0.99631 0.0
C1723 C 0.98803 0.73855 0.02093 0.0
C1724 C 0.95419 0.7191 0.027 0.0
C1725 C 0.05228 0.77231 1.01103 0.0
C1726 C 0.04334 0.76695 0.03105 0.0
C1727 C 1.01126 0.75021 0.03565 0.0
C1728 C 0.0667 0.77687 0.04742 0.0
C1729 C 0.0862 0.78858 1.0049 0.0
C1730 C 0.06516 0.75455 0.06083 0.0
C1731 C 0.08663 0.76333 0.07631 0.0
C1732 C 0.1102 0.7947 0.07887 0.0
C1733 C 0.11186 0.81713 0.0655 0.0
C1734 C 0.09017 0.80834 0.05002 0.0
H1735 H 0.08888 0.78341 0.98937 0.0
H1736 H 0.09631 0.81424 1.00631 0.0
H1737 H 0.09994 0.78154 1.01435 0.0
H1738 H 0.04737 0.73015 0.05924 0.0
H1739 H 0.08478 0.74547 0.08633 0.0
H1740 H 0.18951 0.90096 0.4678 0.0
H1741 H 0.20517 0.94047 0.49396 0.0
H1742 H 0.30042 0.98561 0.47316 0.0
H1743 H 0.28483 0.94667 0.44698 0.0
H1744 H 0.2463 0.95625 0.52416 0.0
H1745 H 0.28578 0.0589 0.47572 0.0
H1746 H 0.26335 0.01927 0.46671 0.0
H1747 H 0.30501 0.03717 0.47015 0.0
C1748 C 0.21376 0.91939 0.46882 0.0
C1749 C 0.23585 0.92094 0.45518 0.0
C1750 C 0.2227 0.94199 0.48376 0.0
C1751 C 0.2539 0.96658 0.48533 0.0
C1752 C 0.27607 0.96755 0.47198 0.0
H1753 H 0.35122 0.08015 0.58643 0.0
H1754 H 0.3281 0.04113 0.56027 0.0
C1755 C 0.26715 0.94509 0.45708 0.0
C1756 C 0.26364 0.99073 0.50118 0.0
H1757 H 0.30247 0.06979 0.50931 0.0
C1758 C 0.25833 0.98106 0.52088 0.0
C1759 C 0.27882 0.0232 0.49703 0.0
C1760 C 0.28328 0.03527 0.47625 0.0
C1761 C 0.26884 1.00283 0.53645 0.0
C1762 C 0.28578 0.03532 0.53229 0.0
C1763 C 0.28995 0.04498 0.51259 0.0
C1764 C 0.30005 0.05952 0.54814 0.0
C1765 C 0.26144 0.99074 0.55722 0.0
C1766 C 0.29305 0.08377 0.54973 0.0
C1767 C 0.30657 0.10642 0.56466 0.0
C1768 C 0.32738 0.10525 0.57827 0.0
C1769 C 0.33491 0.08143 0.57635 0.0
C1770 C 0.32151 0.05893 0.56146 0.0
H1771 H 0.24046 0.96695 0.55777 0.0
H1772 H 0.28149 0.98919 0.56328 0.0
H1773 H 0.25729 1.00653 0.56678 0.0
H1774 H 0.27683 0.08499 0.53955 0.0
H1775 H 0.30045 0.12459 0.56569 0.0
loop_
_geom_bond_atom_site_label_1
_geom_bond_atom_site_label_2
_geom_bond_distance
_geom_bond_site_symmetry_2
_ccdc_geom_bond_type
Ho0 C3 2.811 . S
Ho0 O20 2.322 . S
Ho0 O22 2.378 . S
Ho0 O23 2.524 . S
Ho0 O24 2.381 . S
Ho0 O25 2.669 . S
Ho0 O27 2.346 . S
Ho0 O31 2.305 . S
Ho1 C12 2.811 . S
Ho1 O21 2.346 . S
Ho1 O25 2.305 . S
Ho1 O26 2.322 . S
Ho1 O28 2.378 . S
Ho1 O29 2.524 . S
Ho1 O30 2.381 . S
Ho1 O31 2.669 . S
C2 O20 1.259 . S
C2 O21 1.268 . S
C3 Ho0 2.811 . S
C3 C4 1.488 . S
C3 O22 1.215 . S
C3 O23 1.289 . S
C4 C3 1.488 . S
C4 C5 1.348 . S
C4 C9 1.413 . S
C5 C4 1.348 . S
C5 C6 1.442 . S
C5 H32 0.930 . S
C6 C5 1.442 . S
C6 C7 1.381 . S
C6 H33 0.931 . S
C7 C6 1.381 . S
C7 C8 1.321 . S
C8 C7 1.321 . S
C8 C9 1.403 . S
C8 H34 0.934 . S
C9 C4 1.413 . S
C9 C8 1.403 . S
C9 H35 0.930 . S
C10 O24 1.275 . S
C10 O25 1.256 . S
C11 O26 1.259 . S
C11 O27 1.268 . S
C12 Ho1 2.811 . S
C12 C13 1.488 . S
C12 O28 1.215 . S
C12 O29 1.289 . S
C13 C12 1.488 . S
C13 C14 1.348 . S
C13 C18 1.413 . S
C14 C13 1.348 . S
C14 C15 1.442 . S
C14 H36 0.930 . S
C15 C14 1.442 . S
C15 C16 1.381 . S
C15 H37 0.931 . S
C16 C15 1.381 . S
C16 C17 1.321 . S
C17 C16 1.321 . S
C17 C18 1.403 . S
C17 H38 0.934 . S
C18 C13 1.413 . S
C18 C17 1.403 . S
C18 H39 0.930 . S
C19 O30 1.275 . S
C19 O31 1.256 . S
O20 Ho0 2.322 . S
O20 C2 1.259 . S
O21 Ho1 2.346 . S
O21 C2 1.268 . S
O22 Ho0 2.378 . S
O22 C3 1.215 . S
O23 Ho0 2.524 . S
O23 C3 1.289 . S
O24 Ho0 2.381 . S
O24 C10 1.275 . S
O25 Ho0 2.669 . S
O25 Ho1 2.305 . S
O25 C10 1.256 . S
O26 Ho1 2.322 . S
O26 C11 1.259 . S
O27 Ho0 2.346 . S
O27 C11 1.268 . S
O28 Ho1 2.378 . S
O28 C12 1.215 . S
O29 Ho1 2.524 . S
O29 C12 1.289 . S
O30 Ho1 2.381 . S
O30 C19 1.275 . S
O31 Ho0 2.305 . S
O31 Ho1 2.669 . S
O31 C19 1.256 . S
H32 C5 0.930 . S
H33 C6 0.931 . S
H34 C8 0.934 . S
H35 C9 0.930 . S
H36 C14 0.930 . S
H37 C15 0.931 . S
H38 C17 0.934 . S
H39 C18 0.930 . S
Ho40 C43 2.811 . S
Ho40 O60 2.322 . S
Ho40 O62 2.378 . S
Ho40 O63 2.524 . S
Ho40 O64 2.381 . S
Ho40 O65 2.669 . S
Ho40 O67 2.346 . S
Ho40 O71 2.305 . S
Ho41 C52 2.811 . S
Ho41 O61 2.346 . S
Ho41 O65 2.305 . S
Ho41 O66 2.322 . S
Ho41 O68 2.378 . S
Ho41 O69 2.524 . S
Ho41 O70 2.381 . S
Ho41 O71 2.669 . S
C42 O60 1.259 . S
C42 O61 1.268 . S
C43 Ho40 2.811 . S
C43 C44 1.488 . S
C43 O62 1.215 . S
C43 O63 1.289 . S
C44 C43 1.488 . S
C44 C45 1.348 . S
C44 C49 1.413 . S
C45 C44 1.348 . S
C45 C46 1.442 . S
C45 H72 0.930 . S
C46 C45 1.442 . S
C46 C47 1.381 . S
C46 H73 0.931 . S
C47 C46 1.381 . S
C47 C48 1.321 . S
C48 C47 1.321 . S
C48 C49 1.403 . S
C48 H74 0.934 . S
C49 C44 1.413 . S
C49 C48 1.403 . S
C49 H75 0.930 . S
C50 O64 1.275 . S
C50 O65 1.256 . S
C51 O66 1.259 . S
C51 O67 1.268 . S
C52 Ho41 2.811 . S
C52 C53 1.488 . S
C52 O68 1.215 . S
C52 O69 1.289 . S
C53 C52 1.488 . S
C53 C54 1.348 . S
C53 C58 1.413 . S
C54 C53 1.348 . S
C54 C55 1.442 1_655 S
C54 H76 0.930 . S
C55 C54 1.442 1_455 S
C55 C56 1.381 . S
C55 H77 0.931 . S
C56 C55 1.381 . S
C56 C57 1.321 . S
C57 C56 1.321 . S
C57 C58 1.403 1_455 S
C57 H78 0.934 . S
C58 C53 1.413 . S
C58 C57 1.403 1_655 S
C58 H79 0.930 . S
C59 O70 1.275 . S
C59 O71 1.256 . S
O60 Ho40 2.322 . S
O60 C42 1.259 . S
O61 Ho41 2.346 . S
O61 C42 1.268 . S
O62 Ho40 2.378 . S
O62 C43 1.215 . S
O63 Ho40 2.524 . S
O63 C43 1.289 . S
O64 Ho40 2.381 . S
O64 C50 1.275 . S
O65 Ho40 2.669 . S
O65 Ho41 2.305 . S
O65 C50 1.256 . S
O66 Ho41 2.322 . S
O66 C51 1.259 . S
O67 Ho40 2.346 . S
O67 C51 1.268 . S
O68 Ho41 2.378 . S
O68 C52 1.215 . S
O69 Ho41 2.524 . S
O69 C52 1.289 . S
O70 Ho41 2.381 . S
O70 C59 1.275 . S
O71 Ho40 2.305 . S
O71 Ho41 2.669 . S
O71 C59 1.256 . S
H72 C45 0.930 . S
H73 C46 0.931 . S
H74 C48 0.934 . S
H75 C49 0.930 . S
H76 C54 0.930 . S
H77 C55 0.931 . S
H78 C57 0.934 . S
H79 C58 0.930 . S
Ho80 C83 2.811 . S
Ho80 O100 2.322 . S
Ho80 O102 2.378 . S
Ho80 O103 2.524 . S
Ho80 O104 2.381 . S
Ho80 O105 2.669 . S
Ho80 O107 2.346 . S
Ho80 O111 2.305 . S
Ho81 C92 2.811 . S
Ho81 O101 2.346 . S
Ho81 O105 2.305 . S
Ho81 O106 2.322 . S
Ho81 O108 2.378 . S
Ho81 O109 2.524 . S
Ho81 O110 2.381 . S
Ho81 O111 2.669 . S
C82 O100 1.259 . S
C82 O101 1.268 . S
C83 Ho80 2.811 . S
C83 C84 1.488 . S
C83 O102 1.215 . S
C83 O103 1.289 . S
C84 C83 1.488 . S
C84 C85 1.348 . S
C84 C89 1.413 . S
C85 C84 1.348 . S
C85 C86 1.442 . S
C85 H112 0.930 . S
C86 C85 1.442 . S
C86 C87 1.381 . S
C86 H113 0.931 . S
C87 C86 1.381 . S
C87 C88 1.321 . S
C88 C87 1.321 . S
C88 C89 1.403 . S
C88 H114 0.934 . S
C89 C84 1.413 . S
C89 C88 1.403 . S
C89 H115 0.930 . S
C90 O104 1.275 . S
C90 O105 1.256 . S
C91 O106 1.259 . S
C91 O107 1.268 . S
C92 Ho81 2.811 . S
C92 C93 1.488 . S
C92 O108 1.215 . S
C92 O109 1.289 . S
C93 C92 1.488 . S
C93 C94 1.348 . S
C93 C98 1.413 . S
C94 C93 1.348 . S
C94 C95 1.442 1_565 S
C94 H116 0.930 . S
C95 C94 1.442 1_545 S
C95 C96 1.381 . S
C95 H117 0.931 . S
C96 C95 1.381 . S
C96 C97 1.321 . S
C97 C96 1.321 . S
C97 C98 1.403 1_545 S
C97 H118 0.934 . S
C98 C93 1.413 . S
C98 C97 1.403 1_565 S
C98 H119 0.930 . S
C99 O110 1.275 . S
C99 O111 1.256 . S
O100 Ho80 2.322 . S
O100 C82 1.259 . S
O101 Ho81 2.346 . S
O101 C82 1.268 . S
O102 Ho80 2.378 . S
O102 C83 1.215 . S
O103 Ho80 2.524 . S
O103 C83 1.289 . S
O104 Ho80 2.381 . S
O104 C90 1.275 . S
O105 Ho80 2.669 . S
O105 Ho81 2.305 . S
O105 C90 1.256 . S
O106 Ho81 2.322 . S
O106 C91 1.259 . S
O107 Ho80 2.346 . S
O107 C91 1.268 . S
O108 Ho81 2.378 . S
O108 C92 1.215 . S
O109 Ho81 2.524 . S
O109 C92 1.289 . S
O110 Ho81 2.381 . S
O110 C99 1.275 . S
O111 Ho80 2.305 . S
O111 Ho81 2.669 . S
O111 C99 1.256 . S
H112 C85 0.930 . S
H113 C86 0.931 . S
H114 C88 0.934 . S
H115 C89 0.930 . S
H116 C94 0.930 . S
H117 C95 0.931 . S
H118 C97 0.934 . S
H119 C98 0.930 . S
Ho120 C123 2.811 . S
Ho120 O140 2.322 . S
Ho120 O142 2.378 . S
Ho120 O143 2.524 . S
Ho120 O144 2.381 . S
Ho120 O145 2.669 . S
Ho120 O147 2.346 . S
Ho120 O151 2.305 . S
Ho121 C132 2.811 . S
Ho121 O141 2.346 . S
Ho121 O145 2.305 . S
Ho121 O146 2.322 . S
Ho121 O148 2.378 . S
Ho121 O149 2.524 . S
Ho121 O150 2.381 . S
Ho121 O151 2.669 . S
C122 O140 1.259 . S
C122 O141 1.268 . S
C123 Ho120 2.811 . S
C123 C124 1.488 . S
C123 O142 1.215 . S
C123 O143 1.289 . S
C124 C123 1.488 . S
C124 C125 1.348 . S
C124 C129 1.413 . S
C125 C124 1.348 . S
C125 C126 1.442 . S
C125 H152 0.930 . S
C126 C125 1.442 . S
C126 C127 1.381 . S
C126 H153 0.931 . S
C127 C126 1.381 . S
C127 C128 1.321 . S
C128 C127 1.321 . S
C128 C129 1.403 . S
C128 H154 0.934 . S
C129 C124 1.413 . S
C129 C128 1.403 . S
C129 H155 0.930 . S
C130 O144 1.275 . S
C130 O145 1.256 . S
C131 O146 1.259 . S
C131 O147 1.268 . S
C132 Ho121 2.811 . S
C132 C133 1.488 . S
C132 O148 1.215 . S
C132 O149 1.289 . S
C133 C132 1.488 . S
C133 C134 1.348 . S
C133 C138 1.413 . S
C134 C133 1.348 . S
C134 C135 1.442 . S
C134 H156 0.930 . S
C135 C134 1.442 . S
C135 C136 1.381 . S
C135 H157 0.931 . S
C136 C135 1.381 . S
C136 C137 1.321 . S
C137 C136 1.321 . S
C137 C138 1.403 . S
C137 H158 0.934 . S
C138 C133 1.413 . S
C138 C137 1.403 . S
C138 H159 0.930 . S
C139 O150 1.275 . S
C139 O151 1.256 . S
O140 Ho120 2.322 . S
O140 C122 1.259 . S
O141 Ho121 2.346 . S
O141 C122 1.268 . S
O142 Ho120 2.378 . S
O142 C123 1.215 . S
O143 Ho120 2.524 . S
O143 C123 1.289 . S
O144 Ho120 2.381 . S
O144 C130 1.275 . S
O145 Ho120 2.669 . S
O145 Ho121 2.305 . S
O145 C130 1.256 . S
O146 Ho121 2.322 . S
O146 C131 1.259 . S
O147 Ho120 2.346 . S
O147 C131 1.268 . S
O148 Ho121 2.378 . S
O148 C132 1.215 . S
O149 Ho121 2.524 . S
O149 C132 1.289 . S
O150 Ho121 2.381 . S
O150 C139 1.275 . S
O151 Ho120 2.305 . S
O151 Ho121 2.669 . S
O151 C139 1.256 . S
H152 C125 0.930 . S
H153 C126 0.931 . S
H154 C128 0.934 . S
H155 C129 0.930 . S
H156 C134 0.930 . S
H157 C135 0.931 . S
H158 C137 0.934 . S
H159 C138 0.930 . S
Ho160 C163 2.811 . S
Ho160 O180 2.322 . S
Ho160 O182 2.378 . S
Ho160 O183 2.524 . S
Ho160 O184 2.381 . S
Ho160 O185 2.669 . S
Ho160 O187 2.346 . S
Ho160 O191 2.305 . S
Ho161 C172 2.811 . S
Ho161 O181 2.346 . S
Ho161 O185 2.305 . S
Ho161 O186 2.322 . S
Ho161 O188 2.378 . S
Ho161 O189 2.524 . S
Ho161 O190 2.381 . S
Ho161 O191 2.669 . S
C162 O180 1.259 . S
C162 O181 1.268 . S
C163 Ho160 2.811 . S
C163 C164 1.488 . S
C163 O182 1.215 . S
C163 O183 1.289 . S
C164 C163 1.488 . S
C164 C165 1.348 . S
C164 C169 1.413 . S
C165 C164 1.348 . S
C165 C166 1.442 . S
C165 H192 0.930 . S
C166 C165 1.442 . S
C166 C167 1.381 . S
C166 H193 0.931 . S
C167 C166 1.381 . S
C167 C168 1.321 . S
C168 C167 1.321 . S
C168 C169 1.403 . S
C168 H194 0.934 . S
C169 C164 1.413 . S
C169 C168 1.403 . S
C169 H195 0.930 . S
C170 O184 1.275 . S
C170 O185 1.256 . S
C171 O186 1.259 . S
C171 O187 1.268 . S
C172 Ho161 2.811 . S
C172 C173 1.488 . S
C172 O188 1.215 . S
C172 O189 1.289 . S
C173 C172 1.488 . S
C173 C174 1.348 . S
C173 C178 1.413 . S
C174 C173 1.348 . S
C174 C175 1.442 1_455 S
C174 H196 0.930 . S
C175 C174 1.442 1_655 S
C175 C176 1.381 . S
C175 H197 0.931 . S
C176 C175 1.381 . S
C176 C177 1.321 . S
C177 C176 1.321 . S
C177 C178 1.403 1_655 S
C177 H198 0.934 . S
C178 C173 1.413 . S
C178 C177 1.403 1_455 S
C178 H199 0.930 . S
C179 O190 1.275 . S
C179 O191 1.256 . S
O180 Ho160 2.322 . S
O180 C162 1.259 . S
O181 Ho161 2.346 . S
O181 C162 1.268 . S
O182 Ho160 2.378 . S
O182 C163 1.215 . S
O183 Ho160 2.524 . S
O183 C163 1.289 . S
O184 Ho160 2.381 . S
O184 C170 1.275 . S
O185 Ho160 2.669 . S
O185 Ho161 2.305 . S
O185 C170 1.256 . S
O186 Ho161 2.322 . S
O186 C171 1.259 . S
O187 Ho160 2.346 . S
O187 C171 1.268 . S
O188 Ho161 2.378 . S
O188 C172 1.215 . S
O189 Ho161 2.524 . S
O189 C172 1.289 . S
O190 Ho161 2.381 . S
O190 C179 1.275 . S
O191 Ho160 2.305 . S
O191 Ho161 2.669 . S
O191 C179 1.256 . S
H192 C165 0.930 . S
H193 C166 0.931 . S
H194 C168 0.934 . S
H195 C169 0.930 . S
H196 C174 0.930 . S
H197 C175 0.931 . S
H198 C177 0.934 . S
H199 C178 0.930 . S
Ho200 C203 2.811 . S
Ho200 O220 2.322 . S
Ho200 O222 2.378 . S
Ho200 O223 2.524 . S
Ho200 O224 2.381 . S
Ho200 O225 2.669 . S
Ho200 O227 2.346 . S
Ho200 O231 2.305 . S
Ho201 C212 2.811 . S
Ho201 O221 2.346 . S
Ho201 O225 2.305 . S
Ho201 O226 2.322 . S
Ho201 O228 2.378 . S
Ho201 O229 2.524 . S
Ho201 O230 2.381 . S
Ho201 O231 2.669 . S
C202 O220 1.259 . S
C202 O221 1.268 . S
C203 Ho200 2.811 . S
C203 C204 1.488 . S
C203 O222 1.215 . S
C203 O223 1.289 . S
C204 C203 1.488 . S
C204 C205 1.348 . S
C204 C209 1.413 . S
C205 C204 1.348 . S
C205 C206 1.442 . S
C205 H232 0.930 . S
C206 C205 1.442 . S
C206 C207 1.381 . S
C206 H233 0.931 . S
C207 C206 1.381 . S
C207 C208 1.321 . S
C208 C207 1.321 . S
C208 C209 1.403 . S
C208 H234 0.934 . S
C209 C204 1.413 . S
C209 C208 1.403 . S
C209 H235 0.930 . S
C210 O224 1.275 . S
C210 O225 1.256 . S
C211 O226 1.259 . S
C211 O227 1.268 . S
C212 Ho201 2.811 . S
C212 C213 1.488 . S
C212 O228 1.215 . S
C212 O229 1.289 . S
C213 C212 1.488 . S
C213 C214 1.348 . S
C213 C218 1.413 . S
C214 C213 1.348 . S
C214 C215 1.442 1_545 S
C214 H236 0.930 . S
C215 C214 1.442 1_565 S
C215 C216 1.381 . S
C215 H237 0.931 . S
C216 C215 1.381 . S
C216 C217 1.321 . S
C217 C216 1.321 . S
C217 C218 1.403 1_565 S
C217 H238 0.934 . S
C218 C213 1.413 . S
C218 C217 1.403 1_545 S
C218 H239 0.930 . S
C219 O230 1.275 . S
C219 O231 1.256 . S
O220 Ho200 2.322 . S
O220 C202 1.259 . S
O221 Ho201 2.346 . S
O221 C202 1.268 . S
O222 Ho200 2.378 . S
O222 C203 1.215 . S
O223 Ho200 2.524 . S
O223 C203 1.289 . S
O224 Ho200 2.381 . S
O224 C210 1.275 . S
O225 Ho200 2.669 . S
O225 Ho201 2.305 . S
O225 C210 1.256 . S
O226 Ho201 2.322 . S
O226 C211 1.259 . S
O227 Ho200 2.346 . S
O227 C211 1.268 . S
O228 Ho201 2.378 . S
O228 C212 1.215 . S
O229 Ho201 2.524 . S
O229 C212 1.289 . S
O230 Ho201 2.381 . S
O230 C219 1.275 . S
O231 Ho200 2.305 . S
O231 Ho201 2.669 . S
O231 C219 1.256 . S
H232 C205 0.930 . S
H233 C206 0.931 . S
H234 C208 0.934 . S
H235 C209 0.930 . S
H236 C214 0.930 . S
H237 C215 0.931 . S
H238 C217 0.934 . S
H239 C218 0.930 . S
Ho240 C243 2.811 . S
Ho240 O260 2.322 . S
Ho240 O262 2.378 . S
Ho240 O263 2.524 . S
Ho240 O264 2.381 . S
Ho240 O265 2.669 . S
Ho240 O267 2.346 . S
Ho240 O271 2.305 . S
Ho241 C252 2.811 . S
Ho241 O261 2.346 . S
Ho241 O265 2.305 . S
Ho241 O266 2.322 . S
Ho241 O268 2.378 . S
Ho241 O269 2.524 . S
Ho241 O270 2.381 . S
Ho241 O271 2.669 . S
C242 O260 1.259 . S
C242 O261 1.268 . S
C243 Ho240 2.811 . S
C243 C244 1.488 . S
C243 O262 1.215 . S
C243 O263 1.289 . S
C244 C243 1.488 . S
C244 C245 1.348 . S
C244 C249 1.413 . S
C245 C244 1.348 . S
C245 C246 1.442 . S
C245 H272 0.930 . S
C246 C245 1.442 . S
C246 C247 1.381 . S
C246 H273 0.931 . S
C247 C246 1.381 . S
C247 C248 1.321 . S
C248 C247 1.321 . S
C248 C249 1.403 . S
C248 H274 0.934 . S
C249 C244 1.413 . S
C249 C248 1.403 . S
C249 H275 0.930 . S
C250 O264 1.275 . S
C250 O265 1.256 . S
C251 O266 1.259 . S
C251 O267 1.268 . S
C252 Ho241 2.811 . S
C252 C253 1.488 . S
C252 O268 1.215 . S
C252 O269 1.289 . S
C253 C252 1.488 . S
C253 C254 1.348 . S
C253 C258 1.413 . S
C254 C253 1.348 . S
C254 C255 1.442 . S
C254 H276 0.930 . S
C255 C254 1.442 . S
C255 C256 1.381 . S
C255 H277 0.931 . S
C256 C255 1.381 . S
C256 C257 1.321 . S
C257 C256 1.321 . S
C257 C258 1.403 . S
C257 H278 0.934 . S
C258 C253 1.413 . S
C258 C257 1.403 . S
C258 H279 0.930 . S
C259 O270 1.275 . S
C259 O271 1.256 . S
O260 Ho240 2.322 . S
O260 C242 1.259 . S
O261 Ho241 2.346 . S
O261 C242 1.268 . S
O262 Ho240 2.378 . S
O262 C243 1.215 . S
O263 Ho240 2.524 . S
O263 C243 1.289 . S
O264 Ho240 2.381 . S
O264 C250 1.275 . S
O265 Ho240 2.669 . S
O265 Ho241 2.305 . S
O265 C250 1.256 . S
O266 Ho241 2.322 . S
O266 C251 1.259 . S
O267 Ho240 2.346 . S
O267 C251 1.268 . S
O268 Ho241 2.378 . S
O268 C252 1.215 . S
O269 Ho241 2.524 . S
O269 C252 1.289 . S
O270 Ho241 2.381 . S
O270 C259 1.275 . S
O271 Ho240 2.305 . S
O271 Ho241 2.669 . S
O271 C259 1.256 . S
H272 C245 0.930 . S
H273 C246 0.931 . S
H274 C248 0.934 . S
H275 C249 0.930 . S
H276 C254 0.930 . S
H277 C255 0.931 . S
H278 C257 0.934 . S
H279 C258 0.930 . S
Ho280 C283 2.811 . S
Ho280 O300 2.322 . S
Ho280 O302 2.378 . S
Ho280 O303 2.524 . S
Ho280 O304 2.381 . S
Ho280 O305 2.669 . S
Ho280 O307 2.346 . S
Ho280 O311 2.305 . S
Ho281 C292 2.811 . S
Ho281 O301 2.346 . S
Ho281 O305 2.305 . S
Ho281 O306 2.322 . S
Ho281 O308 2.378 . S
Ho281 O309 2.524 . S
Ho281 O310 2.381 . S
Ho281 O311 2.669 . S
C282 O300 1.259 . S
C282 O301 1.268 . S
C283 Ho280 2.811 . S
C283 C284 1.488 . S
C283 O302 1.215 . S
C283 O303 1.289 . S
C284 C283 1.488 . S
C284 C285 1.348 . S
C284 C289 1.413 . S
C285 C284 1.348 . S
C285 C286 1.442 . S
C285 H312 0.930 . S
C286 C285 1.442 . S
C286 C287 1.381 . S
C286 H313 0.931 . S
C287 C286 1.381 . S
C287 C288 1.321 . S
C288 C287 1.321 . S
C288 C289 1.403 . S
C288 H314 0.934 . S
C289 C284 1.413 . S
C289 C288 1.403 . S
C289 H315 0.930 . S
C290 O304 1.275 . S
C290 O305 1.256 . S
C291 O306 1.259 . S
C291 O307 1.268 . S
C292 Ho281 2.811 . S
C292 C293 1.488 . S
C292 O308 1.215 . S
C292 O309 1.289 . S
C293 C292 1.488 . S
C293 C294 1.348 . S
C293 C298 1.413 . S
C294 C293 1.348 . S
C294 C295 1.442 1_655 S
C294 H316 0.930 . S
C295 C294 1.442 1_455 S
C295 C296 1.381 . S
C295 H317 0.931 . S
C296 C295 1.381 . S
C296 C297 1.321 . S
C297 C296 1.321 . S
C297 C298 1.403 1_455 S
C297 H318 0.934 . S
C298 C293 1.413 . S
C298 C297 1.403 1_655 S
C298 H319 0.930 . S
C299 O310 1.275 . S
C299 O311 1.256 . S
O300 Ho280 2.322 . S
O300 C282 1.259 . S
O301 Ho281 2.346 . S
O301 C282 1.268 . S
O302 Ho280 2.378 . S
O302 C283 1.215 . S
O303 Ho280 2.524 . S
O303 C283 1.289 . S
O304 Ho280 2.381 . S
O304 C290 1.275 . S
O305 Ho280 2.669 . S
O305 Ho281 2.305 . S
O305 C290 1.256 . S
O306 Ho281 2.322 . S
O306 C291 1.259 . S
O307 Ho280 2.346 . S
O307 C291 1.268 . S
O308 Ho281 2.378 . S
O308 C292 1.215 . S
O309 Ho281 2.524 . S
O309 C292 1.289 . S
O310 Ho281 2.381 . S
O310 C299 1.275 . S
O311 Ho280 2.305 . S
O311 Ho281 2.669 . S
O311 C299 1.256 . S
H312 C285 0.930 . S
H313 C286 0.931 . S
H314 C288 0.934 . S
H315 C289 0.930 . S
H316 C294 0.930 . S
H317 C295 0.931 . S
H318 C297 0.934 . S
H319 C298 0.930 . S
Ho320 C323 2.811 . S
Ho320 O340 2.322 . S
Ho320 O342 2.378 . S
Ho320 O343 2.524 . S
Ho320 O344 2.381 . S
Ho320 O345 2.669 . S
Ho320 O347 2.346 . S
Ho320 O351 2.305 . S
Ho321 C332 2.811 . S
Ho321 O341 2.346 . S
Ho321 O345 2.305 . S
Ho321 O346 2.322 . S
Ho321 O348 2.378 . S
Ho321 O349 2.524 . S
Ho321 O350 2.381 . S
Ho321 O351 2.669 . S
C322 O340 1.259 . S
C322 O341 1.268 . S
C323 Ho320 2.811 . S
C323 C324 1.488 . S
C323 O342 1.215 . S
C323 O343 1.289 . S
C324 C323 1.488 . S
C324 C325 1.348 . S
C324 C329 1.413 . S
C325 C324 1.348 . S
C325 C326 1.442 . S
C325 H352 0.930 . S
C326 C325 1.442 . S
C326 C327 1.381 . S
C326 H353 0.931 . S
C327 C326 1.381 . S
C327 C328 1.321 . S
C328 C327 1.321 . S
C328 C329 1.403 . S
C328 H354 0.934 . S
C329 C324 1.413 . S
C329 C328 1.403 . S
C329 H355 0.930 . S
C330 O344 1.275 . S
C330 O345 1.256 . S
C331 O346 1.259 . S
C331 O347 1.268 . S
C332 Ho321 2.811 . S
C332 C333 1.488 . S
C332 O348 1.215 . S
C332 O349 1.289 . S
C333 C332 1.488 . S
C333 C334 1.348 . S
C333 C338 1.413 . S
C334 C333 1.348 . S
C334 C335 1.442 1_565 S
C334 H356 0.930 . S
C335 C334 1.442 1_545 S
C335 C336 1.381 . S
C335 H357 0.931 . S
C336 C335 1.381 . S
C336 C337 1.321 . S
C337 C336 1.321 . S
C337 C338 1.403 1_545 S
C337 H358 0.934 . S
C338 C333 1.413 . S
C338 C337 1.403 1_565 S
C338 H359 0.930 . S
C339 O350 1.275 . S
C339 O351 1.256 . S
O340 Ho320 2.322 . S
O340 C322 1.259 . S
O341 Ho321 2.346 . S
O341 C322 1.268 . S
O342 Ho320 2.378 . S
O342 C323 1.215 . S
O343 Ho320 2.524 . S
O343 C323 1.289 . S
O344 Ho320 2.381 . S
O344 C330 1.275 . S
O345 Ho320 2.669 . S
O345 Ho321 2.305 . S
O345 C330 1.256 . S
O346 Ho321 2.322 . S
O346 C331 1.259 . S
O347 Ho320 2.346 . S
O347 C331 1.268 . S
O348 Ho321 2.378 . S
O348 C332 1.215 . S
O349 Ho321 2.524 . S
O349 C332 1.289 . S
O350 Ho321 2.381 . S
O350 C339 1.275 . S
O351 Ho320 2.305 . S
O351 Ho321 2.669 . S
O351 C339 1.256 . S
H352 C325 0.930 . S
H353 C326 0.931 . S
H354 C328 0.934 . S
H355 C329 0.930 . S
H356 C334 0.930 . S
H357 C335 0.931 . S
H358 C337 0.934 . S
H359 C338 0.930 . S
Ho360 C363 2.811 . S
Ho360 O380 2.322 . S
Ho360 O382 2.378 . S
Ho360 O383 2.524 . S
Ho360 O384 2.381 . S
Ho360 O385 2.669 . S
Ho360 O387 2.346 . S
Ho360 O391 2.305 . S
Ho361 C372 2.811 . S
Ho361 O381 2.346 . S
Ho361 O385 2.305 . S
Ho361 O386 2.322 . S
Ho361 O388 2.378 . S
Ho361 O389 2.524 . S
Ho361 O390 2.381 . S
Ho361 O391 2.669 . S
C362 O380 1.259 . S
C362 O381 1.268 . S
C363 Ho360 2.811 . S
C363 C364 1.488 . S
C363 O382 1.215 . S
C363 O383 1.289 . S
C364 C363 1.488 . S
C364 C365 1.348 . S
C364 C369 1.413 . S
C365 C364 1.348 . S
C365 C366 1.442 . S
C365 H392 0.930 . S
C366 C365 1.442 . S
C366 C367 1.381 . S
C366 H393 0.931 . S
C367 C366 1.381 . S
C367 C368 1.321 . S
C368 C367 1.321 . S
C368 C369 1.403 . S
C368 H394 0.934 . S
C369 C364 1.413 . S
C369 C368 1.403 . S
C369 H395 0.930 . S
C370 O384 1.275 . S
C370 O385 1.256 . S
C371 O386 1.259 . S
C371 O387 1.268 . S
C372 Ho361 2.811 . S
C372 C373 1.488 . S
C372 O388 1.215 . S
C372 O389 1.289 . S
C373 C372 1.488 . S
C373 C374 1.348 . S
C373 C378 1.413 . S
C374 C373 1.348 . S
C374 C375 1.442 . S
C374 H396 0.930 . S
C375 C374 1.442 . S
C375 C376 1.381 . S
C375 H397 0.931 . S
C376 C375 1.381 . S
C376 C377 1.321 . S
C377 C376 1.321 . S
C377 C378 1.403 . S
C377 H398 0.934 . S
C378 C373 1.413 . S
C378 C377 1.403 . S
C378 H399 0.930 . S
C379 O390 1.275 . S
C379 O391 1.256 . S
O380 Ho360 2.322 . S
O380 C362 1.259 . S
O381 Ho361 2.346 . S
O381 C362 1.268 . S
O382 Ho360 2.378 . S
O382 C363 1.215 . S
O383 Ho360 2.524 . S
O383 C363 1.289 . S
O384 Ho360 2.381 . S
O384 C370 1.275 . S
O385 Ho360 2.669 . S
O385 Ho361 2.305 . S
O385 C370 1.256 . S
O386 Ho361 2.322 . S
O386 C371 1.259 . S
O387 Ho360 2.346 . S
O387 C371 1.268 . S
O388 Ho361 2.378 . S
O388 C372 1.215 . S
O389 Ho361 2.524 . S
O389 C372 1.289 . S
O390 Ho361 2.381 . S
O390 C379 1.275 . S
O391 Ho360 2.305 . S
O391 Ho361 2.669 . S
O391 C379 1.256 . S
H392 C365 0.930 . S
H393 C366 0.931 . S
H394 C368 0.934 . S
H395 C369 0.930 . S
H396 C374 0.930 . S
H397 C375 0.931 . S
H398 C377 0.934 . S
H399 C378 0.930 . S
Ho400 C403 2.811 . S
Ho400 O420 2.322 . S
Ho400 O422 2.378 . S
Ho400 O423 2.524 . S
Ho400 O424 2.381 . S
Ho400 O425 2.669 . S
Ho400 O427 2.346 . S
Ho400 O431 2.305 . S
Ho401 C412 2.811 . S
Ho401 O421 2.346 . S
Ho401 O425 2.305 . S
Ho401 O426 2.322 . S
Ho401 O428 2.378 . S
Ho401 O429 2.524 . S
Ho401 O430 2.381 . S
Ho401 O431 2.669 . S
C402 O420 1.259 . S
C402 O421 1.268 . S
C403 Ho400 2.811 . S
C403 C404 1.488 . S
C403 O422 1.215 . S
C403 O423 1.289 . S
C404 C403 1.488 . S
C404 C405 1.348 . S
C404 C409 1.413 . S
C405 C404 1.348 . S
C405 C406 1.442 . S
C405 H432 0.930 . S
C406 C405 1.442 . S
C406 C407 1.381 . S
C406 H433 0.931 . S
C407 C406 1.381 . S
C407 C408 1.321 . S
C408 C407 1.321 . S
C408 C409 1.403 . S
C408 H434 0.934 . S
C409 C404 1.413 . S
C409 C408 1.403 . S
C409 H435 0.930 . S
C410 O424 1.275 . S
C410 O425 1.256 . S
C411 O426 1.259 . S
C411 O427 1.268 . S
C412 Ho401 2.811 . S
C412 C413 1.488 . S
C412 O428 1.215 . S
C412 O429 1.289 . S
C413 C412 1.488 . S
C413 C414 1.348 . S
C413 C418 1.413 . S
C414 C413 1.348 . S
C414 C415 1.442 1_455 S
C414 H436 0.930 . S
C415 C414 1.442 1_655 S
C415 C416 1.381 . S
C415 H437 0.931 . S
C416 C415 1.381 . S
C416 C417 1.321 . S
C417 C416 1.321 . S
C417 C418 1.403 1_655 S
C417 H438 0.934 . S
C418 C413 1.413 . S
C418 C417 1.403 1_455 S
C418 H439 0.930 . S
C419 O430 1.275 . S
C419 O431 1.256 . S
O420 Ho400 2.322 . S
O420 C402 1.259 . S
O421 Ho401 2.346 . S
O421 C402 1.268 . S
O422 Ho400 2.378 . S
O422 C403 1.215 . S
O423 Ho400 2.524 . S
O423 C403 1.289 . S
O424 Ho400 2.381 . S
O424 C410 1.275 . S
O425 Ho400 2.669 . S
O425 Ho401 2.305 . S
O425 C410 1.256 . S
O426 Ho401 2.322 . S
O426 C411 1.259 . S
O427 Ho400 2.346 . S
O427 C411 1.268 . S
O428 Ho401 2.378 . S
O428 C412 1.215 . S
O429 Ho401 2.524 . S
O429 C412 1.289 . S
O430 Ho401 2.381 . S
O430 C419 1.275 . S
O431 Ho400 2.305 . S
O431 Ho401 2.669 . S
O431 C419 1.256 . S
H432 C405 0.930 . S
H433 C406 0.931 . S
H434 C408 0.934 . S
H435 C409 0.930 . S
H436 C414 0.930 . S
H437 C415 0.931 . S
H438 C417 0.934 . S
H439 C418 0.930 . S
Ho440 C443 2.811 . S
Ho440 O460 2.322 . S
Ho440 O462 2.378 . S
Ho440 O463 2.524 . S
Ho440 O464 2.381 . S
Ho440 O465 2.669 . S
Ho440 O467 2.346 . S
Ho440 O471 2.305 . S
Ho441 C452 2.811 . S
Ho441 O461 2.346 . S
Ho441 O465 2.305 . S
Ho441 O466 2.322 . S
Ho441 O468 2.378 . S
Ho441 O469 2.524 . S
Ho441 O470 2.381 . S
Ho441 O471 2.669 . S
C442 O460 1.259 . S
C442 O461 1.268 . S
C443 Ho440 2.811 . S
C443 C444 1.488 . S
C443 O462 1.215 . S
C443 O463 1.289 . S
C444 C443 1.488 . S
C444 C445 1.348 . S
C444 C449 1.413 . S
C445 C444 1.348 . S
C445 C446 1.442 . S
C445 H472 0.930 . S
C446 C445 1.442 . S
C446 C447 1.381 . S
C446 H473 0.931 . S
C447 C446 1.381 . S
C447 C448 1.321 . S
C448 C447 1.321 . S
C448 C449 1.403 . S
C448 H474 0.934 . S
C449 C444 1.413 . S
C449 C448 1.403 . S
C449 H475 0.930 . S
C450 O464 1.275 . S
C450 O465 1.256 . S
C451 O466 1.259 . S
C451 O467 1.268 . S
C452 Ho441 2.811 . S
C452 C453 1.488 . S
C452 O468 1.215 . S
C452 O469 1.289 . S
C453 C452 1.488 . S
C453 C454 1.348 . S
C453 C458 1.413 . S
C454 C453 1.348 . S
C454 C455 1.442 1_545 S
C454 H476 0.930 . S
C455 C454 1.442 1_565 S
C455 C456 1.381 . S
C455 H477 0.931 . S
C456 C455 1.381 . S
C456 C457 1.321 . S
C457 C456 1.321 . S
C457 C458 1.403 1_565 S
C457 H478 0.934 . S
C458 C453 1.413 . S
C458 C457 1.403 1_545 S
C458 H479 0.930 . S
C459 O470 1.275 . S
C459 O471 1.256 . S
O460 Ho440 2.322 . S
O460 C442 1.259 . S
O461 Ho441 2.346 . S
O461 C442 1.268 . S
O462 Ho440 2.378 . S
O462 C443 1.215 . S
O463 Ho440 2.524 . S
O463 C443 1.289 . S
O464 Ho440 2.381 . S
O464 C450 1.275 . S
O465 Ho440 2.669 . S
O465 Ho441 2.305 . S
O465 C450 1.256 . S
O466 Ho441 2.322 . S
O466 C451 1.259 . S
O467 Ho440 2.346 . S
O467 C451 1.268 . S
O468 Ho441 2.378 . S
O468 C452 1.215 . S
O469 Ho441 2.524 . S
O469 C452 1.289 . S
O470 Ho441 2.381 . S
O470 C459 1.275 . S
O471 Ho440 2.305 . S
O471 Ho441 2.669 . S
O471 C459 1.256 . S
H472 C445 0.930 . S
H473 C446 0.931 . S
H474 C448 0.934 . S
H475 C449 0.930 . S
H476 C454 0.930 . S
H477 C455 0.931 . S
H478 C457 0.934 . S
H479 C458 0.930 . S
H480 C488 0.929 . S
H481 C490 0.930 . S
H482 C492 0.930 . S
H483 C495 0.929 . S
H484 C498 0.930 1_565 S
H485 C500 0.960 . S
H486 C500 0.960 . S
H487 C500 0.960 . S
C488 H480 0.929 . S
C488 C489 1.377 . S
C488 C490 1.384 . S
C489 C488 1.377 . S
C489 C495 1.390 . S
C490 H481 0.930 . S
C490 C488 1.384 . S
C490 C491 1.372 . S
C491 C490 1.372 . S
C491 C492 1.400 . S
C491 C496 1.490 . S
C492 H482 0.930 . S
C492 C491 1.400 . S
C492 C495 1.386 . S
H493 C509 0.930 . S
H494 C510 0.931 . S
C495 H483 0.929 . S
C495 C489 1.390 . S
C495 C492 1.386 . S
C496 C491 1.490 . S
C496 C498 1.395 1_565 S
C496 C499 1.403 . S
H497 C503 0.930 . S
C498 H484 0.930 1_545 S
C498 C496 1.395 1_545 S
C498 C501 1.403 . S
C499 C496 1.403 . S
C499 C500 1.524 . S
C499 C503 1.400 1_565 S
C500 H485 0.960 . S
C500 H486 0.960 . S
C500 H487 0.960 . S
C500 C499 1.524 . S
C501 C498 1.403 . S
C501 C502 1.392 . S
C501 C505 1.495 . S
C502 C501 1.392 . S
C502 C503 1.385 . S
C502 C504 1.478 . S
C503 H497 0.930 . S
C503 C499 1.400 1_545 S
C503 C502 1.385 . S
C504 C502 1.478 . S
C504 C506 1.381 . S
C504 C510 1.383 . S
C505 C501 1.495 . S
C505 H511 0.959 . S
C505 H512 0.961 . S
C505 H513 0.960 . S
C506 C504 1.381 . S
C506 C507 1.394 . S
C506 H514 0.930 . S
C507 C506 1.394 . S
C507 C508 1.383 . S
C507 H515 0.929 . S
C508 C507 1.383 . S
C508 C509 1.377 . S
C509 H493 0.930 . S
C509 C508 1.377 . S
C509 C510 1.379 . S
C510 H494 0.931 . S
C510 C504 1.383 . S
C510 C509 1.379 . S
H511 C505 0.959 . S
H512 C505 0.961 . S
H513 C505 0.960 . S
H514 C506 0.930 . S
H515 C507 0.929 . S
H516 C524 0.929 . S
H517 C526 0.930 . S
H518 C528 0.930 . S
H519 C531 0.929 . S
H520 C534 0.930 . S
H521 C536 0.960 . S
H522 C536 0.960 . S
H523 C536 0.960 . S
C524 H516 0.929 . S
C524 C525 1.377 . S
C524 C526 1.384 . S
C525 C524 1.377 . S
C525 C531 1.390 . S
C526 H517 0.930 . S
C526 C524 1.384 . S
C526 C527 1.372 . S
C527 C526 1.372 . S
C527 C528 1.400 . S
C527 C532 1.490 . S
C528 H518 0.930 . S
C528 C527 1.400 . S
C528 C531 1.386 . S
H529 C545 0.930 . S
H530 C546 0.931 . S
C531 H519 0.929 . S
C531 C525 1.390 . S
C531 C528 1.386 . S
C532 C527 1.490 . S
C532 C534 1.395 . S
C532 C535 1.403 . S
H533 C539 0.930 . S
C534 H520 0.930 . S
C534 C532 1.395 . S
C534 C537 1.403 . S
C535 C532 1.403 . S
C535 C536 1.524 . S
C535 C539 1.400 . S
C536 H521 0.960 . S
C536 H522 0.960 . S
C536 H523 0.960 . S
C536 C535 1.524 . S
C537 C534 1.403 . S
C537 C538 1.392 . S
C537 C541 1.495 . S
C538 C537 1.392 . S
C538 C539 1.385 . S
C538 C540 1.478 . S
C539 H533 0.930 . S
C539 C535 1.400 . S
C539 C538 1.385 . S
C540 C538 1.478 . S
C540 C542 1.381 . S
C540 C546 1.383 . S
C541 C537 1.495 . S
C541 H547 0.959 . S
C541 H548 0.961 . S
C541 H549 0.960 . S
C542 C540 1.381 . S
C542 C543 1.394 . S
C542 H550 0.930 . S
C543 C542 1.394 . S
C543 C544 1.383 . S
C543 H551 0.929 . S
C544 C543 1.383 . S
C544 C545 1.377 . S
C545 H529 0.930 . S
C545 C544 1.377 . S
C545 C546 1.379 . S
C546 H530 0.931 . S
C546 C540 1.383 . S
C546 C545 1.379 . S
H547 C541 0.959 . S
H548 C541 0.961 . S
H549 C541 0.960 . S
H550 C542 0.930 . S
H551 C543 0.929 . S
H552 C560 0.929 . S
H553 C562 0.930 . S
H554 C564 0.930 . S
H555 C567 0.929 . S
H556 C570 0.930 . S
H557 C572 0.960 . S
H558 C572 0.960 . S
H559 C572 0.960 . S
C560 H552 0.929 . S
C560 C561 1.377 . S
C560 C562 1.384 . S
C561 C560 1.377 . S
C561 C567 1.390 . S
C562 H553 0.930 . S
C562 C560 1.384 . S
C562 C563 1.372 . S
C563 C562 1.372 . S
C563 C564 1.400 . S
C563 C568 1.490 . S
C564 H554 0.930 . S
C564 C563 1.400 . S
C564 C567 1.386 . S
H565 C581 0.930 . S
H566 C582 0.931 . S
C567 H555 0.929 . S
C567 C561 1.390 . S
C567 C564 1.386 . S
C568 C563 1.490 . S
C568 C570 1.395 . S
C568 C571 1.403 . S
H569 C575 0.930 . S
C570 H556 0.930 . S
C570 C568 1.395 . S
C570 C573 1.403 1_655 S
C571 C568 1.403 . S
C571 C572 1.524 . S
C571 C575 1.400 1_655 S
C572 H557 0.960 . S
C572 H558 0.960 . S
C572 H559 0.960 . S
C572 C571 1.524 . S
C573 C570 1.403 1_455 S
C573 C574 1.392 . S
C573 C577 1.495 . S
C574 C573 1.392 . S
C574 C575 1.385 . S
C574 C576 1.478 . S
C575 H569 0.930 . S
C575 C571 1.400 1_455 S
C575 C574 1.385 . S
C576 C574 1.478 . S
C576 C578 1.381 . S
C576 C582 1.383 . S
C577 C573 1.495 . S
C577 H583 0.959 . S
C577 H584 0.961 . S
C577 H585 0.960 . S
C578 C576 1.381 . S
C578 C579 1.394 . S
C578 H586 0.930 . S
C579 C578 1.394 . S
C579 C580 1.383 . S
C579 H587 0.929 . S
C580 C579 1.383 . S
C580 C581 1.377 . S
C581 H565 0.930 . S
C581 C580 1.377 . S
C581 C582 1.379 . S
C582 H566 0.931 . S
C582 C576 1.383 . S
C582 C581 1.379 . S
H583 C577 0.959 . S
H584 C577 0.961 . S
H585 C577 0.960 . S
H586 C578 0.930 . S
H587 C579 0.929 . S
H588 C596 0.929 . S
H589 C598 0.930 . S
H590 C600 0.930 . S
H591 C603 0.929 . S
H592 C606 0.930 . S
H593 C608 0.960 1_545 S
H594 C608 0.960 . S
H595 C608 0.960 . S
C596 H588 0.929 . S
C596 C597 1.377 . S
C596 C598 1.384 . S
C597 C596 1.377 . S
C597 C603 1.390 . S
C598 H589 0.930 . S
C598 C596 1.384 . S
C598 C599 1.372 . S
C599 C598 1.372 . S
C599 C600 1.400 . S
C599 C604 1.490 . S
C600 H590 0.930 . S
C600 C599 1.400 . S
C600 C603 1.386 . S
H601 C617 0.930 . S
H602 C618 0.931 . S
C603 H591 0.929 . S
C603 C597 1.390 . S
C603 C600 1.386 . S
C604 C599 1.490 . S
C604 C606 1.395 . S
C604 C607 1.403 . S
H605 C611 0.930 . S
C606 H592 0.930 . S
C606 C604 1.395 . S
C606 C609 1.403 . S
C607 C604 1.403 . S
C607 C608 1.524 . S
C607 C611 1.400 1_565 S
C608 H593 0.960 1_565 S
C608 H594 0.960 . S
C608 H595 0.960 . S
C608 C607 1.524 . S
C609 C606 1.403 . S
C609 C610 1.392 1_565 S
C609 C613 1.500 . S
C610 C609 1.392 1_545 S
C610 C611 1.385 . S
C610 C612 1.478 . S
C611 H605 0.930 . S
C611 C607 1.400 1_545 S
C611 C610 1.385 . S
C612 C610 1.478 . S
C612 C614 1.381 . S
C612 C618 1.383 . S
C613 C609 1.500 . S
C613 H619 0.964 . S
C613 H620 0.956 1_565 S
C613 H621 0.955 1_565 S
C614 C612 1.381 . S
C614 C615 1.394 . S
C614 H622 0.930 . S
C615 C614 1.394 . S
C615 C616 1.383 . S
C615 H623 0.929 . S
C616 C615 1.383 . S
C616 C617 1.377 . S
C617 H601 0.930 . S
C617 C616 1.377 . S
C617 C618 1.379 . S
C618 H602 0.931 . S
C618 C612 1.383 . S
C618 C617 1.379 . S
H619 C613 0.964 . S
H620 C613 0.956 1_545 S
H621 C613 0.955 1_545 S
H622 C614 0.930 . S
H623 C615 0.929 . S
H624 C632 0.929 . S
H625 C634 0.930 . S
H626 C636 0.930 . S
H627 C639 0.929 . S
H628 C642 0.930 . S
H629 C644 0.960 . S
H630 C644 0.960 . S
H631 C644 0.960 . S
C632 H624 0.929 . S
C632 C633 1.377 . S
C632 C634 1.384 . S
C633 C632 1.377 . S
C633 C639 1.390 . S
C634 H625 0.930 . S
C634 C632 1.384 . S
C634 C635 1.372 . S
C635 C634 1.372 . S
C635 C636 1.400 . S
C635 C640 1.490 . S
C636 H626 0.930 . S
C636 C635 1.400 . S
C636 C639 1.386 . S
H637 C653 0.930 . S
H638 C654 0.931 . S
C639 H627 0.929 . S
C639 C633 1.390 . S
C639 C636 1.386 . S
C640 C635 1.490 . S
C640 C642 1.395 . S
C640 C643 1.403 . S
H641 C647 0.930 . S
C642 H628 0.930 . S
C642 C640 1.395 . S
C642 C645 1.403 . S
C643 C640 1.403 . S
C643 C644 1.524 . S
C643 C647 1.400 . S
C644 H629 0.960 . S
C644 H630 0.960 . S
C644 H631 0.960 . S
C644 C643 1.524 . S
C645 C642 1.403 . S
C645 C646 1.392 . S
C645 C649 1.495 . S
C646 C645 1.392 . S
C646 C647 1.385 . S
C646 C648 1.478 . S
C647 H641 0.930 . S
C647 C643 1.400 . S
C647 C646 1.385 . S
C648 C646 1.478 . S
C648 C650 1.381 . S
C648 C654 1.383 . S
C649 C645 1.495 . S
C649 H655 0.959 . S
C649 H656 0.961 . S
C649 H657 0.960 . S
C650 C648 1.381 . S
C650 C651 1.394 . S
C650 H658 0.930 . S
C651 C650 1.394 . S
C651 C652 1.383 . S
C651 H659 0.929 . S
C652 C651 1.383 . S
C652 C653 1.377 . S
C653 H637 0.930 . S
C653 C652 1.377 . S
C653 C654 1.379 . S
C654 H638 0.931 . S
C654 C648 1.383 . S
C654 C653 1.379 . S
H655 C649 0.959 . S
H656 C649 0.961 . S
H657 C649 0.960 . S
H658 C650 0.930 . S
H659 C651 0.929 . S
H660 C668 0.929 . S
H661 C670 0.930 . S
H662 C672 0.930 . S
H663 C675 0.929 . S
H664 C678 0.930 . S
H665 C680 0.960 1_455 S
H666 C680 0.960 . S
H667 C680 0.960 . S
C668 H660 0.929 . S
C668 C669 1.377 . S
C668 C670 1.384 . S
C669 C668 1.377 . S
C669 C675 1.390 . S
C670 H661 0.930 . S
C670 C668 1.384 . S
C670 C671 1.372 . S
C671 C670 1.372 . S
C671 C672 1.400 . S
C671 C676 1.490 . S
C672 H662 0.930 . S
C672 C671 1.400 . S
C672 C675 1.386 . S
H673 C689 0.930 . S
H674 C690 0.931 . S
C675 H663 0.929 . S
C675 C669 1.390 . S
C675 C672 1.386 . S
C676 C671 1.490 . S
C676 C678 1.395 . S
C676 C679 1.403 1_655 S
H677 C683 0.930 . S
C678 H664 0.930 . S
C678 C676 1.395 . S
C678 C681 1.403 1_655 S
C679 C676 1.403 1_455 S
C679 C680 1.524 1_455 S
C679 C683 1.400 . S
C680 H665 0.960 1_655 S
C680 H666 0.960 . S
C680 H667 0.960 . S
C680 C679 1.524 1_655 S
C681 C678 1.403 1_455 S
C681 C682 1.392 . S
C681 C685 1.495 . S
C682 C681 1.392 . S
C682 C683 1.385 . S
C682 C684 1.478 . S
C683 H677 0.930 . S
C683 C679 1.400 . S
C683 C682 1.385 . S
C684 C682 1.478 . S
C684 C686 1.381 . S
C684 C690 1.383 . S
C685 C681 1.495 . S
C685 H691 0.959 1_455 S
C685 H692 0.961 . S
C685 H693 0.960 . S
C686 C684 1.381 . S
C686 C687 1.394 . S
C686 H694 0.930 . S
C687 C686 1.394 . S
C687 C688 1.383 . S
C687 H695 0.929 . S
C688 C687 1.383 . S
C688 C689 1.377 . S
C689 H673 0.930 . S
C689 C688 1.377 . S
C689 C690 1.379 . S
C690 H674 0.931 . S
C690 C684 1.383 . S
C690 C689 1.379 . S
H691 C685 0.959 1_655 S
H692 C685 0.961 . S
H693 C685 0.960 . S
H694 C686 0.930 . S
H695 C687 0.929 . S
H696 C704 0.929 . S
H697 C706 0.930 . S
H698 C708 0.930 . S
H699 C711 0.929 . S
H700 C714 0.930 . S
H701 C716 0.932 1_655 S
H702 C716 0.975 . S
H703 C716 0.990 . S
C704 H696 0.929 . S
C704 C705 1.377 . S
C704 C706 1.384 . S
C705 C704 1.377 . S
C705 C711 1.390 . S
C706 H697 0.930 . S
C706 C704 1.384 . S
C706 C707 1.372 . S
C707 C706 1.372 . S
C707 C708 1.400 . S
C707 C712 1.490 . S
C708 H698 0.930 . S
C708 C707 1.400 . S
C708 C711 1.386 . S
H709 C725 0.930 . S
H710 C726 0.931 . S
C711 H699 0.929 . S
C711 C705 1.390 . S
C711 C708 1.386 . S
C712 C707 1.490 . S
C712 C714 1.395 . S
C712 C715 1.403 1_455 S
H713 C719 0.930 . S
C714 H700 0.930 . S
C714 C712 1.395 . S
C714 C717 1.403 1_455 S
C715 C712 1.403 1_655 S
C715 C716 1.508 1_655 S
C715 C719 1.400 . S
C716 H701 0.932 1_455 S
C716 H702 0.975 . S
C716 H703 0.990 . S
C716 C715 1.508 1_455 S
C717 C714 1.403 1_655 S
C717 C718 1.392 . S
C717 C721 1.495 . S
C718 C717 1.392 . S
C718 C719 1.385 . S
C718 C720 1.478 . S
C719 H713 0.930 . S
C719 C715 1.400 . S
C719 C718 1.385 . S
C720 C718 1.478 . S
C720 C722 1.381 . S
C720 C726 1.383 . S
C721 C717 1.495 . S
C721 H727 0.959 1_655 S
C721 H728 0.961 . S
C721 H729 0.960 . S
C722 C720 1.381 . S
C722 C723 1.394 . S
C722 H730 0.930 . S
C723 C722 1.394 . S
C723 C724 1.383 . S
C723 H731 0.929 . S
C724 C723 1.383 . S
C724 C725 1.377 . S
C725 H709 0.930 . S
C725 C724 1.377 . S
C725 C726 1.379 . S
C726 H710 0.931 . S
C726 C720 1.383 . S
C726 C725 1.379 . S
H727 C721 0.959 1_455 S
H728 C721 0.961 . S
H729 C721 0.960 . S
H730 C722 0.930 . S
H731 C723 0.929 . S
H732 C740 0.929 . S
H733 C742 0.930 . S
H734 C744 0.930 . S
H735 C747 0.929 . S
H736 C750 0.930 . S
H737 C752 0.960 . S
H738 C752 0.960 . S
H739 C752 0.960 . S
C740 H732 0.929 . S
C740 C741 1.377 . S
C740 C742 1.384 . S
C741 C740 1.377 . S
C741 C747 1.390 . S
C742 H733 0.930 . S
C742 C740 1.384 . S
C742 C743 1.372 . S
C743 C742 1.372 . S
C743 C744 1.400 . S
C743 C748 1.490 . S
C744 H734 0.930 . S
C744 C743 1.400 . S
C744 C747 1.386 . S
H745 C761 0.930 . S
H746 C762 0.931 . S
C747 H735 0.929 . S
C747 C741 1.390 . S
C747 C744 1.386 . S
C748 C743 1.490 . S
C748 C750 1.395 . S
C748 C751 1.403 . S
H749 C755 0.930 . S
C750 H736 0.930 . S
C750 C748 1.395 . S
C750 C753 1.403 1_565 S
C751 C748 1.403 . S
C751 C752 1.524 . S
C751 C755 1.400 1_565 S
C752 H737 0.960 . S
C752 H738 0.960 . S
C752 H739 0.960 . S
C752 C751 1.524 . S
C753 C750 1.403 1_545 S
C753 C754 1.392 . S
C753 C757 1.495 . S
C754 C753 1.392 . S
C754 C755 1.385 . S
C754 C756 1.478 . S
C755 H749 0.930 . S
C755 C751 1.400 1_545 S
C755 C754 1.385 . S
C756 C754 1.478 . S
C756 C758 1.381 . S
C756 C762 1.383 . S
C757 C753 1.495 . S
C757 H763 0.959 . S
C757 H764 0.961 . S
C757 H765 0.960 . S
C758 C756 1.381 . S
C758 C759 1.394 . S
C758 H766 0.930 . S
C759 C758 1.394 . S
C759 C760 1.383 . S
C759 H767 0.929 . S
C760 C759 1.383 . S
C760 C761 1.377 . S
C761 H745 0.930 . S
C761 C760 1.377 . S
C761 C762 1.379 . S
C762 H746 0.931 . S
C762 C756 1.383 . S
C762 C761 1.379 . S
H763 C757 0.959 . S
H764 C757 0.961 . S
H765 C757 0.960 . S
H766 C758 0.930 . S
H767 C759 0.929 . S
H768 C776 0.929 . S
H769 C778 0.930 . S
H770 C780 0.930 . S
H771 C783 0.929 . S
H772 C786 0.930 . S
H773 C788 0.960 . S
H774 C788 0.960 . S
H775 C788 0.960 . S
C776 H768 0.929 . S
C776 C777 1.377 . S
C776 C778 1.384 . S
C777 C776 1.377 . S
C777 C783 1.390 . S
C778 H769 0.930 . S
C778 C776 1.384 . S
C778 C779 1.372 . S
C779 C778 1.372 . S
C779 C780 1.400 . S
C779 C784 1.490 . S
C780 H770 0.930 . S
C780 C779 1.400 . S
C780 C783 1.386 . S
H781 C797 0.930 . S
H782 C798 0.931 . S
C783 H771 0.929 . S
C783 C777 1.390 . S
C783 C780 1.386 . S
C784 C779 1.490 . S
C784 C786 1.395 . S
C784 C787 1.403 . S
H785 C791 0.930 . S
C786 H772 0.930 . S
C786 C784 1.395 . S
C786 C789 1.403 . S
C787 C784 1.403 . S
C787 C788 1.524 . S
C787 C791 1.400 . S
C788 H773 0.960 . S
C788 H774 0.960 . S
C788 H775 0.960 . S
C788 C787 1.524 . S
C789 C786 1.403 . S
C789 C790 1.392 . S
C789 C793 1.495 . S
C790 C789 1.392 . S
C790 C791 1.385 . S
C790 C792 1.478 . S
C791 H785 0.930 . S
C791 C787 1.400 . S
C791 C790 1.385 . S
C792 C790 1.478 . S
C792 C794 1.381 . S
C792 C798 1.383 . S
C793 C789 1.495 . S
C793 H799 0.959 . S
C793 H800 0.961 . S
C793 H801 0.960 . S
C794 C792 1.381 . S
C794 C795 1.394 . S
C794 H802 0.930 . S
C795 C794 1.394 . S
C795 C796 1.383 . S
C795 H803 0.929 . S
C796 C795 1.383 . S
C796 C797 1.377 . S
C797 H781 0.930 . S
C797 C796 1.377 . S
C797 C798 1.379 . S
C798 H782 0.931 . S
C798 C792 1.383 . S
C798 C797 1.379 . S
H799 C793 0.959 . S
H800 C793 0.961 . S
H801 C793 0.960 . S
H802 C794 0.930 . S
H803 C795 0.929 . S
H804 C812 0.929 . S
H805 C814 0.930 . S
H806 C816 0.930 . S
H807 C819 0.929 . S
H808 C822 0.930 . S
H809 C824 0.960 . S
H810 C824 0.960 . S
H811 C824 0.960 . S
C812 H804 0.929 . S
C812 C813 1.377 . S
C812 C814 1.384 . S
C813 C812 1.377 . S
C813 C819 1.390 . S
C814 H805 0.930 . S
C814 C812 1.384 . S
C814 C815 1.372 . S
C815 C814 1.372 . S
C815 C816 1.400 . S
C815 C820 1.490 . S
C816 H806 0.930 . S
C816 C815 1.400 . S
C816 C819 1.386 . S
H817 C833 0.930 . S
H818 C834 0.931 . S
C819 H807 0.929 . S
C819 C813 1.390 . S
C819 C816 1.386 . S
C820 C815 1.490 . S
C820 C822 1.395 . S
C820 C823 1.403 . S
H821 C827 0.930 . S
C822 H808 0.930 . S
C822 C820 1.395 . S
C822 C825 1.403 1_455 S
C823 C820 1.403 . S
C823 C824 1.524 . S
C823 C827 1.400 1_455 S
C824 H809 0.960 . S
C824 H810 0.960 . S
C824 H811 0.960 . S
C824 C823 1.524 . S
C825 C822 1.403 1_655 S
C825 C826 1.392 . S
C825 C829 1.495 . S
C826 C825 1.392 . S
C826 C827 1.385 . S
C826 C828 1.478 . S
C827 H821 0.930 . S
C827 C823 1.400 1_655 S
C827 C826 1.385 . S
C828 C826 1.478 . S
C828 C830 1.381 . S
C828 C834 1.383 . S
C829 C825 1.495 . S
C829 H835 0.959 1_655 S
C829 H836 0.961 . S
C829 H837 0.960 . S
C830 C828 1.381 . S
C830 C831 1.394 . S
C830 H838 0.930 . S
C831 C830 1.394 . S
C831 C832 1.383 . S
C831 H839 0.929 . S
C832 C831 1.383 . S
C832 C833 1.377 . S
C833 H817 0.930 . S
C833 C832 1.377 . S
C833 C834 1.379 . S
C834 H818 0.931 . S
C834 C828 1.383 . S
C834 C833 1.379 . S
H835 C829 0.959 1_455 S
H836 C829 0.961 . S
H837 C829 0.960 . S
H838 C830 0.930 . S
H839 C831 0.929 . S
H840 C848 0.929 . S
H841 C850 0.930 . S
H842 C852 0.930 . S
H843 C855 0.929 . S
H844 C858 0.930 . S
H845 C860 0.960 1_565 S
H846 C860 0.960 . S
H847 C860 0.960 . S
C848 H840 0.929 . S
C848 C849 1.377 . S
C848 C850 1.384 . S
C849 C848 1.377 . S
C849 C855 1.390 . S
C850 H841 0.930 . S
C850 C848 1.384 . S
C850 C851 1.372 . S
C851 C850 1.372 . S
C851 C852 1.400 . S
C851 C856 1.490 . S
C852 H842 0.930 . S
C852 C851 1.400 . S
C852 C855 1.386 . S
H853 C869 0.930 . S
H854 C870 0.931 . S
C855 H843 0.929 . S
C855 C849 1.390 . S
C855 C852 1.386 . S
C856 C851 1.490 . S
C856 C858 1.395 . S
C856 C859 1.403 . S
H857 C863 0.930 . S
C858 H844 0.930 . S
C858 C856 1.395 . S
C858 C861 1.403 . S
C859 C856 1.403 . S
C859 C860 1.524 . S
C859 C863 1.400 1_545 S
C860 H845 0.960 1_545 S
C860 H846 0.960 . S
C860 H847 0.960 . S
C860 C859 1.524 . S
C861 C858 1.403 . S
C861 C862 1.392 1_545 S
C861 C865 1.495 . S
C862 C861 1.392 1_565 S
C862 C863 1.385 . S
C862 C864 1.478 . S
C863 H857 0.930 . S
C863 C859 1.400 1_565 S
C863 C862 1.385 . S
C864 C862 1.478 . S
C864 C866 1.381 . S
C864 C870 1.383 . S
C865 C861 1.495 . S
C865 H871 0.959 . S
C865 H872 0.961 1_545 S
C865 H873 0.960 1_545 S
C866 C864 1.381 . S
C866 C867 1.394 . S
C866 H874 0.930 . S
C867 C866 1.394 . S
C867 C868 1.383 . S
C867 H875 0.929 . S
C868 C867 1.383 . S
C868 C869 1.377 . S
C869 H853 0.930 . S
C869 C868 1.377 . S
C869 C870 1.379 . S
C870 H854 0.931 . S
C870 C864 1.383 . S
C870 C869 1.379 . S
H871 C865 0.959 . S
H872 C865 0.961 1_565 S
H873 C865 0.960 1_565 S
H874 C866 0.930 . S
H875 C867 0.929 . S
H876 C884 0.929 . S
H877 C886 0.930 . S
H878 C888 0.930 . S
H879 C891 0.929 . S
H880 C894 0.930 . S
H881 C896 0.960 . S
H882 C896 0.960 . S
H883 C896 0.960 . S
C884 H876 0.929 . S
C884 C885 1.377 . S
C884 C886 1.384 . S
C885 C884 1.377 . S
C885 C891 1.390 . S
C886 H877 0.930 . S
C886 C884 1.384 . S
C886 C887 1.372 . S
C887 C886 1.372 . S
C887 C888 1.400 . S
C887 C892 1.490 . S
C888 H878 0.930 . S
C888 C887 1.400 . S
C888 C891 1.386 . S
H889 C905 0.930 . S
H890 C906 0.931 . S
C891 H879 0.929 . S
C891 C885 1.390 . S
C891 C888 1.386 . S
C892 C887 1.490 . S
C892 C894 1.395 . S
C892 C895 1.403 . S
H893 C899 0.930 . S
C894 H880 0.930 . S
C894 C892 1.395 . S
C894 C897 1.403 . S
C895 C892 1.403 . S
C895 C896 1.524 . S
C895 C899 1.400 . S
C896 H881 0.960 . S
C896 H882 0.960 . S
C896 H883 0.960 . S
C896 C895 1.524 . S
C897 C894 1.403 . S
C897 C898 1.392 . S
C897 C901 1.495 . S
C898 C897 1.392 . S
C898 C899 1.385 . S
C898 C900 1.478 . S
C899 H893 0.930 . S
C899 C895 1.400 . S
C899 C898 1.385 . S
C900 C898 1.478 . S
C900 C902 1.381 . S
C900 C906 1.383 . S
C901 C897 1.495 . S
C901 H907 0.959 . S
C901 H908 0.961 . S
C901 H909 0.960 . S
C902 C900 1.381 . S
C902 C903 1.394 . S
C902 H910 0.930 . S
C903 C902 1.394 . S
C903 C904 1.383 . S
C903 H911 0.929 . S
C904 C903 1.383 . S
C904 C905 1.377 . S
C905 H889 0.930 . S
C905 C904 1.377 . S
C905 C906 1.379 . S
C906 H890 0.931 . S
C906 C900 1.383 . S
C906 C905 1.379 . S
H907 C901 0.959 . S
H908 C901 0.961 . S
H909 C901 0.960 . S
H910 C902 0.930 . S
H911 C903 0.929 . S
H912 C920 0.929 . S
H913 C922 0.930 . S
H914 C924 0.930 . S
H915 C927 0.929 . S
H916 C930 0.930 . S
H917 C932 0.960 . S
H918 C932 0.960 . S
H919 C932 0.960 . S
C920 H912 0.929 . S
C920 C921 1.377 . S
C920 C922 1.384 . S
C921 C920 1.377 . S
C921 C927 1.390 . S
C922 H913 0.930 . S
C922 C920 1.384 . S
C922 C923 1.372 . S
C923 C922 1.372 . S
C923 C924 1.400 . S
C923 C928 1.490 . S
C924 H914 0.930 . S
C924 C923 1.400 . S
C924 C927 1.386 . S
H925 C941 0.930 . S
H926 C942 0.931 . S
C927 H915 0.929 . S
C927 C921 1.390 . S
C927 C924 1.386 . S
C928 C923 1.490 . S
C928 C930 1.395 . S
C928 C931 1.403 . S
H929 C935 0.930 . S
C930 H916 0.930 . S
C930 C928 1.395 . S
C930 C933 1.403 . S
C931 C928 1.403 . S
C931 C932 1.524 . S
C931 C935 1.400 . S
C932 H917 0.960 . S
C932 H918 0.960 . S
C932 H919 0.960 . S
C932 C931 1.524 . S
C933 C930 1.403 . S
C933 C934 1.392 . S
C933 C937 1.495 . S
C934 C933 1.392 . S
C934 C935 1.385 . S
C934 C936 1.478 . S
C935 H929 0.930 . S
C935 C931 1.400 . S
C935 C934 1.385 . S
C936 C934 1.478 . S
C936 C938 1.381 . S
C936 C942 1.383 . S
C937 C933 1.495 . S
C937 H943 0.959 . S
C937 H944 0.961 . S
C937 H945 0.960 . S
C938 C936 1.381 . S
C938 C939 1.394 . S
C938 H946 0.930 . S
C939 C938 1.394 . S
C939 C940 1.383 . S
C939 H947 0.929 . S
C940 C939 1.383 . S
C940 C941 1.377 . S
C941 H925 0.930 . S
C941 C940 1.377 . S
C941 C942 1.379 . S
C942 H926 0.931 . S
C942 C936 1.383 . S
C942 C941 1.379 . S
H943 C937 0.959 . S
H944 C937 0.961 . S
H945 C937 0.960 . S
H946 C938 0.930 . S
H947 C939 0.929 . S
H948 C956 0.929 . S
H949 C958 0.930 . S
H950 C960 0.930 . S
H951 C963 0.929 . S
H952 C966 0.930 . S
H953 C968 0.960 . S
H954 C968 0.960 . S
H955 C968 0.960 . S
C956 H948 0.929 . S
C956 C957 1.377 . S
C956 C958 1.384 . S
C957 C956 1.377 . S
C957 C963 1.390 . S
C958 H949 0.930 . S
C958 C956 1.384 . S
C958 C959 1.372 . S
C959 C958 1.372 . S
C959 C960 1.400 . S
C959 C964 1.490 . S
C960 H950 0.930 . S
C960 C959 1.400 . S
C960 C963 1.386 . S
H961 C977 0.930 . S
H962 C978 0.931 . S
C963 H951 0.929 . S
C963 C957 1.390 . S
C963 C960 1.386 . S
C964 C959 1.490 . S
C964 C966 1.395 . S
C964 C967 1.403 . S
H965 C971 0.930 . S
C966 H952 0.930 . S
C966 C964 1.395 . S
C966 C969 1.403 . S
C967 C964 1.403 . S
C967 C968 1.524 . S
C967 C971 1.400 . S
C968 H953 0.960 . S
C968 H954 0.960 . S
C968 H955 0.960 . S
C968 C967 1.524 . S
C969 C966 1.403 . S
C969 C970 1.392 . S
C969 C973 1.495 . S
C970 C969 1.392 . S
C970 C971 1.385 . S
C970 C972 1.478 . S
C971 H965 0.930 . S
C971 C967 1.400 . S
C971 C970 1.385 . S
C972 C970 1.478 . S
C972 C974 1.381 . S
C972 C978 1.383 . S
C973 C969 1.495 . S
C973 H979 0.959 . S
C973 H980 0.961 . S
C973 H981 0.960 . S
C974 C972 1.381 . S
C974 C975 1.394 . S
C974 H982 0.930 . S
C975 C974 1.394 . S
C975 C976 1.383 . S
C975 H983 0.929 . S
C976 C975 1.383 . S
C976 C977 1.377 . S
C977 H961 0.930 . S
C977 C976 1.377 . S
C977 C978 1.379 . S
C978 H962 0.931 . S
C978 C972 1.383 . S
C978 C977 1.379 . S
H979 C973 0.959 . S
H980 C973 0.961 . S
H981 C973 0.960 . S
H982 C974 0.930 . S
H983 C975 0.929 . S
H984 C992 0.929 . S
H985 C994 0.930 . S
H986 C996 0.930 . S
H987 C999 0.929 . S
H988 C1002 0.930 . S
H989 C1004 0.960 . S
H990 C1004 0.960 . S
H991 C1004 0.960 . S
C992 H984 0.929 . S
C992 C993 1.377 . S
C992 C994 1.384 . S
C993 C992 1.377 . S
C993 C999 1.390 . S
C994 H985 0.930 . S
C994 C992 1.384 . S
C994 C995 1.372 . S
C995 C994 1.372 . S
C995 C996 1.400 . S
C995 C1000 1.490 . S
C996 H986 0.930 . S
C996 C995 1.400 . S
C996 C999 1.386 . S
H997 C1013 0.930 . S
H998 C1014 0.931 . S
C999 H987 0.929 . S
C999 C993 1.390 . S
C999 C996 1.386 . S
C1000 C995 1.490 . S
C1000 C1002 1.395 . S
C1000 C1003 1.403 . S
H1001 C1007 0.930 . S
C1002 H988 0.930 . S
C1002 C1000 1.395 . S
C1002 C1005 1.403 . S
C1003 C1000 1.403 . S
C1003 C1004 1.524 . S
C1003 C1007 1.400 . S
C1004 H989 0.960 . S
C1004 H990 0.960 . S
C1004 H991 0.960 . S
C1004 C1003 1.524 . S
C1005 C1002 1.403 . S
C1005 C1006 1.392 . S
C1005 C1009 1.495 . S
C1006 C1005 1.392 . S
C1006 C1007 1.385 . S
C1006 C1008 1.478 . S
C1007 H1001 0.930 . S
C1007 C1003 1.400 . S
C1007 C1006 1.385 . S
C1008 C1006 1.478 . S
C1008 C1010 1.381 . S
C1008 C1014 1.383 . S
C1009 C1005 1.495 . S
C1009 H1015 0.959 . S
C1009 H1016 0.961 . S
C1009 H1017 0.960 . S
C1010 C1008 1.381 . S
C1010 C1011 1.394 . S
C1010 H1018 0.930 . S
C1011 C1010 1.394 . S
C1011 C1012 1.383 . S
C1011 H1019 0.929 . S
C1012 C1011 1.383 . S
C1012 C1013 1.377 . S
C1013 H997 0.930 . S
C1013 C1012 1.377 . S
C1013 C1014 1.379 . S
C1014 H998 0.931 . S
C1014 C1008 1.383 . S
C1014 C1013 1.379 . S
H1015 C1009 0.959 . S
H1016 C1009 0.961 . S
H1017 C1009 0.960 . S
H1018 C1010 0.930 . S
H1019 C1011 0.929 . S
H1020 C1028 0.929 . S
H1021 C1030 0.930 . S
H1022 C1032 0.930 . S
H1023 C1035 0.929 . S
H1024 C1038 0.930 . S
H1025 C1040 0.960 . S
H1026 C1040 0.960 . S
H1027 C1040 0.960 . S
C1028 H1020 0.929 . S
C1028 C1029 1.377 . S
C1028 C1030 1.384 . S
C1029 C1028 1.377 . S
C1029 C1035 1.390 . S
C1030 H1021 0.930 . S
C1030 C1028 1.384 . S
C1030 C1031 1.372 . S
C1031 C1030 1.372 . S
C1031 C1032 1.400 . S
C1031 C1036 1.490 . S
C1032 H1022 0.930 . S
C1032 C1031 1.400 . S
C1032 C1035 1.386 . S
H1033 C1049 0.930 . S
H1034 C1050 0.931 . S
C1035 H1023 0.929 . S
C1035 C1029 1.390 . S
C1035 C1032 1.386 . S
C1036 C1031 1.490 . S
C1036 C1038 1.395 . S
C1036 C1039 1.403 . S
H1037 C1043 0.930 . S
C1038 H1024 0.930 . S
C1038 C1036 1.395 . S
C1038 C1041 1.403 . S
C1039 C1036 1.403 . S
C1039 C1040 1.524 . S
C1039 C1043 1.400 . S
C1040 H1025 0.960 . S
C1040 H1026 0.960 . S
C1040 H1027 0.960 . S
C1040 C1039 1.524 . S
C1041 C1038 1.403 . S
C1041 C1042 1.392 . S
C1041 C1045 1.495 . S
C1042 C1041 1.392 . S
C1042 C1043 1.385 . S
C1042 C1044 1.478 . S
C1043 H1037 0.930 . S
C1043 C1039 1.400 . S
C1043 C1042 1.385 . S
C1044 C1042 1.478 . S
C1044 C1046 1.381 . S
C1044 C1050 1.383 . S
C1045 C1041 1.495 . S
C1045 H1051 0.959 . S
C1045 H1052 0.961 . S
C1045 H1053 0.960 . S
C1046 C1044 1.381 . S
C1046 C1047 1.394 . S
C1046 H1054 0.930 . S
C1047 C1046 1.394 . S
C1047 C1048 1.383 . S
C1047 H1055 0.929 . S
C1048 C1047 1.383 . S
C1048 C1049 1.377 . S
C1049 H1033 0.930 . S
C1049 C1048 1.377 . S
C1049 C1050 1.379 . S
C1050 H1034 0.931 . S
C1050 C1044 1.383 . S
C1050 C1049 1.379 . S
H1051 C1045 0.959 . S
H1052 C1045 0.961 . S
H1053 C1045 0.960 . S
H1054 C1046 0.930 . S
H1055 C1047 0.929 . S
H1056 C1064 0.929 . S
H1057 C1066 0.930 . S
H1058 C1068 0.930 . S
H1059 C1071 0.929 . S
H1060 C1074 0.930 . S
H1061 C1076 0.960 . S
H1062 C1076 0.960 . S
H1063 C1076 0.960 . S
C1064 H1056 0.929 . S
C1064 C1065 1.377 . S
C1064 C1066 1.384 . S
C1065 C1064 1.377 . S
C1065 C1071 1.390 . S
C1066 H1057 0.930 . S
C1066 C1064 1.384 . S
C1066 C1067 1.372 . S
C1067 C1066 1.372 . S
C1067 C1068 1.400 . S
C1067 C1072 1.490 . S
C1068 H1058 0.930 . S
C1068 C1067 1.400 . S
C1068 C1071 1.386 . S
H1069 C1085 0.930 . S
H1070 C1086 0.931 . S
C1071 H1059 0.929 . S
C1071 C1065 1.390 . S
C1071 C1068 1.386 . S
C1072 C1067 1.490 . S
C1072 C1074 1.395 . S
C1072 C1075 1.403 . S
H1073 C1079 0.930 . S
C1074 H1060 0.930 . S
C1074 C1072 1.395 . S
C1074 C1077 1.403 . S
C1075 C1072 1.403 . S
C1075 C1076 1.524 . S
C1075 C1079 1.400 . S
C1076 H1061 0.960 . S
C1076 H1062 0.960 . S
C1076 H1063 0.960 . S
C1076 C1075 1.524 . S
C1077 C1074 1.403 . S
C1077 C1078 1.392 . S
C1077 C1081 1.495 . S
C1078 C1077 1.392 . S
C1078 C1079 1.385 . S
C1078 C1080 1.478 . S
C1079 H1073 0.930 . S
C1079 C1075 1.400 . S
C1079 C1078 1.385 . S
C1080 C1078 1.478 . S
C1080 C1082 1.381 . S
C1080 C1086 1.383 . S
C1081 C1077 1.495 . S
C1081 H1087 0.959 . S
C1081 H1088 0.961 . S
C1081 H1089 0.960 . S
C1082 C1080 1.381 . S
C1082 C1083 1.394 . S
C1082 H1090 0.930 . S
C1083 C1082 1.394 . S
C1083 C1084 1.383 . S
C1083 H1091 0.929 . S
C1084 C1083 1.383 . S
C1084 C1085 1.377 . S
C1085 H1069 0.930 . S
C1085 C1084 1.377 . S
C1085 C1086 1.379 . S
C1086 H1070 0.931 . S
C1086 C1080 1.383 . S
C1086 C1085 1.379 . S
H1087 C1081 0.959 . S
H1088 C1081 0.961 . S
H1089 C1081 0.960 . S
H1090 C1082 0.930 . S
H1091 C1083 0.929 . S
H1092 C1100 0.929 . S
H1093 C1102 0.930 . S
H1094 C1104 0.930 . S
H1095 C1107 0.929 . S
H1096 C1110 0.930 . S
H1097 C1112 0.960 . S
H1098 C1112 0.960 . S
H1099 C1112 0.960 . S
C1100 H1092 0.929 . S
C1100 C1101 1.377 . S
C1100 C1102 1.384 . S
C1101 C1100 1.377 . S
C1101 C1107 1.390 . S
C1102 H1093 0.930 . S
C1102 C1100 1.384 . S
C1102 C1103 1.372 . S
C1103 C1102 1.372 . S
C1103 C1104 1.400 . S
C1103 C1108 1.490 . S
C1104 H1094 0.930 . S
C1104 C1103 1.400 . S
C1104 C1107 1.386 . S
H1105 C1121 0.930 . S
H1106 C1122 0.931 . S
C1107 H1095 0.929 . S
C1107 C1101 1.390 . S
C1107 C1104 1.386 . S
C1108 C1103 1.490 . S
C1108 C1110 1.395 . S
C1108 C1111 1.403 . S
H1109 C1115 0.930 . S
C1110 H1096 0.930 . S
C1110 C1108 1.395 . S
C1110 C1113 1.403 . S
C1111 C1108 1.403 . S
C1111 C1112 1.524 . S
C1111 C1115 1.400 . S
C1112 H1097 0.960 . S
C1112 H1098 0.960 . S
C1112 H1099 0.960 . S
C1112 C1111 1.524 . S
C1113 C1110 1.403 . S
C1113 C1114 1.392 . S
C1113 C1117 1.495 . S
C1114 C1113 1.392 . S
C1114 C1115 1.385 . S
C1114 C1116 1.478 . S
C1115 H1109 0.930 . S
C1115 C1111 1.400 . S
C1115 C1114 1.385 . S
C1116 C1114 1.478 . S
C1116 C1118 1.381 . S
C1116 C1122 1.383 . S
C1117 C1113 1.495 . S
C1117 H1123 0.959 . S
C1117 H1124 0.961 . S
C1117 H1125 0.960 . S
C1118 C1116 1.381 . S
C1118 C1119 1.394 . S
C1118 H1126 0.930 . S
C1119 C1118 1.394 . S
C1119 C1120 1.383 . S
C1119 H1127 0.929 . S
C1120 C1119 1.383 . S
C1120 C1121 1.377 . S
C1121 H1105 0.930 . S
C1121 C1120 1.377 . S
C1121 C1122 1.379 . S
C1122 H1106 0.931 . S
C1122 C1116 1.383 . S
C1122 C1121 1.379 . S
H1123 C1117 0.959 . S
H1124 C1117 0.961 . S
H1125 C1117 0.960 . S
H1126 C1118 0.930 . S
H1127 C1119 0.929 . S
H1128 C1136 0.929 . S
H1129 C1138 0.930 . S
H1130 C1140 0.930 . S
H1131 C1143 0.929 . S
H1132 C1146 0.930 . S
H1133 C1148 0.960 . S
H1134 C1148 0.960 . S
H1135 C1148 0.960 . S
C1136 H1128 0.929 . S
C1136 C1137 1.377 . S
C1136 C1138 1.384 . S
C1137 C1136 1.377 . S
C1137 C1143 1.390 . S
C1138 H1129 0.930 . S
C1138 C1136 1.384 . S
C1138 C1139 1.372 . S
C1139 C1138 1.372 . S
C1139 C1140 1.400 . S
C1139 C1144 1.490 . S
C1140 H1130 0.930 . S
C1140 C1139 1.400 . S
C1140 C1143 1.386 . S
H1141 C1157 0.930 . S
H1142 C1158 0.931 . S
C1143 H1131 0.929 . S
C1143 C1137 1.390 . S
C1143 C1140 1.386 . S
C1144 C1139 1.490 . S
C1144 C1146 1.395 . S
C1144 C1147 1.403 . S
H1145 C1151 0.930 . S
C1146 H1132 0.930 . S
C1146 C1144 1.395 . S
C1146 C1149 1.403 . S
C1147 C1144 1.403 . S
C1147 C1148 1.524 . S
C1147 C1151 1.400 . S
C1148 H1133 0.960 . S
C1148 H1134 0.960 . S
C1148 H1135 0.960 . S
C1148 C1147 1.524 . S
C1149 C1146 1.403 . S
C1149 C1150 1.392 . S
C1149 C1153 1.495 . S
C1150 C1149 1.392 . S
C1150 C1151 1.385 . S
C1150 C1152 1.478 . S
C1151 H1145 0.930 . S
C1151 C1147 1.400 . S
C1151 C1150 1.385 . S
C1152 C1150 1.478 . S
C1152 C1154 1.381 . S
C1152 C1158 1.383 . S
C1153 C1149 1.495 . S
C1153 H1159 0.959 . S
C1153 H1160 0.961 . S
C1153 H1161 0.960 . S
C1154 C1152 1.381 . S
C1154 C1155 1.394 . S
C1154 H1162 0.930 . S
C1155 C1154 1.394 . S
C1155 C1156 1.383 . S
C1155 H1163 0.929 . S
C1156 C1155 1.383 . S
C1156 C1157 1.377 . S
C1157 H1141 0.930 . S
C1157 C1156 1.377 . S
C1157 C1158 1.379 . S
C1158 H1142 0.931 . S
C1158 C1152 1.383 . S
C1158 C1157 1.379 . S
H1159 C1153 0.959 . S
H1160 C1153 0.961 . S
H1161 C1153 0.960 . S
H1162 C1154 0.930 . S
H1163 C1155 0.929 . S
H1164 C1172 0.929 . S
H1165 C1174 0.930 . S
H1166 C1176 0.930 . S
H1167 C1179 0.929 . S
H1168 C1182 0.930 . S
H1169 C1184 0.960 . S
H1170 C1184 0.960 . S
H1171 C1184 0.960 . S
C1172 H1164 0.929 . S
C1172 C1173 1.377 . S
C1172 C1174 1.384 . S
C1173 C1172 1.377 . S
C1173 C1179 1.390 . S
C1174 H1165 0.930 . S
C1174 C1172 1.384 . S
C1174 C1175 1.372 . S
C1175 C1174 1.372 . S
C1175 C1176 1.400 . S
C1175 C1180 1.490 . S
C1176 H1166 0.930 . S
C1176 C1175 1.400 . S
C1176 C1179 1.386 . S
H1177 C1193 0.930 . S
H1178 C1194 0.931 . S
C1179 H1167 0.929 . S
C1179 C1173 1.390 . S
C1179 C1176 1.386 . S
C1180 C1175 1.490 . S
C1180 C1182 1.395 . S
C1180 C1183 1.403 . S
H1181 C1187 0.930 . S
C1182 H1168 0.930 . S
C1182 C1180 1.395 . S
C1182 C1185 1.403 . S
C1183 C1180 1.403 . S
C1183 C1184 1.524 . S
C1183 C1187 1.400 . S
C1184 H1169 0.960 . S
C1184 H1170 0.960 . S
C1184 H1171 0.960 . S
C1184 C1183 1.524 . S
C1185 C1182 1.403 . S
C1185 C1186 1.392 . S
C1185 C1189 1.495 . S
C1186 C1185 1.392 . S
C1186 C1187 1.385 . S
C1186 C1188 1.478 . S
C1187 H1181 0.930 . S
C1187 C1183 1.400 . S
C1187 C1186 1.385 . S
C1188 C1186 1.478 . S
C1188 C1190 1.381 . S
C1188 C1194 1.383 . S
C1189 C1185 1.495 . S
C1189 H1195 0.959 . S
C1189 H1196 0.961 . S
C1189 H1197 0.960 . S
C1190 C1188 1.381 . S
C1190 C1191 1.394 . S
C1190 H1198 0.930 . S
C1191 C1190 1.394 . S
C1191 C1192 1.383 . S
C1191 H1199 0.929 . S
C1192 C1191 1.383 . S
C1192 C1193 1.377 . S
C1193 H1177 0.930 . S
C1193 C1192 1.377 . S
C1193 C1194 1.379 . S
C1194 H1178 0.931 . S
C1194 C1188 1.383 . S
C1194 C1193 1.379 . S
H1195 C1189 0.959 . S
H1196 C1189 0.961 . S
H1197 C1189 0.960 . S
H1198 C1190 0.930 . S
H1199 C1191 0.929 . S
H1200 C1208 0.929 . S
H1201 C1210 0.930 . S
H1202 C1212 0.930 . S
H1203 C1215 0.929 . S
H1204 C1218 0.930 . S
H1205 C1220 0.960 . S
H1206 C1220 0.960 . S
H1207 C1220 0.960 . S
C1208 H1200 0.929 . S
C1208 C1209 1.377 . S
C1208 C1210 1.384 . S
C1209 C1208 1.377 . S
C1209 C1215 1.390 . S
C1210 H1201 0.930 . S
C1210 C1208 1.384 . S
C1210 C1211 1.372 . S
C1211 C1210 1.372 . S
C1211 C1212 1.400 . S
C1211 C1216 1.490 . S
C1212 H1202 0.930 . S
C1212 C1211 1.400 . S
C1212 C1215 1.386 . S
H1213 C1229 0.930 . S
H1214 C1230 0.931 . S
C1215 H1203 0.929 . S
C1215 C1209 1.390 . S
C1215 C1212 1.386 . S
C1216 C1211 1.490 . S
C1216 C1218 1.395 . S
C1216 C1219 1.403 . S
H1217 C1223 0.930 . S
C1218 H1204 0.930 . S
C1218 C1216 1.395 . S
C1218 C1221 1.403 . S
C1219 C1216 1.403 . S
C1219 C1220 1.524 . S
C1219 C1223 1.400 . S
C1220 H1205 0.960 . S
C1220 H1206 0.960 . S
C1220 H1207 0.960 . S
C1220 C1219 1.524 . S
C1221 C1218 1.403 . S
C1221 C1222 1.392 . S
C1221 C1225 1.495 . S
C1222 C1221 1.392 . S
C1222 C1223 1.385 . S
C1222 C1224 1.478 . S
C1223 H1217 0.930 . S
C1223 C1219 1.400 . S
C1223 C1222 1.385 . S
C1224 C1222 1.478 . S
C1224 C1226 1.381 . S
C1224 C1230 1.383 . S
C1225 C1221 1.495 . S
C1225 H1231 0.959 . S
C1225 H1232 0.961 . S
C1225 H1233 0.960 . S
C1226 C1224 1.381 . S
C1226 C1227 1.394 . S
C1226 H1234 0.930 . S
C1227 C1226 1.394 . S
C1227 C1228 1.383 . S
C1227 H1235 0.929 . S
C1228 C1227 1.383 . S
C1228 C1229 1.377 . S
C1229 H1213 0.930 . S
C1229 C1228 1.377 . S
C1229 C1230 1.379 . S
C1230 H1214 0.931 . S
C1230 C1224 1.383 . S
C1230 C1229 1.379 . S
H1231 C1225 0.959 . S
H1232 C1225 0.961 . S
H1233 C1225 0.960 . S
H1234 C1226 0.930 . S
H1235 C1227 0.929 . S
H1236 C1244 0.929 . S
H1237 C1246 0.930 . S
H1238 C1248 0.930 . S
H1239 C1251 0.929 . S
H1240 C1254 0.930 . S
H1241 C1256 0.960 . S
H1242 C1256 0.960 . S
H1243 C1256 0.960 . S
C1244 H1236 0.929 . S
C1244 C1245 1.377 . S
C1244 C1246 1.384 . S
C1245 C1244 1.377 . S
C1245 C1251 1.390 . S
C1246 H1237 0.930 . S
C1246 C1244 1.384 . S
C1246 C1247 1.372 . S
C1247 C1246 1.372 . S
C1247 C1248 1.400 . S
C1247 C1252 1.490 . S
C1248 H1238 0.930 . S
C1248 C1247 1.400 . S
C1248 C1251 1.386 . S
H1249 C1265 0.930 . S
H1250 C1266 0.931 . S
C1251 H1239 0.929 . S
C1251 C1245 1.390 . S
C1251 C1248 1.386 . S
C1252 C1247 1.490 . S
C1252 C1254 1.395 . S
C1252 C1255 1.403 . S
H1253 C1259 0.930 . S
C1254 H1240 0.930 . S
C1254 C1252 1.395 . S
C1254 C1257 1.403 . S
C1255 C1252 1.403 . S
C1255 C1256 1.524 . S
C1255 C1259 1.400 . S
C1256 H1241 0.960 . S
C1256 H1242 0.960 . S
C1256 H1243 0.960 . S
C1256 C1255 1.524 . S
C1257 C1254 1.403 . S
C1257 C1258 1.392 . S
C1257 C1261 1.495 . S
C1258 C1257 1.392 . S
C1258 C1259 1.385 . S
C1258 C1260 1.478 . S
C1259 H1253 0.930 . S
C1259 C1255 1.400 . S
C1259 C1258 1.385 . S
C1260 C1258 1.478 . S
C1260 C1262 1.381 . S
C1260 C1266 1.383 . S
C1261 C1257 1.495 . S
C1261 H1267 0.959 . S
C1261 H1268 0.961 . S
C1261 H1269 0.960 . S
C1262 C1260 1.381 . S
C1262 C1263 1.394 . S
C1262 H1270 0.930 . S
C1263 C1262 1.394 . S
C1263 C1264 1.383 . S
C1263 H1271 0.929 . S
C1264 C1263 1.383 . S
C1264 C1265 1.377 . S
C1265 H1249 0.930 . S
C1265 C1264 1.377 . S
C1265 C1266 1.379 . S
C1266 H1250 0.931 . S
C1266 C1260 1.383 . S
C1266 C1265 1.379 . S
H1267 C1261 0.959 . S
H1268 C1261 0.961 . S
H1269 C1261 0.960 . S
H1270 C1262 0.930 . S
H1271 C1263 0.929 . S
H1272 C1280 0.929 . S
H1273 C1282 0.930 . S
H1274 C1284 0.930 . S
H1275 C1287 0.929 . S
H1276 C1290 0.930 . S
H1277 C1292 0.960 . S
H1278 C1292 0.960 . S
H1279 C1292 0.960 . S
C1280 H1272 0.929 . S
C1280 C1281 1.377 . S
C1280 C1282 1.384 . S
C1281 C1280 1.377 . S
C1281 C1287 1.390 . S
C1282 H1273 0.930 . S
C1282 C1280 1.384 . S
C1282 C1283 1.372 . S
C1283 C1282 1.372 . S
C1283 C1284 1.400 . S
C1283 C1288 1.490 . S
C1284 H1274 0.930 . S
C1284 C1283 1.400 . S
C1284 C1287 1.386 . S
H1285 C1301 0.930 . S
H1286 C1302 0.931 . S
C1287 H1275 0.929 . S
C1287 C1281 1.390 . S
C1287 C1284 1.386 . S
C1288 C1283 1.490 . S
C1288 C1290 1.395 . S
C1288 C1291 1.403 . S
H1289 C1295 0.930 . S
C1290 H1276 0.930 . S
C1290 C1288 1.395 . S
C1290 C1293 1.403 . S
C1291 C1288 1.403 . S
C1291 C1292 1.524 . S
C1291 C1295 1.400 . S
C1292 H1277 0.960 . S
C1292 H1278 0.960 . S
C1292 H1279 0.960 . S
C1292 C1291 1.524 . S
C1293 C1290 1.403 . S
C1293 C1294 1.392 . S
C1293 C1297 1.495 . S
C1294 C1293 1.392 . S
C1294 C1295 1.385 . S
C1294 C1296 1.478 . S
C1295 H1289 0.930 . S
C1295 C1291 1.400 . S
C1295 C1294 1.385 . S
C1296 C1294 1.478 . S
C1296 C1298 1.381 . S
C1296 C1302 1.383 . S
C1297 C1293 1.495 . S
C1297 H1303 0.959 . S
C1297 H1304 0.961 . S
C1297 H1305 0.960 . S
C1298 C1296 1.381 . S
C1298 C1299 1.394 . S
C1298 H1306 0.930 . S
C1299 C1298 1.394 . S
C1299 C1300 1.383 . S
C1299 H1307 0.929 . S
C1300 C1299 1.383 . S
C1300 C1301 1.377 . S
C1301 H1285 0.930 . S
C1301 C1300 1.377 . S
C1301 C1302 1.379 . S
C1302 H1286 0.931 . S
C1302 C1296 1.383 . S
C1302 C1301 1.379 . S
H1303 C1297 0.959 . S
H1304 C1297 0.961 . S
H1305 C1297 0.960 . S
H1306 C1298 0.930 . S
H1307 C1299 0.929 . S
H1308 C1316 0.929 . S
H1309 C1318 0.930 . S
H1310 C1320 0.930 . S
H1311 C1323 0.929 . S
H1312 C1326 0.930 . S
H1313 C1328 0.960 . S
H1314 C1328 0.960 . S
H1315 C1328 0.960 . S
C1316 H1308 0.929 . S
C1316 C1317 1.377 . S
C1316 C1318 1.384 . S
C1317 C1316 1.377 . S
C1317 C1323 1.390 . S
C1318 H1309 0.930 . S
C1318 C1316 1.384 . S
C1318 C1319 1.372 . S
C1319 C1318 1.372 . S
C1319 C1320 1.400 . S
C1319 C1324 1.490 . S
C1320 H1310 0.930 . S
C1320 C1319 1.400 . S
C1320 C1323 1.386 . S
H1321 C1337 0.930 . S
H1322 C1338 0.931 . S
C1323 H1311 0.929 . S
C1323 C1317 1.390 . S
C1323 C1320 1.386 . S
C1324 C1319 1.490 . S
C1324 C1326 1.395 . S
C1324 C1327 1.403 . S
H1325 C1331 0.930 . S
C1326 H1312 0.930 . S
C1326 C1324 1.395 . S
C1326 C1329 1.403 . S
C1327 C1324 1.403 . S
C1327 C1328 1.524 . S
C1327 C1331 1.400 . S
C1328 H1313 0.960 . S
C1328 H1314 0.960 . S
C1328 H1315 0.960 . S
C1328 C1327 1.524 . S
C1329 C1326 1.403 . S
C1329 C1330 1.392 . S
C1329 C1333 1.495 . S
C1330 C1329 1.392 . S
C1330 C1331 1.385 . S
C1330 C1332 1.478 . S
C1331 H1325 0.930 . S
C1331 C1327 1.400 . S
C1331 C1330 1.385 . S
C1332 C1330 1.478 . S
C1332 C1334 1.381 . S
C1332 C1338 1.383 . S
C1333 C1329 1.495 . S
C1333 H1339 0.959 . S
C1333 H1340 0.961 . S
C1333 H1341 0.960 . S
C1334 C1332 1.381 . S
C1334 C1335 1.394 . S
C1334 H1342 0.930 . S
C1335 C1334 1.394 . S
C1335 C1336 1.383 . S
C1335 H1343 0.929 . S
C1336 C1335 1.383 . S
C1336 C1337 1.377 . S
C1337 H1321 0.930 . S
C1337 C1336 1.377 . S
C1337 C1338 1.379 . S
C1338 H1322 0.931 . S
C1338 C1332 1.383 . S
C1338 C1337 1.379 . S
H1339 C1333 0.959 . S
H1340 C1333 0.961 . S
H1341 C1333 0.960 . S
H1342 C1334 0.930 . S
H1343 C1335 0.929 . S
H1344 C1352 0.929 . S
H1345 C1354 0.930 . S
H1346 C1356 0.930 . S
H1347 C1359 0.929 . S
H1348 C1362 0.930 . S
H1349 C1364 0.960 . S
H1350 C1364 0.960 . S
H1351 C1364 0.960 . S
C1352 H1344 0.929 . S
C1352 C1353 1.377 . S
C1352 C1354 1.384 . S
C1353 C1352 1.377 . S
C1353 C1359 1.390 . S
C1354 H1345 0.930 . S
C1354 C1352 1.384 . S
C1354 C1355 1.372 . S
C1355 C1354 1.372 . S
C1355 C1356 1.400 . S
C1355 C1360 1.490 . S
C1356 H1346 0.930 . S
C1356 C1355 1.400 . S
C1356 C1359 1.386 . S
H1357 C1373 0.930 . S
H1358 C1374 0.931 . S
C1359 H1347 0.929 . S
C1359 C1353 1.390 . S
C1359 C1356 1.386 . S
C1360 C1355 1.490 . S
C1360 C1362 1.395 . S
C1360 C1363 1.403 . S
H1361 C1367 0.930 . S
C1362 H1348 0.930 . S
C1362 C1360 1.395 . S
C1362 C1365 1.403 . S
C1363 C1360 1.403 . S
C1363 C1364 1.524 . S
C1363 C1367 1.400 . S
C1364 H1349 0.960 . S
C1364 H1350 0.960 . S
C1364 H1351 0.960 . S
C1364 C1363 1.524 . S
C1365 C1362 1.403 . S
C1365 C1366 1.392 . S
C1365 C1369 1.495 . S
C1366 C1365 1.392 . S
C1366 C1367 1.385 . S
C1366 C1368 1.478 . S
C1367 H1361 0.930 . S
C1367 C1363 1.400 . S
C1367 C1366 1.385 . S
C1368 C1366 1.478 . S
C1368 C1370 1.381 . S
C1368 C1374 1.383 . S
C1369 C1365 1.495 . S
C1369 H1375 0.959 . S
C1369 H1376 0.961 . S
C1369 H1377 0.960 . S
C1370 C1368 1.381 . S
C1370 C1371 1.394 . S
C1370 H1378 0.930 . S
C1371 C1370 1.394 . S
C1371 C1372 1.383 . S
C1371 H1379 0.929 . S
C1372 C1371 1.383 . S
C1372 C1373 1.377 . S
C1373 H1357 0.930 . S
C1373 C1372 1.377 . S
C1373 C1374 1.379 . S
C1374 H1358 0.931 . S
C1374 C1368 1.383 . S
C1374 C1373 1.379 . S
H1375 C1369 0.959 . S
H1376 C1369 0.961 . S
H1377 C1369 0.960 . S
H1378 C1370 0.930 . S
H1379 C1371 0.929 . S
H1380 C1388 0.929 . S
H1381 C1390 0.930 . S
H1382 C1392 0.930 . S
H1383 C1395 0.929 . S
H1384 C1398 0.930 . S
H1385 C1400 0.960 . S
H1386 C1400 0.960 . S
H1387 C1400 0.960 . S
C1388 H1380 0.929 . S
C1388 C1389 1.377 . S
C1388 C1390 1.384 . S
C1389 C1388 1.377 . S
C1389 C1395 1.390 . S
C1390 H1381 0.930 . S
C1390 C1388 1.384 . S
C1390 C1391 1.372 . S
C1391 C1390 1.372 . S
C1391 C1392 1.400 . S
C1391 C1396 1.490 . S
C1392 H1382 0.930 . S
C1392 C1391 1.400 . S
C1392 C1395 1.386 . S
H1393 C1409 0.930 . S
H1394 C1410 0.931 . S
C1395 H1383 0.929 . S
C1395 C1389 1.390 . S
C1395 C1392 1.386 . S
C1396 C1391 1.490 . S
C1396 C1398 1.395 . S
C1396 C1399 1.403 . S
H1397 C1403 0.930 . S
C1398 H1384 0.930 . S
C1398 C1396 1.395 . S
C1398 C1401 1.403 . S
C1399 C1396 1.403 . S
C1399 C1400 1.524 . S
C1399 C1403 1.400 . S
C1400 H1385 0.960 . S
C1400 H1386 0.960 . S
C1400 H1387 0.960 . S
C1400 C1399 1.524 . S
C1401 C1398 1.403 . S
C1401 C1402 1.392 . S
C1401 C1405 1.495 . S
C1402 C1401 1.392 . S
C1402 C1403 1.385 . S
C1402 C1404 1.478 . S
C1403 H1397 0.930 . S
C1403 C1399 1.400 . S
C1403 C1402 1.385 . S
C1404 C1402 1.478 . S
C1404 C1406 1.381 . S
C1404 C1410 1.383 . S
C1405 C1401 1.495 . S
C1405 H1411 0.959 . S
C1405 H1412 0.961 . S
C1405 H1413 0.960 . S
C1406 C1404 1.381 . S
C1406 C1407 1.394 . S
C1406 H1414 0.930 . S
C1407 C1406 1.394 . S
C1407 C1408 1.383 . S
C1407 H1415 0.929 . S
C1408 C1407 1.383 . S
C1408 C1409 1.377 . S
C1409 H1393 0.930 . S
C1409 C1408 1.377 . S
C1409 C1410 1.379 . S
C1410 H1394 0.931 . S
C1410 C1404 1.383 . S
C1410 C1409 1.379 . S
H1411 C1405 0.959 . S
H1412 C1405 0.961 . S
H1413 C1405 0.960 . S
H1414 C1406 0.930 . S
H1415 C1407 0.929 . S
H1416 C1424 0.929 . S
H1417 C1426 0.930 . S
H1418 C1428 0.930 . S
H1419 C1431 0.929 . S
H1420 C1434 0.930 . S
H1421 C1436 0.960 . S
H1422 C1436 0.960 . S
H1423 C1436 0.960 . S
C1424 H1416 0.929 . S
C1424 C1425 1.377 . S
C1424 C1426 1.384 . S
C1425 C1424 1.377 . S
C1425 C1431 1.390 . S
C1426 H1417 0.930 . S
C1426 C1424 1.384 . S
C1426 C1427 1.372 . S
C1427 C1426 1.372 . S
C1427 C1428 1.400 . S
C1427 C1432 1.490 . S
C1428 H1418 0.930 . S
C1428 C1427 1.400 . S
C1428 C1431 1.386 . S
H1429 C1445 0.930 . S
H1430 C1446 0.931 . S
C1431 H1419 0.929 . S
C1431 C1425 1.390 . S
C1431 C1428 1.386 . S
C1432 C1427 1.490 . S
C1432 C1434 1.395 . S
C1432 C1435 1.403 . S
H1433 C1439 0.930 . S
C1434 H1420 0.930 . S
C1434 C1432 1.395 . S
C1434 C1437 1.403 . S
C1435 C1432 1.403 . S
C1435 C1436 1.524 . S
C1435 C1439 1.400 . S
C1436 H1421 0.960 . S
C1436 H1422 0.960 . S
C1436 H1423 0.960 . S
C1436 C1435 1.524 . S
C1437 C1434 1.403 . S
C1437 C1438 1.392 . S
C1437 C1441 1.495 . S
C1438 C1437 1.392 . S
C1438 C1439 1.385 . S
C1438 C1440 1.478 . S
C1439 H1433 0.930 . S
C1439 C1435 1.400 . S
C1439 C1438 1.385 . S
C1440 C1438 1.478 . S
C1440 C1442 1.381 . S
C1440 C1446 1.383 . S
C1441 C1437 1.495 . S
C1441 H1447 0.959 . S
C1441 H1448 0.961 . S
C1441 H1449 0.960 . S
C1442 C1440 1.381 . S
C1442 C1443 1.394 . S
C1442 H1450 0.930 . S
C1443 C1442 1.394 . S
C1443 C1444 1.383 . S
C1443 H1451 0.929 . S
C1444 C1443 1.383 . S
C1444 C1445 1.377 . S
C1445 H1429 0.930 . S
C1445 C1444 1.377 . S
C1445 C1446 1.379 . S
C1446 H1430 0.931 . S
C1446 C1440 1.383 . S
C1446 C1445 1.379 . S
H1447 C1441 0.959 . S
H1448 C1441 0.961 . S
H1449 C1441 0.960 . S
H1450 C1442 0.930 . S
H1451 C1443 0.929 . S
H1452 C1460 0.929 . S
H1453 C1462 0.930 . S
H1454 C1464 0.930 . S
H1455 C1467 0.929 . S
H1456 C1470 0.930 . S
H1457 C1472 0.960 . S
H1458 C1472 0.960 . S
H1459 C1472 0.960 . S
C1460 H1452 0.929 . S
C1460 C1461 1.377 . S
C1460 C1462 1.384 . S
C1461 C1460 1.377 . S
C1461 C1467 1.390 . S
C1462 H1453 0.930 . S
C1462 C1460 1.384 . S
C1462 C1463 1.372 . S
C1463 C1462 1.372 . S
C1463 C1464 1.400 . S
C1463 C1468 1.490 . S
C1464 H1454 0.930 . S
C1464 C1463 1.400 . S
C1464 C1467 1.386 . S
H1465 C1481 0.930 . S
H1466 C1482 0.931 . S
C1467 H1455 0.929 . S
C1467 C1461 1.390 . S
C1467 C1464 1.386 . S
C1468 C1463 1.490 . S
C1468 C1470 1.395 . S
C1468 C1471 1.403 . S
H1469 C1475 0.930 . S
C1470 H1456 0.930 . S
C1470 C1468 1.395 . S
C1470 C1473 1.403 . S
C1471 C1468 1.403 . S
C1471 C1472 1.524 . S
C1471 C1475 1.400 . S
C1472 H1457 0.960 . S
C1472 H1458 0.960 . S
C1472 H1459 0.960 . S
C1472 C1471 1.524 . S
C1473 C1470 1.403 . S
C1473 C1474 1.392 . S
C1473 C1477 1.495 . S
C1474 C1473 1.392 . S
C1474 C1475 1.385 . S
C1474 C1476 1.478 . S
C1475 H1469 0.930 . S
C1475 C1471 1.400 . S
C1475 C1474 1.385 . S
C1476 C1474 1.478 . S
C1476 C1478 1.381 . S
C1476 C1482 1.383 . S
C1477 C1473 1.495 . S
C1477 H1483 0.959 . S
C1477 H1484 0.961 . S
C1477 H1485 0.960 . S
C1478 C1476 1.381 . S
C1478 C1479 1.394 . S
C1478 H1486 0.930 . S
C1479 C1478 1.394 . S
C1479 C1480 1.383 . S
C1479 H1487 0.929 . S
C1480 C1479 1.383 . S
C1480 C1481 1.377 . S
C1481 H1465 0.930 . S
C1481 C1480 1.377 . S
C1481 C1482 1.379 . S
C1482 H1466 0.931 . S
C1482 C1476 1.383 . S
C1482 C1481 1.379 . S
H1483 C1477 0.959 . S
H1484 C1477 0.961 . S
H1485 C1477 0.960 . S
H1486 C1478 0.930 . S
H1487 C1479 0.929 . S
H1488 C1496 0.929 . S
H1489 C1498 0.930 . S
H1490 C1500 0.930 . S
H1491 C1503 0.929 . S
H1492 C1506 0.930 . S
H1493 C1508 0.960 . S
H1494 C1508 0.960 . S
H1495 C1508 0.960 . S
C1496 H1488 0.929 . S
C1496 C1497 1.377 . S
C1496 C1498 1.384 . S
C1497 C1496 1.377 . S
C1497 C1503 1.390 . S
C1498 H1489 0.930 . S
C1498 C1496 1.384 . S
C1498 C1499 1.372 . S
C1499 C1498 1.372 . S
C1499 C1500 1.400 . S
C1499 C1504 1.490 . S
C1500 H1490 0.930 . S
C1500 C1499 1.400 . S
C1500 C1503 1.386 . S
H1501 C1517 0.930 . S
H1502 C1518 0.931 . S
C1503 H1491 0.929 . S
C1503 C1497 1.390 . S
C1503 C1500 1.386 . S
C1504 C1499 1.490 . S
C1504 C1506 1.395 . S
C1504 C1507 1.403 . S
H1505 C1511 0.930 . S
C1506 H1492 0.930 . S
C1506 C1504 1.395 . S
C1506 C1509 1.403 . S
C1507 C1504 1.403 . S
C1507 C1508 1.524 . S
C1507 C1511 1.400 . S
C1508 H1493 0.960 . S
C1508 H1494 0.960 . S
C1508 H1495 0.960 . S
C1508 C1507 1.524 . S
C1509 C1506 1.403 . S
C1509 C1510 1.392 . S
C1509 C1513 1.495 . S
C1510 C1509 1.392 . S
C1510 C1511 1.385 . S
C1510 C1512 1.478 . S
C1511 H1505 0.930 . S
C1511 C1507 1.400 . S
C1511 C1510 1.385 . S
C1512 C1510 1.478 . S
C1512 C1514 1.381 . S
C1512 C1518 1.383 . S
C1513 C1509 1.495 . S
C1513 H1519 0.959 . S
C1513 H1520 0.961 . S
C1513 H1521 0.960 . S
C1514 C1512 1.381 . S
C1514 C1515 1.394 . S
C1514 H1522 0.930 . S
C1515 C1514 1.394 . S
C1515 C1516 1.383 . S
C1515 H1523 0.929 . S
C1516 C1515 1.383 . S
C1516 C1517 1.377 . S
C1517 H1501 0.930 . S
C1517 C1516 1.377 . S
C1517 C1518 1.379 . S
C1518 H1502 0.931 . S
C1518 C1512 1.383 . S
C1518 C1517 1.379 . S
H1519 C1513 0.959 . S
H1520 C1513 0.961 . S
H1521 C1513 0.960 . S
H1522 C1514 0.930 . S
H1523 C1515 0.929 . S
H1524 C1532 0.929 . S
H1525 C1534 0.930 . S
H1526 C1536 0.930 . S
H1527 C1539 0.929 . S
H1528 C1542 0.930 . S
H1529 C1544 0.960 . S
H1530 C1544 0.960 . S
H1531 C1544 0.960 . S
C1532 H1524 0.929 . S
C1532 C1533 1.377 . S
C1532 C1534 1.384 . S
C1533 C1532 1.377 . S
C1533 C1539 1.390 . S
C1534 H1525 0.930 . S
C1534 C1532 1.384 . S
C1534 C1535 1.372 . S
C1535 C1534 1.372 . S
C1535 C1536 1.400 . S
C1535 C1540 1.490 . S
C1536 H1526 0.930 . S
C1536 C1535 1.400 . S
C1536 C1539 1.386 . S
H1537 C1553 0.930 . S
H1538 C1554 0.931 . S
C1539 H1527 0.929 . S
C1539 C1533 1.390 . S
C1539 C1536 1.386 . S
C1540 C1535 1.490 . S
C1540 C1542 1.395 . S
C1540 C1543 1.403 . S
H1541 C1547 0.930 . S
C1542 H1528 0.930 . S
C1542 C1540 1.395 . S
C1542 C1545 1.403 . S
C1543 C1540 1.403 . S
C1543 C1544 1.524 . S
C1543 C1547 1.400 . S
C1544 H1529 0.960 . S
C1544 H1530 0.960 . S
C1544 H1531 0.960 . S
C1544 C1543 1.524 . S
C1545 C1542 1.403 . S
C1545 C1546 1.392 . S
C1545 C1549 1.495 . S
C1546 C1545 1.392 . S
C1546 C1547 1.385 . S
C1546 C1548 1.478 . S
C1547 H1541 0.930 . S
C1547 C1543 1.400 . S
C1547 C1546 1.385 . S
C1548 C1546 1.478 . S
C1548 C1550 1.381 . S
C1548 C1554 1.383 . S
C1549 C1545 1.495 . S
C1549 H1555 0.959 . S
C1549 H1556 0.961 . S
C1549 H1557 0.960 . S
C1550 C1548 1.381 . S
C1550 C1551 1.394 . S
C1550 H1558 0.930 . S
C1551 C1550 1.394 . S
C1551 C1552 1.383 . S
C1551 H1559 0.929 . S
C1552 C1551 1.383 . S
C1552 C1553 1.377 . S
C1553 H1537 0.930 . S
C1553 C1552 1.377 . S
C1553 C1554 1.379 . S
C1554 H1538 0.931 . S
C1554 C1548 1.383 . S
C1554 C1553 1.379 . S
H1555 C1549 0.959 . S
H1556 C1549 0.961 . S
H1557 C1549 0.960 . S
H1558 C1550 0.930 . S
H1559 C1551 0.929 . S
H1560 C1568 0.929 . S
H1561 C1570 0.930 . S
H1562 C1572 0.930 . S
H1563 C1575 0.929 . S
H1564 C1578 0.930 . S
H1565 C1580 0.960 . S
H1566 C1580 0.960 . S
H1567 C1580 0.960 . S
C1568 H1560 0.929 . S
C1568 C1569 1.377 . S
C1568 C1570 1.384 . S
C1569 C1568 1.377 . S
C1569 C1575 1.390 . S
C1570 H1561 0.930 . S
C1570 C1568 1.384 . S
C1570 C1571 1.372 . S
C1571 C1570 1.372 . S
C1571 C1572 1.400 . S
C1571 C1576 1.490 . S
C1572 H1562 0.930 . S
C1572 C1571 1.400 . S
C1572 C1575 1.386 . S
H1573 C1589 0.930 . S
H1574 C1590 0.931 . S
C1575 H1563 0.929 . S
C1575 C1569 1.390 . S
C1575 C1572 1.386 . S
C1576 C1571 1.490 . S
C1576 C1578 1.395 1_556 S
C1576 C1579 1.403 . S
H1577 C1583 0.934 . S
C1578 H1564 0.930 . S
C1578 C1576 1.395 1_554 S
C1578 C1581 1.403 . S
C1579 C1576 1.403 . S
C1579 C1580 1.524 . S
C1579 C1583 1.425 . S
C1580 H1565 0.960 . S
C1580 H1566 0.960 . S
C1580 H1567 0.960 . S
C1580 C1579 1.524 . S
C1581 C1578 1.403 . S
C1581 C1582 1.392 . S
C1581 C1585 1.495 . S
C1582 C1581 1.392 . S
C1582 C1583 1.358 1_554 S
C1582 C1584 1.478 . S
C1583 H1577 0.934 . S
C1583 C1579 1.425 . S
C1583 C1582 1.358 1_556 S
C1584 C1582 1.478 . S
C1584 C1586 1.381 . S
C1584 C1590 1.383 . S
C1585 C1581 1.495 . S
C1585 H1591 0.959 . S
C1585 H1592 0.961 . S
C1585 H1593 0.960 . S
C1586 C1584 1.381 . S
C1586 C1587 1.394 . S
C1586 H1594 0.930 . S
C1587 C1586 1.394 . S
C1587 C1588 1.383 . S
C1587 H1595 0.929 . S
C1588 C1587 1.383 . S
C1588 C1589 1.377 . S
C1589 H1573 0.930 . S
C1589 C1588 1.377 . S
C1589 C1590 1.379 . S
C1590 H1574 0.931 . S
C1590 C1584 1.383 . S
C1590 C1589 1.379 . S
H1591 C1585 0.959 . S
H1592 C1585 0.961 . S
H1593 C1585 0.960 . S
H1594 C1586 0.930 . S
H1595 C1587 0.929 . S
H1596 C1604 0.929 . S
H1597 C1606 0.930 . S
H1598 C1608 0.930 . S
H1599 C1611 0.929 . S
H1600 C1614 0.930 . S
H1601 C1616 0.960 . S
H1602 C1616 0.960 . S
H1603 C1616 0.960 . S
C1604 H1596 0.929 . S
C1604 C1605 1.377 . S
C1604 C1606 1.384 . S
C1605 C1604 1.377 . S
C1605 C1611 1.390 . S
C1606 H1597 0.930 . S
C1606 C1604 1.384 . S
C1606 C1607 1.372 . S
C1607 C1606 1.372 . S
C1607 C1608 1.400 . S
C1607 C1612 1.490 . S
C1608 H1598 0.930 . S
C1608 C1607 1.400 . S
C1608 C1611 1.386 . S
H1609 C1625 0.930 . S
H1610 C1626 0.931 . S
C1611 H1599 0.929 . S
C1611 C1605 1.390 . S
C1611 C1608 1.386 . S
C1612 C1607 1.490 . S
C1612 C1614 1.395 . S
C1612 C1615 1.403 . S
H1613 C1619 0.930 . S
C1614 H1600 0.930 . S
C1614 C1612 1.395 . S
C1614 C1617 1.403 1_455 S
C1615 C1612 1.403 . S
C1615 C1616 1.524 . S
C1615 C1619 1.400 1_455 S
C1616 H1601 0.960 . S
C1616 H1602 0.960 . S
C1616 H1603 0.960 . S
C1616 C1615 1.524 . S
C1617 C1614 1.403 1_655 S
C1617 C1618 1.392 . S
C1617 C1621 1.495 . S
C1618 C1617 1.392 . S
C1618 C1619 1.385 . S
C1618 C1620 1.478 . S
C1619 H1613 0.930 . S
C1619 C1615 1.400 1_655 S
C1619 C1618 1.385 . S
C1620 C1618 1.478 . S
C1620 C1622 1.381 . S
C1620 C1626 1.383 . S
C1621 C1617 1.495 . S
C1621 H1627 0.959 . S
C1621 H1628 0.961 . S
C1621 H1629 0.960 . S
C1622 C1620 1.381 . S
C1622 C1623 1.394 . S
C1622 H1630 0.930 . S
C1623 C1622 1.394 . S
C1623 C1624 1.383 . S
C1623 H1631 0.929 . S
C1624 C1623 1.383 . S
C1624 C1625 1.377 . S
C1625 H1609 0.930 . S
C1625 C1624 1.377 . S
C1625 C1626 1.379 . S
C1626 H1610 0.931 . S
C1626 C1620 1.383 . S
C1626 C1625 1.379 . S
H1627 C1621 0.959 . S
H1628 C1621 0.961 . S
H1629 C1621 0.960 . S
H1630 C1622 0.930 . S
H1631 C1623 0.929 . S
H1632 C1640 0.929 . S
H1633 C1642 0.930 . S
H1634 C1644 0.930 . S
H1635 C1647 0.929 . S
H1636 C1650 0.930 . S
H1637 C1652 0.960 . S
H1638 C1652 0.960 . S
H1639 C1652 0.995 . S
C1640 H1632 0.929 . S
C1640 C1641 1.377 . S
C1640 C1642 1.384 . S
C1641 C1640 1.377 . S
C1641 C1647 1.390 . S
C1642 H1633 0.930 . S
C1642 C1640 1.384 . S
C1642 C1643 1.372 . S
C1643 C1642 1.372 . S
C1643 C1644 1.400 . S
C1643 C1648 1.490 . S
C1644 H1634 0.930 . S
C1644 C1643 1.400 . S
C1644 C1647 1.386 . S
H1645 C1661 0.930 . S
H1646 C1662 0.931 . S
C1647 H1635 0.929 . S
C1647 C1641 1.390 . S
C1647 C1644 1.386 . S
C1648 C1643 1.490 . S
C1648 C1650 1.395 1_565 S
C1648 C1651 1.403 1_554 S
H1649 C1655 0.925 . S
C1650 H1636 0.930 . S
C1650 C1648 1.395 1_545 S
C1650 C1653 1.403 . S
C1651 C1648 1.403 1_556 S
C1651 C1652 1.524 . S
C1651 C1655 1.369 1_565 S
C1652 H1637 0.960 . S
C1652 H1638 0.960 . S
C1652 H1639 0.995 . S
C1652 C1651 1.524 . S
C1653 C1650 1.403 . S
C1653 C1654 1.392 1_554 S
C1653 C1657 1.495 . S
C1654 C1653 1.392 1_556 S
C1654 C1655 1.428 . S
C1654 C1656 1.478 . S
C1655 H1649 0.925 . S
C1655 C1651 1.369 1_545 S
C1655 C1654 1.428 . S
C1656 C1654 1.478 . S
C1656 C1658 1.381 . S
C1656 C1662 1.383 . S
C1657 C1653 1.495 . S
C1657 H1663 0.959 . S
C1657 H1664 0.961 . S
C1657 H1665 0.960 . S
C1658 C1656 1.381 . S
C1658 C1659 1.394 . S
C1658 H1666 0.930 . S
C1659 C1658 1.394 . S
C1659 C1660 1.383 . S
C1659 H1667 0.929 . S
C1660 C1659 1.383 . S
C1660 C1661 1.377 . S
C1661 H1645 0.930 . S
C1661 C1660 1.377 . S
C1661 C1662 1.379 . S
C1662 H1646 0.931 . S
C1662 C1656 1.383 . S
C1662 C1661 1.379 . S
H1663 C1657 0.959 . S
H1664 C1657 0.961 . S
H1665 C1657 0.960 . S
H1666 C1658 0.930 . S
H1667 C1659 0.929 . S
H1668 C1676 0.929 . S
H1669 C1678 0.930 . S
H1670 C1680 0.930 . S
H1671 C1683 0.929 . S
H1672 C1686 0.930 . S
H1673 C1688 0.960 . S
H1674 C1688 0.960 . S
H1675 C1688 0.960 . S
C1676 H1668 0.929 . S
C1676 C1677 1.377 . S
C1676 C1678 1.384 . S
C1677 C1676 1.377 . S
C1677 C1683 1.390 . S
C1678 H1669 0.930 . S
C1678 C1676 1.384 . S
C1678 C1679 1.372 . S
C1679 C1678 1.372 . S
C1679 C1680 1.400 . S
C1679 C1684 1.490 . S
C1680 H1670 0.930 . S
C1680 C1679 1.400 . S
C1680 C1683 1.386 . S
H1681 C1697 0.930 . S
H1682 C1698 0.931 . S
C1683 H1671 0.929 . S
C1683 C1677 1.390 . S
C1683 C1680 1.386 . S
C1684 C1679 1.490 . S
C1684 C1686 1.395 . S
C1684 C1687 1.403 . S
H1685 C1691 0.930 . S
C1686 H1672 0.930 . S
C1686 C1684 1.395 . S
C1686 C1689 1.403 . S
C1687 C1684 1.403 . S
C1687 C1688 1.524 . S
C1687 C1691 1.400 . S
C1688 H1673 0.960 . S
C1688 H1674 0.960 . S
C1688 H1675 0.960 . S
C1688 C1687 1.524 . S
C1689 C1686 1.403 . S
C1689 C1690 1.392 . S
C1689 C1693 1.495 . S
C1690 C1689 1.392 . S
C1690 C1691 1.385 . S
C1690 C1692 1.478 . S
C1691 H1685 0.930 . S
C1691 C1687 1.400 . S
C1691 C1690 1.385 . S
C1692 C1690 1.478 . S
C1692 C1694 1.381 . S
C1692 C1698 1.383 . S
C1693 C1689 1.495 . S
C1693 H1699 0.959 . S
C1693 H1700 0.961 . S
C1693 H1701 0.960 . S
C1694 C1692 1.381 . S
C1694 C1695 1.394 . S
C1694 H1702 0.930 . S
C1695 C1694 1.394 . S
C1695 C1696 1.383 . S
C1695 H1703 0.929 . S
C1696 C1695 1.383 . S
C1696 C1697 1.377 . S
C1697 H1681 0.930 . S
C1697 C1696 1.377 . S
C1697 C1698 1.379 . S
C1698 H1682 0.931 . S
C1698 C1692 1.383 . S
C1698 C1697 1.379 . S
H1699 C1693 0.959 . S
H1700 C1693 0.961 . S
H1701 C1693 0.960 . S
H1702 C1694 0.930 . S
H1703 C1695 0.929 . S
H1704 C1712 0.929 . S
H1705 C1714 0.930 . S
H1706 C1716 0.930 . S
H1707 C1719 0.929 . S
H1708 C1722 0.930 . S
H1709 C1724 0.986 . S
H1710 C1724 0.970 . S
H1711 C1724 0.927 1_556 S
C1712 H1704 0.929 . S
C1712 C1713 1.377 . S
C1712 C1714 1.384 . S
C1713 C1712 1.377 . S
C1713 C1719 1.390 . S
C1714 H1705 0.930 . S
C1714 C1712 1.384 . S
C1714 C1715 1.372 . S
C1715 C1714 1.372 . S
C1715 C1716 1.400 . S
C1715 C1720 1.490 . S
C1716 H1706 0.930 . S
C1716 C1715 1.400 . S
C1716 C1719 1.386 . S
H1717 C1733 0.930 . S
H1718 C1734 0.931 . S
C1719 H1707 0.929 . S
C1719 C1713 1.390 . S
C1719 C1716 1.386 . S
C1720 C1715 1.490 . S
C1720 C1722 1.395 . S
C1720 C1723 1.413 . S
H1721 C1727 0.930 . S
C1722 H1708 0.930 . S
C1722 C1720 1.395 . S
C1722 C1725 1.386 1_656 S
C1723 C1720 1.413 . S
C1723 C1724 1.522 1_556 S
C1723 C1727 1.390 1_656 S
C1724 H1709 0.986 . S
C1724 H1710 0.970 . S
C1724 H1711 0.927 1_554 S
C1724 C1723 1.522 1_554 S
C1725 C1722 1.386 1_454 S
C1725 C1726 1.410 . S
C1725 C1729 1.495 . S
C1726 C1725 1.410 . S
C1726 C1727 1.385 . S
C1726 C1728 1.478 . S
C1727 H1721 0.930 . S
C1727 C1723 1.390 1_454 S
C1727 C1726 1.385 . S
C1728 C1726 1.478 . S
C1728 C1730 1.381 . S
C1728 C1734 1.383 . S
C1729 C1725 1.495 . S
C1729 H1735 0.950 1_554 S
C1729 H1736 0.958 1_554 S
C1729 H1737 0.971 . S
C1730 C1728 1.381 . S
C1730 C1731 1.394 . S
C1730 H1738 0.930 . S
C1731 C1730 1.394 . S
C1731 C1732 1.383 . S
C1731 H1739 0.929 . S
C1732 C1731 1.383 . S
C1732 C1733 1.377 . S
C1733 H1717 0.930 . S
C1733 C1732 1.377 . S
C1733 C1734 1.379 . S
C1734 H1718 0.931 . S
C1734 C1728 1.383 . S
C1734 C1733 1.379 . S
H1735 C1729 0.950 1_556 S
H1736 C1729 0.958 1_556 S
H1737 C1729 0.971 . S
H1738 C1730 0.930 . S
H1739 C1731 0.929 . S
H1740 C1748 0.929 . S
H1741 C1750 0.930 . S
H1742 C1752 0.930 . S
H1743 C1755 0.929 . S
H1744 C1758 0.930 . S
H1745 C1760 0.960 1_545 S
H1746 C1760 0.960 . S
H1747 C1760 0.960 . S
C1748 H1740 0.929 . S
C1748 C1749 1.377 . S
C1748 C1750 1.384 . S
C1749 C1748 1.377 . S
C1749 C1755 1.390 . S
C1750 H1741 0.930 . S
C1750 C1748 1.384 . S
C1750 C1751 1.372 . S
C1751 C1750 1.372 . S
C1751 C1752 1.400 . S
C1751 C1756 1.490 . S
C1752 H1742 0.930 . S
C1752 C1751 1.400 . S
C1752 C1755 1.386 . S
H1753 C1769 0.930 . S
H1754 C1770 0.931 . S
C1755 H1743 0.929 . S
C1755 C1749 1.390 . S
C1755 C1752 1.386 . S
C1756 C1751 1.490 . S
C1756 C1758 1.395 . S
C1756 C1759 1.403 . S
H1757 C1763 0.930 . S
C1758 H1744 0.930 . S
C1758 C1756 1.395 . S
C1758 C1761 1.403 1_565 S
C1759 C1756 1.403 . S
C1759 C1760 1.524 . S
C1759 C1763 1.400 1_565 S
C1760 H1745 0.960 1_565 S
C1760 H1746 0.960 . S
C1760 H1747 0.960 . S
C1760 C1759 1.524 . S
C1761 C1758 1.403 1_545 S
C1761 C1762 1.392 . S
C1761 C1765 1.495 . S
C1762 C1761 1.392 . S
C1762 C1763 1.385 . S
C1762 C1764 1.478 . S
C1763 H1757 0.930 . S
C1763 C1759 1.400 1_545 S
C1763 C1762 1.385 . S
C1764 C1762 1.478 . S
C1764 C1766 1.381 . S
C1764 C1770 1.383 . S
C1765 C1761 1.495 . S
C1765 H1771 0.959 1_545 S
C1765 H1772 0.961 . S
C1765 H1773 0.960 . S
C1766 C1764 1.381 . S
C1766 C1767 1.394 . S
C1766 H1774 0.930 . S
C1767 C1766 1.394 . S
C1767 C1768 1.383 . S
C1767 H1775 0.929 . S
C1768 C1767 1.383 . S
C1768 C1769 1.377 . S
C1769 H1753 0.930 . S
C1769 C1768 1.377 . S
C1769 C1770 1.379 . S
C1770 H1754 0.931 . S
C1770 C1764 1.383 . S
C1770 C1769 1.379 . S
H1771 C1765 0.959 1_565 S
H1772 C1765 0.961 . S
H1773 C1765 0.960 . S
H1774 C1766 0.930 . S
H1775 C1767 0.929 . S
C489 C171 1.214 . S
C508 C16 1.244 . S
C525 C211 1.222 . S
C544 C56 1.256 . S
C561 C96 1.251 . S
C580 C11 1.240 . S
C597 C136 1.246 . S
C616 C51 1.188 . S
C633 C176 1.248 . S
C652 C91 1.192 . S
C669 C131 1.224 . S
C688 C216 1.255 . S
C705 C331 1.224 . S
C724 C256 1.254 . S
C741 C296 1.251 . S
C760 C371 1.240 . S
C777 C411 1.215 . S
C796 C336 1.246 . S
C813 C376 1.249 . S
C832 C451 1.234 . S
C849 C416 1.247 . S
C868 C251 1.196 . S
C885 C291 1.212 . S
C904 C456 1.238 . S
C921 C162 1.766 . S
C940 C7 1.755 . S
C957 C47 1.765 . S
C976 C202 1.755 . S
C993 C87 1.764 . S
C1012 C2 1.763 . S
C1029 C127 1.765 . S
C1048 C42 1.758 . S
C1065 C82 1.764 . S
C1084 C167 1.769 . S
C1101 C122 1.765 . S
C1120 C207 1.763 . S
C1137 C322 1.761 . S
C1156 C247 1.771 . S
C1173 C287 1.762 . S
C1192 C362 1.771 . S
C1209 C327 1.762 . S
C1228 C402 1.748 . S
C1245 C442 1.761 . S
C1264 C367 1.759 . S
C1281 C407 1.759 . S
C1300 C242 1.764 . S
C1317 C282 1.761 . S
C1336 C447 1.769 . S
C1353 C419 1.667 . S
C1372 C19 1.632 . S
C1389 C59 1.665 . S
C1408 C459 1.630 . S
C1425 C99 1.656 . S
C1444 C259 1.676 . S
C1461 C139 1.656 . S
C1480 C299 1.673 . S
C1497 C179 1.660 . S
C1516 C339 1.685 . S
C1533 C379 1.662 . S
C1552 C219 1.635 . S
C1569 C370 2.146 . S
C1588 C10 2.139 . S
C1605 C410 2.146 . S
C1624 C50 2.143 . S
C1641 C90 2.147 . S
C1660 C450 2.145 . S
C1677 C130 2.147 . S
C1696 C250 2.146 . S
C1713 C290 2.147 . S
C1732 C170 2.144 . S
C1749 C330 2.146 . S
C1768 C210 2.141 . S
