# Generated by pormake.
# Topology yfq, (5)-cn, num edge types: 1
# Building blocks:
#     Node 0, Type 0, BuildingBlock: XOMCOT_clean_sbu_1, # of connection points: 5
#     Node 1, Type 0, BuildingBlock: XOMCOT_clean_sbu_1, # of connection points: 5
#     Node 2, Type 0, BuildingBlock: XOMCOT_clean_sbu_1, # of connection points: 5
#     Node 3, Type 0, BuildingBlock: XOMCOT_clean_sbu_1, # of connection points: 5
#     Node 4, Type 0, BuildingBlock: XOMCOT_clean_sbu_1, # of connection points: 5
#     Node 5, Type 0, BuildingBlock: XOMCOT_clean_sbu_1, # of connection points: 5
#     Node 6, Type 0, BuildingBlock: XOMCOT_clean_sbu_1, # of connection points: 5
#     Node 7, Type 0, BuildingBlock: XOMCOT_clean_sbu_1, # of connection points: 5
#     Node 8, Type 0, BuildingBlock: XOMCOT_clean_sbu_1, # of connection points: 5
#     Node 9, Type 0, BuildingBlock: XOMCOT_clean_sbu_1, # of connection points: 5
#     Node 10, Type 0, BuildingBlock: XOMCOT_clean_sbu_1, # of connection points: 5
#     Node 11, Type 0, BuildingBlock: XOMCOT_clean_sbu_1, # of connection points: 5
#     Node 12, Type 0, BuildingBlock: XOMCOT_clean_sbu_1, # of connection points: 5
#     Node 13, Type 0, BuildingBlock: XOMCOT_clean_sbu_1, # of connection points: 5
#     Node 14, Type 0, BuildingBlock: XOMCOT_clean_sbu_1, # of connection points: 5
#     Node 15, Type 0, BuildingBlock: XOMCOT_clean_sbu_1, # of connection points: 5
#     Node 16, Type 0, BuildingBlock: XOMCOT_clean_sbu_1, # of connection points: 5
#     Node 17, Type 0, BuildingBlock: XOMCOT_clean_sbu_1, # of connection points: 5
#     Node 18, Type 0, BuildingBlock: XOMCOT_clean_sbu_1, # of connection points: 5
#     Node 19, Type 0, BuildingBlock: XOMCOT_clean_sbu_1, # of connection points: 5
#     Node 20, Type 0, BuildingBlock: XOMCOT_clean_sbu_1, # of connection points: 5
#     Node 21, Type 0, BuildingBlock: XOMCOT_clean_sbu_1, # of connection points: 5
#     Node 22, Type 0, BuildingBlock: XOMCOT_clean_sbu_1, # of connection points: 5
#     Node 23, Type 0, BuildingBlock: XOMCOT_clean_sbu_1, # of connection points: 5
#     Node 24, Type 0, BuildingBlock: XOMCOT_clean_sbu_1, # of connection points: 5
#     Node 25, Type 0, BuildingBlock: XOMCOT_clean_sbu_1, # of connection points: 5
#     Node 26, Type 0, BuildingBlock: XOMCOT_clean_sbu_1, # of connection points: 5
#     Node 27, Type 0, BuildingBlock: XOMCOT_clean_sbu_1, # of connection points: 5
#     Node 28, Type 0, BuildingBlock: XOMCOT_clean_sbu_1, # of connection points: 5
#     Node 29, Type 0, BuildingBlock: XOMCOT_clean_sbu_1, # of connection points: 5
#     Node 30, Type 0, BuildingBlock: XOMCOT_clean_sbu_1, # of connection points: 5
#     Node 31, Type 0, BuildingBlock: XOMCOT_clean_sbu_1, # of connection points: 5
#     Edge 32, Type (0, 0), BuildingBlock: XIVTED_clean_linker_0, # of connection points: 2
#     Edge 33, Type (0, 0), BuildingBlock: XIVTED_clean_linker_0, # of connection points: 2
#     Edge 34, Type (0, 0), BuildingBlock: XIVTED_clean_linker_0, # of connection points: 2
#     Edge 35, Type (0, 0), BuildingBlock: XIVTED_clean_linker_0, # of connection points: 2
#     Edge 36, Type (0, 0), BuildingBlock: XIVTED_clean_linker_0, # of connection points: 2
#     Edge 37, Type (0, 0), BuildingBlock: XIVTED_clean_linker_0, # of connection points: 2
#     Edge 38, Type (0, 0), BuildingBlock: XIVTED_clean_linker_0, # of connection points: 2
#     Edge 39, Type (0, 0), BuildingBlock: XIVTED_clean_linker_0, # of connection points: 2
#     Edge 40, Type (0, 0), BuildingBlock: XIVTED_clean_linker_0, # of connection points: 2
#     Edge 41, Type (0, 0), BuildingBlock: XIVTED_clean_linker_0, # of connection points: 2
#     Edge 42, Type (0, 0), BuildingBlock: XIVTED_clean_linker_0, # of connection points: 2
#     Edge 43, Type (0, 0), BuildingBlock: XIVTED_clean_linker_0, # of connection points: 2
#     Edge 44, Type (0, 0), BuildingBlock: XIVTED_clean_linker_0, # of connection points: 2
#     Edge 45, Type (0, 0), BuildingBlock: XIVTED_clean_linker_0, # of connection points: 2
#     Edge 46, Type (0, 0), BuildingBlock: XIVTED_clean_linker_0, # of connection points: 2
#     Edge 47, Type (0, 0), BuildingBlock: XIVTED_clean_linker_0, # of connection points: 2
#     Edge 48, Type (0, 0), BuildingBlock: XIVTED_clean_linker_0, # of connection points: 2
#     Edge 49, Type (0, 0), BuildingBlock: XIVTED_clean_linker_0, # of connection points: 2
#     Edge 50, Type (0, 0), BuildingBlock: XIVTED_clean_linker_0, # of connection points: 2
#     Edge 51, Type (0, 0), BuildingBlock: XIVTED_clean_linker_0, # of connection points: 2
#     Edge 52, Type (0, 0), BuildingBlock: XIVTED_clean_linker_0, # of connection points: 2
#     Edge 53, Type (0, 0), BuildingBlock: XIVTED_clean_linker_0, # of connection points: 2
#     Edge 54, Type (0, 0), BuildingBlock: XIVTED_clean_linker_0, # of connection points: 2
#     Edge 55, Type (0, 0), BuildingBlock: XIVTED_clean_linker_0, # of connection points: 2
#     Edge 56, Type (0, 0), BuildingBlock: XIVTED_clean_linker_0, # of connection points: 2
#     Edge 57, Type (0, 0), BuildingBlock: XIVTED_clean_linker_0, # of connection points: 2
#     Edge 58, Type (0, 0), BuildingBlock: XIVTED_clean_linker_0, # of connection points: 2
#     Edge 59, Type (0, 0), BuildingBlock: XIVTED_clean_linker_0, # of connection points: 2
#     Edge 60, Type (0, 0), BuildingBlock: XIVTED_clean_linker_0, # of connection points: 2
#     Edge 61, Type (0, 0), BuildingBlock: XIVTED_clean_linker_0, # of connection points: 2
#     Edge 62, Type (0, 0), BuildingBlock: XIVTED_clean_linker_0, # of connection points: 2
#     Edge 63, Type (0, 0), BuildingBlock: XIVTED_clean_linker_0, # of connection points: 2
#     Edge 64, Type (0, 0), BuildingBlock: XIVTED_clean_linker_0, # of connection points: 2
#     Edge 65, Type (0, 0), BuildingBlock: XIVTED_clean_linker_0, # of connection points: 2
#     Edge 66, Type (0, 0), BuildingBlock: XIVTED_clean_linker_0, # of connection points: 2
#     Edge 67, Type (0, 0), BuildingBlock: XIVTED_clean_linker_0, # of connection points: 2
#     Edge 68, Type (0, 0), BuildingBlock: XIVTED_clean_linker_0, # of connection points: 2
#     Edge 69, Type (0, 0), BuildingBlock: XIVTED_clean_linker_0, # of connection points: 2
#     Edge 70, Type (0, 0), BuildingBlock: XIVTED_clean_linker_0, # of connection points: 2
#     Edge 71, Type (0, 0), BuildingBlock: XIVTED_clean_linker_0, # of connection points: 2
#     Edge 72, Type (0, 0), BuildingBlock: XIVTED_clean_linker_0, # of connection points: 2
#     Edge 73, Type (0, 0), BuildingBlock: XIVTED_clean_linker_0, # of connection points: 2
#     Edge 74, Type (0, 0), BuildingBlock: XIVTED_clean_linker_0, # of connection points: 2
#     Edge 75, Type (0, 0), BuildingBlock: XIVTED_clean_linker_0, # of connection points: 2
#     Edge 76, Type (0, 0), BuildingBlock: XIVTED_clean_linker_0, # of connection points: 2
#     Edge 77, Type (0, 0), BuildingBlock: XIVTED_clean_linker_0, # of connection points: 2
#     Edge 78, Type (0, 0), BuildingBlock: XIVTED_clean_linker_0, # of connection points: 2
#     Edge 79, Type (0, 0), BuildingBlock: XIVTED_clean_linker_0, # of connection points: 2
#     Edge 80, Type (0, 0), BuildingBlock: XIVTED_clean_linker_0, # of connection points: 2
#     Edge 81, Type (0, 0), BuildingBlock: XIVTED_clean_linker_0, # of connection points: 2
#     Edge 82, Type (0, 0), BuildingBlock: XIVTED_clean_linker_0, # of connection points: 2
#     Edge 83, Type (0, 0), BuildingBlock: XIVTED_clean_linker_0, # of connection points: 2
#     Edge 84, Type (0, 0), BuildingBlock: XIVTED_clean_linker_0, # of connection points: 2
#     Edge 85, Type (0, 0), BuildingBlock: XIVTED_clean_linker_0, # of connection points: 2
#     Edge 86, Type (0, 0), BuildingBlock: XIVTED_clean_linker_0, # of connection points: 2
#     Edge 87, Type (0, 0), BuildingBlock: XIVTED_clean_linker_0, # of connection points: 2
#     Edge 88, Type (0, 0), BuildingBlock: XIVTED_clean_linker_0, # of connection points: 2
#     Edge 89, Type (0, 0), BuildingBlock: XIVTED_clean_linker_0, # of connection points: 2
#     Edge 90, Type (0, 0), BuildingBlock: XIVTED_clean_linker_0, # of connection points: 2
#     Edge 91, Type (0, 0), BuildingBlock: XIVTED_clean_linker_0, # of connection points: 2
#     Edge 92, Type (0, 0), BuildingBlock: XIVTED_clean_linker_0, # of connection points: 2
#     Edge 93, Type (0, 0), BuildingBlock: XIVTED_clean_linker_0, # of connection points: 2
#     Edge 94, Type (0, 0), BuildingBlock: XIVTED_clean_linker_0, # of connection points: 2
#     Edge 95, Type (0, 0), BuildingBlock: XIVTED_clean_linker_0, # of connection points: 2
#     Edge 96, Type (0, 0), BuildingBlock: XIVTED_clean_linker_0, # of connection points: 2
#     Edge 97, Type (0, 0), BuildingBlock: XIVTED_clean_linker_0, # of connection points: 2
#     Edge 98, Type (0, 0), BuildingBlock: XIVTED_clean_linker_0, # of connection points: 2
#     Edge 99, Type (0, 0), BuildingBlock: XIVTED_clean_linker_0, # of connection points: 2
#     Edge 100, Type (0, 0), BuildingBlock: XIVTED_clean_linker_0, # of connection points: 2
#     Edge 101, Type (0, 0), BuildingBlock: XIVTED_clean_linker_0, # of connection points: 2
#     Edge 102, Type (0, 0), BuildingBlock: XIVTED_clean_linker_0, # of connection points: 2
#     Edge 103, Type (0, 0), BuildingBlock: XIVTED_clean_linker_0, # of connection points: 2
#     Edge 104, Type (0, 0), BuildingBlock: XIVTED_clean_linker_0, # of connection points: 2
#     Edge 105, Type (0, 0), BuildingBlock: XIVTED_clean_linker_0, # of connection points: 2
#     Edge 106, Type (0, 0), BuildingBlock: XIVTED_clean_linker_0, # of connection points: 2
#     Edge 107, Type (0, 0), BuildingBlock: XIVTED_clean_linker_0, # of connection points: 2
#     Edge 108, Type (0, 0), BuildingBlock: XIVTED_clean_linker_0, # of connection points: 2
#     Edge 109, Type (0, 0), BuildingBlock: XIVTED_clean_linker_0, # of connection points: 2
#     Edge 110, Type (0, 0), BuildingBlock: XIVTED_clean_linker_0, # of connection points: 2
#     Edge 111, Type (0, 0), BuildingBlock: XIVTED_clean_linker_0, # of connection points: 2
# Relax obj value: 0.543
# Max RMSD: 0.297
# Mean RMSD: 0.297
data_MOF--net-yfq--node1-XOMCOT_clean_sbu_1--edge1-XIVTED_clean_linker_0
_symmetry_space_group_name_H-M    P1
_symmetry_Int_Tables_number       1
_symmetry_cell_setting            triclinic
loop_
_symmetry_equiv_pos_as_xyz
'x, y, z'
_cell_length_a     52.444244
_cell_length_b     52.359429
_cell_length_c     60.065183
_cell_angle_alpha  90.020804
_cell_angle_beta   89.984636
_cell_angle_gamma 90.059721
loop_
_atom_site_label
_atom_site_type_symbol
_atom_site_fract_x
_atom_site_fract_y
_atom_site_fract_z
_atom_type_partial_charge
C0 C 0.16914 0.22134 0.28273 0.0
C1 C 0.17501 0.23747 0.29989 0.0
N2 N 0.1543 0.25173 0.30436 0.0
N3 N 0.14493 0.22542 0.27618 0.0
C4 C 0.13631 0.24425 0.28956 0.0
H5 H 0.1815 0.20679 0.27594 0.0
Co6 Co 0.13126 0.20421 0.25479 0.0
C7 C 0.0776 0.21887 0.24601 0.0
O8 O 0.07311 0.19424 0.24463 0.0
N9 N 0.11937 0.18149 0.23241 0.0
C10 C 0.10798 0.1471 0.21292 0.0
C11 C 0.11358 0.15633 0.23371 0.0
C12 C 0.11703 0.18693 0.21045 0.0
N13 N 0.11033 0.1663 0.19822 0.0
O14 O 0.14998 0.22343 0.23308 0.0
H15 H 0.11337 0.14486 0.24855 0.0
H16 H 0.12089 0.20555 0.20345 0.0
O17 O 0.10045 0.22659 0.25024 0.0
C18 C 0.17211 0.21495 0.22835 0.0
O19 O 0.17749 0.19118 0.23356 0.0
N20 N 0.11517 0.18573 0.27791 0.0
C21 C 0.0985 0.16045 0.31614 0.0
C22 C 0.08734 0.18347 0.30957 0.0
C23 C 0.09623 0.19601 0.29074 0.0
C24 C 0.12741 0.16418 0.28495 0.0
C25 C 0.1188 0.15067 0.30364 0.0
H26 H 0.08849 0.21463 0.28741 0.0
H27 H 0.14399 0.15745 0.27599 0.0
H28 H 0.11692 0.2513 0.28932 0.0
H29 H 0.19292 0.23808 0.30883 0.0
H30 H 0.10267 0.12763 0.20899 0.0
H31 H 0.07195 0.19194 0.31907 0.0
H32 H 0.12833 0.13324 0.3086 0.0
C33 C 0.04841 0.91579 0.53216 0.0
C34 C 0.03403 0.92556 0.54913 0.0
N35 N 0.01636 0.90806 0.55474 0.0
N36 N 0.03988 0.89228 0.52691 0.0
C37 C 0.02011 0.88805 0.54083 0.0
H38 H 0.06458 0.92499 0.52438 0.0
Co39 Co 0.05697 0.87431 0.50519 0.0
C40 C 0.03931 0.82074 0.50575 0.0
O41 O 0.06359 0.81476 0.50558 0.0
N42 N 0.07565 0.85763 0.48202 0.0
C43 C 0.10565 0.83865 0.46145 0.0
C44 C 0.09834 0.84524 0.4826 0.0
C45 C 0.06971 0.85798 0.46006 0.0
N46 N 0.08772 0.84691 0.44724 0.0
O47 O 0.03556 0.89099 0.48407 0.0
H48 H 0.10925 0.84081 0.49727 0.0
H49 H 0.05264 0.86655 0.45335 0.0
O50 O 0.03275 0.84445 0.50624 0.0
C51 C 0.04399 0.91257 0.47756 0.0
O52 O 0.06846 0.9173 0.47993 0.0
N53 N 0.07785 0.86077 0.52777 0.0
C54 C 0.10773 0.84788 0.56442 0.0
C55 C 0.08237 0.83976 0.56299 0.0
C56 C 0.06766 0.84677 0.54481 0.0
C57 C 0.10188 0.87059 0.52977 0.0
C58 C 0.11756 0.86362 0.54762 0.0
H59 H 0.04781 0.84143 0.54488 0.0
H60 H 0.10899 0.88364 0.51725 0.0
H61 H 0.00957 0.87029 0.54148 0.0
H62 H 0.03678 0.94392 0.55706 0.0
H63 H 0.12336 0.82945 0.45686 0.0
H64 H 0.07394 0.82787 0.57579 0.0
H65 H 0.13694 0.87072 0.54846 0.0
C66 C 0.34783 0.79796 0.78026 0.0
C67 C 0.33703 0.78144 0.79528 0.0
N68 N 0.35067 0.75961 0.79529 0.0
N69 N 0.36813 0.78667 0.77075 0.0
C70 C 0.36937 0.7633 0.78009 0.0
H71 H 0.34139 0.81709 0.7765 0.0
Co72 Co 0.38756 0.80234 0.74904 0.0
C73 C 0.42275 0.76277 0.73304 0.0
O74 O 0.4124 0.76462 0.71319 0.0
N75 N 0.40668 0.81873 0.72703 0.0
C76 C 0.43918 0.83392 0.70725 0.0
C77 C 0.4321 0.82299 0.72713 0.0
C78 C 0.3987 0.82759 0.70715 0.0
N79 N 0.4181 0.83679 0.69474 0.0
O80 O 0.36759 0.78451 0.72751 0.0
H81 H 0.44481 0.81781 0.74058 0.0
H82 H 0.37919 0.82641 0.70145 0.0
O83 O 0.41317 0.77526 0.74927 0.0
C84 C 0.34538 0.79372 0.72452 0.0
O85 O 0.34128 0.81755 0.73039 0.0
N86 N 0.40528 0.8198 0.77124 0.0
C87 C 0.42291 0.84537 0.80872 0.0
C88 C 0.42651 0.81904 0.80646 0.0
C89 C 0.41746 0.80659 0.78769 0.0
C90 C 0.40217 0.84559 0.77277 0.0
C91 C 0.41118 0.85891 0.79139 0.0
H92 H 0.419 0.78607 0.78716 0.0
H93 H 0.39181 0.85566 0.75992 0.0
H94 H 0.38416 0.74962 0.77626 0.0
H95 H 0.32052 0.78542 0.80548 0.0
H96 H 0.45835 0.83911 0.70231 0.0
H97 H 0.43574 0.808 0.8194 0.0
H98 H 0.40807 0.87931 0.79266 0.0
C99 C 0.43386 0.08353 0.05995 0.0
C100 C 0.44536 0.07445 0.07892 0.0
N101 N 0.46848 0.08549 0.0807 0.0
N102 N 0.44955 0.1004 0.04998 0.0
C103 C 0.47064 0.10098 0.06281 0.0
H104 H 0.41498 0.0787 0.05403 0.0
Co105 Co 0.4411 0.11848 0.02453 0.0
C106 C 0.48488 0.15399 0.01874 0.0
O107 O 0.49212 0.14209 0.00056 0.0
N108 N 0.43217 0.13639 -0.00135 0.0
C109 C 0.4208 0.16836 0.97644 0.0
C110 C 0.4275 0.16174 -0.00229 0.0
C111 C 0.42835 0.12803 0.97759 0.0
N112 N 0.4213 0.14717 0.96377 0.0
O113 O 0.46493 0.09769 0.00865 0.0
H114 H 0.42868 0.17466 0.0117 0.0
H115 H 0.43031 0.10831 0.97251 0.0
O116 O 0.46661 0.14492 0.03034 0.0
C117 C 0.45614 0.07549 0.00445 0.0
O118 O 0.43145 0.0718 0.00643 0.0
N119 N 0.41732 0.13728 0.04122 0.0
C120 C 0.3825 0.16261 0.06827 0.0
C121 C 0.40835 0.16189 0.07385 0.0
C122 C 0.4254 0.14921 0.06018 0.0
C123 C 0.39209 0.13727 0.03562 0.0
C124 C 0.37427 0.15037 0.04878 0.0
H125 H 0.44514 0.14863 0.06522 0.0
H126 H 0.38581 0.12719 0.02088 0.0
H127 H 0.48673 0.11343 0.05969 0.0
H128 H 0.43714 0.06117 0.09073 0.0
H129 H 0.41626 0.1874 0.97067 0.0
H130 H 0.41547 0.17142 0.08862 0.0
H131 H 0.35437 0.15069 0.04397 0.0
C132 C 0.17696 0.81708 0.19171 0.0
C133 C 0.18169 0.79851 0.1762 0.0
N134 N 0.16293 0.78091 0.17738 0.0
N135 N 0.15539 0.81133 0.20274 0.0
C136 C 0.14722 0.78917 0.19378 0.0
H137 H 0.18869 0.83364 0.19507 0.0
Co138 Co 0.14475 0.83141 0.22602 0.0
C139 C 0.0922 0.8173 0.23821 0.0
O140 O 0.08803 0.84199 0.23953 0.0
N141 N 0.13567 0.85227 0.25039 0.0
C142 C 0.12636 0.88341 0.2743 0.0
C143 C 0.13319 0.87784 0.25272 0.0
C144 C 0.1309 0.84294 0.27096 0.0
N145 N 0.12488 0.86136 0.28572 0.0
O146 O 0.16577 0.81127 0.245 0.0
H147 H 0.13612 0.89189 0.23989 0.0
H148 H 0.13107 0.82276 0.27481 0.0
O149 O 0.11433 0.80907 0.23229 0.0
C150 C 0.18787 0.82081 0.24794 0.0
O151 O 0.19164 0.84477 0.2423 0.0
N152 N 0.12623 0.85122 0.20547 0.0
C153 C 0.1062 0.87778 0.16942 0.0
C154 C 0.09653 0.85387 0.17523 0.0
C155 C 0.10716 0.84065 0.19294 0.0
C156 C 0.13682 0.87394 0.19916 0.0
C157 C 0.1266 0.88799 0.18145 0.0
H158 H 0.10085 0.8213 0.19557 0.0
H159 H 0.15396 0.88068 0.20726 0.0
H160 H 0.13004 0.7795 0.19908 0.0
H161 H 0.19795 0.79802 0.16513 0.0
H162 H 0.1231 0.90228 0.28109 0.0
H163 H 0.08136 0.8451 0.16564 0.0
H164 H 0.13507 0.90607 0.17672 0.0
C165 C 0.41458 0.89247 0.42369 0.0
C166 C 0.4311 0.89838 0.40679 0.0
N167 N 0.45482 0.89153 0.41305 0.0
N168 N 0.42763 0.88164 0.4405 0.0
C169 C 0.45212 0.88133 0.43364 0.0
H170 H 0.39458 0.89737 0.42425 0.0
Co171 Co 0.41391 0.87703 0.46846 0.0
C172 C 0.43414 0.82769 0.48593 0.0
O173 O 0.4116 0.82383 0.49491 0.0
N174 N 0.39942 0.87419 0.49701 0.0
C175 C 0.37247 0.87526 0.52559 0.0
C176 C 0.3746 0.87587 0.50288 0.0
C177 C 0.41202 0.87324 0.51668 0.0
N178 N 0.39602 0.87364 0.53431 0.0
O179 O 0.43788 0.90153 0.4796 0.0
H180 H 0.35871 0.87809 0.49176 0.0
H181 H 0.43259 0.87267 0.518 0.0
O182 O 0.4382 0.84845 0.475 0.0
C183 C 0.43061 0.9246 0.47733 0.0
O184 O 0.40713 0.92887 0.47066 0.0
N185 N 0.38972 0.85435 0.4558 0.0
C186 C 0.35442 0.82632 0.43103 0.0
C187 C 0.37876 0.81662 0.43524 0.0
C188 C 0.39639 0.8313 0.44683 0.0
C189 C 0.36638 0.86454 0.45096 0.0
C190 C 0.34829 0.85075 0.43873 0.0
H191 H 0.41578 0.82465 0.44698 0.0
H192 H 0.36231 0.88412 0.45542 0.0
H193 H 0.46766 0.87491 0.44404 0.0
H194 H 0.42606 0.90834 0.39166 0.0
H195 H 0.35483 0.87588 0.53493 0.0
H196 H 0.38479 0.79856 0.42816 0.0
H197 H 0.33013 0.85941 0.43468 0.0
C198 C 0.34322 0.21426 0.71451 0.0
C199 C 0.33588 0.2314 0.6985 0.0
N200 N 0.35385 0.24979 0.69701 0.0
N201 N 0.3656 0.22177 0.7233 0.0
C202 C 0.37159 0.24352 0.71245 0.0
H203 H 0.3331 0.19709 0.7192 0.0
Co204 Co 0.38221 0.20323 0.74512 0.0
C205 C 0.42125 0.23801 0.76364 0.0
O206 O 0.41071 0.23587 0.7834 0.0
N207 N 0.39857 0.18391 0.76731 0.0
C208 C 0.42859 0.1636 0.78657 0.0
C209 C 0.42267 0.17487 0.76657 0.0
C210 C 0.39026 0.1778 0.78795 0.0
N211 N 0.4082 0.16559 0.8001 0.0
O212 O 0.36271 0.22198 0.76663 0.0
H213 H 0.4356 0.17728 0.7527 0.0
H214 H 0.37164 0.1828 0.79424 0.0
O215 O 0.41048 0.22766 0.74683 0.0
C216 C 0.34026 0.21311 0.76942 0.0
O217 O 0.33572 0.18949 0.7631 0.0
N218 N 0.39915 0.18501 0.7227 0.0
C219 C 0.41519 0.16011 0.68416 0.0
C220 C 0.42315 0.18506 0.68879 0.0
C221 C 0.41468 0.19726 0.70789 0.0
C222 C 0.39194 0.16033 0.71904 0.0
C223 C 0.39994 0.14735 0.69985 0.0
H224 H 0.41943 0.21713 0.70981 0.0
H225 H 0.37899 0.15111 0.73054 0.0
H226 H 0.38911 0.2539 0.71526 0.0
H227 H 0.3188 0.22997 0.68852 0.0
H228 H 0.44695 0.15581 0.79116 0.0
H229 H 0.43521 0.19551 0.67731 0.0
H230 H 0.39332 0.12806 0.69682 0.0
C231 C 0.06328 0.0811 0.945 0.0
C232 C 0.0469 0.07052 0.92967 0.0
N233 N 0.02488 0.08379 0.93012 0.0
N234 N 0.05171 0.10103 0.95491 0.0
C235 C 0.02829 0.10206 0.94573 0.0
H236 H 0.08249 0.07486 0.94861 0.0
Co237 Co 0.06611 0.12093 0.97703 0.0
C238 C 0.02856 0.16086 0.98736 0.0
O239 O 0.02734 0.15231 0.0079 0.0
N240 N 0.08088 0.1408 -0.0003 0.0
C241 C 0.09527 0.17456 0.01835 0.0
C242 C 0.0881 0.1655 -0.00214 0.0
C243 C 0.08401 0.13527 0.0215 0.0
N244 N 0.09251 0.15559 0.03328 0.0
O245 O 0.04454 0.10348 -0.00229 0.0
H246 H 0.08717 0.17664 0.98272 0.0
H247 H 0.07882 0.11716 0.02885 0.0
O248 O 0.04117 0.14828 0.97287 0.0
C249 C 0.05261 0.0812 0.00251 0.0
O250 O 0.07651 0.0757 -0.00203 0.0
N251 N 0.08727 0.13627 0.95567 0.0
C252 C 0.11798 0.15819 0.92308 0.0
C253 C 0.09144 0.15801 0.92082 0.0
C254 C 0.07646 0.14699 0.93723 0.0
C255 C 0.11316 0.13526 0.95782 0.0
C256 C 0.12898 0.14667 0.94184 0.0
H257 H 0.05606 0.14697 0.93493 0.0
H258 H 0.12152 0.12601 0.97217 0.0
H259 H 0.01436 0.1165 0.94989 0.0
H260 H 0.05105 0.05449 0.91889 0.0
H261 H 0.10148 0.19383 0.02199 0.0
H262 H 0.08221 0.16693 0.90669 0.0
H263 H 0.14947 0.14648 0.94408 0.0
C264 C 0.85728 0.8196 0.7021 0.0
C265 C 0.84372 0.80862 0.68512 0.0
N266 N 0.8501 0.78372 0.68396 0.0
N267 N 0.87226 0.80182 0.71158 0.0
C268 C 0.86748 0.78008 0.7003 0.0
H269 H 0.8558 0.83918 0.7077 0.0
Co270 Co 0.89045 0.80852 0.73713 0.0
C271 C 0.92206 0.76318 0.74482 0.0
O272 O 0.90973 0.75964 0.76362 0.0
N273 N 0.90806 0.81623 0.76301 0.0
C274 C 0.93845 0.8251 0.78754 0.0
C275 C 0.93352 0.81797 0.76594 0.0
C276 C 0.89793 0.82261 0.78284 0.0
N277 N 0.91599 0.828 0.79814 0.0
O278 O 0.86796 0.78587 0.75253 0.0
H279 H 0.94759 0.8144 0.75314 0.0
H280 H 0.87764 0.82383 0.78582 0.0
O281 O 0.91477 0.78081 0.73159 0.0
C282 C 0.84552 0.79441 0.75573 0.0
O283 O 0.84151 0.81902 0.75319 0.0
N284 N 0.91075 0.83119 0.72112 0.0
C285 C 0.92921 0.8663 0.69066 0.0
C286 C 0.93372 0.84025 0.68769 0.0
C287 C 0.92413 0.82294 0.703 0.0
C288 C 0.9074 0.85664 0.72499 0.0
C289 C 0.91662 0.87475 0.70983 0.0
H290 H 0.92563 0.80291 0.69905 0.0
H291 H 0.89604 0.86279 0.73903 0.0
H292 H 0.87637 0.762 0.70421 0.0
H293 H 0.8298 0.81821 0.67481 0.0
H294 H 0.95712 0.82773 0.79486 0.0
H295 H 0.94319 0.83324 0.67286 0.0
H296 H 0.91269 0.89485 0.71235 0.0
C297 C 0.93172 0.09173 0.42852 0.0
C298 C 0.95172 0.08982 0.41386 0.0
N299 N 0.97171 0.1028 0.42233 0.0
N300 N 0.93899 0.106 0.44605 0.0
C301 C 0.96346 0.11236 0.44195 0.0
H302 H 0.91302 0.08329 0.42661 0.0
Co303 Co 0.91849 0.11203 0.47035 0.0
C304 C 0.93429 0.16141 0.4901 0.0
O305 O 0.91003 0.16572 0.494 0.0
N306 N 0.89738 0.11663 0.49555 0.0
C307 C 0.8659 0.12297 0.51981 0.0
C308 C 0.87185 0.11911 0.49776 0.0
C309 C 0.90628 0.11809 0.51666 0.0
N310 N 0.88766 0.12253 0.53168 0.0
O311 O 0.938 0.08732 0.48619 0.0
H312 H 0.8581 0.11851 0.48447 0.0
H313 H 0.92636 0.11731 0.52074 0.0
O314 O 0.94114 0.14038 0.48077 0.0
C315 C 0.92887 0.06484 0.48463 0.0
O316 O 0.90571 0.06206 0.47663 0.0
N317 N 0.89936 0.13487 0.45256 0.0
C318 C 0.87561 0.16161 0.41822 0.0
C319 C 0.89929 0.1694 0.42627 0.0
C320 C 0.91104 0.15553 0.44301 0.0
C321 C 0.87658 0.12648 0.44426 0.0
C322 C 0.86394 0.14002 0.42741 0.0
H323 H 0.93049 0.16039 0.44674 0.0
H324 H 0.86891 0.10835 0.44968 0.0
H325 H 0.97506 0.1235 0.45324 0.0
H326 H 0.95132 0.08012 0.39795 0.0
H327 H 0.84699 0.12599 0.52653 0.0
H328 H 0.90921 0.18549 0.4189 0.0
H329 H 0.84602 0.13299 0.42087 0.0
C330 C 0.64997 0.19064 0.19056 0.0
C331 C 0.66285 0.1983 0.17182 0.0
N332 N 0.66214 0.22401 0.17079 0.0
N333 N 0.64066 0.21132 0.20117 0.0
C334 C 0.64901 0.23139 0.18909 0.0
H335 H 0.64769 0.17117 0.19623 0.0
Co336 Co 0.62399 0.2099 0.22854 0.0
C337 C 0.58887 0.25149 0.20648 0.0
O338 O 0.59806 0.25259 0.18617 0.0
N339 N 0.60797 0.20782 0.25618 0.0
C340 C 0.57758 0.20559 0.28182 0.0
C341 C 0.58266 0.20994 0.25978 0.0
C342 C 0.61788 0.2018 0.27628 0.0
N343 N 0.59971 0.20043 0.29225 0.0
O344 O 0.64725 0.23535 0.23941 0.0
H345 H 0.56856 0.21337 0.247 0.0
H346 H 0.63792 0.19806 0.27902 0.0
O347 O 0.59877 0.23639 0.2208 0.0
C348 C 0.66953 0.22674 0.24344 0.0
O349 O 0.67294 0.20188 0.24318 0.0
N350 N 0.60236 0.18412 0.2175 0.0
C351 C 0.57624 0.14358 0.1982 0.0
C352 C 0.5755 0.16781 0.18858 0.0
C353 C 0.58883 0.18775 0.19837 0.0
C354 C 0.60304 0.1606 0.22734 0.0
C355 C 0.5899 0.13989 0.21794 0.0
H356 H 0.58953 0.2056 0.18962 0.0
H357 H 0.6145 0.15769 0.24209 0.0
H358 H 0.64549 0.25103 0.19371 0.0
H359 H 0.67206 0.18581 0.15994 0.0
H360 H 0.55884 0.20511 0.28935 0.0
H361 H 0.56546 0.17106 0.17306 0.0
H362 H 0.59104 0.12119 0.22556 0.0
C363 C 0.55346 0.91109 0.96012 0.0
C364 C 0.53632 0.91681 0.94372 0.0
N365 N 0.52126 0.89628 0.94049 0.0
N366 N 0.5492 0.8872 0.9675 0.0
C367 C 0.52935 0.87857 0.95533 0.0
H368 H 0.56848 0.92347 0.9661 0.0
Co369 Co 0.57018 0.87405 0.98918 0.0
C370 C 0.55363 0.82139 0.00034 0.0
O371 O 0.578 0.8162 0.00242 0.0
N372 N 0.59252 0.8627 0.01182 0.0
C373 C 0.62638 0.85233 0.03229 0.0
C374 C 0.61773 0.85727 0.01114 0.0
C375 C 0.58647 0.86094 0.03368 0.0
N376 N 0.60671 0.85482 0.04649 0.0
O377 O 0.5521 0.89481 0.01015 0.0
H378 H 0.6296 0.85737 -0.00348 0.0
H379 H 0.56751 0.86434 0.04011 0.0
O380 O 0.5468 0.84426 -0.00493 0.0
C381 C 0.56213 0.91656 0.01405 0.0
O382 O 0.58632 0.91986 0.00908 0.0
N383 N 0.58773 0.85603 0.96664 0.0
C384 C 0.6097 0.83924 0.92691 0.0
C385 C 0.58737 0.82803 0.93499 0.0
C386 C 0.57644 0.83697 0.95454 0.0
C387 C 0.6092 0.86763 0.95866 0.0
C388 C 0.62098 0.85906 0.9391 0.0
H389 H 0.55791 0.8296 0.95868 0.0
H390 H 0.61671 0.88428 0.9671 0.0
H391 H 0.5217 0.85945 0.95673 0.0
H392 H 0.53537 0.93464 0.93468 0.0
H393 H 0.64591 0.8483 0.03691 0.0
H394 H 0.57785 0.81295 0.92583 0.0
H395 H 0.63794 0.8686 0.93303 0.0
C396 C 0.84788 0.19761 0.78255 0.0
C397 C 0.84155 0.21069 0.80152 0.0
N398 N 0.8625 0.22297 0.80872 0.0
N399 N 0.87261 0.20188 0.77758 0.0
C400 C 0.88108 0.21749 0.79387 0.0
H401 H 0.83548 0.18485 0.77346 0.0
Co402 Co 0.88784 0.18498 0.754 0.0
C403 C 0.94158 0.20292 0.75059 0.0
O404 O 0.9479 0.17894 0.74757 0.0
N405 N 0.9018 0.16663 0.72926 0.0
C406 C 0.91895 0.13643 0.70768 0.0
C407 C 0.91411 0.14386 0.72914 0.0
C408 C 0.89947 0.17241 0.70733 0.0
N409 N 0.90957 0.1543 0.69393 0.0
O410 O 0.86987 0.20771 0.73462 0.0
H411 H 0.91974 0.13302 0.74356 0.0
H412 H 0.89026 0.18942 0.70113 0.0
O413 O 0.91803 0.20869 0.7539 0.0
C414 C 0.84782 0.19983 0.72884 0.0
O415 O 0.84312 0.17521 0.73015 0.0
N416 N 0.90271 0.1626 0.77476 0.0
C417 C 0.91586 0.13005 0.80948 0.0
C418 C 0.92741 0.15397 0.80746 0.0
C419 C 0.92037 0.1701 0.79017 0.0
C420 C 0.89043 0.13973 0.77714 0.0
C421 C 0.89724 0.12273 0.7941 0.0
H422 H 0.92836 0.18903 0.79007 0.0
H423 H 0.8752 0.13474 0.76578 0.0
H424 H 0.90058 0.22405 0.79529 0.0
H425 H 0.82343 0.20995 0.81014 0.0
H426 H 0.92787 0.11873 0.70262 0.0
H427 H 0.94144 0.16037 0.81948 0.0
H428 H 0.8876 0.1045 0.79557 0.0
C429 C 0.54291 0.08447 0.53713 0.0
C430 C 0.52428 0.08213 0.55299 0.0
N431 N 0.50866 0.10251 0.55152 0.0
N432 N 0.53924 0.1062 0.52565 0.0
C433 C 0.51811 0.11675 0.53457 0.0
H434 H 0.55878 0.07162 0.53461 0.0
Co435 Co 0.56234 0.11604 0.50419 0.0
C436 C 0.55193 0.16976 0.49228 0.0
O437 O 0.5768 0.17282 0.49295 0.0
N438 N 0.58636 0.12429 0.48186 0.0
C439 C 0.62107 0.13054 0.46115 0.0
C440 C 0.61212 0.12325 0.48173 0.0
C441 C 0.58023 0.13152 0.46091 0.0
N442 N 0.60093 0.13594 0.44813 0.0
O443 O 0.5434 0.09615 0.48324 0.0
H444 H 0.62402 0.11756 0.49545 0.0
H445 H 0.56078 0.13368 0.45521 0.0
O446 O 0.54239 0.14758 0.49649 0.0
C447 C 0.55148 0.07327 0.48156 0.0
O448 O 0.57411 0.06792 0.48971 0.0
N449 N 0.58062 0.13349 0.52677 0.0
C450 C 0.60232 0.15054 0.5666 0.0
C451 C 0.58037 0.16203 0.5581 0.0
C452 C 0.56953 0.15289 0.53859 0.0
C453 C 0.60161 0.12152 0.53524 0.0
C454 C 0.61327 0.13021 0.55483 0.0
H455 H 0.55117 0.16048 0.53413 0.0
H456 H 0.60841 0.10411 0.52763 0.0
H457 H 0.51037 0.13485 0.52918 0.0
H458 H 0.52331 0.06721 0.56541 0.0
H459 H 0.64089 0.13224 0.45633 0.0
H460 H 0.57103 0.17748 0.56691 0.0
H461 H 0.62976 0.12028 0.56135 0.0
C462 C 0.68385 0.82008 0.30617 0.0
C463 C 0.69338 0.80308 0.32154 0.0
N464 N 0.68134 0.78052 0.3188 0.0
N465 N 0.66573 0.80833 0.29401 0.0
C466 C 0.66481 0.78426 0.30189 0.0
H467 H 0.68961 0.83976 0.304 0.0
Co468 Co 0.64768 0.82257 0.27064 0.0
C469 C 0.60906 0.78422 0.25833 0.0
O470 O 0.61868 0.78326 0.23814 0.0
N471 N 0.62966 0.83698 0.24665 0.0
C472 C 0.59758 0.85052 0.22553 0.0
C473 C 0.60481 0.84379 0.24668 0.0
C474 C 0.63709 0.83983 0.22524 0.0
N475 N 0.61786 0.84785 0.21199 0.0
O476 O 0.667 0.80122 0.25124 0.0
H477 H 0.5923 0.84262 0.26097 0.0
H478 H 0.65599 0.83528 0.2193 0.0
O479 O 0.62042 0.79729 0.27328 0.0
C480 C 0.68922 0.81024 0.24777 0.0
O481 O 0.69337 0.8344 0.25252 0.0
N482 N 0.63037 0.84363 0.29087 0.0
C483 C 0.60485 0.87407 0.32151 0.0
C484 C 0.60599 0.84761 0.32435 0.0
C485 C 0.61873 0.83274 0.30885 0.0
C486 C 0.63066 0.86955 0.28837 0.0
C487 C 0.61737 0.88521 0.30331 0.0
H488 H 0.61925 0.81235 0.31143 0.0
H489 H 0.64064 0.87802 0.27444 0.0
H490 H 0.65173 0.76995 0.29569 0.0
H491 H 0.70793 0.80713 0.33382 0.0
H492 H 0.57846 0.8555 0.22035 0.0
H493 H 0.59631 0.83833 0.33809 0.0
H494 H 0.61675 0.90566 0.30065 0.0
C495 C 0.92702 0.9038 0.06296 0.0
C496 C 0.94669 0.90907 0.07728 0.0
N497 N 0.96852 0.90075 0.06795 0.0
N498 N 0.93633 0.89189 0.04482 0.0
C499 C 0.96168 0.89029 0.04827 0.0
H500 H 0.90732 0.9093 0.0652 0.0
Co501 Co 0.91779 0.8863 0.01931 0.0
C502 C 0.93276 0.83495 0.00238 0.0
O503 O 0.90854 0.83123 -0.00223 0.0
N504 N 0.89873 0.88219 0.99307 0.0
C505 C 0.86843 0.88026 0.9672 0.0
C506 C 0.87335 0.88387 0.98943 0.0
C507 C 0.90879 0.8785 0.97259 0.0
N508 N 0.89077 0.87677 0.95665 0.0
O509 O 0.94013 0.9094 0.00425 0.0
H510 H 0.85901 0.88784 0.00175 0.0
H511 H 0.92903 0.87643 0.96959 0.0
O512 O 0.93976 0.85637 0.011 0.0
C513 C 0.93215 0.93236 0.00512 0.0
O514 O 0.90891 0.93651 0.01248 0.0
N515 N 0.89544 0.86545 0.03592 0.0
C516 C 0.86361 0.84065 0.06604 0.0
C517 C 0.88713 0.83011 0.06022 0.0
C518 C 0.90317 0.84327 0.04584 0.0
C519 C 0.87309 0.8766 0.04241 0.0
C520 C 0.85666 0.86437 0.05735 0.0
H521 H 0.92233 0.83623 0.04396 0.0
H522 H 0.86868 0.89578 0.037 0.0
H523 H 0.97496 0.88294 0.03606 0.0
H524 H 0.94505 0.91858 0.09322 0.0
H525 H 0.84983 0.88053 0.95941 0.0
H526 H 0.89372 0.81254 0.06784 0.0
H527 H 0.83919 0.87364 0.06255 0.0
C528 C 0.67422 0.68597 0.798 0.0
C529 C 0.67729 0.70556 0.81292 0.0
N530 N 0.66055 0.72416 0.80777 0.0
N531 N 0.65558 0.69207 0.78357 0.0
C532 C 0.6476 0.71549 0.78982 0.0
H533 H 0.68484 0.66828 0.79764 0.0
Co534 Co 0.64726 0.67077 0.76033 0.0
C535 C 0.59581 0.6838 0.74456 0.0
O536 O 0.59187 0.65904 0.74348 0.0
N537 N 0.64044 0.64872 0.73611 0.0
C538 C 0.63279 0.61641 0.7129 0.0
C539 C 0.6384 0.62303 0.73453 0.0
C540 C 0.63678 0.65705 0.71504 0.0
N541 N 0.63165 0.63791 0.70068 0.0
O542 O 0.66968 0.69032 0.74214 0.0
H543 H 0.64063 0.60961 0.74795 0.0
H544 H 0.63685 0.67706 0.71055 0.0
O545 O 0.6174 0.69239 0.7515 0.0
C546 C 0.69224 0.68135 0.74189 0.0
O547 O 0.69584 0.65799 0.74923 0.0
N548 N 0.6271 0.65172 0.78033 0.0
C549 C 0.60553 0.62798 0.81733 0.0
C550 C 0.59608 0.65129 0.8097 0.0
C551 C 0.60739 0.66306 0.79152 0.0
C552 C 0.63716 0.62941 0.78814 0.0
C553 C 0.62612 0.61672 0.80626 0.0
H554 H 0.60131 0.68221 0.7877 0.0
H555 H 0.65474 0.62219 0.78119 0.0
H556 H 0.63274 0.72598 0.78133 0.0
H557 H 0.69037 0.70572 0.82685 0.0
H558 H 0.62995 0.59722 0.7067 0.0
H559 H 0.58059 0.66085 0.81825 0.0
H560 H 0.63444 0.59911 0.81231 0.0
C561 C 0.58443 0.40861 0.04666 0.0
C562 C 0.57274 0.42173 0.06366 0.0
N563 N 0.54785 0.41531 0.06381 0.0
N564 N 0.56705 0.39374 0.03641 0.0
C565 C 0.54493 0.39828 0.04711 0.0
H566 H 0.60421 0.41019 0.04172 0.0
Co567 Co 0.57282 0.37519 0.01072 0.0
C568 C 0.52752 0.33996 0.01215 0.0
O569 O 0.51546 0.35219 -0.00376 0.0
N570 N 0.57895 0.35709 0.98454 0.0
C571 C 0.58722 0.3256 0.96086 0.0
C572 C 0.58034 0.33149 0.98229 0.0
C573 C 0.58518 0.36639 0.96428 0.0
N574 N 0.59037 0.34758 0.94953 0.0
O575 O 0.54682 0.39521 -0.00336 0.0
H576 H 0.57741 0.31791 -0.00443 0.0
H577 H 0.58682 0.38655 0.96066 0.0
O578 O 0.54862 0.34865 0.0195 0.0
C579 C 0.55429 0.41775 0.99191 0.0
O580 O 0.57887 0.42262 0.99265 0.0
N581 N 0.59875 0.35697 0.02529 0.0
C582 C 0.63731 0.33336 0.04935 0.0
C583 C 0.61235 0.33365 0.0574 0.0
C584 C 0.59337 0.34556 0.0452 0.0
C585 C 0.62308 0.35708 0.01717 0.0
C586 C 0.6428 0.34499 0.02892 0.0
H587 H 0.57444 0.34632 0.05223 0.0
H588 H 0.62726 0.36678 0.00169 0.0
H589 H 0.52702 0.38944 0.04255 0.0
H590 H 0.58175 0.43537 0.0747 0.0
H591 H 0.58992 0.30658 0.95423 0.0
H592 H 0.6076 0.32487 0.07322 0.0
H593 H 0.66204 0.34509 0.02237 0.0
C594 C 0.83987 0.33902 0.29843 0.0
C595 C 0.83367 0.3212 0.31417 0.0
N596 N 0.84971 0.30121 0.3121 0.0
N597 N 0.85973 0.33054 0.28638 0.0
C598 C 0.86538 0.3074 0.29495 0.0
H599 H 0.83001 0.35682 0.29542 0.0
Co600 Co 0.87019 0.34908 0.26204 0.0
C601 C 0.92324 0.33435 0.25082 0.0
O602 O 0.92717 0.35886 0.24756 0.0
N603 N 0.87906 0.36865 0.2368 0.0
C604 C 0.88782 0.39969 0.21268 0.0
C605 C 0.8816 0.39418 0.23435 0.0
C606 C 0.88334 0.35921 0.21616 0.0
N607 N 0.88894 0.37765 0.20116 0.0
O608 O 0.84934 0.32727 0.244 0.0
H609 H 0.87925 0.4083 0.2472 0.0
H610 H 0.88233 0.33906 0.21233 0.0
O611 O 0.90096 0.32673 0.25704 0.0
C612 C 0.82692 0.3362 0.24134 0.0
O613 O 0.82276 0.36015 0.24677 0.0
N614 N 0.88813 0.37078 0.28162 0.0
C615 C 0.9062 0.40108 0.31634 0.0
C616 C 0.91841 0.37824 0.31085 0.0
C617 C 0.90854 0.36291 0.29401 0.0
C618 C 0.87537 0.3925 0.28751 0.0
C619 C 0.88424 0.40816 0.30473 0.0
H620 H 0.91648 0.34408 0.29214 0.0
H621 H 0.85757 0.39714 0.27938 0.0
H622 H 0.88037 0.2953 0.28851 0.0
H623 H 0.81796 0.32272 0.32575 0.0
H624 H 0.89154 0.41856 0.20614 0.0
H625 H 0.93458 0.37155 0.32045 0.0
H626 H 0.87372 0.42515 0.30932 0.0
C627 C 0.91452 0.60339 0.56418 0.0
C628 C 0.93402 0.59829 0.57873 0.0
N629 N 0.95625 0.60411 0.56866 0.0
N630 N 0.92434 0.61277 0.54513 0.0
C631 C 0.9498 0.61299 0.54831 0.0
H632 H 0.89454 0.59944 0.56696 0.0
Co633 Co 0.90648 0.61722 0.519 0.0
C634 C 0.92338 0.66713 0.5002 0.0
O635 O 0.89966 0.67081 0.49391 0.0
N636 N 0.88823 0.62019 0.49218 0.0
C637 C 0.85858 0.62104 0.46572 0.0
C638 C 0.86291 0.6188 0.48817 0.0
C639 C 0.89884 0.62229 0.47173 0.0
N640 N 0.88122 0.62339 0.4554 0.0
O641 O 0.92856 0.59283 0.50537 0.0
H642 H 0.84821 0.61596 0.50042 0.0
H643 H 0.91919 0.62377 0.46901 0.0
O644 O 0.92933 0.64619 0.51013 0.0
C645 C 0.91959 0.57029 0.50703 0.0
O646 O 0.89605 0.56749 0.51416 0.0
N647 N 0.88416 0.63946 0.53421 0.0
C648 C 0.85249 0.66624 0.56319 0.0
C649 C 0.8761 0.67626 0.55688 0.0
C650 C 0.89203 0.66215 0.54313 0.0
C651 C 0.86155 0.629 0.54092 0.0
C652 C 0.84525 0.64216 0.55535 0.0
H653 H 0.91131 0.66886 0.54122 0.0
H654 H 0.85689 0.60961 0.53625 0.0
H655 H 0.96333 0.61811 0.53546 0.0
H656 H 0.93195 0.5905 0.59532 0.0
H657 H 0.84014 0.62068 0.45764 0.0
H658 H 0.883 0.69405 0.56387 0.0
H659 H 0.82771 0.6333 0.56093 0.0
C660 C 0.67378 0.30235 0.69422 0.0
C661 C 0.67561 0.28221 0.67975 0.0
N662 N 0.65747 0.26502 0.68507 0.0
N663 N 0.65458 0.29801 0.70859 0.0
C664 C 0.6449 0.27509 0.70268 0.0
H665 H 0.68567 0.31925 0.69431 0.0
Co666 Co 0.64808 0.32094 0.73106 0.0
C667 C 0.59774 0.30931 0.75076 0.0
O668 O 0.59429 0.33413 0.75158 0.0
N669 N 0.64332 0.34483 0.75425 0.0
C670 C 0.63791 0.37934 0.77541 0.0
C671 C 0.64161 0.37059 0.75404 0.0
C672 C 0.6414 0.33858 0.77605 0.0
N673 N 0.63765 0.35912 0.78924 0.0
O674 O 0.67172 0.30239 0.74901 0.0
H675 H 0.64274 0.38258 0.73952 0.0
H676 H 0.6416 0.31906 0.78195 0.0
O677 O 0.61857 0.30026 0.74257 0.0
C678 C 0.69425 0.31149 0.74797 0.0
O679 O 0.69725 0.33473 0.74012 0.0
N680 N 0.62682 0.33886 0.71113 0.0
C681 C 0.60496 0.3587 0.67245 0.0
C682 C 0.5941 0.33768 0.68321 0.0
C683 C 0.6056 0.3277 0.7021 0.0
C684 C 0.63769 0.35939 0.7008 0.0
C685 C 0.62671 0.37005 0.68168 0.0
H686 H 0.59851 0.30962 0.70794 0.0
H687 H 0.656 0.36639 0.70641 0.0
H688 H 0.62913 0.26596 0.71115 0.0
H689 H 0.68883 0.28072 0.66598 0.0
H690 H 0.63558 0.39909 0.78031 0.0
H691 H 0.57753 0.3281 0.67638 0.0
H692 H 0.63608 0.38586 0.67341 0.0
C693 C 0.93307 0.40397 0.93938 0.0
C694 C 0.94172 0.41802 0.92163 0.0
N695 N 0.96736 0.41952 0.92288 0.0
N696 N 0.9531 0.39617 0.95163 0.0
C697 C 0.97364 0.40652 0.94156 0.0
H698 H 0.91335 0.39986 0.94326 0.0
Co699 Co 0.94977 0.37901 0.97858 0.0
C700 C 0.99851 0.34837 0.96289 0.0
O701 O 0.00588 0.35996 0.94462 0.0
N702 N 0.94564 0.36256 0.0058 0.0
C703 C 0.94252 0.33219 0.03139 0.0
C704 C 0.94776 0.33725 0.00948 0.0
C705 C 0.93873 0.37247 0.02565 0.0
N706 N 0.93671 0.35435 0.04166 0.0
O707 O 0.97121 0.40445 0.99176 0.0
H708 H 0.95221 0.32322 -0.00313 0.0
H709 H 0.9347 0.39251 0.02807 0.0
O710 O 0.979 0.35641 0.97351 0.0
C711 C 0.9606 0.42612 0.99451 0.0
O712 O 0.93566 0.42751 0.99278 0.0
N713 N 0.92855 0.35471 0.96477 0.0
C714 C 0.89872 0.31848 0.94321 0.0
C715 C 0.92316 0.32421 0.93552 0.0
C716 C 0.93755 0.34257 0.94626 0.0
C717 C 0.90436 0.35005 0.97221 0.0
C718 C 0.88892 0.33187 0.96152 0.0
H719 H 0.95576 0.34749 0.93917 0.0
H720 H 0.89706 0.36041 0.98643 0.0
H721 H 0.99275 0.40486 0.94806 0.0
H722 H 0.92987 0.42643 0.90887 0.0
H723 H 0.94295 0.31348 0.03897 0.0
H724 H 0.93091 0.31496 0.92085 0.0
H725 H 0.86977 0.32822 0.96749 0.0
C726 C 0.85452 0.68313 0.20122 0.0
C727 C 0.84195 0.69629 0.18486 0.0
N728 N 0.85008 0.72072 0.1852 0.0
N729 N 0.87055 0.6991 0.21183 0.0
C730 C 0.86742 0.72193 0.20185 0.0
H731 H 0.85191 0.66322 0.20544 0.0
Co732 Co 0.88884 0.68879 0.23638 0.0
C733 C 0.92101 0.73259 0.24894 0.0
O734 O 0.90956 0.73319 0.26839 0.0
N735 N 0.9065 0.67746 0.26132 0.0
C736 C 0.93654 0.66641 0.28554 0.0
C737 C 0.93189 0.67476 0.26419 0.0
C738 C 0.89616 0.67033 0.28088 0.0
N739 N 0.91397 0.66376 0.29604 0.0
O740 O 0.86614 0.70879 0.25414 0.0
H741 H 0.94611 0.67905 0.25168 0.0
H742 H 0.87588 0.66993 0.28394 0.0
O743 O 0.913 0.71722 0.23399 0.0
C744 C 0.84402 0.69913 0.25672 0.0
O745 O 0.84077 0.67481 0.25206 0.0
N746 N 0.90941 0.66902 0.21779 0.0
C747 C 0.92894 0.63945 0.18351 0.0
C748 C 0.93166 0.66597 0.18316 0.0
C749 C 0.92165 0.68043 0.20035 0.0
C750 C 0.90764 0.64306 0.21903 0.0
C751 C 0.9176 0.62772 0.20199 0.0
H752 H 0.92191 0.70091 0.19849 0.0
H753 H 0.89719 0.63435 0.23258 0.0
H754 H 0.87775 0.73896 0.20664 0.0
H755 H 0.82773 0.68843 0.17375 0.0
H756 H 0.9551 0.66324 0.29289 0.0
H757 H 0.94036 0.67556 0.16908 0.0
H758 H 0.91519 0.60719 0.20262 0.0
C759 C 0.55957 0.58222 0.44939 0.0
C760 C 0.54714 0.57554 0.4302 0.0
N761 N 0.53527 0.59642 0.4224 0.0
N762 N 0.55528 0.60709 0.4539 0.0
C763 C 0.54031 0.6153 0.4371 0.0
H764 H 0.57197 0.56995 0.45896 0.0
Co765 Co 0.57146 0.6227 0.47764 0.0
C766 C 0.55291 0.67625 0.48095 0.0
O767 O 0.5768 0.68277 0.484 0.0
N768 N 0.58904 0.63709 0.50259 0.0
C769 C 0.61812 0.65527 0.52465 0.0
C770 C 0.61184 0.64933 0.50316 0.0
C771 C 0.58209 0.63587 0.52433 0.0
N772 N 0.59948 0.64669 0.53801 0.0
O773 O 0.54875 0.6042 0.49678 0.0
H774 H 0.62339 0.65444 0.48903 0.0
H775 H 0.56465 0.62713 0.53019 0.0
O776 O 0.54728 0.65261 0.47755 0.0
C777 C 0.55686 0.58241 0.50308 0.0
O778 O 0.58157 0.57823 0.5025 0.0
N779 N 0.59393 0.63813 0.45712 0.0
C780 C 0.62795 0.65454 0.4246 0.0
C781 C 0.60339 0.66472 0.4257 0.0
C782 C 0.58654 0.65603 0.44187 0.0
C783 C 0.61718 0.6266 0.45511 0.0
C784 C 0.63494 0.63514 0.43936 0.0
H785 H 0.56739 0.66335 0.44151 0.0
H786 H 0.62215 0.6111 0.46618 0.0
H787 H 0.53394 0.63481 0.43518 0.0
H788 H 0.54813 0.55725 0.42181 0.0
H789 H 0.63549 0.66456 0.53007 0.0
H790 H 0.59724 0.67929 0.41407 0.0
H791 H 0.65368 0.62652 0.43853 0.0
C792 C 0.35647 0.3483 0.17008 0.0
C793 C 0.35093 0.33075 0.15384 0.0
N794 N 0.35446 0.30715 0.16229 0.0
N795 N 0.364 0.33598 0.18862 0.0
C796 C 0.36251 0.31096 0.18345 0.0
H797 H 0.35416 0.36873 0.16864 0.0
Co798 Co 0.36888 0.35113 0.21612 0.0
C799 C 0.41773 0.3303 0.23426 0.0
O800 O 0.42191 0.35265 0.24351 0.0
N801 N 0.3722 0.36697 0.24426 0.0
C802 C 0.37515 0.39584 0.27134 0.0
C803 C 0.37172 0.39222 0.24897 0.0
C804 C 0.37452 0.35563 0.26446 0.0
N805 N 0.37716 0.37284 0.28106 0.0
O806 O 0.34411 0.32809 0.22825 0.0
H807 H 0.36885 0.40745 0.23726 0.0
H808 H 0.3755 0.33515 0.2668 0.0
O809 O 0.39709 0.32664 0.22312 0.0
C810 C 0.32114 0.33548 0.22573 0.0
O811 O 0.31709 0.35874 0.21833 0.0
N812 N 0.39209 0.37434 0.20255 0.0
C813 C 0.4219 0.4078 0.17745 0.0
C814 C 0.43051 0.38322 0.18227 0.0
C815 C 0.41496 0.36652 0.19399 0.0
C816 C 0.38287 0.3979 0.19695 0.0
C817 C 0.39757 0.41509 0.1845 0.0
H818 H 0.42084 0.34689 0.19457 0.0
H819 H 0.36341 0.40285 0.20102 0.0
H820 H 0.36604 0.29594 0.19541 0.0
H821 H 0.34445 0.33523 0.13721 0.0
H822 H 0.37604 0.41404 0.27986 0.0
H823 H 0.44848 0.37634 0.17566 0.0
H824 H 0.38975 0.43348 0.17987 0.0
C825 C 0.44247 0.57677 0.94535 0.0
C826 C 0.46165 0.57056 0.93086 0.0
N827 N 0.47967 0.58893 0.93187 0.0
N828 N 0.44825 0.59888 0.95556 0.0
C829 C 0.47104 0.6059 0.94714 0.0
H830 H 0.42547 0.56566 0.94861 0.0
Co831 Co 0.42748 0.61142 0.9776 0.0
C832 C 0.44131 0.66534 0.98598 0.0
O833 O 0.41662 0.66956 0.98589 0.0
N834 N 0.40584 0.62258 0.00074 0.0
C835 C 0.37388 0.6341 0.02299 0.0
C836 C 0.38028 0.62566 0.00206 0.0
C837 C 0.41432 0.62883 0.02128 0.0
N838 N 0.39538 0.63616 0.03509 0.0
O839 O 0.44716 0.59194 -0.00172 0.0
H840 H 0.36673 0.62224 0.98895 0.0
H841 H 0.43422 0.62797 0.02591 0.0
O842 O 0.44956 0.64247 0.98257 0.0
C843 C 0.43835 0.56957 0.00166 0.0
O844 O 0.41452 0.56495 -0.00381 0.0
N845 N 0.40832 0.62803 0.95539 0.0
C846 C 0.3826 0.64445 0.9175 0.0
C847 C 0.40646 0.65454 0.92287 0.0
C848 C 0.41923 0.64573 0.94161 0.0
C849 C 0.38578 0.61683 0.94948 0.0
C850 C 0.37208 0.62538 0.93095 0.0
H851 H 0.43853 0.65221 0.94414 0.0
H852 H 0.37888 0.60046 0.95866 0.0
H853 H 0.48091 0.62313 0.95207 0.0
H854 H 0.46224 0.55358 0.92064 0.0
H855 H 0.35485 0.63868 0.02866 0.0
H856 H 0.41549 0.66865 0.91228 0.0
H857 H 0.35409 0.61649 0.92662 0.0
C858 C 0.17326 0.68159 0.67893 0.0
C859 C 0.17808 0.70102 0.66426 0.0
N860 N 0.1633 0.72119 0.66972 0.0
N861 N 0.15549 0.68925 0.69359 0.0
C862 C 0.1498 0.71343 0.68774 0.0
H863 H 0.18251 0.66314 0.67928 0.0
Co864 Co 0.14665 0.66929 0.71752 0.0
C865 C 0.09519 0.68343 0.73239 0.0
O866 O 0.09132 0.65871 0.73407 0.0
N867 N 0.13948 0.6486 0.74256 0.0
C868 C 0.13178 0.61762 0.76708 0.0
C869 C 0.13728 0.62303 0.74519 0.0
C870 C 0.13601 0.65808 0.76331 0.0
N871 N 0.13091 0.63974 0.77843 0.0
O872 O 0.16931 0.6894 0.73504 0.0
H873 H 0.13945 0.60885 0.73238 0.0
H874 H 0.13636 0.67829 0.76706 0.0
O875 O 0.11693 0.69178 0.72551 0.0
C876 C 0.1919 0.68049 0.73512 0.0
O877 O 0.19541 0.65695 0.72817 0.0
N878 N 0.12611 0.64965 0.69812 0.0
C879 C 0.10204 0.62433 0.66312 0.0
C880 C 0.0945 0.64888 0.66926 0.0
C881 C 0.10707 0.66138 0.68639 0.0
C882 C 0.13469 0.62624 0.69143 0.0
C883 C 0.12231 0.61276 0.67438 0.0
H884 H 0.10231 0.68115 0.68912 0.0
H885 H 0.15201 0.61853 0.69845 0.0
H886 H 0.1362 0.72502 0.69671 0.0
H887 H 0.1917 0.70016 0.65079 0.0
H888 H 0.12893 0.5988 0.77411 0.0
H889 H 0.07938 0.65868 0.66043 0.0
H890 H 0.12921 0.59413 0.66938 0.0
C891 C 0.05155 0.40113 0.4519 0.0
C892 C 0.03847 0.41514 0.43639 0.0
N893 N 0.01352 0.41473 0.44175 0.0
N894 N 0.03497 0.39126 0.46675 0.0
C895 C 0.01206 0.40061 0.46055 0.0
H896 H 0.07195 0.39821 0.45222 0.0
Co897 Co 0.04475 0.37248 0.49174 0.0
C898 C 0.99838 0.33881 0.47751 0.0
O899 O 0.99104 0.35075 0.4594 0.0
N900 N 0.05517 0.35446 0.51678 0.0
C901 C 0.06475 0.32277 0.53986 0.0
C902 C 0.05537 0.32883 0.51919 0.0
C903 C 0.06478 0.36358 0.53605 0.0
N904 N 0.07067 0.34466 0.55046 0.0
O905 O 0.02318 0.39385 0.50929 0.0
H906 H 0.04941 0.31533 0.50658 0.0
H907 H 0.06723 0.38371 0.5395 0.0
O908 O 0.01737 0.3471 0.48871 0.0
C909 C 0.0325 0.41605 0.51243 0.0
O910 O 0.0567 0.41978 0.50772 0.0
N911 N 0.06658 0.35278 0.47387 0.0
C912 C 0.0999 0.33539 0.44133 0.0
C913 C 0.07375 0.33096 0.43947 0.0
C914 C 0.05742 0.33996 0.45578 0.0
C915 C 0.09224 0.35578 0.47679 0.0
C916 C 0.10944 0.34705 0.4606 0.0
H917 H 0.03742 0.3386 0.45248 0.0
H918 H 0.09925 0.36653 0.4909 0.0
H919 H 0.99466 0.39729 0.46979 0.0
H920 H 0.04669 0.42407 0.42182 0.0
H921 H 0.06747 0.3037 0.54639 0.0
H922 H 0.06581 0.32193 0.42478 0.0
H923 H 0.12964 0.35076 0.46245 0.0
C924 C 0.36554 0.67975 0.29404 0.0
C925 C 0.35027 0.68725 0.3114 0.0
N926 N 0.34851 0.71294 0.31113 0.0
N927 N 0.37388 0.70057 0.28304 0.0
C928 C 0.36271 0.72044 0.29349 0.0
H929 H 0.36985 0.66027 0.28938 0.0
Co930 Co 0.3916 0.6992 0.25623 0.0
C931 C 0.42269 0.74463 0.27708 0.0
O932 O 0.4108 0.74858 0.296 0.0
N933 N 0.40847 0.69711 0.22918 0.0
C934 C 0.43887 0.69549 0.20359 0.0
C935 C 0.43372 0.69973 0.22565 0.0
C936 C 0.3987 0.69089 0.20914 0.0
N937 N 0.41683 0.68977 0.19313 0.0
O938 O 0.36755 0.72275 0.24413 0.0
H939 H 0.44767 0.7036 0.23846 0.0
H940 H 0.37878 0.68646 0.20664 0.0
O941 O 0.41492 0.72721 0.26381 0.0
C942 C 0.34551 0.71353 0.24025 0.0
O943 O 0.34253 0.68861 0.24105 0.0
N944 N 0.41458 0.6757 0.26862 0.0
C945 C 0.44856 0.64157 0.28775 0.0
C946 C 0.44426 0.66541 0.29741 0.0
C947 C 0.42697 0.68199 0.28783 0.0
C948 C 0.41792 0.65217 0.25921 0.0
C949 C 0.43496 0.63459 0.26863 0.0
H950 H 0.42299 0.6996 0.29637 0.0
H951 H 0.40732 0.64703 0.24443 0.0
H952 H 0.3646 0.73995 0.28791 0.0
H953 H 0.34099 0.67457 0.32308 0.0
H954 H 0.45759 0.6963 0.19608 0.0
H955 H 0.45378 0.67094 0.3127 0.0
H956 H 0.43752 0.61595 0.26113 0.0
C957 C 0.05783 0.58993 0.02818 0.0
C958 C 0.04257 0.58152 0.04511 0.0
N959 N 0.02523 0.59978 0.04951 0.0
N960 N 0.05017 0.61329 0.02168 0.0
C961 C 0.03008 0.61885 0.03487 0.0
H962 H 0.07392 0.57982 0.0212 0.0
Co963 Co 0.06845 0.62927 -0.00045 0.0
C964 C 0.04977 0.68202 0.99372 0.0
O965 O 0.07401 0.68799 0.99208 0.0
N966 N 0.08836 0.64365 0.97615 0.0
C967 C 0.11973 0.65923 0.95503 0.0
C968 C 0.11239 0.6532 0.97631 0.0
C969 C 0.08169 0.64425 0.95436 0.0
N970 N 0.10047 0.65338 0.94119 0.0
O971 O 0.0493 0.60941 0.97871 0.0
H972 H 0.12434 0.65572 0.99069 0.0
H973 H 0.06348 0.63773 0.94812 0.0
O974 O 0.0435 0.65848 -0.00304 0.0
C975 C 0.05963 0.58819 0.9735 0.0
O976 O 0.08434 0.58575 0.97645 0.0
N977 N 0.08716 0.64613 0.02201 0.0
C978 C 0.11273 0.6623 0.06019 0.0
C979 C 0.08823 0.67119 0.05543 0.0
C980 C 0.07561 0.66254 0.03658 0.0
C981 C 0.11046 0.63609 0.02712 0.0
C982 C 0.12405 0.6446 0.04578 0.0
H983 H 0.056 0.66813 0.03462 0.0
H984 H 0.11842 0.62119 0.01676 0.0
H985 H 0.01997 0.63685 0.03437 0.0
H986 H 0.0444 0.56346 0.05372 0.0
H987 H 0.13828 0.6663 0.95005 0.0
H988 H 0.07866 0.6845 0.06643 0.0
H989 H 0.14275 0.63683 0.0493 0.0
C990 C 0.15163 0.34144 0.81701 0.0
C991 C 0.15575 0.32393 0.83363 0.0
N992 N 0.151 0.30043 0.82542 0.0
N993 N 0.14393 0.32911 0.79851 0.0
C994 C 0.14377 0.30417 0.80408 0.0
H995 H 0.1549 0.36179 0.81813 0.0
Co996 Co 0.14058 0.34388 0.77081 0.0
C997 C 0.09109 0.32456 0.75291 0.0
O998 O 0.08675 0.34789 0.74578 0.0
N999 N 0.13883 0.35915 0.74244 0.0
C1000 C 0.14195 0.38639 0.71412 0.0
C1001 C 0.14467 0.38341 0.73669 0.0
C1002 C 0.13401 0.34749 0.72277 0.0
N1003 N 0.13502 0.36379 0.70535 0.0
O1004 O 0.16574 0.32053 0.75989 0.0
H1005 H 0.15116 0.39815 0.7478 0.0
H1006 H 0.12986 0.32732 0.72127 0.0
O1007 O 0.11223 0.31965 0.76293 0.0
C1008 C 0.18832 0.32912 0.76242 0.0
O1009 O 0.19115 0.35298 0.76877 0.0
N1010 N 0.11729 0.36762 0.78331 0.0
C1011 C 0.08737 0.40227 0.80704 0.0
C1012 C 0.07925 0.3771 0.80392 0.0
C1013 C 0.09491 0.35988 0.79287 0.0
C1014 C 0.12615 0.39172 0.78742 0.0
C1015 C 0.11136 0.40952 0.79907 0.0
H1016 H 0.08951 0.34002 0.79329 0.0
H1017 H 0.14552 0.39667 0.78322 0.0
H1018 H 0.13968 0.28904 0.79232 0.0
H1019 H 0.162 0.32826 0.85037 0.0
H1020 H 0.14452 0.40402 0.705 0.0
H1021 H 0.06161 0.37033 0.81127 0.0
H1022 H 0.1189 0.42839 0.80244 0.0
C1023 C 0.45258 0.41425 0.53791 0.0
C1024 C 0.47218 0.41771 0.55269 0.0
N1025 N 0.48975 0.3994 0.54907 0.0
N1026 N 0.45764 0.39383 0.52505 0.0
C1027 C 0.48045 0.38515 0.53211 0.0
H1028 H 0.43554 0.42577 0.53661 0.0
Co1029 Co 0.43568 0.38425 0.5027 0.0
C1030 C 0.44785 0.33139 0.48948 0.0
O1031 O 0.42306 0.32793 0.48869 0.0
N1032 N 0.41277 0.37602 0.47936 0.0
C1033 C 0.37921 0.36684 0.45804 0.0
C1034 C 0.38727 0.37203 0.47933 0.0
C1035 C 0.41955 0.37345 0.45772 0.0
N1036 N 0.39956 0.36776 0.44445 0.0
O1037 O 0.45503 0.40558 0.48318 0.0
H1038 H 0.37486 0.37278 0.49358 0.0
H1039 H 0.43897 0.3754 0.45185 0.0
O1040 O 0.45668 0.35351 0.49488 0.0
C1041 C 0.44593 0.42813 0.48209 0.0
O1042 O 0.42218 0.43167 0.48835 0.0
N1043 N 0.41693 0.3658 0.52412 0.0
C1044 C 0.39421 0.34891 0.56341 0.0
C1045 C 0.41643 0.3374 0.55548 0.0
C1046 C 0.42775 0.3464 0.53609 0.0
C1047 C 0.39564 0.37772 0.53207 0.0
C1048 C 0.38345 0.36906 0.55137 0.0
H1049 H 0.44632 0.33899 0.53198 0.0
H1050 H 0.38886 0.39493 0.52408 0.0
H1051 H 0.49001 0.36878 0.52497 0.0
H1052 H 0.47297 0.43214 0.56557 0.0
H1053 H 0.35974 0.36336 0.4529 0.0
H1054 H 0.42566 0.32227 0.56477 0.0
H1055 H 0.36675 0.37896 0.55753 0.0
H1056 H 0.08854 0.1983 0.05877 0.0
H1057 H 0.11615 0.12403 0.17246 0.0
H1058 H 0.10304 0.11728 0.06237 0.0
H1059 H 0.09902 0.20457 0.1692 0.0
H1060 H 0.1118 0.12132 0.1322 0.0
H1061 H 0.09323 0.20113 0.09903 0.0
C1062 C 0.09294 0.1811 0.06797 0.0
C1063 C 0.09552 0.15749 0.05708 0.0
C1064 C 0.10896 0.1396 0.14027 0.0
C1065 C 0.10057 0.1606 0.1034 0.0
C1066 C 0.11127 0.14115 0.16334 0.0
C1067 C 0.10782 0.16457 0.17436 0.0
C1068 C 0.10318 0.16162 0.12798 0.0
C1069 C 0.10208 0.18618 0.16146 0.0
C1070 C 0.09543 0.18273 0.09103 0.0
C1071 C 0.10068 0.13581 0.07004 0.0
N1072 N 0.09992 0.18417 0.13897 0.0
N1073 N 0.10306 0.13789 0.09251 0.0
H1074 H 0.0671 0.8815 0.41875 0.0
H1075 H 0.1385 0.82238 0.31303 0.0
H1076 H 0.11265 0.81297 0.42102 0.0
H1077 H 0.09527 0.89244 0.31107 0.0
H1078 H 0.12652 0.81692 0.35195 0.0
H1079 H 0.07402 0.88381 0.37862 0.0
C1080 C 0.07823 0.8667 0.41078 0.0
C1081 C 0.08944 0.84707 0.42331 0.0
C1082 C 0.11958 0.83347 0.343 0.0
C1083 C 0.09783 0.84987 0.3774 0.0
C1084 C 0.12634 0.83655 0.32072 0.0
C1085 C 0.11794 0.85796 0.30874 0.0
C1086 C 0.10431 0.85193 0.35345 0.0
C1087 C 0.10251 0.87586 0.31973 0.0
C1088 C 0.08236 0.86816 0.38787 0.0
C1089 C 0.104 0.82864 0.41208 0.0
N1090 N 0.09622 0.87246 0.34147 0.0
N1091 N 0.10788 0.83057 0.38979 0.0
H1092 H 0.37881 0.86165 0.67533 0.0
H1093 H 0.43751 0.85121 0.55317 0.0
H1094 H 0.45411 0.83206 0.66253 0.0
H1095 H 0.36865 0.89252 0.56885 0.0
H1096 H 0.44513 0.84525 0.59307 0.0
H1097 H 0.37539 0.87391 0.63624 0.0
C1098 C 0.39464 0.8578 0.66426 0.0
C1099 C 0.41669 0.8457 0.67212 0.0
C1100 C 0.42847 0.8558 0.58774 0.0
C1101 C 0.413 0.85963 0.62733 0.0
C1102 C 0.42418 0.8593 0.56497 0.0
C1103 C 0.40221 0.87207 0.55763 0.0
C1104 C 0.4106 0.86506 0.60321 0.0
C1105 C 0.38549 0.882 0.57369 0.0
C1106 C 0.39277 0.86492 0.64197 0.0
C1107 C 0.43684 0.8415 0.65716 0.0
N1108 N 0.38992 0.87811 0.59567 0.0
N1109 N 0.43442 0.84823 0.63541 0.0
H1110 H 0.43598 0.12949 0.82183 0.0
H1111 H 0.38714 0.17571 0.94121 0.0
H1112 H 0.37826 0.18702 0.83202 0.0
H1113 H 0.44304 0.1162 0.93276 0.0
H1114 H 0.38126 0.17726 0.901 0.0
H1115 H 0.43674 0.12169 0.86199 0.0
C1116 C 0.42339 0.14041 0.83245 0.0
C1117 C 0.40717 0.1591 0.82345 0.0
C1118 C 0.3947 0.1637 0.90786 0.0
C1119 C 0.40784 0.15014 0.86946 0.0
C1120 C 0.39813 0.16289 0.93084 0.0
C1121 C 0.41584 0.14603 0.9403 0.0
C1122 C 0.40926 0.14768 0.89408 0.0
C1123 C 0.42918 0.12945 0.92611 0.0
C1124 C 0.42375 0.13585 0.85538 0.0
C1125 C 0.39095 0.17231 0.83804 0.0
N1126 N 0.42584 0.13089 0.90365 0.0
N1127 N 0.39186 0.16772 0.86028 0.0
H1128 H 0.93268 0.88666 0.93149 0.0
H1129 H 0.87481 0.81761 0.824 0.0
H1130 H 0.85744 0.85333 0.92885 0.0
H1131 H 0.94809 0.85526 0.8246 0.0
H1132 H 0.86829 0.83051 0.86252 0.0
H1133 H 0.93904 0.87505 0.89247 0.0
C1134 C 0.91752 0.87687 0.92273 0.0
C1135 C 0.8945 0.87095 0.93347 0.0
C1136 C 0.8858 0.836 0.85423 0.0
C1137 C 0.90157 0.85773 0.88882 0.0
C1138 C 0.88947 0.82875 0.83215 0.0
C1139 C 0.91201 0.83541 0.82097 0.0
C1140 C 0.90481 0.84999 0.86529 0.0
C1141 C 0.93055 0.84944 0.8326 0.0
C1142 C 0.92111 0.87036 0.90043 0.0
C1143 C 0.87536 0.85857 0.9212 0.0
N1144 N 0.92654 0.85627 0.85414 0.0
N1145 N 0.87936 0.85231 0.89956 0.0
H1146 H 0.94294 0.13051 0.66651 0.0
H1147 H 0.85635 0.15059 0.55824 0.0
H1148 H 0.87296 0.17371 0.66671 0.0
H1149 H 0.92627 0.1072 0.5587 0.0
H1150 H 0.86257 0.16035 0.59761 0.0
H1151 H 0.93808 0.12356 0.62657 0.0
C1152 C 0.92658 0.13861 0.65812 0.0
C1153 C 0.90824 0.15255 0.67002 0.0
C1154 C 0.87657 0.14871 0.58909 0.0
C1155 C 0.9025 0.14466 0.62419 0.0
C1156 C 0.87292 0.14293 0.56662 0.0
C1157 C 0.89077 0.12794 0.55508 0.0
C1158 C 0.89821 0.13941 0.60018 0.0
C1159 C 0.91214 0.11901 0.5668 0.0
C1160 C 0.92383 0.13469 0.63529 0.0
C1161 C 0.88765 0.163 0.6582 0.0
N1162 N 0.91522 0.12483 0.58868 0.0
N1163 N 0.88523 0.15868 0.63596 0.0
H1164 H 0.63634 0.17005 0.31057 0.0
H1165 H 0.56581 0.16666 0.42876 0.0
H1166 H 0.56915 0.21384 0.32663 0.0
H1167 H 0.63727 0.1284 0.41648 0.0
H1168 H 0.56692 0.18372 0.39105 0.0
H1169 H 0.6379 0.15498 0.34919 0.0
C1170 C 0.6221 0.17673 0.32223 0.0
C1171 C 0.60242 0.19304 0.31526 0.0
C1172 C 0.5824 0.17161 0.39655 0.0
C1173 C 0.60388 0.17562 0.35933 0.0
C1174 C 0.58165 0.16166 0.41806 0.0
C1175 C 0.60138 0.14591 0.42576 0.0
C1176 C 0.60299 0.16572 0.38249 0.0
C1177 C 0.62173 0.14058 0.41127 0.0
C1178 C 0.6229 0.16798 0.34424 0.0
C1179 C 0.58435 0.20087 0.3311 0.0
N1180 N 0.62197 0.15038 0.39029 0.0
N1181 N 0.58544 0.192 0.35229 0.0
H1182 H 0.57597 0.8792 0.0761 0.0
H1183 H 0.6487 0.82314 0.18254 0.0
H1184 H 0.64007 0.82781 0.07179 0.0
H1185 H 0.58657 0.87695 0.18651 0.0
H1186 H 0.64622 0.82491 0.142 0.0
H1187 H 0.57919 0.87806 0.11659 0.0
C1188 C 0.59058 0.86747 0.08364 0.0
C1189 C 0.60776 0.85354 0.07046 0.0
C1190 C 0.63318 0.8364 0.15175 0.0
C1191 C 0.61182 0.85246 0.11693 0.0
C1192 C 0.63473 0.83557 0.17494 0.0
C1193 C 0.61778 0.84991 0.18804 0.0
C1194 C 0.61454 0.85166 0.14152 0.0
C1195 C 0.59978 0.86531 0.17714 0.0
C1196 C 0.59255 0.867 0.1068 0.0
C1197 C 0.6266 0.83907 0.08124 0.0
N1198 N 0.5986 0.86573 0.15455 0.0
N1199 N 0.62812 0.8389 0.10383 0.0
H1200 H 0.57911 0.61161 0.56627 0.0
H1201 H 0.64468 0.6764 0.67258 0.0
H1202 H 0.62097 0.68251 0.56446 0.0
H1203 H 0.60389 0.60482 0.67545 0.0
H1204 H 0.63346 0.6802 0.6334 0.0
H1205 H 0.5847 0.61029 0.60677 0.0
C1206 C 0.58912 0.62708 0.57443 0.0
C1207 C 0.59982 0.64707 0.56198 0.0
C1208 C 0.62689 0.66367 0.64259 0.0
C1209 C 0.60661 0.64553 0.60815 0.0
C1210 C 0.63323 0.66153 0.66504 0.0
C1211 C 0.6253 0.64021 0.6774 0.0
C1212 C 0.61253 0.64434 0.63229 0.0
C1213 C 0.61078 0.62139 0.66654 0.0
C1214 C 0.5925 0.62622 0.59751 0.0
C1215 C 0.61284 0.66651 0.57338 0.0
N1216 N 0.6049 0.62387 0.6446 0.0
N1217 N 0.61599 0.66518 0.59576 0.0
H1218 H 0.6195 0.31436 0.926 0.0
H1219 H 0.61143 0.39474 0.81302 0.0
H1220 H 0.58058 0.38669 0.92097 0.0
H1221 H 0.65183 0.32336 0.81956 0.0
H1222 H 0.60117 0.39315 0.85266 0.0
H1223 H 0.63226 0.31808 0.88718 0.0
C1224 C 0.61351 0.331 0.91671 0.0
C1225 C 0.59872 0.35014 0.92676 0.0
C1226 C 0.61236 0.37789 0.84543 0.0
C1227 C 0.61358 0.35468 0.88215 0.0
C1228 C 0.61838 0.37885 0.82279 0.0
C1229 C 0.63248 0.35909 0.81283 0.0
C1230 C 0.62047 0.35701 0.85826 0.0
C1231 C 0.6406 0.33881 0.82636 0.0
C1232 C 0.62096 0.3332 0.89453 0.0
C1233 C 0.59207 0.37155 0.91395 0.0
N1234 N 0.63443 0.33827 0.84832 0.0
N1235 N 0.59944 0.37319 0.89227 0.0
H1236 H 0.88921 0.41431 0.16884 0.0
H1237 H 0.92283 0.31727 0.07132 0.0
H1238 H 0.90323 0.33393 0.17974 0.0
H1239 H 0.93332 0.39891 0.06528 0.0
H1240 H 0.91122 0.32302 0.11006 0.0
H1241 H 0.90095 0.40887 0.12993 0.0
C1242 C 0.89483 0.39553 0.16323 0.0
C1243 C 0.89524 0.37457 0.17788 0.0
C1244 C 0.91612 0.33966 0.10023 0.0
C1245 C 0.9083 0.36824 0.13299 0.0
C1246 C 0.9229 0.33643 0.07798 0.0
C1247 C 0.92932 0.35762 0.0647 0.0
C1248 C 0.91541 0.36426 0.10938 0.0
C1249 C 0.92838 0.38196 0.07458 0.0
C1250 C 0.90146 0.39246 0.1409 0.0
C1251 C 0.90226 0.35064 0.16923 0.0
N1252 N 0.92152 0.3846 0.09629 0.0
N1253 N 0.90845 0.34814 0.14737 0.0
H1254 H 0.94508 0.63611 0.32315 0.0
H1255 H 0.84874 0.64547 0.42611 0.0
H1256 H 0.87294 0.67573 0.32154 0.0
H1257 H 0.92364 0.6119 0.43127 0.0
H1258 H 0.85662 0.65417 0.38696 0.0
H1259 H 0.93724 0.62517 0.36217 0.0
C1260 C 0.92765 0.64255 0.33096 0.0
C1261 C 0.90962 0.65679 0.31894 0.0
C1262 C 0.87136 0.64485 0.39661 0.0
C1263 C 0.90043 0.64415 0.36349 0.0
C1264 C 0.86678 0.63968 0.41898 0.0
C1265 C 0.88554 0.62789 0.43205 0.0
C1266 C 0.89489 0.63818 0.38711 0.0
C1267 C 0.90875 0.62128 0.4219 0.0
C1268 C 0.92313 0.6362 0.3532 0.0
C1269 C 0.88721 0.66436 0.3299 0.0
N1270 N 0.91279 0.62652 0.40001 0.0
N1271 N 0.88329 0.65795 0.3515 0.0
H1272 H 0.43163 0.39012 0.41486 0.0
H1273 H 0.35918 0.33486 0.30762 0.0
H1274 H 0.36725 0.33904 0.41948 0.0
H1275 H 0.40875 0.40054 0.30689 0.0
H1276 H 0.36722 0.33013 0.34782 0.0
H1277 H 0.42899 0.38786 0.37432 0.0
C1278 C 0.41715 0.37816 0.40736 0.0
C1279 C 0.39948 0.36495 0.42058 0.0
C1280 C 0.37642 0.34547 0.33878 0.0
C1281 C 0.39618 0.36244 0.37414 0.0
C1282 C 0.37193 0.34806 0.3159 0.0
C1283 C 0.38303 0.36832 0.30411 0.0
C1284 C 0.39242 0.36304 0.34969 0.0
C1285 C 0.39942 0.38498 0.31552 0.0
C1286 C 0.41552 0.37701 0.3842 0.0
C1287 C 0.38095 0.34991 0.4099 0.0
N1288 N 0.40357 0.38201 0.33765 0.0
N1289 N 0.3797 0.34913 0.38729 0.0
H1290 H 0.35812 0.63822 0.06673 0.0
H1291 H 0.45406 0.67699 0.16335 0.0
H1292 H 0.4381 0.65378 0.05582 0.0
H1293 H 0.37239 0.68602 0.16951 0.0
H1294 H 0.44844 0.66495 0.12475 0.0
H1295 H 0.36287 0.65235 0.10521 0.0
C1296 C 0.37664 0.64469 0.07228 0.0
C1297 C 0.39776 0.64461 0.05786 0.0
C1298 C 0.43176 0.66966 0.13455 0.0
C1299 C 0.40333 0.66044 0.10209 0.0
C1300 C 0.43492 0.67668 0.15673 0.0
C1301 C 0.41369 0.68269 0.17003 0.0
C1302 C 0.40718 0.66831 0.12549 0.0
C1303 C 0.38937 0.68133 0.16019 0.0
C1304 C 0.37932 0.65269 0.09432 0.0
C1305 C 0.42135 0.65295 0.06627 0.0
N1306 N 0.38679 0.67419 0.13855 0.0
N1307 N 0.42349 0.6604 0.08783 0.0
H1308 H 0.07585 0.62148 0.9127 0.0
H1309 H 0.14637 0.67844 0.80537 0.0
H1310 H 0.12761 0.68552 0.91491 0.0
H1311 H 0.10181 0.60913 0.80463 0.0
H1312 H 0.13627 0.68385 0.84478 0.0
H1313 H 0.08128 0.61951 0.87233 0.0
C1314 C 0.08806 0.63538 0.90467 0.0
C1315 C 0.10142 0.65362 0.91722 0.0
C1316 C 0.12866 0.66748 0.83599 0.0
C1317 C 0.10803 0.65123 0.87104 0.0
C1318 C 0.13434 0.66444 0.81345 0.0
C1319 C 0.12504 0.64322 0.80168 0.0
C1320 C 0.11347 0.64923 0.84687 0.0
C1321 C 0.10974 0.62553 0.81312 0.0
C1322 C 0.09134 0.6341 0.88163 0.0
C1323 C 0.11725 0.67093 0.90592 0.0
N1324 N 0.10445 0.62893 0.83506 0.0
N1325 N 0.1202 0.66924 0.8835 0.0
H1326 H 0.10392 0.32618 0.6898 0.0
H1327 H 0.10098 0.38267 0.56622 0.0
H1328 H 0.1496 0.39037 0.66858 0.0
H1329 H 0.06432 0.31214 0.58514 0.0
H1330 H 0.11844 0.38629 0.60383 0.0
H1331 H 0.08942 0.32052 0.65154 0.0
C1332 C 0.1112 0.33889 0.6771 0.0
C1333 C 0.12796 0.35888 0.68254 0.0
C1334 C 0.10665 0.36997 0.59973 0.0
C1335 C 0.11097 0.3528 0.63867 0.0
C1336 C 0.09652 0.36801 0.5783 0.0
C1337 C 0.08114 0.34709 0.57252 0.0
C1338 C 0.1012 0.35097 0.61555 0.0
C1339 C 0.0763 0.32844 0.58878 0.0
C1340 C 0.10274 0.33576 0.65524 0.0
C1341 C 0.13636 0.37498 0.66531 0.0
N1342 N 0.0862 0.33087 0.60956 0.0
N1343 N 0.12766 0.37168 0.64421 0.0
H1344 H 0.97308 0.34787 0.24532 0.0
H1345 H 0.02744 0.20567 0.24253 0.0
H1346 H 0.92539 0.28144 0.25438 0.0
H1347 H 0.07594 0.27183 0.24981 0.0
H1348 H 0.99016 0.23313 0.24396 0.0
H1349 H 0.01048 0.32049 0.24418 0.0
C1350 C 0.97035 0.32746 0.24702 0.0
C1351 C 0.9458 0.31702 0.24991 0.0
C1352 C 0.0089 0.24171 0.24525 0.0
C1353 C 0.98914 0.28534 0.24852 0.0
C1354 C 0.03038 0.22604 0.24435 0.0
C1355 C 0.05513 0.23636 0.24602 0.0
C1356 C 0.01188 0.26815 0.24764 0.0
C1357 C 0.05736 0.26296 0.24839 0.0
C1358 C 0.99189 0.31184 0.24644 0.0
C1359 C 0.94382 0.2904 0.2521 0.0
N1360 N 0.03602 0.27792 0.24906 0.0
N1361 N 0.96517 0.27549 0.25126 0.0
H1362 H 0.91523 0.71404 0.4815 0.0
H1363 H 0.04805 0.77318 0.52172 0.0
H1364 H 0.97153 0.67163 0.51857 0.0
H1365 H 0.98859 0.81893 0.49231 0.0
H1366 H 0.02031 0.73603 0.5202 0.0
H1367 H 0.94206 0.75204 0.48404 0.0
C1368 C 0.93335 0.71259 0.49005 0.0
C1369 C 0.94108 0.68942 0.49983 0.0
C1370 C 0.01316 0.75414 0.51416 0.0
C1371 C 0.97194 0.73329 0.5029 0.0
C1372 C 0.02902 0.77549 0.51502 0.0
C1373 C 0.02072 0.79931 0.50699 0.0
C1374 C 0.98868 0.75629 0.50502 0.0
C1375 C 0.99575 0.80101 0.49873 0.0
C1376 C 0.9486 0.73444 0.49158 0.0
C1377 C 0.96478 0.68893 0.51067 0.0
N1378 N 0.98068 0.77972 0.49777 0.0
N1379 N 0.97931 0.71051 0.51192 0.0
H1380 H 0.45649 0.76684 0.76801 0.0
H1381 H 0.56256 0.67947 0.71064 0.0
H1382 H 0.44808 0.73278 0.70298 0.0
H1383 H 0.5779 0.72438 0.76924 0.0
H1384 H 0.52078 0.69956 0.7075 0.0
H1385 H 0.50037 0.75101 0.76952 0.0
C1386 C 0.4637 0.75578 0.75415 0.0
C1387 C 0.44839 0.75101 0.73537 0.0
C1388 C 0.53332 0.7054 0.72089 0.0
C1389 C 0.49887 0.73316 0.7369 0.0
C1390 C 0.55727 0.69407 0.72257 0.0
C1391 C 0.57372 0.70046 0.7401 0.0
C1392 C 0.52541 0.72297 0.73714 0.0
C1393 C 0.56587 0.71924 0.75529 0.0
C1394 C 0.4889 0.74699 0.75495 0.0
C1395 C 0.45904 0.73687 0.71783 0.0
N1396 N 0.54207 0.72961 0.75364 0.0
N1397 N 0.48352 0.72844 0.71905 0.0
H1398 H 0.52972 0.17699 0.00616 0.0
H1399 H 0.48075 0.31667 0.00717 0.0
H1400 H 0.45833 0.19251 0.0392 0.0
H1401 H 0.55751 0.30211 0.02971 0.0
H1402 H 0.47085 0.27107 0.0124 0.0
H1403 H 0.54008 0.22281 0.00811 0.0
C1404 C 0.51637 0.18994 0.01402 0.0
C1405 C 0.49314 0.18084 0.02252 0.0
C1406 C 0.48977 0.27805 0.01635 0.0
C1407 C 0.50445 0.23321 0.024 0.0
C1408 C 0.49543 0.30401 0.01339 0.0
C1409 C 0.52003 0.31331 0.01789 0.0
C1410 C 0.50904 0.26117 0.02315 0.0
C1411 C 0.53831 0.2959 0.02592 0.0
C1412 C 0.52228 0.21601 0.0151 0.0
C1413 C 0.47648 0.19859 0.03244 0.0
N1414 N 0.53262 0.27063 0.02784 0.0
N1415 N 0.4822 0.22397 0.03249 0.0
H1416 H 0.95636 0.72653 0.21529 0.0
H1417 H 0.05749 0.8217 0.27094 0.0
H1418 H 0.94385 0.76694 0.27695 0.0
H1419 H 0.07577 0.77574 0.21362 0.0
H1420 H 0.01619 0.80059 0.27354 0.0
H1421 H 0.99962 0.74417 0.2137 0.0
C1422 C 0.96252 0.73933 0.22836 0.0
C1423 C 0.94624 0.74532 0.24625 0.0
C1424 C 0.02923 0.79477 0.26052 0.0
C1425 C 0.99605 0.76529 0.24467 0.0
C1426 C 0.05292 0.80671 0.25913 0.0
C1427 C 0.07011 0.80031 0.24214 0.0
C1428 C 0.02227 0.77647 0.24455 0.0
C1429 C 0.06317 0.78094 0.22716 0.0
C1430 C 0.98737 0.74921 0.22754 0.0
C1431 C 0.95557 0.7618 0.2628 0.0
N1432 N 0.0396 0.76988 0.22854 0.0
N1433 N 0.97973 0.77115 0.26159 0.0
H1434 H 0.5006 0.67485 0.48813 0.0
H1435 H 0.48263 0.8259 0.46782 0.0
H1436 H 0.56199 0.72586 0.47048 0.0
H1437 H 0.42678 0.77906 0.50134 0.0
H1438 H 0.5106 0.78845 0.46497 0.0
H1439 H 0.47138 0.71175 0.48878 0.0
C1440 C 0.50786 0.69368 0.48417 0.0
C1441 C 0.53383 0.69723 0.47944 0.0
C1442 C 0.49222 0.78642 0.47299 0.0
C1443 C 0.50066 0.73948 0.48011 0.0
C1444 C 0.47628 0.80785 0.47468 0.0
C1445 C 0.45232 0.80581 0.48495 0.0
C1446 C 0.48408 0.76264 0.48141 0.0
C1447 C 0.4451 0.78173 0.49337 0.0
C1448 C 0.49126 0.71476 0.48468 0.0
C1449 C 0.54221 0.72216 0.4745 0.0
N1450 N 0.4608 0.76118 0.49135 0.0
N1451 N 0.52577 0.74219 0.47497 0.0
H1452 H 0.45468 0.23339 0.72845 0.0
H1453 H 0.56551 0.31464 0.78545 0.0
H1454 H 0.44889 0.26475 0.79468 0.0
H1455 H 0.57796 0.26899 0.72677 0.0
H1456 H 0.52303 0.29601 0.78931 0.0
H1457 H 0.49924 0.2469 0.72694 0.0
C1458 C 0.4626 0.24335 0.7426 0.0
C1459 C 0.44774 0.24809 0.76166 0.0
C1460 C 0.53511 0.28966 0.77578 0.0
C1461 C 0.49918 0.26336 0.76013 0.0
C1462 C 0.55946 0.30015 0.77368 0.0
C1463 C 0.57533 0.29317 0.75589 0.0
C1464 C 0.52619 0.27241 0.75967 0.0
C1465 C 0.56645 0.2746 0.74091 0.0
C1466 C 0.48822 0.25083 0.7418 0.0
C1467 C 0.45944 0.26076 0.77958 0.0
N1468 N 0.54229 0.26513 0.74294 0.0
N1469 N 0.48434 0.26802 0.77834 0.0
H1470 H 0.03243 0.18706 0.94777 0.0
H1471 H 0.99973 0.32293 0.00268 0.0
H1472 H 0.01024 0.19689 0.01644 0.0
H1473 H 0.0158 0.31292 0.93284 0.0
H1474 H 0.00573 0.27703 0.00834 0.0
H1475 H 0.02725 0.23299 0.94197 0.0
C1476 C 0.02615 0.19876 0.96158 0.0
C1477 C 0.02176 0.18793 0.98265 0.0
C1478 C 0.00809 0.28485 0.99178 0.0
C1479 C 0.01621 0.24082 0.97617 0.0
C1480 C 0.00469 0.31107 0.98856 0.0
C1481 C 0.00692 0.32175 0.96723 0.0
C1482 C 0.01388 0.26907 0.97353 0.0
C1483 C 0.01395 0.30556 0.94961 0.0
C1484 C 0.02336 0.22508 0.95827 0.0
C1485 C 0.01378 0.20424 -0.00011 0.0
N1486 N 0.01698 0.28004 0.95311 0.0
N1487 N 0.01141 0.2298 -0.0037 0.0
H1488 H 0.94278 0.72435 0.7691 0.0
H1489 H 0.07973 0.72627 0.70894 0.0
H1490 H 0.95969 0.77468 0.71415 0.0
H1491 H 0.05906 0.6773 0.76373 0.0
H1492 H 0.03731 0.74656 0.71136 0.0
H1493 H 0.98609 0.70791 0.76728 0.0
C1494 C 0.95551 0.7318 0.75646 0.0
C1495 C 0.9474 0.75091 0.74172 0.0
C1496 C 0.04226 0.73161 0.72302 0.0
C1497 C 0.99762 0.7323 0.73972 0.0
C1498 C 0.06655 0.7203 0.72183 0.0
C1499 C 0.07287 0.70014 0.7362 0.0
C1500 C 0.02438 0.72264 0.73872 0.0
C1501 C 0.05494 0.69274 0.75229 0.0
C1502 C 0.98041 0.72249 0.75551 0.0
C1503 C 0.96497 0.75981 0.72576 0.0
N1504 N 0.03159 0.70383 0.75302 0.0
N1505 N 0.98926 0.75051 0.72522 0.0
H1506 H 0.99532 0.31272 0.51697 0.0
H1507 H 0.97071 0.1771 0.46016 0.0
H1508 H 0.98419 0.30374 0.44625 0.0
H1509 H 0.93583 0.19704 0.52281 0.0
H1510 H 0.98875 0.2204 0.45796 0.0
H1511 H 0.98479 0.26725 0.52207 0.0
C1512 C 0.99052 0.30122 0.50257 0.0
C1513 C 0.99015 0.31209 0.48121 0.0
C1514 C 0.97758 0.21501 0.4724 0.0
C1515 C 0.97928 0.2601 0.48681 0.0
C1516 C 0.96755 0.19027 0.47379 0.0
C1517 C 0.95161 0.18361 0.49163 0.0
C1518 C 0.97215 0.23285 0.48923 0.0
C1519 C 0.94798 0.20151 0.50876 0.0
C1520 C 0.98469 0.27534 0.50547 0.0
C1521 C 0.98418 0.29626 0.46305 0.0
N1522 N 0.95807 0.22537 0.50712 0.0
N1523 N 0.97917 0.27103 0.46624 0.0
H1524 H 0.42985 0.29814 0.19947 0.0
H1525 H 0.56869 0.26422 0.24713 0.0
H1526 H 0.45697 0.32417 0.26334 0.0
H1527 H 0.55088 0.26393 0.17703 0.0
H1528 H 0.52548 0.27967 0.25499 0.0
H1529 H 0.47141 0.27774 0.19293 0.0
C1530 C 0.44428 0.299 0.21235 0.0
C1531 C 0.43996 0.31294 0.23197 0.0
C1532 C 0.53106 0.27626 0.23789 0.0
C1533 C 0.48755 0.2899 0.22451 0.0
C1534 C 0.55573 0.26748 0.23339 0.0
C1535 C 0.56351 0.26289 0.21138 0.0
C1536 C 0.51381 0.28014 0.22029 0.0
C1537 C 0.54585 0.26748 0.19423 0.0
C1538 C 0.4681 0.28765 0.20849 0.0
C1539 C 0.45951 0.31369 0.24795 0.0
N1540 N 0.52182 0.27569 0.19905 0.0
N1541 N 0.48241 0.30245 0.24386 0.0
H1542 H 0.50221 0.8203 0.98921 0.0
H1543 H 0.49385 0.66671 0.99164 0.0
H1544 H 0.56414 0.77168 0.01016 0.0
H1545 H 0.42804 0.71565 0.98555 0.0
H1546 H 0.52068 0.705 -0.00403 0.0
H1547 H 0.47498 0.78218 0.98581 0.0
C1548 C 0.51003 0.80174 0.9933 0.0
C1549 C 0.53556 0.79934 -1e-05 0.0
C1550 C 0.50033 0.70728 0.99371 0.0
C1551 C 0.50468 0.75554 -0.00426 0.0
C1552 C 0.48505 0.68541 0.99118 0.0
C1553 C 0.45861 0.68782 0.98831 0.0
C1554 C 0.48915 0.73177 0.99313 0.0
C1555 C 0.44829 0.71268 0.98783 0.0
C1556 C 0.49453 0.77994 0.99126 0.0
C1557 C 0.54464 0.77464 0.00488 0.0
N1558 N 0.46351 0.73355 0.99014 0.0
N1559 N 0.52935 0.75383 0.00253 0.0
H1560 H 0.93964 0.25577 0.74718 0.0
H1561 H 0.09047 0.27412 0.76668 0.0
H1562 H 0.99182 0.19334 0.75806 0.0
H1563 H 0.04224 0.33264 0.73869 0.0
H1564 H 0.05364 0.24508 0.76726 0.0
H1565 H 0.97612 0.28549 0.7481 0.0
C1566 C 0.95865 0.24834 0.7499 0.0
C1567 C 0.9626 0.22198 0.75235 0.0
C1568 C 0.05118 0.26429 0.76094 0.0
C1569 C 0.00437 0.25577 0.75354 0.0
C1570 C 0.07225 0.28084 0.76056 0.0
C1571 C 0.06961 0.30586 0.75252 0.0
C1572 C 0.0272 0.27287 0.75347 0.0
C1573 C 0.04535 0.31352 0.74496 0.0
C1574 C 0.97948 0.26526 0.75032 0.0
C1575 C 0.98775 0.21344 0.75582 0.0
N1576 N 0.02516 0.29719 0.74571 0.0
N1577 N 0.00755 0.2302 0.75633 0.0
H1578 H 0.50031 0.32735 0.49425 0.0
H1579 H 0.49926 0.17399 0.49212 0.0
H1580 H 0.43286 0.28251 0.48098 0.0
H1581 H 0.56811 0.21893 0.48731 0.0
H1582 H 0.47428 0.21364 0.49012 0.0
H1583 H 0.52561 0.28781 0.49373 0.0
C1584 C 0.49085 0.30932 0.49107 0.0
C1585 C 0.4644 0.30838 0.48768 0.0
C1586 C 0.49488 0.21474 0.48939 0.0
C1587 C 0.49309 0.26303 0.48739 0.0
C1588 C 0.50911 0.19209 0.49051 0.0
C1589 C 0.53584 0.19301 0.48988 0.0
C1590 C 0.50746 0.23848 0.48787 0.0
C1591 C 0.54756 0.21713 0.48788 0.0
C1592 C 0.50526 0.28673 0.49081 0.0
C1593 C 0.45317 0.28433 0.48375 0.0
N1594 N 0.53337 0.2388 0.4871 0.0
N1595 N 0.46748 0.26272 0.48386 0.0
H1596 H 0.44898 0.75085 0.23807 0.0
H1597 H 0.58167 0.78524 0.2974 0.0
H1598 H 0.45675 0.76018 0.30907 0.0
H1599 H 0.5747 0.76585 0.22781 0.0
H1600 H 0.53592 0.77772 0.30202 0.0
H1601 H 0.49459 0.75927 0.2338 0.0
C1602 C 0.46027 0.7548 0.25276 0.0
C1603 C 0.44906 0.7544 0.27398 0.0
C1604 C 0.54444 0.77495 0.28577 0.0
C1605 C 0.50143 0.76419 0.26924 0.0
C1606 C 0.57063 0.77911 0.28313 0.0
C1607 C 0.58219 0.77617 0.26216 0.0
C1608 C 0.52954 0.76795 0.2673 0.0
C1609 C 0.56676 0.76828 0.24431 0.0
C1610 C 0.48634 0.75959 0.25032 0.0
C1611 C 0.46453 0.7603 0.29238 0.0
N1612 N 0.54128 0.76461 0.24726 0.0
N1613 N 0.48993 0.76477 0.2896 0.0
H1614 H 0.99659 0.68101 0.99425 0.0
H1615 H 0.98472 0.8333 0.01003 0.0
H1616 H 0.06078 0.73267 -0.00375 0.0
H1617 H 0.92105 0.78564 0.99124 0.0
H1618 H 0.01251 0.79566 0.00822 0.0
H1619 H 0.96785 0.71825 -0.00366 0.0
C1620 C 0.00465 0.70003 -0.00489 0.0
C1621 C 0.03119 0.70356 -0.00507 0.0
C1622 C 0.99244 0.79348 0.00443 0.0
C1623 C 0.99855 0.74617 -0.00243 0.0
C1624 C 0.97659 0.81501 0.00545 0.0
C1625 C 0.9505 0.81279 0.00068 0.0
C1626 C 0.98215 0.76943 -0.00116 0.0
C1627 C 0.94105 0.78843 -0.00504 0.0
C1628 C 0.98827 0.72129 -0.00372 0.0
C1629 C 0.04051 0.72879 -0.00382 0.0
N1630 N 0.95678 0.76777 0.99429 0.0
N1631 N 0.02432 0.74894 -0.0025 0.0
H1632 H 0.12317 0.29284 0.30759 0.0
H1633 H 0.1401 0.30219 0.4386 0.0
H1634 H 0.17809 0.2483 0.3443 0.0
H1635 H 0.09529 0.35504 0.40002 0.0
H1636 H 0.15869 0.28562 0.40395 0.0
H1637 H 0.11585 0.31874 0.3409 0.0
C1638 C 0.13377 0.28864 0.32261 0.0
C1639 C 0.15112 0.26835 0.32321 0.0
C1640 C 0.14519 0.30122 0.40309 0.0
C1641 C 0.14296 0.29775 0.36134 0.0
C1642 C 0.1348 0.31074 0.42285 0.0
C1643 C 0.11604 0.32968 0.42194 0.0
C1644 C 0.13646 0.31066 0.3825 0.0
C1645 C 0.10955 0.34015 0.40123 0.0
C1646 C 0.12977 0.30351 0.34157 0.0
C1647 C 0.16467 0.26389 0.34301 0.0
N1648 N 0.11943 0.33022 0.38228 0.0
N1649 N 0.16008 0.27827 0.36136 0.0
H1650 H 0.90415 0.87017 0.65172 0.0
H1651 H 0.02449 0.93381 0.59325 0.0
H1652 H 0.96914 0.89947 0.68737 0.0
H1653 H 0.97041 0.88493 0.55976 0.0
H1654 H 0.99804 0.93258 0.62656 0.0
H1655 H 0.92152 0.88771 0.61713 0.0
C1656 C 0.92166 0.88116 0.65228 0.0
C1657 C 0.93538 0.88349 0.67218 0.0
C1658 C 0.99178 0.92243 0.61183 0.0
C1659 C 0.95563 0.90281 0.6329 0.0
C1660 C 0.0068 0.92318 0.59274 0.0
C1661 C 0.99972 0.90922 0.57373 0.0
C1662 C 0.96951 0.90765 0.61193 0.0
C1663 C 0.97675 0.89556 0.57418 0.0
C1664 C 0.93167 0.8909 0.63258 0.0
C1665 C 0.95808 0.89749 0.67225 0.0
N1666 N 0.96252 0.89496 0.59307 0.0
N1667 N 0.96777 0.90634 0.65274 0.0
H1668 H 0.39726 0.63595 0.87495 0.0
H1669 H 0.32384 0.75803 0.8342 0.0
H1670 H 0.3402 0.6741 0.91431 0.0
H1671 H 0.37066 0.7118 0.79084 0.0
H1672 H 0.3242 0.72395 0.8615 0.0
H1673 H 0.38262 0.65917 0.84205 0.0
C1674 C 0.38114 0.64877 0.87642 0.0
C1675 C 0.36987 0.65333 0.89716 0.0
C1676 C 0.33411 0.7211 0.84589 0.0
C1677 C 0.35355 0.68051 0.86 0.0
C1678 C 0.3339 0.74063 0.83014 0.0
C1679 C 0.34781 0.73822 0.81024 0.0
C1680 C 0.34857 0.69905 0.84189 0.0
C1681 C 0.36038 0.715 0.80618 0.0
C1682 C 0.37283 0.66209 0.85772 0.0
C1683 C 0.34923 0.67015 0.89847 0.0
N1684 N 0.36081 0.6965 0.82202 0.0
N1685 N 0.342 0.68356 0.88017 0.0
H1686 H 0.45613 0.07787 0.12406 0.0
H1687 H 0.59561 0.11723 0.16347 0.0
H1688 H 0.51989 0.09029 0.08 0.0
H1689 H 0.52856 0.12434 0.20436 0.0
H1690 H 0.57062 0.09361 0.13585 0.0
H1691 H 0.48482 0.0818 0.15595 0.0
C1692 C 0.47626 0.08088 0.12107 0.0
C1693 C 0.48562 0.08417 0.09936 0.0
C1694 C 0.5615 0.09966 0.15114 0.0
C1695 C 0.51846 0.08879 0.13575 0.0
C1696 C 0.57581 0.11283 0.16697 0.0
C1697 C 0.564 0.12249 0.18611 0.0
C1698 C 0.53518 0.09648 0.15444 0.0
C1699 C 0.53826 0.11692 0.18982 0.0
C1700 C 0.49259 0.08323 0.13929 0.0
C1701 C 0.51184 0.0882 0.09649 0.0
N1702 N 0.52453 0.10458 0.17391 0.0
N1703 N 0.52732 0.09065 0.11449 0.0
H1704 H 0.16015 0.6836 0.06298 0.0
H1705 H 0.13215 0.73953 0.18424 0.0
H1706 H 0.09472 0.66322 0.10268 0.0
H1707 H 0.18687 0.77116 0.13798 0.0
H1708 H 0.12462 0.70446 0.15832 0.0
H1709 H 0.17716 0.70784 0.09462 0.0
C1710 C 0.14973 0.68372 0.07856 0.0
C1711 C 0.12588 0.67186 0.08023 0.0
C1712 C 0.13849 0.71899 0.15403 0.0
C1713 C 0.14484 0.69965 0.11618 0.0
C1714 C 0.14267 0.73919 0.16877 0.0
C1715 C 0.15987 0.75879 0.16327 0.0
C1716 C 0.15163 0.71831 0.13368 0.0
C1717 C 0.17342 0.75671 0.14313 0.0
C1718 C 0.15929 0.69768 0.09652 0.0
C1719 C 0.11301 0.67256 0.1007 0.0
N1720 N 0.16883 0.73701 0.12902 0.0
N1721 N 0.12249 0.68655 0.11782 0.0
H1722 H 0.60662 0.87628 0.36678 0.0
H1723 H 0.45951 0.9026 0.36895 0.0
H1724 H 0.56452 0.90382 0.31008 0.0
H1725 H 0.50374 0.89114 0.42884 0.0
H1726 H 0.49864 0.90866 0.34824 0.0
H1727 H 0.57111 0.88828 0.39097 0.0
C1728 C 0.59017 0.88569 0.35959 0.0
C1729 C 0.58822 0.88886 0.33647 0.0
C1730 C 0.49981 0.90513 0.36597 0.0
C1731 C 0.54732 0.90179 0.36377 0.0
C1732 C 0.47735 0.90163 0.37792 0.0
C1733 C 0.47808 0.89601 0.40079 0.0
C1734 C 0.52336 0.90261 0.37679 0.0
C1735 C 0.50205 0.89479 0.4112 0.0
C1736 C 0.56985 0.89238 0.37334 0.0
C1737 C 0.56665 0.90107 0.32785 0.0
N1738 N 0.52373 0.89773 0.39906 0.0
N1739 N 0.54672 0.90656 0.34147 0.0
H1740 H 0.38591 0.29098 0.69659 0.0
H1741 H 0.34636 0.33121 0.57295 0.0
H1742 H 0.32519 0.25502 0.65924 0.0
H1743 H 0.41898 0.3485 0.603 0.0
H1744 H 0.33231 0.31207 0.60829 0.0
H1745 H 0.39212 0.32081 0.66598 0.0
C1746 C 0.37379 0.28927 0.68212 0.0
C1747 C 0.35543 0.26978 0.68047 0.0
C1748 C 0.35118 0.32041 0.6072 0.0
C1749 C 0.36221 0.30439 0.64545 0.0
C1750 C 0.35909 0.33138 0.58715 0.0
C1751 C 0.3839 0.341 0.58516 0.0
C1752 C 0.36819 0.3194 0.62528 0.0
C1753 C 0.39981 0.34086 0.6039 0.0
C1754 C 0.37728 0.30649 0.66467 0.0
C1755 C 0.33977 0.26937 0.66143 0.0
N1756 N 0.39175 0.33002 0.62316 0.0
N1757 N 0.34371 0.2862 0.6446 0.0
H1758 H 0.97612 0.09948 0.93702 0.0
H1759 H 0.94345 0.08609 0.80809 0.0
H1760 H 0.02475 0.0627 0.8887 0.0
H1761 H 0.90606 0.13793 0.85319 0.0
H1762 H 0.96512 0.06614 0.8399 0.0
H1763 H 0.9427 0.10256 0.90888 0.0
C1764 C 0.97973 0.09184 0.92058 0.0
C1765 C 0.0036 0.0815 0.91507 0.0
C1766 C 0.95165 0.08143 0.84289 0.0
C1767 C 0.9653 0.08468 0.88287 0.0
C1768 C 0.9392 0.09262 0.82481 0.0
C1769 C 0.9232 0.11362 0.82823 0.0
C1770 C 0.948 0.0915 0.86436 0.0
C1771 C 0.91841 0.12175 0.85004 0.0
C1772 C 0.96057 0.09345 0.90457 0.0
C1773 C 0.0068 0.07105 0.89371 0.0
N1774 N 0.93104 0.11088 0.8673 0.0
N1775 N 0.98803 0.0733 0.87827 0.0
H1776 H 0.82838 0.79353 0.64379 0.0
H1777 H 0.84179 0.64956 0.605 0.0
H1778 H 0.85031 0.73177 0.68742 0.0
H1779 H 0.83228 0.71384 0.56104 0.0
H1780 H 0.83156 0.67715 0.63676 0.0
H1781 H 0.81695 0.7626 0.61546 0.0
C1782 C 0.83048 0.77347 0.64764 0.0
C1783 C 0.8409 0.76536 0.66797 0.0
C1784 C 0.83095 0.68505 0.62011 0.0
C1785 C 0.82815 0.72969 0.63519 0.0
C1786 C 0.83649 0.66926 0.60201 0.0
C1787 C 0.83801 0.67966 0.58056 0.0
C1788 C 0.82704 0.71127 0.61655 0.0
C1789 C 0.83138 0.70529 0.57744 0.0
C1790 C 0.82398 0.75577 0.63133 0.0
C1791 C 0.84313 0.73898 0.67178 0.0
N1792 N 0.82659 0.72036 0.5953 0.0
N1793 N 0.83717 0.72209 0.65539 0.0
H1794 H 0.00437 0.14236 0.42929 0.0
H1795 H 0.08335 0.11064 0.31977 0.0
H1796 H 0.99466 0.07327 0.39096 0.0
H1797 H 0.09031 0.18046 0.35734 0.0
H1798 H 0.05784 0.09233 0.35006 0.0
H1799 H 0.04239 0.15224 0.40768 0.0
C1800 C 0.01042 0.12902 0.41659 0.0
C1801 C 0.99593 0.10719 0.41166 0.0
C1802 C 0.06536 0.11149 0.35186 0.0
C1803 C 0.03934 0.11864 0.38653 0.0
C1804 C 0.08004 0.12183 0.33466 0.0
C1805 C 0.08845 0.14719 0.33598 0.0
C1806 C 0.05913 0.12671 0.37038 0.0
C1807 C 0.08368 0.16097 0.35556 0.0
C1808 C 0.03212 0.13474 0.40415 0.0
C1809 C 0.00478 0.09069 0.39491 0.0
N1810 N 0.06902 0.1507 0.37186 0.0
N1811 N 0.02571 0.09693 0.38274 0.0
H1812 H 0.65977 0.35148 0.08672 0.0
H1813 H 0.67203 0.20943 0.12811 0.0
H1814 H 0.65648 0.28567 0.04385 0.0
H1815 H 0.67189 0.2752 0.17154 0.0
H1816 H 0.6791 0.23742 0.0965 0.0
H1817 H 0.67753 0.32486 0.11634 0.0
C1818 C 0.66392 0.33159 0.0833 0.0
C1819 C 0.65676 0.32061 0.06297 0.0
C1820 C 0.67793 0.24573 0.11299 0.0
C1821 C 0.67584 0.28985 0.0969 0.0
C1822 C 0.67395 0.22968 0.13118 0.0
C1823 C 0.6706 0.23993 0.15261 0.0
C1824 C 0.67834 0.27228 0.11614 0.0
C1825 C 0.67342 0.26644 0.1553 0.0
C1826 C 0.67375 0.31632 0.10025 0.0
C1827 C 0.66196 0.29475 0.05933 0.0
N1828 N 0.67666 0.28172 0.13723 0.0
N1829 N 0.67068 0.28006 0.07634 0.0
H1830 H 0.51812 0.92298 0.90175 0.0
H1831 H 0.41294 0.83035 0.85116 0.0
H1832 H 0.48191 0.86238 0.93897 0.0
H1833 H 0.45158 0.88876 0.8134 0.0
H1834 H 0.4326 0.84666 0.88514 0.0
H1835 H 0.48884 0.91541 0.87125 0.0
C1836 C 0.50379 0.90831 0.90374 0.0
C1837 C 0.5027 0.89314 0.92303 0.0
C1838 C 0.43657 0.85614 0.8695 0.0
C1839 C 0.46923 0.88409 0.8877 0.0
C1840 C 0.42539 0.84684 0.85012 0.0
C1841 C 0.43111 0.85799 0.82948 0.0
C1842 C 0.45374 0.87664 0.86818 0.0
C1843 C 0.44685 0.87958 0.82901 0.0
C1844 C 0.4871 0.90392 0.88616 0.0
C1845 C 0.48382 0.8742 0.92431 0.0
N1846 N 0.45797 0.888 0.84808 0.0
N1847 N 0.46796 0.87007 0.90679 0.0
H1848 H 0.85584 0.32647 0.91858 0.0
H1849 H 0.90226 0.21947 0.83699 0.0
H1850 H 0.90982 0.26852 0.93765 0.0
H1851 H 0.82815 0.25369 0.82886 0.0
H1852 H 0.90522 0.23849 0.87408 0.0
H1853 H 0.84297 0.29995 0.88677 0.0
C1854 C 0.8641 0.30764 0.91661 0.0
C1855 C 0.88392 0.29957 0.93054 0.0
C1856 C 0.88822 0.24175 0.86425 0.0
C1857 C 0.87031 0.26991 0.894 0.0
C1858 C 0.88676 0.23125 0.84299 0.0
C1859 C 0.86509 0.23534 0.82989 0.0
C1860 C 0.86805 0.25682 0.87229 0.0
C1861 C 0.84519 0.25024 0.83856 0.0
C1862 C 0.85704 0.29268 0.89834 0.0
C1863 C 0.89447 0.2753 0.92715 0.0
N1864 N 0.84724 0.26074 0.85918 0.0
N1865 N 0.88797 0.26156 0.90889 0.0
H1866 H 0.48773 0.14953 0.55866 0.0
H1867 H 0.4321 0.11127 0.67593 0.0
H1868 H 0.48393 0.07098 0.58051 0.0
H1869 H 0.41418 0.18236 0.64317 0.0
H1870 H 0.44944 0.09505 0.64071 0.0
H1871 H 0.45908 0.1613 0.58872 0.0
C1872 C 0.48067 0.13462 0.56948 0.0
C1873 C 0.48887 0.10924 0.56717 0.0
C1874 C 0.44138 0.11408 0.6412 0.0
C1875 C 0.45628 0.12281 0.6021 0.0
C1876 C 0.43144 0.12328 0.66127 0.0
C1877 C 0.42228 0.14838 0.66258 0.0
C1878 C 0.44225 0.1302 0.62249 0.0
C1879 C 0.42181 0.16315 0.64306 0.0
C1880 C 0.4643 0.14141 0.58678 0.0
C1881 C 0.47889 0.09091 0.58196 0.0
N1882 N 0.43202 0.15399 0.62393 0.0
N1883 N 0.46348 0.09812 0.599 0.0
H1884 H 0.69797 0.77779 0.36167 0.0
H1885 H 0.62637 0.64786 0.37988 0.0
H1886 H 0.66897 0.73172 0.30769 0.0
H1887 H 0.66839 0.68588 0.43181 0.0
H1888 H 0.6481 0.67428 0.35217 0.0
H1889 H 0.69394 0.74122 0.38646 0.0
C1890 C 0.69121 0.75989 0.35487 0.0
C1891 C 0.68313 0.7581 0.33264 0.0
C1892 C 0.65315 0.67646 0.36955 0.0
C1893 C 0.67808 0.71616 0.36112 0.0
C1894 C 0.64084 0.66128 0.38529 0.0
C1895 C 0.64575 0.66485 0.40798 0.0
C1896 C 0.66991 0.69578 0.37669 0.0
C1897 C 0.66431 0.68261 0.41437 0.0
C1898 C 0.68884 0.73897 0.36911 0.0
C1899 C 0.67456 0.73429 0.32486 0.0
N1900 N 0.67539 0.69784 0.3988 0.0
N1901 N 0.67184 0.71441 0.33917 0.0
H1902 H 0.11539 0.86803 0.12586 0.0
H1903 H 0.00902 0.86985 0.06023 0.0
H1904 H 0.07068 0.91532 0.16959 0.0
H1905 H 0.9857 0.9369 0.09664 0.0
H1906 H 0.0495 0.87049 0.07988 0.0
H1907 H 0.08728 0.87939 0.09495 0.0
C1908 C 0.09998 0.88141 0.12869 0.0
C1909 C 0.0951 0.89077 0.1501 0.0
C1910 C 0.03599 0.8856 0.08318 0.0
C1911 C 0.06189 0.90243 0.11548 0.0
C1912 C 0.01269 0.88509 0.07199 0.0
C1913 C 0.99375 0.903 0.07714 0.0
C1914 C 0.04036 0.90424 0.09965 0.0
C1915 C 0.99947 0.92224 0.09264 0.0
C1916 C 0.08361 0.88749 0.11119 0.0
C1917 C 0.07495 0.90784 0.15319 0.0
N1918 N 0.02209 0.9221 0.10359 0.0
N1919 N 0.05876 0.91281 0.13611 0.0
H1920 H 0.69436 0.74957 0.83392 0.0
H1921 H 0.58423 0.83393 0.88778 0.0
H1922 H 0.61661 0.75145 0.81045 0.0
H1923 H 0.65859 0.82454 0.91723 0.0
H1924 H 0.59907 0.81181 0.85444 0.0
H1925 H 0.68461 0.78438 0.85959 0.0
C1926 C 0.67528 0.75741 0.83404 0.0
C1927 C 0.65611 0.74715 0.82035 0.0
C1928 C 0.6123 0.81486 0.86803 0.0
C1929 C 0.64492 0.78718 0.84953 0.0
C1930 C 0.60384 0.82747 0.88704 0.0
C1931 C 0.62012 0.83053 0.90537 0.0
C1932 C 0.63717 0.80504 0.86742 0.0
C1933 C 0.64544 0.82234 0.90347 0.0
C1934 C 0.66978 0.77738 0.84861 0.0
C1935 C 0.63196 0.75862 0.82072 0.0
N1936 N 0.65311 0.80953 0.88494 0.0
N1937 N 0.62697 0.77779 0.83532 0.0
H1938 H 0.46913 0.4272 0.18483 0.0
H1939 H 0.49698 0.41955 0.05619 0.0
H1940 H 0.41016 0.42187 0.13516 0.0
H1941 H 0.55475 0.4314 0.10627 0.0
H1942 H 0.46422 0.4292 0.08388 0.0
H1943 H 0.49961 0.43915 0.15589 0.0
C1944 C 0.46247 0.42954 0.16787 0.0
C1945 C 0.43728 0.42351 0.16222 0.0
C1946 C 0.48408 0.43009 0.08874 0.0
C1947 C 0.47209 0.43593 0.12891 0.0
C1948 C 0.50277 0.42432 0.07298 0.0
C1949 C 0.5286 0.42406 0.07908 0.0
C1950 C 0.49128 0.43535 0.1108 0.0
C1951 C 0.53509 0.4312 0.10087 0.0
C1952 C 0.47988 0.43611 0.1513 0.0
C1953 C 0.42949 0.42648 0.14008 0.0
N1954 N 0.51654 0.43613 0.11602 0.0
N1955 N 0.44701 0.43189 0.12408 0.0
H1956 H 0.89283 0.16159 0.37575 0.0
H1957 H 0.82557 0.29374 0.35179 0.0
H1958 H 0.83528 0.19425 0.41821 0.0
H1959 H 0.87329 0.25568 0.30338 0.0
H1960 H 0.82594 0.25561 0.37442 0.0
H1961 H 0.88246 0.19304 0.347 0.0
C1962 C 0.87744 0.17498 0.37865 0.0
C1963 C 0.86475 0.17546 0.39918 0.0
C1964 C 0.83614 0.25546 0.35874 0.0
C1965 C 0.8534 0.21191 0.3669 0.0
C1966 C 0.83593 0.27737 0.34564 0.0
C1967 C 0.8495 0.27824 0.32545 0.0
C1968 C 0.85031 0.23419 0.35192 0.0
C1969 C 0.86286 0.25623 0.31889 0.0
C1970 C 0.87165 0.19301 0.36236 0.0
C1971 C 0.84527 0.19326 0.40246 0.0
N1972 N 0.86311 0.2352 0.33218 0.0
N1973 N 0.84043 0.2111 0.38658 0.0
H1974 H 0.99933 0.6295 0.55677 0.0
H1975 H 0.073 0.58115 0.66396 0.0
H1976 H 0.97113 0.57081 0.60083 0.0
H1977 H 0.09998 0.64065 0.62039 0.0
H1978 H 0.0409 0.56946 0.63604 0.0
H1979 H 0.04084 0.62672 0.57488 0.0
C1980 C 1.00192 0.61578 0.57004 0.0
C1981 C 0.98149 0.60082 0.57763 0.0
C1982 C 0.05427 0.58464 0.63232 0.0
C1983 C 0.02894 0.5977 0.59864 0.0
C1984 C 0.0727 0.59109 0.64815 0.0
C1985 C 0.08878 0.61199 0.64441 0.0
C1986 C 0.05196 0.59942 0.61285 0.0
C1987 C 0.08764 0.62453 0.62383 0.0
C1988 C 0.02565 0.61422 0.58043 0.0
C1989 C 0.98605 0.58334 0.59491 0.0
N1990 N 0.06919 0.61836 0.60896 0.0
N1991 N 0.00918 0.5825 0.60503 0.0
H1992 H 0.69012 0.23626 0.66063 0.0
H1993 H 0.57608 0.15847 0.60508 0.0
H1994 H 0.61156 0.24124 0.68154 0.0
H1995 H 0.65168 0.16293 0.5771 0.0
H1996 H 0.59125 0.18058 0.63831 0.0
H1997 H 0.67862 0.20176 0.63518 0.0
C1998 C 0.67047 0.22998 0.65999 0.0
C1999 C 0.65165 0.24207 0.67286 0.0
C2000 C 0.60464 0.17646 0.62506 0.0
C2001 C 0.63843 0.20241 0.64393 0.0
C2002 C 0.596 0.16388 0.6061 0.0
C2003 C 0.61258 0.15942 0.58818 0.0
C2004 C 0.63004 0.18478 0.62609 0.0
C2005 C 0.63829 0.16622 0.59051 0.0
C2006 C 0.66396 0.21019 0.64554 0.0
C2007 C 0.62666 0.23259 0.67188 0.0
N2008 N 0.64618 0.17897 0.60901 0.0
N2009 N 0.62072 0.21354 0.65741 0.0
H2010 H 0.10145 0.42495 0.846 0.0
H2011 H 0.95611 0.43257 0.88001 0.0
H2012 H 0.03805 0.41643 0.80099 0.0
H2013 H 0.01825 0.43005 0.92722 0.0
H2014 H 0.98642 0.44111 0.85055 0.0
H2015 H 0.07213 0.44101 0.87457 0.0
C2016 C 0.08148 0.42741 0.8419 0.0
C2017 C 0.07196 0.41914 0.82133 0.0
C2018 C 0.99341 0.43904 0.86741 0.0
C2019 C 0.03842 0.43685 0.85382 0.0
C2020 C 0.97601 0.4342 0.88441 0.0
C2021 C 0.98454 0.42957 0.90623 0.0
C2022 C 0.0196 0.43901 0.8721 0.0
C2023 C 0.01074 0.43237 0.9106 0.0
C2024 C 0.06474 0.43634 0.85823 0.0
C2025 C 0.04598 0.42241 0.8168 0.0
N2026 N 0.0274 0.43638 0.89361 0.0
N2027 N 0.03002 0.43062 0.83306 0.0
H2028 H 0.85375 0.77218 0.19134 0.0
H2029 H 0.83765 0.79613 0.0624 0.0
H2030 H 0.8301 0.71497 0.14381 0.0
H2031 H 0.85743 0.85546 0.10898 0.0
H2032 H 0.82481 0.76881 0.09339 0.0
H2033 H 0.84672 0.80505 0.16313 0.0
C2034 C 0.84693 0.7665 0.17507 0.0
C2035 C 0.84308 0.74065 0.16985 0.0
C2036 C 0.83131 0.78803 0.09692 0.0
C2037 C 0.83468 0.77818 0.13759 0.0
C2038 C 0.8384 0.80363 0.0792 0.0
C2039 C 0.84854 0.82787 0.08334 0.0
C2040 C 0.83517 0.79656 0.11887 0.0
C2041 C 0.84954 0.83681 0.10529 0.0
C2042 C 0.84268 0.78532 0.15903 0.0
C2043 C 0.83347 0.73455 0.14868 0.0
N2044 N 0.84349 0.8209 0.12236 0.0
N2045 N 0.82997 0.75311 0.13328 0.0
H2046 H 0.49947 0.6473 0.29192 0.0
H2047 H 0.50389 0.56274 0.40217 0.0
H2048 H 0.43696 0.59871 0.31125 0.0
H2049 H 0.5423 0.63478 0.39318 0.0
H2050 H 0.48667 0.5662 0.36413 0.0
H2051 H 0.52438 0.63098 0.32323 0.0
C2052 C 0.49151 0.63227 0.3022 0.0
C2053 C 0.46623 0.62432 0.29922 0.0
C2054 C 0.49898 0.58112 0.37052 0.0
C2055 C 0.49402 0.6064 0.33531 0.0
C2056 C 0.50861 0.57925 0.39212 0.0
C2057 C 0.52407 0.59876 0.40076 0.0
C2058 C 0.50544 0.60235 0.35744 0.0
C2059 C 0.52996 0.61968 0.38721 0.0
C2060 C 0.50551 0.62329 0.32022 0.0
C2061 C 0.45649 0.60513 0.31307 0.0
N2062 N 0.52068 0.6209 0.36617 0.0
N2063 N 0.47025 0.59713 0.33093 0.0
H2064 H 0.35166 0.20221 0.05622 0.0
H2065 H 0.37019 0.25977 0.17527 0.0
H2066 H 0.37553 0.15784 0.11289 0.0
H2067 H 0.32836 0.29894 0.12354 0.0
H2068 H 0.36637 0.22039 0.15422 0.0
H2069 H 0.33592 0.23532 0.08154 0.0
C2070 C 0.35266 0.19904 0.07402 0.0
C2071 C 0.36526 0.17762 0.08257 0.0
C2072 C 0.35773 0.23756 0.1476 0.0
C2073 C 0.3482 0.2155 0.11151 0.0
C2074 C 0.35994 0.2602 0.15967 0.0
C2075 C 0.35018 0.28312 0.15105 0.0
C2076 C 0.34604 0.2378 0.12656 0.0
C2077 C 0.33702 0.28211 0.13064 0.0
C2078 C 0.34392 0.21801 0.08848 0.0
C2079 C 0.36626 0.17438 0.10573 0.0
N2080 N 0.33573 0.25996 0.11893 0.0
N2081 N 0.35842 0.19341 0.11941 0.0
H2082 H 0.58372 0.58093 0.82214 0.0
H2083 H 0.52126 0.6194 0.93875 0.0
H2084 H 0.60153 0.64994 0.85807 0.0
H2085 H 0.49102 0.56183 0.89436 0.0
H2086 H 0.55773 0.62438 0.91394 0.0
H2087 H 0.55732 0.56682 0.85362 0.0
C2088 C 0.58254 0.59275 0.83691 0.0
C2089 C 0.59437 0.6167 0.83756 0.0
C2090 C 0.54317 0.61047 0.90984 0.0
C2091 C 0.56428 0.60105 0.87325 0.0
C2092 C 0.52218 0.60773 0.92392 0.0
C2093 C 0.50257 0.59049 0.91858 0.0
C2094 C 0.54464 0.59582 0.8903 0.0
C2095 C 0.50543 0.57541 0.89934 0.0
C2096 C 0.5674 0.58484 0.85476 0.0
C2097 C 0.59232 0.63146 0.85695 0.0
N2098 N 0.52591 0.57861 0.88583 0.0
N2099 N 0.57727 0.62354 0.87396 0.0
H2100 H 0.15471 0.82573 0.56205 0.0
H2101 H 0.13624 0.76381 0.68172 0.0
H2102 H 0.09646 0.8482 0.60877 0.0
H2103 H 0.18669 0.73467 0.63069 0.0
H2104 H 0.1294 0.80174 0.65921 0.0
H2105 H 0.17498 0.80033 0.5913 0.0
C2106 C 0.14665 0.8259 0.57866 0.0
C2107 C 0.12365 0.83855 0.58297 0.0
C2108 C 0.1422 0.78709 0.65313 0.0
C2109 C 0.14627 0.80927 0.61625 0.0
C2110 C 0.14603 0.7652 0.66594 0.0
C2111 C 0.16151 0.74526 0.65799 0.0
C2112 C 0.15391 0.78915 0.63219 0.0
C2113 C 0.1742 0.74898 0.63759 0.0
C2114 C 0.15806 0.81125 0.59529 0.0
C2115 C 0.11392 0.83819 0.60473 0.0
N2116 N 0.16983 0.77026 0.62531 0.0
N2117 N 0.12503 0.82337 0.62048 0.0
H2118 H 0.88493 0.40197 0.35747 0.0
H2119 H 0.01516 0.45164 0.4099 0.0
H2120 H 0.94853 0.43068 0.31962 0.0
H2121 H 0.96425 0.39808 0.44179 0.0
H2122 H 0.98336 0.45832 0.38083 0.0
H2123 H 0.90651 0.41504 0.39194 0.0
C2124 C 0.90301 0.41193 0.35647 0.0
C2125 C 0.91513 0.41534 0.3359 0.0
C2126 C 0.97901 0.44551 0.39446 0.0
C2127 C 0.93991 0.42987 0.37489 0.0
C2128 C 0.9972 0.44154 0.41101 0.0
C2129 C 0.99283 0.42352 0.42792 0.0
C2130 C 0.95622 0.43149 0.39489 0.0
C2131 C 0.96873 0.41183 0.42895 0.0
C2132 C 0.91536 0.41919 0.37606 0.0
C2133 C 0.93869 0.42786 0.33528 0.0
N2134 N 0.95151 0.41565 0.4124 0.0
N2135 N 0.95051 0.43443 0.35456 0.0
H2136 H 0.33178 0.69929 0.35247 0.0
H2137 H 0.33506 0.84273 0.39147 0.0
H2138 H 0.33694 0.76374 0.30775 0.0
H2139 H 0.33742 0.77746 0.43508 0.0
H2140 H 0.32105 0.81492 0.36104 0.0
H2141 H 0.31928 0.72796 0.38215 0.0
C2142 C 0.32994 0.71936 0.34864 0.0
C2143 C 0.33647 0.72906 0.32758 0.0
C2144 C 0.32385 0.80679 0.37744 0.0
C2145 C 0.32247 0.76224 0.36196 0.0
C2146 C 0.33159 0.8227 0.39484 0.0
C2147 C 0.33774 0.81217 0.4156 0.0
C2148 C 0.32246 0.78028 0.38096 0.0
C2149 C 0.33316 0.78614 0.41915 0.0
C2150 C 0.3228 0.73581 0.36575 0.0
C2151 C 0.33324 0.75538 0.32387 0.0
N2152 N 0.32629 0.77096 0.40186 0.0
N2153 N 0.32701 0.77112 0.34102 0.0
H2154 H 0.9103 0.64492 0.14188 0.0
H2155 H 0.02935 0.57378 0.08844 0.0
H2156 H 0.96543 0.60241 0.17995 0.0
H2157 H 0.98062 0.6259 0.05258 0.0
H2158 H 1.00079 0.57623 0.12023 0.0
H2159 H 0.92991 0.62952 0.10752 0.0
C2160 C 0.92621 0.63178 0.1429 0.0
C2161 C 0.93655 0.62504 0.16359 0.0
C2162 C 0.99618 0.58691 0.10533 0.0
C2163 C 0.95938 0.60787 0.12456 0.0
C2164 C 0.01243 0.58545 0.08706 0.0
C2165 C 0.00749 0.59983 0.06779 0.0
C2166 C 0.97482 0.60292 0.10442 0.0
C2167 C 0.98541 0.61487 0.06722 0.0
C2168 C 0.93748 0.62314 0.12335 0.0
C2169 C 0.95703 0.60799 0.16423 0.0
N2170 N 0.96997 0.61617 0.08535 0.0
N2171 N 0.96812 0.60027 0.1449 0.0
H2172 H 0.11601 0.15384 0.87792 0.0
H2173 H 0.17983 0.29052 0.86212 0.0
H2174 H 0.15371 0.19517 0.93058 0.0
H2175 H 0.12826 0.25522 0.81523 0.0
H2176 H 0.1801 0.25113 0.88375 0.0
H2177 H 0.13135 0.18544 0.85115 0.0
C2178 C 0.12811 0.16926 0.88371 0.0
C2179 C 0.13325 0.17226 0.90647 0.0
C2180 C 0.16898 0.25195 0.86858 0.0
C2181 C 0.15043 0.20864 0.87613 0.0
C2182 C 0.1686 0.27453 0.85629 0.0
C2183 C 0.1535 0.27648 0.83704 0.0
C2184 C 0.1542 0.23112 0.86157 0.0
C2185 C 0.14009 0.25474 0.82996 0.0
C2186 C 0.13674 0.18734 0.86848 0.0
C2187 C 0.14924 0.1923 0.91316 0.0
N2188 N 0.14052 0.23307 0.84237 0.0
N2189 N 0.15687 0.21009 0.89808 0.0
H2190 H 0.59306 0.40723 0.65861 0.0
H2191 H 0.51471 0.3544 0.55479 0.0
H2192 H 0.59338 0.32869 0.63695 0.0
H2193 H 0.51633 0.43396 0.57362 0.0
H2194 H 0.54883 0.34603 0.58127 0.0
H2195 H 0.5702 0.41889 0.62442 0.0
C2196 C 0.58864 0.39256 0.64649 0.0
C2197 C 0.59452 0.36693 0.65076 0.0
C2198 C 0.54192 0.36539 0.57946 0.0
C2199 C 0.56844 0.37992 0.61187 0.0
C2200 C 0.52248 0.37021 0.5642 0.0
C2201 C 0.51221 0.39483 0.56227 0.0
C2202 C 0.55105 0.38529 0.59302 0.0
C2203 C 0.5231 0.41453 0.57503 0.0
C2204 C 0.57556 0.39915 0.62704 0.0
C2205 C 0.58855 0.3486 0.63452 0.0
N2206 N 0.54168 0.40928 0.59008 0.0
N2207 N 0.57559 0.3554 0.61594 0.0
H2208 H 0.17031 0.26735 0.22509 0.0
H2209 H 0.32249 0.28307 0.22916 0.0
H2210 H 0.22264 0.20383 0.2224 0.0
H2211 H 0.27028 0.34653 0.22496 0.0
H2212 H 0.28612 0.25367 0.22756 0.0
H2213 H 0.20665 0.29668 0.22451 0.0
C2214 C 0.18939 0.25954 0.22397 0.0
C2215 C 0.19335 0.23302 0.22384 0.0
C2216 C 0.28263 0.27404 0.22707 0.0
C2217 C 0.23516 0.26656 0.22367 0.0
C2218 C 0.30339 0.29083 0.22819 0.0
C2219 C 0.29946 0.31733 0.22728 0.0
C2220 C 0.25773 0.28379 0.2251 0.0
C2221 C 0.27426 0.32627 0.22573 0.0
C2222 C 0.21018 0.27632 0.22383 0.0
C2223 C 0.21859 0.2241 0.22257 0.0
N2224 N 0.25442 0.30957 0.22468 0.0
N2225 N 0.23849 0.24079 0.22273 0.0
H2226 H 0.05584 0.9621 0.46763 0.0
H2227 H 0.91451 0.01482 0.48734 0.0
H2228 H 0.9918 0.91307 0.48241 0.0
H2229 H 0.98118 0.06309 0.48469 0.0
H2230 H 0.94192 0.97728 0.48392 0.0
H2231 H 0.02788 0.99916 0.47053 0.0
C2232 C 0.0358 0.95905 0.47112 0.0
C2233 C 0.02622 0.93435 0.47483 0.0
C2234 C 0.95059 0.99606 0.48428 0.0
C2235 C 0.99411 0.97691 0.47855 0.0
C2236 C 0.93497 0.01751 0.48636 0.0
C2237 C 0.94557 0.04215 0.48637 0.0
C2238 C 0.97703 0.99923 0.48192 0.0
C2239 C 0.97219 0.04447 0.48496 0.0
C2240 C 0.01989 0.98029 0.47299 0.0
C2241 C 1.00006 0.93169 0.47934 0.0
N2242 N 0.98697 0.0233 0.4826 0.0
N2243 N 0.98496 0.95272 0.48119 0.0
H2244 H 0.19254 0.73298 0.73492 0.0
H2245 H 0.34489 0.74124 0.72541 0.0
H2246 H 0.24215 0.66734 0.73767 0.0
H2247 H 0.29516 0.8066 0.72 0.0
H2248 H 0.30746 0.71377 0.72937 0.0
H2249 H 0.22999 0.76047 0.73069 0.0
C2250 C 0.21131 0.72438 0.73508 0.0
C2251 C 0.21419 0.69779 0.73667 0.0
C2252 C 0.30472 0.7341 0.7271 0.0
C2253 C 0.25714 0.7291 0.73133 0.0
C2254 C 0.32611 0.74978 0.72459 0.0
C2255 C 0.32321 0.77632 0.72236 0.0
C2256 C 0.28023 0.74499 0.72743 0.0
C2257 C 0.29835 0.78627 0.72169 0.0
C2258 C 0.2327 0.74006 0.7324 0.0
C2259 C 0.239 0.68772 0.73646 0.0
N2260 N 0.27786 0.77065 0.72437 0.0
N2261 N 0.25947 0.70334 0.73371 0.0
H2262 H 0.50998 0.91976 0.0106 0.0
H2263 H 0.50783 0.07308 0.01249 0.0
H2264 H 0.57699 0.96581 0.02215 0.0
H2265 H 0.44301 0.02615 -0.00457 0.0
H2266 H 0.53351 0.0343 0.01687 0.0
H2267 H 0.48466 0.95875 0.0075 0.0
C2268 C 0.51931 0.93803 0.01296 0.0
C2269 C 0.5457 0.93945 0.01664 0.0
C2270 C 0.51371 0.03252 0.012 0.0
C2271 C 0.51685 0.98432 0.01259 0.0
C2272 C 0.49911 0.05469 0.00927 0.0
C2273 C 0.47321 0.05292 0.00353 0.0
C2274 C 0.50232 0.00841 0.00905 0.0
C2275 C 0.46288 0.0285 -0.00011 0.0
C2276 C 0.50487 0.96034 0.01091 0.0
C2277 C 0.55672 0.96376 0.01927 0.0
N2278 N 0.47739 0.00727 0.00282 0.0
N2279 N 0.5423 0.9852 0.01706 0.0
H2280 H 0.34297 0.76518 0.24808 0.0
H2281 H 0.19006 0.76843 0.24608 0.0
H2282 H 0.2959 0.69961 0.23344 0.0
H2283 H 0.23697 0.83517 0.25641 0.0
H2284 H 0.22863 0.74227 0.2444 0.0
H2285 H 0.3044 0.7909 0.25266 0.0
C2286 C 0.32456 0.75627 0.24551 0.0
C2287 C 0.32271 0.73021 0.24025 0.0
C2288 C 0.23047 0.76261 0.24726 0.0
C2289 C 0.27843 0.75942 0.2459 0.0
C2290 C 0.20842 0.77752 0.24846 0.0
C2291 C 0.21027 0.80406 0.25132 0.0
C2292 C 0.25455 0.77431 0.24893 0.0
C2293 C 0.23463 0.8148 0.25408 0.0
C2294 C 0.30252 0.77091 0.24833 0.0
C2295 C 0.29829 0.71963 0.23744 0.0
N2296 N 0.25579 0.79993 0.25265 0.0
N2297 N 0.27715 0.73424 0.24035 0.0
H2298 H 0.49957 0.07523 0.47497 0.0
H2299 H 0.48289 0.92293 0.48126 0.0
H2300 H 0.56268 0.0225 0.47783 0.0
H2301 H 0.41999 0.9756 0.47558 0.0
H2302 H 0.51251 0.95913 0.47981 0.0
H2303 H 0.47017 0.03893 0.4736 0.0
C2304 C 0.50729 0.05606 0.47489 0.0
C2305 C 0.53367 0.05197 0.47658 0.0
C2306 C 0.49221 0.96276 0.47895 0.0
C2307 C 0.50006 0.01024 0.4755 0.0
C2308 C 0.47529 0.9421 0.47996 0.0
C2309 C 0.44889 0.94621 0.47864 0.0
C2310 C 0.48269 0.98775 0.47664 0.0
C2311 C 0.44017 0.97148 0.47669 0.0
C2312 C 0.49047 0.0353 0.47431 0.0
C2313 C 0.54251 0.02662 0.47661 0.0
N2314 N 0.45698 0.99123 0.47574 0.0
N2315 N 0.52577 0.00678 0.47628 0.0
H2316 H 0.23847 0.34293 0.76229 0.0
H2317 H 0.29046 0.20007 0.77622 0.0
H2318 H 0.18969 0.27652 0.76283 0.0
H2319 H 0.33961 0.26572 0.76914 0.0
H2320 H 0.25338 0.22812 0.77429 0.0
H2321 H 0.27556 0.31522 0.76635 0.0
C2322 C 0.23555 0.32247 0.76304 0.0
C2323 C 0.21088 0.31205 0.76212 0.0
C2324 C 0.27226 0.23645 0.77336 0.0
C2325 C 0.25344 0.28013 0.76716 0.0
C2326 C 0.2935 0.22046 0.77465 0.0
C2327 C 0.31827 0.23051 0.77282 0.0
C2328 C 0.27569 0.26279 0.77019 0.0
C2329 C 0.32093 0.25709 0.77075 0.0
C2330 C 0.25679 0.30665 0.76547 0.0
C2331 C 0.20834 0.28539 0.76326 0.0
N2332 N 0.29991 0.27227 0.76933 0.0
N2333 N 0.22934 0.27037 0.76582 0.0
H2334 H 0.91976 0.98268 0.0007 0.0
H2335 H 0.06378 0.03162 0.01258 0.0
H2336 H 0.98459 0.9322 0.00461 0.0
H2337 H 1.00017 0.08199 0.00053 0.0
H2338 H 0.03461 0.99528 0.01235 0.0
H2339 H 0.9486 0.01931 0.00181 0.0
C2340 C 0.94011 0.97928 0.00152 0.0
C2341 C 0.94977 0.9543 0.00249 0.0
C2342 C 0.02698 0.01428 0.00992 0.0
C2343 C 0.98293 0.99629 0.00421 0.0
C2344 C 0.0436 0.03512 0.01023 0.0
C2345 C 0.03445 0.05997 0.00655 0.0
C2346 C 1.00091 0.01822 0.0059 0.0
C2347 C 0.00809 0.06323 0.00356 0.0
C2348 C 0.95656 1.00024 0.00227 0.0
C2349 C 0.97631 0.9511 0.00362 0.0
N2350 N 0.99229 0.04259 0.00317 0.0
N2351 N 0.99194 0.97185 0.0046 0.0
H2352 H 0.84538 0.74225 0.75044 0.0
H2353 H 0.69296 0.73381 0.74176 0.0
H2354 H 0.79513 0.80656 0.76015 0.0
H2355 H 0.74241 0.66807 0.73847 0.0
H2356 H 0.7305 0.76121 0.74563 0.0
H2357 H 0.8081 0.71486 0.7448 0.0
C2358 C 0.82652 0.75055 0.75176 0.0
C2359 C 0.82341 0.77677 0.75585 0.0
C2360 C 0.73316 0.74081 0.74386 0.0
C2361 C 0.78065 0.74561 0.74891 0.0
C2362 C 0.71172 0.72517 0.74138 0.0
C2363 C 0.71453 0.69858 0.73981 0.0
C2364 C 0.75758 0.72979 0.74473 0.0
C2365 C 0.73933 0.68846 0.7397 0.0
C2366 C 0.80524 0.73494 0.74833 0.0
C2367 C 0.79848 0.78647 0.75708 0.0
N2368 N 0.75986 0.70404 0.74227 0.0
N2369 N 0.77811 0.77094 0.75352 0.0
H2370 H 0.8249 0.28372 0.2438 0.0
H2371 H 0.67199 0.27853 0.23541 0.0
H2372 H 0.77797 0.34991 0.23165 0.0
H2373 H 0.71893 0.21362 0.25203 0.0
H2374 H 0.71058 0.30481 0.23263 0.0
H2375 H 0.78641 0.25716 0.2442 0.0
C2376 C 0.80658 0.29261 0.24078 0.0
C2377 C 0.8047 0.31911 0.2377 0.0
C2378 C 0.71241 0.28484 0.23699 0.0
C2379 C 0.76045 0.28889 0.23858 0.0
C2380 C 0.69034 0.26987 0.23875 0.0
C2381 C 0.69215 0.24383 0.24407 0.0
C2382 C 0.73649 0.27369 0.2405 0.0
C2383 C 0.71654 0.23361 0.24793 0.0
C2384 C 0.78455 0.27747 0.24124 0.0
C2385 C 0.78035 0.32957 0.23415 0.0
N2386 N 0.73768 0.2485 0.24601 0.0
N2387 N 0.75923 0.3145 0.23482 0.0
H2388 H 0.84789 0.25166 0.73674 0.0
H2389 H 0.69547 0.25908 0.74593 0.0
H2390 H 0.79758 0.18874 0.72149 0.0
H2391 H 0.7444 0.32516 0.75066 0.0
H2392 H 0.73314 0.23235 0.74005 0.0
H2393 H 0.81058 0.27874 0.74319 0.0
C2394 C 0.82905 0.24364 0.73432 0.0
C2395 C 0.82595 0.21782 0.72853 0.0
C2396 C 0.73566 0.25267 0.74257 0.0
C2397 C 0.7831 0.2486 0.73649 0.0
C2398 C 0.71416 0.2679 0.74623 0.0
C2399 C 0.71676 0.29442 0.74885 0.0
C2400 C 0.75998 0.26399 0.74161 0.0
C2401 C 0.74149 0.30481 0.74871 0.0
C2402 C 0.80773 0.25907 0.73823 0.0
C2403 C 0.80098 0.20849 0.72592 0.0
N2404 N 0.76209 0.28962 0.74505 0.0
N2405 N 0.78058 0.22377 0.73009 0.0
H2406 H 0.73813 0.82336 0.23754 0.0
H2407 H 0.79473 0.68482 0.26443 0.0
H2408 H 0.69117 0.75819 0.25361 0.0
H2409 H 0.84135 0.75117 0.25159 0.0
H2410 H 0.7566 0.71118 0.26047 0.0
H2411 H 0.77599 0.7966 0.24086 0.0
C2412 C 0.73574 0.80329 0.2414 0.0
C2413 C 0.71141 0.79302 0.24529 0.0
C2414 C 0.77516 0.72004 0.25869 0.0
C2415 C 0.75483 0.76231 0.24961 0.0
C2416 C 0.79697 0.70503 0.26112 0.0
C2417 C 0.82131 0.71579 0.2584 0.0
C2418 C 0.77764 0.74602 0.25335 0.0
C2419 C 0.82301 0.74208 0.25402 0.0
C2420 C 0.75742 0.78806 0.24348 0.0
C2421 C 0.70952 0.76689 0.2503 0.0
N2422 N 0.80147 0.75624 0.25148 0.0
N2423 N 0.73096 0.75249 0.25248 0.0
H2424 H 0.42609 0.52027 0.0122 0.0
H2425 H 0.56434 0.46702 0.98022 0.0
H2426 H 0.49037 0.56844 -0.00369 0.0
H2427 H 0.50337 0.41845 0.00347 0.0
H2428 H 0.53675 0.50408 0.98486 0.0
H2429 H 0.45373 0.4828 0.00946 0.0
C2430 C 0.44613 0.52302 0.00853 0.0
C2431 C 0.4559 0.5476 0.00453 0.0
C2432 C 0.5293 0.48534 0.98886 0.0
C2433 C 0.48756 0.50463 0.00081 0.0
C2434 C 0.545 0.46408 0.98604 0.0
C2435 C 0.53617 0.4395 0.99137 0.0
C2436 C 0.50446 0.48215 -0.00289 0.0
C2437 C 0.51093 0.43698 -0.00108 0.0
C2438 C 0.46186 0.50157 0.00681 0.0
C2439 C 0.482 0.54994 -0.00027 0.0
N2440 N 0.496 0.45805 0.00164 0.0
N2441 N 0.49683 0.52873 -0.00221 0.0
H2442 H 0.90496 0.52042 0.5046 0.0
H2443 H 0.04652 0.46577 0.51868 0.0
H2444 H 0.972 0.5682 0.50693 0.0
H2445 H 0.98008 0.41782 0.51111 0.0
H2446 H 0.01928 0.50343 0.5164 0.0
H2447 H 0.93205 0.48271 0.50752 0.0
C2448 C 0.92544 0.52297 0.50546 0.0
C2449 C 0.93623 0.54753 0.50547 0.0
C2450 C 0.01061 0.48469 0.51538 0.0
C2451 C 0.9674 0.50432 0.50923 0.0
C2452 C 0.02614 0.46312 0.51686 0.0
C2453 C 0.0156 0.43853 0.51505 0.0
C2454 C 0.98429 0.48174 0.51205 0.0
C2455 C 0.98905 0.43636 0.51268 0.0
C2456 C 0.94089 0.5014 0.50724 0.0
C2457 C 0.96287 0.54965 0.50667 0.0
N2458 N 0.97435 0.45768 0.51111 0.0
N2459 N 0.97753 0.52832 0.50865 0.0
H2460 H 0.0752 0.53986 0.963 0.0
H2461 H 0.94406 0.47488 0.00158 0.0
H2462 H 0.00844 0.58263 0.98229 0.0
H2463 H 0.01139 0.432 0.98409 0.0
H2464 H 0.96721 0.51446 0.99421 0.0
H2465 H 0.05146 0.50023 0.96865 0.0
C2466 C 0.0554 0.54096 0.96803 0.0
C2467 C 0.04385 0.56469 0.97219 0.0
C2468 C 0.977 0.49642 0.9921 0.0
C2469 C 0.01666 0.51921 0.97918 0.0
C2470 C 0.96384 0.47377 -0.00353 0.0
C2471 C 0.97579 0.45002 0.99353 0.0
C2472 C 1.00235 0.49543 0.9846 0.0
C2473 C 1.00144 0.44984 0.98677 0.0
C2474 C 0.04191 0.51827 0.97144 0.0
C2475 C 0.01813 0.56484 0.97875 0.0
N2476 N 0.0138 0.47218 0.98242 0.0
N2477 N 0.0055 0.54247 0.98222 0.0
H2478 H 0.43289 0.47772 0.47424 0.0
H2479 H 0.56822 0.53283 0.51335 0.0
H2480 H 0.49764 0.43014 0.48955 0.0
H2481 H 0.50597 0.58065 0.49177 0.0
H2482 H 0.54193 0.49515 0.5064 0.0
H2483 H 0.4592 0.51559 0.48055 0.0
C2484 C 0.45279 0.47523 0.47852 0.0
C2485 C 0.46307 0.45067 0.48125 0.0
C2486 C 0.53393 0.51387 0.50333 0.0
C2487 C 0.49321 0.49408 0.48912 0.0
C2488 C 0.54886 0.53547 0.5075 0.0
C2489 C 0.53935 0.56005 0.50317 0.0
C2490 C 0.5092 0.51675 0.49474 0.0
C2491 C 0.51412 0.56216 0.49551 0.0
C2492 C 0.46776 0.49689 0.4823 0.0
C2493 C 0.48896 0.44865 0.48699 0.0
N2494 N 0.50001 0.54081 0.49142 0.0
N2495 N 0.50305 0.47005 0.49093 0.0
loop_
_geom_bond_atom_site_label_1
_geom_bond_atom_site_label_2
_geom_bond_distance
_geom_bond_site_symmetry_2
_ccdc_geom_bond_type
C0 C1 1.351 . S
C0 N3 1.368 . S
C0 H5 0.931 . S
C1 C0 1.351 . S
C1 N2 1.373 . S
C1 H29 0.930 . S
N2 C1 1.373 . S
N2 C4 1.340 . S
N3 C0 1.368 . S
N3 C4 1.321 . S
N3 Co6 2.135 . S
C4 N2 1.340 . S
C4 N3 1.321 . S
C4 H28 0.930 . S
H5 C0 0.931 . S
Co6 N3 2.135 . S
Co6 N9 2.121 . S
Co6 O14 2.055 . S
Co6 O17 2.039 . S
Co6 N20 2.140 . S
C7 O8 1.227 . S
C7 O17 1.265 . S
O8 C7 1.227 . S
N9 Co6 2.121 . S
N9 C11 1.375 . S
N9 C12 1.313 . S
C10 C11 1.338 . S
C10 N13 1.377 . S
C10 H30 0.930 . S
C11 N9 1.375 . S
C11 C10 1.338 . S
C11 H15 0.931 . S
C12 N9 1.313 . S
C12 N13 1.344 . S
C12 H16 0.930 . S
N13 C10 1.377 . S
N13 C12 1.344 . S
O14 Co6 2.055 . S
O14 C18 1.253 . S
H15 C11 0.931 . S
H16 C12 0.930 . S
O17 Co6 2.039 . S
O17 C7 1.265 . S
C18 O14 1.253 . S
C18 O19 1.227 . S
O19 C18 1.227 . S
N20 Co6 2.140 . S
N20 C23 1.346 . S
N20 C24 1.345 . S
C21 C22 1.387 . S
C21 C25 1.391 . S
C22 C21 1.387 . S
C22 C23 1.369 . S
C22 H31 0.929 . S
C23 N20 1.346 . S
C23 C22 1.369 . S
C23 H26 0.928 . S
C24 N20 1.345 . S
C24 C25 1.371 . S
C24 H27 0.931 . S
C25 C21 1.391 . S
C25 C24 1.371 . S
C25 H32 0.930 . S
H26 C23 0.928 . S
H27 C24 0.931 . S
H28 C4 0.930 . S
H29 C1 0.930 . S
H30 C10 0.930 . S
H31 C22 0.929 . S
H32 C25 0.930 . S
C33 C34 1.351 . S
C33 N36 1.368 . S
C33 H38 0.931 . S
C34 C33 1.351 . S
C34 N35 1.373 . S
C34 H62 0.930 . S
N35 C34 1.373 . S
N35 C37 1.340 . S
N36 C33 1.368 . S
N36 C37 1.321 . S
N36 Co39 2.135 . S
C37 N35 1.340 . S
C37 N36 1.321 . S
C37 H61 0.930 . S
H38 C33 0.931 . S
Co39 N36 2.135 . S
Co39 N42 2.121 . S
Co39 O47 2.055 . S
Co39 O50 2.039 . S
Co39 N53 2.140 . S
C40 O41 1.227 . S
C40 O50 1.265 . S
O41 C40 1.227 . S
N42 Co39 2.121 . S
N42 C44 1.375 . S
N42 C45 1.313 . S
C43 C44 1.338 . S
C43 N46 1.377 . S
C43 H63 0.930 . S
C44 N42 1.375 . S
C44 C43 1.338 . S
C44 H48 0.931 . S
C45 N42 1.313 . S
C45 N46 1.344 . S
C45 H49 0.930 . S
N46 C43 1.377 . S
N46 C45 1.344 . S
O47 Co39 2.055 . S
O47 C51 1.253 . S
H48 C44 0.931 . S
H49 C45 0.930 . S
O50 Co39 2.039 . S
O50 C40 1.265 . S
C51 O47 1.253 . S
C51 O52 1.227 . S
O52 C51 1.227 . S
N53 Co39 2.140 . S
N53 C56 1.346 . S
N53 C57 1.345 . S
C54 C55 1.387 . S
C54 C58 1.391 . S
C55 C54 1.387 . S
C55 C56 1.369 . S
C55 H64 0.929 . S
C56 N53 1.346 . S
C56 C55 1.369 . S
C56 H59 0.928 . S
C57 N53 1.345 . S
C57 C58 1.371 . S
C57 H60 0.931 . S
C58 C54 1.391 . S
C58 C57 1.371 . S
C58 H65 0.930 . S
H59 C56 0.928 . S
H60 C57 0.931 . S
H61 C37 0.930 . S
H62 C34 0.930 . S
H63 C43 0.930 . S
H64 C55 0.929 . S
H65 C58 0.930 . S
C66 C67 1.351 . S
C66 N69 1.368 . S
C66 H71 0.931 . S
C67 C66 1.351 . S
C67 N68 1.373 . S
C67 H95 0.930 . S
N68 C67 1.373 . S
N68 C70 1.340 . S
N69 C66 1.368 . S
N69 C70 1.321 . S
N69 Co72 2.135 . S
C70 N68 1.340 . S
C70 N69 1.321 . S
C70 H94 0.930 . S
H71 C66 0.931 . S
Co72 N69 2.135 . S
Co72 N75 2.121 . S
Co72 O80 2.055 . S
Co72 O83 2.039 . S
Co72 N86 2.140 . S
C73 O74 1.227 . S
C73 O83 1.265 . S
O74 C73 1.227 . S
N75 Co72 2.121 . S
N75 C77 1.375 . S
N75 C78 1.313 . S
C76 C77 1.338 . S
C76 N79 1.377 . S
C76 H96 0.930 . S
C77 N75 1.375 . S
C77 C76 1.338 . S
C77 H81 0.931 . S
C78 N75 1.313 . S
C78 N79 1.344 . S
C78 H82 0.930 . S
N79 C76 1.377 . S
N79 C78 1.344 . S
O80 Co72 2.055 . S
O80 C84 1.253 . S
H81 C77 0.931 . S
H82 C78 0.930 . S
O83 Co72 2.039 . S
O83 C73 1.265 . S
C84 O80 1.253 . S
C84 O85 1.227 . S
O85 C84 1.227 . S
N86 Co72 2.140 . S
N86 C89 1.346 . S
N86 C90 1.345 . S
C87 C88 1.387 . S
C87 C91 1.391 . S
C88 C87 1.387 . S
C88 C89 1.369 . S
C88 H97 0.929 . S
C89 N86 1.346 . S
C89 C88 1.369 . S
C89 H92 0.928 . S
C90 N86 1.345 . S
C90 C91 1.371 . S
C90 H93 0.931 . S
C91 C87 1.391 . S
C91 C90 1.371 . S
C91 H98 0.930 . S
H92 C89 0.928 . S
H93 C90 0.931 . S
H94 C70 0.930 . S
H95 C67 0.930 . S
H96 C76 0.930 . S
H97 C88 0.929 . S
H98 C91 0.930 . S
C99 C100 1.351 . S
C99 N102 1.368 . S
C99 H104 0.931 . S
C100 C99 1.351 . S
C100 N101 1.373 . S
C100 H128 0.930 . S
N101 C100 1.373 . S
N101 C103 1.340 . S
N102 C99 1.368 . S
N102 C103 1.321 . S
N102 Co105 2.135 . S
C103 N101 1.340 . S
C103 N102 1.321 . S
C103 H127 0.930 . S
H104 C99 0.931 . S
Co105 N102 2.135 . S
Co105 N108 2.121 1_554 S
Co105 O113 2.055 . S
Co105 O116 2.039 . S
Co105 N119 2.140 . S
C106 O107 1.227 . S
C106 O116 1.265 . S
O107 C106 1.227 . S
N108 Co105 2.121 1_556 S
N108 C110 1.375 . S
N108 C111 1.313 . S
C109 C110 1.338 . S
C109 N112 1.377 . S
C109 H129 0.930 . S
C110 N108 1.375 . S
C110 C109 1.338 . S
C110 H114 0.931 . S
C111 N108 1.313 . S
C111 N112 1.344 . S
C111 H115 0.930 . S
N112 C109 1.377 . S
N112 C111 1.344 . S
O113 Co105 2.055 . S
O113 C117 1.253 . S
H114 C110 0.931 . S
H115 C111 0.930 . S
O116 Co105 2.039 . S
O116 C106 1.265 . S
C117 O113 1.253 . S
C117 O118 1.227 . S
O118 C117 1.227 . S
N119 Co105 2.140 . S
N119 C122 1.346 . S
N119 C123 1.345 . S
C120 C121 1.387 . S
C120 C124 1.391 . S
C121 C120 1.387 . S
C121 C122 1.369 . S
C121 H130 0.929 . S
C122 N119 1.346 . S
C122 C121 1.369 . S
C122 H125 0.928 . S
C123 N119 1.345 . S
C123 C124 1.371 . S
C123 H126 0.931 . S
C124 C120 1.391 . S
C124 C123 1.371 . S
C124 H131 0.930 . S
H125 C122 0.928 . S
H126 C123 0.931 . S
H127 C103 0.930 . S
H128 C100 0.930 . S
H129 C109 0.930 . S
H130 C121 0.929 . S
H131 C124 0.930 . S
C132 C133 1.351 . S
C132 N135 1.368 . S
C132 H137 0.931 . S
C133 C132 1.351 . S
C133 N134 1.373 . S
C133 H161 0.930 . S
N134 C133 1.373 . S
N134 C136 1.340 . S
N135 C132 1.368 . S
N135 C136 1.321 . S
N135 Co138 2.135 . S
C136 N134 1.340 . S
C136 N135 1.321 . S
C136 H160 0.930 . S
H137 C132 0.931 . S
Co138 N135 2.135 . S
Co138 N141 2.121 . S
Co138 O146 2.055 . S
Co138 O149 2.039 . S
Co138 N152 2.140 . S
C139 O140 1.227 . S
C139 O149 1.265 . S
O140 C139 1.227 . S
N141 Co138 2.121 . S
N141 C143 1.375 . S
N141 C144 1.313 . S
C142 C143 1.338 . S
C142 N145 1.377 . S
C142 H162 0.930 . S
C143 N141 1.375 . S
C143 C142 1.338 . S
C143 H147 0.931 . S
C144 N141 1.313 . S
C144 N145 1.344 . S
C144 H148 0.930 . S
N145 C142 1.377 . S
N145 C144 1.344 . S
O146 Co138 2.055 . S
O146 C150 1.253 . S
H147 C143 0.931 . S
H148 C144 0.930 . S
O149 Co138 2.039 . S
O149 C139 1.265 . S
C150 O146 1.253 . S
C150 O151 1.227 . S
O151 C150 1.227 . S
N152 Co138 2.140 . S
N152 C155 1.346 . S
N152 C156 1.345 . S
C153 C154 1.387 . S
C153 C157 1.391 . S
C154 C153 1.387 . S
C154 C155 1.369 . S
C154 H163 0.929 . S
C155 N152 1.346 . S
C155 C154 1.369 . S
C155 H158 0.928 . S
C156 N152 1.345 . S
C156 C157 1.371 . S
C156 H159 0.931 . S
C157 C153 1.391 . S
C157 C156 1.371 . S
C157 H164 0.930 . S
H158 C155 0.928 . S
H159 C156 0.931 . S
H160 C136 0.930 . S
H161 C133 0.930 . S
H162 C142 0.930 . S
H163 C154 0.929 . S
H164 C157 0.930 . S
C165 C166 1.351 . S
C165 N168 1.368 . S
C165 H170 0.931 . S
C166 C165 1.351 . S
C166 N167 1.373 . S
C166 H194 0.930 . S
N167 C166 1.373 . S
N167 C169 1.340 . S
N168 C165 1.368 . S
N168 C169 1.321 . S
N168 Co171 2.135 . S
C169 N167 1.340 . S
C169 N168 1.321 . S
C169 H193 0.930 . S
H170 C165 0.931 . S
Co171 N168 2.135 . S
Co171 N174 2.121 . S
Co171 O179 2.055 . S
Co171 O182 2.039 . S
Co171 N185 2.140 . S
C172 O173 1.227 . S
C172 O182 1.265 . S
O173 C172 1.227 . S
N174 Co171 2.121 . S
N174 C176 1.375 . S
N174 C177 1.313 . S
C175 C176 1.338 . S
C175 N178 1.377 . S
C175 H195 0.930 . S
C176 N174 1.375 . S
C176 C175 1.338 . S
C176 H180 0.931 . S
C177 N174 1.313 . S
C177 N178 1.344 . S
C177 H181 0.930 . S
N178 C175 1.377 . S
N178 C177 1.344 . S
O179 Co171 2.055 . S
O179 C183 1.253 . S
H180 C176 0.931 . S
H181 C177 0.930 . S
O182 Co171 2.039 . S
O182 C172 1.265 . S
C183 O179 1.253 . S
C183 O184 1.227 . S
O184 C183 1.227 . S
N185 Co171 2.140 . S
N185 C188 1.346 . S
N185 C189 1.345 . S
C186 C187 1.387 . S
C186 C190 1.391 . S
C187 C186 1.387 . S
C187 C188 1.369 . S
C187 H196 0.929 . S
C188 N185 1.346 . S
C188 C187 1.369 . S
C188 H191 0.928 . S
C189 N185 1.345 . S
C189 C190 1.371 . S
C189 H192 0.931 . S
C190 C186 1.391 . S
C190 C189 1.371 . S
C190 H197 0.930 . S
H191 C188 0.928 . S
H192 C189 0.931 . S
H193 C169 0.930 . S
H194 C166 0.930 . S
H195 C175 0.930 . S
H196 C187 0.929 . S
H197 C190 0.930 . S
C198 C199 1.351 . S
C198 N201 1.368 . S
C198 H203 0.931 . S
C199 C198 1.351 . S
C199 N200 1.373 . S
C199 H227 0.930 . S
N200 C199 1.373 . S
N200 C202 1.340 . S
N201 C198 1.368 . S
N201 C202 1.321 . S
N201 Co204 2.135 . S
C202 N200 1.340 . S
C202 N201 1.321 . S
C202 H226 0.930 . S
H203 C198 0.931 . S
Co204 N201 2.135 . S
Co204 N207 2.121 . S
Co204 O212 2.055 . S
Co204 O215 2.039 . S
Co204 N218 2.140 . S
C205 O206 1.227 . S
C205 O215 1.265 . S
O206 C205 1.227 . S
N207 Co204 2.121 . S
N207 C209 1.375 . S
N207 C210 1.313 . S
C208 C209 1.338 . S
C208 N211 1.377 . S
C208 H228 0.930 . S
C209 N207 1.375 . S
C209 C208 1.338 . S
C209 H213 0.931 . S
C210 N207 1.313 . S
C210 N211 1.344 . S
C210 H214 0.930 . S
N211 C208 1.377 . S
N211 C210 1.344 . S
O212 Co204 2.055 . S
O212 C216 1.253 . S
H213 C209 0.931 . S
H214 C210 0.930 . S
O215 Co204 2.039 . S
O215 C205 1.265 . S
C216 O212 1.253 . S
C216 O217 1.227 . S
O217 C216 1.227 . S
N218 Co204 2.140 . S
N218 C221 1.346 . S
N218 C222 1.345 . S
C219 C220 1.387 . S
C219 C223 1.391 . S
C220 C219 1.387 . S
C220 C221 1.369 . S
C220 H229 0.929 . S
C221 N218 1.346 . S
C221 C220 1.369 . S
C221 H224 0.928 . S
C222 N218 1.345 . S
C222 C223 1.371 . S
C222 H225 0.931 . S
C223 C219 1.391 . S
C223 C222 1.371 . S
C223 H230 0.930 . S
H224 C221 0.928 . S
H225 C222 0.931 . S
H226 C202 0.930 . S
H227 C199 0.930 . S
H228 C208 0.930 . S
H229 C220 0.929 . S
H230 C223 0.930 . S
C231 C232 1.351 . S
C231 N234 1.368 . S
C231 H236 0.931 . S
C232 C231 1.351 . S
C232 N233 1.373 . S
C232 H260 0.930 . S
N233 C232 1.373 . S
N233 C235 1.340 . S
N234 C231 1.368 . S
N234 C235 1.321 . S
N234 Co237 2.135 . S
C235 N233 1.340 . S
C235 N234 1.321 . S
C235 H259 0.930 . S
H236 C231 0.931 . S
Co237 N234 2.135 . S
Co237 N240 2.121 1_556 S
Co237 O245 2.055 . S
Co237 O248 2.039 . S
Co237 N251 2.140 . S
C238 O239 1.227 . S
C238 O248 1.265 . S
O239 C238 1.227 . S
N240 Co237 2.121 1_554 S
N240 C242 1.375 . S
N240 C243 1.313 . S
C241 C242 1.338 . S
C241 N244 1.377 . S
C241 H261 0.930 . S
C242 N240 1.375 . S
C242 C241 1.338 . S
C242 H246 0.931 . S
C243 N240 1.313 . S
C243 N244 1.344 . S
C243 H247 0.930 . S
N244 C241 1.377 . S
N244 C243 1.344 . S
O245 Co237 2.055 . S
O245 C249 1.253 . S
H246 C242 0.931 . S
H247 C243 0.930 . S
O248 Co237 2.039 . S
O248 C238 1.265 . S
C249 O245 1.253 . S
C249 O250 1.227 . S
O250 C249 1.227 . S
N251 Co237 2.140 . S
N251 C254 1.346 . S
N251 C255 1.345 . S
C252 C253 1.387 . S
C252 C256 1.391 . S
C253 C252 1.387 . S
C253 C254 1.369 . S
C253 H262 0.929 . S
C254 N251 1.346 . S
C254 C253 1.369 . S
C254 H257 0.928 . S
C255 N251 1.345 . S
C255 C256 1.371 . S
C255 H258 0.931 . S
C256 C252 1.391 . S
C256 C255 1.371 . S
C256 H263 0.930 . S
H257 C254 0.928 . S
H258 C255 0.931 . S
H259 C235 0.930 . S
H260 C232 0.930 . S
H261 C241 0.930 . S
H262 C253 0.929 . S
H263 C256 0.930 . S
C264 C265 1.351 . S
C264 N267 1.368 . S
C264 H269 0.931 . S
C265 C264 1.351 . S
C265 N266 1.373 . S
C265 H293 0.930 . S
N266 C265 1.373 . S
N266 C268 1.340 . S
N267 C264 1.368 . S
N267 C268 1.321 . S
N267 Co270 2.135 . S
C268 N266 1.340 . S
C268 N267 1.321 . S
C268 H292 0.930 . S
H269 C264 0.931 . S
Co270 N267 2.135 . S
Co270 N273 2.121 . S
Co270 O278 2.055 . S
Co270 O281 2.039 . S
Co270 N284 2.140 . S
C271 O272 1.227 . S
C271 O281 1.265 . S
O272 C271 1.227 . S
N273 Co270 2.121 . S
N273 C275 1.375 . S
N273 C276 1.313 . S
C274 C275 1.338 . S
C274 N277 1.377 . S
C274 H294 0.930 . S
C275 N273 1.375 . S
C275 C274 1.338 . S
C275 H279 0.931 . S
C276 N273 1.313 . S
C276 N277 1.344 . S
C276 H280 0.930 . S
N277 C274 1.377 . S
N277 C276 1.344 . S
O278 Co270 2.055 . S
O278 C282 1.253 . S
H279 C275 0.931 . S
H280 C276 0.930 . S
O281 Co270 2.039 . S
O281 C271 1.265 . S
C282 O278 1.253 . S
C282 O283 1.227 . S
O283 C282 1.227 . S
N284 Co270 2.140 . S
N284 C287 1.346 . S
N284 C288 1.345 . S
C285 C286 1.387 . S
C285 C289 1.391 . S
C286 C285 1.387 . S
C286 C287 1.369 . S
C286 H295 0.929 . S
C287 N284 1.346 . S
C287 C286 1.369 . S
C287 H290 0.928 . S
C288 N284 1.345 . S
C288 C289 1.371 . S
C288 H291 0.931 . S
C289 C285 1.391 . S
C289 C288 1.371 . S
C289 H296 0.930 . S
H290 C287 0.928 . S
H291 C288 0.931 . S
H292 C268 0.930 . S
H293 C265 0.930 . S
H294 C274 0.930 . S
H295 C286 0.929 . S
H296 C289 0.930 . S
C297 C298 1.351 . S
C297 N300 1.368 . S
C297 H302 0.931 . S
C298 C297 1.351 . S
C298 N299 1.373 . S
C298 H326 0.930 . S
N299 C298 1.373 . S
N299 C301 1.340 . S
N300 C297 1.368 . S
N300 C301 1.321 . S
N300 Co303 2.135 . S
C301 N299 1.340 . S
C301 N300 1.321 . S
C301 H325 0.930 . S
H302 C297 0.931 . S
Co303 N300 2.135 . S
Co303 N306 2.121 . S
Co303 O311 2.055 . S
Co303 O314 2.039 . S
Co303 N317 2.140 . S
C304 O305 1.227 . S
C304 O314 1.265 . S
O305 C304 1.227 . S
N306 Co303 2.121 . S
N306 C308 1.375 . S
N306 C309 1.313 . S
C307 C308 1.338 . S
C307 N310 1.377 . S
C307 H327 0.930 . S
C308 N306 1.375 . S
C308 C307 1.338 . S
C308 H312 0.931 . S
C309 N306 1.313 . S
C309 N310 1.344 . S
C309 H313 0.930 . S
N310 C307 1.377 . S
N310 C309 1.344 . S
O311 Co303 2.055 . S
O311 C315 1.253 . S
H312 C308 0.931 . S
H313 C309 0.930 . S
O314 Co303 2.039 . S
O314 C304 1.265 . S
C315 O311 1.253 . S
C315 O316 1.227 . S
O316 C315 1.227 . S
N317 Co303 2.140 . S
N317 C320 1.346 . S
N317 C321 1.345 . S
C318 C319 1.387 . S
C318 C322 1.391 . S
C319 C318 1.387 . S
C319 C320 1.369 . S
C319 H328 0.929 . S
C320 N317 1.346 . S
C320 C319 1.369 . S
C320 H323 0.928 . S
C321 N317 1.345 . S
C321 C322 1.371 . S
C321 H324 0.931 . S
C322 C318 1.391 . S
C322 C321 1.371 . S
C322 H329 0.930 . S
H323 C320 0.928 . S
H324 C321 0.931 . S
H325 C301 0.930 . S
H326 C298 0.930 . S
H327 C307 0.930 . S
H328 C319 0.929 . S
H329 C322 0.930 . S
C330 C331 1.351 . S
C330 N333 1.368 . S
C330 H335 0.931 . S
C331 C330 1.351 . S
C331 N332 1.373 . S
C331 H359 0.930 . S
N332 C331 1.373 . S
N332 C334 1.340 . S
N333 C330 1.368 . S
N333 C334 1.321 . S
N333 Co336 2.135 . S
C334 N332 1.340 . S
C334 N333 1.321 . S
C334 H358 0.930 . S
H335 C330 0.931 . S
Co336 N333 2.135 . S
Co336 N339 2.121 . S
Co336 O344 2.055 . S
Co336 O347 2.039 . S
Co336 N350 2.140 . S
C337 O338 1.227 . S
C337 O347 1.265 . S
O338 C337 1.227 . S
N339 Co336 2.121 . S
N339 C341 1.375 . S
N339 C342 1.313 . S
C340 C341 1.338 . S
C340 N343 1.377 . S
C340 H360 0.930 . S
C341 N339 1.375 . S
C341 C340 1.338 . S
C341 H345 0.931 . S
C342 N339 1.313 . S
C342 N343 1.344 . S
C342 H346 0.930 . S
N343 C340 1.377 . S
N343 C342 1.344 . S
O344 Co336 2.055 . S
O344 C348 1.253 . S
H345 C341 0.931 . S
H346 C342 0.930 . S
O347 Co336 2.039 . S
O347 C337 1.265 . S
C348 O344 1.253 . S
C348 O349 1.227 . S
O349 C348 1.227 . S
N350 Co336 2.140 . S
N350 C353 1.346 . S
N350 C354 1.345 . S
C351 C352 1.387 . S
C351 C355 1.391 . S
C352 C351 1.387 . S
C352 C353 1.369 . S
C352 H361 0.929 . S
C353 N350 1.346 . S
C353 C352 1.369 . S
C353 H356 0.928 . S
C354 N350 1.345 . S
C354 C355 1.371 . S
C354 H357 0.931 . S
C355 C351 1.391 . S
C355 C354 1.371 . S
C355 H362 0.930 . S
H356 C353 0.928 . S
H357 C354 0.931 . S
H358 C334 0.930 . S
H359 C331 0.930 . S
H360 C340 0.930 . S
H361 C352 0.929 . S
H362 C355 0.930 . S
C363 C364 1.351 . S
C363 N366 1.368 . S
C363 H368 0.931 . S
C364 C363 1.351 . S
C364 N365 1.373 . S
C364 H392 0.930 . S
N365 C364 1.373 . S
N365 C367 1.340 . S
N366 C363 1.368 . S
N366 C367 1.321 . S
N366 Co369 2.135 . S
C367 N365 1.340 . S
C367 N366 1.321 . S
C367 H391 0.930 . S
H368 C363 0.931 . S
Co369 N366 2.135 . S
Co369 N372 2.121 1_556 S
Co369 O377 2.055 . S
Co369 O380 2.039 . S
Co369 N383 2.140 . S
C370 O371 1.227 . S
C370 O380 1.265 . S
O371 C370 1.227 . S
N372 Co369 2.121 1_554 S
N372 C374 1.375 . S
N372 C375 1.313 . S
C373 C374 1.338 . S
C373 N376 1.377 . S
C373 H393 0.930 . S
C374 N372 1.375 . S
C374 C373 1.338 . S
C374 H378 0.931 . S
C375 N372 1.313 . S
C375 N376 1.344 . S
C375 H379 0.930 . S
N376 C373 1.377 . S
N376 C375 1.344 . S
O377 Co369 2.055 . S
O377 C381 1.253 . S
H378 C374 0.931 . S
H379 C375 0.930 . S
O380 Co369 2.039 . S
O380 C370 1.265 . S
C381 O377 1.253 . S
C381 O382 1.227 . S
O382 C381 1.227 . S
N383 Co369 2.140 . S
N383 C386 1.346 . S
N383 C387 1.345 . S
C384 C385 1.387 . S
C384 C388 1.391 . S
C385 C384 1.387 . S
C385 C386 1.369 . S
C385 H394 0.929 . S
C386 N383 1.346 . S
C386 C385 1.369 . S
C386 H389 0.928 . S
C387 N383 1.345 . S
C387 C388 1.371 . S
C387 H390 0.931 . S
C388 C384 1.391 . S
C388 C387 1.371 . S
C388 H395 0.930 . S
H389 C386 0.928 . S
H390 C387 0.931 . S
H391 C367 0.930 . S
H392 C364 0.930 . S
H393 C373 0.930 . S
H394 C385 0.929 . S
H395 C388 0.930 . S
C396 C397 1.351 . S
C396 N399 1.368 . S
C396 H401 0.931 . S
C397 C396 1.351 . S
C397 N398 1.373 . S
C397 H425 0.930 . S
N398 C397 1.373 . S
N398 C400 1.340 . S
N399 C396 1.368 . S
N399 C400 1.321 . S
N399 Co402 2.135 . S
C400 N398 1.340 . S
C400 N399 1.321 . S
C400 H424 0.930 . S
H401 C396 0.931 . S
Co402 N399 2.135 . S
Co402 N405 2.121 . S
Co402 O410 2.055 . S
Co402 O413 2.039 . S
Co402 N416 2.140 . S
C403 O404 1.227 . S
C403 O413 1.265 . S
O404 C403 1.227 . S
N405 Co402 2.121 . S
N405 C407 1.375 . S
N405 C408 1.313 . S
C406 C407 1.338 . S
C406 N409 1.377 . S
C406 H426 0.930 . S
C407 N405 1.375 . S
C407 C406 1.338 . S
C407 H411 0.931 . S
C408 N405 1.313 . S
C408 N409 1.344 . S
C408 H412 0.930 . S
N409 C406 1.377 . S
N409 C408 1.344 . S
O410 Co402 2.055 . S
O410 C414 1.253 . S
H411 C407 0.931 . S
H412 C408 0.930 . S
O413 Co402 2.039 . S
O413 C403 1.265 . S
C414 O410 1.253 . S
C414 O415 1.227 . S
O415 C414 1.227 . S
N416 Co402 2.140 . S
N416 C419 1.346 . S
N416 C420 1.345 . S
C417 C418 1.387 . S
C417 C421 1.391 . S
C418 C417 1.387 . S
C418 C419 1.369 . S
C418 H427 0.929 . S
C419 N416 1.346 . S
C419 C418 1.369 . S
C419 H422 0.928 . S
C420 N416 1.345 . S
C420 C421 1.371 . S
C420 H423 0.931 . S
C421 C417 1.391 . S
C421 C420 1.371 . S
C421 H428 0.930 . S
H422 C419 0.928 . S
H423 C420 0.931 . S
H424 C400 0.930 . S
H425 C397 0.930 . S
H426 C406 0.930 . S
H427 C418 0.929 . S
H428 C421 0.930 . S
C429 C430 1.351 . S
C429 N432 1.368 . S
C429 H434 0.931 . S
C430 C429 1.351 . S
C430 N431 1.373 . S
C430 H458 0.930 . S
N431 C430 1.373 . S
N431 C433 1.340 . S
N432 C429 1.368 . S
N432 C433 1.321 . S
N432 Co435 2.135 . S
C433 N431 1.340 . S
C433 N432 1.321 . S
C433 H457 0.930 . S
H434 C429 0.931 . S
Co435 N432 2.135 . S
Co435 N438 2.121 . S
Co435 O443 2.055 . S
Co435 O446 2.039 . S
Co435 N449 2.140 . S
C436 O437 1.227 . S
C436 O446 1.265 . S
O437 C436 1.227 . S
N438 Co435 2.121 . S
N438 C440 1.375 . S
N438 C441 1.313 . S
C439 C440 1.338 . S
C439 N442 1.377 . S
C439 H459 0.930 . S
C440 N438 1.375 . S
C440 C439 1.338 . S
C440 H444 0.931 . S
C441 N438 1.313 . S
C441 N442 1.344 . S
C441 H445 0.930 . S
N442 C439 1.377 . S
N442 C441 1.344 . S
O443 Co435 2.055 . S
O443 C447 1.253 . S
H444 C440 0.931 . S
H445 C441 0.930 . S
O446 Co435 2.039 . S
O446 C436 1.265 . S
C447 O443 1.253 . S
C447 O448 1.227 . S
O448 C447 1.227 . S
N449 Co435 2.140 . S
N449 C452 1.346 . S
N449 C453 1.345 . S
C450 C451 1.387 . S
C450 C454 1.391 . S
C451 C450 1.387 . S
C451 C452 1.369 . S
C451 H460 0.929 . S
C452 N449 1.346 . S
C452 C451 1.369 . S
C452 H455 0.928 . S
C453 N449 1.345 . S
C453 C454 1.371 . S
C453 H456 0.931 . S
C454 C450 1.391 . S
C454 C453 1.371 . S
C454 H461 0.930 . S
H455 C452 0.928 . S
H456 C453 0.931 . S
H457 C433 0.930 . S
H458 C430 0.930 . S
H459 C439 0.930 . S
H460 C451 0.929 . S
H461 C454 0.930 . S
C462 C463 1.351 . S
C462 N465 1.368 . S
C462 H467 0.931 . S
C463 C462 1.351 . S
C463 N464 1.373 . S
C463 H491 0.930 . S
N464 C463 1.373 . S
N464 C466 1.340 . S
N465 C462 1.368 . S
N465 C466 1.321 . S
N465 Co468 2.135 . S
C466 N464 1.340 . S
C466 N465 1.321 . S
C466 H490 0.930 . S
H467 C462 0.931 . S
Co468 N465 2.135 . S
Co468 N471 2.121 . S
Co468 O476 2.055 . S
Co468 O479 2.039 . S
Co468 N482 2.140 . S
C469 O470 1.227 . S
C469 O479 1.265 . S
O470 C469 1.227 . S
N471 Co468 2.121 . S
N471 C473 1.375 . S
N471 C474 1.313 . S
C472 C473 1.338 . S
C472 N475 1.377 . S
C472 H492 0.930 . S
C473 N471 1.375 . S
C473 C472 1.338 . S
C473 H477 0.931 . S
C474 N471 1.313 . S
C474 N475 1.344 . S
C474 H478 0.930 . S
N475 C472 1.377 . S
N475 C474 1.344 . S
O476 Co468 2.055 . S
O476 C480 1.253 . S
H477 C473 0.931 . S
H478 C474 0.930 . S
O479 Co468 2.039 . S
O479 C469 1.265 . S
C480 O476 1.253 . S
C480 O481 1.227 . S
O481 C480 1.227 . S
N482 Co468 2.140 . S
N482 C485 1.346 . S
N482 C486 1.345 . S
C483 C484 1.387 . S
C483 C487 1.391 . S
C484 C483 1.387 . S
C484 C485 1.369 . S
C484 H493 0.929 . S
C485 N482 1.346 . S
C485 C484 1.369 . S
C485 H488 0.928 . S
C486 N482 1.345 . S
C486 C487 1.371 . S
C486 H489 0.931 . S
C487 C483 1.391 . S
C487 C486 1.371 . S
C487 H494 0.930 . S
H488 C485 0.928 . S
H489 C486 0.931 . S
H490 C466 0.930 . S
H491 C463 0.930 . S
H492 C472 0.930 . S
H493 C484 0.929 . S
H494 C487 0.930 . S
C495 C496 1.351 . S
C495 N498 1.368 . S
C495 H500 0.931 . S
C496 C495 1.351 . S
C496 N497 1.373 . S
C496 H524 0.930 . S
N497 C496 1.373 . S
N497 C499 1.340 . S
N498 C495 1.368 . S
N498 C499 1.321 . S
N498 Co501 2.135 . S
C499 N497 1.340 . S
C499 N498 1.321 . S
C499 H523 0.930 . S
H500 C495 0.931 . S
Co501 N498 2.135 . S
Co501 N504 2.121 1_554 S
Co501 O509 2.055 . S
Co501 O512 2.039 . S
Co501 N515 2.140 . S
C502 O503 1.227 . S
C502 O512 1.265 . S
O503 C502 1.227 . S
N504 Co501 2.121 1_556 S
N504 C506 1.375 . S
N504 C507 1.313 . S
C505 C506 1.338 . S
C505 N508 1.377 . S
C505 H525 0.930 . S
C506 N504 1.375 . S
C506 C505 1.338 . S
C506 H510 0.931 . S
C507 N504 1.313 . S
C507 N508 1.344 . S
C507 H511 0.930 . S
N508 C505 1.377 . S
N508 C507 1.344 . S
O509 Co501 2.055 . S
O509 C513 1.253 . S
H510 C506 0.931 . S
H511 C507 0.930 . S
O512 Co501 2.039 . S
O512 C502 1.265 . S
C513 O509 1.253 . S
C513 O514 1.227 . S
O514 C513 1.227 . S
N515 Co501 2.140 . S
N515 C518 1.346 . S
N515 C519 1.345 . S
C516 C517 1.387 . S
C516 C520 1.391 . S
C517 C516 1.387 . S
C517 C518 1.369 . S
C517 H526 0.929 . S
C518 N515 1.346 . S
C518 C517 1.369 . S
C518 H521 0.928 . S
C519 N515 1.345 . S
C519 C520 1.371 . S
C519 H522 0.931 . S
C520 C516 1.391 . S
C520 C519 1.371 . S
C520 H527 0.930 . S
H521 C518 0.928 . S
H522 C519 0.931 . S
H523 C499 0.930 . S
H524 C496 0.930 . S
H525 C505 0.930 . S
H526 C517 0.929 . S
H527 C520 0.930 . S
C528 C529 1.351 . S
C528 N531 1.368 . S
C528 H533 0.931 . S
C529 C528 1.351 . S
C529 N530 1.373 . S
C529 H557 0.930 . S
N530 C529 1.373 . S
N530 C532 1.340 . S
N531 C528 1.368 . S
N531 C532 1.321 . S
N531 Co534 2.135 . S
C532 N530 1.340 . S
C532 N531 1.321 . S
C532 H556 0.930 . S
H533 C528 0.931 . S
Co534 N531 2.135 . S
Co534 N537 2.121 . S
Co534 O542 2.055 . S
Co534 O545 2.039 . S
Co534 N548 2.140 . S
C535 O536 1.227 . S
C535 O545 1.265 . S
O536 C535 1.227 . S
N537 Co534 2.121 . S
N537 C539 1.375 . S
N537 C540 1.313 . S
C538 C539 1.338 . S
C538 N541 1.377 . S
C538 H558 0.930 . S
C539 N537 1.375 . S
C539 C538 1.338 . S
C539 H543 0.931 . S
C540 N537 1.313 . S
C540 N541 1.344 . S
C540 H544 0.930 . S
N541 C538 1.377 . S
N541 C540 1.344 . S
O542 Co534 2.055 . S
O542 C546 1.253 . S
H543 C539 0.931 . S
H544 C540 0.930 . S
O545 Co534 2.039 . S
O545 C535 1.265 . S
C546 O542 1.253 . S
C546 O547 1.227 . S
O547 C546 1.227 . S
N548 Co534 2.140 . S
N548 C551 1.346 . S
N548 C552 1.345 . S
C549 C550 1.387 . S
C549 C553 1.391 . S
C550 C549 1.387 . S
C550 C551 1.369 . S
C550 H559 0.929 . S
C551 N548 1.346 . S
C551 C550 1.369 . S
C551 H554 0.928 . S
C552 N548 1.345 . S
C552 C553 1.371 . S
C552 H555 0.931 . S
C553 C549 1.391 . S
C553 C552 1.371 . S
C553 H560 0.930 . S
H554 C551 0.928 . S
H555 C552 0.931 . S
H556 C532 0.930 . S
H557 C529 0.930 . S
H558 C538 0.930 . S
H559 C550 0.929 . S
H560 C553 0.930 . S
C561 C562 1.351 . S
C561 N564 1.368 . S
C561 H566 0.931 . S
C562 C561 1.351 . S
C562 N563 1.373 . S
C562 H590 0.930 . S
N563 C562 1.373 . S
N563 C565 1.340 . S
N564 C561 1.368 . S
N564 C565 1.321 . S
N564 Co567 2.135 . S
C565 N563 1.340 . S
C565 N564 1.321 . S
C565 H589 0.930 . S
H566 C561 0.931 . S
Co567 N564 2.135 . S
Co567 N570 2.121 1_554 S
Co567 O575 2.055 . S
Co567 O578 2.039 . S
Co567 N581 2.140 . S
C568 O569 1.227 . S
C568 O578 1.265 . S
O569 C568 1.227 . S
N570 Co567 2.121 1_556 S
N570 C572 1.375 . S
N570 C573 1.313 . S
C571 C572 1.338 . S
C571 N574 1.377 . S
C571 H591 0.930 . S
C572 N570 1.375 . S
C572 C571 1.338 . S
C572 H576 0.931 . S
C573 N570 1.313 . S
C573 N574 1.344 . S
C573 H577 0.930 . S
N574 C571 1.377 . S
N574 C573 1.344 . S
O575 Co567 2.055 . S
O575 C579 1.253 . S
H576 C572 0.931 . S
H577 C573 0.930 . S
O578 Co567 2.039 . S
O578 C568 1.265 . S
C579 O575 1.253 . S
C579 O580 1.227 . S
O580 C579 1.227 . S
N581 Co567 2.140 . S
N581 C584 1.346 . S
N581 C585 1.345 . S
C582 C583 1.387 . S
C582 C586 1.391 . S
C583 C582 1.387 . S
C583 C584 1.369 . S
C583 H592 0.929 . S
C584 N581 1.346 . S
C584 C583 1.369 . S
C584 H587 0.928 . S
C585 N581 1.345 . S
C585 C586 1.371 . S
C585 H588 0.931 . S
C586 C582 1.391 . S
C586 C585 1.371 . S
C586 H593 0.930 . S
H587 C584 0.928 . S
H588 C585 0.931 . S
H589 C565 0.930 . S
H590 C562 0.930 . S
H591 C571 0.930 . S
H592 C583 0.929 . S
H593 C586 0.930 . S
C594 C595 1.351 . S
C594 N597 1.368 . S
C594 H599 0.931 . S
C595 C594 1.351 . S
C595 N596 1.373 . S
C595 H623 0.930 . S
N596 C595 1.373 . S
N596 C598 1.340 . S
N597 C594 1.368 . S
N597 C598 1.321 . S
N597 Co600 2.135 . S
C598 N596 1.340 . S
C598 N597 1.321 . S
C598 H622 0.930 . S
H599 C594 0.931 . S
Co600 N597 2.135 . S
Co600 N603 2.121 . S
Co600 O608 2.055 . S
Co600 O611 2.039 . S
Co600 N614 2.140 . S
C601 O602 1.227 . S
C601 O611 1.265 . S
O602 C601 1.227 . S
N603 Co600 2.121 . S
N603 C605 1.375 . S
N603 C606 1.313 . S
C604 C605 1.338 . S
C604 N607 1.377 . S
C604 H624 0.930 . S
C605 N603 1.375 . S
C605 C604 1.338 . S
C605 H609 0.931 . S
C606 N603 1.313 . S
C606 N607 1.344 . S
C606 H610 0.930 . S
N607 C604 1.377 . S
N607 C606 1.344 . S
O608 Co600 2.055 . S
O608 C612 1.253 . S
H609 C605 0.931 . S
H610 C606 0.930 . S
O611 Co600 2.039 . S
O611 C601 1.265 . S
C612 O608 1.253 . S
C612 O613 1.227 . S
O613 C612 1.227 . S
N614 Co600 2.140 . S
N614 C617 1.346 . S
N614 C618 1.345 . S
C615 C616 1.387 . S
C615 C619 1.391 . S
C616 C615 1.387 . S
C616 C617 1.369 . S
C616 H625 0.929 . S
C617 N614 1.346 . S
C617 C616 1.369 . S
C617 H620 0.928 . S
C618 N614 1.345 . S
C618 C619 1.371 . S
C618 H621 0.931 . S
C619 C615 1.391 . S
C619 C618 1.371 . S
C619 H626 0.930 . S
H620 C617 0.928 . S
H621 C618 0.931 . S
H622 C598 0.930 . S
H623 C595 0.930 . S
H624 C604 0.930 . S
H625 C616 0.929 . S
H626 C619 0.930 . S
C627 C628 1.351 . S
C627 N630 1.368 . S
C627 H632 0.931 . S
C628 C627 1.351 . S
C628 N629 1.373 . S
C628 H656 0.930 . S
N629 C628 1.373 . S
N629 C631 1.340 . S
N630 C627 1.368 . S
N630 C631 1.321 . S
N630 Co633 2.135 . S
C631 N629 1.340 . S
C631 N630 1.321 . S
C631 H655 0.930 . S
H632 C627 0.931 . S
Co633 N630 2.135 . S
Co633 N636 2.121 . S
Co633 O641 2.055 . S
Co633 O644 2.039 . S
Co633 N647 2.140 . S
C634 O635 1.227 . S
C634 O644 1.265 . S
O635 C634 1.227 . S
N636 Co633 2.121 . S
N636 C638 1.375 . S
N636 C639 1.313 . S
C637 C638 1.338 . S
C637 N640 1.377 . S
C637 H657 0.930 . S
C638 N636 1.375 . S
C638 C637 1.338 . S
C638 H642 0.931 . S
C639 N636 1.313 . S
C639 N640 1.344 . S
C639 H643 0.930 . S
N640 C637 1.377 . S
N640 C639 1.344 . S
O641 Co633 2.055 . S
O641 C645 1.253 . S
H642 C638 0.931 . S
H643 C639 0.930 . S
O644 Co633 2.039 . S
O644 C634 1.265 . S
C645 O641 1.253 . S
C645 O646 1.227 . S
O646 C645 1.227 . S
N647 Co633 2.140 . S
N647 C650 1.346 . S
N647 C651 1.345 . S
C648 C649 1.387 . S
C648 C652 1.391 . S
C649 C648 1.387 . S
C649 C650 1.369 . S
C649 H658 0.929 . S
C650 N647 1.346 . S
C650 C649 1.369 . S
C650 H653 0.928 . S
C651 N647 1.345 . S
C651 C652 1.371 . S
C651 H654 0.931 . S
C652 C648 1.391 . S
C652 C651 1.371 . S
C652 H659 0.930 . S
H653 C650 0.928 . S
H654 C651 0.931 . S
H655 C631 0.930 . S
H656 C628 0.930 . S
H657 C637 0.930 . S
H658 C649 0.929 . S
H659 C652 0.930 . S
C660 C661 1.351 . S
C660 N663 1.368 . S
C660 H665 0.931 . S
C661 C660 1.351 . S
C661 N662 1.373 . S
C661 H689 0.930 . S
N662 C661 1.373 . S
N662 C664 1.340 . S
N663 C660 1.368 . S
N663 C664 1.321 . S
N663 Co666 2.135 . S
C664 N662 1.340 . S
C664 N663 1.321 . S
C664 H688 0.930 . S
H665 C660 0.931 . S
Co666 N663 2.135 . S
Co666 N669 2.121 . S
Co666 O674 2.055 . S
Co666 O677 2.039 . S
Co666 N680 2.140 . S
C667 O668 1.227 . S
C667 O677 1.265 . S
O668 C667 1.227 . S
N669 Co666 2.121 . S
N669 C671 1.375 . S
N669 C672 1.313 . S
C670 C671 1.338 . S
C670 N673 1.377 . S
C670 H690 0.930 . S
C671 N669 1.375 . S
C671 C670 1.338 . S
C671 H675 0.931 . S
C672 N669 1.313 . S
C672 N673 1.344 . S
C672 H676 0.930 . S
N673 C670 1.377 . S
N673 C672 1.344 . S
O674 Co666 2.055 . S
O674 C678 1.253 . S
H675 C671 0.931 . S
H676 C672 0.930 . S
O677 Co666 2.039 . S
O677 C667 1.265 . S
C678 O674 1.253 . S
C678 O679 1.227 . S
O679 C678 1.227 . S
N680 Co666 2.140 . S
N680 C683 1.346 . S
N680 C684 1.345 . S
C681 C682 1.387 . S
C681 C685 1.391 . S
C682 C681 1.387 . S
C682 C683 1.369 . S
C682 H691 0.929 . S
C683 N680 1.346 . S
C683 C682 1.369 . S
C683 H686 0.928 . S
C684 N680 1.345 . S
C684 C685 1.371 . S
C684 H687 0.931 . S
C685 C681 1.391 . S
C685 C684 1.371 . S
C685 H692 0.930 . S
H686 C683 0.928 . S
H687 C684 0.931 . S
H688 C664 0.930 . S
H689 C661 0.930 . S
H690 C670 0.930 . S
H691 C682 0.929 . S
H692 C685 0.930 . S
C693 C694 1.351 . S
C693 N696 1.368 . S
C693 H698 0.931 . S
C694 C693 1.351 . S
C694 N695 1.373 . S
C694 H722 0.930 . S
N695 C694 1.373 . S
N695 C697 1.340 . S
N696 C693 1.368 . S
N696 C697 1.321 . S
N696 Co699 2.135 . S
C697 N695 1.340 . S
C697 N696 1.321 . S
C697 H721 0.930 . S
H698 C693 0.931 . S
Co699 N696 2.135 . S
Co699 N702 2.121 1_556 S
Co699 O707 2.055 . S
Co699 O710 2.039 . S
Co699 N713 2.140 . S
C700 O701 1.227 . S
C700 O710 1.265 . S
O701 C700 1.227 . S
N702 Co699 2.121 1_554 S
N702 C704 1.375 . S
N702 C705 1.313 . S
C703 C704 1.338 . S
C703 N706 1.377 . S
C703 H723 0.930 . S
C704 N702 1.375 . S
C704 C703 1.338 . S
C704 H708 0.931 . S
C705 N702 1.313 . S
C705 N706 1.344 . S
C705 H709 0.930 . S
N706 C703 1.377 . S
N706 C705 1.344 . S
O707 Co699 2.055 . S
O707 C711 1.253 . S
H708 C704 0.931 . S
H709 C705 0.930 . S
O710 Co699 2.039 . S
O710 C700 1.265 . S
C711 O707 1.253 . S
C711 O712 1.227 . S
O712 C711 1.227 . S
N713 Co699 2.140 . S
N713 C716 1.346 . S
N713 C717 1.345 . S
C714 C715 1.387 . S
C714 C718 1.391 . S
C715 C714 1.387 . S
C715 C716 1.369 . S
C715 H724 0.929 . S
C716 N713 1.346 . S
C716 C715 1.369 . S
C716 H719 0.928 . S
C717 N713 1.345 . S
C717 C718 1.371 . S
C717 H720 0.931 . S
C718 C714 1.391 . S
C718 C717 1.371 . S
C718 H725 0.930 . S
H719 C716 0.928 . S
H720 C717 0.931 . S
H721 C697 0.930 . S
H722 C694 0.930 . S
H723 C703 0.930 . S
H724 C715 0.929 . S
H725 C718 0.930 . S
C726 C727 1.351 . S
C726 N729 1.368 . S
C726 H731 0.931 . S
C727 C726 1.351 . S
C727 N728 1.373 . S
C727 H755 0.930 . S
N728 C727 1.373 . S
N728 C730 1.340 . S
N729 C726 1.368 . S
N729 C730 1.321 . S
N729 Co732 2.135 . S
C730 N728 1.340 . S
C730 N729 1.321 . S
C730 H754 0.930 . S
H731 C726 0.931 . S
Co732 N729 2.135 . S
Co732 N735 2.121 . S
Co732 O740 2.055 . S
Co732 O743 2.039 . S
Co732 N746 2.140 . S
C733 O734 1.227 . S
C733 O743 1.265 . S
O734 C733 1.227 . S
N735 Co732 2.121 . S
N735 C737 1.375 . S
N735 C738 1.313 . S
C736 C737 1.338 . S
C736 N739 1.377 . S
C736 H756 0.930 . S
C737 N735 1.375 . S
C737 C736 1.338 . S
C737 H741 0.931 . S
C738 N735 1.313 . S
C738 N739 1.344 . S
C738 H742 0.930 . S
N739 C736 1.377 . S
N739 C738 1.344 . S
O740 Co732 2.055 . S
O740 C744 1.253 . S
H741 C737 0.931 . S
H742 C738 0.930 . S
O743 Co732 2.039 . S
O743 C733 1.265 . S
C744 O740 1.253 . S
C744 O745 1.227 . S
O745 C744 1.227 . S
N746 Co732 2.140 . S
N746 C749 1.346 . S
N746 C750 1.345 . S
C747 C748 1.387 . S
C747 C751 1.391 . S
C748 C747 1.387 . S
C748 C749 1.369 . S
C748 H757 0.929 . S
C749 N746 1.346 . S
C749 C748 1.369 . S
C749 H752 0.928 . S
C750 N746 1.345 . S
C750 C751 1.371 . S
C750 H753 0.931 . S
C751 C747 1.391 . S
C751 C750 1.371 . S
C751 H758 0.930 . S
H752 C749 0.928 . S
H753 C750 0.931 . S
H754 C730 0.930 . S
H755 C727 0.930 . S
H756 C736 0.930 . S
H757 C748 0.929 . S
H758 C751 0.930 . S
C759 C760 1.351 . S
C759 N762 1.368 . S
C759 H764 0.931 . S
C760 C759 1.351 . S
C760 N761 1.373 . S
C760 H788 0.930 . S
N761 C760 1.373 . S
N761 C763 1.340 . S
N762 C759 1.368 . S
N762 C763 1.321 . S
N762 Co765 2.135 . S
C763 N761 1.340 . S
C763 N762 1.321 . S
C763 H787 0.930 . S
H764 C759 0.931 . S
Co765 N762 2.135 . S
Co765 N768 2.121 . S
Co765 O773 2.055 . S
Co765 O776 2.039 . S
Co765 N779 2.140 . S
C766 O767 1.227 . S
C766 O776 1.265 . S
O767 C766 1.227 . S
N768 Co765 2.121 . S
N768 C770 1.375 . S
N768 C771 1.313 . S
C769 C770 1.338 . S
C769 N772 1.377 . S
C769 H789 0.930 . S
C770 N768 1.375 . S
C770 C769 1.338 . S
C770 H774 0.931 . S
C771 N768 1.313 . S
C771 N772 1.344 . S
C771 H775 0.930 . S
N772 C769 1.377 . S
N772 C771 1.344 . S
O773 Co765 2.055 . S
O773 C777 1.253 . S
H774 C770 0.931 . S
H775 C771 0.930 . S
O776 Co765 2.039 . S
O776 C766 1.265 . S
C777 O773 1.253 . S
C777 O778 1.227 . S
O778 C777 1.227 . S
N779 Co765 2.140 . S
N779 C782 1.346 . S
N779 C783 1.345 . S
C780 C781 1.387 . S
C780 C784 1.391 . S
C781 C780 1.387 . S
C781 C782 1.369 . S
C781 H790 0.929 . S
C782 N779 1.346 . S
C782 C781 1.369 . S
C782 H785 0.928 . S
C783 N779 1.345 . S
C783 C784 1.371 . S
C783 H786 0.931 . S
C784 C780 1.391 . S
C784 C783 1.371 . S
C784 H791 0.930 . S
H785 C782 0.928 . S
H786 C783 0.931 . S
H787 C763 0.930 . S
H788 C760 0.930 . S
H789 C769 0.930 . S
H790 C781 0.929 . S
H791 C784 0.930 . S
C792 C793 1.351 . S
C792 N795 1.368 . S
C792 H797 0.931 . S
C793 C792 1.351 . S
C793 N794 1.373 . S
C793 H821 0.930 . S
N794 C793 1.373 . S
N794 C796 1.340 . S
N795 C792 1.368 . S
N795 C796 1.321 . S
N795 Co798 2.135 . S
C796 N794 1.340 . S
C796 N795 1.321 . S
C796 H820 0.930 . S
H797 C792 0.931 . S
Co798 N795 2.135 . S
Co798 N801 2.121 . S
Co798 O806 2.055 . S
Co798 O809 2.039 . S
Co798 N812 2.140 . S
C799 O800 1.227 . S
C799 O809 1.265 . S
O800 C799 1.227 . S
N801 Co798 2.121 . S
N801 C803 1.375 . S
N801 C804 1.313 . S
C802 C803 1.338 . S
C802 N805 1.377 . S
C802 H822 0.930 . S
C803 N801 1.375 . S
C803 C802 1.338 . S
C803 H807 0.931 . S
C804 N801 1.313 . S
C804 N805 1.344 . S
C804 H808 0.930 . S
N805 C802 1.377 . S
N805 C804 1.344 . S
O806 Co798 2.055 . S
O806 C810 1.253 . S
H807 C803 0.931 . S
H808 C804 0.930 . S
O809 Co798 2.039 . S
O809 C799 1.265 . S
C810 O806 1.253 . S
C810 O811 1.227 . S
O811 C810 1.227 . S
N812 Co798 2.140 . S
N812 C815 1.346 . S
N812 C816 1.345 . S
C813 C814 1.387 . S
C813 C817 1.391 . S
C814 C813 1.387 . S
C814 C815 1.369 . S
C814 H823 0.929 . S
C815 N812 1.346 . S
C815 C814 1.369 . S
C815 H818 0.928 . S
C816 N812 1.345 . S
C816 C817 1.371 . S
C816 H819 0.931 . S
C817 C813 1.391 . S
C817 C816 1.371 . S
C817 H824 0.930 . S
H818 C815 0.928 . S
H819 C816 0.931 . S
H820 C796 0.930 . S
H821 C793 0.930 . S
H822 C802 0.930 . S
H823 C814 0.929 . S
H824 C817 0.930 . S
C825 C826 1.351 . S
C825 N828 1.368 . S
C825 H830 0.931 . S
C826 C825 1.351 . S
C826 N827 1.373 . S
C826 H854 0.930 . S
N827 C826 1.373 . S
N827 C829 1.340 . S
N828 C825 1.368 . S
N828 C829 1.321 . S
N828 Co831 2.135 . S
C829 N827 1.340 . S
C829 N828 1.321 . S
C829 H853 0.930 . S
H830 C825 0.931 . S
Co831 N828 2.135 . S
Co831 N834 2.121 1_556 S
Co831 O839 2.055 . S
Co831 O842 2.039 . S
Co831 N845 2.140 . S
C832 O833 1.227 . S
C832 O842 1.265 . S
O833 C832 1.227 . S
N834 Co831 2.121 1_554 S
N834 C836 1.375 . S
N834 C837 1.313 . S
C835 C836 1.338 . S
C835 N838 1.377 . S
C835 H855 0.930 . S
C836 N834 1.375 . S
C836 C835 1.338 . S
C836 H840 0.931 . S
C837 N834 1.313 . S
C837 N838 1.344 . S
C837 H841 0.930 . S
N838 C835 1.377 . S
N838 C837 1.344 . S
O839 Co831 2.055 . S
O839 C843 1.253 . S
H840 C836 0.931 . S
H841 C837 0.930 . S
O842 Co831 2.039 . S
O842 C832 1.265 . S
C843 O839 1.253 . S
C843 O844 1.227 . S
O844 C843 1.227 . S
N845 Co831 2.140 . S
N845 C848 1.346 . S
N845 C849 1.345 . S
C846 C847 1.387 . S
C846 C850 1.391 . S
C847 C846 1.387 . S
C847 C848 1.369 . S
C847 H856 0.929 . S
C848 N845 1.346 . S
C848 C847 1.369 . S
C848 H851 0.928 . S
C849 N845 1.345 . S
C849 C850 1.371 . S
C849 H852 0.931 . S
C850 C846 1.391 . S
C850 C849 1.371 . S
C850 H857 0.930 . S
H851 C848 0.928 . S
H852 C849 0.931 . S
H853 C829 0.930 . S
H854 C826 0.930 . S
H855 C835 0.930 . S
H856 C847 0.929 . S
H857 C850 0.930 . S
C858 C859 1.351 . S
C858 N861 1.368 . S
C858 H863 0.931 . S
C859 C858 1.351 . S
C859 N860 1.373 . S
C859 H887 0.930 . S
N860 C859 1.373 . S
N860 C862 1.340 . S
N861 C858 1.368 . S
N861 C862 1.321 . S
N861 Co864 2.135 . S
C862 N860 1.340 . S
C862 N861 1.321 . S
C862 H886 0.930 . S
H863 C858 0.931 . S
Co864 N861 2.135 . S
Co864 N867 2.121 . S
Co864 O872 2.055 . S
Co864 O875 2.039 . S
Co864 N878 2.140 . S
C865 O866 1.227 . S
C865 O875 1.265 . S
O866 C865 1.227 . S
N867 Co864 2.121 . S
N867 C869 1.375 . S
N867 C870 1.313 . S
C868 C869 1.338 . S
C868 N871 1.377 . S
C868 H888 0.930 . S
C869 N867 1.375 . S
C869 C868 1.338 . S
C869 H873 0.931 . S
C870 N867 1.313 . S
C870 N871 1.344 . S
C870 H874 0.930 . S
N871 C868 1.377 . S
N871 C870 1.344 . S
O872 Co864 2.055 . S
O872 C876 1.253 . S
H873 C869 0.931 . S
H874 C870 0.930 . S
O875 Co864 2.039 . S
O875 C865 1.265 . S
C876 O872 1.253 . S
C876 O877 1.227 . S
O877 C876 1.227 . S
N878 Co864 2.140 . S
N878 C881 1.346 . S
N878 C882 1.345 . S
C879 C880 1.387 . S
C879 C883 1.391 . S
C880 C879 1.387 . S
C880 C881 1.369 . S
C880 H889 0.929 . S
C881 N878 1.346 . S
C881 C880 1.369 . S
C881 H884 0.928 . S
C882 N878 1.345 . S
C882 C883 1.371 . S
C882 H885 0.931 . S
C883 C879 1.391 . S
C883 C882 1.371 . S
C883 H890 0.930 . S
H884 C881 0.928 . S
H885 C882 0.931 . S
H886 C862 0.930 . S
H887 C859 0.930 . S
H888 C868 0.930 . S
H889 C880 0.929 . S
H890 C883 0.930 . S
C891 C892 1.351 . S
C891 N894 1.368 . S
C891 H896 0.931 . S
C892 C891 1.351 . S
C892 N893 1.373 . S
C892 H920 0.930 . S
N893 C892 1.373 . S
N893 C895 1.340 . S
N894 C891 1.368 . S
N894 C895 1.321 . S
N894 Co897 2.135 . S
C895 N893 1.340 . S
C895 N894 1.321 . S
C895 H919 0.930 . S
H896 C891 0.931 . S
Co897 N894 2.135 . S
Co897 N900 2.121 . S
Co897 O905 2.055 . S
Co897 O908 2.039 . S
Co897 N911 2.140 . S
C898 O899 1.227 . S
C898 O908 1.265 . S
O899 C898 1.227 . S
N900 Co897 2.121 . S
N900 C902 1.375 . S
N900 C903 1.313 . S
C901 C902 1.338 . S
C901 N904 1.377 . S
C901 H921 0.930 . S
C902 N900 1.375 . S
C902 C901 1.338 . S
C902 H906 0.931 . S
C903 N900 1.313 . S
C903 N904 1.344 . S
C903 H907 0.930 . S
N904 C901 1.377 . S
N904 C903 1.344 . S
O905 Co897 2.055 . S
O905 C909 1.253 . S
H906 C902 0.931 . S
H907 C903 0.930 . S
O908 Co897 2.039 . S
O908 C898 1.265 . S
C909 O905 1.253 . S
C909 O910 1.227 . S
O910 C909 1.227 . S
N911 Co897 2.140 . S
N911 C914 1.346 . S
N911 C915 1.345 . S
C912 C913 1.387 . S
C912 C916 1.391 . S
C913 C912 1.387 . S
C913 C914 1.369 . S
C913 H922 0.929 . S
C914 N911 1.346 . S
C914 C913 1.369 . S
C914 H917 0.928 . S
C915 N911 1.345 . S
C915 C916 1.371 . S
C915 H918 0.931 . S
C916 C912 1.391 . S
C916 C915 1.371 . S
C916 H923 0.930 . S
H917 C914 0.928 . S
H918 C915 0.931 . S
H919 C895 0.930 . S
H920 C892 0.930 . S
H921 C901 0.930 . S
H922 C913 0.929 . S
H923 C916 0.930 . S
C924 C925 1.351 . S
C924 N927 1.368 . S
C924 H929 0.931 . S
C925 C924 1.351 . S
C925 N926 1.373 . S
C925 H953 0.930 . S
N926 C925 1.373 . S
N926 C928 1.340 . S
N927 C924 1.368 . S
N927 C928 1.321 . S
N927 Co930 2.135 . S
C928 N926 1.340 . S
C928 N927 1.321 . S
C928 H952 0.930 . S
H929 C924 0.931 . S
Co930 N927 2.135 . S
Co930 N933 2.121 . S
Co930 O938 2.055 . S
Co930 O941 2.039 . S
Co930 N944 2.140 . S
C931 O932 1.227 . S
C931 O941 1.265 . S
O932 C931 1.227 . S
N933 Co930 2.121 . S
N933 C935 1.375 . S
N933 C936 1.313 . S
C934 C935 1.338 . S
C934 N937 1.377 . S
C934 H954 0.930 . S
C935 N933 1.375 . S
C935 C934 1.338 . S
C935 H939 0.931 . S
C936 N933 1.313 . S
C936 N937 1.344 . S
C936 H940 0.930 . S
N937 C934 1.377 . S
N937 C936 1.344 . S
O938 Co930 2.055 . S
O938 C942 1.253 . S
H939 C935 0.931 . S
H940 C936 0.930 . S
O941 Co930 2.039 . S
O941 C931 1.265 . S
C942 O938 1.253 . S
C942 O943 1.227 . S
O943 C942 1.227 . S
N944 Co930 2.140 . S
N944 C947 1.346 . S
N944 C948 1.345 . S
C945 C946 1.387 . S
C945 C949 1.391 . S
C946 C945 1.387 . S
C946 C947 1.369 . S
C946 H955 0.929 . S
C947 N944 1.346 . S
C947 C946 1.369 . S
C947 H950 0.928 . S
C948 N944 1.345 . S
C948 C949 1.371 . S
C948 H951 0.931 . S
C949 C945 1.391 . S
C949 C948 1.371 . S
C949 H956 0.930 . S
H950 C947 0.928 . S
H951 C948 0.931 . S
H952 C928 0.930 . S
H953 C925 0.930 . S
H954 C934 0.930 . S
H955 C946 0.929 . S
H956 C949 0.930 . S
C957 C958 1.351 . S
C957 N960 1.368 . S
C957 H962 0.931 . S
C958 C957 1.351 . S
C958 N959 1.373 . S
C958 H986 0.930 . S
N959 C958 1.373 . S
N959 C961 1.340 . S
N960 C957 1.368 . S
N960 C961 1.321 . S
N960 Co963 2.135 . S
C961 N959 1.340 . S
C961 N960 1.321 . S
C961 H985 0.930 . S
H962 C957 0.931 . S
Co963 N960 2.135 . S
Co963 N966 2.121 1_554 S
Co963 O971 2.055 . S
Co963 O974 2.039 . S
Co963 N977 2.140 . S
C964 O965 1.227 . S
C964 O974 1.265 . S
O965 C964 1.227 . S
N966 Co963 2.121 1_556 S
N966 C968 1.375 . S
N966 C969 1.313 . S
C967 C968 1.338 . S
C967 N970 1.377 . S
C967 H987 0.930 . S
C968 N966 1.375 . S
C968 C967 1.338 . S
C968 H972 0.931 . S
C969 N966 1.313 . S
C969 N970 1.344 . S
C969 H973 0.930 . S
N970 C967 1.377 . S
N970 C969 1.344 . S
O971 Co963 2.055 . S
O971 C975 1.253 . S
H972 C968 0.931 . S
H973 C969 0.930 . S
O974 Co963 2.039 . S
O974 C964 1.265 . S
C975 O971 1.253 . S
C975 O976 1.227 . S
O976 C975 1.227 . S
N977 Co963 2.140 . S
N977 C980 1.346 . S
N977 C981 1.345 . S
C978 C979 1.387 . S
C978 C982 1.391 . S
C979 C978 1.387 . S
C979 C980 1.369 . S
C979 H988 0.929 . S
C980 N977 1.346 . S
C980 C979 1.369 . S
C980 H983 0.928 . S
C981 N977 1.345 . S
C981 C982 1.371 . S
C981 H984 0.931 . S
C982 C978 1.391 . S
C982 C981 1.371 . S
C982 H989 0.930 . S
H983 C980 0.928 . S
H984 C981 0.931 . S
H985 C961 0.930 . S
H986 C958 0.930 . S
H987 C967 0.930 . S
H988 C979 0.929 . S
H989 C982 0.930 . S
C990 C991 1.351 . S
C990 N993 1.368 . S
C990 H995 0.931 . S
C991 C990 1.351 . S
C991 N992 1.373 . S
C991 H1019 0.930 . S
N992 C991 1.373 . S
N992 C994 1.340 . S
N993 C990 1.368 . S
N993 C994 1.321 . S
N993 Co996 2.135 . S
C994 N992 1.340 . S
C994 N993 1.321 . S
C994 H1018 0.930 . S
H995 C990 0.931 . S
Co996 N993 2.135 . S
Co996 N999 2.121 . S
Co996 O1004 2.055 . S
Co996 O1007 2.039 . S
Co996 N1010 2.140 . S
C997 O998 1.227 . S
C997 O1007 1.265 . S
O998 C997 1.227 . S
N999 Co996 2.121 . S
N999 C1001 1.375 . S
N999 C1002 1.313 . S
C1000 C1001 1.338 . S
C1000 N1003 1.377 . S
C1000 H1020 0.930 . S
C1001 N999 1.375 . S
C1001 C1000 1.338 . S
C1001 H1005 0.931 . S
C1002 N999 1.313 . S
C1002 N1003 1.344 . S
C1002 H1006 0.930 . S
N1003 C1000 1.377 . S
N1003 C1002 1.344 . S
O1004 Co996 2.055 . S
O1004 C1008 1.253 . S
H1005 C1001 0.931 . S
H1006 C1002 0.930 . S
O1007 Co996 2.039 . S
O1007 C997 1.265 . S
C1008 O1004 1.253 . S
C1008 O1009 1.227 . S
O1009 C1008 1.227 . S
N1010 Co996 2.140 . S
N1010 C1013 1.346 . S
N1010 C1014 1.345 . S
C1011 C1012 1.387 . S
C1011 C1015 1.391 . S
C1012 C1011 1.387 . S
C1012 C1013 1.369 . S
C1012 H1021 0.929 . S
C1013 N1010 1.346 . S
C1013 C1012 1.369 . S
C1013 H1016 0.928 . S
C1014 N1010 1.345 . S
C1014 C1015 1.371 . S
C1014 H1017 0.931 . S
C1015 C1011 1.391 . S
C1015 C1014 1.371 . S
C1015 H1022 0.930 . S
H1016 C1013 0.928 . S
H1017 C1014 0.931 . S
H1018 C994 0.930 . S
H1019 C991 0.930 . S
H1020 C1000 0.930 . S
H1021 C1012 0.929 . S
H1022 C1015 0.930 . S
C1023 C1024 1.351 . S
C1023 N1026 1.368 . S
C1023 H1028 0.931 . S
C1024 C1023 1.351 . S
C1024 N1025 1.373 . S
C1024 H1052 0.930 . S
N1025 C1024 1.373 . S
N1025 C1027 1.340 . S
N1026 C1023 1.368 . S
N1026 C1027 1.321 . S
N1026 Co1029 2.135 . S
C1027 N1025 1.340 . S
C1027 N1026 1.321 . S
C1027 H1051 0.930 . S
H1028 C1023 0.931 . S
Co1029 N1026 2.135 . S
Co1029 N1032 2.121 . S
Co1029 O1037 2.055 . S
Co1029 O1040 2.039 . S
Co1029 N1043 2.140 . S
C1030 O1031 1.227 . S
C1030 O1040 1.265 . S
O1031 C1030 1.227 . S
N1032 Co1029 2.121 . S
N1032 C1034 1.375 . S
N1032 C1035 1.313 . S
C1033 C1034 1.338 . S
C1033 N1036 1.377 . S
C1033 H1053 0.930 . S
C1034 N1032 1.375 . S
C1034 C1033 1.338 . S
C1034 H1038 0.931 . S
C1035 N1032 1.313 . S
C1035 N1036 1.344 . S
C1035 H1039 0.930 . S
N1036 C1033 1.377 . S
N1036 C1035 1.344 . S
O1037 Co1029 2.055 . S
O1037 C1041 1.253 . S
H1038 C1034 0.931 . S
H1039 C1035 0.930 . S
O1040 Co1029 2.039 . S
O1040 C1030 1.265 . S
C1041 O1037 1.253 . S
C1041 O1042 1.227 . S
O1042 C1041 1.227 . S
N1043 Co1029 2.140 . S
N1043 C1046 1.346 . S
N1043 C1047 1.345 . S
C1044 C1045 1.387 . S
C1044 C1048 1.391 . S
C1045 C1044 1.387 . S
C1045 C1046 1.369 . S
C1045 H1054 0.929 . S
C1046 N1043 1.346 . S
C1046 C1045 1.369 . S
C1046 H1049 0.928 . S
C1047 N1043 1.345 . S
C1047 C1048 1.371 . S
C1047 H1050 0.931 . S
C1048 C1044 1.391 . S
C1048 C1047 1.371 . S
C1048 H1055 0.930 . S
H1049 C1046 0.928 . S
H1050 C1047 0.931 . S
H1051 C1027 0.930 . S
H1052 C1024 0.930 . S
H1053 C1033 0.930 . S
H1054 C1045 0.929 . S
H1055 C1048 0.930 . S
H1056 C1062 0.930 . S
H1057 C1066 0.930 . S
H1058 C1071 0.929 . S
H1059 C1069 0.929 . S
H1060 C1064 0.929 . S
H1061 C1070 0.929 . S
C1062 H1056 0.930 . S
C1062 C1063 1.367 . S
C1062 C1070 1.378 . S
C1063 C1062 1.367 . S
C1063 C1071 1.433 . S
C1064 H1060 0.929 . S
C1064 C1066 1.378 . S
C1064 C1068 1.350 . S
C1065 C1068 1.463 . S
C1065 C1070 1.350 . S
C1065 N1073 1.427 . S
C1066 H1057 0.930 . S
C1066 C1064 1.378 . S
C1066 C1067 1.367 . S
C1067 C1066 1.367 . S
C1067 C1069 1.433 . S
C1068 C1064 1.350 . S
C1068 C1065 1.463 . S
C1068 N1072 1.427 . S
C1069 H1059 0.929 . S
C1069 C1067 1.433 . S
C1069 N1072 1.384 . S
C1070 H1061 0.929 . S
C1070 C1062 1.378 . S
C1070 C1065 1.350 . S
C1071 H1058 0.929 . S
C1071 C1063 1.433 . S
C1071 N1073 1.384 . S
N1072 C1068 1.427 . S
N1072 C1069 1.384 . S
N1073 C1065 1.427 . S
N1073 C1071 1.384 . S
H1074 C1080 0.930 . S
H1075 C1084 0.930 . S
H1076 C1089 0.929 . S
H1077 C1087 0.929 . S
H1078 C1082 0.929 . S
H1079 C1088 0.929 . S
C1080 H1074 0.930 . S
C1080 C1081 1.367 . S
C1080 C1088 1.378 . S
C1081 C1080 1.367 . S
C1081 C1089 1.433 . S
C1082 H1078 0.929 . S
C1082 C1084 1.378 . S
C1082 C1086 1.350 . S
C1083 C1086 1.463 . S
C1083 C1088 1.350 . S
C1083 N1091 1.427 . S
C1084 H1075 0.930 . S
C1084 C1082 1.378 . S
C1084 C1085 1.367 . S
C1085 C1084 1.367 . S
C1085 C1087 1.433 . S
C1086 C1082 1.350 . S
C1086 C1083 1.463 . S
C1086 N1090 1.427 . S
C1087 H1077 0.929 . S
C1087 C1085 1.433 . S
C1087 N1090 1.384 . S
C1088 H1079 0.929 . S
C1088 C1080 1.378 . S
C1088 C1083 1.350 . S
C1089 H1076 0.929 . S
C1089 C1081 1.433 . S
C1089 N1091 1.384 . S
N1090 C1086 1.427 . S
N1090 C1087 1.384 . S
N1091 C1083 1.427 . S
N1091 C1089 1.384 . S
H1092 C1098 0.930 . S
H1093 C1102 0.930 . S
H1094 C1107 0.929 . S
H1095 C1105 0.929 . S
H1096 C1100 0.929 . S
H1097 C1106 0.929 . S
C1098 H1092 0.930 . S
C1098 C1099 1.367 . S
C1098 C1106 1.378 . S
C1099 C1098 1.367 . S
C1099 C1107 1.433 . S
C1100 H1096 0.929 . S
C1100 C1102 1.378 . S
C1100 C1104 1.350 . S
C1101 C1104 1.463 . S
C1101 C1106 1.350 . S
C1101 N1109 1.427 . S
C1102 H1093 0.930 . S
C1102 C1100 1.378 . S
C1102 C1103 1.367 . S
C1103 C1102 1.367 . S
C1103 C1105 1.433 . S
C1104 C1100 1.350 . S
C1104 C1101 1.463 . S
C1104 N1108 1.427 . S
C1105 H1095 0.929 . S
C1105 C1103 1.433 . S
C1105 N1108 1.384 . S
C1106 H1097 0.929 . S
C1106 C1098 1.378 . S
C1106 C1101 1.350 . S
C1107 H1094 0.929 . S
C1107 C1099 1.433 . S
C1107 N1109 1.384 . S
N1108 C1104 1.427 . S
N1108 C1105 1.384 . S
N1109 C1101 1.427 . S
N1109 C1107 1.384 . S
H1110 C1116 0.930 . S
H1111 C1120 0.930 . S
H1112 C1125 0.929 . S
H1113 C1123 0.929 . S
H1114 C1118 0.929 . S
H1115 C1124 0.929 . S
C1116 H1110 0.930 . S
C1116 C1117 1.367 . S
C1116 C1124 1.378 . S
C1117 C1116 1.367 . S
C1117 C1125 1.433 . S
C1118 H1114 0.929 . S
C1118 C1120 1.378 . S
C1118 C1122 1.350 . S
C1119 C1122 1.463 . S
C1119 C1124 1.350 . S
C1119 N1127 1.427 . S
C1120 H1111 0.930 . S
C1120 C1118 1.378 . S
C1120 C1121 1.367 . S
C1121 C1120 1.367 . S
C1121 C1123 1.433 . S
C1122 C1118 1.350 . S
C1122 C1119 1.463 . S
C1122 N1126 1.427 . S
C1123 H1113 0.929 . S
C1123 C1121 1.433 . S
C1123 N1126 1.384 . S
C1124 H1115 0.929 . S
C1124 C1116 1.378 . S
C1124 C1119 1.350 . S
C1125 H1112 0.929 . S
C1125 C1117 1.433 . S
C1125 N1127 1.384 . S
N1126 C1122 1.427 . S
N1126 C1123 1.384 . S
N1127 C1119 1.427 . S
N1127 C1125 1.384 . S
H1128 C1134 0.930 . S
H1129 C1138 0.930 . S
H1130 C1143 0.929 . S
H1131 C1141 0.929 . S
H1132 C1136 0.929 . S
H1133 C1142 0.929 . S
C1134 H1128 0.930 . S
C1134 C1135 1.367 . S
C1134 C1142 1.378 . S
C1135 C1134 1.367 . S
C1135 C1143 1.433 . S
C1136 H1132 0.929 . S
C1136 C1138 1.378 . S
C1136 C1140 1.350 . S
C1137 C1140 1.463 . S
C1137 C1142 1.350 . S
C1137 N1145 1.427 . S
C1138 H1129 0.930 . S
C1138 C1136 1.378 . S
C1138 C1139 1.367 . S
C1139 C1138 1.367 . S
C1139 C1141 1.433 . S
C1140 C1136 1.350 . S
C1140 C1137 1.463 . S
C1140 N1144 1.427 . S
C1141 H1131 0.929 . S
C1141 C1139 1.433 . S
C1141 N1144 1.384 . S
C1142 H1133 0.929 . S
C1142 C1134 1.378 . S
C1142 C1137 1.350 . S
C1143 H1130 0.929 . S
C1143 C1135 1.433 . S
C1143 N1145 1.384 . S
N1144 C1140 1.427 . S
N1144 C1141 1.384 . S
N1145 C1137 1.427 . S
N1145 C1143 1.384 . S
H1146 C1152 0.930 . S
H1147 C1156 0.930 . S
H1148 C1161 0.929 . S
H1149 C1159 0.929 . S
H1150 C1154 0.929 . S
H1151 C1160 0.929 . S
C1152 H1146 0.930 . S
C1152 C1153 1.367 . S
C1152 C1160 1.378 . S
C1153 C1152 1.367 . S
C1153 C1161 1.433 . S
C1154 H1150 0.929 . S
C1154 C1156 1.378 . S
C1154 C1158 1.350 . S
C1155 C1158 1.463 . S
C1155 C1160 1.350 . S
C1155 N1163 1.427 . S
C1156 H1147 0.930 . S
C1156 C1154 1.378 . S
C1156 C1157 1.367 . S
C1157 C1156 1.367 . S
C1157 C1159 1.433 . S
C1158 C1154 1.350 . S
C1158 C1155 1.463 . S
C1158 N1162 1.427 . S
C1159 H1149 0.929 . S
C1159 C1157 1.433 . S
C1159 N1162 1.384 . S
C1160 H1151 0.929 . S
C1160 C1152 1.378 . S
C1160 C1155 1.350 . S
C1161 H1148 0.929 . S
C1161 C1153 1.433 . S
C1161 N1163 1.384 . S
N1162 C1158 1.427 . S
N1162 C1159 1.384 . S
N1163 C1155 1.427 . S
N1163 C1161 1.384 . S
H1164 C1170 0.930 . S
H1165 C1174 0.930 . S
H1166 C1179 0.929 . S
H1167 C1177 0.929 . S
H1168 C1172 0.929 . S
H1169 C1178 0.929 . S
C1170 H1164 0.930 . S
C1170 C1171 1.367 . S
C1170 C1178 1.378 . S
C1171 C1170 1.367 . S
C1171 C1179 1.433 . S
C1172 H1168 0.929 . S
C1172 C1174 1.378 . S
C1172 C1176 1.350 . S
C1173 C1176 1.463 . S
C1173 C1178 1.350 . S
C1173 N1181 1.427 . S
C1174 H1165 0.930 . S
C1174 C1172 1.378 . S
C1174 C1175 1.367 . S
C1175 C1174 1.367 . S
C1175 C1177 1.433 . S
C1176 C1172 1.350 . S
C1176 C1173 1.463 . S
C1176 N1180 1.427 . S
C1177 H1167 0.929 . S
C1177 C1175 1.433 . S
C1177 N1180 1.384 . S
C1178 H1169 0.929 . S
C1178 C1170 1.378 . S
C1178 C1173 1.350 . S
C1179 H1166 0.929 . S
C1179 C1171 1.433 . S
C1179 N1181 1.384 . S
N1180 C1176 1.427 . S
N1180 C1177 1.384 . S
N1181 C1173 1.427 . S
N1181 C1179 1.384 . S
H1182 C1188 0.930 . S
H1183 C1192 0.930 . S
H1184 C1197 0.929 . S
H1185 C1195 0.929 . S
H1186 C1190 0.929 . S
H1187 C1196 0.929 . S
C1188 H1182 0.930 . S
C1188 C1189 1.367 . S
C1188 C1196 1.378 . S
C1189 C1188 1.367 . S
C1189 C1197 1.433 . S
C1190 H1186 0.929 . S
C1190 C1192 1.378 . S
C1190 C1194 1.350 . S
C1191 C1194 1.463 . S
C1191 C1196 1.350 . S
C1191 N1199 1.427 . S
C1192 H1183 0.930 . S
C1192 C1190 1.378 . S
C1192 C1193 1.367 . S
C1193 C1192 1.367 . S
C1193 C1195 1.433 . S
C1194 C1190 1.350 . S
C1194 C1191 1.463 . S
C1194 N1198 1.427 . S
C1195 H1185 0.929 . S
C1195 C1193 1.433 . S
C1195 N1198 1.384 . S
C1196 H1187 0.929 . S
C1196 C1188 1.378 . S
C1196 C1191 1.350 . S
C1197 H1184 0.929 . S
C1197 C1189 1.433 . S
C1197 N1199 1.384 . S
N1198 C1194 1.427 . S
N1198 C1195 1.384 . S
N1199 C1191 1.427 . S
N1199 C1197 1.384 . S
H1200 C1206 0.930 . S
H1201 C1210 0.930 . S
H1202 C1215 0.929 . S
H1203 C1213 0.929 . S
H1204 C1208 0.929 . S
H1205 C1214 0.929 . S
C1206 H1200 0.930 . S
C1206 C1207 1.367 . S
C1206 C1214 1.378 . S
C1207 C1206 1.367 . S
C1207 C1215 1.433 . S
C1208 H1204 0.929 . S
C1208 C1210 1.378 . S
C1208 C1212 1.350 . S
C1209 C1212 1.463 . S
C1209 C1214 1.350 . S
C1209 N1217 1.427 . S
C1210 H1201 0.930 . S
C1210 C1208 1.378 . S
C1210 C1211 1.367 . S
C1211 C1210 1.367 . S
C1211 C1213 1.433 . S
C1212 C1208 1.350 . S
C1212 C1209 1.463 . S
C1212 N1216 1.427 . S
C1213 H1203 0.929 . S
C1213 C1211 1.433 . S
C1213 N1216 1.384 . S
C1214 H1205 0.929 . S
C1214 C1206 1.378 . S
C1214 C1209 1.350 . S
C1215 H1202 0.929 . S
C1215 C1207 1.433 . S
C1215 N1217 1.384 . S
N1216 C1212 1.427 . S
N1216 C1213 1.384 . S
N1217 C1209 1.427 . S
N1217 C1215 1.384 . S
H1218 C1224 0.930 . S
H1219 C1228 0.930 . S
H1220 C1233 0.929 . S
H1221 C1231 0.929 . S
H1222 C1226 0.929 . S
H1223 C1232 0.929 . S
C1224 H1218 0.930 . S
C1224 C1225 1.367 . S
C1224 C1232 1.378 . S
C1225 C1224 1.367 . S
C1225 C1233 1.433 . S
C1226 H1222 0.929 . S
C1226 C1228 1.378 . S
C1226 C1230 1.350 . S
C1227 C1230 1.463 . S
C1227 C1232 1.350 . S
C1227 N1235 1.427 . S
C1228 H1219 0.930 . S
C1228 C1226 1.378 . S
C1228 C1229 1.367 . S
C1229 C1228 1.367 . S
C1229 C1231 1.433 . S
C1230 C1226 1.350 . S
C1230 C1227 1.463 . S
C1230 N1234 1.427 . S
C1231 H1221 0.929 . S
C1231 C1229 1.433 . S
C1231 N1234 1.384 . S
C1232 H1223 0.929 . S
C1232 C1224 1.378 . S
C1232 C1227 1.350 . S
C1233 H1220 0.929 . S
C1233 C1225 1.433 . S
C1233 N1235 1.384 . S
N1234 C1230 1.427 . S
N1234 C1231 1.384 . S
N1235 C1227 1.427 . S
N1235 C1233 1.384 . S
H1236 C1242 0.930 . S
H1237 C1246 0.930 . S
H1238 C1251 0.929 . S
H1239 C1249 0.929 . S
H1240 C1244 0.929 . S
H1241 C1250 0.929 . S
C1242 H1236 0.930 . S
C1242 C1243 1.367 . S
C1242 C1250 1.378 . S
C1243 C1242 1.367 . S
C1243 C1251 1.433 . S
C1244 H1240 0.929 . S
C1244 C1246 1.378 . S
C1244 C1248 1.350 . S
C1245 C1248 1.463 . S
C1245 C1250 1.350 . S
C1245 N1253 1.427 . S
C1246 H1237 0.930 . S
C1246 C1244 1.378 . S
C1246 C1247 1.367 . S
C1247 C1246 1.367 . S
C1247 C1249 1.433 . S
C1248 C1244 1.350 . S
C1248 C1245 1.463 . S
C1248 N1252 1.427 . S
C1249 H1239 0.929 . S
C1249 C1247 1.433 . S
C1249 N1252 1.384 . S
C1250 H1241 0.929 . S
C1250 C1242 1.378 . S
C1250 C1245 1.350 . S
C1251 H1238 0.929 . S
C1251 C1243 1.433 . S
C1251 N1253 1.384 . S
N1252 C1248 1.427 . S
N1252 C1249 1.384 . S
N1253 C1245 1.427 . S
N1253 C1251 1.384 . S
H1254 C1260 0.930 . S
H1255 C1264 0.930 . S
H1256 C1269 0.929 . S
H1257 C1267 0.929 . S
H1258 C1262 0.929 . S
H1259 C1268 0.929 . S
C1260 H1254 0.930 . S
C1260 C1261 1.367 . S
C1260 C1268 1.378 . S
C1261 C1260 1.367 . S
C1261 C1269 1.433 . S
C1262 H1258 0.929 . S
C1262 C1264 1.378 . S
C1262 C1266 1.350 . S
C1263 C1266 1.463 . S
C1263 C1268 1.350 . S
C1263 N1271 1.427 . S
C1264 H1255 0.930 . S
C1264 C1262 1.378 . S
C1264 C1265 1.367 . S
C1265 C1264 1.367 . S
C1265 C1267 1.433 . S
C1266 C1262 1.350 . S
C1266 C1263 1.463 . S
C1266 N1270 1.427 . S
C1267 H1257 0.929 . S
C1267 C1265 1.433 . S
C1267 N1270 1.384 . S
C1268 H1259 0.929 . S
C1268 C1260 1.378 . S
C1268 C1263 1.350 . S
C1269 H1256 0.929 . S
C1269 C1261 1.433 . S
C1269 N1271 1.384 . S
N1270 C1266 1.427 . S
N1270 C1267 1.384 . S
N1271 C1263 1.427 . S
N1271 C1269 1.384 . S
H1272 C1278 0.930 . S
H1273 C1282 0.930 . S
H1274 C1287 0.929 . S
H1275 C1285 0.929 . S
H1276 C1280 0.929 . S
H1277 C1286 0.929 . S
C1278 H1272 0.930 . S
C1278 C1279 1.367 . S
C1278 C1286 1.378 . S
C1279 C1278 1.367 . S
C1279 C1287 1.433 . S
C1280 H1276 0.929 . S
C1280 C1282 1.378 . S
C1280 C1284 1.350 . S
C1281 C1284 1.463 . S
C1281 C1286 1.350 . S
C1281 N1289 1.427 . S
C1282 H1273 0.930 . S
C1282 C1280 1.378 . S
C1282 C1283 1.367 . S
C1283 C1282 1.367 . S
C1283 C1285 1.433 . S
C1284 C1280 1.350 . S
C1284 C1281 1.463 . S
C1284 N1288 1.427 . S
C1285 H1275 0.929 . S
C1285 C1283 1.433 . S
C1285 N1288 1.384 . S
C1286 H1277 0.929 . S
C1286 C1278 1.378 . S
C1286 C1281 1.350 . S
C1287 H1274 0.929 . S
C1287 C1279 1.433 . S
C1287 N1289 1.384 . S
N1288 C1284 1.427 . S
N1288 C1285 1.384 . S
N1289 C1281 1.427 . S
N1289 C1287 1.384 . S
H1290 C1296 0.930 . S
H1291 C1300 0.930 . S
H1292 C1305 0.929 . S
H1293 C1303 0.929 . S
H1294 C1298 0.929 . S
H1295 C1304 0.929 . S
C1296 H1290 0.930 . S
C1296 C1297 1.367 . S
C1296 C1304 1.378 . S
C1297 C1296 1.367 . S
C1297 C1305 1.433 . S
C1298 H1294 0.929 . S
C1298 C1300 1.378 . S
C1298 C1302 1.350 . S
C1299 C1302 1.463 . S
C1299 C1304 1.350 . S
C1299 N1307 1.427 . S
C1300 H1291 0.930 . S
C1300 C1298 1.378 . S
C1300 C1301 1.367 . S
C1301 C1300 1.367 . S
C1301 C1303 1.433 . S
C1302 C1298 1.350 . S
C1302 C1299 1.463 . S
C1302 N1306 1.427 . S
C1303 H1293 0.929 . S
C1303 C1301 1.433 . S
C1303 N1306 1.384 . S
C1304 H1295 0.929 . S
C1304 C1296 1.378 . S
C1304 C1299 1.350 . S
C1305 H1292 0.929 . S
C1305 C1297 1.433 . S
C1305 N1307 1.384 . S
N1306 C1302 1.427 . S
N1306 C1303 1.384 . S
N1307 C1299 1.427 . S
N1307 C1305 1.384 . S
H1308 C1314 0.930 . S
H1309 C1318 0.930 . S
H1310 C1323 0.929 . S
H1311 C1321 0.929 . S
H1312 C1316 0.929 . S
H1313 C1322 0.929 . S
C1314 H1308 0.930 . S
C1314 C1315 1.367 . S
C1314 C1322 1.378 . S
C1315 C1314 1.367 . S
C1315 C1323 1.433 . S
C1316 H1312 0.929 . S
C1316 C1318 1.378 . S
C1316 C1320 1.350 . S
C1317 C1320 1.463 . S
C1317 C1322 1.350 . S
C1317 N1325 1.427 . S
C1318 H1309 0.930 . S
C1318 C1316 1.378 . S
C1318 C1319 1.367 . S
C1319 C1318 1.367 . S
C1319 C1321 1.433 . S
C1320 C1316 1.350 . S
C1320 C1317 1.463 . S
C1320 N1324 1.427 . S
C1321 H1311 0.929 . S
C1321 C1319 1.433 . S
C1321 N1324 1.384 . S
C1322 H1313 0.929 . S
C1322 C1314 1.378 . S
C1322 C1317 1.350 . S
C1323 H1310 0.929 . S
C1323 C1315 1.433 . S
C1323 N1325 1.384 . S
N1324 C1320 1.427 . S
N1324 C1321 1.384 . S
N1325 C1317 1.427 . S
N1325 C1323 1.384 . S
H1326 C1332 0.930 . S
H1327 C1336 0.930 . S
H1328 C1341 0.929 . S
H1329 C1339 0.929 . S
H1330 C1334 0.929 . S
H1331 C1340 0.929 . S
C1332 H1326 0.930 . S
C1332 C1333 1.367 . S
C1332 C1340 1.378 . S
C1333 C1332 1.367 . S
C1333 C1341 1.433 . S
C1334 H1330 0.929 . S
C1334 C1336 1.378 . S
C1334 C1338 1.350 . S
C1335 C1338 1.463 . S
C1335 C1340 1.350 . S
C1335 N1343 1.427 . S
C1336 H1327 0.930 . S
C1336 C1334 1.378 . S
C1336 C1337 1.367 . S
C1337 C1336 1.367 . S
C1337 C1339 1.433 . S
C1338 C1334 1.350 . S
C1338 C1335 1.463 . S
C1338 N1342 1.427 . S
C1339 H1329 0.929 . S
C1339 C1337 1.433 . S
C1339 N1342 1.384 . S
C1340 H1331 0.929 . S
C1340 C1332 1.378 . S
C1340 C1335 1.350 . S
C1341 H1328 0.929 . S
C1341 C1333 1.433 . S
C1341 N1343 1.384 . S
N1342 C1338 1.427 . S
N1342 C1339 1.384 . S
N1343 C1335 1.427 . S
N1343 C1341 1.384 . S
H1344 C1350 0.930 . S
H1345 C1354 0.930 . S
H1346 C1359 0.929 . S
H1347 C1357 0.929 . S
H1348 C1352 0.929 . S
H1349 C1358 0.929 . S
C1350 H1344 0.930 . S
C1350 C1351 1.367 . S
C1350 C1358 1.378 . S
C1351 C1350 1.367 . S
C1351 C1359 1.433 . S
C1352 H1348 0.929 . S
C1352 C1354 1.378 . S
C1352 C1356 1.350 . S
C1353 C1356 1.463 1_655 S
C1353 C1358 1.350 . S
C1353 N1361 1.427 . S
C1354 H1345 0.930 . S
C1354 C1352 1.378 . S
C1354 C1355 1.367 . S
C1355 C1354 1.367 . S
C1355 C1357 1.433 . S
C1356 C1352 1.350 . S
C1356 C1353 1.463 1_455 S
C1356 N1360 1.427 . S
C1357 H1347 0.929 . S
C1357 C1355 1.433 . S
C1357 N1360 1.384 . S
C1358 H1349 0.929 . S
C1358 C1350 1.378 . S
C1358 C1353 1.350 . S
C1359 H1346 0.929 . S
C1359 C1351 1.433 . S
C1359 N1361 1.384 . S
N1360 C1356 1.427 . S
N1360 C1357 1.384 . S
N1361 C1353 1.427 . S
N1361 C1359 1.384 . S
H1362 C1368 0.930 . S
H1363 C1372 0.930 . S
H1364 C1377 0.949 . S
H1365 C1375 0.949 . S
H1366 C1370 0.929 . S
H1367 C1376 0.929 . S
C1368 H1362 0.930 . S
C1368 C1369 1.367 . S
C1368 C1376 1.378 . S
C1369 C1368 1.367 . S
C1369 C1377 1.402 1_655 S
C1370 H1366 0.929 . S
C1370 C1372 1.378 . S
C1370 C1374 1.350 . S
C1371 C1374 1.463 1_655 S
C1371 C1376 1.350 . S
C1371 N1379 1.427 1_655 S
C1372 H1363 0.930 . S
C1372 C1370 1.378 . S
C1372 C1373 1.367 . S
C1373 C1372 1.367 . S
C1373 C1375 1.402 1_455 S
C1374 C1370 1.350 . S
C1374 C1371 1.463 1_455 S
C1374 N1378 1.427 1_455 S
C1375 H1365 0.949 . S
C1375 C1373 1.402 1_655 S
C1375 N1378 1.396 . S
C1376 H1367 0.929 . S
C1376 C1368 1.378 . S
C1376 C1371 1.350 . S
C1377 H1364 0.949 . S
C1377 C1369 1.402 1_455 S
C1377 N1379 1.396 . S
N1378 C1374 1.427 1_655 S
N1378 C1375 1.396 . S
N1379 C1371 1.427 1_455 S
N1379 C1377 1.396 . S
H1380 C1386 0.930 . S
H1381 C1390 0.930 . S
H1382 C1395 0.929 . S
H1383 C1393 0.929 . S
H1384 C1388 0.929 . S
H1385 C1394 0.929 . S
C1386 H1380 0.930 . S
C1386 C1387 1.367 . S
C1386 C1394 1.378 . S
C1387 C1386 1.367 . S
C1387 C1395 1.433 . S
C1388 H1384 0.929 . S
C1388 C1390 1.378 . S
C1388 C1392 1.350 . S
C1389 C1392 1.463 . S
C1389 C1394 1.350 . S
C1389 N1397 1.427 . S
C1390 H1381 0.930 . S
C1390 C1388 1.378 . S
C1390 C1391 1.367 . S
C1391 C1390 1.367 . S
C1391 C1393 1.433 . S
C1392 C1388 1.350 . S
C1392 C1389 1.463 . S
C1392 N1396 1.427 . S
C1393 H1383 0.929 . S
C1393 C1391 1.433 . S
C1393 N1396 1.384 . S
C1394 H1385 0.929 . S
C1394 C1386 1.378 . S
C1394 C1389 1.350 . S
C1395 H1382 0.929 . S
C1395 C1387 1.433 . S
C1395 N1397 1.384 . S
N1396 C1392 1.427 . S
N1396 C1393 1.384 . S
N1397 C1389 1.427 . S
N1397 C1395 1.384 . S
H1398 C1404 0.930 . S
H1399 C1408 0.930 . S
H1400 C1413 0.929 . S
H1401 C1411 0.929 . S
H1402 C1406 0.929 . S
H1403 C1412 0.929 . S
C1404 H1398 0.930 . S
C1404 C1405 1.367 . S
C1404 C1412 1.378 . S
C1405 C1404 1.367 . S
C1405 C1413 1.433 . S
C1406 H1402 0.929 . S
C1406 C1408 1.378 . S
C1406 C1410 1.350 . S
C1407 C1410 1.463 . S
C1407 C1412 1.350 . S
C1407 N1415 1.427 . S
C1408 H1399 0.930 . S
C1408 C1406 1.378 . S
C1408 C1409 1.367 . S
C1409 C1408 1.367 . S
C1409 C1411 1.433 . S
C1410 C1406 1.350 . S
C1410 C1407 1.463 . S
C1410 N1414 1.427 . S
C1411 H1401 0.929 . S
C1411 C1409 1.433 . S
C1411 N1414 1.384 . S
C1412 H1403 0.929 . S
C1412 C1404 1.378 . S
C1412 C1407 1.350 . S
C1413 H1400 0.929 . S
C1413 C1405 1.433 . S
C1413 N1415 1.384 . S
N1414 C1410 1.427 . S
N1414 C1411 1.384 . S
N1415 C1407 1.427 . S
N1415 C1413 1.384 . S
H1416 C1422 0.930 . S
H1417 C1426 0.930 . S
H1418 C1431 0.929 . S
H1419 C1429 0.929 . S
H1420 C1424 0.929 . S
H1421 C1430 0.929 . S
C1422 H1416 0.930 . S
C1422 C1423 1.367 . S
C1422 C1430 1.378 . S
C1423 C1422 1.367 . S
C1423 C1431 1.433 . S
C1424 H1420 0.929 . S
C1424 C1426 1.378 . S
C1424 C1428 1.350 . S
C1425 C1428 1.463 1_655 S
C1425 C1430 1.350 . S
C1425 N1433 1.427 . S
C1426 H1417 0.930 . S
C1426 C1424 1.378 . S
C1426 C1427 1.367 . S
C1427 C1426 1.367 . S
C1427 C1429 1.433 . S
C1428 C1424 1.350 . S
C1428 C1425 1.463 1_455 S
C1428 N1432 1.427 . S
C1429 H1419 0.929 . S
C1429 C1427 1.433 . S
C1429 N1432 1.384 . S
C1430 H1421 0.929 . S
C1430 C1422 1.378 . S
C1430 C1425 1.350 . S
C1431 H1418 0.929 . S
C1431 C1423 1.433 . S
C1431 N1433 1.384 . S
N1432 C1428 1.427 . S
N1432 C1429 1.384 . S
N1433 C1425 1.427 . S
N1433 C1431 1.384 . S
H1434 C1440 0.930 . S
H1435 C1444 0.930 . S
H1436 C1449 0.929 . S
H1437 C1447 0.929 . S
H1438 C1442 0.929 . S
H1439 C1448 0.929 . S
C1440 H1434 0.930 . S
C1440 C1441 1.367 . S
C1440 C1448 1.378 . S
C1441 C1440 1.367 . S
C1441 C1449 1.433 . S
C1442 H1438 0.929 . S
C1442 C1444 1.378 . S
C1442 C1446 1.350 . S
C1443 C1446 1.463 . S
C1443 C1448 1.350 . S
C1443 N1451 1.427 . S
C1444 H1435 0.930 . S
C1444 C1442 1.378 . S
C1444 C1445 1.367 . S
C1445 C1444 1.367 . S
C1445 C1447 1.433 . S
C1446 C1442 1.350 . S
C1446 C1443 1.463 . S
C1446 N1450 1.427 . S
C1447 H1437 0.929 . S
C1447 C1445 1.433 . S
C1447 N1450 1.384 . S
C1448 H1439 0.929 . S
C1448 C1440 1.378 . S
C1448 C1443 1.350 . S
C1449 H1436 0.929 . S
C1449 C1441 1.433 . S
C1449 N1451 1.384 . S
N1450 C1446 1.427 . S
N1450 C1447 1.384 . S
N1451 C1443 1.427 . S
N1451 C1449 1.384 . S
H1452 C1458 0.930 . S
H1453 C1462 0.930 . S
H1454 C1467 0.929 . S
H1455 C1465 0.929 . S
H1456 C1460 0.929 . S
H1457 C1466 0.929 . S
C1458 H1452 0.930 . S
C1458 C1459 1.367 . S
C1458 C1466 1.378 . S
C1459 C1458 1.367 . S
C1459 C1467 1.433 . S
C1460 H1456 0.929 . S
C1460 C1462 1.378 . S
C1460 C1464 1.350 . S
C1461 C1464 1.463 . S
C1461 C1466 1.350 . S
C1461 N1469 1.427 . S
C1462 H1453 0.930 . S
C1462 C1460 1.378 . S
C1462 C1463 1.367 . S
C1463 C1462 1.367 . S
C1463 C1465 1.433 . S
C1464 C1460 1.350 . S
C1464 C1461 1.463 . S
C1464 N1468 1.427 . S
C1465 H1455 0.929 . S
C1465 C1463 1.433 . S
C1465 N1468 1.384 . S
C1466 H1457 0.929 . S
C1466 C1458 1.378 . S
C1466 C1461 1.350 . S
C1467 H1454 0.929 . S
C1467 C1459 1.433 . S
C1467 N1469 1.384 . S
N1468 C1464 1.427 . S
N1468 C1465 1.384 . S
N1469 C1461 1.427 . S
N1469 C1467 1.384 . S
H1470 C1476 0.930 . S
H1471 C1480 0.930 . S
H1472 C1485 0.929 . S
H1473 C1483 0.929 . S
H1474 C1478 0.929 . S
H1475 C1484 0.929 . S
C1476 H1470 0.930 . S
C1476 C1477 1.367 . S
C1476 C1484 1.378 . S
C1477 C1476 1.367 . S
C1477 C1485 1.433 1_556 S
C1478 H1474 0.929 . S
C1478 C1480 1.378 . S
C1478 C1482 1.350 1_554 S
C1479 C1482 1.463 1_455 S
C1479 C1484 1.350 . S
C1479 N1487 1.427 1_556 S
C1480 H1471 0.930 . S
C1480 C1478 1.378 . S
C1480 C1481 1.367 1_554 S
C1481 C1480 1.367 1_556 S
C1481 C1483 1.433 . S
C1482 C1478 1.350 1_556 S
C1482 C1479 1.463 1_655 S
C1482 N1486 1.427 . S
C1483 H1473 0.929 . S
C1483 C1481 1.433 . S
C1483 N1486 1.384 . S
C1484 H1475 0.929 . S
C1484 C1476 1.378 . S
C1484 C1479 1.350 . S
C1485 H1472 0.929 . S
C1485 C1477 1.433 1_554 S
C1485 N1487 1.384 . S
N1486 C1482 1.427 . S
N1486 C1483 1.384 . S
N1487 C1479 1.427 1_554 S
N1487 C1485 1.384 . S
H1488 C1494 0.930 . S
H1489 C1498 0.930 . S
H1490 C1503 0.929 . S
H1491 C1501 0.929 . S
H1492 C1496 0.929 . S
H1493 C1502 0.929 . S
C1494 H1488 0.930 . S
C1494 C1495 1.367 . S
C1494 C1502 1.378 . S
C1495 C1494 1.367 . S
C1495 C1503 1.433 . S
C1496 H1492 0.929 . S
C1496 C1498 1.378 . S
C1496 C1500 1.350 . S
C1497 C1500 1.463 1_655 S
C1497 C1502 1.350 . S
C1497 N1505 1.427 . S
C1498 H1489 0.930 . S
C1498 C1496 1.378 . S
C1498 C1499 1.367 . S
C1499 C1498 1.367 . S
C1499 C1501 1.433 . S
C1500 C1496 1.350 . S
C1500 C1497 1.463 1_455 S
C1500 N1504 1.427 . S
C1501 H1491 0.929 . S
C1501 C1499 1.433 . S
C1501 N1504 1.384 . S
C1502 H1493 0.929 . S
C1502 C1494 1.378 . S
C1502 C1497 1.350 . S
C1503 H1490 0.929 . S
C1503 C1495 1.433 . S
C1503 N1505 1.384 . S
N1504 C1500 1.427 . S
N1504 C1501 1.384 . S
N1505 C1497 1.427 . S
N1505 C1503 1.384 . S
H1506 C1512 0.930 . S
H1507 C1516 0.930 . S
H1508 C1521 0.929 . S
H1509 C1519 0.929 . S
H1510 C1514 0.929 . S
H1511 C1520 0.929 . S
C1512 H1506 0.930 . S
C1512 C1513 1.367 1_655 S
C1512 C1520 1.378 . S
C1513 C1512 1.367 1_455 S
C1513 C1521 1.433 . S
C1514 H1510 0.929 . S
C1514 C1516 1.378 . S
C1514 C1518 1.350 1_455 S
C1515 C1518 1.463 1_455 S
C1515 C1520 1.350 1_455 S
C1515 N1523 1.427 . S
C1516 H1507 0.930 . S
C1516 C1514 1.378 . S
C1516 C1517 1.367 1_455 S
C1517 C1516 1.367 1_655 S
C1517 C1519 1.433 . S
C1518 C1514 1.350 1_655 S
C1518 C1515 1.463 1_655 S
C1518 N1522 1.427 . S
C1519 H1509 0.929 . S
C1519 C1517 1.433 . S
C1519 N1522 1.384 . S
C1520 H1511 0.929 . S
C1520 C1512 1.378 . S
C1520 C1515 1.350 1_655 S
C1521 H1508 0.929 . S
C1521 C1513 1.433 . S
C1521 N1523 1.384 . S
N1522 C1518 1.427 . S
N1522 C1519 1.384 . S
N1523 C1515 1.427 . S
N1523 C1521 1.384 . S
H1524 C1530 0.930 . S
H1525 C1534 0.930 . S
H1526 C1539 0.929 . S
H1527 C1537 0.929 . S
H1528 C1532 0.929 . S
H1529 C1538 0.929 . S
C1530 H1524 0.930 . S
C1530 C1531 1.367 . S
C1530 C1538 1.378 . S
C1531 C1530 1.367 . S
C1531 C1539 1.433 . S
C1532 H1528 0.929 . S
C1532 C1534 1.378 . S
C1532 C1536 1.350 . S
C1533 C1536 1.463 . S
C1533 C1538 1.350 . S
C1533 N1541 1.427 . S
C1534 H1525 0.930 . S
C1534 C1532 1.378 . S
C1534 C1535 1.367 . S
C1535 C1534 1.367 . S
C1535 C1537 1.433 . S
C1536 C1532 1.350 . S
C1536 C1533 1.463 . S
C1536 N1540 1.427 . S
C1537 H1527 0.929 . S
C1537 C1535 1.433 . S
C1537 N1540 1.384 . S
C1538 H1529 0.929 . S
C1538 C1530 1.378 . S
C1538 C1533 1.350 . S
C1539 H1526 0.929 . S
C1539 C1531 1.433 . S
C1539 N1541 1.384 . S
N1540 C1536 1.427 . S
N1540 C1537 1.384 . S
N1541 C1533 1.427 . S
N1541 C1539 1.384 . S
H1542 C1548 0.930 . S
H1543 C1552 0.930 . S
H1544 C1557 0.929 . S
H1545 C1555 0.929 . S
H1546 C1550 0.929 . S
H1547 C1556 0.929 . S
C1548 H1542 0.930 . S
C1548 C1549 1.367 . S
C1548 C1556 1.378 . S
C1549 C1548 1.367 . S
C1549 C1557 1.433 1_556 S
C1550 H1546 0.929 . S
C1550 C1552 1.378 . S
C1550 C1554 1.350 1_554 S
C1551 C1554 1.463 . S
C1551 C1556 1.350 . S
C1551 N1559 1.427 1_556 S
C1552 H1543 0.930 . S
C1552 C1550 1.378 . S
C1552 C1553 1.367 1_554 S
C1553 C1552 1.367 1_556 S
C1553 C1555 1.433 . S
C1554 C1550 1.350 1_556 S
C1554 C1551 1.463 . S
C1554 N1558 1.427 . S
C1555 H1545 0.929 . S
C1555 C1553 1.433 . S
C1555 N1558 1.384 . S
C1556 H1547 0.929 . S
C1556 C1548 1.378 . S
C1556 C1551 1.350 . S
C1557 H1544 0.929 . S
C1557 C1549 1.433 1_554 S
C1557 N1559 1.384 . S
N1558 C1554 1.427 . S
N1558 C1555 1.384 . S
N1559 C1551 1.427 1_554 S
N1559 C1557 1.384 . S
H1560 C1566 0.930 . S
H1561 C1570 0.930 . S
H1562 C1575 0.929 . S
H1563 C1573 0.929 . S
H1564 C1568 0.929 . S
H1565 C1574 0.929 . S
C1566 H1560 0.930 . S
C1566 C1567 1.367 . S
C1566 C1574 1.378 . S
C1567 C1566 1.367 . S
C1567 C1575 1.433 . S
C1568 H1564 0.929 . S
C1568 C1570 1.378 . S
C1568 C1572 1.350 . S
C1569 C1572 1.463 1_655 S
C1569 C1574 1.350 . S
C1569 N1577 1.427 . S
C1570 H1561 0.930 . S
C1570 C1568 1.378 . S
C1570 C1571 1.367 . S
C1571 C1570 1.367 . S
C1571 C1573 1.433 . S
C1572 C1568 1.350 . S
C1572 C1569 1.463 1_455 S
C1572 N1576 1.427 . S
C1573 H1563 0.929 . S
C1573 C1571 1.433 . S
C1573 N1576 1.384 . S
C1574 H1565 0.929 . S
C1574 C1566 1.378 . S
C1574 C1569 1.350 . S
C1575 H1562 0.929 . S
C1575 C1567 1.433 . S
C1575 N1577 1.384 . S
N1576 C1572 1.427 . S
N1576 C1573 1.384 . S
N1577 C1569 1.427 . S
N1577 C1575 1.384 . S
H1578 C1584 0.930 . S
H1579 C1588 0.930 . S
H1580 C1593 0.929 . S
H1581 C1591 0.929 . S
H1582 C1586 0.929 . S
H1583 C1592 0.929 . S
C1584 H1578 0.930 . S
C1584 C1585 1.367 . S
C1584 C1592 1.378 . S
C1585 C1584 1.367 . S
C1585 C1593 1.433 . S
C1586 H1582 0.929 . S
C1586 C1588 1.378 . S
C1586 C1590 1.350 . S
C1587 C1590 1.463 . S
C1587 C1592 1.350 . S
C1587 N1595 1.427 . S
C1588 H1579 0.930 . S
C1588 C1586 1.378 . S
C1588 C1589 1.367 . S
C1589 C1588 1.367 . S
C1589 C1591 1.433 . S
C1590 C1586 1.350 . S
C1590 C1587 1.463 . S
C1590 N1594 1.427 . S
C1591 H1581 0.929 . S
C1591 C1589 1.433 . S
C1591 N1594 1.384 . S
C1592 H1583 0.929 . S
C1592 C1584 1.378 . S
C1592 C1587 1.350 . S
C1593 H1580 0.929 . S
C1593 C1585 1.433 . S
C1593 N1595 1.384 . S
N1594 C1590 1.427 . S
N1594 C1591 1.384 . S
N1595 C1587 1.427 . S
N1595 C1593 1.384 . S
H1596 C1602 0.930 . S
H1597 C1606 0.930 . S
H1598 C1611 0.929 . S
H1599 C1609 0.929 . S
H1600 C1604 0.929 . S
H1601 C1610 0.929 . S
C1602 H1596 0.930 . S
C1602 C1603 1.367 . S
C1602 C1610 1.378 . S
C1603 C1602 1.367 . S
C1603 C1611 1.433 . S
C1604 H1600 0.929 . S
C1604 C1606 1.378 . S
C1604 C1608 1.350 . S
C1605 C1608 1.463 . S
C1605 C1610 1.350 . S
C1605 N1613 1.427 . S
C1606 H1597 0.930 . S
C1606 C1604 1.378 . S
C1606 C1607 1.367 . S
C1607 C1606 1.367 . S
C1607 C1609 1.433 . S
C1608 C1604 1.350 . S
C1608 C1605 1.463 . S
C1608 N1612 1.427 . S
C1609 H1599 0.929 . S
C1609 C1607 1.433 . S
C1609 N1612 1.384 . S
C1610 H1601 0.929 . S
C1610 C1602 1.378 . S
C1610 C1605 1.350 . S
C1611 H1598 0.929 . S
C1611 C1603 1.433 . S
C1611 N1613 1.384 . S
N1612 C1608 1.427 . S
N1612 C1609 1.384 . S
N1613 C1605 1.427 . S
N1613 C1611 1.384 . S
H1614 C1620 0.930 . S
H1615 C1624 0.930 . S
H1616 C1629 0.929 . S
H1617 C1627 0.929 . S
H1618 C1622 0.929 . S
H1619 C1628 0.929 . S
C1620 H1614 0.930 . S
C1620 C1621 1.367 1_556 S
C1620 C1628 1.378 1_455 S
C1621 C1620 1.367 1_554 S
C1621 C1629 1.433 . S
C1622 H1618 0.929 . S
C1622 C1624 1.378 1_455 S
C1622 C1626 1.350 1_455 S
C1623 C1626 1.463 1_455 S
C1623 C1628 1.350 1_454 S
C1623 N1631 1.427 . S
C1624 H1615 0.930 . S
C1624 C1622 1.378 1_655 S
C1624 C1625 1.367 . S
C1625 C1624 1.367 . S
C1625 C1627 1.433 1_554 S
C1626 C1622 1.350 1_655 S
C1626 C1623 1.463 1_655 S
C1626 N1630 1.427 1_554 S
C1627 H1617 0.929 . S
C1627 C1625 1.433 1_556 S
C1627 N1630 1.384 . S
C1628 H1619 0.929 . S
C1628 C1620 1.378 1_655 S
C1628 C1623 1.350 1_656 S
C1629 H1616 0.929 . S
C1629 C1621 1.433 . S
C1629 N1631 1.384 . S
N1630 C1626 1.427 1_556 S
N1630 C1627 1.384 . S
N1631 C1623 1.427 . S
N1631 C1629 1.384 . S
H1632 C1638 0.930 . S
H1633 C1642 0.930 . S
H1634 C1647 0.929 . S
H1635 C1645 0.929 . S
H1636 C1640 0.929 . S
H1637 C1646 0.929 . S
C1638 H1632 0.930 . S
C1638 C1639 1.367 . S
C1638 C1646 1.378 . S
C1639 C1638 1.367 . S
C1639 C1647 1.433 . S
C1640 H1636 0.929 . S
C1640 C1642 1.378 . S
C1640 C1644 1.350 . S
C1641 C1644 1.463 . S
C1641 C1646 1.350 . S
C1641 N1649 1.427 . S
C1642 H1633 0.930 . S
C1642 C1640 1.378 . S
C1642 C1643 1.367 . S
C1643 C1642 1.367 . S
C1643 C1645 1.433 . S
C1644 C1640 1.350 . S
C1644 C1641 1.463 . S
C1644 N1648 1.427 . S
C1645 H1635 0.929 . S
C1645 C1643 1.433 . S
C1645 N1648 1.384 . S
C1646 H1637 0.929 . S
C1646 C1638 1.378 . S
C1646 C1641 1.350 . S
C1647 H1634 0.929 . S
C1647 C1639 1.433 . S
C1647 N1649 1.384 . S
N1648 C1644 1.427 . S
N1648 C1645 1.384 . S
N1649 C1641 1.427 . S
N1649 C1647 1.384 . S
H1650 C1656 0.930 . S
H1651 C1660 0.930 1_455 S
H1652 C1665 0.929 . S
H1653 C1663 0.929 . S
H1654 C1658 0.929 . S
H1655 C1664 0.929 . S
C1656 H1650 0.930 . S
C1656 C1657 1.367 . S
C1656 C1664 1.378 . S
C1657 C1656 1.367 . S
C1657 C1665 1.433 . S
C1658 H1654 0.929 . S
C1658 C1660 1.378 . S
C1658 C1662 1.350 . S
C1659 C1662 1.463 . S
C1659 C1664 1.350 . S
C1659 N1667 1.427 . S
C1660 H1651 0.930 1_655 S
C1660 C1658 1.378 . S
C1660 C1661 1.367 . S
C1661 C1660 1.367 . S
C1661 C1663 1.433 . S
C1662 C1658 1.350 . S
C1662 C1659 1.463 . S
C1662 N1666 1.427 . S
C1663 H1653 0.929 . S
C1663 C1661 1.433 . S
C1663 N1666 1.384 . S
C1664 H1655 0.929 . S
C1664 C1656 1.378 . S
C1664 C1659 1.350 . S
C1665 H1652 0.929 . S
C1665 C1657 1.433 . S
C1665 N1667 1.384 . S
N1666 C1662 1.427 . S
N1666 C1663 1.384 . S
N1667 C1659 1.427 . S
N1667 C1665 1.384 . S
H1668 C1674 0.930 . S
H1669 C1678 0.930 . S
H1670 C1683 0.929 . S
H1671 C1681 0.929 . S
H1672 C1676 0.929 . S
H1673 C1682 0.929 . S
C1674 H1668 0.930 . S
C1674 C1675 1.367 . S
C1674 C1682 1.378 . S
C1675 C1674 1.367 . S
C1675 C1683 1.433 . S
C1676 H1672 0.929 . S
C1676 C1678 1.378 . S
C1676 C1680 1.350 . S
C1677 C1680 1.463 . S
C1677 C1682 1.350 . S
C1677 N1685 1.427 . S
C1678 H1669 0.930 . S
C1678 C1676 1.378 . S
C1678 C1679 1.367 . S
C1679 C1678 1.367 . S
C1679 C1681 1.433 . S
C1680 C1676 1.350 . S
C1680 C1677 1.463 . S
C1680 N1684 1.427 . S
C1681 H1671 0.929 . S
C1681 C1679 1.433 . S
C1681 N1684 1.384 . S
C1682 H1673 0.929 . S
C1682 C1674 1.378 . S
C1682 C1677 1.350 . S
C1683 H1670 0.929 . S
C1683 C1675 1.433 . S
C1683 N1685 1.384 . S
N1684 C1680 1.427 . S
N1684 C1681 1.384 . S
N1685 C1677 1.427 . S
N1685 C1683 1.384 . S
H1686 C1692 0.930 . S
H1687 C1696 0.930 . S
H1688 C1701 0.929 . S
H1689 C1699 0.929 . S
H1690 C1694 0.929 . S
H1691 C1700 0.929 . S
C1692 H1686 0.930 . S
C1692 C1693 1.367 . S
C1692 C1700 1.378 . S
C1693 C1692 1.367 . S
C1693 C1701 1.433 . S
C1694 H1690 0.929 . S
C1694 C1696 1.378 . S
C1694 C1698 1.350 . S
C1695 C1698 1.463 . S
C1695 C1700 1.350 . S
C1695 N1703 1.427 . S
C1696 H1687 0.930 . S
C1696 C1694 1.378 . S
C1696 C1697 1.367 . S
C1697 C1696 1.367 . S
C1697 C1699 1.433 . S
C1698 C1694 1.350 . S
C1698 C1695 1.463 . S
C1698 N1702 1.427 . S
C1699 H1689 0.929 . S
C1699 C1697 1.433 . S
C1699 N1702 1.384 . S
C1700 H1691 0.929 . S
C1700 C1692 1.378 . S
C1700 C1695 1.350 . S
C1701 H1688 0.929 . S
C1701 C1693 1.433 . S
C1701 N1703 1.384 . S
N1702 C1698 1.427 . S
N1702 C1699 1.384 . S
N1703 C1695 1.427 . S
N1703 C1701 1.384 . S
H1704 C1710 0.930 . S
H1705 C1714 0.930 . S
H1706 C1719 0.929 . S
H1707 C1717 0.929 . S
H1708 C1712 0.929 . S
H1709 C1718 0.929 . S
C1710 H1704 0.930 . S
C1710 C1711 1.367 . S
C1710 C1718 1.378 . S
C1711 C1710 1.367 . S
C1711 C1719 1.433 . S
C1712 H1708 0.929 . S
C1712 C1714 1.378 . S
C1712 C1716 1.350 . S
C1713 C1716 1.463 . S
C1713 C1718 1.350 . S
C1713 N1721 1.427 . S
C1714 H1705 0.930 . S
C1714 C1712 1.378 . S
C1714 C1715 1.367 . S
C1715 C1714 1.367 . S
C1715 C1717 1.433 . S
C1716 C1712 1.350 . S
C1716 C1713 1.463 . S
C1716 N1720 1.427 . S
C1717 H1707 0.929 . S
C1717 C1715 1.433 . S
C1717 N1720 1.384 . S
C1718 H1709 0.929 . S
C1718 C1710 1.378 . S
C1718 C1713 1.350 . S
C1719 H1706 0.929 . S
C1719 C1711 1.433 . S
C1719 N1721 1.384 . S
N1720 C1716 1.427 . S
N1720 C1717 1.384 . S
N1721 C1713 1.427 . S
N1721 C1719 1.384 . S
H1722 C1728 0.930 . S
H1723 C1732 0.930 . S
H1724 C1737 0.929 . S
H1725 C1735 0.929 . S
H1726 C1730 0.929 . S
H1727 C1736 0.929 . S
C1728 H1722 0.930 . S
C1728 C1729 1.367 . S
C1728 C1736 1.378 . S
C1729 C1728 1.367 . S
C1729 C1737 1.433 . S
C1730 H1726 0.929 . S
C1730 C1732 1.378 . S
C1730 C1734 1.350 . S
C1731 C1734 1.463 . S
C1731 C1736 1.350 . S
C1731 N1739 1.427 . S
C1732 H1723 0.930 . S
C1732 C1730 1.378 . S
C1732 C1733 1.367 . S
C1733 C1732 1.367 . S
C1733 C1735 1.433 . S
C1734 C1730 1.350 . S
C1734 C1731 1.463 . S
C1734 N1738 1.427 . S
C1735 H1725 0.929 . S
C1735 C1733 1.433 . S
C1735 N1738 1.384 . S
C1736 H1727 0.929 . S
C1736 C1728 1.378 . S
C1736 C1731 1.350 . S
C1737 H1724 0.929 . S
C1737 C1729 1.433 . S
C1737 N1739 1.384 . S
N1738 C1734 1.427 . S
N1738 C1735 1.384 . S
N1739 C1731 1.427 . S
N1739 C1737 1.384 . S
H1740 C1746 0.930 . S
H1741 C1750 0.930 . S
H1742 C1755 0.929 . S
H1743 C1753 0.929 . S
H1744 C1748 0.929 . S
H1745 C1754 0.929 . S
C1746 H1740 0.930 . S
C1746 C1747 1.367 . S
C1746 C1754 1.378 . S
C1747 C1746 1.367 . S
C1747 C1755 1.433 . S
C1748 H1744 0.929 . S
C1748 C1750 1.378 . S
C1748 C1752 1.350 . S
C1749 C1752 1.463 . S
C1749 C1754 1.350 . S
C1749 N1757 1.427 . S
C1750 H1741 0.930 . S
C1750 C1748 1.378 . S
C1750 C1751 1.367 . S
C1751 C1750 1.367 . S
C1751 C1753 1.433 . S
C1752 C1748 1.350 . S
C1752 C1749 1.463 . S
C1752 N1756 1.427 . S
C1753 H1743 0.929 . S
C1753 C1751 1.433 . S
C1753 N1756 1.384 . S
C1754 H1745 0.929 . S
C1754 C1746 1.378 . S
C1754 C1749 1.350 . S
C1755 H1742 0.929 . S
C1755 C1747 1.433 . S
C1755 N1757 1.384 . S
N1756 C1752 1.427 . S
N1756 C1753 1.384 . S
N1757 C1749 1.427 . S
N1757 C1755 1.384 . S
H1758 C1764 0.930 . S
H1759 C1768 0.930 . S
H1760 C1773 0.929 1_455 S
H1761 C1771 0.929 . S
H1762 C1766 0.929 . S
H1763 C1772 0.929 . S
C1764 H1758 0.930 . S
C1764 C1765 1.367 . S
C1764 C1772 1.378 . S
C1765 C1764 1.367 . S
C1765 C1773 1.433 . S
C1766 H1762 0.929 . S
C1766 C1768 1.378 . S
C1766 C1770 1.350 . S
C1767 C1770 1.463 . S
C1767 C1772 1.350 . S
C1767 N1775 1.427 . S
C1768 H1759 0.930 . S
C1768 C1766 1.378 . S
C1768 C1769 1.367 . S
C1769 C1768 1.367 . S
C1769 C1771 1.433 . S
C1770 C1766 1.350 . S
C1770 C1767 1.463 . S
C1770 N1774 1.427 . S
C1771 H1761 0.929 . S
C1771 C1769 1.433 . S
C1771 N1774 1.384 . S
C1772 H1763 0.929 . S
C1772 C1764 1.378 . S
C1772 C1767 1.350 . S
C1773 H1760 0.929 1_655 S
C1773 C1765 1.433 . S
C1773 N1775 1.384 . S
N1774 C1770 1.427 . S
N1774 C1771 1.384 . S
N1775 C1767 1.427 . S
N1775 C1773 1.384 . S
H1776 C1782 0.930 . S
H1777 C1786 0.930 . S
H1778 C1791 0.929 . S
H1779 C1789 0.929 . S
H1780 C1784 0.929 . S
H1781 C1790 0.929 . S
C1782 H1776 0.930 . S
C1782 C1783 1.367 . S
C1782 C1790 1.378 . S
C1783 C1782 1.367 . S
C1783 C1791 1.433 . S
C1784 H1780 0.929 . S
C1784 C1786 1.378 . S
C1784 C1788 1.350 . S
C1785 C1788 1.463 . S
C1785 C1790 1.350 . S
C1785 N1793 1.427 . S
C1786 H1777 0.930 . S
C1786 C1784 1.378 . S
C1786 C1787 1.367 . S
C1787 C1786 1.367 . S
C1787 C1789 1.433 . S
C1788 C1784 1.350 . S
C1788 C1785 1.463 . S
C1788 N1792 1.427 . S
C1789 H1779 0.929 . S
C1789 C1787 1.433 . S
C1789 N1792 1.384 . S
C1790 H1781 0.929 . S
C1790 C1782 1.378 . S
C1790 C1785 1.350 . S
C1791 H1778 0.929 . S
C1791 C1783 1.433 . S
C1791 N1793 1.384 . S
N1792 C1788 1.427 . S
N1792 C1789 1.384 . S
N1793 C1785 1.427 . S
N1793 C1791 1.384 . S
H1794 C1800 0.930 . S
H1795 C1804 0.930 . S
H1796 C1809 0.929 . S
H1797 C1807 0.929 . S
H1798 C1802 0.929 . S
H1799 C1808 0.929 . S
C1800 H1794 0.930 . S
C1800 C1801 1.367 . S
C1800 C1808 1.378 . S
C1801 C1800 1.367 . S
C1801 C1809 1.433 . S
C1802 H1798 0.929 . S
C1802 C1804 1.378 . S
C1802 C1806 1.350 . S
C1803 C1806 1.463 . S
C1803 C1808 1.350 . S
C1803 N1811 1.427 . S
C1804 H1795 0.930 . S
C1804 C1802 1.378 . S
C1804 C1805 1.367 . S
C1805 C1804 1.367 . S
C1805 C1807 1.433 . S
C1806 C1802 1.350 . S
C1806 C1803 1.463 . S
C1806 N1810 1.427 . S
C1807 H1797 0.929 . S
C1807 C1805 1.433 . S
C1807 N1810 1.384 . S
C1808 H1799 0.929 . S
C1808 C1800 1.378 . S
C1808 C1803 1.350 . S
C1809 H1796 0.929 . S
C1809 C1801 1.433 . S
C1809 N1811 1.384 . S
N1810 C1806 1.427 . S
N1810 C1807 1.384 . S
N1811 C1803 1.427 . S
N1811 C1809 1.384 . S
H1812 C1818 0.930 . S
H1813 C1822 0.930 . S
H1814 C1827 0.929 . S
H1815 C1825 0.929 . S
H1816 C1820 0.929 . S
H1817 C1826 0.929 . S
C1818 H1812 0.930 . S
C1818 C1819 1.367 . S
C1818 C1826 1.378 . S
C1819 C1818 1.367 . S
C1819 C1827 1.433 . S
C1820 H1816 0.929 . S
C1820 C1822 1.378 . S
C1820 C1824 1.350 . S
C1821 C1824 1.463 . S
C1821 C1826 1.350 . S
C1821 N1829 1.427 . S
C1822 H1813 0.930 . S
C1822 C1820 1.378 . S
C1822 C1823 1.367 . S
C1823 C1822 1.367 . S
C1823 C1825 1.433 . S
C1824 C1820 1.350 . S
C1824 C1821 1.463 . S
C1824 N1828 1.427 . S
C1825 H1815 0.929 . S
C1825 C1823 1.433 . S
C1825 N1828 1.384 . S
C1826 H1817 0.929 . S
C1826 C1818 1.378 . S
C1826 C1821 1.350 . S
C1827 H1814 0.929 . S
C1827 C1819 1.433 . S
C1827 N1829 1.384 . S
N1828 C1824 1.427 . S
N1828 C1825 1.384 . S
N1829 C1821 1.427 . S
N1829 C1827 1.384 . S
H1830 C1836 0.930 . S
H1831 C1840 0.930 . S
H1832 C1845 0.929 . S
H1833 C1843 0.929 . S
H1834 C1838 0.929 . S
H1835 C1844 0.929 . S
C1836 H1830 0.930 . S
C1836 C1837 1.367 . S
C1836 C1844 1.378 . S
C1837 C1836 1.367 . S
C1837 C1845 1.433 . S
C1838 H1834 0.929 . S
C1838 C1840 1.378 . S
C1838 C1842 1.350 . S
C1839 C1842 1.463 . S
C1839 C1844 1.350 . S
C1839 N1847 1.427 . S
C1840 H1831 0.930 . S
C1840 C1838 1.378 . S
C1840 C1841 1.367 . S
C1841 C1840 1.367 . S
C1841 C1843 1.433 . S
C1842 C1838 1.350 . S
C1842 C1839 1.463 . S
C1842 N1846 1.427 . S
C1843 H1833 0.929 . S
C1843 C1841 1.433 . S
C1843 N1846 1.384 . S
C1844 H1835 0.929 . S
C1844 C1836 1.378 . S
C1844 C1839 1.350 . S
C1845 H1832 0.929 . S
C1845 C1837 1.433 . S
C1845 N1847 1.384 . S
N1846 C1842 1.427 . S
N1846 C1843 1.384 . S
N1847 C1839 1.427 . S
N1847 C1845 1.384 . S
H1848 C1854 0.930 . S
H1849 C1858 0.930 . S
H1850 C1863 0.929 . S
H1851 C1861 0.929 . S
H1852 C1856 0.929 . S
H1853 C1862 0.929 . S
C1854 H1848 0.930 . S
C1854 C1855 1.367 . S
C1854 C1862 1.378 . S
C1855 C1854 1.367 . S
C1855 C1863 1.433 . S
C1856 H1852 0.929 . S
C1856 C1858 1.378 . S
C1856 C1860 1.350 . S
C1857 C1860 1.463 . S
C1857 C1862 1.350 . S
C1857 N1865 1.427 . S
C1858 H1849 0.930 . S
C1858 C1856 1.378 . S
C1858 C1859 1.367 . S
C1859 C1858 1.367 . S
C1859 C1861 1.433 . S
C1860 C1856 1.350 . S
C1860 C1857 1.463 . S
C1860 N1864 1.427 . S
C1861 H1851 0.929 . S
C1861 C1859 1.433 . S
C1861 N1864 1.384 . S
C1862 H1853 0.929 . S
C1862 C1854 1.378 . S
C1862 C1857 1.350 . S
C1863 H1850 0.929 . S
C1863 C1855 1.433 . S
C1863 N1865 1.384 . S
N1864 C1860 1.427 . S
N1864 C1861 1.384 . S
N1865 C1857 1.427 . S
N1865 C1863 1.384 . S
H1866 C1872 0.930 . S
H1867 C1876 0.930 . S
H1868 C1881 0.929 . S
H1869 C1879 0.929 . S
H1870 C1874 0.929 . S
H1871 C1880 0.929 . S
C1872 H1866 0.930 . S
C1872 C1873 1.367 . S
C1872 C1880 1.378 . S
C1873 C1872 1.367 . S
C1873 C1881 1.433 . S
C1874 H1870 0.929 . S
C1874 C1876 1.378 . S
C1874 C1878 1.350 . S
C1875 C1878 1.463 . S
C1875 C1880 1.350 . S
C1875 N1883 1.427 . S
C1876 H1867 0.930 . S
C1876 C1874 1.378 . S
C1876 C1877 1.367 . S
C1877 C1876 1.367 . S
C1877 C1879 1.433 . S
C1878 C1874 1.350 . S
C1878 C1875 1.463 . S
C1878 N1882 1.427 . S
C1879 H1869 0.929 . S
C1879 C1877 1.433 . S
C1879 N1882 1.384 . S
C1880 H1871 0.929 . S
C1880 C1872 1.378 . S
C1880 C1875 1.350 . S
C1881 H1868 0.929 . S
C1881 C1873 1.433 . S
C1881 N1883 1.384 . S
N1882 C1878 1.427 . S
N1882 C1879 1.384 . S
N1883 C1875 1.427 . S
N1883 C1881 1.384 . S
H1884 C1890 0.930 . S
H1885 C1894 0.930 . S
H1886 C1899 0.929 . S
H1887 C1897 0.929 . S
H1888 C1892 0.929 . S
H1889 C1898 0.929 . S
C1890 H1884 0.930 . S
C1890 C1891 1.367 . S
C1890 C1898 1.378 . S
C1891 C1890 1.367 . S
C1891 C1899 1.433 . S
C1892 H1888 0.929 . S
C1892 C1894 1.378 . S
C1892 C1896 1.350 . S
C1893 C1896 1.463 . S
C1893 C1898 1.350 . S
C1893 N1901 1.427 . S
C1894 H1885 0.930 . S
C1894 C1892 1.378 . S
C1894 C1895 1.367 . S
C1895 C1894 1.367 . S
C1895 C1897 1.433 . S
C1896 C1892 1.350 . S
C1896 C1893 1.463 . S
C1896 N1900 1.427 . S
C1897 H1887 0.929 . S
C1897 C1895 1.433 . S
C1897 N1900 1.384 . S
C1898 H1889 0.929 . S
C1898 C1890 1.378 . S
C1898 C1893 1.350 . S
C1899 H1886 0.929 . S
C1899 C1891 1.433 . S
C1899 N1901 1.384 . S
N1900 C1896 1.427 . S
N1900 C1897 1.384 . S
N1901 C1893 1.427 . S
N1901 C1899 1.384 . S
H1902 C1908 0.930 . S
H1903 C1912 0.930 . S
H1904 C1917 0.929 . S
H1905 C1915 0.929 . S
H1906 C1910 0.929 . S
H1907 C1916 0.929 . S
C1908 H1902 0.930 . S
C1908 C1909 1.367 . S
C1908 C1916 1.378 . S
C1909 C1908 1.367 . S
C1909 C1917 1.433 . S
C1910 H1906 0.929 . S
C1910 C1912 1.378 . S
C1910 C1914 1.350 . S
C1911 C1914 1.463 . S
C1911 C1916 1.350 . S
C1911 N1919 1.427 . S
C1912 H1903 0.930 . S
C1912 C1910 1.378 . S
C1912 C1913 1.367 . S
C1913 C1912 1.367 . S
C1913 C1915 1.433 . S
C1914 C1910 1.350 . S
C1914 C1911 1.463 . S
C1914 N1918 1.427 . S
C1915 H1905 0.929 . S
C1915 C1913 1.433 . S
C1915 N1918 1.384 . S
C1916 H1907 0.929 . S
C1916 C1908 1.378 . S
C1916 C1911 1.350 . S
C1917 H1904 0.929 . S
C1917 C1909 1.433 . S
C1917 N1919 1.384 . S
N1918 C1914 1.427 . S
N1918 C1915 1.384 . S
N1919 C1911 1.427 . S
N1919 C1917 1.384 . S
H1920 C1926 0.930 . S
H1921 C1930 0.930 . S
H1922 C1935 0.929 . S
H1923 C1933 0.929 . S
H1924 C1928 0.929 . S
H1925 C1934 0.929 . S
C1926 H1920 0.930 . S
C1926 C1927 1.367 . S
C1926 C1934 1.378 . S
C1927 C1926 1.367 . S
C1927 C1935 1.433 . S
C1928 H1924 0.929 . S
C1928 C1930 1.378 . S
C1928 C1932 1.350 . S
C1929 C1932 1.463 . S
C1929 C1934 1.350 . S
C1929 N1937 1.427 . S
C1930 H1921 0.930 . S
C1930 C1928 1.378 . S
C1930 C1931 1.367 . S
C1931 C1930 1.367 . S
C1931 C1933 1.433 . S
C1932 C1928 1.350 . S
C1932 C1929 1.463 . S
C1932 N1936 1.427 . S
C1933 H1923 0.929 . S
C1933 C1931 1.433 . S
C1933 N1936 1.384 . S
C1934 H1925 0.929 . S
C1934 C1926 1.378 . S
C1934 C1929 1.350 . S
C1935 H1922 0.929 . S
C1935 C1927 1.433 . S
C1935 N1937 1.384 . S
N1936 C1932 1.427 . S
N1936 C1933 1.384 . S
N1937 C1929 1.427 . S
N1937 C1935 1.384 . S
H1938 C1944 0.930 . S
H1939 C1948 0.930 . S
H1940 C1953 0.929 . S
H1941 C1951 0.929 . S
H1942 C1946 0.929 . S
H1943 C1952 0.929 . S
C1944 H1938 0.930 . S
C1944 C1945 1.367 . S
C1944 C1952 1.378 . S
C1945 C1944 1.367 . S
C1945 C1953 1.433 . S
C1946 H1942 0.929 . S
C1946 C1948 1.378 . S
C1946 C1950 1.350 . S
C1947 C1950 1.463 . S
C1947 C1952 1.350 . S
C1947 N1955 1.427 . S
C1948 H1939 0.930 . S
C1948 C1946 1.378 . S
C1948 C1949 1.367 . S
C1949 C1948 1.367 . S
C1949 C1951 1.433 . S
C1950 C1946 1.350 . S
C1950 C1947 1.463 . S
C1950 N1954 1.427 . S
C1951 H1941 0.929 . S
C1951 C1949 1.433 . S
C1951 N1954 1.384 . S
C1952 H1943 0.929 . S
C1952 C1944 1.378 . S
C1952 C1947 1.350 . S
C1953 H1940 0.929 . S
C1953 C1945 1.433 . S
C1953 N1955 1.384 . S
N1954 C1950 1.427 . S
N1954 C1951 1.384 . S
N1955 C1947 1.427 . S
N1955 C1953 1.384 . S
H1956 C1962 0.930 . S
H1957 C1966 0.930 . S
H1958 C1971 0.929 . S
H1959 C1969 0.929 . S
H1960 C1964 0.929 . S
H1961 C1970 0.929 . S
C1962 H1956 0.930 . S
C1962 C1963 1.367 . S
C1962 C1970 1.378 . S
C1963 C1962 1.367 . S
C1963 C1971 1.433 . S
C1964 H1960 0.929 . S
C1964 C1966 1.378 . S
C1964 C1968 1.350 . S
C1965 C1968 1.463 . S
C1965 C1970 1.350 . S
C1965 N1973 1.427 . S
C1966 H1957 0.930 . S
C1966 C1964 1.378 . S
C1966 C1967 1.367 . S
C1967 C1966 1.367 . S
C1967 C1969 1.433 . S
C1968 C1964 1.350 . S
C1968 C1965 1.463 . S
C1968 N1972 1.427 . S
C1969 H1959 0.929 . S
C1969 C1967 1.433 . S
C1969 N1972 1.384 . S
C1970 H1961 0.929 . S
C1970 C1962 1.378 . S
C1970 C1965 1.350 . S
C1971 H1958 0.929 . S
C1971 C1963 1.433 . S
C1971 N1973 1.384 . S
N1972 C1968 1.427 . S
N1972 C1969 1.384 . S
N1973 C1965 1.427 . S
N1973 C1971 1.384 . S
H1974 C1980 0.930 . S
H1975 C1984 0.930 . S
H1976 C1989 0.929 1_655 S
H1977 C1987 0.929 . S
H1978 C1982 0.929 . S
H1979 C1988 0.929 . S
C1980 H1974 0.930 . S
C1980 C1981 1.367 . S
C1980 C1988 1.378 . S
C1981 C1980 1.367 . S
C1981 C1989 1.433 . S
C1982 H1978 0.929 . S
C1982 C1984 1.378 . S
C1982 C1986 1.350 . S
C1983 C1986 1.463 . S
C1983 C1988 1.350 . S
C1983 N1991 1.427 . S
C1984 H1975 0.930 . S
C1984 C1982 1.378 . S
C1984 C1985 1.367 . S
C1985 C1984 1.367 . S
C1985 C1987 1.433 . S
C1986 C1982 1.350 . S
C1986 C1983 1.463 . S
C1986 N1990 1.427 . S
C1987 H1977 0.929 . S
C1987 C1985 1.433 . S
C1987 N1990 1.384 . S
C1988 H1979 0.929 . S
C1988 C1980 1.378 . S
C1988 C1983 1.350 . S
C1989 H1976 0.929 1_455 S
C1989 C1981 1.433 . S
C1989 N1991 1.384 . S
N1990 C1986 1.427 . S
N1990 C1987 1.384 . S
N1991 C1983 1.427 . S
N1991 C1989 1.384 . S
H1992 C1998 0.930 . S
H1993 C2002 0.930 . S
H1994 C2007 0.929 . S
H1995 C2005 0.929 . S
H1996 C2000 0.929 . S
H1997 C2006 0.929 . S
C1998 H1992 0.930 . S
C1998 C1999 1.367 . S
C1998 C2006 1.378 . S
C1999 C1998 1.367 . S
C1999 C2007 1.433 . S
C2000 H1996 0.929 . S
C2000 C2002 1.378 . S
C2000 C2004 1.350 . S
C2001 C2004 1.463 . S
C2001 C2006 1.350 . S
C2001 N2009 1.427 . S
C2002 H1993 0.930 . S
C2002 C2000 1.378 . S
C2002 C2003 1.367 . S
C2003 C2002 1.367 . S
C2003 C2005 1.433 . S
C2004 C2000 1.350 . S
C2004 C2001 1.463 . S
C2004 N2008 1.427 . S
C2005 H1995 0.929 . S
C2005 C2003 1.433 . S
C2005 N2008 1.384 . S
C2006 H1997 0.929 . S
C2006 C1998 1.378 . S
C2006 C2001 1.350 . S
C2007 H1994 0.929 . S
C2007 C1999 1.433 . S
C2007 N2009 1.384 . S
N2008 C2004 1.427 . S
N2008 C2005 1.384 . S
N2009 C2001 1.427 . S
N2009 C2007 1.384 . S
H2010 C2016 0.930 . S
H2011 C2020 0.930 1_655 S
H2012 C2025 0.929 . S
H2013 C2023 0.929 . S
H2014 C2018 0.929 . S
H2015 C2024 0.929 . S
C2016 H2010 0.930 . S
C2016 C2017 1.367 . S
C2016 C2024 1.378 . S
C2017 C2016 1.367 . S
C2017 C2025 1.433 . S
C2018 H2014 0.929 . S
C2018 C2020 1.378 . S
C2018 C2022 1.350 . S
C2019 C2022 1.463 . S
C2019 C2024 1.350 . S
C2019 N2027 1.427 . S
C2020 H2011 0.930 1_455 S
C2020 C2018 1.378 . S
C2020 C2021 1.367 . S
C2021 C2020 1.367 . S
C2021 C2023 1.433 . S
C2022 C2018 1.350 . S
C2022 C2019 1.463 . S
C2022 N2026 1.427 . S
C2023 H2013 0.929 . S
C2023 C2021 1.433 . S
C2023 N2026 1.384 . S
C2024 H2015 0.929 . S
C2024 C2016 1.378 . S
C2024 C2019 1.350 . S
C2025 H2012 0.929 . S
C2025 C2017 1.433 . S
C2025 N2027 1.384 . S
N2026 C2022 1.427 . S
N2026 C2023 1.384 . S
N2027 C2019 1.427 . S
N2027 C2025 1.384 . S
H2028 C2034 0.930 . S
H2029 C2038 0.930 . S
H2030 C2043 0.929 . S
H2031 C2041 0.929 . S
H2032 C2036 0.929 . S
H2033 C2042 0.929 . S
C2034 H2028 0.930 . S
C2034 C2035 1.367 . S
C2034 C2042 1.378 . S
C2035 C2034 1.367 . S
C2035 C2043 1.433 . S
C2036 H2032 0.929 . S
C2036 C2038 1.378 . S
C2036 C2040 1.350 . S
C2037 C2040 1.463 . S
C2037 C2042 1.350 . S
C2037 N2045 1.427 . S
C2038 H2029 0.930 . S
C2038 C2036 1.378 . S
C2038 C2039 1.367 . S
C2039 C2038 1.367 . S
C2039 C2041 1.433 . S
C2040 C2036 1.350 . S
C2040 C2037 1.463 . S
C2040 N2044 1.427 . S
C2041 H2031 0.929 . S
C2041 C2039 1.433 . S
C2041 N2044 1.384 . S
C2042 H2033 0.929 . S
C2042 C2034 1.378 . S
C2042 C2037 1.350 . S
C2043 H2030 0.929 . S
C2043 C2035 1.433 . S
C2043 N2045 1.384 . S
N2044 C2040 1.427 . S
N2044 C2041 1.384 . S
N2045 C2037 1.427 . S
N2045 C2043 1.384 . S
H2046 C2052 0.930 . S
H2047 C2056 0.930 . S
H2048 C2061 0.929 . S
H2049 C2059 0.929 . S
H2050 C2054 0.929 . S
H2051 C2060 0.929 . S
C2052 H2046 0.930 . S
C2052 C2053 1.367 . S
C2052 C2060 1.378 . S
C2053 C2052 1.367 . S
C2053 C2061 1.433 . S
C2054 H2050 0.929 . S
C2054 C2056 1.378 . S
C2054 C2058 1.350 . S
C2055 C2058 1.463 . S
C2055 C2060 1.350 . S
C2055 N2063 1.427 . S
C2056 H2047 0.930 . S
C2056 C2054 1.378 . S
C2056 C2057 1.367 . S
C2057 C2056 1.367 . S
C2057 C2059 1.433 . S
C2058 C2054 1.350 . S
C2058 C2055 1.463 . S
C2058 N2062 1.427 . S
C2059 H2049 0.929 . S
C2059 C2057 1.433 . S
C2059 N2062 1.384 . S
C2060 H2051 0.929 . S
C2060 C2052 1.378 . S
C2060 C2055 1.350 . S
C2061 H2048 0.929 . S
C2061 C2053 1.433 . S
C2061 N2063 1.384 . S
N2062 C2058 1.427 . S
N2062 C2059 1.384 . S
N2063 C2055 1.427 . S
N2063 C2061 1.384 . S
H2064 C2070 0.930 . S
H2065 C2074 0.930 . S
H2066 C2079 0.929 . S
H2067 C2077 0.929 . S
H2068 C2072 0.929 . S
H2069 C2078 0.929 . S
C2070 H2064 0.930 . S
C2070 C2071 1.367 . S
C2070 C2078 1.378 . S
C2071 C2070 1.367 . S
C2071 C2079 1.433 . S
C2072 H2068 0.929 . S
C2072 C2074 1.378 . S
C2072 C2076 1.350 . S
C2073 C2076 1.463 . S
C2073 C2078 1.350 . S
C2073 N2081 1.427 . S
C2074 H2065 0.930 . S
C2074 C2072 1.378 . S
C2074 C2075 1.367 . S
C2075 C2074 1.367 . S
C2075 C2077 1.433 . S
C2076 C2072 1.350 . S
C2076 C2073 1.463 . S
C2076 N2080 1.427 . S
C2077 H2067 0.929 . S
C2077 C2075 1.433 . S
C2077 N2080 1.384 . S
C2078 H2069 0.929 . S
C2078 C2070 1.378 . S
C2078 C2073 1.350 . S
C2079 H2066 0.929 . S
C2079 C2071 1.433 . S
C2079 N2081 1.384 . S
N2080 C2076 1.427 . S
N2080 C2077 1.384 . S
N2081 C2073 1.427 . S
N2081 C2079 1.384 . S
H2082 C2088 0.930 . S
H2083 C2092 0.930 . S
H2084 C2097 0.929 . S
H2085 C2095 0.929 . S
H2086 C2090 0.929 . S
H2087 C2096 0.929 . S
C2088 H2082 0.930 . S
C2088 C2089 1.367 . S
C2088 C2096 1.378 . S
C2089 C2088 1.367 . S
C2089 C2097 1.433 . S
C2090 H2086 0.929 . S
C2090 C2092 1.378 . S
C2090 C2094 1.350 . S
C2091 C2094 1.463 . S
C2091 C2096 1.350 . S
C2091 N2099 1.427 . S
C2092 H2083 0.930 . S
C2092 C2090 1.378 . S
C2092 C2093 1.367 . S
C2093 C2092 1.367 . S
C2093 C2095 1.433 . S
C2094 C2090 1.350 . S
C2094 C2091 1.463 . S
C2094 N2098 1.427 . S
C2095 H2085 0.929 . S
C2095 C2093 1.433 . S
C2095 N2098 1.384 . S
C2096 H2087 0.929 . S
C2096 C2088 1.378 . S
C2096 C2091 1.350 . S
C2097 H2084 0.929 . S
C2097 C2089 1.433 . S
C2097 N2099 1.384 . S
N2098 C2094 1.427 . S
N2098 C2095 1.384 . S
N2099 C2091 1.427 . S
N2099 C2097 1.384 . S
H2100 C2106 0.930 . S
H2101 C2110 0.930 . S
H2102 C2115 0.929 . S
H2103 C2113 0.929 . S
H2104 C2108 0.929 . S
H2105 C2114 0.929 . S
C2106 H2100 0.930 . S
C2106 C2107 1.367 . S
C2106 C2114 1.378 . S
C2107 C2106 1.367 . S
C2107 C2115 1.433 . S
C2108 H2104 0.929 . S
C2108 C2110 1.378 . S
C2108 C2112 1.350 . S
C2109 C2112 1.463 . S
C2109 C2114 1.350 . S
C2109 N2117 1.427 . S
C2110 H2101 0.930 . S
C2110 C2108 1.378 . S
C2110 C2111 1.367 . S
C2111 C2110 1.367 . S
C2111 C2113 1.433 . S
C2112 C2108 1.350 . S
C2112 C2109 1.463 . S
C2112 N2116 1.427 . S
C2113 H2103 0.929 . S
C2113 C2111 1.433 . S
C2113 N2116 1.384 . S
C2114 H2105 0.929 . S
C2114 C2106 1.378 . S
C2114 C2109 1.350 . S
C2115 H2102 0.929 . S
C2115 C2107 1.433 . S
C2115 N2117 1.384 . S
N2116 C2112 1.427 . S
N2116 C2113 1.384 . S
N2117 C2109 1.427 . S
N2117 C2115 1.384 . S
H2118 C2124 0.930 . S
H2119 C2128 0.930 1_455 S
H2120 C2133 0.929 . S
H2121 C2131 0.929 . S
H2122 C2126 0.929 . S
H2123 C2132 0.929 . S
C2124 H2118 0.930 . S
C2124 C2125 1.367 . S
C2124 C2132 1.378 . S
C2125 C2124 1.367 . S
C2125 C2133 1.433 . S
C2126 H2122 0.929 . S
C2126 C2128 1.378 . S
C2126 C2130 1.350 . S
C2127 C2130 1.463 . S
C2127 C2132 1.350 . S
C2127 N2135 1.427 . S
C2128 H2119 0.930 1_655 S
C2128 C2126 1.378 . S
C2128 C2129 1.367 . S
C2129 C2128 1.367 . S
C2129 C2131 1.433 . S
C2130 C2126 1.350 . S
C2130 C2127 1.463 . S
C2130 N2134 1.427 . S
C2131 H2121 0.929 . S
C2131 C2129 1.433 . S
C2131 N2134 1.384 . S
C2132 H2123 0.929 . S
C2132 C2124 1.378 . S
C2132 C2127 1.350 . S
C2133 H2120 0.929 . S
C2133 C2125 1.433 . S
C2133 N2135 1.384 . S
N2134 C2130 1.427 . S
N2134 C2131 1.384 . S
N2135 C2127 1.427 . S
N2135 C2133 1.384 . S
H2136 C2142 0.930 . S
H2137 C2146 0.930 . S
H2138 C2151 0.929 . S
H2139 C2149 0.929 . S
H2140 C2144 0.929 . S
H2141 C2150 0.929 . S
C2142 H2136 0.930 . S
C2142 C2143 1.367 . S
C2142 C2150 1.378 . S
C2143 C2142 1.367 . S
C2143 C2151 1.433 . S
C2144 H2140 0.929 . S
C2144 C2146 1.378 . S
C2144 C2148 1.350 . S
C2145 C2148 1.463 . S
C2145 C2150 1.350 . S
C2145 N2153 1.427 . S
C2146 H2137 0.930 . S
C2146 C2144 1.378 . S
C2146 C2147 1.367 . S
C2147 C2146 1.367 . S
C2147 C2149 1.433 . S
C2148 C2144 1.350 . S
C2148 C2145 1.463 . S
C2148 N2152 1.427 . S
C2149 H2139 0.929 . S
C2149 C2147 1.433 . S
C2149 N2152 1.384 . S
C2150 H2141 0.929 . S
C2150 C2142 1.378 . S
C2150 C2145 1.350 . S
C2151 H2138 0.929 . S
C2151 C2143 1.433 . S
C2151 N2153 1.384 . S
N2152 C2148 1.427 . S
N2152 C2149 1.384 . S
N2153 C2145 1.427 . S
N2153 C2151 1.384 . S
H2154 C2160 0.930 . S
H2155 C2164 0.930 1_455 S
H2156 C2169 0.929 . S
H2157 C2167 0.929 . S
H2158 C2162 0.929 . S
H2159 C2168 0.929 . S
C2160 H2154 0.930 . S
C2160 C2161 1.367 . S
C2160 C2168 1.378 . S
C2161 C2160 1.367 . S
C2161 C2169 1.433 . S
C2162 H2158 0.929 . S
C2162 C2164 1.378 . S
C2162 C2166 1.350 . S
C2163 C2166 1.463 . S
C2163 C2168 1.350 . S
C2163 N2171 1.427 . S
C2164 H2155 0.930 1_655 S
C2164 C2162 1.378 . S
C2164 C2165 1.367 . S
C2165 C2164 1.367 . S
C2165 C2167 1.433 . S
C2166 C2162 1.350 . S
C2166 C2163 1.463 . S
C2166 N2170 1.427 . S
C2167 H2157 0.929 . S
C2167 C2165 1.433 . S
C2167 N2170 1.384 . S
C2168 H2159 0.929 . S
C2168 C2160 1.378 . S
C2168 C2163 1.350 . S
C2169 H2156 0.929 . S
C2169 C2161 1.433 . S
C2169 N2171 1.384 . S
N2170 C2166 1.427 . S
N2170 C2167 1.384 . S
N2171 C2163 1.427 . S
N2171 C2169 1.384 . S
H2172 C2178 0.930 . S
H2173 C2182 0.930 . S
H2174 C2187 0.929 . S
H2175 C2185 0.929 . S
H2176 C2180 0.929 . S
H2177 C2186 0.929 . S
C2178 H2172 0.930 . S
C2178 C2179 1.367 . S
C2178 C2186 1.378 . S
C2179 C2178 1.367 . S
C2179 C2187 1.433 . S
C2180 H2176 0.929 . S
C2180 C2182 1.378 . S
C2180 C2184 1.350 . S
C2181 C2184 1.463 . S
C2181 C2186 1.350 . S
C2181 N2189 1.427 . S
C2182 H2173 0.930 . S
C2182 C2180 1.378 . S
C2182 C2183 1.367 . S
C2183 C2182 1.367 . S
C2183 C2185 1.433 . S
C2184 C2180 1.350 . S
C2184 C2181 1.463 . S
C2184 N2188 1.427 . S
C2185 H2175 0.929 . S
C2185 C2183 1.433 . S
C2185 N2188 1.384 . S
C2186 H2177 0.929 . S
C2186 C2178 1.378 . S
C2186 C2181 1.350 . S
C2187 H2174 0.929 . S
C2187 C2179 1.433 . S
C2187 N2189 1.384 . S
N2188 C2184 1.427 . S
N2188 C2185 1.384 . S
N2189 C2181 1.427 . S
N2189 C2187 1.384 . S
H2190 C2196 0.930 . S
H2191 C2200 0.930 . S
H2192 C2205 0.929 . S
H2193 C2203 0.929 . S
H2194 C2198 0.929 . S
H2195 C2204 0.929 . S
C2196 H2190 0.930 . S
C2196 C2197 1.367 . S
C2196 C2204 1.378 . S
C2197 C2196 1.367 . S
C2197 C2205 1.433 . S
C2198 H2194 0.929 . S
C2198 C2200 1.378 . S
C2198 C2202 1.350 . S
C2199 C2202 1.463 . S
C2199 C2204 1.350 . S
C2199 N2207 1.427 . S
C2200 H2191 0.930 . S
C2200 C2198 1.378 . S
C2200 C2201 1.367 . S
C2201 C2200 1.367 . S
C2201 C2203 1.433 . S
C2202 C2198 1.350 . S
C2202 C2199 1.463 . S
C2202 N2206 1.427 . S
C2203 H2193 0.929 . S
C2203 C2201 1.433 . S
C2203 N2206 1.384 . S
C2204 H2195 0.929 . S
C2204 C2196 1.378 . S
C2204 C2199 1.350 . S
C2205 H2192 0.929 . S
C2205 C2197 1.433 . S
C2205 N2207 1.384 . S
N2206 C2202 1.427 . S
N2206 C2203 1.384 . S
N2207 C2199 1.427 . S
N2207 C2205 1.384 . S
H2208 C2214 0.930 . S
H2209 C2218 0.930 . S
H2210 C2223 0.929 . S
H2211 C2221 0.929 . S
H2212 C2216 0.929 . S
H2213 C2222 0.929 . S
C2214 H2208 0.930 . S
C2214 C2215 1.367 . S
C2214 C2222 1.378 . S
C2215 C2214 1.367 . S
C2215 C2223 1.433 . S
C2216 H2212 0.929 . S
C2216 C2218 1.378 . S
C2216 C2220 1.350 . S
C2217 C2220 1.463 . S
C2217 C2222 1.350 . S
C2217 N2225 1.427 . S
C2218 H2209 0.930 . S
C2218 C2216 1.378 . S
C2218 C2219 1.367 . S
C2219 C2218 1.367 . S
C2219 C2221 1.433 . S
C2220 C2216 1.350 . S
C2220 C2217 1.463 . S
C2220 N2224 1.427 . S
C2221 H2211 0.929 . S
C2221 C2219 1.433 . S
C2221 N2224 1.384 . S
C2222 H2213 0.929 . S
C2222 C2214 1.378 . S
C2222 C2217 1.350 . S
C2223 H2210 0.929 . S
C2223 C2215 1.433 . S
C2223 N2225 1.384 . S
N2224 C2220 1.427 . S
N2224 C2221 1.384 . S
N2225 C2217 1.427 . S
N2225 C2223 1.384 . S
H2226 C2232 0.930 . S
H2227 C2236 0.930 . S
H2228 C2241 0.929 . S
H2229 C2239 0.929 . S
H2230 C2234 0.929 1_565 S
H2231 C2240 0.929 1_545 S
C2232 H2226 0.930 . S
C2232 C2233 1.367 . S
C2232 C2240 1.378 . S
C2233 C2232 1.367 . S
C2233 C2241 1.433 . S
C2234 H2230 0.929 1_545 S
C2234 C2236 1.378 . S
C2234 C2238 1.350 . S
C2235 C2238 1.463 1_465 S
C2235 C2240 1.350 . S
C2235 N2243 1.427 . S
C2236 H2227 0.930 . S
C2236 C2234 1.378 . S
C2236 C2237 1.367 . S
C2237 C2236 1.367 . S
C2237 C2239 1.433 . S
C2238 C2234 1.350 . S
C2238 C2235 1.463 1_645 S
C2238 N2242 1.427 . S
C2239 H2229 0.929 . S
C2239 C2237 1.433 . S
C2239 N2242 1.384 . S
C2240 H2231 0.929 1_565 S
C2240 C2232 1.378 . S
C2240 C2235 1.350 . S
C2241 H2228 0.929 . S
C2241 C2233 1.433 . S
C2241 N2243 1.384 . S
N2242 C2238 1.427 . S
N2242 C2239 1.384 . S
N2243 C2235 1.427 . S
N2243 C2241 1.384 . S
H2244 C2250 0.930 . S
H2245 C2254 0.930 . S
H2246 C2259 0.929 . S
H2247 C2257 0.929 . S
H2248 C2252 0.929 . S
H2249 C2258 0.929 . S
C2250 H2244 0.930 . S
C2250 C2251 1.367 . S
C2250 C2258 1.378 . S
C2251 C2250 1.367 . S
C2251 C2259 1.433 . S
C2252 H2248 0.929 . S
C2252 C2254 1.378 . S
C2252 C2256 1.350 . S
C2253 C2256 1.463 . S
C2253 C2258 1.350 . S
C2253 N2261 1.427 . S
C2254 H2245 0.930 . S
C2254 C2252 1.378 . S
C2254 C2255 1.367 . S
C2255 C2254 1.367 . S
C2255 C2257 1.433 . S
C2256 C2252 1.350 . S
C2256 C2253 1.463 . S
C2256 N2260 1.427 . S
C2257 H2247 0.929 . S
C2257 C2255 1.433 . S
C2257 N2260 1.384 . S
C2258 H2249 0.929 . S
C2258 C2250 1.378 . S
C2258 C2253 1.350 . S
C2259 H2246 0.929 . S
C2259 C2251 1.433 . S
C2259 N2261 1.384 . S
N2260 C2256 1.427 . S
N2260 C2257 1.384 . S
N2261 C2253 1.427 . S
N2261 C2259 1.384 . S
H2262 C2268 0.930 . S
H2263 C2272 0.930 . S
H2264 C2277 0.929 . S
H2265 C2275 0.929 . S
H2266 C2270 0.929 . S
H2267 C2276 0.929 . S
C2268 H2262 0.930 . S
C2268 C2269 1.367 . S
C2268 C2276 1.378 . S
C2269 C2268 1.367 . S
C2269 C2277 1.433 1_556 S
C2270 H2266 0.929 . S
C2270 C2272 1.378 . S
C2270 C2274 1.350 . S
C2271 C2274 1.463 1_566 S
C2271 C2276 1.350 . S
C2271 N2279 1.427 1_556 S
C2272 H2263 0.930 . S
C2272 C2270 1.378 . S
C2272 C2273 1.367 . S
C2273 C2272 1.367 . S
C2273 C2275 1.433 1_554 S
C2274 C2270 1.350 . S
C2274 C2271 1.463 1_544 S
C2274 N2278 1.427 1_554 S
C2275 H2265 0.929 . S
C2275 C2273 1.433 1_556 S
C2275 N2278 1.384 . S
C2276 H2267 0.929 . S
C2276 C2268 1.378 . S
C2276 C2271 1.350 . S
C2277 H2264 0.929 . S
C2277 C2269 1.433 1_554 S
C2277 N2279 1.384 . S
N2278 C2274 1.427 1_556 S
N2278 C2275 1.384 . S
N2279 C2271 1.427 1_554 S
N2279 C2277 1.384 . S
H2280 C2286 0.930 . S
H2281 C2290 0.930 . S
H2282 C2295 0.929 . S
H2283 C2293 0.929 . S
H2284 C2288 0.929 . S
H2285 C2294 0.929 . S
C2286 H2280 0.930 . S
C2286 C2287 1.367 . S
C2286 C2294 1.378 . S
C2287 C2286 1.367 . S
C2287 C2295 1.433 . S
C2288 H2284 0.929 . S
C2288 C2290 1.378 . S
C2288 C2292 1.350 . S
C2289 C2292 1.463 . S
C2289 C2294 1.350 . S
C2289 N2297 1.427 . S
C2290 H2281 0.930 . S
C2290 C2288 1.378 . S
C2290 C2291 1.367 . S
C2291 C2290 1.367 . S
C2291 C2293 1.433 . S
C2292 C2288 1.350 . S
C2292 C2289 1.463 . S
C2292 N2296 1.427 . S
C2293 H2283 0.929 . S
C2293 C2291 1.433 . S
C2293 N2296 1.384 . S
C2294 H2285 0.929 . S
C2294 C2286 1.378 . S
C2294 C2289 1.350 . S
C2295 H2282 0.929 . S
C2295 C2287 1.433 . S
C2295 N2297 1.384 . S
N2296 C2292 1.427 . S
N2296 C2293 1.384 . S
N2297 C2289 1.427 . S
N2297 C2295 1.384 . S
H2298 C2304 0.930 . S
H2299 C2308 0.930 . S
H2300 C2313 0.929 . S
H2301 C2311 0.929 . S
H2302 C2306 0.929 . S
H2303 C2312 0.929 . S
C2304 H2298 0.930 . S
C2304 C2305 1.367 . S
C2304 C2312 1.378 . S
C2305 C2304 1.367 . S
C2305 C2313 1.433 . S
C2306 H2302 0.929 . S
C2306 C2308 1.378 . S
C2306 C2310 1.350 . S
C2307 C2310 1.463 1_545 S
C2307 C2312 1.350 . S
C2307 N2315 1.427 . S
C2308 H2299 0.930 . S
C2308 C2306 1.378 . S
C2308 C2309 1.367 . S
C2309 C2308 1.367 . S
C2309 C2311 1.433 . S
C2310 C2306 1.350 . S
C2310 C2307 1.463 1_565 S
C2310 N2314 1.427 . S
C2311 H2301 0.929 . S
C2311 C2309 1.433 . S
C2311 N2314 1.384 . S
C2312 H2303 0.929 . S
C2312 C2304 1.378 . S
C2312 C2307 1.350 . S
C2313 H2300 0.929 . S
C2313 C2305 1.433 . S
C2313 N2315 1.384 . S
N2314 C2310 1.427 . S
N2314 C2311 1.384 . S
N2315 C2307 1.427 . S
N2315 C2313 1.384 . S
H2316 C2322 0.930 . S
H2317 C2326 0.930 . S
H2318 C2331 0.929 . S
H2319 C2329 0.929 . S
H2320 C2324 0.929 . S
H2321 C2330 0.929 . S
C2322 H2316 0.930 . S
C2322 C2323 1.367 . S
C2322 C2330 1.378 . S
C2323 C2322 1.367 . S
C2323 C2331 1.433 . S
C2324 H2320 0.929 . S
C2324 C2326 1.378 . S
C2324 C2328 1.350 . S
C2325 C2328 1.463 . S
C2325 C2330 1.350 . S
C2325 N2333 1.427 . S
C2326 H2317 0.930 . S
C2326 C2324 1.378 . S
C2326 C2327 1.367 . S
C2327 C2326 1.367 . S
C2327 C2329 1.433 . S
C2328 C2324 1.350 . S
C2328 C2325 1.463 . S
C2328 N2332 1.427 . S
C2329 H2319 0.929 . S
C2329 C2327 1.433 . S
C2329 N2332 1.384 . S
C2330 H2321 0.929 . S
C2330 C2322 1.378 . S
C2330 C2325 1.350 . S
C2331 H2318 0.929 . S
C2331 C2323 1.433 . S
C2331 N2333 1.384 . S
N2332 C2328 1.427 . S
N2332 C2329 1.384 . S
N2333 C2325 1.427 . S
N2333 C2331 1.384 . S
H2334 C2340 0.930 . S
H2335 C2344 0.930 . S
H2336 C2349 0.929 . S
H2337 C2347 0.929 . S
H2338 C2342 0.929 . S
H2339 C2348 0.929 . S
C2340 H2334 0.930 . S
C2340 C2341 1.367 1_556 S
C2340 C2348 1.378 . S
C2341 C2340 1.367 1_554 S
C2341 C2349 1.433 . S
C2342 H2338 0.929 . S
C2342 C2344 1.378 . S
C2342 C2346 1.314 1_554 S
C2343 C2346 1.459 1_664 S
C2343 C2348 1.314 1_554 S
C2343 N2351 1.469 . S
C2344 H2335 0.930 . S
C2344 C2342 1.378 . S
C2344 C2345 1.367 1_554 S
C2345 C2344 1.367 1_556 S
C2345 C2347 1.433 . S
C2346 C2342 1.314 1_556 S
C2346 C2343 1.459 1_446 S
C2346 N2350 1.469 . S
C2347 H2337 0.929 . S
C2347 C2345 1.433 . S
C2347 N2350 1.384 . S
C2348 H2339 0.929 . S
C2348 C2340 1.378 . S
C2348 C2343 1.314 1_556 S
C2349 H2336 0.929 . S
C2349 C2341 1.433 . S
C2349 N2351 1.384 . S
N2350 C2346 1.469 . S
N2350 C2347 1.384 . S
N2351 C2343 1.469 . S
N2351 C2349 1.384 . S
H2352 C2358 0.930 . S
H2353 C2362 0.930 . S
H2354 C2367 0.929 . S
H2355 C2365 0.929 . S
H2356 C2360 0.929 . S
H2357 C2366 0.929 . S
C2358 H2352 0.930 . S
C2358 C2359 1.367 . S
C2358 C2366 1.378 . S
C2359 C2358 1.367 . S
C2359 C2367 1.433 . S
C2360 H2356 0.929 . S
C2360 C2362 1.378 . S
C2360 C2364 1.350 . S
C2361 C2364 1.463 . S
C2361 C2366 1.350 . S
C2361 N2369 1.427 . S
C2362 H2353 0.930 . S
C2362 C2360 1.378 . S
C2362 C2363 1.367 . S
C2363 C2362 1.367 . S
C2363 C2365 1.433 . S
C2364 C2360 1.350 . S
C2364 C2361 1.463 . S
C2364 N2368 1.427 . S
C2365 H2355 0.929 . S
C2365 C2363 1.433 . S
C2365 N2368 1.384 . S
C2366 H2357 0.929 . S
C2366 C2358 1.378 . S
C2366 C2361 1.350 . S
C2367 H2354 0.929 . S
C2367 C2359 1.433 . S
C2367 N2369 1.384 . S
N2368 C2364 1.427 . S
N2368 C2365 1.384 . S
N2369 C2361 1.427 . S
N2369 C2367 1.384 . S
H2370 C2376 0.930 . S
H2371 C2380 0.930 . S
H2372 C2385 0.929 . S
H2373 C2383 0.929 . S
H2374 C2378 0.929 . S
H2375 C2384 0.929 . S
C2376 H2370 0.930 . S
C2376 C2377 1.367 . S
C2376 C2384 1.378 . S
C2377 C2376 1.367 . S
C2377 C2385 1.433 . S
C2378 H2374 0.929 . S
C2378 C2380 1.378 . S
C2378 C2382 1.350 . S
C2379 C2382 1.463 . S
C2379 C2384 1.350 . S
C2379 N2387 1.427 . S
C2380 H2371 0.930 . S
C2380 C2378 1.378 . S
C2380 C2381 1.367 . S
C2381 C2380 1.367 . S
C2381 C2383 1.433 . S
C2382 C2378 1.350 . S
C2382 C2379 1.463 . S
C2382 N2386 1.427 . S
C2383 H2373 0.929 . S
C2383 C2381 1.433 . S
C2383 N2386 1.384 . S
C2384 H2375 0.929 . S
C2384 C2376 1.378 . S
C2384 C2379 1.350 . S
C2385 H2372 0.929 . S
C2385 C2377 1.433 . S
C2385 N2387 1.384 . S
N2386 C2382 1.427 . S
N2386 C2383 1.384 . S
N2387 C2379 1.427 . S
N2387 C2385 1.384 . S
H2388 C2394 0.930 . S
H2389 C2398 0.930 . S
H2390 C2403 0.929 . S
H2391 C2401 0.929 . S
H2392 C2396 0.929 . S
H2393 C2402 0.929 . S
C2394 H2388 0.930 . S
C2394 C2395 1.367 . S
C2394 C2402 1.378 . S
C2395 C2394 1.367 . S
C2395 C2403 1.433 . S
C2396 H2392 0.929 . S
C2396 C2398 1.378 . S
C2396 C2400 1.350 . S
C2397 C2400 1.463 . S
C2397 C2402 1.350 . S
C2397 N2405 1.427 . S
C2398 H2389 0.930 . S
C2398 C2396 1.378 . S
C2398 C2399 1.367 . S
C2399 C2398 1.367 . S
C2399 C2401 1.433 . S
C2400 C2396 1.350 . S
C2400 C2397 1.463 . S
C2400 N2404 1.427 . S
C2401 H2391 0.929 . S
C2401 C2399 1.433 . S
C2401 N2404 1.384 . S
C2402 H2393 0.929 . S
C2402 C2394 1.378 . S
C2402 C2397 1.350 . S
C2403 H2390 0.929 . S
C2403 C2395 1.433 . S
C2403 N2405 1.384 . S
N2404 C2400 1.427 . S
N2404 C2401 1.384 . S
N2405 C2397 1.427 . S
N2405 C2403 1.384 . S
H2406 C2412 0.930 . S
H2407 C2416 0.930 . S
H2408 C2421 0.929 . S
H2409 C2419 0.929 . S
H2410 C2414 0.929 . S
H2411 C2420 0.929 . S
C2412 H2406 0.930 . S
C2412 C2413 1.367 . S
C2412 C2420 1.378 . S
C2413 C2412 1.367 . S
C2413 C2421 1.433 . S
C2414 H2410 0.929 . S
C2414 C2416 1.378 . S
C2414 C2418 1.350 . S
C2415 C2418 1.463 . S
C2415 C2420 1.350 . S
C2415 N2423 1.427 . S
C2416 H2407 0.930 . S
C2416 C2414 1.378 . S
C2416 C2417 1.367 . S
C2417 C2416 1.367 . S
C2417 C2419 1.433 . S
C2418 C2414 1.350 . S
C2418 C2415 1.463 . S
C2418 N2422 1.427 . S
C2419 H2409 0.929 . S
C2419 C2417 1.433 . S
C2419 N2422 1.384 . S
C2420 H2411 0.929 . S
C2420 C2412 1.378 . S
C2420 C2415 1.350 . S
C2421 H2408 0.929 . S
C2421 C2413 1.433 . S
C2421 N2423 1.384 . S
N2422 C2418 1.427 . S
N2422 C2419 1.384 . S
N2423 C2415 1.427 . S
N2423 C2421 1.384 . S
H2424 C2430 0.930 . S
H2425 C2434 0.930 . S
H2426 C2439 0.929 . S
H2427 C2437 0.929 . S
H2428 C2432 0.929 . S
H2429 C2438 0.929 . S
C2430 H2424 0.930 . S
C2430 C2431 1.367 1_554 S
C2430 C2438 1.378 . S
C2431 C2430 1.367 1_556 S
C2431 C2439 1.433 . S
C2432 H2428 0.929 . S
C2432 C2434 1.378 . S
C2432 C2436 1.316 1_556 S
C2433 C2436 1.458 1_556 S
C2433 C2438 1.316 1_556 S
C2433 N2441 1.469 . S
C2434 H2425 0.930 . S
C2434 C2432 1.378 . S
C2434 C2435 1.367 1_556 S
C2435 C2434 1.367 1_554 S
C2435 C2437 1.433 . S
C2436 C2432 1.316 1_554 S
C2436 C2433 1.458 1_554 S
C2436 N2440 1.469 . S
C2437 H2427 0.929 . S
C2437 C2435 1.433 . S
C2437 N2440 1.384 . S
C2438 H2429 0.929 . S
C2438 C2430 1.378 . S
C2438 C2433 1.316 1_554 S
C2439 H2426 0.929 . S
C2439 C2431 1.433 . S
C2439 N2441 1.384 . S
N2440 C2436 1.469 . S
N2440 C2437 1.384 . S
N2441 C2433 1.469 . S
N2441 C2439 1.384 . S
H2442 C2448 0.930 . S
H2443 C2452 0.930 . S
H2444 C2457 0.929 . S
H2445 C2455 0.929 . S
H2446 C2450 0.929 . S
H2447 C2456 0.929 . S
C2448 H2442 0.930 . S
C2448 C2449 1.367 . S
C2448 C2456 1.378 . S
C2449 C2448 1.367 . S
C2449 C2457 1.433 . S
C2450 H2446 0.929 . S
C2450 C2452 1.378 . S
C2450 C2454 1.350 . S
C2451 C2454 1.463 1_655 S
C2451 C2456 1.350 . S
C2451 N2459 1.427 . S
C2452 H2443 0.930 . S
C2452 C2450 1.378 . S
C2452 C2453 1.367 . S
C2453 C2452 1.367 . S
C2453 C2455 1.433 . S
C2454 C2450 1.350 . S
C2454 C2451 1.463 1_455 S
C2454 N2458 1.427 . S
C2455 H2445 0.929 . S
C2455 C2453 1.433 . S
C2455 N2458 1.384 . S
C2456 H2447 0.929 . S
C2456 C2448 1.378 . S
C2456 C2451 1.350 . S
C2457 H2444 0.929 . S
C2457 C2449 1.433 . S
C2457 N2459 1.384 . S
N2458 C2454 1.427 . S
N2458 C2455 1.384 . S
N2459 C2451 1.427 . S
N2459 C2457 1.384 . S
H2460 C2466 0.930 . S
H2461 C2470 0.930 . S
H2462 C2475 0.929 . S
H2463 C2473 0.929 . S
H2464 C2468 0.929 . S
H2465 C2474 0.929 . S
C2466 H2460 0.930 . S
C2466 C2467 1.367 1_556 S
C2466 C2474 1.378 . S
C2467 C2466 1.367 1_554 S
C2467 C2475 1.433 . S
C2468 H2464 0.929 . S
C2468 C2470 1.378 . S
C2468 C2472 1.350 1_554 S
C2469 C2472 1.463 1_454 S
C2469 C2474 1.350 1_554 S
C2469 N2477 1.427 . S
C2470 H2461 0.930 . S
C2470 C2468 1.378 . S
C2470 C2471 1.367 1_554 S
C2471 C2470 1.367 1_556 S
C2471 C2473 1.433 . S
C2472 C2468 1.350 1_556 S
C2472 C2469 1.463 1_656 S
C2472 N2476 1.427 . S
C2473 H2463 0.929 . S
C2473 C2471 1.433 . S
C2473 N2476 1.384 . S
C2474 H2465 0.929 . S
C2474 C2466 1.378 . S
C2474 C2469 1.350 1_556 S
C2475 H2462 0.929 . S
C2475 C2467 1.433 . S
C2475 N2477 1.384 . S
N2476 C2472 1.427 . S
N2476 C2473 1.384 . S
N2477 C2469 1.427 . S
N2477 C2475 1.384 . S
H2478 C2484 0.930 . S
H2479 C2488 0.930 . S
H2480 C2493 0.929 . S
H2481 C2491 0.929 . S
H2482 C2486 0.929 . S
H2483 C2492 0.929 . S
C2484 H2478 0.930 . S
C2484 C2485 1.367 . S
C2484 C2492 1.378 . S
C2485 C2484 1.367 . S
C2485 C2493 1.433 . S
C2486 H2482 0.929 . S
C2486 C2488 1.378 . S
C2486 C2490 1.350 . S
C2487 C2490 1.463 . S
C2487 C2492 1.350 . S
C2487 N2495 1.427 . S
C2488 H2479 0.930 . S
C2488 C2486 1.378 . S
C2488 C2489 1.367 . S
C2489 C2488 1.367 . S
C2489 C2491 1.433 . S
C2490 C2486 1.350 . S
C2490 C2487 1.463 . S
C2490 N2494 1.427 . S
C2491 H2481 0.929 . S
C2491 C2489 1.433 . S
C2491 N2494 1.384 . S
C2492 H2483 0.929 . S
C2492 C2484 1.378 . S
C2492 C2487 1.350 . S
C2493 H2480 0.929 . S
C2493 C2485 1.433 . S
C2493 N2495 1.384 . S
N2494 C2490 1.427 . S
N2494 C2491 1.384 . S
N2495 C2487 1.427 . S
N2495 C2493 1.384 . S
C1063 N244 1.923 . S
C1067 N13 1.937 . S
C1081 N46 1.937 . S
C1085 N145 1.924 . S
C1099 N79 1.927 . S
C1103 N178 1.935 . S
C1117 N211 1.931 . S
C1121 N112 1.927 . S
C1135 N508 1.933 . S
C1139 N277 1.929 . S
C1153 N409 1.937 . S
C1157 N310 1.923 . S
C1171 N343 1.937 . S
C1175 N442 1.923 . S
C1189 N376 1.928 . S
C1193 N475 1.934 . S
C1207 N772 1.937 . S
C1211 N541 1.924 . S
C1225 N574 1.928 . S
C1229 N673 1.930 . S
C1243 N607 1.931 . S
C1247 N706 1.928 . S
C1261 N739 1.930 . S
C1265 N640 1.928 . S
C1279 N1036 1.928 . S
C1283 N805 1.934 . S
C1297 N838 1.930 . S
C1301 N937 1.929 . S
C1315 N970 1.927 . S
C1319 N871 1.935 . S
C1333 N1003 1.923 . S
C1337 N904 1.937 . S
C1351 C601 0.988 . S
C1355 C7 1.003 . S
C1369 C634 0.994 . S
C1373 C40 0.983 . S
C1387 C73 0.986 . S
C1391 C535 0.988 . S
C1405 C106 0.997 . S
C1409 C568 1.001 . S
C1423 C733 0.984 . S
C1427 C139 1.001 . S
C1441 C766 0.991 . S
C1445 C172 1.003 . S
C1459 C205 0.986 . S
C1463 C667 1.002 . S
C1477 C238 0.984 . S
C1481 C700 1.000 . S
C1495 C271 1.002 . S
C1499 C865 0.996 . S
C1513 C898 1.003 . S
C1517 C304 0.994 . S
C1531 C799 0.993 . S
C1535 C337 1.003 . S
C1549 C370 0.987 . S
C1553 C832 1.003 . S
C1567 C403 0.988 . S
C1571 C997 1.003 . S
C1585 C1030 1.003 . S
C1589 C436 0.992 . S
C1603 C931 1.000 . S
C1607 C469 0.984 . S
C1621 C964 1.003 . S
C1625 C502 0.989 . S
C1639 N2 0.948 . S
C1643 C912 0.884 . S
C1657 C285 0.855 . S
C1661 N35 0.934 1_655 S
C1675 C846 0.892 . S
C1679 N68 0.954 . S
C1693 N101 0.954 . S
C1697 C351 0.891 . S
C1711 C978 0.866 . S
C1715 N134 0.938 . S
C1729 C483 0.850 . S
C1733 N167 0.931 . S
C1747 N200 0.951 . S
C1751 C1044 0.888 . S
C1765 N233 0.930 1_655 S
C1769 C417 0.850 . S
C1783 N266 0.954 . S
C1787 C648 0.892 . S
C1801 N299 0.954 1_455 S
C1805 C21 0.892 . S
C1819 C582 0.849 . S
C1823 N332 0.930 . S
C1837 N365 0.935 . S
C1841 C87 0.857 . S
C1855 C714 0.892 . S
C1859 N398 0.954 . S
C1873 N431 0.952 . S
C1877 C219 0.890 . S
C1891 N464 0.932 . S
C1895 C780 0.851 . S
C1909 C153 0.892 . S
C1913 N497 0.954 1_455 S
C1927 N530 0.943 . S
C1931 C384 0.869 . S
C1945 C813 0.884 . S
C1949 N563 0.948 . S
C1963 C318 0.885 . S
C1967 N596 0.951 . S
C1981 N629 0.952 1_455 S
C1985 C879 0.889 . S
C1999 N662 0.953 . S
C2003 C450 0.889 . S
C2017 C1011 0.891 . S
C2021 N695 0.954 1_455 S
C2035 N728 0.941 . S
C2039 C516 0.872 . S
C2053 C945 0.849 . S
C2057 N761 0.930 . S
C2071 C120 0.891 . S
C2075 N794 0.953 . S
C2089 C549 0.849 . S
C2093 N827 0.929 . S
C2107 C54 0.879 . S
C2111 N860 0.945 . S
C2125 C615 0.891 . S
C2129 N893 0.954 1_655 S
C2143 N926 0.954 . S
C2147 C186 0.891 . S
C2161 C747 0.856 . S
C2165 N959 0.935 1_655 S
C2179 C252 0.851 . S
C2183 N992 0.932 . S
C2197 C681 0.879 . S
C2201 N1025 0.945 . S
C2215 C18 1.385 . S
C2219 C810 1.385 . S
C2233 C51 1.386 . S
C2237 C315 1.386 . S
C2251 C876 1.378 . S
C2255 C84 1.378 . S
C2269 C381 1.380 . S
C2273 C117 1.380 . S
C2287 C942 1.378 . S
C2291 C150 1.378 . S
C2305 C447 1.378 . S
C2309 C183 1.378 . S
C2323 C1008 1.384 . S
C2327 C216 1.384 . S
C2341 C513 1.387 . S
C2345 C249 1.387 . S
C2359 C282 1.379 . S
C2363 C546 1.379 . S
C2377 C612 1.378 . S
C2381 C348 1.378 . S
C2395 C414 1.378 . S
C2399 C678 1.378 . S
C2413 C480 1.390 . S
C2417 C744 1.390 . S
C2431 C843 1.390 . S
C2435 C579 1.390 . S
C2449 C645 1.382 . S
C2453 C909 1.382 . S
C2467 C975 1.390 . S
C2471 C711 1.390 . S
C2485 C1041 1.384 . S
C2489 C777 1.384 . S
