# Generated by pormake.
# Topology uki, (4)-cn, num edge types: 1
# Building blocks:
#     Node 0, Type 0, BuildingBlock: MUDLON_clean_sbu_0, # of connection points: 4
#     Node 1, Type 0, BuildingBlock: MUDLON_clean_sbu_0, # of connection points: 4
#     Node 2, Type 0, BuildingBlock: MUDLON_clean_sbu_0, # of connection points: 4
#     Node 3, Type 0, BuildingBlock: MUDLON_clean_sbu_0, # of connection points: 4
#     Node 4, Type 0, BuildingBlock: MUDLON_clean_sbu_0, # of connection points: 4
#     Node 5, Type 0, BuildingBlock: MUDLON_clean_sbu_0, # of connection points: 4
#     Node 6, Type 0, BuildingBlock: MUDLON_clean_sbu_0, # of connection points: 4
#     Node 7, Type 0, BuildingBlock: MUDLON_clean_sbu_0, # of connection points: 4
#     Node 8, Type 0, BuildingBlock: MUDLON_clean_sbu_0, # of connection points: 4
#     Node 9, Type 0, BuildingBlock: MUDLON_clean_sbu_0, # of connection points: 4
#     Node 10, Type 0, BuildingBlock: MUDLON_clean_sbu_0, # of connection points: 4
#     Node 11, Type 0, BuildingBlock: MUDLON_clean_sbu_0, # of connection points: 4
#     Node 12, Type 0, BuildingBlock: MUDLON_clean_sbu_0, # of connection points: 4
#     Node 13, Type 0, BuildingBlock: MUDLON_clean_sbu_0, # of connection points: 4
#     Node 14, Type 0, BuildingBlock: MUDLON_clean_sbu_0, # of connection points: 4
#     Node 15, Type 0, BuildingBlock: MUDLON_clean_sbu_0, # of connection points: 4
#     Edge 16, Type (0, 0), BuildingBlock: XUDNAN_clean_linker_2, # of connection points: 2
#     Edge 17, Type (0, 0), BuildingBlock: XUDNAN_clean_linker_2, # of connection points: 2
#     Edge 18, Type (0, 0), BuildingBlock: XUDNAN_clean_linker_2, # of connection points: 2
#     Edge 19, Type (0, 0), BuildingBlock: XUDNAN_clean_linker_2, # of connection points: 2
#     Edge 20, Type (0, 0), BuildingBlock: XUDNAN_clean_linker_2, # of connection points: 2
#     Edge 21, Type (0, 0), BuildingBlock: XUDNAN_clean_linker_2, # of connection points: 2
#     Edge 22, Type (0, 0), BuildingBlock: XUDNAN_clean_linker_2, # of connection points: 2
#     Edge 23, Type (0, 0), BuildingBlock: XUDNAN_clean_linker_2, # of connection points: 2
#     Edge 24, Type (0, 0), BuildingBlock: XUDNAN_clean_linker_2, # of connection points: 2
#     Edge 25, Type (0, 0), BuildingBlock: XUDNAN_clean_linker_2, # of connection points: 2
#     Edge 26, Type (0, 0), BuildingBlock: XUDNAN_clean_linker_2, # of connection points: 2
#     Edge 27, Type (0, 0), BuildingBlock: XUDNAN_clean_linker_2, # of connection points: 2
#     Edge 28, Type (0, 0), BuildingBlock: XUDNAN_clean_linker_2, # of connection points: 2
#     Edge 29, Type (0, 0), BuildingBlock: XUDNAN_clean_linker_2, # of connection points: 2
#     Edge 30, Type (0, 0), BuildingBlock: XUDNAN_clean_linker_2, # of connection points: 2
#     Edge 31, Type (0, 0), BuildingBlock: XUDNAN_clean_linker_2, # of connection points: 2
#     Edge 32, Type (0, 0), BuildingBlock: XUDNAN_clean_linker_2, # of connection points: 2
#     Edge 33, Type (0, 0), BuildingBlock: XUDNAN_clean_linker_2, # of connection points: 2
#     Edge 34, Type (0, 0), BuildingBlock: XUDNAN_clean_linker_2, # of connection points: 2
#     Edge 35, Type (0, 0), BuildingBlock: XUDNAN_clean_linker_2, # of connection points: 2
#     Edge 36, Type (0, 0), BuildingBlock: XUDNAN_clean_linker_2, # of connection points: 2
#     Edge 37, Type (0, 0), BuildingBlock: XUDNAN_clean_linker_2, # of connection points: 2
#     Edge 38, Type (0, 0), BuildingBlock: XUDNAN_clean_linker_2, # of connection points: 2
#     Edge 39, Type (0, 0), BuildingBlock: XUDNAN_clean_linker_2, # of connection points: 2
#     Edge 40, Type (0, 0), BuildingBlock: XUDNAN_clean_linker_2, # of connection points: 2
#     Edge 41, Type (0, 0), BuildingBlock: XUDNAN_clean_linker_2, # of connection points: 2
#     Edge 42, Type (0, 0), BuildingBlock: XUDNAN_clean_linker_2, # of connection points: 2
#     Edge 43, Type (0, 0), BuildingBlock: XUDNAN_clean_linker_2, # of connection points: 2
#     Edge 44, Type (0, 0), BuildingBlock: XUDNAN_clean_linker_2, # of connection points: 2
#     Edge 45, Type (0, 0), BuildingBlock: XUDNAN_clean_linker_2, # of connection points: 2
#     Edge 46, Type (0, 0), BuildingBlock: XUDNAN_clean_linker_2, # of connection points: 2
#     Edge 47, Type (0, 0), BuildingBlock: XUDNAN_clean_linker_2, # of connection points: 2
# Relax obj value: 0.065
# Max RMSD: 0.231
# Mean RMSD: 0.231
data_MOF--net-uki--node1-MUDLON_clean_sbu_0--edge1-XUDNAN_clean_linker_2
_symmetry_space_group_name_H-M    P1
_symmetry_Int_Tables_number       1
_symmetry_cell_setting            triclinic
loop_
_symmetry_equiv_pos_as_xyz
'x, y, z'
_cell_length_a     32.833952
_cell_length_b     32.977609
_cell_length_c     73.08573
_cell_angle_alpha  89.994849
_cell_angle_beta   89.91848
_cell_angle_gamma 89.997523
loop_
_atom_site_label
_atom_site_type_symbol
_atom_site_fract_x
_atom_site_fract_y
_atom_site_fract_z
_atom_type_partial_charge
Mg0 Mg 0.09541 0.23443 0.31028 0.0
C1 C 0.03381 0.30119 0.31296 0.0
O2 O 0.06525 0.32138 0.30656 0.0
C3 C 0.14213 0.23474 0.34782 0.0
O4 O 0.10632 0.23808 0.35572 0.0
C5 C 0.15472 0.27921 0.28588 0.0
O6 O 0.17986 0.26783 0.29887 0.0
O7 O 0.11785 0.26757 0.28658 0.0
O8 O 0.03894 0.26457 0.3179 0.0
O9 O 0.07756 0.17335 0.30279 0.0
C10 C 0.06743 0.14916 0.31555 0.0
O11 O 0.07054 0.16138 0.3326 0.0
O12 O 0.14436 0.2329 0.33047 0.0
Mg13 Mg 0.23019 0.92786 0.70629 0.0
C14 C 0.25042 1.00499 0.7209 0.0
O15 O 0.23016 0.98431 0.73331 0.0
C16 C 0.22962 0.85076 0.68664 0.0
O17 O 0.22061 0.84189 0.7037 0.0
C18 C 0.30043 0.88979 0.72319 0.0
O19 O 0.31137 0.89704 0.7062 0.0
O20 O 0.26448 0.89905 0.72813 0.0
O21 O 0.25649 0.98846 0.70539 0.0
O22 O 0.16663 0.93834 0.71291 0.0
C23 C 0.14472 0.9519 0.69995 0.0
O24 O 0.1608 0.95499 0.68354 0.0
O25 O 0.23542 0.88783 0.68248 0.0
Mg26 Mg 0.92911 0.78935 0.30765 0.0
C27 C 1.00858 0.73624 0.31157 0.0
O28 O 0.98606 0.7085 0.31959 0.0
C29 C 0.86359 0.76752 0.33534 0.0
O30 O 0.84725 0.75167 0.32059 0.0
C31 C 0.90422 0.72496 0.28027 0.0
O32 O 0.93805 0.70858 0.28632 0.0
O33 O 0.89324 0.75926 0.28652 0.0
O34 O 0.99241 0.76938 0.30645 0.0
O35 O 0.93488 0.85351 0.30175 0.0
C36 C 0.95085 0.87499 0.31427 0.0
O37 O 0.95963 0.85778 0.33 0.0
O38 O 0.89877 0.78365 0.3342 0.0
Mg39 Mg 0.7884 0.10389 0.70129 0.0
C40 C 0.76892 0.0277 0.7188 0.0
O41 O 0.78982 0.04893 0.73077 0.0
C42 C 0.78733 0.171 0.67325 0.0
O43 O 0.79169 0.19219 0.68835 0.0
C44 C 0.71968 0.15105 0.71626 0.0
O45 O 0.70719 0.14177 0.69971 0.0
O46 O 0.75511 0.14001 0.72116 0.0
O47 O 0.76196 0.04345 0.70321 0.0
O48 O 0.85172 0.09447 0.70862 0.0
C49 C 0.87415 0.07839 0.69642 0.0
O50 O 0.85879 0.0721 0.68007 0.0
O51 O 0.78464 0.13253 0.67438 0.0
Mg52 Mg 0.10682 0.29212 0.96269 0.0
C53 C 0.02388 0.27978 0.97492 0.0
O54 O 0.04109 0.30393 0.98694 0.0
C55 C 0.17979 0.26965 0.93982 0.0
O56 O 0.19092 0.25667 0.95605 0.0
C57 C 0.12888 0.21996 0.98377 0.0
O58 O 0.10809 0.20599 0.96977 0.0
O59 O 0.13424 0.25805 0.98505 0.0
O60 O 0.04488 0.26839 0.96119 0.0
O61 O 0.09846 0.35585 0.9691 0.0
C62 C 0.08622 0.37863 0.95619 0.0
O63 O 0.08334 0.36344 0.93962 0.0
O64 O 0.14469 0.28565 0.93804 0.0
Mg65 Mg 0.30413 0.92049 0.05941 0.0
C66 C 0.26 0.98878 0.04292 0.0
O67 O 0.26812 0.96472 0.02908 0.0
C68 C 0.30067 0.84552 0.08114 0.0
O69 O 0.31297 0.83373 0.06488 0.0
C70 C 0.24204 0.8735 0.04077 0.0
O71 O 0.22721 0.88157 0.05708 0.0
O72 O 0.27784 0.88561 0.03694 0.0
O73 O 0.27191 0.97854 0.05884 0.0
O74 O 0.36894 0.93327 0.05757 0.0
C75 C 0.38506 0.95713 0.04595 0.0
O76 O 0.36236 0.97298 0.03301 0.0
O77 O 0.29442 0.88318 0.08384 0.0
Mg78 Mg 0.93374 0.73395 0.96015 0.0
C79 C 1.00948 0.75592 0.97667 0.0
O80 O 0.988 0.73622 0.98899 0.0
C81 C 0.8747 0.71489 0.92952 0.0
O82 O 0.87214 0.68084 0.93878 0.0
C83 C 0.88789 0.8011 0.97643 0.0
O84 O 0.89307 0.81211 0.9593 0.0
O85 O 0.90098 0.76655 0.98143 0.0
O86 O 0.99416 0.76081 0.96085 0.0
O87 O 0.94405 0.67046 0.96646 0.0
C88 C 0.96287 0.64983 0.95442 0.0
O89 O 0.97165 0.66698 0.93867 0.0
O90 O 0.89974 0.74196 0.93477 0.0
Mg91 Mg 0.74371 0.10899 0.05843 0.0
C92 C 0.77438 0.03801 0.03955 0.0
O93 O 0.75395 0.05878 0.02727 0.0
C94 C 0.72975 0.16661 0.08947 0.0
O95 O 0.69441 0.1677 0.08107 0.0
C96 C 0.78463 0.17577 0.03721 0.0
O97 O 0.78879 0.18957 0.05396 0.0
O98 O 0.76343 0.144 0.03465 0.0
O99 O 0.77672 0.05209 0.05572 0.0
O100 O 0.68019 0.09047 0.05934 0.0
C101 C 0.65572 0.08574 0.04604 0.0
O102 O 0.66725 0.09572 0.02942 0.0
O103 O 0.75734 0.14311 0.08333 0.0
Mg104 Mg 0.60731 0.73593 0.80233 0.0
C105 C 0.5387 0.77296 0.78426 0.0
O106 O 0.55869 0.75272 0.77163 0.0
C107 C 0.66242 0.7157 0.83458 0.0
O108 O 0.65921 0.67908 0.82764 0.0
C109 C 0.66528 0.79072 0.78402 0.0
O110 O 0.66648 0.80223 0.80122 0.0
O111 O 0.64405 0.7598 0.77987 0.0
O112 O 0.55256 0.77288 0.80051 0.0
O113 O 0.58606 0.67346 0.79909 0.0
C114 C 0.55015 0.66713 0.80506 0.0
O115 O 0.53068 0.69701 0.8131 0.0
O116 O 0.64219 0.74453 0.82742 0.0
Mg117 Mg 0.73779 0.42537 0.22089 0.0
C118 C 0.74879 0.51783 0.21573 0.0
O119 O 0.71007 0.51758 0.21123 0.0
C120 C 0.72436 0.36947 0.1883 0.0
O121 O 0.68621 0.37816 0.19206 0.0
C122 C 0.80241 0.40854 0.24755 0.0
O123 O 0.81931 0.43307 0.23559 0.0
O124 O 0.76534 0.39836 0.24524 0.0
O125 O 0.76686 0.48443 0.2188 0.0
O126 O 0.67225 0.43539 0.22233 0.0
C127 C 0.65497 0.45839 0.23398 0.0
O128 O 0.67688 0.47482 0.24705 0.0
O129 O 0.75241 0.38582 0.19778 0.0
Mg130 Mg 0.41644 0.3028 0.80055 0.0
C131 C 0.48671 0.27304 0.77989 0.0
O132 O 0.4618 0.28724 0.76738 0.0
C133 C 0.35416 0.30332 0.83098 0.0
O134 O 0.33535 0.32571 0.81876 0.0
C135 C 0.36167 0.24112 0.7843 0.0
O136 O 0.36483 0.22893 0.80135 0.0
O137 O 0.37887 0.2741 0.77965 0.0
O138 O 0.47605 0.27522 0.79661 0.0
O139 O 0.42298 0.36824 0.7972 0.0
C140 C 0.45838 0.38405 0.79722 0.0
O141 O 0.49034 0.36036 0.79875 0.0
O142 O 0.38961 0.28984 0.8273 0.0
Mg143 Mg 0.29307 0.60137 0.21724 0.0
C144 C 0.27583 0.51511 0.22678 0.0
O145 O 0.31166 0.52075 0.23433 0.0
C146 C 0.28613 0.67118 0.19013 0.0
O147 O 0.29541 0.6923 0.20479 0.0
C148 C 0.24727 0.62219 0.25186 0.0
O149 O 0.24313 0.5826 0.25185 0.0
O150 O 0.26954 0.63864 0.23965 0.0
O151 O 0.25978 0.54413 0.21787 0.0
O152 O 0.35735 0.58472 0.2176 0.0
C153 C 0.38238 0.58331 0.23086 0.0
O154 O 0.37107 0.59607 0.24711 0.0
O155 O 0.28236 0.63286 0.19147 0.0
Mg156 Mg 0.60585 0.78943 0.46797 0.0
C157 C 0.5547 0.71044 0.46712 0.0
O158 O 0.58792 0.69277 0.47318 0.0
C159 C 0.65544 0.77145 0.43258 0.0
O160 O 0.62715 0.74421 0.42936 0.0
C161 C 0.61873 0.74748 0.50504 0.0
O162 O 0.57896 0.74337 0.50454 0.0
O163 O 0.63672 0.76728 0.49245 0.0
O164 O 0.55624 0.74732 0.46213 0.0
O165 O 0.57673 0.8488 0.47217 0.0
C166 C 0.53954 0.85153 0.46736 0.0
O167 O 0.52184 0.81974 0.46008 0.0
O168 O 0.65271 0.79361 0.44678 0.0
Mg169 Mg 0.78935 0.43486 0.5483 0.0
C170 C 0.77221 0.52331 0.55641 0.0
O171 O 0.81123 0.52207 0.56031 0.0
C172 C 0.79331 0.35519 0.56694 0.0
O173 O 0.80017 0.34637 0.54968 0.0
C174 C 0.72429 0.40698 0.52227 0.0
O175 O 0.70336 0.43229 0.5325 0.0
O176 O 0.76221 0.40277 0.52527 0.0
O177 O 0.75417 0.49049 0.55216 0.0
O178 O 0.85175 0.45307 0.54199 0.0
C179 C 0.87897 0.45333 0.55437 0.0
O180 O 0.86956 0.44021 0.57081 0.0
O181 O 0.7878 0.39219 0.57129 0.0
Mg182 Mg 0.43479 0.21532 0.46404 0.0
C183 C 0.52593 0.23463 0.46089 0.0
O184 O 0.52912 0.19548 0.45787 0.0
C185 C 0.35991 0.21871 0.44022 0.0
O186 O 0.34313 0.2166 0.45652 0.0
C187 C 0.3912 0.28229 0.48046 0.0
O188 O 0.40168 0.29449 0.46399 0.0
O189 O 0.40067 0.24649 0.48532 0.0
O190 O 0.49077 0.25028 0.46268 0.0
O191 O 0.44956 0.15243 0.4703 0.0
C192 C 0.42189 0.12553 0.46987 0.0
O193 O 0.38423 0.1367 0.46653 0.0
O194 O 0.39862 0.21856 0.43895 0.0
Mg195 Mg 0.24124 0.59445 0.55449 0.0
C196 C 0.26358 0.51801 0.53846 0.0
O197 O 0.24785 0.54017 0.52529 0.0
C198 C 0.24521 0.66401 0.58148 0.0
O199 O 0.24323 0.68461 0.56612 0.0
C200 C 0.31668 0.61649 0.53482 0.0
O201 O 0.32952 0.59265 0.54801 0.0
O202 O 0.27887 0.62498 0.53404 0.0
O203 O 0.26484 0.53285 0.55451 0.0
O204 O 0.1774 0.58721 0.54701 0.0
C205 C 0.15682 0.56501 0.55787 0.0
O206 O 0.17481 0.55075 0.57258 0.0
O207 O 0.2456 0.6254 0.5808 0.0
H208 H 0.22978 0.31434 0.28258 0.0
H209 H 0.10886 0.31408 0.25866 0.0
H210 H 0.12877 0.37086 0.23846 0.0
H211 H 0.24022 0.41861 0.28486 0.0
H212 H 0.29384 0.41947 0.27954 0.0
H213 H 0.27183 0.37555 0.29027 0.0
H214 H 0.29896 0.33012 0.26399 0.0
H215 H 0.32129 0.37397 0.25321 0.0
H216 H 0.28635 0.34237 0.24063 0.0
H217 H 0.15987 0.43277 0.22333 0.0
H218 H 0.19975 0.49333 0.21438 0.0
H219 H 0.29987 0.45192 0.2483 0.0
C220 C 0.2077 0.32552 0.27281 0.0
C221 C 0.16781 0.30959 0.27215 0.0
C222 C 0.1397 0.32559 0.25934 0.0
C223 C 0.15074 0.35786 0.2478 0.0
C224 C 0.19005 0.37355 0.24916 0.0
C225 C 0.21817 0.35764 0.26125 0.0
C226 C 0.25741 0.38166 0.26108 0.0
C227 C 0.26631 0.3999 0.28006 0.0
C228 C 0.29311 0.35546 0.25432 0.0
C229 C 0.24668 0.41421 0.24734 0.0
C230 C 0.20786 0.40894 0.24047 0.0
C231 C 0.19054 0.43683 0.22841 0.0
C232 C 0.21338 0.47116 0.22342 0.0
C233 C 0.25301 0.47729 0.23055 0.0
C234 C 0.26986 0.44799 0.24243 0.0
H235 H 0.51128 0.78923 0.75004 0.0
H236 H 0.47912 0.8029 0.8073 0.0
H237 H 0.41313 0.83361 0.7982 0.0
H238 H 0.46773 0.88296 0.73456 0.0
H239 H 0.45128 0.86173 0.71308 0.0
H240 H 0.49541 0.8414 0.72443 0.0
H241 H 0.46282 0.76977 0.72385 0.0
H242 H 0.41844 0.78993 0.71263 0.0
H243 H 0.41309 0.7623 0.73378 0.0
H244 H 0.34904 0.861 0.78211 0.0
H245 H 0.29593 0.88639 0.76086 0.0
H246 H 0.37293 0.85477 0.71473 0.0
C247 C 0.49049 0.79872 0.76073 0.0
C248 C 0.50023 0.79358 0.77938 0.0
C249 C 0.47226 0.80671 0.79292 0.0
C250 C 0.43469 0.82399 0.78787 0.0
C251 C 0.42589 0.8281 0.76927 0.0
C252 C 0.45331 0.81611 0.75597 0.0
C253 C 0.43728 0.82395 0.73694 0.0
C254 C 0.46454 0.85432 0.72665 0.0
C255 C 0.43263 0.78411 0.72617 0.0
C256 C 0.39636 0.84218 0.74151 0.0
C257 C 0.39 0.8442 0.76019 0.0
C258 C 0.35386 0.85967 0.76747 0.0
C259 C 0.32383 0.87385 0.75532 0.0
C260 C 0.33038 0.87267 0.73616 0.0
C261 C 0.36704 0.85633 0.7293 0.0
H262 H 0.82564 0.52735 0.22949 0.0
H263 H 0.71805 0.59521 0.21358 0.0
H264 H 0.74899 0.65773 0.22601 0.0
H265 H 0.83875 0.57338 0.27138 0.0
H266 H 0.89363 0.57356 0.27082 0.0
H267 H 0.86586 0.53563 0.25832 0.0
H268 H 0.90247 0.55669 0.22838 0.0
H269 H 0.93077 0.59451 0.24081 0.0
H270 H 0.90114 0.60892 0.22111 0.0
H271 H 0.78841 0.71102 0.2435 0.0
H272 H 0.83385 0.75085 0.26361 0.0
H273 H 0.91507 0.64743 0.26792 0.0
C274 C 0.80892 0.5555 0.22815 0.0
C275 C 0.76944 0.55636 0.22046 0.0
C276 C 0.74843 0.5938 0.2193 0.0
C277 C 0.76576 0.62949 0.22633 0.0
C278 C 0.80419 0.62724 0.23437 0.0
C279 C 0.82566 0.59123 0.23514 0.0
C280 C 0.86499 0.59604 0.24569 0.0
C281 C 0.86582 0.568 0.26255 0.0
C282 C 0.90203 0.58861 0.23325 0.0
C283 C 0.86185 0.64016 0.25118 0.0
C284 C 0.82678 0.65779 0.24442 0.0
C285 C 0.81627 0.69769 0.24863 0.0
C286 C 0.8422 0.72004 0.2601 0.0
C287 C 0.87814 0.70237 0.26727 0.0
C288 C 0.88811 0.66204 0.26252 0.0
H289 H 0.51152 0.25559 0.74522 0.0
H290 H 0.55106 0.25006 0.8018 0.0
H291 H 0.61695 0.22079 0.79173 0.0
H292 H 0.55495 0.1618 0.73134 0.0
H293 H 0.56855 0.17978 0.70885 0.0
H294 H 0.52568 0.20153 0.72066 0.0
H295 H 0.5574 0.27311 0.71709 0.0
H296 H 0.60049 0.25155 0.70533 0.0
H297 H 0.60824 0.28235 0.7254 0.0
H298 H 0.67879 0.19145 0.77496 0.0
H299 H 0.72882 0.16164 0.75341 0.0
H300 H 0.64662 0.18611 0.70829 0.0
C301 C 0.53403 0.24847 0.75555 0.0
C302 C 0.52621 0.25526 0.7743 0.0
C303 C 0.55641 0.2451 0.78735 0.0
C304 C 0.59394 0.2286 0.78175 0.0
C305 C 0.60061 0.22239 0.76309 0.0
C306 C 0.5713 0.23187 0.75023 0.0
C307 C 0.58507 0.22121 0.73108 0.0
C308 C 0.55689 0.18917 0.72249 0.0
C309 C 0.58798 0.25933 0.71902 0.0
C310 C 0.62673 0.20396 0.7351 0.0
C311 C 0.63544 0.20513 0.75359 0.0
C312 C 0.67223 0.19045 0.76046 0.0
C313 C 0.7005 0.17369 0.74812 0.0
C314 C 0.69161 0.17149 0.72917 0.0
C315 C 0.65436 0.18725 0.72268 0.0
H316 H 0.20903 1.00425 0.01476 0.0
H317 H 0.26256 0.06001 0.06275 0.0
H318 H 0.23169 0.12599 0.05394 0.0
H319 H 0.2253 0.08371 0.98447 0.0
H320 H 0.17797 0.07735 0.97234 0.0
H321 H 0.20132 0.03458 0.98341 0.0
H322 H 0.13517 0.02167 1.00194 0.0
H323 H 0.11143 0.06427 0.9908 0.0
H324 H 0.11358 0.06211 0.01543 0.0
H325 H 0.20006 0.18755 0.0375 0.0
H326 H 0.16719 0.23682 0.01652 0.0
H327 H 0.13353 0.13799 0.9804 0.0
C328 C 0.21386 0.0302 0.02359 0.0
C329 C 0.23824 0.02719 0.03939 0.0
C330 C 0.24372 0.06173 0.05063 0.0
C331 C 0.22643 0.09927 0.04569 0.0
C332 C 0.20329 0.10135 0.02968 0.0
C333 C 0.19654 0.06742 0.019 0.0
C334 C 0.17167 0.07728 1.00221 0.0
C335 C 0.1955 0.06767 0.98458 0.0
C336 C 0.13052 0.05502 1.00263 0.0
C337 C 0.16624 0.12237 1.00476 0.0
C338 C 0.18454 0.13594 0.02064 0.0
C339 C 0.18514 0.17707 0.02518 0.0
C340 C 0.16654 0.20484 0.01317 0.0
C341 C 0.14755 0.19124 0.99688 0.0
C342 C 0.14731 0.14942 0.99282 0.0
H343 H 0.1768 0.82585 0.04784 0.0
H344 H 0.2472 0.8765 1.00312 0.0
H345 H 0.19688 0.8491 0.98098 0.0
H346 H 0.14475 0.73319 0.02421 0.0
H347 H 0.09539 0.73384 0.03504 0.0
H348 H 0.13886 0.75469 0.04674 0.0
H349 H 0.10049 0.82291 0.05061 0.0
H350 H 0.05712 0.80246 0.03879 0.0
H351 H 0.0808 0.84838 0.03067 0.0
H352 H 0.1337 0.82118 0.96416 0.0
H353 H 0.06749 0.79185 0.95443 0.0
H354 H 0.04181 0.75914 0.01079 0.0
C355 C 0.18204 0.8307 0.03336 0.0
C356 C 0.2158 0.85326 0.02715 0.0
C357 C 0.22163 0.85894 1.00812 0.0
C358 C 0.19314 0.84365 0.99549 0.0
C359 C 0.15948 0.82234 1.00216 0.0
C360 C 0.15432 0.81543 0.02068 0.0
C361 C 0.11528 0.79291 0.02464 0.0
C362 C 0.12411 0.75118 0.03316 0.0
C363 C 0.08676 0.81819 0.03689 0.0
C364 C 0.09858 0.78886 1.0055 0.0
C365 C 0.12427 0.8059 0.99263 0.0
C366 C 0.1137 0.80728 0.97413 0.0
C367 C 0.07602 0.79071 0.96873 0.0
C368 C 0.04959 0.77297 0.98182 0.0
C369 C 0.0614 0.77203 1.00037 0.0
H370 H 0.8482 0.87138 0.96857 0.0
H371 H 0.88807 0.79699 0.01412 0.0
H372 H 0.86309 0.84932 0.03578 0.0
H373 H 0.87647 0.96603 0.98714 0.0
H374 H 0.83311 0.99271 0.978 0.0
H375 H 0.85255 0.94865 0.96638 0.0
H376 H 0.78133 0.91483 0.96804 0.0
H377 H 0.76157 0.95896 0.97953 0.0
H378 H 0.75634 0.90963 0.9899 0.0
H379 H 0.83652 0.91293 0.05231 0.0
H380 H 0.80709 0.97892 0.06195 0.0
H381 H 0.78461 1.00899 1.00505 0.0
C382 C 0.85145 0.8658 0.9831 0.0
C383 C 0.87012 0.83013 0.98967 0.0
C384 C 0.87366 0.82406 0.0088 0.0
C385 C 0.85971 0.85367 0.02118 0.0
C386 C 0.84206 0.88892 0.01418 0.0
C387 C 0.83758 0.89475 0.99556 0.0
C388 C 0.81799 0.93512 0.99135 0.0
C389 C 0.84676 0.96221 0.98005 0.0
C390 C 0.77687 0.92927 0.98164 0.0
C391 C 0.81236 0.95142 0.01049 0.0
C392 C 0.82648 0.9246 0.02355 0.0
C393 C 0.82512 0.93398 0.04217 0.0
C394 C 0.80853 0.97154 0.04753 0.0
C395 C 0.79339 0.99901 0.03427 0.0
C396 C 0.7956 0.9886 0.01556 0.0
H397 H 0.8331 0.24285 0.03868 0.0
H398 H 0.7971 0.14466 1.00266 0.0
H399 H 0.85018 0.1655 0.98052 0.0
H400 H 0.86175 0.31697 1.00224 0.0
H401 H 0.90399 0.33548 0.01557 0.0
H402 H 0.85892 0.31683 0.02688 0.0
H403 H 0.90319 0.26626 0.04535 0.0
H404 H 0.94822 0.2844 0.03401 0.0
H405 H 0.93571 0.23121 0.03328 0.0
H406 H 0.91417 0.19159 0.96442 0.0
H407 H 0.98081 0.22153 0.95582 0.0
H408 H 0.97331 0.30203 1.00265 0.0
C409 C 0.8355 0.22637 0.0259 0.0
C410 C 0.81079 0.19222 0.0224 0.0
C411 C 0.8154 0.17119 1.0056 0.0
C412 C 0.84555 0.18277 0.99294 0.0
C413 C 0.87049 0.21571 0.99718 0.0
C414 C 0.8653 0.2375 0.01319 0.0
C415 C 0.89802 0.26937 0.01543 0.0
C416 C 0.87956 0.3122 0.015 0.0
C417 C 0.92273 0.26236 0.03305 0.0
C418 C 0.92335 0.26124 0.99854 0.0
C419 C 0.90691 0.23056 0.98801 0.0
C420 C 0.92688 0.21614 0.97241 0.0
C421 C 0.96473 0.23326 0.96763 0.0
C422 C 0.98226 0.26421 0.97851 0.0
C423 C 0.96072 0.27864 0.99394 0.0
H424 H 0.71967 0.85176 0.78925 0.0
H425 H 0.65033 0.79098 0.74688 0.0
H426 H 0.67294 0.84277 0.72447 0.0
H427 H 0.69544 0.94978 0.77666 0.0
H428 H 0.74459 0.97105 0.78197 0.0
H429 H 0.72712 0.92662 0.79387 0.0
H430 H 0.79205 0.88759 0.78397 0.0
H431 H 0.81002 0.93212 0.77217 0.0
H432 H 0.80525 0.88477 0.76005 0.0
H433 H 0.69777 0.9066 0.70758 0.0
H434 H 0.72496 0.9734 0.69779 0.0
H435 H 0.77747 0.99017 0.75171 0.0
C436 C 0.70988 0.84873 0.77517 0.0
C437 C 0.68334 0.81726 0.7698 0.0
C438 C 0.67102 0.81462 0.75126 0.0
C439 C 0.68359 0.844 0.73846 0.0
C440 C 0.70879 0.87546 0.7444 0.0
C441 C 0.72217 0.87754 0.76231 0.0
C442 C 0.74717 0.91527 0.76567 0.0
C443 C 0.72738 0.94226 0.78041 0.0
C444 C 0.79124 0.90427 0.77076 0.0
C445 C 0.74503 0.93478 0.747 0.0
C446 C 0.72301 0.91147 0.73481 0.0
C447 C 0.71551 0.92477 0.71698 0.0
C448 C 0.73095 0.96278 0.71154 0.0
C449 C 0.75346 0.98701 0.72394 0.0
C450 C 0.76066 0.9724 0.74181 0.0
H451 H 1.01253 0.373 0.29704 0.0
H452 H 0.96076 0.26464 0.32142 0.0
H453 H 0.89247 0.28542 0.31075 0.0
H454 H 0.92238 0.44153 0.30446 0.0
H455 H 0.93045 0.46576 0.28264 0.0
H456 H 0.97325 0.44658 0.29542 0.0
H457 H 0.99507 0.40358 0.26739 0.0
H458 H 0.95227 0.42218 0.25463 0.0
H459 H 0.95932 0.36835 0.25751 0.0
H460 H 0.83165 0.31286 0.29314 0.0
H461 H 0.78487 0.34474 0.27074 0.0
H462 H 0.87772 0.43391 0.25786 0.0
C463 C 0.9867 0.35428 0.30073 0.0
C464 C 0.99207 0.31728 0.31016 0.0
C465 C 0.95744 0.2933 0.31434 0.0
C466 C 0.91847 0.30487 0.30833 0.0
C467 C 0.91456 0.34066 0.29831 0.0
C468 C 0.94779 0.36525 0.29475 0.0
C469 C 0.93672 0.39968 0.28202 0.0
C470 C 0.94094 0.44082 0.29172 0.0
C471 C 0.96235 0.39832 0.26435 0.0
C472 C 0.89255 0.38971 0.27832 0.0
C473 C 0.87994 0.35604 0.28804 0.0
C474 C 0.84103 0.33968 0.28572 0.0
C475 C 0.81466 0.35792 0.27296 0.0
C476 C 0.82762 0.39177 0.26255 0.0
C477 C 0.86677 0.40814 0.26563 0.0
H478 H 0.24785 0.04086 0.75429 0.0
H479 H 0.2906 0.06039 0.69878 0.0
H480 H 0.31922 0.12692 0.70822 0.0
H481 H 0.22114 0.14501 0.76482 0.0
H482 H 0.23857 0.1408 0.78812 0.0
H483 H 0.21904 0.09683 0.77644 0.0
H484 H 0.28607 0.05807 0.78323 0.0
H485 H 0.30572 0.10178 0.79498 0.0
H486 H 0.33401 0.07987 0.77628 0.0
H487 H 0.34571 0.19076 0.72478 0.0
H488 H 0.37071 0.24229 0.74679 0.0
H489 H 0.31078 0.17782 0.791 0.0
C490 C 0.26277 0.05918 0.74396 0.0
C491 C 0.26677 0.04549 0.72574 0.0
C492 C 0.28705 0.07035 0.7128 0.0
C493 C 0.30326 0.10819 0.71805 0.0
C494 C 0.29888 0.12056 0.73624 0.0
C495 C 0.27917 0.09654 0.74896 0.0
C496 C 0.28037 0.11496 0.76787 0.0
C497 C 0.23721 0.125 0.77471 0.0
C498 C 0.30289 0.08701 0.78137 0.0
C499 C 0.3044 0.15301 0.76399 0.0
C500 C 0.31447 0.15621 0.74567 0.0
C501 C 0.33772 0.18857 0.73912 0.0
C502 C 0.35164 0.21778 0.7517 0.0
C503 C 0.34263 0.21406 0.7706 0.0
C504 C 0.31813 0.18158 0.77664 0.0
H505 H 0.0467 0.66211 0.30973 0.0
H506 H 0.06636 0.79059 0.30045 0.0
H507 H 0.13423 0.77579 0.28759 0.0
H508 H 0.15489 0.63547 0.32041 0.0
H509 H 0.15123 0.58781 0.30845 0.0
H510 H 0.10693 0.60893 0.31951 0.0
H511 H 0.06735 0.60525 0.2889 0.0
H512 H 0.11143 0.58431 0.27777 0.0
H513 H 0.08811 0.62971 0.26889 0.0
H514 H 0.19607 0.74664 0.27222 0.0
H515 H 0.24657 0.70519 0.25547 0.0
H516 H 0.18693 0.59579 0.27484 0.0
C517 C 0.06577 0.68721 0.3055 0.0
C518 C 0.05128 0.72753 0.30622 0.0
C519 C 0.07681 0.75945 0.30009 0.0
C520 C 0.11553 0.75137 0.29282 0.0
C521 C 0.12847 0.71121 0.29182 0.0
C522 C 0.10446 0.67964 0.2981 0.0
C523 C 0.12386 0.639 0.2939 0.0
C524 C 0.13489 0.61648 0.31163 0.0
C525 C 0.09604 0.61307 0.28163 0.0
C526 C 0.16175 0.6526 0.28374 0.0
C527 C 0.16417 0.69437 0.2829 0.0
C528 C 0.19489 0.7139 0.27306 0.0
C529 C 0.22345 0.6901 0.26357 0.0
C530 C 0.22097 0.64723 0.26391 0.0
C531 C 0.19015 0.62846 0.27449 0.0
H532 H 0.69276 0.53795 0.5461 0.0
H533 H 0.80531 0.59865 0.56095 0.0
H534 H 0.7748 0.66445 0.55286 0.0
H535 H 0.6719 0.59465 0.50768 0.0
H536 H 0.61748 0.59703 0.51081 0.0
H537 H 0.64582 0.55526 0.52017 0.0
H538 H 0.61685 0.57095 0.5524 0.0
H539 H 0.58826 0.61277 0.54305 0.0
H540 H 0.62269 0.62109 0.56187 0.0
H541 H 0.73686 0.72165 0.53836 0.0
H542 H 0.69171 0.76692 0.52056 0.0
H543 H 0.60199 0.67086 0.51689 0.0
C544 C 0.71061 0.56518 0.54813 0.0
C545 C 0.75148 0.56302 0.55419 0.0
C546 C 0.77394 0.5994 0.5564 0.0
C547 C 0.75685 0.63702 0.55186 0.0
C548 C 0.71699 0.63799 0.54539 0.0
C549 C 0.69385 0.60313 0.54381 0.0
C550 C 0.65269 0.61228 0.53534 0.0
C551 C 0.64665 0.5884 0.51744 0.0
C552 C 0.61807 0.60377 0.54898 0.0
C553 C 0.65703 0.65736 0.53173 0.0
C554 C 0.6943 0.67163 0.5377 0.0
C555 C 0.70713 0.71117 0.5341 0.0
C556 C 0.6814 0.73664 0.52396 0.0
C557 C 0.64312 0.72263 0.51776 0.0
C558 C 0.63054 0.68275 0.52202 0.0
H559 H 0.64406 0.4103 0.51231 0.0
H560 H 0.75598 0.34387 0.50223 0.0
H561 H 0.71836 0.29609 0.48242 0.0
H562 H 0.581 0.32669 0.51654 0.0
H563 H 0.5376 0.34931 0.50543 0.0
H564 H 0.57419 0.38094 0.51686 0.0
H565 H 0.58515 0.42198 0.48701 0.0
H566 H 0.54844 0.39044 0.47547 0.0
H567 H 0.59911 0.39583 0.46627 0.0
H568 H 0.66681 0.25102 0.46671 0.0
H569 H 0.60613 0.21344 0.45607 0.0
H570 H 0.52862 0.31056 0.47597 0.0
C571 C 0.6609 0.38621 0.50566 0.0
C572 C 0.70302 0.38091 0.5088 0.0
C573 C 0.72376 0.34871 0.49995 0.0
C574 C 0.70264 0.32142 0.48866 0.0
C575 C 0.66091 0.32702 0.48618 0.0
C576 C 0.64036 0.35888 0.49431 0.0
C577 C 0.5951 0.35677 0.4905 0.0
C578 C 0.57055 0.3532 0.5084 0.0
C579 C 0.58114 0.39343 0.47913 0.0
C580 C 0.59315 0.31803 0.47944 0.0
C581 C 0.63141 0.30144 0.47695 0.0
C582 C 0.63679 0.2641 0.46831 0.0
C583 C 0.60213 0.24293 0.46233 0.0
C584 C 0.56262 0.25915 0.46503 0.0
C585 C 0.55838 0.29759 0.47338 0.0
H586 H 0.28063 0.48882 0.50461 0.0
H587 H 0.28777 0.45728 0.56215 0.0
H588 H 0.31852 0.39099 0.55378 0.0
H589 H 0.25646 0.38976 0.48718 0.0
H590 H 0.28741 0.39614 0.46699 0.0
H591 H 0.26437 0.43964 0.47772 0.0
H592 H 0.33531 0.47365 0.48061 0.0
H593 H 0.35855 0.43034 0.46987 0.0
H594 H 0.37588 0.44693 0.49203 0.0
H595 H 0.34942 0.32765 0.53838 0.0
H596 H 0.38084 0.27638 0.51787 0.0
H597 H 0.35408 0.35281 0.4711 0.0
C598 C 0.28822 0.46792 0.51552 0.0
C599 C 0.28149 0.47803 0.53403 0.0
C600 C 0.29258 0.45003 0.54785 0.0
C601 C 0.30993 0.41232 0.54322 0.0
C602 C 0.31616 0.40339 0.52474 0.0
C603 C 0.3058 0.43068 0.51117 0.0
C604 C 0.3171 0.4152 0.4924 0.0
C605 C 0.27906 0.40987 0.48037 0.0
C606 C 0.34858 0.44319 0.4832 0.0
C607 C 0.33555 0.37482 0.49742 0.0
C608 C 0.33455 0.36814 0.51609 0.0
C609 C 0.35031 0.33266 0.52375 0.0
C610 C 0.36796 0.30368 0.51202 0.0
C611 C 0.37001 0.31069 0.49291 0.0
C612 C 0.35318 0.34657 0.48564 0.0
H613 H 0.53669 0.64998 0.4915 0.0
H614 H 0.48107 0.73304 0.45287 0.0
H615 H 0.41296 0.71403 0.46442 0.0
H616 H 0.45414 0.57167 0.49113 0.0
H617 H 0.45969 0.56262 0.51532 0.0
H618 H 0.50319 0.57763 0.50186 0.0
H619 H 0.51548 0.63793 0.52385 0.0
H620 H 0.47173 0.62367 0.5372 0.0
H621 H 0.47517 0.67405 0.52775 0.0
H622 H 0.35148 0.69224 0.4828 0.0
H623 H 0.30173 0.66716 0.50563 0.0
H624 H 0.39819 0.59993 0.5326 0.0
C625 C 0.51015 0.66301 0.48496 0.0
C626 C 0.51421 0.69263 0.47111 0.0
C627 C 0.47868 0.70997 0.46337 0.0
C628 C 0.43984 0.69942 0.46987 0.0
C629 C 0.437 0.67142 0.4841 0.0
C630 C 0.47121 0.6531 0.49141 0.0
C631 C 0.46028 0.62681 0.50769 0.0
C632 C 0.46989 0.58202 0.50376 0.0
C633 C 0.48194 0.64152 0.52515 0.0
C634 C 0.41477 0.63409 0.5087 0.0
C635 C 0.40179 0.65952 0.49488 0.0
C636 C 0.36123 0.67186 0.49354 0.0
C637 C 0.33321 0.65762 0.50662 0.0
C638 C 0.34596 0.63158 0.52092 0.0
C639 C 0.38732 0.6197 0.52183 0.0
H640 H 0.27666 0.22515 0.43894 0.0
H641 H 0.38376 0.21839 0.40416 0.0
H642 H 0.3397 0.22234 0.3768 0.0
H643 H 0.21119 0.16453 0.41096 0.0
H644 H 0.16644 0.19459 0.41548 0.0
H645 H 0.20642 0.19167 0.43227 0.0
H646 H 0.21226 0.27002 0.43238 0.0
H647 H 0.17227 0.27321 0.41559 0.0
H648 H 0.22097 0.29647 0.41114 0.0
H649 H 0.28378 0.22618 0.35326 0.0
H650 H 0.22055 0.23011 0.33521 0.0
H651 H 0.14978 0.23485 0.38542 0.0
C652 C 0.29096 0.2245 0.42559 0.0
C653 C 0.33376 0.22139 0.42371 0.0
C654 C 0.3511 0.22077 0.40596 0.0
C655 C 0.32631 0.22299 0.39034 0.0
C656 C 0.28425 0.22596 0.3927 0.0
C657 C 0.26671 0.22682 0.40988 0.0
C658 C 0.22072 0.23017 0.40868 0.0
C659 C 0.19999 0.19302 0.41736 0.0
C660 C 0.20568 0.26983 0.41746 0.0
C661 C 0.21503 0.23077 0.38811 0.0
C662 C 0.25207 0.22837 0.37915 0.0
C663 C 0.25464 0.22814 0.36014 0.0
C664 C 0.21845 0.23036 0.35 0.0
C665 C 0.18004 0.2328 0.35886 0.0
C666 C 0.17854 0.23308 0.3782 0.0
H667 H 0.24543 0.74644 0.58764 0.0
H668 H 0.24476 0.63041 0.61576 0.0
H669 H 0.24231 0.66596 0.64544 0.0
H670 H 0.30878 0.79969 0.62066 0.0
H671 H 0.28119 0.8467 0.61851 0.0
H672 H 0.284 0.81227 0.59941 0.0
H673 H 0.20524 0.81082 0.59759 0.0
H674 H 0.20216 0.84514 0.61671 0.0
H675 H 0.17614 0.79706 0.61759 0.0
H676 H 0.23734 0.71344 0.67189 0.0
H677 H 0.23174 0.76984 0.69374 0.0
H678 H 0.23658 0.85607 0.64886 0.0
C679 C 0.24502 0.72846 0.60003 0.0
C680 C 0.2453 0.68551 0.59933 0.0
C681 C 0.24464 0.66324 0.6159 0.0
C682 C 0.24323 0.68319 0.63285 0.0
C683 C 0.24268 0.72545 0.63303 0.0
C684 C 0.24373 0.7479 0.61709 0.0
C685 C 0.24233 0.79306 0.62118 0.0
C686 C 0.28141 0.81417 0.61455 0.0
C687 C 0.20419 0.81266 0.61277 0.0
C688 C 0.23993 0.79244 0.64191 0.0
C689 C 0.24019 0.75305 0.6484 0.0
C690 C 0.23732 0.7444 0.66698 0.0
C691 C 0.23403 0.77677 0.67929 0.0
C692 C 0.23374 0.81751 0.67306 0.0
C693 C 0.23695 0.82534 0.65407 0.0
H694 H 0.66759 0.73574 0.39891 0.0
H695 H 0.7248 0.81568 0.43847 0.0
H696 H 0.78533 0.82097 0.41857 0.0
H697 H 0.75871 0.68235 0.38512 0.0
H698 H 0.74419 0.67945 0.36138 0.0
H699 H 0.7056 0.68105 0.37892 0.0
H700 H 0.67295 0.74382 0.36345 0.0
H701 H 0.71128 0.74226 0.34582 0.0
H702 H 0.70382 0.78793 0.35895 0.0
H703 H 0.84002 0.81749 0.39436 0.0
H704 H 0.88276 0.80887 0.36678 0.0
H705 H 0.78943 0.73248 0.34269 0.0
C706 C 0.69286 0.7543 0.40342 0.0
C707 C 0.69137 0.77521 0.42031 0.0
C708 C 0.72508 0.7994 0.4256 0.0
C709 C 0.75972 0.80249 0.41442 0.0
C710 C 0.76026 0.78138 0.39791 0.0
C711 C 0.72761 0.75798 0.39235 0.0
C712 C 0.73548 0.73935 0.37371 0.0
C713 C 0.73603 0.69279 0.37486 0.0
C714 C 0.70402 0.75424 0.35965 0.0
C715 C 0.77754 0.75606 0.36963 0.0
C716 C 0.79145 0.77995 0.38383 0.0
C717 C 0.82943 0.79884 0.38316 0.0
C718 C 0.85356 0.79366 0.36744 0.0
C719 C 0.83954 0.77002 0.35253 0.0
C720 C 0.80113 0.75073 0.35382 0.0
H721 H 0.78698 0.25307 0.66654 0.0
H722 H 0.78611 0.13619 0.63917 0.0
H723 H 0.78672 0.17088 0.60922 0.0
H724 H 0.7212 0.30474 0.63429 0.0
H725 H 0.74852 0.35204 0.63576 0.0
H726 H 0.74752 0.3181 0.65507 0.0
H727 H 0.8264 0.31734 0.65564 0.0
H728 H 0.82766 0.35121 0.63632 0.0
H729 H 0.85404 0.30333 0.63527 0.0
H730 H 0.7895 0.21791 0.58236 0.0
H731 H 0.79228 0.27397 0.56017 0.0
H732 H 0.79009 0.36102 0.60475 0.0
C733 C 0.7868 0.2347 0.65426 0.0
C734 C 0.78654 0.1918 0.65524 0.0
C735 C 0.78624 0.16902 0.63881 0.0
C736 C 0.78662 0.18847 0.62172 0.0
C737 C 0.78709 0.23074 0.62127 0.0
C738 C 0.78698 0.25363 0.63708 0.0
C739 C 0.78764 0.29867 0.63275 0.0
C740 C 0.74891 0.31961 0.63989 0.0
C741 C 0.82624 0.31881 0.64045 0.0
C742 C 0.78843 0.29753 0.61201 0.0
C743 C 0.78817 0.25799 0.60571 0.0
C744 C 0.78954 0.24898 0.58712 0.0
C745 C 0.7912 0.28115 0.57462 0.0
C746 C 0.79134 0.32202 0.58067 0.0
C747 C 0.78981 0.33018 0.59967 0.0
H748 H 0.17661 0.30901 0.90641 0.0
H749 H 0.24975 0.22536 0.9384 0.0
H750 H 0.30144 0.2241 0.91395 0.0
H751 H 0.20016 0.26576 0.8616 0.0
H752 H 0.20227 0.31445 0.85043 0.0
H753 H 0.16986 0.30733 0.87008 0.0
H754 H 0.20536 0.36754 0.88631 0.0
H755 H 0.23805 0.37467 0.86676 0.0
H756 H 0.25991 0.36694 0.8891 0.0
H757 H 0.34672 0.2337 0.88669 0.0
H758 H 0.38163 0.2524 0.85795 0.0
H759 H 0.2798 0.33006 0.84352 0.0
C760 C 0.20324 0.29003 0.90815 0.0
C761 C 0.20902 0.26722 0.92434 0.0
C762 C 0.24459 0.24318 0.92617 0.0
C763 C 0.27419 0.2422 0.91234 0.0
C764 C 0.26795 0.2655 0.89671 0.0
C765 C 0.23334 0.28887 0.89448 0.0
C766 C 0.23483 0.31195 0.87653 0.0
C767 C 0.19969 0.29908 0.86392 0.0
C768 C 0.23453 0.358 0.87988 0.0
C769 C 0.27566 0.29793 0.8691 0.0
C770 C 0.29424 0.27114 0.88096 0.0
C771 C 0.33241 0.25454 0.87724 0.0
C772 C 0.35207 0.26543 0.86089 0.0
C773 C 0.33355 0.29268 0.84844 0.0
C774 C 0.29481 0.30908 0.8527 0.0
H775 H 0.29225 0.75277 0.18239 0.0
H776 H 0.27239 0.63544 0.15691 0.0
H777 H 0.27043 0.66826 0.12661 0.0
H778 H 0.22668 0.81094 0.1513 0.0
H779 H 0.26005 0.85434 0.15115 0.0
H780 H 0.25764 0.82208 0.17102 0.0
H781 H 0.33568 0.81117 0.16932 0.0
H782 H 0.33832 0.84328 0.14943 0.0
H783 H 0.35808 0.79232 0.14845 0.0
H784 H 0.27557 0.71238 0.09909 0.0
H785 H 0.28511 0.7656 0.07586 0.0
H786 H 0.29972 0.85545 0.11875 0.0
C787 C 0.28704 0.734 0.17046 0.0
C788 C 0.28247 0.69143 0.17207 0.0
C789 C 0.27591 0.66804 0.15608 0.0
C790 C 0.27472 0.68642 0.13879 0.0
C791 C 0.27983 0.72829 0.13768 0.0
C792 C 0.28556 0.75191 0.15307 0.0
C793 C 0.29139 0.79618 0.14795 0.0
C794 C 0.25688 0.82243 0.15582 0.0
C795 C 0.33336 0.81163 0.15416 0.0
C796 C 0.28879 0.79359 0.12725 0.0
C797 C 0.28205 0.75409 0.12169 0.0
C798 C 0.28043 0.74348 0.10328 0.0
C799 C 0.28606 0.77396 0.09018 0.0
C800 C 0.29302 0.81471 0.09548 0.0
C801 C 0.29393 0.82467 0.1143 0.0
H802 H 0.82706 0.66014 0.91109 0.0
H803 H 0.85635 0.78833 0.91401 0.0
H804 H 0.80407 0.80268 0.89059 0.0
H805 H 0.81029 0.65754 0.862 0.0
H806 H 0.76931 0.62134 0.86363 0.0
H807 H 0.80924 0.62139 0.88051 0.0
H808 H 0.75526 0.62902 0.90618 0.0
H809 H 0.7152 0.62941 0.88937 0.0
H810 H 0.71982 0.67074 0.90538 0.0
H811 H 0.74613 0.80336 0.86791 0.0
H812 H 0.69174 0.78966 0.84543 0.0
H813 H 0.70212 0.66072 0.85646 0.0
C814 C 0.82267 0.69122 0.90673 0.0
C815 C 0.84577 0.72313 0.91441 0.0
C816 C 0.83919 0.76335 0.90826 0.0
C817 C 0.8094 0.77184 0.89503 0.0
C818 C 0.78673 0.73974 0.88795 0.0
C819 C 0.79341 0.70016 0.89339 0.0
C820 C 0.76541 0.67111 0.88341 0.0
C821 C 0.79004 0.64108 0.87169 0.0
C822 C 0.73726 0.64876 0.89689 0.0
C823 C 0.74171 0.70053 0.87159 0.0
C824 C 0.75422 0.74001 0.87453 0.0
C825 C 0.73627 0.77254 0.86542 0.0
C826 C 0.70523 0.76445 0.85274 0.0
C827 C 0.69267 0.72411 0.84914 0.0
C828 C 0.71109 0.69187 0.85884 0.0
H829 H 0.67469 0.21468 0.10742 0.0
H830 H 0.80261 0.18149 0.10679 0.0
H831 H 0.81565 0.23029 0.13184 0.0
H832 H 0.68852 0.32035 0.11571 0.0
H833 H 0.64486 0.3247 0.13056 0.0
H834 H 0.64567 0.28677 0.11284 0.0
H835 H 0.63223 0.23067 0.13694 0.0
H836 H 0.63114 0.26845 0.15473 0.0
H837 H 0.66568 0.22613 0.15638 0.0
H838 H 0.81466 0.28464 0.15657 0.0
H839 H 0.79919 0.33703 0.17978 0.0
H840 H 0.67171 0.33329 0.16421 0.0
C841 C 0.70547 0.21748 0.11256 0.0
C842 C 0.73765 0.19423 0.10511 0.0
C843 C 0.77743 0.19885 0.11231 0.0
C844 C 0.78515 0.22659 0.12651 0.0
C845 C 0.75274 0.24932 0.13341 0.0
C846 C 0.71364 0.24479 0.12674 0.0
C847 C 0.68403 0.27258 0.13652 0.0
C848 C 0.66464 0.30289 0.12311 0.0
C849 C 0.65135 0.24798 0.14675 0.0
C850 C 0.71254 0.29367 0.1497 0.0
C851 C 0.75209 0.28 0.14768 0.0
C852 C 0.78376 0.29543 0.1583 0.0
C853 C 0.77469 0.32528 0.17142 0.0
C854 C 0.73423 0.33931 0.17387 0.0
C855 C 0.70294 0.32325 0.16275 0.0
H856 H 0.9805 0.92967 0.33901 0.0
H857 H 0.95035 0.91598 0.28153 0.0
H858 H 0.97708 0.9848 0.27544 0.0
H859 H 0.95433 0.03644 0.34248 0.0
H860 H 0.99549 0.04727 0.35802 0.0
H861 H 0.97265 0.99762 0.35776 0.0
H862 H 0.04364 0.96555 0.3521 0.0
H863 H 0.06664 0.01511 0.35216 0.0
H864 H 0.07357 0.98201 0.33277 0.0
H865 H 1.0107 0.054 0.27549 0.0
H866 H 0.04378 0.11977 0.28205 0.0
H867 H 0.05047 0.08781 0.3396 0.0
C868 C 0.97913 0.94121 0.32515 0.0
C869 C 0.96336 0.91741 0.31074 0.0
C870 C 0.96216 0.93372 0.29281 0.0
C871 C 0.9774 0.97271 0.2892 0.0
C872 C 0.99345 0.99505 0.3037 0.0
C873 C 0.99397 0.98003 0.32135 0.0
C874 C 1.01302 1.00992 0.33451 0.0
C875 C 0.98201 0.02363 0.34905 0.0
C876 C 0.0515 0.99207 0.3434 0.0
C877 C 0.02348 0.04404 0.3215 0.0
C878 C 1.01213 0.03489 0.30377 0.0
C879 C 0.01947 0.06157 0.28935 0.0
C880 C 0.03844 0.09877 0.2932 0.0
C881 C 0.04963 0.10899 0.31134 0.0
C882 C 0.04215 0.08103 0.32559 0.0
H883 H 0.93235 0.05137 0.6726 0.0
H884 H 0.90831 0.0691 0.73046 0.0
H885 H 0.9744 0.03706 0.73787 0.0
H886 H 0.97941 0.95478 0.67621 0.0
H887 H 0.01678 0.96449 0.65866 0.0
H888 H 0.96817 0.9897 0.65791 0.0
H889 H 1.00419 0.05963 0.65709 0.0
H890 H 0.05293 0.03462 0.65761 0.0
H891 H 0.0406 0.07221 0.67464 0.0
H892 H 0.04221 1.00005 0.73885 0.0
H893 H 0.10863 0.96684 0.73322 0.0
H894 H 0.08795 0.97499 0.67469 0.0
C895 C 0.94106 0.04883 0.68684 0.0
C896 C 0.91515 0.06271 0.70095 0.0
C897 C 0.92777 0.05887 0.71941 0.0
C898 C 0.96515 0.04052 0.72375 0.0
C899 C 0.98962 0.02648 0.70949 0.0
C900 C 0.97827 0.03091 0.6914 0.0
C901 C 1.01008 0.01366 0.67858 0.0
C902 C 0.99255 0.97858 0.66717 0.0
C903 C 0.02802 0.04702 0.66626 0.0
C904 C 0.04107 0.99856 0.69227 0.0
C905 C 0.02868 1.00596 0.71004 0.0
C906 C 0.05228 0.99428 0.72499 0.0
C907 C 0.08985 0.97524 0.72166 0.0
C908 C 0.10351 0.96834 0.70352 0.0
C909 C 0.07845 0.97988 0.68872 0.0
H910 H 0.06758 0.43786 0.93137 0.0
H911 H 0.06831 0.41216 0.98962 0.0
H912 H 0.03561 0.47841 0.9956 0.0
H913 H 0.08968 0.54547 0.93538 0.0
H914 H 0.05728 0.55888 0.91643 0.0
H915 H 0.08162 0.50996 0.91699 0.0
H916 H 1.01121 0.47525 0.91353 0.0
H917 H 0.9866 0.52404 0.91319 0.0
H918 H 0.97138 0.48648 0.92977 0.0
H919 H 0.99917 0.54616 0.99494 0.0
H920 H 0.9681 0.61272 0.98796 0.0
H921 H 0.99319 0.59419 0.93024 0.0
C922 C 0.06123 0.44628 0.94541 0.0
C923 C 0.07049 0.41983 0.96003 0.0
C924 C 0.06172 0.43204 0.9782 0.0
C925 C 0.04293 0.46951 0.98173 0.0
C926 C 0.03348 0.49451 0.96695 0.0
C927 C 0.04285 0.48361 0.94918 0.0
C928 C 0.02979 0.51596 0.93572 0.0
C929 C 0.0668 0.53361 0.92554 0.0
C930 C 0.99785 0.49943 0.92226 0.0
C931 C 1.01129 0.54668 0.94867 0.0
C932 C 1.01342 0.53368 0.96661 0.0
C933 C 0.99759 0.55674 0.98095 0.0
C934 C 0.97979 0.59439 0.97684 0.0
C935 C 0.9783 0.60869 0.95857 0.0
C936 C 0.99401 0.58421 0.94435 0.0
H937 H 0.43292 1.00124 0.0221 0.0
H938 H 0.43358 0.94429 0.0757 0.0
H939 H 0.50221 0.97154 0.08137 0.0
H940 H 0.54073 0.98275 0.01226 0.0
H941 H 0.54737 0.03035 1.00051 0.0
H942 H 0.49844 1.00562 1.00041 0.0
H943 H 0.46525 0.07064 0.0136 0.0
H944 H 0.51411 0.09544 0.01391 0.0
H945 H 0.48445 0.09189 0.03462 0.0
H946 H 0.56836 1.00812 0.08222 0.0
H947 H 0.63167 0.04633 0.07704 0.0
H948 H 0.59068 0.07764 0.02233 0.0
C949 C 0.44766 0.99421 0.03496 0.0
C950 C 0.42774 0.97067 0.04847 0.0
C951 C 0.44816 0.9621 0.0651 0.0
C952 C 0.48714 0.97759 0.0685 0.0
C953 C 0.50559 1.00122 0.05506 0.0
C954 C 0.48691 1.00904 0.03851 0.0
C955 C 0.51389 0.03504 0.02637 0.0
C956 C 0.52582 0.01206 0.00885 0.0
C957 C 0.49318 0.07566 0.02187 0.0
C958 C 0.55033 0.04106 0.03882 0.0
C959 C 0.54466 0.02144 0.05533 0.0
C960 C 0.57337 0.02331 0.06929 0.0
C961 C 0.60919 0.04531 0.06622 0.0
C962 C 0.61631 0.06495 0.04925 0.0
C963 C 0.58627 0.06284 0.03541 0.0
H964 H 0.53002 0.42655 0.79447 0.0
H965 H 0.3991 0.4425 0.79899 0.0
H966 H 0.40863 0.51673 0.80012 0.0
H967 H 0.55814 0.50442 0.82514 0.0
H968 H 0.60199 0.52073 0.81223 0.0
H969 H 0.58493 0.46896 0.81071 0.0
H970 H 0.57924 0.47559 0.77548 0.0
H971 H 0.59646 0.52738 0.77688 0.0
H972 H 0.54884 0.51574 0.76581 0.0
H973 H 0.43247 0.58837 0.80303 0.0
H974 H 0.46861 0.65345 0.80608 0.0
H975 H 0.5843 0.59181 0.7987 0.0
C976 C 0.50328 0.44563 0.79552 0.0
C977 C 0.46375 0.42866 0.79666 0.0
C978 C 0.42963 0.45475 0.79804 0.0
C979 C 0.43475 0.49696 0.79871 0.0
C980 C 0.47415 0.51262 0.7978 0.0
C981 C 0.50782 0.48783 0.79607 0.0
C982 C 0.54689 0.51241 0.79577 0.0
C983 C 0.57461 0.50094 0.81192 0.0
C984 C 0.56916 0.50749 0.77739 0.0
C985 C 0.52996 0.5549 0.79794 0.0
C986 C 0.48791 0.55422 0.79909 0.0
C987 C 0.46534 0.58934 0.80196 0.0
C988 C 0.48621 0.62614 0.80376 0.0
C989 C 0.52928 0.62773 0.80257 0.0
C990 C 0.55136 0.59159 0.79945 0.0
H991 H 0.60694 0.50568 0.2565 0.0
H992 H 0.60581 0.43986 0.20501 0.0
H993 H 0.53664 0.46517 0.1988 0.0
H994 H 0.49968 0.48813 0.26763 0.0
H995 H 0.49289 0.53767 0.2776 0.0
H996 H 0.54207 0.5135 0.27831 0.0
H997 H 0.57418 0.57618 0.26254 0.0
H998 H 0.52505 0.60038 0.26161 0.0
H999 H 0.55415 0.59331 0.24092 0.0
H1000 H 0.46979 0.50045 0.19712 0.0
H1001 H 0.40616 0.53868 0.20129 0.0
H1002 H 0.44831 0.58028 0.2544 0.0
C1003 C 0.59198 0.49625 0.24401 0.0
C1004 C 0.61195 0.47076 0.23123 0.0
C1005 C 0.59125 0.45922 0.21504 0.0
C1006 C 0.55195 0.47356 0.21135 0.0
C1007 C 0.53348 0.49916 0.22403 0.0
C1008 C 0.55248 0.51003 0.24015 0.0
C1009 C 0.52555 0.53791 0.25145 0.0
C1010 C 0.51438 0.51811 0.26984 0.0
C1011 C 0.54596 0.5794 0.25429 0.0
C1012 C 0.48867 0.5413 0.23905 0.0
C1013 C 0.49414 0.51887 0.22327 0.0
C1014 C 0.46498 0.51788 0.20948 0.0
C1015 C 0.42896 0.53993 0.21197 0.0
C1016 C 0.42206 0.56251 0.2282 0.0
C1017 C 0.45254 0.56324 0.24187 0.0
H1018 H 0.49786 0.0907 0.474 0.0
H1019 H 0.36922 0.06153 0.46958 0.0
H1020 H 0.38581 0.98875 0.47039 0.0
H1021 H 0.53374 0.01262 0.44521 0.0
H1022 H 0.57873 1.00156 0.45841 0.0
H1023 H 0.55697 0.05165 0.45896 0.0
H1024 H 0.55143 0.04776 0.49427 0.0
H1025 H 0.57333 0.99764 0.49384 0.0
H1026 H 0.52471 1.00594 0.50469 0.0
H1027 H 0.41571 0.91997 0.46931 0.0
H1028 H 0.45724 0.85817 0.46713 0.0
H1029 H 0.56732 0.93011 0.47276 0.0
C1030 C 0.47314 0.069 0.47347 0.0
C1031 C 0.43216 0.08192 0.47176 0.0
C1032 C 0.40079 0.0525 0.47093 0.0
C1033 C 0.40989 1.01103 0.4714 0.0
C1034 C 0.45052 0.99934 0.47283 0.0
C1035 C 0.48169 0.02732 0.47397 0.0
C1036 C 0.52287 1.00633 0.4747 0.0
C1037 C 0.54964 0.01878 0.45835 0.0
C1038 C 0.54435 0.01493 0.49296 0.0
C1039 C 0.50991 0.96224 0.47336 0.0
C1040 C 0.46798 0.9591 0.47239 0.0
C1041 C 0.44853 0.92195 0.47025 0.0
C1042 C 0.47249 0.88701 0.46896 0.0
C1043 C 0.51556 0.88922 0.46983 0.0
C1044 C 0.53447 0.9274 0.47227 0.0
H1045 H 0.94475 0.45528 0.57742 0.0
H1046 H 0.90511 0.49281 0.52337 0.0
H1047 H 0.97158 0.52626 0.5183 0.0
H1048 H 0.99936 0.54524 0.58858 0.0
H1049 H 0.03963 0.51902 0.60043 0.0
H1050 H 0.98934 0.49734 0.59959 0.0
H1051 H 0.0188 0.43135 0.58557 0.0
H1052 H 0.06922 0.45272 0.58649 0.0
H1053 H 0.04933 0.4342 0.56508 0.0
H1054 H 0.04247 0.55754 0.51963 0.0
H1055 H 0.11245 0.58074 0.5267 0.0
H1056 H 0.10487 0.52181 0.5797 0.0
C1057 C 0.95003 0.47032 0.56446 0.0
C1058 C 0.91963 0.47139 0.55079 0.0
C1059 C 0.92793 0.49144 0.53403 0.0
C1060 C 0.96558 0.51064 0.53104 0.0
C1061 C 0.99469 0.5094 0.5449 0.0
C1062 C 0.9874 0.48947 0.56122 0.0
C1063 C 0.02364 0.49242 0.57393 0.0
C1064 C 1.0123 0.51485 0.59168 0.0
C1065 C 0.04129 0.45016 0.578 0.0
C1066 C 0.05244 0.51731 0.56228 0.0
C1067 C 0.03526 0.52696 0.5456 0.0
C1068 C 0.05623 0.55003 0.53264 0.0
C1069 C 0.09591 0.56319 0.53679 0.0
C1070 C 0.11423 0.55312 0.55374 0.0
C1071 C 0.09188 0.53004 0.56661 0.0
loop_
_geom_bond_atom_site_label_1
_geom_bond_atom_site_label_2
_geom_bond_distance
_geom_bond_site_symmetry_2
_ccdc_geom_bond_type
Mg0 O7 2.141 . S
Mg0 O8 2.048 . S
Mg0 O9 2.048 . S
Mg0 O12 2.141 . S
C1 O2 1.313 . S
C1 O8 1.195 . S
O2 C1 1.313 . S
C3 O4 1.245 . S
C3 O12 1.289 . S
O4 C3 1.245 . S
C5 O6 1.245 . S
C5 O7 1.289 . S
O6 C5 1.245 . S
O7 Mg0 2.141 . S
O7 C5 1.289 . S
O8 Mg0 2.048 . S
O8 C1 1.195 . S
O9 Mg0 2.048 . S
O9 C10 1.195 . S
C10 O9 1.195 . S
C10 O11 1.313 . S
O11 C10 1.313 . S
O12 Mg0 2.141 . S
O12 C3 1.289 . S
Mg13 O20 2.141 . S
Mg13 O21 2.048 . S
Mg13 O22 2.048 . S
Mg13 O25 2.141 . S
C14 O15 1.313 . S
C14 O21 1.195 . S
O15 C14 1.313 . S
C16 O17 1.245 . S
C16 O25 1.289 . S
O17 C16 1.245 . S
C18 O19 1.245 . S
C18 O20 1.289 . S
O19 C18 1.245 . S
O20 Mg13 2.141 . S
O20 C18 1.289 . S
O21 Mg13 2.048 . S
O21 C14 1.195 . S
O22 Mg13 2.048 . S
O22 C23 1.195 . S
C23 O22 1.195 . S
C23 O24 1.313 . S
O24 C23 1.313 . S
O25 Mg13 2.141 . S
O25 C16 1.289 . S
Mg26 O33 2.141 . S
Mg26 O34 2.048 . S
Mg26 O35 2.048 . S
Mg26 O38 2.141 . S
C27 O28 1.313 . S
C27 O34 1.195 . S
O28 C27 1.313 . S
C29 O30 1.245 . S
C29 O38 1.289 . S
O30 C29 1.245 . S
C31 O32 1.245 . S
C31 O33 1.289 . S
O32 C31 1.245 . S
O33 Mg26 2.141 . S
O33 C31 1.289 . S
O34 Mg26 2.048 . S
O34 C27 1.195 . S
O35 Mg26 2.048 . S
O35 C36 1.195 . S
C36 O35 1.195 . S
C36 O37 1.313 . S
O37 C36 1.313 . S
O38 Mg26 2.141 . S
O38 C29 1.289 . S
Mg39 O46 2.141 . S
Mg39 O47 2.048 . S
Mg39 O48 2.048 . S
Mg39 O51 2.141 . S
C40 O41 1.313 . S
C40 O47 1.195 . S
O41 C40 1.313 . S
C42 O43 1.245 . S
C42 O51 1.289 . S
O43 C42 1.245 . S
C44 O45 1.245 . S
C44 O46 1.289 . S
O45 C44 1.245 . S
O46 Mg39 2.141 . S
O46 C44 1.289 . S
O47 Mg39 2.048 . S
O47 C40 1.195 . S
O48 Mg39 2.048 . S
O48 C49 1.195 . S
C49 O48 1.195 . S
C49 O50 1.313 . S
O50 C49 1.313 . S
O51 Mg39 2.141 . S
O51 C42 1.289 . S
Mg52 O59 2.141 . S
Mg52 O60 2.048 . S
Mg52 O61 2.048 . S
Mg52 O64 2.141 . S
C53 O54 1.313 . S
C53 O60 1.195 . S
O54 C53 1.313 . S
C55 O56 1.245 . S
C55 O64 1.289 . S
O56 C55 1.245 . S
C57 O58 1.245 . S
C57 O59 1.289 . S
O58 C57 1.245 . S
O59 Mg52 2.141 . S
O59 C57 1.289 . S
O60 Mg52 2.048 . S
O60 C53 1.195 . S
O61 Mg52 2.048 . S
O61 C62 1.195 . S
C62 O61 1.195 . S
C62 O63 1.313 . S
O63 C62 1.313 . S
O64 Mg52 2.141 . S
O64 C55 1.289 . S
Mg65 O72 2.141 . S
Mg65 O73 2.048 . S
Mg65 O74 2.048 . S
Mg65 O77 2.141 . S
C66 O67 1.313 . S
C66 O73 1.195 . S
O67 C66 1.313 . S
C68 O69 1.245 . S
C68 O77 1.289 . S
O69 C68 1.245 . S
C70 O71 1.245 . S
C70 O72 1.289 . S
O71 C70 1.245 . S
O72 Mg65 2.141 . S
O72 C70 1.289 . S
O73 Mg65 2.048 . S
O73 C66 1.195 . S
O74 Mg65 2.048 . S
O74 C75 1.195 . S
C75 O74 1.195 . S
C75 O76 1.313 . S
O76 C75 1.313 . S
O77 Mg65 2.141 . S
O77 C68 1.289 . S
Mg78 O85 2.141 . S
Mg78 O86 2.048 . S
Mg78 O87 2.048 . S
Mg78 O90 2.141 . S
C79 O80 1.313 . S
C79 O86 1.195 . S
O80 C79 1.313 . S
C81 O82 1.245 . S
C81 O90 1.289 . S
O82 C81 1.245 . S
C83 O84 1.245 . S
C83 O85 1.289 . S
O84 C83 1.245 . S
O85 Mg78 2.141 . S
O85 C83 1.289 . S
O86 Mg78 2.048 . S
O86 C79 1.195 . S
O87 Mg78 2.048 . S
O87 C88 1.195 . S
C88 O87 1.195 . S
C88 O89 1.313 . S
O89 C88 1.313 . S
O90 Mg78 2.141 . S
O90 C81 1.289 . S
Mg91 O98 2.141 . S
Mg91 O99 2.048 . S
Mg91 O100 2.048 . S
Mg91 O103 2.141 . S
C92 O93 1.313 . S
C92 O99 1.195 . S
O93 C92 1.313 . S
C94 O95 1.245 . S
C94 O103 1.289 . S
O95 C94 1.245 . S
C96 O97 1.245 . S
C96 O98 1.289 . S
O97 C96 1.245 . S
O98 Mg91 2.141 . S
O98 C96 1.289 . S
O99 Mg91 2.048 . S
O99 C92 1.195 . S
O100 Mg91 2.048 . S
O100 C101 1.195 . S
C101 O100 1.195 . S
C101 O102 1.313 . S
O102 C101 1.313 . S
O103 Mg91 2.141 . S
O103 C94 1.289 . S
Mg104 O111 2.141 . S
Mg104 O112 2.048 . S
Mg104 O113 2.048 . S
Mg104 O116 2.141 . S
C105 O106 1.313 . S
C105 O112 1.195 . S
O106 C105 1.313 . S
C107 O108 1.245 . S
C107 O116 1.289 . S
O108 C107 1.245 . S
C109 O110 1.245 . S
C109 O111 1.289 . S
O110 C109 1.245 . S
O111 Mg104 2.141 . S
O111 C109 1.289 . S
O112 Mg104 2.048 . S
O112 C105 1.195 . S
O113 Mg104 2.048 . S
O113 C114 1.195 . S
C114 O113 1.195 . S
C114 O115 1.313 . S
O115 C114 1.313 . S
O116 Mg104 2.141 . S
O116 C107 1.289 . S
Mg117 O124 2.141 . S
Mg117 O125 2.048 . S
Mg117 O126 2.048 . S
Mg117 O129 2.141 . S
C118 O119 1.313 . S
C118 O125 1.195 . S
O119 C118 1.313 . S
C120 O121 1.245 . S
C120 O129 1.289 . S
O121 C120 1.245 . S
C122 O123 1.245 . S
C122 O124 1.289 . S
O123 C122 1.245 . S
O124 Mg117 2.141 . S
O124 C122 1.289 . S
O125 Mg117 2.048 . S
O125 C118 1.195 . S
O126 Mg117 2.048 . S
O126 C127 1.195 . S
C127 O126 1.195 . S
C127 O128 1.313 . S
O128 C127 1.313 . S
O129 Mg117 2.141 . S
O129 C120 1.289 . S
Mg130 O137 2.141 . S
Mg130 O138 2.048 . S
Mg130 O139 2.048 . S
Mg130 O142 2.141 . S
C131 O132 1.313 . S
C131 O138 1.195 . S
O132 C131 1.313 . S
C133 O134 1.245 . S
C133 O142 1.289 . S
O134 C133 1.245 . S
C135 O136 1.245 . S
C135 O137 1.289 . S
O136 C135 1.245 . S
O137 Mg130 2.141 . S
O137 C135 1.289 . S
O138 Mg130 2.048 . S
O138 C131 1.195 . S
O139 Mg130 2.048 . S
O139 C140 1.195 . S
C140 O139 1.195 . S
C140 O141 1.313 . S
O141 C140 1.313 . S
O142 Mg130 2.141 . S
O142 C133 1.289 . S
Mg143 O150 2.141 . S
Mg143 O151 2.048 . S
Mg143 O152 2.048 . S
Mg143 O155 2.141 . S
C144 O145 1.313 . S
C144 O151 1.195 . S
O145 C144 1.313 . S
C146 O147 1.245 . S
C146 O155 1.289 . S
O147 C146 1.245 . S
C148 O149 1.245 . S
C148 O150 1.289 . S
O149 C148 1.245 . S
O150 Mg143 2.141 . S
O150 C148 1.289 . S
O151 Mg143 2.048 . S
O151 C144 1.195 . S
O152 Mg143 2.048 . S
O152 C153 1.195 . S
C153 O152 1.195 . S
C153 O154 1.313 . S
O154 C153 1.313 . S
O155 Mg143 2.141 . S
O155 C146 1.289 . S
Mg156 O163 2.141 . S
Mg156 O164 2.048 . S
Mg156 O165 2.048 . S
Mg156 O168 2.141 . S
C157 O158 1.313 . S
C157 O164 1.195 . S
O158 C157 1.313 . S
C159 O160 1.245 . S
C159 O168 1.289 . S
O160 C159 1.245 . S
C161 O162 1.245 . S
C161 O163 1.289 . S
O162 C161 1.245 . S
O163 Mg156 2.141 . S
O163 C161 1.289 . S
O164 Mg156 2.048 . S
O164 C157 1.195 . S
O165 Mg156 2.048 . S
O165 C166 1.195 . S
C166 O165 1.195 . S
C166 O167 1.313 . S
O167 C166 1.313 . S
O168 Mg156 2.141 . S
O168 C159 1.289 . S
Mg169 O176 2.141 . S
Mg169 O177 2.048 . S
Mg169 O178 2.048 . S
Mg169 O181 2.141 . S
C170 O171 1.313 . S
C170 O177 1.195 . S
O171 C170 1.313 . S
C172 O173 1.245 . S
C172 O181 1.289 . S
O173 C172 1.245 . S
C174 O175 1.245 . S
C174 O176 1.289 . S
O175 C174 1.245 . S
O176 Mg169 2.141 . S
O176 C174 1.289 . S
O177 Mg169 2.048 . S
O177 C170 1.195 . S
O178 Mg169 2.048 . S
O178 C179 1.195 . S
C179 O178 1.195 . S
C179 O180 1.313 . S
O180 C179 1.313 . S
O181 Mg169 2.141 . S
O181 C172 1.289 . S
Mg182 O189 2.141 . S
Mg182 O190 2.048 . S
Mg182 O191 2.048 . S
Mg182 O194 2.141 . S
C183 O184 1.313 . S
C183 O190 1.195 . S
O184 C183 1.313 . S
C185 O186 1.245 . S
C185 O194 1.289 . S
O186 C185 1.245 . S
C187 O188 1.245 . S
C187 O189 1.289 . S
O188 C187 1.245 . S
O189 Mg182 2.141 . S
O189 C187 1.289 . S
O190 Mg182 2.048 . S
O190 C183 1.195 . S
O191 Mg182 2.048 . S
O191 C192 1.195 . S
C192 O191 1.195 . S
C192 O193 1.313 . S
O193 C192 1.313 . S
O194 Mg182 2.141 . S
O194 C185 1.289 . S
Mg195 O202 2.141 . S
Mg195 O203 2.048 . S
Mg195 O204 2.048 . S
Mg195 O207 2.141 . S
C196 O197 1.313 . S
C196 O203 1.195 . S
O197 C196 1.313 . S
C198 O199 1.245 . S
C198 O207 1.289 . S
O199 C198 1.245 . S
C200 O201 1.245 . S
C200 O202 1.289 . S
O201 C200 1.245 . S
O202 Mg195 2.141 . S
O202 C200 1.289 . S
O203 Mg195 2.048 . S
O203 C196 1.195 . S
O204 Mg195 2.048 . S
O204 C205 1.195 . S
C205 O204 1.195 . S
C205 O206 1.313 . S
O206 C205 1.313 . S
O207 Mg195 2.141 . S
O207 C198 1.289 . S
H208 C220 0.930 . S
H209 C222 0.930 . S
H210 C223 0.930 . S
H211 C227 0.959 . S
H212 C227 0.959 . S
H213 C227 0.961 . S
H214 C228 0.960 . S
H215 C228 0.961 . S
H216 C228 0.959 . S
H217 C231 0.929 . S
H218 C232 0.931 . S
H219 C234 0.930 . S
C220 H208 0.930 . S
C220 C221 1.399 . S
C220 C225 1.399 . S
C221 C220 1.399 . S
C221 C222 1.376 . S
C222 H209 0.930 . S
C222 C221 1.376 . S
C222 C223 1.388 . S
C223 H210 0.930 . S
C223 C222 1.388 . S
C223 C224 1.390 . S
C224 C223 1.390 . S
C224 C225 1.394 . S
C224 C230 1.465 . S
C225 C220 1.399 . S
C225 C224 1.394 . S
C225 C226 1.516 . S
C226 C225 1.516 . S
C226 C227 1.502 . S
C226 C228 1.561 . S
C226 C229 1.526 . S
C227 H211 0.959 . S
C227 H212 0.959 . S
C227 H213 0.961 . S
C227 C226 1.502 . S
C228 H214 0.960 . S
C228 H215 0.961 . S
C228 H216 0.959 . S
C228 C226 1.561 . S
C229 C226 1.526 . S
C229 C230 1.396 . S
C229 C234 1.390 . S
C230 C224 1.465 . S
C230 C229 1.396 . S
C230 C231 1.399 . S
C231 H217 0.929 . S
C231 C230 1.399 . S
C231 C232 1.385 . S
C232 H218 0.931 . S
C232 C231 1.385 . S
C232 C233 1.389 . S
C233 C232 1.389 . S
C233 C234 1.387 . S
C234 H219 0.930 . S
C234 C229 1.390 . S
C234 C233 1.387 . S
H235 C247 0.930 . S
H236 C249 0.930 . S
H237 C250 0.930 . S
H238 C254 0.959 . S
H239 C254 0.959 . S
H240 C254 0.961 . S
H241 C255 0.960 . S
H242 C255 0.961 . S
H243 C255 0.959 . S
H244 C258 0.929 . S
H245 C259 0.931 . S
H246 C261 0.930 . S
C247 H235 0.930 . S
C247 C248 1.399 . S
C247 C252 1.399 . S
C248 C247 1.399 . S
C248 C249 1.376 . S
C249 H236 0.930 . S
C249 C248 1.376 . S
C249 C250 1.388 . S
C250 H237 0.930 . S
C250 C249 1.388 . S
C250 C251 1.390 . S
C251 C250 1.390 . S
C251 C252 1.394 . S
C251 C257 1.465 . S
C252 C247 1.399 . S
C252 C251 1.394 . S
C252 C253 1.516 . S
C253 C252 1.516 . S
C253 C254 1.502 . S
C253 C255 1.561 . S
C253 C256 1.526 . S
C254 H238 0.959 . S
C254 H239 0.959 . S
C254 H240 0.961 . S
C254 C253 1.502 . S
C255 H241 0.960 . S
C255 H242 0.961 . S
C255 H243 0.959 . S
C255 C253 1.561 . S
C256 C253 1.526 . S
C256 C257 1.396 . S
C256 C261 1.390 . S
C257 C251 1.465 . S
C257 C256 1.396 . S
C257 C258 1.399 . S
C258 H244 0.929 . S
C258 C257 1.399 . S
C258 C259 1.385 . S
C259 H245 0.931 . S
C259 C258 1.385 . S
C259 C260 1.389 . S
C260 C259 1.389 . S
C260 C261 1.387 . S
C261 H246 0.930 . S
C261 C256 1.390 . S
C261 C260 1.387 . S
H262 C274 0.930 . S
H263 C276 0.930 . S
H264 C277 0.930 . S
H265 C281 0.959 . S
H266 C281 0.959 . S
H267 C281 0.961 . S
H268 C282 0.960 . S
H269 C282 0.961 . S
H270 C282 0.959 . S
H271 C285 0.929 . S
H272 C286 0.931 . S
H273 C288 0.930 . S
C274 H262 0.930 . S
C274 C275 1.399 . S
C274 C279 1.399 . S
C275 C274 1.399 . S
C275 C276 1.376 . S
C276 H263 0.930 . S
C276 C275 1.376 . S
C276 C277 1.388 . S
C277 H264 0.930 . S
C277 C276 1.388 . S
C277 C278 1.390 . S
C278 C277 1.390 . S
C278 C279 1.394 . S
C278 C284 1.465 . S
C279 C274 1.399 . S
C279 C278 1.394 . S
C279 C280 1.516 . S
C280 C279 1.516 . S
C280 C281 1.502 . S
C280 C282 1.561 . S
C280 C283 1.526 . S
C281 H265 0.959 . S
C281 H266 0.959 . S
C281 H267 0.961 . S
C281 C280 1.502 . S
C282 H268 0.960 . S
C282 H269 0.961 . S
C282 H270 0.959 . S
C282 C280 1.561 . S
C283 C280 1.526 . S
C283 C284 1.396 . S
C283 C288 1.390 . S
C284 C278 1.465 . S
C284 C283 1.396 . S
C284 C285 1.399 . S
C285 H271 0.929 . S
C285 C284 1.399 . S
C285 C286 1.385 . S
C286 H272 0.931 . S
C286 C285 1.385 . S
C286 C287 1.389 . S
C287 C286 1.389 . S
C287 C288 1.387 . S
C288 H273 0.930 . S
C288 C283 1.390 . S
C288 C287 1.387 . S
H289 C301 0.930 . S
H290 C303 0.930 . S
H291 C304 0.930 . S
H292 C308 0.959 . S
H293 C308 0.959 . S
H294 C308 0.961 . S
H295 C309 0.960 . S
H296 C309 0.961 . S
H297 C309 0.959 . S
H298 C312 0.929 . S
H299 C313 0.931 . S
H300 C315 0.930 . S
C301 H289 0.930 . S
C301 C302 1.399 . S
C301 C306 1.399 . S
C302 C301 1.399 . S
C302 C303 1.376 . S
C303 H290 0.930 . S
C303 C302 1.376 . S
C303 C304 1.388 . S
C304 H291 0.930 . S
C304 C303 1.388 . S
C304 C305 1.390 . S
C305 C304 1.390 . S
C305 C306 1.394 . S
C305 C311 1.465 . S
C306 C301 1.399 . S
C306 C305 1.394 . S
C306 C307 1.516 . S
C307 C306 1.516 . S
C307 C308 1.502 . S
C307 C309 1.561 . S
C307 C310 1.526 . S
C308 H292 0.959 . S
C308 H293 0.959 . S
C308 H294 0.961 . S
C308 C307 1.502 . S
C309 H295 0.960 . S
C309 H296 0.961 . S
C309 H297 0.959 . S
C309 C307 1.561 . S
C310 C307 1.526 . S
C310 C311 1.396 . S
C310 C315 1.390 . S
C311 C305 1.465 . S
C311 C310 1.396 . S
C311 C312 1.399 . S
C312 H298 0.929 . S
C312 C311 1.399 . S
C312 C313 1.385 . S
C313 H299 0.931 . S
C313 C312 1.385 . S
C313 C314 1.389 . S
C314 C313 1.389 . S
C314 C315 1.387 . S
C315 H300 0.930 . S
C315 C310 1.390 . S
C315 C314 1.387 . S
H316 C328 0.930 . S
H317 C330 0.930 . S
H318 C331 0.930 . S
H319 C335 0.959 . S
H320 C335 0.959 . S
H321 C335 0.961 . S
H322 C336 0.960 . S
H323 C336 0.961 . S
H324 C336 0.959 . S
H325 C339 0.929 . S
H326 C340 0.937 . S
H327 C342 0.930 . S
C328 H316 0.930 . S
C328 C329 1.399 1_556 S
C328 C333 1.399 . S
C329 C328 1.399 1_554 S
C329 C330 1.376 . S
C330 H317 0.930 . S
C330 C329 1.376 . S
C330 C331 1.388 . S
C331 H318 0.930 . S
C331 C330 1.388 . S
C331 C332 1.390 . S
C332 C331 1.390 . S
C332 C333 1.394 1_554 S
C332 C338 1.465 1_554 S
C333 C328 1.399 . S
C333 C332 1.394 1_556 S
C333 C334 1.516 . S
C334 C333 1.516 . S
C334 C335 1.502 . S
C334 C336 1.561 . S
C334 C337 1.526 . S
C335 H319 0.959 . S
C335 H320 0.959 . S
C335 H321 0.961 . S
C335 C334 1.502 . S
C336 H322 0.960 . S
C336 H323 0.961 . S
C336 H324 0.959 . S
C336 C334 1.561 . S
C337 C334 1.526 . S
C337 C338 1.396 . S
C337 C342 1.390 . S
C338 C332 1.465 1_556 S
C338 C337 1.396 . S
C338 C339 1.399 1_556 S
C339 H325 0.929 . S
C339 C338 1.399 1_554 S
C339 C340 1.385 1_554 S
C340 H326 0.937 . S
C340 C339 1.385 1_556 S
C340 C341 1.389 . S
C341 C340 1.389 . S
C341 C342 1.387 . S
C342 H327 0.930 . S
C342 C337 1.390 . S
C342 C341 1.387 . S
H343 C355 0.930 . S
H344 C357 0.930 . S
H345 C358 0.930 1_556 S
H346 C362 0.959 . S
H347 C362 0.959 . S
H348 C362 0.961 . S
H349 C363 0.960 . S
H350 C363 0.961 . S
H351 C363 0.959 . S
H352 C366 0.929 . S
H353 C367 0.931 1_655 S
H354 C369 0.930 . S
C355 H343 0.930 . S
C355 C356 1.399 . S
C355 C360 1.399 . S
C356 C355 1.399 . S
C356 C357 1.376 . S
C357 H344 0.930 . S
C357 C356 1.376 . S
C357 C358 1.388 . S
C358 H345 0.930 1_554 S
C358 C357 1.388 . S
C358 C359 1.390 . S
C359 C358 1.390 . S
C359 C360 1.394 . S
C359 C365 1.466 1_554 S
C360 C355 1.399 . S
C360 C359 1.394 . S
C360 C361 1.516 . S
C361 C360 1.516 . S
C361 C362 1.502 . S
C361 C363 1.561 . S
C361 C364 1.526 . S
C362 H346 0.959 . S
C362 H347 0.959 . S
C362 H348 0.961 . S
C362 C361 1.502 . S
C363 H349 0.960 . S
C363 H350 0.961 . S
C363 H351 0.959 . S
C363 C361 1.561 . S
C364 C361 1.526 . S
C364 C365 1.397 1_554 S
C364 C369 1.390 . S
C365 C359 1.466 1_556 S
C365 C364 1.397 1_556 S
C365 C366 1.397 . S
C366 H352 0.929 . S
C366 C365 1.397 . S
C366 C367 1.385 . S
C367 H353 0.931 1_455 S
C367 C366 1.385 . S
C367 C368 1.389 . S
C368 C367 1.389 . S
C368 C369 1.387 1_556 S
C369 H354 0.930 . S
C369 C364 1.390 . S
C369 C368 1.387 1_554 S
H370 C382 0.930 . S
H371 C384 0.930 . S
H372 C385 0.930 1_554 S
H373 C389 0.959 . S
H374 C389 0.959 . S
H375 C389 0.961 . S
H376 C390 0.960 . S
H377 C390 0.961 . S
H378 C390 0.959 1_554 S
H379 C393 0.929 . S
H380 C394 0.931 1_545 S
H381 C396 0.930 . S
C382 H370 0.930 . S
C382 C383 1.399 . S
C382 C387 1.399 . S
C383 C382 1.399 . S
C383 C384 1.376 . S
C384 H371 0.930 . S
C384 C383 1.376 . S
C384 C385 1.388 . S
C385 H372 0.930 1_556 S
C385 C384 1.388 . S
C385 C386 1.390 . S
C386 C385 1.390 . S
C386 C387 1.394 . S
C386 C392 1.465 1_556 S
C387 C382 1.399 . S
C387 C386 1.394 . S
C387 C388 1.516 . S
C388 C387 1.516 . S
C388 C389 1.502 . S
C388 C390 1.561 . S
C388 C391 1.526 . S
C389 H373 0.959 . S
C389 H374 0.959 . S
C389 H375 0.961 . S
C389 C388 1.502 . S
C390 H376 0.960 . S
C390 H377 0.961 . S
C390 H378 0.959 1_556 S
C390 C388 1.561 . S
C391 C388 1.526 . S
C391 C392 1.396 1_556 S
C391 C396 1.390 . S
C392 C386 1.465 1_554 S
C392 C391 1.396 1_554 S
C392 C393 1.399 . S
C393 H379 0.929 . S
C393 C392 1.399 . S
C393 C394 1.385 . S
C394 H380 0.931 1_565 S
C394 C393 1.385 . S
C394 C395 1.389 . S
C395 C394 1.389 . S
C395 C396 1.387 1_554 S
C396 H381 0.930 . S
C396 C391 1.390 . S
C396 C395 1.387 1_556 S
H397 C409 0.930 . S
H398 C411 0.930 . S
H399 C412 0.930 . S
H400 C416 0.959 . S
H401 C416 0.959 . S
H402 C416 0.961 . S
H403 C417 0.960 . S
H404 C417 0.961 . S
H405 C417 0.959 . S
H406 C420 0.929 . S
H407 C421 0.931 . S
H408 C423 0.930 . S
C409 H397 0.930 . S
C409 C410 1.399 . S
C409 C414 1.399 . S
C410 C409 1.399 . S
C410 C411 1.376 . S
C411 H398 0.930 . S
C411 C410 1.376 . S
C411 C412 1.388 . S
C412 H399 0.930 . S
C412 C411 1.388 . S
C412 C413 1.390 . S
C413 C412 1.390 . S
C413 C414 1.394 . S
C413 C419 1.465 . S
C414 C409 1.399 . S
C414 C413 1.394 . S
C414 C415 1.516 . S
C415 C414 1.516 . S
C415 C416 1.502 1_554 S
C415 C417 1.561 . S
C415 C418 1.526 . S
C416 H400 0.959 . S
C416 H401 0.959 . S
C416 H402 0.961 . S
C416 C415 1.502 1_556 S
C417 H403 0.960 . S
C417 H404 0.961 . S
C417 H405 0.959 . S
C417 C415 1.561 . S
C418 C415 1.526 . S
C418 C419 1.396 . S
C418 C423 1.390 1_554 S
C419 C413 1.465 . S
C419 C418 1.396 . S
C419 C420 1.399 . S
C420 H406 0.929 . S
C420 C419 1.399 . S
C420 C421 1.385 1_654 S
C421 H407 0.931 . S
C421 C420 1.385 1_456 S
C421 C422 1.389 1_455 S
C422 C421 1.389 1_655 S
C422 C423 1.387 . S
C423 H408 0.930 . S
C423 C418 1.390 1_556 S
C423 C422 1.387 . S
H424 C436 0.930 . S
H425 C438 0.930 . S
H426 C439 0.930 . S
H427 C443 0.959 . S
H428 C443 0.959 . S
H429 C443 0.961 . S
H430 C444 0.960 . S
H431 C444 0.961 . S
H432 C444 0.959 . S
H433 C447 0.929 . S
H434 C448 0.931 . S
H435 C450 0.930 . S
C436 H424 0.930 . S
C436 C437 1.399 . S
C436 C441 1.399 . S
C437 C436 1.399 . S
C437 C438 1.376 . S
C438 H425 0.930 . S
C438 C437 1.376 . S
C438 C439 1.388 . S
C439 H426 0.930 . S
C439 C438 1.388 . S
C439 C440 1.390 . S
C440 C439 1.390 . S
C440 C441 1.394 . S
C440 C446 1.465 . S
C441 C436 1.399 . S
C441 C440 1.394 . S
C441 C442 1.516 . S
C442 C441 1.516 . S
C442 C443 1.502 . S
C442 C444 1.561 . S
C442 C445 1.526 . S
C443 H427 0.959 . S
C443 H428 0.959 . S
C443 H429 0.961 . S
C443 C442 1.502 . S
C444 H430 0.960 . S
C444 H431 0.961 . S
C444 H432 0.959 . S
C444 C442 1.561 . S
C445 C442 1.526 . S
C445 C446 1.396 . S
C445 C450 1.390 . S
C446 C440 1.465 . S
C446 C445 1.396 . S
C446 C447 1.399 . S
C447 H433 0.929 . S
C447 C446 1.399 . S
C447 C448 1.385 1_565 S
C448 H434 0.931 . S
C448 C447 1.385 1_545 S
C448 C449 1.389 1_545 S
C449 C448 1.389 1_565 S
C449 C450 1.387 . S
C450 H435 0.930 . S
C450 C445 1.390 . S
C450 C449 1.387 . S
H451 C463 0.930 . S
H452 C465 0.930 . S
H453 C466 0.930 . S
H454 C470 0.959 . S
H455 C470 0.959 . S
H456 C470 0.961 . S
H457 C471 0.960 . S
H458 C471 0.961 . S
H459 C471 0.959 . S
H460 C474 0.929 . S
H461 C475 0.931 . S
H462 C477 0.930 . S
C463 H451 0.930 . S
C463 C464 1.399 . S
C463 C468 1.399 . S
C464 C463 1.399 . S
C464 C465 1.376 . S
C465 H452 0.930 . S
C465 C464 1.376 . S
C465 C466 1.388 . S
C466 H453 0.930 . S
C466 C465 1.388 . S
C466 C467 1.390 . S
C467 C466 1.390 . S
C467 C468 1.394 . S
C467 C473 1.465 . S
C468 C463 1.399 . S
C468 C467 1.394 . S
C468 C469 1.516 . S
C469 C468 1.516 . S
C469 C470 1.502 . S
C469 C471 1.561 . S
C469 C472 1.526 . S
C470 H454 0.959 . S
C470 H455 0.959 . S
C470 H456 0.961 . S
C470 C469 1.502 . S
C471 H457 0.960 . S
C471 H458 0.961 . S
C471 H459 0.959 . S
C471 C469 1.561 . S
C472 C469 1.526 . S
C472 C473 1.396 . S
C472 C477 1.390 . S
C473 C467 1.465 . S
C473 C472 1.396 . S
C473 C474 1.399 . S
C474 H460 0.929 . S
C474 C473 1.399 . S
C474 C475 1.385 . S
C475 H461 0.931 . S
C475 C474 1.385 . S
C475 C476 1.389 . S
C476 C475 1.389 . S
C476 C477 1.387 . S
C477 H462 0.930 . S
C477 C472 1.390 . S
C477 C476 1.387 . S
H478 C490 0.930 . S
H479 C492 0.930 . S
H480 C493 0.930 . S
H481 C497 0.959 . S
H482 C497 0.959 . S
H483 C497 0.961 . S
H484 C498 0.960 . S
H485 C498 0.961 . S
H486 C498 0.959 . S
H487 C501 0.929 . S
H488 C502 0.931 . S
H489 C504 0.930 . S
C490 H478 0.930 . S
C490 C491 1.399 . S
C490 C495 1.399 . S
C491 C490 1.399 . S
C491 C492 1.376 . S
C492 H479 0.930 . S
C492 C491 1.376 . S
C492 C493 1.388 . S
C493 H480 0.930 . S
C493 C492 1.388 . S
C493 C494 1.390 . S
C494 C493 1.390 . S
C494 C495 1.394 . S
C494 C500 1.465 . S
C495 C490 1.399 . S
C495 C494 1.394 . S
C495 C496 1.516 . S
C496 C495 1.516 . S
C496 C497 1.502 . S
C496 C498 1.561 . S
C496 C499 1.526 . S
C497 H481 0.959 . S
C497 H482 0.959 . S
C497 H483 0.961 . S
C497 C496 1.502 . S
C498 H484 0.960 . S
C498 H485 0.961 . S
C498 H486 0.959 . S
C498 C496 1.561 . S
C499 C496 1.526 . S
C499 C500 1.396 . S
C499 C504 1.390 . S
C500 C494 1.465 . S
C500 C499 1.396 . S
C500 C501 1.399 . S
C501 H487 0.929 . S
C501 C500 1.399 . S
C501 C502 1.385 . S
C502 H488 0.931 . S
C502 C501 1.385 . S
C502 C503 1.389 . S
C503 C502 1.389 . S
C503 C504 1.387 . S
C504 H489 0.930 . S
C504 C499 1.390 . S
C504 C503 1.387 . S
H505 C517 0.930 . S
H506 C519 0.930 1_655 S
H507 C520 0.930 . S
H508 C524 0.959 . S
H509 C524 0.959 . S
H510 C524 0.961 . S
H511 C525 0.960 . S
H512 C525 0.961 . S
H513 C525 0.959 . S
H514 C528 0.929 . S
H515 C529 0.931 . S
H516 C531 0.930 . S
C517 H505 0.930 . S
C517 C518 1.399 . S
C517 C522 1.399 . S
C518 C517 1.399 . S
C518 C519 1.376 . S
C519 H506 0.930 1_455 S
C519 C518 1.376 . S
C519 C520 1.388 . S
C520 H507 0.930 . S
C520 C519 1.388 . S
C520 C521 1.390 . S
C521 C520 1.390 . S
C521 C522 1.394 . S
C521 C527 1.465 . S
C522 C517 1.399 . S
C522 C521 1.394 . S
C522 C523 1.516 . S
C523 C522 1.516 . S
C523 C524 1.502 . S
C523 C525 1.561 . S
C523 C526 1.526 . S
C524 H508 0.959 . S
C524 H509 0.959 . S
C524 H510 0.961 . S
C524 C523 1.502 . S
C525 H511 0.960 . S
C525 H512 0.961 . S
C525 H513 0.959 . S
C525 C523 1.561 . S
C526 C523 1.526 . S
C526 C527 1.396 . S
C526 C531 1.390 . S
C527 C521 1.465 . S
C527 C526 1.396 . S
C527 C528 1.399 . S
C528 H514 0.929 . S
C528 C527 1.399 . S
C528 C529 1.385 . S
C529 H515 0.931 . S
C529 C528 1.385 . S
C529 C530 1.389 . S
C530 C529 1.389 . S
C530 C531 1.387 . S
C531 H516 0.930 . S
C531 C526 1.390 . S
C531 C530 1.387 . S
H532 C544 0.930 . S
H533 C546 0.930 . S
H534 C547 0.930 . S
H535 C551 0.959 . S
H536 C551 0.959 . S
H537 C551 0.961 . S
H538 C552 0.960 . S
H539 C552 0.961 . S
H540 C552 0.959 . S
H541 C555 0.929 . S
H542 C556 0.931 . S
H543 C558 0.930 . S
C544 H532 0.930 . S
C544 C545 1.399 . S
C544 C549 1.399 . S
C545 C544 1.399 . S
C545 C546 1.376 . S
C546 H533 0.930 . S
C546 C545 1.376 . S
C546 C547 1.388 . S
C547 H534 0.930 . S
C547 C546 1.388 . S
C547 C548 1.390 . S
C548 C547 1.390 . S
C548 C549 1.394 . S
C548 C554 1.465 . S
C549 C544 1.399 . S
C549 C548 1.394 . S
C549 C550 1.516 . S
C550 C549 1.516 . S
C550 C551 1.502 . S
C550 C552 1.561 . S
C550 C553 1.526 . S
C551 H535 0.959 . S
C551 H536 0.959 . S
C551 H537 0.961 . S
C551 C550 1.502 . S
C552 H538 0.960 . S
C552 H539 0.961 . S
C552 H540 0.959 . S
C552 C550 1.561 . S
C553 C550 1.526 . S
C553 C554 1.396 . S
C553 C558 1.390 . S
C554 C548 1.465 . S
C554 C553 1.396 . S
C554 C555 1.399 . S
C555 H541 0.929 . S
C555 C554 1.399 . S
C555 C556 1.385 . S
C556 H542 0.931 . S
C556 C555 1.385 . S
C556 C557 1.389 . S
C557 C556 1.389 . S
C557 C558 1.387 . S
C558 H543 0.930 . S
C558 C553 1.390 . S
C558 C557 1.387 . S
H559 C571 0.930 . S
H560 C573 0.930 . S
H561 C574 0.930 . S
H562 C578 0.959 . S
H563 C578 0.959 . S
H564 C578 0.961 . S
H565 C579 0.960 . S
H566 C579 0.961 . S
H567 C579 0.959 . S
H568 C582 0.929 . S
H569 C583 0.931 . S
H570 C585 0.930 . S
C571 H559 0.930 . S
C571 C572 1.399 . S
C571 C576 1.399 . S
C572 C571 1.399 . S
C572 C573 1.376 . S
C573 H560 0.930 . S
C573 C572 1.376 . S
C573 C574 1.388 . S
C574 H561 0.930 . S
C574 C573 1.388 . S
C574 C575 1.390 . S
C575 C574 1.390 . S
C575 C576 1.394 . S
C575 C581 1.465 . S
C576 C571 1.399 . S
C576 C575 1.394 . S
C576 C577 1.516 . S
C577 C576 1.516 . S
C577 C578 1.502 . S
C577 C579 1.561 . S
C577 C580 1.526 . S
C578 H562 0.959 . S
C578 H563 0.959 . S
C578 H564 0.961 . S
C578 C577 1.502 . S
C579 H565 0.960 . S
C579 H566 0.961 . S
C579 H567 0.959 . S
C579 C577 1.561 . S
C580 C577 1.526 . S
C580 C581 1.396 . S
C580 C585 1.390 . S
C581 C575 1.465 . S
C581 C580 1.396 . S
C581 C582 1.399 . S
C582 H568 0.929 . S
C582 C581 1.399 . S
C582 C583 1.385 . S
C583 H569 0.931 . S
C583 C582 1.385 . S
C583 C584 1.389 . S
C584 C583 1.389 . S
C584 C585 1.387 . S
C585 H570 0.930 . S
C585 C580 1.390 . S
C585 C584 1.387 . S
H586 C598 0.930 . S
H587 C600 0.930 . S
H588 C601 0.930 . S
H589 C605 0.959 . S
H590 C605 0.959 . S
H591 C605 0.961 . S
H592 C606 0.960 . S
H593 C606 0.961 . S
H594 C606 0.959 . S
H595 C609 0.929 . S
H596 C610 0.931 . S
H597 C612 0.930 . S
C598 H586 0.930 . S
C598 C599 1.399 . S
C598 C603 1.399 . S
C599 C598 1.399 . S
C599 C600 1.376 . S
C600 H587 0.930 . S
C600 C599 1.376 . S
C600 C601 1.388 . S
C601 H588 0.930 . S
C601 C600 1.388 . S
C601 C602 1.390 . S
C602 C601 1.390 . S
C602 C603 1.394 . S
C602 C608 1.465 . S
C603 C598 1.399 . S
C603 C602 1.394 . S
C603 C604 1.516 . S
C604 C603 1.516 . S
C604 C605 1.502 . S
C604 C606 1.561 . S
C604 C607 1.526 . S
C605 H589 0.959 . S
C605 H590 0.959 . S
C605 H591 0.961 . S
C605 C604 1.502 . S
C606 H592 0.960 . S
C606 H593 0.961 . S
C606 H594 0.959 . S
C606 C604 1.561 . S
C607 C604 1.526 . S
C607 C608 1.396 . S
C607 C612 1.390 . S
C608 C602 1.465 . S
C608 C607 1.396 . S
C608 C609 1.399 . S
C609 H595 0.929 . S
C609 C608 1.399 . S
C609 C610 1.385 . S
C610 H596 0.931 . S
C610 C609 1.385 . S
C610 C611 1.389 . S
C611 C610 1.389 . S
C611 C612 1.387 . S
C612 H597 0.930 . S
C612 C607 1.390 . S
C612 C611 1.387 . S
H613 C625 0.930 . S
H614 C627 0.930 . S
H615 C628 0.930 . S
H616 C632 0.959 . S
H617 C632 0.959 . S
H618 C632 0.961 . S
H619 C633 0.960 . S
H620 C633 0.961 . S
H621 C633 0.959 . S
H622 C636 0.929 . S
H623 C637 0.931 . S
H624 C639 0.930 . S
C625 H613 0.930 . S
C625 C626 1.399 . S
C625 C630 1.399 . S
C626 C625 1.399 . S
C626 C627 1.376 . S
C627 H614 0.930 . S
C627 C626 1.376 . S
C627 C628 1.388 . S
C628 H615 0.930 . S
C628 C627 1.388 . S
C628 C629 1.390 . S
C629 C628 1.390 . S
C629 C630 1.394 . S
C629 C635 1.465 . S
C630 C625 1.399 . S
C630 C629 1.394 . S
C630 C631 1.516 . S
C631 C630 1.516 . S
C631 C632 1.502 . S
C631 C633 1.561 . S
C631 C634 1.526 . S
C632 H616 0.959 . S
C632 H617 0.959 . S
C632 H618 0.961 . S
C632 C631 1.502 . S
C633 H619 0.960 . S
C633 H620 0.961 . S
C633 H621 0.959 . S
C633 C631 1.561 . S
C634 C631 1.526 . S
C634 C635 1.396 . S
C634 C639 1.390 . S
C635 C629 1.465 . S
C635 C634 1.396 . S
C635 C636 1.399 . S
C636 H622 0.929 . S
C636 C635 1.399 . S
C636 C637 1.385 . S
C637 H623 0.931 . S
C637 C636 1.385 . S
C637 C638 1.389 . S
C638 C637 1.389 . S
C638 C639 1.387 . S
C639 H624 0.930 . S
C639 C634 1.390 . S
C639 C638 1.387 . S
H640 C652 0.930 . S
H641 C654 0.930 . S
H642 C655 0.930 . S
H643 C659 0.959 . S
H644 C659 0.959 . S
H645 C659 0.961 . S
H646 C660 0.960 . S
H647 C660 0.961 . S
H648 C660 0.959 . S
H649 C663 0.929 . S
H650 C664 0.931 . S
H651 C666 0.930 . S
C652 H640 0.930 . S
C652 C653 1.399 . S
C652 C657 1.399 . S
C653 C652 1.399 . S
C653 C654 1.376 . S
C654 H641 0.930 . S
C654 C653 1.376 . S
C654 C655 1.388 . S
C655 H642 0.930 . S
C655 C654 1.388 . S
C655 C656 1.390 . S
C656 C655 1.390 . S
C656 C657 1.394 . S
C656 C662 1.465 . S
C657 C652 1.399 . S
C657 C656 1.394 . S
C657 C658 1.516 . S
C658 C657 1.516 . S
C658 C659 1.502 . S
C658 C660 1.561 . S
C658 C661 1.526 . S
C659 H643 0.959 . S
C659 H644 0.959 . S
C659 H645 0.961 . S
C659 C658 1.502 . S
C660 H646 0.960 . S
C660 H647 0.961 . S
C660 H648 0.959 . S
C660 C658 1.561 . S
C661 C658 1.526 . S
C661 C662 1.396 . S
C661 C666 1.390 . S
C662 C656 1.465 . S
C662 C661 1.396 . S
C662 C663 1.399 . S
C663 H649 0.929 . S
C663 C662 1.399 . S
C663 C664 1.385 . S
C664 H650 0.931 . S
C664 C663 1.385 . S
C664 C665 1.389 . S
C665 C664 1.389 . S
C665 C666 1.387 . S
C666 H651 0.930 . S
C666 C661 1.390 . S
C666 C665 1.387 . S
H667 C679 0.930 . S
H668 C681 0.930 . S
H669 C682 0.930 . S
H670 C686 0.959 . S
H671 C686 0.959 . S
H672 C686 0.961 . S
H673 C687 0.960 . S
H674 C687 0.961 . S
H675 C687 0.959 . S
H676 C690 0.929 . S
H677 C691 0.931 . S
H678 C693 0.930 . S
C679 H667 0.930 . S
C679 C680 1.399 . S
C679 C684 1.399 . S
C680 C679 1.399 . S
C680 C681 1.376 . S
C681 H668 0.930 . S
C681 C680 1.376 . S
C681 C682 1.388 . S
C682 H669 0.930 . S
C682 C681 1.388 . S
C682 C683 1.390 . S
C683 C682 1.390 . S
C683 C684 1.394 . S
C683 C689 1.465 . S
C684 C679 1.399 . S
C684 C683 1.394 . S
C684 C685 1.516 . S
C685 C684 1.516 . S
C685 C686 1.502 . S
C685 C687 1.561 . S
C685 C688 1.526 . S
C686 H670 0.959 . S
C686 H671 0.959 . S
C686 H672 0.961 . S
C686 C685 1.502 . S
C687 H673 0.960 . S
C687 H674 0.961 . S
C687 H675 0.959 . S
C687 C685 1.561 . S
C688 C685 1.526 . S
C688 C689 1.396 . S
C688 C693 1.390 . S
C689 C683 1.465 . S
C689 C688 1.396 . S
C689 C690 1.399 . S
C690 H676 0.929 . S
C690 C689 1.399 . S
C690 C691 1.385 . S
C691 H677 0.931 . S
C691 C690 1.385 . S
C691 C692 1.389 . S
C692 C691 1.389 . S
C692 C693 1.387 . S
C693 H678 0.930 . S
C693 C688 1.390 . S
C693 C692 1.387 . S
H694 C706 0.930 . S
H695 C708 0.930 . S
H696 C709 0.930 . S
H697 C713 0.959 . S
H698 C713 0.959 . S
H699 C713 0.961 . S
H700 C714 0.960 . S
H701 C714 0.961 . S
H702 C714 0.959 . S
H703 C717 0.929 . S
H704 C718 0.931 . S
H705 C720 0.930 . S
C706 H694 0.930 . S
C706 C707 1.399 . S
C706 C711 1.399 . S
C707 C706 1.399 . S
C707 C708 1.376 . S
C708 H695 0.930 . S
C708 C707 1.376 . S
C708 C709 1.388 . S
C709 H696 0.930 . S
C709 C708 1.388 . S
C709 C710 1.390 . S
C710 C709 1.390 . S
C710 C711 1.394 . S
C710 C716 1.465 . S
C711 C706 1.399 . S
C711 C710 1.394 . S
C711 C712 1.516 . S
C712 C711 1.516 . S
C712 C713 1.502 . S
C712 C714 1.561 . S
C712 C715 1.526 . S
C713 H697 0.959 . S
C713 H698 0.959 . S
C713 H699 0.961 . S
C713 C712 1.502 . S
C714 H700 0.960 . S
C714 H701 0.961 . S
C714 H702 0.959 . S
C714 C712 1.561 . S
C715 C712 1.526 . S
C715 C716 1.396 . S
C715 C720 1.390 . S
C716 C710 1.465 . S
C716 C715 1.396 . S
C716 C717 1.399 . S
C717 H703 0.929 . S
C717 C716 1.399 . S
C717 C718 1.385 . S
C718 H704 0.931 . S
C718 C717 1.385 . S
C718 C719 1.389 . S
C719 C718 1.389 . S
C719 C720 1.387 . S
C720 H705 0.930 . S
C720 C715 1.390 . S
C720 C719 1.387 . S
H721 C733 0.930 . S
H722 C735 0.930 . S
H723 C736 0.930 . S
H724 C740 0.959 . S
H725 C740 0.959 . S
H726 C740 0.961 . S
H727 C741 0.960 . S
H728 C741 0.961 . S
H729 C741 0.959 . S
H730 C744 0.929 . S
H731 C745 0.931 . S
H732 C747 0.930 . S
C733 H721 0.930 . S
C733 C734 1.399 . S
C733 C738 1.399 . S
C734 C733 1.399 . S
C734 C735 1.376 . S
C735 H722 0.930 . S
C735 C734 1.376 . S
C735 C736 1.388 . S
C736 H723 0.930 . S
C736 C735 1.388 . S
C736 C737 1.390 . S
C737 C736 1.390 . S
C737 C738 1.394 . S
C737 C743 1.465 . S
C738 C733 1.399 . S
C738 C737 1.394 . S
C738 C739 1.516 . S
C739 C738 1.516 . S
C739 C740 1.502 . S
C739 C741 1.561 . S
C739 C742 1.526 . S
C740 H724 0.959 . S
C740 H725 0.959 . S
C740 H726 0.961 . S
C740 C739 1.502 . S
C741 H727 0.960 . S
C741 H728 0.961 . S
C741 H729 0.959 . S
C741 C739 1.561 . S
C742 C739 1.526 . S
C742 C743 1.396 . S
C742 C747 1.390 . S
C743 C737 1.465 . S
C743 C742 1.396 . S
C743 C744 1.399 . S
C744 H730 0.929 . S
C744 C743 1.399 . S
C744 C745 1.385 . S
C745 H731 0.931 . S
C745 C744 1.385 . S
C745 C746 1.389 . S
C746 C745 1.389 . S
C746 C747 1.387 . S
C747 H732 0.930 . S
C747 C742 1.390 . S
C747 C746 1.387 . S
H748 C760 0.930 . S
H749 C762 0.930 . S
H750 C763 0.930 . S
H751 C767 0.959 . S
H752 C767 0.959 . S
H753 C767 0.961 . S
H754 C768 0.960 . S
H755 C768 0.961 . S
H756 C768 0.959 . S
H757 C771 0.929 . S
H758 C772 0.931 . S
H759 C774 0.930 . S
C760 H748 0.930 . S
C760 C761 1.399 . S
C760 C765 1.399 . S
C761 C760 1.399 . S
C761 C762 1.376 . S
C762 H749 0.930 . S
C762 C761 1.376 . S
C762 C763 1.388 . S
C763 H750 0.930 . S
C763 C762 1.388 . S
C763 C764 1.390 . S
C764 C763 1.390 . S
C764 C765 1.394 . S
C764 C770 1.465 . S
C765 C760 1.399 . S
C765 C764 1.394 . S
C765 C766 1.516 . S
C766 C765 1.516 . S
C766 C767 1.502 . S
C766 C768 1.561 . S
C766 C769 1.526 . S
C767 H751 0.959 . S
C767 H752 0.959 . S
C767 H753 0.961 . S
C767 C766 1.502 . S
C768 H754 0.960 . S
C768 H755 0.961 . S
C768 H756 0.959 . S
C768 C766 1.561 . S
C769 C766 1.526 . S
C769 C770 1.396 . S
C769 C774 1.390 . S
C770 C764 1.465 . S
C770 C769 1.396 . S
C770 C771 1.399 . S
C771 H757 0.929 . S
C771 C770 1.399 . S
C771 C772 1.385 . S
C772 H758 0.931 . S
C772 C771 1.385 . S
C772 C773 1.389 . S
C773 C772 1.389 . S
C773 C774 1.387 . S
C774 H759 0.930 . S
C774 C769 1.390 . S
C774 C773 1.387 . S
H775 C787 0.930 . S
H776 C789 0.930 . S
H777 C790 0.930 . S
H778 C794 0.959 . S
H779 C794 0.959 . S
H780 C794 0.961 . S
H781 C795 0.960 . S
H782 C795 0.961 . S
H783 C795 0.959 . S
H784 C798 0.929 . S
H785 C799 0.931 . S
H786 C801 0.930 . S
C787 H775 0.930 . S
C787 C788 1.399 . S
C787 C792 1.399 . S
C788 C787 1.399 . S
C788 C789 1.376 . S
C789 H776 0.930 . S
C789 C788 1.376 . S
C789 C790 1.388 . S
C790 H777 0.930 . S
C790 C789 1.388 . S
C790 C791 1.390 . S
C791 C790 1.390 . S
C791 C792 1.394 . S
C791 C797 1.465 . S
C792 C787 1.399 . S
C792 C791 1.394 . S
C792 C793 1.516 . S
C793 C792 1.516 . S
C793 C794 1.502 . S
C793 C795 1.561 . S
C793 C796 1.526 . S
C794 H778 0.959 . S
C794 H779 0.959 . S
C794 H780 0.961 . S
C794 C793 1.502 . S
C795 H781 0.960 . S
C795 H782 0.961 . S
C795 H783 0.959 . S
C795 C793 1.561 . S
C796 C793 1.526 . S
C796 C797 1.396 . S
C796 C801 1.390 . S
C797 C791 1.465 . S
C797 C796 1.396 . S
C797 C798 1.399 . S
C798 H784 0.929 . S
C798 C797 1.399 . S
C798 C799 1.385 . S
C799 H785 0.931 . S
C799 C798 1.385 . S
C799 C800 1.389 . S
C800 C799 1.389 . S
C800 C801 1.387 . S
C801 H786 0.930 . S
C801 C796 1.390 . S
C801 C800 1.387 . S
H802 C814 0.930 . S
H803 C816 0.930 . S
H804 C817 0.930 . S
H805 C821 0.959 . S
H806 C821 0.959 . S
H807 C821 0.961 . S
H808 C822 0.960 . S
H809 C822 0.961 . S
H810 C822 0.959 . S
H811 C825 0.929 . S
H812 C826 0.931 . S
H813 C828 0.930 . S
C814 H802 0.930 . S
C814 C815 1.399 . S
C814 C819 1.399 . S
C815 C814 1.399 . S
C815 C816 1.376 . S
C816 H803 0.930 . S
C816 C815 1.376 . S
C816 C817 1.388 . S
C817 H804 0.930 . S
C817 C816 1.388 . S
C817 C818 1.390 . S
C818 C817 1.390 . S
C818 C819 1.394 . S
C818 C824 1.465 . S
C819 C814 1.399 . S
C819 C818 1.394 . S
C819 C820 1.516 . S
C820 C819 1.516 . S
C820 C821 1.502 . S
C820 C822 1.561 . S
C820 C823 1.526 . S
C821 H805 0.959 . S
C821 H806 0.959 . S
C821 H807 0.961 . S
C821 C820 1.502 . S
C822 H808 0.960 . S
C822 H809 0.961 . S
C822 H810 0.959 . S
C822 C820 1.561 . S
C823 C820 1.526 . S
C823 C824 1.396 . S
C823 C828 1.390 . S
C824 C818 1.465 . S
C824 C823 1.396 . S
C824 C825 1.399 . S
C825 H811 0.929 . S
C825 C824 1.399 . S
C825 C826 1.385 . S
C826 H812 0.931 . S
C826 C825 1.385 . S
C826 C827 1.389 . S
C827 C826 1.389 . S
C827 C828 1.387 . S
C828 H813 0.930 . S
C828 C823 1.390 . S
C828 C827 1.387 . S
H829 C841 0.930 . S
H830 C843 0.930 . S
H831 C844 0.930 . S
H832 C848 0.959 . S
H833 C848 0.959 . S
H834 C848 0.961 . S
H835 C849 0.960 . S
H836 C849 0.961 . S
H837 C849 0.959 . S
H838 C852 0.929 . S
H839 C853 0.931 . S
H840 C855 0.930 . S
C841 H829 0.930 . S
C841 C842 1.399 . S
C841 C846 1.399 . S
C842 C841 1.399 . S
C842 C843 1.376 . S
C843 H830 0.930 . S
C843 C842 1.376 . S
C843 C844 1.388 . S
C844 H831 0.930 . S
C844 C843 1.388 . S
C844 C845 1.390 . S
C845 C844 1.390 . S
C845 C846 1.394 . S
C845 C851 1.465 . S
C846 C841 1.399 . S
C846 C845 1.394 . S
C846 C847 1.516 . S
C847 C846 1.516 . S
C847 C848 1.502 . S
C847 C849 1.561 . S
C847 C850 1.526 . S
C848 H832 0.959 . S
C848 H833 0.959 . S
C848 H834 0.961 . S
C848 C847 1.502 . S
C849 H835 0.960 . S
C849 H836 0.961 . S
C849 H837 0.959 . S
C849 C847 1.561 . S
C850 C847 1.526 . S
C850 C851 1.396 . S
C850 C855 1.390 . S
C851 C845 1.465 . S
C851 C850 1.396 . S
C851 C852 1.399 . S
C852 H838 0.929 . S
C852 C851 1.399 . S
C852 C853 1.385 . S
C853 H839 0.931 . S
C853 C852 1.385 . S
C853 C854 1.389 . S
C854 C853 1.389 . S
C854 C855 1.387 . S
C855 H840 0.930 . S
C855 C850 1.390 . S
C855 C854 1.387 . S
H856 C868 0.930 . S
H857 C870 0.930 . S
H858 C871 0.930 . S
H859 C875 0.959 . S
H860 C875 0.959 . S
H861 C875 0.961 . S
H862 C876 0.960 1_655 S
H863 C876 0.961 1_545 S
H864 C876 0.959 . S
H865 C879 0.929 . S
H866 C880 0.931 . S
H867 C882 0.930 . S
C868 H856 0.930 . S
C868 C869 1.399 . S
C868 C873 1.399 . S
C869 C868 1.399 . S
C869 C870 1.376 . S
C870 H857 0.930 . S
C870 C869 1.376 . S
C870 C871 1.388 1_655 S
C871 H858 0.930 . S
C871 C870 1.388 1_455 S
C871 C872 1.390 . S
C872 C871 1.390 . S
C872 C873 1.394 1_455 S
C872 C878 1.465 1_565 S
C873 C868 1.399 . S
C873 C872 1.394 1_655 S
C873 C874 1.516 1_565 S
C874 C873 1.516 1_545 S
C874 C875 1.502 . S
C874 C876 1.561 1_645 S
C874 C877 1.526 1_655 S
C875 H859 0.959 . S
C875 H860 0.959 . S
C875 H861 0.961 . S
C875 C874 1.502 . S
C876 H862 0.960 1_455 S
C876 H863 0.961 1_565 S
C876 H864 0.959 . S
C876 C874 1.561 1_465 S
C877 C874 1.526 1_455 S
C877 C878 1.396 . S
C877 C882 1.390 . S
C878 C872 1.465 1_545 S
C878 C877 1.396 . S
C878 C879 1.399 . S
C879 H865 0.929 . S
C879 C878 1.399 . S
C879 C880 1.385 . S
C880 H866 0.931 . S
C880 C879 1.385 . S
C880 C881 1.389 . S
C881 C880 1.389 . S
C881 C882 1.387 . S
C882 H867 0.930 . S
C882 C877 1.390 . S
C882 C881 1.387 . S
H883 C895 0.930 . S
H884 C897 0.930 1_565 S
H885 C898 0.930 . S
H886 C902 0.959 . S
H887 C902 0.959 . S
H888 C902 0.961 . S
H889 C903 0.960 1_655 S
H890 C903 0.961 . S
H891 C903 0.959 . S
H892 C906 0.929 . S
H893 C907 0.931 . S
H894 C909 0.930 1_545 S
C895 H883 0.930 . S
C895 C896 1.399 . S
C895 C900 1.399 . S
C896 C895 1.399 . S
C896 C897 1.376 . S
C897 H884 0.930 1_545 S
C897 C896 1.376 . S
C897 C898 1.388 1_545 S
C898 H885 0.930 . S
C898 C897 1.388 1_565 S
C898 C899 1.390 . S
C899 C898 1.390 . S
C899 C900 1.394 1_565 S
C899 C905 1.465 1_655 S
C900 C895 1.399 . S
C900 C899 1.394 1_545 S
C900 C901 1.516 1_655 S
C901 C900 1.516 1_455 S
C901 C902 1.502 . S
C901 C903 1.561 . S
C901 C904 1.526 1_545 S
C902 H886 0.959 . S
C902 H887 0.959 . S
C902 H888 0.961 . S
C902 C901 1.502 . S
C903 H889 0.960 1_455 S
C903 H890 0.961 . S
C903 H891 0.959 . S
C903 C901 1.561 . S
C904 C901 1.526 1_565 S
C904 C905 1.396 . S
C904 C909 1.390 . S
C905 C899 1.465 1_455 S
C905 C904 1.396 . S
C905 C906 1.399 . S
C906 H892 0.929 . S
C906 C905 1.399 . S
C906 C907 1.385 . S
C907 H893 0.931 . S
C907 C906 1.385 . S
C907 C908 1.389 . S
C908 C907 1.389 . S
C908 C909 1.387 . S
C909 H894 0.930 1_565 S
C909 C904 1.390 . S
C909 C908 1.387 . S
H910 C922 0.930 . S
H911 C924 0.936 . S
H912 C925 0.930 . S
H913 C929 0.959 . S
H914 C929 0.959 . S
H915 C929 0.961 . S
H916 C930 0.960 . S
H917 C930 0.961 . S
H918 C930 0.959 1_655 S
H919 C933 0.929 . S
H920 C934 0.931 . S
H921 C936 0.930 . S
C922 H910 0.930 . S
C922 C923 1.399 . S
C922 C927 1.399 . S
C923 C922 1.399 . S
C923 C924 1.376 . S
C924 H911 0.936 . S
C924 C923 1.376 . S
C924 C925 1.388 1_455 S
C925 H912 0.930 . S
C925 C924 1.388 1_655 S
C925 C926 1.390 . S
C926 C925 1.390 . S
C926 C927 1.394 1_655 S
C926 C932 1.465 . S
C927 C922 1.399 . S
C927 C926 1.394 1_455 S
C927 C928 1.516 . S
C928 C927 1.516 . S
C928 C929 1.502 . S
C928 C930 1.561 . S
C928 C931 1.526 1_455 S
C929 H913 0.959 . S
C929 H914 0.959 . S
C929 H915 0.961 . S
C929 C928 1.502 . S
C930 H916 0.960 . S
C930 H917 0.961 . S
C930 H918 0.959 1_455 S
C930 C928 1.561 . S
C931 C928 1.526 1_655 S
C931 C932 1.396 . S
C931 C936 1.390 . S
C932 C926 1.465 . S
C932 C931 1.396 . S
C932 C933 1.399 . S
C933 H919 0.929 . S
C933 C932 1.399 . S
C933 C934 1.385 . S
C934 H920 0.931 . S
C934 C933 1.385 . S
C934 C935 1.389 . S
C935 C934 1.389 . S
C935 C936 1.387 . S
C936 H921 0.930 . S
C936 C931 1.390 . S
C936 C935 1.387 . S
H937 C949 0.930 . S
H938 C951 0.930 . S
H939 C952 0.930 . S
H940 C956 0.959 . S
H941 C956 0.959 . S
H942 C956 0.961 . S
H943 C957 0.960 . S
H944 C957 0.961 . S
H945 C957 0.959 . S
H946 C960 0.929 . S
H947 C961 0.931 . S
H948 C963 0.930 . S
C949 H937 0.930 . S
C949 C950 1.399 . S
C949 C954 1.399 . S
C950 C949 1.399 . S
C950 C951 1.376 . S
C951 H938 0.930 . S
C951 C950 1.376 . S
C951 C952 1.388 1_565 S
C952 H939 0.930 . S
C952 C951 1.388 1_545 S
C952 C953 1.390 . S
C953 C952 1.390 . S
C953 C954 1.394 1_545 S
C953 C959 1.465 . S
C954 C949 1.399 . S
C954 C953 1.394 1_565 S
C954 C955 1.516 . S
C955 C954 1.516 . S
C955 C956 1.502 . S
C955 C957 1.561 1_565 S
C955 C958 1.526 1_565 S
C956 H940 0.959 . S
C956 H941 0.959 . S
C956 H942 0.961 . S
C956 C955 1.502 . S
C957 H943 0.960 . S
C957 H944 0.961 . S
C957 H945 0.959 . S
C957 C955 1.561 1_545 S
C958 C955 1.526 1_545 S
C958 C959 1.396 . S
C958 C963 1.390 . S
C959 C953 1.465 . S
C959 C958 1.396 . S
C959 C960 1.399 . S
C960 H946 0.929 . S
C960 C959 1.399 . S
C960 C961 1.385 . S
C961 H947 0.931 . S
C961 C960 1.385 . S
C961 C962 1.389 . S
C962 C961 1.389 . S
C962 C963 1.387 . S
C963 H948 0.930 . S
C963 C958 1.390 . S
C963 C962 1.387 . S
H964 C976 0.930 . S
H965 C978 0.930 . S
H966 C979 0.930 . S
H967 C983 0.959 . S
H968 C983 0.959 . S
H969 C983 0.961 . S
H970 C984 0.960 . S
H971 C984 0.961 . S
H972 C984 0.959 . S
H973 C987 0.929 . S
H974 C988 0.931 . S
H975 C990 0.930 . S
C976 H964 0.930 . S
C976 C977 1.399 . S
C976 C981 1.399 . S
C977 C976 1.399 . S
C977 C978 1.376 . S
C978 H965 0.930 . S
C978 C977 1.376 . S
C978 C979 1.388 . S
C979 H966 0.930 . S
C979 C978 1.388 . S
C979 C980 1.390 . S
C980 C979 1.390 . S
C980 C981 1.394 . S
C980 C986 1.465 . S
C981 C976 1.399 . S
C981 C980 1.394 . S
C981 C982 1.516 . S
C982 C981 1.516 . S
C982 C983 1.502 . S
C982 C984 1.561 . S
C982 C985 1.526 . S
C983 H967 0.959 . S
C983 H968 0.959 . S
C983 H969 0.961 . S
C983 C982 1.502 . S
C984 H970 0.960 . S
C984 H971 0.961 . S
C984 H972 0.959 . S
C984 C982 1.561 . S
C985 C982 1.526 . S
C985 C986 1.396 . S
C985 C990 1.390 . S
C986 C980 1.465 . S
C986 C985 1.396 . S
C986 C987 1.399 . S
C987 H973 0.929 . S
C987 C986 1.399 . S
C987 C988 1.385 . S
C988 H974 0.931 . S
C988 C987 1.385 . S
C988 C989 1.389 . S
C989 C988 1.389 . S
C989 C990 1.387 . S
C990 H975 0.930 . S
C990 C985 1.390 . S
C990 C989 1.387 . S
H991 C1003 0.930 . S
H992 C1005 0.930 . S
H993 C1006 0.930 . S
H994 C1010 0.959 . S
H995 C1010 0.959 . S
H996 C1010 0.961 . S
H997 C1011 0.960 . S
H998 C1011 0.961 . S
H999 C1011 0.959 . S
H1000 C1014 0.929 . S
H1001 C1015 0.931 . S
H1002 C1017 0.930 . S
C1003 H991 0.930 . S
C1003 C1004 1.399 . S
C1003 C1008 1.399 . S
C1004 C1003 1.399 . S
C1004 C1005 1.376 . S
C1005 H992 0.930 . S
C1005 C1004 1.376 . S
C1005 C1006 1.388 . S
C1006 H993 0.930 . S
C1006 C1005 1.388 . S
C1006 C1007 1.390 . S
C1007 C1006 1.390 . S
C1007 C1008 1.394 . S
C1007 C1013 1.465 . S
C1008 C1003 1.399 . S
C1008 C1007 1.394 . S
C1008 C1009 1.516 . S
C1009 C1008 1.516 . S
C1009 C1010 1.502 . S
C1009 C1011 1.561 . S
C1009 C1012 1.526 . S
C1010 H994 0.959 . S
C1010 H995 0.959 . S
C1010 H996 0.961 . S
C1010 C1009 1.502 . S
C1011 H997 0.960 . S
C1011 H998 0.961 . S
C1011 H999 0.959 . S
C1011 C1009 1.561 . S
C1012 C1009 1.526 . S
C1012 C1013 1.396 . S
C1012 C1017 1.390 . S
C1013 C1007 1.465 . S
C1013 C1012 1.396 . S
C1013 C1014 1.399 . S
C1014 H1000 0.929 . S
C1014 C1013 1.399 . S
C1014 C1015 1.385 . S
C1015 H1001 0.931 . S
C1015 C1014 1.385 . S
C1015 C1016 1.389 . S
C1016 C1015 1.389 . S
C1016 C1017 1.387 . S
C1017 H1002 0.930 . S
C1017 C1012 1.390 . S
C1017 C1016 1.387 . S
H1018 C1030 0.930 . S
H1019 C1032 0.930 . S
H1020 C1033 0.930 . S
H1021 C1037 0.959 . S
H1022 C1037 0.959 . S
H1023 C1037 0.961 . S
H1024 C1038 0.960 1_545 S
H1025 C1038 0.961 . S
H1026 C1038 0.959 . S
H1027 C1041 0.929 . S
H1028 C1042 0.931 . S
H1029 C1044 0.930 . S
C1030 H1018 0.930 . S
C1030 C1031 1.399 . S
C1030 C1035 1.399 . S
C1031 C1030 1.399 . S
C1031 C1032 1.376 . S
C1032 H1019 0.930 . S
C1032 C1031 1.376 . S
C1032 C1033 1.388 . S
C1033 H1020 0.930 . S
C1033 C1032 1.388 . S
C1033 C1034 1.390 . S
C1034 C1033 1.390 . S
C1034 C1035 1.394 . S
C1034 C1040 1.465 1_545 S
C1035 C1030 1.399 . S
C1035 C1034 1.394 . S
C1035 C1036 1.516 . S
C1036 C1035 1.516 . S
C1036 C1037 1.502 . S
C1036 C1038 1.561 1_545 S
C1036 C1039 1.526 1_545 S
C1037 H1021 0.959 . S
C1037 H1022 0.959 . S
C1037 H1023 0.961 . S
C1037 C1036 1.502 . S
C1038 H1024 0.960 1_565 S
C1038 H1025 0.961 . S
C1038 H1026 0.959 . S
C1038 C1036 1.561 1_565 S
C1039 C1036 1.526 1_565 S
C1039 C1040 1.396 . S
C1039 C1044 1.390 . S
C1040 C1034 1.465 1_565 S
C1040 C1039 1.396 . S
C1040 C1041 1.399 . S
C1041 H1027 0.929 . S
C1041 C1040 1.399 . S
C1041 C1042 1.385 . S
C1042 H1028 0.931 . S
C1042 C1041 1.385 . S
C1042 C1043 1.389 . S
C1043 C1042 1.389 . S
C1043 C1044 1.387 . S
C1044 H1029 0.930 . S
C1044 C1039 1.390 . S
C1044 C1043 1.387 . S
H1045 C1057 0.930 . S
H1046 C1059 0.930 . S
H1047 C1060 0.930 . S
H1048 C1064 0.959 . S
H1049 C1064 0.959 . S
H1050 C1064 0.961 1_655 S
H1051 C1065 0.960 . S
H1052 C1065 0.961 1_455 S
H1053 C1065 0.959 . S
H1054 C1068 0.929 . S
H1055 C1069 0.931 . S
H1056 C1071 0.930 . S
C1057 H1045 0.930 . S
C1057 C1058 1.399 . S
C1057 C1062 1.399 . S
C1058 C1057 1.399 . S
C1058 C1059 1.376 . S
C1059 H1046 0.930 . S
C1059 C1058 1.376 . S
C1059 C1060 1.388 . S
C1060 H1047 0.930 . S
C1060 C1059 1.388 . S
C1060 C1061 1.390 . S
C1061 C1060 1.390 . S
C1061 C1062 1.394 . S
C1061 C1067 1.465 1_655 S
C1062 C1057 1.399 . S
C1062 C1061 1.394 . S
C1062 C1063 1.516 1_655 S
C1063 C1062 1.516 1_455 S
C1063 C1064 1.502 . S
C1063 C1065 1.561 1_455 S
C1063 C1066 1.526 . S
C1064 H1048 0.959 . S
C1064 H1049 0.959 . S
C1064 H1050 0.961 1_455 S
C1064 C1063 1.502 . S
C1065 H1051 0.960 . S
C1065 H1052 0.961 1_655 S
C1065 H1053 0.959 . S
C1065 C1063 1.561 1_655 S
C1066 C1063 1.526 . S
C1066 C1067 1.396 . S
C1066 C1071 1.390 . S
C1067 C1061 1.465 1_455 S
C1067 C1066 1.396 . S
C1067 C1068 1.399 . S
C1068 H1054 0.929 . S
C1068 C1067 1.399 . S
C1068 C1069 1.385 . S
C1069 H1055 0.931 . S
C1069 C1068 1.385 . S
C1069 C1070 1.389 . S
C1070 C1069 1.389 . S
C1070 C1071 1.387 . S
C1071 H1056 0.930 . S
C1071 C1066 1.390 . S
C1071 C1070 1.387 . S
C221 C5 1.688 . S
C233 C144 1.676 . S
C248 C105 1.605 . S
C260 C18 1.633 . S
C275 C118 1.683 . S
C287 C31 1.686 . S
C302 C131 1.601 . S
C314 C44 1.640 . S
C329 C66 1.668 1_545 S
C341 C57 1.688 . S
C356 C70 1.661 . S
C368 C79 1.605 1_455 S
C383 C83 1.688 . S
C395 C92 1.669 1_565 S
C410 C96 1.676 . S
C422 C53 1.629 1_655 S
C437 C109 1.683 . S
C449 C40 1.676 1_565 S
C464 C1 1.665 1_655 S
C476 C122 1.654 . S
C491 C14 1.668 1_545 S
C503 C135 1.688 . S
C518 C27 1.659 1_455 S
C530 C148 1.670 . S
C545 C170 1.689 . S
C557 C161 1.683 . S
C572 C174 1.625 . S
C584 C183 1.629 . S
C599 C196 1.690 . S
C611 C187 1.681 . S
C626 C157 1.636 . S
C638 C200 1.627 . S
C653 C185 1.791 . S
C665 C3 1.830 . S
C680 C198 1.888 . S
C692 C16 1.898 . S
C707 C159 1.783 . S
C719 C29 1.833 . S
C734 C42 1.889 . S
C746 C172 1.899 . S
C761 C55 1.790 . S
C773 C133 1.831 . S
C788 C146 1.888 . S
C800 C68 1.898 . S
C815 C81 1.803 . S
C827 C107 1.763 . S
C842 C94 1.880 . S
C854 C120 1.877 . S
C869 C36 1.577 . S
C881 C10 1.589 . S
C896 C49 1.572 . S
C908 C23 1.568 . S
C923 C62 1.578 . S
C935 C88 1.591 . S
C950 C75 1.585 . S
C962 C101 1.583 . S
C977 C140 1.601 . S
C989 C114 1.590 . S
C1004 C127 1.587 . S
C1016 C153 1.585 . S
C1031 C192 1.601 . S
C1043 C166 1.592 . S
C1058 C179 1.588 . S
C1070 C205 1.586 . S
