# Generated by pormake.
# Topology qtz-e, (6)-cn, num edge types: 1
# Building blocks:
#     Node 0, Type 0, BuildingBlock: BETDIP_clean_sbu_0, # of connection points: 6
#     Node 1, Type 0, BuildingBlock: BETDIP_clean_sbu_0, # of connection points: 6
#     Node 2, Type 0, BuildingBlock: BETDIP_clean_sbu_0, # of connection points: 6
#     Node 3, Type 0, BuildingBlock: BETDIP_clean_sbu_0, # of connection points: 6
#     Node 4, Type 0, BuildingBlock: BETDIP_clean_sbu_0, # of connection points: 6
#     Node 5, Type 0, BuildingBlock: BETDIP_clean_sbu_0, # of connection points: 6
#     Edge 6, Type (0, 0), BuildingBlock: TEMPAE_clean_linker_10, # of connection points: 2
#     Edge 7, Type (0, 0), BuildingBlock: TEMPAE_clean_linker_10, # of connection points: 2
#     Edge 8, Type (0, 0), BuildingBlock: TEMPAE_clean_linker_10, # of connection points: 2
#     Edge 9, Type (0, 0), BuildingBlock: TEMPAE_clean_linker_10, # of connection points: 2
#     Edge 10, Type (0, 0), BuildingBlock: TEMPAE_clean_linker_10, # of connection points: 2
#     Edge 11, Type (0, 0), BuildingBlock: TEMPAE_clean_linker_10, # of connection points: 2
#     Edge 12, Type (0, 0), BuildingBlock: TEMPAE_clean_linker_10, # of connection points: 2
#     Edge 13, Type (0, 0), BuildingBlock: TEMPAE_clean_linker_10, # of connection points: 2
#     Edge 14, Type (0, 0), BuildingBlock: TEMPAE_clean_linker_10, # of connection points: 2
#     Edge 15, Type (0, 0), BuildingBlock: TEMPAE_clean_linker_10, # of connection points: 2
#     Edge 16, Type (0, 0), BuildingBlock: TEMPAE_clean_linker_10, # of connection points: 2
#     Edge 17, Type (0, 0), BuildingBlock: TEMPAE_clean_linker_10, # of connection points: 2
#     Edge 18, Type (0, 0), BuildingBlock: TEMPAE_clean_linker_10, # of connection points: 2
#     Edge 19, Type (0, 0), BuildingBlock: TEMPAE_clean_linker_10, # of connection points: 2
#     Edge 20, Type (0, 0), BuildingBlock: TEMPAE_clean_linker_10, # of connection points: 2
#     Edge 21, Type (0, 0), BuildingBlock: TEMPAE_clean_linker_10, # of connection points: 2
#     Edge 22, Type (0, 0), BuildingBlock: TEMPAE_clean_linker_10, # of connection points: 2
#     Edge 23, Type (0, 0), BuildingBlock: TEMPAE_clean_linker_10, # of connection points: 2
# Relax obj value: 0.119
# Max RMSD: 0.192
# Mean RMSD: 0.192
data_MOF--net-qtz-e--node1-BETDIP_clean_sbu_0--edge1-TEMPAE_clean_linker_10
_symmetry_space_group_name_H-M    P1
_symmetry_Int_Tables_number       1
_symmetry_cell_setting            triclinic
loop_
_symmetry_equiv_pos_as_xyz
'x, y, z'
_cell_length_a     25.412225
_cell_length_b     25.362947
_cell_length_c     51.851939
_cell_angle_alpha  90.042693
_cell_angle_beta   90.003039
_cell_angle_gamma 119.47523
loop_
_atom_site_label
_atom_site_type_symbol
_atom_site_fract_x
_atom_site_fract_y
_atom_site_fract_z
_atom_type_partial_charge
Tb0 Tb 0.19072 0.4497 0.07497 0.0
Tb1 Tb 0.16718 0.3251 0.05922 0.0
C2 C 0.18668 0.54322 0.08615 0.0
C3 C 0.17652 0.56205 0.11192 0.0
C4 C 0.12479 0.52353 0.1264 0.0
C5 C 0.11996 0.53613 0.15225 0.0
C6 C 0.16663 0.58749 0.16428 0.0
C7 C 0.21695 0.62767 0.14947 0.0
C8 C 0.22185 0.615 0.12355 0.0
C9 C 0.25875 0.4133 0.09921 0.0
C10 C 0.1166 0.3376 0.11143 0.0
C11 C 0.17273 0.23976 0.03711 0.0
C12 C 0.19219 0.23589 1.01032 0.0
C13 C 0.25341 0.25783 1.00408 0.0
C14 C 0.27137 0.2593 0.97833 0.0
C15 C 0.22869 0.2395 0.95815 0.0
C16 C 0.16737 0.21567 0.96457 0.0
C17 C 0.14938 0.21357 0.99022 0.0
C18 C 0.08427 0.3548 0.04758 0.0
C19 C 0.24776 0.43949 1.02274 0.0
O20 O 0.14059 0.49488 0.07622 0.0
O21 O 0.2379 0.54279 0.08338 0.0
O22 O 0.24201 0.40347 0.07599 0.0
O23 O 0.23788 0.44593 0.10925 0.0
O24 O 0.1198 0.38687 0.10104 0.0
O25 O 0.14128 0.3083 0.09984 0.0
O26 O 0.21413 0.27676 0.05332 0.0
O27 O 0.12327 0.24331 0.03884 0.0
O28 O 0.1401 0.38659 0.04621 0.0
O29 O 0.07104 0.30238 0.05694 0.0
O30 O 0.22292 0.38061 0.02717 0.0
O31 O 0.24034 0.4764 0.03857 0.0
H32 H 0.08873 0.48241 0.11809 0.0
H33 H 0.08013 0.50501 0.16298 0.0
H34 H 0.25383 0.66754 0.15821 0.0
H35 H 0.26228 0.64527 0.11291 0.0
H36 H 0.28769 0.27521 1.01899 0.0
H37 H 0.31895 0.27761 0.97419 0.0
H38 H 0.13299 0.19852 0.94969 0.0
H39 H 0.10175 0.19557 0.99423 0.0
Tb40 Tb 0.68864 0.18338 0.40319 0.0
Tb41 Tb 0.81319 0.2018 0.39439 0.0
C42 C 0.58478 0.14393 0.4213 0.0
C43 C 0.56964 0.14467 0.44867 0.0
C44 C 0.50976 0.11355 0.45748 0.0
C45 C 0.4971 0.11464 0.48376 0.0
C46 C 0.54431 0.14616 0.50156 0.0
C47 C 0.60412 0.17688 0.49258 0.0
C48 C 0.61655 0.17665 0.46642 0.0
C49 C 0.77436 0.29281 0.41269 0.0
C50 C 0.76056 0.15581 0.44811 0.0
C51 C 0.91836 0.24277 0.37713 0.0
C52 C 0.94041 0.2501 0.35008 0.0
C53 C 0.97886 0.30812 0.34008 0.0
C54 C -0.0034 0.31576 0.31411 0.0
C55 C 0.97635 0.26547 0.29749 0.0
C56 C 0.93843 0.20742 0.30767 0.0
C57 C 0.92057 0.19983 0.33355 0.0
C58 C 0.7229 0.09381 0.38333 0.0
C59 C 0.74213 0.229 0.34904 0.0
O60 O 0.60773 0.10897 0.41579 0.0
O61 O 0.61517 0.19728 0.41055 0.0
O62 O 0.77645 0.24534 0.41774 0.0
O63 O 0.72188 0.27974 0.40389 0.0
O64 O 0.70862 0.14354 0.43714 0.0
O65 O 0.81241 0.18823 0.43583 0.0
O66 O 0.89611 0.27749 0.38414 0.0
O67 O 0.88553 0.18718 0.38554 0.0
O68 O 0.72649 0.14369 0.37929 0.0
O69 O 0.77256 0.1017 0.39371 0.0
O70 O 0.79407 0.24074 0.35994 0.0
O71 O 0.69014 0.19669 0.36146 0.0
H72 H 0.47293 0.0887 0.44411 0.0
H73 H 0.45057 0.09051 0.49021 0.0
H74 H 0.64131 0.20228 0.50574 0.0
H75 H 0.66304 0.20191 0.46002 0.0
H76 H -0.0056 0.34774 0.35227 0.0
H77 H 0.02512 0.36124 0.30693 0.0
H78 H 0.92264 0.16752 0.29566 0.0
H79 H 0.89062 0.15441 0.34046 0.0
Tb80 Tb 0.51429 0.73106 0.74876 0.0
Tb81 Tb 0.62398 0.84298 0.72768 0.0
C82 C 0.43286 0.6286 0.76307 0.0
C83 C 0.41607 0.60486 0.78948 0.0
C84 C 0.383 0.54241 0.79424 0.0
C85 C 0.3702 0.52076 0.81964 0.0
C86 C 0.39045 0.56138 0.84061 0.0
C87 C 0.42345 0.62386 0.83561 0.0
C88 C 0.43624 0.64527 0.81036 0.0
C89 C 0.52075 0.83458 0.76149 0.0
C90 C 0.62419 0.80186 0.78586 0.0
C91 C 0.70612 0.94231 0.71065 0.0
C92 C 0.71574 0.96637 0.68404 0.0
C93 C 0.68581 0.92728 0.66331 0.0
C94 C 0.69319 0.94954 0.63813 0.0
C95 C 0.73097 0.01156 0.63297 0.0
C96 C 0.76079 0.05071 0.65384 0.0
C97 C 0.75317 0.02829 0.67913 0.0
C98 C 0.61274 0.73656 0.71554 0.0
C99 C 0.51298 0.77481 0.69151 0.0
O100 O 0.48664 0.63967 0.75581 0.0
O101 O 0.42266 0.67298 0.75709 0.0
O102 O 0.53559 0.82217 0.7401 0.0
O103 O 0.49818 0.78683 0.77589 0.0
O104 O 0.57542 0.74975 0.78064 0.0
O105 O 0.64887 0.84678 0.76879 0.0
O106 O 0.65766 0.93628 0.72221 0.0
O107 O 0.71273 0.89468 0.71394 0.0
O108 O 0.60204 0.75301 0.7367 0.0
O109 O 0.63163 0.78158 0.69969 0.0
O110 O 0.55847 0.8281 0.69804 0.0
O111 O 0.49214 0.72778 0.70742 0.0
H112 H 0.36737 0.51038 0.77844 0.0
H113 H 0.34503 0.47233 0.82288 0.0
H114 H 0.43869 0.65645 0.85123 0.0
H115 H 0.46203 0.69361 0.80717 0.0
H116 H 0.65639 0.87935 0.66658 0.0
H117 H 0.66858 0.91811 0.62272 0.0
H118 H 0.79062 0.0986 0.65061 0.0
H119 H 0.7765 0.0593 0.69484 0.0
Tb120 Tb 0.75849 0.50247 0.06893 0.0
Tb121 Tb 0.79338 0.63136 0.05736 0.0
C122 C 0.76149 0.4098 0.08412 0.0
C123 C 0.76571 0.38747 0.11 0.0
C124 C 0.81044 0.42501 0.12774 0.0
C125 C 0.80966 0.40549 0.15304 0.0
C126 C 0.76436 0.34795 0.16115 0.0
C127 C 0.7212 0.30951 0.14308 0.0
C128 C 0.72184 0.32916 0.11778 0.0
C129 C 0.67384 0.52987 0.07864 0.0
C130 C 0.82802 0.60855 0.11153 0.0
C131 C 0.79396 0.72435 0.04051 0.0
C132 C 0.78657 0.74205 1.01416 0.0
C133 C 0.74734 0.76518 1.0098 0.0
C134 C 0.73743 0.77899 0.98475 0.0
C135 C 0.7669 0.77032 0.96349 0.0
C136 C 0.80668 0.74762 0.96803 0.0
C137 C 0.81606 0.73325 0.99303 0.0
C138 C 0.87302 0.59714 0.04592 0.0
C139 C 0.72192 0.52664 1.0149 0.0
O140 O 0.80912 0.45888 0.07584 0.0
O141 O 0.71132 0.41066 0.07942 0.0
O142 O 0.72943 0.56385 0.08294 0.0
O143 O 0.66456 0.47764 0.07068 0.0
O144 O 0.81197 0.55315 0.10308 0.0
O145 O 0.81772 0.64642 0.09778 0.0
O146 O 0.74594 0.67842 0.0505 0.0
O147 O 0.84316 0.72132 0.04486 0.0
O148 O 0.81734 0.5686 0.04297 0.0
O149 O 0.88817 0.6498 0.05561 0.0
O150 O 0.73586 0.58079 1.02418 0.0
O151 O 0.73534 0.48988 0.028 0.0
H152 H 0.84525 0.47006 0.12233 0.0
H153 H 0.84418 0.43574 0.16636 0.0
H154 H 0.68555 0.26506 0.14874 0.0
H155 H 0.68691 0.29938 0.10447 0.0
H156 H 0.72353 0.77161 1.02575 0.0
H157 H 0.70551 0.79513 0.98203 0.0
H158 H 0.83077 0.74094 0.95228 0.0
H159 H 0.84609 0.71478 0.99574 0.0
Tb160 Tb 0.26035 0.7443 0.40518 0.0
Tb161 Tb 0.17068 0.78461 0.3879 0.0
C162 C 0.35204 0.74616 0.42376 0.0
C163 C 0.36731 0.74647 0.45114 0.0
C164 C 0.42743 0.77037 0.45913 0.0
C165 C 0.4411 0.77188 0.4854 0.0
C166 C 0.39474 0.74942 0.50408 0.0
C167 C 0.3346 0.72585 0.49582 0.0
C168 C 0.32112 0.72478 0.46969 0.0
C169 C 0.14895 0.67129 0.41783 0.0
C170 C 0.22925 0.8298 0.44193 0.0
C171 C 0.08026 0.78345 0.36791 0.0
C172 C 0.05553 0.76835 0.3414 0.0
C173 C -0.00695 0.73279 0.33753 0.0
C174 C 0.96938 0.71605 0.31258 0.0
C175 C 0.00769 0.73485 0.29084 0.0
C176 C 0.07045 0.77037 0.2949 0.0
C177 C 0.09407 0.78653 0.31985 0.0
C178 C 0.28419 0.85244 0.3737 0.0
C179 C 0.19612 0.69492 0.35246 0.0
O180 O 0.35177 0.79508 0.41581 0.0
O181 O 0.30447 0.69643 0.41585 0.0
O182 O 0.17382 0.7279 0.41734 0.0
O183 O 0.18795 0.65364 0.41334 0.0
O184 O 0.26606 0.80842 0.43565 0.0
O185 O 0.18261 0.81978 0.42711 0.0
O186 O 0.07689 0.73817 0.38136 0.0
O187 O 0.13269 0.83279 0.37056 0.0
O188 O 0.25446 0.7965 0.37515 0.0
O189 O 0.24948 0.87477 0.37954 0.0
O190 O 0.15838 0.71411 0.35981 0.0
O191 O 0.24659 0.71022 0.36555 0.0
H192 H 0.46372 0.7882 0.44511 0.0
H193 H 0.48801 0.79138 0.4911 0.0
H194 H 0.29765 0.70751 0.50951 0.0
H195 H 0.27438 0.70689 0.46395 0.0
H196 H 0.96254 0.71733 0.35387 0.0
H197 H 0.92101 0.6875 0.31041 0.0
H198 H 0.10156 0.78633 0.27879 0.0
H199 H 0.14262 0.81317 0.32226 0.0
Tb200 Tb 0.45828 0.27012 0.73636 0.0
Tb201 Tb 0.33362 0.1766 0.71712 0.0
C202 C 0.55243 0.36364 0.74953 0.0
C203 C 0.57214 0.39145 0.77545 0.0
C204 C 0.53606 0.40815 0.79018 0.0
C205 C 0.55143 0.42786 0.81568 0.0
C206 C 0.6032 0.43136 0.82715 0.0
C207 C 0.64027 0.41649 0.81214 0.0
C208 C 0.62491 0.39681 0.78659 0.0
C209 C 0.41471 0.16202 0.75777 0.0
C210 C 0.3429 0.23348 0.77089 0.0
C211 C 0.24939 0.09019 0.69302 0.0
C212 C 0.24868 0.06108 0.66786 0.0
C213 C 0.25758 0.01056 0.66653 0.0
C214 C 0.25911 0.98529 0.64259 0.0
C215 C 0.25214 0.01011 0.61939 0.0
C216 C 0.24269 0.06019 0.62081 0.0
C217 C 0.24066 0.08505 0.64464 0.0
C218 C 0.37058 0.29137 0.70679 0.0
C219 C 0.4514 0.20443 0.68397 0.0
O220 O 0.50518 0.36452 0.73969 0.0
O221 O 0.5503 0.31121 0.74618 0.0
O222 O 0.40816 0.17345 0.73476 0.0
O223 O 0.44921 0.21293 0.76921 0.0
O224 O 0.39457 0.27876 0.76222 0.0
O225 O 0.31247 0.18264 0.75744 0.0
O226 O 0.2778 0.08221 0.71245 0.0
O227 O 0.26038 0.14617 0.69171 0.0
O228 O 0.40033 0.26448 0.70631 0.0
O229 O 0.31577 0.25383 0.71398 0.0
O230 O 0.39236 0.17155 0.68768 0.0
O231 O 0.48725 0.24854 0.69994 0.0
H232 H 0.49508 0.40477 0.78225 0.0
H233 H 0.52241 0.43992 0.82648 0.0
H234 H 0.68016 0.41806 0.82039 0.0
H235 H 0.65337 0.38402 0.77577 0.0
H236 H 0.26392 -0.00915 0.68396 0.0
H237 H 0.26685 0.94695 0.64222 0.0
H238 H 0.23608 0.07989 0.60343 0.0
H239 H 0.23315 0.12354 0.64478 0.0
C240 C 0.12992 0.6443 0.3144 0.0
C241 C 0.18603 0.66588 0.32675 0.0
C242 C 0.1219 0.62573 0.28851 0.0
C243 C 0.17117 0.62855 0.2746 0.0
C244 C 0.2268 0.64677 0.28741 0.0
C245 C 0.2336 0.66524 0.31335 0.0
C246 C 0.06057 0.60317 0.27626 0.0
C247 C 0.27991 0.64903 0.27339 0.0
C248 C 0.14635 0.54891 0.20982 0.0
C249 C 0.16428 0.59731 0.19248 0.0
C250 C 0.14657 0.55781 0.23658 0.0
C251 C 0.16618 0.61676 0.24628 0.0
C252 C 0.18242 0.6654 0.22885 0.0
C253 C 0.18153 0.65515 0.20219 0.0
C254 C 0.12764 0.50428 0.2543 0.0
C255 C 0.20101 0.72842 0.23842 0.0
H256 H 0.09243 0.64339 0.32478 0.0
H257 H 0.27701 0.68166 0.32274 0.0
H258 H 0.06414 0.61631 0.25568 0.0
H259 H 0.03534 0.55296 0.27714 0.0
H260 H 0.03362 0.62024 0.28659 0.0
H261 H 0.31867 0.66028 0.28647 0.0
H262 H 0.26625 0.60474 0.26406 0.0
H263 H 0.29512 0.68365 0.25791 0.0
H264 H 0.13364 0.50418 0.2025 0.0
H265 H 0.19429 0.69248 0.1889 0.0
H266 H 0.10336 0.50732 0.27151 0.0
H267 H 0.16854 0.50324 0.26107 0.0
H268 H 0.09791 0.46092 0.24425 0.0
H269 H 0.16541 0.72728 0.25119 0.0
H270 H 0.20905 0.76056 0.22238 0.0
H271 H 0.24301 0.74582 0.25001 0.0
C272 C 0.52375 0.23967 0.64675 0.0
C273 C 0.47528 0.1927 0.65994 0.0
C274 C 0.53905 0.23048 0.62169 0.0
C275 C 0.50549 0.17289 0.60984 0.0
C276 C 0.45927 0.12439 0.62385 0.0
C277 C 0.44445 0.13498 0.64863 0.0
C278 C 0.58905 0.28308 0.60742 0.0
C279 C 0.42416 0.06177 0.6123 0.0
C280 C 0.48876 0.16543 0.53688 0.0
C281 C 0.53184 0.14927 0.52933 0.0
C282 C 0.48023 0.17367 0.56302 0.0
C283 C 0.51483 0.1644 0.58211 0.0
C284 C 0.55705 0.14615 0.57462 0.0
C285 C 0.56565 0.13971 0.54829 0.0
C286 C 0.43523 0.1938 0.57019 0.0
C287 C 0.59423 0.13472 0.59422 0.0
H288 H 0.5475 0.28434 0.6554 0.0
H289 H 0.40743 0.09823 0.65892 0.0
H290 H 0.62206 0.27029 0.59985 0.0
H291 H 0.56991 0.295 0.59062 0.0
H292 H 0.61336 0.32379 0.61985 0.0
H293 H 0.38877 0.02913 0.62554 0.0
H294 H 0.4024 0.06359 0.59405 0.0
H295 H 0.45548 0.04448 0.60749 0.0
H296 H 0.46314 0.17365 0.52227 0.0
H297 H 0.59901 0.12725 0.54249 0.0
H298 H 0.45946 0.23972 0.57887 0.0
H299 H 0.40316 0.16305 0.5849 0.0
H300 H 0.4091 0.19519 0.55328 0.0
H301 H 0.63235 0.17871 0.60066 0.0
H302 H 0.61324 0.10717 0.58601 0.0
H303 H 0.56705 0.11113 0.61148 0.0
C304 C 0.30465 0.43077 0.98525 0.0
C305 C 0.27966 0.4623 0.9979 0.0
C306 C 0.32872 0.44701 0.9603 0.0
C307 C 0.32631 0.49494 0.94744 0.0
C308 C 0.30314 0.52834 0.96047 0.0
C309 C 0.28057 0.51195 0.98567 0.0
C310 C 0.35442 0.41123 0.94738 0.0
C311 C 0.29979 0.57975 0.94737 0.0
C312 C 0.41927 0.56713 0.88722 0.0
C313 C 0.37586 0.53958 0.86767 0.0
C314 C 0.40436 0.55186 0.91323 0.0
C315 C 0.34458 0.50795 0.91988 0.0
C316 C 0.30138 0.47779 0.90016 0.0
C317 C 0.31754 0.49398 0.87429 0.0
C318 C 0.45223 0.58361 0.93362 0.0
C319 C 0.23746 0.42989 0.90644 0.0
H320 H 0.30459 0.39266 0.99472 0.0
H321 H 0.26101 0.5362 0.9953 0.0
H322 H 0.3211 0.37923 0.93333 0.0
H323 H 0.39626 0.44136 0.93655 0.0
H324 H 0.36495 0.38494 0.96154 0.0
H325 H 0.28335 0.6031 0.96054 0.0
H326 H 0.34495 0.61344 0.93995 0.0
H327 H 0.2688 0.56207 0.93057 0.0
H328 H 0.46487 0.60131 0.88218 0.0
H329 H 0.28373 0.47258 0.85933 0.0
H330 H 0.45592 0.54984 0.94595 0.0
H331 H 0.43923 0.61054 0.94632 0.0
H332 H 0.49732 0.61437 0.92516 0.0
H333 H 0.23774 0.39372 0.91834 0.0
H334 H 0.21006 0.40894 0.88885 0.0
H335 H 0.21511 0.45021 0.91795 0.0
C336 C 0.79867 0.27321 0.30803 0.0
C337 C 0.74357 0.24657 0.32158 0.0
C338 C 0.80164 0.28857 0.28188 0.0
C339 C 0.74829 0.27737 0.26879 0.0
C340 C 0.69252 0.25065 0.28227 0.0
C341 C 0.69077 0.23541 0.3085 0.0
C342 C 0.862 0.31664 0.26825 0.0
C343 C 0.63469 0.23815 0.26896 0.0
C344 C 0.76714 0.37009 0.20839 0.0
C345 C 0.76048 0.3294 0.18866 0.0
C346 C 0.76279 0.35362 0.23447 0.0
C347 C 0.75132 0.29476 0.2411 0.0
C348 C 0.74454 0.25332 0.22129 0.0
C349 C 0.74901 0.27107 0.19531 0.0
C350 C 0.7707 0.39938 0.25492 0.0
C351 C 0.73325 0.19048 0.22754 0.0
H352 H 0.83986 0.28175 0.31778 0.0
H353 H 0.64806 0.21468 0.31873 0.0
H354 H 0.86023 0.28707 0.25211 0.0
H355 H 0.8725 0.36094 0.25982 0.0
H356 H 0.8995 0.32377 0.28136 0.0
H357 H 0.59501 0.21686 0.28205 0.0
H358 H 0.63898 0.28103 0.26142 0.0
H359 H 0.62618 0.20774 0.25221 0.0
H360 H 0.77482 0.4147 0.20338 0.0
H361 H 0.74429 0.23953 0.18017 0.0
H362 H 0.80943 0.40829 0.26757 0.0
H363 H 0.72984 0.38107 0.26729 0.0
H364 H 0.77881 0.44307 0.24654 0.0
H365 H 0.7722 0.19347 0.23844 0.0
H366 H 0.72643 0.16282 0.20994 0.0
H367 H 0.69277 0.16669 0.24003 0.0
C368 C 0.51275 0.81898 0.64859 0.0
C369 C 0.48853 0.76834 0.665 0.0
C370 C 0.49517 0.81397 0.62273 0.0
C371 C 0.45138 0.75703 0.61295 0.0
C372 C 0.42538 0.70591 0.62949 0.0
C373 C 0.44452 0.71209 0.65534 0.0
C374 C 0.52487 0.86949 0.60571 0.0
C375 C 0.37817 0.64457 0.61976 0.0
C376 C 0.37635 0.76344 0.55057 0.0
C377 C 0.40864 0.75031 0.53206 0.0
C378 C 0.38827 0.76364 0.57701 0.0
C379 C 0.43429 0.75137 0.5852 0.0
C380 C 0.46703 0.73802 0.56668 0.0
C381 C 0.45358 0.73731 0.54037 0.0
C382 C 0.35239 0.77815 0.59614 0.0
C383 C 0.51717 0.72573 0.57463 0.0
H384 H 0.54669 0.86281 0.65576 0.0
H385 H 0.42579 0.67273 0.66781 0.0
H386 H 0.55025 0.86215 0.59001 0.0
H387 H 0.49012 0.87766 0.59651 0.0
H388 H 0.5567 0.91085 0.61655 0.0
H389 H 0.36009 0.61014 0.63537 0.0
H390 H 0.34013 0.64777 0.61086 0.0
H391 H 0.39792 0.62872 0.60459 0.0
H392 H 0.34223 0.77455 0.54439 0.0
H393 H 0.47814 0.7262 0.5263 0.0
H394 H 0.3827 0.82126 0.60619 0.0
H395 H 0.33249 0.74222 0.61105 0.0
H396 H 0.31542 0.78259 0.58677 0.0
H397 H 0.55375 0.76637 0.58425 0.0
H398 H 0.5368 0.71389 0.55796 0.0
H399 H 0.50008 0.68811 0.58878 0.0
C400 C 0.68326 0.54961 0.97426 0.0
C401 C 0.69777 0.5109 0.98817 0.0
C402 C 0.66456 0.5378 0.94835 0.0
C403 C 0.66025 0.48604 0.93596 0.0
C404 C 0.67347 0.44609 0.95006 0.0
C405 C 0.69191 0.4589 0.97596 0.0
C406 C 0.64995 0.58107 0.93421 0.0
C407 C 0.66973 0.39057 0.93755 0.0
C408 C 0.57113 0.42561 0.8735 0.0
C409 C 0.61734 0.44828 0.85491 0.0
C410 C 0.58411 0.43865 0.89987 0.0
C411 C 0.64485 0.47502 0.90794 0.0
C412 C 0.6915 0.49929 0.88923 0.0
C413 C 0.67721 0.48566 0.863 0.0
C414 C 0.53291 0.41243 0.91911 0.0
C415 C 0.75674 0.53915 0.89695 0.0
H416 H 0.68727 0.58979 0.98348 0.0
H417 H 0.70305 0.42876 0.98646 0.0
H418 H 0.67586 0.59612 0.91593 0.0
H419 H 0.60129 0.55762 0.92904 0.0
H420 H 0.66007 0.62166 0.94594 0.0
H421 H 0.67913 0.36278 0.95137 0.0
H422 H 0.62413 0.36198 0.92914 0.0
H423 H 0.7028 0.40439 0.92151 0.0
H424 H 0.52478 0.39621 0.86752 0.0
H425 H 0.71308 0.50436 0.84879 0.0
H426 H 0.53366 0.44911 0.93104 0.0
H427 H 0.53857 0.38128 0.93237 0.0
H428 H 0.48798 0.38712 0.90963 0.0
H429 H 0.76186 0.57928 0.90769 0.0
H430 H 0.78759 0.55505 0.88006 0.0
H431 H 0.77106 0.51394 0.91004 0.0
C432 C 0.35118 0.46497 0.12627 0.0
C433 C 0.31799 0.42212 0.10716 0.0
C434 C 0.41363 0.48805 0.1286 0.0
C435 C 0.44267 0.46672 0.11174 0.0
C436 C 0.40804 0.41839 0.09452 0.0
C437 C 0.34591 0.39683 0.09236 0.0
C438 C 0.44889 0.53913 0.14731 0.0
C439 C 0.43726 0.39309 0.07672 0.0
C440 C 0.59541 0.5595 0.08165 0.0
C441 C 0.62634 0.53295 0.09306 0.0
C442 C 0.53685 0.54335 0.08979 0.0
C443 C 0.50925 0.49907 0.1094 0.0
C444 C 0.54338 0.47784 0.12294 0.0
C445 C 0.60194 0.49515 0.11452 0.0
C446 C 0.5022 0.56818 0.07536 0.0
C447 C 0.51589 0.43124 0.14409 0.0
H448 H 0.32949 0.48424 0.13797 0.0
H449 H 0.32005 0.36324 0.0778 0.0
H450 H 0.48653 0.53523 0.1562 0.0
H451 H 0.46889 0.58282 0.13678 0.0
H452 H 0.41948 0.54048 0.16286 0.0
H453 H 0.40335 0.35129 0.06674 0.0
H454 H 0.4642 0.42737 0.06188 0.0
H455 H 0.46856 0.38264 0.08763 0.0
H456 H 0.61461 0.58833 0.0649 0.0
H457 H 0.6264 0.47456 0.12312 0.0
H458 H 0.47599 0.58021 0.08892 0.0
H459 H 0.4696 0.53301 0.06202 0.0
H460 H 0.53262 0.60887 0.06385 0.0
H461 H 0.4854 0.44004 0.15644 0.0
H462 H 0.55121 0.4303 0.1564 0.0
H463 H 0.48856 0.38575 0.1353 0.0
C464 C 0.04958 0.62474 0.43913 0.0
C465 C 0.08449 0.63055 0.41742 0.0
C466 C -0.00881 0.57521 0.44129 0.0
C467 C 0.96835 0.53239 0.42099 0.0
C468 C 0.00163 0.54225 0.39791 0.0
C469 C 0.06009 0.591 0.39662 0.0
C470 C 0.95667 0.56587 0.46609 0.0
C471 C 0.97797 0.49837 0.37552 0.0
C472 C 0.87557 0.36485 0.42985 0.0
C473 C 0.82104 0.35424 0.41892 0.0
C474 C 0.9228 0.42404 0.43303 0.0
C475 C 0.9147 0.47288 0.42488 0.0
C476 C 0.85799 0.46238 0.41585 0.0
C477 C 0.81157 0.40276 0.4129 0.0
C478 C -0.01717 0.43395 0.44304 0.0
C479 C 0.84789 0.51352 0.40716 0.0
H480 H 0.06953 0.65595 0.45514 0.0
H481 H 0.08787 0.59643 0.37987 0.0
H482 H 0.9077 0.54718 0.46236 0.0
H483 H 0.96188 0.53275 0.47827 0.0
H484 H 0.97382 0.60875 0.47715 0.0
H485 H 0.00615 0.51709 0.35794 0.0
H486 H 0.9777 0.45585 0.38084 0.0
H487 H 0.93086 0.48658 0.37082 0.0
H488 H 0.88219 0.32702 0.43486 0.0
H489 H 0.76874 0.39423 0.4048 0.0
H490 H 0.00164 0.471 0.4575 0.0
H491 H 0.01551 0.44755 0.42685 0.0
H492 H 0.97899 0.39239 0.45198 0.0
H493 H 0.87022 0.55285 0.42041 0.0
H494 H 0.799 0.49917 0.40598 0.0
H495 H 0.868 0.52891 0.38775 0.0
C496 C 0.45779 0.10978 0.78345 0.0
C497 C 0.41653 0.1068 0.76477 0.0
C498 C 0.47202 0.06324 0.78576 0.0
C499 C 0.44269 0.01187 0.76957 0.0
C500 C 0.39665 0.00605 0.75249 0.0
C501 C 0.38468 0.05415 0.75002 0.0
C502 C 0.5222 0.07164 0.80383 0.0
C503 C 0.3629 0.95089 0.73557 0.0
C504 C 0.52749 0.93183 0.74805 0.0
C505 C 0.50474 0.8825 0.7649 0.0
C506 C 0.50883 0.97525 0.74988 0.0
C507 C 0.46475 0.9677 0.76845 0.0
C508 C 0.44166 0.91797 0.78557 0.0
C509 C 0.46274 0.87639 0.78386 0.0
C510 C 0.53568 0.0287 0.73171 0.0
C511 C 0.39331 0.90757 0.80505 0.0
H512 H 0.48248 0.15048 0.79493 0.0
H513 H 0.35262 0.05177 0.73567 0.0
H514 H 0.50842 0.03041 0.81559 0.0
H515 H 0.56226 0.07934 0.79237 0.0
H516 H 0.53584 0.11082 0.81701 0.0
H517 H 0.32253 0.94925 0.72647 0.0
H518 H 0.39321 0.95151 0.72003 0.0
H519 H 0.34829 0.90887 0.74692 0.0
H520 H 0.55929 0.93613 0.73321 0.0
H521 H 0.44457 0.83782 0.79678 0.0
H522 H 0.554 0.07161 0.74279 0.0
H523 H 0.50005 0.02665 0.71872 0.0
H524 H 0.57251 0.03003 0.71969 0.0
H525 H 0.40851 0.9478 0.81766 0.0
H526 H 0.38114 0.86734 0.81735 0.0
H527 H 0.35207 0.90096 0.79487 0.0
C528 C 0.58127 0.63054 0.72594 0.0
C529 C 0.5835 0.67266 0.70802 0.0
C530 C 0.54339 0.56848 0.72204 0.0
C531 C 0.50661 0.54837 0.69968 0.0
C532 C 0.51085 0.59077 0.68087 0.0
C533 C 0.55005 0.65275 0.68515 0.0
C534 C 0.54119 0.52464 0.74233 0.0
C535 C 0.47205 0.5711 0.65692 0.0
C536 C 0.45247 0.38365 0.6872 0.0
C537 C 0.39767 0.3561 0.70078 0.0
C538 C 0.48636 0.44652 0.68485 0.0
C539 C 0.46468 0.48265 0.69629 0.0
C540 C 0.40679 0.45487 0.70807 0.0
C541 C 0.37368 0.39141 0.71023 0.0
C542 C 0.54762 0.47418 0.67205 0.0
C543 C 0.38206 0.4924 0.71999 0.0
H544 H 0.60732 0.64643 0.74362 0.0
H545 H 0.55174 0.68569 0.67138 0.0
H546 H 0.55249 0.49157 0.73354 0.0
H547 H 0.57309 0.54784 0.75848 0.0
H548 H 0.49484 0.49871 0.75036 0.0
H549 H 0.48635 0.60856 0.64275 0.0
H550 H 0.47345 0.53255 0.64748 0.0
H551 H 0.42438 0.55544 0.66233 0.0
H552 H 0.47055 0.35607 0.67947 0.0
H553 H 0.33105 0.36989 0.72053 0.0
H554 H 0.58343 0.49406 0.68701 0.0
H555 H 0.55405 0.51125 0.65884 0.0
H556 H 0.55392 0.44017 0.66097 0.0
H557 H 0.41122 0.51852 0.73639 0.0
H558 H 0.33505 0.4642 0.7271 0.0
H559 H 0.38311 0.52557 0.70578 0.0
C560 C -0.00224 0.36764 0.06236 0.0
C561 C 0.0452 0.38163 0.04517 0.0
C562 C 0.96979 0.40359 0.06309 0.0
C563 C -0.00964 0.45404 0.04629 0.0
C564 C 0.03699 0.46673 0.02841 0.0
C565 C 0.0635 0.43001 0.02796 0.0
C566 C 0.91949 0.3887 0.08216 0.0
C567 C 0.06016 0.52012 1.01023 0.0
C568 C 0.88836 0.51638 0.02815 0.0
C569 C 0.90934 0.56707 0.04428 0.0
C570 C 0.91343 0.47841 0.02916 0.0
C571 C 0.96167 0.49242 0.04632 0.0
C572 C -0.01528 0.54494 0.06204 0.0
C573 C 0.95795 0.58191 0.06089 0.0
C574 C 0.88761 0.42279 1.01214 0.0
C575 C 0.03679 0.56133 0.0803 0.0
H576 H -0.01532 0.3308 0.07594 0.0
H577 H 0.1007 0.44077 1.01483 0.0
H578 H 0.93293 0.42697 0.09578 0.0
H579 H 0.87839 0.38227 0.07192 0.0
H580 H 0.90791 0.34714 0.09342 0.0
H581 H 0.09746 0.52399 0.99777 0.0
H582 H 0.02297 0.51598 0.99767 0.0
H583 H 0.07681 0.5627 1.02143 0.0
H584 H 0.85057 0.50512 1.01531 0.0
H585 H 0.97335 0.62073 0.07358 0.0
H586 H 0.87276 0.38164 1.02413 0.0
H587 H 0.92288 0.4254 0.99877 0.0
H588 H 0.84848 0.41741 1.00056 0.0
H589 H 0.02431 0.52443 0.09452 0.0
H590 H 0.04994 0.60414 0.09089 0.0
H591 H 0.07663 0.56623 0.06949 0.0
C592 C 0.37793 0.85152 0.36236 0.0
C593 C 0.34969 0.88458 0.37006 0.0
C594 C 0.44073 0.87754 0.36275 0.0
C595 C 0.47595 0.93861 0.37026 0.0
C596 C 0.44758 0.97341 0.37613 0.0
C597 C 0.38444 0.94563 0.37628 0.0
C598 C 0.46912 0.83903 0.3562 0.0
C599 C 0.48293 0.03873 0.3841 0.0
C600 C 0.63247 0.00246 0.39884 0.0
C601 C 0.66738 0.03758 0.3782 0.0
C602 C 0.5696 0.96646 0.39611 0.0
C603 C 0.54231 0.96597 0.37219 0.0
C604 C 0.57857 -0.00341 0.35067 0.0
C605 C 0.64092 0.03217 0.35399 0.0
C606 C 0.53205 0.93413 0.41945 0.0
C607 C 0.55113 -0.00251 0.32495 0.0
H608 H 0.35087 0.80431 0.35703 0.0
H609 H 0.36243 0.97105 0.38216 0.0
H610 H 0.50422 0.86135 0.34114 0.0
H611 H 0.4918 0.83394 0.37356 0.0
H612 H 0.43532 0.79319 0.34929 0.0
H613 H 0.45789 0.06332 0.37978 0.0
H614 H 0.48931 0.03976 0.40525 0.0
H615 H 0.52777 0.06273 0.3746 0.0
H616 H 0.65312 0.00824 0.4177 0.0
H617 H 0.66836 0.06057 0.33824 0.0
H618 H 0.49634 0.88762 0.41434 0.0
H619 H 0.50928 0.959 0.42668 0.0
H620 H 0.56006 0.93139 0.43529 0.0
H621 H 0.51631 0.95114 0.31918 0.0
H622 H 0.58572 0.01702 0.30946 0.0
H623 H 0.52851 0.02527 0.3266 0.0
C624 C 0.27446 0.18864 0.80936 0.0
C625 C 0.32245 0.23876 0.79731 0.0
C626 C 0.25922 0.19136 0.83527 0.0
C627 C 0.29256 0.24556 0.84962 0.0
C628 C 0.33977 0.29696 0.83733 0.0
C629 C 0.35419 0.2929 0.81144 0.0
C630 C 0.20822 0.13564 0.84751 0.0
C631 C 0.37631 0.35585 0.85173 0.0
C632 C 0.22012 0.26184 0.91145 0.0
C633 C 0.24749 0.24392 0.93049 0.0
C634 C 0.23528 0.26396 0.88522 0.0
C635 C 0.27889 0.24763 0.87763 0.0
C636 C 0.30797 0.23118 0.89679 0.0
C637 C 0.29202 0.22959 0.92292 0.0
C638 C 0.2043 0.28339 0.86561 0.0
C639 C 0.35522 0.2141 0.88963 0.0
H640 H 0.24969 0.14656 0.79877 0.0
H641 H 0.39131 0.33209 0.80244 0.0
H642 H 0.22591 0.12042 0.86375 0.0
H643 H 0.17418 0.14642 0.85559 0.0
H644 H 0.18537 0.09765 0.8336 0.0
H645 H 0.40747 0.39316 0.83882 0.0
H646 H 0.34607 0.36964 0.86144 0.0
H647 H 0.40348 0.34972 0.86696 0.0
H648 H 0.18681 0.27456 0.91709 0.0
H649 H 0.31339 0.21554 0.93738 0.0
H650 H 0.18198 0.24779 0.85068 0.0
H651 H 0.23827 0.32508 0.85568 0.0
H652 H 0.16984 0.29255 0.87451 0.0
H653 H 0.33501 0.17377 0.87685 0.0
H654 H 0.37473 0.20382 0.90681 0.0
H655 H 0.39239 0.25153 0.87874 0.0
C656 C 0.05303 0.316 0.26202 0.0
C657 C -0.00581 0.27324 0.26965 0.0
C658 C 0.07045 0.32308 0.23593 0.0
C659 C 0.02823 0.28637 0.21688 0.0
C660 C 0.96879 0.24322 0.22441 0.0
C661 C 0.95247 0.23739 0.25061 0.0
C662 C 0.13421 0.36987 0.22873 0.0
C663 C 0.92224 0.20338 0.20477 0.0
C664 C 0.05887 0.34806 0.14839 0.0
C665 C 0.0883 0.31885 0.1374 0.0
C666 C 0.03777 0.33671 0.17393 0.0
C667 C 0.0459 0.29481 0.18903 0.0
C668 C 0.07323 0.2632 0.17778 0.0
C669 C 0.09423 0.27567 0.15212 0.0
C670 C 0.00874 0.37135 0.18501 0.0
C671 C 0.08173 0.21734 0.19308 0.0
H672 H 0.0859 0.3435 0.2765 0.0
H673 H 0.90655 0.20509 0.25613 0.0
H674 H 0.15756 0.34737 0.2197 0.0
H675 H 0.13343 0.40177 0.2143 0.0
H676 H 0.16101 0.39624 0.24568 0.0
H677 H 0.87858 0.17067 0.21383 0.0
H678 H 0.91377 0.2317 0.19092 0.0
H679 H 0.93942 0.17778 0.19352 0.0
H680 H 0.05332 0.38104 0.13721 0.0
H681 H 0.1168 0.25281 0.14388 0.0
H682 H 0.03865 0.40312 0.20004 0.0
H683 H 0.96519 0.34008 0.19444 0.0
H684 H 0.00023 0.39763 0.17008 0.0
H685 H 0.11357 0.24028 0.20923 0.0
H686 H 0.09973 0.19349 0.18107 0.0
H687 H 0.0381 0.18327 0.20165 0.0
C688 C 0.74368 0.00121 0.58536 0.0
C689 C 0.73902 0.03484 0.60591 0.0
C690 C 0.74943 0.02136 0.55972 0.0
C691 C 0.75088 0.07678 0.55432 0.0
C692 C 0.74687 0.11136 0.57494 0.0
C693 C 0.74101 0.09004 0.60044 0.0
C694 C 0.7532 0.98289 0.53836 0.0
C695 C 0.74769 0.17041 0.56999 0.0
C696 C 0.81241 0.1528 0.48916 0.0
C697 C 0.75908 0.13502 0.47511 0.0
C698 C 0.8105 0.13439 0.51496 0.0
C699 C 0.75395 0.09724 0.52702 0.0
C700 C 0.70003 0.07909 0.51288 0.0
C701 C 0.70327 0.09797 0.48719 0.0
C702 C 0.86901 0.15475 0.52934 0.0
C703 C 0.63865 0.03872 0.52465 0.0
H704 H 0.74312 0.95899 0.58933 0.0
H705 H 0.73661 0.11605 0.61604 0.0
H706 H 0.71394 0.96801 0.52522 0.0
H707 H 0.7946 0.00982 0.52672 0.0
H708 H 0.75373 0.94209 0.5458 0.0
H709 H 0.74328 0.19157 0.58803 0.0
H710 H 0.79053 0.20269 0.56031 0.0
H711 H 0.71021 0.16282 0.5568 0.0
H712 H 0.85572 0.18149 0.48009 0.0
H713 H 0.66162 0.08343 0.47657 0.0
H714 H 0.87205 0.11474 0.53596 0.0
H715 H 0.8702 0.1807 0.54678 0.0
H716 H 0.90923 0.18355 0.5173 0.0
H717 H 0.63086 -0.00826 0.52581 0.0
H718 H 0.6016 0.03818 0.51306 0.0
H719 H 0.63611 0.05334 0.54456 0.0
C720 C 0.71285 0.84315 0.81641 0.0
C721 C 0.65061 0.80792 0.8119 0.0
C722 C 0.73751 0.84251 0.8407 0.0
C723 C 0.69879 0.80665 0.86092 0.0
C724 C 0.6357 0.77308 0.85664 0.0
C725 C 0.61259 0.77387 0.83222 0.0
C726 C 0.80506 0.87838 0.84449 0.0
C727 C 0.59251 0.73486 0.87765 0.0
C728 C 0.75074 0.74499 0.91617 0.0
C729 C 0.75468 0.78303 0.93666 0.0
C730 C 0.73552 0.75399 0.89115 0.0
C731 C 0.72353 0.80206 0.88639 0.0
C732 C 0.72928 0.84182 0.90674 0.0
C733 C 0.74503 0.83201 0.93156 0.0
C734 C 0.72984 0.71039 0.87005 0.0
C735 C 0.71623 0.89318 0.90257 0.0
H736 H 0.74241 0.86922 0.80072 0.0
H737 H 0.56432 0.74705 0.82898 0.0
H738 H 0.81614 0.90833 0.86158 0.0
H739 H 0.82283 0.84695 0.84823 0.0
H740 H 0.82865 0.90652 0.8274 0.0
H741 H 0.54448 0.71597 0.87188 0.0
H742 H 0.60031 0.69664 0.88247 0.0
H743 H 0.60045 0.76204 0.89546 0.0
H744 H 0.75761 0.70676 0.91979 0.0
H745 H 0.74918 0.86251 0.94705 0.0
H746 H 0.75495 0.73556 0.85262 0.0
H747 H 0.68165 0.6823 0.8645 0.0
H748 H 0.74707 0.67967 0.87614 0.0
H749 H 0.74225 0.92109 0.88585 0.0
H750 H 0.72741 0.92292 0.91978 0.0
H751 H 0.66756 0.87451 0.89806 0.0
C752 C 0.01352 0.70408 0.24504 0.0
C753 C -0.01762 0.7172 0.26414 0.0
C754 C -0.01022 0.68642 0.22004 0.0
C755 C 0.93364 0.68225 0.21373 0.0
C756 C 0.90187 0.6953 0.23284 0.0
C757 C 0.92667 0.7129 0.25768 0.0
C758 C 0.0242 0.67103 0.20051 0.0
C759 C 0.84092 0.68938 0.22716 0.0
C760 C 0.89234 0.68875 0.14356 0.0
C761 C 0.85561 0.62727 0.13754 0.0
C762 C 0.91889 0.70708 0.1681 0.0
C763 C 0.90735 0.66301 0.18734 0.0
C764 C 0.86981 0.60083 0.18138 0.0
C765 C 0.84518 0.58377 0.15649 0.0
C766 C 0.95942 0.77369 0.17345 0.0
C767 C 0.85467 0.55135 0.20094 0.0
H768 H 0.05619 0.70662 0.24969 0.0
H769 H 0.90244 0.72377 0.272 0.0
H770 H -0.00307 0.62263 0.19496 0.0
H771 H 0.03208 0.69839 0.18278 0.0
H772 H 0.06848 0.67906 0.20805 0.0
H773 H 0.82197 0.70135 0.24405 0.0
H774 H 0.84458 0.71912 0.21078 0.0
H775 H 0.80872 0.64208 0.22136 0.0
H776 H 0.90105 0.72262 0.12895 0.0
H777 H 0.81644 0.53616 0.15213 0.0
H778 H 0.00456 0.78201 0.17985 0.0
H779 H 0.94025 0.78832 0.18933 0.0
H780 H 0.96529 0.80216 0.15625 0.0
H781 H 0.87923 0.52672 0.1959 0.0
H782 H 0.80556 0.51834 0.20014 0.0
H783 H 0.86633 0.56799 0.22103 0.0
C784 C 0.28463 0.02214 0.57285 0.0
C785 C 0.25405 0.98398 0.59373 0.0
C786 C 0.28487 -0.00139 0.5483 0.0
C787 C 0.25264 0.93518 0.5442 0.0
C788 C 0.22242 0.89629 0.56527 0.0
C789 C 0.22385 0.92108 0.58976 0.0
C790 C 0.3193 0.04174 0.52667 0.0
C791 C 0.1872 0.82844 0.56177 0.0
C792 C 0.19597 0.87768 0.47613 0.0
C793 C 0.23706 0.85954 0.46759 0.0
C794 C 0.20078 0.90249 0.5009 0.0
C795 C 0.24798 0.90973 0.51766 0.0
C796 C 0.29014 0.89229 0.50906 0.0
C797 C 0.28418 0.86746 0.48421 0.0
C798 C 0.15478 0.92035 0.50925 0.0
C799 C 0.34138 0.89948 0.52616 0.0
H800 H 0.30876 0.0707 0.57575 0.0
H801 H 0.19959 0.89118 0.60564 0.0
H802 H 0.35459 0.03195 0.51932 0.0
H803 H 0.28841 0.03536 0.51038 0.0
H804 H 0.34138 0.08984 0.53289 0.0
H805 H 0.16763 0.80429 0.58018 0.0
H806 H 0.14989 0.81648 0.54781 0.0
H807 H 0.21682 0.81189 0.55366 0.0
H808 H 0.15936 0.87179 0.46358 0.0
H809 H 0.31628 0.85365 0.47794 0.0
H810 H 0.17784 0.96915 0.51436 0.0
H811 H 0.13084 0.8946 0.52677 0.0
H812 H 0.12079 0.91185 0.49401 0.0
H813 H 0.37037 0.94786 0.53137 0.0
H814 H 0.36993 0.88305 0.51676 0.0
H815 H 0.32324 0.87408 0.5444 0.0
loop_
_geom_bond_atom_site_label_1
_geom_bond_atom_site_label_2
_geom_bond_distance
_geom_bond_site_symmetry_2
_ccdc_geom_bond_type
Tb0 C2 2.809 . S
Tb0 O20 2.484 . S
Tb0 O21 2.440 . S
Tb0 O22 2.658 . S
Tb0 O23 2.409 . S
Tb0 O24 2.378 . S
Tb0 O28 2.325 . S
Tb0 O31 2.341 . S
Tb1 C11 2.809 1_554 S
Tb1 O22 2.325 . S
Tb1 O25 2.341 . S
Tb1 O26 2.484 1_554 S
Tb1 O27 2.440 1_554 S
Tb1 O28 2.658 . S
Tb1 O29 2.409 . S
Tb1 O30 2.378 1_554 S
C2 Tb0 2.809 . S
C2 C3 1.514 . S
C2 O20 1.248 . S
C2 O21 1.266 . S
C3 C2 1.514 . S
C3 C4 1.359 . S
C3 C8 1.348 . S
C4 C3 1.359 . S
C4 C5 1.380 . S
C4 H32 0.929 . S
C5 C4 1.380 . S
C5 C6 1.347 . S
C5 H33 0.931 . S
C6 C5 1.347 . S
C6 C7 1.369 . S
C7 C6 1.369 . S
C7 C8 1.408 . S
C7 H34 0.930 . S
C8 C3 1.348 . S
C8 C7 1.408 . S
C8 H35 0.930 . S
C9 O22 1.281 . S
C9 O23 1.254 . S
C10 O24 1.236 . S
C10 O25 1.266 . S
C11 Tb1 2.809 1_556 S
C11 C12 1.514 . S
C11 O26 1.248 . S
C11 O27 1.266 . S
C12 C11 1.514 . S
C12 C13 1.359 . S
C12 C17 1.348 . S
C13 C12 1.359 . S
C13 C14 1.380 . S
C13 H36 0.929 . S
C14 C13 1.380 . S
C14 C15 1.347 . S
C14 H37 0.931 . S
C15 C14 1.347 . S
C15 C16 1.369 . S
C16 C15 1.369 . S
C16 C17 1.408 . S
C16 H38 0.930 . S
C17 C12 1.348 . S
C17 C16 1.408 . S
C17 H39 0.930 . S
C18 O28 1.281 . S
C18 O29 1.254 . S
C19 O30 1.236 . S
C19 O31 1.266 1_556 S
O20 Tb0 2.484 . S
O20 C2 1.248 . S
O21 Tb0 2.440 . S
O21 C2 1.266 . S
O22 Tb0 2.658 . S
O22 Tb1 2.325 . S
O22 C9 1.281 . S
O23 Tb0 2.409 . S
O23 C9 1.254 . S
O24 Tb0 2.378 . S
O24 C10 1.236 . S
O25 Tb1 2.341 . S
O25 C10 1.266 . S
O26 Tb1 2.484 1_556 S
O26 C11 1.248 . S
O27 Tb1 2.440 1_556 S
O27 C11 1.266 . S
O28 Tb0 2.325 . S
O28 Tb1 2.658 . S
O28 C18 1.281 . S
O29 Tb1 2.409 . S
O29 C18 1.254 . S
O30 Tb1 2.378 1_556 S
O30 C19 1.236 . S
O31 Tb0 2.341 . S
O31 C19 1.266 1_554 S
H32 C4 0.929 . S
H33 C5 0.931 . S
H34 C7 0.930 . S
H35 C8 0.930 . S
H36 C13 0.929 . S
H37 C14 0.931 . S
H38 C16 0.930 . S
H39 C17 0.930 . S
Tb40 C42 2.809 . S
Tb40 O60 2.484 . S
Tb40 O61 2.440 . S
Tb40 O62 2.658 . S
Tb40 O63 2.409 . S
Tb40 O64 2.378 . S
Tb40 O68 2.325 . S
Tb40 O71 2.341 . S
Tb41 C51 2.809 . S
Tb41 O62 2.325 . S
Tb41 O65 2.341 . S
Tb41 O66 2.484 . S
Tb41 O67 2.440 . S
Tb41 O68 2.658 . S
Tb41 O69 2.409 . S
Tb41 O70 2.378 . S
C42 Tb40 2.809 . S
C42 C43 1.514 . S
C42 O60 1.248 . S
C42 O61 1.266 . S
C43 C42 1.514 . S
C43 C44 1.359 . S
C43 C48 1.348 . S
C44 C43 1.359 . S
C44 C45 1.380 . S
C44 H72 0.929 . S
C45 C44 1.380 . S
C45 C46 1.347 . S
C45 H73 0.931 . S
C46 C45 1.347 . S
C46 C47 1.369 . S
C47 C46 1.369 . S
C47 C48 1.408 . S
C47 H74 0.930 . S
C48 C43 1.348 . S
C48 C47 1.408 . S
C48 H75 0.930 . S
C49 O62 1.281 . S
C49 O63 1.254 . S
C50 O64 1.236 . S
C50 O65 1.266 . S
C51 Tb41 2.809 . S
C51 C52 1.514 . S
C51 O66 1.248 . S
C51 O67 1.266 . S
C52 C51 1.514 . S
C52 C53 1.359 . S
C52 C57 1.348 . S
C53 C52 1.359 . S
C53 C54 1.380 . S
C53 H76 0.929 . S
C54 C53 1.380 . S
C54 C55 1.347 . S
C54 H77 0.931 1_655 S
C55 C54 1.347 . S
C55 C56 1.369 . S
C56 C55 1.369 . S
C56 C57 1.408 . S
C56 H78 0.930 . S
C57 C52 1.348 . S
C57 C56 1.408 . S
C57 H79 0.930 . S
C58 O68 1.281 . S
C58 O69 1.254 . S
C59 O70 1.236 . S
C59 O71 1.266 . S
O60 Tb40 2.484 . S
O60 C42 1.248 . S
O61 Tb40 2.440 . S
O61 C42 1.266 . S
O62 Tb40 2.658 . S
O62 Tb41 2.325 . S
O62 C49 1.281 . S
O63 Tb40 2.409 . S
O63 C49 1.254 . S
O64 Tb40 2.378 . S
O64 C50 1.236 . S
O65 Tb41 2.341 . S
O65 C50 1.266 . S
O66 Tb41 2.484 . S
O66 C51 1.248 . S
O67 Tb41 2.440 . S
O67 C51 1.266 . S
O68 Tb40 2.325 . S
O68 Tb41 2.658 . S
O68 C58 1.281 . S
O69 Tb41 2.409 . S
O69 C58 1.254 . S
O70 Tb41 2.378 . S
O70 C59 1.236 . S
O71 Tb40 2.341 . S
O71 C59 1.266 . S
H72 C44 0.929 . S
H73 C45 0.931 . S
H74 C47 0.930 . S
H75 C48 0.930 . S
H76 C53 0.929 . S
H77 C54 0.931 1_455 S
H78 C56 0.930 . S
H79 C57 0.930 . S
Tb80 C82 2.809 . S
Tb80 O100 2.484 . S
Tb80 O101 2.440 . S
Tb80 O102 2.658 . S
Tb80 O103 2.409 . S
Tb80 O104 2.378 . S
Tb80 O108 2.325 . S
Tb80 O111 2.341 . S
Tb81 C91 2.809 . S
Tb81 O102 2.325 . S
Tb81 O105 2.341 . S
Tb81 O106 2.484 . S
Tb81 O107 2.440 . S
Tb81 O108 2.658 . S
Tb81 O109 2.409 . S
Tb81 O110 2.378 . S
C82 Tb80 2.809 . S
C82 C83 1.514 . S
C82 O100 1.248 . S
C82 O101 1.266 . S
C83 C82 1.514 . S
C83 C84 1.359 . S
C83 C88 1.348 . S
C84 C83 1.359 . S
C84 C85 1.380 . S
C84 H112 0.929 . S
C85 C84 1.380 . S
C85 C86 1.347 . S
C85 H113 0.931 . S
C86 C85 1.347 . S
C86 C87 1.369 . S
C87 C86 1.369 . S
C87 C88 1.408 . S
C87 H114 0.930 . S
C88 C83 1.348 . S
C88 C87 1.408 . S
C88 H115 0.930 . S
C89 O102 1.281 . S
C89 O103 1.254 . S
C90 O104 1.236 . S
C90 O105 1.266 . S
C91 Tb81 2.809 . S
C91 C92 1.514 . S
C91 O106 1.248 . S
C91 O107 1.266 . S
C92 C91 1.514 . S
C92 C93 1.359 . S
C92 C97 1.348 . S
C93 C92 1.359 . S
C93 C94 1.380 . S
C93 H116 0.929 . S
C94 C93 1.380 . S
C94 C95 1.347 . S
C94 H117 0.931 1_565 S
C95 C94 1.347 . S
C95 C96 1.369 . S
C96 C95 1.369 . S
C96 C97 1.408 . S
C96 H118 0.930 . S
C97 C92 1.348 . S
C97 C96 1.408 . S
C97 H119 0.930 . S
C98 O108 1.281 . S
C98 O109 1.254 . S
C99 O110 1.236 . S
C99 O111 1.266 . S
O100 Tb80 2.484 . S
O100 C82 1.248 . S
O101 Tb80 2.440 . S
O101 C82 1.266 . S
O102 Tb80 2.658 . S
O102 Tb81 2.325 . S
O102 C89 1.281 . S
O103 Tb80 2.409 . S
O103 C89 1.254 . S
O104 Tb80 2.378 . S
O104 C90 1.236 . S
O105 Tb81 2.341 . S
O105 C90 1.266 . S
O106 Tb81 2.484 . S
O106 C91 1.248 . S
O107 Tb81 2.440 . S
O107 C91 1.266 . S
O108 Tb80 2.325 . S
O108 Tb81 2.658 . S
O108 C98 1.281 . S
O109 Tb81 2.409 . S
O109 C98 1.254 . S
O110 Tb81 2.378 . S
O110 C99 1.236 . S
O111 Tb80 2.341 . S
O111 C99 1.266 . S
H112 C84 0.929 . S
H113 C85 0.931 . S
H114 C87 0.930 . S
H115 C88 0.930 . S
H116 C93 0.929 . S
H117 C94 0.931 1_545 S
H118 C96 0.930 . S
H119 C97 0.930 . S
Tb120 C122 2.809 . S
Tb120 O140 2.484 . S
Tb120 O141 2.440 . S
Tb120 O142 2.658 . S
Tb120 O143 2.409 . S
Tb120 O144 2.378 . S
Tb120 O148 2.325 . S
Tb120 O151 2.341 . S
Tb121 C131 2.809 1_554 S
Tb121 O142 2.325 . S
Tb121 O145 2.341 . S
Tb121 O146 2.484 1_554 S
Tb121 O147 2.440 1_554 S
Tb121 O148 2.658 . S
Tb121 O149 2.409 . S
Tb121 O150 2.378 1_554 S
C122 Tb120 2.809 . S
C122 C123 1.514 . S
C122 O140 1.248 . S
C122 O141 1.266 . S
C123 C122 1.514 . S
C123 C124 1.359 . S
C123 C128 1.348 . S
C124 C123 1.359 . S
C124 C125 1.380 . S
C124 H152 0.929 . S
C125 C124 1.380 . S
C125 C126 1.347 . S
C125 H153 0.931 . S
C126 C125 1.347 . S
C126 C127 1.369 . S
C127 C126 1.369 . S
C127 C128 1.408 . S
C127 H154 0.930 . S
C128 C123 1.348 . S
C128 C127 1.408 . S
C128 H155 0.930 . S
C129 O142 1.281 . S
C129 O143 1.254 . S
C130 O144 1.236 . S
C130 O145 1.266 . S
C131 Tb121 2.809 1_556 S
C131 C132 1.514 . S
C131 O146 1.248 . S
C131 O147 1.266 . S
C132 C131 1.514 . S
C132 C133 1.359 . S
C132 C137 1.348 . S
C133 C132 1.359 . S
C133 C134 1.380 . S
C133 H156 0.929 . S
C134 C133 1.380 . S
C134 C135 1.347 . S
C134 H157 0.931 . S
C135 C134 1.347 . S
C135 C136 1.369 . S
C136 C135 1.369 . S
C136 C137 1.408 . S
C136 H158 0.930 . S
C137 C132 1.348 . S
C137 C136 1.408 . S
C137 H159 0.930 . S
C138 O148 1.281 . S
C138 O149 1.254 . S
C139 O150 1.236 . S
C139 O151 1.266 1_556 S
O140 Tb120 2.484 . S
O140 C122 1.248 . S
O141 Tb120 2.440 . S
O141 C122 1.266 . S
O142 Tb120 2.658 . S
O142 Tb121 2.325 . S
O142 C129 1.281 . S
O143 Tb120 2.409 . S
O143 C129 1.254 . S
O144 Tb120 2.378 . S
O144 C130 1.236 . S
O145 Tb121 2.341 . S
O145 C130 1.266 . S
O146 Tb121 2.484 1_556 S
O146 C131 1.248 . S
O147 Tb121 2.440 1_556 S
O147 C131 1.266 . S
O148 Tb120 2.325 . S
O148 Tb121 2.658 . S
O148 C138 1.281 . S
O149 Tb121 2.409 . S
O149 C138 1.254 . S
O150 Tb121 2.378 1_556 S
O150 C139 1.236 . S
O151 Tb120 2.341 . S
O151 C139 1.266 1_554 S
H152 C124 0.929 . S
H153 C125 0.931 . S
H154 C127 0.930 . S
H155 C128 0.930 . S
H156 C133 0.929 . S
H157 C134 0.931 . S
H158 C136 0.930 . S
H159 C137 0.930 . S
Tb160 C162 2.809 . S
Tb160 O180 2.484 . S
Tb160 O181 2.440 . S
Tb160 O182 2.658 . S
Tb160 O183 2.409 . S
Tb160 O184 2.378 . S
Tb160 O188 2.325 . S
Tb160 O191 2.341 . S
Tb161 C171 2.809 . S
Tb161 O182 2.325 . S
Tb161 O185 2.341 . S
Tb161 O186 2.484 . S
Tb161 O187 2.440 . S
Tb161 O188 2.658 . S
Tb161 O189 2.409 . S
Tb161 O190 2.378 . S
C162 Tb160 2.809 . S
C162 C163 1.514 . S
C162 O180 1.248 . S
C162 O181 1.266 . S
C163 C162 1.514 . S
C163 C164 1.359 . S
C163 C168 1.348 . S
C164 C163 1.359 . S
C164 C165 1.380 . S
C164 H192 0.929 . S
C165 C164 1.380 . S
C165 C166 1.347 . S
C165 H193 0.931 . S
C166 C165 1.347 . S
C166 C167 1.369 . S
C167 C166 1.369 . S
C167 C168 1.408 . S
C167 H194 0.930 . S
C168 C163 1.348 . S
C168 C167 1.408 . S
C168 H195 0.930 . S
C169 O182 1.281 . S
C169 O183 1.254 . S
C170 O184 1.236 . S
C170 O185 1.266 . S
C171 Tb161 2.809 . S
C171 C172 1.514 . S
C171 O186 1.248 . S
C171 O187 1.266 . S
C172 C171 1.514 . S
C172 C173 1.359 . S
C172 C177 1.348 . S
C173 C172 1.359 . S
C173 C174 1.380 . S
C173 H196 0.929 . S
C174 C173 1.380 . S
C174 C175 1.347 . S
C174 H197 0.931 1_455 S
C175 C174 1.347 . S
C175 C176 1.369 . S
C176 C175 1.369 . S
C176 C177 1.408 . S
C176 H198 0.930 . S
C177 C172 1.348 . S
C177 C176 1.408 . S
C177 H199 0.930 . S
C178 O188 1.281 . S
C178 O189 1.254 . S
C179 O190 1.236 . S
C179 O191 1.266 . S
O180 Tb160 2.484 . S
O180 C162 1.248 . S
O181 Tb160 2.440 . S
O181 C162 1.266 . S
O182 Tb160 2.658 . S
O182 Tb161 2.325 . S
O182 C169 1.281 . S
O183 Tb160 2.409 . S
O183 C169 1.254 . S
O184 Tb160 2.378 . S
O184 C170 1.236 . S
O185 Tb161 2.341 . S
O185 C170 1.266 . S
O186 Tb161 2.484 . S
O186 C171 1.248 . S
O187 Tb161 2.440 . S
O187 C171 1.266 . S
O188 Tb160 2.325 . S
O188 Tb161 2.658 . S
O188 C178 1.281 . S
O189 Tb161 2.409 . S
O189 C178 1.254 . S
O190 Tb161 2.378 . S
O190 C179 1.236 . S
O191 Tb160 2.341 . S
O191 C179 1.266 . S
H192 C164 0.929 . S
H193 C165 0.931 . S
H194 C167 0.930 . S
H195 C168 0.930 . S
H196 C173 0.929 . S
H197 C174 0.931 1_655 S
H198 C176 0.930 . S
H199 C177 0.930 . S
Tb200 C202 2.809 . S
Tb200 O220 2.484 . S
Tb200 O221 2.440 . S
Tb200 O222 2.658 . S
Tb200 O223 2.409 . S
Tb200 O224 2.378 . S
Tb200 O228 2.325 . S
Tb200 O231 2.341 . S
Tb201 C211 2.809 . S
Tb201 O222 2.325 . S
Tb201 O225 2.341 . S
Tb201 O226 2.484 . S
Tb201 O227 2.440 . S
Tb201 O228 2.658 . S
Tb201 O229 2.409 . S
Tb201 O230 2.378 . S
C202 Tb200 2.809 . S
C202 C203 1.514 . S
C202 O220 1.248 . S
C202 O221 1.266 . S
C203 C202 1.514 . S
C203 C204 1.359 . S
C203 C208 1.348 . S
C204 C203 1.359 . S
C204 C205 1.380 . S
C204 H232 0.929 . S
C205 C204 1.380 . S
C205 C206 1.347 . S
C205 H233 0.931 . S
C206 C205 1.347 . S
C206 C207 1.369 . S
C207 C206 1.369 . S
C207 C208 1.408 . S
C207 H234 0.930 . S
C208 C203 1.348 . S
C208 C207 1.408 . S
C208 H235 0.930 . S
C209 O222 1.281 . S
C209 O223 1.254 . S
C210 O224 1.236 . S
C210 O225 1.266 . S
C211 Tb201 2.809 . S
C211 C212 1.514 . S
C211 O226 1.248 . S
C211 O227 1.266 . S
C212 C211 1.514 . S
C212 C213 1.359 . S
C212 C217 1.348 . S
C213 C212 1.359 . S
C213 C214 1.380 . S
C213 H236 0.929 . S
C214 C213 1.380 . S
C214 C215 1.347 . S
C214 H237 0.931 1_545 S
C215 C214 1.347 . S
C215 C216 1.369 . S
C216 C215 1.369 . S
C216 C217 1.408 . S
C216 H238 0.930 . S
C217 C212 1.348 . S
C217 C216 1.408 . S
C217 H239 0.930 . S
C218 O228 1.281 . S
C218 O229 1.254 . S
C219 O230 1.236 . S
C219 O231 1.266 . S
O220 Tb200 2.484 . S
O220 C202 1.248 . S
O221 Tb200 2.440 . S
O221 C202 1.266 . S
O222 Tb200 2.658 . S
O222 Tb201 2.325 . S
O222 C209 1.281 . S
O223 Tb200 2.409 . S
O223 C209 1.254 . S
O224 Tb200 2.378 . S
O224 C210 1.236 . S
O225 Tb201 2.341 . S
O225 C210 1.266 . S
O226 Tb201 2.484 . S
O226 C211 1.248 . S
O227 Tb201 2.440 . S
O227 C211 1.266 . S
O228 Tb200 2.325 . S
O228 Tb201 2.658 . S
O228 C218 1.281 . S
O229 Tb201 2.409 . S
O229 C218 1.254 . S
O230 Tb201 2.378 . S
O230 C219 1.236 . S
O231 Tb200 2.341 . S
O231 C219 1.266 . S
H232 C204 0.929 . S
H233 C205 0.931 . S
H234 C207 0.930 . S
H235 C208 0.930 . S
H236 C213 0.929 . S
H237 C214 0.931 1_565 S
H238 C216 0.930 . S
H239 C217 0.930 . S
C240 C241 1.391 . S
C240 C242 1.394 . S
C240 H256 0.931 . S
C241 C240 1.391 . S
C241 C245 1.376 . S
C242 C240 1.394 . S
C242 C243 1.369 . S
C242 C246 1.531 . S
C243 C242 1.369 . S
C243 C244 1.410 . S
C243 C251 1.503 . S
C244 C243 1.410 . S
C244 C245 1.392 . S
C244 C247 1.511 . S
C245 C241 1.376 . S
C245 C244 1.392 . S
C245 H257 0.929 . S
C246 C242 1.531 . S
C246 H258 0.960 . S
C246 H259 0.962 . S
C246 H260 0.960 . S
C247 C244 1.511 . S
C247 H261 0.961 . S
C247 H262 0.961 . S
C247 H263 0.961 . S
C248 C249 1.370 . S
C248 C250 1.363 . S
C248 H264 0.931 . S
C249 C248 1.370 . S
C249 C253 1.408 . S
C250 C248 1.363 . S
C250 C251 1.370 . S
C250 C254 1.524 . S
C251 C243 1.503 . S
C251 C250 1.370 . S
C251 C252 1.403 . S
C252 C251 1.403 . S
C252 C253 1.404 . S
C252 C255 1.539 . S
C253 C249 1.408 . S
C253 C252 1.404 . S
C253 H265 0.930 . S
C254 C250 1.524 . S
C254 H266 0.956 . S
C254 H267 0.961 . S
C254 H268 0.961 . S
C255 C252 1.539 . S
C255 H269 0.958 . S
C255 H270 0.961 . S
C255 H271 0.960 . S
H256 C240 0.931 . S
H257 C245 0.929 . S
H258 C246 0.960 . S
H259 C246 0.962 . S
H260 C246 0.960 . S
H261 C247 0.961 . S
H262 C247 0.961 . S
H263 C247 0.961 . S
H264 C248 0.931 . S
H265 C253 0.930 . S
H266 C254 0.956 . S
H267 C254 0.961 . S
H268 C254 0.961 . S
H269 C255 0.958 . S
H270 C255 0.961 . S
H271 C255 0.960 . S
C272 C273 1.391 . S
C272 C274 1.394 . S
C272 H288 0.931 . S
C273 C272 1.391 . S
C273 C277 1.376 . S
C274 C272 1.394 . S
C274 C275 1.369 . S
C274 C278 1.531 . S
C275 C274 1.369 . S
C275 C276 1.410 . S
C275 C283 1.503 . S
C276 C275 1.410 . S
C276 C277 1.392 . S
C276 C279 1.511 . S
C277 C273 1.376 . S
C277 C276 1.392 . S
C277 H289 0.929 . S
C278 C274 1.531 . S
C278 H290 0.960 . S
C278 H291 0.962 . S
C278 H292 0.960 . S
C279 C276 1.511 . S
C279 H293 0.961 . S
C279 H294 0.961 . S
C279 H295 0.961 . S
C280 C281 1.370 . S
C280 C282 1.363 . S
C280 H296 0.931 . S
C281 C280 1.370 . S
C281 C285 1.408 . S
C282 C280 1.363 . S
C282 C283 1.370 . S
C282 C286 1.524 . S
C283 C275 1.503 . S
C283 C282 1.370 . S
C283 C284 1.403 . S
C284 C283 1.403 . S
C284 C285 1.404 . S
C284 C287 1.539 . S
C285 C281 1.408 . S
C285 C284 1.404 . S
C285 H297 0.930 . S
C286 C282 1.524 . S
C286 H298 0.956 . S
C286 H299 0.961 . S
C286 H300 0.961 . S
C287 C284 1.539 . S
C287 H301 0.958 . S
C287 H302 0.961 . S
C287 H303 0.960 . S
H288 C272 0.931 . S
H289 C277 0.929 . S
H290 C278 0.960 . S
H291 C278 0.962 . S
H292 C278 0.960 . S
H293 C279 0.961 . S
H294 C279 0.961 . S
H295 C279 0.961 . S
H296 C280 0.931 . S
H297 C285 0.930 . S
H298 C286 0.956 . S
H299 C286 0.961 . S
H300 C286 0.961 . S
H301 C287 0.958 . S
H302 C287 0.961 . S
H303 C287 0.960 . S
C304 C305 1.391 . S
C304 C306 1.394 . S
C304 H320 0.931 . S
C305 C304 1.391 . S
C305 C309 1.376 . S
C306 C304 1.394 . S
C306 C307 1.369 . S
C306 C310 1.531 . S
C307 C306 1.369 . S
C307 C308 1.410 . S
C307 C315 1.503 . S
C308 C307 1.410 . S
C308 C309 1.392 . S
C308 C311 1.511 . S
C309 C305 1.376 . S
C309 C308 1.392 . S
C309 H321 0.929 . S
C310 C306 1.531 . S
C310 H322 0.960 . S
C310 H323 0.962 . S
C310 H324 0.960 . S
C311 C308 1.511 . S
C311 H325 0.961 . S
C311 H326 0.961 . S
C311 H327 0.961 . S
C312 C313 1.370 . S
C312 C314 1.363 . S
C312 H328 0.931 . S
C313 C312 1.370 . S
C313 C317 1.408 . S
C314 C312 1.363 . S
C314 C315 1.370 . S
C314 C318 1.524 . S
C315 C307 1.503 . S
C315 C314 1.370 . S
C315 C316 1.403 . S
C316 C315 1.403 . S
C316 C317 1.404 . S
C316 C319 1.539 . S
C317 C313 1.408 . S
C317 C316 1.404 . S
C317 H329 0.930 . S
C318 C314 1.524 . S
C318 H330 0.956 . S
C318 H331 0.961 . S
C318 H332 0.961 . S
C319 C316 1.539 . S
C319 H333 0.958 . S
C319 H334 0.961 . S
C319 H335 0.960 . S
H320 C304 0.931 . S
H321 C309 0.929 . S
H322 C310 0.960 . S
H323 C310 0.962 . S
H324 C310 0.960 . S
H325 C311 0.961 . S
H326 C311 0.961 . S
H327 C311 0.961 . S
H328 C312 0.931 . S
H329 C317 0.930 . S
H330 C318 0.956 . S
H331 C318 0.961 . S
H332 C318 0.961 . S
H333 C319 0.958 . S
H334 C319 0.961 . S
H335 C319 0.960 . S
C336 C337 1.391 . S
C336 C338 1.394 . S
C336 H352 0.931 . S
C337 C336 1.391 . S
C337 C341 1.376 . S
C338 C336 1.394 . S
C338 C339 1.369 . S
C338 C342 1.531 . S
C339 C338 1.369 . S
C339 C340 1.410 . S
C339 C347 1.503 . S
C340 C339 1.410 . S
C340 C341 1.392 . S
C340 C343 1.511 . S
C341 C337 1.376 . S
C341 C340 1.392 . S
C341 H353 0.929 . S
C342 C338 1.531 . S
C342 H354 0.960 . S
C342 H355 0.962 . S
C342 H356 0.960 . S
C343 C340 1.511 . S
C343 H357 0.961 . S
C343 H358 0.961 . S
C343 H359 0.961 . S
C344 C345 1.370 . S
C344 C346 1.363 . S
C344 H360 0.931 . S
C345 C344 1.370 . S
C345 C349 1.408 . S
C346 C344 1.363 . S
C346 C347 1.370 . S
C346 C350 1.524 . S
C347 C339 1.503 . S
C347 C346 1.370 . S
C347 C348 1.403 . S
C348 C347 1.403 . S
C348 C349 1.404 . S
C348 C351 1.539 . S
C349 C345 1.408 . S
C349 C348 1.404 . S
C349 H361 0.930 . S
C350 C346 1.524 . S
C350 H362 0.956 . S
C350 H363 0.961 . S
C350 H364 0.961 . S
C351 C348 1.539 . S
C351 H365 0.958 . S
C351 H366 0.961 . S
C351 H367 0.960 . S
H352 C336 0.931 . S
H353 C341 0.929 . S
H354 C342 0.960 . S
H355 C342 0.962 . S
H356 C342 0.960 . S
H357 C343 0.961 . S
H358 C343 0.961 . S
H359 C343 0.961 . S
H360 C344 0.931 . S
H361 C349 0.930 . S
H362 C350 0.956 . S
H363 C350 0.961 . S
H364 C350 0.961 . S
H365 C351 0.958 . S
H366 C351 0.961 . S
H367 C351 0.960 . S
C368 C369 1.391 . S
C368 C370 1.394 . S
C368 H384 0.931 . S
C369 C368 1.391 . S
C369 C373 1.376 . S
C370 C368 1.394 . S
C370 C371 1.369 . S
C370 C374 1.531 . S
C371 C370 1.369 . S
C371 C372 1.410 . S
C371 C379 1.503 . S
C372 C371 1.410 . S
C372 C373 1.392 . S
C372 C375 1.511 . S
C373 C369 1.376 . S
C373 C372 1.392 . S
C373 H385 0.929 . S
C374 C370 1.531 . S
C374 H386 0.960 . S
C374 H387 0.962 . S
C374 H388 0.960 . S
C375 C372 1.511 . S
C375 H389 0.961 . S
C375 H390 0.961 . S
C375 H391 0.961 . S
C376 C377 1.370 . S
C376 C378 1.363 . S
C376 H392 0.931 . S
C377 C376 1.370 . S
C377 C381 1.408 . S
C378 C376 1.363 . S
C378 C379 1.370 . S
C378 C382 1.524 . S
C379 C371 1.503 . S
C379 C378 1.370 . S
C379 C380 1.403 . S
C380 C379 1.403 . S
C380 C381 1.404 . S
C380 C383 1.539 . S
C381 C377 1.408 . S
C381 C380 1.404 . S
C381 H393 0.930 . S
C382 C378 1.524 . S
C382 H394 0.956 . S
C382 H395 0.961 . S
C382 H396 0.961 . S
C383 C380 1.539 . S
C383 H397 0.958 . S
C383 H398 0.961 . S
C383 H399 0.960 . S
H384 C368 0.931 . S
H385 C373 0.929 . S
H386 C374 0.960 . S
H387 C374 0.962 . S
H388 C374 0.960 . S
H389 C375 0.961 . S
H390 C375 0.961 . S
H391 C375 0.961 . S
H392 C376 0.931 . S
H393 C381 0.930 . S
H394 C382 0.956 . S
H395 C382 0.961 . S
H396 C382 0.961 . S
H397 C383 0.958 . S
H398 C383 0.961 . S
H399 C383 0.960 . S
C400 C401 1.391 . S
C400 C402 1.394 . S
C400 H416 0.931 . S
C401 C400 1.391 . S
C401 C405 1.376 . S
C402 C400 1.394 . S
C402 C403 1.369 . S
C402 C406 1.531 . S
C403 C402 1.369 . S
C403 C404 1.410 . S
C403 C411 1.503 . S
C404 C403 1.410 . S
C404 C405 1.392 . S
C404 C407 1.511 . S
C405 C401 1.376 . S
C405 C404 1.392 . S
C405 H417 0.929 . S
C406 C402 1.531 . S
C406 H418 0.960 . S
C406 H419 0.962 . S
C406 H420 0.960 . S
C407 C404 1.511 . S
C407 H421 0.961 . S
C407 H422 0.961 . S
C407 H423 0.961 . S
C408 C409 1.370 . S
C408 C410 1.363 . S
C408 H424 0.931 . S
C409 C408 1.370 . S
C409 C413 1.408 . S
C410 C408 1.363 . S
C410 C411 1.370 . S
C410 C414 1.524 . S
C411 C403 1.503 . S
C411 C410 1.370 . S
C411 C412 1.403 . S
C412 C411 1.403 . S
C412 C413 1.404 . S
C412 C415 1.539 . S
C413 C409 1.408 . S
C413 C412 1.404 . S
C413 H425 0.930 . S
C414 C410 1.524 . S
C414 H426 0.956 . S
C414 H427 0.961 . S
C414 H428 0.961 . S
C415 C412 1.539 . S
C415 H429 0.958 . S
C415 H430 0.961 . S
C415 H431 0.960 . S
H416 C400 0.931 . S
H417 C405 0.929 . S
H418 C406 0.960 . S
H419 C406 0.962 . S
H420 C406 0.960 . S
H421 C407 0.961 . S
H422 C407 0.961 . S
H423 C407 0.961 . S
H424 C408 0.931 . S
H425 C413 0.930 . S
H426 C414 0.956 . S
H427 C414 0.961 . S
H428 C414 0.961 . S
H429 C415 0.958 . S
H430 C415 0.961 . S
H431 C415 0.960 . S
C432 C433 1.391 . S
C432 C434 1.394 . S
C432 H448 0.931 . S
C433 C432 1.391 . S
C433 C437 1.376 . S
C434 C432 1.394 . S
C434 C435 1.369 . S
C434 C438 1.531 . S
C435 C434 1.369 . S
C435 C436 1.410 . S
C435 C443 1.503 . S
C436 C435 1.410 . S
C436 C437 1.392 . S
C436 C439 1.511 . S
C437 C433 1.376 . S
C437 C436 1.392 . S
C437 H449 0.929 . S
C438 C434 1.531 . S
C438 H450 0.960 . S
C438 H451 0.962 . S
C438 H452 0.960 . S
C439 C436 1.511 . S
C439 H453 0.961 . S
C439 H454 0.961 . S
C439 H455 0.961 . S
C440 C441 1.370 . S
C440 C442 1.363 . S
C440 H456 0.931 . S
C441 C440 1.370 . S
C441 C445 1.408 . S
C442 C440 1.363 . S
C442 C443 1.370 . S
C442 C446 1.524 . S
C443 C435 1.503 . S
C443 C442 1.370 . S
C443 C444 1.403 . S
C444 C443 1.403 . S
C444 C445 1.404 . S
C444 C447 1.539 . S
C445 C441 1.408 . S
C445 C444 1.404 . S
C445 H457 0.930 . S
C446 C442 1.524 . S
C446 H458 0.956 . S
C446 H459 0.961 . S
C446 H460 0.961 1_554 S
C447 C444 1.539 . S
C447 H461 0.958 . S
C447 H462 0.961 . S
C447 H463 0.960 . S
H448 C432 0.931 . S
H449 C437 0.929 . S
H450 C438 0.960 . S
H451 C438 0.962 . S
H452 C438 0.960 . S
H453 C439 0.961 . S
H454 C439 0.961 . S
H455 C439 0.961 . S
H456 C440 0.931 . S
H457 C445 0.930 . S
H458 C446 0.956 . S
H459 C446 0.961 . S
H460 C446 0.961 1_556 S
H461 C447 0.958 . S
H462 C447 0.961 . S
H463 C447 0.960 . S
C464 C465 1.391 . S
C464 C466 1.394 . S
C464 H480 0.931 . S
C465 C464 1.391 . S
C465 C469 1.376 . S
C466 C464 1.394 . S
C466 C467 1.369 . S
C466 C470 1.531 . S
C467 C466 1.369 . S
C467 C468 1.410 1_455 S
C467 C475 1.503 1_455 S
C468 C467 1.410 1_655 S
C468 C469 1.392 1_655 S
C468 C471 1.511 . S
C469 C465 1.376 . S
C469 C468 1.392 1_455 S
C469 H481 0.929 1_455 S
C470 C466 1.531 . S
C470 H482 0.960 . S
C470 H483 0.962 . S
C470 H484 0.960 . S
C471 C468 1.511 . S
C471 H485 0.961 . S
C471 H486 0.961 . S
C471 H487 0.961 . S
C472 C473 1.370 . S
C472 C474 1.363 . S
C472 H488 0.931 . S
C473 C472 1.370 . S
C473 C477 1.408 . S
C474 C472 1.363 . S
C474 C475 1.370 . S
C474 C478 1.524 1_655 S
C475 C467 1.503 1_655 S
C475 C474 1.370 . S
C475 C476 1.403 . S
C476 C475 1.403 . S
C476 C477 1.404 . S
C476 C479 1.539 . S
C477 C473 1.408 . S
C477 C476 1.404 . S
C477 H489 0.930 . S
C478 C474 1.524 1_455 S
C478 H490 0.956 . S
C478 H491 0.961 . S
C478 H492 0.961 . S
C479 C476 1.539 . S
C479 H493 0.958 . S
C479 H494 0.961 . S
C479 H495 0.960 . S
H480 C464 0.931 . S
H481 C469 0.929 1_655 S
H482 C470 0.960 . S
H483 C470 0.962 . S
H484 C470 0.960 . S
H485 C471 0.961 . S
H486 C471 0.961 . S
H487 C471 0.961 . S
H488 C472 0.931 . S
H489 C477 0.930 . S
H490 C478 0.956 . S
H491 C478 0.961 . S
H492 C478 0.961 . S
H493 C479 0.958 . S
H494 C479 0.961 . S
H495 C479 0.960 . S
C496 C497 1.391 . S
C496 C498 1.394 . S
C496 H512 0.931 . S
C497 C496 1.391 . S
C497 C501 1.376 . S
C498 C496 1.394 . S
C498 C499 1.369 . S
C498 C502 1.531 . S
C499 C498 1.369 . S
C499 C500 1.410 1_545 S
C499 C507 1.503 1_545 S
C500 C499 1.410 1_565 S
C500 C501 1.392 1_565 S
C500 C503 1.511 . S
C501 C497 1.376 . S
C501 C500 1.392 1_545 S
C501 H513 0.929 1_545 S
C502 C498 1.531 . S
C502 H514 0.960 . S
C502 H515 0.962 . S
C502 H516 0.960 . S
C503 C500 1.511 . S
C503 H517 0.961 . S
C503 H518 0.961 . S
C503 H519 0.961 . S
C504 C505 1.370 . S
C504 C506 1.363 . S
C504 H520 0.931 . S
C505 C504 1.370 . S
C505 C509 1.408 . S
C506 C504 1.363 . S
C506 C507 1.370 . S
C506 C510 1.524 . S
C507 C499 1.503 1_565 S
C507 C506 1.370 . S
C507 C508 1.403 1_565 S
C508 C507 1.403 1_545 S
C508 C509 1.404 1_545 S
C508 C511 1.539 . S
C509 C505 1.408 . S
C509 C508 1.404 1_565 S
C509 H521 0.930 . S
C510 C506 1.524 . S
C510 H522 0.956 . S
C510 H523 0.961 . S
C510 H524 0.961 . S
C511 C508 1.539 . S
C511 H525 0.958 . S
C511 H526 0.961 . S
C511 H527 0.960 . S
H512 C496 0.931 . S
H513 C501 0.929 1_565 S
H514 C502 0.960 . S
H515 C502 0.962 . S
H516 C502 0.960 . S
H517 C503 0.961 . S
H518 C503 0.961 . S
H519 C503 0.961 . S
H520 C504 0.931 . S
H521 C509 0.930 . S
H522 C510 0.956 . S
H523 C510 0.961 . S
H524 C510 0.961 . S
H525 C511 0.958 . S
H526 C511 0.961 . S
H527 C511 0.960 . S
C528 C529 1.391 . S
C528 C530 1.394 . S
C528 H544 0.931 . S
C529 C528 1.391 . S
C529 C533 1.376 . S
C530 C528 1.394 . S
C530 C531 1.369 . S
C530 C534 1.531 . S
C531 C530 1.369 . S
C531 C532 1.410 . S
C531 C539 1.503 . S
C532 C531 1.410 . S
C532 C533 1.392 . S
C532 C535 1.511 . S
C533 C529 1.376 . S
C533 C532 1.392 . S
C533 H545 0.929 . S
C534 C530 1.531 . S
C534 H546 0.960 . S
C534 H547 0.962 . S
C534 H548 0.960 . S
C535 C532 1.511 . S
C535 H549 0.961 . S
C535 H550 0.961 . S
C535 H551 0.961 . S
C536 C537 1.370 . S
C536 C538 1.363 . S
C536 H552 0.931 . S
C537 C536 1.370 . S
C537 C541 1.408 . S
C538 C536 1.363 . S
C538 C539 1.370 . S
C538 C542 1.524 . S
C539 C531 1.503 . S
C539 C538 1.370 . S
C539 C540 1.403 . S
C540 C539 1.403 . S
C540 C541 1.404 . S
C540 C543 1.539 . S
C541 C537 1.408 . S
C541 C540 1.404 . S
C541 H553 0.930 . S
C542 C538 1.524 . S
C542 H554 0.956 . S
C542 H555 0.961 . S
C542 H556 0.961 . S
C543 C540 1.539 . S
C543 H557 0.958 . S
C543 H558 0.961 . S
C543 H559 0.960 . S
H544 C528 0.931 . S
H545 C533 0.929 . S
H546 C534 0.960 . S
H547 C534 0.962 . S
H548 C534 0.960 . S
H549 C535 0.961 . S
H550 C535 0.961 . S
H551 C535 0.961 . S
H552 C536 0.931 . S
H553 C541 0.930 . S
H554 C542 0.956 . S
H555 C542 0.961 . S
H556 C542 0.961 . S
H557 C543 0.958 . S
H558 C543 0.961 . S
H559 C543 0.960 . S
C560 C561 1.391 . S
C560 C562 1.394 . S
C560 H576 0.931 . S
C561 C560 1.391 . S
C561 C565 1.376 . S
C562 C560 1.394 . S
C562 C563 1.369 . S
C562 C566 1.531 1_455 S
C563 C562 1.369 . S
C563 C564 1.410 . S
C563 C571 1.503 1_455 S
C564 C563 1.410 . S
C564 C565 1.392 . S
C564 C567 1.511 . S
C565 C561 1.376 . S
C565 C564 1.392 . S
C565 H577 0.929 . S
C566 C562 1.531 1_655 S
C566 H578 0.960 . S
C566 H579 0.962 . S
C566 H580 0.960 . S
C567 C564 1.511 . S
C567 H581 0.961 1_554 S
C567 H582 0.961 1_554 S
C567 H583 0.961 . S
C568 C569 1.370 . S
C568 C570 1.363 . S
C568 H584 0.931 . S
C569 C568 1.370 . S
C569 C573 1.408 . S
C570 C568 1.363 . S
C570 C571 1.370 . S
C570 C574 1.524 1_554 S
C571 C563 1.503 1_655 S
C571 C570 1.370 . S
C571 C572 1.403 1_655 S
C572 C571 1.403 1_455 S
C572 C573 1.404 1_455 S
C572 C575 1.539 . S
C573 C569 1.408 . S
C573 C572 1.404 1_655 S
C573 H585 0.930 . S
C574 C570 1.524 1_556 S
C574 H586 0.956 1_556 S
C574 H587 0.961 . S
C574 H588 0.961 . S
C575 C572 1.539 . S
C575 H589 0.958 . S
C575 H590 0.961 . S
C575 H591 0.960 . S
H576 C560 0.931 . S
H577 C565 0.929 . S
H578 C566 0.960 . S
H579 C566 0.962 . S
H580 C566 0.960 . S
H581 C567 0.961 1_556 S
H582 C567 0.961 1_556 S
H583 C567 0.961 . S
H584 C568 0.931 . S
H585 C573 0.930 . S
H586 C574 0.956 1_554 S
H587 C574 0.961 . S
H588 C574 0.961 . S
H589 C575 0.958 . S
H590 C575 0.961 . S
H591 C575 0.960 . S
C592 C593 1.391 . S
C592 C594 1.394 . S
C592 H608 0.931 . S
C593 C592 1.391 . S
C593 C597 1.376 . S
C594 C592 1.394 . S
C594 C595 1.369 . S
C594 C598 1.531 . S
C595 C594 1.369 . S
C595 C596 1.410 1_565 S
C595 C603 1.503 1_565 S
C596 C595 1.410 1_545 S
C596 C597 1.392 1_545 S
C596 C599 1.511 . S
C597 C593 1.376 . S
C597 C596 1.392 1_565 S
C597 H609 0.929 . S
C598 C594 1.531 . S
C598 H610 0.960 . S
C598 H611 0.962 . S
C598 H612 0.960 . S
C599 C596 1.511 . S
C599 H613 0.961 . S
C599 H614 0.961 . S
C599 H615 0.961 . S
C600 C601 1.370 . S
C600 C602 1.363 . S
C600 H616 0.931 . S
C601 C600 1.370 . S
C601 C605 1.408 . S
C602 C600 1.363 . S
C602 C603 1.370 . S
C602 C606 1.524 1_545 S
C603 C595 1.503 1_545 S
C603 C602 1.370 . S
C603 C604 1.403 . S
C604 C603 1.403 . S
C604 C605 1.404 . S
C604 C607 1.539 . S
C605 C601 1.408 . S
C605 C604 1.404 . S
C605 H617 0.930 . S
C606 C602 1.524 1_565 S
C606 H618 0.956 . S
C606 H619 0.961 . S
C606 H620 0.961 . S
C607 C604 1.539 . S
C607 H621 0.958 . S
C607 H622 0.961 . S
C607 H623 0.960 . S
H608 C592 0.931 . S
H609 C597 0.929 . S
H610 C598 0.960 . S
H611 C598 0.962 . S
H612 C598 0.960 . S
H613 C599 0.961 . S
H614 C599 0.961 . S
H615 C599 0.961 . S
H616 C600 0.931 . S
H617 C605 0.930 . S
H618 C606 0.956 . S
H619 C606 0.961 . S
H620 C606 0.961 . S
H621 C607 0.958 . S
H622 C607 0.961 . S
H623 C607 0.960 . S
C624 C625 1.391 . S
C624 C626 1.394 . S
C624 H640 0.931 . S
C625 C624 1.391 . S
C625 C629 1.376 . S
C626 C624 1.394 . S
C626 C627 1.369 . S
C626 C630 1.531 . S
C627 C626 1.369 . S
C627 C628 1.410 . S
C627 C635 1.503 . S
C628 C627 1.410 . S
C628 C629 1.392 . S
C628 C631 1.511 . S
C629 C625 1.376 . S
C629 C628 1.392 . S
C629 H641 0.929 . S
C630 C626 1.531 . S
C630 H642 0.960 . S
C630 H643 0.962 . S
C630 H644 0.960 . S
C631 C628 1.511 . S
C631 H645 0.961 . S
C631 H646 0.961 . S
C631 H647 0.961 . S
C632 C633 1.370 . S
C632 C634 1.363 . S
C632 H648 0.931 . S
C633 C632 1.370 . S
C633 C637 1.408 . S
C634 C632 1.363 . S
C634 C635 1.370 . S
C634 C638 1.524 . S
C635 C627 1.503 . S
C635 C634 1.370 . S
C635 C636 1.403 . S
C636 C635 1.403 . S
C636 C637 1.404 . S
C636 C639 1.539 . S
C637 C633 1.408 . S
C637 C636 1.404 . S
C637 H649 0.930 . S
C638 C634 1.524 . S
C638 H650 0.956 . S
C638 H651 0.961 . S
C638 H652 0.961 . S
C639 C636 1.539 . S
C639 H653 0.958 . S
C639 H654 0.961 . S
C639 H655 0.960 . S
H640 C624 0.931 . S
H641 C629 0.929 . S
H642 C630 0.960 . S
H643 C630 0.962 . S
H644 C630 0.960 . S
H645 C631 0.961 . S
H646 C631 0.961 . S
H647 C631 0.961 . S
H648 C632 0.931 . S
H649 C637 0.930 . S
H650 C638 0.956 . S
H651 C638 0.961 . S
H652 C638 0.961 . S
H653 C639 0.958 . S
H654 C639 0.961 . S
H655 C639 0.960 . S
C656 C657 1.391 1_455 S
C656 C658 1.394 . S
C656 H672 0.931 . S
C657 C656 1.391 1_655 S
C657 C661 1.376 . S
C658 C656 1.394 . S
C658 C659 1.369 . S
C658 C662 1.531 . S
C659 C658 1.369 . S
C659 C660 1.410 1_455 S
C659 C667 1.503 . S
C660 C659 1.410 1_655 S
C660 C661 1.392 . S
C660 C663 1.511 . S
C661 C657 1.376 . S
C661 C660 1.392 . S
C661 H673 0.929 . S
C662 C658 1.531 . S
C662 H674 0.960 . S
C662 H675 0.962 . S
C662 H676 0.960 . S
C663 C660 1.511 . S
C663 H677 0.961 . S
C663 H678 0.961 . S
C663 H679 0.961 . S
C664 C665 1.370 . S
C664 C666 1.363 . S
C664 H680 0.931 . S
C665 C664 1.370 . S
C665 C669 1.408 . S
C666 C664 1.363 . S
C666 C667 1.370 . S
C666 C670 1.524 . S
C667 C659 1.503 . S
C667 C666 1.370 . S
C667 C668 1.403 . S
C668 C667 1.403 . S
C668 C669 1.404 . S
C668 C671 1.539 . S
C669 C665 1.408 . S
C669 C668 1.404 . S
C669 H681 0.930 . S
C670 C666 1.524 . S
C670 H682 0.956 . S
C670 H683 0.961 . S
C670 H684 0.961 . S
C671 C668 1.539 . S
C671 H685 0.958 . S
C671 H686 0.961 . S
C671 H687 0.960 . S
H672 C656 0.931 . S
H673 C661 0.929 . S
H674 C662 0.960 . S
H675 C662 0.962 . S
H676 C662 0.960 . S
H677 C663 0.961 . S
H678 C663 0.961 . S
H679 C663 0.961 . S
H680 C664 0.931 . S
H681 C669 0.930 . S
H682 C670 0.956 . S
H683 C670 0.961 . S
H684 C670 0.961 . S
H685 C671 0.958 . S
H686 C671 0.961 . S
H687 C671 0.960 . S
C688 C689 1.391 1_565 S
C688 C690 1.394 1_565 S
C688 H704 0.931 . S
C689 C688 1.391 1_545 S
C689 C693 1.376 . S
C690 C688 1.394 1_545 S
C690 C691 1.369 . S
C690 C694 1.531 . S
C691 C690 1.369 . S
C691 C692 1.410 . S
C691 C699 1.503 . S
C692 C691 1.410 . S
C692 C693 1.392 . S
C692 C695 1.511 . S
C693 C689 1.376 . S
C693 C692 1.392 . S
C693 H705 0.929 . S
C694 C690 1.531 . S
C694 H706 0.960 . S
C694 H707 0.962 1_545 S
C694 H708 0.962 1_545 S
C695 C692 1.511 . S
C695 H709 0.961 . S
C695 H710 0.961 . S
C695 H711 0.961 . S
C696 C697 1.370 . S
C696 C698 1.363 . S
C696 H712 0.931 . S
C697 C696 1.370 . S
C697 C701 1.408 . S
C698 C696 1.363 . S
C698 C699 1.370 . S
C698 C702 1.524 1_545 S
C699 C691 1.503 . S
C699 C698 1.370 . S
C699 C700 1.403 . S
C700 C699 1.403 . S
C700 C701 1.404 . S
C700 C703 1.539 . S
C701 C697 1.408 . S
C701 C700 1.404 . S
C701 H713 0.930 . S
C702 C698 1.524 1_565 S
C702 H714 0.956 . S
C702 H715 0.961 1_565 S
C702 H716 0.961 . S
C703 C700 1.539 . S
C703 H717 0.958 . S
C703 H718 0.961 . S
C703 H719 0.960 . S
H704 C688 0.931 . S
H705 C693 0.929 . S
H706 C694 0.960 . S
H707 C694 0.962 1_565 S
H708 C694 0.962 1_565 S
H709 C695 0.961 . S
H710 C695 0.961 . S
H711 C695 0.961 . S
H712 C696 0.931 . S
H713 C701 0.930 . S
H714 C702 0.956 . S
H715 C702 0.961 1_545 S
H716 C702 0.961 . S
H717 C703 0.958 . S
H718 C703 0.961 . S
H719 C703 0.960 . S
C720 C721 1.391 . S
C720 C722 1.394 . S
C720 H736 0.931 . S
C721 C720 1.391 . S
C721 C725 1.376 . S
C722 C720 1.394 . S
C722 C723 1.369 . S
C722 C726 1.531 . S
C723 C722 1.369 . S
C723 C724 1.410 . S
C723 C731 1.503 . S
C724 C723 1.410 . S
C724 C725 1.392 . S
C724 C727 1.511 . S
C725 C721 1.376 . S
C725 C724 1.392 . S
C725 H737 0.929 . S
C726 C722 1.531 . S
C726 H738 0.960 . S
C726 H739 0.962 . S
C726 H740 0.960 . S
C727 C724 1.511 . S
C727 H741 0.961 . S
C727 H742 0.961 . S
C727 H743 0.961 . S
C728 C729 1.370 . S
C728 C730 1.363 . S
C728 H744 0.931 . S
C729 C728 1.370 . S
C729 C733 1.408 . S
C730 C728 1.363 . S
C730 C731 1.370 . S
C730 C734 1.524 . S
C731 C723 1.503 . S
C731 C730 1.370 . S
C731 C732 1.403 . S
C732 C731 1.403 . S
C732 C733 1.404 . S
C732 C735 1.539 . S
C733 C729 1.408 . S
C733 C732 1.404 . S
C733 H745 0.930 . S
C734 C730 1.524 . S
C734 H746 0.956 . S
C734 H747 0.961 . S
C734 H748 0.961 . S
C735 C732 1.539 . S
C735 H749 0.958 . S
C735 H750 0.961 . S
C735 H751 0.960 . S
H736 C720 0.931 . S
H737 C725 0.929 . S
H738 C726 0.960 . S
H739 C726 0.962 . S
H740 C726 0.960 . S
H741 C727 0.961 . S
H742 C727 0.961 . S
H743 C727 0.961 . S
H744 C728 0.931 . S
H745 C733 0.930 . S
H746 C734 0.956 . S
H747 C734 0.961 . S
H748 C734 0.961 . S
H749 C735 0.958 . S
H750 C735 0.961 . S
H751 C735 0.960 . S
C752 C753 1.391 1_455 S
C752 C754 1.394 1_455 S
C752 H768 0.931 . S
C753 C752 1.391 1_655 S
C753 C757 1.376 . S
C754 C752 1.394 1_655 S
C754 C755 1.369 . S
C754 C758 1.531 1_655 S
C755 C754 1.369 . S
C755 C756 1.410 . S
C755 C763 1.503 . S
C756 C755 1.410 . S
C756 C757 1.392 . S
C756 C759 1.511 . S
C757 C753 1.376 . S
C757 C756 1.392 . S
C757 H769 0.929 . S
C758 C754 1.531 1_455 S
C758 H770 0.960 1_455 S
C758 H771 0.962 . S
C758 H772 0.960 . S
C759 C756 1.511 . S
C759 H773 0.961 . S
C759 H774 0.961 . S
C759 H775 0.961 . S
C760 C761 1.370 . S
C760 C762 1.363 . S
C760 H776 0.931 . S
C761 C760 1.370 . S
C761 C765 1.408 . S
C762 C760 1.363 . S
C762 C763 1.370 . S
C762 C766 1.524 . S
C763 C755 1.503 . S
C763 C762 1.370 . S
C763 C764 1.403 . S
C764 C763 1.403 . S
C764 C765 1.404 . S
C764 C767 1.539 . S
C765 C761 1.408 . S
C765 C764 1.404 . S
C765 H777 0.930 . S
C766 C762 1.524 . S
C766 H778 0.956 1_655 S
C766 H779 0.961 . S
C766 H780 0.961 . S
C767 C764 1.539 . S
C767 H781 0.958 . S
C767 H782 0.961 . S
C767 H783 0.960 . S
H768 C752 0.931 . S
H769 C757 0.929 . S
H770 C758 0.960 1_655 S
H771 C758 0.962 . S
H772 C758 0.960 . S
H773 C759 0.961 . S
H774 C759 0.961 . S
H775 C759 0.961 . S
H776 C760 0.931 . S
H777 C765 0.930 . S
H778 C766 0.956 1_455 S
H779 C766 0.961 . S
H780 C766 0.961 . S
H781 C767 0.958 . S
H782 C767 0.961 . S
H783 C767 0.960 . S
C784 C785 1.391 . S
C784 C786 1.394 . S
C784 H800 0.931 . S
C785 C784 1.391 . S
C785 C789 1.376 1_545 S
C786 C784 1.394 . S
C786 C787 1.369 1_545 S
C786 C790 1.531 . S
C787 C786 1.369 1_565 S
C787 C788 1.410 . S
C787 C795 1.503 . S
C788 C787 1.410 . S
C788 C789 1.392 . S
C788 C791 1.511 . S
C789 C785 1.376 1_565 S
C789 C788 1.392 . S
C789 H801 0.929 . S
C790 C786 1.531 . S
C790 H802 0.960 . S
C790 H803 0.962 . S
C790 H804 0.960 . S
C791 C788 1.511 . S
C791 H805 0.961 . S
C791 H806 0.961 . S
C791 H807 0.961 . S
C792 C793 1.370 . S
C792 C794 1.363 . S
C792 H808 0.931 . S
C793 C792 1.370 . S
C793 C797 1.408 . S
C794 C792 1.363 . S
C794 C795 1.370 . S
C794 C798 1.524 . S
C795 C787 1.503 . S
C795 C794 1.370 . S
C795 C796 1.403 . S
C796 C795 1.403 . S
C796 C797 1.404 . S
C796 C799 1.539 . S
C797 C793 1.408 . S
C797 C796 1.404 . S
C797 H809 0.930 . S
C798 C794 1.524 . S
C798 H810 0.956 . S
C798 H811 0.961 . S
C798 H812 0.961 . S
C799 C796 1.539 . S
C799 H813 0.958 . S
C799 H814 0.961 . S
C799 H815 0.960 . S
H800 C784 0.931 . S
H801 C789 0.929 . S
H802 C790 0.960 . S
H803 C790 0.962 . S
H804 C790 0.960 . S
H805 C791 0.961 . S
H806 C791 0.961 . S
H807 C791 0.961 . S
H808 C792 0.931 . S
H809 C797 0.930 . S
H810 C798 0.956 . S
H811 C798 0.961 . S
H812 C798 0.961 . S
H813 C799 0.958 . S
H814 C799 0.961 . S
H815 C799 0.960 . S
C241 C179 1.173 . S
C249 C6 1.192 . S
C273 C219 1.185 . S
C281 C46 1.191 . S
C305 C19 1.176 . S
C313 C86 1.194 . S
C337 C59 1.175 . S
C345 C126 1.191 . S
C369 C99 1.188 . S
C377 C166 1.194 . S
C401 C139 1.173 . S
C409 C206 1.193 . S
C433 C9 0.850 . S
C441 C129 0.798 . S
C465 C169 0.868 . S
C473 C49 0.791 . S
C497 C209 0.763 . S
C505 C89 0.834 . S
C529 C98 0.929 . S
C537 C218 0.937 . S
C561 C18 0.934 . S
C569 C138 0.939 . S
C593 C178 0.937 . S
C601 C58 0.935 . S
C625 C210 1.251 . S
C633 C15 1.246 . S
C657 C55 1.265 . S
C665 C10 1.262 . S
C689 C95 1.227 1_545 S
C697 C50 1.259 . S
C721 C90 1.251 . S
C729 C135 1.247 . S
C753 C175 1.220 1_655 S
C761 C130 1.259 . S
C785 C215 1.214 . S
C793 C170 1.260 . S
