# Generated by pormake.
# Topology crs, (6)-cn, num edge types: 1
# Building blocks:
#     Node 0, Type 0, BuildingBlock: BETDEL_clean_sbu_0, # of connection points: 6
#     Node 1, Type 0, BuildingBlock: BETDEL_clean_sbu_0, # of connection points: 6
#     Node 2, Type 0, BuildingBlock: BETDEL_clean_sbu_0, # of connection points: 6
#     Node 3, Type 0, BuildingBlock: BETDEL_clean_sbu_0, # of connection points: 6
#     Node 4, Type 0, BuildingBlock: BETDEL_clean_sbu_0, # of connection points: 6
#     Node 5, Type 0, BuildingBlock: BETDEL_clean_sbu_0, # of connection points: 6
#     Node 6, Type 0, BuildingBlock: BETDEL_clean_sbu_0, # of connection points: 6
#     Node 7, Type 0, BuildingBlock: BETDEL_clean_sbu_0, # of connection points: 6
#     Node 8, Type 0, BuildingBlock: BETDEL_clean_sbu_0, # of connection points: 6
#     Node 9, Type 0, BuildingBlock: BETDEL_clean_sbu_0, # of connection points: 6
#     Node 10, Type 0, BuildingBlock: BETDEL_clean_sbu_0, # of connection points: 6
#     Node 11, Type 0, BuildingBlock: BETDEL_clean_sbu_0, # of connection points: 6
#     Node 12, Type 0, BuildingBlock: BETDEL_clean_sbu_0, # of connection points: 6
#     Node 13, Type 0, BuildingBlock: BETDEL_clean_sbu_0, # of connection points: 6
#     Node 14, Type 0, BuildingBlock: BETDEL_clean_sbu_0, # of connection points: 6
#     Node 15, Type 0, BuildingBlock: BETDEL_clean_sbu_0, # of connection points: 6
#     Edge 16, Type (0, 0), None
#     Edge 17, Type (0, 0), None
#     Edge 18, Type (0, 0), None
#     Edge 19, Type (0, 0), None
#     Edge 20, Type (0, 0), None
#     Edge 21, Type (0, 0), None
#     Edge 22, Type (0, 0), None
#     Edge 23, Type (0, 0), None
#     Edge 24, Type (0, 0), None
#     Edge 25, Type (0, 0), None
#     Edge 26, Type (0, 0), None
#     Edge 27, Type (0, 0), None
#     Edge 28, Type (0, 0), None
#     Edge 29, Type (0, 0), None
#     Edge 30, Type (0, 0), None
#     Edge 31, Type (0, 0), None
#     Edge 32, Type (0, 0), None
#     Edge 33, Type (0, 0), None
#     Edge 34, Type (0, 0), None
#     Edge 35, Type (0, 0), None
#     Edge 36, Type (0, 0), None
#     Edge 37, Type (0, 0), None
#     Edge 38, Type (0, 0), None
#     Edge 39, Type (0, 0), None
#     Edge 40, Type (0, 0), None
#     Edge 41, Type (0, 0), None
#     Edge 42, Type (0, 0), None
#     Edge 43, Type (0, 0), None
#     Edge 44, Type (0, 0), None
#     Edge 45, Type (0, 0), None
#     Edge 46, Type (0, 0), None
#     Edge 47, Type (0, 0), None
#     Edge 48, Type (0, 0), None
#     Edge 49, Type (0, 0), None
#     Edge 50, Type (0, 0), None
#     Edge 51, Type (0, 0), None
#     Edge 52, Type (0, 0), None
#     Edge 53, Type (0, 0), None
#     Edge 54, Type (0, 0), None
#     Edge 55, Type (0, 0), None
#     Edge 56, Type (0, 0), None
#     Edge 57, Type (0, 0), None
#     Edge 58, Type (0, 0), None
#     Edge 59, Type (0, 0), None
#     Edge 60, Type (0, 0), None
#     Edge 61, Type (0, 0), None
#     Edge 62, Type (0, 0), None
#     Edge 63, Type (0, 0), None
# Relax obj value: 0.444
# Max RMSD: 0.352
# Mean RMSD: 0.278
data_MOF--net-crs--node1-BETDEL_clean_sbu_0--edge1-none
_symmetry_space_group_name_H-M    P1
_symmetry_Int_Tables_number       1
_symmetry_cell_setting            triclinic
loop_
_symmetry_equiv_pos_as_xyz
'x, y, z'
_cell_length_a     21.742552
_cell_length_b     22.303227
_cell_length_c     19.479721
_cell_angle_alpha  76.825808
_cell_angle_beta   83.474638
_cell_angle_gamma 68.298328
loop_
_atom_site_label
_atom_site_type_symbol
_atom_site_fract_x
_atom_site_fract_y
_atom_site_fract_z
_atom_type_partial_charge
Dy0 Dy 0.93834 0.97248 0.05805 0.0
C1 C 0.12348 0.09236 0.91499 0.0
C2 C 0.85208 0.90857 0.10072 0.0
Dy3 Dy 0.03388 0.03226 0.95797 0.0
O4 O 0.91397 0.88546 0.11678 0.0
O5 O 0.83605 0.96862 0.06453 0.0
O6 O -0.00332 0.95588 0.15226 0.0
O7 O 0.04384 0.9557 0.05144 0.0
C8 C 0.04998 0.95687 0.11495 0.0
C9 C 0.92042 0.05065 0.90255 0.0
O10 O 0.06377 0.93875 0.91751 0.0
O11 O 0.97504 0.91106 0.97552 0.0
O12 O 0.06102 0.11823 0.90093 0.0
O13 O 0.13795 0.03198 0.94978 0.0
O14 O 0.974 0.04966 0.86481 0.0
O15 O 0.92833 0.05053 0.96584 0.0
O16 O 0.90513 0.06686 0.09605 0.0
O17 O -0.0036 0.09245 0.04213 0.0
C18 C 0.02503 0.90313 0.92868 0.0
C19 C 0.94467 0.10138 0.08708 0.0
Dy20 Dy 0.01894 0.28198 0.29919 0.0
C21 C 0.94602 0.13744 0.14025 0.0
C22 C 0.04466 0.35792 0.37558 0.0
Dy23 Dy 0.96495 0.21856 0.21451 0.0
O24 O 0.04336 0.29931 0.39947 0.0
O25 O 0.02747 0.37741 0.30992 0.0
O26 O 0.11138 0.2037 0.33919 0.0
O27 O 0.05519 0.1819 0.27407 0.0
C28 C 0.1079 0.1598 0.30839 0.0
C29 C 0.89753 0.3505 0.20005 0.0
O30 O 0.92032 0.18558 0.31855 0.0
O31 O 0.9429 0.25638 0.37405 0.0
O32 O 0.89828 0.18689 0.15959 0.0
O33 O 0.00165 0.13204 0.16324 0.0
O34 O 0.91439 0.31811 0.14923 0.0
O35 O 0.92021 0.31047 0.25654 0.0
O36 O 0.06337 0.3122 0.19367 0.0
O37 O 0.04508 0.23694 0.1424 0.0
C38 C 0.91413 0.21367 0.37307 0.0
C39 C 0.07339 0.27991 0.14207 0.0
Dy40 Dy 0.7187 0.20777 0.46456 0.0
C41 C 0.82062 0.36263 0.58953 0.0
C42 C 0.66659 0.12877 0.423 0.0
Dy43 Dy 0.76799 0.28245 0.55022 0.0
O44 O 0.64215 0.19266 0.40975 0.0
O45 O 0.72001 0.10769 0.4589 0.0
O46 O 0.71983 0.27915 0.36404 0.0
O47 O 0.70478 0.31113 0.46061 0.0
C48 C 0.71691 0.32592 0.39496 0.0
C49 C 0.77266 0.16333 0.61878 0.0
O50 O 0.66367 0.30817 0.59365 0.0
O51 O 0.64042 0.23029 0.54955 0.0
O52 O 0.84432 0.29876 0.60457 0.0
O53 O 0.76751 0.38311 0.55318 0.0
O54 O 0.76898 0.21009 0.65021 0.0
O55 O 0.78316 0.17929 0.55304 0.0
O56 O 0.82311 0.17882 0.42278 0.0
O57 O 0.84733 0.25595 0.46727 0.0
C58 C 0.62606 0.27357 0.59089 0.0
C59 C 0.86155 0.21217 0.42647 0.0
Dy60 Dy 0.70479 0.98909 0.69986 0.0
C61 C 0.87114 0.0303 0.87883 0.0
C62 C 0.60497 0.9733 0.64165 0.0
Dy63 Dy 0.77819 0.00653 0.81754 0.0
O64 O 0.65828 0.97852 0.60704 0.0
O65 O 0.60419 0.98192 0.70547 0.0
O66 O 0.78696 0.90479 0.66295 0.0
O67 O 0.80285 0.9427 0.743 0.0
C68 C 0.82952 0.89763 0.7085 0.0
C69 C 0.64654 0.07817 0.81496 0.0
O70 O 0.79075 0.08164 0.72304 0.0
O71 O 0.72842 0.07575 0.63627 0.0
O72 O 0.80991 0.04405 0.90125 0.0
O73 O 0.88202 0.0007 0.82628 0.0
O74 O 0.68065 0.04886 0.87155 0.0
O75 O 0.6855 0.06624 0.76201 0.0
O76 O 0.68372 0.92441 0.79935 0.0
O77 O 0.76677 0.91152 0.8727 0.0
C78 C 0.76709 0.10121 0.65849 0.0
C79 C 0.71904 0.89416 0.85651 0.0
Dy80 Dy 0.52064 0.77792 0.29991 0.0
C81 C 0.45466 0.63723 0.1319 0.0
C82 C 0.53146 0.85647 0.38256 0.0
Dy83 Dy 0.46598 0.71371 0.21542 0.0
O84 O 0.57173 0.84085 0.32957 0.0
O85 O 0.48491 0.83263 0.38678 0.0
O86 O 0.60845 0.69633 0.34705 0.0
O87 O 0.5535 0.67623 0.27932 0.0
C88 C 0.60497 0.65261 0.31568 0.0
C89 C 0.38077 0.83811 0.19919 0.0
O90 O 0.42539 0.6776 0.32078 0.0
O91 O 0.44658 0.74949 0.37528 0.0
O92 O 0.41561 0.65065 0.18631 0.0
O93 O 0.50065 0.66187 0.12663 0.0
O94 O 0.37848 0.7942 0.16756 0.0
O95 O 0.43217 0.81571 0.23597 0.0
O96 O 0.56319 0.81123 0.19454 0.0
O97 O 0.54359 0.73726 0.14206 0.0
C98 C 0.4182 0.70656 0.37472 0.0
C99 C 0.5722 0.78002 0.1421 0.0
Dy100 Dy 0.21467 0.715 0.46016 0.0
C101 C 0.31745 0.8596 0.60026 0.0
C102 C 0.16973 0.63361 0.41232 0.0
Dy103 Dy 0.27358 0.77648 0.55323 0.0
O104 O 0.14561 0.69753 0.39654 0.0
O105 O 0.2206 0.61401 0.45193 0.0
O106 O 0.16402 0.8151 0.39295 0.0
O107 O 0.25078 0.7962 0.44278 0.0
C108 C 0.20513 0.84061 0.4066 0.0
C109 C 0.28522 0.65034 0.60531 0.0
O110 O 0.16713 0.80797 0.59506 0.0
O111 O 0.13413 0.74099 0.54292 0.0
O112 O 0.3422 0.79568 0.61629 0.0
O113 O 0.26683 0.87825 0.56045 0.0
O114 O 0.32529 0.67657 0.62011 0.0
O115 O 0.23905 0.6948 0.56994 0.0
O116 O 0.32102 0.68 0.42009 0.0
O117 O 0.35478 0.74656 0.47216 0.0
C118 C 0.1233 0.78138 0.58723 0.0
C119 C 0.36558 0.7052 0.42882 0.0
Dy120 Dy 0.20469 0.48839 0.70095 0.0
C121 C 0.37353 0.52851 0.87902 0.0
C122 C 0.107 0.47384 0.63828 0.0
Dy123 Dy 0.2803 0.50724 0.81492 0.0
O124 O 0.16055 0.48002 0.60535 0.0
O125 O 0.10485 0.48065 0.70304 0.0
O126 O 0.28537 0.40241 0.66507 0.0
O127 O 0.30328 0.44163 0.74266 0.0
C128 C 0.32891 0.39579 0.70912 0.0
C129 C 0.14872 0.58113 0.81248 0.0
O130 O 0.30211 0.57297 0.71548 0.0
O131 O 0.22834 0.57373 0.63674 0.0
O132 O 0.31039 0.55224 0.89287 0.0
O133 O 0.38547 0.49167 0.83287 0.0
O134 O 0.18312 0.55181 0.86884 0.0
O135 O 0.18723 0.568 0.75941 0.0
O136 O 0.18124 0.42763 0.80178 0.0
O137 O 0.26688 0.41327 0.8722 0.0
C138 C 0.2738 0.59412 0.65315 0.0
C139 C 0.2179 0.39666 0.85776 0.0
Dy140 Dy 0.94867 0.46464 0.55406 0.0
C141 C 0.12977 0.59371 0.41151 0.0
C142 C 0.85982 0.40275 0.59249 0.0
Dy143 Dy 0.03877 0.53471 0.45381 0.0
O144 O 0.922 0.37713 0.60816 0.0
O145 O 0.84527 0.46359 0.55912 0.0
O146 O 0.00626 0.44958 0.6482 0.0
O147 O 0.05209 0.4561 0.54635 0.0
C148 C 0.05754 0.45635 0.61032 0.0
C149 C 0.92923 0.54303 0.39881 0.0
O150 O 0.07022 0.44386 0.40892 0.0
O151 O 0.99141 0.40266 0.47296 0.0
O152 O 0.06763 0.61978 0.39563 0.0
O153 O 0.14274 0.53426 0.4486 0.0
O154 O 0.98002 0.54999 0.36008 0.0
O155 O 0.93605 0.54304 0.46231 0.0
O156 O 0.91378 0.55731 0.59547 0.0
O157 O -0.0068 0.59885 0.53326 0.0
C158 C 0.03775 0.40222 0.42263 0.0
C159 C 0.94497 0.60007 0.58178 0.0
Dy160 Dy 0.21289 0.21269 0.95841 0.0
C161 C 0.31848 0.36523 0.09672 0.0
C162 C 0.16188 0.13307 0.91749 0.0
Dy163 Dy 0.27293 0.28179 0.05539 0.0
O164 O 0.13508 0.19684 0.9073 0.0
O165 O 0.21748 0.11222 0.94983 0.0
O166 O 0.18806 0.30017 0.86641 0.0
O167 O 0.22519 0.30396 0.9573 0.0
C168 C 0.20798 0.336 0.89645 0.0
C169 C 0.2776 0.15898 0.11786 0.0
O170 O 0.16802 0.30973 0.09648 0.0
O171 O 0.1368 0.23994 0.04465 0.0
O172 O 0.347 0.30153 0.10838 0.0
O173 O 0.26449 0.38386 0.06211 0.0
O174 O 0.29855 0.19455 0.14721 0.0
O175 O 0.25962 0.19092 0.05715 0.0
O176 O 0.31877 0.18168 0.92016 0.0
O177 O 0.35068 0.25156 0.97123 0.0
C178 C 0.12666 0.28032 0.08911 0.0
C179 C 0.36102 0.20999 0.92798 0.0
Dy180 Dy 0.19928 0.99072 0.2002 0.0
C181 C 0.3815 0.01897 0.37497 0.0
C182 C 0.10017 0.97463 0.14126 0.0
Dy183 Dy 0.28499 0.00301 0.31284 0.0
O184 O 0.15178 0.98342 0.10624 0.0
O185 O 0.09999 0.9808 0.2059 0.0
O186 O 0.27556 0.91049 0.15425 0.0
O187 O 0.30215 0.94105 0.23563 0.0
C188 C 0.32247 0.89948 0.19578 0.0
C189 C 0.16343 0.09633 0.31485 0.0
O190 O 0.30235 0.07013 0.21468 0.0
O191 O 0.21827 0.08208 0.14223 0.0
O192 O 0.32947 0.01005 0.40857 0.0
O193 O 0.38381 0.01265 0.31005 0.0
O194 O 0.20969 0.08425 0.35754 0.0
O195 O 0.18277 0.05387 0.27604 0.0
O196 O 0.18108 0.92446 0.30094 0.0
O197 O 0.26649 0.91307 0.37099 0.0
C198 C 0.26681 0.09915 0.15756 0.0
C199 C 0.21678 0.89679 0.35841 0.0
Dy200 Dy 0.52124 0.27465 0.8 0.0
C201 C 0.43348 0.14285 0.63207 0.0
C202 C 0.53021 0.35457 0.88175 0.0
Dy203 Dy 0.46174 0.20998 0.71733 0.0
O204 O 0.57241 0.33673 0.83071 0.0
O205 O 0.48341 0.33111 0.88538 0.0
O206 O 0.61017 0.18687 0.84438 0.0
O207 O 0.54673 0.17541 0.78125 0.0
C208 C 0.5989 0.14546 0.81507 0.0
C209 C 0.37878 0.33057 0.73464 0.0
O210 O 0.42534 0.17477 0.82522 0.0
O211 O 0.44209 0.25327 0.87282 0.0
O212 O 0.4373 0.20099 0.61209 0.0
O213 O 0.4474 0.1205 0.69826 0.0
O214 O 0.3618 0.28109 0.73335 0.0
O215 O 0.44103 0.31453 0.72196 0.0
O216 O 0.5633 0.30614 0.69473 0.0
O217 O 0.54494 0.2283 0.64661 0.0
C218 C 0.41539 0.20838 0.87576 0.0
C219 C 0.57309 0.27241 0.64443 0.0
Dy220 Dy 0.02155 0.77759 0.79984 0.0
C221 C 0.93678 0.643 0.6309 0.0
C222 C 0.02824 0.85823 0.88287 0.0
Dy223 Dy 0.96285 0.71205 0.71584 0.0
O224 O 0.07052 0.8414 0.83149 0.0
O225 O 0.98274 0.83308 0.88632 0.0
O226 O 0.1114 0.68986 0.84285 0.0
O227 O 0.04822 0.67869 0.7793 0.0
C228 C 0.10087 0.64868 0.81245 0.0
C229 C 0.87924 0.83223 0.73389 0.0
O230 O 0.92505 0.67728 0.82337 0.0
O231 O 0.9424 0.75476 0.87237 0.0
O232 O 0.9372 0.70247 0.61128 0.0
O233 O 0.95281 0.62045 0.69653 0.0
O234 O 0.86249 0.7828 0.73148 0.0
O235 O 0.94153 0.81636 0.72171 0.0
O236 O 0.06328 0.81043 0.69429 0.0
O237 O 0.04283 0.7353 0.64315 0.0
C238 C 0.91521 0.71029 0.87449 0.0
C239 C 0.07122 0.7791 0.64205 0.0
Dy240 Dy 0.70324 0.48722 0.19874 0.0
C241 C 0.88214 0.52058 0.37399 0.0
C242 C 0.60581 0.46906 0.13898 0.0
Dy243 Dy 0.78481 0.5007 0.31721 0.0
O244 O 0.65851 0.47608 0.10487 0.0
O245 O 0.604 0.47755 0.203 0.0
O246 O 0.78769 0.41045 0.15211 0.0
O247 O 0.80285 0.4423 0.23777 0.0
C248 C 0.83079 0.40241 0.19737 0.0
C249 C 0.66129 0.58949 0.32038 0.0
O250 O 0.79755 0.5729 0.22044 0.0
O251 O 0.72001 0.57971 0.14222 0.0
O252 O 0.83104 0.51129 0.40962 0.0
O253 O 0.88327 0.51244 0.30997 0.0
O254 O 0.70657 0.57731 0.36444 0.0
O255 O 0.68242 0.54874 0.279 0.0
O256 O 0.69239 0.41256 0.29445 0.0
O257 O 0.7673 0.40898 0.37408 0.0
C258 C 0.76507 0.5996 0.16086 0.0
C259 C 0.7236 0.38764 0.35501 0.0
Dy260 Dy 0.71332 0.71117 0.95925 0.0
C261 C 0.81729 0.86501 0.097 0.0
C262 C 0.66476 0.63027 0.9168 0.0
Dy263 Dy 0.77242 0.78122 0.05555 0.0
O264 O 0.63669 0.69391 0.90752 0.0
O265 O 0.71999 0.61025 0.94966 0.0
O266 O 0.68834 0.79798 0.86651 0.0
O267 O 0.72544 0.80266 0.95705 0.0
C268 C 0.70843 0.83407 0.89591 0.0
C269 C 0.77637 0.65898 0.12009 0.0
O270 O 0.6671 0.80971 0.09601 0.0
O271 O 0.63604 0.73959 0.04459 0.0
O272 O 0.84697 0.80147 0.10725 0.0
O273 O 0.76256 0.88327 0.06378 0.0
O274 O 0.79721 0.69511 0.14863 0.0
O275 O 0.7593 0.68985 0.05867 0.0
O276 O 0.81919 0.682 0.91977 0.0
O277 O 0.85046 0.75208 0.97107 0.0
C278 C 0.62561 0.78035 0.0888 0.0
C279 C 0.86103 0.71098 0.92724 0.0
Dy280 Dy 0.44423 0.96376 0.56096 0.0
C281 C 0.62748 0.08888 0.41987 0.0
C282 C 0.35583 0.90095 0.60265 0.0
Dy283 Dy 0.53743 0.02908 0.45942 0.0
O284 O 0.41816 0.87633 0.61786 0.0
O285 O 0.34106 0.96133 0.56762 0.0
O286 O 0.50236 0.95122 0.65445 0.0
O287 O 0.54842 0.95284 0.55322 0.0
C288 C 0.55442 0.95519 0.61623 0.0
C289 C 0.42877 0.03934 0.40233 0.0
O290 O 0.56787 0.93618 0.41742 0.0
O291 O 0.48365 0.90253 0.47956 0.0
O292 O 0.56549 0.11502 0.40371 0.0
O293 O 0.64123 0.02855 0.45464 0.0
O294 O 0.48046 0.04524 0.36467 0.0
O295 O 0.43407 0.03976 0.46629 0.0
O296 O 0.40825 0.05844 0.59753 0.0
O297 O 0.4914 0.09517 0.53717 0.0
C298 C 0.53126 0.89827 0.43028 0.0
C299 C 0.44119 0.09956 0.58371 0.0
Dy300 Dy 0.44317 0.46881 0.05665 0.0
C301 C 0.62793 0.58847 0.91267 0.0
C302 C 0.35454 0.40785 0.09979 0.0
Dy303 Dy 0.53948 0.52683 0.95483 0.0
O304 O 0.41636 0.38358 0.11627 0.0
O305 O 0.33982 0.46756 0.06288 0.0
O306 O 0.50268 0.45004 0.15033 0.0
O307 O 0.54894 0.45065 0.04895 0.0
C308 C 0.55577 0.4511 0.11261 0.0
C309 C 0.42401 0.54804 0.90152 0.0
O310 O 0.5681 0.43356 0.91517 0.0
O311 O 0.47877 0.40748 0.97426 0.0
O312 O 0.56572 0.61332 0.89759 0.0
O313 O 0.64305 0.52793 0.9472 0.0
O314 O 0.47754 0.54553 0.86299 0.0
O315 O 0.43342 0.54714 0.96464 0.0
O316 O 0.41447 0.56148 0.0965 0.0
O317 O 0.50415 0.58731 0.03763 0.0
C318 C 0.52852 0.39887 0.92717 0.0
C319 C 0.45462 0.59547 0.08497 0.0
loop_
_geom_bond_atom_site_label_1
_geom_bond_atom_site_label_2
_geom_bond_distance
_geom_bond_site_symmetry_2
_ccdc_geom_bond_type
Dy0 O4 2.398 . S
Dy0 O5 2.491 . S
Dy0 O6 2.403 1_655 S
Dy0 O7 2.664 1_655 S
Dy0 O11 2.326 1_654 S
Dy0 O15 2.310 1_564 S
Dy0 O16 2.351 1_565 S
C1 O12 1.185 . S
C1 O13 1.355 . S
C2 O4 1.185 . S
C2 O5 1.355 . S
Dy3 O7 2.310 1_546 S
Dy3 O10 2.351 1_545 S
Dy3 O12 2.398 . S
Dy3 O13 2.491 . S
Dy3 O14 2.403 1_455 S
Dy3 O15 2.664 1_455 S
Dy3 O17 2.326 1_456 S
O4 Dy0 2.398 . S
O4 C2 1.185 . S
O5 Dy0 2.491 . S
O5 C2 1.355 . S
O6 Dy0 2.403 1_455 S
O6 C8 1.254 . S
O7 Dy0 2.664 1_455 S
O7 Dy3 2.310 1_564 S
O7 C8 1.268 . S
C8 O6 1.254 . S
C8 O7 1.268 . S
C9 O14 1.254 . S
C9 O15 1.268 . S
O10 Dy3 2.351 1_565 S
O10 C18 1.249 . S
O11 Dy0 2.326 1_456 S
O11 C18 1.267 . S
O12 C1 1.185 . S
O12 Dy3 2.398 . S
O13 C1 1.355 . S
O13 Dy3 2.491 . S
O14 Dy3 2.403 1_655 S
O14 C9 1.254 . S
O15 Dy0 2.310 1_546 S
O15 Dy3 2.664 1_655 S
O15 C9 1.268 . S
O16 Dy0 2.351 1_545 S
O16 C19 1.249 . S
O17 Dy3 2.326 1_654 S
O17 C19 1.267 . S
C18 O10 1.249 . S
C18 O11 1.267 . S
C19 O16 1.249 . S
C19 O17 1.267 . S
Dy20 O24 2.398 . S
Dy20 O25 2.491 1_455 S
Dy20 O26 2.403 . S
Dy20 O27 2.664 . S
Dy20 O31 2.326 1_455 S
Dy20 O35 2.310 1_455 S
Dy20 O36 2.351 . S
C21 O32 1.185 . S
C21 O33 1.355 1_655 S
C22 O24 1.185 . S
C22 O25 1.355 1_455 S
Dy23 O27 2.310 1_655 S
Dy23 O30 2.351 . S
Dy23 O32 2.398 . S
Dy23 O33 2.491 1_655 S
Dy23 O34 2.403 . S
Dy23 O35 2.664 . S
Dy23 O37 2.326 1_655 S
O24 Dy20 2.398 . S
O24 C22 1.185 . S
O25 Dy20 2.491 1_655 S
O25 C22 1.355 1_655 S
O26 Dy20 2.403 . S
O26 C28 1.254 . S
O27 Dy20 2.664 . S
O27 Dy23 2.310 1_455 S
O27 C28 1.268 . S
C28 O26 1.254 . S
C28 O27 1.268 . S
C29 O34 1.254 . S
C29 O35 1.268 . S
O30 Dy23 2.351 . S
O30 C38 1.249 . S
O31 Dy20 2.326 1_655 S
O31 C38 1.267 . S
O32 C21 1.185 . S
O32 Dy23 2.398 . S
O33 C21 1.355 1_455 S
O33 Dy23 2.491 1_455 S
O34 Dy23 2.403 . S
O34 C29 1.254 . S
O35 Dy20 2.310 1_655 S
O35 Dy23 2.664 . S
O35 C29 1.268 . S
O36 Dy20 2.351 . S
O36 C39 1.249 . S
O37 Dy23 2.326 1_455 S
O37 C39 1.267 . S
C38 O30 1.249 . S
C38 O31 1.267 . S
C39 O36 1.249 . S
C39 O37 1.267 . S
Dy40 O44 2.398 . S
Dy40 O45 2.491 . S
Dy40 O46 2.403 . S
Dy40 O47 2.664 . S
Dy40 O51 2.326 . S
Dy40 O55 2.310 . S
Dy40 O56 2.351 . S
C41 O52 1.185 . S
C41 O53 1.355 . S
C42 O44 1.185 . S
C42 O45 1.355 . S
Dy43 O47 2.310 . S
Dy43 O50 2.351 . S
Dy43 O52 2.398 . S
Dy43 O53 2.491 . S
Dy43 O54 2.403 . S
Dy43 O55 2.664 . S
Dy43 O57 2.326 . S
O44 Dy40 2.398 . S
O44 C42 1.185 . S
O45 Dy40 2.491 . S
O45 C42 1.355 . S
O46 Dy40 2.403 . S
O46 C48 1.254 . S
O47 Dy40 2.664 . S
O47 Dy43 2.310 . S
O47 C48 1.268 . S
C48 O46 1.254 . S
C48 O47 1.268 . S
C49 O54 1.254 . S
C49 O55 1.268 . S
O50 Dy43 2.351 . S
O50 C58 1.249 . S
O51 Dy40 2.326 . S
O51 C58 1.267 . S
O52 C41 1.185 . S
O52 Dy43 2.398 . S
O53 C41 1.355 . S
O53 Dy43 2.491 . S
O54 Dy43 2.403 . S
O54 C49 1.254 . S
O55 Dy40 2.310 . S
O55 Dy43 2.664 . S
O55 C49 1.268 . S
O56 Dy40 2.351 . S
O56 C59 1.249 . S
O57 Dy43 2.326 . S
O57 C59 1.267 . S
C58 O50 1.249 . S
C58 O51 1.267 . S
C59 O56 1.249 . S
C59 O57 1.267 . S
Dy60 O64 2.398 . S
Dy60 O65 2.491 1_565 S
Dy60 O66 2.403 . S
Dy60 O67 2.664 . S
Dy60 O71 2.326 1_565 S
Dy60 O75 2.310 1_565 S
Dy60 O76 2.351 . S
C61 O72 1.185 . S
C61 O73 1.355 1_545 S
C62 O64 1.185 . S
C62 O65 1.355 1_565 S
Dy63 O67 2.310 1_545 S
Dy63 O70 2.351 . S
Dy63 O72 2.398 . S
Dy63 O73 2.491 1_545 S
Dy63 O74 2.403 . S
Dy63 O75 2.664 . S
Dy63 O77 2.326 1_545 S
O64 Dy60 2.398 . S
O64 C62 1.185 . S
O65 Dy60 2.491 1_545 S
O65 C62 1.355 1_545 S
O66 Dy60 2.403 . S
O66 C68 1.254 . S
O67 Dy60 2.664 . S
O67 Dy63 2.310 1_565 S
O67 C68 1.268 . S
C68 O66 1.254 . S
C68 O67 1.268 . S
C69 O74 1.254 . S
C69 O75 1.268 . S
O70 Dy63 2.351 . S
O70 C78 1.249 . S
O71 Dy60 2.326 1_545 S
O71 C78 1.267 . S
O72 C61 1.185 . S
O72 Dy63 2.398 . S
O73 C61 1.355 1_565 S
O73 Dy63 2.491 1_565 S
O74 Dy63 2.403 . S
O74 C69 1.254 . S
O75 Dy60 2.310 1_545 S
O75 Dy63 2.664 . S
O75 C69 1.268 . S
O76 Dy60 2.351 . S
O76 C79 1.249 . S
O77 Dy63 2.326 1_565 S
O77 C79 1.267 . S
C78 O70 1.249 . S
C78 O71 1.267 . S
C79 O76 1.249 . S
C79 O77 1.267 . S
Dy80 O84 2.398 . S
Dy80 O85 2.491 . S
Dy80 O86 2.403 . S
Dy80 O87 2.664 . S
Dy80 O91 2.326 . S
Dy80 O95 2.310 . S
Dy80 O96 2.351 . S
C81 O92 1.185 . S
C81 O93 1.355 . S
C82 O84 1.185 . S
C82 O85 1.355 . S
Dy83 O87 2.310 . S
Dy83 O90 2.351 . S
Dy83 O92 2.398 . S
Dy83 O93 2.491 . S
Dy83 O94 2.403 . S
Dy83 O95 2.664 . S
Dy83 O97 2.326 . S
O84 Dy80 2.398 . S
O84 C82 1.185 . S
O85 Dy80 2.491 . S
O85 C82 1.355 . S
O86 Dy80 2.403 . S
O86 C88 1.254 . S
O87 Dy80 2.664 . S
O87 Dy83 2.310 . S
O87 C88 1.268 . S
C88 O86 1.254 . S
C88 O87 1.268 . S
C89 O94 1.254 . S
C89 O95 1.268 . S
O90 Dy83 2.351 . S
O90 C98 1.249 . S
O91 Dy80 2.326 . S
O91 C98 1.267 . S
O92 C81 1.185 . S
O92 Dy83 2.398 . S
O93 C81 1.355 . S
O93 Dy83 2.491 . S
O94 Dy83 2.403 . S
O94 C89 1.254 . S
O95 Dy80 2.310 . S
O95 Dy83 2.664 . S
O95 C89 1.268 . S
O96 Dy80 2.351 . S
O96 C99 1.249 . S
O97 Dy83 2.326 . S
O97 C99 1.267 . S
C98 O90 1.249 . S
C98 O91 1.267 . S
C99 O96 1.249 . S
C99 O97 1.267 . S
Dy100 O104 2.398 . S
Dy100 O105 2.491 . S
Dy100 O106 2.403 . S
Dy100 O107 2.664 . S
Dy100 O111 2.326 . S
Dy100 O115 2.310 . S
Dy100 O116 2.351 . S
C101 O112 1.185 . S
C101 O113 1.355 . S
C102 O104 1.185 . S
C102 O105 1.355 . S
Dy103 O107 2.310 . S
Dy103 O110 2.351 . S
Dy103 O112 2.398 . S
Dy103 O113 2.491 . S
Dy103 O114 2.403 . S
Dy103 O115 2.664 . S
Dy103 O117 2.326 . S
O104 Dy100 2.398 . S
O104 C102 1.185 . S
O105 Dy100 2.491 . S
O105 C102 1.355 . S
O106 Dy100 2.403 . S
O106 C108 1.254 . S
O107 Dy100 2.664 . S
O107 Dy103 2.310 . S
O107 C108 1.268 . S
C108 O106 1.254 . S
C108 O107 1.268 . S
C109 O114 1.254 . S
C109 O115 1.268 . S
O110 Dy103 2.351 . S
O110 C118 1.249 . S
O111 Dy100 2.326 . S
O111 C118 1.267 . S
O112 C101 1.185 . S
O112 Dy103 2.398 . S
O113 C101 1.355 . S
O113 Dy103 2.491 . S
O114 Dy103 2.403 . S
O114 C109 1.254 . S
O115 Dy100 2.310 . S
O115 Dy103 2.664 . S
O115 C109 1.268 . S
O116 Dy100 2.351 . S
O116 C119 1.249 . S
O117 Dy103 2.326 . S
O117 C119 1.267 . S
C118 O110 1.249 . S
C118 O111 1.267 . S
C119 O116 1.249 . S
C119 O117 1.267 . S
Dy120 O124 2.398 . S
Dy120 O125 2.491 . S
Dy120 O126 2.403 . S
Dy120 O127 2.664 . S
Dy120 O131 2.326 . S
Dy120 O135 2.310 . S
Dy120 O136 2.351 . S
C121 O132 1.185 . S
C121 O133 1.355 . S
C122 O124 1.185 . S
C122 O125 1.355 . S
Dy123 O127 2.310 . S
Dy123 O130 2.351 . S
Dy123 O132 2.398 . S
Dy123 O133 2.491 . S
Dy123 O134 2.403 . S
Dy123 O135 2.664 . S
Dy123 O137 2.326 . S
O124 Dy120 2.398 . S
O124 C122 1.185 . S
O125 Dy120 2.491 . S
O125 C122 1.355 . S
O126 Dy120 2.403 . S
O126 C128 1.254 . S
O127 Dy120 2.664 . S
O127 Dy123 2.310 . S
O127 C128 1.268 . S
C128 O126 1.254 . S
C128 O127 1.268 . S
C129 O134 1.254 . S
C129 O135 1.268 . S
O130 Dy123 2.351 . S
O130 C138 1.249 . S
O131 Dy120 2.326 . S
O131 C138 1.267 . S
O132 C121 1.185 . S
O132 Dy123 2.398 . S
O133 C121 1.355 . S
O133 Dy123 2.491 . S
O134 Dy123 2.403 . S
O134 C129 1.254 . S
O135 Dy120 2.310 . S
O135 Dy123 2.664 . S
O135 C129 1.268 . S
O136 Dy120 2.351 . S
O136 C139 1.249 . S
O137 Dy123 2.326 . S
O137 C139 1.267 . S
C138 O130 1.249 . S
C138 O131 1.267 . S
C139 O136 1.249 . S
C139 O137 1.267 . S
Dy140 O144 2.398 . S
Dy140 O145 2.491 . S
Dy140 O146 2.403 1_655 S
Dy140 O147 2.664 1_655 S
Dy140 O151 2.326 1_655 S
Dy140 O155 2.310 . S
Dy140 O156 2.351 . S
C141 O152 1.185 . S
C141 O153 1.355 . S
C142 O144 1.185 . S
C142 O145 1.355 . S
Dy143 O147 2.310 . S
Dy143 O150 2.351 . S
Dy143 O152 2.398 . S
Dy143 O153 2.491 . S
Dy143 O154 2.403 1_455 S
Dy143 O155 2.664 1_455 S
Dy143 O157 2.326 1_455 S
O144 Dy140 2.398 . S
O144 C142 1.185 . S
O145 Dy140 2.491 . S
O145 C142 1.355 . S
O146 Dy140 2.403 1_455 S
O146 C148 1.254 . S
O147 Dy140 2.664 1_455 S
O147 Dy143 2.310 . S
O147 C148 1.268 . S
C148 O146 1.254 . S
C148 O147 1.268 . S
C149 O154 1.254 . S
C149 O155 1.268 . S
O150 Dy143 2.351 . S
O150 C158 1.249 . S
O151 Dy140 2.326 1_455 S
O151 C158 1.267 . S
O152 C141 1.185 . S
O152 Dy143 2.398 . S
O153 C141 1.355 . S
O153 Dy143 2.491 . S
O154 Dy143 2.403 1_655 S
O154 C149 1.254 . S
O155 Dy140 2.310 . S
O155 Dy143 2.664 1_655 S
O155 C149 1.268 . S
O156 Dy140 2.351 . S
O156 C159 1.249 . S
O157 Dy143 2.326 1_655 S
O157 C159 1.267 . S
C158 O150 1.249 . S
C158 O151 1.267 . S
C159 O156 1.249 . S
C159 O157 1.267 . S
Dy160 O164 2.398 . S
Dy160 O165 2.491 1_556 S
Dy160 O166 2.403 . S
Dy160 O167 2.664 . S
Dy160 O171 2.326 1_556 S
Dy160 O175 2.310 1_556 S
Dy160 O176 2.351 . S
C161 O172 1.185 . S
C161 O173 1.355 1_554 S
C162 O164 1.185 . S
C162 O165 1.355 1_556 S
Dy163 O167 2.310 1_554 S
Dy163 O170 2.351 . S
Dy163 O172 2.398 . S
Dy163 O173 2.491 1_554 S
Dy163 O174 2.403 . S
Dy163 O175 2.664 . S
Dy163 O177 2.326 1_554 S
O164 Dy160 2.398 . S
O164 C162 1.185 . S
O165 Dy160 2.491 1_554 S
O165 C162 1.355 1_554 S
O166 Dy160 2.403 . S
O166 C168 1.254 . S
O167 Dy160 2.664 . S
O167 Dy163 2.310 1_556 S
O167 C168 1.268 . S
C168 O166 1.254 . S
C168 O167 1.268 . S
C169 O174 1.254 . S
C169 O175 1.268 . S
O170 Dy163 2.351 . S
O170 C178 1.249 . S
O171 Dy160 2.326 1_554 S
O171 C178 1.267 . S
O172 C161 1.185 . S
O172 Dy163 2.398 . S
O173 C161 1.355 1_556 S
O173 Dy163 2.491 1_556 S
O174 Dy163 2.403 . S
O174 C169 1.254 . S
O175 Dy160 2.310 1_554 S
O175 Dy163 2.664 . S
O175 C169 1.268 . S
O176 Dy160 2.351 . S
O176 C179 1.249 . S
O177 Dy163 2.326 1_556 S
O177 C179 1.267 . S
C178 O170 1.249 . S
C178 O171 1.267 . S
C179 O176 1.249 . S
C179 O177 1.267 . S
Dy180 O184 2.398 . S
Dy180 O185 2.491 1_565 S
Dy180 O186 2.403 . S
Dy180 O187 2.664 . S
Dy180 O191 2.326 1_565 S
Dy180 O195 2.310 1_565 S
Dy180 O196 2.351 . S
C181 O192 1.185 . S
C181 O193 1.355 1_545 S
C182 O184 1.185 . S
C182 O185 1.355 1_565 S
Dy183 O187 2.310 1_545 S
Dy183 O190 2.351 . S
Dy183 O192 2.398 . S
Dy183 O193 2.491 1_545 S
Dy183 O194 2.403 . S
Dy183 O195 2.664 . S
Dy183 O197 2.326 1_545 S
O184 Dy180 2.398 . S
O184 C182 1.185 . S
O185 Dy180 2.491 1_545 S
O185 C182 1.355 1_545 S
O186 Dy180 2.403 . S
O186 C188 1.254 . S
O187 Dy180 2.664 . S
O187 Dy183 2.310 1_565 S
O187 C188 1.268 . S
C188 O186 1.254 . S
C188 O187 1.268 . S
C189 O194 1.254 . S
C189 O195 1.268 . S
O190 Dy183 2.351 . S
O190 C198 1.249 . S
O191 Dy180 2.326 1_545 S
O191 C198 1.267 . S
O192 C181 1.185 . S
O192 Dy183 2.398 . S
O193 C181 1.355 1_565 S
O193 Dy183 2.491 1_565 S
O194 Dy183 2.403 . S
O194 C189 1.254 . S
O195 Dy180 2.310 1_545 S
O195 Dy183 2.664 . S
O195 C189 1.268 . S
O196 Dy180 2.351 . S
O196 C199 1.249 . S
O197 Dy183 2.326 1_565 S
O197 C199 1.267 . S
C198 O190 1.249 . S
C198 O191 1.267 . S
C199 O196 1.249 . S
C199 O197 1.267 . S
Dy200 O204 2.398 . S
Dy200 O205 2.491 . S
Dy200 O206 2.403 . S
Dy200 O207 2.664 . S
Dy200 O211 2.326 . S
Dy200 O215 2.310 . S
Dy200 O216 2.351 . S
C201 O212 1.185 . S
C201 O213 1.355 . S
C202 O204 1.185 . S
C202 O205 1.355 . S
Dy203 O207 2.310 . S
Dy203 O210 2.351 . S
Dy203 O212 2.398 . S
Dy203 O213 2.491 . S
Dy203 O214 2.403 . S
Dy203 O215 2.664 . S
Dy203 O217 2.326 . S
O204 Dy200 2.398 . S
O204 C202 1.185 . S
O205 Dy200 2.491 . S
O205 C202 1.355 . S
O206 Dy200 2.403 . S
O206 C208 1.254 . S
O207 Dy200 2.664 . S
O207 Dy203 2.310 . S
O207 C208 1.268 . S
C208 O206 1.254 . S
C208 O207 1.268 . S
C209 O214 1.254 . S
C209 O215 1.268 . S
O210 Dy203 2.351 . S
O210 C218 1.249 . S
O211 Dy200 2.326 . S
O211 C218 1.267 . S
O212 C201 1.185 . S
O212 Dy203 2.398 . S
O213 C201 1.355 . S
O213 Dy203 2.491 . S
O214 Dy203 2.403 . S
O214 C209 1.254 . S
O215 Dy200 2.310 . S
O215 Dy203 2.664 . S
O215 C209 1.268 . S
O216 Dy200 2.351 . S
O216 C219 1.249 . S
O217 Dy203 2.326 . S
O217 C219 1.267 . S
C218 O210 1.249 . S
C218 O211 1.267 . S
C219 O216 1.249 . S
C219 O217 1.267 . S
Dy220 O224 2.398 . S
Dy220 O225 2.491 1_455 S
Dy220 O226 2.403 . S
Dy220 O227 2.664 . S
Dy220 O231 2.326 1_455 S
Dy220 O235 2.310 1_455 S
Dy220 O236 2.351 . S
C221 O232 1.185 . S
C221 O233 1.355 1_655 S
C222 O224 1.185 . S
C222 O225 1.355 1_455 S
Dy223 O227 2.310 1_655 S
Dy223 O230 2.351 . S
Dy223 O232 2.398 . S
Dy223 O233 2.491 1_655 S
Dy223 O234 2.403 . S
Dy223 O235 2.664 . S
Dy223 O237 2.326 1_655 S
O224 Dy220 2.398 . S
O224 C222 1.185 . S
O225 Dy220 2.491 1_655 S
O225 C222 1.355 1_655 S
O226 Dy220 2.403 . S
O226 C228 1.254 . S
O227 Dy220 2.664 . S
O227 Dy223 2.310 1_455 S
O227 C228 1.268 . S
C228 O226 1.254 . S
C228 O227 1.268 . S
C229 O234 1.254 . S
C229 O235 1.268 . S
O230 Dy223 2.351 . S
O230 C238 1.249 . S
O231 Dy220 2.326 1_655 S
O231 C238 1.267 . S
O232 C221 1.185 . S
O232 Dy223 2.398 . S
O233 C221 1.355 1_455 S
O233 Dy223 2.491 1_455 S
O234 Dy223 2.403 . S
O234 C229 1.254 . S
O235 Dy220 2.310 1_655 S
O235 Dy223 2.664 . S
O235 C229 1.268 . S
O236 Dy220 2.351 . S
O236 C239 1.249 . S
O237 Dy223 2.326 1_455 S
O237 C239 1.267 . S
C238 O230 1.249 . S
C238 O231 1.267 . S
C239 O236 1.249 . S
C239 O237 1.267 . S
Dy240 O244 2.398 . S
Dy240 O245 2.491 . S
Dy240 O246 2.403 . S
Dy240 O247 2.664 . S
Dy240 O251 2.326 . S
Dy240 O255 2.310 . S
Dy240 O256 2.351 . S
C241 O252 1.185 . S
C241 O253 1.355 . S
C242 O244 1.185 . S
C242 O245 1.355 . S
Dy243 O247 2.310 . S
Dy243 O250 2.351 . S
Dy243 O252 2.398 . S
Dy243 O253 2.491 . S
Dy243 O254 2.403 . S
Dy243 O255 2.664 . S
Dy243 O257 2.326 . S
O244 Dy240 2.398 . S
O244 C242 1.185 . S
O245 Dy240 2.491 . S
O245 C242 1.355 . S
O246 Dy240 2.403 . S
O246 C248 1.254 . S
O247 Dy240 2.664 . S
O247 Dy243 2.310 . S
O247 C248 1.268 . S
C248 O246 1.254 . S
C248 O247 1.268 . S
C249 O254 1.254 . S
C249 O255 1.268 . S
O250 Dy243 2.351 . S
O250 C258 1.249 . S
O251 Dy240 2.326 . S
O251 C258 1.267 . S
O252 C241 1.185 . S
O252 Dy243 2.398 . S
O253 C241 1.355 . S
O253 Dy243 2.491 . S
O254 Dy243 2.403 . S
O254 C249 1.254 . S
O255 Dy240 2.310 . S
O255 Dy243 2.664 . S
O255 C249 1.268 . S
O256 Dy240 2.351 . S
O256 C259 1.249 . S
O257 Dy243 2.326 . S
O257 C259 1.267 . S
C258 O250 1.249 . S
C258 O251 1.267 . S
C259 O256 1.249 . S
C259 O257 1.267 . S
Dy260 O264 2.398 . S
Dy260 O265 2.491 1_556 S
Dy260 O266 2.403 . S
Dy260 O267 2.664 . S
Dy260 O271 2.326 1_556 S
Dy260 O275 2.310 1_556 S
Dy260 O276 2.351 . S
C261 O272 1.185 . S
C261 O273 1.355 1_554 S
C262 O264 1.185 . S
C262 O265 1.355 1_556 S
Dy263 O267 2.310 1_554 S
Dy263 O270 2.351 . S
Dy263 O272 2.398 . S
Dy263 O273 2.491 1_554 S
Dy263 O274 2.403 . S
Dy263 O275 2.664 . S
Dy263 O277 2.326 1_554 S
O264 Dy260 2.398 . S
O264 C262 1.185 . S
O265 Dy260 2.491 1_554 S
O265 C262 1.355 1_554 S
O266 Dy260 2.403 . S
O266 C268 1.254 . S
O267 Dy260 2.664 . S
O267 Dy263 2.310 1_556 S
O267 C268 1.268 . S
C268 O266 1.254 . S
C268 O267 1.268 . S
C269 O274 1.254 . S
C269 O275 1.268 . S
O270 Dy263 2.351 . S
O270 C278 1.249 . S
O271 Dy260 2.326 1_554 S
O271 C278 1.267 . S
O272 C261 1.185 . S
O272 Dy263 2.398 . S
O273 C261 1.355 1_556 S
O273 Dy263 2.491 1_556 S
O274 Dy263 2.403 . S
O274 C269 1.254 . S
O275 Dy260 2.310 1_554 S
O275 Dy263 2.664 . S
O275 C269 1.268 . S
O276 Dy260 2.351 . S
O276 C279 1.249 . S
O277 Dy263 2.326 1_556 S
O277 C279 1.267 . S
C278 O270 1.249 . S
C278 O271 1.267 . S
C279 O276 1.249 . S
C279 O277 1.267 . S
Dy280 O284 2.398 . S
Dy280 O285 2.491 . S
Dy280 O286 2.403 . S
Dy280 O287 2.664 . S
Dy280 O291 2.326 . S
Dy280 O295 2.310 1_565 S
Dy280 O296 2.351 1_565 S
C281 O292 1.185 . S
C281 O293 1.355 . S
C282 O284 1.185 . S
C282 O285 1.355 . S
Dy283 O287 2.310 1_545 S
Dy283 O290 2.351 1_545 S
Dy283 O292 2.398 . S
Dy283 O293 2.491 . S
Dy283 O294 2.403 . S
Dy283 O295 2.664 . S
Dy283 O297 2.326 . S
O284 Dy280 2.398 . S
O284 C282 1.185 . S
O285 Dy280 2.491 . S
O285 C282 1.355 . S
O286 Dy280 2.403 . S
O286 C288 1.254 . S
O287 Dy280 2.664 . S
O287 Dy283 2.310 1_565 S
O287 C288 1.268 . S
C288 O286 1.254 . S
C288 O287 1.268 . S
C289 O294 1.254 . S
C289 O295 1.268 . S
O290 Dy283 2.351 1_565 S
O290 C298 1.249 . S
O291 Dy280 2.326 . S
O291 C298 1.267 . S
O292 C281 1.185 . S
O292 Dy283 2.398 . S
O293 C281 1.355 . S
O293 Dy283 2.491 . S
O294 Dy283 2.403 . S
O294 C289 1.254 . S
O295 Dy280 2.310 1_545 S
O295 Dy283 2.664 . S
O295 C289 1.268 . S
O296 Dy280 2.351 1_545 S
O296 C299 1.249 . S
O297 Dy283 2.326 . S
O297 C299 1.267 . S
C298 O290 1.249 . S
C298 O291 1.267 . S
C299 O296 1.249 . S
C299 O297 1.267 . S
Dy300 O304 2.398 . S
Dy300 O305 2.491 . S
Dy300 O306 2.403 . S
Dy300 O307 2.664 . S
Dy300 O311 2.326 1_554 S
Dy300 O315 2.310 1_554 S
Dy300 O316 2.351 . S
C301 O312 1.185 . S
C301 O313 1.355 . S
C302 O304 1.185 . S
C302 O305 1.355 . S
Dy303 O307 2.310 1_556 S
Dy303 O310 2.351 . S
Dy303 O312 2.398 . S
Dy303 O313 2.491 . S
Dy303 O314 2.403 . S
Dy303 O315 2.664 . S
Dy303 O317 2.326 1_556 S
O304 Dy300 2.398 . S
O304 C302 1.185 . S
O305 Dy300 2.491 . S
O305 C302 1.355 . S
O306 Dy300 2.403 . S
O306 C308 1.254 . S
O307 Dy300 2.664 . S
O307 Dy303 2.310 1_554 S
O307 C308 1.268 . S
C308 O306 1.254 . S
C308 O307 1.268 . S
C309 O314 1.254 . S
C309 O315 1.268 . S
O310 Dy303 2.351 . S
O310 C318 1.249 . S
O311 Dy300 2.326 1_556 S
O311 C318 1.267 . S
O312 C301 1.185 . S
O312 Dy303 2.398 . S
O313 C301 1.355 . S
O313 Dy303 2.491 . S
O314 Dy303 2.403 . S
O314 C309 1.254 . S
O315 Dy300 2.310 1_556 S
O315 Dy303 2.664 . S
O315 C309 1.268 . S
O316 Dy300 2.351 . S
O316 C319 1.249 . S
O317 Dy303 2.326 1_554 S
O317 C319 1.267 . S
C318 O310 1.249 . S
C318 O311 1.267 . S
C319 O316 1.249 . S
C319 O317 1.267 . S
C19 C21 1.183 . S
C59 C38 1.639 . S
C78 C49 2.228 . S
C9 C61 1.899 . S
C8 C182 1.899 . S
C158 C22 1.183 . S
C58 C219 1.639 . S
C79 C268 2.228 . S
C178 C39 1.639 . S
C259 C48 2.228 . S
C288 C62 1.899 . S
C18 C222 1.183 . S
C1 C162 0.534 . S
C249 C88 1.486 . S
C101 C282 0.533 . S
C228 C129 1.486 . S
C41 C142 0.533 . S
C188 C89 1.486 . S
C128 C209 1.486 . S
C118 C239 1.638 . S
C199 C108 2.228 . S
C221 C159 1.183 . S
C119 C98 1.639 . S
C198 C169 2.228 . S
C279 C238 1.639 . S
C138 C109 2.228 . S
C181 C289 1.899 . S
C261 C2 0.533 . S
C42 C281 0.533 . S
C248 C29 1.486 . S
C141 C102 0.533 . S
C69 C208 1.486 . S
C258 C269 2.228 . S
C149 C241 1.899 . S
C122 C148 1.899 . S
C99 C278 1.639 . S
C242 C308 1.899 . S
C302 C161 0.533 . S
C28 C189 1.486 . S
C168 C139 2.228 . S
C179 C218 1.639 . S
C309 C121 1.899 . S
C262 C301 0.534 . S
C229 C68 1.486 . S
C201 C299 1.184 . S
C202 C318 1.184 . S
C82 C298 1.183 . S
C319 C81 1.183 . S
