# Generated by pormake.
# Topology vbb, (4)-cn, num edge types: 1
# Building blocks:
#     Node 0, Type 0, BuildingBlock: KOZSID_clean_sbu_0, # of connection points: 4
#     Node 1, Type 0, BuildingBlock: KOZSID_clean_sbu_0, # of connection points: 4
#     Node 2, Type 0, BuildingBlock: KOZSID_clean_sbu_0, # of connection points: 4
#     Node 3, Type 0, BuildingBlock: KOZSID_clean_sbu_0, # of connection points: 4
#     Node 4, Type 0, BuildingBlock: KOZSID_clean_sbu_0, # of connection points: 4
#     Node 5, Type 0, BuildingBlock: KOZSID_clean_sbu_0, # of connection points: 4
#     Node 6, Type 0, BuildingBlock: KOZSID_clean_sbu_0, # of connection points: 4
#     Node 7, Type 0, BuildingBlock: KOZSID_clean_sbu_0, # of connection points: 4
#     Node 8, Type 0, BuildingBlock: KOZSID_clean_sbu_0, # of connection points: 4
#     Node 9, Type 0, BuildingBlock: KOZSID_clean_sbu_0, # of connection points: 4
#     Node 10, Type 0, BuildingBlock: KOZSID_clean_sbu_0, # of connection points: 4
#     Node 11, Type 0, BuildingBlock: KOZSID_clean_sbu_0, # of connection points: 4
#     Node 12, Type 0, BuildingBlock: KOZSID_clean_sbu_0, # of connection points: 4
#     Node 13, Type 0, BuildingBlock: KOZSID_clean_sbu_0, # of connection points: 4
#     Node 14, Type 0, BuildingBlock: KOZSID_clean_sbu_0, # of connection points: 4
#     Node 15, Type 0, BuildingBlock: KOZSID_clean_sbu_0, # of connection points: 4
#     Node 16, Type 0, BuildingBlock: KOZSID_clean_sbu_0, # of connection points: 4
#     Node 17, Type 0, BuildingBlock: KOZSID_clean_sbu_0, # of connection points: 4
#     Node 18, Type 0, BuildingBlock: KOZSID_clean_sbu_0, # of connection points: 4
#     Node 19, Type 0, BuildingBlock: KOZSID_clean_sbu_0, # of connection points: 4
#     Node 20, Type 0, BuildingBlock: KOZSID_clean_sbu_0, # of connection points: 4
#     Node 21, Type 0, BuildingBlock: KOZSID_clean_sbu_0, # of connection points: 4
#     Node 22, Type 0, BuildingBlock: KOZSID_clean_sbu_0, # of connection points: 4
#     Node 23, Type 0, BuildingBlock: KOZSID_clean_sbu_0, # of connection points: 4
#     Node 24, Type 0, BuildingBlock: KOZSID_clean_sbu_0, # of connection points: 4
#     Node 25, Type 0, BuildingBlock: KOZSID_clean_sbu_0, # of connection points: 4
#     Node 26, Type 0, BuildingBlock: KOZSID_clean_sbu_0, # of connection points: 4
#     Node 27, Type 0, BuildingBlock: KOZSID_clean_sbu_0, # of connection points: 4
#     Node 28, Type 0, BuildingBlock: KOZSID_clean_sbu_0, # of connection points: 4
#     Node 29, Type 0, BuildingBlock: KOZSID_clean_sbu_0, # of connection points: 4
#     Node 30, Type 0, BuildingBlock: KOZSID_clean_sbu_0, # of connection points: 4
#     Node 31, Type 0, BuildingBlock: KOZSID_clean_sbu_0, # of connection points: 4
#     Edge 32, Type (0, 0), BuildingBlock: XUDNAN_clean_linker_2, # of connection points: 2
#     Edge 33, Type (0, 0), BuildingBlock: XUDNAN_clean_linker_2, # of connection points: 2
#     Edge 34, Type (0, 0), BuildingBlock: XUDNAN_clean_linker_2, # of connection points: 2
#     Edge 35, Type (0, 0), BuildingBlock: XUDNAN_clean_linker_2, # of connection points: 2
#     Edge 36, Type (0, 0), BuildingBlock: XUDNAN_clean_linker_2, # of connection points: 2
#     Edge 37, Type (0, 0), BuildingBlock: XUDNAN_clean_linker_2, # of connection points: 2
#     Edge 38, Type (0, 0), BuildingBlock: XUDNAN_clean_linker_2, # of connection points: 2
#     Edge 39, Type (0, 0), BuildingBlock: XUDNAN_clean_linker_2, # of connection points: 2
#     Edge 40, Type (0, 0), BuildingBlock: XUDNAN_clean_linker_2, # of connection points: 2
#     Edge 41, Type (0, 0), BuildingBlock: XUDNAN_clean_linker_2, # of connection points: 2
#     Edge 42, Type (0, 0), BuildingBlock: XUDNAN_clean_linker_2, # of connection points: 2
#     Edge 43, Type (0, 0), BuildingBlock: XUDNAN_clean_linker_2, # of connection points: 2
#     Edge 44, Type (0, 0), BuildingBlock: XUDNAN_clean_linker_2, # of connection points: 2
#     Edge 45, Type (0, 0), BuildingBlock: XUDNAN_clean_linker_2, # of connection points: 2
#     Edge 46, Type (0, 0), BuildingBlock: XUDNAN_clean_linker_2, # of connection points: 2
#     Edge 47, Type (0, 0), BuildingBlock: XUDNAN_clean_linker_2, # of connection points: 2
#     Edge 48, Type (0, 0), BuildingBlock: XUDNAN_clean_linker_2, # of connection points: 2
#     Edge 49, Type (0, 0), BuildingBlock: XUDNAN_clean_linker_2, # of connection points: 2
#     Edge 50, Type (0, 0), BuildingBlock: XUDNAN_clean_linker_2, # of connection points: 2
#     Edge 51, Type (0, 0), BuildingBlock: XUDNAN_clean_linker_2, # of connection points: 2
#     Edge 52, Type (0, 0), BuildingBlock: XUDNAN_clean_linker_2, # of connection points: 2
#     Edge 53, Type (0, 0), BuildingBlock: XUDNAN_clean_linker_2, # of connection points: 2
#     Edge 54, Type (0, 0), BuildingBlock: XUDNAN_clean_linker_2, # of connection points: 2
#     Edge 55, Type (0, 0), BuildingBlock: XUDNAN_clean_linker_2, # of connection points: 2
#     Edge 56, Type (0, 0), BuildingBlock: XUDNAN_clean_linker_2, # of connection points: 2
#     Edge 57, Type (0, 0), BuildingBlock: XUDNAN_clean_linker_2, # of connection points: 2
#     Edge 58, Type (0, 0), BuildingBlock: XUDNAN_clean_linker_2, # of connection points: 2
#     Edge 59, Type (0, 0), BuildingBlock: XUDNAN_clean_linker_2, # of connection points: 2
#     Edge 60, Type (0, 0), BuildingBlock: XUDNAN_clean_linker_2, # of connection points: 2
#     Edge 61, Type (0, 0), BuildingBlock: XUDNAN_clean_linker_2, # of connection points: 2
#     Edge 62, Type (0, 0), BuildingBlock: XUDNAN_clean_linker_2, # of connection points: 2
#     Edge 63, Type (0, 0), BuildingBlock: XUDNAN_clean_linker_2, # of connection points: 2
#     Edge 64, Type (0, 0), BuildingBlock: XUDNAN_clean_linker_2, # of connection points: 2
#     Edge 65, Type (0, 0), BuildingBlock: XUDNAN_clean_linker_2, # of connection points: 2
#     Edge 66, Type (0, 0), BuildingBlock: XUDNAN_clean_linker_2, # of connection points: 2
#     Edge 67, Type (0, 0), BuildingBlock: XUDNAN_clean_linker_2, # of connection points: 2
#     Edge 68, Type (0, 0), BuildingBlock: XUDNAN_clean_linker_2, # of connection points: 2
#     Edge 69, Type (0, 0), BuildingBlock: XUDNAN_clean_linker_2, # of connection points: 2
#     Edge 70, Type (0, 0), BuildingBlock: XUDNAN_clean_linker_2, # of connection points: 2
#     Edge 71, Type (0, 0), BuildingBlock: XUDNAN_clean_linker_2, # of connection points: 2
#     Edge 72, Type (0, 0), BuildingBlock: XUDNAN_clean_linker_2, # of connection points: 2
#     Edge 73, Type (0, 0), BuildingBlock: XUDNAN_clean_linker_2, # of connection points: 2
#     Edge 74, Type (0, 0), BuildingBlock: XUDNAN_clean_linker_2, # of connection points: 2
#     Edge 75, Type (0, 0), BuildingBlock: XUDNAN_clean_linker_2, # of connection points: 2
#     Edge 76, Type (0, 0), BuildingBlock: XUDNAN_clean_linker_2, # of connection points: 2
#     Edge 77, Type (0, 0), BuildingBlock: XUDNAN_clean_linker_2, # of connection points: 2
#     Edge 78, Type (0, 0), BuildingBlock: XUDNAN_clean_linker_2, # of connection points: 2
#     Edge 79, Type (0, 0), BuildingBlock: XUDNAN_clean_linker_2, # of connection points: 2
#     Edge 80, Type (0, 0), BuildingBlock: XUDNAN_clean_linker_2, # of connection points: 2
#     Edge 81, Type (0, 0), BuildingBlock: XUDNAN_clean_linker_2, # of connection points: 2
#     Edge 82, Type (0, 0), BuildingBlock: XUDNAN_clean_linker_2, # of connection points: 2
#     Edge 83, Type (0, 0), BuildingBlock: XUDNAN_clean_linker_2, # of connection points: 2
#     Edge 84, Type (0, 0), BuildingBlock: XUDNAN_clean_linker_2, # of connection points: 2
#     Edge 85, Type (0, 0), BuildingBlock: XUDNAN_clean_linker_2, # of connection points: 2
#     Edge 86, Type (0, 0), BuildingBlock: XUDNAN_clean_linker_2, # of connection points: 2
#     Edge 87, Type (0, 0), BuildingBlock: XUDNAN_clean_linker_2, # of connection points: 2
#     Edge 88, Type (0, 0), BuildingBlock: XUDNAN_clean_linker_2, # of connection points: 2
#     Edge 89, Type (0, 0), BuildingBlock: XUDNAN_clean_linker_2, # of connection points: 2
#     Edge 90, Type (0, 0), BuildingBlock: XUDNAN_clean_linker_2, # of connection points: 2
#     Edge 91, Type (0, 0), BuildingBlock: XUDNAN_clean_linker_2, # of connection points: 2
#     Edge 92, Type (0, 0), BuildingBlock: XUDNAN_clean_linker_2, # of connection points: 2
#     Edge 93, Type (0, 0), BuildingBlock: XUDNAN_clean_linker_2, # of connection points: 2
#     Edge 94, Type (0, 0), BuildingBlock: XUDNAN_clean_linker_2, # of connection points: 2
#     Edge 95, Type (0, 0), BuildingBlock: XUDNAN_clean_linker_2, # of connection points: 2
# Relax obj value: 0.043
# Max RMSD: 0.155
# Mean RMSD: 0.153
data_MOF--net-vbb--node1-KOZSID_clean_sbu_0--edge1-XUDNAN_clean_linker_2
_symmetry_space_group_name_H-M    P1
_symmetry_Int_Tables_number       1
_symmetry_cell_setting            triclinic
loop_
_symmetry_equiv_pos_as_xyz
'x, y, z'
_cell_length_a     65.396624
_cell_length_b     41.443417
_cell_length_c     124.33806
_cell_angle_alpha  89.733378
_cell_angle_beta   90.04288
_cell_angle_gamma 90.031167
loop_
_atom_site_label
_atom_site_type_symbol
_atom_site_fract_x
_atom_site_fract_y
_atom_site_fract_z
_atom_type_partial_charge
C0 C 0.49649 0.08073 0.08717 0.0
C1 C 0.48447 0.1077 0.08923 0.0
C2 C 0.47353 0.11389 0.08008 0.0
C3 C 0.47967 0.09091 0.07289 0.0
N4 N 0.49393 0.07072 0.07691 0.0
Co5 Co 0.50818 0.03611 0.0689 0.0
N6 N 0.50018 0.0553 0.05486 0.0
C7 C 0.48496 0.07663 0.05322 0.0
C8 C 0.48258 0.08515 0.04263 0.0
C9 C 0.49711 0.06791 0.03723 0.0
C10 C 0.50759 0.04977 0.04489 0.0
N11 N 0.52218 1.00137 0.0608 0.0
C12 C 0.52745 0.99999 0.05026 0.0
C13 C 0.5365 0.97061 0.04788 0.0
C14 C 0.53666 0.95299 0.05728 0.0
C15 C 0.52775 0.97252 0.06485 0.0
N16 N 0.51614 0.01745 0.08303 0.0
C17 C 0.52248 0.98697 0.08472 0.0
C18 C 0.52668 0.98076 0.09537 0.0
C19 C 0.52261 0.00906 0.10067 0.0
C20 C 0.51617 0.0311 0.09295 0.0
N21 N 0.48287 0.00939 0.06894 0.0
C22 C 0.45149 0.96188 0.0692 0.0
C23 C 0.45659 0.97928 0.07852 0.0
C24 C 0.47222 1.00294 0.07822 0.0
C25 C 0.46155 0.97075 0.05965 0.0
C26 C 0.47701 0.99416 0.05969 0.0
N27 N 0.53381 0.06163 0.06883 0.0
C28 C 0.57065 0.0635 0.07094 0.0
C29 C 0.57099 0.09683 0.06902 0.0
C30 C 0.55215 0.11207 0.0669 0.0
C31 C 0.53385 0.09408 0.06674 0.0
C32 C 0.55205 0.04656 0.07091 0.0
H33 H 0.51971 0.10646 0.06498 0.0
H34 H 0.55252 0.02112 0.07268 0.0
H35 H 0.47621 0.01507 0.08559 0.0
H36 H 0.48482 0.99882 0.05222 0.0
C37 C 0.47555 0.09177 0.06189 0.0
C38 C 0.50865 0.06376 0.09541 0.0
C39 C 0.52286 0.02519 0.04224 0.0
C40 C 0.52708 0.96684 0.07599 0.0
H41 H 0.48361 0.12157 0.09656 0.0
H42 H 0.46318 0.13384 0.07867 0.0
H43 H 0.47197 0.10252 0.03926 0.0
H44 H 0.49945 0.06825 0.02861 0.0
H45 H 0.54221 0.96269 0.04017 0.0
H46 H 0.54309 0.92919 0.0585 0.0
H47 H 0.53259 0.95864 0.09882 0.0
H48 H 0.52406 0.013 0.10924 0.0
H49 H 0.44926 0.9737 0.08611 0.0
H50 H 0.4579 0.95901 0.05212 0.0
H51 H 0.58463 0.05061 0.07277 0.0
H52 H 0.55155 0.13777 0.06531 0.0
C53 C 0.78818 0.1753 0.08767 0.0
C54 C 0.79538 0.14442 0.08992 0.0
C55 C 0.80324 0.13265 0.08058 0.0
C56 C 0.80029 0.15668 0.07315 0.0
N57 N 0.79102 0.1831 0.07716 0.0
Co58 Co 0.78312 0.22261 0.06885 0.0
N59 N 0.78801 0.20081 0.05485 0.0
C60 C 0.79483 0.17046 0.05345 0.0
C61 C 0.7911 0.15859 0.04338 0.0
C62 C 0.78175 0.18323 0.03797 0.0
C63 C 0.78116 0.20933 0.04495 0.0
N64 N 0.77604 0.26241 0.06033 0.0
C65 C 0.77592 0.2679 0.04946 0.0
C66 C 0.77408 0.30064 0.04725 0.0
C67 C 0.77291 0.31608 0.05694 0.0
C68 C 0.77438 0.29219 0.06456 0.0
N69 N 0.77739 0.24358 0.08297 0.0
C70 C 0.77467 0.27539 0.0845 0.0
C71 C 0.77131 0.28321 0.09507 0.0
C72 C 0.77208 0.2545 0.1006 0.0
C73 C 0.77589 0.23069 0.09306 0.0
N74 N 0.81187 0.23886 0.06951 0.0
C75 C 0.84545 0.28178 0.07215 0.0
C76 C 0.83775 0.26339 0.08079 0.0
C77 C 0.82132 0.24193 0.07929 0.0
C78 C 0.83745 0.27499 0.06191 0.0
C79 C 0.8209 0.25331 0.06076 0.0
N80 N 0.75415 0.2079 0.06841 0.0
C81 C 0.71819 0.22116 0.06984 0.0
C82 C 0.71236 0.18853 0.06928 0.0
C83 C 0.72819 0.1659 0.06791 0.0
C84 C 0.74881 0.17602 0.06743 0.0
C85 C 0.73885 0.23014 0.06953 0.0
H86 H 0.76036 0.15779 0.06647 0.0
H87 H 0.74234 0.25534 0.07039 0.0
H88 H 0.81542 0.22952 0.08626 0.0
H89 H 0.81466 0.24998 0.05283 0.0
C90 C 0.80154 0.15209 0.06212 0.0
C91 C 0.77991 0.19674 0.09595 0.0
C92 C 0.77936 0.24296 0.04118 0.0
C93 C 0.77405 0.2966 0.07572 0.0
H94 H 0.79481 0.1315 0.0975 0.0
H95 H 0.80918 0.10863 0.07923 0.0
H96 H 0.79428 0.13461 0.0404 0.0
H97 H 0.77726 0.18285 0.02959 0.0
H98 H 0.77433 0.31257 0.03952 0.0
H99 H 0.77162 0.34179 0.05826 0.0
H100 H 0.76848 0.30691 0.09837 0.0
H101 H 0.77044 0.25145 0.1092 0.0
H102 H 0.84385 0.26646 0.08882 0.0
H103 H 0.84302 0.2878 0.05489 0.0
H104 H 0.7069 0.24009 0.07054 0.0
H105 H 0.72485 0.14037 0.06747 0.0
C106 C 0.49998 0.1655 0.17366 0.0
C107 C 0.49072 0.13529 0.1733 0.0
C108 C 0.48055 0.13127 0.18279 0.0
C109 C 0.48455 0.15867 0.18853 0.0
N110 N 0.49681 0.17969 0.18332 0.0
Co111 Co 0.50882 0.21981 0.1894 0.0
N112 N 0.50129 0.20678 0.20432 0.0
C113 C 0.48752 0.18394 0.20702 0.0
C114 C 0.48478 0.1806 0.21788 0.0
C115 C 0.49746 0.20292 0.22237 0.0
C116 C 0.50734 0.21872 0.21393 0.0
N117 N 0.52114 0.25955 0.19557 0.0
C118 C 0.5256 0.26709 0.20595 0.0
C119 C 0.5337 0.29796 0.20664 0.0
C120 C 0.53397 0.3103 0.19638 0.0
C121 C 0.52611 0.28633 0.19 0.0
N122 N 0.51575 0.23271 0.17438 0.0
C123 C 0.52072 0.26277 0.17116 0.0
C124 C 0.52397 0.26504 0.16027 0.0
C125 C 0.52069 0.23456 0.15637 0.0
C126 C 0.51568 0.21525 0.16513 0.0
N127 N 0.48222 0.24286 0.18796 0.0
C128 C 0.44798 0.28433 0.18445 0.0
C129 C 0.45354 0.26019 0.177 0.0
C130 C 0.47062 0.24013 0.17885 0.0
C131 C 0.4595 0.28545 0.194 0.0
C132 C 0.47614 0.26444 0.19565 0.0
N133 N 0.53571 0.19797 0.19081 0.0
C134 C 0.5723 0.19829 0.18763 0.0
C135 C 0.57483 0.16959 0.19345 0.0
C136 C 0.55722 0.15513 0.19782 0.0
C137 C 0.53784 0.16936 0.19627 0.0
C138 C 0.55283 0.21222 0.18655 0.0
H139 H 0.52463 0.15741 0.19962 0.0
H140 H 0.55182 0.23497 0.18239 0.0
H141 H 0.47474 0.22297 0.17272 0.0
H142 H 0.48454 0.26669 0.20306 0.0
C143 C 0.48003 0.1627 0.19935 0.0
C144 C 0.5094 0.18123 0.16424 0.0
C145 C 0.52052 0.24703 0.2154 0.0
C146 C 0.52498 0.28677 0.17874 0.0
H147 H 0.49101 0.11801 0.16681 0.0
H148 H 0.47202 0.11023 0.18538 0.0
H149 H 0.47516 0.16335 0.22205 0.0
H150 H 0.49886 0.20732 0.2309 0.0
H151 H 0.53851 0.31048 0.21383 0.0
H152 H 0.53949 0.33377 0.19386 0.0
H153 H 0.52871 0.28611 0.15574 0.0
H154 H 0.52169 0.22743 0.14803 0.0
H155 H 0.44498 0.25675 0.16965 0.0
H156 H 0.45632 0.30317 0.20013 0.0
H157 H 0.58543 0.21061 0.18424 0.0
H158 H 0.55841 0.13291 0.20239 0.0
C159 C 0.79369 0.08902 0.17399 0.0
C160 C 0.8042 0.11821 0.17374 0.0
C161 C 0.81438 0.12072 0.18329 0.0
C162 C 0.8092 0.0935 0.18895 0.0
N163 N 0.79622 0.07401 0.18363 0.0
Co164 Co 0.78292 0.03451 0.18955 0.0
N165 N 0.79041 0.04618 0.20456 0.0
C166 C 0.80491 0.06764 0.20739 0.0
C167 C 0.80761 0.07008 0.21828 0.0
C168 C 0.7941 0.04861 0.22264 0.0
C169 C 0.78377 0.03425 0.21411 0.0
N170 N 0.76933 0.99542 0.19554 0.0
C171 C 0.76423 0.98781 0.20586 0.0
C172 C 0.75518 0.95755 0.20637 0.0
C173 C 0.755 0.94567 0.19608 0.0
C174 C 0.76383 0.96929 0.18984 0.0
N175 N 0.77602 0.02302 0.17443 0.0
C176 C 0.77041 0.99348 0.17108 0.0
C177 C 0.76711 0.9922 0.16018 0.0
C178 C 0.77103 0.02279 0.15642 0.0
C179 C 0.77644 0.0412 0.16527 0.0
N180 N 0.80888 0.00957 0.18827 0.0
C181 C 0.84212 0.96581 0.18503 0.0
C182 C 0.83748 0.99072 0.17759 0.0
C183 C 0.82087 0.01185 0.17928 0.0
C184 C 0.83017 0.96508 0.19445 0.0
C185 C 0.81408 0.98719 0.19596 0.0
N186 N 0.75661 0.05806 0.19081 0.0
C187 C 0.72008 0.05981 0.18746 0.0
C188 C 0.71803 0.08815 0.19344 0.0
C189 C 0.73588 0.10144 0.19794 0.0
C190 C 0.755 0.08636 0.19639 0.0
C191 C 0.73927 0.04503 0.18639 0.0
H192 H 0.76841 0.09734 0.19987 0.0
H193 H 0.73985 0.02253 0.18213 0.0
H194 H 0.81742 0.02953 0.17315 0.0
H195 H 0.80537 0.98519 0.20328 0.0
C196 C 0.81332 0.08851 0.19981 0.0
C197 C 0.78331 0.07507 0.16455 0.0
C198 C 0.76947 0.00718 0.21542 0.0
C199 C 0.76531 0.96939 0.17858 0.0
H200 H 0.80462 0.13591 0.16733 0.0
H201 H 0.82366 0.14077 0.18598 0.0
H202 H 0.81779 0.08616 0.22255 0.0
H203 H 0.79245 0.04378 0.23115 0.0
H204 H 0.74965 0.94511 0.21347 0.0
H205 H 0.74886 0.92277 0.19345 0.0
H206 H 0.76184 0.97177 0.15554 0.0
H207 H 0.77011 0.03062 0.14812 0.0
H208 H 0.84638 0.99403 0.17035 0.0
H209 H 0.83259 0.94692 0.20058 0.0
H210 H 0.70677 0.04835 0.18397 0.0
H211 H 0.73507 0.12337 0.20262 0.0
C212 C 0.51905 0.97291 0.91357 0.0
C213 C 0.51276 0.99296 0.90523 0.0
C214 C 0.51103 0.0234 0.90946 0.0
C215 C 0.51643 0.02033 0.9201 0.0
N216 N 0.52141 0.98988 0.9228 0.0
Co217 Co 0.5302 0.97504 0.93728 0.0
N218 N 0.51882 0.01393 0.9444 0.0
C219 C 0.51366 0.04163 0.93938 0.0
C220 C 0.50667 0.06477 0.94633 0.0
C221 C 0.50778 0.05093 0.95637 0.0
C222 C 0.51552 0.02004 0.95499 0.0
N223 N 0.53927 0.95981 0.9517 0.0
C224 C 0.53423 0.97027 0.96165 0.0
C225 C 0.545 0.9533 0.96951 0.0
C226 C 0.55729 0.93187 0.96428 0.0
C227 C 0.55343 0.93685 0.95358 0.0
N228 N 0.54158 0.93609 0.93017 0.0
C229 C 0.55522 0.9154 0.93446 0.0
C230 C 0.55899 0.88925 0.92806 0.0
C231 C 0.54707 0.89376 0.91915 0.0
C232 C 0.53695 0.92298 0.92049 0.0
N233 N 0.55663 0.99816 0.93541 0.0
C234 C 0.59135 0.03845 0.9318 0.0
C235 C 0.58082 0.03839 0.94166 0.0
C236 C 0.5639 0.01799 0.94334 0.0
C237 C 0.58442 0.01625 0.924 0.0
C238 C 0.5671 0.99679 0.9259 0.0
N239 N 0.50354 0.95298 0.93912 0.0
C240 C 0.48322 0.9067 0.94438 0.0
C241 C 0.46487 0.92281 0.94177 0.0
C242 C 0.46658 0.95432 0.93769 0.0
C243 C 0.48585 0.96882 0.93646 0.0
C244 C 0.50227 0.92211 0.94301 0.0
H245 H 0.48633 0.99314 0.93339 0.0
H246 H 0.51598 0.90904 0.94511 0.0
H247 H 0.55633 0.01919 0.95101 0.0
H248 H 0.56192 0.98112 0.91955 0.0
C249 C 0.51348 0.04358 0.92811 0.0
C250 C 0.52394 0.93845 0.91228 0.0
C251 C 0.52154 0.99865 0.96395 0.0
C252 C 0.56069 0.91763 0.94526 0.0
H253 H 0.50977 0.98629 0.89698 0.0
H254 H 0.50565 0.04488 0.90536 0.0
H255 H 0.50111 0.08866 0.94435 0.0
H256 H 0.5038 0.0625 0.96386 0.0
H257 H 0.54455 0.95654 0.97814 0.0
H258 H 0.56753 0.91435 0.96787 0.0
H259 H 0.56827 0.86835 0.92995 0.0
H260 H 0.54587 0.87694 0.91257 0.0
H261 H 0.58503 0.05471 0.94805 0.0
H262 H 0.59212 0.01385 0.91635 0.0
H263 H 0.48296 0.88219 0.94742 0.0
H264 H 0.45307 0.96818 0.93568 0.0
C265 C 0.27055 0.78362 0.91426 0.0
C266 C 0.27937 0.76447 0.90641 0.0
C267 C 0.28133 0.73405 0.91077 0.0
C268 C 0.2739 0.73618 0.92108 0.0
N269 N 0.26741 0.76608 0.92343 0.0
Co270 Co 0.25856 0.78113 0.93787 0.0
N271 N 0.27122 0.74383 0.9454 0.0
C272 C 0.27692 0.71612 0.94065 0.0
C273 C 0.28469 0.69401 0.94782 0.0
C274 C 0.28345 0.70853 0.9577 0.0
C275 C 0.27488 0.73879 0.95604 0.0
N276 N 0.24976 0.79733 0.95216 0.0
C277 C 0.25568 0.78858 0.96222 0.0
C278 C 0.24477 0.80575 0.96991 0.0
C279 C 0.23139 0.82527 0.96448 0.0
C280 C 0.23481 0.81913 0.95382 0.0
N281 N 0.24544 0.81788 0.93038 0.0
C282 C 0.22997 0.83577 0.93423 0.0
C283 C 0.22273 0.85786 0.9269 0.0
C284 C 0.23447 0.85361 0.91789 0.0
C285 C 0.24841 0.82935 0.92031 0.0
N286 N 0.23276 0.75575 0.93668 0.0
C287 C 0.19743 0.7162 0.93519 0.0
C288 C 0.20799 0.71967 0.94491 0.0
C289 C 0.2255 0.73921 0.94547 0.0
C290 C 0.20483 0.73327 0.92621 0.0
C291 C 0.22245 0.7529 0.92712 0.0
N292 N 0.28465 0.8052 0.9391 0.0
C293 C 0.30462 0.85264 0.94359 0.0
C294 C 0.32297 0.83594 0.94166 0.0
C295 C 0.32161 0.80402 0.9382 0.0
C296 C 0.30253 0.78931 0.93691 0.0
C297 C 0.28559 0.83679 0.94228 0.0
H298 H 0.30241 0.76465 0.9343 0.0
H299 H 0.27168 0.84983 0.94401 0.0
H300 H 0.23317 0.74066 0.9531 0.0
H301 H 0.22774 0.76574 0.92007 0.0
C302 C 0.27737 0.7137 0.92937 0.0
C303 C 0.26419 0.81775 0.91288 0.0
C304 C 0.26876 0.76069 0.96483 0.0
C305 C 0.22546 0.83515 0.9452 0.0
H306 H 0.2844 0.77149 0.89847 0.0
H307 H 0.28869 0.71348 0.90709 0.0
H308 H 0.29095 0.67046 0.94606 0.0
H309 H 0.28804 0.69785 0.96529 0.0
H310 H 0.24563 0.80348 0.97857 0.0
H311 H 0.22047 0.84191 0.96791 0.0
H312 H 0.21101 0.8759 0.92811 0.0
H313 H 0.23314 0.8671 0.91045 0.0
H314 H 0.20268 0.70738 0.95209 0.0
H315 H 0.19692 0.7318 0.91858 0.0
H316 H 0.30498 0.87734 0.94639 0.0
H317 H 0.33535 0.79017 0.93666 0.0
C318 C 0.51939 0.77927 0.84289 0.0
C319 C 0.51264 0.75767 0.85067 0.0
C320 C 0.51086 0.72814 0.84572 0.0
C321 C 0.51669 0.73323 0.83523 0.0
N322 N 0.52191 0.76413 0.83333 0.0
Co323 Co 0.53123 0.78185 0.81937 0.0
N324 N 0.51937 0.74542 0.81126 0.0
C325 C 0.51436 0.71643 0.81537 0.0
C326 C 0.50637 0.6961 0.80772 0.0
C327 C 0.50651 0.71351 0.79825 0.0
C328 C 0.51456 0.74356 0.80067 0.0
N329 N 0.54072 0.79983 0.80547 0.0
C330 C 0.53421 0.79341 0.7954 0.0
C331 C 0.54509 0.81134 0.78786 0.0
C332 C 0.55899 0.82937 0.7935 0.0
C333 C 0.5558 0.82154 0.8041 0.0
N334 N 0.54323 0.81844 0.82741 0.0
C335 C 0.55765 0.83888 0.82372 0.0
C336 C 0.56189 0.8633 0.83077 0.0
C337 C 0.54949 0.85777 0.83945 0.0
C338 C 0.53858 0.82966 0.83732 0.0
N339 N 0.55721 0.7574 0.82081 0.0
C340 C 0.59209 0.71705 0.82343 0.0
C341 C 0.58384 0.73474 0.83206 0.0
C342 C 0.56674 0.75483 0.83058 0.0
C343 C 0.58243 0.72079 0.81338 0.0
C344 C 0.56513 0.7408 0.81226 0.0
N345 N 0.50501 0.80516 0.81797 0.0
C346 C 0.48524 0.85251 0.81333 0.0
C347 C 0.46675 0.8363 0.81555 0.0
C348 C 0.46806 0.80425 0.81912 0.0
C349 C 0.48714 0.78924 0.82023 0.0
C350 C 0.50414 0.83662 0.81463 0.0
H351 H 0.48733 0.76441 0.8228 0.0
H352 H 0.51803 0.84966 0.81286 0.0
H353 H 0.56092 0.76773 0.83744 0.0
H354 H 0.55798 0.74241 0.80446 0.0
C355 C 0.51396 0.71171 0.8266 0.0
C356 C 0.52482 0.81324 0.84499 0.0
C357 C 0.5187 0.76921 0.79275 0.0
C358 C 0.56355 0.83843 0.81291 0.0
H359 H 0.50944 0.76269 0.85903 0.0
H360 H 0.50521 0.70597 0.84927 0.0
H361 H 0.50037 0.67202 0.80894 0.0
H362 H 0.50135 0.7051 0.79048 0.0
H363 H 0.54321 0.81144 0.77922 0.0
H364 H 0.56946 0.84719 0.79027 0.0
H365 H 0.57185 0.88383 0.82949 0.0
H366 H 0.54855 0.87321 0.8464 0.0
H367 H 0.59017 0.7327 0.84008 0.0
H368 H 0.58814 0.70847 0.80634 0.0
H369 H 0.48517 0.8774 0.81065 0.0
H370 H 0.45438 0.79038 0.82079 0.0
C371 C 0.27678 0.9863 0.84442 0.0
C372 C 0.28983 0.00477 0.85072 0.0
C373 C 0.29471 0.03168 0.84488 0.0
C374 C 0.28497 0.028 0.83522 0.0
N375 N 0.27394 1.00044 0.83457 0.0
Co376 Co 0.26202 0.98188 0.82104 0.0
N377 N 0.27291 0.01797 0.81186 0.0
C378 C 0.28208 0.04514 0.8154 0.0
C379 C 0.288 0.06555 0.80725 0.0
C380 C 0.28232 0.05042 0.79796 0.0
C381 C 0.27327 0.02152 0.80097 0.0
N382 N 0.25102 0.96197 0.80754 0.0
C383 C 0.25398 0.97015 0.79708 0.0
C384 C 0.24424 0.9488 0.79019 0.0
C385 C 0.23506 0.92606 0.7965 0.0
C386 C 0.23971 0.93477 0.80684 0.0
N387 N 0.25043 0.94638 0.83017 0.0
C388 C 0.23724 0.92332 0.82692 0.0
C389 C 0.2297 0.9047 0.83512 0.0
C390 C 0.23898 0.91609 0.84416 0.0
C391 C 0.25224 0.94049 0.84089 0.0
N392 N 0.23595 0.00766 0.82294 0.0
C393 C 0.19999 0.04682 0.824 0.0
C394 C 0.19912 0.01456 0.8207 0.0
C395 C 0.21707 0.99576 0.82011 0.0
C396 C 0.21911 0.05878 0.82699 0.0
C397 C 0.23654 0.03893 0.8266 0.0
N398 N 0.28806 0.95731 0.81907 0.0
C399 C 0.30741 0.90776 0.81645 0.0
C400 C 0.32584 0.92511 0.8158 0.0
C401 C 0.32492 0.95845 0.81705 0.0
C402 C 0.30624 0.97378 0.81872 0.0
C403 C 0.2887 0.92432 0.81801 0.0
H404 H 0.30696 0.99924 0.81962 0.0
H405 H 0.27485 0.91032 0.81824 0.0
H406 H 0.2152 0.97173 0.81729 0.0
H407 H 0.25029 0.04971 0.82934 0.0
C408 C 0.28772 0.04813 0.82623 0.0
C409 C 0.26736 0.95555 0.84804 0.0
C410 C 0.26599 0.99758 0.79325 0.0
C411 C 0.23343 0.91826 0.81604 0.0
H412 H 0.29594 0.9992 0.85858 0.0
H413 H 0.30508 0.05081 0.8472 0.0
H414 H 0.29632 0.08802 0.80796 0.0
H415 H 0.285 0.05922 0.78987 0.0
H416 H 0.24388 0.94954 0.78148 0.0
H417 H 0.22614 0.90554 0.79388 0.0
H418 H 0.21907 0.88473 0.83457 0.0
H419 H 0.23657 0.90676 0.8522 0.0
H420 H 0.18463 0.00394 0.81839 0.0
H421 H 0.2206 0.08331 0.82986 0.0
H422 H 0.30737 0.88182 0.81547 0.0
H423 H 0.33873 0.9729 0.81667 0.0
C424 C 0.49498 0.5856 0.587 0.0
C425 C 0.48439 0.61442 0.58833 0.0
C426 C 0.47543 0.6215 0.57868 0.0
C427 C 0.48123 0.59705 0.57196 0.0
N428 N 0.49341 0.57505 0.57675 0.0
Co429 Co 0.50631 0.53734 0.5697 0.0
N430 N 0.50169 0.55624 0.55519 0.0
C431 C 0.48842 0.57999 0.55273 0.0
C432 C 0.48812 0.58773 0.54201 0.0
C433 C 0.50195 0.56738 0.53737 0.0
C434 C 0.50994 0.54828 0.54559 0.0
N435 N 0.51889 0.4995 0.56254 0.0
C436 C 0.52522 0.49581 0.55222 0.0
C437 C 0.53227 0.4647 0.55051 0.0
C438 C 0.53001 0.44836 0.56009 0.0
C439 C 0.52175 0.47033 0.5671 0.0
N440 N 0.51093 0.5191 0.5843 0.0
C441 C 0.51483 0.48793 0.58656 0.0
C442 C 0.517 0.48227 0.59741 0.0
C443 C 0.51415 0.51171 0.60224 0.0
C444 C 0.51042 0.53379 0.59406 0.0
N445 N 0.47947 0.5146 0.56899 0.0
C446 C 0.44793 0.46733 0.56878 0.0
C447 C 0.45231 0.48518 0.57812 0.0
C448 C 0.46794 0.50885 0.57802 0.0
C449 C 0.45841 0.47631 0.55936 0.0
C450 C 0.47396 0.49957 0.55964 0.0
N451 N 0.53356 0.55831 0.57045 0.0
C452 C 0.56953 0.55259 0.57452 0.0
C453 C 0.57338 0.58522 0.57225 0.0
C454 C 0.55667 0.60399 0.56871 0.0
C455 C 0.5369 0.59009 0.56787 0.0
C456 C 0.54983 0.53989 0.57366 0.0
H457 H 0.52432 0.60506 0.56524 0.0
H458 H 0.54785 0.51485 0.57568 0.0
H459 H 0.47146 0.5211 0.58544 0.0
H460 H 0.48237 0.50371 0.55232 0.0
C461 C 0.47887 0.59753 0.56082 0.0
C462 C 0.5048 0.5678 0.59585 0.0
C463 C 0.52341 0.52059 0.54376 0.0
C464 C 0.51914 0.4661 0.57824 0.0
H465 H 0.48319 0.62893 0.59551 0.0
H466 H 0.46662 0.64279 0.57666 0.0
H467 H 0.47931 0.60647 0.53807 0.0
H468 H 0.50538 0.56632 0.52887 0.0
H469 H 0.5382 0.4548 0.54311 0.0
H470 H 0.53439 0.42368 0.56179 0.0
H471 H 0.52077 0.45967 0.60132 0.0
H472 H 0.51456 0.51636 0.6108 0.0
H473 H 0.44454 0.47976 0.5856 0.0
H474 H 0.45523 0.46446 0.5518 0.0
H475 H 0.58175 0.53658 0.577 0.0
H476 H 0.55873 0.62932 0.56683 0.0
C477 C 0.78966 0.68864 0.59093 0.0
C478 C 0.80286 0.66539 0.59507 0.0
C479 C 0.8133 0.65285 0.58654 0.0
C480 C 0.80636 0.66964 0.57774 0.0
N481 N 0.79237 0.69224 0.5802 0.0
Co482 Co 0.78143 0.72529 0.5701 0.0
N483 N 0.78993 0.69983 0.55737 0.0
C484 C 0.80004 0.67157 0.55759 0.0
C485 C 0.79852 0.6548 0.54816 0.0
C486 C 0.78725 0.6742 0.54148 0.0
C487 C 0.78348 0.70261 0.54705 0.0
N488 N 0.7719 0.75942 0.55981 0.0
C489 C 0.77336 0.76119 0.54884 0.0
C490 C 0.77015 0.79274 0.54534 0.0
C491 C 0.76598 0.81082 0.55424 0.0
C492 C 0.76739 0.78986 0.56274 0.0
N493 N 0.77171 0.74908 0.58302 0.0
C494 C 0.76497 0.77968 0.58309 0.0
C495 C 0.75593 0.78796 0.59264 0.0
C496 C 0.75714 0.76088 0.599 0.0
C497 C 0.76739 0.73759 0.59308 0.0
N498 N 0.80831 0.7481 0.57061 0.0
C499 C 0.84389 0.78771 0.57078 0.0
C500 C 0.83363 0.77963 0.58035 0.0
C501 C 0.81615 0.75954 0.58011 0.0
C502 C 0.83609 0.77475 0.56121 0.0
C503 C 0.81854 0.75525 0.56129 0.0
N504 N 0.75435 0.70352 0.56964 0.0
C505 C 0.71728 0.70708 0.56944 0.0
C506 C 0.71535 0.67364 0.57078 0.0
C507 C 0.73347 0.65543 0.57122 0.0
C508 C 0.75267 0.67067 0.57052 0.0
C509 C 0.73676 0.72147 0.569 0.0
H510 H 0.76613 0.65575 0.57092 0.0
H511 H 0.73743 0.74735 0.56843 0.0
H512 H 0.8089 0.75364 0.58766 0.0
H513 H 0.81315 0.7466 0.55367 0.0
C514 C 0.80888 0.6601 0.56709 0.0
C515 C 0.77414 0.70568 0.59729 0.0
C516 C 0.77915 0.73393 0.54172 0.0
C517 C 0.76428 0.79765 0.57356 0.0
H518 H 0.80436 0.65749 0.60334 0.0
H519 H 0.82376 0.63262 0.58667 0.0
H520 H 0.80463 0.63116 0.54638 0.0
H521 H 0.78368 0.66906 0.53316 0.0
H522 H 0.77159 0.80263 0.53735 0.0
H523 H 0.76289 0.83646 0.5545 0.0
H524 H 0.74828 0.81037 0.59454 0.0
H525 H 0.75067 0.75874 0.60695 0.0
H526 H 0.83922 0.78838 0.588 0.0
H527 H 0.84329 0.78012 0.55356 0.0
H528 H 0.70382 0.72229 0.56918 0.0
H529 H 0.73285 0.62946 0.57218 0.0
C530 C 0.49763 0.67449 0.6714 0.0
C531 C 0.49158 0.64247 0.67023 0.0
C532 C 0.4898 0.62982 0.68032 0.0
C533 C 0.49501 0.65449 0.68706 0.0
N534 N 0.49978 0.68221 0.68192 0.0
Co535 Co 0.51067 0.72195 0.68884 0.0
N536 N 0.50146 0.70709 0.70332 0.0
C537 C 0.49572 0.6769 0.70601 0.0
C538 C 0.48964 0.67377 0.7165 0.0
C539 C 0.49186 0.70383 0.72078 0.0
C540 C 0.4994 0.7236 0.71262 0.0
N541 N 0.52188 0.76115 0.69595 0.0
C542 C 0.51896 0.77253 0.70606 0.0
C543 C 0.53042 0.80019 0.7078 0.0
C544 C 0.54096 0.80617 0.69846 0.0
C545 C 0.5354 0.78189 0.69157 0.0
N546 N 0.51972 0.73652 0.67428 0.0
C547 C 0.53312 0.76048 0.67227 0.0
C548 C 0.53675 0.76502 0.6615 0.0
C549 C 0.52515 0.74217 0.65638 0.0
C550 C 0.51516 0.72474 0.66435 0.0
N551 N 0.48426 0.74481 0.68676 0.0
C552 C 0.44751 0.78172 0.68636 0.0
C553 C 0.46633 0.79506 0.68321 0.0
C554 C 0.48427 0.77636 0.68339 0.0
C555 C 0.4476 0.74866 0.68923 0.0
C556 C 0.46599 0.73083 0.68942 0.0
N557 N 0.53746 0.70036 0.69098 0.0
C558 C 0.56775 0.67526 0.68351 0.0
C559 C 0.57861 0.67952 0.69317 0.0
C560 C 0.56775 0.69265 0.70188 0.0
C561 C 0.54745 0.70295 0.70061 0.0
C562 C 0.54729 0.68547 0.68262 0.0
H563 H 0.54011 0.71405 0.70741 0.0
H564 H 0.53974 0.68231 0.675 0.0
H565 H 0.49831 0.78805 0.68112 0.0
H566 H 0.46549 0.70591 0.69196 0.0
C567 C 0.49372 0.65324 0.69821 0.0
C568 C 0.50299 0.69549 0.66228 0.0
C569 C 0.50666 0.75658 0.71443 0.0
C570 C 0.54032 0.78004 0.68063 0.0
H571 H 0.48926 0.62912 0.66288 0.0
H572 H 0.48517 0.60556 0.68248 0.0
H573 H 0.48382 0.6524 0.72049 0.0
H574 H 0.48871 0.71022 0.72904 0.0
H575 H 0.5312 0.81434 0.71508 0.0
H576 H 0.55107 0.82628 0.69682 0.0
H577 H 0.54644 0.78308 0.65778 0.0
H578 H 0.52445 0.7384 0.64778 0.0
H579 H 0.46754 0.82026 0.68099 0.0
H580 H 0.43359 0.73646 0.69145 0.0
H581 H 0.57513 0.66526 0.6765 0.0
H582 H 0.5749 0.69552 0.70967 0.0
C583 C 0.79271 0.58016 0.66896 0.0
C584 C 0.80722 0.60312 0.6661 0.0
C585 C 0.8204 0.60576 0.67466 0.0
C586 C 0.81334 0.5841 0.68218 0.0
N587 N 0.79661 0.56809 0.67887 0.0
Co588 Co 0.78281 0.53287 0.68676 0.0
N589 N 0.79404 0.54793 0.70063 0.0
C590 C 0.81057 0.56694 0.70186 0.0
C591 C 0.81516 0.5727 0.71245 0.0
C592 C 0.80071 0.55603 0.71823 0.0
C593 C 0.78811 0.54092 0.7108 0.0
N594 N 0.76928 0.49736 0.69476 0.0
C595 C 0.76544 0.49441 0.70545 0.0
C596 C 0.75589 0.46526 0.70766 0.0
C597 C 0.75384 0.44954 0.69798 0.0
C598 C 0.76228 0.46986 0.6904 0.0
N599 N 0.77172 0.51854 0.67272 0.0
C600 C 0.76391 0.48919 0.67067 0.0
C601 C 0.75537 0.48761 0.66058 0.0
C602 C 0.75803 0.51776 0.65608 0.0
C603 C 0.76833 0.53622 0.66362 0.0
N604 N 0.80717 0.50483 0.68481 0.0
C605 C 0.83969 0.46006 0.68152 0.0
C606 C 0.83335 0.48189 0.6734 0.0
C607 C 0.81706 0.50344 0.67513 0.0
C608 C 0.82954 0.46248 0.69148 0.0
C609 C 0.81373 0.48507 0.69298 0.0
N610 N 0.7581 0.5597 0.68867 0.0
C611 C 0.72118 0.56311 0.68829 0.0
C612 C 0.72158 0.596 0.69086 0.0
C613 C 0.74101 0.61023 0.69237 0.0
C614 C 0.75901 0.59169 0.69129 0.0
C615 C 0.73934 0.54575 0.68715 0.0
H616 H 0.77366 0.60318 0.69252 0.0
H617 H 0.73804 0.52074 0.68501 0.0
H618 H 0.81229 0.51877 0.66855 0.0
H619 H 0.80648 0.48587 0.70076 0.0
C620 C 0.81954 0.58222 0.69295 0.0
C621 C 0.77574 0.56978 0.66203 0.0
C622 C 0.77194 0.51789 0.71363 0.0
C623 C 0.76057 0.46707 0.67914 0.0
H624 H 0.80811 0.61667 0.65865 0.0
H625 H 0.83305 0.62242 0.67545 0.0
H626 H 0.82723 0.58783 0.71561 0.0
H627 H 0.79981 0.55468 0.72691 0.0
H628 H 0.75102 0.45631 0.71544 0.0
H629 H 0.74636 0.42662 0.6966 0.0
H630 H 0.74691 0.46767 0.65716 0.0
H631 H 0.7525 0.52511 0.64826 0.0
H632 H 0.84077 0.4826 0.66565 0.0
H633 H 0.83327 0.44658 0.6981 0.0
H634 H 0.70688 0.55033 0.6873 0.0
H635 H 0.74242 0.63559 0.69426 0.0
C636 C 0.52243 0.47431 0.41489 0.0
C637 C 0.5161 0.49517 0.40679 0.0
C638 C 0.51411 0.5251 0.41142 0.0
C639 C 0.51938 0.5209 0.42204 0.0
N640 N 0.52458 0.49027 0.42434 0.0
Co641 Co 0.53257 0.47342 0.43869 0.0
N642 N 0.52038 0.51084 0.44626 0.0
C643 C 0.51547 0.53924 0.44163 0.0
C644 C 0.50822 0.56138 0.44886 0.0
C645 C 0.50893 0.54613 0.45868 0.0
C646 C 0.51666 0.51543 0.4569 0.0
N647 N 0.54053 0.45572 0.45298 0.0
C648 C 0.53435 0.46402 0.463 0.0
C649 C 0.54417 0.44523 0.47075 0.0
C650 C 0.55715 0.42509 0.4654 0.0
C651 C 0.55457 0.43251 0.45475 0.0
N652 N 0.54501 0.4362 0.4311 0.0
C653 C 0.55879 0.41547 0.43524 0.0
C654 C 0.56342 0.39063 0.42843 0.0
C655 C 0.55185 0.396 0.41944 0.0
C656 C 0.54103 0.4244 0.42117 0.0
N657 N 0.55887 0.4977 0.43786 0.0
C658 C 0.59155 0.54289 0.43649 0.0
C659 C 0.58185 0.53586 0.44629 0.0
C660 C 0.56582 0.51349 0.4468 0.0
C661 C 0.58542 0.5248 0.42748 0.0
C662 C 0.56912 0.50234 0.42834 0.0
N663 N 0.50598 0.45056 0.43958 0.0
C664 C 0.48552 0.40368 0.44405 0.0
C665 C 0.4672 0.4203 0.44172 0.0
C666 C 0.46902 0.45224 0.43807 0.0
C667 C 0.48833 0.46677 0.43707 0.0
C668 C 0.50463 0.41913 0.44292 0.0
H669 H 0.48886 0.49149 0.43441 0.0
H670 H 0.5183 0.40574 0.44486 0.0
H671 H 0.55845 0.5103 0.45445 0.0
H672 H 0.56425 0.48977 0.42119 0.0
C673 C 0.51586 0.54289 0.43039 0.0
C674 C 0.52753 0.44007 0.41323 0.0
C675 C 0.52217 0.49273 0.4656 0.0
C676 C 0.56307 0.4155 0.44621 0.0
H677 H 0.51321 0.48934 0.39846 0.0
H678 H 0.50853 0.54689 0.40759 0.0
H679 H 0.5028 0.58557 0.4472 0.0
H680 H 0.50469 0.55662 0.46631 0.0
H681 H 0.54274 0.44663 0.4794 0.0
H682 H 0.56707 0.40691 0.46888 0.0
H683 H 0.57286 0.36975 0.43011 0.0
H684 H 0.55122 0.38003 0.41261 0.0
H685 H 0.58621 0.54839 0.45356 0.0
H686 H 0.59245 0.52905 0.41972 0.0
H687 H 0.48518 0.3788 0.44673 0.0
H688 H 0.45556 0.46649 0.43627 0.0
C689 C 0.27313 0.28535 0.41416 0.0
C690 C 0.2821 0.26564 0.40652 0.0
C691 C 0.28361 0.23539 0.41107 0.0
C692 C 0.27572 0.23821 0.42127 0.0
N693 N 0.26941 0.26836 0.42338 0.0
Co694 Co 0.25941 0.28401 0.43755 0.0
N695 N 0.27083 0.24642 0.44548 0.0
C696 C 0.2765 0.21837 0.44093 0.0
C697 C 0.28315 0.19607 0.44835 0.0
C698 C 0.28122 0.21083 0.45816 0.0
C699 C 0.27339 0.24144 0.45622 0.0
N700 N 0.24956 0.30076 0.45158 0.0
C701 C 0.25453 0.29209 0.4618 0.0
C702 C 0.24327 0.30985 0.46919 0.0
C703 C 0.23064 0.32969 0.46342 0.0
C704 C 0.23483 0.32316 0.45286 0.0
N705 N 0.2474 0.32104 0.42967 0.0
C706 C 0.23193 0.33963 0.43315 0.0
C707 C 0.22553 0.36176 0.42563 0.0
C708 C 0.23779 0.35678 0.41687 0.0
C709 C 0.25118 0.33206 0.41962 0.0
N710 N 0.2335 0.2593 0.43571 0.0
C711 C 0.20073 0.21519 0.43256 0.0
C712 C 0.20876 0.221 0.44284 0.0
C713 C 0.22507 0.24281 0.44422 0.0
C714 C 0.20883 0.23348 0.42399 0.0
C715 C 0.22492 0.2555 0.42574 0.0
N716 N 0.28572 0.30724 0.43934 0.0
C717 C 0.30617 0.35452 0.44347 0.0
C718 C 0.32438 0.3369 0.44209 0.0
C719 C 0.32269 0.30456 0.43914 0.0
C720 C 0.30349 0.29043 0.43774 0.0
C721 C 0.28696 0.33918 0.4421 0.0
H722 H 0.30318 0.26551 0.43542 0.0
H723 H 0.27315 0.35295 0.44337 0.0
H724 H 0.23135 0.24518 0.45218 0.0
H725 H 0.23091 0.26861 0.41891 0.0
C726 C 0.27803 0.21573 0.42968 0.0
C727 C 0.26707 0.31943 0.41245 0.0
C728 C 0.26707 0.26396 0.46478 0.0
C729 C 0.22651 0.33938 0.444 0.0
H730 H 0.28735 0.27221 0.39857 0.0
H731 H 0.29078 0.21438 0.40757 0.0
H732 H 0.28917 0.17221 0.4468 0.0
H733 H 0.2849 0.20013 0.46588 0.0
H734 H 0.24345 0.30779 0.47787 0.0
H735 H 0.21973 0.34687 0.46655 0.0
H736 H 0.21396 0.38019 0.42656 0.0
H737 H 0.23708 0.37001 0.40935 0.0
H738 H 0.2032 0.20757 0.44973 0.0
H739 H 0.203 0.23042 0.41591 0.0
H740 H 0.30675 0.3796 0.44585 0.0
H741 H 0.33627 0.29 0.438 0.0
C742 C 0.52012 0.27853 0.34419 0.0
C743 C 0.51492 0.25558 0.35186 0.0
C744 C 0.51469 0.22623 0.34672 0.0
C745 C 0.51981 0.23278 0.33621 0.0
N746 N 0.52313 0.26441 0.33447 0.0
Co747 Co 0.53092 0.2842 0.32053 0.0
N748 N 0.52143 0.24623 0.31223 0.0
C749 C 0.51851 0.21641 0.31627 0.0
C750 C 0.51234 0.19481 0.30855 0.0
C751 C 0.51155 0.21217 0.29909 0.0
C752 C 0.51732 0.24347 0.30157 0.0
N753 N 0.53875 0.3045 0.30667 0.0
C754 C 0.53313 0.29693 0.29653 0.0
C755 C 0.54296 0.31665 0.28908 0.0
C756 C 0.55518 0.33715 0.2948 0.0
C757 C 0.55218 0.3288 0.30537 0.0
N758 N 0.54081 0.32208 0.32873 0.0
C759 C 0.5536 0.34509 0.32505 0.0
C760 C 0.55649 0.3697 0.3322 0.0
C761 C 0.54492 0.36164 0.34096 0.0
C762 C 0.53591 0.33195 0.33877 0.0
N763 N 0.55827 0.2636 0.32162 0.0
C764 C 0.59117 0.21983 0.3244 0.0
C765 C 0.58274 0.22576 0.3142 0.0
C766 C 0.56643 0.24765 0.31298 0.0
C767 C 0.58387 0.23864 0.33298 0.0
C768 C 0.56767 0.26048 0.33141 0.0
N769 N 0.50314 0.3031 0.3196 0.0
C770 C 0.4793 0.34793 0.31854 0.0
C771 C 0.46263 0.32728 0.32069 0.0
C772 C 0.46685 0.29427 0.3217 0.0
C773 C 0.48687 0.28291 0.32125 0.0
C774 C 0.49945 0.33534 0.318 0.0
H775 H 0.4891 0.25753 0.32257 0.0
H776 H 0.51203 0.35169 0.31657 0.0
H777 H 0.5596 0.25002 0.30512 0.0
H778 H 0.56196 0.27344 0.33829 0.0
C779 C 0.51846 0.21132 0.32748 0.0
C780 C 0.52379 0.31295 0.34653 0.0
C781 C 0.52009 0.26956 0.29364 0.0
C782 C 0.55903 0.34633 0.31421 0.0
H783 H 0.5118 0.25961 0.3603 0.0
H784 H 0.51059 0.20309 0.35017 0.0
H785 H 0.50821 0.16975 0.30971 0.0
H786 H 0.50737 0.20284 0.29128 0.0
H787 H 0.54169 0.31602 0.2804 0.0
H788 H 0.56462 0.35646 0.29165 0.0
H789 H 0.56494 0.39186 0.33095 0.0
H790 H 0.54323 0.37646 0.34803 0.0
H791 H 0.58781 0.21215 0.30729 0.0
H792 H 0.59018 0.23577 0.34098 0.0
H793 H 0.47693 0.37365 0.31763 0.0
H794 H 0.45469 0.27696 0.32303 0.0
C795 C 0.27378 0.48548 0.34305 0.0
C796 C 0.28526 0.50752 0.3489 0.0
C797 C 0.28711 0.53481 0.34267 0.0
C798 C 0.27726 0.52795 0.3332 0.0
N799 N 0.26943 0.49793 0.33313 0.0
Co800 Co 0.2582 0.47567 0.32032 0.0
N801 N 0.27035 0.50729 0.3101 0.0
C802 C 0.27696 0.53698 0.31272 0.0
C803 C 0.2843 0.55385 0.304 0.0
C804 C 0.28191 0.53362 0.29537 0.0
C805 C 0.27315 0.50542 0.29929 0.0
N806 N 0.24715 0.45239 0.30767 0.0
C807 C 0.25227 0.4545 0.29712 0.0
C808 C 0.23984 0.43467 0.29094 0.0
C809 C 0.22638 0.42004 0.29786 0.0
C810 C 0.23129 0.43167 0.30784 0.0
N811 N 0.24545 0.44463 0.33042 0.0
C812 C 0.22894 0.42639 0.32826 0.0
C813 C 0.22194 0.4097 0.33707 0.0
C814 C 0.2349 0.41795 0.34528 0.0
C815 C 0.2494 0.43886 0.34095 0.0
N816 N 0.23317 0.50291 0.32084 0.0
C817 C 0.20085 0.54871 0.32107 0.0
C818 C 0.20914 0.53724 0.3114 0.0
C819 C 0.2251 0.51473 0.31145 0.0
C820 C 0.20845 0.53514 0.33067 0.0
C821 C 0.22456 0.51235 0.33038 0.0
N822 N 0.28355 0.44968 0.31975 0.0
C823 C 0.30162 0.39874 0.31994 0.0
C824 C 0.32069 0.41462 0.32005 0.0
C825 C 0.32058 0.44835 0.31983 0.0
C826 C 0.30206 0.46523 0.31978 0.0
C827 C 0.28327 0.41666 0.31967 0.0
H828 H 0.30289 0.4911 0.32001 0.0
H829 H 0.26887 0.4039 0.31956 0.0
H830 H 0.23134 0.5078 0.3038 0.0
H831 H 0.23047 0.50314 0.33791 0.0
C832 C 0.27951 0.54539 0.32356 0.0
C833 C 0.26617 0.45372 0.34711 0.0
C834 C 0.26666 0.4781 0.29254 0.0
C835 C 0.22277 0.42151 0.31762 0.0
H836 H 0.29239 0.5043 0.35666 0.0
H837 H 0.29605 0.55607 0.3445 0.0
H838 H 0.29135 0.57749 0.30397 0.0
H839 H 0.28614 0.53903 0.28714 0.0
H840 H 0.23998 0.43192 0.28229 0.0
H841 H 0.21455 0.40283 0.29585 0.0
H842 H 0.20937 0.39272 0.33742 0.0
H843 H 0.23373 0.4095 0.3535 0.0
H844 H 0.20361 0.54612 0.30373 0.0
H845 H 0.20261 0.54299 0.33837 0.0
H846 H 0.30086 0.37264 0.32008 0.0
H847 H 0.33476 0.46183 0.3201 0.0
C848 C 1.00253 0.06747 0.58974 0.0
C849 C 0.98849 0.09016 0.59336 0.0
C850 C 0.97692 0.09909 0.58467 0.0
C851 C 0.98415 0.08094 0.57631 0.0
N852 N 0.99948 0.06106 0.57918 0.0
Co853 Co 1.01146 0.02721 0.5699 0.0
N854 N 1.00232 0.04976 0.55656 0.0
C855 C 0.98807 0.07319 0.5561 0.0
C856 C 0.98449 0.08428 0.54587 0.0
C857 C 0.99698 0.06634 0.53942 0.0
C858 C 1.00749 0.04504 0.5461 0.0
N859 N 0.02284 0.99281 0.56055 0.0
C860 C 0.02539 0.9918 0.5497 0.0
C861 C 0.03292 0.96197 0.54658 0.0
C862 C 0.03469 0.94359 0.55573 0.0
C863 C 0.02822 0.9631 0.56394 0.0
N864 N 0.02087 0.00583 0.58339 0.0
C865 C 0.02743 0.97514 0.5842 0.0
C866 C 0.03638 0.96874 0.59396 0.0
C867 C 0.03523 0.997 0.59964 0.0
C868 C 0.02496 0.01919 0.59319 0.0
N869 N 0.98534 1.00238 0.57043 0.0
C870 C 0.95376 0.95525 0.57075 0.0
C871 C 0.96072 0.96967 0.58031 0.0
C872 C 0.97646 0.9932 0.57997 0.0
C873 C 0.9619 0.96702 0.56107 0.0
C874 C 0.97742 0.9903 0.56107 0.0
N875 N 0.03799 0.05029 0.56926 0.0
C876 C 0.07487 0.04616 0.56914 0.0
C877 C 0.077 0.07909 0.56702 0.0
C878 C 0.05906 0.0978 0.5664 0.0
C879 C 0.03965 0.08287 0.56749 0.0
C880 C 0.05551 0.03246 0.57029 0.0
H881 H 0.02603 0.09744 0.5667 0.0
H882 H 0.05491 0.00699 0.57181 0.0
H883 H 0.98208 1.00278 0.58748 0.0
H884 H 0.98371 0.99702 0.55341 0.0
C885 C 0.9794 0.08556 0.56547 0.0
C886 C 1.01811 0.05194 0.59659 0.0
C887 C 1.01905 0.01719 0.54203 0.0
C888 C 0.02966 0.95617 0.57496 0.0
H889 H 0.98672 0.09943 0.60143 0.0
H890 H 0.96512 0.11739 0.58442 0.0
H891 H 0.97398 0.10306 0.54338 0.0
H892 H 0.99748 0.06776 0.53073 0.0
H893 H 0.03643 0.95414 0.53849 0.0
H894 H 0.04044 0.91916 0.55634 0.0
H895 H 0.04436 0.94698 0.59635 0.0
H896 H 0.04204 1.00066 0.60744 0.0
H897 H 0.95487 0.96165 0.58801 0.0
H898 H 0.95683 0.95734 0.55344 0.0
H899 H 0.08822 0.03078 0.56976 0.0
H900 H 0.05999 0.12342 0.56473 0.0
C901 C 0.29349 0.18069 0.58871 0.0
C902 C 0.30815 0.15789 0.59147 0.0
C903 C 0.32026 0.15383 0.58257 0.0
C904 C 0.31243 0.1745 0.57495 0.0
N905 N 0.29623 0.19127 0.57852 0.0
Co906 Co 0.28164 0.22549 0.57054 0.0
N907 N 0.29092 0.20797 0.55656 0.0
C908 C 0.30701 0.18816 0.55513 0.0
C909 C 0.31029 0.1807 0.54454 0.0
C910 C 0.2955 0.19713 0.53895 0.0
C911 C 0.28398 0.21383 0.54649 0.0
N912 N 0.2675 0.26019 0.56245 0.0
C913 C 0.2629 0.26233 0.55181 0.0
C914 C 0.2535 0.29156 0.54953 0.0
C915 C 0.25241 0.30819 0.55908 0.0
C916 C 0.2612 0.28831 0.56667 0.0
N917 N 0.2724 0.24183 0.5847 0.0
C918 C 0.2651 0.27155 0.58661 0.0
C919 C 0.25787 0.27452 0.59695 0.0
C920 C 0.26083 0.24483 0.60176 0.0
C921 C 0.26988 0.22524 0.59411 0.0
N922 N 0.30641 0.25343 0.57114 0.0
C923 C 0.34024 0.29643 0.57148 0.0
C924 C 0.33334 0.28117 0.58094 0.0
C925 C 0.31656 0.25957 0.58058 0.0
C926 C 0.32975 0.28963 0.56193 0.0
C927 C 0.31297 0.26861 0.56194 0.0
N928 N 0.25647 0.19906 0.56983 0.0
C929 C 0.21954 0.1971 0.5711 0.0
C930 C 0.21911 0.16474 0.56792 0.0
C931 C 0.23811 0.14976 0.56589 0.0
C932 C 0.25657 0.16728 0.5669 0.0
C933 C 0.23812 0.21356 0.572 0.0
H934 H 0.27088 0.15533 0.56521 0.0
H935 H 0.23744 0.23849 0.57431 0.0
H936 H 0.31177 0.24789 0.58794 0.0
H937 H 0.30523 0.26492 0.55441 0.0
C938 C 0.31709 0.17432 0.56396 0.0
C939 C 0.27714 0.19171 0.59589 0.0
C940 C 0.26842 0.23798 0.54369 0.0
C941 C 0.26087 0.29257 0.57793 0.0
H942 H 0.30968 0.14522 0.59906 0.0
H943 H 0.3326 0.13669 0.58162 0.0
H944 H 0.32186 0.16486 0.54127 0.0
H945 H 0.29381 0.19753 0.53029 0.0
H946 H 0.24813 0.30001 0.54178 0.0
H947 H 0.24543 0.33152 0.56037 0.0
H948 H 0.25009 0.29508 0.60038 0.0
H949 H 0.25647 0.23849 0.60987 0.0
H950 H 0.34114 0.28529 0.58849 0.0
H951 H 0.33449 0.30069 0.55442 0.0
H952 H 0.20553 0.21025 0.57258 0.0
H953 H 0.2388 0.12469 0.56352 0.0
C954 C 1.0018 0.17748 0.6682 0.0
C955 C 0.9884 0.15247 0.66582 0.0
C956 C 0.97677 0.1474 0.67485 0.0
C957 C 0.98351 0.16976 0.68215 0.0
N958 N 0.99861 0.18851 0.67827 0.0
Co959 Co 1.01071 0.22606 0.68565 0.0
N960 N 1.00236 0.20914 0.6999 0.0
C961 C 0.98759 0.1871 0.70167 0.0
C962 C 0.98449 0.18081 0.71239 0.0
C963 C 0.99801 0.20037 0.7177 0.0
C964 C 1.00862 0.2176 0.70988 0.0
N965 N 0.02224 0.26409 0.69317 0.0
C966 C 0.02668 0.26827 0.70376 0.0
C967 C 0.03397 0.2992 0.70556 0.0
C968 C 0.03388 0.31481 0.69575 0.0
C969 C 0.02652 0.29265 0.6885 0.0
N970 N 1.01906 0.24208 0.67124 0.0
C971 C 0.02448 0.27259 0.66889 0.0
C972 C 0.03165 0.27558 0.65854 0.0
C973 C 0.03057 0.24512 0.65417 0.0
C974 C 0.02256 0.22502 0.66206 0.0
N975 N 0.98432 0.24961 0.68438 0.0
C976 C 0.95031 0.29186 0.68143 0.0
C977 C 0.95671 0.27026 0.67334 0.0
C978 C 0.97373 0.24997 0.67489 0.0
C979 C 0.9609 0.28993 0.69129 0.0
C980 C 0.97742 0.2685 0.69264 0.0
N981 N 0.03758 0.20407 0.68673 0.0
C982 C 0.07412 0.20899 0.68443 0.0
C983 C 0.07694 0.17568 0.68546 0.0
C984 C 0.0595 0.15681 0.68775 0.0
C985 C 0.03991 0.17153 0.68838 0.0
C986 C 0.05466 0.2224 0.68493 0.0
H987 H 0.02666 0.15658 0.68988 0.0
H988 H 0.05361 0.24784 0.68345 0.0
H989 H 0.97865 0.23516 0.66826 0.0
H990 H 0.98512 0.2683 0.7003 0.0
C991 C 0.97866 0.17041 0.6931 0.0
C992 C 1.01714 0.19044 0.6607 0.0
C993 C 0.0228 0.24409 0.71225 0.0
C994 C 0.02693 0.29537 0.67719 0.0
H995 H 0.98728 0.13915 0.65838 0.0
H996 H 0.96535 0.12882 0.67606 0.0
H997 H 0.9739 0.16372 0.71593 0.0
H998 H 0.99948 0.20234 0.72635 0.0
H999 H 0.03873 0.30942 0.71315 0.0
H1000 H 0.03926 0.339 0.69406 0.0
H1001 H 0.03813 0.29689 0.6548 0.0
H1002 H 0.03553 0.23873 0.64618 0.0
H1003 H 0.94892 0.26896 0.66569 0.0
H1004 H 0.95708 0.30552 0.69793 0.0
H1005 H 0.08695 0.22494 0.68295 0.0
H1006 H 0.06083 0.13091 0.68867 0.0
C1007 C 0.29106 0.06279 0.66638 0.0
C1008 C 0.30579 0.08452 0.66279 0.0
C1009 C 0.31777 0.09189 0.67148 0.0
C1010 C 0.31 0.0739 0.67981 0.0
N1011 N 0.29397 0.05558 0.67691 0.0
Co1012 Co 0.28013 0.02342 0.68625 0.0
N1013 N 0.28974 0.04525 0.69954 0.0
C1014 C 0.30505 0.06696 0.70004 0.0
C1015 C 0.30869 0.07789 0.71025 0.0
C1016 C 0.29507 0.06165 0.71664 0.0
C1017 C 0.28386 0.04146 0.70995 0.0
N1018 N 0.26691 0.99057 0.69563 0.0
C1019 C 0.26378 0.99023 0.70644 0.0
C1020 C 0.2548 0.96138 0.70965 0.0
C1021 C 0.25265 0.94293 0.70058 0.0
C1022 C 0.26037 0.96143 0.69234 0.0
N1023 N 0.27018 1.00296 0.67279 0.0
C1024 C 0.26223 0.97311 0.67204 0.0
C1025 C 0.25341 0.96757 0.66221 0.0
C1026 C 0.25603 0.99558 0.65643 0.0
C1027 C 0.26692 0.01671 0.66293 0.0
N1028 N 0.30512 0.99584 0.68615 0.0
C1029 C 0.3361 0.9476 0.68657 0.0
C1030 C 0.3296 0.96171 0.67682 0.0
C1031 C 0.31417 0.98576 0.67678 0.0
C1032 C 0.32762 0.96001 0.69605 0.0
C1033 C 0.31235 0.98364 0.69568 0.0
N1034 N 0.25478 0.0495 0.68645 0.0
C1035 C 0.21777 0.05097 0.68582 0.0
C1036 C 0.21771 0.08467 0.68602 0.0
C1037 C 0.23676 0.1005 0.68655 0.0
C1038 C 0.25507 0.08249 0.68691 0.0
C1039 C 0.23627 0.03404 0.68589 0.0
H1040 H 0.26946 0.09521 0.68742 0.0
H1041 H 0.2354 0.00824 0.6853 0.0
H1042 H 0.30904 0.99532 0.66915 0.0
H1043 H 0.30584 0.9909 0.70321 0.0
C1044 C 0.3146 0.07816 0.69068 0.0
C1045 C 0.27492 0.04892 0.65955 0.0
C1046 C 0.27074 0.01525 0.71402 0.0
C1047 C 0.25887 0.95454 0.68134 0.0
H1048 H 0.30765 0.09427 0.65476 0.0
H1049 H 0.33008 0.10934 0.67177 0.0
H1050 H 0.31992 0.0955 0.71277 0.0
H1051 H 0.29419 0.06338 0.72531 0.0
H1052 H 0.25053 0.95425 0.71772 0.0
H1053 H 0.24578 0.91923 0.70004 0.0
H1054 H 0.24461 0.94667 0.65981 0.0
H1055 H 0.2498 0.99987 0.64852 0.0
H1056 H 0.33569 0.95329 0.66924 0.0
H1057 H 0.33236 0.95089 0.70384 0.0
H1058 H 0.20357 0.03764 0.6852 0.0
H1059 H 0.2375 0.12659 0.6867 0.0
C1060 C 1.01762 0.97679 0.4129 0.0
C1061 C 1.00854 0.99577 0.40502 0.0
C1062 C 1.0061 0.02606 0.40936 0.0
C1063 C 1.01359 0.02403 0.41968 0.0
N1064 N 1.02048 0.99427 0.42205 0.0
Co1065 Co 0.03029 0.97971 0.43642 0.0
N1066 N 1.01719 0.01623 0.44395 0.0
C1067 C 1.01093 0.04382 0.43928 0.0
C1068 C 1.0027 0.06502 0.44658 0.0
C1069 C 1.00406 0.04977 0.45642 0.0
C1070 C 1.01305 0.02002 0.45458 0.0
N1071 N 0.04034 0.96444 0.45059 0.0
C1072 C 0.0341 0.97222 0.46062 0.0
C1073 C 0.04584 0.95646 0.46834 0.0
C1074 C 0.06007 0.93859 0.4629 0.0
C1075 C 0.05623 0.94434 0.45221 0.0
N1076 N 0.04371 0.94343 0.42897 0.0
C1077 C 0.05978 0.9265 0.43271 0.0
C1078 C 0.06707 0.90457 0.42541 0.0
C1079 C 0.05479 0.908 0.41654 0.0
C1080 C 0.04053 0.93169 0.41898 0.0
N1081 N 0.05548 0.00628 0.43469 0.0
C1082 C 0.08973 0.04828 0.43197 0.0
C1083 C 0.08164 0.03013 0.42337 0.0
C1084 C 0.06488 0.00923 0.4249 0.0
C1085 C 0.08008 0.04429 0.44201 0.0
C1086 C 0.0631 0.02363 0.44316 0.0
N1087 N 1.0047 0.9545 0.43818 0.0
C1088 C 0.98555 0.90815 0.44459 0.0
C1089 C 0.96694 0.92239 0.4414 0.0
C1090 C 0.9678 0.95276 0.43651 0.0
C1091 C 0.98656 0.96845 0.43515 0.0
C1092 C 1.00429 0.92436 0.44275 0.0
H1093 H 0.98619 0.99237 0.43179 0.0
H1094 H 1.01837 0.91282 0.44516 0.0
H1095 H 0.05928 0.99586 0.41808 0.0
H1096 H 0.05602 0.02205 0.45097 0.0
C1097 C 1.01007 0.04641 0.42798 0.0
C1098 C 0.02456 0.94298 0.41154 0.0
C1099 C 1.01865 0.99671 0.46308 0.0
C1100 C 0.06529 0.92826 0.44357 0.0
H1101 H 1.00377 0.9887 0.39706 0.0
H1102 H 0.99852 0.04648 0.40565 0.0
H1103 H 0.99587 0.0883 0.44491 0.0
H1104 H 0.99915 0.05944 0.46406 0.0
H1105 H 0.04455 0.95819 0.477 0.0
H1106 H 0.07153 0.92276 0.46634 0.0
H1107 H 0.07933 0.88736 0.42654 0.0
H1108 H 0.05613 0.89457 0.40913 0.0
H1109 H 0.08785 0.03228 0.41534 0.0
H1110 H 0.08558 0.05685 0.44905 0.0
H1111 H 0.98563 0.88466 0.44844 0.0
H1112 H 0.95388 0.96496 0.43407 0.0
C1113 C 0.77665 0.78046 0.41231 0.0
C1114 C 0.78686 0.76486 0.40405 0.0
C1115 C 0.79138 0.73433 0.40771 0.0
C1116 C 0.78407 0.73283 0.41806 0.0
N1117 N 0.7752 0.76061 0.42106 0.0
Co1118 Co 0.76548 0.77055 0.43582 0.0
N1119 N 0.78198 0.73593 0.44263 0.0
C1120 C 0.79187 0.71255 0.43727 0.0
C1121 C 0.80622 0.69743 0.44355 0.0
C1122 C 0.80489 0.71175 0.45346 0.0
C1123 C 0.78899 0.734 0.45296 0.0
N1124 N 0.75464 0.78044 0.45029 0.0
C1125 C 0.75987 0.7679 0.46 0.0
C1126 C 0.7438 0.77146 0.46726 0.0
C1127 C 0.72879 0.78862 0.46214 0.0
C1128 C 0.736 0.79344 0.45193 0.0
N1129 N 0.7494 0.80575 0.42922 0.0
C1130 C 0.73212 0.8183 0.43325 0.0
C1131 C 0.72347 0.84106 0.4266 0.0
C1132 C 0.73619 0.84281 0.41783 0.0
C1133 C 0.75198 0.82107 0.41968 0.0
N1134 N 0.74223 0.73991 0.43391 0.0
C1135 C 0.7076 0.69883 0.43245 0.0
C1136 C 0.71245 0.72065 0.42415 0.0
C1137 C 0.72988 0.74074 0.42498 0.0
C1138 C 0.7208 0.69743 0.44129 0.0
C1139 C 0.73794 0.71776 0.44183 0.0
N1140 N 0.78926 0.7999 0.43782 0.0
C1141 C 0.80632 0.84573 0.44597 0.0
C1142 C 0.82524 0.83647 0.4415 0.0
C1143 C 0.82553 0.80892 0.43512 0.0
C1144 C 0.80775 0.79093 0.43356 0.0
C1145 C 0.78843 0.82742 0.44388 0.0
H1146 H 0.80941 0.76907 0.42909 0.0
H1147 H 0.77408 0.83506 0.44733 0.0
H1148 H 0.73309 0.75747 0.41851 0.0
H1149 H 0.74741 0.71596 0.44889 0.0
C1150 C 0.79121 0.71134 0.42597 0.0
C1151 C 0.76821 0.81371 0.41187 0.0
C1152 C 0.77919 0.7506 0.46235 0.0
C1153 C 0.72598 0.81053 0.44372 0.0
H1154 H 0.7916 0.77449 0.39638 0.0
H1155 H 0.80075 0.7166 0.40367 0.0
H1156 H 0.8176 0.68014 0.44099 0.0
H1157 H 0.81537 0.70713 0.45998 0.0
H1158 H 0.74262 0.76181 0.47532 0.0
H1159 H 0.71419 0.79596 0.4654 0.0
H1160 H 0.70981 0.85514 0.42803 0.0
H1161 H 0.73392 0.85791 0.41081 0.0
H1162 H 0.70255 0.72283 0.4172 0.0
H1163 H 0.71757 0.68123 0.44795 0.0
H1164 H 0.80537 0.86688 0.45102 0.0
H1165 H 0.83974 0.80036 0.43168 0.0
C1166 C 1.0114 0.77097 0.34457 0.0
C1167 C 0.99975 0.75209 0.35152 0.0
C1168 C 0.9959 0.72356 0.34636 0.0
C1169 C 1.00473 0.72662 0.33641 0.0
N1170 N 1.01383 0.75545 0.335 0.0
Co1171 Co 0.02459 0.77222 0.32111 0.0
N1172 N 1.00955 0.73992 0.31238 0.0
C1173 C 0.99986 0.71378 0.31636 0.0
C1174 C 0.98589 0.70146 0.30926 0.0
C1175 C 0.98733 0.72046 0.30025 0.0
C1176 C 1.00311 0.74235 0.30197 0.0
N1177 N 0.03589 0.78925 0.30737 0.0
C1178 C 0.03162 0.78104 0.29701 0.0
C1179 C 0.04789 0.78965 0.29034 0.0
C1180 C 0.0619 0.80547 0.29654 0.0
C1181 C 0.05405 0.80457 0.30672 0.0
N1182 N 0.03959 0.80473 0.32972 0.0
C1183 C 0.05674 0.81983 0.32654 0.0
C1184 C 0.06504 0.83906 0.33436 0.0
C1185 C 0.05228 0.83576 0.34304 0.0
C1186 C 0.03669 0.81487 0.33997 0.0
N1187 N 0.04829 0.74221 0.32212 0.0
C1188 C 0.08339 0.70203 0.3226 0.0
C1189 C 0.07671 0.71814 0.33188 0.0
C1190 C 0.05919 0.73816 0.33147 0.0
C1191 C 0.0716 0.70557 0.31326 0.0
C1192 C 0.05417 0.7252 0.31322 0.0
N1193 N 1.00052 0.80112 0.32012 0.0
C1194 C 0.98454 0.85346 0.31792 0.0
C1195 C 0.96495 0.84001 0.31956 0.0
C1196 C 0.96377 0.80686 0.32144 0.0
C1197 C 0.98148 0.7882 0.32182 0.0
C1198 C 1.00211 0.83352 0.31809 0.0
H1199 H 0.97952 0.76317 0.3237 0.0
H1200 H 1.01697 0.84423 0.31675 0.0
H1201 H 0.05469 0.7508 0.33866 0.0
H1202 H 0.04568 0.72693 0.30582 0.0
C1203 C 0.99926 0.70812 0.32747 0.0
C1204 C 1.02065 0.80281 0.3473 0.0
C1205 C 1.01351 0.7622 0.29345 0.0
C1206 C 0.06322 0.81778 0.31587 0.0
H1207 H 0.99369 0.75836 0.3593 0.0
H1208 H 0.98606 0.70427 0.34916 0.0
H1209 H 0.97451 0.68307 0.31084 0.0
H1210 H 0.97713 0.71882 0.29344 0.0
H1211 H 0.0502 0.78367 0.28199 0.0
H1212 H 0.07644 0.81535 0.29398 0.0
H1213 H 0.07859 0.85398 0.3338 0.0
H1214 H 0.05459 0.84685 0.3508 0.0
H1215 H 0.08535 0.71624 0.33929 0.0
H1216 H 0.076 0.69346 0.30591 0.0
H1217 H 0.98627 0.8791 0.31648 0.0
H1218 H 0.94919 0.79536 0.32303 0.0
C1219 C 0.77323 0.99013 0.34471 0.0
C1220 C 0.78321 0.01325 0.35084 0.0
C1221 C 0.78347 0.04127 0.34488 0.0
C1222 C 0.77415 0.03385 0.3353 0.0
N1223 N 0.76826 1.00278 0.33489 0.0
Co1224 Co 0.75771 0.98057 0.3219 0.0
N1225 N 0.76718 0.01523 0.31201 0.0
C1226 C 0.77188 0.04553 0.31495 0.0
C1227 C 0.77776 0.0644 0.30637 0.0
C1228 C 0.77645 0.04476 0.2975 0.0
C1229 C 0.76979 0.01489 0.30117 0.0
N1230 N 0.74737 0.95749 0.30908 0.0
C1231 C 0.75195 0.96154 0.29854 0.0
C1232 C 0.74034 0.94101 0.29217 0.0
C1233 C 0.72797 0.9238 0.29899 0.0
C1234 C 0.73268 0.93473 0.30909 0.0
N1235 N 0.74736 0.94636 0.33165 0.0
C1236 C 0.73182 0.92619 0.32938 0.0
C1237 C 0.72574 0.908 0.33803 0.0
C1238 C 0.73823 0.91734 0.34629 0.0
C1239 C 0.75159 0.94038 0.34213 0.0
N1240 N 0.73131 0.00394 0.32325 0.0
C1241 C 0.69723 0.04602 0.3255 0.0
C1242 C 0.70669 0.03145 0.33448 0.0
C1243 C 0.7234 0.01048 0.33319 0.0
C1244 C 0.70503 0.03791 0.31532 0.0
C1245 C 0.72192 0.01702 0.31438 0.0
N1246 N 0.78465 0.9589 0.32067 0.0
C1247 C 0.80715 0.91224 0.3211 0.0
C1248 C 0.82459 0.93229 0.32141 0.0
C1249 C 0.82135 0.96558 0.32075 0.0
C1250 C 0.80166 0.97817 0.32054 0.0
C1251 C 0.78727 0.92606 0.32071 0.0
H1252 H 0.80045 0.00394 0.32066 0.0
H1253 H 0.77408 0.91033 0.32073 0.0
H1254 H 0.73035 1.00042 0.34032 0.0
H1255 H 0.72771 0.01225 0.30643 0.0
C1256 C 0.77462 0.05289 0.3259 0.0
C1257 C 0.76733 0.95718 0.34848 0.0
C1258 C 0.76518 0.98708 0.29421 0.0
C1259 C 0.72531 0.92202 0.31877 0.0
H1260 H 0.79012 0.01039 0.35868 0.0
H1261 H 0.79081 0.06376 0.34702 0.0
H1262 H 0.7833 0.089 0.30658 0.0
H1263 H 0.78007 0.05161 0.28932 0.0
H1264 H 0.74032 0.93934 0.28349 0.0
H1265 H 0.71704 0.9053 0.29684 0.0
H1266 H 0.71395 0.88968 0.33827 0.0
H1267 H 0.73734 0.90838 0.35446 0.0
H1268 H 0.70172 0.03684 0.34257 0.0
H1269 H 0.69823 0.04765 0.30807 0.0
H1270 H 0.80877 0.88627 0.32153 0.0
H1271 H 0.8341 0.98229 0.32065 0.0
C1272 C 1.00295 0.5675 0.09095 0.0
C1273 C 0.98868 0.58992 0.09453 0.0
C1274 C 0.97646 0.5974 0.08593 0.0
C1275 C 0.98355 0.57873 0.07767 0.0
N1276 N 0.99943 0.5599 0.08051 0.0
Co1277 Co 1.01131 0.52546 0.07144 0.0
N1278 N 1.00112 0.54623 0.05804 0.0
C1279 C 0.98625 0.56865 0.05751 0.0
C1280 C 0.98218 0.57877 0.04722 0.0
C1281 C 0.99508 0.56129 0.04083 0.0
C1282 C 1.00629 0.54122 0.04762 0.0
N1283 N 0.0226 0.4906 0.0623 0.0
C1284 C 0.02517 0.4892 0.05146 0.0
C1285 C 0.0327 0.45925 0.04847 0.0
C1286 C 0.03466 0.44134 0.05774 0.0
C1287 C 0.02821 0.46121 0.06587 0.0
N1288 N 0.0217 0.50574 0.08499 0.0
C1289 C 0.02861 0.47529 0.08601 0.0
C1290 C 0.03823 0.47011 0.09567 0.0
C1291 C 0.0371 0.4989 0.10106 0.0
C1292 C 0.02618 0.52018 0.09457 0.0
N1293 N 0.98551 0.50001 0.07267 0.0
C1294 C 0.9519 0.45631 0.07462 0.0
C1295 C 0.96059 0.47171 0.08366 0.0
C1296 C 0.97706 0.49343 0.08251 0.0
C1297 C 0.96037 0.4643 0.06456 0.0
C1298 C 0.97697 0.4859 0.06377 0.0
N1299 N 0.0375 0.54924 0.07017 0.0
C1300 C 0.07441 0.54624 0.06984 0.0
C1301 C 0.07612 0.5792 0.06766 0.0
C1302 C 0.05793 0.59733 0.06706 0.0
C1303 C 0.03872 0.58181 0.06828 0.0
C1304 C 0.05526 0.53196 0.07111 0.0
H1305 H 0.0249 0.59593 0.06755 0.0
H1306 H 0.05501 0.50653 0.07273 0.0
H1307 H 0.98333 0.50424 0.08967 0.0
H1308 H 0.98317 0.49051 0.05588 0.0
C1309 C 0.97791 0.58171 0.06687 0.0
C1310 C 1.01901 0.55302 0.09777 0.0
C1311 C 1.01915 0.51462 0.04374 0.0
C1312 C 0.03038 0.45537 0.07694 0.0
H1313 H 0.9871 0.59981 0.10252 0.0
H1314 H 0.96425 0.615 0.08568 0.0
H1315 H 0.97126 0.59687 0.04465 0.0
H1316 H 0.99562 0.56236 0.03214 0.0
H1317 H 0.03623 0.45113 0.04042 0.0
H1318 H 0.04067 0.41711 0.05847 0.0
H1319 H 0.04657 0.4488 0.09816 0.0
H1320 H 0.04434 0.50351 0.1087 0.0
H1321 H 0.95514 0.46652 0.09169 0.0
H1322 H 0.95425 0.45401 0.05725 0.0
H1323 H 0.08795 0.53127 0.07047 0.0
H1324 H 0.0585 0.62294 0.06534 0.0
C1325 C 0.28977 0.69037 0.09134 0.0
C1326 C 0.30441 0.66881 0.09514 0.0
C1327 C 0.3168 0.66144 0.08662 0.0
C1328 C 0.30933 0.67921 0.07816 0.0
N1329 N 0.29304 0.69731 0.08082 0.0
Co1330 Co 0.27982 0.72963 0.07134 0.0
N1331 N 0.29012 0.70786 0.05823 0.0
C1332 C 0.30597 0.68718 0.05788 0.0
C1333 C 0.31021 0.67664 0.04768 0.0
C1334 C 0.2963 0.69195 0.04118 0.0
C1335 C 0.28431 0.71108 0.04782 0.0
N1336 N 0.26704 0.7623 0.06175 0.0
C1337 C 0.26356 0.76158 0.05098 0.0
C1338 C 0.25468 0.79019 0.04752 0.0
C1339 C 0.25282 0.80948 0.05643 0.0
C1340 C 0.26062 0.79165 0.06483 0.0
N1341 N 0.26952 0.7505 0.08462 0.0
C1342 C 0.26196 0.78064 0.0852 0.0
C1343 C 0.253 0.78668 0.09496 0.0
C1344 C 0.25519 0.75876 0.10085 0.0
C1345 C 0.26596 0.73715 0.09449 0.0
N1346 N 0.30496 0.75672 0.07177 0.0
C1347 C 0.33974 0.79777 0.07182 0.0
C1348 C 0.33155 0.78556 0.08147 0.0
C1349 C 0.31432 0.76487 0.08127 0.0
C1350 C 0.32997 0.78907 0.06222 0.0
C1351 C 0.31271 0.76902 0.06237 0.0
N1352 N 0.2544 0.70379 0.07077 0.0
C1353 C 0.21737 0.70253 0.07112 0.0
C1354 C 0.21706 0.66941 0.06894 0.0
C1355 C 0.23612 0.65377 0.06788 0.0
C1356 C 0.25454 0.67131 0.06885 0.0
C1357 C 0.23597 0.71906 0.07197 0.0
H1358 H 0.2689 0.65875 0.06793 0.0
H1359 H 0.23528 0.74457 0.07344 0.0
H1360 H 0.30857 0.7555 0.0888 0.0
H1361 H 0.30561 0.76369 0.05478 0.0
C1362 C 0.31496 0.67573 0.06737 0.0
C1363 C 0.27364 0.70488 0.09802 0.0
C1364 C 0.26957 0.73499 0.04381 0.0
C1365 C 0.25897 0.79903 0.0758 0.0
H1366 H 0.3061 0.65945 0.10323 0.0
H1367 H 0.32934 0.6444 0.08654 0.0
H1368 H 0.32185 0.6596 0.04526 0.0
H1369 H 0.29553 0.69006 0.03251 0.0
H1370 H 0.25009 0.7965 0.03941 0.0
H1371 H 0.2459 0.83316 0.05679 0.0
H1372 H 0.2444 0.80789 0.09724 0.0
H1373 H 0.24878 0.75487 0.10875 0.0
H1374 H 0.33869 0.79128 0.08908 0.0
H1375 H 0.33562 0.79788 0.05456 0.0
H1376 H 0.20329 0.71606 0.07185 0.0
H1377 H 0.23686 0.62813 0.06631 0.0
C1378 C 1.00101 0.6786 0.16867 0.0
C1379 C 0.98873 0.65243 0.16606 0.0
C1380 C 0.97873 0.64366 0.17529 0.0
C1381 C 0.98517 0.66524 0.18292 0.0
N1382 N 0.99842 0.68726 0.17904 0.0
Co1383 Co 1.00931 0.72499 0.18697 0.0
N1384 N 1.00228 0.70527 0.20102 0.0
C1385 C 0.99265 0.67689 0.20256 0.0
C1386 C 0.99586 0.66418 0.21261 0.0
C1387 C 1.00778 0.68637 0.2178 0.0
C1388 C 1.01032 0.71226 0.21076 0.0
N1389 N 1.01909 0.76364 0.19509 0.0
C1390 C 1.01937 0.76965 0.20591 0.0
C1391 C 0.02316 0.80213 0.20779 0.0
C1392 C 0.02544 0.81669 0.19792 0.0
C1393 C 0.02262 0.79266 0.19052 0.0
N1394 N 1.01733 0.7431 0.17271 0.0
C1395 C 0.02241 0.77394 0.17074 0.0
C1396 C 0.02944 0.77854 0.16043 0.0
C1397 C 0.02873 0.74865 0.15564 0.0
C1398 C 0.02113 0.72738 0.16329 0.0
N1399 N 0.98204 0.74641 0.18591 0.0
C1400 C 0.94869 0.7904 0.18332 0.0
C1401 C 0.95603 0.7714 0.17473 0.0
C1402 C 0.97262 0.75007 0.17615 0.0
C1403 C 0.95754 0.78418 0.19346 0.0
C1404 C 0.97369 0.76186 0.1946 0.0
N1405 N 0.03689 0.7051 0.18794 0.0
C1406 C 0.07359 0.71264 0.188 0.0
C1407 C 0.07698 0.67981 0.18997 0.0
C1408 C 0.05975 0.65956 0.19056 0.0
C1409 C 0.03986 0.67269 0.18961 0.0
C1410 C 0.0537 0.7246 0.18691 0.0
H1411 H 0.02694 0.65665 0.19033 0.0
H1412 H 0.05205 0.74994 0.18528 0.0
H1413 H 0.97832 0.73743 0.1692 0.0
H1414 H 0.97999 0.75841 0.2025 0.0
C1415 C 0.98343 0.66073 0.194 0.0
C1416 C 1.01607 0.69303 0.16136 0.0
C1417 C 1.01429 0.7456 0.2144 0.0
C1418 C 0.02382 0.79596 0.17927 0.0
H1419 H 0.98785 0.64007 0.15842 0.0
H1420 H 0.96913 0.62266 0.17647 0.0
H1421 H 0.99052 0.64127 0.21575 0.0
H1422 H 1.01246 0.68503 0.22615 0.0
H1423 H 0.02354 0.81458 0.21538 0.0
H1424 H 0.02842 0.84197 0.19635 0.0
H1425 H 0.03536 0.80062 0.15695 0.0
H1426 H 0.03341 0.74337 0.14751 0.0
H1427 H 0.9494 0.77312 0.16679 0.0
H1428 H 0.95274 0.7972 0.20053 0.0
H1429 H 0.08635 0.72922 0.18732 0.0
H1430 H 0.06158 0.63397 0.19208 0.0
C1431 C 0.2906 0.57303 0.16947 0.0
C1432 C 0.30515 0.59652 0.16721 0.0
C1433 C 0.3174 0.59879 0.17613 0.0
C1434 C 0.3098 0.5764 0.18325 0.0
N1435 N 0.29362 0.56019 0.17936 0.0
Co1436 Co 0.2794 0.524 0.18663 0.0
N1437 N 0.28933 0.53795 0.20097 0.0
C1438 C 0.30527 0.55794 0.20269 0.0
C1439 C 0.3094 0.56256 0.21338 0.0
C1440 C 0.29542 0.54396 0.21875 0.0
C1441 C 0.28344 0.52887 0.211 0.0
N1442 N 0.26549 0.48738 0.19393 0.0
C1443 C 0.26177 0.48201 0.20455 0.0
C1444 C 0.25199 0.45257 0.20602 0.0
C1445 C 0.25 0.43891 0.19603 0.0
C1446 C 0.25855 0.46068 0.18899 0.0
N1447 N 0.26954 0.51102 0.17214 0.0
C1448 C 0.26186 0.48198 0.16958 0.0
C1449 C 0.2542 0.48129 0.15928 0.0
C1450 C 0.25728 0.51177 0.15515 0.0
C1451 C 0.26693 0.52948 0.16313 0.0
N1452 N 0.30413 0.49641 0.18497 0.0
C1453 C 0.33708 0.45205 0.18217 0.0
C1454 C 0.33107 0.47376 0.17395 0.0
C1455 C 0.3146 0.49526 0.17545 0.0
C1456 C 0.32639 0.45431 0.19195 0.0
C1457 C 0.31035 0.4766 0.19321 0.0
N1458 N 0.25435 0.55039 0.18827 0.0
C1459 C 0.21742 0.5538 0.18719 0.0
C1460 C 0.21755 0.58631 0.19027 0.0
C1461 C 0.23686 0.60039 0.19229 0.0
C1462 C 0.25497 0.58206 0.1913 0.0
C1463 C 0.23573 0.5366 0.18618 0.0
H1464 H 0.26948 0.59349 0.19295 0.0
H1465 H 0.23465 0.51185 0.1837 0.0
H1466 H 0.31016 0.5107 0.16883 0.0
H1467 H 0.30267 0.47708 0.20086 0.0
C1468 C 0.31479 0.57407 0.19415 0.0
C1469 C 0.2744 0.56311 0.16199 0.0
C1470 C 0.26893 0.50267 0.21346 0.0
C1471 C 0.25772 0.45922 0.1777 0.0
H1472 H 0.30663 0.61071 0.15992 0.0
H1473 H 0.32974 0.61573 0.17743 0.0
H1474 H 0.32113 0.5777 0.21686 0.0
H1475 H 0.29476 0.54096 0.22739 0.0
H1476 H 0.24708 0.44187 0.21354 0.0
H1477 H 0.24271 0.4162 0.19412 0.0
H1478 H 0.24602 0.46171 0.15547 0.0
H1479 H 0.25244 0.51985 0.14729 0.0
H1480 H 0.3389 0.47436 0.1663 0.0
H1481 H 0.32985 0.43839 0.19862 0.0
H1482 H 0.20321 0.54117 0.18573 0.0
H1483 H 0.23813 0.62549 0.19453 0.0
C1484 C 1.01774 0.47708 0.91318 0.0
C1485 C 1.00384 0.49075 0.90607 0.0
C1486 C 0.99258 0.51245 0.91181 0.0
C1487 C 1.00006 0.51075 0.9221 0.0
N1488 N 1.01575 0.48993 0.92326 0.0
Co1489 Co 0.02878 0.47752 0.9374 0.0
N1490 N 1.01348 0.51129 0.9456 0.0
C1491 C 0.99812 0.52955 0.9417 0.0
C1492 C 0.9898 0.54993 0.94918 0.0
C1493 C 1.00036 0.54393 0.95848 0.0
C1494 C 1.01455 0.52012 0.95614 0.0
N1495 N 0.04186 0.46466 0.9514 0.0
C1496 C 0.04104 0.47843 0.96131 0.0
C1497 C 0.05283 0.46144 0.96871 0.0
C1498 C 0.06124 0.43612 0.96335 0.0
C1499 C 0.05414 0.43895 0.95302 0.0
N1500 N 0.04422 0.44381 0.92926 0.0
C1501 C 0.0573 0.42199 0.93346 0.0
C1502 C 0.06736 0.40401 0.92591 0.0
C1503 C 0.05989 0.41449 0.91627 0.0
C1504 C 0.04535 0.43791 0.91853 0.0
N1505 N 0.05139 0.5092 0.93487 0.0
C1506 C 0.08191 0.55836 0.93403 0.0
C1507 C 0.08682 0.52642 0.93688 0.0
C1508 C 0.07145 0.50239 0.93726 0.0
C1509 C 0.06155 0.5644 0.93104 0.0
C1510 C 0.04676 0.53985 0.93149 0.0
N1511 N 1.00555 0.4472 0.9401 0.0
C1512 C 0.97688 0.43378 0.95163 0.0
C1513 C 0.96538 0.4222 0.9429 0.0
C1514 C 0.97561 0.41997 0.93299 0.0
C1515 C 0.99568 0.43183 0.93185 0.0
C1516 C 0.99668 0.44601 0.95007 0.0
H1517 H 1.00259 0.42984 0.9241 0.0
H1518 H 1.00422 0.45604 0.95692 0.0
H1519 H 0.07589 0.47861 0.9398 0.0
H1520 H 0.03139 0.54629 0.92938 0.0
C1521 C 0.99246 0.52773 0.9309 0.0
C1522 C 0.03048 0.44889 0.91046 0.0
C1523 C 0.02739 0.50481 0.96442 0.0
C1524 C 0.06063 0.42017 0.94447 0.0
H1525 H 1.00135 0.48476 0.89773 0.0
H1526 H 0.97995 0.52695 0.9089 0.0
H1527 H 0.97748 0.56703 0.94803 0.0
H1528 H 0.99766 0.55523 0.96618 0.0
H1529 H 0.05488 0.4664 0.97718 0.0
H1530 H 0.0716 0.41811 0.96655 0.0
H1531 H 0.07868 0.38537 0.92726 0.0
H1532 H 0.06379 0.40473 0.90848 0.0
H1533 H 0.10227 0.52021 0.93925 0.0
H1534 H 0.05685 0.5883 0.9285 0.0
H1535 H 0.97053 0.43441 0.95966 0.0
H1536 H 0.96799 0.41057 0.92594 0.0
C1537 C 0.77516 0.28261 0.91246 0.0
C1538 C 0.7858 0.26668 0.90442 0.0
C1539 C 0.78979 0.23609 0.90821 0.0
C1540 C 0.78177 0.23492 0.91841 0.0
N1541 N 0.77304 0.26297 0.92122 0.0
Co1542 Co 0.76248 0.2733 0.93577 0.0
N1543 N 0.77806 0.23811 0.94287 0.0
C1544 C 0.78727 0.21361 0.93771 0.0
C1545 C 0.80106 0.19788 0.94417 0.0
C1546 C 0.8001 0.21304 0.95395 0.0
C1547 C 0.7849 0.23645 0.95323 0.0
N1548 N 0.75125 0.28386 0.95007 0.0
C1549 C 0.75654 0.27247 0.95992 0.0
C1550 C 0.74071 0.27765 0.96721 0.0
C1551 C 0.72575 0.29439 0.96187 0.0
C1552 C 0.73278 0.29752 0.95155 0.0
N1553 N 0.74701 0.30867 0.92888 0.0
C1554 C 0.72962 0.32154 0.93268 0.0
C1555 C 0.7213 0.34406 0.92583 0.0
C1556 C 0.73431 0.34526 0.91718 0.0
C1557 C 0.74999 0.3235 0.91929 0.0
N1558 N 0.7391 0.24329 0.93353 0.0
C1559 C 0.70615 0.19922 0.93035 0.0
C1560 C 0.71137 0.22278 0.92257 0.0
C1561 C 0.72789 0.24403 0.92423 0.0
C1562 C 0.71799 0.19881 0.9398 0.0
C1563 C 0.73409 0.22092 0.94125 0.0
N1564 N 0.78632 0.30207 0.93793 0.0
C1565 C 0.80248 0.35224 0.94317 0.0
C1566 C 0.82208 0.34013 0.94054 0.0
C1567 C 0.82299 0.30851 0.93668 0.0
C1568 C 0.80525 0.29041 0.93532 0.0
C1569 C 0.78482 0.33279 0.94184 0.0
H1570 H 0.80714 0.2666 0.93217 0.0
H1571 H 0.77001 0.3425 0.94392 0.0
H1572 H 0.73159 0.26112 0.91795 0.0
H1573 H 0.74262 0.21954 0.94866 0.0
C1574 C 0.78748 0.21265 0.9264 0.0
C1575 C 0.76654 0.31573 0.9117 0.0
C1576 C 0.77568 0.25484 0.96241 0.0
C1577 C 0.72311 0.31439 0.94316 0.0
H1578 H 0.79103 0.27605 0.8968 0.0
H1579 H 0.79909 0.21795 0.90433 0.0
H1580 H 0.8121 0.17986 0.94176 0.0
H1581 H 0.81057 0.20827 0.96046 0.0
H1582 H 0.73972 0.2695 0.97547 0.0
H1583 H 0.71137 0.30286 0.96511 0.0
H1584 H 0.70765 0.35833 0.92706 0.0
H1585 H 0.73232 0.36005 0.91006 0.0
H1586 H 0.70276 0.22521 0.91519 0.0
H1587 H 0.71522 0.18115 0.94606 0.0
H1588 H 0.80069 0.37657 0.94614 0.0
H1589 H 0.83743 0.2971 0.93483 0.0
C1590 C 1.01702 0.28053 0.84208 0.0
C1591 C 1.00566 0.26022 0.84871 0.0
C1592 C 1.00332 0.23161 0.84334 0.0
C1593 C 1.01275 0.23604 0.8336 0.0
N1594 N 0.02072 0.26582 0.83248 0.0
Co1595 Co 0.03205 0.28419 0.8189 0.0
N1596 N 1.0202 0.24935 0.80987 0.0
C1597 C 1.0133 0.2208 0.8136 0.0
C1598 C 1.00665 0.20072 0.80557 0.0
C1599 C 1.00985 0.21746 0.79618 0.0
C1600 C 1.01834 0.24695 0.799 0.0
N1601 N 0.04314 0.30353 0.80541 0.0
C1602 C 0.03861 0.29757 0.79494 0.0
C1603 C 0.0505 0.31659 0.78814 0.0
C1604 C 0.06314 0.33443 0.79455 0.0
C1605 C 0.05828 0.32552 0.80486 0.0
N1606 N 0.04449 0.31857 0.82788 0.0
C1607 C 0.06052 0.337 0.82495 0.0
C1608 C 0.06773 0.35609 0.83308 0.0
C1609 C 0.05548 0.34932 0.84171 0.0
C1610 C 0.04111 0.32679 0.83829 0.0
N1611 N 0.05718 0.25755 0.82061 0.0
C1612 C 0.08891 0.21152 0.82327 0.0
C1613 C 0.08198 0.22049 0.81301 0.0
C1614 C 0.06608 0.24315 0.81186 0.0
C1615 C 0.08024 0.22735 0.83213 0.0
C1616 C 0.06475 0.25055 0.83063 0.0
N1617 N 1.00657 0.30951 0.81724 0.0
C1618 C 0.98824 0.35949 0.81422 0.0
C1619 C 0.96919 0.34376 0.81529 0.0
C1620 C 0.96953 0.31052 0.81733 0.0
C1621 C 0.98813 0.29408 0.81827 0.0
C1622 C 1.00669 0.342 0.81523 0.0
H1623 H 0.98742 0.2686 0.81982 0.0
H1624 H 0.02103 0.3547 0.81441 0.0
H1625 H 0.06053 0.24795 0.80386 0.0
H1626 H 0.0584 0.26195 0.83766 0.0
C1627 C 1.01051 0.21587 0.82466 0.0
C1628 C 0.02529 0.31258 0.8453 0.0
C1629 C 0.02584 0.2708 0.79108 0.0
C1630 C 0.06638 0.33907 0.81419 0.0
H1631 H 0.99922 0.2654 0.85651 0.0
H1632 H 0.99454 0.21087 0.84596 0.0
H1633 H 0.99978 0.17709 0.80645 0.0
H1634 H 1.00652 0.20883 0.78817 0.0
H1635 H 0.05064 0.31664 0.77944 0.0
H1636 H 0.07449 0.35186 0.79199 0.0
H1637 H 0.0801 0.37342 0.83272 0.0
H1638 H 0.05722 0.35964 0.84962 0.0
H1639 H 0.08808 0.20886 0.80592 0.0
H1640 H 0.08519 0.22146 0.84022 0.0
H1641 H 0.98898 0.38521 0.81272 0.0
H1642 H 0.95547 0.29686 0.81801 0.0
C1643 C 0.77632 0.48828 0.84375 0.0
C1644 C 0.78645 0.50977 0.85046 0.0
C1645 C 0.78764 0.53863 0.84505 0.0
C1646 C 0.7788 0.53323 0.83522 0.0
N1647 N 0.77234 0.50259 0.83407 0.0
Co1648 Co 0.76224 0.48319 0.82042 0.0
N1649 N 0.7727 0.5195 0.81145 0.0
C1650 C 0.77815 0.54871 0.8152 0.0
C1651 C 0.78425 0.56953 0.80721 0.0
C1652 C 0.78222 0.55255 0.79782 0.0
C1653 C 0.77488 0.5222 0.80061 0.0
N1654 N 0.75234 0.46298 0.80688 0.0
C1655 C 0.75684 0.46966 0.79644 0.0
C1656 C 0.7459 0.44964 0.78958 0.0
C1657 C 0.73393 0.43031 0.79591 0.0
C1658 C 0.7382 0.43943 0.80625 0.0
N1659 N 0.75118 0.4473 0.82934 0.0
C1660 C 0.73608 0.4272 0.82631 0.0
C1661 C 0.72935 0.40745 0.83442 0.0
C1662 C 0.74091 0.41556 0.84316 0.0
C1663 C 0.75446 0.43951 0.83982 0.0
N1664 N 0.73599 0.50699 0.82191 0.0
C1665 C 0.70311 0.55101 0.82443 0.0
C1666 C 0.71074 0.54335 0.81422 0.0
C1667 C 0.7271 0.52153 0.81314 0.0
C1668 C 0.71156 0.53443 0.83328 0.0
C1669 C 0.72771 0.51244 0.83185 0.0
N1670 N 0.78888 0.46088 0.81893 0.0
C1671 C 0.81004 0.41404 0.81535 0.0
C1672 C 0.82793 0.43288 0.81598 0.0
C1673 C 0.82571 0.46555 0.81843 0.0
C1674 C 0.80635 0.47885 0.81992 0.0
C1675 C 0.79061 0.42858 0.81678 0.0
H1676 H 0.80568 0.5041 0.82174 0.0
H1677 H 0.77704 0.4139 0.81601 0.0
H1678 H 0.73311 0.5177 0.80519 0.0
H1679 H 0.73405 0.50084 0.83889 0.0
C1680 C 0.78034 0.55378 0.82627 0.0
C1681 C 0.76932 0.45543 0.84698 0.0
C1682 C 0.76865 0.49771 0.79268 0.0
C1683 C 0.73054 0.42476 0.81552 0.0
H1684 H 0.79282 0.50528 0.85834 0.0
H1685 H 0.7953 0.56033 0.84772 0.0
H1686 H 0.79007 0.59383 0.8081 0.0
H1687 H 0.78555 0.5616 0.78984 0.0
H1688 H 0.74589 0.44978 0.78087 0.0
H1689 H 0.7234 0.41178 0.79328 0.0
H1690 H 0.71769 0.38895 0.834 0.0
H1691 H 0.73922 0.40522 0.85111 0.0
H1692 H 0.70486 0.55539 0.80711 0.0
H1693 H 0.706 0.53892 0.84134 0.0
H1694 H 0.811 0.38862 0.81344 0.0
H1695 H 0.83901 0.48103 0.81911 0.0
H1696 H 0.53806 0.09083 0.10874 0.0
H1697 H 0.47435 0.06215 0.10759 0.0
H1698 H 0.46774 0.09201 0.12437 0.0
H1699 H 0.54159 0.08228 0.13882 0.0
H1700 H 0.55923 0.11551 0.14001 0.0
H1701 H 0.55909 0.09127 0.12801 0.0
H1702 H 0.55379 0.14296 0.11659 0.0
H1703 H 0.55336 0.16727 0.12856 0.0
H1704 H 0.53218 0.16868 0.11929 0.0
H1705 H 0.46671 0.13276 0.13903 0.0
H1706 H 0.47297 0.16709 0.15484 0.0
H1707 H 0.53827 0.16227 0.14905 0.0
C1708 C 0.52289 0.0902 0.11222 0.0
C1709 C 0.50656 0.07478 0.10679 0.0
C1710 C 0.48695 0.07412 0.1116 0.0
C1711 C 0.48303 0.09126 0.12105 0.0
C1712 C 0.49909 0.10783 0.12589 0.0
C1713 C 0.51884 0.10623 0.12197 0.0
C1714 C 0.53339 0.1249 0.12923 0.0
C1715 C 0.54926 0.10213 0.13432 0.0
C1716 C 0.54379 0.15259 0.12304 0.0
C1717 C 0.5186 0.13781 0.13763 0.0
C1718 C 0.49884 0.12834 0.13529 0.0
C1719 C 0.48219 0.13932 0.1412 0.0
C1720 C 0.48588 0.15895 0.15012 0.0
C1721 C 0.50611 0.16621 0.15342 0.0
C1722 C 0.52268 0.1564 0.14686 0.0
H1723 H 0.7535 0.09791 0.15034 0.0
H1724 H 0.81909 0.08855 0.15427 0.0
H1725 H 0.8246 0.12364 0.13845 0.0
H1726 H 0.7561 0.09362 0.12056 0.0
H1727 H 0.73494 0.1209 0.11864 0.0
H1728 H 0.73613 0.09588 0.13052 0.0
H1729 H 0.73307 0.14697 0.14231 0.0
H1730 H 0.73241 0.17219 0.13046 0.0
H1731 H 0.75141 0.17914 0.1407 0.0
H1732 H 0.82322 0.16428 0.12351 0.0
H1733 H 0.8156 0.19501 0.10691 0.0
H1734 H 0.75123 0.17265 0.11045 0.0
C1735 C 0.76898 0.10303 0.14777 0.0
C1736 C 0.78591 0.09147 0.1538 0.0
C1737 C 0.80593 0.09791 0.14998 0.0
C1738 C 0.80921 0.11796 0.14103 0.0
C1739 C 0.7923 0.13046 0.13561 0.0
C1740 C 0.77257 0.12222 0.13852 0.0
C1741 C 0.75728 0.13688 0.13063 0.0
C1742 C 0.74541 0.11024 0.12474 0.0
C1743 C 0.74268 0.16017 0.13637 0.0
C1744 C 0.7715 0.15503 0.12299 0.0
C1745 C 0.7916 0.15159 0.12625 0.0
C1746 C 0.80758 0.16677 0.1208 0.0
C1747 C 0.80309 0.18455 0.11146 0.0
C1748 C 0.78287 0.18639 0.10743 0.0
C1749 C 0.76678 0.17201 0.11342 0.0
H1750 H 0.55157 0.83274 0.86073 0.0
H1751 H 0.48705 0.82831 0.85306 0.0
H1752 H 0.47918 0.85952 0.86958 0.0
H1753 H 0.54818 0.8311 0.88982 0.0
H1754 H 0.56835 0.86028 0.89151 0.0
H1755 H 0.56829 0.83421 0.87995 0.0
H1756 H 0.56977 0.88427 0.8674 0.0
H1757 H 0.56965 0.91051 0.87891 0.0
H1758 H 0.5505 0.91514 0.86858 0.0
H1759 H 0.47897 0.89272 0.88714 0.0
H1760 H 0.48645 0.92462 0.90357 0.0
H1761 H 0.55133 0.91455 0.89754 0.0
C1762 C 0.53577 0.83829 0.86255 0.0
C1763 C 0.5199 0.82858 0.85555 0.0
C1764 C 0.49941 0.83569 0.85831 0.0
C1765 C 0.49485 0.85352 0.86763 0.0
C1766 C 0.511 0.86433 0.87405 0.0
C1767 C 0.53107 0.85705 0.87155 0.0
C1768 C 0.54581 0.87336 0.8792 0.0
C1769 C 0.5584 0.84823 0.88549 0.0
C1770 C 0.55975 0.89724 0.87316 0.0
C1771 C 0.53098 0.89082 0.88648 0.0
C1772 C 0.51093 0.88497 0.88353 0.0
C1773 C 0.49463 0.89748 0.88946 0.0
C1774 C 0.49898 0.91569 0.89874 0.0
C1775 C 0.51943 0.92153 0.90192 0.0
C1776 C 0.53553 0.90989 0.89543 0.0
H1777 H 0.27434 0.89102 0.85285 0.0
H1778 H 0.26758 0.98416 0.8682 0.0
H1779 H 0.27339 0.95864 0.88587 0.0
H1780 H 0.24028 0.85614 0.87209 0.0
H1781 H 0.25178 0.81665 0.87164 0.0
H1782 H 0.25308 0.84281 0.86007 0.0
H1783 H 0.29254 0.83744 0.86008 0.0
H1784 H 0.29135 0.81165 0.87178 0.0
H1785 H 0.30675 0.84773 0.87201 0.0
H1786 H 0.28048 0.92227 0.90203 0.0
H1787 H 0.27698 0.87925 0.91566 0.0
H1788 H 0.26625 0.80964 0.89031 0.0
C1789 C 0.27439 0.90624 0.8599 0.0
C1790 C 0.27176 0.94022 0.85892 0.0
C1791 C 0.27112 0.95867 0.86849 0.0
C1792 C 0.2741 0.94421 0.87864 0.0
C1793 C 0.27645 0.91077 0.87927 0.0
C1794 C 0.27559 0.89188 0.87017 0.0
C1795 C 0.27376 0.85632 0.87319 0.0
C1796 C 0.25353 0.84215 0.869 0.0
C1797 C 0.2922 0.83715 0.86902 0.0
C1798 C 0.27396 0.85815 0.88542 0.0
C1799 C 0.27652 0.88971 0.8887 0.0
C1800 C 0.2781 0.89757 0.89954 0.0
C1801 C 0.27614 0.87285 0.90723 0.0
C1802 C 0.27149 0.84067 0.9042 0.0
C1803 C 0.27064 0.83332 0.89306 0.0
H1804 H 0.53345 0.59655 0.60912 0.0
H1805 H 0.46952 0.56977 0.60724 0.0
H1806 H 0.462 0.60382 0.62302 0.0
H1807 H 0.53471 0.59558 0.63927 0.0
H1808 H 0.55275 0.62844 0.63983 0.0
H1809 H 0.55299 0.6012 0.62858 0.0
H1810 H 0.5492 0.65011 0.61569 0.0
H1811 H 0.54822 0.67738 0.62692 0.0
H1812 H 0.52774 0.67698 0.61722 0.0
H1813 H 0.46061 0.6467 0.63719 0.0
H1814 H 0.46665 0.68255 0.65272 0.0
H1815 H 0.53201 0.67622 0.64738 0.0
C1816 C 0.51803 0.59715 0.61227 0.0
C1817 C 0.50199 0.58077 0.60695 0.0
C1818 C 0.48196 0.58211 0.61125 0.0
C1819 C 0.47753 0.60171 0.62011 0.0
C1820 C 0.49342 0.61902 0.62483 0.0
C1821 C 0.51342 0.61584 0.6214 0.0
C1822 C 0.52771 0.63584 0.62837 0.0
C1823 C 0.54294 0.61396 0.63437 0.0
C1824 C 0.53888 0.6616 0.62165 0.0
C1825 C 0.51255 0.65123 0.63607 0.0
C1826 C 0.4928 0.6418 0.63366 0.0
C1827 C 0.47603 0.65379 0.63928 0.0
C1828 C 0.47957 0.6745 0.64798 0.0
C1829 C 0.49973 0.68233 0.65121 0.0
C1830 C 0.51642 0.67112 0.64499 0.0
H1831 H 0.77171 0.56155 0.63961 0.0
H1832 H 0.76485 0.63208 0.66501 0.0
H1833 H 0.76106 0.67508 0.65138 0.0
H1834 H 0.79773 0.60612 0.62119 0.0
H1835 H 0.78422 0.59331 0.60931 0.0
H1836 H 0.78523 0.56734 0.62093 0.0
H1837 H 0.7457 0.56465 0.6215 0.0
H1838 H 0.74454 0.5902 0.60973 0.0
H1839 H 0.73111 0.60154 0.62179 0.0
H1840 H 0.76758 0.7108 0.63505 0.0
H1841 H 0.77406 0.73543 0.61736 0.0
H1842 H 0.76451 0.64267 0.6022 0.0
C1843 C 0.76808 0.58553 0.64238 0.0
C1844 C 0.76833 0.59308 0.65351 0.0
C1845 C 0.76474 0.62554 0.65659 0.0
C1846 C 0.7626 0.65022 0.64889 0.0
C1847 C 0.76302 0.64212 0.63803 0.0
C1848 C 0.76467 0.61038 0.63477 0.0
C1849 C 0.76432 0.60842 0.62255 0.0
C1850 C 0.78405 0.59288 0.61825 0.0
C1851 C 0.74528 0.59011 0.61866 0.0
C1852 C 0.76318 0.644 0.61951 0.0
C1853 C 0.76304 0.66306 0.62857 0.0
C1854 C 0.76621 0.69633 0.62786 0.0
C1855 C 0.76942 0.71042 0.61767 0.0
C1856 C 0.76824 0.69178 0.60814 0.0
C1857 C 0.76463 0.65806 0.60921 0.0
H1858 H 0.55367 0.41733 0.39768 0.0
H1859 H 0.4894 0.42505 0.40557 0.0
H1860 H 0.48075 0.39164 0.38963 0.0
H1861 H 0.54966 0.41516 0.36876 0.0
H1862 H 0.56947 0.38526 0.36739 0.0
H1863 H 0.5699 0.41263 0.37859 0.0
H1864 H 0.57104 0.36389 0.39172 0.0
H1865 H 0.57028 0.33636 0.38056 0.0
H1866 H 0.55133 0.33355 0.39104 0.0
H1867 H 0.47972 0.35704 0.3723 0.0
H1868 H 0.4865 0.32543 0.35572 0.0
H1869 H 0.55156 0.33258 0.36167 0.0
C1870 C 0.53776 0.41192 0.39606 0.0
C1871 C 0.5222 0.42328 0.40295 0.0
C1872 C 0.50155 0.41642 0.40041 0.0
C1873 C 0.49654 0.3973 0.39142 0.0
C1874 C 0.5124 0.38488 0.38515 0.0
C1875 C 0.53261 0.39187 0.38743 0.0
C1876 C 0.54696 0.37423 0.37993 0.0
C1877 C 0.55975 0.39826 0.37327 0.0
C1878 C 0.56071 0.3506 0.38619 0.0
C1879 C 0.53175 0.35642 0.37295 0.0
C1880 C 0.51184 0.36318 0.37592 0.0
C1881 C 0.49527 0.35135 0.37001 0.0
C1882 C 0.49921 0.33321 0.36066 0.0
C1883 C 0.51952 0.32672 0.35741 0.0
C1884 C 0.53586 0.33723 0.36397 0.0
H1885 H 0.27243 0.38941 0.35194 0.0
H1886 H 0.269 0.48301 0.36722 0.0
H1887 H 0.27696 0.45799 0.38464 0.0
H1888 H 0.24063 0.35675 0.37238 0.0
H1889 H 0.2513 0.3167 0.37177 0.0
H1890 H 0.25174 0.34231 0.36005 0.0
H1891 H 0.29102 0.33517 0.35881 0.0
H1892 H 0.2907 0.30983 0.37064 0.0
H1893 H 0.30677 0.34517 0.37023 0.0
H1894 H 0.28507 0.42218 0.40069 0.0
H1895 H 0.28166 0.38007 0.41465 0.0
H1896 H 0.26773 0.30963 0.39 0.0
C1897 C 0.27394 0.40482 0.35891 0.0
C1898 C 0.27197 0.4389 0.35787 0.0
C1899 C 0.2727 0.45762 0.36739 0.0
C1900 C 0.27672 0.44335 0.37746 0.0
C1901 C 0.27865 0.40987 0.37814 0.0
C1902 C 0.2763 0.39073 0.36917 0.0
C1903 C 0.27416 0.35537 0.37242 0.0
C1904 C 0.25321 0.342 0.36895 0.0
C1905 C 0.29171 0.33519 0.36775 0.0
C1906 C 0.27582 0.35762 0.38461 0.0
C1907 C 0.27935 0.38918 0.38765 0.0
C1908 C 0.28203 0.39748 0.3984 0.0
C1909 C 0.28015 0.37329 0.40628 0.0
C1910 C 0.2746 0.34125 0.40353 0.0
C1911 C 0.27274 0.33332 0.39247 0.0
H1912 H 0.02525 0.11645 0.60089 0.0
H1913 H 1.01865 0.02433 0.61716 0.0
H1914 H 0.02623 0.05019 0.63439 0.0
H1915 H 0.05862 0.16121 0.61927 0.0
H1916 H 0.04289 0.19691 0.61906 0.0
H1917 H 0.04363 0.17081 0.60751 0.0
H1918 H 1.00425 0.16454 0.60817 0.0
H1919 H 1.00339 0.19098 0.6196 0.0
H1920 H 0.99228 0.15123 0.62047 0.0
H1921 H 0.03503 0.08689 0.65011 0.0
H1922 H 0.03167 0.12998 0.66357 0.0
H1923 H 1.0186 0.19879 0.63805 0.0
C1924 C 0.02593 0.10147 0.60804 0.0
C1925 C 0.02334 0.0674 0.60732 0.0
C1926 C 0.023 0.04946 0.61707 0.0
C1927 C 0.02676 0.06428 0.62705 0.0
C1928 C 0.02933 0.09769 0.62739 0.0
C1929 C 0.02778 0.11624 0.61819 0.0
C1930 C 0.0258 0.15187 0.62103 0.0
C1931 C 0.04381 0.17135 0.61644 0.0
C1932 C 1.00521 0.16545 0.61709 0.0
C1933 C 0.02673 0.15043 0.63327 0.0
C1934 C 0.02983 0.11902 0.63668 0.0
C1935 C 0.03218 0.11145 0.64753 0.0
C1936 C 0.03031 0.13623 0.65512 0.0
C1937 C 0.02488 0.16812 0.65202 0.0
C1938 C 0.02345 0.1753 0.64084 0.0
H1939 H 0.27425 0.19885 0.61848 0.0
H1940 H 0.26481 0.13037 0.59266 0.0
H1941 H 0.26138 0.08651 0.60596 0.0
H1942 H 0.30141 0.15135 0.63599 0.0
H1943 H 0.28905 0.16347 0.64828 0.0
H1944 H 0.28955 0.19052 0.63691 0.0
H1945 H 0.25008 0.19467 0.63723 0.0
H1946 H 0.24945 0.16807 0.64875 0.0
H1947 H 0.23491 0.15836 0.63687 0.0
H1948 H 0.26826 0.0492 0.62171 0.0
H1949 H 0.27463 0.02224 0.63901 0.0
H1950 H 0.26855 0.1138 0.65539 0.0
C1951 C 0.27028 0.1751 0.6156 0.0
C1952 C 0.26966 0.16838 0.6044 0.0
C1953 C 0.26538 0.13629 0.60113 0.0
C1954 C 0.26349 0.11109 0.60865 0.0
C1955 C 0.26493 0.11825 0.61955 0.0
C1956 C 0.26725 0.14964 0.62307 0.0
C1957 C 0.2679 0.15038 0.63533 0.0
C1958 C 0.28819 0.16479 0.63936 0.0
C1959 C 0.24949 0.16897 0.63981 0.0
C1960 C 0.26645 0.11452 0.63806 0.0
C1961 C 0.26531 0.09643 0.62879 0.0
C1962 C 0.26764 0.06296 0.62908 0.0
C1963 C 0.27075 0.04757 0.63906 0.0
C1964 C 0.27024 0.06508 0.64884 0.0
C1965 C 0.26799 0.09924 0.64819 0.0
H1966 H 1.0166 0.86821 0.35162 0.0
H1967 H 0.02187 0.77572 0.36779 0.0
H1968 H 1.01628 0.80199 0.38518 0.0
H1969 H 0.0503 0.90368 0.37122 0.0
H1970 H 0.03897 0.94326 0.37039 0.0
H1971 H 0.03813 0.9168 0.35895 0.0
H1972 H 0.99871 0.92255 0.35838 0.0
H1973 H 0.99944 0.94862 0.36995 0.0
H1974 H 0.98391 0.91269 0.37017 0.0
H1975 H 1.00883 0.83844 0.40095 0.0
H1976 H 1.01183 0.88157 0.41442 0.0
H1977 H 0.02318 0.95111 0.38891 0.0
C1978 C 1.01611 0.85337 0.35881 0.0
C1979 C 1.01765 0.81917 0.35809 0.0
C1980 C 1.01843 0.80122 0.36783 0.0
C1981 C 1.01572 0.81615 0.37785 0.0
C1982 C 1.01369 0.84961 0.37821 0.0
C1983 C 1.01498 0.86818 0.369 0.0
C1984 C 1.01679 0.90383 0.37186 0.0
C1985 C 0.03727 0.91771 0.36787 0.0
C1986 C 0.99863 0.92306 0.36731 0.0
C1987 C 1.01602 0.90234 0.38411 0.0
C1988 C 1.01334 0.87084 0.38752 0.0
C1989 C 1.0113 0.86311 0.39837 0.0
C1990 C 1.01294 0.88789 0.40598 0.0
C1991 C 1.0176 0.92005 0.40286 0.0
C1992 C 1.01887 0.92732 0.39169 0.0
H1993 H 0.77027 0.80924 0.38922 0.0
H1994 H 0.77647 0.87692 0.41553 0.0
H1995 H 0.7792 0.92164 0.40242 0.0
H1996 H 0.81045 0.85164 0.37222 0.0
H1997 H 0.79739 0.84133 0.35994 0.0
H1998 H 0.79607 0.81461 0.37141 0.0
H1999 H 0.75653 0.81681 0.37059 0.0
H2000 H 0.75771 0.84387 0.35925 0.0
H2001 H 0.74383 0.85538 0.37114 0.0
H2002 H 0.773 0.95908 0.38634 0.0
H2003 H 0.76701 0.98528 0.36885 0.0
H2004 H 0.77741 0.89412 0.35283 0.0
C2005 C 0.77359 0.83295 0.39232 0.0
C2006 C 0.77362 0.83907 0.40355 0.0
C2007 C 0.77641 0.87138 0.40702 0.0
C2008 C 0.77799 0.89703 0.39962 0.0
C2009 C 0.77776 0.89014 0.38866 0.0
C2010 C 0.77653 0.85875 0.38502 0.0
C2011 C 0.77719 0.85799 0.37279 0.0
C2012 C 0.79643 0.84035 0.36886 0.0
C2013 C 0.75766 0.8426 0.36818 0.0
C2014 C 0.77821 0.89385 0.37015 0.0
C2015 C 0.77789 0.91202 0.37942 0.0
C2016 C 0.77466 0.94531 0.37902 0.0
C2017 C 0.77177 0.96032 0.36894 0.0
C2018 C 0.77332 0.94259 0.35923 0.0
C2019 C 0.77707 0.90885 0.36 0.0
H2020 H 1.01771 0.70169 0.13874 0.0
H2021 H 0.03293 0.63419 0.16429 0.0
H2022 H 0.03714 0.59108 0.15093 0.0
H2023 H 0.99193 0.65242 0.12168 0.0
H2024 H 1.00302 0.66578 0.10916 0.0
H2025 H 1.00229 0.69262 0.12049 0.0
H2026 H 0.0415 0.70039 0.11949 0.0
H2027 H 0.04233 0.6741 0.10798 0.0
H2028 H 0.05797 0.66552 0.11959 0.0
H2029 H 0.02848 0.55346 0.1355 0.0
H2030 H 0.02075 0.52651 0.11848 0.0
H2031 H 0.02496 0.61822 0.10173 0.0
C2032 C 0.02315 0.67849 0.14152 0.0
C2033 C 0.02488 0.67158 0.1527 0.0
C2034 C 0.03132 0.64019 0.15584 0.0
C2035 C 0.03366 0.61539 0.1483 0.0
C2036 C 0.03081 0.62251 0.13745 0.0
C2037 C 0.02693 0.65365 0.13398 0.0
C2038 C 0.02544 0.65451 0.12173 0.0
C2039 C 1.00442 0.66708 0.11806 0.0
C2040 C 0.04285 0.67484 0.11691 0.0
C2041 C 0.02803 0.61887 0.119 0.0
C2042 C 0.03036 0.60079 0.12826 0.0
C2043 C 0.02844 0.56726 0.12809 0.0
C2044 C 0.02461 0.55183 0.11823 0.0
C2045 C 0.02425 0.56933 0.10838 0.0
C2046 C 0.02617 0.60357 0.10893 0.0
H2047 H 0.27281 0.5565 0.13939 0.0
H2048 H 0.2628 0.62501 0.16513 0.0
H2049 H 0.25977 0.66886 0.15175 0.0
H2050 H 0.29993 0.60377 0.12185 0.0
H2051 H 0.28758 0.59124 0.1096 0.0
H2052 H 0.28818 0.56448 0.12103 0.0
H2053 H 0.2487 0.55998 0.12072 0.0
H2054 H 0.24798 0.58628 0.10914 0.0
H2055 H 0.23343 0.59617 0.12098 0.0
H2056 H 0.26681 0.70598 0.13585 0.0
H2057 H 0.27326 0.73239 0.11846 0.0
H2058 H 0.2669 0.64038 0.10238 0.0
C2059 C 0.26872 0.58021 0.14225 0.0
C2060 C 0.26779 0.58695 0.15344 0.0
C2061 C 0.26359 0.61909 0.15666 0.0
C2062 C 0.2619 0.64425 0.1491 0.0
C2063 C 0.26344 0.63696 0.13821 0.0
C2064 C 0.26579 0.60553 0.13475 0.0
C2065 C 0.26641 0.60447 0.1225 0.0
C2066 C 0.28673 0.59013 0.11852 0.0
C2067 C 0.24804 0.5856 0.11807 0.0
C2068 C 0.26486 0.64021 0.1197 0.0
C2069 C 0.26377 0.65855 0.12891 0.0
C2070 C 0.26614 0.69201 0.12852 0.0
C2071 C 0.26928 0.70709 0.11849 0.0
C2072 C 0.26874 0.68926 0.10878 0.0
C2073 C 0.26637 0.65517 0.10953 0.0
H2074 H 1.01879 0.37689 0.85029 0.0
H2075 H 0.02722 0.28341 0.86544 0.0
H2076 H 0.0229 0.30814 0.8832 0.0
H2077 H 0.05364 0.41247 0.86889 0.0
H2078 H 0.04153 0.45154 0.86887 0.0
H2079 H 0.03964 0.42605 0.85723 0.0
H2080 H 1.00016 0.42968 0.8581 0.0
H2081 H 1.00193 0.455 0.86982 0.0
H2082 H 0.98713 0.41833 0.87032 0.0
H2083 H 1.0171 0.34324 0.89948 0.0
H2084 H 1.02044 0.38555 0.91317 0.0
H2085 H 0.02712 0.45774 0.88801 0.0
C2086 C 1.01919 0.36147 0.85734 0.0
C2087 C 0.02166 0.32749 0.85626 0.0
C2088 C 0.02338 0.30875 0.8658 0.0
C2089 C 0.02138 0.32282 0.87602 0.0
C2090 C 1.01894 0.35617 0.87673 0.0
C2091 C 1.01877 0.37545 0.86766 0.0
C2092 C 1.02031 0.41097 0.87075 0.0
C2093 C 0.03995 0.42615 0.86616 0.0
C2094 C 1.00124 0.4296 0.86702 0.0
C2095 C 0.02116 0.4086 0.88298 0.0
C2096 C 1.01949 0.37674 0.8862 0.0
C2097 C 1.01887 0.36818 0.89703 0.0
C2098 C 0.02081 0.39251 0.90476 0.0
C2099 C 0.02442 0.42515 0.90178 0.0
C2100 C 0.02423 0.43325 0.89066 0.0
H2101 H 0.76943 0.30939 0.8891 0.0
H2102 H 0.77426 0.37934 0.91484 0.0
H2103 H 0.77681 0.42304 0.90136 0.0
H2104 H 0.80991 0.35152 0.87222 0.0
H2105 H 0.79756 0.33988 0.85987 0.0
H2106 H 0.79596 0.31406 0.87155 0.0
H2107 H 0.75646 0.31516 0.87017 0.0
H2108 H 0.75791 0.34143 0.85863 0.0
H2109 H 0.74334 0.35342 0.87023 0.0
H2110 H 0.7705 0.45889 0.88494 0.0
H2111 H 0.76583 0.48388 0.86715 0.0
H2112 H 0.77813 0.39191 0.85201 0.0
C2113 C 0.7724 0.33343 0.89201 0.0
C2114 C 0.77203 0.34047 0.90319 0.0
C2115 C 0.77445 0.37311 0.90638 0.0
C2116 C 0.77591 0.39818 0.89877 0.0
C2117 C 0.77601 0.3904 0.88788 0.0
C2118 C 0.7753 0.35871 0.88451 0.0
C2119 C 0.77657 0.35703 0.8723 0.0
C2120 C 0.79617 0.33959 0.86878 0.0
C2121 C 0.75743 0.34079 0.86756 0.0
C2122 C 0.77735 0.39271 0.86936 0.0
C2123 C 0.7763 0.41152 0.87847 0.0
C2124 C 0.77278 0.44467 0.87776 0.0
C2125 C 0.7706 0.45894 0.86753 0.0
C2126 C 0.77328 0.44073 0.85799 0.0
C2127 C 0.77695 0.40704 0.85906 0.0
H2128 H 0.34928 0.85583 0.08222 0.0
H2129 H 0.3738 0.785 0.06015 0.0
H2130 H 0.40492 0.81796 0.05789 0.0
H2131 H 0.36767 0.92527 0.06775 0.0
H2132 H 0.37385 0.94867 0.0795 0.0
H2133 H 0.35391 0.9187 0.08013 0.0
H2134 H 0.3722 0.89096 0.09614 0.0
H2135 H 0.39218 0.92091 0.09557 0.0
H2136 H 0.3985 0.87867 0.09475 0.0
H2137 H 0.43295 0.8586 0.05743 0.0
H2138 H 0.45615 0.90504 0.05844 0.0
H2139 H 0.4143 0.95273 0.08032 0.0
C2140 C 0.36138 0.8471 0.07706 0.0
C2141 C 0.35906 0.81753 0.0714 0.0
C2142 C 0.37513 0.80738 0.06456 0.0
C2143 C 0.39293 0.82598 0.06324 0.0
C2144 C 0.39464 0.85508 0.06875 0.0
C2145 C 0.37935 0.86576 0.07553 0.0
C2146 C 0.38496 0.89885 0.08006 0.0
C2147 C 0.36916 0.92438 0.07666 0.0
C2148 C 0.38708 0.89725 0.09236 0.0
C2149 C 0.40565 0.90507 0.07472 0.0
C2150 C 0.41085 0.87924 0.06829 0.0
C2151 C 0.42896 0.87901 0.06241 0.0
C2152 C 0.44203 0.90583 0.06297 0.0
C2153 C 0.43713 0.9332 0.06931 0.0
C2154 C 0.41867 0.93241 0.07539 0.0
H2155 H 0.87941 0.30233 0.05994 0.0
H2156 H 0.84475 0.32508 0.08868 0.0
H2157 H 0.86754 0.37111 0.09218 0.0
H2158 H 0.92935 0.32278 0.07108 0.0
H2159 H 0.939 0.33998 0.05875 0.0
H2160 H 0.9199 0.30866 0.05832 0.0
H2161 H 0.89649 0.34569 0.0469 0.0
H2162 H 0.91551 0.37715 0.04733 0.0
H2163 H 0.88984 0.38511 0.05186 0.0
H2164 H 0.89342 0.41623 0.09246 0.0
H2165 H 0.92136 0.45514 0.09003 0.0
H2166 H 0.94141 0.4031 0.06165 0.0
C2167 C 0.8766 0.317 0.06697 0.0
C2168 C 0.86016 0.30946 0.07408 0.0
C2169 C 0.85728 0.32954 0.08319 0.0
C2170 C 0.87012 0.35609 0.08521 0.0
C2171 C 0.88612 0.3627 0.07813 0.0
C2172 C 0.88954 0.34366 0.06921 0.0
C2173 C 0.90818 0.35604 0.06303 0.0
C2174 C 0.92511 0.33033 0.06278 0.0
C2175 C 0.90214 0.36662 0.0516 0.0
C2176 C 0.91457 0.38499 0.06983 0.0
C2177 C 0.90149 0.38839 0.07846 0.0
C2178 C 0.9039 0.41349 0.08579 0.0
C2179 C 0.92011 0.43549 0.08438 0.0
C2180 C 0.93422 0.43255 0.07574 0.0
C2181 C 0.9311 0.40671 0.06834 0.0
H2182 H 0.42401 0.3211 0.1988 0.0
H2183 H 0.43311 0.30474 0.16459 0.0
H2184 H 0.40597 0.34365 0.16056 0.0
H2185 H 0.36958 0.33327 0.1982 0.0
H2186 H 0.36979 0.3655 0.20789 0.0
H2187 H 0.38934 0.3349 0.2083 0.0
H2188 H 0.4173 0.37895 0.20702 0.0
H2189 H 0.39784 0.40969 0.20663 0.0
H2190 H 0.41663 0.40759 0.19606 0.0
H2191 H 0.37693 0.3843 0.16002 0.0
H2192 H 0.35015 0.42461 0.163 0.0
H2193 H 0.36221 0.42036 0.19739 0.0
C2194 C 0.42059 0.32561 0.19043 0.0
C2195 C 0.43098 0.3086 0.18209 0.0
C2196 C 0.42535 0.31591 0.17128 0.0
C2197 C 0.40993 0.33853 0.16884 0.0
C2198 C 0.40016 0.35458 0.17722 0.0
C2199 C 0.40541 0.3487 0.1878 0.0
C2200 C 0.39295 0.37021 0.19527 0.0
C2201 C 0.37963 0.34974 0.20287 0.0
C2202 C 0.40702 0.39296 0.20162 0.0
C2203 C 0.37983 0.38892 0.18723 0.0
C2204 C 0.38416 0.37929 0.17688 0.0
C2205 C 0.37367 0.39232 0.16811 0.0
C2206 C 0.35847 0.41576 0.16992 0.0
C2207 C 0.35377 0.42687 0.18045 0.0
C2208 C 0.36488 0.41286 0.1892 0.0
H2209 H 0.86358 0.92494 0.19953 0.0
H2210 H 0.85844 0.94688 0.16535 0.0
H2211 H 0.88482 0.90675 0.16157 0.0
H2212 H 0.91756 0.90864 0.2003 0.0
H2213 H 0.91543 0.87499 0.20947 0.0
H2214 H 0.89675 0.90692 0.20979 0.0
H2215 H 0.86774 0.86528 0.20705 0.0
H2216 H 0.88632 0.83321 0.20676 0.0
H2217 H 0.86873 0.83836 0.19572 0.0
H2218 H 0.91289 0.86466 0.16128 0.0
H2219 H 0.93826 0.8224 0.16434 0.0
H2220 H 0.9226 0.82128 0.19837 0.0
C2221 C 0.86768 0.92146 0.1912 0.0
C2222 C 0.85863 0.94051 0.18283 0.0
C2223 C 0.86515 0.93428 0.17211 0.0
C2224 C 0.88016 0.91094 0.1698 0.0
C2225 C 0.88861 0.89297 0.1782 0.0
C2226 C 0.88243 0.89762 0.18868 0.0
C2227 C 0.8935 0.87401 0.19616 0.0
C2228 C 0.90658 0.89223 0.20442 0.0
C2229 C 0.87816 0.85137 0.20175 0.0
C2230 C 0.90691 0.85555 0.18824 0.0
C2231 C 0.90393 0.86718 0.17794 0.0
C2232 C 0.91502 0.855 0.1693 0.0
C2233 C 0.92942 0.83031 0.17116 0.0
C2234 C 0.93269 0.81692 0.18161 0.0
C2235 C 0.921 0.83023 0.19024 0.0
H2236 H 0.68201 0.16561 0.94547 0.0
H2237 H 0.69091 0.1763 0.91097 0.0
H2238 H 0.66285 0.13826 0.90779 0.0
H2239 H 0.67243 0.07914 0.94451 0.0
H2240 H 0.65378 0.07991 0.95517 0.0
H2241 H 0.67406 0.10935 0.95486 0.0
H2242 H 0.64732 0.15532 0.95536 0.0
H2243 H 0.62695 0.12603 0.95563 0.0
H2244 H 0.62745 0.15672 0.94531 0.0
H2245 H 0.63272 0.09971 0.90819 0.0
H2246 H 0.60483 0.06198 0.91206 0.0
H2247 H 0.61772 0.07032 0.94628 0.0
C2248 C 0.67837 0.15993 0.93721 0.0
C2249 C 0.68894 0.17508 0.92851 0.0
C2250 C 0.68303 0.16646 0.91788 0.0
C2251 C 0.66708 0.14436 0.91595 0.0
C2252 C 0.65709 0.1302 0.92468 0.0
C2253 C 0.66265 0.13735 0.93511 0.0
C2254 C 0.64977 0.11788 0.94305 0.0
C2255 C 0.66332 0.09522 0.9498 0.0
C2256 C 0.63713 0.14033 0.95026 0.0
C2257 C 0.63604 0.09887 0.93544 0.0
C2258 C 0.64045 0.1066 0.92489 0.0
C2259 C 0.62941 0.09311 0.91643 0.0
C2260 C 0.61356 0.07114 0.91877 0.0
C2261 C 0.60877 0.06195 0.92952 0.0
C2262 C 0.62045 0.07637 0.93794 0.0
H2263 H 0.19073 0.65294 0.92845 0.0
H2264 H 0.16005 0.73631 0.94174 0.0
H2265 H 0.12772 0.70535 0.94272 0.0
H2266 H 0.14739 0.62358 0.91235 0.0
H2267 H 0.15264 0.58159 0.91498 0.0
H2268 H 0.17324 0.6105 0.9149 0.0
H2269 H 0.18354 0.59247 0.9341 0.0
H2270 H 0.16291 0.56364 0.93426 0.0
H2271 H 0.16479 0.59347 0.94472 0.0
H2272 H 0.09881 0.6653 0.94268 0.0
H2273 H 0.0751 0.61936 0.94158 0.0
H2274 H 0.12361 0.55999 0.92842 0.0
C2275 C 0.1771 0.66469 0.93142 0.0
C2276 C 0.17784 0.69731 0.93489 0.0
C2277 C 0.15978 0.7116 0.93893 0.0
C2278 C 0.14136 0.69412 0.93954 0.0
C2279 C 0.14108 0.66205 0.93614 0.0
C2280 C 0.15844 0.64737 0.93214 0.0
C2281 C 0.15386 0.61229 0.92925 0.0
C2282 C 0.15697 0.60666 0.91715 0.0
C2283 C 0.16706 0.5891 0.93599 0.0
C2284 C 0.13131 0.60954 0.93231 0.0
C2285 C 0.12432 0.63868 0.93622 0.0
C2286 C 0.10413 0.64247 0.93956 0.0
C2287 C 0.09067 0.61609 0.93883 0.0
C2288 C 0.09717 0.58578 0.93478 0.0
C2289 C 0.11798 0.5826 0.93157 0.0
H2290 H 0.60309 0.66078 0.81224 0.0
H2291 H 0.62391 0.72352 0.83797 0.0
H2292 H 0.65304 0.68749 0.84119 0.0
H2293 H 0.61805 0.58527 0.82416 0.0
H2294 H 0.62686 0.56771 0.81177 0.0
H2295 H 0.60701 0.59783 0.81153 0.0
H2296 H 0.62842 0.63264 0.79838 0.0
H2297 H 0.6483 0.60255 0.79853 0.0
H2298 H 0.65419 0.64373 0.80197 0.0
H2299 H 0.67992 0.64391 0.8421 0.0
H2300 H 0.70378 0.59847 0.83965 0.0
H2301 H 0.66776 0.565 0.81258 0.0
C2302 C 0.6138 0.66733 0.8185 0.0
C2303 C 0.61055 0.69523 0.82496 0.0
C2304 C 0.62524 0.70213 0.83307 0.0
C2305 C 0.64213 0.68181 0.83493 0.0
C2306 C 0.64463 0.65456 0.82854 0.0
C2307 C 0.63104 0.64745 0.82039 0.0
C2308 C 0.63772 0.61697 0.81451 0.0
C2309 C 0.62144 0.59037 0.81555 0.0
C2310 C 0.64244 0.62443 0.80264 0.0
C2311 C 0.65711 0.60806 0.82066 0.0
C2312 C 0.66066 0.62999 0.82879 0.0
C2313 C 0.6773 0.62668 0.83573 0.0
C2314 C 0.69074 0.60053 0.83432 0.0
C2315 C 0.68778 0.57781 0.82596 0.0
C2316 C 0.67063 0.58189 0.81903 0.0
H2317 H 0.12754 0.20284 0.81426 0.0
H2318 H 0.08359 0.15764 0.83562 0.0
H2319 H 0.10658 0.11066 0.83777 0.0
H2320 H 0.14562 0.13061 0.8012 0.0
H2321 H 0.17202 0.14312 0.8008 0.0
H2322 H 0.15197 0.17293 0.80067 0.0
H2323 H 0.16787 0.20023 0.81739 0.0
H2324 H 0.188 0.17058 0.81754 0.0
H2325 H 0.17251 0.17657 0.82934 0.0
H2326 H 0.13376 0.06688 0.83687 0.0
H2327 H 0.16452 0.03274 0.83469 0.0
H2328 H 0.19266 0.10752 0.81521 0.0
C2329 C 0.12281 0.18303 0.81939 0.0
C2330 C 0.10364 0.18399 0.82476 0.0
C2331 C 0.09816 0.15764 0.83148 0.0
C2332 C 0.11111 0.13072 0.8327 0.0
C2333 C 0.12982 0.13045 0.8273 0.0
C2334 C 0.13585 0.15615 0.82092 0.0
C2335 C 0.15717 0.15023 0.81639 0.0
C2336 C 0.15666 0.14916 0.80403 0.0
C2337 C 0.17228 0.17593 0.8204 0.0
C2338 C 0.1621 0.11715 0.82113 0.0
C2339 C 0.14596 0.106 0.82728 0.0
C2340 C 0.14654 0.07557 0.83216 0.0
C2341 C 0.16407 0.05622 0.83083 0.0
C2342 C 0.1811 0.06736 0.82483 0.0
C2343 C 0.18 0.09837 0.81993 0.0
H2344 H 0.41086 0.45598 0.57987 0.0
H2345 H 0.45373 0.41088 0.55791 0.0
H2346 H 0.43166 0.36316 0.5569 0.0
H2347 H 0.39725 0.38111 0.59431 0.0
H2348 H 0.37069 0.39177 0.59584 0.0
H2349 H 0.38989 0.42295 0.59512 0.0
H2350 H 0.37071 0.44945 0.57917 0.0
H2351 H 0.35146 0.41839 0.57984 0.0
H2352 H 0.36492 0.42574 0.56743 0.0
H2353 H 0.40467 0.32076 0.5574 0.0
H2354 H 0.37443 0.28581 0.55975 0.0
H2355 H 0.34841 0.35488 0.58195 0.0
C2356 C 0.41568 0.43599 0.57491 0.0
C2357 C 0.43409 0.43796 0.5688 0.0
C2358 C 0.4396 0.4109 0.56244 0.0
C2359 C 0.42719 0.38331 0.56188 0.0
C2360 C 0.40914 0.38238 0.56781 0.0
C2361 C 0.40335 0.40783 0.57426 0.0
C2362 C 0.3829 0.40023 0.57968 0.0
C2363 C 0.38533 0.39894 0.59197 0.0
C2364 C 0.36653 0.42492 0.57633 0.0
C2365 C 0.37811 0.3668 0.57515 0.0
C2366 C 0.39358 0.35715 0.56832 0.0
C2367 C 0.39257 0.32795 0.56281 0.0
C2368 C 0.37529 0.30819 0.5642 0.0
C2369 C 0.35909 0.31724 0.57111 0.0
C2370 C 0.36068 0.34695 0.57676 0.0
H2371 H 0.85236 0.84552 0.58164 0.0
H2372 H 0.87888 0.77687 0.55939 0.0
H2373 H 0.90952 0.81103 0.55774 0.0
H2374 H 0.87077 0.91679 0.56823 0.0
H2375 H 0.87621 0.93901 0.58032 0.0
H2376 H 0.85651 0.9086 0.58034 0.0
H2377 H 0.8743 0.87952 0.59624 0.0
H2378 H 0.89405 0.90989 0.59628 0.0
H2379 H 0.90076 0.86789 0.59504 0.0
H2380 H 0.93683 0.85288 0.55775 0.0
H2381 H 0.95936 0.9001 0.5594 0.0
H2382 H 0.91663 0.94386 0.58168 0.0
C2383 C 0.86475 0.83749 0.57654 0.0
C2384 C 0.86298 0.80828 0.57059 0.0
C2385 C 0.87955 0.7991 0.56392 0.0
C2386 C 0.89716 0.81835 0.56297 0.0
C2387 C 0.89827 0.84706 0.56874 0.0
C2388 C 0.88259 0.85671 0.57543 0.0
C2389 C 0.88772 0.8894 0.58043 0.0
C2390 C 0.87186 0.91496 0.57713 0.0
C2391 C 0.8893 0.8865 0.59273 0.0
C2392 C 0.90859 0.8966 0.57543 0.0
C2393 C 0.91427 0.87162 0.56874 0.0
C2394 C 0.93252 0.87255 0.56298 0.0
C2395 C 0.94522 0.8997 0.56394 0.0
C2396 C 0.93988 0.92609 0.5706 0.0
C2397 C 0.92132 0.92416 0.57656 0.0
H2398 H 0.4362 0.83714 0.67452 0.0
H2399 H 0.41505 0.77457 0.70038 0.0
H2400 H 0.38443 0.8082 0.70234 0.0
H2401 H 0.4199 0.91143 0.68687 0.0
H2402 H 0.41232 0.93046 0.67443 0.0
H2403 H 0.43225 0.90045 0.67446 0.0
H2404 H 0.41225 0.86735 0.66034 0.0
H2405 H 0.39223 0.89723 0.66028 0.0
H2406 H 0.38622 0.85558 0.66309 0.0
H2407 H 0.35615 0.84903 0.70199 0.0
H2408 H 0.33272 0.89485 0.69972 0.0
H2409 H 0.37186 0.93423 0.6747 0.0
C2410 C 0.42524 0.83036 0.68063 0.0
C2411 C 0.42835 0.80237 0.68718 0.0
C2412 C 0.41319 0.79492 0.69499 0.0
C2413 C 0.39565 0.81421 0.69626 0.0
C2414 C 0.39319 0.84139 0.68973 0.0
C2415 C 0.40757 0.84962 0.68207 0.0
C2416 C 0.40133 0.88084 0.67635 0.0
C2417 C 0.41741 0.90736 0.67813 0.0
C2418 C 0.3978 0.87488 0.6643 0.0
C2419 C 0.38129 0.88893 0.68204 0.0
C2420 C 0.37695 0.8656 0.68969 0.0
C2421 C 0.35951 0.86749 0.69607 0.0
C2422 C 0.34629 0.89393 0.69475 0.0
C2423 C 0.35037 0.91883 0.68714 0.0
C2424 C 0.36811 0.91582 0.68058 0.0
H2425 H 0.86456 0.42605 0.69637 0.0
H2426 H 0.85256 0.43435 0.66201 0.0
H2427 H 0.87938 0.39475 0.65853 0.0
H2428 H 0.91868 0.4133 0.69506 0.0
H2429 H 0.91921 0.38316 0.70555 0.0
H2430 H 0.89968 0.41381 0.70556 0.0
H2431 H 0.87165 0.36973 0.70596 0.0
H2432 H 0.89109 0.33894 0.70601 0.0
H2433 H 0.87155 0.33888 0.69578 0.0
H2434 H 0.90878 0.35524 0.65848 0.0
H2435 H 0.93597 0.31618 0.6619 0.0
H2436 H 0.92597 0.32624 0.69636 0.0
C2437 C 0.86722 0.41961 0.68808 0.0
C2438 C 0.85619 0.43478 0.67951 0.0
C2439 C 0.86086 0.42485 0.66884 0.0
C2440 C 0.8761 0.40176 0.66672 0.0
C2441 C 0.88656 0.38772 0.67531 0.0
C2442 C 0.88212 0.39587 0.68579 0.0
C2443 C 0.89513 0.37593 0.69356 0.0
C2444 C 0.90899 0.39787 0.70033 0.0
C2445 C 0.88154 0.3546 0.70075 0.0
C2446 C 0.90765 0.35557 0.68578 0.0
C2447 C 0.90256 0.3631 0.6753 0.0
C2448 C 0.91256 0.34868 0.66668 0.0
C2449 C 0.92802 0.32588 0.66877 0.0
C2450 C 0.93339 0.3166 0.67946 0.0
C2451 C 0.92278 0.33211 0.68805 0.0
H2452 H 0.62975 0.54713 0.42604 0.0
H2453 H 0.58731 0.60236 0.44546 0.0
H2454 H 0.61149 0.6478 0.44572 0.0
H2455 H 0.67548 0.5743 0.43922 0.0
H2456 H 0.69077 0.57677 0.42718 0.0
H2457 H 0.6698 0.54865 0.42793 0.0
H2458 H 0.65413 0.57363 0.41069 0.0
H2459 H 0.67507 0.60185 0.4099 0.0
H2460 H 0.64911 0.61638 0.41016 0.0
H2461 H 0.6405 0.68709 0.44466 0.0
H2462 H 0.67283 0.71735 0.44239 0.0
H2463 H 0.69774 0.63869 0.42369 0.0
C2464 C 0.62547 0.56892 0.43024 0.0
C2465 C 0.60648 0.57074 0.43582 0.0
C2466 C 0.60173 0.59984 0.44126 0.0
C2467 C 0.61538 0.62602 0.44141 0.0
C2468 C 0.63399 0.6233 0.43605 0.0
C2469 C 0.63913 0.59558 0.43053 0.0
C2470 C 0.66054 0.59905 0.42572 0.0
C2471 C 0.675 0.57315 0.43029 0.0
C2472 C 0.65966 0.59763 0.41338 0.0
C2473 C 0.66664 0.63273 0.42954 0.0
C2474 C 0.65092 0.64626 0.43542 0.0
C2475 C 0.65283 0.67681 0.44 0.0
C2476 C 0.67124 0.69391 0.43865 0.0
C2477 C 0.68771 0.68072 0.43276 0.0
C2478 C 0.68531 0.64965 0.4281 0.0
H2479 H 0.10103 0.10355 0.44375 0.0
H2480 H 0.12097 0.04449 0.4169 0.0
H2481 H 0.14979 0.08126 0.41391 0.0
H2482 H 0.11553 0.18082 0.43296 0.0
H2483 H 0.12481 0.19644 0.44556 0.0
H2484 H 0.10494 0.16631 0.44546 0.0
H2485 H 0.12681 0.12954 0.45779 0.0
H2486 H 0.14671 0.15963 0.45797 0.0
H2487 H 0.15243 0.11905 0.45377 0.0
H2488 H 0.17666 0.12533 0.41342 0.0
H2489 H 0.20065 0.17036 0.41645 0.0
H2490 H 0.16574 0.19925 0.44445 0.0
C2491 C 0.11145 0.09788 0.43729 0.0
C2492 C 0.10798 0.07077 0.43047 0.0
C2493 C 0.12236 0.06522 0.42209 0.0
C2494 C 0.13911 0.08599 0.42036 0.0
C2495 C 0.14185 0.11235 0.42714 0.0
C2496 C 0.12858 0.11815 0.43553 0.0
C2497 C 0.13552 0.14769 0.44186 0.0
C2498 C 0.11923 0.17439 0.44143 0.0
C2499 C 0.14067 0.13842 0.45354 0.0
C2500 C 0.1547 0.1576 0.43569 0.0
C2501 C 0.1579 0.137 0.42715 0.0
C2502 C 0.17429 0.14149 0.42012 0.0
C2503 C 0.18782 0.1674 0.42186 0.0
C2504 C 0.18525 0.1887 0.43066 0.0
C2505 C 0.16834 0.18346 0.43767 0.0
H2506 H 0.68608 0.09912 0.31265 0.0
H2507 H 0.66749 0.04621 0.34129 0.0
H2508 H 0.63977 0.08514 0.34417 0.0
H2509 H 0.67501 0.17878 0.32228 0.0
H2510 H 0.66496 0.19344 0.30967 0.0
H2511 H 0.68384 0.16179 0.30979 0.0
H2512 H 0.65962 0.12522 0.29878 0.0
H2513 H 0.6407 0.15682 0.29857 0.0
H2514 H 0.63414 0.11738 0.30367 0.0
H2515 H 0.61417 0.13055 0.34437 0.0
H2516 H 0.59131 0.17683 0.34117 0.0
H2517 H 0.62446 0.19984 0.31189 0.0
C2518 C 0.67611 0.09534 0.31948 0.0
C2519 C 0.67954 0.06935 0.32682 0.0
C2520 C 0.66592 0.06605 0.33566 0.0
C2521 C 0.64987 0.08804 0.33735 0.0
C2522 C 0.64717 0.11339 0.33008 0.0
C2523 C 0.65975 0.117 0.32124 0.0
C2524 C 0.65312 0.14617 0.31455 0.0
C2525 C 0.67026 0.17155 0.31405 0.0
C2526 C 0.6465 0.13577 0.30322 0.0
C2527 C 0.63495 0.1584 0.32105 0.0
C2528 C 0.63194 0.13917 0.33001 0.0
C2529 C 0.61641 0.14572 0.33736 0.0
C2530 C 0.60354 0.17236 0.33551 0.0
C2531 C 0.60599 0.19245 0.32632 0.0
C2532 C 0.622 0.18508 0.31898 0.0
H2533 H 0.16542 0.55821 0.33357 0.0
H2534 H 0.20161 0.60208 0.30814 0.0
H2535 H 0.17648 0.64581 0.3065 0.0
H2536 H 0.11624 0.57669 0.32225 0.0
H2537 H 0.10406 0.58591 0.33486 0.0
H2538 H 0.12523 0.55812 0.33451 0.0
H2539 H 0.14457 0.59273 0.34848 0.0
H2540 H 0.12345 0.62062 0.34888 0.0
H2541 H 0.1488 0.635 0.3458 0.0
H2542 H 0.14694 0.68356 0.30667 0.0
H2543 H 0.11486 0.71394 0.30902 0.0
H2544 H 0.09689 0.64884 0.33473 0.0
C2545 C 0.16816 0.57721 0.32774 0.0
C2546 C 0.18557 0.5761 0.32087 0.0
C2547 C 0.18834 0.6016 0.31334 0.0
C2548 C 0.17416 0.62686 0.31239 0.0
C2549 C 0.15708 0.62691 0.31907 0.0
C2550 C 0.15398 0.60295 0.32666 0.0
C2551 C 0.13393 0.60891 0.33265 0.0
C2552 C 0.11898 0.58073 0.33096 0.0
C2553 C 0.13793 0.61465 0.34467 0.0
C2554 C 0.12623 0.63963 0.32713 0.0
C2555 C 0.13997 0.64944 0.31933 0.0
C2556 C 0.13617 0.67625 0.31282 0.0
C2557 C 0.11785 0.69339 0.3142 0.0
C2558 C 0.10335 0.68407 0.32209 0.0
C2559 C 0.10777 0.65691 0.32874 0.0
H2560 H 0.5058 0.98427 0.02756 0.0
H2561 H 0.55062 0.06043 0.03098 0.0
H2562 H 0.55409 0.06369 0.01115 0.0
H2563 H 0.52912 0.94535 1.00371 0.0
H2564 H 0.50454 0.93625 0.9979 0.0
H2565 H 0.50736 0.93816 0.0123 0.0
H2566 H 0.47818 0.98039 0.01296 0.0
H2567 H 0.4757 0.97935 0.99854 0.0
H2568 H 0.48044 0.01713 0.00523 0.0
H2569 H 0.55108 0.06073 0.99095 0.0
H2570 H 0.54456 0.04785 0.97183 0.0
H2571 H 0.5009 0.97462 0.98145 0.0
C2572 C 0.51689 1.00072 0.02409 0.0
C2573 C 0.52843 0.02149 0.03073 0.0
C2574 C 0.54214 0.04376 0.02598 0.0
C2575 C 0.544 0.04599 0.01475 0.0
C2576 C 0.53193 0.02588 0.00839 0.0
C2577 C 0.51886 1.00331 0.01289 0.0
C2578 C 0.50715 0.9853 0.00425 0.0
C2579 C 0.51236 0.94912 0.00456 0.0
C2580 C 0.484 0.99089 0.00532 0.0
C2581 C 0.51554 1.00138 0.9942 0.0
C2582 C 0.52978 0.0248 0.99677 0.0
C2583 C 0.53991 0.04254 0.98885 0.0
C2584 C 0.53593 0.0354 0.97802 0.0
C2585 C 0.52186 0.01089 0.97521 0.0
C2586 C 0.5113 0.99408 0.98342 0.0
H2587 H 0.76249 0.28459 0.02522 0.0
H2588 H 0.81335 0.21939 0.03107 0.0
H2589 H 0.81843 0.2141 0.01158 0.0
H2590 H 0.74375 0.26219 1.00128 0.0
H2591 H 0.74274 0.30071 0.99451 0.0
H2592 H 0.74176 0.29887 0.00896 0.0
H2593 H 0.77307 0.33691 0.01025 0.0
H2594 H 0.77385 0.33937 0.99577 0.0
H2595 H 0.79623 0.32688 1.00316 0.0
H2596 H 0.80475 0.19995 0.99228 0.0
H2597 H 0.79167 0.20161 0.97397 0.0
H2598 H 0.77074 0.29967 0.97898 0.0
C2599 C 0.77544 0.27058 0.02255 0.0
C2600 C 0.78649 0.25044 0.02981 0.0
C2601 C 0.80354 0.2331 0.02572 0.0
C2602 C 0.80671 0.23005 0.01464 0.0
C2603 C 0.79447 0.24793 0.00771 0.0
C2604 C 0.78075 0.27043 0.01151 0.0
C2605 C 0.77219 0.29015 1.00216 0.0
C2606 C 0.74872 0.28782 1.00171 0.0
C2607 C 0.77926 0.32543 1.00287 0.0
C2608 C 0.782 0.27315 0.9926 0.0
C2609 C 0.7937 0.24753 0.99605 0.0
C2610 C 0.7981 0.22202 0.98918 0.0
C2611 C 0.79133 0.22372 0.97846 0.0
C2612 C 0.78258 0.25236 0.97414 0.0
C2613 C 0.77819 0.27766 0.98155 0.0
H2614 H 0.54336 0.22506 0.23241 0.0
H2615 H 0.49799 0.29634 0.22345 0.0
H2616 H 0.49182 0.30812 0.24267 0.0
H2617 H 0.51674 0.19292 0.25413 0.0
H2618 H 0.53854 0.18635 0.26275 0.0
H2619 H 0.54165 0.18625 0.24836 0.0
H2620 H 0.56907 0.23123 0.24953 0.0
H2621 H 0.56662 0.23064 0.26396 0.0
H2622 H 0.56331 0.26793 0.25664 0.0
H2623 H 0.48825 0.30836 0.26283 0.0
H2624 H 0.49127 0.30297 0.28262 0.0
H2625 H 0.53855 0.23095 0.27862 0.0
C2626 C 0.53283 0.24414 0.23453 0.0
C2627 C 0.52152 0.26047 0.22649 0.0
C2628 C 0.5072 0.28434 0.22951 0.0
C2629 C 0.5034 0.29079 0.2404 0.0
C2630 C 0.51405 0.27316 0.24817 0.0
C2631 C 0.52881 0.25082 0.24539 0.0
C2632 C 0.53751 0.23432 0.25531 0.0
C2633 C 0.53336 0.1978 0.25512 0.0
C2634 C 0.56049 0.24147 0.25643 0.0
C2635 C 0.52525 0.25066 0.26409 0.0
C2636 C 0.51171 0.27283 0.25978 0.0
C2637 C 0.4988 0.29107 0.26629 0.0
C2638 C 0.50039 0.28756 0.27749 0.0
C2639 C 0.51468 0.26592 0.28208 0.0
C2640 C 0.52702 0.24685 0.27528 0.0
H2641 H 0.74752 0.03331 0.23207 0.0
H2642 H 0.78771 0.95399 0.22408 0.0
H2643 H 0.79111 0.94042 0.2434 0.0
H2644 H 0.77475 0.05919 0.25447 0.0
H2645 H 0.75296 0.07002 0.26256 0.0
H2646 H 0.75112 0.07103 0.24811 0.0
H2647 H 0.72014 0.03213 0.24862 0.0
H2648 H 0.72146 0.03172 0.2631 0.0
H2649 H 0.72225 0.99432 0.25577 0.0
H2650 H 0.79285 0.93885 0.2637 0.0
H2651 H 0.7898 0.94575 0.28342 0.0
H2652 H 0.74887 0.02656 0.27842 0.0
C2653 C 0.7563 0.01226 0.2344 0.0
C2654 C 0.76689 0.99406 0.22657 0.0
C2655 C 0.77898 0.96754 0.22992 0.0
C2656 C 0.7812 0.95996 0.24089 0.0
C2657 C 0.77126 0.97919 0.24845 0.0
C2658 C 0.75876 0.00447 0.24535 0.0
C2659 C 0.75067 0.02237 0.2551 0.0
C2660 C 0.7578 0.05775 0.25505 0.0
C2661 C 0.72724 0.01998 0.25568 0.0
C2662 C 0.76073 1.00346 0.26416 0.0
C2663 C 0.7726 0.9787 0.26014 0.0
C2664 C 0.78356 0.95811 0.26692 0.0
C2665 C 0.78193 0.96238 0.2781 0.0
C2666 C 0.76954 0.98712 0.28241 0.0
C2667 C 0.7589 0.00801 0.27533 0.0
H2668 H 0.28844 0.78734 0.98229 0.0
H2669 H 0.2477 0.70968 0.97319 0.0
H2670 H 0.243 0.69526 0.99237 0.0
H2671 H 0.31226 0.74622 0.0055 0.0
H2672 H 0.31337 0.78258 0.01338 0.0
H2673 H 0.31471 0.7849 0.99892 0.0
H2674 H 0.28399 0.82431 0.99888 0.0
H2675 H 0.28228 0.82162 0.01332 0.0
H2676 H 0.26032 0.81221 0.00514 0.0
H2677 H 0.24149 0.69079 0.01263 0.0
H2678 H 0.24497 0.6947 0.03245 0.0
H2679 H 0.28597 0.77599 0.02859 0.0
C2680 C 0.279 0.76677 0.98437 0.0
C2681 C 0.26883 0.74905 0.97626 0.0
C2682 C 0.25604 0.72295 0.97926 0.0
C2683 C 0.25313 0.71483 0.99014 0.0
C2684 C 0.263 0.73317 0.99796 0.0
C2685 C 0.27583 0.75843 0.99523 0.0
C2686 C 0.28408 0.77488 0.00523 0.0
C2687 C 0.3075 0.77196 0.00579 0.0
C2688 C 0.27726 0.81036 0.00566 0.0
C2689 C 0.27385 0.75503 0.01401 0.0
C2690 C 0.26173 0.73111 0.00964 0.0
C2691 C 0.25089 0.70951 0.01613 0.0
C2692 C 0.2528 0.71202 0.02736 0.0
C2693 C 0.2653 0.73607 0.03201 0.0
C2694 C 0.27588 0.75792 0.02523 0.0
H2695 H 0.53392 0.73978 0.72998 0.0
H2696 H 0.47923 0.79614 0.72438 0.0
H2697 H 0.47556 0.80451 0.74406 0.0
H2698 H 0.51533 0.69814 0.75245 0.0
H2699 H 0.53924 0.69703 0.75967 0.0
H2700 H 0.53918 0.69903 0.74519 0.0
H2701 H 0.56143 0.75078 0.74558 0.0
H2702 H 0.5621 0.7484 0.76004 0.0
H2703 H 0.55326 0.78472 0.75351 0.0
H2704 H 0.47715 0.80403 0.76456 0.0
H2705 H 0.48518 0.79786 0.78398 0.0
H2706 H 0.53748 0.73868 0.77606 0.0
C2707 C 0.52163 0.75487 0.73293 0.0
C2708 C 0.50712 0.7681 0.72574 0.0
C2709 C 0.49073 0.7866 0.7298 0.0
C2710 C 0.48845 0.79113 0.74095 0.0
C2711 C 0.50259 0.77666 0.74788 0.0
C2712 C 0.51899 0.75917 0.74401 0.0
C2713 C 0.5314 0.74457 0.7531 0.0
C2714 C 0.53127 0.70749 0.75256 0.0
C2715 C 0.55335 0.75793 0.75306 0.0
C2716 C 0.51947 0.7565 0.76273 0.0
C2717 C 0.50292 0.77504 0.75957 0.0
C2718 C 0.48999 0.7894 0.7671 0.0
C2719 C 0.49449 0.78551 0.77809 0.0
C2720 C 0.51157 0.76715 0.78143 0.0
C2721 C 0.52399 0.75204 0.77366 0.0
H2722 H 0.24957 0.04309 0.73085 0.0
H2723 H 0.29536 0.97095 0.72359 0.0
H2724 H 0.30029 0.96063 0.74305 0.0
H2725 H 0.2742 0.0753 0.75437 0.0
H2726 H 0.25087 0.08129 0.76181 0.0
H2727 H 0.25057 0.08284 0.74732 0.0
H2728 H 0.22271 0.03841 0.74686 0.0
H2729 H 0.22273 0.03706 0.76134 0.0
H2730 H 0.22713 1.00072 0.75378 0.0
H2731 H 0.30064 0.95858 0.76325 0.0
H2732 H 0.29465 0.96226 0.78288 0.0
H2733 H 0.24851 0.03542 0.77739 0.0
C2734 C 0.2604 0.02486 0.73341 0.0
C2735 C 0.2719 0.0074 0.72576 0.0
C2736 C 0.28621 0.98412 0.72935 0.0
C2737 C 0.2892 0.9783 0.74038 0.0
C2738 C 0.27778 0.99603 0.74775 0.0
C2739 C 0.26353 0.01864 0.74444 0.0
C2740 C 0.25317 0.03409 0.75408 0.0
C2741 C 0.25746 0.07054 0.75441 0.0
C2742 C 0.23006 0.02715 0.75401 0.0
C2743 C 0.26378 0.01661 0.76329 0.0
C2744 C 0.27804 0.99492 0.75944 0.0
C2745 C 0.28959 0.97557 0.76635 0.0
C2746 C 0.2862 0.97793 0.77747 0.0
C2747 C 0.27143 0.99946 0.7816 0.0
C2748 C 0.2602 0.01925 0.77442 0.0
H2749 H 0.50006 0.47141 0.48305 0.0
H2750 H 0.54813 0.53766 0.47365 0.0
H2751 H 0.55555 0.54875 0.4928 0.0
H2752 H 0.48242 0.51741 0.50662 0.0
H2753 H 0.47729 0.48142 0.51436 0.0
H2754 H 0.4752 0.48064 0.49992 0.0
H2755 H 0.50067 0.43276 0.49949 0.0
H2756 H 0.50333 0.43409 0.51391 0.0
H2757 H 0.52563 0.43734 0.50546 0.0
H2758 H 0.55878 0.55069 0.51297 0.0
H2759 H 0.55444 0.549 0.53276 0.0
H2760 H 0.50455 0.48119 0.52921 0.0
C2761 C 0.5117 0.48896 0.48508 0.0
C2762 C 0.52327 0.50427 0.47693 0.0
C2763 C 0.53882 0.52635 0.47981 0.0
C2764 C 0.54329 0.53244 0.49065 0.0
C2765 C 0.53208 0.51619 0.49853 0.0
C2766 C 0.51635 0.49535 0.49589 0.0
C2767 C 0.5067 0.48098 0.50593 0.0
C2768 C 0.48406 0.4907 0.50675 0.0
C2769 C 0.50924 0.4441 0.50621 0.0
C2770 C 0.51946 0.49695 0.5146 0.0
C2771 C 0.53415 0.51694 0.51015 0.0
C2772 C 0.54742 0.53497 0.51654 0.0
C2773 C 0.54506 0.53358 0.52776 0.0
C2774 C 0.52962 0.51426 0.53246 0.0
C2775 C 0.51694 0.49523 0.5258 0.0
H2776 H 0.76011 0.77006 0.52497 0.0
H2777 H 0.81339 0.71026 0.53138 0.0
H2778 H 0.81888 0.70464 0.51194 0.0
H2779 H 0.74395 0.74973 0.49999 0.0
H2780 H 0.74289 0.78948 0.49406 0.0
H2781 H 0.74035 0.78464 0.50839 0.0
H2782 H 0.77064 0.82401 0.51135 0.0
H2783 H 0.77304 0.82902 0.49699 0.0
H2784 H 0.79477 0.81627 0.50486 0.0
H2785 H 0.807 0.69181 0.4918 0.0
H2786 H 0.79597 0.69638 0.47314 0.0
H2787 H 0.77296 0.79264 0.47951 0.0
C2788 C 0.77365 0.75715 0.52252 0.0
C2789 C 0.78525 0.73846 0.52997 0.0
C2790 C 0.80282 0.72216 0.52597 0.0
C2791 C 0.80638 0.71923 0.5149 0.0
C2792 C 0.79399 0.73647 0.50785 0.0
C2793 C 0.7795 0.7578 0.51159 0.0
C2794 C 0.77164 0.77872 0.50238 0.0
C2795 C 0.74833 0.77542 0.50114 0.0
C2796 C 0.7779 0.81411 0.50399 0.0
C2797 C 0.78288 0.76385 0.49287 0.0
C2798 C 0.79452 0.73801 0.49619 0.0
C2799 C 0.80023 0.71409 0.48895 0.0
C2800 C 0.7946 0.71753 0.47808 0.0
C2801 C 0.78565 0.74649 0.4741 0.0
C2802 C 0.78035 0.77036 0.48185 0.0
H2803 H 0.78905 0.47023 0.77558 0.0
H2804 H 0.7442 0.54323 0.78346 0.0
H2805 H 0.73866 0.55403 0.76407 0.0
H2806 H 0.8109 0.51188 0.75234 0.0
H2807 H 0.8145 0.4753 0.74479 0.0
H2808 H 0.81519 0.47416 0.75927 0.0
H2809 H 0.7868 0.43054 0.75922 0.0
H2810 H 0.78576 0.43199 0.74474 0.0
H2811 H 0.76291 0.43876 0.7525 0.0
H2812 H 0.73785 0.55672 0.74379 0.0
H2813 H 0.7435 0.55345 0.72411 0.0
H2814 H 0.78831 0.47806 0.72915 0.0
C2815 C 0.77834 0.48883 0.77318 0.0
C2816 C 0.76733 0.50642 0.78099 0.0
C2817 C 0.75308 0.53005 0.77759 0.0
C2818 C 0.74971 0.53611 0.7666 0.0
C2819 C 0.76062 0.51816 0.75907 0.0
C2820 C 0.77477 0.49516 0.7622 0.0
C2821 C 0.78445 0.47932 0.75245 0.0
C2822 C 0.80764 0.48554 0.7522 0.0
C2823 C 0.77969 0.44299 0.75222 0.0
C2824 C 0.77361 0.49703 0.74337 0.0
C2825 C 0.75984 0.51923 0.74738 0.0
C2826 C 0.74846 0.53922 0.74057 0.0
C2827 C 0.7516 0.53705 0.72942 0.0
C2828 C 0.76587 0.51495 0.72515 0.0
C2829 C 0.77684 0.49444 0.73222 0.0
H2830 H 0.28695 0.29034 0.48225 0.0
H2831 H 0.24436 0.21501 0.47331 0.0
H2832 H 0.23865 0.20218 0.49255 0.0
H2833 H 0.30912 0.24842 0.50563 0.0
H2834 H 0.31136 0.28489 0.51338 0.0
H2835 H 0.31278 0.28665 0.49892 0.0
H2836 H 0.28333 0.32842 0.49876 0.0
H2837 H 0.28151 0.32622 0.5132 0.0
H2838 H 0.2593 0.31833 0.50503 0.0
H2839 H 0.23682 0.19856 0.51283 0.0
H2840 H 0.24122 0.20147 0.53261 0.0
H2841 H 0.28443 0.27975 0.52861 0.0
C2842 C 0.27683 0.27064 0.48438 0.0
C2843 C 0.26645 0.2531 0.4763 0.0
C2844 C 0.25284 0.22813 0.47937 0.0
C2845 C 0.24935 0.22094 0.49028 0.0
C2846 C 0.25949 0.23907 0.49807 0.0
C2847 C 0.27313 0.26318 0.49527 0.0
C2848 C 0.28187 0.27922 0.50524 0.0
C2849 C 0.30517 0.2745 0.50583 0.0
C2850 C 0.27616 0.31519 0.50557 0.0
C2851 C 0.27101 0.26042 0.51408 0.0
C2852 C 0.25809 0.23746 0.50975 0.0
C2853 C 0.24679 0.2166 0.51629 0.0
C2854 C 0.24919 0.2186 0.52751 0.0
C2855 C 0.26265 0.24141 0.53211 0.0
C2856 C 0.27352 0.26282 0.52529 0.0
H2857 H 0.25165 0.52005 0.27714 0.0
H2858 H 0.28869 0.43426 0.28119 0.0
H2859 H 0.29178 0.42945 0.26138 0.0
H2860 H 0.22403 0.49374 0.25396 0.0
H2861 H 0.22372 0.53267 0.24743 0.0
H2862 H 0.22486 0.53004 0.26189 0.0
H2863 H 0.25785 0.56469 0.26201 0.0
H2864 H 0.25659 0.56789 0.24757 0.0
H2865 H 0.27938 0.55252 0.25394 0.0
H2866 H 0.2906 0.43387 0.24109 0.0
H2867 H 0.28702 0.44896 0.22189 0.0
H2868 H 0.25041 0.53163 0.23083 0.0
C2869 C 0.26075 0.50068 0.27382 0.0
C2870 C 0.27033 0.47785 0.28066 0.0
C2871 C 0.28158 0.45225 0.27606 0.0
C2872 C 0.28329 0.44926 0.26484 0.0
C2873 C 0.27354 0.47199 0.25829 0.0
C2874 C 0.26264 0.49739 0.26261 0.0
C2875 C 0.25366 0.51853 0.25377 0.0
C2876 C 0.23017 0.51875 0.2543 0.0
C2877 C 0.2624 0.55294 0.25436 0.0
C2878 C 0.26118 0.50108 0.24381 0.0
C2879 C 0.27257 0.47421 0.24661 0.0
C2880 C 0.28158 0.45469 0.23882 0.0
C2881 C 0.27929 0.46322 0.22793 0.0
C2882 C 0.26799 0.49091 0.22487 0.0
C2883 C 0.25867 0.50986 0.23294 0.0
H2884 H 0.03652 0.03593 0.47818 0.0
H2885 H 0.98892 0.96453 0.4739 0.0
H2886 H 0.98375 0.96215 0.49364 0.0
H2887 H 0.05862 1.00063 0.50106 0.0
H2888 H 0.0646 0.03781 0.50784 0.0
H2889 H 0.06306 0.03699 0.49338 0.0
H2890 H 0.03591 0.08245 0.49357 0.0
H2891 H 0.03768 0.08393 0.50803 0.0
H2892 H 1.01323 0.07768 0.50166 0.0
H2893 H 0.98566 0.96439 0.51389 0.0
H2894 H 0.99267 0.97409 0.53318 0.0
H2895 H 0.03942 0.04363 0.52459 0.0
C2896 C 0.0245 0.02077 0.48143 0.0
C2897 C 1.01264 1.00108 0.47455 0.0
C2898 C 0.9977 0.98041 0.47905 0.0
C2899 C 0.99482 0.97872 0.49024 0.0
C2900 C 1.00711 0.99776 0.49685 0.0
C2901 C 0.02149 0.01873 0.49262 0.0
C2902 C 0.03336 0.03537 0.50154 0.0
C2903 C 0.05626 0.02721 0.50091 0.0
C2904 C 0.02983 0.07203 0.50118 0.0
C2905 C 0.02357 0.02029 0.51144 0.0
C2906 C 1.00847 0.99862 0.50854 0.0
C2907 C 0.99741 0.98136 0.51624 0.0
C2908 C 1.0016 0.98678 0.52716 0.0
C2909 C 1.01678 0.00916 0.53034 0.0
C2910 C 0.02794 0.02604 0.52236 0.0
H2911 H 1.00629 0.28554 0.72721 0.0
H2912 H 0.05183 0.21082 0.7232 0.0
H2913 H 0.05758 0.20958 0.74289 0.0
H2914 H 0.03176 0.32758 0.75003 0.0
H2915 H 1.00783 0.33616 0.75659 0.0
H2916 H 1.00888 0.33326 0.74215 0.0
H2917 H 0.98044 0.2898 0.74272 0.0
H2918 H 0.97958 0.29206 0.75718 0.0
H2919 H 0.98415 0.25388 0.75072 0.0
H2920 H 0.05645 0.21342 0.76311 0.0
H2921 H 0.05053 0.22514 0.78237 0.0
H2922 H 1.00568 0.29749 0.7736 0.0
C2923 C 1.01799 0.26984 0.73049 0.0
C2924 C 0.02911 0.2489 0.72369 0.0
C2925 C 0.04363 0.22761 0.72826 0.0
C2926 C 0.04683 0.22658 0.73944 0.0
C2927 C 0.03532 0.24694 0.74598 0.0
C2928 C 0.02137 0.26851 0.74168 0.0
C2929 C 1.01042 0.28678 0.75056 0.0
C2930 C 1.015 0.32311 0.74978 0.0
C2931 C 0.98728 0.28023 0.75027 0.0
C2932 C 1.0202 0.2719 0.76051 0.0
C2933 C 0.0345 0.2489 0.75766 0.0
C2934 C 0.04534 0.23145 0.76541 0.0
C2935 C 0.04178 0.23804 0.77633 0.0
C2936 C 0.02744 0.26179 0.77945 0.0
C2937 C 1.01651 0.27889 0.77142 0.0
H2938 H 0.03204 0.78712 0.23024 0.0
H2939 H 0.97896 0.72644 0.22443 0.0
H2940 H 0.97366 0.72139 0.24391 0.0
H2941 H 0.0492 0.76624 0.25474 0.0
H2942 H 0.05034 0.80506 0.26119 0.0
H2943 H 0.05209 0.80242 0.24677 0.0
H2944 H 0.02136 0.84124 0.24463 0.0
H2945 H 1.01986 0.84463 0.25906 0.0
H2946 H 0.99771 0.83235 0.25147 0.0
H2947 H 0.98831 0.70542 0.26322 0.0
H2948 H 1.00044 0.70785 0.28169 0.0
H2949 H 1.02026 0.80664 0.2764 0.0
C2950 C 1.01859 0.77419 0.23287 0.0
C2951 C 1.00716 0.7545 0.22566 0.0
C2952 C 0.98932 0.73905 0.22975 0.0
C2953 C 0.98597 0.73624 0.24082 0.0
C2954 C 0.99869 0.75319 0.24771 0.0
C2955 C 1.0129 0.77494 0.24387 0.0
C2956 C 0.02121 0.79499 0.25318 0.0
C2957 C 0.0446 0.79199 0.25401 0.0
C2958 C 1.01464 0.83042 0.25202 0.0
C2959 C 1.01066 0.77885 0.26277 0.0
C2960 C 0.99905 0.7532 0.25935 0.0
C2961 C 0.99461 0.72773 0.26629 0.0
C2962 C 1.00086 0.72986 0.27706 0.0
C2963 C 1.00871 0.75905 0.28141 0.0
C2964 C 1.01355 0.78409 0.27387 0.0
H2965 H 0.0484 0.53418 0.98107 0.0
H2966 H 0.99378 0.47899 0.97401 0.0
H2967 H 0.98648 0.47417 0.99346 0.0
H2968 H 0.06351 0.49043 0.00432 0.0
H2969 H 0.0722 0.52491 0.01183 0.0
H2970 H 0.07276 0.52576 0.99735 0.0
H2971 H 0.05078 0.57771 0.99716 0.0
H2972 H 0.05046 0.57737 0.01165 0.0
H2973 H 0.02675 0.5782 0.00425 0.0
H2974 H 0.98637 0.47191 0.01367 0.0
H2975 H 0.99109 0.47817 0.03331 0.0
H2976 H 0.045 0.53654 0.02767 0.0
C2977 C 0.03468 0.52177 0.98366 0.0
C2978 C 0.02154 0.50712 0.97605 0.0
C2979 C 1.00391 0.49058 0.9797 0.0
C2980 C 0.99973 0.48756 0.99074 0.0
C2981 C 1.01324 0.50144 0.99807 0.0
C2982 C 0.03017 0.51876 0.9947 0.0
C2983 C 0.04218 0.53124 0.0043 0.0
C2984 C 0.06395 0.51725 0.00446 0.0
C2985 C 0.04256 0.56833 0.00434 0.0
C2986 C 0.0295 0.518 0.01358 0.0
C2987 C 1.01297 0.50063 0.00976 0.0
C2988 C 0.99919 0.48559 0.01673 0.0
C2989 C 1.00207 0.489 0.02786 0.0
C2990 C 1.01852 0.50742 0.03196 0.0
C2991 C 0.03247 0.52196 0.02472 0.0
H2992 H 0.6094 0.08169 0.06075 0.0
H2993 H 0.57737 0.15444 0.07921 0.0
H2994 H 0.60966 0.18466 0.08137 0.0
H2995 H 0.65659 0.08289 0.07581 0.0
H2996 H 0.67285 0.07839 0.06421 0.0
H2997 H 0.64729 0.06215 0.06406 0.0
H2998 H 0.63919 0.09481 0.04679 0.0
H2999 H 0.66477 0.11101 0.04685 0.0
H3000 H 0.6431 0.13788 0.04668 0.0
H3001 H 0.64576 0.20568 0.08241 0.0
H3002 H 0.68217 0.2189 0.081 0.0
H3003 H 0.69144 0.13513 0.06065 0.0
C3004 C 0.60918 0.104 0.06525 0.0
C3005 C 0.59065 0.11562 0.06981 0.0
C3006 C 0.59115 0.1451 0.07554 0.0
C3007 C 0.60951 0.16237 0.07687 0.0
C3008 C 0.62743 0.15021 0.07234 0.0
C3009 C 0.62742 0.1219 0.06653 0.0
C3010 C 0.64882 0.11472 0.06228 0.0
C3011 C 0.65686 0.08263 0.06687 0.0
C3012 C 0.64897 0.1146 0.04991 0.0
C3013 C 0.66088 0.14326 0.06669 0.0
C3014 C 0.64819 0.16321 0.07254 0.0
C3015 C 0.65573 0.19053 0.07767 0.0
C3016 C 0.67661 0.19803 0.0767 0.0
C3017 C 0.69009 0.17877 0.07046 0.0
C3018 C 0.68189 0.15067 0.06548 0.0
H3019 H 0.60473 0.15295 0.17866 0.0
H3020 H 0.59259 0.1564 0.21288 0.0
H3021 H 0.62793 0.1379 0.21659 0.0
H3022 H 0.63541 0.07935 0.17985 0.0
H3023 H 0.65266 0.09216 0.16936 0.0
H3024 H 0.62665 0.10645 0.16943 0.0
H3025 H 0.6397 0.16541 0.16911 0.0
H3026 H 0.66575 0.1513 0.16911 0.0
H3027 H 0.65722 0.1788 0.17936 0.0
H3028 H 0.66561 0.12183 0.21657 0.0
H3029 H 0.70078 0.10275 0.21285 0.0
H3030 H 0.68796 0.10484 0.17866 0.0
C3031 C 0.60953 0.14967 0.18693 0.0
C3032 C 0.59584 0.15624 0.1955 0.0
C3033 C 0.6027 0.15139 0.2062 0.0
C3034 C 0.62281 0.14105 0.20837 0.0
C3035 C 0.63597 0.13501 0.19977 0.0
C3036 C 0.62948 0.13856 0.18924 0.0
C3037 C 0.64642 0.12908 0.18147 0.0
C3038 C 0.63989 0.10003 0.17462 0.0
C3039 C 0.65264 0.15787 0.17434 0.0
C3040 C 0.66351 0.11997 0.18924 0.0
C3041 C 0.65724 0.12406 0.19976 0.0
C3042 C 0.67056 0.1183 0.20836 0.0
C3043 C 0.69059 0.10765 0.20617 0.0
C3044 C 0.69721 0.10222 0.19548 0.0
C3045 C 0.68337 0.10858 0.18692 0.0
H3046 H 0.4291 0.92871 0.92957 0.0
H3047 H 0.45322 0.8821 0.95824 0.0
H3048 H 0.41956 0.85729 0.96157 0.0
H3049 H 0.37869 0.94624 0.94049 0.0
H3050 H 0.36547 0.93833 0.92806 0.0
H3051 H 0.39149 0.95269 0.92783 0.0
H3052 H 0.40221 0.90349 0.9164 0.0
H3053 H 0.37622 0.88908 0.91655 0.0
H3054 H 0.39662 0.86334 0.92122 0.0
H3055 H 0.38324 0.83658 0.96178 0.0
H3056 H 0.34738 0.82031 0.95848 0.0
H3057 H 0.34572 0.88082 0.92999 0.0
C3058 C 0.42734 0.91352 0.93661 0.0
C3059 C 0.44418 0.90743 0.9436 0.0
C3060 C 0.44095 0.8869 0.95262 0.0
C3061 C 0.42172 0.87285 0.95465 0.0
C3062 C 0.40556 0.87943 0.94763 0.0
C3063 C 0.40814 0.89922 0.93877 0.0
C3064 C 0.38825 0.90185 0.93241 0.0
C3065 C 0.38052 0.93686 0.93219 0.0
C3066 C 0.391 0.88865 0.92097 0.0
C3067 C 0.37412 0.88033 0.93905 0.0
C3068 C 0.38448 0.86776 0.94782 0.0
C3069 C 0.37498 0.84652 0.95499 0.0
C3070 C 0.35456 0.83751 0.95308 0.0
C3071 C 0.34361 0.84973 0.94412 0.0
C3072 C 0.35354 0.87167 0.93705 0.0
H3073 H 0.43127 0.83093 0.82783 0.0
H3074 H 0.4554 0.87698 0.79908 0.0
H3075 H 0.42165 0.90147 0.79562 0.0
H3076 H 0.38079 0.81304 0.81711 0.0
H3077 H 0.36767 0.82154 0.82952 0.0
H3078 H 0.39367 0.80715 0.82979 0.0
H3079 H 0.40458 0.85686 0.84094 0.0
H3080 H 0.3786 0.87125 0.84078 0.0
H3081 H 0.39896 0.89679 0.83595 0.0
H3082 H 0.38538 0.92154 0.79524 0.0
H3083 H 0.34977 0.93851 0.79859 0.0
H3084 H 0.34814 0.87953 0.82744 0.0
C3085 C 0.42946 0.84599 0.82076 0.0
C3086 C 0.44624 0.85195 0.81374 0.0
C3087 C 0.44307 0.87228 0.80468 0.0
C3088 C 0.42383 0.8861 0.80259 0.0
C3089 C 0.40768 0.87955 0.8096 0.0
C3090 C 0.41029 0.86014 0.81855 0.0
C3091 C 0.39046 0.85779 0.82495 0.0
C3092 C 0.38269 0.82279 0.82536 0.0
C3093 C 0.39333 0.87149 0.83633 0.0
C3094 C 0.37633 0.87902 0.81823 0.0
C3095 C 0.38663 0.89112 0.80937 0.0
C3096 C 0.37717 0.91205 0.80211 0.0
C3097 C 0.35689 0.92147 0.80406 0.0
C3098 C 0.34604 0.91006 0.81318 0.0
C3099 C 0.35586 0.8881 0.82028 0.0
H3100 H 0.67898 0.68167 0.55922 0.0
H3101 H 0.70499 0.63058 0.58651 0.0
H3102 H 0.67149 0.60543 0.59014 0.0
H3103 H 0.62858 0.69609 0.57074 0.0
H3104 H 0.6149 0.68891 0.55839 0.0
H3105 H 0.64073 0.7041 0.55799 0.0
H3106 H 0.65152 0.65634 0.54594 0.0
H3107 H 0.62572 0.64111 0.54625 0.0
H3108 H 0.64663 0.6156 0.5504 0.0
H3109 H 0.63527 0.58668 0.59125 0.0
H3110 H 0.59943 0.57081 0.5888 0.0
H3111 H 0.59581 0.63048 0.56005 0.0
C3112 C 0.67757 0.66526 0.56597 0.0
C3113 C 0.69479 0.65814 0.57258 0.0
C3114 C 0.69224 0.63625 0.58127 0.0
C3115 C 0.67317 0.62198 0.58344 0.0
C3116 C 0.65659 0.62943 0.57682 0.0
C3117 C 0.65857 0.65023 0.56817 0.0
C3118 C 0.63831 0.65279 0.56208 0.0
C3119 C 0.63015 0.68755 0.56231 0.0
C3120 C 0.64069 0.64074 0.55048 0.0
C3121 C 0.6247 0.63019 0.56867 0.0
C3122 C 0.63564 0.61739 0.57719 0.0
C3123 C 0.62666 0.59623 0.58452 0.0
C3124 C 0.60618 0.58718 0.58299 0.0
C3125 C 0.5946 0.59866 0.57408 0.0
C3126 C 0.60404 0.62111 0.56694 0.0
H3127 H 0.6013 0.63181 0.68267 0.0
H3128 H 0.60779 0.71003 0.70559 0.0
H3129 H 0.64438 0.69769 0.70738 0.0
H3130 H 0.63684 0.57715 0.69493 0.0
H3131 H 0.64712 0.56283 0.68239 0.0
H3132 H 0.62119 0.5773 0.68299 0.0
H3133 H 0.62892 0.61834 0.66776 0.0
H3134 H 0.65488 0.60393 0.6671 0.0
H3135 H 0.64991 0.64618 0.66926 0.0
H3136 H 0.68079 0.67607 0.70704 0.0
H3137 H 0.71344 0.64757 0.70432 0.0
H3138 H 0.6842 0.58655 0.68048 0.0
C3139 C 0.61033 0.64664 0.68802 0.0
C3140 C 0.60115 0.67173 0.6941 0.0
C3141 C 0.61392 0.69008 0.70103 0.0
C3142 C 0.63494 0.68348 0.70204 0.0
C3143 C 0.64336 0.65861 0.69599 0.0
C3144 C 0.63148 0.6406 0.68905 0.0
C3145 C 0.64442 0.61541 0.68336 0.0
C3146 C 0.63694 0.58114 0.68608 0.0
C3147 C 0.64454 0.62133 0.67115 0.0
C3148 C 0.66535 0.62191 0.68826 0.0
C3149 C 0.66441 0.64688 0.69554 0.0
C3150 C 0.6817 0.65666 0.70126 0.0
C3151 C 0.70034 0.64039 0.69958 0.0
C3152 C 0.70182 0.61454 0.69217 0.0
C3153 C 0.6839 0.60569 0.68636 0.0
H3154 H 0.43105 0.42834 0.42993 0.0
H3155 H 0.45572 0.37794 0.45775 0.0
H3156 H 0.4219 0.3538 0.46116 0.0
H3157 H 0.38133 0.44619 0.44161 0.0
H3158 H 0.36749 0.43997 0.42925 0.0
H3159 H 0.39367 0.45354 0.42887 0.0
H3160 H 0.40327 0.40522 0.41677 0.0
H3161 H 0.37711 0.39163 0.41706 0.0
H3162 H 0.39735 0.36479 0.42119 0.0
H3163 H 0.38539 0.33426 0.46157 0.0
H3164 H 0.34926 0.31927 0.4585 0.0
H3165 H 0.34706 0.38278 0.43075 0.0
C3166 C 0.42938 0.41242 0.4368 0.0
C3167 C 0.44643 0.40511 0.44353 0.0
C3168 C 0.4433 0.38369 0.45232 0.0
C3169 C 0.42398 0.37001 0.4544 0.0
C3170 C 0.40763 0.37784 0.44766 0.0
C3171 C 0.4101 0.39847 0.43901 0.0
C3172 C 0.38997 0.40237 0.43292 0.0
C3173 C 0.38269 0.43762 0.43318 0.0
C3174 C 0.39206 0.39028 0.4213 0.0
C3175 C 0.37583 0.38062 0.43947 0.0
C3176 C 0.3864 0.36684 0.44797 0.0
C3177 C 0.37696 0.34514 0.45499 0.0
C3178 C 0.35639 0.33685 0.45322 0.0
C3179 C 0.34518 0.35024 0.44452 0.0
C3180 C 0.35506 0.37273 0.43762 0.0
H3181 H 0.44063 0.37597 0.30991 0.0
H3182 H 0.43536 0.30546 0.33571 0.0
H3183 H 0.39902 0.31875 0.33775 0.0
H3184 H 0.40618 0.43532 0.32245 0.0
H3185 H 0.39522 0.44818 0.30983 0.0
H3186 H 0.42111 0.43334 0.31028 0.0
H3187 H 0.41208 0.39079 0.29587 0.0
H3188 H 0.38612 0.40529 0.29545 0.0
H3189 H 0.39115 0.36332 0.29823 0.0
H3190 H 0.36255 0.33693 0.33651 0.0
H3191 H 0.32934 0.36383 0.33347 0.0
H3192 H 0.3574 0.42528 0.30928 0.0
C3193 C 0.4319 0.36362 0.31607 0.0
C3194 C 0.44103 0.33896 0.32245 0.0
C3195 C 0.42884 0.32363 0.33045 0.0
C3196 C 0.40808 0.33114 0.33174 0.0
C3197 C 0.39942 0.3546 0.32512 0.0
C3198 C 0.41096 0.37111 0.31757 0.0
C3199 C 0.39769 0.39576 0.31168 0.0
C3200 C 0.40552 0.43019 0.31368 0.0
C3201 C 0.39671 0.38834 0.29959 0.0
C3202 C 0.377 0.39021 0.31705 0.0
C3203 C 0.37838 0.3661 0.32471 0.0
C3204 C 0.36132 0.356 0.33057 0.0
C3205 C 0.34242 0.37125 0.32872 0.0
C3206 C 0.34058 0.39669 0.32113 0.0
C3207 C 0.35823 0.40607 0.31519 0.0
H3208 H 0.09916 0.12591 0.57809 0.0
H3209 H 0.10268 0.06007 0.55119 0.0
H3210 H 0.13896 0.07459 0.54848 0.0
H3211 H 0.13385 0.18805 0.56691 0.0
H3212 H 0.14543 0.19664 0.57974 0.0
H3213 H 0.11933 0.18281 0.57911 0.0
H3214 H 0.12827 0.13578 0.59205 0.0
H3215 H 0.15443 0.14927 0.59263 0.0
H3216 H 0.1487 0.10851 0.58862 0.0
H3217 H 0.17553 0.09419 0.54916 0.0
H3218 H 0.20903 0.1195 0.55259 0.0
H3219 H 0.18279 0.1717 0.57946 0.0
C3220 C 0.10748 0.11521 0.57148 0.0
C3221 C 0.09796 0.09211 0.56475 0.0
C3222 C 0.10957 0.07799 0.55637 0.0
C3223 C 0.13023 0.08602 0.5548 0.0
C3224 C 0.13934 0.10823 0.56169 0.0
C3225 C 0.12835 0.12284 0.56983 0.0
C3226 C 0.14215 0.14512 0.57631 0.0
C3227 C 0.13475 0.18024 0.57546 0.0
C3228 C 0.14346 0.134 0.5881 0.0
C3229 C 0.16253 0.14061 0.57056 0.0
C3230 C 0.16054 0.11922 0.56216 0.0
C3231 C 0.17723 0.11101 0.55573 0.0
C3232 C 0.19636 0.12534 0.55782 0.0
C3233 C 0.1989 0.14776 0.56631 0.0
C3234 C 0.18158 0.15509 0.5728 0.0
H3235 H 0.1813 0.0756 0.69716 0.0
H3236 H 0.20912 0.13392 0.67207 0.0
H3237 H 0.1759 0.16059 0.66876 0.0
H3238 H 0.13213 0.06457 0.6846 0.0
H3239 H 0.11759 0.06842 0.69684 0.0
H3240 H 0.14344 0.05341 0.69731 0.0
H3241 H 0.15329 0.09799 0.71087 0.0
H3242 H 0.12742 0.11289 0.71054 0.0
H3243 H 0.1484 0.13965 0.70752 0.0
H3244 H 0.13951 0.17856 0.66734 0.0
H3245 H 0.10344 0.19333 0.66959 0.0
H3246 H 0.09841 0.12701 0.6966 0.0
C3247 C 0.18038 0.09413 0.69101 0.0
C3248 C 0.19793 0.10268 0.68486 0.0
C3249 C 0.19607 0.12717 0.67695 0.0
C3250 C 0.17718 0.14225 0.67495 0.0
C3251 C 0.16018 0.13299 0.68102 0.0
C3252 C 0.16163 0.10996 0.68904 0.0
C3253 C 0.14105 0.10556 0.69465 0.0
C3254 C 0.13309 0.07093 0.69327 0.0
C3255 C 0.14264 0.11457 0.7066 0.0
C3256 C 0.12778 0.12961 0.68849 0.0
C3257 C 0.13921 0.14471 0.68057 0.0
C3258 C 0.13055 0.16731 0.67364 0.0
C3259 C 0.10995 0.17562 0.67503 0.0
C3260 C 0.09797 0.16205 0.68345 0.0
C3261 C 0.10701 0.138 0.69011 0.0
H3262 H 0.93628 0.90823 0.4269 0.0
H3263 H 0.9511 0.9031 0.46082 0.0
H3264 H 0.91591 0.88391 0.46474 0.0
H3265 H 0.88444 0.93463 0.42935 0.0
H3266 H 0.87487 0.91002 0.41854 0.0
H3267 H 0.90106 0.92352 0.41842 0.0
H3268 H 0.91358 0.86445 0.41688 0.0
H3269 H 0.88742 0.85083 0.41683 0.0
H3270 H 0.90515 0.83498 0.42662 0.0
H3271 H 0.87776 0.86802 0.46495 0.0
H3272 H 0.84252 0.84885 0.46118 0.0
H3273 H 0.85339 0.86049 0.42703 0.0
C3274 C 0.93215 0.90275 0.43514 0.0
C3275 C 0.94651 0.90713 0.44357 0.0
C3276 C 0.94048 0.89964 0.45423 0.0
C3277 C 0.92044 0.88899 0.45653 0.0
C3278 C 0.90655 0.88541 0.44806 0.0
C3279 C 0.91232 0.89141 0.43755 0.0
C3280 C 0.89481 0.88433 0.42985 0.0
C3281 C 0.88843 0.91495 0.42368 0.0
C3282 C 0.90059 0.85702 0.42209 0.0
C3283 C 0.8782 0.87366 0.43765 0.0
C3284 C 0.88513 0.87494 0.44814 0.0
C3285 C 0.8723 0.86678 0.45674 0.0
C3286 C 0.8522 0.85621 0.45454 0.0
C3287 C 0.84507 0.85333 0.44383 0.0
C3288 C 0.85831 0.86257 0.43531 0.0
H3289 H 0.9271 0.82777 0.31035 0.0
H3290 H 0.95912 0.89666 0.33043 0.0
H3291 H 0.92664 0.92575 0.33347 0.0
H3292 H 0.89216 0.88648 0.29796 0.0
H3293 H 0.87095 0.85871 0.29761 0.0
H3294 H 0.89677 0.84375 0.29683 0.0
H3295 H 0.88983 0.8065 0.31318 0.0
H3296 H 0.86408 0.82167 0.31412 0.0
H3297 H 0.88088 0.82381 0.32559 0.0
H3298 H 0.89041 0.94474 0.33555 0.0
H3299 H 0.85388 0.95794 0.33446 0.0
H3300 H 0.84451 0.87916 0.31209 0.0
C3301 C 0.9273 0.84919 0.31531 0.0
C3302 C 0.94581 0.85993 0.32015 0.0
C3303 C 0.94534 0.88814 0.32652 0.0
C3304 C 0.92687 0.90464 0.32838 0.0
C3305 C 0.90891 0.89296 0.32371 0.0
C3306 C 0.909 0.86626 0.31712 0.0
C3307 C 0.88752 0.85924 0.31292 0.0
C3308 C 0.88681 0.86223 0.3006 0.0
C3309 C 0.88015 0.82582 0.31668 0.0
C3310 C 0.87528 0.88603 0.31825 0.0
C3311 C 0.888 0.90487 0.32453 0.0
C3312 C 0.88043 0.93051 0.33049 0.0
C3313 C 0.85954 0.93788 0.32978 0.0
C3314 C 0.84615 0.9202 0.32298 0.0
C3315 C 0.85418 0.89332 0.31733 0.0
H3316 H 0.17994 0.67826 0.07959 0.0
H3317 H 0.20825 0.62149 0.05439 0.0
H3318 H 0.17518 0.59487 0.05092 0.0
H3319 H 0.14636 0.61569 0.08954 0.0
H3320 H 0.1254 0.64272 0.0922 0.0
H3321 H 0.15132 0.65735 0.09276 0.0
H3322 H 0.14231 0.70183 0.07887 0.0
H3323 H 0.1164 0.68716 0.0782 0.0
H3324 H 0.13142 0.69062 0.0661 0.0
H3325 H 0.13898 0.57437 0.05 0.0
H3326 H 0.10284 0.55889 0.05248 0.0
H3327 H 0.09695 0.62898 0.07806 0.0
C3328 C 0.17923 0.66035 0.07329 0.0
C3329 C 0.19701 0.65209 0.06729 0.0
C3330 C 0.19518 0.62807 0.05925 0.0
C3331 C 0.17632 0.61298 0.05713 0.0
C3332 C 0.15919 0.62197 0.0631 0.0
C3333 C 0.16046 0.64494 0.07107 0.0
C3334 C 0.13971 0.64967 0.07643 0.0
C3335 C 0.14076 0.64083 0.08845 0.0
C3336 C 0.13201 0.68439 0.0748 0.0
C3337 C 0.12657 0.62572 0.07024 0.0
C3338 C 0.13819 0.61016 0.06255 0.0
C3339 C 0.12977 0.58648 0.05597 0.0
C3340 C 0.10917 0.57791 0.05742 0.0
C3341 C 0.09693 0.59285 0.06539 0.0
C3342 C 0.10575 0.61752 0.07177 0.0
H3343 H 0.09805 0.62953 0.18004 0.0
H3344 H 0.10466 0.704 0.20416 0.0
H3345 H 0.14073 0.68836 0.20689 0.0
H3346 H 0.13146 0.56971 0.19283 0.0
H3347 H 0.14233 0.55617 0.18033 0.0
H3348 H 0.11669 0.57207 0.1806 0.0
H3349 H 0.12651 0.61408 0.16602 0.0
H3350 H 0.15219 0.59839 0.16574 0.0
H3351 H 0.14792 0.64062 0.16831 0.0
H3352 H 0.17647 0.66499 0.20697 0.0
H3353 H 0.20892 0.63598 0.20438 0.0
H3354 H 0.18039 0.57847 0.17935 0.0
C3355 C 0.10704 0.64219 0.186 0.0
C3356 C 0.09839 0.66796 0.19194 0.0
C3357 C 0.11086 0.68426 0.19951 0.0
C3358 C 0.13141 0.67551 0.20113 0.0
C3359 C 0.13959 0.65044 0.19505 0.0
C3360 C 0.12783 0.634 0.18762 0.0
C3361 C 0.14071 0.60871 0.1819 0.0
C3362 C 0.13229 0.57464 0.18405 0.0
C3363 C 0.1419 0.61589 0.16977 0.0
C3364 C 0.16143 0.61347 0.1873 0.0
C3365 C 0.16039 0.63758 0.19489 0.0
C3366 C 0.17746 0.64617 0.20099 0.0
C3367 C 0.19601 0.62964 0.19936 0.0
C3368 C 0.19769 0.6047 0.19161 0.0
C3369 C 0.17994 0.5969 0.18548 0.0
H3370 H 0.85815 0.3363 0.92871 0.0
H3371 H 0.83112 0.38715 0.95567 0.0
H3372 H 0.86412 0.41461 0.95881 0.0
H3373 H 0.90593 0.32056 0.94163 0.0
H3374 H 0.92076 0.32496 0.9295 0.0
H3375 H 0.89459 0.31164 0.92876 0.0
H3376 H 0.88627 0.35843 0.91559 0.0
H3377 H 0.91244 0.37189 0.91628 0.0
H3378 H 0.89197 0.39935 0.91944 0.0
H3379 H 0.90091 0.43576 0.95923 0.0
H3380 H 0.9374 0.44814 0.95717 0.0
H3381 H 0.94134 0.37864 0.93116 0.0
C3382 C 0.85898 0.35295 0.93537 0.0
C3383 C 0.84164 0.35914 0.94197 0.0
C3384 C 0.84379 0.38204 0.95036 0.0
C3385 C 0.86263 0.39764 0.95227 0.0
C3386 C 0.87941 0.39013 0.94579 0.0
C3387 C 0.87773 0.36825 0.93751 0.0
C3388 C 0.89822 0.36329 0.93198 0.0
C3389 C 0.90529 0.32802 0.93303 0.0
C3390 C 0.89715 0.37387 0.92012 0.0
C3391 C 0.91182 0.38572 0.93845 0.0
C3392 C 0.90063 0.4012 0.94631 0.0
C3393 C 0.90979 0.42343 0.95317 0.0
C3394 C 0.93079 0.43001 0.95199 0.0
C3395 C 0.94288 0.41412 0.9441 0.0
C3396 C 0.93295 0.39161 0.93725 0.0
H3397 H 0.93229 0.33329 0.826 0.0
H3398 H 0.96 0.39374 0.80139 0.0
H3399 H 0.92686 0.42086 0.79853 0.0
H3400 H 0.88352 0.32275 0.81261 0.0
H3401 H 0.86878 0.3242 0.82484 0.0
H3402 H 0.89472 0.30958 0.82513 0.0
H3403 H 0.90398 0.35185 0.8396 0.0
H3404 H 0.87804 0.36644 0.83941 0.0
H3405 H 0.89893 0.39394 0.83703 0.0
H3406 H 0.89062 0.44162 0.79823 0.0
H3407 H 0.85448 0.45634 0.80112 0.0
H3408 H 0.84923 0.38197 0.82559 0.0
C3409 C 0.93145 0.35207 0.81994 0.0
C3410 C 0.94907 0.36122 0.81393 0.0
C3411 C 0.94706 0.38641 0.80624 0.0
C3412 C 0.92816 0.40182 0.80448 0.0
C3413 C 0.91117 0.39193 0.81044 0.0
C3414 C 0.91262 0.36773 0.81806 0.0
C3415 C 0.89201 0.36205 0.82348 0.0
C3416 C 0.88431 0.32759 0.82139 0.0
C3417 C 0.89332 0.36899 0.8356 0.0
C3418 C 0.87871 0.38689 0.81773 0.0
C3419 C 0.89015 0.40376 0.81022 0.0
C3420 C 0.88156 0.42847 0.80406 0.0
C3421 C 0.86097 0.43663 0.80575 0.0
C3422 C 0.8489 0.42021 0.81352 0.0
C3423 C 0.8579 0.39461 0.81947 0.0
loop_
_geom_bond_atom_site_label_1
_geom_bond_atom_site_label_2
_geom_bond_distance
_geom_bond_site_symmetry_2
_ccdc_geom_bond_type
C0 C1 1.443 . S
C0 N4 1.376 . S
C0 C38 1.389 . S
C1 C0 1.443 . S
C1 C2 1.340 . S
C1 H41 0.951 . S
C2 C1 1.340 . S
C2 C3 1.439 . S
C2 H42 0.950 . S
C3 C2 1.439 . S
C3 N4 1.374 . S
C3 C37 1.395 . S
N4 C0 1.376 . S
N4 C3 1.374 . S
N4 Co5 2.008 . S
Co5 N4 2.008 . S
Co5 N6 1.995 . S
Co5 N11 2.008 1_545 S
Co5 N16 1.982 1_545 S
Co5 N21 2.282 1_545 S
Co5 N27 2.282 . S
N6 Co5 1.995 . S
N6 C7 1.376 . S
N6 C10 1.383 . S
C7 N6 1.376 . S
C7 C8 1.446 . S
C7 C37 1.391 . S
C8 C7 1.446 . S
C8 C9 1.339 . S
C8 H43 0.949 . S
C9 C8 1.339 . S
C9 C10 1.439 . S
C9 H44 0.950 . S
C10 N6 1.383 . S
C10 C9 1.439 . S
C10 C39 1.392 1_545 S
N11 Co5 2.008 1_565 S
N11 C12 1.376 . S
N11 C15 1.374 . S
C12 N11 1.376 . S
C12 C13 1.443 . S
C12 C39 1.389 . S
C13 C12 1.443 . S
C13 C14 1.340 . S
C13 H45 0.951 . S
C14 C13 1.340 . S
C14 C15 1.439 . S
C14 H46 0.950 . S
C15 N11 1.374 . S
C15 C14 1.439 . S
C15 C40 1.395 . S
N16 Co5 1.982 1_565 S
N16 C17 1.406 . S
N16 C20 1.367 1_565 S
C17 N16 1.406 . S
C17 C18 1.446 . S
C17 C40 1.391 . S
C18 C17 1.446 . S
C18 C19 1.339 . S
C18 H47 0.949 . S
C19 C18 1.339 . S
C19 C20 1.439 1_565 S
C19 H48 0.952 . S
C20 N16 1.367 1_545 S
C20 C19 1.439 1_545 S
C20 C38 1.392 . S
N21 Co5 2.282 1_565 S
N21 C24 1.332 . S
N21 C26 1.332 1_565 S
C22 C23 1.386 . S
C22 C25 1.388 . S
C23 C22 1.386 . S
C23 C24 1.382 . S
C23 H49 0.950 . S
C24 N21 1.332 . S
C24 C23 1.382 . S
C24 H35 0.952 . S
C25 C22 1.388 . S
C25 C26 1.382 1_565 S
C25 H50 0.950 . S
C26 N21 1.332 1_545 S
C26 C25 1.382 1_545 S
C26 H36 0.948 . S
N27 Co5 2.282 . S
N27 C31 1.332 . S
N27 C32 1.332 . S
C28 C29 1.388 . S
C28 C32 1.382 . S
C28 H51 0.950 . S
C29 C28 1.388 . S
C29 C30 1.386 . S
C30 C29 1.386 . S
C30 C31 1.382 . S
C30 H52 0.950 . S
C31 N27 1.332 . S
C31 C30 1.382 . S
C31 H33 0.952 . S
C32 N27 1.332 . S
C32 C28 1.382 . S
C32 H34 0.948 . S
H33 C31 0.952 . S
H34 C32 0.948 . S
H35 C24 0.952 . S
H36 C26 0.948 . S
C37 C3 1.395 . S
C37 C7 1.391 . S
C38 C0 1.389 . S
C38 C20 1.392 . S
C39 C10 1.392 1_565 S
C39 C12 1.389 . S
C40 C15 1.395 . S
C40 C17 1.391 . S
H41 C1 0.951 . S
H42 C2 0.950 . S
H43 C8 0.949 . S
H44 C9 0.950 . S
H45 C13 0.951 . S
H46 C14 0.950 . S
H47 C18 0.949 . S
H48 C19 0.952 . S
H49 C23 0.950 . S
H50 C25 0.950 . S
H51 C28 0.950 . S
H52 C30 0.950 . S
C53 C54 1.443 . S
C53 N57 1.376 . S
C53 C91 1.389 . S
C54 C53 1.443 . S
C54 C55 1.340 . S
C54 H94 0.951 . S
C55 C54 1.340 . S
C55 C56 1.439 . S
C55 H95 0.950 . S
C56 C55 1.439 . S
C56 N57 1.374 . S
C56 C90 1.395 . S
N57 C53 1.376 . S
N57 C56 1.374 . S
N57 Co58 2.008 . S
Co58 N57 2.008 . S
Co58 N59 1.995 . S
Co58 N64 2.008 . S
Co58 N69 1.995 . S
Co58 N74 2.282 . S
Co58 N80 2.282 . S
N59 Co58 1.995 . S
N59 C60 1.376 . S
N59 C63 1.383 . S
C60 N59 1.376 . S
C60 C61 1.446 . S
C60 C90 1.391 . S
C61 C60 1.446 . S
C61 C62 1.339 . S
C61 H96 0.949 . S
C62 C61 1.339 . S
C62 C63 1.439 . S
C62 H97 0.950 . S
C63 N59 1.383 . S
C63 C62 1.439 . S
C63 C92 1.392 . S
N64 Co58 2.008 . S
N64 C65 1.376 . S
N64 C68 1.374 . S
C65 N64 1.376 . S
C65 C66 1.443 . S
C65 C92 1.389 . S
C66 C65 1.443 . S
C66 C67 1.340 . S
C66 H98 0.951 . S
C67 C66 1.340 . S
C67 C68 1.439 . S
C67 H99 0.950 . S
C68 N64 1.374 . S
C68 C67 1.439 . S
C68 C93 1.395 . S
N69 Co58 1.995 . S
N69 C70 1.376 . S
N69 C73 1.383 . S
C70 N69 1.376 . S
C70 C71 1.446 . S
C70 C93 1.391 . S
C71 C70 1.446 . S
C71 C72 1.339 . S
C71 H100 0.949 . S
C72 C71 1.339 . S
C72 C73 1.439 . S
C72 H101 0.950 . S
C73 N69 1.383 . S
C73 C72 1.439 . S
C73 C91 1.392 . S
N74 Co58 2.282 . S
N74 C77 1.332 . S
N74 C79 1.332 . S
C75 C76 1.386 . S
C75 C78 1.388 . S
C76 C75 1.386 . S
C76 C77 1.382 . S
C76 H102 0.950 . S
C77 N74 1.332 . S
C77 C76 1.382 . S
C77 H88 0.952 . S
C78 C75 1.388 . S
C78 C79 1.382 . S
C78 H103 0.950 . S
C79 N74 1.332 . S
C79 C78 1.382 . S
C79 H89 0.948 . S
N80 Co58 2.282 . S
N80 C84 1.332 . S
N80 C85 1.332 . S
C81 C82 1.388 . S
C81 C85 1.382 . S
C81 H104 0.950 . S
C82 C81 1.388 . S
C82 C83 1.386 . S
C83 C82 1.386 . S
C83 C84 1.382 . S
C83 H105 0.950 . S
C84 N80 1.332 . S
C84 C83 1.382 . S
C84 H86 0.952 . S
C85 N80 1.332 . S
C85 C81 1.382 . S
C85 H87 0.948 . S
H86 C84 0.952 . S
H87 C85 0.948 . S
H88 C77 0.952 . S
H89 C79 0.948 . S
C90 C56 1.395 . S
C90 C60 1.391 . S
C91 C53 1.389 . S
C91 C73 1.392 . S
C92 C63 1.392 . S
C92 C65 1.389 . S
C93 C68 1.395 . S
C93 C70 1.391 . S
H94 C54 0.951 . S
H95 C55 0.950 . S
H96 C61 0.949 . S
H97 C62 0.950 . S
H98 C66 0.951 . S
H99 C67 0.950 . S
H100 C71 0.949 . S
H101 C72 0.950 . S
H102 C76 0.950 . S
H103 C78 0.950 . S
H104 C81 0.950 . S
H105 C83 0.950 . S
C106 C107 1.443 . S
C106 N110 1.376 . S
C106 C144 1.389 . S
C107 C106 1.443 . S
C107 C108 1.340 . S
C107 H147 0.951 . S
C108 C107 1.340 . S
C108 C109 1.439 . S
C108 H148 0.950 . S
C109 C108 1.439 . S
C109 N110 1.374 . S
C109 C143 1.395 . S
N110 C106 1.376 . S
N110 C109 1.374 . S
N110 Co111 2.008 . S
Co111 N110 2.008 . S
Co111 N112 1.995 . S
Co111 N117 2.008 . S
Co111 N122 1.995 . S
Co111 N127 2.282 . S
Co111 N133 2.282 . S
N112 Co111 1.995 . S
N112 C113 1.376 . S
N112 C116 1.383 . S
C113 N112 1.376 . S
C113 C114 1.446 . S
C113 C143 1.391 . S
C114 C113 1.446 . S
C114 C115 1.339 . S
C114 H149 0.949 . S
C115 C114 1.339 . S
C115 C116 1.439 . S
C115 H150 0.950 . S
C116 N112 1.383 . S
C116 C115 1.439 . S
C116 C145 1.392 . S
N117 Co111 2.008 . S
N117 C118 1.376 . S
N117 C121 1.374 . S
C118 N117 1.376 . S
C118 C119 1.443 . S
C118 C145 1.389 . S
C119 C118 1.443 . S
C119 C120 1.340 . S
C119 H151 0.951 . S
C120 C119 1.340 . S
C120 C121 1.439 . S
C120 H152 0.950 . S
C121 N117 1.374 . S
C121 C120 1.439 . S
C121 C146 1.395 . S
N122 Co111 1.995 . S
N122 C123 1.376 . S
N122 C126 1.383 . S
C123 N122 1.376 . S
C123 C124 1.446 . S
C123 C146 1.391 . S
C124 C123 1.446 . S
C124 C125 1.339 . S
C124 H153 0.949 . S
C125 C124 1.339 . S
C125 C126 1.439 . S
C125 H154 0.950 . S
C126 N122 1.383 . S
C126 C125 1.439 . S
C126 C144 1.392 . S
N127 Co111 2.282 . S
N127 C130 1.332 . S
N127 C132 1.332 . S
C128 C129 1.386 . S
C128 C131 1.388 . S
C129 C128 1.386 . S
C129 C130 1.382 . S
C129 H155 0.950 . S
C130 N127 1.332 . S
C130 C129 1.382 . S
C130 H141 0.952 . S
C131 C128 1.388 . S
C131 C132 1.382 . S
C131 H156 0.950 . S
C132 N127 1.332 . S
C132 C131 1.382 . S
C132 H142 0.948 . S
N133 Co111 2.282 . S
N133 C137 1.332 . S
N133 C138 1.332 . S
C134 C135 1.388 . S
C134 C138 1.382 . S
C134 H157 0.950 . S
C135 C134 1.388 . S
C135 C136 1.386 . S
C136 C135 1.386 . S
C136 C137 1.382 . S
C136 H158 0.950 . S
C137 N133 1.332 . S
C137 C136 1.382 . S
C137 H139 0.952 . S
C138 N133 1.332 . S
C138 C134 1.382 . S
C138 H140 0.948 . S
H139 C137 0.952 . S
H140 C138 0.948 . S
H141 C130 0.952 . S
H142 C132 0.948 . S
C143 C109 1.395 . S
C143 C113 1.391 . S
C144 C106 1.389 . S
C144 C126 1.392 . S
C145 C116 1.392 . S
C145 C118 1.389 . S
C146 C121 1.395 . S
C146 C123 1.391 . S
H147 C107 0.951 . S
H148 C108 0.950 . S
H149 C114 0.949 . S
H150 C115 0.950 . S
H151 C119 0.951 . S
H152 C120 0.950 . S
H153 C124 0.949 . S
H154 C125 0.950 . S
H155 C129 0.950 . S
H156 C131 0.950 . S
H157 C134 0.950 . S
H158 C136 0.950 . S
C159 C160 1.443 . S
C159 N163 1.376 . S
C159 C197 1.389 . S
C160 C159 1.443 . S
C160 C161 1.340 . S
C160 H200 0.951 . S
C161 C160 1.340 . S
C161 C162 1.439 . S
C161 H201 0.950 . S
C162 C161 1.439 . S
C162 N163 1.374 . S
C162 C196 1.395 . S
N163 C159 1.376 . S
N163 C162 1.374 . S
N163 Co164 2.008 . S
Co164 N163 2.008 . S
Co164 N165 1.995 . S
Co164 N170 2.008 1_545 S
Co164 N175 1.985 1_545 S
Co164 N180 2.282 1_545 S
Co164 N186 2.282 . S
N165 Co164 1.995 . S
N165 C166 1.376 . S
N165 C169 1.383 . S
C166 N165 1.376 . S
C166 C167 1.446 . S
C166 C196 1.391 . S
C167 C166 1.446 . S
C167 C168 1.339 . S
C167 H202 0.949 . S
C168 C167 1.339 . S
C168 C169 1.439 . S
C168 H203 0.950 . S
C169 N165 1.383 . S
C169 C168 1.439 . S
C169 C198 1.392 1_545 S
N170 Co164 2.008 1_565 S
N170 C171 1.376 . S
N170 C174 1.374 . S
C171 N170 1.376 . S
C171 C172 1.443 . S
C171 C198 1.389 . S
C172 C171 1.443 . S
C172 C173 1.340 . S
C172 H204 0.951 . S
C173 C172 1.340 . S
C173 C174 1.439 . S
C173 H205 0.950 . S
C174 N170 1.374 . S
C174 C173 1.439 . S
C174 C199 1.395 . S
N175 Co164 1.985 1_565 S
N175 C176 1.398 . S
N175 C179 1.372 1_565 S
C176 N175 1.398 . S
C176 C177 1.446 . S
C176 C199 1.391 . S
C177 C176 1.446 . S
C177 C178 1.339 . S
C177 H206 0.949 . S
C178 C177 1.339 . S
C178 C179 1.439 1_565 S
C178 H207 0.951 . S
C179 N175 1.372 1_545 S
C179 C178 1.439 1_545 S
C179 C197 1.392 . S
N180 Co164 2.282 1_565 S
N180 C183 1.332 . S
N180 C185 1.332 1_565 S
C181 C182 1.386 . S
C181 C184 1.388 . S
C182 C181 1.386 . S
C182 C183 1.382 . S
C182 H208 0.950 . S
C183 N180 1.332 . S
C183 C182 1.382 . S
C183 H194 0.952 . S
C184 C181 1.388 . S
C184 C185 1.382 1_565 S
C184 H209 0.950 . S
C185 N180 1.332 1_545 S
C185 C184 1.382 1_545 S
C185 H195 0.948 . S
N186 Co164 2.282 . S
N186 C190 1.332 . S
N186 C191 1.332 . S
C187 C188 1.388 . S
C187 C191 1.382 . S
C187 H210 0.950 . S
C188 C187 1.388 . S
C188 C189 1.386 . S
C189 C188 1.386 . S
C189 C190 1.382 . S
C189 H211 0.950 . S
C190 N186 1.332 . S
C190 C189 1.382 . S
C190 H192 0.952 . S
C191 N186 1.332 . S
C191 C187 1.382 . S
C191 H193 0.948 . S
H192 C190 0.952 . S
H193 C191 0.948 . S
H194 C183 0.952 . S
H195 C185 0.948 . S
C196 C162 1.395 . S
C196 C166 1.391 . S
C197 C159 1.389 . S
C197 C179 1.392 . S
C198 C169 1.392 1_565 S
C198 C171 1.389 . S
C199 C174 1.395 . S
C199 C176 1.391 . S
H200 C160 0.951 . S
H201 C161 0.950 . S
H202 C167 0.949 . S
H203 C168 0.950 . S
H204 C172 0.951 . S
H205 C173 0.950 . S
H206 C177 0.949 . S
H207 C178 0.951 . S
H208 C182 0.950 . S
H209 C184 0.950 . S
H210 C187 0.950 . S
H211 C189 0.950 . S
C212 C213 1.439 1_565 S
C212 N216 1.376 . S
C212 C250 1.389 . S
C213 C212 1.439 1_545 S
C213 C214 1.348 . S
C213 H253 0.949 1_545 S
C214 C213 1.348 . S
C214 C215 1.439 . S
C214 H254 0.950 . S
C215 C214 1.439 . S
C215 N216 1.374 1_545 S
C215 C249 1.395 . S
N216 C212 1.376 . S
N216 C215 1.374 1_565 S
N216 Co217 2.008 . S
Co217 N216 2.008 . S
Co217 N218 1.995 1_565 S
Co217 N223 2.008 . S
Co217 N228 1.995 . S
Co217 N233 2.282 1_565 S
Co217 N239 2.282 . S
N218 Co217 1.995 1_545 S
N218 C219 1.376 . S
N218 C222 1.383 . S
C219 N218 1.376 . S
C219 C220 1.446 . S
C219 C249 1.391 . S
C220 C219 1.446 . S
C220 C221 1.339 . S
C220 H255 0.949 . S
C221 C220 1.339 . S
C221 C222 1.439 . S
C221 H256 0.950 . S
C222 N218 1.383 . S
C222 C221 1.439 . S
C222 C251 1.392 . S
N223 Co217 2.008 . S
N223 C224 1.376 . S
N223 C227 1.374 . S
C224 N223 1.376 . S
C224 C225 1.443 . S
C224 C251 1.389 1_565 S
C225 C224 1.443 . S
C225 C226 1.340 . S
C225 H257 0.951 . S
C226 C225 1.340 . S
C226 C227 1.439 . S
C226 H258 0.950 . S
C227 N223 1.374 . S
C227 C226 1.439 . S
C227 C252 1.395 . S
N228 Co217 1.995 . S
N228 C229 1.376 . S
N228 C232 1.383 . S
C229 N228 1.376 . S
C229 C230 1.446 . S
C229 C252 1.391 . S
C230 C229 1.446 . S
C230 C231 1.339 . S
C230 H259 0.949 . S
C231 C230 1.339 . S
C231 C232 1.439 . S
C231 H260 0.950 . S
C232 N228 1.383 . S
C232 C231 1.439 . S
C232 C250 1.392 . S
N233 Co217 2.282 1_545 S
N233 C236 1.332 1_545 S
N233 C238 1.332 . S
C234 C235 1.386 . S
C234 C237 1.388 . S
C235 C234 1.386 . S
C235 C236 1.382 1_545 S
C235 H261 0.950 . S
C236 N233 1.332 1_565 S
C236 C235 1.382 1_565 S
C236 H247 0.952 . S
C237 C234 1.388 . S
C237 C238 1.382 . S
C237 H262 0.950 . S
C238 N233 1.332 . S
C238 C237 1.382 . S
C238 H248 0.948 . S
N239 Co217 2.282 . S
N239 C243 1.332 . S
N239 C244 1.332 . S
C240 C241 1.388 . S
C240 C244 1.382 . S
C240 H263 0.950 . S
C241 C240 1.388 . S
C241 C242 1.386 . S
C242 C241 1.386 . S
C242 C243 1.382 . S
C242 H264 0.950 . S
C243 N239 1.332 . S
C243 C242 1.382 . S
C243 H245 0.952 . S
C244 N239 1.332 . S
C244 C240 1.382 . S
C244 H246 0.948 . S
H245 C243 0.952 . S
H246 C244 0.948 . S
H247 C236 0.952 . S
H248 C238 0.948 . S
C249 C215 1.395 . S
C249 C219 1.391 . S
C250 C212 1.389 . S
C250 C232 1.392 . S
C251 C222 1.392 . S
C251 C224 1.389 1_545 S
C252 C227 1.395 . S
C252 C229 1.391 . S
H253 C213 0.949 1_565 S
H254 C214 0.950 . S
H255 C220 0.949 . S
H256 C221 0.950 . S
H257 C225 0.951 . S
H258 C226 0.950 . S
H259 C230 0.949 . S
H260 C231 0.950 . S
H261 C235 0.950 . S
H262 C237 0.950 . S
H263 C240 0.950 . S
H264 C242 0.950 . S
C265 C266 1.443 . S
C265 N269 1.376 . S
C265 C303 1.389 . S
C266 C265 1.443 . S
C266 C267 1.340 . S
C266 H306 0.951 . S
C267 C266 1.340 . S
C267 C268 1.439 . S
C267 H307 0.950 . S
C268 C267 1.439 . S
C268 N269 1.374 . S
C268 C302 1.395 . S
N269 C265 1.376 . S
N269 C268 1.374 . S
N269 Co270 2.008 . S
Co270 N269 2.008 . S
Co270 N271 1.995 . S
Co270 N276 2.008 . S
Co270 N281 1.995 . S
Co270 N286 2.282 . S
Co270 N292 2.282 . S
N271 Co270 1.995 . S
N271 C272 1.376 . S
N271 C275 1.383 . S
C272 N271 1.376 . S
C272 C273 1.446 . S
C272 C302 1.391 . S
C273 C272 1.446 . S
C273 C274 1.339 . S
C273 H308 0.949 . S
C274 C273 1.339 . S
C274 C275 1.439 . S
C274 H309 0.950 . S
C275 N271 1.383 . S
C275 C274 1.439 . S
C275 C304 1.392 . S
N276 Co270 2.008 . S
N276 C277 1.376 . S
N276 C280 1.374 . S
C277 N276 1.376 . S
C277 C278 1.443 . S
C277 C304 1.389 . S
C278 C277 1.443 . S
C278 C279 1.340 . S
C278 H310 0.951 . S
C279 C278 1.340 . S
C279 C280 1.439 . S
C279 H311 0.950 . S
C280 N276 1.374 . S
C280 C279 1.439 . S
C280 C305 1.395 . S
N281 Co270 1.995 . S
N281 C282 1.376 . S
N281 C285 1.383 . S
C282 N281 1.376 . S
C282 C283 1.446 . S
C282 C305 1.391 . S
C283 C282 1.446 . S
C283 C284 1.339 . S
C283 H312 0.949 . S
C284 C283 1.339 . S
C284 C285 1.439 . S
C284 H313 0.950 . S
C285 N281 1.383 . S
C285 C284 1.439 . S
C285 C303 1.392 . S
N286 Co270 2.282 . S
N286 C289 1.332 . S
N286 C291 1.332 . S
C287 C288 1.386 . S
C287 C290 1.388 . S
C288 C287 1.386 . S
C288 C289 1.382 . S
C288 H314 0.950 . S
C289 N286 1.332 . S
C289 C288 1.382 . S
C289 H300 0.952 . S
C290 C287 1.388 . S
C290 C291 1.382 . S
C290 H315 0.950 . S
C291 N286 1.332 . S
C291 C290 1.382 . S
C291 H301 0.948 . S
N292 Co270 2.282 . S
N292 C296 1.332 . S
N292 C297 1.332 . S
C293 C294 1.388 . S
C293 C297 1.382 . S
C293 H316 0.950 . S
C294 C293 1.388 . S
C294 C295 1.386 . S
C295 C294 1.386 . S
C295 C296 1.382 . S
C295 H317 0.950 . S
C296 N292 1.332 . S
C296 C295 1.382 . S
C296 H298 0.952 . S
C297 N292 1.332 . S
C297 C293 1.382 . S
C297 H299 0.948 . S
H298 C296 0.952 . S
H299 C297 0.948 . S
H300 C289 0.952 . S
H301 C291 0.948 . S
C302 C268 1.395 . S
C302 C272 1.391 . S
C303 C265 1.389 . S
C303 C285 1.392 . S
C304 C275 1.392 . S
C304 C277 1.389 . S
C305 C280 1.395 . S
C305 C282 1.391 . S
H306 C266 0.951 . S
H307 C267 0.950 . S
H308 C273 0.949 . S
H309 C274 0.950 . S
H310 C278 0.951 . S
H311 C279 0.950 . S
H312 C283 0.949 . S
H313 C284 0.950 . S
H314 C288 0.950 . S
H315 C290 0.950 . S
H316 C293 0.950 . S
H317 C295 0.950 . S
C318 C319 1.443 . S
C318 N322 1.376 . S
C318 C356 1.389 . S
C319 C318 1.443 . S
C319 C320 1.340 . S
C319 H359 0.951 . S
C320 C319 1.340 . S
C320 C321 1.439 . S
C320 H360 0.950 . S
C321 C320 1.439 . S
C321 N322 1.374 . S
C321 C355 1.395 . S
N322 C318 1.376 . S
N322 C321 1.374 . S
N322 Co323 2.008 . S
Co323 N322 2.008 . S
Co323 N324 1.995 . S
Co323 N329 2.008 . S
Co323 N334 1.995 . S
Co323 N339 2.282 . S
Co323 N345 2.282 . S
N324 Co323 1.995 . S
N324 C325 1.376 . S
N324 C328 1.383 . S
C325 N324 1.376 . S
C325 C326 1.446 . S
C325 C355 1.391 . S
C326 C325 1.446 . S
C326 C327 1.339 . S
C326 H361 0.949 . S
C327 C326 1.339 . S
C327 C328 1.439 . S
C327 H362 0.950 . S
C328 N324 1.383 . S
C328 C327 1.439 . S
C328 C357 1.392 . S
N329 Co323 2.008 . S
N329 C330 1.376 . S
N329 C333 1.374 . S
C330 N329 1.376 . S
C330 C331 1.443 . S
C330 C357 1.389 . S
C331 C330 1.443 . S
C331 C332 1.340 . S
C331 H363 0.951 . S
C332 C331 1.340 . S
C332 C333 1.439 . S
C332 H364 0.950 . S
C333 N329 1.374 . S
C333 C332 1.439 . S
C333 C358 1.395 . S
N334 Co323 1.995 . S
N334 C335 1.376 . S
N334 C338 1.383 . S
C335 N334 1.376 . S
C335 C336 1.446 . S
C335 C358 1.391 . S
C336 C335 1.446 . S
C336 C337 1.339 . S
C336 H365 0.949 . S
C337 C336 1.339 . S
C337 C338 1.439 . S
C337 H366 0.950 . S
C338 N334 1.383 . S
C338 C337 1.439 . S
C338 C356 1.392 . S
N339 Co323 2.282 . S
N339 C342 1.332 . S
N339 C344 1.332 . S
C340 C341 1.386 . S
C340 C343 1.388 . S
C341 C340 1.386 . S
C341 C342 1.382 . S
C341 H367 0.950 . S
C342 N339 1.332 . S
C342 C341 1.382 . S
C342 H353 0.952 . S
C343 C340 1.388 . S
C343 C344 1.382 . S
C343 H368 0.950 . S
C344 N339 1.332 . S
C344 C343 1.382 . S
C344 H354 0.948 . S
N345 Co323 2.282 . S
N345 C349 1.332 . S
N345 C350 1.332 . S
C346 C347 1.388 . S
C346 C350 1.382 . S
C346 H369 0.950 . S
C347 C346 1.388 . S
C347 C348 1.386 . S
C348 C347 1.386 . S
C348 C349 1.382 . S
C348 H370 0.950 . S
C349 N345 1.332 . S
C349 C348 1.382 . S
C349 H351 0.952 . S
C350 N345 1.332 . S
C350 C346 1.382 . S
C350 H352 0.948 . S
H351 C349 0.952 . S
H352 C350 0.948 . S
H353 C342 0.952 . S
H354 C344 0.948 . S
C355 C321 1.395 . S
C355 C325 1.391 . S
C356 C318 1.389 . S
C356 C338 1.392 . S
C357 C328 1.392 . S
C357 C330 1.389 . S
C358 C333 1.395 . S
C358 C335 1.391 . S
H359 C319 0.951 . S
H360 C320 0.950 . S
H361 C326 0.949 . S
H362 C327 0.950 . S
H363 C331 0.951 . S
H364 C332 0.950 . S
H365 C336 0.949 . S
H366 C337 0.950 . S
H367 C341 0.950 . S
H368 C343 0.950 . S
H369 C346 0.950 . S
H370 C348 0.950 . S
C371 C372 1.444 1_565 S
C371 N375 1.376 . S
C371 C409 1.389 . S
C372 C371 1.444 1_545 S
C372 C373 1.340 . S
C372 H412 0.951 1_545 S
C373 C372 1.340 . S
C373 C374 1.439 . S
C373 H413 0.950 . S
C374 C373 1.439 . S
C374 N375 1.374 1_545 S
C374 C408 1.395 . S
N375 C371 1.376 . S
N375 C374 1.374 1_565 S
N375 Co376 2.008 . S
Co376 N375 2.008 . S
Co376 N377 1.995 1_565 S
Co376 N382 2.008 . S
Co376 N387 1.995 . S
Co376 N392 2.282 1_565 S
Co376 N398 2.282 . S
N377 Co376 1.995 1_545 S
N377 C378 1.376 . S
N377 C381 1.383 . S
C378 N377 1.376 . S
C378 C379 1.446 . S
C378 C408 1.391 . S
C379 C378 1.446 . S
C379 C380 1.339 . S
C379 H414 0.949 . S
C380 C379 1.339 . S
C380 C381 1.439 . S
C380 H415 0.950 . S
C381 N377 1.383 . S
C381 C380 1.439 . S
C381 C410 1.392 . S
N382 Co376 2.008 . S
N382 C383 1.376 . S
N382 C386 1.374 . S
C383 N382 1.376 . S
C383 C384 1.443 . S
C383 C410 1.389 1_565 S
C384 C383 1.443 . S
C384 C385 1.340 . S
C384 H416 0.951 . S
C385 C384 1.340 . S
C385 C386 1.439 . S
C385 H417 0.950 . S
C386 N382 1.374 . S
C386 C385 1.439 . S
C386 C411 1.395 . S
N387 Co376 1.995 . S
N387 C388 1.376 . S
N387 C391 1.383 . S
C388 N387 1.376 . S
C388 C389 1.446 . S
C388 C411 1.391 . S
C389 C388 1.446 . S
C389 C390 1.339 . S
C389 H418 0.949 . S
C390 C389 1.339 . S
C390 C391 1.439 . S
C390 H419 0.950 . S
C391 N387 1.383 . S
C391 C390 1.439 . S
C391 C409 1.392 . S
N392 Co376 2.282 1_545 S
N392 C395 1.332 1_545 S
N392 C397 1.332 . S
C393 C394 1.386 . S
C393 C396 1.388 . S
C394 C393 1.386 . S
C394 C395 1.382 1_545 S
C394 H420 0.950 . S
C395 N392 1.332 1_565 S
C395 C394 1.382 1_565 S
C395 H406 0.952 . S
C396 C393 1.388 . S
C396 C397 1.382 . S
C396 H421 0.950 . S
C397 N392 1.332 . S
C397 C396 1.382 . S
C397 H407 0.948 . S
N398 Co376 2.282 . S
N398 C402 1.332 . S
N398 C403 1.332 . S
C399 C400 1.388 . S
C399 C403 1.382 . S
C399 H422 0.950 . S
C400 C399 1.388 . S
C400 C401 1.386 . S
C401 C400 1.386 . S
C401 C402 1.382 . S
C401 H423 0.950 . S
C402 N398 1.332 . S
C402 C401 1.382 . S
C402 H404 0.952 . S
C403 N398 1.332 . S
C403 C399 1.382 . S
C403 H405 0.948 . S
H404 C402 0.952 . S
H405 C403 0.948 . S
H406 C395 0.952 . S
H407 C397 0.948 . S
C408 C374 1.395 . S
C408 C378 1.391 . S
C409 C371 1.389 . S
C409 C391 1.392 . S
C410 C381 1.392 . S
C410 C383 1.389 1_545 S
C411 C386 1.395 . S
C411 C388 1.391 . S
H412 C372 0.951 1_565 S
H413 C373 0.950 . S
H414 C379 0.949 . S
H415 C380 0.950 . S
H416 C384 0.951 . S
H417 C385 0.950 . S
H418 C389 0.949 . S
H419 C390 0.950 . S
H420 C394 0.950 . S
H421 C396 0.950 . S
H422 C399 0.950 . S
H423 C401 0.950 . S
C424 C425 1.443 . S
C424 N428 1.376 . S
C424 C462 1.389 . S
C425 C424 1.443 . S
C425 C426 1.340 . S
C425 H465 0.951 . S
C426 C425 1.340 . S
C426 C427 1.439 . S
C426 H466 0.950 . S
C427 C426 1.439 . S
C427 N428 1.374 . S
C427 C461 1.395 . S
N428 C424 1.376 . S
N428 C427 1.374 . S
N428 Co429 2.008 . S
Co429 N428 2.008 . S
Co429 N430 1.995 . S
Co429 N435 2.008 . S
Co429 N440 1.995 . S
Co429 N445 2.282 . S
Co429 N451 2.282 . S
N430 Co429 1.995 . S
N430 C431 1.376 . S
N430 C434 1.383 . S
C431 N430 1.376 . S
C431 C432 1.446 . S
C431 C461 1.391 . S
C432 C431 1.446 . S
C432 C433 1.339 . S
C432 H467 0.949 . S
C433 C432 1.339 . S
C433 C434 1.439 . S
C433 H468 0.950 . S
C434 N430 1.383 . S
C434 C433 1.439 . S
C434 C463 1.392 . S
N435 Co429 2.008 . S
N435 C436 1.376 . S
N435 C439 1.374 . S
C436 N435 1.376 . S
C436 C437 1.443 . S
C436 C463 1.389 . S
C437 C436 1.443 . S
C437 C438 1.340 . S
C437 H469 0.951 . S
C438 C437 1.340 . S
C438 C439 1.439 . S
C438 H470 0.950 . S
C439 N435 1.374 . S
C439 C438 1.439 . S
C439 C464 1.395 . S
N440 Co429 1.995 . S
N440 C441 1.376 . S
N440 C444 1.383 . S
C441 N440 1.376 . S
C441 C442 1.446 . S
C441 C464 1.391 . S
C442 C441 1.446 . S
C442 C443 1.339 . S
C442 H471 0.949 . S
C443 C442 1.339 . S
C443 C444 1.439 . S
C443 H472 0.950 . S
C444 N440 1.383 . S
C444 C443 1.439 . S
C444 C462 1.392 . S
N445 Co429 2.282 . S
N445 C448 1.332 . S
N445 C450 1.332 . S
C446 C447 1.386 . S
C446 C449 1.388 . S
C447 C446 1.386 . S
C447 C448 1.382 . S
C447 H473 0.950 . S
C448 N445 1.332 . S
C448 C447 1.382 . S
C448 H459 0.952 . S
C449 C446 1.388 . S
C449 C450 1.382 . S
C449 H474 0.950 . S
C450 N445 1.332 . S
C450 C449 1.382 . S
C450 H460 0.948 . S
N451 Co429 2.282 . S
N451 C455 1.332 . S
N451 C456 1.332 . S
C452 C453 1.388 . S
C452 C456 1.382 . S
C452 H475 0.950 . S
C453 C452 1.388 . S
C453 C454 1.386 . S
C454 C453 1.386 . S
C454 C455 1.382 . S
C454 H476 0.950 . S
C455 N451 1.332 . S
C455 C454 1.382 . S
C455 H457 0.952 . S
C456 N451 1.332 . S
C456 C452 1.382 . S
C456 H458 0.948 . S
H457 C455 0.952 . S
H458 C456 0.948 . S
H459 C448 0.952 . S
H460 C450 0.948 . S
C461 C427 1.395 . S
C461 C431 1.391 . S
C462 C424 1.389 . S
C462 C444 1.392 . S
C463 C434 1.392 . S
C463 C436 1.389 . S
C464 C439 1.395 . S
C464 C441 1.391 . S
H465 C425 0.951 . S
H466 C426 0.950 . S
H467 C432 0.949 . S
H468 C433 0.950 . S
H469 C437 0.951 . S
H470 C438 0.950 . S
H471 C442 0.949 . S
H472 C443 0.950 . S
H473 C447 0.950 . S
H474 C449 0.950 . S
H475 C452 0.950 . S
H476 C454 0.950 . S
C477 C478 1.443 . S
C477 N481 1.376 . S
C477 C515 1.389 . S
C478 C477 1.443 . S
C478 C479 1.340 . S
C478 H518 0.951 . S
C479 C478 1.340 . S
C479 C480 1.439 . S
C479 H519 0.950 . S
C480 C479 1.439 . S
C480 N481 1.374 . S
C480 C514 1.395 . S
N481 C477 1.376 . S
N481 C480 1.374 . S
N481 Co482 2.008 . S
Co482 N481 2.008 . S
Co482 N483 1.995 . S
Co482 N488 2.008 . S
Co482 N493 1.995 . S
Co482 N498 2.282 . S
Co482 N504 2.282 . S
N483 Co482 1.995 . S
N483 C484 1.376 . S
N483 C487 1.383 . S
C484 N483 1.376 . S
C484 C485 1.446 . S
C484 C514 1.391 . S
C485 C484 1.446 . S
C485 C486 1.339 . S
C485 H520 0.949 . S
C486 C485 1.339 . S
C486 C487 1.439 . S
C486 H521 0.950 . S
C487 N483 1.383 . S
C487 C486 1.439 . S
C487 C516 1.392 . S
N488 Co482 2.008 . S
N488 C489 1.376 . S
N488 C492 1.374 . S
C489 N488 1.376 . S
C489 C490 1.443 . S
C489 C516 1.389 . S
C490 C489 1.443 . S
C490 C491 1.340 . S
C490 H522 0.951 . S
C491 C490 1.340 . S
C491 C492 1.439 . S
C491 H523 0.950 . S
C492 N488 1.374 . S
C492 C491 1.439 . S
C492 C517 1.395 . S
N493 Co482 1.995 . S
N493 C494 1.376 . S
N493 C497 1.383 . S
C494 N493 1.376 . S
C494 C495 1.446 . S
C494 C517 1.391 . S
C495 C494 1.446 . S
C495 C496 1.339 . S
C495 H524 0.949 . S
C496 C495 1.339 . S
C496 C497 1.439 . S
C496 H525 0.950 . S
C497 N493 1.383 . S
C497 C496 1.439 . S
C497 C515 1.392 . S
N498 Co482 2.282 . S
N498 C501 1.332 . S
N498 C503 1.332 . S
C499 C500 1.386 . S
C499 C502 1.388 . S
C500 C499 1.386 . S
C500 C501 1.382 . S
C500 H526 0.950 . S
C501 N498 1.332 . S
C501 C500 1.382 . S
C501 H512 0.952 . S
C502 C499 1.388 . S
C502 C503 1.382 . S
C502 H527 0.950 . S
C503 N498 1.332 . S
C503 C502 1.382 . S
C503 H513 0.948 . S
N504 Co482 2.282 . S
N504 C508 1.332 . S
N504 C509 1.332 . S
C505 C506 1.388 . S
C505 C509 1.382 . S
C505 H528 0.950 . S
C506 C505 1.388 . S
C506 C507 1.386 . S
C507 C506 1.386 . S
C507 C508 1.382 . S
C507 H529 0.950 . S
C508 N504 1.332 . S
C508 C507 1.382 . S
C508 H510 0.952 . S
C509 N504 1.332 . S
C509 C505 1.382 . S
C509 H511 0.948 . S
H510 C508 0.952 . S
H511 C509 0.948 . S
H512 C501 0.952 . S
H513 C503 0.948 . S
C514 C480 1.395 . S
C514 C484 1.391 . S
C515 C477 1.389 . S
C515 C497 1.392 . S
C516 C487 1.392 . S
C516 C489 1.389 . S
C517 C492 1.395 . S
C517 C494 1.391 . S
H518 C478 0.951 . S
H519 C479 0.950 . S
H520 C485 0.949 . S
H521 C486 0.950 . S
H522 C490 0.951 . S
H523 C491 0.950 . S
H524 C495 0.949 . S
H525 C496 0.950 . S
H526 C500 0.950 . S
H527 C502 0.950 . S
H528 C505 0.950 . S
H529 C507 0.950 . S
C530 C531 1.443 . S
C530 N534 1.376 . S
C530 C568 1.389 . S
C531 C530 1.443 . S
C531 C532 1.340 . S
C531 H571 0.951 . S
C532 C531 1.340 . S
C532 C533 1.439 . S
C532 H572 0.950 . S
C533 C532 1.439 . S
C533 N534 1.374 . S
C533 C567 1.395 . S
N534 C530 1.376 . S
N534 C533 1.374 . S
N534 Co535 2.008 . S
Co535 N534 2.008 . S
Co535 N536 1.995 . S
Co535 N541 2.008 . S
Co535 N546 1.995 . S
Co535 N551 2.282 . S
Co535 N557 2.282 . S
N536 Co535 1.995 . S
N536 C537 1.376 . S
N536 C540 1.383 . S
C537 N536 1.376 . S
C537 C538 1.446 . S
C537 C567 1.391 . S
C538 C537 1.446 . S
C538 C539 1.339 . S
C538 H573 0.949 . S
C539 C538 1.339 . S
C539 C540 1.439 . S
C539 H574 0.950 . S
C540 N536 1.383 . S
C540 C539 1.439 . S
C540 C569 1.392 . S
N541 Co535 2.008 . S
N541 C542 1.376 . S
N541 C545 1.374 . S
C542 N541 1.376 . S
C542 C543 1.443 . S
C542 C569 1.389 . S
C543 C542 1.443 . S
C543 C544 1.340 . S
C543 H575 0.951 . S
C544 C543 1.340 . S
C544 C545 1.439 . S
C544 H576 0.950 . S
C545 N541 1.374 . S
C545 C544 1.439 . S
C545 C570 1.395 . S
N546 Co535 1.995 . S
N546 C547 1.376 . S
N546 C550 1.383 . S
C547 N546 1.376 . S
C547 C548 1.446 . S
C547 C570 1.391 . S
C548 C547 1.446 . S
C548 C549 1.339 . S
C548 H577 0.949 . S
C549 C548 1.339 . S
C549 C550 1.439 . S
C549 H578 0.950 . S
C550 N546 1.383 . S
C550 C549 1.439 . S
C550 C568 1.392 . S
N551 Co535 2.282 . S
N551 C554 1.332 . S
N551 C556 1.332 . S
C552 C553 1.386 . S
C552 C555 1.388 . S
C553 C552 1.386 . S
C553 C554 1.382 . S
C553 H579 0.950 . S
C554 N551 1.332 . S
C554 C553 1.382 . S
C554 H565 0.952 . S
C555 C552 1.388 . S
C555 C556 1.382 . S
C555 H580 0.950 . S
C556 N551 1.332 . S
C556 C555 1.382 . S
C556 H566 0.948 . S
N557 Co535 2.282 . S
N557 C561 1.332 . S
N557 C562 1.332 . S
C558 C559 1.388 . S
C558 C562 1.382 . S
C558 H581 0.950 . S
C559 C558 1.388 . S
C559 C560 1.386 . S
C560 C559 1.386 . S
C560 C561 1.382 . S
C560 H582 0.950 . S
C561 N557 1.332 . S
C561 C560 1.382 . S
C561 H563 0.952 . S
C562 N557 1.332 . S
C562 C558 1.382 . S
C562 H564 0.948 . S
H563 C561 0.952 . S
H564 C562 0.948 . S
H565 C554 0.952 . S
H566 C556 0.948 . S
C567 C533 1.395 . S
C567 C537 1.391 . S
C568 C530 1.389 . S
C568 C550 1.392 . S
C569 C540 1.392 . S
C569 C542 1.389 . S
C570 C545 1.395 . S
C570 C547 1.391 . S
H571 C531 0.951 . S
H572 C532 0.950 . S
H573 C538 0.949 . S
H574 C539 0.950 . S
H575 C543 0.951 . S
H576 C544 0.950 . S
H577 C548 0.949 . S
H578 C549 0.950 . S
H579 C553 0.950 . S
H580 C555 0.950 . S
H581 C558 0.950 . S
H582 C560 0.950 . S
C583 C584 1.443 . S
C583 N587 1.376 . S
C583 C621 1.389 . S
C584 C583 1.443 . S
C584 C585 1.340 . S
C584 H624 0.951 . S
C585 C584 1.340 . S
C585 C586 1.439 . S
C585 H625 0.950 . S
C586 C585 1.439 . S
C586 N587 1.374 . S
C586 C620 1.395 . S
N587 C583 1.376 . S
N587 C586 1.374 . S
N587 Co588 2.008 . S
Co588 N587 2.008 . S
Co588 N589 1.995 . S
Co588 N594 2.008 . S
Co588 N599 1.995 . S
Co588 N604 2.282 . S
Co588 N610 2.282 . S
N589 Co588 1.995 . S
N589 C590 1.376 . S
N589 C593 1.383 . S
C590 N589 1.376 . S
C590 C591 1.446 . S
C590 C620 1.391 . S
C591 C590 1.446 . S
C591 C592 1.339 . S
C591 H626 0.949 . S
C592 C591 1.339 . S
C592 C593 1.439 . S
C592 H627 0.950 . S
C593 N589 1.383 . S
C593 C592 1.439 . S
C593 C622 1.392 . S
N594 Co588 2.008 . S
N594 C595 1.376 . S
N594 C598 1.374 . S
C595 N594 1.376 . S
C595 C596 1.443 . S
C595 C622 1.389 . S
C596 C595 1.443 . S
C596 C597 1.340 . S
C596 H628 0.951 . S
C597 C596 1.340 . S
C597 C598 1.439 . S
C597 H629 0.950 . S
C598 N594 1.374 . S
C598 C597 1.439 . S
C598 C623 1.395 . S
N599 Co588 1.995 . S
N599 C600 1.376 . S
N599 C603 1.383 . S
C600 N599 1.376 . S
C600 C601 1.446 . S
C600 C623 1.391 . S
C601 C600 1.446 . S
C601 C602 1.339 . S
C601 H630 0.949 . S
C602 C601 1.339 . S
C602 C603 1.439 . S
C602 H631 0.950 . S
C603 N599 1.383 . S
C603 C602 1.439 . S
C603 C621 1.392 . S
N604 Co588 2.282 . S
N604 C607 1.332 . S
N604 C609 1.332 . S
C605 C606 1.386 . S
C605 C608 1.388 . S
C606 C605 1.386 . S
C606 C607 1.382 . S
C606 H632 0.950 . S
C607 N604 1.332 . S
C607 C606 1.382 . S
C607 H618 0.952 . S
C608 C605 1.388 . S
C608 C609 1.382 . S
C608 H633 0.950 . S
C609 N604 1.332 . S
C609 C608 1.382 . S
C609 H619 0.948 . S
N610 Co588 2.282 . S
N610 C614 1.332 . S
N610 C615 1.332 . S
C611 C612 1.388 . S
C611 C615 1.382 . S
C611 H634 0.950 . S
C612 C611 1.388 . S
C612 C613 1.386 . S
C613 C612 1.386 . S
C613 C614 1.382 . S
C613 H635 0.950 . S
C614 N610 1.332 . S
C614 C613 1.382 . S
C614 H616 0.952 . S
C615 N610 1.332 . S
C615 C611 1.382 . S
C615 H617 0.948 . S
H616 C614 0.952 . S
H617 C615 0.948 . S
H618 C607 0.952 . S
H619 C609 0.948 . S
C620 C586 1.395 . S
C620 C590 1.391 . S
C621 C583 1.389 . S
C621 C603 1.392 . S
C622 C593 1.392 . S
C622 C595 1.389 . S
C623 C598 1.395 . S
C623 C600 1.391 . S
H624 C584 0.951 . S
H625 C585 0.950 . S
H626 C591 0.949 . S
H627 C592 0.950 . S
H628 C596 0.951 . S
H629 C597 0.950 . S
H630 C601 0.949 . S
H631 C602 0.950 . S
H632 C606 0.950 . S
H633 C608 0.950 . S
H634 C611 0.950 . S
H635 C613 0.950 . S
C636 C637 1.443 . S
C636 N640 1.376 . S
C636 C674 1.389 . S
C637 C636 1.443 . S
C637 C638 1.340 . S
C637 H677 0.951 . S
C638 C637 1.340 . S
C638 C639 1.439 . S
C638 H678 0.950 . S
C639 C638 1.439 . S
C639 N640 1.374 . S
C639 C673 1.395 . S
N640 C636 1.376 . S
N640 C639 1.374 . S
N640 Co641 2.008 . S
Co641 N640 2.008 . S
Co641 N642 1.995 . S
Co641 N647 2.008 . S
Co641 N652 1.995 . S
Co641 N657 2.282 . S
Co641 N663 2.282 . S
N642 Co641 1.995 . S
N642 C643 1.376 . S
N642 C646 1.383 . S
C643 N642 1.376 . S
C643 C644 1.446 . S
C643 C673 1.391 . S
C644 C643 1.446 . S
C644 C645 1.339 . S
C644 H679 0.949 . S
C645 C644 1.339 . S
C645 C646 1.439 . S
C645 H680 0.950 . S
C646 N642 1.383 . S
C646 C645 1.439 . S
C646 C675 1.392 . S
N647 Co641 2.008 . S
N647 C648 1.376 . S
N647 C651 1.374 . S
C648 N647 1.376 . S
C648 C649 1.443 . S
C648 C675 1.389 . S
C649 C648 1.443 . S
C649 C650 1.340 . S
C649 H681 0.951 . S
C650 C649 1.340 . S
C650 C651 1.439 . S
C650 H682 0.950 . S
C651 N647 1.374 . S
C651 C650 1.439 . S
C651 C676 1.395 . S
N652 Co641 1.995 . S
N652 C653 1.376 . S
N652 C656 1.383 . S
C653 N652 1.376 . S
C653 C654 1.446 . S
C653 C676 1.391 . S
C654 C653 1.446 . S
C654 C655 1.339 . S
C654 H683 0.949 . S
C655 C654 1.339 . S
C655 C656 1.439 . S
C655 H684 0.950 . S
C656 N652 1.383 . S
C656 C655 1.439 . S
C656 C674 1.392 . S
N657 Co641 2.282 . S
N657 C660 1.332 . S
N657 C662 1.332 . S
C658 C659 1.386 . S
C658 C661 1.388 . S
C659 C658 1.386 . S
C659 C660 1.382 . S
C659 H685 0.950 . S
C660 N657 1.332 . S
C660 C659 1.382 . S
C660 H671 0.952 . S
C661 C658 1.388 . S
C661 C662 1.382 . S
C661 H686 0.950 . S
C662 N657 1.332 . S
C662 C661 1.382 . S
C662 H672 0.948 . S
N663 Co641 2.282 . S
N663 C667 1.332 . S
N663 C668 1.332 . S
C664 C665 1.388 . S
C664 C668 1.382 . S
C664 H687 0.950 . S
C665 C664 1.388 . S
C665 C666 1.386 . S
C666 C665 1.386 . S
C666 C667 1.382 . S
C666 H688 0.950 . S
C667 N663 1.332 . S
C667 C666 1.382 . S
C667 H669 0.952 . S
C668 N663 1.332 . S
C668 C664 1.382 . S
C668 H670 0.948 . S
H669 C667 0.952 . S
H670 C668 0.948 . S
H671 C660 0.952 . S
H672 C662 0.948 . S
C673 C639 1.395 . S
C673 C643 1.391 . S
C674 C636 1.389 . S
C674 C656 1.392 . S
C675 C646 1.392 . S
C675 C648 1.389 . S
C676 C651 1.395 . S
C676 C653 1.391 . S
H677 C637 0.951 . S
H678 C638 0.950 . S
H679 C644 0.949 . S
H680 C645 0.950 . S
H681 C649 0.951 . S
H682 C650 0.950 . S
H683 C654 0.949 . S
H684 C655 0.950 . S
H685 C659 0.950 . S
H686 C661 0.950 . S
H687 C664 0.950 . S
H688 C666 0.950 . S
C689 C690 1.443 . S
C689 N693 1.376 . S
C689 C727 1.389 . S
C690 C689 1.443 . S
C690 C691 1.340 . S
C690 H730 0.951 . S
C691 C690 1.340 . S
C691 C692 1.439 . S
C691 H731 0.950 . S
C692 C691 1.439 . S
C692 N693 1.374 . S
C692 C726 1.395 . S
N693 C689 1.376 . S
N693 C692 1.374 . S
N693 Co694 2.008 . S
Co694 N693 2.008 . S
Co694 N695 1.995 . S
Co694 N700 2.008 . S
Co694 N705 1.995 . S
Co694 N710 2.282 . S
Co694 N716 2.282 . S
N695 Co694 1.995 . S
N695 C696 1.376 . S
N695 C699 1.383 . S
C696 N695 1.376 . S
C696 C697 1.446 . S
C696 C726 1.391 . S
C697 C696 1.446 . S
C697 C698 1.339 . S
C697 H732 0.949 . S
C698 C697 1.339 . S
C698 C699 1.439 . S
C698 H733 0.950 . S
C699 N695 1.383 . S
C699 C698 1.439 . S
C699 C728 1.392 . S
N700 Co694 2.008 . S
N700 C701 1.376 . S
N700 C704 1.374 . S
C701 N700 1.376 . S
C701 C702 1.443 . S
C701 C728 1.389 . S
C702 C701 1.443 . S
C702 C703 1.340 . S
C702 H734 0.951 . S
C703 C702 1.340 . S
C703 C704 1.439 . S
C703 H735 0.950 . S
C704 N700 1.374 . S
C704 C703 1.439 . S
C704 C729 1.395 . S
N705 Co694 1.995 . S
N705 C706 1.376 . S
N705 C709 1.383 . S
C706 N705 1.376 . S
C706 C707 1.446 . S
C706 C729 1.391 . S
C707 C706 1.446 . S
C707 C708 1.339 . S
C707 H736 0.949 . S
C708 C707 1.339 . S
C708 C709 1.439 . S
C708 H737 0.950 . S
C709 N705 1.383 . S
C709 C708 1.439 . S
C709 C727 1.392 . S
N710 Co694 2.282 . S
N710 C713 1.332 . S
N710 C715 1.332 . S
C711 C712 1.386 . S
C711 C714 1.388 . S
C712 C711 1.386 . S
C712 C713 1.382 . S
C712 H738 0.950 . S
C713 N710 1.332 . S
C713 C712 1.382 . S
C713 H724 0.952 . S
C714 C711 1.388 . S
C714 C715 1.382 . S
C714 H739 0.950 . S
C715 N710 1.332 . S
C715 C714 1.382 . S
C715 H725 0.948 . S
N716 Co694 2.282 . S
N716 C720 1.332 . S
N716 C721 1.332 . S
C717 C718 1.388 . S
C717 C721 1.382 . S
C717 H740 0.950 . S
C718 C717 1.388 . S
C718 C719 1.386 . S
C719 C718 1.386 . S
C719 C720 1.382 . S
C719 H741 0.950 . S
C720 N716 1.332 . S
C720 C719 1.382 . S
C720 H722 0.952 . S
C721 N716 1.332 . S
C721 C717 1.382 . S
C721 H723 0.948 . S
H722 C720 0.952 . S
H723 C721 0.948 . S
H724 C713 0.952 . S
H725 C715 0.948 . S
C726 C692 1.395 . S
C726 C696 1.391 . S
C727 C689 1.389 . S
C727 C709 1.392 . S
C728 C699 1.392 . S
C728 C701 1.389 . S
C729 C704 1.395 . S
C729 C706 1.391 . S
H730 C690 0.951 . S
H731 C691 0.950 . S
H732 C697 0.949 . S
H733 C698 0.950 . S
H734 C702 0.951 . S
H735 C703 0.950 . S
H736 C707 0.949 . S
H737 C708 0.950 . S
H738 C712 0.950 . S
H739 C714 0.950 . S
H740 C717 0.950 . S
H741 C719 0.950 . S
C742 C743 1.443 . S
C742 N746 1.376 . S
C742 C780 1.389 . S
C743 C742 1.443 . S
C743 C744 1.340 . S
C743 H783 0.951 . S
C744 C743 1.340 . S
C744 C745 1.439 . S
C744 H784 0.950 . S
C745 C744 1.439 . S
C745 N746 1.374 . S
C745 C779 1.395 . S
N746 C742 1.376 . S
N746 C745 1.374 . S
N746 Co747 2.008 . S
Co747 N746 2.008 . S
Co747 N748 1.995 . S
Co747 N753 2.008 . S
Co747 N758 1.995 . S
Co747 N763 2.282 . S
Co747 N769 2.282 . S
N748 Co747 1.995 . S
N748 C749 1.376 . S
N748 C752 1.383 . S
C749 N748 1.376 . S
C749 C750 1.446 . S
C749 C779 1.391 . S
C750 C749 1.446 . S
C750 C751 1.339 . S
C750 H785 0.949 . S
C751 C750 1.339 . S
C751 C752 1.439 . S
C751 H786 0.950 . S
C752 N748 1.383 . S
C752 C751 1.439 . S
C752 C781 1.392 . S
N753 Co747 2.008 . S
N753 C754 1.376 . S
N753 C757 1.374 . S
C754 N753 1.376 . S
C754 C755 1.443 . S
C754 C781 1.389 . S
C755 C754 1.443 . S
C755 C756 1.340 . S
C755 H787 0.951 . S
C756 C755 1.340 . S
C756 C757 1.439 . S
C756 H788 0.950 . S
C757 N753 1.374 . S
C757 C756 1.439 . S
C757 C782 1.395 . S
N758 Co747 1.995 . S
N758 C759 1.376 . S
N758 C762 1.383 . S
C759 N758 1.376 . S
C759 C760 1.446 . S
C759 C782 1.391 . S
C760 C759 1.446 . S
C760 C761 1.339 . S
C760 H789 0.949 . S
C761 C760 1.339 . S
C761 C762 1.439 . S
C761 H790 0.950 . S
C762 N758 1.383 . S
C762 C761 1.439 . S
C762 C780 1.392 . S
N763 Co747 2.282 . S
N763 C766 1.332 . S
N763 C768 1.332 . S
C764 C765 1.386 . S
C764 C767 1.388 . S
C765 C764 1.386 . S
C765 C766 1.382 . S
C765 H791 0.950 . S
C766 N763 1.332 . S
C766 C765 1.382 . S
C766 H777 0.952 . S
C767 C764 1.388 . S
C767 C768 1.382 . S
C767 H792 0.950 . S
C768 N763 1.332 . S
C768 C767 1.382 . S
C768 H778 0.948 . S
N769 Co747 2.282 . S
N769 C773 1.332 . S
N769 C774 1.332 . S
C770 C771 1.388 . S
C770 C774 1.382 . S
C770 H793 0.950 . S
C771 C770 1.388 . S
C771 C772 1.386 . S
C772 C771 1.386 . S
C772 C773 1.382 . S
C772 H794 0.950 . S
C773 N769 1.332 . S
C773 C772 1.382 . S
C773 H775 0.952 . S
C774 N769 1.332 . S
C774 C770 1.382 . S
C774 H776 0.948 . S
H775 C773 0.952 . S
H776 C774 0.948 . S
H777 C766 0.952 . S
H778 C768 0.948 . S
C779 C745 1.395 . S
C779 C749 1.391 . S
C780 C742 1.389 . S
C780 C762 1.392 . S
C781 C752 1.392 . S
C781 C754 1.389 . S
C782 C757 1.395 . S
C782 C759 1.391 . S
H783 C743 0.951 . S
H784 C744 0.950 . S
H785 C750 0.949 . S
H786 C751 0.950 . S
H787 C755 0.951 . S
H788 C756 0.950 . S
H789 C760 0.949 . S
H790 C761 0.950 . S
H791 C765 0.950 . S
H792 C767 0.950 . S
H793 C770 0.950 . S
H794 C772 0.950 . S
C795 C796 1.443 . S
C795 N799 1.376 . S
C795 C833 1.389 . S
C796 C795 1.443 . S
C796 C797 1.340 . S
C796 H836 0.951 . S
C797 C796 1.340 . S
C797 C798 1.439 . S
C797 H837 0.950 . S
C798 C797 1.439 . S
C798 N799 1.374 . S
C798 C832 1.395 . S
N799 C795 1.376 . S
N799 C798 1.374 . S
N799 Co800 2.008 . S
Co800 N799 2.008 . S
Co800 N801 1.995 . S
Co800 N806 2.008 . S
Co800 N811 1.995 . S
Co800 N816 2.282 . S
Co800 N822 2.282 . S
N801 Co800 1.995 . S
N801 C802 1.376 . S
N801 C805 1.383 . S
C802 N801 1.376 . S
C802 C803 1.446 . S
C802 C832 1.391 . S
C803 C802 1.446 . S
C803 C804 1.339 . S
C803 H838 0.949 . S
C804 C803 1.339 . S
C804 C805 1.439 . S
C804 H839 0.950 . S
C805 N801 1.383 . S
C805 C804 1.439 . S
C805 C834 1.392 . S
N806 Co800 2.008 . S
N806 C807 1.376 . S
N806 C810 1.374 . S
C807 N806 1.376 . S
C807 C808 1.443 . S
C807 C834 1.389 . S
C808 C807 1.443 . S
C808 C809 1.340 . S
C808 H840 0.951 . S
C809 C808 1.340 . S
C809 C810 1.439 . S
C809 H841 0.950 . S
C810 N806 1.374 . S
C810 C809 1.439 . S
C810 C835 1.395 . S
N811 Co800 1.995 . S
N811 C812 1.376 . S
N811 C815 1.383 . S
C812 N811 1.376 . S
C812 C813 1.446 . S
C812 C835 1.391 . S
C813 C812 1.446 . S
C813 C814 1.339 . S
C813 H842 0.949 . S
C814 C813 1.339 . S
C814 C815 1.439 . S
C814 H843 0.950 . S
C815 N811 1.383 . S
C815 C814 1.439 . S
C815 C833 1.392 . S
N816 Co800 2.282 . S
N816 C819 1.332 . S
N816 C821 1.332 . S
C817 C818 1.386 . S
C817 C820 1.388 . S
C818 C817 1.386 . S
C818 C819 1.382 . S
C818 H844 0.950 . S
C819 N816 1.332 . S
C819 C818 1.382 . S
C819 H830 0.952 . S
C820 C817 1.388 . S
C820 C821 1.382 . S
C820 H845 0.950 . S
C821 N816 1.332 . S
C821 C820 1.382 . S
C821 H831 0.948 . S
N822 Co800 2.282 . S
N822 C826 1.332 . S
N822 C827 1.332 . S
C823 C824 1.388 . S
C823 C827 1.382 . S
C823 H846 0.950 . S
C824 C823 1.388 . S
C824 C825 1.386 . S
C825 C824 1.386 . S
C825 C826 1.382 . S
C825 H847 0.950 . S
C826 N822 1.332 . S
C826 C825 1.382 . S
C826 H828 0.952 . S
C827 N822 1.332 . S
C827 C823 1.382 . S
C827 H829 0.948 . S
H828 C826 0.952 . S
H829 C827 0.948 . S
H830 C819 0.952 . S
H831 C821 0.948 . S
C832 C798 1.395 . S
C832 C802 1.391 . S
C833 C795 1.389 . S
C833 C815 1.392 . S
C834 C805 1.392 . S
C834 C807 1.389 . S
C835 C810 1.395 . S
C835 C812 1.391 . S
H836 C796 0.951 . S
H837 C797 0.950 . S
H838 C803 0.949 . S
H839 C804 0.950 . S
H840 C808 0.951 . S
H841 C809 0.950 . S
H842 C813 0.949 . S
H843 C814 0.950 . S
H844 C818 0.950 . S
H845 C820 0.950 . S
H846 C823 0.950 . S
H847 C825 0.950 . S
C848 C849 1.443 . S
C848 N852 1.376 . S
C848 C886 1.389 1_655 S
C849 C848 1.443 . S
C849 C850 1.340 . S
C849 H889 0.951 . S
C850 C849 1.340 . S
C850 C851 1.439 . S
C850 H890 0.950 . S
C851 C850 1.439 . S
C851 N852 1.374 . S
C851 C885 1.395 . S
N852 C848 1.376 . S
N852 C851 1.374 . S
N852 Co853 2.008 . S
Co853 N852 2.008 . S
Co853 N854 1.995 . S
Co853 N859 2.008 1_645 S
Co853 N864 1.995 1_655 S
Co853 N869 2.282 1_545 S
Co853 N875 2.282 1_655 S
N854 Co853 1.995 . S
N854 C855 1.376 . S
N854 C858 1.383 . S
C855 N854 1.376 . S
C855 C856 1.446 . S
C855 C885 1.391 . S
C856 C855 1.446 . S
C856 C857 1.339 . S
C856 H891 0.949 . S
C857 C856 1.339 . S
C857 C858 1.439 . S
C857 H892 0.950 . S
C858 N854 1.383 . S
C858 C857 1.439 . S
C858 C887 1.392 1_545 S
N859 Co853 2.008 1_465 S
N859 C860 1.376 . S
N859 C863 1.374 . S
C860 N859 1.376 . S
C860 C861 1.443 . S
C860 C887 1.389 1_455 S
C861 C860 1.443 . S
C861 C862 1.340 . S
C861 H893 0.951 . S
C862 C861 1.340 . S
C862 C863 1.439 . S
C862 H894 0.950 . S
C863 N859 1.374 . S
C863 C862 1.439 . S
C863 C888 1.395 . S
N864 Co853 1.995 1_455 S
N864 C865 1.376 1_545 S
N864 C868 1.383 . S
C865 N864 1.376 1_565 S
C865 C866 1.446 . S
C865 C888 1.391 . S
C866 C865 1.446 . S
C866 C867 1.339 . S
C866 H895 0.949 . S
C867 C866 1.339 . S
C867 C868 1.439 1_565 S
C867 H896 0.950 1_565 S
C868 N864 1.383 . S
C868 C867 1.439 1_545 S
C868 C886 1.392 . S
N869 Co853 2.282 1_565 S
N869 C872 1.332 . S
N869 C874 1.332 1_565 S
C870 C871 1.386 . S
C870 C873 1.388 . S
C871 C870 1.386 . S
C871 C872 1.382 . S
C871 H897 0.950 . S
C872 N869 1.332 . S
C872 C871 1.382 . S
C872 H883 0.952 . S
C873 C870 1.388 . S
C873 C874 1.382 1_565 S
C873 H898 0.950 . S
C874 N869 1.332 1_545 S
C874 C873 1.382 1_545 S
C874 H884 0.948 . S
N875 Co853 2.282 1_455 S
N875 C879 1.332 . S
N875 C880 1.332 . S
C876 C877 1.388 . S
C876 C880 1.382 . S
C876 H899 0.950 . S
C877 C876 1.388 . S
C877 C878 1.386 . S
C878 C877 1.386 . S
C878 C879 1.382 . S
C878 H900 0.950 . S
C879 N875 1.332 . S
C879 C878 1.382 . S
C879 H881 0.952 . S
C880 N875 1.332 . S
C880 C876 1.382 . S
C880 H882 0.948 . S
H881 C879 0.952 . S
H882 C880 0.948 . S
H883 C872 0.952 . S
H884 C874 0.948 . S
C885 C851 1.395 . S
C885 C855 1.391 . S
C886 C848 1.389 1_455 S
C886 C868 1.392 . S
C887 C858 1.392 1_565 S
C887 C860 1.389 1_655 S
C888 C863 1.395 . S
C888 C865 1.391 . S
H889 C849 0.951 . S
H890 C850 0.950 . S
H891 C856 0.949 . S
H892 C857 0.950 . S
H893 C861 0.951 . S
H894 C862 0.950 . S
H895 C866 0.949 . S
H896 C867 0.950 1_545 S
H897 C871 0.950 . S
H898 C873 0.950 . S
H899 C876 0.950 . S
H900 C878 0.950 . S
C901 C902 1.443 . S
C901 N905 1.376 . S
C901 C939 1.389 . S
C902 C901 1.443 . S
C902 C903 1.340 . S
C902 H942 0.951 . S
C903 C902 1.340 . S
C903 C904 1.439 . S
C903 H943 0.950 . S
C904 C903 1.439 . S
C904 N905 1.374 . S
C904 C938 1.395 . S
N905 C901 1.376 . S
N905 C904 1.374 . S
N905 Co906 2.008 . S
Co906 N905 2.008 . S
Co906 N907 1.995 . S
Co906 N912 2.008 . S
Co906 N917 1.995 . S
Co906 N922 2.282 . S
Co906 N928 2.282 . S
N907 Co906 1.995 . S
N907 C908 1.376 . S
N907 C911 1.383 . S
C908 N907 1.376 . S
C908 C909 1.446 . S
C908 C938 1.391 . S
C909 C908 1.446 . S
C909 C910 1.339 . S
C909 H944 0.949 . S
C910 C909 1.339 . S
C910 C911 1.439 . S
C910 H945 0.950 . S
C911 N907 1.383 . S
C911 C910 1.439 . S
C911 C940 1.392 . S
N912 Co906 2.008 . S
N912 C913 1.376 . S
N912 C916 1.374 . S
C913 N912 1.376 . S
C913 C914 1.443 . S
C913 C940 1.389 . S
C914 C913 1.443 . S
C914 C915 1.340 . S
C914 H946 0.951 . S
C915 C914 1.340 . S
C915 C916 1.439 . S
C915 H947 0.950 . S
C916 N912 1.374 . S
C916 C915 1.439 . S
C916 C941 1.395 . S
N917 Co906 1.995 . S
N917 C918 1.376 . S
N917 C921 1.383 . S
C918 N917 1.376 . S
C918 C919 1.446 . S
C918 C941 1.391 . S
C919 C918 1.446 . S
C919 C920 1.339 . S
C919 H948 0.949 . S
C920 C919 1.339 . S
C920 C921 1.439 . S
C920 H949 0.950 . S
C921 N917 1.383 . S
C921 C920 1.439 . S
C921 C939 1.392 . S
N922 Co906 2.282 . S
N922 C925 1.332 . S
N922 C927 1.332 . S
C923 C924 1.386 . S
C923 C926 1.388 . S
C924 C923 1.386 . S
C924 C925 1.382 . S
C924 H950 0.950 . S
C925 N922 1.332 . S
C925 C924 1.382 . S
C925 H936 0.952 . S
C926 C923 1.388 . S
C926 C927 1.382 . S
C926 H951 0.950 . S
C927 N922 1.332 . S
C927 C926 1.382 . S
C927 H937 0.948 . S
N928 Co906 2.282 . S
N928 C932 1.332 . S
N928 C933 1.332 . S
C929 C930 1.388 . S
C929 C933 1.382 . S
C929 H952 0.950 . S
C930 C929 1.388 . S
C930 C931 1.386 . S
C931 C930 1.386 . S
C931 C932 1.382 . S
C931 H953 0.950 . S
C932 N928 1.332 . S
C932 C931 1.382 . S
C932 H934 0.952 . S
C933 N928 1.332 . S
C933 C929 1.382 . S
C933 H935 0.948 . S
H934 C932 0.952 . S
H935 C933 0.948 . S
H936 C925 0.952 . S
H937 C927 0.948 . S
C938 C904 1.395 . S
C938 C908 1.391 . S
C939 C901 1.389 . S
C939 C921 1.392 . S
C940 C911 1.392 . S
C940 C913 1.389 . S
C941 C916 1.395 . S
C941 C918 1.391 . S
H942 C902 0.951 . S
H943 C903 0.950 . S
H944 C909 0.949 . S
H945 C910 0.950 . S
H946 C914 0.951 . S
H947 C915 0.950 . S
H948 C919 0.949 . S
H949 C920 0.950 . S
H950 C924 0.950 . S
H951 C926 0.950 . S
H952 C929 0.950 . S
H953 C931 0.950 . S
C954 C955 1.443 . S
C954 N958 1.376 . S
C954 C992 1.389 1_655 S
C955 C954 1.443 . S
C955 C956 1.340 . S
C955 H995 0.951 . S
C956 C955 1.340 . S
C956 C957 1.439 . S
C956 H996 0.950 . S
C957 C956 1.439 . S
C957 N958 1.374 . S
C957 C991 1.395 . S
N958 C954 1.376 . S
N958 C957 1.374 . S
N958 Co959 2.008 . S
Co959 N958 2.008 . S
Co959 N960 1.995 . S
Co959 N965 2.008 1_655 S
Co959 N970 1.995 1_655 S
Co959 N975 2.282 . S
Co959 N981 2.282 1_655 S
N960 Co959 1.995 . S
N960 C961 1.376 . S
N960 C964 1.383 . S
C961 N960 1.376 . S
C961 C962 1.446 . S
C961 C991 1.391 . S
C962 C961 1.446 . S
C962 C963 1.339 . S
C962 H997 0.949 . S
C963 C962 1.339 . S
C963 C964 1.439 . S
C963 H998 0.950 . S
C964 N960 1.383 . S
C964 C963 1.439 . S
C964 C993 1.392 . S
N965 Co959 2.008 1_455 S
N965 C966 1.376 . S
N965 C969 1.374 . S
C966 N965 1.376 . S
C966 C967 1.443 . S
C966 C993 1.389 1_455 S
C967 C966 1.443 . S
C967 C968 1.340 . S
C967 H999 0.951 . S
C968 C967 1.340 . S
C968 C969 1.439 . S
C968 H1000 0.950 . S
C969 N965 1.374 . S
C969 C968 1.439 . S
C969 C994 1.395 . S
N970 Co959 1.995 1_455 S
N970 C971 1.376 . S
N970 C974 1.383 . S
C971 N970 1.376 . S
C971 C972 1.446 . S
C971 C994 1.391 . S
C972 C971 1.446 . S
C972 C973 1.339 . S
C972 H1001 0.949 . S
C973 C972 1.339 . S
C973 C974 1.439 . S
C973 H1002 0.950 . S
C974 N970 1.383 . S
C974 C973 1.439 . S
C974 C992 1.392 . S
N975 Co959 2.282 . S
N975 C978 1.332 . S
N975 C980 1.332 . S
C976 C977 1.386 . S
C976 C979 1.388 . S
C977 C976 1.386 . S
C977 C978 1.382 . S
C977 H1003 0.950 . S
C978 N975 1.332 . S
C978 C977 1.382 . S
C978 H989 0.952 . S
C979 C976 1.388 . S
C979 C980 1.382 . S
C979 H1004 0.950 . S
C980 N975 1.332 . S
C980 C979 1.382 . S
C980 H990 0.948 . S
N981 Co959 2.282 1_455 S
N981 C985 1.332 . S
N981 C986 1.332 . S
C982 C983 1.388 . S
C982 C986 1.382 . S
C982 H1005 0.950 . S
C983 C982 1.388 . S
C983 C984 1.386 . S
C984 C983 1.386 . S
C984 C985 1.382 . S
C984 H1006 0.950 . S
C985 N981 1.332 . S
C985 C984 1.382 . S
C985 H987 0.952 . S
C986 N981 1.332 . S
C986 C982 1.382 . S
C986 H988 0.948 . S
H987 C985 0.952 . S
H988 C986 0.948 . S
H989 C978 0.952 . S
H990 C980 0.948 . S
C991 C957 1.395 . S
C991 C961 1.391 . S
C992 C954 1.389 1_455 S
C992 C974 1.392 . S
C993 C964 1.392 . S
C993 C966 1.389 1_655 S
C994 C969 1.395 . S
C994 C971 1.391 . S
H995 C955 0.951 . S
H996 C956 0.950 . S
H997 C962 0.949 . S
H998 C963 0.950 . S
H999 C967 0.951 . S
H1000 C968 0.950 . S
H1001 C972 0.949 . S
H1002 C973 0.950 . S
H1003 C977 0.950 . S
H1004 C979 0.950 . S
H1005 C982 0.950 . S
H1006 C984 0.950 . S
C1007 C1008 1.443 . S
C1007 N1011 1.376 . S
C1007 C1045 1.389 . S
C1008 C1007 1.443 . S
C1008 C1009 1.340 . S
C1008 H1048 0.951 . S
C1009 C1008 1.340 . S
C1009 C1010 1.439 . S
C1009 H1049 0.950 . S
C1010 C1009 1.439 . S
C1010 N1011 1.374 . S
C1010 C1044 1.395 . S
N1011 C1007 1.376 . S
N1011 C1010 1.374 . S
N1011 Co1012 2.008 . S
Co1012 N1011 2.008 . S
Co1012 N1013 1.995 . S
Co1012 N1018 2.008 1_545 S
Co1012 N1023 1.995 1_545 S
Co1012 N1028 2.282 1_545 S
Co1012 N1034 2.282 . S
N1013 Co1012 1.995 . S
N1013 C1014 1.376 . S
N1013 C1017 1.383 . S
C1014 N1013 1.376 . S
C1014 C1015 1.446 . S
C1014 C1044 1.391 . S
C1015 C1014 1.446 . S
C1015 C1016 1.339 . S
C1015 H1050 0.949 . S
C1016 C1015 1.339 . S
C1016 C1017 1.439 . S
C1016 H1051 0.950 . S
C1017 N1013 1.383 . S
C1017 C1016 1.439 . S
C1017 C1046 1.392 1_545 S
N1018 Co1012 2.008 1_565 S
N1018 C1019 1.376 . S
N1018 C1022 1.374 . S
C1019 N1018 1.376 . S
C1019 C1020 1.443 . S
C1019 C1046 1.389 . S
C1020 C1019 1.443 . S
C1020 C1021 1.340 . S
C1020 H1052 0.951 . S
C1021 C1020 1.340 . S
C1021 C1022 1.439 . S
C1021 H1053 0.950 . S
C1022 N1018 1.374 . S
C1022 C1021 1.439 . S
C1022 C1047 1.395 . S
N1023 Co1012 1.995 1_565 S
N1023 C1024 1.376 . S
N1023 C1027 1.383 1_565 S
C1024 N1023 1.376 . S
C1024 C1025 1.446 . S
C1024 C1047 1.391 . S
C1025 C1024 1.446 . S
C1025 C1026 1.339 . S
C1025 H1054 0.949 . S
C1026 C1025 1.339 . S
C1026 C1027 1.439 1_565 S
C1026 H1055 0.950 . S
C1027 N1023 1.383 1_545 S
C1027 C1026 1.439 1_545 S
C1027 C1045 1.392 . S
N1028 Co1012 2.282 1_565 S
N1028 C1031 1.332 . S
N1028 C1033 1.332 1_565 S
C1029 C1030 1.386 . S
C1029 C1032 1.388 . S
C1030 C1029 1.386 . S
C1030 C1031 1.382 . S
C1030 H1056 0.950 . S
C1031 N1028 1.332 . S
C1031 C1030 1.382 . S
C1031 H1042 0.952 . S
C1032 C1029 1.388 . S
C1032 C1033 1.382 1_565 S
C1032 H1057 0.950 . S
C1033 N1028 1.332 1_545 S
C1033 C1032 1.382 1_545 S
C1033 H1043 0.948 . S
N1034 Co1012 2.282 . S
N1034 C1038 1.332 . S
N1034 C1039 1.332 . S
C1035 C1036 1.388 . S
C1035 C1039 1.382 . S
C1035 H1058 0.950 . S
C1036 C1035 1.388 . S
C1036 C1037 1.386 . S
C1037 C1036 1.386 . S
C1037 C1038 1.382 . S
C1037 H1059 0.950 . S
C1038 N1034 1.332 . S
C1038 C1037 1.382 . S
C1038 H1040 0.952 . S
C1039 N1034 1.332 . S
C1039 C1035 1.382 . S
C1039 H1041 0.948 . S
H1040 C1038 0.952 . S
H1041 C1039 0.948 . S
H1042 C1031 0.952 . S
H1043 C1033 0.948 . S
C1044 C1010 1.395 . S
C1044 C1014 1.391 . S
C1045 C1007 1.389 . S
C1045 C1027 1.392 . S
C1046 C1017 1.392 1_565 S
C1046 C1019 1.389 . S
C1047 C1022 1.395 . S
C1047 C1024 1.391 . S
H1048 C1008 0.951 . S
H1049 C1009 0.950 . S
H1050 C1015 0.949 . S
H1051 C1016 0.950 . S
H1052 C1020 0.951 . S
H1053 C1021 0.950 . S
H1054 C1025 0.949 . S
H1055 C1026 0.950 . S
H1056 C1030 0.950 . S
H1057 C1032 0.950 . S
H1058 C1035 0.950 . S
H1059 C1037 0.950 . S
C1060 C1061 1.443 . S
C1060 N1064 1.376 . S
C1060 C1098 1.389 . S
C1061 C1060 1.443 . S
C1061 C1062 1.340 1_565 S
C1061 H1101 0.951 . S
C1062 C1061 1.340 1_545 S
C1062 C1063 1.439 . S
C1062 H1102 0.950 . S
C1063 C1062 1.439 . S
C1063 N1064 1.374 1_545 S
C1063 C1097 1.395 . S
N1064 C1060 1.376 . S
N1064 C1063 1.374 1_565 S
N1064 Co1065 2.008 1_655 S
Co1065 N1064 2.008 1_455 S
Co1065 N1066 1.995 1_465 S
Co1065 N1071 2.008 . S
Co1065 N1076 1.995 . S
Co1065 N1081 2.282 1_565 S
Co1065 N1087 2.282 1_455 S
N1066 Co1065 1.995 1_645 S
N1066 C1067 1.376 . S
N1066 C1070 1.383 . S
C1067 N1066 1.376 . S
C1067 C1068 1.446 . S
C1067 C1097 1.391 . S
C1068 C1067 1.446 . S
C1068 C1069 1.339 . S
C1068 H1103 0.949 . S
C1069 C1068 1.339 . S
C1069 C1070 1.439 . S
C1069 H1104 0.950 . S
C1070 N1066 1.383 . S
C1070 C1069 1.439 . S
C1070 C1099 1.392 1_655 S
N1071 Co1065 2.008 . S
N1071 C1072 1.376 . S
N1071 C1075 1.374 . S
C1072 N1071 1.376 . S
C1072 C1073 1.443 . S
C1072 C1099 1.389 1_565 S
C1073 C1072 1.443 . S
C1073 C1074 1.340 . S
C1073 H1105 0.951 . S
C1074 C1073 1.340 . S
C1074 C1075 1.439 . S
C1074 H1106 0.950 . S
C1075 N1071 1.374 . S
C1075 C1074 1.439 . S
C1075 C1100 1.395 . S
N1076 Co1065 1.995 . S
N1076 C1077 1.376 . S
N1076 C1080 1.383 . S
C1077 N1076 1.376 . S
C1077 C1078 1.446 . S
C1077 C1100 1.391 . S
C1078 C1077 1.446 . S
C1078 C1079 1.339 . S
C1078 H1107 0.949 . S
C1079 C1078 1.339 . S
C1079 C1080 1.439 . S
C1079 H1108 0.950 . S
C1080 N1076 1.383 . S
C1080 C1079 1.439 . S
C1080 C1098 1.392 1_455 S
N1081 Co1065 2.282 1_545 S
N1081 C1084 1.332 1_545 S
N1081 C1086 1.332 . S
C1082 C1083 1.386 . S
C1082 C1085 1.388 . S
C1083 C1082 1.386 . S
C1083 C1084 1.382 1_545 S
C1083 H1109 0.951 1_545 S
C1084 N1081 1.332 1_565 S
C1084 C1083 1.382 1_565 S
C1084 H1095 0.952 . S
C1085 C1082 1.388 . S
C1085 C1086 1.382 . S
C1085 H1110 0.950 . S
C1086 N1081 1.332 . S
C1086 C1085 1.382 . S
C1086 H1096 0.948 . S
N1087 Co1065 2.282 1_655 S
N1087 C1091 1.332 . S
N1087 C1092 1.332 . S
C1088 C1089 1.388 . S
C1088 C1092 1.382 . S
C1088 H1111 0.950 . S
C1089 C1088 1.388 . S
C1089 C1090 1.386 . S
C1090 C1089 1.386 . S
C1090 C1091 1.382 . S
C1090 H1112 0.950 . S
C1091 N1087 1.332 . S
C1091 C1090 1.382 . S
C1091 H1093 0.952 . S
C1092 N1087 1.332 . S
C1092 C1088 1.382 . S
C1092 H1094 0.948 . S
H1093 C1091 0.952 . S
H1094 C1092 0.948 . S
H1095 C1084 0.952 . S
H1096 C1086 0.948 . S
C1097 C1063 1.395 . S
C1097 C1067 1.391 . S
C1098 C1060 1.389 . S
C1098 C1080 1.392 1_655 S
C1099 C1070 1.392 1_455 S
C1099 C1072 1.389 1_545 S
C1100 C1075 1.395 . S
C1100 C1077 1.391 . S
H1101 C1061 0.951 . S
H1102 C1062 0.950 . S
H1103 C1068 0.949 . S
H1104 C1069 0.950 . S
H1105 C1073 0.951 . S
H1106 C1074 0.950 . S
H1107 C1078 0.949 . S
H1108 C1079 0.950 . S
H1109 C1083 0.951 1_565 S
H1110 C1085 0.950 . S
H1111 C1088 0.950 . S
H1112 C1090 0.950 . S
C1113 C1114 1.443 . S
C1113 N1117 1.376 . S
C1113 C1151 1.389 . S
C1114 C1113 1.443 . S
C1114 C1115 1.340 . S
C1114 H1154 0.951 . S
C1115 C1114 1.340 . S
C1115 C1116 1.439 . S
C1115 H1155 0.950 . S
C1116 C1115 1.439 . S
C1116 N1117 1.374 . S
C1116 C1150 1.395 . S
N1117 C1113 1.376 . S
N1117 C1116 1.374 . S
N1117 Co1118 2.008 . S
Co1118 N1117 2.008 . S
Co1118 N1119 1.995 . S
Co1118 N1124 2.008 . S
Co1118 N1129 1.995 . S
Co1118 N1134 2.282 . S
Co1118 N1140 2.282 . S
N1119 Co1118 1.995 . S
N1119 C1120 1.376 . S
N1119 C1123 1.383 . S
C1120 N1119 1.376 . S
C1120 C1121 1.446 . S
C1120 C1150 1.391 . S
C1121 C1120 1.446 . S
C1121 C1122 1.339 . S
C1121 H1156 0.949 . S
C1122 C1121 1.339 . S
C1122 C1123 1.439 . S
C1122 H1157 0.950 . S
C1123 N1119 1.383 . S
C1123 C1122 1.439 . S
C1123 C1152 1.392 . S
N1124 Co1118 2.008 . S
N1124 C1125 1.376 . S
N1124 C1128 1.374 . S
C1125 N1124 1.376 . S
C1125 C1126 1.443 . S
C1125 C1152 1.389 . S
C1126 C1125 1.443 . S
C1126 C1127 1.340 . S
C1126 H1158 0.951 . S
C1127 C1126 1.340 . S
C1127 C1128 1.439 . S
C1127 H1159 0.950 . S
C1128 N1124 1.374 . S
C1128 C1127 1.439 . S
C1128 C1153 1.395 . S
N1129 Co1118 1.995 . S
N1129 C1130 1.376 . S
N1129 C1133 1.383 . S
C1130 N1129 1.376 . S
C1130 C1131 1.446 . S
C1130 C1153 1.391 . S
C1131 C1130 1.446 . S
C1131 C1132 1.339 . S
C1131 H1160 0.949 . S
C1132 C1131 1.339 . S
C1132 C1133 1.439 . S
C1132 H1161 0.950 . S
C1133 N1129 1.383 . S
C1133 C1132 1.439 . S
C1133 C1151 1.392 . S
N1134 Co1118 2.282 . S
N1134 C1137 1.332 . S
N1134 C1139 1.332 . S
C1135 C1136 1.386 . S
C1135 C1138 1.388 . S
C1136 C1135 1.386 . S
C1136 C1137 1.382 . S
C1136 H1162 0.950 . S
C1137 N1134 1.332 . S
C1137 C1136 1.382 . S
C1137 H1148 0.952 . S
C1138 C1135 1.388 . S
C1138 C1139 1.382 . S
C1138 H1163 0.950 . S
C1139 N1134 1.332 . S
C1139 C1138 1.382 . S
C1139 H1149 0.948 . S
N1140 Co1118 2.282 . S
N1140 C1144 1.332 . S
N1140 C1145 1.332 . S
C1141 C1142 1.388 . S
C1141 C1145 1.382 . S
C1141 H1164 0.950 . S
C1142 C1141 1.388 . S
C1142 C1143 1.386 . S
C1143 C1142 1.386 . S
C1143 C1144 1.382 . S
C1143 H1165 0.950 . S
C1144 N1140 1.332 . S
C1144 C1143 1.382 . S
C1144 H1146 0.952 . S
C1145 N1140 1.332 . S
C1145 C1141 1.382 . S
C1145 H1147 0.948 . S
H1146 C1144 0.952 . S
H1147 C1145 0.948 . S
H1148 C1137 0.952 . S
H1149 C1139 0.948 . S
C1150 C1116 1.395 . S
C1150 C1120 1.391 . S
C1151 C1113 1.389 . S
C1151 C1133 1.392 . S
C1152 C1123 1.392 . S
C1152 C1125 1.389 . S
C1153 C1128 1.395 . S
C1153 C1130 1.391 . S
H1154 C1114 0.951 . S
H1155 C1115 0.950 . S
H1156 C1121 0.949 . S
H1157 C1122 0.950 . S
H1158 C1126 0.951 . S
H1159 C1127 0.950 . S
H1160 C1131 0.949 . S
H1161 C1132 0.950 . S
H1162 C1136 0.950 . S
H1163 C1138 0.950 . S
H1164 C1141 0.950 . S
H1165 C1143 0.950 . S
C1166 C1167 1.443 . S
C1166 N1170 1.376 . S
C1166 C1204 1.389 . S
C1167 C1166 1.443 . S
C1167 C1168 1.340 . S
C1167 H1207 0.951 . S
C1168 C1167 1.340 . S
C1168 C1169 1.439 . S
C1168 H1208 0.950 . S
C1169 C1168 1.439 . S
C1169 N1170 1.374 . S
C1169 C1203 1.395 . S
N1170 C1166 1.376 . S
N1170 C1169 1.374 . S
N1170 Co1171 2.008 1_655 S
Co1171 N1170 2.008 1_455 S
Co1171 N1172 1.995 1_455 S
Co1171 N1177 2.008 . S
Co1171 N1182 1.995 . S
Co1171 N1187 2.282 . S
Co1171 N1193 2.282 1_455 S
N1172 Co1171 1.995 1_655 S
N1172 C1173 1.376 . S
N1172 C1176 1.383 . S
C1173 N1172 1.376 . S
C1173 C1174 1.446 . S
C1173 C1203 1.391 . S
C1174 C1173 1.446 . S
C1174 C1175 1.339 . S
C1174 H1209 0.949 . S
C1175 C1174 1.339 . S
C1175 C1176 1.439 . S
C1175 H1210 0.950 . S
C1176 N1172 1.383 . S
C1176 C1175 1.439 . S
C1176 C1205 1.392 1_655 S
N1177 Co1171 2.008 . S
N1177 C1178 1.376 . S
N1177 C1181 1.374 . S
C1178 N1177 1.376 . S
C1178 C1179 1.443 . S
C1178 C1205 1.389 . S
C1179 C1178 1.443 . S
C1179 C1180 1.340 . S
C1179 H1211 0.951 . S
C1180 C1179 1.340 . S
C1180 C1181 1.439 . S
C1180 H1212 0.950 . S
C1181 N1177 1.374 . S
C1181 C1180 1.439 . S
C1181 C1206 1.395 . S
N1182 Co1171 1.995 . S
N1182 C1183 1.376 . S
N1182 C1186 1.383 . S
C1183 N1182 1.376 . S
C1183 C1184 1.446 . S
C1183 C1206 1.391 . S
C1184 C1183 1.446 . S
C1184 C1185 1.339 . S
C1184 H1213 0.949 . S
C1185 C1184 1.339 . S
C1185 C1186 1.439 . S
C1185 H1214 0.950 . S
C1186 N1182 1.383 . S
C1186 C1185 1.439 . S
C1186 C1204 1.392 1_455 S
N1187 Co1171 2.282 . S
N1187 C1190 1.332 . S
N1187 C1192 1.332 . S
C1188 C1189 1.386 . S
C1188 C1191 1.388 . S
C1189 C1188 1.386 . S
C1189 C1190 1.382 . S
C1189 H1215 0.950 . S
C1190 N1187 1.332 . S
C1190 C1189 1.382 . S
C1190 H1201 0.952 . S
C1191 C1188 1.388 . S
C1191 C1192 1.382 . S
C1191 H1216 0.950 . S
C1192 N1187 1.332 . S
C1192 C1191 1.382 . S
C1192 H1202 0.948 . S
N1193 Co1171 2.282 1_655 S
N1193 C1197 1.332 . S
N1193 C1198 1.332 . S
C1194 C1195 1.388 . S
C1194 C1198 1.382 . S
C1194 H1217 0.950 . S
C1195 C1194 1.388 . S
C1195 C1196 1.386 . S
C1196 C1195 1.386 . S
C1196 C1197 1.382 . S
C1196 H1218 0.950 . S
C1197 N1193 1.332 . S
C1197 C1196 1.382 . S
C1197 H1199 0.952 . S
C1198 N1193 1.332 . S
C1198 C1194 1.382 . S
C1198 H1200 0.948 . S
H1199 C1197 0.952 . S
H1200 C1198 0.948 . S
H1201 C1190 0.952 . S
H1202 C1192 0.948 . S
C1203 C1169 1.395 . S
C1203 C1173 1.391 . S
C1204 C1166 1.389 . S
C1204 C1186 1.392 1_655 S
C1205 C1176 1.392 1_455 S
C1205 C1178 1.389 . S
C1206 C1181 1.395 . S
C1206 C1183 1.391 . S
H1207 C1167 0.951 . S
H1208 C1168 0.950 . S
H1209 C1174 0.949 . S
H1210 C1175 0.950 . S
H1211 C1179 0.951 . S
H1212 C1180 0.950 . S
H1213 C1184 0.949 . S
H1214 C1185 0.950 . S
H1215 C1189 0.950 . S
H1216 C1191 0.950 . S
H1217 C1194 0.950 . S
H1218 C1196 0.950 . S
C1219 C1220 1.443 1_565 S
C1219 N1223 1.374 1_565 S
C1219 C1257 1.389 . S
C1220 C1219 1.443 1_545 S
C1220 C1221 1.340 . S
C1220 H1260 0.951 1_545 S
C1221 C1220 1.340 . S
C1221 C1222 1.439 . S
C1221 H1261 0.950 . S
C1222 C1221 1.439 . S
C1222 N1223 1.378 . S
C1222 C1256 1.395 . S
N1223 C1219 1.374 1_545 S
N1223 C1222 1.378 . S
N1223 Co1224 2.006 1_545 S
Co1224 N1223 2.006 1_565 S
Co1224 N1225 1.995 1_565 S
Co1224 N1230 2.008 . S
Co1224 N1235 1.995 . S
Co1224 N1240 2.282 1_565 S
Co1224 N1246 2.282 . S
N1225 Co1224 1.995 1_545 S
N1225 C1226 1.376 . S
N1225 C1229 1.383 . S
C1226 N1225 1.376 . S
C1226 C1227 1.446 . S
C1226 C1256 1.391 . S
C1227 C1226 1.446 . S
C1227 C1228 1.339 . S
C1227 H1262 0.949 . S
C1228 C1227 1.339 . S
C1228 C1229 1.439 . S
C1228 H1263 0.950 . S
C1229 N1225 1.383 . S
C1229 C1228 1.439 . S
C1229 C1258 1.392 . S
N1230 Co1224 2.008 . S
N1230 C1231 1.376 . S
N1230 C1234 1.374 . S
C1231 N1230 1.376 . S
C1231 C1232 1.443 . S
C1231 C1258 1.389 1_565 S
C1232 C1231 1.443 . S
C1232 C1233 1.340 . S
C1232 H1264 0.951 . S
C1233 C1232 1.340 . S
C1233 C1234 1.439 . S
C1233 H1265 0.950 . S
C1234 N1230 1.374 . S
C1234 C1233 1.439 . S
C1234 C1259 1.395 . S
N1235 Co1224 1.995 . S
N1235 C1236 1.376 . S
N1235 C1239 1.383 . S
C1236 N1235 1.376 . S
C1236 C1237 1.446 . S
C1236 C1259 1.391 . S
C1237 C1236 1.446 . S
C1237 C1238 1.339 . S
C1237 H1266 0.949 . S
C1238 C1237 1.339 . S
C1238 C1239 1.439 . S
C1238 H1267 0.950 . S
C1239 N1235 1.383 . S
C1239 C1238 1.439 . S
C1239 C1257 1.392 . S
N1240 Co1224 2.282 1_545 S
N1240 C1243 1.332 1_545 S
N1240 C1245 1.332 . S
C1241 C1242 1.386 . S
C1241 C1244 1.388 . S
C1242 C1241 1.386 . S
C1242 C1243 1.382 1_545 S
C1242 H1268 0.950 . S
C1243 N1240 1.332 1_565 S
C1243 C1242 1.382 1_565 S
C1243 H1254 0.952 . S
C1244 C1241 1.388 . S
C1244 C1245 1.382 . S
C1244 H1269 0.950 . S
C1245 N1240 1.332 . S
C1245 C1244 1.382 . S
C1245 H1255 0.948 . S
N1246 Co1224 2.282 . S
N1246 C1250 1.332 . S
N1246 C1251 1.332 . S
C1247 C1248 1.388 . S
C1247 C1251 1.382 . S
C1247 H1270 0.950 . S
C1248 C1247 1.388 . S
C1248 C1249 1.386 . S
C1249 C1248 1.386 . S
C1249 C1250 1.382 . S
C1249 H1271 0.950 . S
C1250 N1246 1.332 . S
C1250 C1249 1.382 . S
C1250 H1252 0.952 . S
C1251 N1246 1.332 . S
C1251 C1247 1.382 . S
C1251 H1253 0.948 . S
H1252 C1250 0.952 . S
H1253 C1251 0.948 . S
H1254 C1243 0.952 . S
H1255 C1245 0.948 . S
C1256 C1222 1.395 . S
C1256 C1226 1.391 . S
C1257 C1219 1.389 . S
C1257 C1239 1.392 . S
C1258 C1229 1.392 . S
C1258 C1231 1.389 1_545 S
C1259 C1234 1.395 . S
C1259 C1236 1.391 . S
H1260 C1220 0.951 1_565 S
H1261 C1221 0.950 . S
H1262 C1227 0.949 . S
H1263 C1228 0.950 . S
H1264 C1232 0.951 . S
H1265 C1233 0.950 . S
H1266 C1237 0.949 . S
H1267 C1238 0.950 . S
H1268 C1242 0.950 . S
H1269 C1244 0.950 . S
H1270 C1247 0.950 . S
H1271 C1249 0.950 . S
C1272 C1273 1.443 . S
C1272 N1276 1.376 . S
C1272 C1310 1.389 1_655 S
C1273 C1272 1.443 . S
C1273 C1274 1.340 . S
C1273 H1313 0.951 . S
C1274 C1273 1.340 . S
C1274 C1275 1.439 . S
C1274 H1314 0.950 . S
C1275 C1274 1.439 . S
C1275 N1276 1.374 . S
C1275 C1309 1.395 . S
N1276 C1272 1.376 . S
N1276 C1275 1.374 . S
N1276 Co1277 2.008 . S
Co1277 N1276 2.008 . S
Co1277 N1278 1.995 . S
Co1277 N1283 2.008 1_655 S
Co1277 N1288 1.995 1_655 S
Co1277 N1293 2.282 . S
Co1277 N1299 2.282 1_655 S
N1278 Co1277 1.995 . S
N1278 C1279 1.376 . S
N1278 C1282 1.383 . S
C1279 N1278 1.376 . S
C1279 C1280 1.446 . S
C1279 C1309 1.391 . S
C1280 C1279 1.446 . S
C1280 C1281 1.339 . S
C1280 H1315 0.949 . S
C1281 C1280 1.339 . S
C1281 C1282 1.439 . S
C1281 H1316 0.950 . S
C1282 N1278 1.383 . S
C1282 C1281 1.439 . S
C1282 C1311 1.392 . S
N1283 Co1277 2.008 1_455 S
N1283 C1284 1.376 . S
N1283 C1287 1.374 . S
C1284 N1283 1.376 . S
C1284 C1285 1.443 . S
C1284 C1311 1.389 1_455 S
C1285 C1284 1.443 . S
C1285 C1286 1.340 . S
C1285 H1317 0.951 . S
C1286 C1285 1.340 . S
C1286 C1287 1.439 . S
C1286 H1318 0.950 . S
C1287 N1283 1.374 . S
C1287 C1286 1.439 . S
C1287 C1312 1.395 . S
N1288 Co1277 1.995 1_455 S
N1288 C1289 1.376 . S
N1288 C1292 1.383 . S
C1289 N1288 1.376 . S
C1289 C1290 1.446 . S
C1289 C1312 1.391 . S
C1290 C1289 1.446 . S
C1290 C1291 1.339 . S
C1290 H1319 0.949 . S
C1291 C1290 1.339 . S
C1291 C1292 1.439 . S
C1291 H1320 0.950 . S
C1292 N1288 1.383 . S
C1292 C1291 1.439 . S
C1292 C1310 1.392 . S
N1293 Co1277 2.282 . S
N1293 C1296 1.332 . S
N1293 C1298 1.332 . S
C1294 C1295 1.386 . S
C1294 C1297 1.388 . S
C1295 C1294 1.386 . S
C1295 C1296 1.382 . S
C1295 H1321 0.950 . S
C1296 N1293 1.332 . S
C1296 C1295 1.382 . S
C1296 H1307 0.952 . S
C1297 C1294 1.388 . S
C1297 C1298 1.382 . S
C1297 H1322 0.950 . S
C1298 N1293 1.332 . S
C1298 C1297 1.382 . S
C1298 H1308 0.948 . S
N1299 Co1277 2.282 1_455 S
N1299 C1303 1.332 . S
N1299 C1304 1.332 . S
C1300 C1301 1.388 . S
C1300 C1304 1.382 . S
C1300 H1323 0.950 . S
C1301 C1300 1.388 . S
C1301 C1302 1.386 . S
C1302 C1301 1.386 . S
C1302 C1303 1.382 . S
C1302 H1324 0.950 . S
C1303 N1299 1.332 . S
C1303 C1302 1.382 . S
C1303 H1305 0.952 . S
C1304 N1299 1.332 . S
C1304 C1300 1.382 . S
C1304 H1306 0.948 . S
H1305 C1303 0.952 . S
H1306 C1304 0.948 . S
H1307 C1296 0.952 . S
H1308 C1298 0.948 . S
C1309 C1275 1.395 . S
C1309 C1279 1.391 . S
C1310 C1272 1.389 1_455 S
C1310 C1292 1.392 . S
C1311 C1282 1.392 . S
C1311 C1284 1.389 1_655 S
C1312 C1287 1.395 . S
C1312 C1289 1.391 . S
H1313 C1273 0.951 . S
H1314 C1274 0.950 . S
H1315 C1280 0.949 . S
H1316 C1281 0.950 . S
H1317 C1285 0.951 . S
H1318 C1286 0.950 . S
H1319 C1290 0.949 . S
H1320 C1291 0.950 . S
H1321 C1295 0.950 . S
H1322 C1297 0.950 . S
H1323 C1300 0.950 . S
H1324 C1302 0.950 . S
C1325 C1326 1.443 . S
C1325 N1329 1.376 . S
C1325 C1363 1.389 . S
C1326 C1325 1.443 . S
C1326 C1327 1.340 . S
C1326 H1366 0.951 . S
C1327 C1326 1.340 . S
C1327 C1328 1.439 . S
C1327 H1367 0.950 . S
C1328 C1327 1.439 . S
C1328 N1329 1.374 . S
C1328 C1362 1.395 . S
N1329 C1325 1.376 . S
N1329 C1328 1.374 . S
N1329 Co1330 2.008 . S
Co1330 N1329 2.008 . S
Co1330 N1331 1.995 . S
Co1330 N1336 2.008 . S
Co1330 N1341 1.995 . S
Co1330 N1346 2.282 . S
Co1330 N1352 2.282 . S
N1331 Co1330 1.995 . S
N1331 C1332 1.376 . S
N1331 C1335 1.383 . S
C1332 N1331 1.376 . S
C1332 C1333 1.446 . S
C1332 C1362 1.391 . S
C1333 C1332 1.446 . S
C1333 C1334 1.339 . S
C1333 H1368 0.949 . S
C1334 C1333 1.339 . S
C1334 C1335 1.439 . S
C1334 H1369 0.950 . S
C1335 N1331 1.383 . S
C1335 C1334 1.439 . S
C1335 C1364 1.392 . S
N1336 Co1330 2.008 . S
N1336 C1337 1.376 . S
N1336 C1340 1.374 . S
C1337 N1336 1.376 . S
C1337 C1338 1.443 . S
C1337 C1364 1.389 . S
C1338 C1337 1.443 . S
C1338 C1339 1.340 . S
C1338 H1370 0.951 . S
C1339 C1338 1.340 . S
C1339 C1340 1.439 . S
C1339 H1371 0.950 . S
C1340 N1336 1.374 . S
C1340 C1339 1.439 . S
C1340 C1365 1.395 . S
N1341 Co1330 1.995 . S
N1341 C1342 1.376 . S
N1341 C1345 1.383 . S
C1342 N1341 1.376 . S
C1342 C1343 1.446 . S
C1342 C1365 1.391 . S
C1343 C1342 1.446 . S
C1343 C1344 1.339 . S
C1343 H1372 0.949 . S
C1344 C1343 1.339 . S
C1344 C1345 1.439 . S
C1344 H1373 0.950 . S
C1345 N1341 1.383 . S
C1345 C1344 1.439 . S
C1345 C1363 1.392 . S
N1346 Co1330 2.282 . S
N1346 C1349 1.332 . S
N1346 C1351 1.332 . S
C1347 C1348 1.386 . S
C1347 C1350 1.388 . S
C1348 C1347 1.386 . S
C1348 C1349 1.382 . S
C1348 H1374 0.950 . S
C1349 N1346 1.332 . S
C1349 C1348 1.382 . S
C1349 H1360 0.952 . S
C1350 C1347 1.388 . S
C1350 C1351 1.382 . S
C1350 H1375 0.950 . S
C1351 N1346 1.332 . S
C1351 C1350 1.382 . S
C1351 H1361 0.948 . S
N1352 Co1330 2.282 . S
N1352 C1356 1.332 . S
N1352 C1357 1.332 . S
C1353 C1354 1.388 . S
C1353 C1357 1.382 . S
C1353 H1376 0.950 . S
C1354 C1353 1.388 . S
C1354 C1355 1.386 . S
C1355 C1354 1.386 . S
C1355 C1356 1.382 . S
C1355 H1377 0.950 . S
C1356 N1352 1.332 . S
C1356 C1355 1.382 . S
C1356 H1358 0.952 . S
C1357 N1352 1.332 . S
C1357 C1353 1.382 . S
C1357 H1359 0.948 . S
H1358 C1356 0.952 . S
H1359 C1357 0.948 . S
H1360 C1349 0.952 . S
H1361 C1351 0.948 . S
C1362 C1328 1.395 . S
C1362 C1332 1.391 . S
C1363 C1325 1.389 . S
C1363 C1345 1.392 . S
C1364 C1335 1.392 . S
C1364 C1337 1.389 . S
C1365 C1340 1.395 . S
C1365 C1342 1.391 . S
H1366 C1326 0.951 . S
H1367 C1327 0.950 . S
H1368 C1333 0.949 . S
H1369 C1334 0.950 . S
H1370 C1338 0.951 . S
H1371 C1339 0.950 . S
H1372 C1343 0.949 . S
H1373 C1344 0.950 . S
H1374 C1348 0.950 . S
H1375 C1350 0.950 . S
H1376 C1353 0.950 . S
H1377 C1355 0.950 . S
C1378 C1379 1.443 . S
C1378 N1382 1.376 . S
C1378 C1416 1.389 1_655 S
C1379 C1378 1.443 . S
C1379 C1380 1.340 . S
C1379 H1419 0.951 . S
C1380 C1379 1.340 . S
C1380 C1381 1.439 . S
C1380 H1420 0.950 . S
C1381 C1380 1.439 . S
C1381 N1382 1.374 . S
C1381 C1415 1.395 . S
N1382 C1378 1.376 . S
N1382 C1381 1.374 . S
N1382 Co1383 2.008 . S
Co1383 N1382 2.008 . S
Co1383 N1384 1.995 . S
Co1383 N1389 2.008 1_655 S
Co1383 N1394 1.995 1_655 S
Co1383 N1399 2.282 . S
Co1383 N1405 2.282 1_655 S
N1384 Co1383 1.995 . S
N1384 C1385 1.376 . S
N1384 C1388 1.383 . S
C1385 N1384 1.376 . S
C1385 C1386 1.446 . S
C1385 C1415 1.391 . S
C1386 C1385 1.446 . S
C1386 C1387 1.339 . S
C1386 H1421 0.949 . S
C1387 C1386 1.339 . S
C1387 C1388 1.439 . S
C1387 H1422 0.950 . S
C1388 N1384 1.383 . S
C1388 C1387 1.439 . S
C1388 C1417 1.392 . S
N1389 Co1383 2.008 1_455 S
N1389 C1390 1.376 . S
N1389 C1393 1.374 . S
C1390 N1389 1.376 . S
C1390 C1391 1.443 . S
C1390 C1417 1.389 1_455 S
C1391 C1390 1.443 . S
C1391 C1392 1.340 . S
C1391 H1423 0.951 . S
C1392 C1391 1.340 . S
C1392 C1393 1.439 . S
C1392 H1424 0.950 . S
C1393 N1389 1.374 . S
C1393 C1392 1.439 . S
C1393 C1418 1.395 . S
N1394 Co1383 1.995 1_455 S
N1394 C1395 1.376 . S
N1394 C1398 1.383 . S
C1395 N1394 1.376 . S
C1395 C1396 1.446 . S
C1395 C1418 1.391 . S
C1396 C1395 1.446 . S
C1396 C1397 1.339 . S
C1396 H1425 0.949 . S
C1397 C1396 1.339 . S
C1397 C1398 1.439 . S
C1397 H1426 0.950 . S
C1398 N1394 1.383 . S
C1398 C1397 1.439 . S
C1398 C1416 1.392 . S
N1399 Co1383 2.282 . S
N1399 C1402 1.332 . S
N1399 C1404 1.332 . S
C1400 C1401 1.386 . S
C1400 C1403 1.388 . S
C1401 C1400 1.386 . S
C1401 C1402 1.382 . S
C1401 H1427 0.950 . S
C1402 N1399 1.332 . S
C1402 C1401 1.382 . S
C1402 H1413 0.952 . S
C1403 C1400 1.388 . S
C1403 C1404 1.382 . S
C1403 H1428 0.950 . S
C1404 N1399 1.332 . S
C1404 C1403 1.382 . S
C1404 H1414 0.948 . S
N1405 Co1383 2.282 1_455 S
N1405 C1409 1.332 . S
N1405 C1410 1.332 . S
C1406 C1407 1.388 . S
C1406 C1410 1.382 . S
C1406 H1429 0.950 . S
C1407 C1406 1.388 . S
C1407 C1408 1.386 . S
C1408 C1407 1.386 . S
C1408 C1409 1.382 . S
C1408 H1430 0.950 . S
C1409 N1405 1.332 . S
C1409 C1408 1.382 . S
C1409 H1411 0.952 . S
C1410 N1405 1.332 . S
C1410 C1406 1.382 . S
C1410 H1412 0.948 . S
H1411 C1409 0.952 . S
H1412 C1410 0.948 . S
H1413 C1402 0.952 . S
H1414 C1404 0.948 . S
C1415 C1381 1.395 . S
C1415 C1385 1.391 . S
C1416 C1378 1.389 1_455 S
C1416 C1398 1.392 . S
C1417 C1388 1.392 . S
C1417 C1390 1.389 1_655 S
C1418 C1393 1.395 . S
C1418 C1395 1.391 . S
H1419 C1379 0.951 . S
H1420 C1380 0.950 . S
H1421 C1386 0.949 . S
H1422 C1387 0.950 . S
H1423 C1391 0.951 . S
H1424 C1392 0.950 . S
H1425 C1396 0.949 . S
H1426 C1397 0.950 . S
H1427 C1401 0.950 . S
H1428 C1403 0.950 . S
H1429 C1406 0.950 . S
H1430 C1408 0.950 . S
C1431 C1432 1.443 . S
C1431 N1435 1.376 . S
C1431 C1469 1.389 . S
C1432 C1431 1.443 . S
C1432 C1433 1.340 . S
C1432 H1472 0.951 . S
C1433 C1432 1.340 . S
C1433 C1434 1.439 . S
C1433 H1473 0.950 . S
C1434 C1433 1.439 . S
C1434 N1435 1.374 . S
C1434 C1468 1.395 . S
N1435 C1431 1.376 . S
N1435 C1434 1.374 . S
N1435 Co1436 2.008 . S
Co1436 N1435 2.008 . S
Co1436 N1437 1.995 . S
Co1436 N1442 2.008 . S
Co1436 N1447 1.995 . S
Co1436 N1452 2.282 . S
Co1436 N1458 2.282 . S
N1437 Co1436 1.995 . S
N1437 C1438 1.376 . S
N1437 C1441 1.383 . S
C1438 N1437 1.376 . S
C1438 C1439 1.446 . S
C1438 C1468 1.391 . S
C1439 C1438 1.446 . S
C1439 C1440 1.339 . S
C1439 H1474 0.949 . S
C1440 C1439 1.339 . S
C1440 C1441 1.439 . S
C1440 H1475 0.950 . S
C1441 N1437 1.383 . S
C1441 C1440 1.439 . S
C1441 C1470 1.392 . S
N1442 Co1436 2.008 . S
N1442 C1443 1.376 . S
N1442 C1446 1.374 . S
C1443 N1442 1.376 . S
C1443 C1444 1.443 . S
C1443 C1470 1.389 . S
C1444 C1443 1.443 . S
C1444 C1445 1.340 . S
C1444 H1476 0.951 . S
C1445 C1444 1.340 . S
C1445 C1446 1.439 . S
C1445 H1477 0.950 . S
C1446 N1442 1.374 . S
C1446 C1445 1.439 . S
C1446 C1471 1.395 . S
N1447 Co1436 1.995 . S
N1447 C1448 1.376 . S
N1447 C1451 1.383 . S
C1448 N1447 1.376 . S
C1448 C1449 1.446 . S
C1448 C1471 1.391 . S
C1449 C1448 1.446 . S
C1449 C1450 1.339 . S
C1449 H1478 0.949 . S
C1450 C1449 1.339 . S
C1450 C1451 1.439 . S
C1450 H1479 0.950 . S
C1451 N1447 1.383 . S
C1451 C1450 1.439 . S
C1451 C1469 1.392 . S
N1452 Co1436 2.282 . S
N1452 C1455 1.332 . S
N1452 C1457 1.332 . S
C1453 C1454 1.386 . S
C1453 C1456 1.388 . S
C1454 C1453 1.386 . S
C1454 C1455 1.382 . S
C1454 H1480 0.950 . S
C1455 N1452 1.332 . S
C1455 C1454 1.382 . S
C1455 H1466 0.952 . S
C1456 C1453 1.388 . S
C1456 C1457 1.382 . S
C1456 H1481 0.950 . S
C1457 N1452 1.332 . S
C1457 C1456 1.382 . S
C1457 H1467 0.948 . S
N1458 Co1436 2.282 . S
N1458 C1462 1.332 . S
N1458 C1463 1.332 . S
C1459 C1460 1.388 . S
C1459 C1463 1.382 . S
C1459 H1482 0.950 . S
C1460 C1459 1.388 . S
C1460 C1461 1.386 . S
C1461 C1460 1.386 . S
C1461 C1462 1.382 . S
C1461 H1483 0.950 . S
C1462 N1458 1.332 . S
C1462 C1461 1.382 . S
C1462 H1464 0.952 . S
C1463 N1458 1.332 . S
C1463 C1459 1.382 . S
C1463 H1465 0.948 . S
H1464 C1462 0.952 . S
H1465 C1463 0.948 . S
H1466 C1455 0.952 . S
H1467 C1457 0.948 . S
C1468 C1434 1.395 . S
C1468 C1438 1.391 . S
C1469 C1431 1.389 . S
C1469 C1451 1.392 . S
C1470 C1441 1.392 . S
C1470 C1443 1.389 . S
C1471 C1446 1.395 . S
C1471 C1448 1.391 . S
H1472 C1432 0.951 . S
H1473 C1433 0.950 . S
H1474 C1439 0.949 . S
H1475 C1440 0.950 . S
H1476 C1444 0.951 . S
H1477 C1445 0.950 . S
H1478 C1449 0.949 . S
H1479 C1450 0.950 . S
H1480 C1454 0.950 . S
H1481 C1456 0.950 . S
H1482 C1459 0.950 . S
H1483 C1461 0.950 . S
C1484 C1485 1.443 . S
C1484 N1488 1.376 . S
C1484 C1522 1.389 . S
C1485 C1484 1.443 . S
C1485 C1486 1.340 . S
C1485 H1525 0.951 . S
C1486 C1485 1.340 . S
C1486 C1487 1.439 . S
C1486 H1526 0.950 . S
C1487 C1486 1.439 . S
C1487 N1488 1.374 . S
C1487 C1521 1.395 . S
N1488 C1484 1.376 . S
N1488 C1487 1.374 . S
N1488 Co1489 2.008 1_655 S
Co1489 N1488 2.008 1_455 S
Co1489 N1490 1.995 1_455 S
Co1489 N1495 2.008 . S
Co1489 N1500 1.995 . S
Co1489 N1505 2.282 . S
Co1489 N1511 2.282 1_455 S
N1490 Co1489 1.995 1_655 S
N1490 C1491 1.376 . S
N1490 C1494 1.383 . S
C1491 N1490 1.376 . S
C1491 C1492 1.446 . S
C1491 C1521 1.391 . S
C1492 C1491 1.446 . S
C1492 C1493 1.339 . S
C1492 H1527 0.949 . S
C1493 C1492 1.339 . S
C1493 C1494 1.439 . S
C1493 H1528 0.950 . S
C1494 N1490 1.383 . S
C1494 C1493 1.439 . S
C1494 C1523 1.392 1_655 S
N1495 Co1489 2.008 . S
N1495 C1496 1.376 . S
N1495 C1499 1.374 . S
C1496 N1495 1.376 . S
C1496 C1497 1.443 . S
C1496 C1523 1.389 . S
C1497 C1496 1.443 . S
C1497 C1498 1.340 . S
C1497 H1529 0.951 . S
C1498 C1497 1.340 . S
C1498 C1499 1.439 . S
C1498 H1530 0.950 . S
C1499 N1495 1.374 . S
C1499 C1498 1.439 . S
C1499 C1524 1.395 . S
N1500 Co1489 1.995 . S
N1500 C1501 1.376 . S
N1500 C1504 1.383 . S
C1501 N1500 1.376 . S
C1501 C1502 1.446 . S
C1501 C1524 1.391 . S
C1502 C1501 1.446 . S
C1502 C1503 1.339 . S
C1502 H1531 0.949 . S
C1503 C1502 1.339 . S
C1503 C1504 1.439 . S
C1503 H1532 0.950 . S
C1504 N1500 1.383 . S
C1504 C1503 1.439 . S
C1504 C1522 1.392 1_455 S
N1505 Co1489 2.282 . S
N1505 C1508 1.332 . S
N1505 C1510 1.332 . S
C1506 C1507 1.386 . S
C1506 C1509 1.388 . S
C1507 C1506 1.386 . S
C1507 C1508 1.382 . S
C1507 H1533 0.950 . S
C1508 N1505 1.332 . S
C1508 C1507 1.382 . S
C1508 H1519 0.952 . S
C1509 C1506 1.388 . S
C1509 C1510 1.382 . S
C1509 H1534 0.950 . S
C1510 N1505 1.332 . S
C1510 C1509 1.382 . S
C1510 H1520 0.948 . S
N1511 Co1489 2.282 1_655 S
N1511 C1515 1.332 . S
N1511 C1516 1.332 . S
C1512 C1513 1.388 . S
C1512 C1516 1.382 . S
C1512 H1535 0.950 . S
C1513 C1512 1.388 . S
C1513 C1514 1.386 . S
C1514 C1513 1.386 . S
C1514 C1515 1.382 . S
C1514 H1536 0.950 . S
C1515 N1511 1.332 . S
C1515 C1514 1.382 . S
C1515 H1517 0.952 . S
C1516 N1511 1.332 . S
C1516 C1512 1.382 . S
C1516 H1518 0.948 . S
H1517 C1515 0.952 . S
H1518 C1516 0.948 . S
H1519 C1508 0.952 . S
H1520 C1510 0.948 . S
C1521 C1487 1.395 . S
C1521 C1491 1.391 . S
C1522 C1484 1.389 . S
C1522 C1504 1.392 1_655 S
C1523 C1494 1.392 1_455 S
C1523 C1496 1.389 . S
C1524 C1499 1.395 . S
C1524 C1501 1.391 . S
H1525 C1485 0.951 . S
H1526 C1486 0.950 . S
H1527 C1492 0.949 . S
H1528 C1493 0.950 . S
H1529 C1497 0.951 . S
H1530 C1498 0.950 . S
H1531 C1502 0.949 . S
H1532 C1503 0.950 . S
H1533 C1507 0.950 . S
H1534 C1509 0.950 . S
H1535 C1512 0.950 . S
H1536 C1514 0.950 . S
C1537 C1538 1.443 . S
C1537 N1541 1.376 . S
C1537 C1575 1.389 . S
C1538 C1537 1.443 . S
C1538 C1539 1.340 . S
C1538 H1578 0.951 . S
C1539 C1538 1.340 . S
C1539 C1540 1.439 . S
C1539 H1579 0.950 . S
C1540 C1539 1.439 . S
C1540 N1541 1.374 . S
C1540 C1574 1.395 . S
N1541 C1537 1.376 . S
N1541 C1540 1.374 . S
N1541 Co1542 2.008 . S
Co1542 N1541 2.008 . S
Co1542 N1543 1.995 . S
Co1542 N1548 2.008 . S
Co1542 N1553 1.995 . S
Co1542 N1558 2.282 . S
Co1542 N1564 2.282 . S
N1543 Co1542 1.995 . S
N1543 C1544 1.376 . S
N1543 C1547 1.383 . S
C1544 N1543 1.376 . S
C1544 C1545 1.446 . S
C1544 C1574 1.391 . S
C1545 C1544 1.446 . S
C1545 C1546 1.339 . S
C1545 H1580 0.949 . S
C1546 C1545 1.339 . S
C1546 C1547 1.439 . S
C1546 H1581 0.950 . S
C1547 N1543 1.383 . S
C1547 C1546 1.439 . S
C1547 C1576 1.392 . S
N1548 Co1542 2.008 . S
N1548 C1549 1.376 . S
N1548 C1552 1.374 . S
C1549 N1548 1.376 . S
C1549 C1550 1.443 . S
C1549 C1576 1.389 . S
C1550 C1549 1.443 . S
C1550 C1551 1.340 . S
C1550 H1582 0.951 . S
C1551 C1550 1.340 . S
C1551 C1552 1.439 . S
C1551 H1583 0.950 . S
C1552 N1548 1.374 . S
C1552 C1551 1.439 . S
C1552 C1577 1.395 . S
N1553 Co1542 1.995 . S
N1553 C1554 1.376 . S
N1553 C1557 1.383 . S
C1554 N1553 1.376 . S
C1554 C1555 1.446 . S
C1554 C1577 1.391 . S
C1555 C1554 1.446 . S
C1555 C1556 1.339 . S
C1555 H1584 0.949 . S
C1556 C1555 1.339 . S
C1556 C1557 1.439 . S
C1556 H1585 0.950 . S
C1557 N1553 1.383 . S
C1557 C1556 1.439 . S
C1557 C1575 1.392 . S
N1558 Co1542 2.282 . S
N1558 C1561 1.332 . S
N1558 C1563 1.332 . S
C1559 C1560 1.386 . S
C1559 C1562 1.388 . S
C1560 C1559 1.386 . S
C1560 C1561 1.382 . S
C1560 H1586 0.950 . S
C1561 N1558 1.332 . S
C1561 C1560 1.382 . S
C1561 H1572 0.952 . S
C1562 C1559 1.388 . S
C1562 C1563 1.382 . S
C1562 H1587 0.950 . S
C1563 N1558 1.332 . S
C1563 C1562 1.382 . S
C1563 H1573 0.948 . S
N1564 Co1542 2.282 . S
N1564 C1568 1.332 . S
N1564 C1569 1.332 . S
C1565 C1566 1.388 . S
C1565 C1569 1.382 . S
C1565 H1588 0.950 . S
C1566 C1565 1.388 . S
C1566 C1567 1.386 . S
C1567 C1566 1.386 . S
C1567 C1568 1.382 . S
C1567 H1589 0.950 . S
C1568 N1564 1.332 . S
C1568 C1567 1.382 . S
C1568 H1570 0.952 . S
C1569 N1564 1.332 . S
C1569 C1565 1.382 . S
C1569 H1571 0.948 . S
H1570 C1568 0.952 . S
H1571 C1569 0.948 . S
H1572 C1561 0.952 . S
H1573 C1563 0.948 . S
C1574 C1540 1.395 . S
C1574 C1544 1.391 . S
C1575 C1537 1.389 . S
C1575 C1557 1.392 . S
C1576 C1547 1.392 . S
C1576 C1549 1.389 . S
C1577 C1552 1.395 . S
C1577 C1554 1.391 . S
H1578 C1538 0.951 . S
H1579 C1539 0.950 . S
H1580 C1545 0.949 . S
H1581 C1546 0.950 . S
H1582 C1550 0.951 . S
H1583 C1551 0.950 . S
H1584 C1555 0.949 . S
H1585 C1556 0.950 . S
H1586 C1560 0.950 . S
H1587 C1562 0.950 . S
H1588 C1565 0.950 . S
H1589 C1567 0.950 . S
C1590 C1591 1.443 . S
C1590 N1594 1.376 . S
C1590 C1628 1.389 . S
C1591 C1590 1.443 . S
C1591 C1592 1.340 . S
C1591 H1631 0.951 . S
C1592 C1591 1.340 . S
C1592 C1593 1.439 . S
C1592 H1632 0.950 . S
C1593 C1592 1.439 . S
C1593 N1594 1.374 . S
C1593 C1627 1.395 . S
N1594 C1590 1.376 . S
N1594 C1593 1.374 . S
N1594 Co1595 2.008 1_655 S
Co1595 N1594 2.008 1_455 S
Co1595 N1596 1.995 1_455 S
Co1595 N1601 2.008 . S
Co1595 N1606 1.995 . S
Co1595 N1611 2.282 . S
Co1595 N1617 2.282 1_455 S
N1596 Co1595 1.995 1_655 S
N1596 C1597 1.376 . S
N1596 C1600 1.383 . S
C1597 N1596 1.376 . S
C1597 C1598 1.446 . S
C1597 C1627 1.391 . S
C1598 C1597 1.446 . S
C1598 C1599 1.339 . S
C1598 H1633 0.949 . S
C1599 C1598 1.339 . S
C1599 C1600 1.439 . S
C1599 H1634 0.950 . S
C1600 N1596 1.383 . S
C1600 C1599 1.439 . S
C1600 C1629 1.392 1_655 S
N1601 Co1595 2.008 . S
N1601 C1602 1.376 . S
N1601 C1605 1.374 . S
C1602 N1601 1.376 . S
C1602 C1603 1.443 . S
C1602 C1629 1.389 . S
C1603 C1602 1.443 . S
C1603 C1604 1.340 . S
C1603 H1635 0.951 . S
C1604 C1603 1.340 . S
C1604 C1605 1.439 . S
C1604 H1636 0.950 . S
C1605 N1601 1.374 . S
C1605 C1604 1.439 . S
C1605 C1630 1.395 . S
N1606 Co1595 1.995 . S
N1606 C1607 1.376 . S
N1606 C1610 1.383 . S
C1607 N1606 1.376 . S
C1607 C1608 1.446 . S
C1607 C1630 1.391 . S
C1608 C1607 1.446 . S
C1608 C1609 1.339 . S
C1608 H1637 0.949 . S
C1609 C1608 1.339 . S
C1609 C1610 1.439 . S
C1609 H1638 0.950 . S
C1610 N1606 1.383 . S
C1610 C1609 1.439 . S
C1610 C1628 1.392 1_455 S
N1611 Co1595 2.282 . S
N1611 C1614 1.332 . S
N1611 C1616 1.332 . S
C1612 C1613 1.386 . S
C1612 C1615 1.388 . S
C1613 C1612 1.386 . S
C1613 C1614 1.382 . S
C1613 H1639 0.950 . S
C1614 N1611 1.332 . S
C1614 C1613 1.382 . S
C1614 H1625 0.952 . S
C1615 C1612 1.388 . S
C1615 C1616 1.382 . S
C1615 H1640 0.950 . S
C1616 N1611 1.332 . S
C1616 C1615 1.382 . S
C1616 H1626 0.948 . S
N1617 Co1595 2.282 1_655 S
N1617 C1621 1.332 . S
N1617 C1622 1.332 . S
C1618 C1619 1.388 . S
C1618 C1622 1.382 . S
C1618 H1641 0.950 . S
C1619 C1618 1.388 . S
C1619 C1620 1.386 . S
C1620 C1619 1.386 . S
C1620 C1621 1.382 . S
C1620 H1642 0.950 . S
C1621 N1617 1.332 . S
C1621 C1620 1.382 . S
C1621 H1623 0.952 . S
C1622 N1617 1.332 . S
C1622 C1618 1.382 . S
C1622 H1624 0.948 . S
H1623 C1621 0.952 . S
H1624 C1622 0.948 . S
H1625 C1614 0.952 . S
H1626 C1616 0.948 . S
C1627 C1593 1.395 . S
C1627 C1597 1.391 . S
C1628 C1590 1.389 . S
C1628 C1610 1.392 1_655 S
C1629 C1600 1.392 1_455 S
C1629 C1602 1.389 . S
C1630 C1605 1.395 . S
C1630 C1607 1.391 . S
H1631 C1591 0.951 . S
H1632 C1592 0.950 . S
H1633 C1598 0.949 . S
H1634 C1599 0.950 . S
H1635 C1603 0.951 . S
H1636 C1604 0.950 . S
H1637 C1608 0.949 . S
H1638 C1609 0.950 . S
H1639 C1613 0.950 . S
H1640 C1615 0.950 . S
H1641 C1618 0.950 . S
H1642 C1620 0.950 . S
C1643 C1644 1.443 . S
C1643 N1647 1.376 . S
C1643 C1681 1.389 . S
C1644 C1643 1.443 . S
C1644 C1645 1.340 . S
C1644 H1684 0.951 . S
C1645 C1644 1.340 . S
C1645 C1646 1.439 . S
C1645 H1685 0.950 . S
C1646 C1645 1.439 . S
C1646 N1647 1.374 . S
C1646 C1680 1.395 . S
N1647 C1643 1.376 . S
N1647 C1646 1.374 . S
N1647 Co1648 2.008 . S
Co1648 N1647 2.008 . S
Co1648 N1649 1.995 . S
Co1648 N1654 2.008 . S
Co1648 N1659 1.995 . S
Co1648 N1664 2.282 . S
Co1648 N1670 2.282 . S
N1649 Co1648 1.995 . S
N1649 C1650 1.376 . S
N1649 C1653 1.383 . S
C1650 N1649 1.376 . S
C1650 C1651 1.446 . S
C1650 C1680 1.391 . S
C1651 C1650 1.446 . S
C1651 C1652 1.339 . S
C1651 H1686 0.949 . S
C1652 C1651 1.339 . S
C1652 C1653 1.439 . S
C1652 H1687 0.950 . S
C1653 N1649 1.383 . S
C1653 C1652 1.439 . S
C1653 C1682 1.392 . S
N1654 Co1648 2.008 . S
N1654 C1655 1.376 . S
N1654 C1658 1.374 . S
C1655 N1654 1.376 . S
C1655 C1656 1.443 . S
C1655 C1682 1.389 . S
C1656 C1655 1.443 . S
C1656 C1657 1.340 . S
C1656 H1688 0.951 . S
C1657 C1656 1.340 . S
C1657 C1658 1.439 . S
C1657 H1689 0.950 . S
C1658 N1654 1.374 . S
C1658 C1657 1.439 . S
C1658 C1683 1.395 . S
N1659 Co1648 1.995 . S
N1659 C1660 1.376 . S
N1659 C1663 1.383 . S
C1660 N1659 1.376 . S
C1660 C1661 1.446 . S
C1660 C1683 1.391 . S
C1661 C1660 1.446 . S
C1661 C1662 1.339 . S
C1661 H1690 0.949 . S
C1662 C1661 1.339 . S
C1662 C1663 1.439 . S
C1662 H1691 0.950 . S
C1663 N1659 1.383 . S
C1663 C1662 1.439 . S
C1663 C1681 1.392 . S
N1664 Co1648 2.282 . S
N1664 C1667 1.332 . S
N1664 C1669 1.332 . S
C1665 C1666 1.386 . S
C1665 C1668 1.388 . S
C1666 C1665 1.386 . S
C1666 C1667 1.382 . S
C1666 H1692 0.950 . S
C1667 N1664 1.332 . S
C1667 C1666 1.382 . S
C1667 H1678 0.952 . S
C1668 C1665 1.388 . S
C1668 C1669 1.382 . S
C1668 H1693 0.950 . S
C1669 N1664 1.332 . S
C1669 C1668 1.382 . S
C1669 H1679 0.948 . S
N1670 Co1648 2.282 . S
N1670 C1674 1.332 . S
N1670 C1675 1.332 . S
C1671 C1672 1.388 . S
C1671 C1675 1.382 . S
C1671 H1694 0.950 . S
C1672 C1671 1.388 . S
C1672 C1673 1.386 . S
C1673 C1672 1.386 . S
C1673 C1674 1.382 . S
C1673 H1695 0.950 . S
C1674 N1670 1.332 . S
C1674 C1673 1.382 . S
C1674 H1676 0.952 . S
C1675 N1670 1.332 . S
C1675 C1671 1.382 . S
C1675 H1677 0.948 . S
H1676 C1674 0.952 . S
H1677 C1675 0.948 . S
H1678 C1667 0.952 . S
H1679 C1669 0.948 . S
C1680 C1646 1.395 . S
C1680 C1650 1.391 . S
C1681 C1643 1.389 . S
C1681 C1663 1.392 . S
C1682 C1653 1.392 . S
C1682 C1655 1.389 . S
C1683 C1658 1.395 . S
C1683 C1660 1.391 . S
H1684 C1644 0.951 . S
H1685 C1645 0.950 . S
H1686 C1651 0.949 . S
H1687 C1652 0.950 . S
H1688 C1656 0.951 . S
H1689 C1657 0.950 . S
H1690 C1661 0.949 . S
H1691 C1662 0.950 . S
H1692 C1666 0.950 . S
H1693 C1668 0.950 . S
H1694 C1671 0.950 . S
H1695 C1673 0.950 . S
H1696 C1708 0.930 . S
H1697 C1710 0.930 . S
H1698 C1711 0.930 . S
H1699 C1715 0.959 . S
H1700 C1715 0.959 . S
H1701 C1715 0.961 . S
H1702 C1716 0.960 . S
H1703 C1716 0.961 . S
H1704 C1716 0.959 . S
H1705 C1719 0.929 . S
H1706 C1720 0.931 . S
H1707 C1722 0.930 . S
C1708 H1696 0.930 . S
C1708 C1709 1.399 . S
C1708 C1713 1.399 . S
C1709 C1708 1.399 . S
C1709 C1710 1.376 . S
C1710 H1697 0.930 . S
C1710 C1709 1.376 . S
C1710 C1711 1.388 . S
C1711 H1698 0.930 . S
C1711 C1710 1.388 . S
C1711 C1712 1.390 . S
C1712 C1711 1.390 . S
C1712 C1713 1.394 . S
C1712 C1718 1.465 . S
C1713 C1708 1.399 . S
C1713 C1712 1.394 . S
C1713 C1714 1.516 . S
C1714 C1713 1.516 . S
C1714 C1715 1.502 . S
C1714 C1716 1.561 . S
C1714 C1717 1.526 . S
C1715 H1699 0.959 . S
C1715 H1700 0.959 . S
C1715 H1701 0.961 . S
C1715 C1714 1.502 . S
C1716 H1702 0.960 . S
C1716 H1703 0.961 . S
C1716 H1704 0.959 . S
C1716 C1714 1.561 . S
C1717 C1714 1.526 . S
C1717 C1718 1.396 . S
C1717 C1722 1.390 . S
C1718 C1712 1.465 . S
C1718 C1717 1.396 . S
C1718 C1719 1.399 . S
C1719 H1705 0.929 . S
C1719 C1718 1.399 . S
C1719 C1720 1.385 . S
C1720 H1706 0.931 . S
C1720 C1719 1.385 . S
C1720 C1721 1.389 . S
C1721 C1720 1.389 . S
C1721 C1722 1.387 . S
C1722 H1707 0.930 . S
C1722 C1717 1.390 . S
C1722 C1721 1.387 . S
H1723 C1735 0.930 . S
H1724 C1737 0.930 . S
H1725 C1738 0.930 . S
H1726 C1742 0.959 . S
H1727 C1742 0.959 . S
H1728 C1742 0.961 . S
H1729 C1743 0.960 . S
H1730 C1743 0.961 . S
H1731 C1743 0.959 . S
H1732 C1746 0.929 . S
H1733 C1747 0.931 . S
H1734 C1749 0.930 . S
C1735 H1723 0.930 . S
C1735 C1736 1.399 . S
C1735 C1740 1.399 . S
C1736 C1735 1.399 . S
C1736 C1737 1.376 . S
C1737 H1724 0.930 . S
C1737 C1736 1.376 . S
C1737 C1738 1.388 . S
C1738 H1725 0.930 . S
C1738 C1737 1.388 . S
C1738 C1739 1.390 . S
C1739 C1738 1.390 . S
C1739 C1740 1.394 . S
C1739 C1745 1.465 . S
C1740 C1735 1.399 . S
C1740 C1739 1.394 . S
C1740 C1741 1.516 . S
C1741 C1740 1.516 . S
C1741 C1742 1.502 . S
C1741 C1743 1.561 . S
C1741 C1744 1.526 . S
C1742 H1726 0.959 . S
C1742 H1727 0.959 . S
C1742 H1728 0.961 . S
C1742 C1741 1.502 . S
C1743 H1729 0.960 . S
C1743 H1730 0.961 . S
C1743 H1731 0.959 . S
C1743 C1741 1.561 . S
C1744 C1741 1.526 . S
C1744 C1745 1.396 . S
C1744 C1749 1.390 . S
C1745 C1739 1.465 . S
C1745 C1744 1.396 . S
C1745 C1746 1.399 . S
C1746 H1732 0.929 . S
C1746 C1745 1.399 . S
C1746 C1747 1.385 . S
C1747 H1733 0.931 . S
C1747 C1746 1.385 . S
C1747 C1748 1.389 . S
C1748 C1747 1.389 . S
C1748 C1749 1.387 . S
C1749 H1734 0.930 . S
C1749 C1744 1.390 . S
C1749 C1748 1.387 . S
H1750 C1762 0.930 . S
H1751 C1764 0.930 . S
H1752 C1765 0.930 . S
H1753 C1769 0.959 . S
H1754 C1769 0.959 . S
H1755 C1769 0.961 . S
H1756 C1770 0.960 . S
H1757 C1770 0.961 . S
H1758 C1770 0.959 . S
H1759 C1773 0.929 . S
H1760 C1774 0.931 . S
H1761 C1776 0.930 . S
C1762 H1750 0.930 . S
C1762 C1763 1.399 . S
C1762 C1767 1.399 . S
C1763 C1762 1.399 . S
C1763 C1764 1.376 . S
C1764 H1751 0.930 . S
C1764 C1763 1.376 . S
C1764 C1765 1.388 . S
C1765 H1752 0.930 . S
C1765 C1764 1.388 . S
C1765 C1766 1.390 . S
C1766 C1765 1.390 . S
C1766 C1767 1.394 . S
C1766 C1772 1.465 . S
C1767 C1762 1.399 . S
C1767 C1766 1.394 . S
C1767 C1768 1.516 . S
C1768 C1767 1.516 . S
C1768 C1769 1.502 . S
C1768 C1770 1.561 . S
C1768 C1771 1.526 . S
C1769 H1753 0.959 . S
C1769 H1754 0.959 . S
C1769 H1755 0.961 . S
C1769 C1768 1.502 . S
C1770 H1756 0.960 . S
C1770 H1757 0.961 . S
C1770 H1758 0.959 . S
C1770 C1768 1.561 . S
C1771 C1768 1.526 . S
C1771 C1772 1.396 . S
C1771 C1776 1.390 . S
C1772 C1766 1.465 . S
C1772 C1771 1.396 . S
C1772 C1773 1.399 . S
C1773 H1759 0.929 . S
C1773 C1772 1.399 . S
C1773 C1774 1.385 . S
C1774 H1760 0.931 . S
C1774 C1773 1.385 . S
C1774 C1775 1.389 . S
C1775 C1774 1.389 . S
C1775 C1776 1.387 . S
C1776 H1761 0.930 . S
C1776 C1771 1.390 . S
C1776 C1775 1.387 . S
H1777 C1789 0.930 . S
H1778 C1791 0.930 . S
H1779 C1792 0.930 . S
H1780 C1796 0.959 . S
H1781 C1796 0.959 . S
H1782 C1796 0.961 . S
H1783 C1797 0.960 . S
H1784 C1797 0.961 . S
H1785 C1797 0.959 . S
H1786 C1800 0.929 . S
H1787 C1801 0.931 . S
H1788 C1803 0.930 . S
C1789 H1777 0.930 . S
C1789 C1790 1.399 . S
C1789 C1794 1.399 . S
C1790 C1789 1.399 . S
C1790 C1791 1.376 . S
C1791 H1778 0.930 . S
C1791 C1790 1.376 . S
C1791 C1792 1.388 . S
C1792 H1779 0.930 . S
C1792 C1791 1.388 . S
C1792 C1793 1.390 . S
C1793 C1792 1.390 . S
C1793 C1794 1.394 . S
C1793 C1799 1.465 . S
C1794 C1789 1.399 . S
C1794 C1793 1.394 . S
C1794 C1795 1.516 . S
C1795 C1794 1.516 . S
C1795 C1796 1.502 . S
C1795 C1797 1.561 . S
C1795 C1798 1.526 . S
C1796 H1780 0.959 . S
C1796 H1781 0.959 . S
C1796 H1782 0.961 . S
C1796 C1795 1.502 . S
C1797 H1783 0.960 . S
C1797 H1784 0.961 . S
C1797 H1785 0.959 . S
C1797 C1795 1.561 . S
C1798 C1795 1.526 . S
C1798 C1799 1.396 . S
C1798 C1803 1.390 . S
C1799 C1793 1.465 . S
C1799 C1798 1.396 . S
C1799 C1800 1.399 . S
C1800 H1786 0.929 . S
C1800 C1799 1.399 . S
C1800 C1801 1.385 . S
C1801 H1787 0.931 . S
C1801 C1800 1.385 . S
C1801 C1802 1.389 . S
C1802 C1801 1.389 . S
C1802 C1803 1.387 . S
C1803 H1788 0.930 . S
C1803 C1798 1.390 . S
C1803 C1802 1.387 . S
H1804 C1816 0.930 . S
H1805 C1818 0.930 . S
H1806 C1819 0.930 . S
H1807 C1823 0.959 . S
H1808 C1823 0.959 . S
H1809 C1823 0.961 . S
H1810 C1824 0.960 . S
H1811 C1824 0.961 . S
H1812 C1824 0.959 . S
H1813 C1827 0.929 . S
H1814 C1828 0.931 . S
H1815 C1830 0.930 . S
C1816 H1804 0.930 . S
C1816 C1817 1.399 . S
C1816 C1821 1.399 . S
C1817 C1816 1.399 . S
C1817 C1818 1.376 . S
C1818 H1805 0.930 . S
C1818 C1817 1.376 . S
C1818 C1819 1.388 . S
C1819 H1806 0.930 . S
C1819 C1818 1.388 . S
C1819 C1820 1.390 . S
C1820 C1819 1.390 . S
C1820 C1821 1.394 . S
C1820 C1826 1.465 . S
C1821 C1816 1.399 . S
C1821 C1820 1.394 . S
C1821 C1822 1.516 . S
C1822 C1821 1.516 . S
C1822 C1823 1.502 . S
C1822 C1824 1.561 . S
C1822 C1825 1.526 . S
C1823 H1807 0.959 . S
C1823 H1808 0.959 . S
C1823 H1809 0.961 . S
C1823 C1822 1.502 . S
C1824 H1810 0.960 . S
C1824 H1811 0.961 . S
C1824 H1812 0.959 . S
C1824 C1822 1.561 . S
C1825 C1822 1.526 . S
C1825 C1826 1.396 . S
C1825 C1830 1.390 . S
C1826 C1820 1.465 . S
C1826 C1825 1.396 . S
C1826 C1827 1.399 . S
C1827 H1813 0.929 . S
C1827 C1826 1.399 . S
C1827 C1828 1.385 . S
C1828 H1814 0.931 . S
C1828 C1827 1.385 . S
C1828 C1829 1.389 . S
C1829 C1828 1.389 . S
C1829 C1830 1.387 . S
C1830 H1815 0.930 . S
C1830 C1825 1.390 . S
C1830 C1829 1.387 . S
H1831 C1843 0.930 . S
H1832 C1845 0.930 . S
H1833 C1846 0.930 . S
H1834 C1850 0.959 . S
H1835 C1850 0.959 . S
H1836 C1850 0.961 . S
H1837 C1851 0.960 . S
H1838 C1851 0.961 . S
H1839 C1851 0.959 . S
H1840 C1854 0.929 . S
H1841 C1855 0.931 . S
H1842 C1857 0.930 . S
C1843 H1831 0.930 . S
C1843 C1844 1.399 . S
C1843 C1848 1.399 . S
C1844 C1843 1.399 . S
C1844 C1845 1.376 . S
C1845 H1832 0.930 . S
C1845 C1844 1.376 . S
C1845 C1846 1.388 . S
C1846 H1833 0.930 . S
C1846 C1845 1.388 . S
C1846 C1847 1.390 . S
C1847 C1846 1.390 . S
C1847 C1848 1.394 . S
C1847 C1853 1.465 . S
C1848 C1843 1.399 . S
C1848 C1847 1.394 . S
C1848 C1849 1.516 . S
C1849 C1848 1.516 . S
C1849 C1850 1.502 . S
C1849 C1851 1.561 . S
C1849 C1852 1.526 . S
C1850 H1834 0.959 . S
C1850 H1835 0.959 . S
C1850 H1836 0.961 . S
C1850 C1849 1.502 . S
C1851 H1837 0.960 . S
C1851 H1838 0.961 . S
C1851 H1839 0.959 . S
C1851 C1849 1.561 . S
C1852 C1849 1.526 . S
C1852 C1853 1.396 . S
C1852 C1857 1.390 . S
C1853 C1847 1.465 . S
C1853 C1852 1.396 . S
C1853 C1854 1.399 . S
C1854 H1840 0.929 . S
C1854 C1853 1.399 . S
C1854 C1855 1.385 . S
C1855 H1841 0.931 . S
C1855 C1854 1.385 . S
C1855 C1856 1.389 . S
C1856 C1855 1.389 . S
C1856 C1857 1.387 . S
C1857 H1842 0.930 . S
C1857 C1852 1.390 . S
C1857 C1856 1.387 . S
H1858 C1870 0.930 . S
H1859 C1872 0.930 . S
H1860 C1873 0.930 . S
H1861 C1877 0.959 . S
H1862 C1877 0.959 . S
H1863 C1877 0.961 . S
H1864 C1878 0.960 . S
H1865 C1878 0.961 . S
H1866 C1878 0.959 . S
H1867 C1881 0.929 . S
H1868 C1882 0.931 . S
H1869 C1884 0.930 . S
C1870 H1858 0.930 . S
C1870 C1871 1.399 . S
C1870 C1875 1.399 . S
C1871 C1870 1.399 . S
C1871 C1872 1.376 . S
C1872 H1859 0.930 . S
C1872 C1871 1.376 . S
C1872 C1873 1.388 . S
C1873 H1860 0.930 . S
C1873 C1872 1.388 . S
C1873 C1874 1.390 . S
C1874 C1873 1.390 . S
C1874 C1875 1.394 . S
C1874 C1880 1.465 . S
C1875 C1870 1.399 . S
C1875 C1874 1.394 . S
C1875 C1876 1.516 . S
C1876 C1875 1.516 . S
C1876 C1877 1.502 . S
C1876 C1878 1.561 . S
C1876 C1879 1.526 . S
C1877 H1861 0.959 . S
C1877 H1862 0.959 . S
C1877 H1863 0.961 . S
C1877 C1876 1.502 . S
C1878 H1864 0.960 . S
C1878 H1865 0.961 . S
C1878 H1866 0.959 . S
C1878 C1876 1.561 . S
C1879 C1876 1.526 . S
C1879 C1880 1.396 . S
C1879 C1884 1.390 . S
C1880 C1874 1.465 . S
C1880 C1879 1.396 . S
C1880 C1881 1.399 . S
C1881 H1867 0.929 . S
C1881 C1880 1.399 . S
C1881 C1882 1.385 . S
C1882 H1868 0.931 . S
C1882 C1881 1.385 . S
C1882 C1883 1.389 . S
C1883 C1882 1.389 . S
C1883 C1884 1.387 . S
C1884 H1869 0.930 . S
C1884 C1879 1.390 . S
C1884 C1883 1.387 . S
H1885 C1897 0.930 . S
H1886 C1899 0.930 . S
H1887 C1900 0.930 . S
H1888 C1904 0.959 . S
H1889 C1904 0.959 . S
H1890 C1904 0.961 . S
H1891 C1905 0.960 . S
H1892 C1905 0.961 . S
H1893 C1905 0.959 . S
H1894 C1908 0.929 . S
H1895 C1909 0.931 . S
H1896 C1911 0.930 . S
C1897 H1885 0.930 . S
C1897 C1898 1.399 . S
C1897 C1902 1.399 . S
C1898 C1897 1.399 . S
C1898 C1899 1.376 . S
C1899 H1886 0.930 . S
C1899 C1898 1.376 . S
C1899 C1900 1.388 . S
C1900 H1887 0.930 . S
C1900 C1899 1.388 . S
C1900 C1901 1.390 . S
C1901 C1900 1.390 . S
C1901 C1902 1.394 . S
C1901 C1907 1.465 . S
C1902 C1897 1.399 . S
C1902 C1901 1.394 . S
C1902 C1903 1.516 . S
C1903 C1902 1.516 . S
C1903 C1904 1.502 . S
C1903 C1905 1.561 . S
C1903 C1906 1.526 . S
C1904 H1888 0.959 . S
C1904 H1889 0.959 . S
C1904 H1890 0.961 . S
C1904 C1903 1.502 . S
C1905 H1891 0.960 . S
C1905 H1892 0.961 . S
C1905 H1893 0.959 . S
C1905 C1903 1.561 . S
C1906 C1903 1.526 . S
C1906 C1907 1.396 . S
C1906 C1911 1.390 . S
C1907 C1901 1.465 . S
C1907 C1906 1.396 . S
C1907 C1908 1.399 . S
C1908 H1894 0.929 . S
C1908 C1907 1.399 . S
C1908 C1909 1.385 . S
C1909 H1895 0.931 . S
C1909 C1908 1.385 . S
C1909 C1910 1.389 . S
C1910 C1909 1.389 . S
C1910 C1911 1.387 . S
C1911 H1896 0.930 . S
C1911 C1906 1.390 . S
C1911 C1910 1.387 . S
H1912 C1924 0.930 . S
H1913 C1926 0.932 . S
H1914 C1927 0.930 . S
H1915 C1931 0.959 . S
H1916 C1931 0.959 . S
H1917 C1931 0.961 . S
H1918 C1932 0.960 . S
H1919 C1932 0.961 . S
H1920 C1932 0.959 . S
H1921 C1935 0.933 . S
H1922 C1936 0.930 . S
H1923 C1938 0.930 . S
C1924 H1912 0.930 . S
C1924 C1925 1.399 . S
C1924 C1929 1.399 . S
C1925 C1924 1.399 . S
C1925 C1926 1.374 1_455 S
C1926 H1913 0.932 . S
C1926 C1925 1.374 1_655 S
C1926 C1927 1.389 . S
C1927 H1914 0.930 . S
C1927 C1926 1.389 . S
C1927 C1928 1.389 1_655 S
C1928 C1927 1.389 1_455 S
C1928 C1929 1.395 . S
C1928 C1934 1.465 . S
C1929 C1924 1.399 . S
C1929 C1928 1.395 . S
C1929 C1930 1.516 . S
C1930 C1929 1.516 . S
C1930 C1931 1.502 . S
C1930 C1932 1.561 1_455 S
C1930 C1933 1.526 . S
C1931 H1915 0.959 . S
C1931 H1916 0.959 . S
C1931 H1917 0.961 . S
C1931 C1930 1.502 . S
C1932 H1918 0.960 . S
C1932 H1919 0.961 . S
C1932 H1920 0.959 . S
C1932 C1930 1.561 1_655 S
C1933 C1930 1.526 . S
C1933 C1934 1.400 . S
C1933 C1938 1.390 . S
C1934 C1928 1.465 . S
C1934 C1933 1.400 . S
C1934 C1935 1.396 1_455 S
C1935 H1921 0.933 . S
C1935 C1934 1.396 1_655 S
C1935 C1936 1.382 1_655 S
C1936 H1922 0.930 . S
C1936 C1935 1.382 1_455 S
C1936 C1937 1.396 . S
C1937 C1936 1.396 . S
C1937 C1938 1.387 . S
C1938 H1923 0.930 . S
C1938 C1933 1.390 . S
C1938 C1937 1.387 . S
H1939 C1951 0.930 . S
H1940 C1953 0.930 . S
H1941 C1954 0.930 . S
H1942 C1958 0.959 . S
H1943 C1958 0.959 . S
H1944 C1958 0.961 . S
H1945 C1959 0.960 . S
H1946 C1959 0.961 . S
H1947 C1959 0.959 . S
H1948 C1962 0.929 . S
H1949 C1963 0.931 . S
H1950 C1965 0.930 . S
C1951 H1939 0.930 . S
C1951 C1952 1.399 . S
C1951 C1956 1.399 . S
C1952 C1951 1.399 . S
C1952 C1953 1.376 . S
C1953 H1940 0.930 . S
C1953 C1952 1.376 . S
C1953 C1954 1.388 . S
C1954 H1941 0.930 . S
C1954 C1953 1.388 . S
C1954 C1955 1.390 . S
C1955 C1954 1.390 . S
C1955 C1956 1.394 . S
C1955 C1961 1.465 . S
C1956 C1951 1.399 . S
C1956 C1955 1.394 . S
C1956 C1957 1.516 . S
C1957 C1956 1.516 . S
C1957 C1958 1.502 . S
C1957 C1959 1.561 . S
C1957 C1960 1.526 . S
C1958 H1942 0.959 . S
C1958 H1943 0.959 . S
C1958 H1944 0.961 . S
C1958 C1957 1.502 . S
C1959 H1945 0.960 . S
C1959 H1946 0.961 . S
C1959 H1947 0.959 . S
C1959 C1957 1.561 . S
C1960 C1957 1.526 . S
C1960 C1961 1.396 . S
C1960 C1965 1.390 . S
C1961 C1955 1.465 . S
C1961 C1960 1.396 . S
C1961 C1962 1.399 . S
C1962 H1948 0.929 . S
C1962 C1961 1.399 . S
C1962 C1963 1.385 . S
C1963 H1949 0.931 . S
C1963 C1962 1.385 . S
C1963 C1964 1.389 . S
C1964 C1963 1.389 . S
C1964 C1965 1.387 . S
C1965 H1950 0.930 . S
C1965 C1960 1.390 . S
C1965 C1964 1.387 . S
H1966 C1978 0.938 . S
H1967 C1980 0.930 . S
H1968 C1981 0.930 . S
H1969 C1985 0.959 . S
H1970 C1985 0.959 . S
H1971 C1985 0.961 . S
H1972 C1986 0.960 . S
H1973 C1986 0.961 . S
H1974 C1986 0.959 . S
H1975 C1989 0.929 . S
H1976 C1990 0.931 . S
H1977 C1992 0.933 . S
C1978 H1966 0.938 . S
C1978 C1979 1.393 1_455 S
C1978 C1983 1.397 1_455 S
C1979 C1978 1.393 1_655 S
C1979 C1980 1.376 . S
C1980 H1967 0.930 . S
C1980 C1979 1.376 . S
C1980 C1981 1.388 . S
C1981 H1968 0.930 . S
C1981 C1980 1.388 . S
C1981 C1982 1.390 . S
C1982 C1981 1.390 . S
C1982 C1983 1.394 . S
C1982 C1988 1.465 . S
C1983 C1978 1.397 1_655 S
C1983 C1982 1.394 . S
C1983 C1984 1.516 1_655 S
C1984 C1983 1.516 1_455 S
C1984 C1985 1.502 . S
C1984 C1986 1.561 1_455 S
C1984 C1987 1.526 1_455 S
C1985 H1969 0.959 . S
C1985 H1970 0.959 . S
C1985 H1971 0.961 . S
C1985 C1984 1.502 . S
C1986 H1972 0.960 . S
C1986 H1973 0.961 . S
C1986 H1974 0.959 . S
C1986 C1984 1.561 1_655 S
C1987 C1984 1.526 1_655 S
C1987 C1988 1.396 . S
C1987 C1992 1.389 1_655 S
C1988 C1982 1.465 . S
C1988 C1987 1.396 . S
C1988 C1989 1.399 . S
C1989 H1975 0.929 . S
C1989 C1988 1.399 . S
C1989 C1990 1.385 . S
C1990 H1976 0.931 . S
C1990 C1989 1.385 . S
C1990 C1991 1.389 . S
C1991 C1990 1.389 . S
C1991 C1992 1.385 1_655 S
C1992 H1977 0.933 . S
C1992 C1987 1.389 1_455 S
C1992 C1991 1.385 1_455 S
H1993 C2005 0.930 . S
H1994 C2007 0.930 . S
H1995 C2008 0.930 . S
H1996 C2012 0.959 . S
H1997 C2012 0.959 . S
H1998 C2012 0.961 . S
H1999 C2013 0.960 . S
H2000 C2013 0.961 . S
H2001 C2013 0.959 . S
H2002 C2016 0.929 . S
H2003 C2017 0.931 . S
H2004 C2019 0.930 . S
C2005 H1993 0.930 . S
C2005 C2006 1.399 . S
C2005 C2010 1.399 . S
C2006 C2005 1.399 . S
C2006 C2007 1.376 . S
C2007 H1994 0.930 . S
C2007 C2006 1.376 . S
C2007 C2008 1.388 . S
C2008 H1995 0.930 . S
C2008 C2007 1.388 . S
C2008 C2009 1.390 . S
C2009 C2008 1.390 . S
C2009 C2010 1.394 . S
C2009 C2015 1.465 . S
C2010 C2005 1.399 . S
C2010 C2009 1.394 . S
C2010 C2011 1.516 . S
C2011 C2010 1.516 . S
C2011 C2012 1.502 . S
C2011 C2013 1.561 . S
C2011 C2014 1.526 . S
C2012 H1996 0.959 . S
C2012 H1997 0.959 . S
C2012 H1998 0.961 . S
C2012 C2011 1.502 . S
C2013 H1999 0.960 . S
C2013 H2000 0.961 . S
C2013 H2001 0.959 . S
C2013 C2011 1.561 . S
C2014 C2011 1.526 . S
C2014 C2015 1.396 . S
C2014 C2019 1.390 . S
C2015 C2009 1.465 . S
C2015 C2014 1.396 . S
C2015 C2016 1.399 . S
C2016 H2002 0.929 . S
C2016 C2015 1.399 . S
C2016 C2017 1.385 . S
C2017 H2003 0.931 . S
C2017 C2016 1.385 . S
C2017 C2018 1.389 . S
C2018 C2017 1.389 . S
C2018 C2019 1.387 . S
C2019 H2004 0.930 . S
C2019 C2014 1.390 . S
C2019 C2018 1.387 . S
H2020 C2032 0.931 . S
H2021 C2034 0.930 . S
H2022 C2035 0.930 . S
H2023 C2039 0.959 . S
H2024 C2039 0.959 . S
H2025 C2039 0.961 . S
H2026 C2040 0.960 . S
H2027 C2040 0.961 . S
H2028 C2040 0.959 . S
H2029 C2043 0.929 . S
H2030 C2044 0.931 . S
H2031 C2046 0.931 1_655 S
C2032 H2020 0.931 . S
C2032 C2033 1.398 1_655 S
C2032 C2037 1.399 1_655 S
C2033 C2032 1.398 1_455 S
C2033 C2034 1.376 . S
C2034 H2021 0.930 . S
C2034 C2033 1.376 . S
C2034 C2035 1.388 . S
C2035 H2022 0.930 . S
C2035 C2034 1.388 . S
C2035 C2036 1.390 . S
C2036 C2035 1.390 . S
C2036 C2037 1.394 . S
C2036 C2042 1.465 . S
C2037 C2032 1.399 1_455 S
C2037 C2036 1.394 . S
C2037 C2038 1.516 1_455 S
C2038 C2037 1.516 1_655 S
C2038 C2039 1.502 . S
C2038 C2040 1.561 1_655 S
C2038 C2041 1.526 1_655 S
C2039 H2023 0.959 . S
C2039 H2024 0.959 . S
C2039 H2025 0.961 . S
C2039 C2038 1.502 . S
C2040 H2026 0.960 . S
C2040 H2027 0.961 . S
C2040 H2028 0.959 . S
C2040 C2038 1.561 1_455 S
C2041 C2038 1.526 1_455 S
C2041 C2042 1.396 . S
C2041 C2046 1.389 . S
C2042 C2036 1.465 . S
C2042 C2041 1.396 . S
C2042 C2043 1.399 . S
C2043 H2029 0.929 . S
C2043 C2042 1.399 . S
C2043 C2044 1.385 . S
C2044 H2030 0.931 . S
C2044 C2043 1.385 . S
C2044 C2045 1.389 . S
C2045 C2044 1.389 . S
C2045 C2046 1.386 . S
C2046 H2031 0.931 1_455 S
C2046 C2041 1.389 . S
C2046 C2045 1.386 . S
H2047 C2059 0.930 . S
H2048 C2061 0.930 . S
H2049 C2062 0.930 . S
H2050 C2066 0.959 . S
H2051 C2066 0.959 . S
H2052 C2066 0.961 . S
H2053 C2067 0.960 . S
H2054 C2067 0.961 . S
H2055 C2067 0.959 . S
H2056 C2070 0.929 . S
H2057 C2071 0.931 . S
H2058 C2073 0.930 . S
C2059 H2047 0.930 . S
C2059 C2060 1.399 . S
C2059 C2064 1.399 . S
C2060 C2059 1.399 . S
C2060 C2061 1.376 . S
C2061 H2048 0.930 . S
C2061 C2060 1.376 . S
C2061 C2062 1.388 . S
C2062 H2049 0.930 . S
C2062 C2061 1.388 . S
C2062 C2063 1.390 . S
C2063 C2062 1.390 . S
C2063 C2064 1.394 . S
C2063 C2069 1.465 . S
C2064 C2059 1.399 . S
C2064 C2063 1.394 . S
C2064 C2065 1.516 . S
C2065 C2064 1.516 . S
C2065 C2066 1.502 . S
C2065 C2067 1.561 . S
C2065 C2068 1.526 . S
C2066 H2050 0.959 . S
C2066 H2051 0.959 . S
C2066 H2052 0.961 . S
C2066 C2065 1.502 . S
C2067 H2053 0.960 . S
C2067 H2054 0.961 . S
C2067 H2055 0.959 . S
C2067 C2065 1.561 . S
C2068 C2065 1.526 . S
C2068 C2069 1.396 . S
C2068 C2073 1.390 . S
C2069 C2063 1.465 . S
C2069 C2068 1.396 . S
C2069 C2070 1.399 . S
C2070 H2056 0.929 . S
C2070 C2069 1.399 . S
C2070 C2071 1.385 . S
C2071 H2057 0.931 . S
C2071 C2070 1.385 . S
C2071 C2072 1.389 . S
C2072 C2071 1.389 . S
C2072 C2073 1.387 . S
C2073 H2058 0.930 . S
C2073 C2068 1.390 . S
C2073 C2072 1.387 . S
H2074 C2086 0.942 . S
H2075 C2088 0.930 . S
H2076 C2089 0.930 . S
H2077 C2093 0.959 . S
H2078 C2093 0.959 . S
H2079 C2093 0.961 . S
H2080 C2094 0.960 . S
H2081 C2094 0.961 . S
H2082 C2094 0.959 . S
H2083 C2097 0.929 . S
H2084 C2098 0.931 . S
H2085 C2100 0.936 . S
C2086 H2074 0.942 . S
C2086 C2087 1.391 1_455 S
C2086 C2091 1.396 1_455 S
C2087 C2086 1.391 1_655 S
C2087 C2088 1.376 . S
C2088 H2075 0.930 . S
C2088 C2087 1.376 . S
C2088 C2089 1.388 . S
C2089 H2076 0.930 . S
C2089 C2088 1.388 . S
C2089 C2090 1.390 . S
C2090 C2089 1.390 . S
C2090 C2091 1.394 . S
C2090 C2096 1.465 . S
C2091 C2086 1.396 1_655 S
C2091 C2090 1.394 . S
C2091 C2092 1.516 1_655 S
C2092 C2091 1.516 1_455 S
C2092 C2093 1.502 . S
C2092 C2094 1.561 1_455 S
C2092 C2095 1.526 1_455 S
C2093 H2077 0.959 . S
C2093 H2078 0.959 . S
C2093 H2079 0.961 . S
C2093 C2092 1.502 . S
C2094 H2080 0.960 . S
C2094 H2081 0.961 . S
C2094 H2082 0.959 . S
C2094 C2092 1.561 1_655 S
C2095 C2092 1.526 1_655 S
C2095 C2096 1.396 . S
C2095 C2100 1.388 1_655 S
C2096 C2090 1.465 . S
C2096 C2095 1.396 . S
C2096 C2097 1.399 . S
C2097 H2083 0.929 . S
C2097 C2096 1.399 . S
C2097 C2098 1.385 . S
C2098 H2084 0.931 . S
C2098 C2097 1.385 . S
C2098 C2099 1.389 . S
C2099 C2098 1.389 . S
C2099 C2100 1.383 1_655 S
C2100 H2085 0.936 . S
C2100 C2095 1.388 1_455 S
C2100 C2099 1.383 1_455 S
H2101 C2113 0.930 . S
H2102 C2115 0.930 . S
H2103 C2116 0.930 . S
H2104 C2120 0.959 . S
H2105 C2120 0.959 . S
H2106 C2120 0.961 . S
H2107 C2121 0.960 . S
H2108 C2121 0.961 . S
H2109 C2121 0.959 . S
H2110 C2124 0.929 . S
H2111 C2125 0.931 . S
H2112 C2127 0.930 . S
C2113 H2101 0.930 . S
C2113 C2114 1.399 . S
C2113 C2118 1.399 . S
C2114 C2113 1.399 . S
C2114 C2115 1.376 . S
C2115 H2102 0.930 . S
C2115 C2114 1.376 . S
C2115 C2116 1.388 . S
C2116 H2103 0.930 . S
C2116 C2115 1.388 . S
C2116 C2117 1.390 . S
C2117 C2116 1.390 . S
C2117 C2118 1.394 . S
C2117 C2123 1.465 . S
C2118 C2113 1.399 . S
C2118 C2117 1.394 . S
C2118 C2119 1.516 . S
C2119 C2118 1.516 . S
C2119 C2120 1.502 . S
C2119 C2121 1.561 . S
C2119 C2122 1.526 . S
C2120 H2104 0.959 . S
C2120 H2105 0.959 . S
C2120 H2106 0.961 . S
C2120 C2119 1.502 . S
C2121 H2107 0.960 . S
C2121 H2108 0.961 . S
C2121 H2109 0.959 . S
C2121 C2119 1.561 . S
C2122 C2119 1.526 . S
C2122 C2123 1.396 . S
C2122 C2127 1.390 . S
C2123 C2117 1.465 . S
C2123 C2122 1.396 . S
C2123 C2124 1.399 . S
C2124 H2110 0.929 . S
C2124 C2123 1.399 . S
C2124 C2125 1.385 . S
C2125 H2111 0.931 . S
C2125 C2124 1.385 . S
C2125 C2126 1.389 . S
C2126 C2125 1.389 . S
C2126 C2127 1.387 . S
C2127 H2112 0.930 . S
C2127 C2122 1.390 . S
C2127 C2126 1.387 . S
H2128 C2140 0.930 . S
H2129 C2142 0.930 . S
H2130 C2143 0.930 . S
H2131 C2147 0.959 . S
H2132 C2147 0.959 . S
H2133 C2147 0.961 . S
H2134 C2148 0.960 . S
H2135 C2148 0.961 . S
H2136 C2148 0.959 . S
H2137 C2151 0.929 . S
H2138 C2152 0.931 . S
H2139 C2154 0.930 . S
C2140 H2128 0.930 . S
C2140 C2141 1.399 . S
C2140 C2145 1.399 . S
C2141 C2140 1.399 . S
C2141 C2142 1.376 . S
C2142 H2129 0.930 . S
C2142 C2141 1.376 . S
C2142 C2143 1.388 . S
C2143 H2130 0.930 . S
C2143 C2142 1.388 . S
C2143 C2144 1.390 . S
C2144 C2143 1.390 . S
C2144 C2145 1.394 . S
C2144 C2150 1.465 . S
C2145 C2140 1.399 . S
C2145 C2144 1.394 . S
C2145 C2146 1.516 . S
C2146 C2145 1.516 . S
C2146 C2147 1.502 . S
C2146 C2148 1.561 . S
C2146 C2149 1.526 . S
C2147 H2131 0.959 . S
C2147 H2132 0.959 . S
C2147 H2133 0.961 . S
C2147 C2146 1.502 . S
C2148 H2134 0.960 . S
C2148 H2135 0.961 . S
C2148 H2136 0.959 . S
C2148 C2146 1.561 . S
C2149 C2146 1.526 . S
C2149 C2150 1.396 . S
C2149 C2154 1.390 . S
C2150 C2144 1.465 . S
C2150 C2149 1.396 . S
C2150 C2151 1.399 . S
C2151 H2137 0.929 . S
C2151 C2150 1.399 . S
C2151 C2152 1.385 . S
C2152 H2138 0.931 . S
C2152 C2151 1.385 . S
C2152 C2153 1.389 . S
C2153 C2152 1.389 . S
C2153 C2154 1.387 . S
C2154 H2139 0.930 . S
C2154 C2149 1.390 . S
C2154 C2153 1.387 . S
H2155 C2167 0.930 . S
H2156 C2169 0.930 . S
H2157 C2170 0.930 . S
H2158 C2174 0.959 . S
H2159 C2174 0.959 . S
H2160 C2174 0.961 . S
H2161 C2175 0.960 . S
H2162 C2175 0.961 . S
H2163 C2175 0.959 . S
H2164 C2178 0.929 . S
H2165 C2179 0.931 . S
H2166 C2181 0.930 . S
C2167 H2155 0.930 . S
C2167 C2168 1.399 . S
C2167 C2172 1.399 . S
C2168 C2167 1.399 . S
C2168 C2169 1.376 . S
C2169 H2156 0.930 . S
C2169 C2168 1.376 . S
C2169 C2170 1.388 . S
C2170 H2157 0.930 . S
C2170 C2169 1.388 . S
C2170 C2171 1.390 . S
C2171 C2170 1.390 . S
C2171 C2172 1.394 . S
C2171 C2177 1.465 . S
C2172 C2167 1.399 . S
C2172 C2171 1.394 . S
C2172 C2173 1.516 . S
C2173 C2172 1.516 . S
C2173 C2174 1.502 . S
C2173 C2175 1.561 . S
C2173 C2176 1.526 . S
C2174 H2158 0.959 . S
C2174 H2159 0.959 . S
C2174 H2160 0.961 . S
C2174 C2173 1.502 . S
C2175 H2161 0.960 . S
C2175 H2162 0.961 . S
C2175 H2163 0.959 . S
C2175 C2173 1.561 . S
C2176 C2173 1.526 . S
C2176 C2177 1.396 . S
C2176 C2181 1.390 . S
C2177 C2171 1.465 . S
C2177 C2176 1.396 . S
C2177 C2178 1.399 . S
C2178 H2164 0.929 . S
C2178 C2177 1.399 . S
C2178 C2179 1.385 . S
C2179 H2165 0.931 . S
C2179 C2178 1.385 . S
C2179 C2180 1.389 . S
C2180 C2179 1.389 . S
C2180 C2181 1.387 . S
C2181 H2166 0.930 . S
C2181 C2176 1.390 . S
C2181 C2180 1.387 . S
H2182 C2194 0.930 . S
H2183 C2196 0.930 . S
H2184 C2197 0.930 . S
H2185 C2201 0.959 . S
H2186 C2201 0.959 . S
H2187 C2201 0.961 . S
H2188 C2202 0.960 . S
H2189 C2202 0.961 . S
H2190 C2202 0.959 . S
H2191 C2205 0.929 . S
H2192 C2206 0.931 . S
H2193 C2208 0.930 . S
C2194 H2182 0.930 . S
C2194 C2195 1.399 . S
C2194 C2199 1.399 . S
C2195 C2194 1.399 . S
C2195 C2196 1.376 . S
C2196 H2183 0.930 . S
C2196 C2195 1.376 . S
C2196 C2197 1.388 . S
C2197 H2184 0.930 . S
C2197 C2196 1.388 . S
C2197 C2198 1.390 . S
C2198 C2197 1.390 . S
C2198 C2199 1.394 . S
C2198 C2204 1.465 . S
C2199 C2194 1.399 . S
C2199 C2198 1.394 . S
C2199 C2200 1.516 . S
C2200 C2199 1.516 . S
C2200 C2201 1.502 . S
C2200 C2202 1.561 . S
C2200 C2203 1.526 . S
C2201 H2185 0.959 . S
C2201 H2186 0.959 . S
C2201 H2187 0.961 . S
C2201 C2200 1.502 . S
C2202 H2188 0.960 . S
C2202 H2189 0.961 . S
C2202 H2190 0.959 . S
C2202 C2200 1.561 . S
C2203 C2200 1.526 . S
C2203 C2204 1.396 . S
C2203 C2208 1.390 . S
C2204 C2198 1.465 . S
C2204 C2203 1.396 . S
C2204 C2205 1.399 . S
C2205 H2191 0.929 . S
C2205 C2204 1.399 . S
C2205 C2206 1.385 . S
C2206 H2192 0.931 . S
C2206 C2205 1.385 . S
C2206 C2207 1.389 . S
C2207 C2206 1.389 . S
C2207 C2208 1.387 . S
C2208 H2193 0.930 . S
C2208 C2203 1.390 . S
C2208 C2207 1.387 . S
H2209 C2221 0.930 . S
H2210 C2223 0.930 . S
H2211 C2224 0.930 . S
H2212 C2228 0.959 . S
H2213 C2228 0.959 . S
H2214 C2228 0.961 . S
H2215 C2229 0.960 . S
H2216 C2229 0.961 . S
H2217 C2229 0.959 . S
H2218 C2232 0.929 . S
H2219 C2233 0.931 . S
H2220 C2235 0.930 . S
C2221 H2209 0.930 . S
C2221 C2222 1.399 . S
C2221 C2226 1.399 . S
C2222 C2221 1.399 . S
C2222 C2223 1.376 . S
C2223 H2210 0.930 . S
C2223 C2222 1.376 . S
C2223 C2224 1.388 . S
C2224 H2211 0.930 . S
C2224 C2223 1.388 . S
C2224 C2225 1.390 . S
C2225 C2224 1.390 . S
C2225 C2226 1.394 . S
C2225 C2231 1.465 . S
C2226 C2221 1.399 . S
C2226 C2225 1.394 . S
C2226 C2227 1.516 . S
C2227 C2226 1.516 . S
C2227 C2228 1.502 . S
C2227 C2229 1.561 . S
C2227 C2230 1.526 . S
C2228 H2212 0.959 . S
C2228 H2213 0.959 . S
C2228 H2214 0.961 . S
C2228 C2227 1.502 . S
C2229 H2215 0.960 . S
C2229 H2216 0.961 . S
C2229 H2217 0.959 . S
C2229 C2227 1.561 . S
C2230 C2227 1.526 . S
C2230 C2231 1.396 . S
C2230 C2235 1.390 . S
C2231 C2225 1.465 . S
C2231 C2230 1.396 . S
C2231 C2232 1.399 . S
C2232 H2218 0.929 . S
C2232 C2231 1.399 . S
C2232 C2233 1.385 . S
C2233 H2219 0.931 . S
C2233 C2232 1.385 . S
C2233 C2234 1.389 . S
C2234 C2233 1.389 . S
C2234 C2235 1.387 . S
C2235 H2220 0.930 . S
C2235 C2230 1.390 . S
C2235 C2234 1.387 . S
H2236 C2248 0.930 . S
H2237 C2250 0.930 . S
H2238 C2251 0.930 . S
H2239 C2255 0.959 . S
H2240 C2255 0.959 . S
H2241 C2255 0.961 . S
H2242 C2256 0.960 . S
H2243 C2256 0.961 . S
H2244 C2256 0.959 . S
H2245 C2259 0.929 . S
H2246 C2260 0.931 . S
H2247 C2262 0.930 . S
C2248 H2236 0.930 . S
C2248 C2249 1.399 . S
C2248 C2253 1.399 . S
C2249 C2248 1.399 . S
C2249 C2250 1.376 . S
C2250 H2237 0.930 . S
C2250 C2249 1.376 . S
C2250 C2251 1.388 . S
C2251 H2238 0.930 . S
C2251 C2250 1.388 . S
C2251 C2252 1.390 . S
C2252 C2251 1.390 . S
C2252 C2253 1.394 . S
C2252 C2258 1.465 . S
C2253 C2248 1.399 . S
C2253 C2252 1.394 . S
C2253 C2254 1.516 . S
C2254 C2253 1.516 . S
C2254 C2255 1.502 . S
C2254 C2256 1.561 . S
C2254 C2257 1.526 . S
C2255 H2239 0.959 . S
C2255 H2240 0.959 . S
C2255 H2241 0.961 . S
C2255 C2254 1.502 . S
C2256 H2242 0.960 . S
C2256 H2243 0.961 . S
C2256 H2244 0.959 . S
C2256 C2254 1.561 . S
C2257 C2254 1.526 . S
C2257 C2258 1.396 . S
C2257 C2262 1.390 . S
C2258 C2252 1.465 . S
C2258 C2257 1.396 . S
C2258 C2259 1.399 . S
C2259 H2245 0.929 . S
C2259 C2258 1.399 . S
C2259 C2260 1.385 . S
C2260 H2246 0.931 . S
C2260 C2259 1.385 . S
C2260 C2261 1.389 . S
C2261 C2260 1.389 . S
C2261 C2262 1.387 . S
C2262 H2247 0.930 . S
C2262 C2257 1.390 . S
C2262 C2261 1.387 . S
H2263 C2275 0.930 . S
H2264 C2277 0.930 . S
H2265 C2278 0.930 . S
H2266 C2282 0.959 . S
H2267 C2282 0.959 . S
H2268 C2282 0.961 . S
H2269 C2283 0.960 . S
H2270 C2283 0.961 . S
H2271 C2283 0.959 . S
H2272 C2286 0.929 . S
H2273 C2287 0.931 . S
H2274 C2289 0.930 . S
C2275 H2263 0.930 . S
C2275 C2276 1.399 . S
C2275 C2280 1.399 . S
C2276 C2275 1.399 . S
C2276 C2277 1.376 . S
C2277 H2264 0.930 . S
C2277 C2276 1.376 . S
C2277 C2278 1.388 . S
C2278 H2265 0.930 . S
C2278 C2277 1.388 . S
C2278 C2279 1.390 . S
C2279 C2278 1.390 . S
C2279 C2280 1.394 . S
C2279 C2285 1.465 . S
C2280 C2275 1.399 . S
C2280 C2279 1.394 . S
C2280 C2281 1.516 . S
C2281 C2280 1.516 . S
C2281 C2282 1.502 . S
C2281 C2283 1.561 . S
C2281 C2284 1.526 . S
C2282 H2266 0.959 . S
C2282 H2267 0.959 . S
C2282 H2268 0.961 . S
C2282 C2281 1.502 . S
C2283 H2269 0.960 . S
C2283 H2270 0.961 . S
C2283 H2271 0.959 . S
C2283 C2281 1.561 . S
C2284 C2281 1.526 . S
C2284 C2285 1.396 . S
C2284 C2289 1.390 . S
C2285 C2279 1.465 . S
C2285 C2284 1.396 . S
C2285 C2286 1.399 . S
C2286 H2272 0.929 . S
C2286 C2285 1.399 . S
C2286 C2287 1.385 . S
C2287 H2273 0.931 . S
C2287 C2286 1.385 . S
C2287 C2288 1.389 . S
C2288 C2287 1.389 . S
C2288 C2289 1.387 . S
C2289 H2274 0.930 . S
C2289 C2284 1.390 . S
C2289 C2288 1.387 . S
H2290 C2302 0.930 . S
H2291 C2304 0.930 . S
H2292 C2305 0.930 . S
H2293 C2309 0.959 . S
H2294 C2309 0.959 . S
H2295 C2309 0.961 . S
H2296 C2310 0.960 . S
H2297 C2310 0.961 . S
H2298 C2310 0.959 . S
H2299 C2313 0.929 . S
H2300 C2314 0.931 . S
H2301 C2316 0.930 . S
C2302 H2290 0.930 . S
C2302 C2303 1.399 . S
C2302 C2307 1.399 . S
C2303 C2302 1.399 . S
C2303 C2304 1.376 . S
C2304 H2291 0.930 . S
C2304 C2303 1.376 . S
C2304 C2305 1.388 . S
C2305 H2292 0.930 . S
C2305 C2304 1.388 . S
C2305 C2306 1.390 . S
C2306 C2305 1.390 . S
C2306 C2307 1.394 . S
C2306 C2312 1.465 . S
C2307 C2302 1.399 . S
C2307 C2306 1.394 . S
C2307 C2308 1.516 . S
C2308 C2307 1.516 . S
C2308 C2309 1.502 . S
C2308 C2310 1.561 . S
C2308 C2311 1.526 . S
C2309 H2293 0.959 . S
C2309 H2294 0.959 . S
C2309 H2295 0.961 . S
C2309 C2308 1.502 . S
C2310 H2296 0.960 . S
C2310 H2297 0.961 . S
C2310 H2298 0.959 . S
C2310 C2308 1.561 . S
C2311 C2308 1.526 . S
C2311 C2312 1.396 . S
C2311 C2316 1.390 . S
C2312 C2306 1.465 . S
C2312 C2311 1.396 . S
C2312 C2313 1.399 . S
C2313 H2299 0.929 . S
C2313 C2312 1.399 . S
C2313 C2314 1.385 . S
C2314 H2300 0.931 . S
C2314 C2313 1.385 . S
C2314 C2315 1.389 . S
C2315 C2314 1.389 . S
C2315 C2316 1.387 . S
C2316 H2301 0.930 . S
C2316 C2311 1.390 . S
C2316 C2315 1.387 . S
H2317 C2329 0.930 . S
H2318 C2331 0.930 . S
H2319 C2332 0.930 . S
H2320 C2336 0.959 . S
H2321 C2336 0.959 . S
H2322 C2336 0.961 . S
H2323 C2337 0.960 . S
H2324 C2337 0.961 . S
H2325 C2337 0.959 . S
H2326 C2340 0.929 . S
H2327 C2341 0.931 . S
H2328 C2343 0.930 . S
C2329 H2317 0.930 . S
C2329 C2330 1.399 . S
C2329 C2334 1.399 . S
C2330 C2329 1.399 . S
C2330 C2331 1.376 . S
C2331 H2318 0.930 . S
C2331 C2330 1.376 . S
C2331 C2332 1.388 . S
C2332 H2319 0.930 . S
C2332 C2331 1.388 . S
C2332 C2333 1.390 . S
C2333 C2332 1.390 . S
C2333 C2334 1.394 . S
C2333 C2339 1.465 . S
C2334 C2329 1.399 . S
C2334 C2333 1.394 . S
C2334 C2335 1.516 . S
C2335 C2334 1.516 . S
C2335 C2336 1.502 . S
C2335 C2337 1.561 . S
C2335 C2338 1.526 . S
C2336 H2320 0.959 . S
C2336 H2321 0.959 . S
C2336 H2322 0.961 . S
C2336 C2335 1.502 . S
C2337 H2323 0.960 . S
C2337 H2324 0.961 . S
C2337 H2325 0.959 . S
C2337 C2335 1.561 . S
C2338 C2335 1.526 . S
C2338 C2339 1.396 . S
C2338 C2343 1.390 . S
C2339 C2333 1.465 . S
C2339 C2338 1.396 . S
C2339 C2340 1.399 . S
C2340 H2326 0.929 . S
C2340 C2339 1.399 . S
C2340 C2341 1.385 . S
C2341 H2327 0.931 . S
C2341 C2340 1.385 . S
C2341 C2342 1.389 . S
C2342 C2341 1.389 . S
C2342 C2343 1.387 . S
C2343 H2328 0.930 . S
C2343 C2338 1.390 . S
C2343 C2342 1.387 . S
H2344 C2356 0.930 . S
H2345 C2358 0.930 . S
H2346 C2359 0.930 . S
H2347 C2363 0.959 . S
H2348 C2363 0.959 . S
H2349 C2363 0.961 . S
H2350 C2364 0.960 . S
H2351 C2364 0.961 . S
H2352 C2364 0.959 . S
H2353 C2367 0.929 . S
H2354 C2368 0.931 . S
H2355 C2370 0.930 . S
C2356 H2344 0.930 . S
C2356 C2357 1.399 . S
C2356 C2361 1.399 . S
C2357 C2356 1.399 . S
C2357 C2358 1.376 . S
C2358 H2345 0.930 . S
C2358 C2357 1.376 . S
C2358 C2359 1.388 . S
C2359 H2346 0.930 . S
C2359 C2358 1.388 . S
C2359 C2360 1.390 . S
C2360 C2359 1.390 . S
C2360 C2361 1.394 . S
C2360 C2366 1.465 . S
C2361 C2356 1.399 . S
C2361 C2360 1.394 . S
C2361 C2362 1.516 . S
C2362 C2361 1.516 . S
C2362 C2363 1.502 . S
C2362 C2364 1.561 . S
C2362 C2365 1.526 . S
C2363 H2347 0.959 . S
C2363 H2348 0.959 . S
C2363 H2349 0.961 . S
C2363 C2362 1.502 . S
C2364 H2350 0.960 . S
C2364 H2351 0.961 . S
C2364 H2352 0.959 . S
C2364 C2362 1.561 . S
C2365 C2362 1.526 . S
C2365 C2366 1.396 . S
C2365 C2370 1.390 . S
C2366 C2360 1.465 . S
C2366 C2365 1.396 . S
C2366 C2367 1.399 . S
C2367 H2353 0.929 . S
C2367 C2366 1.399 . S
C2367 C2368 1.385 . S
C2368 H2354 0.931 . S
C2368 C2367 1.385 . S
C2368 C2369 1.389 . S
C2369 C2368 1.389 . S
C2369 C2370 1.387 . S
C2370 H2355 0.930 . S
C2370 C2365 1.390 . S
C2370 C2369 1.387 . S
H2371 C2383 0.930 . S
H2372 C2385 0.930 . S
H2373 C2386 0.930 . S
H2374 C2390 0.959 . S
H2375 C2390 0.959 . S
H2376 C2390 0.961 . S
H2377 C2391 0.960 . S
H2378 C2391 0.961 . S
H2379 C2391 0.959 . S
H2380 C2394 0.929 . S
H2381 C2395 0.931 . S
H2382 C2397 0.930 . S
C2383 H2371 0.930 . S
C2383 C2384 1.399 . S
C2383 C2388 1.399 . S
C2384 C2383 1.399 . S
C2384 C2385 1.376 . S
C2385 H2372 0.930 . S
C2385 C2384 1.376 . S
C2385 C2386 1.388 . S
C2386 H2373 0.930 . S
C2386 C2385 1.388 . S
C2386 C2387 1.390 . S
C2387 C2386 1.390 . S
C2387 C2388 1.394 . S
C2387 C2393 1.465 . S
C2388 C2383 1.399 . S
C2388 C2387 1.394 . S
C2388 C2389 1.516 . S
C2389 C2388 1.516 . S
C2389 C2390 1.502 . S
C2389 C2391 1.561 . S
C2389 C2392 1.526 . S
C2390 H2374 0.959 . S
C2390 H2375 0.959 . S
C2390 H2376 0.961 . S
C2390 C2389 1.502 . S
C2391 H2377 0.960 . S
C2391 H2378 0.961 . S
C2391 H2379 0.959 . S
C2391 C2389 1.561 . S
C2392 C2389 1.526 . S
C2392 C2393 1.396 . S
C2392 C2397 1.390 . S
C2393 C2387 1.465 . S
C2393 C2392 1.396 . S
C2393 C2394 1.399 . S
C2394 H2380 0.929 . S
C2394 C2393 1.399 . S
C2394 C2395 1.385 . S
C2395 H2381 0.931 . S
C2395 C2394 1.385 . S
C2395 C2396 1.389 . S
C2396 C2395 1.389 . S
C2396 C2397 1.387 . S
C2397 H2382 0.930 . S
C2397 C2392 1.390 . S
C2397 C2396 1.387 . S
H2398 C2410 0.930 . S
H2399 C2412 0.930 . S
H2400 C2413 0.930 . S
H2401 C2417 0.959 . S
H2402 C2417 0.959 . S
H2403 C2417 0.961 . S
H2404 C2418 0.960 . S
H2405 C2418 0.961 . S
H2406 C2418 0.959 . S
H2407 C2421 0.929 . S
H2408 C2422 0.931 . S
H2409 C2424 0.930 . S
C2410 H2398 0.930 . S
C2410 C2411 1.399 . S
C2410 C2415 1.399 . S
C2411 C2410 1.399 . S
C2411 C2412 1.376 . S
C2412 H2399 0.930 . S
C2412 C2411 1.376 . S
C2412 C2413 1.388 . S
C2413 H2400 0.930 . S
C2413 C2412 1.388 . S
C2413 C2414 1.390 . S
C2414 C2413 1.390 . S
C2414 C2415 1.394 . S
C2414 C2420 1.465 . S
C2415 C2410 1.399 . S
C2415 C2414 1.394 . S
C2415 C2416 1.516 . S
C2416 C2415 1.516 . S
C2416 C2417 1.502 . S
C2416 C2418 1.561 . S
C2416 C2419 1.526 . S
C2417 H2401 0.959 . S
C2417 H2402 0.959 . S
C2417 H2403 0.961 . S
C2417 C2416 1.502 . S
C2418 H2404 0.960 . S
C2418 H2405 0.961 . S
C2418 H2406 0.959 . S
C2418 C2416 1.561 . S
C2419 C2416 1.526 . S
C2419 C2420 1.396 . S
C2419 C2424 1.390 . S
C2420 C2414 1.465 . S
C2420 C2419 1.396 . S
C2420 C2421 1.399 . S
C2421 H2407 0.929 . S
C2421 C2420 1.399 . S
C2421 C2422 1.385 . S
C2422 H2408 0.931 . S
C2422 C2421 1.385 . S
C2422 C2423 1.389 . S
C2423 C2422 1.389 . S
C2423 C2424 1.387 . S
C2424 H2409 0.930 . S
C2424 C2419 1.390 . S
C2424 C2423 1.387 . S
H2425 C2437 0.930 . S
H2426 C2439 0.930 . S
H2427 C2440 0.930 . S
H2428 C2444 0.959 . S
H2429 C2444 0.959 . S
H2430 C2444 0.961 . S
H2431 C2445 0.960 . S
H2432 C2445 0.961 . S
H2433 C2445 0.959 . S
H2434 C2448 0.929 . S
H2435 C2449 0.931 . S
H2436 C2451 0.930 . S
C2437 H2425 0.930 . S
C2437 C2438 1.399 . S
C2437 C2442 1.399 . S
C2438 C2437 1.399 . S
C2438 C2439 1.376 . S
C2439 H2426 0.930 . S
C2439 C2438 1.376 . S
C2439 C2440 1.388 . S
C2440 H2427 0.930 . S
C2440 C2439 1.388 . S
C2440 C2441 1.390 . S
C2441 C2440 1.390 . S
C2441 C2442 1.394 . S
C2441 C2447 1.465 . S
C2442 C2437 1.399 . S
C2442 C2441 1.394 . S
C2442 C2443 1.516 . S
C2443 C2442 1.516 . S
C2443 C2444 1.502 . S
C2443 C2445 1.561 . S
C2443 C2446 1.526 . S
C2444 H2428 0.959 . S
C2444 H2429 0.959 . S
C2444 H2430 0.961 . S
C2444 C2443 1.502 . S
C2445 H2431 0.960 . S
C2445 H2432 0.961 . S
C2445 H2433 0.959 . S
C2445 C2443 1.561 . S
C2446 C2443 1.526 . S
C2446 C2447 1.396 . S
C2446 C2451 1.390 . S
C2447 C2441 1.465 . S
C2447 C2446 1.396 . S
C2447 C2448 1.399 . S
C2448 H2434 0.929 . S
C2448 C2447 1.399 . S
C2448 C2449 1.385 . S
C2449 H2435 0.931 . S
C2449 C2448 1.385 . S
C2449 C2450 1.389 . S
C2450 C2449 1.389 . S
C2450 C2451 1.387 . S
C2451 H2436 0.930 . S
C2451 C2446 1.390 . S
C2451 C2450 1.387 . S
H2452 C2464 0.930 . S
H2453 C2466 0.930 . S
H2454 C2467 0.930 . S
H2455 C2471 0.959 . S
H2456 C2471 0.959 . S
H2457 C2471 0.961 . S
H2458 C2472 0.960 . S
H2459 C2472 0.961 . S
H2460 C2472 0.959 . S
H2461 C2475 0.929 . S
H2462 C2476 0.931 . S
H2463 C2478 0.930 . S
C2464 H2452 0.930 . S
C2464 C2465 1.399 . S
C2464 C2469 1.399 . S
C2465 C2464 1.399 . S
C2465 C2466 1.376 . S
C2466 H2453 0.930 . S
C2466 C2465 1.376 . S
C2466 C2467 1.388 . S
C2467 H2454 0.930 . S
C2467 C2466 1.388 . S
C2467 C2468 1.390 . S
C2468 C2467 1.390 . S
C2468 C2469 1.394 . S
C2468 C2474 1.465 . S
C2469 C2464 1.399 . S
C2469 C2468 1.394 . S
C2469 C2470 1.516 . S
C2470 C2469 1.516 . S
C2470 C2471 1.502 . S
C2470 C2472 1.561 . S
C2470 C2473 1.526 . S
C2471 H2455 0.959 . S
C2471 H2456 0.959 . S
C2471 H2457 0.961 . S
C2471 C2470 1.502 . S
C2472 H2458 0.960 . S
C2472 H2459 0.961 . S
C2472 H2460 0.959 . S
C2472 C2470 1.561 . S
C2473 C2470 1.526 . S
C2473 C2474 1.396 . S
C2473 C2478 1.390 . S
C2474 C2468 1.465 . S
C2474 C2473 1.396 . S
C2474 C2475 1.399 . S
C2475 H2461 0.929 . S
C2475 C2474 1.399 . S
C2475 C2476 1.385 . S
C2476 H2462 0.931 . S
C2476 C2475 1.385 . S
C2476 C2477 1.389 . S
C2477 C2476 1.389 . S
C2477 C2478 1.387 . S
C2478 H2463 0.930 . S
C2478 C2473 1.390 . S
C2478 C2477 1.387 . S
H2479 C2491 0.930 . S
H2480 C2493 0.930 . S
H2481 C2494 0.930 . S
H2482 C2498 0.959 . S
H2483 C2498 0.959 . S
H2484 C2498 0.961 . S
H2485 C2499 0.960 . S
H2486 C2499 0.961 . S
H2487 C2499 0.959 . S
H2488 C2502 0.929 . S
H2489 C2503 0.931 . S
H2490 C2505 0.930 . S
C2491 H2479 0.930 . S
C2491 C2492 1.399 . S
C2491 C2496 1.399 . S
C2492 C2491 1.399 . S
C2492 C2493 1.376 . S
C2493 H2480 0.930 . S
C2493 C2492 1.376 . S
C2493 C2494 1.388 . S
C2494 H2481 0.930 . S
C2494 C2493 1.388 . S
C2494 C2495 1.390 . S
C2495 C2494 1.390 . S
C2495 C2496 1.394 . S
C2495 C2501 1.465 . S
C2496 C2491 1.399 . S
C2496 C2495 1.394 . S
C2496 C2497 1.516 . S
C2497 C2496 1.516 . S
C2497 C2498 1.502 . S
C2497 C2499 1.561 . S
C2497 C2500 1.526 . S
C2498 H2482 0.959 . S
C2498 H2483 0.959 . S
C2498 H2484 0.961 . S
C2498 C2497 1.502 . S
C2499 H2485 0.960 . S
C2499 H2486 0.961 . S
C2499 H2487 0.959 . S
C2499 C2497 1.561 . S
C2500 C2497 1.526 . S
C2500 C2501 1.396 . S
C2500 C2505 1.390 . S
C2501 C2495 1.465 . S
C2501 C2500 1.396 . S
C2501 C2502 1.399 . S
C2502 H2488 0.929 . S
C2502 C2501 1.399 . S
C2502 C2503 1.385 . S
C2503 H2489 0.931 . S
C2503 C2502 1.385 . S
C2503 C2504 1.389 . S
C2504 C2503 1.389 . S
C2504 C2505 1.387 . S
C2505 H2490 0.930 . S
C2505 C2500 1.390 . S
C2505 C2504 1.387 . S
H2506 C2518 0.930 . S
H2507 C2520 0.930 . S
H2508 C2521 0.930 . S
H2509 C2525 0.959 . S
H2510 C2525 0.959 . S
H2511 C2525 0.961 . S
H2512 C2526 0.960 . S
H2513 C2526 0.961 . S
H2514 C2526 0.959 . S
H2515 C2529 0.929 . S
H2516 C2530 0.931 . S
H2517 C2532 0.930 . S
C2518 H2506 0.930 . S
C2518 C2519 1.399 . S
C2518 C2523 1.399 . S
C2519 C2518 1.399 . S
C2519 C2520 1.376 . S
C2520 H2507 0.930 . S
C2520 C2519 1.376 . S
C2520 C2521 1.388 . S
C2521 H2508 0.930 . S
C2521 C2520 1.388 . S
C2521 C2522 1.390 . S
C2522 C2521 1.390 . S
C2522 C2523 1.394 . S
C2522 C2528 1.465 . S
C2523 C2518 1.399 . S
C2523 C2522 1.394 . S
C2523 C2524 1.516 . S
C2524 C2523 1.516 . S
C2524 C2525 1.502 . S
C2524 C2526 1.561 . S
C2524 C2527 1.526 . S
C2525 H2509 0.959 . S
C2525 H2510 0.959 . S
C2525 H2511 0.961 . S
C2525 C2524 1.502 . S
C2526 H2512 0.960 . S
C2526 H2513 0.961 . S
C2526 H2514 0.959 . S
C2526 C2524 1.561 . S
C2527 C2524 1.526 . S
C2527 C2528 1.396 . S
C2527 C2532 1.390 . S
C2528 C2522 1.465 . S
C2528 C2527 1.396 . S
C2528 C2529 1.399 . S
C2529 H2515 0.929 . S
C2529 C2528 1.399 . S
C2529 C2530 1.385 . S
C2530 H2516 0.931 . S
C2530 C2529 1.385 . S
C2530 C2531 1.389 . S
C2531 C2530 1.389 . S
C2531 C2532 1.387 . S
C2532 H2517 0.930 . S
C2532 C2527 1.390 . S
C2532 C2531 1.387 . S
H2533 C2545 0.930 . S
H2534 C2547 0.930 . S
H2535 C2548 0.930 . S
H2536 C2552 0.959 . S
H2537 C2552 0.959 . S
H2538 C2552 0.961 . S
H2539 C2553 0.960 . S
H2540 C2553 0.961 . S
H2541 C2553 0.959 . S
H2542 C2556 0.929 . S
H2543 C2557 0.931 . S
H2544 C2559 0.930 . S
C2545 H2533 0.930 . S
C2545 C2546 1.399 . S
C2545 C2550 1.399 . S
C2546 C2545 1.399 . S
C2546 C2547 1.376 . S
C2547 H2534 0.930 . S
C2547 C2546 1.376 . S
C2547 C2548 1.388 . S
C2548 H2535 0.930 . S
C2548 C2547 1.388 . S
C2548 C2549 1.390 . S
C2549 C2548 1.390 . S
C2549 C2550 1.394 . S
C2549 C2555 1.465 . S
C2550 C2545 1.399 . S
C2550 C2549 1.394 . S
C2550 C2551 1.516 . S
C2551 C2550 1.516 . S
C2551 C2552 1.502 . S
C2551 C2553 1.561 . S
C2551 C2554 1.526 . S
C2552 H2536 0.959 . S
C2552 H2537 0.959 . S
C2552 H2538 0.961 . S
C2552 C2551 1.502 . S
C2553 H2539 0.960 . S
C2553 H2540 0.961 . S
C2553 H2541 0.959 . S
C2553 C2551 1.561 . S
C2554 C2551 1.526 . S
C2554 C2555 1.396 . S
C2554 C2559 1.390 . S
C2555 C2549 1.465 . S
C2555 C2554 1.396 . S
C2555 C2556 1.399 . S
C2556 H2542 0.929 . S
C2556 C2555 1.399 . S
C2556 C2557 1.385 . S
C2557 H2543 0.931 . S
C2557 C2556 1.385 . S
C2557 C2558 1.389 . S
C2558 C2557 1.389 . S
C2558 C2559 1.387 . S
C2559 H2544 0.930 . S
C2559 C2554 1.390 . S
C2559 C2558 1.387 . S
H2560 C2572 0.930 . S
H2561 C2574 0.930 . S
H2562 C2575 0.930 . S
H2563 C2579 0.959 . S
H2564 C2579 0.959 . S
H2565 C2579 0.961 1_554 S
H2566 C2580 0.960 1_554 S
H2567 C2580 0.961 . S
H2568 C2580 0.959 . S
H2569 C2583 0.929 . S
H2570 C2584 0.931 . S
H2571 C2586 0.930 . S
C2572 H2560 0.930 . S
C2572 C2573 1.399 . S
C2572 C2577 1.399 . S
C2573 C2572 1.399 . S
C2573 C2574 1.376 1_565 S
C2574 H2561 0.930 . S
C2574 C2573 1.376 1_545 S
C2574 C2575 1.388 . S
C2575 H2562 0.930 . S
C2575 C2574 1.388 . S
C2575 C2576 1.390 . S
C2576 C2575 1.390 . S
C2576 C2577 1.394 1_545 S
C2576 C2582 1.465 1_554 S
C2577 C2572 1.399 . S
C2577 C2576 1.394 1_565 S
C2577 C2578 1.516 1_554 S
C2578 C2577 1.516 1_556 S
C2578 C2579 1.502 . S
C2578 C2580 1.561 . S
C2578 C2581 1.526 . S
C2579 H2563 0.959 . S
C2579 H2564 0.959 . S
C2579 H2565 0.961 1_556 S
C2579 C2578 1.502 . S
C2580 H2566 0.960 1_556 S
C2580 H2567 0.961 . S
C2580 H2568 0.959 . S
C2580 C2578 1.561 . S
C2581 C2578 1.526 . S
C2581 C2582 1.396 1_565 S
C2581 C2586 1.390 . S
C2582 C2576 1.465 1_556 S
C2582 C2581 1.396 1_545 S
C2582 C2583 1.399 . S
C2583 H2569 0.929 . S
C2583 C2582 1.399 . S
C2583 C2584 1.385 . S
C2584 H2570 0.931 . S
C2584 C2583 1.385 . S
C2584 C2585 1.389 . S
C2585 C2584 1.389 . S
C2585 C2586 1.387 1_545 S
C2586 H2571 0.930 . S
C2586 C2581 1.390 . S
C2586 C2585 1.387 1_565 S
H2587 C2599 0.930 . S
H2588 C2601 0.930 . S
H2589 C2602 0.930 . S
H2590 C2606 0.959 . S
H2591 C2606 0.959 . S
H2592 C2606 0.961 1_554 S
H2593 C2607 0.960 1_554 S
H2594 C2607 0.961 . S
H2595 C2607 0.959 . S
H2596 C2610 0.929 . S
H2597 C2611 0.931 . S
H2598 C2613 0.930 . S
C2599 H2587 0.930 . S
C2599 C2600 1.399 . S
C2599 C2604 1.399 . S
C2600 C2599 1.399 . S
C2600 C2601 1.376 . S
C2601 H2588 0.930 . S
C2601 C2600 1.376 . S
C2601 C2602 1.388 . S
C2602 H2589 0.930 . S
C2602 C2601 1.388 . S
C2602 C2603 1.390 . S
C2603 C2602 1.390 . S
C2603 C2604 1.394 . S
C2603 C2609 1.465 1_554 S
C2604 C2599 1.399 . S
C2604 C2603 1.394 . S
C2604 C2605 1.516 1_554 S
C2605 C2604 1.516 1_556 S
C2605 C2606 1.502 . S
C2605 C2607 1.561 . S
C2605 C2608 1.526 . S
C2606 H2590 0.959 . S
C2606 H2591 0.959 . S
C2606 H2592 0.961 1_556 S
C2606 C2605 1.502 . S
C2607 H2593 0.960 1_556 S
C2607 H2594 0.961 . S
C2607 H2595 0.959 . S
C2607 C2605 1.561 . S
C2608 C2605 1.526 . S
C2608 C2609 1.396 . S
C2608 C2613 1.390 . S
C2609 C2603 1.465 1_556 S
C2609 C2608 1.396 . S
C2609 C2610 1.399 . S
C2610 H2596 0.929 . S
C2610 C2609 1.399 . S
C2610 C2611 1.385 . S
C2611 H2597 0.931 . S
C2611 C2610 1.385 . S
C2611 C2612 1.389 . S
C2612 C2611 1.389 . S
C2612 C2613 1.387 . S
C2613 H2598 0.930 . S
C2613 C2608 1.390 . S
C2613 C2612 1.387 . S
H2614 C2626 0.930 . S
H2615 C2628 0.930 . S
H2616 C2629 0.930 . S
H2617 C2633 0.959 . S
H2618 C2633 0.959 . S
H2619 C2633 0.961 . S
H2620 C2634 0.960 . S
H2621 C2634 0.961 . S
H2622 C2634 0.959 . S
H2623 C2637 0.929 . S
H2624 C2638 0.931 . S
H2625 C2640 0.930 . S
C2626 H2614 0.930 . S
C2626 C2627 1.399 . S
C2626 C2631 1.399 . S
C2627 C2626 1.399 . S
C2627 C2628 1.376 . S
C2628 H2615 0.930 . S
C2628 C2627 1.376 . S
C2628 C2629 1.388 . S
C2629 H2616 0.930 . S
C2629 C2628 1.388 . S
C2629 C2630 1.390 . S
C2630 C2629 1.390 . S
C2630 C2631 1.394 . S
C2630 C2636 1.465 . S
C2631 C2626 1.399 . S
C2631 C2630 1.394 . S
C2631 C2632 1.516 . S
C2632 C2631 1.516 . S
C2632 C2633 1.502 . S
C2632 C2634 1.561 . S
C2632 C2635 1.526 . S
C2633 H2617 0.959 . S
C2633 H2618 0.959 . S
C2633 H2619 0.961 . S
C2633 C2632 1.502 . S
C2634 H2620 0.960 . S
C2634 H2621 0.961 . S
C2634 H2622 0.959 . S
C2634 C2632 1.561 . S
C2635 C2632 1.526 . S
C2635 C2636 1.396 . S
C2635 C2640 1.390 . S
C2636 C2630 1.465 . S
C2636 C2635 1.396 . S
C2636 C2637 1.399 . S
C2637 H2623 0.929 . S
C2637 C2636 1.399 . S
C2637 C2638 1.385 . S
C2638 H2624 0.931 . S
C2638 C2637 1.385 . S
C2638 C2639 1.389 . S
C2639 C2638 1.389 . S
C2639 C2640 1.387 . S
C2640 H2625 0.930 . S
C2640 C2635 1.390 . S
C2640 C2639 1.387 . S
H2641 C2653 0.930 . S
H2642 C2655 0.930 . S
H2643 C2656 0.930 . S
H2644 C2660 0.959 . S
H2645 C2660 0.959 . S
H2646 C2660 0.961 . S
H2647 C2661 0.960 . S
H2648 C2661 0.961 . S
H2649 C2661 0.959 1_565 S
H2650 C2664 0.929 . S
H2651 C2665 0.931 . S
H2652 C2667 0.930 . S
C2653 H2641 0.930 . S
C2653 C2654 1.399 1_545 S
C2653 C2658 1.399 . S
C2654 C2653 1.399 1_565 S
C2654 C2655 1.376 . S
C2655 H2642 0.930 . S
C2655 C2654 1.376 . S
C2655 C2656 1.388 . S
C2656 H2643 0.930 . S
C2656 C2655 1.388 . S
C2656 C2657 1.390 . S
C2657 C2656 1.390 . S
C2657 C2658 1.394 1_565 S
C2657 C2663 1.465 . S
C2658 C2653 1.399 . S
C2658 C2657 1.394 1_545 S
C2658 C2659 1.516 . S
C2659 C2658 1.516 . S
C2659 C2660 1.502 . S
C2659 C2661 1.561 . S
C2659 C2662 1.526 . S
C2660 H2644 0.959 . S
C2660 H2645 0.959 . S
C2660 H2646 0.961 . S
C2660 C2659 1.502 . S
C2661 H2647 0.960 . S
C2661 H2648 0.961 . S
C2661 H2649 0.959 1_545 S
C2661 C2659 1.561 . S
C2662 C2659 1.526 . S
C2662 C2663 1.396 1_545 S
C2662 C2667 1.390 . S
C2663 C2657 1.465 . S
C2663 C2662 1.396 1_565 S
C2663 C2664 1.399 . S
C2664 H2650 0.929 . S
C2664 C2663 1.399 . S
C2664 C2665 1.385 . S
C2665 H2651 0.931 . S
C2665 C2664 1.385 . S
C2665 C2666 1.389 1_565 S
C2666 C2665 1.389 1_545 S
C2666 C2667 1.387 . S
C2667 H2652 0.930 . S
C2667 C2662 1.390 . S
C2667 C2666 1.387 . S
H2668 C2680 0.930 . S
H2669 C2682 0.930 . S
H2670 C2683 0.930 . S
H2671 C2687 0.969 . S
H2672 C2687 0.959 1_554 S
H2673 C2687 0.961 . S
H2674 C2688 0.960 . S
H2675 C2688 0.961 1_554 S
H2676 C2688 0.959 . S
H2677 C2691 0.929 . S
H2678 C2692 0.931 . S
H2679 C2694 0.930 . S
C2680 H2668 0.930 . S
C2680 C2681 1.399 . S
C2680 C2685 1.399 . S
C2681 C2680 1.399 . S
C2681 C2682 1.376 . S
C2682 H2669 0.930 . S
C2682 C2681 1.376 . S
C2682 C2683 1.388 . S
C2683 H2670 0.930 . S
C2683 C2682 1.388 . S
C2683 C2684 1.390 . S
C2684 C2683 1.390 . S
C2684 C2685 1.394 . S
C2684 C2690 1.465 1_556 S
C2685 C2680 1.399 . S
C2685 C2684 1.394 . S
C2685 C2686 1.516 . S
C2686 C2685 1.516 . S
C2686 C2687 1.502 . S
C2686 C2688 1.561 . S
C2686 C2689 1.526 1_556 S
C2687 H2671 0.969 . S
C2687 H2672 0.959 1_556 S
C2687 H2673 0.961 . S
C2687 C2686 1.502 . S
C2688 H2674 0.960 . S
C2688 H2675 0.961 1_556 S
C2688 H2676 0.959 . S
C2688 C2686 1.561 . S
C2689 C2686 1.526 1_554 S
C2689 C2690 1.396 . S
C2689 C2694 1.390 . S
C2690 C2684 1.465 1_554 S
C2690 C2689 1.396 . S
C2690 C2691 1.399 . S
C2691 H2677 0.929 . S
C2691 C2690 1.399 . S
C2691 C2692 1.385 . S
C2692 H2678 0.931 . S
C2692 C2691 1.385 . S
C2692 C2693 1.389 . S
C2693 C2692 1.389 . S
C2693 C2694 1.387 . S
C2694 H2679 0.930 . S
C2694 C2689 1.390 . S
C2694 C2693 1.387 . S
H2695 C2707 0.930 . S
H2696 C2709 0.930 . S
H2697 C2710 0.930 . S
H2698 C2714 0.959 . S
H2699 C2714 0.959 . S
H2700 C2714 0.961 . S
H2701 C2715 0.960 . S
H2702 C2715 0.961 . S
H2703 C2715 0.959 . S
H2704 C2718 0.929 . S
H2705 C2719 0.931 . S
H2706 C2721 0.930 . S
C2707 H2695 0.930 . S
C2707 C2708 1.399 . S
C2707 C2712 1.399 . S
C2708 C2707 1.399 . S
C2708 C2709 1.376 . S
C2709 H2696 0.930 . S
C2709 C2708 1.376 . S
C2709 C2710 1.388 . S
C2710 H2697 0.930 . S
C2710 C2709 1.388 . S
C2710 C2711 1.390 . S
C2711 C2710 1.390 . S
C2711 C2712 1.394 . S
C2711 C2717 1.465 . S
C2712 C2707 1.399 . S
C2712 C2711 1.394 . S
C2712 C2713 1.516 . S
C2713 C2712 1.516 . S
C2713 C2714 1.502 . S
C2713 C2715 1.561 . S
C2713 C2716 1.526 . S
C2714 H2698 0.959 . S
C2714 H2699 0.959 . S
C2714 H2700 0.961 . S
C2714 C2713 1.502 . S
C2715 H2701 0.960 . S
C2715 H2702 0.961 . S
C2715 H2703 0.959 . S
C2715 C2713 1.561 . S
C2716 C2713 1.526 . S
C2716 C2717 1.396 . S
C2716 C2721 1.390 . S
C2717 C2711 1.465 . S
C2717 C2716 1.396 . S
C2717 C2718 1.399 . S
C2718 H2704 0.929 . S
C2718 C2717 1.399 . S
C2718 C2719 1.385 . S
C2719 H2705 0.931 . S
C2719 C2718 1.385 . S
C2719 C2720 1.389 . S
C2720 C2719 1.389 . S
C2720 C2721 1.387 . S
C2721 H2706 0.930 . S
C2721 C2716 1.390 . S
C2721 C2720 1.387 . S
H2722 C2734 0.930 . S
H2723 C2736 0.930 . S
H2724 C2737 0.930 . S
H2725 C2741 0.959 . S
H2726 C2741 0.959 . S
H2727 C2741 0.961 . S
H2728 C2742 0.960 . S
H2729 C2742 0.961 . S
H2730 C2742 0.959 . S
H2731 C2745 0.929 . S
H2732 C2746 0.931 . S
H2733 C2748 0.930 . S
C2734 H2722 0.930 . S
C2734 C2735 1.399 1_545 S
C2734 C2739 1.399 . S
C2735 C2734 1.399 1_565 S
C2735 C2736 1.376 . S
C2736 H2723 0.930 . S
C2736 C2735 1.376 . S
C2736 C2737 1.388 . S
C2737 H2724 0.930 . S
C2737 C2736 1.388 . S
C2737 C2738 1.390 . S
C2738 C2737 1.390 . S
C2738 C2739 1.394 1_565 S
C2738 C2744 1.465 . S
C2739 C2734 1.399 . S
C2739 C2738 1.394 1_545 S
C2739 C2740 1.516 . S
C2740 C2739 1.516 . S
C2740 C2741 1.502 . S
C2740 C2742 1.561 . S
C2740 C2743 1.526 . S
C2741 H2725 0.959 . S
C2741 H2726 0.959 . S
C2741 H2727 0.961 . S
C2741 C2740 1.502 . S
C2742 H2728 0.960 . S
C2742 H2729 0.961 . S
C2742 H2730 0.959 . S
C2742 C2740 1.561 . S
C2743 C2740 1.526 . S
C2743 C2744 1.396 1_545 S
C2743 C2748 1.390 . S
C2744 C2738 1.465 . S
C2744 C2743 1.396 1_565 S
C2744 C2745 1.399 . S
C2745 H2731 0.929 . S
C2745 C2744 1.399 . S
C2745 C2746 1.385 . S
C2746 H2732 0.931 . S
C2746 C2745 1.385 . S
C2746 C2747 1.389 1_565 S
C2747 C2746 1.389 1_545 S
C2747 C2748 1.387 . S
C2748 H2733 0.930 . S
C2748 C2743 1.390 . S
C2748 C2747 1.387 . S
H2749 C2761 0.930 . S
H2750 C2763 0.930 . S
H2751 C2764 0.930 . S
H2752 C2768 0.959 . S
H2753 C2768 0.959 . S
H2754 C2768 0.961 . S
H2755 C2769 0.960 . S
H2756 C2769 0.961 . S
H2757 C2769 0.959 . S
H2758 C2772 0.929 . S
H2759 C2773 0.931 . S
H2760 C2775 0.930 . S
C2761 H2749 0.930 . S
C2761 C2762 1.399 . S
C2761 C2766 1.399 . S
C2762 C2761 1.399 . S
C2762 C2763 1.376 . S
C2763 H2750 0.930 . S
C2763 C2762 1.376 . S
C2763 C2764 1.388 . S
C2764 H2751 0.930 . S
C2764 C2763 1.388 . S
C2764 C2765 1.390 . S
C2765 C2764 1.390 . S
C2765 C2766 1.394 . S
C2765 C2771 1.465 . S
C2766 C2761 1.399 . S
C2766 C2765 1.394 . S
C2766 C2767 1.516 . S
C2767 C2766 1.516 . S
C2767 C2768 1.502 . S
C2767 C2769 1.561 . S
C2767 C2770 1.526 . S
C2768 H2752 0.959 . S
C2768 H2753 0.959 . S
C2768 H2754 0.961 . S
C2768 C2767 1.502 . S
C2769 H2755 0.960 . S
C2769 H2756 0.961 . S
C2769 H2757 0.959 . S
C2769 C2767 1.561 . S
C2770 C2767 1.526 . S
C2770 C2771 1.396 . S
C2770 C2775 1.390 . S
C2771 C2765 1.465 . S
C2771 C2770 1.396 . S
C2771 C2772 1.399 . S
C2772 H2758 0.929 . S
C2772 C2771 1.399 . S
C2772 C2773 1.385 . S
C2773 H2759 0.931 . S
C2773 C2772 1.385 . S
C2773 C2774 1.389 . S
C2774 C2773 1.389 . S
C2774 C2775 1.387 . S
C2775 H2760 0.930 . S
C2775 C2770 1.390 . S
C2775 C2774 1.387 . S
H2776 C2788 0.930 . S
H2777 C2790 0.930 . S
H2778 C2791 0.930 . S
H2779 C2795 0.959 . S
H2780 C2795 0.959 . S
H2781 C2795 0.961 . S
H2782 C2796 0.960 . S
H2783 C2796 0.961 . S
H2784 C2796 0.959 . S
H2785 C2799 0.929 . S
H2786 C2800 0.931 . S
H2787 C2802 0.930 . S
C2788 H2776 0.930 . S
C2788 C2789 1.399 . S
C2788 C2793 1.399 . S
C2789 C2788 1.399 . S
C2789 C2790 1.376 . S
C2790 H2777 0.930 . S
C2790 C2789 1.376 . S
C2790 C2791 1.388 . S
C2791 H2778 0.930 . S
C2791 C2790 1.388 . S
C2791 C2792 1.390 . S
C2792 C2791 1.390 . S
C2792 C2793 1.394 . S
C2792 C2798 1.465 . S
C2793 C2788 1.399 . S
C2793 C2792 1.394 . S
C2793 C2794 1.516 . S
C2794 C2793 1.516 . S
C2794 C2795 1.502 . S
C2794 C2796 1.561 . S
C2794 C2797 1.526 . S
C2795 H2779 0.959 . S
C2795 H2780 0.959 . S
C2795 H2781 0.961 . S
C2795 C2794 1.502 . S
C2796 H2782 0.960 . S
C2796 H2783 0.961 . S
C2796 H2784 0.959 . S
C2796 C2794 1.561 . S
C2797 C2794 1.526 . S
C2797 C2798 1.396 . S
C2797 C2802 1.390 . S
C2798 C2792 1.465 . S
C2798 C2797 1.396 . S
C2798 C2799 1.399 . S
C2799 H2785 0.929 . S
C2799 C2798 1.399 . S
C2799 C2800 1.385 . S
C2800 H2786 0.931 . S
C2800 C2799 1.385 . S
C2800 C2801 1.389 . S
C2801 C2800 1.389 . S
C2801 C2802 1.387 . S
C2802 H2787 0.930 . S
C2802 C2797 1.390 . S
C2802 C2801 1.387 . S
H2803 C2815 0.930 . S
H2804 C2817 0.930 . S
H2805 C2818 0.930 . S
H2806 C2822 0.959 . S
H2807 C2822 0.959 . S
H2808 C2822 0.961 . S
H2809 C2823 0.960 . S
H2810 C2823 0.961 . S
H2811 C2823 0.959 . S
H2812 C2826 0.929 . S
H2813 C2827 0.931 . S
H2814 C2829 0.930 . S
C2815 H2803 0.930 . S
C2815 C2816 1.399 . S
C2815 C2820 1.399 . S
C2816 C2815 1.399 . S
C2816 C2817 1.376 . S
C2817 H2804 0.930 . S
C2817 C2816 1.376 . S
C2817 C2818 1.388 . S
C2818 H2805 0.930 . S
C2818 C2817 1.388 . S
C2818 C2819 1.390 . S
C2819 C2818 1.390 . S
C2819 C2820 1.394 . S
C2819 C2825 1.465 . S
C2820 C2815 1.399 . S
C2820 C2819 1.394 . S
C2820 C2821 1.516 . S
C2821 C2820 1.516 . S
C2821 C2822 1.502 . S
C2821 C2823 1.561 . S
C2821 C2824 1.526 . S
C2822 H2806 0.959 . S
C2822 H2807 0.959 . S
C2822 H2808 0.961 . S
C2822 C2821 1.502 . S
C2823 H2809 0.960 . S
C2823 H2810 0.961 . S
C2823 H2811 0.959 . S
C2823 C2821 1.561 . S
C2824 C2821 1.526 . S
C2824 C2825 1.396 . S
C2824 C2829 1.390 . S
C2825 C2819 1.465 . S
C2825 C2824 1.396 . S
C2825 C2826 1.399 . S
C2826 H2812 0.929 . S
C2826 C2825 1.399 . S
C2826 C2827 1.385 . S
C2827 H2813 0.931 . S
C2827 C2826 1.385 . S
C2827 C2828 1.389 . S
C2828 C2827 1.389 . S
C2828 C2829 1.387 . S
C2829 H2814 0.930 . S
C2829 C2824 1.390 . S
C2829 C2828 1.387 . S
H2830 C2842 0.930 . S
H2831 C2844 0.930 . S
H2832 C2845 0.930 . S
H2833 C2849 0.959 . S
H2834 C2849 0.959 . S
H2835 C2849 0.961 . S
H2836 C2850 0.960 . S
H2837 C2850 0.961 . S
H2838 C2850 0.959 . S
H2839 C2853 0.929 . S
H2840 C2854 0.931 . S
H2841 C2856 0.930 . S
C2842 H2830 0.930 . S
C2842 C2843 1.399 . S
C2842 C2847 1.399 . S
C2843 C2842 1.399 . S
C2843 C2844 1.376 . S
C2844 H2831 0.930 . S
C2844 C2843 1.376 . S
C2844 C2845 1.388 . S
C2845 H2832 0.930 . S
C2845 C2844 1.388 . S
C2845 C2846 1.390 . S
C2846 C2845 1.390 . S
C2846 C2847 1.394 . S
C2846 C2852 1.465 . S
C2847 C2842 1.399 . S
C2847 C2846 1.394 . S
C2847 C2848 1.516 . S
C2848 C2847 1.516 . S
C2848 C2849 1.502 . S
C2848 C2850 1.561 . S
C2848 C2851 1.526 . S
C2849 H2833 0.959 . S
C2849 H2834 0.959 . S
C2849 H2835 0.961 . S
C2849 C2848 1.502 . S
C2850 H2836 0.960 . S
C2850 H2837 0.961 . S
C2850 H2838 0.959 . S
C2850 C2848 1.561 . S
C2851 C2848 1.526 . S
C2851 C2852 1.396 . S
C2851 C2856 1.390 . S
C2852 C2846 1.465 . S
C2852 C2851 1.396 . S
C2852 C2853 1.399 . S
C2853 H2839 0.929 . S
C2853 C2852 1.399 . S
C2853 C2854 1.385 . S
C2854 H2840 0.931 . S
C2854 C2853 1.385 . S
C2854 C2855 1.389 . S
C2855 C2854 1.389 . S
C2855 C2856 1.387 . S
C2856 H2841 0.930 . S
C2856 C2851 1.390 . S
C2856 C2855 1.387 . S
H2857 C2869 0.930 . S
H2858 C2871 0.930 . S
H2859 C2872 0.930 . S
H2860 C2876 0.959 . S
H2861 C2876 0.959 . S
H2862 C2876 0.961 . S
H2863 C2877 0.960 . S
H2864 C2877 0.961 . S
H2865 C2877 0.959 . S
H2866 C2880 0.929 . S
H2867 C2881 0.931 . S
H2868 C2883 0.930 . S
C2869 H2857 0.930 . S
C2869 C2870 1.399 . S
C2869 C2874 1.399 . S
C2870 C2869 1.399 . S
C2870 C2871 1.376 . S
C2871 H2858 0.930 . S
C2871 C2870 1.376 . S
C2871 C2872 1.388 . S
C2872 H2859 0.930 . S
C2872 C2871 1.388 . S
C2872 C2873 1.390 . S
C2873 C2872 1.390 . S
C2873 C2874 1.394 . S
C2873 C2879 1.465 . S
C2874 C2869 1.399 . S
C2874 C2873 1.394 . S
C2874 C2875 1.516 . S
C2875 C2874 1.516 . S
C2875 C2876 1.502 . S
C2875 C2877 1.561 . S
C2875 C2878 1.526 . S
C2876 H2860 0.959 . S
C2876 H2861 0.959 . S
C2876 H2862 0.961 . S
C2876 C2875 1.502 . S
C2877 H2863 0.960 . S
C2877 H2864 0.961 . S
C2877 H2865 0.959 . S
C2877 C2875 1.561 . S
C2878 C2875 1.526 . S
C2878 C2879 1.396 . S
C2878 C2883 1.390 . S
C2879 C2873 1.465 . S
C2879 C2878 1.396 . S
C2879 C2880 1.399 . S
C2880 H2866 0.929 . S
C2880 C2879 1.399 . S
C2880 C2881 1.385 . S
C2881 H2867 0.931 . S
C2881 C2880 1.385 . S
C2881 C2882 1.389 . S
C2882 C2881 1.389 . S
C2882 C2883 1.387 . S
C2883 H2868 0.930 . S
C2883 C2878 1.390 . S
C2883 C2882 1.387 . S
H2884 C2896 0.930 . S
H2885 C2898 0.930 . S
H2886 C2899 0.930 . S
H2887 C2903 0.959 . S
H2888 C2903 0.959 . S
H2889 C2903 0.961 . S
H2890 C2904 0.960 . S
H2891 C2904 0.961 . S
H2892 C2904 0.959 . S
H2893 C2907 0.929 . S
H2894 C2908 0.931 . S
H2895 C2910 0.930 . S
C2896 H2884 0.930 . S
C2896 C2897 1.399 . S
C2896 C2901 1.401 . S
C2897 C2896 1.399 . S
C2897 C2898 1.376 1_445 S
C2898 H2885 0.930 . S
C2898 C2897 1.376 1_665 S
C2898 C2899 1.388 . S
C2899 H2886 0.930 . S
C2899 C2898 1.388 . S
C2899 C2900 1.390 . S
C2900 C2899 1.390 . S
C2900 C2901 1.392 1_665 S
C2900 C2906 1.465 . S
C2901 C2896 1.401 . S
C2901 C2900 1.392 1_445 S
C2901 C2902 1.516 1_455 S
C2902 C2901 1.516 1_655 S
C2902 C2903 1.503 1_655 S
C2902 C2904 1.560 . S
C2902 C2905 1.526 . S
C2903 H2887 0.959 . S
C2903 H2888 0.959 . S
C2903 H2889 0.961 . S
C2903 C2902 1.503 1_455 S
C2904 H2890 0.960 . S
C2904 H2891 0.961 . S
C2904 H2892 0.959 . S
C2904 C2902 1.560 . S
C2905 C2902 1.526 . S
C2905 C2906 1.396 1_545 S
C2905 C2910 1.390 . S
C2906 C2900 1.465 . S
C2906 C2905 1.396 1_565 S
C2906 C2907 1.399 . S
C2907 H2893 0.929 . S
C2907 C2906 1.399 . S
C2907 C2908 1.385 . S
C2908 H2894 0.931 . S
C2908 C2907 1.385 . S
C2908 C2909 1.389 . S
C2909 C2908 1.389 . S
C2909 C2910 1.387 1_565 S
C2910 H2895 0.930 . S
C2910 C2905 1.390 . S
C2910 C2909 1.387 1_545 S
H2911 C2923 0.930 . S
H2912 C2925 0.930 . S
H2913 C2926 0.930 . S
H2914 C2930 0.959 . S
H2915 C2930 0.959 . S
H2916 C2930 0.961 . S
H2917 C2931 0.960 . S
H2918 C2931 0.961 . S
H2919 C2931 0.959 . S
H2920 C2934 0.929 . S
H2921 C2935 0.931 . S
H2922 C2937 0.930 . S
C2923 H2911 0.930 . S
C2923 C2924 1.441 . S
C2923 C2928 1.399 . S
C2924 C2923 1.441 . S
C2924 C2925 1.322 1_655 S
C2925 H2912 0.930 . S
C2925 C2924 1.322 1_455 S
C2925 C2926 1.388 . S
C2926 H2913 0.930 . S
C2926 C2925 1.388 . S
C2926 C2927 1.390 . S
C2927 C2926 1.390 . S
C2927 C2928 1.394 1_455 S
C2927 C2933 1.465 . S
C2928 C2923 1.399 . S
C2928 C2927 1.394 1_655 S
C2928 C2929 1.516 . S
C2929 C2928 1.516 . S
C2929 C2930 1.502 . S
C2929 C2931 1.561 . S
C2929 C2932 1.526 . S
C2930 H2914 0.959 . S
C2930 H2915 0.959 . S
C2930 H2916 0.961 . S
C2930 C2929 1.502 . S
C2931 H2917 0.960 . S
C2931 H2918 0.961 . S
C2931 H2919 0.959 . S
C2931 C2929 1.561 . S
C2932 C2929 1.526 . S
C2932 C2933 1.396 1_655 S
C2932 C2937 1.390 . S
C2933 C2927 1.465 . S
C2933 C2932 1.396 1_455 S
C2933 C2934 1.399 . S
C2934 H2920 0.929 . S
C2934 C2933 1.399 . S
C2934 C2935 1.385 . S
C2935 H2921 0.931 . S
C2935 C2934 1.385 . S
C2935 C2936 1.389 . S
C2936 C2935 1.389 . S
C2936 C2937 1.387 1_455 S
C2937 H2922 0.930 . S
C2937 C2932 1.390 . S
C2937 C2936 1.387 1_655 S
H2938 C2950 0.930 . S
H2939 C2952 0.930 . S
H2940 C2953 0.930 . S
H2941 C2957 0.959 . S
H2942 C2957 0.959 . S
H2943 C2957 0.961 . S
H2944 C2958 0.960 . S
H2945 C2958 0.961 . S
H2946 C2958 0.959 . S
H2947 C2961 0.929 . S
H2948 C2962 0.931 . S
H2949 C2964 0.930 . S
C2950 H2938 0.930 . S
C2950 C2951 1.399 1_455 S
C2950 C2955 1.399 . S
C2951 C2950 1.399 1_655 S
C2951 C2952 1.376 . S
C2952 H2939 0.930 . S
C2952 C2951 1.376 . S
C2952 C2953 1.388 . S
C2953 H2940 0.930 . S
C2953 C2952 1.388 . S
C2953 C2954 1.390 . S
C2954 C2953 1.390 . S
C2954 C2955 1.394 1_655 S
C2954 C2960 1.465 . S
C2955 C2950 1.399 . S
C2955 C2954 1.394 1_455 S
C2955 C2956 1.516 . S
C2956 C2955 1.516 . S
C2956 C2957 1.502 . S
C2956 C2958 1.561 1_455 S
C2956 C2959 1.526 . S
C2957 H2941 0.959 . S
C2957 H2942 0.959 . S
C2957 H2943 0.961 . S
C2957 C2956 1.502 . S
C2958 H2944 0.960 . S
C2958 H2945 0.961 . S
C2958 H2946 0.959 . S
C2958 C2956 1.561 1_655 S
C2959 C2956 1.526 . S
C2959 C2960 1.396 1_455 S
C2959 C2964 1.390 . S
C2960 C2954 1.465 . S
C2960 C2959 1.396 1_655 S
C2960 C2961 1.399 . S
C2961 H2947 0.929 . S
C2961 C2960 1.399 . S
C2961 C2962 1.385 . S
C2962 H2948 0.931 . S
C2962 C2961 1.385 . S
C2962 C2963 1.389 1_655 S
C2963 C2962 1.389 1_455 S
C2963 C2964 1.387 . S
C2964 H2949 0.930 . S
C2964 C2959 1.390 . S
C2964 C2963 1.387 . S
H2965 C2977 0.930 . S
H2966 C2979 0.930 . S
H2967 C2980 0.930 . S
H2968 C2984 0.959 . S
H2969 C2984 0.959 . S
H2970 C2984 0.961 1_556 S
H2971 C2985 0.960 1_556 S
H2972 C2985 0.961 . S
H2973 C2985 0.959 . S
H2974 C2988 0.929 . S
H2975 C2989 0.931 . S
H2976 C2991 0.930 . S
C2977 H2965 0.930 . S
C2977 C2978 1.399 . S
C2977 C2982 1.399 . S
C2978 C2977 1.399 . S
C2978 C2979 1.376 1_455 S
C2979 H2966 0.930 . S
C2979 C2978 1.376 1_655 S
C2979 C2980 1.388 . S
C2980 H2967 0.930 . S
C2980 C2979 1.388 . S
C2980 C2981 1.390 . S
C2981 C2980 1.390 . S
C2981 C2982 1.394 1_655 S
C2981 C2987 1.465 1_556 S
C2982 C2977 1.399 . S
C2982 C2981 1.394 1_455 S
C2982 C2983 1.516 1_556 S
C2983 C2982 1.516 1_554 S
C2983 C2984 1.502 . S
C2983 C2985 1.561 1_455 S
C2983 C2986 1.526 . S
C2984 H2968 0.959 . S
C2984 H2969 0.959 . S
C2984 H2970 0.961 1_554 S
C2984 C2983 1.502 . S
C2985 H2971 0.960 1_554 S
C2985 H2972 0.961 . S
C2985 H2973 0.959 . S
C2985 C2983 1.561 1_655 S
C2986 C2983 1.526 . S
C2986 C2987 1.396 1_455 S
C2986 C2991 1.390 . S
C2987 C2981 1.465 1_554 S
C2987 C2986 1.396 1_655 S
C2987 C2988 1.399 . S
C2988 H2974 0.929 . S
C2988 C2987 1.399 . S
C2988 C2989 1.385 . S
C2989 H2975 0.931 . S
C2989 C2988 1.385 . S
C2989 C2990 1.389 . S
C2990 C2989 1.389 . S
C2990 C2991 1.387 1_655 S
C2991 H2976 0.930 . S
C2991 C2986 1.390 . S
C2991 C2990 1.387 1_455 S
H2992 C3004 0.930 . S
H2993 C3006 0.930 . S
H2994 C3007 0.930 . S
H2995 C3011 0.959 . S
H2996 C3011 0.959 . S
H2997 C3011 0.961 . S
H2998 C3012 0.960 . S
H2999 C3012 0.961 . S
H3000 C3012 0.959 . S
H3001 C3015 0.929 . S
H3002 C3016 0.931 . S
H3003 C3018 0.930 . S
C3004 H2992 0.930 . S
C3004 C3005 1.399 . S
C3004 C3009 1.399 . S
C3005 C3004 1.399 . S
C3005 C3006 1.376 . S
C3006 H2993 0.930 . S
C3006 C3005 1.376 . S
C3006 C3007 1.388 . S
C3007 H2994 0.930 . S
C3007 C3006 1.388 . S
C3007 C3008 1.390 . S
C3008 C3007 1.390 . S
C3008 C3009 1.394 . S
C3008 C3014 1.465 . S
C3009 C3004 1.399 . S
C3009 C3008 1.394 . S
C3009 C3010 1.516 . S
C3010 C3009 1.516 . S
C3010 C3011 1.502 . S
C3010 C3012 1.561 . S
C3010 C3013 1.526 . S
C3011 H2995 0.959 . S
C3011 H2996 0.959 . S
C3011 H2997 0.961 . S
C3011 C3010 1.502 . S
C3012 H2998 0.960 . S
C3012 H2999 0.961 . S
C3012 H3000 0.959 . S
C3012 C3010 1.561 . S
C3013 C3010 1.526 . S
C3013 C3014 1.396 . S
C3013 C3018 1.390 . S
C3014 C3008 1.465 . S
C3014 C3013 1.396 . S
C3014 C3015 1.399 . S
C3015 H3001 0.929 . S
C3015 C3014 1.399 . S
C3015 C3016 1.385 . S
C3016 H3002 0.931 . S
C3016 C3015 1.385 . S
C3016 C3017 1.389 . S
C3017 C3016 1.389 . S
C3017 C3018 1.387 . S
C3018 H3003 0.930 . S
C3018 C3013 1.390 . S
C3018 C3017 1.387 . S
H3019 C3031 0.930 . S
H3020 C3033 0.930 . S
H3021 C3034 0.930 . S
H3022 C3038 0.959 . S
H3023 C3038 0.959 . S
H3024 C3038 0.961 . S
H3025 C3039 0.960 . S
H3026 C3039 0.961 . S
H3027 C3039 0.959 . S
H3028 C3042 0.929 . S
H3029 C3043 0.931 . S
H3030 C3045 0.930 . S
C3031 H3019 0.930 . S
C3031 C3032 1.399 . S
C3031 C3036 1.399 . S
C3032 C3031 1.399 . S
C3032 C3033 1.376 . S
C3033 H3020 0.930 . S
C3033 C3032 1.376 . S
C3033 C3034 1.388 . S
C3034 H3021 0.930 . S
C3034 C3033 1.388 . S
C3034 C3035 1.390 . S
C3035 C3034 1.390 . S
C3035 C3036 1.394 . S
C3035 C3041 1.465 . S
C3036 C3031 1.399 . S
C3036 C3035 1.394 . S
C3036 C3037 1.516 . S
C3037 C3036 1.516 . S
C3037 C3038 1.502 . S
C3037 C3039 1.561 . S
C3037 C3040 1.526 . S
C3038 H3022 0.959 . S
C3038 H3023 0.959 . S
C3038 H3024 0.961 . S
C3038 C3037 1.502 . S
C3039 H3025 0.960 . S
C3039 H3026 0.961 . S
C3039 H3027 0.959 . S
C3039 C3037 1.561 . S
C3040 C3037 1.526 . S
C3040 C3041 1.396 . S
C3040 C3045 1.390 . S
C3041 C3035 1.465 . S
C3041 C3040 1.396 . S
C3041 C3042 1.399 . S
C3042 H3028 0.929 . S
C3042 C3041 1.399 . S
C3042 C3043 1.385 . S
C3043 H3029 0.931 . S
C3043 C3042 1.385 . S
C3043 C3044 1.389 . S
C3044 C3043 1.389 . S
C3044 C3045 1.387 . S
C3045 H3030 0.930 . S
C3045 C3040 1.390 . S
C3045 C3044 1.387 . S
H3046 C3058 0.930 . S
H3047 C3060 0.930 . S
H3048 C3061 0.930 . S
H3049 C3065 0.959 . S
H3050 C3065 0.959 . S
H3051 C3065 0.961 . S
H3052 C3066 0.960 . S
H3053 C3066 0.961 . S
H3054 C3066 0.959 . S
H3055 C3069 0.929 . S
H3056 C3070 0.931 . S
H3057 C3072 0.930 . S
C3058 H3046 0.930 . S
C3058 C3059 1.399 . S
C3058 C3063 1.399 . S
C3059 C3058 1.399 . S
C3059 C3060 1.376 . S
C3060 H3047 0.930 . S
C3060 C3059 1.376 . S
C3060 C3061 1.388 . S
C3061 H3048 0.930 . S
C3061 C3060 1.388 . S
C3061 C3062 1.390 . S
C3062 C3061 1.390 . S
C3062 C3063 1.394 . S
C3062 C3068 1.465 . S
C3063 C3058 1.399 . S
C3063 C3062 1.394 . S
C3063 C3064 1.516 . S
C3064 C3063 1.516 . S
C3064 C3065 1.502 . S
C3064 C3066 1.561 . S
C3064 C3067 1.526 . S
C3065 H3049 0.959 . S
C3065 H3050 0.959 . S
C3065 H3051 0.961 . S
C3065 C3064 1.502 . S
C3066 H3052 0.960 . S
C3066 H3053 0.961 . S
C3066 H3054 0.959 . S
C3066 C3064 1.561 . S
C3067 C3064 1.526 . S
C3067 C3068 1.396 . S
C3067 C3072 1.390 . S
C3068 C3062 1.465 . S
C3068 C3067 1.396 . S
C3068 C3069 1.399 . S
C3069 H3055 0.929 . S
C3069 C3068 1.399 . S
C3069 C3070 1.385 . S
C3070 H3056 0.931 . S
C3070 C3069 1.385 . S
C3070 C3071 1.389 . S
C3071 C3070 1.389 . S
C3071 C3072 1.387 . S
C3072 H3057 0.930 . S
C3072 C3067 1.390 . S
C3072 C3071 1.387 . S
H3073 C3085 0.930 . S
H3074 C3087 0.930 . S
H3075 C3088 0.930 . S
H3076 C3092 0.959 . S
H3077 C3092 0.959 . S
H3078 C3092 0.961 . S
H3079 C3093 0.960 . S
H3080 C3093 0.961 . S
H3081 C3093 0.959 . S
H3082 C3096 0.929 . S
H3083 C3097 0.931 . S
H3084 C3099 0.930 . S
C3085 H3073 0.930 . S
C3085 C3086 1.399 . S
C3085 C3090 1.399 . S
C3086 C3085 1.399 . S
C3086 C3087 1.376 . S
C3087 H3074 0.930 . S
C3087 C3086 1.376 . S
C3087 C3088 1.388 . S
C3088 H3075 0.930 . S
C3088 C3087 1.388 . S
C3088 C3089 1.390 . S
C3089 C3088 1.390 . S
C3089 C3090 1.394 . S
C3089 C3095 1.465 . S
C3090 C3085 1.399 . S
C3090 C3089 1.394 . S
C3090 C3091 1.516 . S
C3091 C3090 1.516 . S
C3091 C3092 1.502 . S
C3091 C3093 1.561 . S
C3091 C3094 1.526 . S
C3092 H3076 0.959 . S
C3092 H3077 0.959 . S
C3092 H3078 0.961 . S
C3092 C3091 1.502 . S
C3093 H3079 0.960 . S
C3093 H3080 0.961 . S
C3093 H3081 0.959 . S
C3093 C3091 1.561 . S
C3094 C3091 1.526 . S
C3094 C3095 1.396 . S
C3094 C3099 1.390 . S
C3095 C3089 1.465 . S
C3095 C3094 1.396 . S
C3095 C3096 1.399 . S
C3096 H3082 0.929 . S
C3096 C3095 1.399 . S
C3096 C3097 1.385 . S
C3097 H3083 0.931 . S
C3097 C3096 1.385 . S
C3097 C3098 1.389 . S
C3098 C3097 1.389 . S
C3098 C3099 1.387 . S
C3099 H3084 0.930 . S
C3099 C3094 1.390 . S
C3099 C3098 1.387 . S
H3100 C3112 0.930 . S
H3101 C3114 0.930 . S
H3102 C3115 0.930 . S
H3103 C3119 0.959 . S
H3104 C3119 0.959 . S
H3105 C3119 0.961 . S
H3106 C3120 0.960 . S
H3107 C3120 0.961 . S
H3108 C3120 0.959 . S
H3109 C3123 0.929 . S
H3110 C3124 0.931 . S
H3111 C3126 0.930 . S
C3112 H3100 0.930 . S
C3112 C3113 1.399 . S
C3112 C3117 1.399 . S
C3113 C3112 1.399 . S
C3113 C3114 1.376 . S
C3114 H3101 0.930 . S
C3114 C3113 1.376 . S
C3114 C3115 1.388 . S
C3115 H3102 0.930 . S
C3115 C3114 1.388 . S
C3115 C3116 1.390 . S
C3116 C3115 1.390 . S
C3116 C3117 1.394 . S
C3116 C3122 1.465 . S
C3117 C3112 1.399 . S
C3117 C3116 1.394 . S
C3117 C3118 1.516 . S
C3118 C3117 1.516 . S
C3118 C3119 1.502 . S
C3118 C3120 1.561 . S
C3118 C3121 1.526 . S
C3119 H3103 0.959 . S
C3119 H3104 0.959 . S
C3119 H3105 0.961 . S
C3119 C3118 1.502 . S
C3120 H3106 0.960 . S
C3120 H3107 0.961 . S
C3120 H3108 0.959 . S
C3120 C3118 1.561 . S
C3121 C3118 1.526 . S
C3121 C3122 1.396 . S
C3121 C3126 1.390 . S
C3122 C3116 1.465 . S
C3122 C3121 1.396 . S
C3122 C3123 1.399 . S
C3123 H3109 0.929 . S
C3123 C3122 1.399 . S
C3123 C3124 1.385 . S
C3124 H3110 0.931 . S
C3124 C3123 1.385 . S
C3124 C3125 1.389 . S
C3125 C3124 1.389 . S
C3125 C3126 1.387 . S
C3126 H3111 0.930 . S
C3126 C3121 1.390 . S
C3126 C3125 1.387 . S
H3127 C3139 0.930 . S
H3128 C3141 0.930 . S
H3129 C3142 0.930 . S
H3130 C3146 0.959 . S
H3131 C3146 0.959 . S
H3132 C3146 0.961 . S
H3133 C3147 0.960 . S
H3134 C3147 0.961 . S
H3135 C3147 0.959 . S
H3136 C3150 0.929 . S
H3137 C3151 0.931 . S
H3138 C3153 0.930 . S
C3139 H3127 0.930 . S
C3139 C3140 1.399 . S
C3139 C3144 1.399 . S
C3140 C3139 1.399 . S
C3140 C3141 1.376 . S
C3141 H3128 0.930 . S
C3141 C3140 1.376 . S
C3141 C3142 1.388 . S
C3142 H3129 0.930 . S
C3142 C3141 1.388 . S
C3142 C3143 1.390 . S
C3143 C3142 1.390 . S
C3143 C3144 1.394 . S
C3143 C3149 1.465 . S
C3144 C3139 1.399 . S
C3144 C3143 1.394 . S
C3144 C3145 1.516 . S
C3145 C3144 1.516 . S
C3145 C3146 1.502 . S
C3145 C3147 1.561 . S
C3145 C3148 1.526 . S
C3146 H3130 0.959 . S
C3146 H3131 0.959 . S
C3146 H3132 0.961 . S
C3146 C3145 1.502 . S
C3147 H3133 0.960 . S
C3147 H3134 0.961 . S
C3147 H3135 0.959 . S
C3147 C3145 1.561 . S
C3148 C3145 1.526 . S
C3148 C3149 1.396 . S
C3148 C3153 1.390 . S
C3149 C3143 1.465 . S
C3149 C3148 1.396 . S
C3149 C3150 1.399 . S
C3150 H3136 0.929 . S
C3150 C3149 1.399 . S
C3150 C3151 1.385 . S
C3151 H3137 0.931 . S
C3151 C3150 1.385 . S
C3151 C3152 1.389 . S
C3152 C3151 1.389 . S
C3152 C3153 1.387 . S
C3153 H3138 0.930 . S
C3153 C3148 1.390 . S
C3153 C3152 1.387 . S
H3154 C3166 0.930 . S
H3155 C3168 0.930 . S
H3156 C3169 0.930 . S
H3157 C3173 0.959 . S
H3158 C3173 0.959 . S
H3159 C3173 0.961 . S
H3160 C3174 0.960 . S
H3161 C3174 0.961 . S
H3162 C3174 0.959 . S
H3163 C3177 0.929 . S
H3164 C3178 0.931 . S
H3165 C3180 0.930 . S
C3166 H3154 0.930 . S
C3166 C3167 1.399 . S
C3166 C3171 1.399 . S
C3167 C3166 1.399 . S
C3167 C3168 1.376 . S
C3168 H3155 0.930 . S
C3168 C3167 1.376 . S
C3168 C3169 1.388 . S
C3169 H3156 0.930 . S
C3169 C3168 1.388 . S
C3169 C3170 1.390 . S
C3170 C3169 1.390 . S
C3170 C3171 1.394 . S
C3170 C3176 1.465 . S
C3171 C3166 1.399 . S
C3171 C3170 1.394 . S
C3171 C3172 1.516 . S
C3172 C3171 1.516 . S
C3172 C3173 1.502 . S
C3172 C3174 1.561 . S
C3172 C3175 1.526 . S
C3173 H3157 0.959 . S
C3173 H3158 0.959 . S
C3173 H3159 0.961 . S
C3173 C3172 1.502 . S
C3174 H3160 0.960 . S
C3174 H3161 0.961 . S
C3174 H3162 0.959 . S
C3174 C3172 1.561 . S
C3175 C3172 1.526 . S
C3175 C3176 1.396 . S
C3175 C3180 1.390 . S
C3176 C3170 1.465 . S
C3176 C3175 1.396 . S
C3176 C3177 1.399 . S
C3177 H3163 0.929 . S
C3177 C3176 1.399 . S
C3177 C3178 1.385 . S
C3178 H3164 0.931 . S
C3178 C3177 1.385 . S
C3178 C3179 1.389 . S
C3179 C3178 1.389 . S
C3179 C3180 1.387 . S
C3180 H3165 0.930 . S
C3180 C3175 1.390 . S
C3180 C3179 1.387 . S
H3181 C3193 0.930 . S
H3182 C3195 0.930 . S
H3183 C3196 0.930 . S
H3184 C3200 0.959 . S
H3185 C3200 0.959 . S
H3186 C3200 0.961 . S
H3187 C3201 0.960 . S
H3188 C3201 0.961 . S
H3189 C3201 0.959 . S
H3190 C3204 0.929 . S
H3191 C3205 0.931 . S
H3192 C3207 0.930 . S
C3193 H3181 0.930 . S
C3193 C3194 1.399 . S
C3193 C3198 1.399 . S
C3194 C3193 1.399 . S
C3194 C3195 1.376 . S
C3195 H3182 0.930 . S
C3195 C3194 1.376 . S
C3195 C3196 1.388 . S
C3196 H3183 0.930 . S
C3196 C3195 1.388 . S
C3196 C3197 1.390 . S
C3197 C3196 1.390 . S
C3197 C3198 1.394 . S
C3197 C3203 1.465 . S
C3198 C3193 1.399 . S
C3198 C3197 1.394 . S
C3198 C3199 1.516 . S
C3199 C3198 1.516 . S
C3199 C3200 1.502 . S
C3199 C3201 1.561 . S
C3199 C3202 1.526 . S
C3200 H3184 0.959 . S
C3200 H3185 0.959 . S
C3200 H3186 0.961 . S
C3200 C3199 1.502 . S
C3201 H3187 0.960 . S
C3201 H3188 0.961 . S
C3201 H3189 0.959 . S
C3201 C3199 1.561 . S
C3202 C3199 1.526 . S
C3202 C3203 1.396 . S
C3202 C3207 1.390 . S
C3203 C3197 1.465 . S
C3203 C3202 1.396 . S
C3203 C3204 1.399 . S
C3204 H3190 0.929 . S
C3204 C3203 1.399 . S
C3204 C3205 1.385 . S
C3205 H3191 0.931 . S
C3205 C3204 1.385 . S
C3205 C3206 1.389 . S
C3206 C3205 1.389 . S
C3206 C3207 1.387 . S
C3207 H3192 0.930 . S
C3207 C3202 1.390 . S
C3207 C3206 1.387 . S
H3208 C3220 0.930 . S
H3209 C3222 0.930 . S
H3210 C3223 0.930 . S
H3211 C3227 0.959 . S
H3212 C3227 0.959 . S
H3213 C3227 0.961 . S
H3214 C3228 0.960 . S
H3215 C3228 0.961 . S
H3216 C3228 0.959 . S
H3217 C3231 0.929 . S
H3218 C3232 0.931 . S
H3219 C3234 0.930 . S
C3220 H3208 0.930 . S
C3220 C3221 1.399 . S
C3220 C3225 1.399 . S
C3221 C3220 1.399 . S
C3221 C3222 1.376 . S
C3222 H3209 0.930 . S
C3222 C3221 1.376 . S
C3222 C3223 1.388 . S
C3223 H3210 0.930 . S
C3223 C3222 1.388 . S
C3223 C3224 1.390 . S
C3224 C3223 1.390 . S
C3224 C3225 1.394 . S
C3224 C3230 1.465 . S
C3225 C3220 1.399 . S
C3225 C3224 1.394 . S
C3225 C3226 1.516 . S
C3226 C3225 1.516 . S
C3226 C3227 1.502 . S
C3226 C3228 1.561 . S
C3226 C3229 1.526 . S
C3227 H3211 0.959 . S
C3227 H3212 0.959 . S
C3227 H3213 0.961 . S
C3227 C3226 1.502 . S
C3228 H3214 0.960 . S
C3228 H3215 0.961 . S
C3228 H3216 0.959 . S
C3228 C3226 1.561 . S
C3229 C3226 1.526 . S
C3229 C3230 1.396 . S
C3229 C3234 1.390 . S
C3230 C3224 1.465 . S
C3230 C3229 1.396 . S
C3230 C3231 1.399 . S
C3231 H3217 0.929 . S
C3231 C3230 1.399 . S
C3231 C3232 1.385 . S
C3232 H3218 0.931 . S
C3232 C3231 1.385 . S
C3232 C3233 1.389 . S
C3233 C3232 1.389 . S
C3233 C3234 1.387 . S
C3234 H3219 0.930 . S
C3234 C3229 1.390 . S
C3234 C3233 1.387 . S
H3235 C3247 0.930 . S
H3236 C3249 0.930 . S
H3237 C3250 0.930 . S
H3238 C3254 0.959 . S
H3239 C3254 0.959 . S
H3240 C3254 0.961 . S
H3241 C3255 0.960 . S
H3242 C3255 0.961 . S
H3243 C3255 0.959 . S
H3244 C3258 0.929 . S
H3245 C3259 0.931 . S
H3246 C3261 0.930 . S
C3247 H3235 0.930 . S
C3247 C3248 1.399 . S
C3247 C3252 1.399 . S
C3248 C3247 1.399 . S
C3248 C3249 1.376 . S
C3249 H3236 0.930 . S
C3249 C3248 1.376 . S
C3249 C3250 1.388 . S
C3250 H3237 0.930 . S
C3250 C3249 1.388 . S
C3250 C3251 1.390 . S
C3251 C3250 1.390 . S
C3251 C3252 1.394 . S
C3251 C3257 1.465 . S
C3252 C3247 1.399 . S
C3252 C3251 1.394 . S
C3252 C3253 1.516 . S
C3253 C3252 1.516 . S
C3253 C3254 1.502 . S
C3253 C3255 1.561 . S
C3253 C3256 1.526 . S
C3254 H3238 0.959 . S
C3254 H3239 0.959 . S
C3254 H3240 0.961 . S
C3254 C3253 1.502 . S
C3255 H3241 0.960 . S
C3255 H3242 0.961 . S
C3255 H3243 0.959 . S
C3255 C3253 1.561 . S
C3256 C3253 1.526 . S
C3256 C3257 1.396 . S
C3256 C3261 1.390 . S
C3257 C3251 1.465 . S
C3257 C3256 1.396 . S
C3257 C3258 1.399 . S
C3258 H3244 0.929 . S
C3258 C3257 1.399 . S
C3258 C3259 1.385 . S
C3259 H3245 0.931 . S
C3259 C3258 1.385 . S
C3259 C3260 1.389 . S
C3260 C3259 1.389 . S
C3260 C3261 1.387 . S
C3261 H3246 0.930 . S
C3261 C3256 1.390 . S
C3261 C3260 1.387 . S
H3262 C3274 0.930 . S
H3263 C3276 0.930 . S
H3264 C3277 0.930 . S
H3265 C3281 0.959 . S
H3266 C3281 0.959 . S
H3267 C3281 0.961 . S
H3268 C3282 0.960 . S
H3269 C3282 0.961 . S
H3270 C3282 0.959 . S
H3271 C3285 0.929 . S
H3272 C3286 0.931 . S
H3273 C3288 0.930 . S
C3274 H3262 0.930 . S
C3274 C3275 1.399 . S
C3274 C3279 1.399 . S
C3275 C3274 1.399 . S
C3275 C3276 1.376 . S
C3276 H3263 0.930 . S
C3276 C3275 1.376 . S
C3276 C3277 1.388 . S
C3277 H3264 0.930 . S
C3277 C3276 1.388 . S
C3277 C3278 1.390 . S
C3278 C3277 1.390 . S
C3278 C3279 1.394 . S
C3278 C3284 1.465 . S
C3279 C3274 1.399 . S
C3279 C3278 1.394 . S
C3279 C3280 1.516 . S
C3280 C3279 1.516 . S
C3280 C3281 1.502 . S
C3280 C3282 1.561 . S
C3280 C3283 1.526 . S
C3281 H3265 0.959 . S
C3281 H3266 0.959 . S
C3281 H3267 0.961 . S
C3281 C3280 1.502 . S
C3282 H3268 0.960 . S
C3282 H3269 0.961 . S
C3282 H3270 0.959 . S
C3282 C3280 1.561 . S
C3283 C3280 1.526 . S
C3283 C3284 1.396 . S
C3283 C3288 1.390 . S
C3284 C3278 1.465 . S
C3284 C3283 1.396 . S
C3284 C3285 1.399 . S
C3285 H3271 0.929 . S
C3285 C3284 1.399 . S
C3285 C3286 1.385 . S
C3286 H3272 0.931 . S
C3286 C3285 1.385 . S
C3286 C3287 1.389 . S
C3287 C3286 1.389 . S
C3287 C3288 1.387 . S
C3288 H3273 0.930 . S
C3288 C3283 1.390 . S
C3288 C3287 1.387 . S
H3289 C3301 0.930 . S
H3290 C3303 0.930 . S
H3291 C3304 0.930 . S
H3292 C3308 0.959 . S
H3293 C3308 0.959 . S
H3294 C3308 0.961 . S
H3295 C3309 0.960 . S
H3296 C3309 0.961 . S
H3297 C3309 0.959 . S
H3298 C3312 0.929 . S
H3299 C3313 0.931 . S
H3300 C3315 0.930 . S
C3301 H3289 0.930 . S
C3301 C3302 1.399 . S
C3301 C3306 1.399 . S
C3302 C3301 1.399 . S
C3302 C3303 1.376 . S
C3303 H3290 0.930 . S
C3303 C3302 1.376 . S
C3303 C3304 1.388 . S
C3304 H3291 0.930 . S
C3304 C3303 1.388 . S
C3304 C3305 1.390 . S
C3305 C3304 1.390 . S
C3305 C3306 1.394 . S
C3305 C3311 1.465 . S
C3306 C3301 1.399 . S
C3306 C3305 1.394 . S
C3306 C3307 1.516 . S
C3307 C3306 1.516 . S
C3307 C3308 1.502 . S
C3307 C3309 1.561 . S
C3307 C3310 1.526 . S
C3308 H3292 0.959 . S
C3308 H3293 0.959 . S
C3308 H3294 0.961 . S
C3308 C3307 1.502 . S
C3309 H3295 0.960 . S
C3309 H3296 0.961 . S
C3309 H3297 0.959 . S
C3309 C3307 1.561 . S
C3310 C3307 1.526 . S
C3310 C3311 1.396 . S
C3310 C3315 1.390 . S
C3311 C3305 1.465 . S
C3311 C3310 1.396 . S
C3311 C3312 1.399 . S
C3312 H3298 0.929 . S
C3312 C3311 1.399 . S
C3312 C3313 1.385 . S
C3313 H3299 0.931 . S
C3313 C3312 1.385 . S
C3313 C3314 1.389 . S
C3314 C3313 1.389 . S
C3314 C3315 1.387 . S
C3315 H3300 0.930 . S
C3315 C3310 1.390 . S
C3315 C3314 1.387 . S
H3316 C3328 0.930 . S
H3317 C3330 0.930 . S
H3318 C3331 0.930 . S
H3319 C3335 0.959 . S
H3320 C3335 0.959 . S
H3321 C3335 0.961 . S
H3322 C3336 0.960 . S
H3323 C3336 0.961 . S
H3324 C3336 0.959 . S
H3325 C3339 0.929 . S
H3326 C3340 0.931 . S
H3327 C3342 0.930 . S
C3328 H3316 0.930 . S
C3328 C3329 1.399 . S
C3328 C3333 1.399 . S
C3329 C3328 1.399 . S
C3329 C3330 1.376 . S
C3330 H3317 0.930 . S
C3330 C3329 1.376 . S
C3330 C3331 1.388 . S
C3331 H3318 0.930 . S
C3331 C3330 1.388 . S
C3331 C3332 1.390 . S
C3332 C3331 1.390 . S
C3332 C3333 1.394 . S
C3332 C3338 1.465 . S
C3333 C3328 1.399 . S
C3333 C3332 1.394 . S
C3333 C3334 1.516 . S
C3334 C3333 1.516 . S
C3334 C3335 1.502 . S
C3334 C3336 1.561 . S
C3334 C3337 1.526 . S
C3335 H3319 0.959 . S
C3335 H3320 0.959 . S
C3335 H3321 0.961 . S
C3335 C3334 1.502 . S
C3336 H3322 0.960 . S
C3336 H3323 0.961 . S
C3336 H3324 0.959 . S
C3336 C3334 1.561 . S
C3337 C3334 1.526 . S
C3337 C3338 1.396 . S
C3337 C3342 1.390 . S
C3338 C3332 1.465 . S
C3338 C3337 1.396 . S
C3338 C3339 1.399 . S
C3339 H3325 0.929 . S
C3339 C3338 1.399 . S
C3339 C3340 1.385 . S
C3340 H3326 0.931 . S
C3340 C3339 1.385 . S
C3340 C3341 1.389 . S
C3341 C3340 1.389 . S
C3341 C3342 1.387 . S
C3342 H3327 0.930 . S
C3342 C3337 1.390 . S
C3342 C3341 1.387 . S
H3343 C3355 0.930 . S
H3344 C3357 0.930 . S
H3345 C3358 0.930 . S
H3346 C3362 0.959 . S
H3347 C3362 0.959 . S
H3348 C3362 0.961 . S
H3349 C3363 0.960 . S
H3350 C3363 0.961 . S
H3351 C3363 0.959 . S
H3352 C3366 0.929 . S
H3353 C3367 0.931 . S
H3354 C3369 0.930 . S
C3355 H3343 0.930 . S
C3355 C3356 1.399 . S
C3355 C3360 1.399 . S
C3356 C3355 1.399 . S
C3356 C3357 1.376 . S
C3357 H3344 0.930 . S
C3357 C3356 1.376 . S
C3357 C3358 1.388 . S
C3358 H3345 0.930 . S
C3358 C3357 1.388 . S
C3358 C3359 1.390 . S
C3359 C3358 1.390 . S
C3359 C3360 1.394 . S
C3359 C3365 1.465 . S
C3360 C3355 1.399 . S
C3360 C3359 1.394 . S
C3360 C3361 1.516 . S
C3361 C3360 1.516 . S
C3361 C3362 1.502 . S
C3361 C3363 1.561 . S
C3361 C3364 1.526 . S
C3362 H3346 0.959 . S
C3362 H3347 0.959 . S
C3362 H3348 0.961 . S
C3362 C3361 1.502 . S
C3363 H3349 0.960 . S
C3363 H3350 0.961 . S
C3363 H3351 0.959 . S
C3363 C3361 1.561 . S
C3364 C3361 1.526 . S
C3364 C3365 1.396 . S
C3364 C3369 1.390 . S
C3365 C3359 1.465 . S
C3365 C3364 1.396 . S
C3365 C3366 1.399 . S
C3366 H3352 0.929 . S
C3366 C3365 1.399 . S
C3366 C3367 1.385 . S
C3367 H3353 0.931 . S
C3367 C3366 1.385 . S
C3367 C3368 1.389 . S
C3368 C3367 1.389 . S
C3368 C3369 1.387 . S
C3369 H3354 0.930 . S
C3369 C3364 1.390 . S
C3369 C3368 1.387 . S
H3370 C3382 0.930 . S
H3371 C3384 0.930 . S
H3372 C3385 0.930 . S
H3373 C3389 0.959 . S
H3374 C3389 0.959 . S
H3375 C3389 0.961 . S
H3376 C3390 0.960 . S
H3377 C3390 0.961 . S
H3378 C3390 0.959 . S
H3379 C3393 0.929 . S
H3380 C3394 0.931 . S
H3381 C3396 0.930 . S
C3382 H3370 0.930 . S
C3382 C3383 1.399 . S
C3382 C3387 1.399 . S
C3383 C3382 1.399 . S
C3383 C3384 1.376 . S
C3384 H3371 0.930 . S
C3384 C3383 1.376 . S
C3384 C3385 1.388 . S
C3385 H3372 0.930 . S
C3385 C3384 1.388 . S
C3385 C3386 1.390 . S
C3386 C3385 1.390 . S
C3386 C3387 1.394 . S
C3386 C3392 1.465 . S
C3387 C3382 1.399 . S
C3387 C3386 1.394 . S
C3387 C3388 1.516 . S
C3388 C3387 1.516 . S
C3388 C3389 1.502 . S
C3388 C3390 1.561 . S
C3388 C3391 1.526 . S
C3389 H3373 0.959 . S
C3389 H3374 0.959 . S
C3389 H3375 0.961 . S
C3389 C3388 1.502 . S
C3390 H3376 0.960 . S
C3390 H3377 0.961 . S
C3390 H3378 0.959 . S
C3390 C3388 1.561 . S
C3391 C3388 1.526 . S
C3391 C3392 1.396 . S
C3391 C3396 1.390 . S
C3392 C3386 1.465 . S
C3392 C3391 1.396 . S
C3392 C3393 1.399 . S
C3393 H3379 0.929 . S
C3393 C3392 1.399 . S
C3393 C3394 1.385 . S
C3394 H3380 0.931 . S
C3394 C3393 1.385 . S
C3394 C3395 1.389 . S
C3395 C3394 1.389 . S
C3395 C3396 1.387 . S
C3396 H3381 0.930 . S
C3396 C3391 1.390 . S
C3396 C3395 1.387 . S
H3397 C3409 0.930 . S
H3398 C3411 0.930 . S
H3399 C3412 0.930 . S
H3400 C3416 0.959 . S
H3401 C3416 0.959 . S
H3402 C3416 0.961 . S
H3403 C3417 0.960 . S
H3404 C3417 0.961 . S
H3405 C3417 0.959 . S
H3406 C3420 0.929 . S
H3407 C3421 0.931 . S
H3408 C3423 0.930 . S
C3409 H3397 0.930 . S
C3409 C3410 1.399 . S
C3409 C3414 1.399 . S
C3410 C3409 1.399 . S
C3410 C3411 1.376 . S
C3411 H3398 0.930 . S
C3411 C3410 1.376 . S
C3411 C3412 1.388 . S
C3412 H3399 0.930 . S
C3412 C3411 1.388 . S
C3412 C3413 1.390 . S
C3413 C3412 1.390 . S
C3413 C3414 1.394 . S
C3413 C3419 1.465 . S
C3414 C3409 1.399 . S
C3414 C3413 1.394 . S
C3414 C3415 1.516 . S
C3415 C3414 1.516 . S
C3415 C3416 1.502 . S
C3415 C3417 1.561 . S
C3415 C3418 1.526 . S
C3416 H3400 0.959 . S
C3416 H3401 0.959 . S
C3416 H3402 0.961 . S
C3416 C3415 1.502 . S
C3417 H3403 0.960 . S
C3417 H3404 0.961 . S
C3417 H3405 0.959 . S
C3417 C3415 1.561 . S
C3418 C3415 1.526 . S
C3418 C3419 1.396 . S
C3418 C3423 1.390 . S
C3419 C3413 1.465 . S
C3419 C3418 1.396 . S
C3419 C3420 1.399 . S
C3420 H3406 0.929 . S
C3420 C3419 1.399 . S
C3420 C3421 1.385 . S
C3421 H3407 0.931 . S
C3421 C3420 1.385 . S
C3421 C3422 1.389 . S
C3422 C3421 1.389 . S
C3422 C3423 1.387 . S
C3423 H3408 0.930 . S
C3423 C3418 1.390 . S
C3423 C3422 1.387 . S
C1709 C38 1.800 . S
C1721 C144 1.799 . S
C1736 C197 1.771 . S
C1748 C91 1.812 . S
C1763 C356 1.802 . S
C1775 C250 1.834 . S
C1790 C409 1.819 . S
C1802 C303 1.789 . S
C1817 C462 1.802 . S
C1829 C568 1.796 . S
C1844 C621 1.782 . S
C1856 C515 1.818 . S
C1871 C674 1.829 . S
C1883 C780 1.810 . S
C1898 C833 1.822 . S
C1910 C727 1.784 . S
C1925 C886 1.788 . S
C1937 C992 1.751 . S
C1952 C939 1.792 . S
C1964 C1045 1.830 . S
C1979 C1204 1.798 . S
C1991 C1098 1.766 . S
C2006 C1151 1.793 . S
C2018 C1257 1.830 . S
C2033 C1416 1.763 . S
C2045 C1310 1.796 . S
C2060 C1469 1.789 . S
C2072 C1363 1.829 . S
C2087 C1628 1.797 . S
C2099 C1522 1.766 . S
C2114 C1575 1.792 . S
C2126 C1681 1.832 . S
C2141 C1347 2.019 . S
C2153 C22 2.016 . S
C2168 C75 1.999 . S
C2180 C1294 1.998 . S
C2195 C128 2.006 . S
C2207 C1453 2.009 . S
C2222 C181 1.999 . S
C2234 C1400 1.996 . S
C2249 C1559 2.009 . S
C2261 C234 2.004 . S
C2276 C287 2.012 . S
C2288 C1506 1.998 . S
C2303 C340 2.013 . S
C2315 C1665 2.003 . S
C2330 C1612 1.995 . S
C2342 C393 1.999 . S
C2357 C446 2.019 . S
C2369 C923 2.018 . S
C2384 C499 2.013 . S
C2396 C870 2.004 . S
C2411 C552 2.017 . S
C2423 C1029 2.019 . S
C2438 C605 1.999 . S
C2450 C976 1.995 . S
C2465 C658 2.014 . S
C2477 C1135 2.017 . S
C2492 C1082 2.004 . S
C2504 C711 1.991 . S
C2519 C1241 2.012 . S
C2531 C764 2.003 . S
C2546 C817 2.006 . S
C2558 C1188 2.005 . S
C2573 C39 1.830 . S
C2585 C251 1.862 . S
C2600 C92 1.822 . S
C2612 C1576 1.850 . S
C2627 C145 1.861 . S
C2639 C781 1.813 . S
C2654 C198 1.865 . S
C2666 C1258 1.800 . S
C2681 C304 1.850 . S
C2693 C1364 1.808 . S
C2708 C569 1.858 . S
C2720 C357 1.816 . S
C2735 C1046 1.847 . S
C2747 C410 1.806 . S
C2762 C675 1.844 . S
C2774 C463 1.830 . S
C2789 C516 1.823 . S
C2801 C1152 1.850 . S
C2816 C1682 1.848 . S
C2828 C622 1.810 . S
C2843 C728 1.855 . S
C2855 C940 1.806 . S
C2870 C834 1.800 . S
C2882 C1470 1.865 . S
C2897 C1099 1.779 . S
C2909 C887 1.845 . S
C2924 C993 1.796 . S
C2936 C1629 1.825 . S
C2951 C1417 1.805 . S
C2963 C1205 1.832 . S
C2978 C1523 1.783 . S
C2990 C1311 1.845 . S
C3005 C29 1.077 . S
C3017 C82 1.051 . S
C3032 C135 1.033 . S
C3044 C188 1.051 . S
C3059 C241 1.063 . S
C3071 C294 1.036 . S
C3086 C347 1.067 . S
C3098 C400 1.035 . S
C3113 C506 1.078 . S
C3125 C453 1.047 . S
C3140 C559 1.031 . S
C3152 C612 1.057 . S
C3167 C665 1.062 . S
C3179 C718 1.036 . S
C3194 C771 1.053 . S
C3206 C824 1.072 . S
C3221 C877 1.045 . S
C3233 C930 1.074 . S
C3248 C1036 1.091 . S
C3260 C983 1.069 . S
C3275 C1089 1.070 . S
C3287 C1142 1.060 . S
C3302 C1195 1.073 . S
C3314 C1248 1.087 . S
C3329 C1354 1.056 . S
C3341 C1301 1.059 . S
C3356 C1407 1.045 . S
C3368 C1460 1.074 . S
C3383 C1566 1.070 . S
C3395 C1513 1.060 . S
C3410 C1619 1.079 . S
C3422 C1672 1.056 . S
