# Generated by pormake.
# Topology nfb, (4)-cn, num edge types: 1
# Building blocks:
#     Node 0, Type 0, BuildingBlock: ICAMEG_clean_sbu_1, # of connection points: 4
#     Node 1, Type 0, BuildingBlock: ICAMEG_clean_sbu_1, # of connection points: 4
#     Node 2, Type 0, BuildingBlock: ICAMEG_clean_sbu_1, # of connection points: 4
#     Node 3, Type 0, BuildingBlock: ICAMEG_clean_sbu_1, # of connection points: 4
#     Node 4, Type 0, BuildingBlock: ICAMEG_clean_sbu_1, # of connection points: 4
#     Node 5, Type 0, BuildingBlock: ICAMEG_clean_sbu_1, # of connection points: 4
#     Node 6, Type 0, BuildingBlock: ICAMEG_clean_sbu_1, # of connection points: 4
#     Node 7, Type 0, BuildingBlock: ICAMEG_clean_sbu_1, # of connection points: 4
#     Node 8, Type 0, BuildingBlock: ICAMEG_clean_sbu_1, # of connection points: 4
#     Node 9, Type 0, BuildingBlock: ICAMEG_clean_sbu_1, # of connection points: 4
#     Node 10, Type 0, BuildingBlock: ICAMEG_clean_sbu_1, # of connection points: 4
#     Node 11, Type 0, BuildingBlock: ICAMEG_clean_sbu_1, # of connection points: 4
#     Node 12, Type 0, BuildingBlock: ICAMEG_clean_sbu_1, # of connection points: 4
#     Node 13, Type 0, BuildingBlock: ICAMEG_clean_sbu_1, # of connection points: 4
#     Node 14, Type 0, BuildingBlock: ICAMEG_clean_sbu_1, # of connection points: 4
#     Node 15, Type 0, BuildingBlock: ICAMEG_clean_sbu_1, # of connection points: 4
#     Node 16, Type 0, BuildingBlock: ICAMEG_clean_sbu_1, # of connection points: 4
#     Node 17, Type 0, BuildingBlock: ICAMEG_clean_sbu_1, # of connection points: 4
#     Node 18, Type 0, BuildingBlock: ICAMEG_clean_sbu_1, # of connection points: 4
#     Node 19, Type 0, BuildingBlock: ICAMEG_clean_sbu_1, # of connection points: 4
#     Node 20, Type 0, BuildingBlock: ICAMEG_clean_sbu_1, # of connection points: 4
#     Node 21, Type 0, BuildingBlock: ICAMEG_clean_sbu_1, # of connection points: 4
#     Node 22, Type 0, BuildingBlock: ICAMEG_clean_sbu_1, # of connection points: 4
#     Node 23, Type 0, BuildingBlock: ICAMEG_clean_sbu_1, # of connection points: 4
#     Node 24, Type 0, BuildingBlock: ICAMEG_clean_sbu_1, # of connection points: 4
#     Node 25, Type 0, BuildingBlock: ICAMEG_clean_sbu_1, # of connection points: 4
#     Node 26, Type 0, BuildingBlock: ICAMEG_clean_sbu_1, # of connection points: 4
#     Node 27, Type 0, BuildingBlock: ICAMEG_clean_sbu_1, # of connection points: 4
#     Node 28, Type 0, BuildingBlock: ICAMEG_clean_sbu_1, # of connection points: 4
#     Node 29, Type 0, BuildingBlock: ICAMEG_clean_sbu_1, # of connection points: 4
#     Node 30, Type 0, BuildingBlock: ICAMEG_clean_sbu_1, # of connection points: 4
#     Node 31, Type 0, BuildingBlock: ICAMEG_clean_sbu_1, # of connection points: 4
#     Node 32, Type 0, BuildingBlock: ICAMEG_clean_sbu_1, # of connection points: 4
#     Node 33, Type 0, BuildingBlock: ICAMEG_clean_sbu_1, # of connection points: 4
#     Node 34, Type 0, BuildingBlock: ICAMEG_clean_sbu_1, # of connection points: 4
#     Node 35, Type 0, BuildingBlock: ICAMEG_clean_sbu_1, # of connection points: 4
#     Node 36, Type 0, BuildingBlock: ICAMEG_clean_sbu_1, # of connection points: 4
#     Node 37, Type 0, BuildingBlock: ICAMEG_clean_sbu_1, # of connection points: 4
#     Node 38, Type 0, BuildingBlock: ICAMEG_clean_sbu_1, # of connection points: 4
#     Node 39, Type 0, BuildingBlock: ICAMEG_clean_sbu_1, # of connection points: 4
#     Node 40, Type 0, BuildingBlock: ICAMEG_clean_sbu_1, # of connection points: 4
#     Node 41, Type 0, BuildingBlock: ICAMEG_clean_sbu_1, # of connection points: 4
#     Node 42, Type 0, BuildingBlock: ICAMEG_clean_sbu_1, # of connection points: 4
#     Node 43, Type 0, BuildingBlock: ICAMEG_clean_sbu_1, # of connection points: 4
#     Node 44, Type 0, BuildingBlock: ICAMEG_clean_sbu_1, # of connection points: 4
#     Node 45, Type 0, BuildingBlock: ICAMEG_clean_sbu_1, # of connection points: 4
#     Node 46, Type 0, BuildingBlock: ICAMEG_clean_sbu_1, # of connection points: 4
#     Node 47, Type 0, BuildingBlock: ICAMEG_clean_sbu_1, # of connection points: 4
#     Edge 48, Type (0, 0), BuildingBlock: ZUJKAS_clean_linker_0, # of connection points: 2
#     Edge 49, Type (0, 0), BuildingBlock: ZUJKAS_clean_linker_0, # of connection points: 2
#     Edge 50, Type (0, 0), BuildingBlock: ZUJKAS_clean_linker_0, # of connection points: 2
#     Edge 51, Type (0, 0), BuildingBlock: ZUJKAS_clean_linker_0, # of connection points: 2
#     Edge 52, Type (0, 0), BuildingBlock: ZUJKAS_clean_linker_0, # of connection points: 2
#     Edge 53, Type (0, 0), BuildingBlock: ZUJKAS_clean_linker_0, # of connection points: 2
#     Edge 54, Type (0, 0), BuildingBlock: ZUJKAS_clean_linker_0, # of connection points: 2
#     Edge 55, Type (0, 0), BuildingBlock: ZUJKAS_clean_linker_0, # of connection points: 2
#     Edge 56, Type (0, 0), BuildingBlock: ZUJKAS_clean_linker_0, # of connection points: 2
#     Edge 57, Type (0, 0), BuildingBlock: ZUJKAS_clean_linker_0, # of connection points: 2
#     Edge 58, Type (0, 0), BuildingBlock: ZUJKAS_clean_linker_0, # of connection points: 2
#     Edge 59, Type (0, 0), BuildingBlock: ZUJKAS_clean_linker_0, # of connection points: 2
#     Edge 60, Type (0, 0), BuildingBlock: ZUJKAS_clean_linker_0, # of connection points: 2
#     Edge 61, Type (0, 0), BuildingBlock: ZUJKAS_clean_linker_0, # of connection points: 2
#     Edge 62, Type (0, 0), BuildingBlock: ZUJKAS_clean_linker_0, # of connection points: 2
#     Edge 63, Type (0, 0), BuildingBlock: ZUJKAS_clean_linker_0, # of connection points: 2
#     Edge 64, Type (0, 0), BuildingBlock: ZUJKAS_clean_linker_0, # of connection points: 2
#     Edge 65, Type (0, 0), BuildingBlock: ZUJKAS_clean_linker_0, # of connection points: 2
#     Edge 66, Type (0, 0), BuildingBlock: ZUJKAS_clean_linker_0, # of connection points: 2
#     Edge 67, Type (0, 0), BuildingBlock: ZUJKAS_clean_linker_0, # of connection points: 2
#     Edge 68, Type (0, 0), BuildingBlock: ZUJKAS_clean_linker_0, # of connection points: 2
#     Edge 69, Type (0, 0), BuildingBlock: ZUJKAS_clean_linker_0, # of connection points: 2
#     Edge 70, Type (0, 0), BuildingBlock: ZUJKAS_clean_linker_0, # of connection points: 2
#     Edge 71, Type (0, 0), BuildingBlock: ZUJKAS_clean_linker_0, # of connection points: 2
#     Edge 72, Type (0, 0), BuildingBlock: ZUJKAS_clean_linker_0, # of connection points: 2
#     Edge 73, Type (0, 0), BuildingBlock: ZUJKAS_clean_linker_0, # of connection points: 2
#     Edge 74, Type (0, 0), BuildingBlock: ZUJKAS_clean_linker_0, # of connection points: 2
#     Edge 75, Type (0, 0), BuildingBlock: ZUJKAS_clean_linker_0, # of connection points: 2
#     Edge 76, Type (0, 0), BuildingBlock: ZUJKAS_clean_linker_0, # of connection points: 2
#     Edge 77, Type (0, 0), BuildingBlock: ZUJKAS_clean_linker_0, # of connection points: 2
#     Edge 78, Type (0, 0), BuildingBlock: ZUJKAS_clean_linker_0, # of connection points: 2
#     Edge 79, Type (0, 0), BuildingBlock: ZUJKAS_clean_linker_0, # of connection points: 2
#     Edge 80, Type (0, 0), BuildingBlock: ZUJKAS_clean_linker_0, # of connection points: 2
#     Edge 81, Type (0, 0), BuildingBlock: ZUJKAS_clean_linker_0, # of connection points: 2
#     Edge 82, Type (0, 0), BuildingBlock: ZUJKAS_clean_linker_0, # of connection points: 2
#     Edge 83, Type (0, 0), BuildingBlock: ZUJKAS_clean_linker_0, # of connection points: 2
#     Edge 84, Type (0, 0), BuildingBlock: ZUJKAS_clean_linker_0, # of connection points: 2
#     Edge 85, Type (0, 0), BuildingBlock: ZUJKAS_clean_linker_0, # of connection points: 2
#     Edge 86, Type (0, 0), BuildingBlock: ZUJKAS_clean_linker_0, # of connection points: 2
#     Edge 87, Type (0, 0), BuildingBlock: ZUJKAS_clean_linker_0, # of connection points: 2
#     Edge 88, Type (0, 0), BuildingBlock: ZUJKAS_clean_linker_0, # of connection points: 2
#     Edge 89, Type (0, 0), BuildingBlock: ZUJKAS_clean_linker_0, # of connection points: 2
#     Edge 90, Type (0, 0), BuildingBlock: ZUJKAS_clean_linker_0, # of connection points: 2
#     Edge 91, Type (0, 0), BuildingBlock: ZUJKAS_clean_linker_0, # of connection points: 2
#     Edge 92, Type (0, 0), BuildingBlock: ZUJKAS_clean_linker_0, # of connection points: 2
#     Edge 93, Type (0, 0), BuildingBlock: ZUJKAS_clean_linker_0, # of connection points: 2
#     Edge 94, Type (0, 0), BuildingBlock: ZUJKAS_clean_linker_0, # of connection points: 2
#     Edge 95, Type (0, 0), BuildingBlock: ZUJKAS_clean_linker_0, # of connection points: 2
#     Edge 96, Type (0, 0), BuildingBlock: ZUJKAS_clean_linker_0, # of connection points: 2
#     Edge 97, Type (0, 0), BuildingBlock: ZUJKAS_clean_linker_0, # of connection points: 2
#     Edge 98, Type (0, 0), BuildingBlock: ZUJKAS_clean_linker_0, # of connection points: 2
#     Edge 99, Type (0, 0), BuildingBlock: ZUJKAS_clean_linker_0, # of connection points: 2
#     Edge 100, Type (0, 0), BuildingBlock: ZUJKAS_clean_linker_0, # of connection points: 2
#     Edge 101, Type (0, 0), BuildingBlock: ZUJKAS_clean_linker_0, # of connection points: 2
#     Edge 102, Type (0, 0), BuildingBlock: ZUJKAS_clean_linker_0, # of connection points: 2
#     Edge 103, Type (0, 0), BuildingBlock: ZUJKAS_clean_linker_0, # of connection points: 2
#     Edge 104, Type (0, 0), BuildingBlock: ZUJKAS_clean_linker_0, # of connection points: 2
#     Edge 105, Type (0, 0), BuildingBlock: ZUJKAS_clean_linker_0, # of connection points: 2
#     Edge 106, Type (0, 0), BuildingBlock: ZUJKAS_clean_linker_0, # of connection points: 2
#     Edge 107, Type (0, 0), BuildingBlock: ZUJKAS_clean_linker_0, # of connection points: 2
#     Edge 108, Type (0, 0), BuildingBlock: ZUJKAS_clean_linker_0, # of connection points: 2
#     Edge 109, Type (0, 0), BuildingBlock: ZUJKAS_clean_linker_0, # of connection points: 2
#     Edge 110, Type (0, 0), BuildingBlock: ZUJKAS_clean_linker_0, # of connection points: 2
#     Edge 111, Type (0, 0), BuildingBlock: ZUJKAS_clean_linker_0, # of connection points: 2
#     Edge 112, Type (0, 0), BuildingBlock: ZUJKAS_clean_linker_0, # of connection points: 2
#     Edge 113, Type (0, 0), BuildingBlock: ZUJKAS_clean_linker_0, # of connection points: 2
#     Edge 114, Type (0, 0), BuildingBlock: ZUJKAS_clean_linker_0, # of connection points: 2
#     Edge 115, Type (0, 0), BuildingBlock: ZUJKAS_clean_linker_0, # of connection points: 2
#     Edge 116, Type (0, 0), BuildingBlock: ZUJKAS_clean_linker_0, # of connection points: 2
#     Edge 117, Type (0, 0), BuildingBlock: ZUJKAS_clean_linker_0, # of connection points: 2
#     Edge 118, Type (0, 0), BuildingBlock: ZUJKAS_clean_linker_0, # of connection points: 2
#     Edge 119, Type (0, 0), BuildingBlock: ZUJKAS_clean_linker_0, # of connection points: 2
#     Edge 120, Type (0, 0), BuildingBlock: ZUJKAS_clean_linker_0, # of connection points: 2
#     Edge 121, Type (0, 0), BuildingBlock: ZUJKAS_clean_linker_0, # of connection points: 2
#     Edge 122, Type (0, 0), BuildingBlock: ZUJKAS_clean_linker_0, # of connection points: 2
#     Edge 123, Type (0, 0), BuildingBlock: ZUJKAS_clean_linker_0, # of connection points: 2
#     Edge 124, Type (0, 0), BuildingBlock: ZUJKAS_clean_linker_0, # of connection points: 2
#     Edge 125, Type (0, 0), BuildingBlock: ZUJKAS_clean_linker_0, # of connection points: 2
#     Edge 126, Type (0, 0), BuildingBlock: ZUJKAS_clean_linker_0, # of connection points: 2
#     Edge 127, Type (0, 0), BuildingBlock: ZUJKAS_clean_linker_0, # of connection points: 2
#     Edge 128, Type (0, 0), BuildingBlock: ZUJKAS_clean_linker_0, # of connection points: 2
#     Edge 129, Type (0, 0), BuildingBlock: ZUJKAS_clean_linker_0, # of connection points: 2
#     Edge 130, Type (0, 0), BuildingBlock: ZUJKAS_clean_linker_0, # of connection points: 2
#     Edge 131, Type (0, 0), BuildingBlock: ZUJKAS_clean_linker_0, # of connection points: 2
#     Edge 132, Type (0, 0), BuildingBlock: ZUJKAS_clean_linker_0, # of connection points: 2
#     Edge 133, Type (0, 0), BuildingBlock: ZUJKAS_clean_linker_0, # of connection points: 2
#     Edge 134, Type (0, 0), BuildingBlock: ZUJKAS_clean_linker_0, # of connection points: 2
#     Edge 135, Type (0, 0), BuildingBlock: ZUJKAS_clean_linker_0, # of connection points: 2
#     Edge 136, Type (0, 0), BuildingBlock: ZUJKAS_clean_linker_0, # of connection points: 2
#     Edge 137, Type (0, 0), BuildingBlock: ZUJKAS_clean_linker_0, # of connection points: 2
#     Edge 138, Type (0, 0), BuildingBlock: ZUJKAS_clean_linker_0, # of connection points: 2
#     Edge 139, Type (0, 0), BuildingBlock: ZUJKAS_clean_linker_0, # of connection points: 2
#     Edge 140, Type (0, 0), BuildingBlock: ZUJKAS_clean_linker_0, # of connection points: 2
#     Edge 141, Type (0, 0), BuildingBlock: ZUJKAS_clean_linker_0, # of connection points: 2
#     Edge 142, Type (0, 0), BuildingBlock: ZUJKAS_clean_linker_0, # of connection points: 2
#     Edge 143, Type (0, 0), BuildingBlock: ZUJKAS_clean_linker_0, # of connection points: 2
# Relax obj value: 0.318
# Max RMSD: 0.137
# Mean RMSD: 0.109
data_MOF--net-nfb--node1-ICAMEG_clean_sbu_1--edge1-ZUJKAS_clean_linker_0
_symmetry_space_group_name_H-M    P1
_symmetry_Int_Tables_number       1
_symmetry_cell_setting            triclinic
loop_
_symmetry_equiv_pos_as_xyz
'x, y, z'
_cell_length_a     80.21562
_cell_length_b     80.364018
_cell_length_c     80.304716
_cell_angle_alpha  90.473535
_cell_angle_beta   91.526282
_cell_angle_gamma 92.900895
loop_
_atom_site_label
_atom_site_type_symbol
_atom_site_fract_x
_atom_site_fract_y
_atom_site_fract_z
_atom_type_partial_charge
Co0 Co 0.12012 0.11074 0.39363 0.0
Co1 Co 0.10899 0.14115 0.42078 0.0
O2 O 0.12346 0.13275 0.40394 0.0
C3 C 0.15496 0.11242 0.40672 0.0
O4 O 0.14853 0.11672 0.42088 0.0
C5 C 0.11161 0.16811 0.396 0.0
O6 O 0.10897 0.15675 0.38426 0.0
O7 O 0.08916 0.13636 0.40599 0.0
O8 O 0.09485 0.11236 0.3932 0.0
H9 H 0.05809 0.14008 0.45597 0.0
H10 H 0.14318 0.13593 0.37833 0.0
O11 O 0.14528 0.10898 0.39411 0.0
H12 H 0.09979 0.12188 0.33513 0.0
H13 H 0.13456 0.06514 0.35403 0.0
H14 H 0.09678 0.08141 0.39812 0.0
H15 H 0.09904 0.10818 0.36249 0.0
H16 H 0.13779 0.09303 0.36718 0.0
O17 O 0.11184 0.16396 0.41126 0.0
H18 H 0.07685 0.12929 0.43504 0.0
H19 H 0.10992 0.1719 0.4419 0.0
H20 H 0.093 0.05345 0.38522 0.0
H21 H 0.1445 0.1498 0.35109 0.0
H22 H 0.11198 0.04517 0.36301 0.0
H23 H 0.12266 0.14284 0.32928 0.0
O24 O 0.11901 0.09989 0.4158 0.0
H25 H 0.16766 0.16304 0.43412 0.0
H26 H 0.11755 0.13388 0.45631 0.0
H27 H 0.14262 0.13868 0.47449 0.0
H28 H 0.16791 0.15336 0.46342 0.0
H29 H 0.14238 0.15784 0.41631 0.0
H30 H 0.09146 0.18321 0.46282 0.0
H31 H 0.06537 0.16723 0.47003 0.0
O32 O 0.10582 0.1186 0.43083 0.0
C33 C 0.08467 0.12342 0.39735 0.0
C34 C 0.06946 0.14713 0.45299 0.0
C35 C 0.08817 0.17135 0.45681 0.0
N36 N 0.09454 0.14988 0.43737 0.0
C37 C 0.08015 0.14106 0.44118 0.0
C38 C 0.09856 0.1649 0.44494 0.0
C39 C 0.07354 0.16237 0.46085 0.0
C40 C 0.13373 0.1327 0.36885 0.0
N41 N 0.12108 0.12121 0.37198 0.0
C42 C 0.1345 0.14065 0.35347 0.0
C43 C 0.12223 0.13676 0.34125 0.0
C44 C 0.10938 0.12502 0.34453 0.0
C45 C 0.10899 0.11734 0.36006 0.0
C46 C 0.12619 0.06862 0.36367 0.0
C47 C 0.10501 0.07793 0.38838 0.0
C48 C 0.12798 0.08437 0.37118 0.0
N49 N 0.11739 0.08887 0.38329 0.0
C50 C 0.10285 0.06206 0.38116 0.0
C51 C 0.11351 0.05742 0.36871 0.0
C52 C 0.11136 0.10416 0.42874 0.0
C53 C 0.1567 0.15668 0.43911 0.0
C54 C 0.12851 0.14026 0.45138 0.0
C55 C 0.14266 0.14297 0.46175 0.0
C56 C 0.15684 0.15122 0.45553 0.0
N57 N 0.12847 0.14564 0.43528 0.0
C58 C 0.14232 0.15378 0.42911 0.0
Co59 Co 0.36953 0.64826 0.91507 0.0
Co60 Co 0.37887 0.63799 0.87471 0.0
O61 O 0.38096 0.63512 0.89881 0.0
C62 C 0.40518 0.65013 0.92657 0.0
O63 O 0.40989 0.65039 0.91106 0.0
C64 C 0.36897 0.60239 0.88022 0.0
O65 O 0.35871 0.608 0.89117 0.0
O66 O 0.35406 0.63738 0.87546 0.0
O67 O 0.34891 0.64795 0.90064 0.0
H68 H 0.35709 0.66297 0.8218 0.0
H69 H 0.3854 0.61745 0.92573 0.0
O70 O 0.38979 0.6491 0.9301 0.0
H71 H 0.32575 0.60826 0.93801 0.0
H72 H 0.35377 0.66466 0.97299 0.0
H73 H 0.3479 0.67706 0.91314 0.0
H74 H 0.33625 0.63478 0.926 0.0
H75 H 0.36759 0.64783 0.95211 0.0
O76 O 0.37802 0.61277 0.87194 0.0
H77 H 0.35989 0.6597 0.85226 0.0
H78 H 0.39346 0.62112 0.84576 0.0
H79 H 0.33376 0.69414 0.93359 0.0
H80 H 0.37544 0.59078 0.93787 0.0
H81 H 0.33666 0.68797 0.96376 0.0
H82 H 0.34541 0.58603 0.94404 0.0
O83 O 0.3778 0.6692 0.90465 0.0
H84 H 0.43593 0.61736 0.88733 0.0
H85 H 0.40446 0.66073 0.85925 0.0
H86 H 0.4352 0.66193 0.85826 0.0
H87 H 0.45114 0.64011 0.87233 0.0
H88 H 0.4052 0.61677 0.88821 0.0
H89 H 0.39093 0.62386 0.81522 0.0
H90 H 0.37269 0.64496 0.80306 0.0
O91 O 0.37966 0.66327 0.87733 0.0
C92 C 0.34414 0.64281 0.88616 0.0
C93 C 0.36512 0.65377 0.82695 0.0
C94 C 0.3841 0.63181 0.82325 0.0
N95 N 0.37694 0.64034 0.85075 0.0
C96 C 0.3668 0.6519 0.84418 0.0
C97 C 0.38546 0.63029 0.84054 0.0
C98 C 0.37387 0.64365 0.81644 0.0
C99 C 0.37234 0.61554 0.92855 0.0
N100 N 0.36144 0.62769 0.92525 0.0
C101 C 0.36677 0.60039 0.93536 0.0
C102 C 0.34991 0.59772 0.93879 0.0
C103 C 0.33887 0.61018 0.9354 0.0
C104 C 0.34489 0.62517 0.92857 0.0
C105 C 0.35238 0.66744 0.95988 0.0
C106 C 0.34912 0.67423 0.92624 0.0
C107 C 0.36019 0.65797 0.948 0.0
N108 N 0.35841 0.66136 0.93141 0.0
C109 C 0.34113 0.68397 0.93776 0.0
C110 C 0.34277 0.68052 0.95469 0.0
C111 C 0.38001 0.67364 0.88962 0.0
C112 C 0.42912 0.62692 0.88111 0.0
C113 C 0.41131 0.65125 0.8655 0.0
C114 C 0.42871 0.65196 0.86484 0.0
C115 C 0.43765 0.6397 0.87272 0.0
N116 N 0.40304 0.63867 0.87375 0.0
C117 C 0.41171 0.6266 0.88149 0.0
Co118 Co 0.88869 0.90164 0.39629 0.0
Co119 Co 0.90077 0.87119 0.42301 0.0
O120 O 0.88562 0.87969 0.40622 0.0
C121 C 0.85442 0.90045 0.40915 0.0
O122 O 0.86145 0.89615 0.42332 0.0
C123 C 0.89747 0.84387 0.39797 0.0
O124 O 0.9014 0.85479 0.38647 0.0
O125 O 0.92002 0.87573 0.4084 0.0
O126 O 0.91387 0.89972 0.39593 0.0
H127 H 0.9533 0.87168 0.45857 0.0
H128 H 0.86482 0.87639 0.38061 0.0
O129 O 0.86357 0.90367 0.39666 0.0
H130 H 0.90598 0.89017 0.33768 0.0
H131 H 0.87283 0.9473 0.35736 0.0
H132 H 0.91258 0.93074 0.40135 0.0
H133 H 0.90816 0.90403 0.36523 0.0
H134 H 0.86993 0.91947 0.37004 0.0
O135 O 0.89695 0.84837 0.41317 0.0
H136 H 0.93372 0.88267 0.43768 0.0
H137 H 0.90044 0.84046 0.44359 0.0
H138 H 0.91604 0.95863 0.38892 0.0
H139 H 0.86209 0.86233 0.35318 0.0
H140 H 0.89606 0.96707 0.36675 0.0
H141 H 0.8828 0.86918 0.3315 0.0
O142 O 0.89104 0.91256 0.41867 0.0
H143 H 0.84246 0.85021 0.43578 0.0
H144 H 0.89409 0.87868 0.45863 0.0
H145 H 0.86988 0.8743 0.47665 0.0
H146 H 0.84383 0.85995 0.46524 0.0
H147 H 0.8669 0.855 0.41814 0.0
H148 H 0.91971 0.82895 0.46446 0.0
H149 H 0.94632 0.84463 0.47212 0.0
O150 O 0.90476 0.89372 0.4334 0.0
C151 C 0.92417 0.8886 0.39995 0.0
C152 C 0.94171 0.86476 0.45538 0.0
C153 C 0.92286 0.84077 0.45867 0.0
N154 N 0.91589 0.8623 0.43954 0.0
C155 C 0.93056 0.87094 0.4436 0.0
C156 C 0.91202 0.84733 0.44683 0.0
C157 C 0.9378 0.84958 0.46297 0.0
C158 C 0.87379 0.87954 0.37119 0.0
N159 N 0.88658 0.89108 0.37448 0.0
C160 C 0.87222 0.8715 0.3557 0.0
C161 C 0.88385 0.87533 0.34355 0.0
C162 C 0.89687 0.8871 0.34701 0.0
C163 C 0.89806 0.89488 0.36265 0.0
C164 C 0.88163 0.94376 0.36698 0.0
C165 C 0.90391 0.93429 0.39163 0.0
C166 C 0.88003 0.92804 0.37422 0.0
N167 N 0.89116 0.92346 0.38631 0.0
C168 C 0.9059 0.95011 0.38468 0.0
C169 C 0.89467 0.95484 0.37225 0.0
C170 C 0.89928 0.90824 0.43158 0.0
C171 C 0.85376 0.85642 0.44091 0.0
C172 C 0.88279 0.87246 0.45355 0.0
C173 C 0.86913 0.86998 0.46383 0.0
C174 C 0.85452 0.86192 0.45743 0.0
N175 N 0.88194 0.86704 0.43735 0.0
C176 C 0.86767 0.85909 0.431 0.0
Co177 Co 0.6577 0.36619 0.92021 0.0
Co178 Co 0.64478 0.37358 0.87995 0.0
O179 O 0.64477 0.37797 0.90378 0.0
C180 C 0.62327 0.36287 0.93275 0.0
O181 O 0.61816 0.35675 0.91818 0.0
C182 C 0.65466 0.4096 0.88331 0.0
O183 O 0.66668 0.40485 0.89332 0.0
O184 O 0.6697 0.37472 0.8799 0.0
O185 O 0.67701 0.36533 0.9052 0.0
H186 H 0.66233 0.34577 0.82744 0.0
H187 H 0.64268 0.39786 0.92944 0.0
O188 O 0.63864 0.36694 0.9356 0.0
H189 H 0.70329 0.40784 0.93952 0.0
H190 H 0.67818 0.35446 0.97853 0.0
H191 H 0.67941 0.3374 0.91946 0.0
H192 H 0.69181 0.38045 0.92938 0.0
H193 H 0.66255 0.36952 0.95704 0.0
O194 O 0.64464 0.39862 0.87628 0.0
H195 H 0.6622 0.35087 0.85778 0.0
H196 H 0.62726 0.38835 0.85092 0.0
H197 H 0.69532 0.32207 0.94052 0.0
H198 H 0.65362 0.4254 0.9397 0.0
H199 H 0.69477 0.33059 0.9703 0.0
H200 H 0.68414 0.43054 0.94476 0.0
O201 O 0.64883 0.34439 0.91113 0.0
H202 H 0.58839 0.39287 0.89483 0.0
H203 H 0.61844 0.34959 0.86591 0.0
H204 H 0.58767 0.34735 0.8664 0.0
H205 H 0.57245 0.36912 0.88091 0.0
H206 H 0.61915 0.39455 0.89416 0.0
H207 H 0.6271 0.38376 0.82048 0.0
H208 H 0.64467 0.36229 0.80858 0.0
O209 O 0.64485 0.34854 0.88365 0.0
C210 C 0.68052 0.36979 0.89046 0.0
C211 C 0.65457 0.35512 0.83248 0.0
C212 C 0.63482 0.37647 0.82858 0.0
N213 N 0.64464 0.36979 0.85609 0.0
C214 C 0.65442 0.35803 0.84965 0.0
C215 C 0.63499 0.37903 0.8458 0.0
C216 C 0.64468 0.36441 0.8219 0.0
C217 C 0.65596 0.39994 0.93178 0.0
N218 N 0.66658 0.38752 0.92891 0.0
C219 C 0.66209 0.41559 0.93752 0.0
C220 C 0.67921 0.41847 0.94033 0.0
C221 C 0.68996 0.40574 0.93739 0.0
C222 C 0.68339 0.39026 0.93162 0.0
C223 C 0.67856 0.35066 0.96559 0.0
C224 C 0.67921 0.34125 0.93238 0.0
C225 C 0.66972 0.35912 0.95337 0.0
N226 N 0.67021 0.35444 0.937 0.0
C227 C 0.6882 0.33249 0.94425 0.0
C228 C 0.68787 0.33727 0.96096 0.0
C229 C 0.64572 0.33895 0.89634 0.0
C230 C 0.59488 0.38334 0.88842 0.0
C231 C 0.6119 0.35909 0.87228 0.0
C232 C 0.59448 0.35777 0.87249 0.0
C233 C 0.58594 0.37 0.88063 0.0
N234 N 0.62057 0.37223 0.87992 0.0
C235 C 0.61229 0.38425 0.88794 0.0
Co236 Co 0.14067 0.87486 0.63454 0.0
Co237 Co 0.14671 0.86445 0.59365 0.0
O238 O 0.13551 0.87641 0.61081 0.0
C239 C 0.10455 0.8657 0.63089 0.0
O240 O 0.10904 0.85477 0.61986 0.0
C241 C 0.14981 0.89946 0.58211 0.0
O242 O 0.15665 0.90391 0.59661 0.0
O243 O 0.16882 0.87284 0.60267 0.0
O244 O 0.16558 0.87487 0.63037 0.0
H245 H 0.19032 0.82831 0.57102 0.0
H246 H 0.11938 0.90143 0.62194 0.0
O247 O 0.11578 0.87483 0.63869 0.0
H248 H 0.16777 0.93086 0.65019 0.0
H249 H 0.13259 0.88886 0.69487 0.0
H250 H 0.16405 0.856 0.65545 0.0
H251 H 0.16535 0.90015 0.64929 0.0
H252 H 0.12698 0.8906 0.66458 0.0
O253 O 0.1454 0.88429 0.57901 0.0
H254 H 0.17568 0.84294 0.59296 0.0
H255 H 0.14203 0.86157 0.55677 0.0
H256 H 0.17017 0.85397 0.68562 0.0
H257 H 0.12124 0.93216 0.62266 0.0
H258 H 0.15437 0.87049 0.70555 0.0
H259 H 0.14559 0.94708 0.63683 0.0
O260 O 0.13936 0.85001 0.6335 0.0
H261 H 0.08677 0.86946 0.57541 0.0
H262 H 0.13212 0.83087 0.58353 0.0
H263 H 0.10434 0.81991 0.57353 0.0
H264 H 0.08143 0.83926 0.56941 0.0
H265 H 0.1147 0.87988 0.58552 0.0
H266 H 0.15639 0.84724 0.53441 0.0
H267 H 0.18068 0.83041 0.54149 0.0
O268 O 0.14817 0.84436 0.60785 0.0
C269 C 0.17475 0.87485 0.6175 0.0
C270 C 0.17971 0.83554 0.56778 0.0
C271 C 0.16067 0.84619 0.54723 0.0
N272 N 0.1579 0.85294 0.57617 0.0
C273 C 0.17133 0.8438 0.58016 0.0
C274 C 0.15261 0.85429 0.55994 0.0
C275 C 0.1743 0.83674 0.55122 0.0
C276 C 0.12995 0.90783 0.62826 0.0
N277 N 0.14219 0.89901 0.63565 0.0
C278 C 0.13096 0.92523 0.62857 0.0
C279 C 0.14464 0.93359 0.6365 0.0
C280 C 0.15709 0.92451 0.64399 0.0
C281 C 0.15567 0.90712 0.64342 0.0
C282 C 0.13957 0.88162 0.68631 0.0
C283 C 0.1572 0.8633 0.66405 0.0
C284 C 0.13642 0.88253 0.66916 0.0
N285 N 0.14527 0.87351 0.65828 0.0
C286 C 0.16068 0.86206 0.68111 0.0
C287 C 0.1518 0.87132 0.69229 0.0
C288 C 0.14413 0.83992 0.62246 0.0
C289 C 0.09667 0.86091 0.5771 0.0
C290 C 0.12222 0.83938 0.58178 0.0
C291 C 0.10652 0.8331 0.57609 0.0
C292 C 0.09367 0.84396 0.57377 0.0
N293 N 0.12506 0.85602 0.58503 0.0
C294 C 0.11253 0.86675 0.58275 0.0
Co295 Co 0.64528 0.61504 0.09402 0.0
Co296 Co 0.61394 0.62655 0.11921 0.0
O297 O 0.63621 0.62995 0.11027 0.0
C298 C 0.67211 0.61874 0.12008 0.0
O299 O 0.6609 0.61497 0.13126 0.0
C300 C 0.61525 0.66104 0.10635 0.0
O301 O 0.62012 0.65432 0.09246 0.0
O302 O 0.60366 0.6245 0.09638 0.0
O303 O 0.62295 0.61086 0.08278 0.0
H304 H 0.55681 0.59866 0.12402 0.0
H305 H 0.66106 0.64896 0.09907 0.0
O306 O 0.66792 0.61902 0.1047 0.0
H307 H 0.64306 0.64613 0.03988 0.0
H308 H 0.68873 0.59685 0.05456 0.0
H309 H 0.63444 0.58213 0.07938 0.0
H310 H 0.63848 0.62184 0.05804 0.0
H311 H 0.67653 0.61584 0.07466 0.0
O312 O 0.61168 0.65163 0.11868 0.0
H313 H 0.5851 0.60257 0.11288 0.0
H314 H 0.59517 0.64465 0.14457 0.0
H315 H 0.64612 0.56283 0.05925 0.0
H316 H 0.66604 0.67349 0.08129 0.0
H317 H 0.67346 0.57016 0.04669 0.0
H318 H 0.65694 0.67219 0.05148 0.0
O319 O 0.64063 0.59571 0.10872 0.0
H320 H 0.65188 0.6527 0.16399 0.0
H321 H 0.61083 0.60656 0.15017 0.0
H322 H 0.62393 0.60837 0.17832 0.0
H323 H 0.64459 0.63159 0.18538 0.0
H324 H 0.63859 0.65033 0.13596 0.0
H325 H 0.56694 0.64129 0.15596 0.0
H326 H 0.54757 0.61812 0.14572 0.0
O327 O 0.61604 0.60139 0.11975 0.0
C328 C 0.60836 0.61632 0.08382 0.0
C329 C 0.56516 0.60877 0.12862 0.0
C330 C 0.57083 0.63272 0.14653 0.0
N331 N 0.5918 0.62373 0.12818 0.0
C332 C 0.5812 0.61101 0.1224 0.0
C333 C 0.58678 0.63458 0.14001 0.0
C334 C 0.55997 0.61971 0.14078 0.0
C335 C 0.65725 0.64823 0.08606 0.0
N336 N 0.64955 0.63395 0.0796 0.0
C337 C 0.66003 0.66219 0.07608 0.0
C338 C 0.65489 0.66146 0.05936 0.0
C339 C 0.64709 0.64685 0.05284 0.0
C340 C 0.6445 0.63314 0.06321 0.0
C341 C 0.67679 0.59354 0.05992 0.0
C342 C 0.64629 0.58545 0.0739 0.0
C343 C 0.66983 0.60422 0.07133 0.0
N344 N 0.65471 0.60016 0.07807 0.0
C345 C 0.65287 0.57445 0.06254 0.0
C346 C 0.66821 0.57857 0.05551 0.0
C347 C 0.62745 0.59129 0.11645 0.0
C348 C 0.64285 0.64255 0.16108 0.0
C349 C 0.61985 0.61667 0.15314 0.0
C350 C 0.6272 0.61766 0.16911 0.0
C351 C 0.63878 0.63069 0.17307 0.0
N352 N 0.62389 0.62837 0.14147 0.0
C353 C 0.63524 0.64119 0.14525 0.0
Co354 Co 0.87724 0.12375 0.63641 0.0
Co355 Co 0.86756 0.13337 0.59547 0.0
O356 O 0.88004 0.12149 0.61237 0.0
C357 C 0.91273 0.13387 0.63106 0.0
O358 O 0.9069 0.14371 0.61956 0.0
C359 C 0.86362 0.09752 0.58499 0.0
O360 O 0.86462 0.09268 0.60052 0.0
O361 O 0.84618 0.12698 0.60612 0.0
O362 O 0.85202 0.12276 0.63331 0.0
H363 H 0.82441 0.17221 0.57522 0.0
H364 H 0.8988 0.09768 0.62384 0.0
O365 O 0.9025 0.1249 0.63958 0.0
H366 H 0.85382 0.06738 0.65358 0.0
H367 H 0.89169 0.11201 0.69638 0.0
H368 H 0.85526 0.14244 0.65813 0.0
H369 H 0.85471 0.09805 0.65196 0.0
H370 H 0.8944 0.10947 0.66593 0.0
O371 O 0.86488 0.11288 0.58124 0.0
H372 H 0.84069 0.15733 0.59635 0.0
H373 H 0.86742 0.1342 0.55831 0.0
H374 H 0.85203 0.14524 0.68848 0.0
H375 H 0.89851 0.06704 0.62535 0.0
H376 H 0.87033 0.12995 0.70782 0.0
H377 H 0.87586 0.05168 0.64024 0.0
O378 O 0.8775 0.14855 0.63529 0.0
H379 H 0.92418 0.12235 0.57387 0.0
H380 H 0.88313 0.16502 0.58242 0.0
H381 H 0.91019 0.17307 0.57017 0.0
H382 H 0.93094 0.15164 0.56581 0.0
H383 H 0.89702 0.11489 0.58623 0.0
H384 H 0.85134 0.14872 0.53677 0.0
H385 H 0.8297 0.16793 0.54519 0.0
O386 O 0.86967 0.15424 0.609 0.0
C387 C 0.84168 0.12382 0.62093 0.0
C388 C 0.83385 0.16392 0.5714 0.0
C389 C 0.84895 0.15072 0.54982 0.0
N390 N 0.8551 0.14504 0.57858 0.0
C391 C 0.84314 0.1555 0.5833 0.0
C392 C 0.858 0.14251 0.56207 0.0
C393 C 0.83681 0.1615 0.55455 0.0
C394 C 0.88901 0.09111 0.63051 0.0
N395 N 0.87682 0.09965 0.63785 0.0
C396 C 0.88886 0.07374 0.63125 0.0
C397 C 0.87613 0.06513 0.63958 0.0
C398 C 0.86375 0.07394 0.64705 0.0
C399 C 0.86429 0.0913 0.64604 0.0
C400 C 0.88362 0.11871 0.68808 0.0
C401 C 0.86319 0.13567 0.66648 0.0
C402 C 0.88512 0.11734 0.67084 0.0
N403 N 0.8749 0.1257 0.66029 0.0
C404 C 0.86134 0.13734 0.68364 0.0
C405 C 0.87163 0.12877 0.69449 0.0
C406 C 0.87366 0.15873 0.62388 0.0
C407 C 0.91524 0.13179 0.57568 0.0
C408 C 0.89212 0.15565 0.58064 0.0
C409 C 0.9074 0.16027 0.57364 0.0
C410 C 0.91903 0.14824 0.57119 0.0
N411 N 0.8885 0.13951 0.58504 0.0
C412 C 0.89981 0.12763 0.58262 0.0
Co413 Co 0.36382 0.39069 0.08198 0.0
Co414 Co 0.39355 0.38306 0.11261 0.0
O415 O 0.3718 0.37882 0.1014 0.0
C416 C 0.33759 0.39418 0.10693 0.0
O417 O 0.34939 0.3968 0.11842 0.0
C418 C 0.39291 0.34784 0.10133 0.0
O419 O 0.38808 0.35364 0.08685 0.0
O420 O 0.40552 0.384 0.0911 0.0
O421 O 0.38598 0.38976 0.07165 0.0
H422 H 0.44973 0.41233 0.12312 0.0
H423 H 0.34535 0.36016 0.09334 0.0
O424 O 0.34129 0.39173 0.09182 0.0
H425 H 0.36069 0.348 0.0356 0.0
H426 H 0.32174 0.40417 0.03706 0.0
H427 H 0.37791 0.41806 0.06129 0.0
H428 H 0.36813 0.37545 0.04846 0.0
H429 H 0.33221 0.38896 0.06143 0.0
O430 O 0.39615 0.35801 0.11349 0.0
H431 H 0.42233 0.40727 0.10879 0.0
H432 H 0.41088 0.36675 0.14085 0.0
H433 H 0.36799 0.43348 0.03682 0.0
H434 H 0.33754 0.33259 0.08093 0.0
H435 H 0.33971 0.42656 0.02455 0.0
H436 H 0.34529 0.32634 0.05188 0.0
O437 O 0.3707 0.41254 0.09254 0.0
H438 H 0.35324 0.35893 0.15393 0.0
H439 H 0.39429 0.40497 0.14275 0.0
H440 H 0.37941 0.40466 0.16924 0.0
H441 H 0.35872 0.38151 0.17497 0.0
H442 H 0.36831 0.3598 0.12755 0.0
H443 H 0.43822 0.37128 0.15545 0.0
H444 H 0.45783 0.39425 0.14663 0.0
O445 O 0.39105 0.40802 0.1116 0.0
C446 C 0.40093 0.38706 0.07617 0.0
C447 C 0.44128 0.40231 0.12711 0.0
C448 C 0.43483 0.37925 0.14524 0.0
N449 N 0.41499 0.38681 0.12407 0.0
C450 C 0.42573 0.39942 0.11908 0.0
C451 C 0.41939 0.37672 0.13691 0.0
C452 C 0.44582 0.39215 0.14029 0.0
C453 C 0.34862 0.35759 0.08064 0.0
N454 N 0.35716 0.3694 0.07163 0.0
C455 C 0.34422 0.34193 0.0737 0.0
C456 C 0.3486 0.33843 0.05741 0.0
C457 C 0.35725 0.35057 0.04827 0.0
C458 C 0.36146 0.36607 0.05563 0.0
C459 C 0.33409 0.40728 0.04228 0.0
C460 C 0.36563 0.41491 0.05595 0.0
C461 C 0.34007 0.39874 0.0561 0.0
N462 N 0.3557 0.40255 0.0627 0.0
C463 C 0.36006 0.42372 0.04213 0.0
C464 C 0.34419 0.41984 0.03526 0.0
C465 C 0.38169 0.41775 0.10342 0.0
C466 C 0.36227 0.36906 0.1516 0.0
C467 C 0.38529 0.39487 0.14514 0.0
C468 C 0.37692 0.39475 0.16018 0.0
C469 C 0.36533 0.38174 0.16339 0.0
N470 N 0.38223 0.38238 0.13365 0.0
C471 C 0.37089 0.36958 0.13672 0.0
Co472 Co 0.41689 0.12244 0.14126 0.0
Co473 Co 0.3894 0.13322 0.11021 0.0
O474 O 0.39988 0.13655 0.1323 0.0
C475 C 0.39257 0.12416 0.1683 0.0
O476 O 0.38045 0.12185 0.15708 0.0
C477 C 0.40223 0.16844 0.1111 0.0
O478 O 0.41652 0.16244 0.11579 0.0
O479 O 0.41156 0.13287 0.09961 0.0
O480 O 0.42666 0.11978 0.11888 0.0
H481 H 0.38075 0.10667 0.05358 0.0
H482 H 0.41257 0.15541 0.15694 0.0
O483 O 0.40774 0.1247 0.16399 0.0
H484 H 0.47064 0.15734 0.1381 0.0
H485 H 0.4597 0.10547 0.184 0.0
H486 H 0.43096 0.09081 0.13043 0.0
H487 H 0.4524 0.13194 0.13393 0.0
H488 H 0.43859 0.12354 0.17204 0.0
O489 O 0.3897 0.15838 0.10772 0.0
H490 H 0.39382 0.11044 0.08161 0.0
H491 H 0.36267 0.1503 0.09166 0.0
H492 H 0.45207 0.07245 0.14187 0.0
H493 H 0.43044 0.18101 0.1615 0.0
H494 H 0.46662 0.07975 0.16884 0.0
H495 H 0.45968 0.18211 0.15198 0.0
O496 O 0.402 0.10235 0.13698 0.0
H497 H 0.34684 0.15582 0.14803 0.0
H498 H 0.3583 0.11131 0.1079 0.0
H499 H 0.33093 0.11113 0.1212 0.0
H500 H 0.32505 0.13352 0.1414 0.0
H501 H 0.3741 0.15543 0.13457 0.0
H502 H 0.34935 0.14707 0.06369 0.0
H503 H 0.35834 0.12508 0.04446 0.0
O504 O 0.38911 0.10795 0.11258 0.0
C505 C 0.42453 0.12542 0.10423 0.0
C506 C 0.37668 0.11626 0.06186 0.0
C507 C 0.35907 0.13895 0.06753 0.0
N508 N 0.3789 0.13047 0.08829 0.0
C509 C 0.384 0.11842 0.07776 0.0
C510 C 0.36668 0.14074 0.08333 0.0
C511 C 0.36412 0.1266 0.05675 0.0
C512 C 0.42535 0.15572 0.15295 0.0
N513 N 0.43145 0.14217 0.14525 0.0
C514 C 0.43538 0.17028 0.15549 0.0
C515 C 0.45178 0.1709 0.15012 0.0
C516 C 0.45793 0.15701 0.14231 0.0
C517 C 0.44753 0.14268 0.13995 0.0
C518 C 0.45348 0.10218 0.17222 0.0
C519 C 0.4373 0.09412 0.14213 0.0
C520 C 0.44149 0.11234 0.1654 0.0
N521 N 0.43366 0.10831 0.15048 0.0
C522 C 0.44922 0.08365 0.14856 0.0
C523 C 0.45736 0.08775 0.1637 0.0
C524 C 0.39333 0.09778 0.12404 0.0
C525 C 0.34924 0.14603 0.13921 0.0
C526 C 0.35586 0.12106 0.11673 0.0
C527 C 0.34032 0.12091 0.12419 0.0
C528 C 0.33702 0.13349 0.13551 0.0
N529 N 0.36777 0.1334 0.12042 0.0
C530 C 0.36462 0.14578 0.13149 0.0
Co531 Co 0.38968 0.87308 0.63105 0.0
Co532 Co 0.38393 0.91505 0.63663 0.0
O533 O 0.39462 0.89655 0.62633 0.0
C534 C 0.42549 0.87927 0.63993 0.0
O535 O 0.42048 0.89194 0.64855 0.0
C536 C 0.37112 0.93242 0.6071 0.0
O537 O 0.35626 0.93041 0.61351 0.0
O538 O 0.36158 0.90414 0.63166 0.0
O539 O 0.36478 0.87649 0.63009 0.0
H540 H 0.3423 0.94171 0.6727 0.0
H541 H 0.41197 0.88259 0.6034 0.0
O542 O 0.41464 0.86968 0.63214 0.0
H543 H 0.36498 0.84907 0.57727 0.0
H544 H 0.39887 0.81184 0.62553 0.0
H545 H 0.36573 0.85418 0.65217 0.0
H546 H 0.36605 0.85442 0.60758 0.0
H547 H 0.40425 0.84171 0.61974 0.0
O548 O 0.38369 0.92632 0.61442 0.0
H549 H 0.35627 0.91826 0.66004 0.0
H550 H 0.38867 0.95209 0.63441 0.0
H551 H 0.35983 0.82444 0.65822 0.0
H552 H 0.41148 0.87742 0.57306 0.0
H553 H 0.37647 0.80304 0.64484 0.0
H554 H 0.38785 0.86056 0.55981 0.0
O555 O 0.39004 0.87729 0.65557 0.0
H556 H 0.44279 0.93387 0.62348 0.0
H557 H 0.4007 0.93032 0.66713 0.0
H558 H 0.42891 0.9425 0.67396 0.0
H559 H 0.45018 0.94434 0.65205 0.0
H560 H 0.41448 0.92164 0.61721 0.0
H561 H 0.37501 0.9759 0.64674 0.0
H562 H 0.35166 0.97078 0.66605 0.0
O563 O 0.38407 0.90411 0.65877 0.0
C564 C 0.35564 0.88915 0.63017 0.0
C565 C 0.35249 0.9441 0.66433 0.0
C566 C 0.37084 0.96329 0.64976 0.0
N567 N 0.37331 0.93379 0.64656 0.0
C568 C 0.36046 0.93087 0.65714 0.0
C569 C 0.37853 0.94976 0.64282 0.0
C570 C 0.35774 0.96041 0.66059 0.0
C571 C 0.4017 0.87515 0.59774 0.0
N572 N 0.3891 0.86873 0.60725 0.0
C573 C 0.40146 0.87231 0.58055 0.0
C574 C 0.38819 0.86286 0.57311 0.0
C575 C 0.37535 0.85642 0.5829 0.0
C576 C 0.376 0.85953 0.60005 0.0
C577 C 0.39151 0.82104 0.63141 0.0
C578 C 0.37294 0.84493 0.64623 0.0
C579 C 0.39453 0.83797 0.6282 0.0
N580 N 0.38522 0.84964 0.63552 0.0
C581 C 0.36958 0.82812 0.64974 0.0
C582 C 0.37894 0.81612 0.64224 0.0
C583 C 0.38681 0.88979 0.66462 0.0
C584 C 0.43361 0.9332 0.63311 0.0
C585 C 0.40988 0.93106 0.65752 0.0
C586 C 0.42583 0.938 0.66146 0.0
C587 C 0.43775 0.93904 0.64915 0.0
N588 N 0.4059 0.92537 0.64175 0.0
C589 C 0.41753 0.92636 0.62962 0.0
Co590 Co 0.59253 0.88973 0.13956 0.0
Co591 Co 0.61891 0.87618 0.11039 0.0
O592 O 0.60861 0.87413 0.13206 0.0
C593 C 0.616 0.88693 0.16832 0.0
O594 O 0.62833 0.88878 0.15796 0.0
C595 C 0.60618 0.84088 0.11173 0.0
O596 O 0.59181 0.84692 0.1154 0.0
O597 O 0.59652 0.87575 0.09915 0.0
O598 O 0.5835 0.89271 0.11632 0.0
H599 H 0.62645 0.8992 0.05295 0.0
H600 H 0.59374 0.85672 0.15564 0.0
O601 O 0.60093 0.88715 0.16298 0.0
H602 H 0.53647 0.85902 0.13216 0.0
H603 H 0.55063 0.91117 0.17899 0.0
H604 H 0.58115 0.92214 0.1274 0.0
H605 H 0.55671 0.8829 0.12945 0.0
H606 H 0.57034 0.89111 0.16871 0.0
O607 O 0.61868 0.8509 0.10893 0.0
H608 H 0.61387 0.8971 0.08061 0.0
H609 H 0.64545 0.85815 0.09367 0.0
H610 H 0.56154 0.9425 0.13721 0.0
H611 H 0.57381 0.83263 0.15884 0.0
H612 H 0.5461 0.93706 0.16317 0.0
H613 H 0.54497 0.83366 0.14697 0.0
O614 O 0.60904 0.90848 0.13639 0.0
H615 H 0.66213 0.85601 0.15083 0.0
H616 H 0.64997 0.89799 0.10834 0.0
H617 H 0.67758 0.89904 0.12271 0.0
H618 H 0.68381 0.87791 0.1441 0.0
H619 H 0.63463 0.85554 0.13629 0.0
H620 H 0.65829 0.85973 0.06611 0.0
H621 H 0.64883 0.88042 0.04556 0.0
O622 O 0.61919 0.90165 0.11159 0.0
C623 C 0.58457 0.88495 0.10251 0.0
C624 C 0.63072 0.89018 0.06182 0.0
C625 C 0.64857 0.868 0.0692 0.0
N626 N 0.62903 0.87762 0.08878 0.0
C627 C 0.62368 0.88897 0.07751 0.0
C628 C 0.64124 0.86714 0.08477 0.0
C629 C 0.64326 0.87962 0.05767 0.0
C630 C 0.58115 0.85734 0.15064 0.0
N631 N 0.57639 0.87122 0.14243 0.0
C632 C 0.56994 0.84363 0.15241 0.0
C633 C 0.55377 0.84421 0.14572 0.0
C634 C 0.549 0.85843 0.1374 0.0
C635 C 0.56053 0.8719 0.13587 0.0
C636 C 0.55726 0.91367 0.16764 0.0
C637 C 0.57443 0.91964 0.13867 0.0
C638 C 0.56846 0.90237 0.16178 0.0
N639 N 0.57681 0.9054 0.14741 0.0
C640 C 0.56336 0.93124 0.14418 0.0
C641 C 0.55472 0.92819 0.15876 0.0
C642 C 0.61658 0.91235 0.1231 0.0
C643 C 0.65958 0.86525 0.14149 0.0
C644 C 0.65256 0.88881 0.11769 0.0
C645 C 0.66823 0.88943 0.12575 0.0
C646 C 0.67173 0.87756 0.13773 0.0
N647 N 0.64072 0.87669 0.12144 0.0
C648 C 0.64406 0.865 0.13317 0.0
Co649 Co 0.62797 0.1285 0.63455 0.0
Co650 Co 0.63448 0.08774 0.6439 0.0
O651 O 0.62224 0.10476 0.63264 0.0
C652 C 0.59261 0.12544 0.64458 0.0
O653 O 0.59774 0.11501 0.65587 0.0
C654 C 0.63406 0.07562 0.60875 0.0
O655 O 0.64162 0.0897 0.60431 0.0
O656 O 0.6558 0.09687 0.63484 0.0
O657 O 0.65279 0.12456 0.63424 0.0
H658 H 0.68174 0.06561 0.67802 0.0
H659 H 0.60414 0.11568 0.608 0.0
O660 O 0.60316 0.13249 0.63487 0.0
H661 H 0.65038 0.14433 0.5786 0.0
H662 H 0.61975 0.18876 0.62176 0.0
H663 H 0.65326 0.14961 0.6537 0.0
H664 H 0.65067 0.14342 0.6093 0.0
H665 H 0.61349 0.15843 0.61945 0.0
O666 O 0.63055 0.07297 0.62391 0.0
H667 H 0.66582 0.08738 0.66433 0.0
H668 H 0.6295 0.05084 0.64632 0.0
H669 H 0.66004 0.17983 0.65628 0.0
H670 H 0.60329 0.1164 0.57729 0.0
H671 H 0.64322 0.19963 0.64023 0.0
H672 H 0.62654 0.13078 0.56239 0.0
O673 O 0.62893 0.12741 0.65935 0.0
H674 H 0.57368 0.06924 0.64089 0.0
H675 H 0.62363 0.07754 0.67774 0.0
H676 H 0.59699 0.06733 0.68954 0.0
H677 H 0.57177 0.06311 0.67106 0.0
H678 H 0.60054 0.07954 0.62962 0.0
H679 H 0.64509 0.02865 0.65972 0.0
H680 H 0.67138 0.036 0.67576 0.0
O681 O 0.63847 0.10207 0.66417 0.0
C682 C 0.66175 0.11181 0.63339 0.0
C683 C 0.67027 0.06226 0.67112 0.0
C684 C 0.64971 0.04151 0.66083 0.0
N685 N 0.64666 0.0704 0.65468 0.0
C686 C 0.66117 0.07453 0.66338 0.0
C687 C 0.64095 0.05412 0.65325 0.0
C688 C 0.66446 0.04564 0.66983 0.0
C689 C 0.61424 0.12208 0.60161 0.0
N690 N 0.62738 0.1296 0.61043 0.0
C691 C 0.61372 0.1224 0.58421 0.0
C692 C 0.62678 0.13045 0.57586 0.0
C693 C 0.64016 0.13805 0.58495 0.0
C694 C 0.64027 0.13747 0.60233 0.0
C695 C 0.62719 0.18026 0.62879 0.0
C696 C 0.64596 0.15815 0.64659 0.0
C697 C 0.62368 0.16308 0.62756 0.0
N698 N 0.6331 0.15228 0.63632 0.0
C699 C 0.64982 0.17525 0.64815 0.0
C700 C 0.64036 0.18635 0.63915 0.0
C701 C 0.63482 0.11654 0.66905 0.0
C702 C 0.58459 0.07098 0.64905 0.0
C703 C 0.61271 0.07575 0.66961 0.0
C704 C 0.59766 0.06994 0.67637 0.0
C705 C 0.58352 0.06756 0.66599 0.0
N706 N 0.61366 0.07905 0.65298 0.0
C707 C 0.59985 0.07674 0.64273 0.0
Co708 Co 0.42045 0.87996 0.86723 0.0
Co709 Co 0.38036 0.88809 0.87682 0.0
O710 O 0.40437 0.89285 0.87871 0.0
C711 C 0.43437 0.88047 0.90204 0.0
O712 O 0.4202 0.87382 0.90733 0.0
C713 C 0.38507 0.92377 0.86808 0.0
O714 O 0.39562 0.91865 0.85717 0.0
O715 O 0.38099 0.8883 0.85203 0.0
O716 O 0.40513 0.87634 0.8474 0.0
H717 H 0.32749 0.85876 0.85461 0.0
H718 H 0.43073 0.91358 0.88053 0.0
O719 O 0.43629 0.88344 0.88665 0.0
H720 H 0.43997 0.9164 0.82014 0.0
H721 H 0.47831 0.86708 0.84993 0.0
H722 H 0.41876 0.84845 0.8476 0.0
H723 H 0.42937 0.89025 0.83282 0.0
H724 H 0.45735 0.88357 0.86359 0.0
O725 O 0.37724 0.91306 0.87709 0.0
H726 H 0.35798 0.86437 0.8572 0.0
H727 H 0.35127 0.90304 0.89237 0.0
H728 H 0.43927 0.83165 0.83367 0.0
H729 H 0.44151 0.93994 0.86838 0.0
H730 H 0.46929 0.84095 0.83477 0.0
H731 H 0.44613 0.94149 0.83796 0.0
O732 O 0.41095 0.85914 0.87707 0.0
H733 H 0.39445 0.9099 0.93458 0.0
H734 H 0.36504 0.86491 0.90155 0.0
H735 H 0.36471 0.86395 0.93224 0.0
H736 H 0.37947 0.88659 0.94896 0.0
H737 H 0.39456 0.9103 0.90387 0.0
H738 H 0.32069 0.89796 0.89007 0.0
H739 H 0.30862 0.87563 0.87113 0.0
O740 O 0.38337 0.86304 0.87654 0.0
C741 C 0.3911 0.88148 0.84242 0.0
C742 C 0.33259 0.86849 0.86295 0.0
C743 C 0.32878 0.89051 0.88283 0.0
N744 N 0.35637 0.88391 0.87503 0.0
C745 C 0.34985 0.87168 0.8645 0.0
C746 C 0.34609 0.89335 0.88406 0.0
C747 C 0.32202 0.87797 0.87221 0.0
C748 C 0.4329 0.91409 0.86732 0.0
N749 N 0.42949 0.90036 0.85742 0.0
C750 C 0.43893 0.92908 0.86049 0.0
C751 C 0.44149 0.92995 0.84342 0.0
C752 C 0.43802 0.91588 0.83341 0.0
C753 C 0.43198 0.90111 0.84066 0.0
C754 C 0.46526 0.86292 0.84932 0.0
C755 C 0.43178 0.85264 0.84804 0.0
C756 C 0.45334 0.87219 0.85705 0.0
N757 N 0.43683 0.86706 0.85625 0.0
C758 C 0.44335 0.84305 0.84017 0.0
C759 C 0.46019 0.84826 0.84081 0.0
C760 C 0.3958 0.85362 0.87793 0.0
C761 C 0.38793 0.9 0.92743 0.0
C762 C 0.37152 0.87478 0.90875 0.0
C763 C 0.37127 0.87419 0.92612 0.0
C764 C 0.37954 0.8869 0.93549 0.0
N765 N 0.37973 0.8877 0.90094 0.0
C766 C 0.3879 0.90018 0.91004 0.0
Co767 Co 0.63882 0.89415 0.40049 0.0
Co768 Co 0.62925 0.92341 0.37089 0.0
O769 O 0.64191 0.90498 0.379 0.0
C770 C 0.67413 0.90663 0.40062 0.0
O771 O 0.66809 0.92087 0.39625 0.0
C772 C 0.62573 0.89804 0.34385 0.0
O773 O 0.62329 0.88657 0.3552 0.0
O774 O 0.60787 0.91131 0.37626 0.0
O775 O 0.61363 0.89432 0.39762 0.0
H776 H 0.58498 0.96529 0.37377 0.0
H777 H 0.66047 0.87929 0.37552 0.0
O778 O 0.66407 0.89415 0.40344 0.0
H779 H 0.61566 0.83649 0.38531 0.0
H780 H 0.6529 0.85278 0.44472 0.0
H781 H 0.61644 0.898 0.42893 0.0
H782 H 0.61653 0.86336 0.40046 0.0
H783 H 0.65592 0.86684 0.41768 0.0
O784 O 0.62807 0.91329 0.34807 0.0
H785 H 0.60141 0.94211 0.38391 0.0
H786 H 0.62972 0.94375 0.33996 0.0
H787 H 0.61288 0.8842 0.45603 0.0
H788 H 0.66016 0.85254 0.36021 0.0
H789 H 0.6312 0.86141 0.46407 0.0
H790 H 0.6376 0.83094 0.36503 0.0
O791 O 0.63883 0.91591 0.41262 0.0
H792 H 0.68689 0.92849 0.34784 0.0
H793 H 0.64364 0.95796 0.37705 0.0
H794 H 0.67061 0.97271 0.3715 0.0
H795 H 0.69246 0.95795 0.35681 0.0
H796 H 0.65979 0.91418 0.35375 0.0
H797 H 0.61349 0.96684 0.32927 0.0
H798 H 0.59099 0.97781 0.34626 0.0
O799 O 0.63034 0.93405 0.39335 0.0
C800 C 0.60333 0.90103 0.38752 0.0
C801 C 0.59478 0.96065 0.36627 0.0
C802 C 0.61077 0.96151 0.34128 0.0
N803 N 0.61659 0.94167 0.36259 0.0
C804 C 0.60416 0.94756 0.37197 0.0
C805 C 0.61989 0.9484 0.34738 0.0
C806 C 0.59815 0.96766 0.35083 0.0
C807 C 0.65072 0.86989 0.37782 0.0
N808 N 0.63858 0.87285 0.38893 0.0
C809 C 0.65056 0.85479 0.36905 0.0
C810 C 0.63788 0.84269 0.37174 0.0
C811 C 0.62556 0.8458 0.38311 0.0
C812 C 0.6261 0.86105 0.39163 0.0
C813 C 0.64482 0.86267 0.44135 0.0
C814 C 0.62438 0.88802 0.43231 0.0
C815 C 0.6465 0.8707 0.42608 0.0
N816 N 0.63627 0.88312 0.4217 0.0
C817 C 0.62234 0.88029 0.44768 0.0
C818 C 0.63264 0.86751 0.45219 0.0
C819 C 0.63451 0.93029 0.4082 0.0
C820 C 0.67745 0.93507 0.35421 0.0
C821 C 0.65309 0.95145 0.37066 0.0
C822 C 0.66833 0.95987 0.36752 0.0
C823 C 0.68058 0.95159 0.35927 0.0
N824 N 0.65013 0.93524 0.36569 0.0
C825 C 0.66206 0.92705 0.35753 0.0
Co826 Co 0.60211 0.13195 0.86851 0.0
Co827 Co 0.64216 0.12437 0.88107 0.0
O828 O 0.61814 0.1194 0.8811 0.0
C829 C 0.58812 0.13157 0.90248 0.0
O830 O 0.60262 0.13733 0.90865 0.0
C831 C 0.6379 0.08866 0.87141 0.0
O832 O 0.62752 0.09368 0.85982 0.0
O833 O 0.64212 0.12426 0.85621 0.0
O834 O 0.61764 0.13526 0.84975 0.0
H835 H 0.69521 0.15434 0.86349 0.0
H836 H 0.59184 0.09859 0.88134 0.0
O837 O 0.58605 0.12889 0.88689 0.0
H838 H 0.5836 0.0943 0.82035 0.0
H839 H 0.5444 0.14396 0.84719 0.0
H840 H 0.60383 0.16303 0.84881 0.0
H841 H 0.59378 0.12083 0.83358 0.0
H842 H 0.56529 0.12796 0.86238 0.0
O843 O 0.6455 0.09944 0.88111 0.0
H844 H 0.66472 0.14843 0.86367 0.0
H845 H 0.67104 0.1096 0.89846 0.0
H846 H 0.58339 0.17934 0.83337 0.0
H847 H 0.58148 0.07186 0.86863 0.0
H848 H 0.55343 0.16982 0.83249 0.0
H849 H 0.57737 0.06958 0.83792 0.0
O850 O 0.61131 0.15305 0.87884 0.0
H851 H 0.6271 0.10216 0.93732 0.0
H852 H 0.65668 0.1476 0.90737 0.0
H853 H 0.65633 0.14842 0.93807 0.0
H854 H 0.64149 0.12557 0.95325 0.0
H855 H 0.62764 0.1019 0.90662 0.0
H856 H 0.70161 0.11497 0.89856 0.0
H857 H 0.71387 0.13753 0.88103 0.0
O858 O 0.6389 0.14938 0.88108 0.0
C859 C 0.63199 0.13062 0.84586 0.0
C860 C 0.69002 0.14451 0.87122 0.0
C861 C 0.69361 0.1224 0.89089 0.0
N862 N 0.66613 0.12878 0.88116 0.0
C863 C 0.67277 0.14114 0.87141 0.0
C864 C 0.67631 0.11938 0.89075 0.0
C865 C 0.70048 0.13506 0.88105 0.0
C866 C 0.58989 0.09775 0.86799 0.0
N867 N 0.59334 0.11128 0.85823 0.0
C868 C 0.5841 0.08256 0.86085 0.0
C869 C 0.58182 0.08128 0.84362 0.0
C870 C 0.58533 0.09514 0.83375 0.0
C871 C 0.59112 0.11012 0.84132 0.0
C872 C 0.55743 0.14821 0.84745 0.0
C873 C 0.59084 0.15874 0.84839 0.0
C874 C 0.56931 0.13922 0.85605 0.0
N875 N 0.58579 0.14447 0.85635 0.0
C876 C 0.57931 0.16806 0.83967 0.0
C877 C 0.5625 0.16272 0.83919 0.0
C878 C 0.62635 0.1587 0.88124 0.0
C879 C 0.63365 0.11216 0.93085 0.0
C880 C 0.65015 0.13763 0.91389 0.0
C881 C 0.65003 0.13815 0.93127 0.0
C882 C 0.64171 0.12531 0.93978 0.0
N883 N 0.64226 0.12467 0.90522 0.0
C884 C 0.63406 0.11205 0.91347 0.0
Co885 Co 0.37025 0.12083 0.40017 0.0
Co886 Co 0.37839 0.09037 0.37123 0.0
O887 O 0.3664 0.10937 0.37873 0.0
C888 C 0.33494 0.10846 0.3996 0.0
O889 O 0.34083 0.09416 0.39528 0.0
C890 C 0.38201 0.11506 0.34414 0.0
O891 O 0.38435 0.12686 0.35548 0.0
O892 O 0.40017 0.10201 0.37741 0.0
O893 O 0.39534 0.12047 0.39779 0.0
H894 H 0.42144 0.04728 0.3762 0.0
H895 H 0.34775 0.13501 0.3746 0.0
O896 O 0.3451 0.12099 0.40263 0.0
H897 H 0.39312 0.17793 0.38468 0.0
H898 H 0.35784 0.16362 0.44359 0.0
H899 H 0.39365 0.11783 0.4291 0.0
H900 H 0.39268 0.15153 0.40016 0.0
H901 H 0.35383 0.14872 0.41667 0.0
O902 O 0.37964 0.09993 0.34839 0.0
H903 H 0.4058 0.07117 0.38554 0.0
H904 H 0.37696 0.06932 0.34037 0.0
H905 H 0.39819 0.13248 0.45609 0.0
H906 H 0.34762 0.16128 0.35895 0.0
H907 H 0.3802 0.15555 0.46347 0.0
H908 H 0.37045 0.18294 0.36392 0.0
O909 O 0.37055 0.09947 0.41264 0.0
H910 H 0.32037 0.08649 0.34586 0.0
H911 H 0.36314 0.05629 0.37679 0.0
H912 H 0.33571 0.04219 0.37018 0.0
H913 H 0.31409 0.05732 0.35462 0.0
H914 H 0.34793 0.10015 0.35285 0.0
H915 H 0.39238 0.04552 0.33048 0.0
H916 H 0.41475 0.0343 0.34849 0.0
O917 O 0.37723 0.08028 0.39372 0.0
C918 C 0.40522 0.11293 0.38831 0.0
C919 C 0.41168 0.05203 0.36827 0.0
C920 C 0.39539 0.05105 0.3426 0.0
N921 N 0.3904 0.07154 0.36357 0.0
C922 C 0.40276 0.06551 0.3735 0.0
C923 C 0.38673 0.06456 0.34824 0.0
C924 C 0.40793 0.04476 0.35271 0.0
C925 C 0.35764 0.14444 0.37696 0.0
N926 N 0.37017 0.14177 0.38834 0.0
C927 C 0.35754 0.15927 0.36801 0.0
C928 C 0.37037 0.1714 0.37078 0.0
C929 C 0.38309 0.16859 0.38242 0.0
C930 C 0.3828 0.1536 0.39111 0.0
C931 C 0.36578 0.15361 0.4405 0.0
C932 C 0.38585 0.12793 0.43219 0.0
C933 C 0.36354 0.14511 0.4253 0.0
N934 N 0.37359 0.13252 0.42129 0.0
C935 C 0.38844 0.13615 0.4475 0.0
C936 C 0.37833 0.14908 0.45165 0.0
C937 C 0.37391 0.08472 0.40848 0.0
C938 C 0.3297 0.07975 0.35262 0.0
C939 C 0.35379 0.06296 0.37004 0.0
C940 C 0.33829 0.0549 0.3663 0.0
C941 C 0.32618 0.0634 0.35756 0.0
N942 N 0.35713 0.07902 0.3652 0.0
C943 C 0.34535 0.0874 0.35655 0.0
Co944 Co 0.13443 0.4233 0.11501 0.0
Co945 Co 0.10434 0.39409 0.12649 0.0
O946 O 0.12607 0.4059 0.12976 0.0
C947 C 0.16225 0.40062 0.11816 0.0
O948 O 0.1513 0.38806 0.11586 0.0
C949 C 0.10455 0.40704 0.16115 0.0
O950 O 0.10872 0.42152 0.1546 0.0
O951 O 0.09288 0.41547 0.12492 0.0
O952 O 0.11163 0.43166 0.11148 0.0
H953 H 0.04792 0.38187 0.09919 0.0
H954 H 0.15032 0.42006 0.14851 0.0
O955 O 0.15755 0.41551 0.11815 0.0
H956 H 0.12926 0.47664 0.1474 0.0
H957 H 0.17579 0.46835 0.09691 0.0
H958 H 0.12307 0.43662 0.08253 0.0
H959 H 0.12577 0.45818 0.12275 0.0
H960 H 0.16456 0.44665 0.1157 0.0
O961 O 0.10179 0.39431 0.1516 0.0
H962 H 0.0755 0.39665 0.10293 0.0
H963 H 0.08677 0.36641 0.14444 0.0
H964 H 0.13378 0.45828 0.06345 0.0
H965 H 0.15423 0.43818 0.17339 0.0
H966 H 0.16032 0.47433 0.0706 0.0
H967 H 0.14359 0.46667 0.17296 0.0
O968 O 0.13067 0.40821 0.0955 0.0
H969 H 0.14398 0.35428 0.15176 0.0
H970 H 0.10324 0.36296 0.10597 0.0
H971 H 0.11771 0.33662 0.10727 0.0
H972 H 0.13822 0.33214 0.13031 0.0
H973 H 0.12936 0.3805 0.14989 0.0
H974 H 0.05924 0.35139 0.14126 0.0
H975 H 0.03964 0.35907 0.11845 0.0
O976 O 0.10673 0.39388 0.10126 0.0
C977 C 0.09702 0.42862 0.11696 0.0
C978 C 0.05637 0.37838 0.10914 0.0
C979 C 0.06272 0.36128 0.13277 0.0
N980 N 0.08277 0.38228 0.12379 0.0
C981 C 0.07202 0.38666 0.11128 0.0
C982 C 0.07827 0.36985 0.13453 0.0
C983 C 0.05173 0.36559 0.11996 0.0
C984 C 0.14585 0.43251 0.14816 0.0
N985 N 0.1379 0.43807 0.13416 0.0
C986 C 0.14802 0.44269 0.16231 0.0
C987 C 0.14202 0.45866 0.16207 0.0
C988 C 0.13396 0.46426 0.14774 0.0
C989 C 0.13199 0.45373 0.13383 0.0
C990 C 0.16419 0.46147 0.09367 0.0
C991 C 0.13457 0.44362 0.08578 0.0
C992 C 0.15778 0.44916 0.10425 0.0
N993 N 0.14309 0.44049 0.10029 0.0
C994 C 0.1406 0.45584 0.0749 0.0
C995 C 0.1555 0.46482 0.07891 0.0
C996 C 0.11803 0.39878 0.09109 0.0
C997 C 0.13503 0.35606 0.14169 0.0
C998 C 0.1122 0.36113 0.11599 0.0
C999 C 0.12032 0.34617 0.11669 0.0
C1000 C 0.13181 0.34366 0.12963 0.0
N1001 N 0.11541 0.37323 0.12787 0.0
C1002 C 0.12665 0.37085 0.14061 0.0
Co1003 Co 0.14098 0.59357 0.86532 0.0
Co1004 Co 0.13184 0.63392 0.87386 0.0
O1005 O 0.12955 0.61008 0.87784 0.0
C1006 C 0.1057 0.58027 0.86277 0.0
O1007 O 0.10135 0.59433 0.8561 0.0
C1008 C 0.14051 0.63014 0.90967 0.0
O1009 O 0.15134 0.61964 0.90453 0.0
O1010 O 0.15667 0.63358 0.87485 0.0
O1011 O 0.16142 0.60863 0.86366 0.0
H1012 H 0.15483 0.68609 0.84691 0.0
H1013 H 0.12607 0.58447 0.89762 0.0
O1014 O 0.12087 0.57808 0.86687 0.0
H1015 H 0.18605 0.57474 0.90465 0.0
H1016 H 0.1568 0.53522 0.85196 0.0
H1017 H 0.16186 0.59417 0.83537 0.0
H1018 H 0.17469 0.58463 0.87788 0.0
H1019 H 0.14325 0.55678 0.86808 0.0
O1020 O 0.13164 0.63769 0.89893 0.0
H1021 H 0.15177 0.65577 0.85147 0.0
H1022 H 0.11673 0.66324 0.8892 0.0
H1023 H 0.17571 0.57304 0.81897 0.0
H1024 H 0.13689 0.57444 0.92456 0.0
H1025 H 0.17323 0.54332 0.82726 0.0
H1026 H 0.16709 0.56958 0.92823 0.0
O1027 O 0.13226 0.60251 0.84406 0.0
H1028 H 0.07378 0.61997 0.89325 0.0
H1029 H 0.10726 0.6483 0.85027 0.0
H1030 H 0.07653 0.64833 0.84825 0.0
H1031 H 0.05957 0.63412 0.86987 0.0
H1032 H 0.10454 0.62013 0.89472 0.0
H1033 H 0.11951 0.69366 0.88516 0.0
H1034 H 0.13862 0.70525 0.86384 0.0
O1035 O 0.13204 0.63016 0.84876 0.0
C1036 C 0.16639 0.62312 0.86883 0.0
C1037 C 0.14642 0.68118 0.8562 0.0
C1038 C 0.12661 0.68544 0.87769 0.0
N1039 N 0.13398 0.65776 0.87048 0.0
C1040 C 0.1446 0.66403 0.8588 0.0
C1041 C 0.12512 0.66822 0.87994 0.0
C1042 C 0.13733 0.69193 0.86571 0.0
C1043 C 0.1392 0.58219 0.89905 0.0
N1044 N 0.14972 0.58505 0.88616 0.0
C1045 C 0.14526 0.57659 0.91436 0.0
C1046 C 0.16222 0.57389 0.91642 0.0
C1047 C 0.17286 0.5768 0.9032 0.0
C1048 C 0.16636 0.58243 0.88808 0.0
C1049 C 0.15802 0.54813 0.84826 0.0
C1050 C 0.16082 0.58128 0.83912 0.0
C1051 C 0.15036 0.56039 0.85732 0.0
N1052 N 0.15191 0.57674 0.85277 0.0
C1053 C 0.16865 0.56936 0.82976 0.0
C1054 C 0.16724 0.55269 0.8344 0.0
C1055 C 0.1311 0.61742 0.83894 0.0
C1056 C 0.08103 0.62625 0.88378 0.0
C1057 C 0.09997 0.64205 0.8597 0.0
C1058 C 0.08257 0.64214 0.85851 0.0
C1059 C 0.07307 0.63417 0.87065 0.0
N1060 N 0.10768 0.63431 0.87265 0.0
C1061 C 0.09845 0.62643 0.88458 0.0
Co1062 Co 0.92616 0.6474 0.3786 0.0
Co1063 Co 0.88661 0.63246 0.38722 0.0
O1064 O 0.91063 0.63391 0.39163 0.0
C1065 C 0.94139 0.61446 0.37899 0.0
O1066 O 0.92712 0.60748 0.37349 0.0
C1067 C 0.89053 0.64208 0.42294 0.0
O1068 O 0.90051 0.6543 0.41777 0.0
O1069 O 0.88576 0.65724 0.38746 0.0
O1070 O 0.90983 0.66507 0.37546 0.0
H1071 H 0.83289 0.64688 0.35854 0.0
H1072 H 0.93697 0.63556 0.41188 0.0
O1073 O 0.94296 0.63013 0.3815 0.0
H1074 H 0.94263 0.69689 0.41541 0.0
H1075 H 0.98303 0.67222 0.36508 0.0
H1076 H 0.92364 0.66678 0.34742 0.0
H1077 H 0.933 0.68283 0.38923 0.0
H1078 H 0.96274 0.65584 0.38168 0.0
O1079 O 0.88327 0.63207 0.41224 0.0
H1080 H 0.86339 0.64856 0.36376 0.0
H1081 H 0.85838 0.61327 0.4026 0.0
H1082 H 0.94348 0.68338 0.33052 0.0
H1083 H 0.94682 0.64911 0.43826 0.0
H1084 H 0.97341 0.68618 0.33934 0.0
H1085 H 0.94963 0.68 0.44016 0.0
O1086 O 0.9174 0.63637 0.35779 0.0
H1087 H 0.90384 0.57722 0.40882 0.0
H1088 H 0.87306 0.60548 0.36421 0.0
H1089 H 0.87459 0.57491 0.36323 0.0
H1090 H 0.89004 0.56058 0.38567 0.0
H1091 H 0.90212 0.60777 0.40924 0.0
H1092 H 0.8278 0.6113 0.39791 0.0
H1093 H 0.81489 0.62815 0.37569 0.0
O1094 O 0.88986 0.63278 0.3621 0.0
C1095 C 0.89542 0.66812 0.38064 0.0
C1096 C 0.83838 0.63945 0.36822 0.0
C1097 C 0.83552 0.61949 0.39034 0.0
N1098 N 0.86264 0.63092 0.38337 0.0
C1099 C 0.85564 0.64031 0.3712 0.0
C1100 C 0.85282 0.62068 0.39296 0.0
C1101 C 0.82828 0.62894 0.37786 0.0
C1102 C 0.93836 0.649 0.41255 0.0
N1103 N 0.93449 0.65838 0.399 0.0
C1104 C 0.94386 0.65661 0.42754 0.0
C1105 C 0.94541 0.67393 0.42861 0.0
C1106 C 0.94147 0.68342 0.41473 0.0
C1107 C 0.93599 0.67539 0.39995 0.0
C1108 C 0.97001 0.67112 0.36114 0.0
C1109 C 0.93663 0.66804 0.3514 0.0
C1110 C 0.95847 0.66184 0.37047 0.0
N1111 N 0.942 0.66048 0.3656 0.0
C1112 C 0.94781 0.67741 0.34175 0.0
C1113 C 0.96461 0.67896 0.34669 0.0
C1114 C 0.90243 0.63321 0.35248 0.0
C1115 C 0.89703 0.58331 0.399 0.0
C1116 C 0.87984 0.59933 0.374 0.0
C1117 C 0.88064 0.58202 0.37339 0.0
C1118 C 0.8893 0.57399 0.38599 0.0
N1119 N 0.88742 0.60839 0.38682 0.0
C1120 C 0.89595 0.6006 0.3992 0.0
Co1121 Co 0.88357 0.42128 0.88525 0.0
Co1122 Co 0.89137 0.38081 0.89409 0.0
O1123 O 0.894 0.4046 0.89874 0.0
C1124 C 0.919 0.43434 0.88768 0.0
O1125 O 0.92387 0.42034 0.88133 0.0
C1126 C 0.8819 0.38484 0.92921 0.0
O1127 O 0.8715 0.39559 0.92334 0.0
O1128 O 0.86661 0.38176 0.89304 0.0
O1129 O 0.86318 0.4064 0.88081 0.0
H1130 H 0.868 0.3292 0.86431 0.0
H1131 H 0.89622 0.43012 0.91941 0.0
O1132 O 0.90357 0.4366 0.8896 0.0
H1133 H 0.83613 0.44039 0.91925 0.0
H1134 H 0.86917 0.47985 0.87113 0.0
H1135 H 0.86484 0.42101 0.8529 0.0
H1136 H 0.8492 0.43045 0.89382 0.0
H1137 H 0.88141 0.4581 0.88841 0.0
O1138 O 0.89076 0.37694 0.91907 0.0
H1139 H 0.87162 0.35946 0.86969 0.0
H1140 H 0.90535 0.35107 0.91005 0.0
H1141 H 0.85234 0.44234 0.83528 0.0
H1142 H 0.88369 0.44022 0.94507 0.0
H1143 H 0.85446 0.47201 0.84439 0.0
H1144 H 0.85341 0.44536 0.94511 0.0
O1145 O 0.8937 0.41236 0.86501 0.0
H1146 H 0.94902 0.39344 0.91846 0.0
H1147 H 0.91625 0.36592 0.87226 0.0
H1148 H 0.94696 0.36522 0.87276 0.0
H1149 H 0.96356 0.37902 0.896 0.0
H1150 H 0.91829 0.39395 0.91741 0.0
H1151 H 0.902 0.3207 0.90521 0.0
H1152 H 0.88327 0.3096 0.88215 0.0
O1153 O 0.89195 0.38465 0.86904 0.0
C1154 C 0.85753 0.39221 0.88573 0.0
C1155 C 0.87625 0.33389 0.87436 0.0
C1156 C 0.89531 0.32911 0.89733 0.0
N1157 N 0.8888 0.357 0.89006 0.0
C1158 C 0.87839 0.35101 0.87743 0.0
C1159 C 0.89714 0.34631 0.90003 0.0
C1160 C 0.8848 0.3229 0.88439 0.0
C1161 C 0.88309 0.43253 0.91926 0.0
N1162 N 0.87348 0.42977 0.9051 0.0
C1163 C 0.87604 0.43817 0.93386 0.0
C1164 C 0.85905 0.44101 0.93388 0.0
C1165 C 0.84934 0.43822 0.91938 0.0
C1166 C 0.85681 0.43255 0.90503 0.0
C1167 C 0.86812 0.46696 0.86706 0.0
C1168 C 0.86572 0.43388 0.85699 0.0
C1169 C 0.87504 0.45459 0.87678 0.0
N1170 N 0.87369 0.43828 0.87174 0.0
C1171 C 0.85866 0.44591 0.84694 0.0
C1172 C 0.85987 0.46255 0.85205 0.0
C1173 C 0.89415 0.3974 0.85964 0.0
C1174 C 0.94192 0.38733 0.9083 0.0
C1175 C 0.92339 0.37199 0.8824 0.0
C1176 C 0.94077 0.37152 0.88263 0.0
C1177 C 0.95007 0.37926 0.89568 0.0
N1178 N 0.91549 0.37988 0.89485 0.0
C1179 C 0.92452 0.38753 0.90766 0.0
Co1180 Co 0.08235 0.36836 0.38781 0.0
Co1181 Co 0.10949 0.40018 0.37611 0.0
O1182 O 0.09918 0.3778 0.37313 0.0
C1183 C 0.10686 0.34213 0.38544 0.0
O1184 O 0.11886 0.3537 0.3878 0.0
C1185 C 0.09652 0.39894 0.34121 0.0
O1186 O 0.08227 0.39389 0.34759 0.0
O1187 O 0.08723 0.41004 0.37699 0.0
O1188 O 0.07247 0.39042 0.39082 0.0
H1189 H 0.11774 0.45711 0.40227 0.0
H1190 H 0.08643 0.35284 0.35464 0.0
O1191 O 0.09165 0.34595 0.38517 0.0
H1192 H 0.02828 0.37003 0.35465 0.0
H1193 H 0.03998 0.32435 0.40611 0.0
H1194 H 0.06848 0.37871 0.41993 0.0
H1195 H 0.04673 0.37467 0.37948 0.0
H1196 H 0.06087 0.33695 0.38737 0.0
O1197 O 0.1091 0.40258 0.35093 0.0
H1198 H 0.10488 0.42869 0.39892 0.0
H1199 H 0.13604 0.41949 0.35827 0.0
H1200 H 0.04758 0.36663 0.43896 0.0
H1201 H 0.06835 0.3478 0.32959 0.0
H1202 H 0.03317 0.33925 0.43208 0.0
H1203 H 0.03907 0.35649 0.32947 0.0
O1204 O 0.09738 0.37308 0.40744 0.0
H1205 H 0.15224 0.36358 0.35257 0.0
H1206 H 0.14065 0.40356 0.3972 0.0
H1207 H 0.1681 0.39109 0.39674 0.0
H1208 H 0.17405 0.37096 0.37429 0.0
H1209 H 0.1249 0.37622 0.35359 0.0
H1210 H 0.14915 0.44786 0.36107 0.0
H1211 H 0.14005 0.46685 0.38325 0.0
O1212 O 0.10987 0.39792 0.40141 0.0
C1213 C 0.0744 0.40506 0.38493 0.0
C1214 C 0.12186 0.44893 0.39259 0.0
C1215 C 0.13947 0.44375 0.36945 0.0
N1216 N 0.11981 0.42242 0.37851 0.0
C1217 C 0.11466 0.43281 0.39067 0.0
C1218 C 0.13198 0.42772 0.3679 0.0
C1219 C 0.13436 0.45439 0.38191 0.0
C1220 C 0.07364 0.35646 0.35476 0.0
N1221 N 0.06763 0.36396 0.36853 0.0
C1222 C 0.06349 0.35365 0.34051 0.0
C1223 C 0.04707 0.35856 0.34044 0.0
C1224 C 0.04102 0.36617 0.35455 0.0
C1225 C 0.05154 0.3688 0.36857 0.0
C1226 C 0.04615 0.3363 0.40922 0.0
C1227 C 0.06218 0.36684 0.4168 0.0
C1228 C 0.05801 0.34348 0.39868 0.0
N1229 N 0.06578 0.35862 0.40248 0.0
C1230 C 0.0504 0.36004 0.42765 0.0
C1231 C 0.04233 0.34467 0.42379 0.0
C1232 C 0.10587 0.38635 0.41175 0.0
C1233 C 0.14982 0.37237 0.36239 0.0
C1234 C 0.14312 0.39476 0.38743 0.0
C1235 C 0.1587 0.38778 0.38721 0.0
C1236 C 0.16204 0.3765 0.37459 0.0
N1237 N 0.1312 0.39067 0.3754 0.0
C1238 C 0.13438 0.37963 0.36299 0.0
Co1239 Co 0.86767 0.59351 0.14641 0.0
Co1240 Co 0.88351 0.63276 0.13779 0.0
O1241 O 0.88157 0.60885 0.13356 0.0
C1242 C 0.90027 0.57751 0.14677 0.0
O1243 O 0.90764 0.59152 0.15229 0.0
C1244 C 0.87402 0.62927 0.10189 0.0
O1245 O 0.86149 0.61961 0.1069 0.0
O1246 O 0.85871 0.63415 0.13699 0.0
O1247 O 0.85035 0.61018 0.14909 0.0
H1248 H 0.87013 0.68646 0.16568 0.0
H1249 H 0.87938 0.58281 0.11347 0.0
O1250 O 0.88456 0.57638 0.14399 0.0
H1251 H 0.81789 0.57852 0.10871 0.0
H1252 H 0.84153 0.53711 0.15987 0.0
H1253 H 0.84826 0.59614 0.17719 0.0
H1254 H 0.83209 0.58757 0.13511 0.0
H1255 H 0.8584 0.55719 0.14343 0.0
O1256 O 0.88411 0.63628 0.11274 0.0
H1257 H 0.86783 0.65608 0.16071 0.0
H1258 H 0.90337 0.6607 0.12256 0.0
H1259 H 0.83118 0.57652 0.19391 0.0
H1260 H 0.86569 0.57355 0.08688 0.0
H1261 H 0.82773 0.54676 0.18527 0.0
H1262 H 0.83473 0.57143 0.08437 0.0
O1263 O 0.87886 0.60179 0.16736 0.0
H1264 H 0.93853 0.61455 0.11756 0.0
H1265 H 0.91072 0.64555 0.16124 0.0
H1266 H 0.94128 0.64338 0.16289 0.0
H1267 H 0.95539 0.62781 0.14092 0.0
H1268 H 0.90799 0.61691 0.11647 0.0
H1269 H 0.90597 0.69115 0.12701 0.0
H1270 H 0.88931 0.70421 0.14875 0.0
O1271 O 0.88305 0.62928 0.16294 0.0
C1272 C 0.84761 0.62467 0.1437 0.0
C1273 C 0.87749 0.68091 0.1562 0.0
C1274 C 0.89758 0.68355 0.13448 0.0
N1275 N 0.88555 0.65664 0.14145 0.0
C1276 C 0.87627 0.66372 0.15337 0.0
C1277 C 0.89604 0.66631 0.13199 0.0
C1278 C 0.88824 0.69087 0.14669 0.0
C1279 C 0.8659 0.58172 0.11253 0.0
N1280 N 0.85656 0.58565 0.12585 0.0
C1281 C 0.85822 0.57655 0.09742 0.0
C1282 C 0.84085 0.57539 0.09601 0.0
C1283 C 0.8314 0.57938 0.10966 0.0
C1284 C 0.83951 0.58453 0.12457 0.0
C1285 C 0.84291 0.55005 0.16374 0.0
C1286 C 0.84672 0.58324 0.17328 0.0
C1287 C 0.85246 0.56147 0.1545 0.0
N1288 N 0.85418 0.57785 0.15926 0.0
C1289 C 0.83708 0.57217 0.18283 0.0
C1290 C 0.83516 0.55548 0.17799 0.0
C1291 C 0.88236 0.61662 0.17263 0.0
C1292 C 0.93254 0.62141 0.12718 0.0
C1293 C 0.91676 0.63872 0.15165 0.0
C1294 C 0.93408 0.63756 0.15264 0.0
C1295 C 0.94198 0.62883 0.1403 0.0
N1296 N 0.90759 0.63144 0.13872 0.0
C1297 C 0.91525 0.62284 0.12659 0.0
Co1298 Co 0.91354 0.36483 0.63125 0.0
Co1299 Co 0.88604 0.39293 0.64476 0.0
O1300 O 0.89688 0.37182 0.64666 0.0
C1301 C 0.88959 0.33576 0.63332 0.0
O1302 O 0.87744 0.34606 0.63211 0.0
C1303 C 0.89956 0.3926 0.67949 0.0
O1304 O 0.91394 0.38988 0.67281 0.0
O1305 O 0.90805 0.40552 0.64404 0.0
O1306 O 0.92286 0.38817 0.62897 0.0
H1307 H 0.87615 0.44942 0.62121 0.0
H1308 H 0.9105 0.34814 0.66389 0.0
O1309 O 0.90475 0.34123 0.6331 0.0
H1310 H 0.96823 0.3723 0.66337 0.0
H1311 H 0.95623 0.32651 0.61022 0.0
H1312 H 0.92651 0.37771 0.59935 0.0
H1313 H 0.94915 0.37526 0.63911 0.0
H1314 H 0.93554 0.33605 0.6299 0.0
O1315 O 0.88675 0.39465 0.67003 0.0
H1316 H 0.88967 0.42257 0.62316 0.0
H1317 H 0.85942 0.40845 0.6638 0.0
H1318 H 0.94717 0.36869 0.5794 0.0
H1319 H 0.92921 0.34476 0.68838 0.0
H1320 H 0.96221 0.34292 0.5848 0.0
H1321 H 0.95828 0.35695 0.68823 0.0
O1322 O 0.898 0.36812 0.61214 0.0
H1323 H 0.84439 0.3507 0.66741 0.0
H1324 H 0.85456 0.39297 0.62418 0.0
H1325 H 0.82738 0.37719 0.6245 0.0
H1326 H 0.82215 0.3559 0.64625 0.0
H1327 H 0.87144 0.36662 0.66652 0.0
H1328 H 0.84566 0.4352 0.6624 0.0
H1329 H 0.85398 0.45587 0.64093 0.0
O1330 O 0.88529 0.39132 0.61937 0.0
C1331 C 0.92077 0.40235 0.63562 0.0
C1332 C 0.87238 0.44049 0.63058 0.0
C1333 C 0.85529 0.43252 0.65371 0.0
N1334 N 0.87522 0.41392 0.64348 0.0
C1335 C 0.87995 0.42525 0.63171 0.0
C1336 C 0.86314 0.41742 0.65447 0.0
C1337 C 0.85995 0.44411 0.64166 0.0
C1338 C 0.92319 0.3533 0.66366 0.0
N1339 N 0.92875 0.3618 0.65005 0.0
C1340 C 0.93371 0.35142 0.67759 0.0
C1341 C 0.95001 0.35829 0.67752 0.0
C1342 C 0.95559 0.36692 0.66358 0.0
C1343 C 0.94472 0.36858 0.64988 0.0
C1344 C 0.94979 0.33778 0.60776 0.0
C1345 C 0.93307 0.36654 0.60183 0.0
C1346 C 0.93805 0.34323 0.61884 0.0
N1347 N 0.92994 0.35751 0.61585 0.0
C1348 C 0.94473 0.36147 0.59047 0.0
C1349 C 0.95314 0.347 0.5935 0.0
C1350 C 0.88922 0.38046 0.60851 0.0
C1351 C 0.8465 0.35998 0.6579 0.0
C1352 C 0.85241 0.38367 0.63363 0.0
C1353 C 0.83698 0.37481 0.63378 0.0
C1354 C 0.83404 0.36288 0.646 0.0
N1355 N 0.86456 0.38075 0.64535 0.0
C1356 C 0.86177 0.36909 0.65738 0.0
Co1357 Co 0.09594 0.63703 0.6327 0.0
Co1358 Co 0.13637 0.6284 0.62453 0.0
O1359 O 0.11243 0.62603 0.61989 0.0
C1360 C 0.08311 0.60161 0.63216 0.0
O1361 O 0.09751 0.59711 0.63831 0.0
C1362 C 0.13179 0.63774 0.58923 0.0
O1363 O 0.12103 0.64803 0.59488 0.0
O1364 O 0.13582 0.65313 0.62501 0.0
O1365 O 0.1109 0.6575 0.63584 0.0
H1366 H 0.1888 0.65114 0.65398 0.0
H1367 H 0.08644 0.6228 0.59936 0.0
O1368 O 0.08055 0.61691 0.62964 0.0
H1369 H 0.07619 0.68266 0.59557 0.0
H1370 H 0.0375 0.65206 0.64571 0.0
H1371 H 0.09678 0.65724 0.6638 0.0
H1372 H 0.08659 0.67084 0.62187 0.0
H1373 H 0.05899 0.63903 0.62931 0.0
O1374 O 0.13987 0.62889 0.59954 0.0
H1375 H 0.15838 0.64793 0.64857 0.0
H1376 H 0.1657 0.61396 0.60897 0.0
H1377 H 0.07571 0.67055 0.68053 0.0
H1378 H 0.07587 0.63408 0.57287 0.0
H1379 H 0.04583 0.66801 0.67149 0.0
H1380 H 0.07075 0.66423 0.57083 0.0
O1381 O 0.10521 0.6279 0.65364 0.0
H1382 H 0.12267 0.57091 0.60135 0.0
H1383 H 0.1512 0.60347 0.64702 0.0
H1384 H 0.15149 0.57279 0.64722 0.0
H1385 H 0.13717 0.5563 0.62424 0.0
H1386 H 0.12258 0.6016 0.60171 0.0
H1387 H 0.19623 0.61689 0.61384 0.0
H1388 H 0.20794 0.63554 0.63653 0.0
O1389 O 0.13288 0.62802 0.64955 0.0
C1390 C 0.12535 0.66265 0.63128 0.0
C1391 C 0.18384 0.64293 0.64409 0.0
C1392 C 0.18801 0.62372 0.62155 0.0
N1393 N 0.16029 0.63065 0.62858 0.0
C1394 C 0.16663 0.64102 0.64101 0.0
C1395 C 0.17073 0.62213 0.61883 0.0
C1396 C 0.19458 0.63419 0.63429 0.0
C1397 C 0.08404 0.6359 0.59864 0.0
N1398 N 0.08706 0.64613 0.61218 0.0
C1399 C 0.07813 0.64223 0.58358 0.0
C1400 C 0.07529 0.65915 0.58243 0.0
C1401 C 0.07836 0.6695 0.59631 0.0
C1402 C 0.08428 0.66274 0.61116 0.0
C1403 C 0.05048 0.6533 0.64975 0.0
C1404 C 0.08381 0.65617 0.65974 0.0
C1405 C 0.06271 0.64593 0.64053 0.0
N1406 N 0.07914 0.64752 0.64551 0.0
C1407 C 0.07194 0.66369 0.66928 0.0
C1408 C 0.05517 0.66225 0.66421 0.0
C1409 C 0.12023 0.6268 0.65903 0.0
C1410 C 0.12899 0.57795 0.6114 0.0
C1411 C 0.14491 0.59637 0.637 0.0
C1412 C 0.14514 0.57901 0.63716 0.0
C1413 C 0.13712 0.56977 0.62426 0.0
N1414 N 0.13696 0.60431 0.62431 0.0
C1415 C 0.12904 0.59534 0.61164 0.0
Co1416 Co 0.89091 0.87632 0.63854 0.0
Co1417 Co 0.90059 0.86539 0.59864 0.0
O1418 O 0.88766 0.87758 0.6144 0.0
C1419 C 0.85506 0.868 0.63179 0.0
O1420 O 0.86015 0.85808 0.62012 0.0
C1421 C 0.90275 0.90013 0.58589 0.0
O1422 O 0.90763 0.90565 0.60076 0.0
O1423 O 0.92168 0.87482 0.6091 0.0
O1424 O 0.91613 0.87608 0.63639 0.0
H1425 H 0.94703 0.82982 0.58143 0.0
H1426 H 0.87084 0.90287 0.62405 0.0
O1427 O 0.86577 0.87637 0.64098 0.0
H1428 H 0.91731 0.93232 0.65534 0.0
H1429 H 0.87853 0.8911 0.6978 0.0
H1430 H 0.9123 0.85729 0.66136 0.0
H1431 H 0.9147 0.9016 0.65473 0.0
H1432 H 0.87525 0.89264 0.66721 0.0
O1433 O 0.89996 0.8846 0.58315 0.0
H1434 H 0.93013 0.84475 0.60135 0.0
H1435 H 0.89916 0.86116 0.56167 0.0
H1436 H 0.9161 0.85547 0.69187 0.0
H1437 H 0.87289 0.93361 0.62443 0.0
H1438 H 0.89914 0.87247 0.71031 0.0
H1439 H 0.89629 0.94853 0.64013 0.0
O1440 O 0.8892 0.85158 0.63769 0.0
H1441 H 0.84258 0.86821 0.57388 0.0
H1442 H 0.88767 0.83111 0.58879 0.0
H1443 H 0.86129 0.81915 0.57628 0.0
H1444 H 0.83853 0.83775 0.56869 0.0
H1445 H 0.86904 0.87963 0.58671 0.0
H1446 H 0.91579 0.8465 0.54131 0.0
H1447 H 0.93988 0.83063 0.55117 0.0
O1448 O 0.9013 0.8457 0.61362 0.0
C1449 C 0.92637 0.87663 0.62434 0.0
C1450 C 0.93652 0.83663 0.57699 0.0
C1451 C 0.91901 0.84602 0.55447 0.0
N1452 N 0.91358 0.85368 0.5827 0.0
C1453 C 0.92688 0.84507 0.58821 0.0
C1454 C 0.90965 0.85431 0.56606 0.0
C1455 C 0.93252 0.83711 0.56001 0.0
C1456 C 0.88097 0.90928 0.63103 0.0
N1457 N 0.89258 0.90047 0.63943 0.0
C1458 C 0.8821 0.92668 0.63115 0.0
C1459 C 0.89524 0.93505 0.63994 0.0
C1460 C 0.90705 0.92596 0.64847 0.0
C1461 C 0.90553 0.90857 0.64805 0.0
C1462 C 0.88602 0.88367 0.6899 0.0
C1463 C 0.90496 0.8648 0.66931 0.0
C1464 C 0.8842 0.88446 0.67258 0.0
N1465 N 0.89369 0.87517 0.66254 0.0
C1466 C 0.90713 0.86368 0.68657 0.0
C1467 C 0.89759 0.87321 0.69691 0.0
C1468 C 0.89523 0.84137 0.62753 0.0
C1469 C 0.85242 0.85998 0.57709 0.0
C1470 C 0.87779 0.83929 0.58564 0.0
C1471 C 0.8629 0.83244 0.57849 0.0
C1472 C 0.85015 0.84289 0.57421 0.0
N1473 N 0.87992 0.85607 0.58846 0.0
C1474 C 0.86747 0.86639 0.58428 0.0
Co1475 Co 0.6448 0.36912 0.10104 0.0
Co1476 Co 0.61144 0.37648 0.12604 0.0
O1477 O 0.63463 0.38023 0.11951 0.0
C1478 C 0.66653 0.3604 0.12973 0.0
O1479 O 0.65305 0.35633 0.138 0.0
C1480 C 0.61498 0.41208 0.1169 0.0
O1481 O 0.6217 0.4065 0.10337 0.0
O1482 O 0.60275 0.37695 0.10254 0.0
O1483 O 0.62461 0.37184 0.08662 0.0
H1484 H 0.55363 0.34926 0.12379 0.0
H1485 H 0.66273 0.39782 0.1181 0.0
O1486 O 0.66535 0.36618 0.11505 0.0
H1487 H 0.65644 0.41445 0.05938 0.0
H1488 H 0.69226 0.35603 0.0641 0.0
H1489 H 0.63293 0.34367 0.07595 0.0
H1490 H 0.64607 0.38664 0.06844 0.0
H1491 H 0.67895 0.37041 0.08711 0.0
O1492 O 0.60965 0.40167 0.12778 0.0
H1493 H 0.58284 0.35371 0.1153 0.0
H1494 H 0.59087 0.39239 0.1514 0.0
H1495 H 0.6457 0.32909 0.05272 0.0
H1496 H 0.67341 0.4257 0.10956 0.0
H1497 H 0.67558 0.33525 0.04667 0.0
H1498 H 0.67021 0.4342 0.08003 0.0
O1499 O 0.63563 0.34708 0.10852 0.0
H1500 H 0.64593 0.39709 0.17589 0.0
H1501 H 0.60549 0.35337 0.1543 0.0
H1502 H 0.61624 0.35194 0.1833 0.0
H1503 H 0.63659 0.37393 0.19427 0.0
H1504 H 0.63498 0.39796 0.14693 0.0
H1505 H 0.5617 0.38847 0.1602 0.0
H1506 H 0.54289 0.36672 0.14639 0.0
O1507 O 0.61321 0.35143 0.12408 0.0
C1508 C 0.6093 0.37472 0.08847 0.0
C1509 C 0.56172 0.35874 0.12994 0.0
C1510 C 0.56624 0.38076 0.15036 0.0
N1511 N 0.58856 0.3732 0.13294 0.0
C1512 C 0.57828 0.36127 0.12522 0.0
C1513 C 0.58273 0.38295 0.1453 0.0
C1514 C 0.55569 0.36855 0.14261 0.0
C1515 C 0.66144 0.40138 0.1052 0.0
N1516 N 0.65379 0.39063 0.09378 0.0
C1517 C 0.66745 0.4172 0.10045 0.0
C1518 C 0.66564 0.42197 0.08388 0.0
C1519 C 0.6579 0.4109 0.07229 0.0
C1520 C 0.65201 0.39519 0.0775 0.0
C1521 C 0.67922 0.35326 0.06658 0.0
C1522 C 0.64591 0.34649 0.07332 0.0
C1523 C 0.67163 0.36134 0.07962 0.0
N1524 N 0.65514 0.35797 0.08277 0.0
C1525 C 0.65308 0.33816 0.06019 0.0
C1526 C 0.66985 0.34161 0.05681 0.0
C1527 C 0.62334 0.34181 0.11713 0.0
C1528 C 0.63704 0.38746 0.17127 0.0
C1529 C 0.61438 0.36296 0.15898 0.0
C1530 C 0.62039 0.3621 0.17542 0.0
C1531 C 0.6318 0.37445 0.18157 0.0
N1532 N 0.61954 0.37579 0.14897 0.0
C1533 C 0.63074 0.38792 0.1549 0.0
Co1534 Co 0.1278 0.13369 0.63633 0.0
Co1535 Co 0.11519 0.14621 0.59715 0.0
O1536 O 0.12892 0.13327 0.61205 0.0
C1537 C 0.16277 0.14402 0.6291 0.0
O1538 O 0.15622 0.15458 0.61875 0.0
C1539 C 0.11043 0.11138 0.58443 0.0
O1540 O 0.1105 0.10595 0.59979 0.0
O1541 O 0.09469 0.1383 0.60853 0.0
O1542 O 0.10243 0.13302 0.63505 0.0
H1543 H 0.07009 0.18534 0.58311 0.0
H1544 H 0.14782 0.1085 0.61995 0.0
O1545 O 0.15315 0.13449 0.63772 0.0
H1546 H 0.10488 0.07628 0.65069 0.0
H1547 H 0.14613 0.1174 0.69408 0.0
H1548 H 0.10772 0.15092 0.66101 0.0
H1549 H 0.10622 0.107 0.65164 0.0
H1550 H 0.14669 0.1171 0.66336 0.0
O1551 O 0.11228 0.12688 0.58141 0.0
H1552 H 0.08788 0.16916 0.60181 0.0
H1553 H 0.11284 0.15021 0.56027 0.0
H1554 H 0.10663 0.15149 0.69169 0.0
H1555 H 0.14704 0.07779 0.6188 0.0
H1556 H 0.12593 0.13464 0.70843 0.0
H1557 H 0.12542 0.06147 0.6342 0.0
O1558 O 0.12849 0.1585 0.63706 0.0
H1559 H 0.17042 0.13889 0.57067 0.0
H1560 H 0.1294 0.17943 0.5866 0.0
H1561 H 0.15543 0.18936 0.57342 0.0
H1562 H 0.17616 0.16902 0.56536 0.0
H1563 H 0.14427 0.12952 0.584 0.0
H1564 H 0.09523 0.16607 0.5411 0.0
H1565 H 0.07372 0.18385 0.55252 0.0
O1566 O 0.1177 0.16593 0.61233 0.0
C1567 C 0.09125 0.13436 0.62345 0.0
C1568 C 0.07946 0.17769 0.57799 0.0
C1569 C 0.09356 0.16685 0.55441 0.0
N1570 N 0.10148 0.15888 0.58215 0.0
C1571 C 0.0896 0.16854 0.58852 0.0
C1572 C 0.10347 0.15788 0.56532 0.0
C1573 C 0.0815 0.17683 0.56082 0.0
C1574 C 0.13849 0.10148 0.62683 0.0
N1575 N 0.12712 0.10953 0.6359 0.0
C1576 C 0.13806 0.0841 0.62607 0.0
C1577 C 0.1259 0.07495 0.63469 0.0
C1578 C 0.11437 0.08325 0.64393 0.0
C1579 C 0.11516 0.10065 0.64438 0.0
C1580 C 0.13763 0.12476 0.68692 0.0
C1581 C 0.11608 0.14347 0.66822 0.0
C1582 C 0.13791 0.12467 0.66954 0.0
N1583 N 0.12715 0.13387 0.66043 0.0
C1584 C 0.11544 0.14388 0.68558 0.0
C1585 C 0.12629 0.13444 0.69496 0.0
C1586 C 0.12345 0.16943 0.62694 0.0
C1587 C 0.16146 0.14787 0.57408 0.0
C1588 C 0.13835 0.1705 0.58314 0.0
C1589 C 0.15306 0.1762 0.57566 0.0
C1590 C 0.16468 0.16478 0.57113 0.0
N1591 N 0.13528 0.1539 0.586 0.0
C1592 C 0.1466 0.14263 0.58156 0.0
Co1593 Co 0.36397 0.64244 0.08669 0.0
Co1594 Co 0.39475 0.63287 0.1153 0.0
O1595 O 0.37241 0.62945 0.10513 0.0
C1596 C 0.33825 0.64608 0.11189 0.0
O1597 O 0.35035 0.64941 0.12294 0.0
C1598 C 0.39222 0.59757 0.10433 0.0
O1599 O 0.38718 0.60349 0.08997 0.0
O1600 O 0.40548 0.63292 0.09319 0.0
O1601 O 0.38608 0.6431 0.07598 0.0
H1602 H 0.45249 0.6596 0.12254 0.0
H1603 H 0.34561 0.61107 0.09577 0.0
O1604 O 0.34159 0.64234 0.09694 0.0
H1605 H 0.36211 0.60282 0.03768 0.0
H1606 H 0.3211 0.65754 0.04319 0.0
H1607 H 0.37671 0.67212 0.06837 0.0
H1608 H 0.36915 0.62943 0.05238 0.0
H1609 H 0.33238 0.6409 0.06618 0.0
O1610 O 0.39631 0.60771 0.11631 0.0
H1611 H 0.42427 0.65565 0.10969 0.0
H1612 H 0.41267 0.61613 0.1429 0.0
H1613 H 0.36599 0.68902 0.04532 0.0
H1614 H 0.33819 0.5843 0.08149 0.0
H1615 H 0.33799 0.68174 0.03257 0.0
H1616 H 0.34652 0.58003 0.05226 0.0
O1617 O 0.3704 0.66343 0.09876 0.0
H1618 H 0.35558 0.61108 0.15878 0.0
H1619 H 0.39807 0.65504 0.14526 0.0
H1620 H 0.38459 0.65568 0.1725 0.0
H1621 H 0.36319 0.63357 0.17941 0.0
H1622 H 0.36927 0.61099 0.13164 0.0
H1623 H 0.44082 0.61956 0.15603 0.0
H1624 H 0.46092 0.64147 0.14589 0.0
O1625 O 0.39333 0.65809 0.11427 0.0
C1626 C 0.4008 0.63852 0.07912 0.0
C1627 C 0.44383 0.65005 0.12711 0.0
C1628 C 0.43728 0.62755 0.14589 0.0
N1629 N 0.41681 0.63577 0.12564 0.0
C1630 C 0.42782 0.64779 0.11992 0.0
C1631 C 0.42138 0.62565 0.13839 0.0
C1632 C 0.44855 0.63986 0.1402 0.0
C1633 C 0.3491 0.60936 0.08298 0.0
N1634 N 0.35772 0.62181 0.07489 0.0
C1635 C 0.34493 0.59416 0.07499 0.0
C1636 C 0.34964 0.59176 0.05859 0.0
C1637 C 0.3584 0.60454 0.05041 0.0
C1638 C 0.36238 0.61956 0.05881 0.0
C1639 C 0.33334 0.66079 0.04861 0.0
C1640 C 0.36458 0.6688 0.06279 0.0
C1641 C 0.33978 0.65143 0.06163 0.0
N1642 N 0.35527 0.65542 0.06846 0.0
C1643 C 0.35854 0.67845 0.04979 0.0
C1644 C 0.34282 0.67438 0.04265 0.0
C1645 C 0.38274 0.66808 0.1083 0.0
C1646 C 0.36492 0.62075 0.15593 0.0
C1647 C 0.38874 0.6454 0.14817 0.0
C1648 C 0.38117 0.64581 0.16362 0.0
C1649 C 0.36918 0.63339 0.16749 0.0
N1650 N 0.38451 0.63295 0.13691 0.0
C1651 C 0.37276 0.62073 0.14061 0.0
Co1652 Co 0.87013 0.10902 0.39362 0.0
Co1653 Co 0.86385 0.14164 0.42052 0.0
O1654 O 0.87493 0.13171 0.40193 0.0
C1655 C 0.90614 0.11075 0.40276 0.0
O1656 O 0.90141 0.11653 0.41713 0.0
C1657 C 0.85849 0.1656 0.39343 0.0
O1658 O 0.85385 0.15291 0.38368 0.0
O1659 O 0.84166 0.13491 0.41054 0.0
O1660 O 0.84517 0.11142 0.39576 0.0
H1661 H 0.82174 0.14336 0.46564 0.0
H1662 H 0.89153 0.13268 0.37437 0.0
O1663 O 0.89508 0.10657 0.39151 0.0
H1664 H 0.84361 0.11666 0.33687 0.0
H1665 H 0.87919 0.06032 0.35573 0.0
H1666 H 0.84696 0.08075 0.40249 0.0
H1667 H 0.84579 0.10479 0.36503 0.0
H1668 H 0.88433 0.089 0.36658 0.0
O1669 O 0.86335 0.16319 0.4084 0.0
H1670 H 0.83613 0.13075 0.44226 0.0
H1671 H 0.86762 0.17453 0.43805 0.0
H1672 H 0.84131 0.05203 0.39196 0.0
H1673 H 0.88991 0.14475 0.34627 0.0
H1674 H 0.85749 0.04165 0.36841 0.0
H1675 H 0.86579 0.13678 0.32732 0.0
O1676 O 0.87129 0.09956 0.41649 0.0
H1677 H 0.92269 0.16607 0.41928 0.0
H1678 H 0.87997 0.13869 0.45425 0.0
H1679 H 0.90797 0.14605 0.46638 0.0
H1680 H 0.92956 0.15984 0.44884 0.0
H1681 H 0.89455 0.15838 0.40762 0.0
H1682 H 0.85347 0.18768 0.46128 0.0
H1683 H 0.8304 0.17203 0.47529 0.0
O1684 O 0.86396 0.12041 0.43307 0.0
C1685 C 0.83594 0.12242 0.40188 0.0
C1686 C 0.83181 0.15028 0.45967 0.0
C1687 C 0.84961 0.17516 0.45721 0.0
N1688 N 0.8528 0.15183 0.43891 0.0
C1689 C 0.84004 0.14319 0.44646 0.0
C1690 C 0.85755 0.16767 0.44404 0.0
C1691 C 0.83667 0.16637 0.46507 0.0
C1692 C 0.88108 0.12903 0.36614 0.0
N1693 N 0.86882 0.11798 0.3713 0.0
C1694 C 0.88019 0.13596 0.35027 0.0
C1695 C 0.86664 0.1315 0.33965 0.0
C1696 C 0.85419 0.12022 0.34501 0.0
C1697 C 0.85548 0.11357 0.36097 0.0
C1698 C 0.87203 0.06471 0.36597 0.0
C1699 C 0.85397 0.07635 0.39217 0.0
C1700 C 0.87491 0.08091 0.37219 0.0
N1701 N 0.86586 0.08656 0.38506 0.0
C1702 C 0.85075 0.06007 0.38629 0.0
C1703 C 0.85985 0.05424 0.37309 0.0
C1704 C 0.86753 0.10533 0.43066 0.0
C1705 C 0.91337 0.16011 0.42706 0.0
C1706 C 0.8893 0.14468 0.44654 0.0
C1707 C 0.90512 0.14884 0.45348 0.0
C1708 C 0.91722 0.15659 0.44364 0.0
N1709 N 0.88561 0.14818 0.43026 0.0
C1710 C 0.8974 0.1558 0.42055 0.0
Co1711 Co 0.36372 0.39728 0.91067 0.0
Co1712 Co 0.37433 0.38791 0.87059 0.0
O1713 O 0.37605 0.38502 0.89458 0.0
C1714 C 0.39876 0.40335 0.92345 0.0
O1715 O 0.40283 0.41043 0.90935 0.0
C1716 C 0.36563 0.3522 0.87618 0.0
O1717 O 0.35496 0.35767 0.88679 0.0
O1718 O 0.34948 0.38628 0.87079 0.0
O1719 O 0.34331 0.39647 0.89587 0.0
H1720 H 0.35268 0.41212 0.81724 0.0
H1721 H 0.38046 0.36671 0.92079 0.0
O1722 O 0.38383 0.39796 0.92589 0.0
H1723 H 0.3209 0.35546 0.93235 0.0
H1724 H 0.34666 0.41192 0.96864 0.0
H1725 H 0.34081 0.42507 0.90895 0.0
H1726 H 0.33073 0.38253 0.92101 0.0
H1727 H 0.36147 0.39614 0.94764 0.0
O1728 O 0.37453 0.36271 0.86788 0.0
H1729 H 0.35496 0.4089 0.84774 0.0
H1730 H 0.39021 0.37173 0.842 0.0
H1731 H 0.32568 0.44108 0.92952 0.0
H1732 H 0.37118 0.33953 0.93228 0.0
H1733 H 0.32856 0.43453 0.9596 0.0
H1734 H 0.3412 0.33374 0.93806 0.0
O1735 O 0.37126 0.41878 0.9006 0.0
H1736 H 0.43207 0.3705 0.88563 0.0
H1737 H 0.3993 0.41145 0.85533 0.0
H1738 H 0.43007 0.41421 0.85539 0.0
H1739 H 0.44666 0.39361 0.8706 0.0
H1740 H 0.40128 0.36828 0.88535 0.0
H1741 H 0.38822 0.37443 0.81143 0.0
H1742 H 0.36939 0.3948 0.79887 0.0
O1743 O 0.37403 0.4131 0.87331 0.0
C1744 C 0.33906 0.39111 0.8813 0.0
C1745 C 0.36097 0.40324 0.82257 0.0
C1746 C 0.3809 0.38207 0.8193 0.0
N1747 N 0.37282 0.39026 0.84662 0.0
C1748 C 0.36235 0.40141 0.83982 0.0
C1749 C 0.38195 0.38057 0.83661 0.0
C1750 C 0.37034 0.39351 0.81227 0.0
C1751 C 0.36742 0.36437 0.92348 0.0
N1752 N 0.35617 0.37624 0.92032 0.0
C1753 C 0.36223 0.34892 0.9299 0.0
C1754 C 0.3454 0.34567 0.93312 0.0
C1755 C 0.334 0.35785 0.9299 0.0
C1756 C 0.33964 0.37314 0.92345 0.0
C1757 C 0.34528 0.41487 0.95556 0.0
C1758 C 0.34204 0.42208 0.92202 0.0
C1759 C 0.35365 0.40599 0.94362 0.0
N1760 N 0.35188 0.40959 0.92708 0.0
C1761 C 0.33348 0.43122 0.9336 0.0
C1762 C 0.33512 0.42755 0.95048 0.0
C1763 C 0.37362 0.42338 0.88562 0.0
C1764 C 0.42498 0.37952 0.87892 0.0
C1765 C 0.40644 0.40246 0.86201 0.0
C1766 C 0.42386 0.40407 0.86197 0.0
C1767 C 0.43316 0.39251 0.8705 0.0
N1768 N 0.39851 0.38966 0.87025 0.0
C1769 C 0.40754 0.3783 0.87866 0.0
Co1770 Co 0.13885 0.90752 0.38925 0.0
Co1771 Co 0.14774 0.87538 0.41596 0.0
O1772 O 0.13577 0.88461 0.39708 0.0
C1773 C 0.1035 0.90366 0.39883 0.0
O1774 O 0.10957 0.89757 0.4127 0.0
C1775 C 0.15567 0.85304 0.38815 0.0
O1776 O 0.15869 0.86633 0.3791 0.0
O1777 O 0.16939 0.8846 0.40769 0.0
O1778 O 0.16403 0.9063 0.39105 0.0
H1779 H 0.18933 0.87704 0.4639 0.0
H1780 H 0.11723 0.8829 0.36982 0.0
O1781 O 0.11355 0.90875 0.38761 0.0
H1782 H 0.16191 0.90107 0.33202 0.0
H1783 H 0.12481 0.95552 0.35252 0.0
H1784 H 0.16136 0.93681 0.39827 0.0
H1785 H 0.16107 0.91284 0.36044 0.0
H1786 H 0.12176 0.92674 0.3629 0.0
O1787 O 0.15072 0.85448 0.403 0.0
H1788 H 0.17378 0.8886 0.44011 0.0
H1789 H 0.14757 0.84191 0.43175 0.0
H1790 H 0.16494 0.96566 0.38819 0.0
H1791 H 0.11751 0.87091 0.34146 0.0
H1792 H 0.14657 0.97517 0.36515 0.0
H1793 H 0.14 0.87997 0.32236 0.0
O1794 O 0.13883 0.917 0.41229 0.0
H1795 H 0.0914 0.84544 0.40967 0.0
H1796 H 0.13117 0.87512 0.44881 0.0
H1797 H 0.10382 0.8646 0.45876 0.0
H1798 H 0.08371 0.84965 0.43911 0.0
H1799 H 0.11885 0.85629 0.40023 0.0
H1800 H 0.16294 0.82979 0.45535 0.0
H1801 H 0.18394 0.84743 0.47165 0.0
O1802 O 0.14502 0.89596 0.42932 0.0
C1803 C 0.1741 0.89663 0.39836 0.0
C1804 C 0.18018 0.86924 0.45693 0.0
C1805 C 0.16538 0.84272 0.45211 0.0
N1806 N 0.1597 0.86598 0.43465 0.0
C1807 C 0.1713 0.87573 0.44348 0.0
C1808 C 0.15674 0.84964 0.43874 0.0
C1809 C 0.17716 0.85263 0.46126 0.0
C1810 C 0.12697 0.88702 0.36153 0.0
N1811 N 0.13906 0.89862 0.36674 0.0
C1812 C 0.1271 0.88013 0.34551 0.0
C1813 C 0.13974 0.8852 0.33481 0.0
C1814 C 0.15204 0.89704 0.34022 0.0
C1815 C 0.15151 0.90363 0.35633 0.0
C1816 C 0.1329 0.95151 0.36254 0.0
C1817 C 0.1534 0.94084 0.38817 0.0
C1818 C 0.13121 0.93525 0.36849 0.0
N1819 N 0.14146 0.93009 0.38108 0.0
C1820 C 0.15545 0.95719 0.38255 0.0
C1821 C 0.14512 0.96253 0.36963 0.0
C1822 C 0.14168 0.91105 0.42668 0.0
C1823 C 0.10007 0.85191 0.41836 0.0
C1824 C 0.12248 0.86864 0.44019 0.0
C1825 C 0.10702 0.86269 0.4459 0.0
C1826 C 0.09575 0.85429 0.43487 0.0
N1827 N 0.1266 0.8663 0.42397 0.0
C1828 C 0.11565 0.85802 0.4131 0.0
Co1829 Co 0.65224 0.61296 0.91676 0.0
Co1830 Co 0.64214 0.62396 0.87682 0.0
O1831 O 0.64054 0.6266 0.90086 0.0
C1832 C 0.61742 0.61158 0.92889 0.0
O1833 O 0.6118 0.60684 0.914 0.0
C1834 C 0.65113 0.6596 0.88362 0.0
O1835 O 0.66181 0.65403 0.89463 0.0
O1836 O 0.66692 0.62563 0.87856 0.0
O1837 O 0.67198 0.61188 0.90219 0.0
H1838 H 0.66393 0.60051 0.82394 0.0
H1839 H 0.63919 0.64496 0.92797 0.0
O1840 O 0.63302 0.61402 0.93188 0.0
H1841 H 0.69987 0.65021 0.93987 0.0
H1842 H 0.67036 0.59586 0.97437 0.0
H1843 H 0.67183 0.58277 0.91434 0.0
H1844 H 0.6869 0.6243 0.92764 0.0
H1845 H 0.65641 0.61347 0.95379 0.0
O1846 O 0.64201 0.64918 0.87478 0.0
H1847 H 0.66162 0.60334 0.8544 0.0
H1848 H 0.62623 0.64045 0.84787 0.0
H1849 H 0.68602 0.56489 0.93448 0.0
H1850 H 0.65163 0.67102 0.94042 0.0
H1851 H 0.68536 0.57141 0.96474 0.0
H1852 H 0.6822 0.6738 0.94636 0.0
O1853 O 0.64204 0.59247 0.90601 0.0
H1854 H 0.58445 0.64141 0.88914 0.0
H1855 H 0.61713 0.60062 0.8596 0.0
H1856 H 0.58636 0.59796 0.85791 0.0
H1857 H 0.56981 0.61848 0.87273 0.0
H1858 H 0.61524 0.64352 0.8906 0.0
H1859 H 0.62825 0.63814 0.81732 0.0
H1860 H 0.64715 0.618 0.80518 0.0
O1861 O 0.64247 0.59866 0.87874 0.0
C1862 C 0.67681 0.61886 0.88882 0.0
C1863 C 0.6556 0.60929 0.82908 0.0
C1864 C 0.63559 0.63042 0.82536 0.0
N1865 N 0.64368 0.62192 0.85287 0.0
C1866 C 0.6542 0.6109 0.84631 0.0
C1867 C 0.63452 0.6317 0.84265 0.0
C1868 C 0.64619 0.61912 0.81856 0.0
C1869 C 0.65247 0.64599 0.93072 0.0
N1870 N 0.66229 0.63309 0.92711 0.0
C1871 C 0.65946 0.66081 0.93769 0.0
C1872 C 0.67661 0.66237 0.941 0.0
C1873 C 0.68654 0.64915 0.93734 0.0
C1874 C 0.67912 0.63452 0.93037 0.0
C1875 C 0.67077 0.59292 0.96122 0.0
C1876 C 0.67156 0.58574 0.92748 0.0
C1877 C 0.66287 0.60282 0.94951 0.0
N1878 N 0.66343 0.59922 0.93287 0.0
C1879 C 0.67958 0.57554 0.93883 0.0
C1880 C 0.67919 0.5792 0.9558 0.0
C1881 C 0.641 0.58817 0.89068 0.0
C1882 C 0.59152 0.63243 0.88259 0.0
C1883 C 0.61001 0.60956 0.86612 0.0
C1884 C 0.59259 0.60802 0.86509 0.0
C1885 C 0.58332 0.61954 0.8734 0.0
N1886 N 0.61796 0.62226 0.87513 0.0
C1887 C 0.60896 0.63359 0.88332 0.0
Co1888 Co 0.60673 0.88316 0.86612 0.0
Co1889 Co 0.64575 0.87431 0.88115 0.0
O1890 O 0.62159 0.8704 0.87993 0.0
C1891 C 0.59178 0.88461 0.89953 0.0
O1892 O 0.60639 0.88982 0.90589 0.0
C1893 C 0.64018 0.83881 0.87146 0.0
O1894 O 0.63026 0.84439 0.85974 0.0
O1895 O 0.6471 0.87387 0.85644 0.0
O1896 O 0.62313 0.88473 0.84787 0.0
H1897 H 0.70094 0.90176 0.86621 0.0
H1898 H 0.5943 0.85091 0.88002 0.0
O1899 O 0.5899 0.88171 0.88396 0.0
H1900 H 0.58813 0.84418 0.81904 0.0
H1901 H 0.55068 0.89709 0.84186 0.0
H1902 H 0.61083 0.91318 0.84511 0.0
H1903 H 0.59916 0.87081 0.83144 0.0
H1904 H 0.57007 0.88076 0.85867 0.0
O1905 O 0.64799 0.8492 0.88143 0.0
H1906 H 0.67028 0.8972 0.86478 0.0
H1907 H 0.67292 0.85843 0.90021 0.0
H1908 H 0.59191 0.92979 0.82806 0.0
H1909 H 0.58306 0.82412 0.86813 0.0
H1910 H 0.5616 0.92176 0.82635 0.0
H1911 H 0.57999 0.82061 0.83743 0.0
O1912 O 0.61651 0.9043 0.8759 0.0
H1913 H 0.62671 0.8532 0.93657 0.0
H1914 H 0.65974 0.89722 0.90796 0.0
H1915 H 0.65771 0.89837 0.93855 0.0
H1916 H 0.64112 0.87623 0.95305 0.0
H1917 H 0.62897 0.85262 0.906 0.0
H1918 H 0.70363 0.86245 0.90193 0.0
H1919 H 0.71782 0.8843 0.88489 0.0
O1920 O 0.64362 0.89949 0.88071 0.0
C1921 C 0.63761 0.87963 0.84514 0.0
C1922 C 0.6949 0.89224 0.87374 0.0
C1923 C 0.69641 0.87016 0.89377 0.0
N1924 N 0.66984 0.87767 0.88251 0.0
C1925 C 0.67754 0.88964 0.87302 0.0
C1926 C 0.67903 0.86791 0.89272 0.0
C1927 C 0.70436 0.88242 0.88421 0.0
C1928 C 0.59281 0.84955 0.86665 0.0
N1929 N 0.59732 0.86244 0.85645 0.0
C1930 C 0.58651 0.83432 0.85999 0.0
C1931 C 0.58482 0.83235 0.84276 0.0
C1932 C 0.5894 0.84557 0.83244 0.0
C1933 C 0.59567 0.8606 0.83953 0.0
C1934 C 0.56387 0.90069 0.84247 0.0
C1935 C 0.59767 0.90954 0.84433 0.0
C1936 C 0.5749 0.89151 0.85198 0.0
N1937 N 0.59159 0.89592 0.85273 0.0
C1938 C 0.58701 0.91902 0.8347 0.0
C1939 C 0.57 0.91452 0.83377 0.0
C1940 C 0.63151 0.90935 0.87956 0.0
C1941 C 0.63402 0.8629 0.9304 0.0
C1942 C 0.65246 0.88757 0.91418 0.0
C1943 C 0.65139 0.88826 0.9315 0.0
C1944 C 0.64208 0.87583 0.93964 0.0
N1945 N 0.64455 0.87482 0.90522 0.0
C1946 C 0.6354 0.8626 0.9131 0.0
Co1947 Co 0.62031 0.12145 0.40111 0.0
Co1948 Co 0.62917 0.09407 0.36984 0.0
O1949 O 0.61674 0.11212 0.37872 0.0
C1950 C 0.58434 0.11115 0.39912 0.0
O1951 O 0.58936 0.0966 0.39437 0.0
C1952 C 0.63385 0.11992 0.34421 0.0
O1953 O 0.63867 0.13042 0.35622 0.0
O1954 O 0.65059 0.10621 0.37587 0.0
O1955 O 0.64549 0.11991 0.39966 0.0
H1956 H 0.67441 0.05303 0.37018 0.0
H1957 H 0.60009 0.13916 0.37607 0.0
O1958 O 0.59518 0.12295 0.40272 0.0
H1959 H 0.64702 0.17857 0.39205 0.0
H1960 H 0.60849 0.16087 0.44784 0.0
H1961 H 0.642 0.1143 0.4304 0.0
H1962 H 0.64433 0.15084 0.40495 0.0
H1963 H 0.60491 0.14879 0.41954 0.0
O1964 O 0.62916 0.10497 0.34757 0.0
H1965 H 0.6583 0.07563 0.38159 0.0
H1966 H 0.62701 0.07455 0.33806 0.0
H1967 H 0.64609 0.12608 0.45878 0.0
H1968 H 0.60222 0.16681 0.36296 0.0
H1969 H 0.62926 0.14954 0.46765 0.0
H1970 H 0.62585 0.18671 0.37091 0.0
O1971 O 0.61875 0.09893 0.41131 0.0
H1972 H 0.57069 0.08869 0.34574 0.0
H1973 H 0.61521 0.05943 0.37507 0.0
H1974 H 0.58816 0.04449 0.36865 0.0
H1975 H 0.56567 0.05914 0.35388 0.0
H1976 H 0.5979 0.10319 0.35254 0.0
H1977 H 0.64288 0.05203 0.3261 0.0
H1978 H 0.66672 0.04107 0.34223 0.0
O1979 O 0.62966 0.08277 0.39186 0.0
C1980 C 0.65546 0.11471 0.38872 0.0
C1981 C 0.664 0.05764 0.36306 0.0
C1982 C 0.64631 0.0571 0.33831 0.0
N1983 N 0.6416 0.07624 0.3606 0.0
C1984 C 0.65479 0.07039 0.36949 0.0
C1985 C 0.63739 0.06986 0.34514 0.0
C1986 C 0.65969 0.05095 0.34737 0.0
C1987 C 0.61032 0.14781 0.3797 0.0
N1988 N 0.62202 0.14343 0.39132 0.0
C1989 C 0.6115 0.16342 0.37219 0.0
C1990 C 0.62477 0.17457 0.37664 0.0
C1991 C 0.63666 0.17001 0.38849 0.0
C1992 C 0.63509 0.15428 0.39573 0.0
C1993 C 0.61592 0.15067 0.44411 0.0
C1994 C 0.63471 0.12458 0.43415 0.0
C1995 C 0.61392 0.14376 0.42812 0.0
N1996 N 0.62333 0.13095 0.42331 0.0
C1997 C 0.63705 0.13116 0.45024 0.0
C1998 C 0.62758 0.14431 0.45522 0.0
C1999 C 0.62451 0.08526 0.40651 0.0
C2000 C 0.58041 0.08216 0.35214 0.0
C2001 C 0.60548 0.06589 0.36866 0.0
C2002 C 0.5902 0.05736 0.36503 0.0
C2003 C 0.57759 0.06559 0.35673 0.0
N2004 N 0.60815 0.08214 0.36411 0.0
C2005 C 0.59586 0.09028 0.35595 0.0
Co2006 Co 0.41567 0.129 0.86501 0.0
Co2007 Co 0.3763 0.13801 0.87687 0.0
O2008 O 0.40047 0.14212 0.87746 0.0
C2009 C 0.43049 0.12876 0.8994 0.0
O2010 O 0.41594 0.12365 0.90512 0.0
C2011 C 0.38164 0.17329 0.86711 0.0
O2012 O 0.39191 0.16756 0.85625 0.0
O2013 O 0.3755 0.13772 0.85208 0.0
O2014 O 0.3996 0.12655 0.84567 0.0
H2015 H 0.32172 0.10959 0.85808 0.0
H2016 H 0.42762 0.16188 0.87899 0.0
O2017 O 0.43226 0.13128 0.8839 0.0
H2018 H 0.43457 0.16632 0.81834 0.0
H2019 H 0.47219 0.11474 0.84494 0.0
H2020 H 0.41215 0.09812 0.84448 0.0
H2021 H 0.42363 0.14008 0.83058 0.0
H2022 H 0.45242 0.13152 0.85998 0.0
O2023 O 0.37379 0.16307 0.87665 0.0
H2024 H 0.35236 0.11443 0.85893 0.0
H2025 H 0.34858 0.15411 0.89365 0.0
H2026 H 0.43147 0.08104 0.82918 0.0
H2027 H 0.43877 0.18831 0.86727 0.0
H2028 H 0.46173 0.08933 0.82934 0.0
H2029 H 0.44223 0.19067 0.83673 0.0
O2030 O 0.40593 0.10816 0.8746 0.0
H2031 H 0.39391 0.16087 0.93341 0.0
H2032 H 0.36193 0.11573 0.9029 0.0
H2033 H 0.36329 0.11548 0.93362 0.0
H2034 H 0.37934 0.13819 0.94908 0.0
H2035 H 0.39233 0.16055 0.90269 0.0
H2036 H 0.31788 0.14982 0.89307 0.0
H2037 H 0.30427 0.12737 0.87524 0.0
O2038 O 0.37866 0.11287 0.87693 0.0
C2039 C 0.38523 0.13153 0.84166 0.0
C2040 C 0.32751 0.11937 0.86594 0.0
C2041 C 0.32535 0.14197 0.88556 0.0
N2042 N 0.35222 0.13444 0.87644 0.0
C2043 C 0.34485 0.12213 0.86651 0.0
C2044 C 0.34272 0.14437 0.88581 0.0
C2045 C 0.31772 0.12937 0.87556 0.0
C2046 C 0.42928 0.16274 0.86571 0.0
N2047 N 0.42504 0.14942 0.8555 0.0
C2048 C 0.43553 0.17777 0.85914 0.0
C2049 C 0.43744 0.1791 0.84199 0.0
C2050 C 0.43313 0.16544 0.83167 0.0
C2051 C 0.42691 0.15062 0.83868 0.0
C2052 C 0.45903 0.11102 0.84474 0.0
C2053 C 0.42529 0.10186 0.84452 0.0
C2054 C 0.44778 0.12046 0.85325 0.0
N2055 N 0.43113 0.11589 0.85297 0.0
C2056 C 0.43617 0.09212 0.83588 0.0
C2057 C 0.45315 0.09677 0.83599 0.0
C2058 C 0.39087 0.10309 0.87702 0.0
C2059 C 0.38683 0.15093 0.92682 0.0
C2060 C 0.36898 0.12563 0.90954 0.0
C2061 C 0.36967 0.12544 0.92693 0.0
C2062 C 0.37867 0.13819 0.9356 0.0
N2063 N 0.37698 0.13819 0.90102 0.0
C2064 C 0.38584 0.15072 0.90943 0.0
Co2065 Co 0.38897 0.89726 0.39711 0.0
Co2066 Co 0.38126 0.924 0.36464 0.0
O2067 O 0.39199 0.90508 0.37437 0.0
C2068 C 0.42515 0.90586 0.395 0.0
O2069 O 0.42044 0.92009 0.38906 0.0
C2070 C 0.37125 0.89651 0.34102 0.0
O2071 O 0.36702 0.88724 0.35377 0.0
O2072 O 0.35912 0.91545 0.37236 0.0
O2073 O 0.36399 0.89984 0.39504 0.0
H2074 H 0.34302 0.97162 0.36424 0.0
H2075 H 0.40745 0.87727 0.37318 0.0
O2076 O 0.41405 0.89482 0.39929 0.0
H2077 H 0.35948 0.84082 0.3896 0.0
H2078 H 0.4009 0.85996 0.44554 0.0
H2079 H 0.36873 0.90694 0.42567 0.0
H2080 H 0.36388 0.86914 0.40153 0.0
H2081 H 0.40389 0.87031 0.41687 0.0
O2082 O 0.37733 0.91132 0.34331 0.0
H2083 H 0.35704 0.94779 0.37649 0.0
H2084 H 0.38214 0.94022 0.33135 0.0
H2085 H 0.36525 0.89692 0.45439 0.0
H2086 H 0.40359 0.849 0.36105 0.0
H2087 H 0.38141 0.87327 0.46449 0.0
H2088 H 0.37944 0.83058 0.36922 0.0
O2089 O 0.39183 0.92025 0.40663 0.0
H2090 H 0.43698 0.9183 0.33866 0.0
H2091 H 0.39995 0.95712 0.36528 0.0
H2092 H 0.42788 0.96737 0.35668 0.0
H2093 H 0.44662 0.94788 0.34326 0.0
H2094 H 0.40901 0.90856 0.34763 0.0
H2095 H 0.36827 0.96384 0.31855 0.0
H2096 H 0.34861 0.97978 0.33507 0.0
O2097 O 0.38503 0.93716 0.38565 0.0
C2098 C 0.35412 0.90673 0.38465 0.0
C2099 C 0.3516 0.96481 0.35693 0.0
C2100 C 0.36575 0.96043 0.33129 0.0
N2101 N 0.37049 0.94272 0.35469 0.0
C2102 C 0.35961 0.95134 0.36382 0.0
C2103 C 0.37353 0.94703 0.33858 0.0
C2104 C 0.35473 0.96937 0.34056 0.0
C2105 C 0.39699 0.86927 0.37692 0.0
N2106 N 0.38596 0.8748 0.38812 0.0
C2107 C 0.39484 0.8533 0.36995 0.0
C2108 C 0.38127 0.84298 0.37453 0.0
C2109 C 0.37006 0.84872 0.38595 0.0
C2110 C 0.3726 0.86478 0.39264 0.0
C2111 C 0.39376 0.87026 0.44128 0.0
C2112 C 0.37571 0.89657 0.42995 0.0
C2113 C 0.39543 0.87618 0.42508 0.0
N2114 N 0.38639 0.88912 0.41959 0.0
C2115 C 0.37373 0.89099 0.44624 0.0
C2116 C 0.38282 0.87772 0.4519 0.0
C2117 C 0.38926 0.93463 0.4008 0.0
C2118 C 0.42894 0.92691 0.3445 0.0
C2119 C 0.40807 0.94855 0.35958 0.0
C2120 C 0.42385 0.95444 0.35466 0.0
C2121 C 0.43435 0.9435 0.34711 0.0
N2122 N 0.40289 0.93225 0.35706 0.0
C2123 C 0.41307 0.92148 0.34956 0.0
Co2124 Co 0.5941 0.1349 0.1455 0.0
Co2125 Co 0.61834 0.12683 0.11208 0.0
O2126 O 0.61119 0.12278 0.13474 0.0
C2127 C 0.62203 0.13921 0.1704 0.0
O2128 O 0.63138 0.14598 0.15884 0.0
C2129 C 0.60809 0.09083 0.11218 0.0
O2130 O 0.59365 0.09564 0.11723 0.0
O2131 O 0.59484 0.12554 0.10317 0.0
O2132 O 0.58074 0.13591 0.12431 0.0
H2133 H 0.61741 0.1535 0.05571 0.0
H2134 H 0.60475 0.10311 0.15978 0.0
O2135 O 0.60705 0.13405 0.16702 0.0
H2136 H 0.54443 0.09409 0.14729 0.0
H2137 H 0.55652 0.14753 0.19271 0.0
H2138 H 0.57451 0.16405 0.13671 0.0
H2139 H 0.55888 0.12122 0.14176 0.0
H2140 H 0.57775 0.132 0.17834 0.0
O2141 O 0.61971 0.10178 0.10905 0.0
H2142 H 0.60839 0.14893 0.08452 0.0
H2143 H 0.64385 0.1119 0.09114 0.0
H2144 H 0.55316 0.17985 0.15058 0.0
H2145 H 0.59077 0.07582 0.16562 0.0
H2146 H 0.54403 0.1716 0.17879 0.0
H2147 H 0.5604 0.07116 0.15931 0.0
O2148 O 0.60573 0.15647 0.14008 0.0
H2149 H 0.66725 0.10834 0.14636 0.0
H2150 H 0.64733 0.15092 0.10779 0.0
H2151 H 0.67627 0.15347 0.11906 0.0
H2152 H 0.6864 0.13206 0.13846 0.0
H2153 H 0.63838 0.10634 0.1349 0.0
H2154 H 0.65318 0.11596 0.06235 0.0
H2155 H 0.63996 0.13694 0.04445 0.0
O2156 O 0.61691 0.15189 0.1151 0.0
C2157 C 0.58166 0.13114 0.1092 0.0
C2158 C 0.62331 0.14437 0.0634 0.0
C2159 C 0.64336 0.12328 0.06712 0.0
N2160 N 0.6257 0.13027 0.08952 0.0
C2161 C 0.61829 0.14177 0.07974 0.0
C2162 C 0.63802 0.12101 0.08339 0.0
C2163 C 0.63595 0.13505 0.05709 0.0
C2164 C 0.5915 0.10123 0.15716 0.0
N2165 N 0.58263 0.11377 0.15052 0.0
C2166 C 0.58366 0.08573 0.16042 0.0
C2167 C 0.56663 0.08311 0.15686 0.0
C2168 C 0.55767 0.09597 0.1501 0.0
C2169 C 0.56592 0.1113 0.14697 0.0
C2170 C 0.56037 0.15122 0.18041 0.0
C2171 C 0.57052 0.16033 0.14894 0.0
C2172 C 0.5724 0.14249 0.17222 0.0
N2173 N 0.57724 0.14703 0.15664 0.0
C2174 C 0.55846 0.16935 0.15675 0.0
C2175 C 0.55336 0.16472 0.17258 0.0
C2176 C 0.6128 0.16162 0.1269 0.0
C2177 C 0.663 0.11772 0.13787 0.0
C2178 C 0.65164 0.14158 0.11626 0.0
C2179 C 0.66805 0.14307 0.12257 0.0
C2180 C 0.67373 0.13104 0.13346 0.0
N2181 N 0.64121 0.12844 0.1206 0.0
C2182 C 0.64668 0.11662 0.13129 0.0
Co2183 Co 0.37794 0.13901 0.6309 0.0
Co2184 Co 0.38519 0.09787 0.63853 0.0
O2185 O 0.37358 0.1152 0.62703 0.0
C2186 C 0.3424 0.13245 0.63834 0.0
O2187 O 0.34792 0.12057 0.64779 0.0
C2188 C 0.39094 0.08813 0.60322 0.0
O2189 O 0.39952 0.10222 0.60085 0.0
O2190 O 0.40711 0.10873 0.63306 0.0
O2191 O 0.40302 0.13626 0.63172 0.0
H2192 H 0.42883 0.0752 0.67692 0.0
H2193 H 0.35613 0.12711 0.60238 0.0
O2194 O 0.35284 0.14172 0.63036 0.0
H2195 H 0.4027 0.15981 0.57756 0.0
H2196 H 0.36725 0.19942 0.6217 0.0
H2197 H 0.40115 0.15987 0.65266 0.0
H2198 H 0.40136 0.15669 0.60803 0.0
H2199 H 0.36269 0.16911 0.61708 0.0
O2200 O 0.3847 0.08473 0.61728 0.0
H2201 H 0.41357 0.09725 0.66289 0.0
H2202 H 0.38205 0.06074 0.63749 0.0
H2203 H 0.40624 0.19008 0.65757 0.0
H2204 H 0.35691 0.13002 0.57185 0.0
H2205 H 0.38921 0.21007 0.64202 0.0
H2206 H 0.38034 0.14644 0.55925 0.0
O2207 O 0.37733 0.13634 0.65546 0.0
H2208 H 0.32605 0.07684 0.62609 0.0
H2209 H 0.37042 0.08418 0.66961 0.0
H2210 H 0.34284 0.07183 0.67692 0.0
H2211 H 0.32043 0.0681 0.65508 0.0
H2212 H 0.35376 0.08929 0.61934 0.0
H2213 H 0.39704 0.03829 0.65114 0.0
H2214 H 0.42058 0.04547 0.67107 0.0
O2215 O 0.38555 0.11046 0.66007 0.0
C2216 C 0.41252 0.12386 0.63174 0.0
C2217 C 0.41856 0.07191 0.66831 0.0
C2218 C 0.40073 0.05119 0.65383 0.0
N2219 N 0.39684 0.08028 0.64951 0.0
C2220 C 0.40984 0.08434 0.66037 0.0
C2221 C 0.3923 0.06396 0.64611 0.0
C2222 C 0.41393 0.05523 0.66501 0.0
C2223 C 0.3663 0.13438 0.59699 0.0
N2224 N 0.37863 0.1418 0.60697 0.0
C2225 C 0.36671 0.13594 0.57969 0.0
C2226 C 0.37986 0.14514 0.57263 0.0
C2227 C 0.39242 0.15264 0.5829 0.0
C2228 C 0.39161 0.1508 0.60014 0.0
C2229 C 0.37478 0.19084 0.62852 0.0
C2230 C 0.39378 0.16851 0.64576 0.0
C2231 C 0.37223 0.17367 0.62598 0.0
N2232 N 0.38175 0.16278 0.63448 0.0
C2233 C 0.39668 0.18559 0.64864 0.0
C2234 C 0.38711 0.1968 0.63992 0.0
C2235 C 0.38143 0.1247 0.66519 0.0
C2236 C 0.33574 0.07836 0.6357 0.0
C2237 C 0.36073 0.08261 0.66003 0.0
C2238 C 0.34515 0.07558 0.66424 0.0
C2239 C 0.33258 0.07348 0.65198 0.0
N2240 N 0.36373 0.08739 0.64404 0.0
C2241 C 0.35148 0.08532 0.63194 0.0
Co2242 Co 0.41168 0.87322 0.14482 0.0
Co2243 Co 0.38499 0.883 0.11263 0.0
O2244 O 0.39385 0.88602 0.13538 0.0
C2245 C 0.38533 0.86891 0.16971 0.0
O2246 O 0.3748 0.86457 0.15746 0.0
C2247 C 0.39506 0.91892 0.1153 0.0
O2248 O 0.40949 0.91385 0.12077 0.0
O2249 O 0.40779 0.885 0.10344 0.0
O2250 O 0.42333 0.87298 0.12318 0.0
H2251 H 0.38191 0.85883 0.05466 0.0
H2252 H 0.40279 0.90431 0.16181 0.0
O2253 O 0.40049 0.87305 0.16674 0.0
H2254 H 0.46185 0.91353 0.14721 0.0
H2255 H 0.45299 0.85816 0.18982 0.0
H2256 H 0.42994 0.84415 0.13361 0.0
H2257 H 0.44663 0.88677 0.14056 0.0
H2258 H 0.43085 0.87456 0.17717 0.0
O2259 O 0.3834 0.90812 0.11108 0.0
H2260 H 0.39301 0.86221 0.08351 0.0
H2261 H 0.35792 0.89868 0.09322 0.0
H2262 H 0.45215 0.82749 0.14573 0.0
H2263 H 0.4176 0.9312 0.16886 0.0
H2264 H 0.46383 0.83447 0.17403 0.0
H2265 H 0.44733 0.93597 0.16148 0.0
O2266 O 0.39928 0.85212 0.13849 0.0
H2267 H 0.33855 0.8998 0.14899 0.0
H2268 H 0.35573 0.85897 0.10744 0.0
H2269 H 0.32765 0.8558 0.11918 0.0
H2270 H 0.3189 0.87633 0.1401 0.0
H2271 H 0.36656 0.90241 0.13703 0.0
H2272 H 0.34652 0.8958 0.06443 0.0
H2273 H 0.3585 0.87571 0.04496 0.0
O2274 O 0.38663 0.85781 0.11396 0.0
C2275 C 0.4213 0.8789 0.10863 0.0
C2276 C 0.37654 0.86758 0.06304 0.0
C2277 C 0.3567 0.88835 0.06852 0.0
N2278 N 0.37601 0.88051 0.09005 0.0
C2279 C 0.38274 0.86951 0.0794 0.0
C2280 C 0.36322 0.88995 0.08479 0.0
C2281 C 0.36342 0.87707 0.0576 0.0
C2282 C 0.41579 0.90622 0.15875 0.0
N2283 N 0.42385 0.89396 0.15086 0.0
C2284 C 0.42408 0.9215 0.1627 0.0
C2285 C 0.44075 0.92418 0.15852 0.0
C2286 C 0.44891 0.9116 0.15051 0.0
C2287 C 0.44021 0.89648 0.14675 0.0
C2288 C 0.44804 0.85502 0.17745 0.0
C2289 C 0.43504 0.84733 0.14588 0.0
C2290 C 0.43549 0.86425 0.17024 0.0
N2291 N 0.42924 0.86041 0.1546 0.0
C2292 C 0.44758 0.83782 0.1527 0.0
C2293 C 0.45412 0.84174 0.16859 0.0
C2294 C 0.39131 0.84758 0.12515 0.0
C2295 C 0.34221 0.8908 0.13985 0.0
C2296 C 0.35203 0.86792 0.11657 0.0
C2297 C 0.3361 0.86609 0.12315 0.0
C2298 C 0.33119 0.87762 0.13487 0.0
N2299 N 0.36274 0.88091 0.12149 0.0
C2300 C 0.35802 0.89226 0.13299 0.0
Co2301 Co 0.64003 0.8721 0.63501 0.0
Co2302 Co 0.63146 0.91275 0.64516 0.0
O2303 O 0.64277 0.8963 0.63208 0.0
C2304 C 0.67602 0.88071 0.64116 0.0
O2305 O 0.67112 0.89359 0.6495 0.0
C2306 C 0.62446 0.92174 0.60958 0.0
O2307 O 0.62528 0.90617 0.60477 0.0
O2308 O 0.6097 0.90027 0.6415 0.0
O2309 O 0.61487 0.87355 0.63593 0.0
H2310 H 0.59237 0.93118 0.68874 0.0
H2311 H 0.65996 0.88524 0.607 0.0
O2312 O 0.66519 0.87037 0.63437 0.0
H2313 H 0.61327 0.85135 0.58083 0.0
H2314 H 0.65295 0.81259 0.62321 0.0
H2315 H 0.61905 0.84978 0.65597 0.0
H2316 H 0.61602 0.85401 0.61141 0.0
H2317 H 0.65587 0.84309 0.61982 0.0
O2318 O 0.62683 0.926 0.6248 0.0
H2319 H 0.60707 0.91075 0.67225 0.0
H2320 H 0.63139 0.9499 0.64547 0.0
H2321 H 0.61563 0.81935 0.65967 0.0
H2322 H 0.65781 0.88275 0.57637 0.0
H2323 H 0.63267 0.80055 0.64321 0.0
H2324 H 0.63429 0.86575 0.56309 0.0
O2325 O 0.64213 0.87416 0.65973 0.0
H2326 H 0.68601 0.93927 0.62707 0.0
H2327 H 0.65009 0.92748 0.6749 0.0
H2328 H 0.67745 0.94243 0.67953 0.0
H2329 H 0.69561 0.94843 0.6555 0.0
H2330 H 0.65864 0.92419 0.62303 0.0
H2331 H 0.61685 0.97075 0.66157 0.0
H2332 H 0.59723 0.96143 0.68343 0.0
O2333 O 0.63561 0.90024 0.66596 0.0
C2334 C 0.6048 0.8852 0.63836 0.0
C2335 C 0.60094 0.9354 0.67929 0.0
C2336 C 0.61466 0.95761 0.66403 0.0
N2337 N 0.62019 0.92912 0.65802 0.0
C2338 C 0.60934 0.92389 0.66995 0.0
C2339 C 0.62284 0.94574 0.65493 0.0
C2340 C 0.60366 0.95237 0.67629 0.0
C2341 C 0.64979 0.87768 0.60131 0.0
N2342 N 0.63815 0.86975 0.61097 0.0
C2343 C 0.6486 0.87638 0.58396 0.0
C2344 C 0.63538 0.86686 0.57652 0.0
C2345 C 0.62357 0.85879 0.58647 0.0
C2346 C 0.62515 0.8604 0.60377 0.0
C2347 C 0.64544 0.82066 0.63043 0.0
C2348 C 0.62641 0.84165 0.64869 0.0
C2349 C 0.64705 0.83793 0.62859 0.0
N2350 N 0.63753 0.84816 0.6376 0.0
C2351 C 0.62447 0.82445 0.65087 0.0
C2352 C 0.63405 0.8139 0.64165 0.0
C2353 C 0.6398 0.88578 0.67017 0.0
C2354 C 0.67818 0.93678 0.63763 0.0
C2355 C 0.65793 0.93001 0.66438 0.0
C2356 C 0.6734 0.93851 0.66708 0.0
C2357 C 0.68357 0.94189 0.65359 0.0
N2358 N 0.65273 0.92504 0.64868 0.0
C2359 C 0.66263 0.92832 0.6354 0.0
Co2360 Co 0.87783 0.5948 0.8978 0.0
Co2361 Co 0.88918 0.63518 0.88768 0.0
O2362 O 0.89027 0.61119 0.8848 0.0
C2363 C 0.9128 0.5843 0.90062 0.0
O2364 O 0.91768 0.5994 0.90563 0.0
C2365 C 0.87978 0.62847 0.8523 0.0
O2366 O 0.86905 0.61733 0.85824 0.0
O2367 O 0.86435 0.63359 0.88683 0.0
O2368 O 0.85789 0.60865 0.898 0.0
H2369 H 0.8691 0.68791 0.91247 0.0
H2370 H 0.89336 0.58445 0.86647 0.0
O2371 O 0.89741 0.58048 0.89758 0.0
H2372 H 0.83312 0.57047 0.85822 0.0
H2373 H 0.85924 0.53639 0.91354 0.0
H2374 H 0.85592 0.59612 0.9269 0.0
H2375 H 0.84409 0.58287 0.88474 0.0
H2376 H 0.87426 0.55768 0.89687 0.0
O2377 O 0.88913 0.63739 0.86243 0.0
H2378 H 0.87056 0.65745 0.90925 0.0
H2379 H 0.9056 0.66425 0.87087 0.0
H2380 H 0.84062 0.57525 0.94382 0.0
H2381 H 0.88293 0.57191 0.83982 0.0
H2382 H 0.84222 0.54513 0.93717 0.0
H2383 H 0.8526 0.56491 0.83553 0.0
O2384 O 0.88633 0.60564 0.91884 0.0
H2385 H 0.94636 0.62296 0.86826 0.0
H2386 H 0.91475 0.65212 0.91044 0.0
H2387 H 0.94554 0.65372 0.91217 0.0
H2388 H 0.96155 0.63908 0.89096 0.0
H2389 H 0.91556 0.62159 0.86708 0.0
H2390 H 0.90442 0.69479 0.87356 0.0
H2391 H 0.88612 0.70679 0.89454 0.0
O2392 O 0.88899 0.63298 0.91294 0.0
C2393 C 0.85384 0.62274 0.89242 0.0
C2394 C 0.87716 0.68283 0.90333 0.0
C2395 C 0.89697 0.68669 0.88147 0.0
N2396 N 0.88827 0.65912 0.89 0.0
C2397 C 0.87808 0.6656 0.90149 0.0
C2398 C 0.89757 0.6694 0.87998 0.0
C2399 C 0.8867 0.69342 0.89325 0.0
C2400 C 0.88017 0.58124 0.86478 0.0
N2401 N 0.86937 0.58432 0.87719 0.0
C2402 C 0.87433 0.57422 0.84963 0.0
C2403 C 0.8573 0.57032 0.84722 0.0
C2404 C 0.84637 0.57345 0.85994 0.0
C2405 C 0.85265 0.58051 0.87492 0.0
C2406 C 0.85842 0.54947 0.91654 0.0
C2407 C 0.8566 0.58304 0.92387 0.0
C2408 C 0.86691 0.56158 0.90716 0.0
N2409 N 0.86584 0.57813 0.91082 0.0
C2410 C 0.84795 0.57128 0.93352 0.0
C2411 C 0.84887 0.55439 0.92979 0.0
C2412 C 0.88867 0.62088 0.92333 0.0
C2413 C 0.93952 0.62943 0.87755 0.0
C2414 C 0.92163 0.64569 0.90119 0.0
C2415 C 0.93906 0.64667 0.90221 0.0
C2416 C 0.94804 0.63846 0.8903 0.0
N2417 N 0.91338 0.63684 0.88862 0.0
C2418 C 0.92209 0.62875 0.8769 0.0
Co2419 Co 0.85828 0.39922 0.15306 0.0
Co2420 Co 0.89323 0.37791 0.14437 0.0
O2421 O 0.86983 0.38265 0.14074 0.0
C2422 C 0.83588 0.36919 0.15829 0.0
O2423 O 0.84836 0.36174 0.1654 0.0
C2424 C 0.89002 0.38737 0.109 0.0
O2425 O 0.88303 0.40053 0.11488 0.0
O2426 O 0.90044 0.40198 0.14408 0.0
O2427 O 0.87835 0.41487 0.15353 0.0
H2428 H 0.95052 0.38466 0.17117 0.0
H2429 H 0.84302 0.38498 0.1217 0.0
O2430 O 0.83786 0.38393 0.15272 0.0
H2431 H 0.84993 0.44545 0.11219 0.0
H2432 H 0.80848 0.43197 0.16678 0.0
H2433 H 0.86703 0.42161 0.18186 0.0
H2434 H 0.8582 0.43357 0.13921 0.0
H2435 H 0.82383 0.41149 0.15098 0.0
O2436 O 0.89554 0.37664 0.1192 0.0
H2437 H 0.92085 0.39072 0.16701 0.0
H2438 H 0.91554 0.35453 0.12815 0.0
H2439 H 0.85219 0.44229 0.19791 0.0
H2440 H 0.83445 0.39636 0.09454 0.0
H2441 H 0.8227 0.44758 0.19039 0.0
H2442 H 0.83796 0.42679 0.08962 0.0
O2443 O 0.86589 0.38973 0.1745 0.0
H2444 H 0.86184 0.32581 0.12354 0.0
H2445 H 0.90047 0.34995 0.16713 0.0
H2446 H 0.89137 0.32021 0.16834 0.0
H2447 H 0.87194 0.30795 0.14641 0.0
H2448 H 0.87116 0.35552 0.12289 0.0
H2449 H 0.94519 0.34816 0.13178 0.0
H2450 H 0.96287 0.36324 0.15346 0.0
O2451 O 0.89094 0.37938 0.16951 0.0
C2452 C 0.89352 0.41494 0.14917 0.0
C2453 C 0.94293 0.37796 0.16172 0.0
C2454 C 0.93995 0.3575 0.13959 0.0
N2455 N 0.91647 0.37288 0.14746 0.0
C2456 C 0.92612 0.3813 0.15935 0.0
C2457 C 0.92319 0.36117 0.13757 0.0
C2458 C 0.94986 0.36596 0.15177 0.0
C2459 C 0.8444 0.39827 0.11973 0.0
N2460 N 0.85103 0.40861 0.13206 0.0
C2461 C 0.8396 0.40462 0.10429 0.0
C2462 C 0.8416 0.4217 0.10153 0.0
C2463 C 0.84833 0.43217 0.11418 0.0
C2464 C 0.85302 0.42537 0.12945 0.0
C2465 C 0.82134 0.4298 0.17015 0.0
C2466 C 0.85423 0.42392 0.17845 0.0
C2467 C 0.83008 0.4182 0.16127 0.0
N2468 N 0.84635 0.41548 0.16541 0.0
C2469 C 0.84588 0.43561 0.18761 0.0
C2470 C 0.82933 0.43856 0.1834 0.0
C2471 C 0.87941 0.38338 0.17939 0.0
C2472 C 0.87035 0.33099 0.13314 0.0
C2473 C 0.89199 0.34471 0.15757 0.0
C2474 C 0.8869 0.32786 0.1583 0.0
C2475 C 0.87601 0.32098 0.14599 0.0
N2476 N 0.88643 0.35442 0.1449 0.0
C2477 C 0.87572 0.34779 0.13281 0.0
Co2478 Co 0.08406 0.36695 0.63445 0.0
Co2479 Co 0.11349 0.39856 0.62623 0.0
O2480 O 0.10341 0.37607 0.62286 0.0
C2481 C 0.1097 0.34262 0.64192 0.0
O2482 O 0.12029 0.35517 0.64566 0.0
C2483 C 0.10348 0.39659 0.59044 0.0
O2484 O 0.08893 0.391 0.59572 0.0
O2485 O 0.09138 0.40886 0.62523 0.0
O2486 O 0.07277 0.38832 0.63208 0.0
H2487 H 0.1203 0.45572 0.65211 0.0
H2488 H 0.09666 0.34916 0.60527 0.0
O2489 O 0.09486 0.34524 0.63697 0.0
H2490 H 0.03835 0.36056 0.59031 0.0
H2491 H 0.04049 0.32227 0.64841 0.0
H2492 H 0.06236 0.37969 0.66046 0.0
H2493 H 0.0505 0.36894 0.61784 0.0
H2494 H 0.06475 0.3342 0.63353 0.0
O2495 O 0.11517 0.4007 0.60108 0.0
H2496 H 0.10742 0.42738 0.64819 0.0
H2497 H 0.14161 0.41743 0.61032 0.0
H2498 H 0.03796 0.36832 0.6755 0.0
H2499 H 0.08498 0.34044 0.57764 0.0
H2500 H 0.02688 0.33941 0.66951 0.0
H2501 H 0.05565 0.34621 0.56999 0.0
O2502 O 0.09412 0.37446 0.65631 0.0
H2503 H 0.15752 0.36089 0.60721 0.0
H2504 H 0.14291 0.40199 0.64966 0.0
H2505 H 0.17014 0.3891 0.65181 0.0
H2506 H 0.1776 0.3684 0.63047 0.0
H2507 H 0.13038 0.37399 0.60561 0.0
H2508 H 0.15478 0.44572 0.61373 0.0
H2509 H 0.14415 0.46505 0.6348 0.0
O2510 O 0.11171 0.39655 0.65128 0.0
C2511 C 0.07662 0.40337 0.62832 0.0
C2512 C 0.12507 0.4474 0.64293 0.0
C2513 C 0.14441 0.44179 0.62137 0.0
N2514 N 0.12385 0.42074 0.62913 0.0
C2515 C 0.11787 0.43132 0.64069 0.0
C2516 C 0.13689 0.42581 0.61947 0.0
C2517 C 0.13845 0.45263 0.6332 0.0
C2518 C 0.08384 0.35158 0.60207 0.0
N2519 N 0.07427 0.35957 0.61314 0.0
C2520 C 0.07732 0.34667 0.5864 0.0
C2521 C 0.06086 0.34993 0.5821 0.0
C2522 C 0.05115 0.358 0.59349 0.0
C2523 C 0.05811 0.36275 0.60904 0.0
C2524 C 0.04519 0.3349 0.65112 0.0
C2525 C 0.05754 0.36714 0.65771 0.0
C2526 C 0.05895 0.3417 0.64277 0.0
N2527 N 0.06488 0.35767 0.64605 0.0
C2528 C 0.04376 0.36075 0.66631 0.0
C2529 C 0.03755 0.34452 0.66295 0.0
C2530 C 0.10421 0.38641 0.6612 0.0
C2531 C 0.15443 0.36993 0.61656 0.0
C2532 C 0.14606 0.39298 0.64034 0.0
C2533 C 0.16151 0.38574 0.64161 0.0
C2534 C 0.16568 0.37413 0.62962 0.0
N2535 N 0.13511 0.38881 0.62747 0.0
C2536 C 0.13911 0.37744 0.61568 0.0
Co2537 Co 0.1423 0.59859 0.11286 0.0
Co2538 Co 0.12838 0.63676 0.12385 0.0
O2539 O 0.12903 0.61275 0.12631 0.0
C2540 C 0.10817 0.58253 0.11064 0.0
O2541 O 0.1023 0.59698 0.10671 0.0
C2542 C 0.13905 0.63215 0.159 0.0
O2543 O 0.15111 0.62373 0.15289 0.0
O2544 O 0.15319 0.63945 0.12435 0.0
O2545 O 0.16117 0.6157 0.11283 0.0
H2546 H 0.14431 0.69276 0.1 0.0
H2547 H 0.1279 0.58583 0.14421 0.0
O2548 O 0.1238 0.58108 0.11291 0.0
H2549 H 0.18877 0.58159 0.15152 0.0
H2550 H 0.16455 0.54374 0.09569 0.0
H2551 H 0.16371 0.60377 0.08364 0.0
H2552 H 0.17675 0.59209 0.1253 0.0
H2553 H 0.14835 0.56229 0.11294 0.0
O2554 O 0.12851 0.63873 0.14911 0.0
H2555 H 0.14504 0.66222 0.10257 0.0
H2556 H 0.11022 0.66275 0.14146 0.0
H2557 H 0.18017 0.5857 0.06614 0.0
H2558 H 0.13938 0.57511 0.17058 0.0
H2559 H 0.18067 0.55545 0.07213 0.0
H2560 H 0.17003 0.573 0.17439 0.0
O2561 O 0.13287 0.60804 0.09211 0.0
H2562 H 0.07265 0.61484 0.14369 0.0
H2563 H 0.10149 0.6493 0.10169 0.0
H2564 H 0.07076 0.64567 0.10034 0.0
H2565 H 0.05614 0.62834 0.12146 0.0
H2566 H 0.10336 0.61869 0.1445 0.0
H2567 H 0.1092 0.69332 0.13942 0.0
H2568 H 0.12629 0.7085 0.11852 0.0
O2569 O 0.12841 0.63475 0.09857 0.0
C2570 C 0.16433 0.63038 0.1186 0.0
C2571 C 0.13676 0.68628 0.10911 0.0
C2572 C 0.11708 0.68659 0.13126 0.0
N2573 N 0.12756 0.66073 0.12204 0.0
C2574 C 0.13708 0.66899 0.11059 0.0
C2575 C 0.11773 0.6693 0.13238 0.0
C2576 C 0.12666 0.69511 0.11952 0.0
C2577 C 0.14124 0.58478 0.1457 0.0
N2578 N 0.15163 0.58951 0.13319 0.0
C2579 C 0.14767 0.57877 0.16069 0.0
C2580 C 0.16487 0.57761 0.16283 0.0
C2581 C 0.17539 0.58244 0.15001 0.0
C2582 C 0.16851 0.5884 0.13519 0.0
C2583 C 0.16446 0.5569 0.09297 0.0
C2584 C 0.16394 0.59064 0.08638 0.0
C2585 C 0.15529 0.56746 0.10267 0.0
N2586 N 0.1552 0.58411 0.09937 0.0
C2587 C 0.17325 0.58046 0.0764 0.0
C2588 C 0.17351 0.56349 0.07976 0.0
C2589 C 0.1294 0.6228 0.08797 0.0
C2590 C 0.07887 0.62246 0.13445 0.0
C2591 C 0.09522 0.64171 0.1109 0.0
C2592 C 0.07782 0.63973 0.11009 0.0
C2593 C 0.06962 0.63002 0.12196 0.0
N2594 N 0.1042 0.63428 0.12321 0.0
C2595 C 0.09625 0.62474 0.13489 0.0
Co2596 Co 0.92407 0.64022 0.62779 0.0
Co2597 Co 0.88336 0.62978 0.63726 0.0
O2598 O 0.90733 0.62812 0.64061 0.0
C2599 C 0.93371 0.60504 0.62538 0.0
O2600 O 0.91848 0.60057 0.62015 0.0
C2601 C 0.89032 0.63902 0.67258 0.0
O2602 O 0.9017 0.64949 0.66663 0.0
O2603 O 0.88551 0.65455 0.63766 0.0
O2604 O 0.91074 0.66051 0.62716 0.0
H2605 H 0.83108 0.65102 0.61107 0.0
H2606 H 0.93395 0.62417 0.65945 0.0
O2607 O 0.93788 0.62029 0.62843 0.0
H2608 H 0.94959 0.68389 0.6674 0.0
H2609 H 0.98301 0.65737 0.61293 0.0
H2610 H 0.92335 0.66239 0.59848 0.0
H2611 H 0.93693 0.67349 0.64075 0.0
H2612 H 0.9613 0.64279 0.62935 0.0
O2613 O 0.88114 0.6299 0.66246 0.0
H2614 H 0.86152 0.64884 0.6149 0.0
H2615 H 0.85387 0.61409 0.65384 0.0
H2616 H 0.94465 0.67727 0.58179 0.0
H2617 H 0.94672 0.63402 0.68625 0.0
H2618 H 0.97472 0.67481 0.589 0.0
H2619 H 0.95456 0.66409 0.69039 0.0
O2620 O 0.91301 0.63218 0.60663 0.0
H2621 H 0.89426 0.57241 0.65799 0.0
H2622 H 0.8658 0.6046 0.61468 0.0
H2623 H 0.86349 0.57388 0.61351 0.0
H2624 H 0.87776 0.55758 0.63529 0.0
H2625 H 0.89635 0.60314 0.65861 0.0
H2626 H 0.82334 0.61598 0.65055 0.0
H2627 H 0.81177 0.6345 0.62899 0.0
O2628 O 0.88559 0.62985 0.61203 0.0
C2629 C 0.89667 0.66484 0.63228 0.0
C2630 C 0.83596 0.64286 0.62047 0.0
C2631 C 0.83162 0.62321 0.64265 0.0
N2632 N 0.85942 0.63124 0.63447 0.0
C2633 C 0.85318 0.64154 0.62265 0.0
C2634 C 0.84891 0.62222 0.64448 0.0
C2635 C 0.82514 0.6336 0.63054 0.0
C2636 C 0.93752 0.63724 0.66108 0.0
N2637 N 0.93477 0.64822 0.64851 0.0
C2638 C 0.94467 0.64276 0.67631 0.0
C2639 C 0.94904 0.65964 0.67863 0.0
C2640 C 0.94624 0.67076 0.66575 0.0
C2641 C 0.93904 0.6648 0.65069 0.0
C2642 C 0.96995 0.65857 0.60969 0.0
C2643 C 0.93641 0.66135 0.60175 0.0
C2644 C 0.9576 0.65033 0.61892 0.0
N2645 N 0.94107 0.65187 0.61496 0.0
C2646 C 0.94841 0.66976 0.59223 0.0
C2647 C 0.96529 0.66836 0.59627 0.0
C2648 C 0.89773 0.63 0.60189 0.0
C2649 C 0.88794 0.57937 0.64846 0.0
C2650 C 0.87208 0.59759 0.62418 0.0
C2651 C 0.8707 0.5802 0.62347 0.0
C2652 C 0.8787 0.57106 0.6357 0.0
N2653 N 0.88113 0.60564 0.63675 0.0
C2654 C 0.88903 0.59677 0.64878 0.0
Co2655 Co 0.13592 0.42181 0.86767 0.0
Co2656 Co 0.10684 0.39005 0.87632 0.0
O2657 O 0.12852 0.40202 0.87977 0.0
C2658 C 0.16292 0.39872 0.86221 0.0
O2659 O 0.15139 0.38704 0.85836 0.0
C2660 C 0.10817 0.39999 0.91193 0.0
O2661 O 0.11235 0.41492 0.90644 0.0
O2662 O 0.09463 0.41103 0.87701 0.0
O2663 O 0.11335 0.43091 0.86883 0.0
H2664 H 0.04984 0.37854 0.85003 0.0
H2665 H 0.1548 0.41185 0.89788 0.0
O2666 O 0.1588 0.41324 0.86638 0.0
H2667 H 0.13664 0.46825 0.91022 0.0
H2668 H 0.1766 0.46903 0.85352 0.0
H2669 H 0.12148 0.44142 0.84026 0.0
H2670 H 0.12991 0.4549 0.88294 0.0
H2671 H 0.16678 0.44417 0.86898 0.0
O2672 O 0.1051 0.38806 0.90146 0.0
H2673 H 0.07717 0.39375 0.85407 0.0
H2674 H 0.09057 0.36044 0.89238 0.0
H2675 H 0.13074 0.46635 0.82459 0.0
H2676 H 0.16193 0.4248 0.92529 0.0
H2677 H 0.15849 0.48033 0.8312 0.0
H2678 H 0.15276 0.45317 0.93162 0.0
O2679 O 0.12968 0.4107 0.84604 0.0
H2680 H 0.14866 0.34966 0.89625 0.0
H2681 H 0.10575 0.36079 0.85321 0.0
H2682 H 0.12106 0.335 0.85152 0.0
H2683 H 0.14268 0.32929 0.87316 0.0
H2684 H 0.13315 0.37536 0.89739 0.0
H2685 H 0.06333 0.34495 0.88886 0.0
H2686 H 0.04277 0.35395 0.86751 0.0
O2687 O 0.10843 0.39215 0.85123 0.0
C2688 C 0.09874 0.42594 0.87298 0.0
C2689 C 0.05871 0.37446 0.85934 0.0
C2690 C 0.06627 0.35562 0.88115 0.0
N2691 N 0.08548 0.37789 0.87335 0.0
C2692 C 0.07422 0.38299 0.86164 0.0
C2693 C 0.08165 0.36446 0.88311 0.0
C2694 C 0.05475 0.36068 0.86916 0.0
C2695 C 0.15093 0.42427 0.90049 0.0
N2696 N 0.142 0.43263 0.88881 0.0
C2697 C 0.15494 0.43151 0.91605 0.0
C2698 C 0.14977 0.44742 0.9196 0.0
C2699 C 0.14072 0.45589 0.9076 0.0
C2700 C 0.13692 0.44825 0.89219 0.0
C2701 C 0.16448 0.46307 0.85054 0.0
C2702 C 0.13353 0.4475 0.84326 0.0
C2703 C 0.15887 0.44897 0.85922 0.0
N2704 N 0.14353 0.44143 0.85559 0.0
C2705 C 0.13873 0.46158 0.83432 0.0
C2706 C 0.1543 0.4694 0.83802 0.0
C2707 C 0.11822 0.39999 0.84126 0.0
C2708 C 0.13924 0.35198 0.88677 0.0
C2709 C 0.11516 0.35841 0.86266 0.0
C2710 C 0.12377 0.34377 0.86165 0.0
C2711 C 0.13589 0.34057 0.8738 0.0
N2712 N 0.1185 0.36952 0.87543 0.0
C2713 C 0.13036 0.36648 0.88739 0.0
Co2714 Co 0.11146 0.6582 0.36309 0.0
Co2715 Co 0.13688 0.62668 0.37441 0.0
O2716 O 0.12922 0.64926 0.37675 0.0
C2717 C 0.13923 0.68342 0.35925 0.0
O2718 O 0.14904 0.67125 0.35607 0.0
C2719 C 0.12713 0.62966 0.40954 0.0
O2720 O 0.11311 0.63497 0.40328 0.0
O2721 O 0.11362 0.61673 0.37466 0.0
O2722 O 0.09841 0.63645 0.36303 0.0
H2723 H 0.13707 0.56877 0.3504 0.0
H2724 H 0.12288 0.67601 0.39409 0.0
O2725 O 0.12401 0.68025 0.36272 0.0
H2726 H 0.06314 0.66128 0.40161 0.0
H2727 H 0.07232 0.70222 0.34542 0.0
H2728 H 0.09123 0.64598 0.33364 0.0
H2729 H 0.07676 0.65399 0.37554 0.0
H2730 H 0.09435 0.6903 0.36297 0.0
O2731 O 0.13841 0.62523 0.39967 0.0
H2732 H 0.12742 0.59733 0.35294 0.0
H2733 H 0.16298 0.60804 0.39218 0.0
H2734 H 0.06907 0.65736 0.31585 0.0
H2735 H 0.10973 0.68366 0.42032 0.0
H2736 H 0.05948 0.68568 0.32171 0.0
H2737 H 0.07967 0.67622 0.42422 0.0
O2738 O 0.1226 0.65158 0.34256 0.0
H2739 H 0.18514 0.66445 0.39473 0.0
H2740 H 0.16585 0.6223 0.35259 0.0
H2741 H 0.1945 0.63486 0.35154 0.0
H2742 H 0.20431 0.65608 0.37273 0.0
H2743 H 0.15655 0.65166 0.39525 0.0
H2744 H 0.17293 0.57955 0.39017 0.0
H2745 H 0.15999 0.55972 0.36911 0.0
O2746 O 0.13529 0.628 0.34911 0.0
C2747 C 0.09997 0.62176 0.36852 0.0
C2748 C 0.14285 0.57731 0.35959 0.0
C2749 C 0.16296 0.58335 0.38192 0.0
N2750 N 0.14473 0.60435 0.37259 0.0
C2751 C 0.13747 0.5935 0.36104 0.0
C2752 C 0.15725 0.59945 0.38303 0.0
C2753 C 0.1557 0.57224 0.3701 0.0
C2754 C 0.10975 0.67291 0.39563 0.0
N2755 N 0.10059 0.66463 0.38328 0.0
C2756 C 0.10239 0.6772 0.41053 0.0
C2757 C 0.08552 0.673 0.41273 0.0
C2758 C 0.07625 0.6646 0.40005 0.0
C2759 C 0.08404 0.66047 0.38533 0.0
C2760 C 0.07637 0.68985 0.34277 0.0
C2761 C 0.08704 0.65827 0.33633 0.0
C2762 C 0.08885 0.68305 0.35264 0.0
N2763 N 0.09396 0.6674 0.34942 0.0
C2764 C 0.07453 0.66466 0.32618 0.0
C2765 C 0.06916 0.68056 0.32947 0.0
C2766 C 0.13047 0.63882 0.33858 0.0
C2767 C 0.18102 0.65518 0.38546 0.0
C2768 C 0.17002 0.63155 0.36184 0.0
C2769 C 0.18626 0.6386 0.36119 0.0
C2770 C 0.19177 0.6505 0.3731 0.0
N2771 N 0.15957 0.63619 0.37402 0.0
C2772 C 0.16487 0.64785 0.38573 0.0
Co2773 Co 0.90885 0.3621 0.38717 0.0
Co2774 Co 0.88031 0.39206 0.39426 0.0
O2775 O 0.88938 0.37023 0.39793 0.0
C2776 C 0.88213 0.33683 0.37789 0.0
O2777 O 0.87246 0.3491 0.3744 0.0
C2778 C 0.88976 0.39125 0.43013 0.0
O2779 O 0.90408 0.38628 0.42496 0.0
O2780 O 0.90286 0.40374 0.39553 0.0
O2781 O 0.92112 0.38405 0.3905 0.0
H2782 H 0.87621 0.44821 0.36785 0.0
H2783 H 0.89389 0.34335 0.41515 0.0
O2784 O 0.89697 0.33987 0.38356 0.0
H2785 H 0.95189 0.35829 0.43361 0.0
H2786 H 0.95078 0.31947 0.37463 0.0
H2787 H 0.93256 0.37592 0.36255 0.0
H2788 H 0.9416 0.36609 0.40567 0.0
H2789 H 0.9264 0.33027 0.38848 0.0
O2790 O 0.87837 0.39467 0.41939 0.0
H2791 H 0.88789 0.42071 0.37218 0.0
H2792 H 0.85273 0.40967 0.40964 0.0
H2793 H 0.95711 0.36567 0.34853 0.0
H2794 H 0.90369 0.33519 0.44315 0.0
H2795 H 0.96636 0.33725 0.35455 0.0
H2796 H 0.93286 0.34274 0.45257 0.0
O2797 O 0.9003 0.36916 0.36503 0.0
H2798 H 0.83431 0.35223 0.41286 0.0
H2799 H 0.85137 0.39316 0.37036 0.0
H2800 H 0.82358 0.3786 0.36786 0.0
H2801 H 0.81489 0.35798 0.38923 0.0
H2802 H 0.86202 0.36698 0.4148 0.0
H2803 H 0.84075 0.43711 0.40582 0.0
H2804 H 0.85247 0.45656 0.38475 0.0
O2805 O 0.88242 0.38949 0.36925 0.0
C2806 C 0.91761 0.39903 0.39354 0.0
C2807 C 0.87096 0.43983 0.37703 0.0
C2808 C 0.85108 0.43361 0.39836 0.0
N2809 N 0.87091 0.41357 0.39106 0.0
C2810 C 0.87749 0.42423 0.3795 0.0
C2811 C 0.85793 0.41811 0.4005 0.0
C2812 C 0.85765 0.44451 0.38653 0.0
C2813 C 0.90665 0.34652 0.4191 0.0
N2814 N 0.91717 0.35514 0.40878 0.0
C2815 C 0.91211 0.34193 0.43499 0.0
C2816 C 0.92847 0.34619 0.44028 0.0
C2817 C 0.93915 0.35493 0.42965 0.0
C2818 C 0.93325 0.35933 0.41386 0.0
C2819 C 0.94689 0.33188 0.37193 0.0
C2820 C 0.93659 0.36358 0.36531 0.0
C2821 C 0.93307 0.33805 0.37971 0.0
N2822 N 0.92816 0.35375 0.37642 0.0
C2823 C 0.95046 0.35783 0.3573 0.0
C2824 C 0.95563 0.34187 0.36067 0.0
C2825 C 0.89038 0.37997 0.35969 0.0
C2826 C 0.83793 0.36123 0.4035 0.0
C2827 C 0.84768 0.38419 0.37969 0.0
C2828 C 0.83192 0.376 0.37823 0.0
C2829 C 0.82705 0.36444 0.39022 0.0
N2830 N 0.85826 0.38099 0.39276 0.0
C2831 C 0.85358 0.36967 0.40457 0.0
H2832 H 0.13722 0.3291 0.37951 0.0
H2833 H 0.14294 0.2996 0.37561 0.0
H2834 H 0.09093 0.286 0.38288 0.0
H2835 H 0.08508 0.31515 0.38627 0.0
H2836 H 0.13983 0.27445 0.39645 0.0
H2837 H 0.0987 0.25928 0.34196 0.0
H2838 H 0.10396 0.28052 0.34842 0.0
H2839 H 0.08688 0.26881 0.35771 0.0
C2840 C 0.12701 0.31979 0.38013 0.0
C2841 C 0.11069 0.32447 0.3831 0.0
C2842 C 0.13028 0.30297 0.37785 0.0
C2843 C 0.11728 0.29061 0.3785 0.0
C2844 C 0.10106 0.29531 0.3817 0.0
H2845 H 0.11099 0.19479 0.41695 0.0
H2846 H 0.1155 0.2241 0.41035 0.0
C2847 C 0.09777 0.31203 0.38381 0.0
C2848 C 0.12058 0.27265 0.37718 0.0
H2849 H 0.10378 0.23609 0.3607 0.0
C2850 C 0.13223 0.26609 0.38835 0.0
C2851 C 0.11107 0.26171 0.36628 0.0
C2852 C 0.09961 0.26801 0.35279 0.0
C2853 C 0.13352 0.24883 0.38994 0.0
C2854 C 0.1225 0.23788 0.38049 0.0
C2855 C 0.11195 0.24445 0.36826 0.0
C2856 C 0.12045 0.21987 0.38431 0.0
C2857 C 0.14641 0.24254 0.40203 0.0
C2858 C 0.12102 0.20767 0.37172 0.0
C2859 C 0.11807 0.19078 0.37541 0.0
C2860 C 0.11452 0.18586 0.39175 0.0
C2861 C 0.11388 0.19812 0.40426 0.0
C2862 C 0.11664 0.21492 0.40055 0.0
H2863 H 0.15755 0.25133 0.403 0.0
H2864 H 0.14103 0.24162 0.4146 0.0
H2865 H 0.15049 0.23008 0.39828 0.0
H2866 H 0.12373 0.21122 0.35905 0.0
H2867 H 0.11867 0.18161 0.36551 0.0
H2868 H 0.31989 0.6573 0.90366 0.0
H2869 H 0.28985 0.65567 0.89789 0.0
H2870 H 0.29706 0.62649 0.85363 0.0
H2871 H 0.32731 0.62806 0.85921 0.0
H2872 H 0.27079 0.66456 0.86621 0.0
H2873 H 0.26476 0.59804 0.88519 0.0
H2874 H 0.28247 0.6116 0.89154 0.0
H2875 H 0.28062 0.60377 0.87056 0.0
C2876 C 0.31517 0.65061 0.89262 0.0
C2877 C 0.32604 0.64268 0.88196 0.0
C2878 C 0.29799 0.64976 0.88933 0.0
C2879 C 0.2913 0.64089 0.87542 0.0
C2880 C 0.30206 0.63333 0.86448 0.0
H2881 H 0.18937 0.6081 0.85027 0.0
H2882 H 0.21947 0.6138 0.85051 0.0
C2883 C 0.31931 0.63426 0.86769 0.0
C2884 C 0.273 0.63888 0.87292 0.0
H2885 H 0.24023 0.61057 0.87652 0.0
C2886 C 0.26405 0.65276 0.86836 0.0
C2887 C 0.26436 0.62348 0.87582 0.0
C2888 C 0.27345 0.60834 0.88115 0.0
C2889 C 0.24657 0.65158 0.86644 0.0
C2890 C 0.23786 0.63622 0.8696 0.0
C2891 C 0.2469 0.62234 0.87408 0.0
C2892 C 0.21939 0.63408 0.86839 0.0
C2893 C 0.23765 0.6667 0.86077 0.0
C2894 C 0.20926 0.64372 0.87825 0.0
C2895 C 0.19192 0.6406 0.87802 0.0
C2896 C 0.18449 0.62757 0.86815 0.0
C2897 C 0.19467 0.61816 0.8581 0.0
C2898 C 0.21191 0.62141 0.8582 0.0
H2899 H 0.24615 0.67565 0.85421 0.0
H2900 H 0.22684 0.66314 0.85232 0.0
H2901 H 0.23294 0.67321 0.8718 0.0
H2902 H 0.21478 0.65331 0.88652 0.0
H2903 H 0.18443 0.64799 0.88599 0.0
H2904 H 0.90361 0.82768 0.36871 0.0
H2905 H 0.89933 0.79774 0.36269 0.0
H2906 H 0.87894 0.79015 0.41134 0.0
H2907 H 0.8832 0.81986 0.4175 0.0
H2908 H 0.91446 0.77273 0.38404 0.0
H2909 H 0.84536 0.76398 0.37851 0.0
H2910 H 0.8563 0.7839 0.37545 0.0
H2911 H 0.85338 0.77614 0.39612 0.0
C2912 C 0.89802 0.81966 0.37803 0.0
C2913 C 0.89385 0.82612 0.39361 0.0
C2914 C 0.89557 0.80259 0.37457 0.0
C2915 C 0.88864 0.79182 0.38651 0.0
C2916 C 0.88404 0.79831 0.40187 0.0
H2917 H 0.8768 0.68557 0.40221 0.0
H2918 H 0.87371 0.71585 0.40243 0.0
C2919 C 0.88663 0.81528 0.4054 0.0
C2920 C 0.8877 0.77359 0.38369 0.0
H2921 H 0.86063 0.73943 0.38071 0.0
C2922 C 0.90271 0.76544 0.3831 0.0
C2923 C 0.87233 0.76418 0.38276 0.0
C2924 C 0.85589 0.77246 0.38312 0.0
C2925 C 0.9028 0.74804 0.38201 0.0
C2926 C 0.88742 0.73856 0.38096 0.0
C2927 C 0.87238 0.74673 0.38144 0.0
C2928 C 0.8869 0.72014 0.37956 0.0
C2929 C 0.9194 0.73995 0.38262 0.0
C2930 C 0.89461 0.7125 0.36625 0.0
C2931 C 0.89656 0.69537 0.36622 0.0
C2932 C 0.8905 0.6855 0.37932 0.0
C2933 C 0.88155 0.69292 0.39195 0.0
C2934 C 0.87982 0.71018 0.3921 0.0
H2935 H 0.92951 0.74846 0.38803 0.0
H2936 H 0.91873 0.72838 0.39009 0.0
H2937 H 0.92289 0.73664 0.36978 0.0
H2938 H 0.89975 0.7199 0.35622 0.0
H2939 H 0.90331 0.68992 0.3562 0.0
H2940 H 0.83581 0.40765 0.865 0.0
H2941 H 0.8057 0.40235 0.86196 0.0
H2942 H 0.80792 0.36258 0.89755 0.0
H2943 H 0.83828 0.36749 0.90038 0.0
H2944 H 0.78652 0.35466 0.87077 0.0
H2945 H 0.77378 0.41683 0.89682 0.0
H2946 H 0.78673 0.4177 0.87894 0.0
H2947 H 0.79424 0.40851 0.89788 0.0
C2948 C 0.82995 0.39771 0.87216 0.0
C2949 C 0.83944 0.38812 0.88311 0.0
C2950 C 0.81271 0.39476 0.87044 0.0
C2951 C 0.80453 0.38235 0.87982 0.0
C2952 C 0.814 0.37231 0.89028 0.0
H2953 H 0.70522 0.35293 0.90559 0.0
H2954 H 0.73501 0.35515 0.90035 0.0
C2955 C 0.83133 0.37514 0.89189 0.0
C2956 C 0.78606 0.38019 0.87907 0.0
H2957 H 0.75049 0.40038 0.88643 0.0
C2958 C 0.77864 0.36466 0.87416 0.0
C2959 C 0.7758 0.39326 0.88351 0.0
C2960 C 0.78301 0.40996 0.88974 0.0
C2961 C 0.76121 0.36185 0.87361 0.0
C2962 C 0.75101 0.37489 0.87817 0.0
C2963 C 0.75839 0.39049 0.88276 0.0
C2964 C 0.73276 0.37221 0.87983 0.0
C2965 C 0.7538 0.34497 0.86824 0.0
C2966 C 0.7216 0.38109 0.86998 0.0
C2967 C 0.70445 0.37981 0.8729 0.0
C2968 C 0.69829 0.36988 0.88594 0.0
C2969 C 0.70953 0.36073 0.89549 0.0
C2970 C 0.72657 0.36188 0.89245 0.0
H2971 H 0.76281 0.3378 0.86119 0.0
H2972 H 0.75033 0.33774 0.87945 0.0
H2973 H 0.74233 0.34621 0.86039 0.0
H2974 H 0.72621 0.38925 0.86028 0.0
H2975 H 0.69612 0.38707 0.86539 0.0
H2976 H 0.10841 0.68604 0.64788 0.0
H2977 H 0.11423 0.71613 0.6487 0.0
H2978 H 0.15775 0.71055 0.61921 0.0
H2979 H 0.15211 0.68028 0.61831 0.0
H2980 H 0.14652 0.73611 0.65892 0.0
H2981 H 0.1245 0.74178 0.59292 0.0
H2982 H 0.11876 0.72394 0.60545 0.0
H2983 H 0.1394 0.72631 0.59746 0.0
C2984 C 0.11932 0.69113 0.64166 0.0
C2985 C 0.12972 0.68073 0.63288 0.0
C2986 C 0.12264 0.70834 0.64223 0.0
C2987 C 0.13633 0.71548 0.63395 0.0
C2988 C 0.14707 0.70518 0.62562 0.0
H2989 H 0.16178 0.81681 0.60663 0.0
H2990 H 0.16109 0.78688 0.61108 0.0
C2991 C 0.14383 0.68792 0.62513 0.0
C2992 C 0.13867 0.73379 0.63314 0.0
H2993 H 0.13412 0.76638 0.60682 0.0
C2994 C 0.14389 0.7428 0.64755 0.0
C2995 C 0.13511 0.74236 0.61829 0.0
C2996 C 0.12903 0.7332 0.60262 0.0
C2997 C 0.14594 0.76027 0.6474 0.0
C2998 C 0.14224 0.76887 0.63255 0.0
C2999 C 0.13698 0.75978 0.61818 0.0
C3000 C 0.14389 0.78728 0.63137 0.0
C3001 C 0.15234 0.7693 0.66302 0.0
C3002 C 0.13463 0.79755 0.64149 0.0
C3003 C 0.13513 0.81481 0.63908 0.0
C3004 C 0.14467 0.82199 0.62632 0.0
C3005 C 0.15419 0.81168 0.61649 0.0
C3006 C 0.15384 0.79455 0.61903 0.0
H3007 H 0.15895 0.76088 0.67158 0.0
H3008 H 0.16098 0.78002 0.66002 0.0
H3009 H 0.14164 0.77411 0.66971 0.0
H3010 H 0.12657 0.79218 0.65085 0.0
H3011 H 0.12757 0.82242 0.64677 0.0
H3012 H 0.6971 0.63063 0.10042 0.0
H3013 H 0.72662 0.63546 0.10792 0.0
H3014 H 0.71692 0.62055 0.15834 0.0
H3015 H 0.68717 0.61562 0.15095 0.0
H3016 H 0.74323 0.65643 0.13464 0.0
H3017 H 0.75225 0.58841 0.14031 0.0
H3018 H 0.7343 0.5964 0.12962 0.0
H3019 H 0.73567 0.59673 0.15196 0.0
C3020 C 0.70117 0.62842 0.11315 0.0
C3021 C 0.6898 0.62253 0.12506 0.0
C3022 C 0.71805 0.6313 0.11741 0.0
C3023 C 0.72392 0.62825 0.13362 0.0
C3024 C 0.71259 0.62285 0.14571 0.0
H3025 H 0.82585 0.6176 0.16814 0.0
H3026 H 0.79585 0.62129 0.16748 0.0
C3027 C 0.69562 0.62005 0.14148 0.0
C3028 C 0.74208 0.62978 0.13745 0.0
H3029 H 0.77582 0.60649 0.14469 0.0
C3030 C 0.7504 0.64556 0.13699 0.0
C3031 C 0.75132 0.61556 0.14041 0.0
C3032 C 0.74303 0.59827 0.14052 0.0
C3033 C 0.76781 0.64749 0.13949 0.0
C3034 C 0.77711 0.6332 0.1421 0.0
C3035 C 0.76869 0.61746 0.14275 0.0
C3036 C 0.79561 0.63396 0.1438 0.0
C3037 C 0.77601 0.6648 0.13946 0.0
C3038 C 0.80559 0.64038 0.13097 0.0
C3039 C 0.82287 0.63852 0.13147 0.0
C3040 C 0.8303 0.6299 0.14462 0.0
C3041 C 0.82041 0.62423 0.15781 0.0
C3042 C 0.80327 0.62632 0.15744 0.0
H3043 H 0.76704 0.67436 0.14258 0.0
H3044 H 0.78677 0.66593 0.14846 0.0
H3045 H 0.78066 0.66752 0.12682 0.0
H3046 H 0.79994 0.64598 0.12014 0.0
H3047 H 0.83021 0.6428 0.12106 0.0
H3048 H 0.87326 0.18443 0.60198 0.0
H3049 H 0.8737 0.21405 0.60807 0.0
H3050 H 0.87387 0.2039 0.66075 0.0
H3051 H 0.87423 0.17395 0.65473 0.0
H3052 H 0.85194 0.23216 0.62311 0.0
H3053 H 0.9125 0.23739 0.65859 0.0
H3054 H 0.90559 0.21877 0.64722 0.0
H3055 H 0.89701 0.22325 0.66713 0.0
C3056 C 0.87357 0.1884 0.61489 0.0
C3057 C 0.87394 0.17677 0.62786 0.0
C3058 C 0.87371 0.20541 0.61836 0.0
C3059 C 0.87401 0.21125 0.63487 0.0
C3060 C 0.87404 0.19971 0.64791 0.0
H3061 H 0.86103 0.31973 0.64431 0.0
H3062 H 0.85568 0.2896 0.64746 0.0
C3063 C 0.87418 0.1826 0.64445 0.0
C3064 C 0.87433 0.22949 0.63804 0.0
H3065 H 0.89846 0.26203 0.65457 0.0
C3066 C 0.86205 0.23871 0.6301 0.0
C3067 C 0.88753 0.23799 0.64715 0.0
C3068 C 0.90149 0.2289 0.65541 0.0
C3069 C 0.86308 0.25619 0.63022 0.0
C3070 C 0.87645 0.26471 0.63909 0.0
C3071 C 0.88822 0.25547 0.64779 0.0
C3072 C 0.87956 0.28303 0.63803 0.0
C3073 C 0.85041 0.26528 0.62 0.0
C3074 C 0.89492 0.28939 0.63221 0.0
C3075 C 0.89812 0.30651 0.63075 0.0
C3076 C 0.88593 0.31767 0.6349 0.0
C3077 C 0.87055 0.31137 0.6408 0.0
C3078 C 0.86746 0.29417 0.64255 0.0
H3079 H 0.84346 0.25688 0.61088 0.0
H3080 H 0.84119 0.27048 0.62841 0.0
H3081 H 0.8565 0.27573 0.6131 0.0
H3082 H 0.90444 0.28106 0.6286 0.0
H3083 H 0.91009 0.31098 0.62615 0.0
H3084 H 0.32418 0.38993 0.13782 0.0
H3085 H 0.29442 0.38708 0.14434 0.0
H3086 H 0.28134 0.39433 0.09254 0.0
H3087 H 0.31077 0.39668 0.08591 0.0
H3088 H 0.26975 0.40792 0.14116 0.0
H3089 H 0.25369 0.35271 0.10173 0.0
H3090 H 0.27504 0.35963 0.10654 0.0
H3091 H 0.26363 0.36874 0.08956 0.0
C3092 C 0.31492 0.39089 0.12785 0.0
C3093 C 0.3198 0.39337 0.11133 0.0
C3094 C 0.29795 0.3892 0.13158 0.0
C3095 C 0.28566 0.39 0.11885 0.0
C3096 C 0.29058 0.39304 0.10248 0.0
H3097 H 0.18824 0.42353 0.11624 0.0
H3098 H 0.21789 0.41906 0.11938 0.0
C3099 C 0.30744 0.39454 0.09872 0.0
C3100 C 0.26762 0.38843 0.12253 0.0
H3101 H 0.23075 0.37024 0.10776 0.0
C3102 C 0.26124 0.39946 0.1341 0.0
C3103 C 0.25651 0.37704 0.11372 0.0
C3104 C 0.26262 0.36374 0.10235 0.0
C3105 C 0.24398 0.40028 0.13613 0.0
C3106 C 0.23282 0.39018 0.12594 0.0
C3107 C 0.23925 0.37826 0.11533 0.0
C3108 C 0.21463 0.39279 0.12493 0.0
C3109 C 0.23792 0.41216 0.14902 0.0
C3110 C 0.20283 0.37937 0.12636 0.0
C3111 C 0.18574 0.38182 0.12418 0.0
C3112 C 0.18021 0.39775 0.12058 0.0
C3113 C 0.19206 0.41113 0.11919 0.0
C3114 C 0.20906 0.40863 0.12117 0.0
H3115 H 0.24704 0.41374 0.15964 0.0
H3116 H 0.23663 0.42458 0.14333 0.0
H3117 H 0.22565 0.40778 0.15389 0.0
H3118 H 0.20684 0.36699 0.12908 0.0
H3119 H 0.1769 0.37128 0.12535 0.0
H3120 H 0.41422 0.12129 0.19456 0.0
H3121 H 0.40868 0.12384 0.22406 0.0
H3122 H 0.35751 0.13437 0.21222 0.0
H3123 H 0.36287 0.13124 0.18241 0.0
H3124 H 0.39899 0.1494 0.24237 0.0
H3125 H 0.35142 0.09664 0.24453 0.0
H3126 H 0.36399 0.10053 0.22656 0.0
H3127 H 0.34659 0.1131 0.2305 0.0
C3128 C 0.40176 0.12413 0.19817 0.0
C3129 C 0.38894 0.12594 0.18615 0.0
C3130 C 0.39862 0.12564 0.21508 0.0
C3131 C 0.38265 0.12913 0.22039 0.0
C3132 C 0.36985 0.13132 0.20843 0.0
H3133 H 0.37682 0.14521 0.32953 0.0
H3134 H 0.37483 0.151 0.29957 0.0
C3135 C 0.37293 0.12958 0.19142 0.0
C3136 C 0.37967 0.13005 0.23853 0.0
H3137 H 0.35912 0.11002 0.26981 0.0
C3138 C 0.39014 0.14092 0.2484 0.0
C3139 C 0.36814 0.11895 0.24633 0.0
C3140 C 0.35697 0.10654 0.2365 0.0
C3141 C 0.39007 0.14035 0.26586 0.0
C3142 C 0.37885 0.12894 0.27366 0.0
C3143 C 0.36771 0.11875 0.26379 0.0
C3144 C 0.37974 0.12586 0.29185 0.0
C3145 C 0.40272 0.15125 0.27573 0.0
C3146 C 0.38282 0.10979 0.29744 0.0
C3147 C 0.3837 0.10642 0.31442 0.0
C3148 C 0.38164 0.11909 0.32623 0.0
C3149 C 0.37866 0.13525 0.32069 0.0
C3150 C 0.37755 0.13858 0.3036 0.0
H3151 H 0.41269 0.15666 0.26777 0.0
H3152 H 0.39634 0.16169 0.28151 0.0
H3153 H 0.40865 0.14408 0.28585 0.0
H3154 H 0.38463 0.0998 0.28863 0.0
H3155 H 0.38606 0.09385 0.31827 0.0
H3156 H 0.37698 0.91227 0.68767 0.0
H3157 H 0.37568 0.90891 0.71779 0.0
H3158 H 0.39356 0.85944 0.71335 0.0
H3159 H 0.39483 0.86254 0.68307 0.0
H3160 H 0.35746 0.88006 0.73619 0.0
H3161 H 0.42629 0.88798 0.74728 0.0
H3162 H 0.41604 0.89583 0.72886 0.0
H3163 H 0.41871 0.87392 0.73088 0.0
C3164 C 0.38065 0.90064 0.69303 0.0
C3165 C 0.38611 0.88769 0.68291 0.0
C3166 C 0.37982 0.89875 0.71024 0.0
C3167 C 0.38456 0.88397 0.7177 0.0
C3168 C 0.38991 0.87096 0.70774 0.0
H3169 H 0.4026 0.85902 0.82063 0.0
H3170 H 0.39906 0.85851 0.7904 0.0
C3171 C 0.39064 0.87278 0.69046 0.0
C3172 C 0.3843 0.8824 0.736 0.0
H3173 H 0.40982 0.88284 0.77061 0.0
C3174 C 0.36887 0.8806 0.74378 0.0
C3175 C 0.39923 0.88315 0.74573 0.0
C3176 C 0.41606 0.88542 0.73787 0.0
C3177 C 0.36799 0.87931 0.76118 0.0
C3178 C 0.38295 0.88027 0.77097 0.0
C3179 C 0.39836 0.88206 0.76309 0.0
C3180 C 0.38311 0.87943 0.78942 0.0
C3181 C 0.35111 0.8766 0.76884 0.0
C3182 C 0.37501 0.89115 0.79899 0.0
C3183 C 0.37684 0.89133 0.81638 0.0
C3184 C 0.38707 0.88 0.8244 0.0
C3185 C 0.39472 0.86799 0.81481 0.0
C3186 C 0.39271 0.86767 0.79752 0.0
H3187 H 0.34166 0.87127 0.75965 0.0
H3188 H 0.35173 0.86813 0.77967 0.0
H3189 H 0.3468 0.88874 0.77321 0.0
H3190 H 0.36784 0.90059 0.793 0.0
H3191 H 0.37094 0.90083 0.82346 0.0
H3192 H 0.64554 0.87966 0.18403 0.0
H3193 H 0.65059 0.87571 0.21398 0.0
H3194 H 0.59919 0.8855 0.22303 0.0
H3195 H 0.59397 0.8889 0.19333 0.0
H3196 H 0.64885 0.89695 0.23877 0.0
H3197 H 0.60371 0.84474 0.25042 0.0
H3198 H 0.60943 0.85069 0.22962 0.0
H3199 H 0.59323 0.86108 0.24013 0.0
C3200 C 0.63531 0.88082 0.19243 0.0
C3201 C 0.61934 0.88452 0.18631 0.0
C3202 C 0.63819 0.87851 0.20951 0.0
C3203 C 0.62516 0.87987 0.22073 0.0
C3204 C 0.6093 0.88376 0.2146 0.0
H3205 H 0.6237 0.91877 0.31743 0.0
H3206 H 0.62583 0.91192 0.28805 0.0
C3207 C 0.60637 0.88589 0.19759 0.0
C3208 C 0.62825 0.87866 0.23897 0.0
H3209 H 0.61067 0.86316 0.27424 0.0
C3210 C 0.64073 0.88928 0.2465 0.0
C3211 C 0.618 0.86834 0.24913 0.0
C3212 C 0.60549 0.85544 0.24186 0.0
C3213 C 0.64234 0.89083 0.26388 0.0
C3214 C 0.63082 0.88193 0.27397 0.0
C3215 C 0.61925 0.87029 0.26651 0.0
C3216 C 0.62954 0.88573 0.29198 0.0
C3217 C 0.65616 0.9023 0.27122 0.0
C3218 C 0.6301 0.87312 0.30397 0.0
C3219 C 0.62857 0.87696 0.3209 0.0
C3220 C 0.62646 0.89348 0.32603 0.0
C3221 C 0.62555 0.90596 0.31393 0.0
C3222 C 0.62692 0.90209 0.29711 0.0
H3223 H 0.6671 0.90298 0.26301 0.0
H3224 H 0.65161 0.91506 0.27236 0.0
H3225 H 0.6603 0.89814 0.28375 0.0
H3226 H 0.63189 0.86036 0.30025 0.0
H3227 H 0.62933 0.86709 0.32995 0.0
H3228 H 0.62073 0.15295 0.82361 0.0
H3229 H 0.62425 0.15304 0.79356 0.0
H3230 H 0.656 0.11145 0.79771 0.0
H3231 H 0.65283 0.11152 0.82807 0.0
H3232 H 0.66665 0.13537 0.77403 0.0
H3233 H 0.59935 0.11698 0.7652 0.0
H3234 H 0.60318 0.13581 0.77715 0.0
H3235 H 0.61002 0.11642 0.78523 0.0
C3236 C 0.62864 0.14393 0.81818 0.0
C3237 C 0.63632 0.13206 0.82815 0.0
C3238 C 0.63059 0.14398 0.80099 0.0
C3239 C 0.64001 0.13198 0.79339 0.0
C3240 C 0.64855 0.12073 0.80337 0.0
H3241 H 0.65156 0.09883 0.69243 0.0
H3242 H 0.65408 0.10413 0.72233 0.0
C3243 C 0.64676 0.1208 0.82068 0.0
C3244 C 0.64004 0.13063 0.77499 0.0
H3245 H 0.61414 0.12397 0.74088 0.0
C3246 C 0.6552 0.13284 0.76677 0.0
C3247 C 0.62505 0.12726 0.76556 0.0
C3248 C 0.6085 0.12382 0.77372 0.0
C3249 C 0.65572 0.13203 0.7493 0.0
C3250 C 0.64071 0.12882 0.73992 0.0
C3251 C 0.62558 0.12664 0.74814 0.0
C3252 C 0.64046 0.12666 0.72161 0.0
C3253 C 0.67225 0.13474 0.74097 0.0
C3254 C 0.63185 0.13756 0.71131 0.0
C3255 C 0.63036 0.13459 0.69413 0.0
C3256 C 0.63724 0.12051 0.68703 0.0
C3257 C 0.64606 0.10978 0.69744 0.0
C3258 C 0.64765 0.11284 0.71454 0.0
H3259 H 0.68188 0.14086 0.74949 0.0
H3260 H 0.67675 0.12251 0.73705 0.0
H3261 H 0.6709 0.14247 0.72966 0.0
H3262 H 0.62609 0.14822 0.71662 0.0
H3263 H 0.62346 0.14307 0.68649 0.0
H3264 H 0.87629 0.82493 0.65082 0.0
H3265 H 0.87426 0.79478 0.65585 0.0
H3266 H 0.91079 0.78733 0.61846 0.0
H3267 H 0.91284 0.81719 0.61323 0.0
H3268 H 0.86653 0.76883 0.62785 0.0
H3269 H 0.92666 0.76263 0.6626 0.0
H3270 H 0.91593 0.78188 0.66194 0.0
H3271 H 0.92766 0.77557 0.64444 0.0
C3272 C 0.88402 0.81688 0.64381 0.0
C3273 C 0.89473 0.82345 0.63162 0.0
C3274 C 0.88279 0.7997 0.64666 0.0
C3275 C 0.89245 0.78896 0.63758 0.0
C3276 C 0.90334 0.7955 0.62567 0.0
H3277 H 0.91527 0.69003 0.61813 0.0
H3278 H 0.91217 0.71987 0.62102 0.0
C3279 C 0.90446 0.81257 0.62268 0.0
C3280 C 0.89086 0.77075 0.63984 0.0
H3281 H 0.91366 0.73775 0.65088 0.0
C3282 C 0.87664 0.76196 0.63318 0.0
C3283 C 0.90413 0.76197 0.64676 0.0
C3284 C 0.91943 0.77096 0.65448 0.0
C3285 C 0.87579 0.74447 0.63232 0.0
C3286 C 0.88943 0.73568 0.63857 0.0
C3287 C 0.90326 0.74453 0.64602 0.0
C3288 C 0.89036 0.71747 0.63627 0.0
C3289 C 0.86079 0.73558 0.62391 0.0
C3290 C 0.87897 0.70619 0.64373 0.0
C3291 C 0.88062 0.68901 0.642 0.0
C3292 C 0.89381 0.68288 0.63292 0.0
C3293 C 0.90499 0.69427 0.62525 0.0
C3294 C 0.90327 0.71136 0.62692 0.0
H3295 H 0.85287 0.74431 0.61701 0.0
H3296 H 0.86474 0.72593 0.61508 0.0
H3297 H 0.85306 0.72927 0.63346 0.0
H3298 H 0.86906 0.71067 0.65122 0.0
H3299 H 0.87187 0.68058 0.64817 0.0
H3300 H 0.82189 0.34624 0.17958 0.0
H3301 H 0.7924 0.33602 0.17964 0.0
H3302 H 0.78264 0.36386 0.13506 0.0
H3303 H 0.81171 0.37427 0.13508 0.0
H3304 H 0.76464 0.36064 0.17939 0.0
H3305 H 0.76038 0.31532 0.12695 0.0
H3306 H 0.77953 0.32013 0.13882 0.0
H3307 H 0.77287 0.33393 0.12273 0.0
C3308 C 0.81347 0.34987 0.16964 0.0
C3309 C 0.819 0.36106 0.15735 0.0
C3310 C 0.79669 0.34408 0.16972 0.0
C3311 C 0.78547 0.3491 0.15727 0.0
C3312 C 0.79119 0.3597 0.14465 0.0
H3313 H 0.69643 0.36969 0.11665 0.0
H3314 H 0.72413 0.36318 0.12683 0.0
C3315 C 0.80777 0.36569 0.14472 0.0
C3316 C 0.76738 0.34488 0.15795 0.0
H3317 H 0.73531 0.32963 0.13269 0.0
C3318 C 0.75811 0.35336 0.16958 0.0
C3319 C 0.75902 0.33537 0.14514 0.0
C3320 C 0.76845 0.32553 0.13277 0.0
C3321 C 0.7407 0.35402 0.16764 0.0
C3322 C 0.73253 0.34582 0.15384 0.0
C3323 C 0.74165 0.33599 0.14321 0.0
C3324 C 0.71543 0.34973 0.14842 0.0
C3325 C 0.73137 0.36468 0.1794 0.0
C3326 C 0.70135 0.34449 0.15736 0.0
C3327 C 0.68535 0.34828 0.15157 0.0
C3328 C 0.68329 0.35729 0.13676 0.0
C3329 C 0.69752 0.36268 0.12806 0.0
C3330 C 0.71338 0.35893 0.13383 0.0
H3331 H 0.73976 0.37095 0.18901 0.0
H3332 H 0.72482 0.37432 0.17232 0.0
H3333 H 0.72177 0.35682 0.18579 0.0
H3334 H 0.70272 0.33729 0.16861 0.0
H3335 H 0.67462 0.34389 0.1585 0.0
H3336 H 0.13708 0.18336 0.65601 0.0
H3337 H 0.14008 0.21308 0.6634 0.0
H3338 H 0.11624 0.22534 0.61665 0.0
H3339 H 0.11326 0.19599 0.60911 0.0
H3340 H 0.1466 0.24457 0.62484 0.0
H3341 H 0.10106 0.24267 0.67614 0.0
H3342 H 0.11764 0.2284 0.67686 0.0
H3343 H 0.10159 0.22606 0.66092 0.0
C3344 C 0.13242 0.19239 0.64733 0.0
C3345 C 0.12492 0.18724 0.63196 0.0
C3346 C 0.13415 0.20934 0.65159 0.0
C3347 C 0.12835 0.22136 0.64057 0.0
C3348 C 0.12087 0.21625 0.62529 0.0
H3349 H 0.09013 0.31439 0.63633 0.0
H3350 H 0.09786 0.28565 0.63884 0.0
C3351 C 0.11913 0.19941 0.62103 0.0
C3352 C 0.1297 0.23934 0.64471 0.0
H3353 H 0.11106 0.26896 0.66733 0.0
C3354 C 0.13915 0.24996 0.63437 0.0
C3355 C 0.11991 0.24623 0.65715 0.0
C3356 C 0.10938 0.23534 0.66841 0.0
C3357 C 0.13825 0.26732 0.63544 0.0
C3358 C 0.12775 0.27418 0.64728 0.0
C3359 C 0.11913 0.26361 0.65832 0.0
C3360 C 0.12346 0.29185 0.64661 0.0
C3361 C 0.14757 0.27813 0.62314 0.0
C3362 C 0.13533 0.30491 0.65022 0.0
C3363 C 0.13095 0.32151 0.64874 0.0
C3364 C 0.11464 0.32522 0.64364 0.0
C3365 C 0.10281 0.31203 0.64023 0.0
C3366 C 0.10718 0.29556 0.64174 0.0
H3367 H 0.15369 0.27067 0.61356 0.0
H3368 H 0.13893 0.28654 0.61676 0.0
H3369 H 0.15734 0.28603 0.62987 0.0
H3370 H 0.14794 0.30226 0.65414 0.0
H3371 H 0.14033 0.33139 0.65151 0.0
H3372 H 0.19116 0.61517 0.10649 0.0
H3373 H 0.22056 0.6231 0.11115 0.0
H3374 H 0.20761 0.66691 0.13828 0.0
H3375 H 0.17783 0.65901 0.1338 0.0
H3376 H 0.234 0.6712 0.11304 0.0
H3377 H 0.24518 0.62073 0.15792 0.0
H3378 H 0.23362 0.61366 0.13952 0.0
H3379 H 0.22465 0.62818 0.15344 0.0
C3380 C 0.19444 0.62654 0.11342 0.0
C3381 C 0.18208 0.63636 0.11992 0.0
C3382 C 0.21129 0.63099 0.11613 0.0
C3383 C 0.21618 0.64536 0.12536 0.0
C3384 C 0.20399 0.65565 0.1313 0.0
H3385 H 0.32549 0.65214 0.14268 0.0
H3386 H 0.29607 0.65549 0.14921 0.0
C3387 C 0.18702 0.65115 0.12866 0.0
C3388 C 0.23415 0.6494 0.12844 0.0
H3389 H 0.26923 0.63171 0.14336 0.0
C3390 C 0.24172 0.66285 0.12003 0.0
C3391 C 0.24412 0.63867 0.13782 0.0
C3392 C 0.23648 0.62459 0.14784 0.0
C3393 C 0.25917 0.66493 0.1195 0.0
C3394 C 0.26913 0.65313 0.12742 0.0
C3395 C 0.26155 0.64062 0.13713 0.0
C3396 C 0.287 0.65204 0.12374 0.0
C3397 C 0.26678 0.67928 0.10982 0.0
C3398 C 0.29149 0.64862 0.10737 0.0
C3399 C 0.3081 0.64653 0.10365 0.0
C3400 C 0.32063 0.6478 0.11624 0.0
C3401 C 0.31612 0.65112 0.13271 0.0
C3402 C 0.29937 0.65311 0.13645 0.0
H3403 H 0.25845 0.68991 0.10944 0.0
H3404 H 0.27911 0.68363 0.11531 0.0
H3405 H 0.2686 0.67516 0.0968 0.0
H3406 H 0.28206 0.6473 0.09746 0.0
H3407 H 0.31109 0.64396 0.09083 0.0
H3408 H 0.86497 0.19409 0.41144 0.0
H3409 H 0.86271 0.22264 0.40232 0.0
H3410 H 0.84713 0.20526 0.35312 0.0
H3411 H 0.84944 0.17629 0.36216 0.0
H3412 H 0.87238 0.23084 0.35345 0.0
H3413 H 0.82057 0.24811 0.3929 0.0
H3414 H 0.83628 0.2381 0.40491 0.0
H3415 H 0.8249 0.22669 0.38849 0.0
C3416 C 0.86099 0.19624 0.39868 0.0
C3417 C 0.85733 0.18288 0.38753 0.0
C3418 C 0.85954 0.2126 0.39354 0.0
C3419 C 0.85435 0.21604 0.37718 0.0
C3420 C 0.85092 0.20281 0.36587 0.0
H3421 H 0.85093 0.32494 0.36712 0.0
H3422 H 0.84144 0.29569 0.36242 0.0
C3423 C 0.85229 0.18631 0.37105 0.0
C3424 C 0.85373 0.2336 0.37196 0.0
H3425 H 0.84032 0.27079 0.38558 0.0
C3426 C 0.86504 0.23956 0.36012 0.0
C3427 C 0.84386 0.24492 0.38035 0.0
C3428 C 0.83059 0.23909 0.39223 0.0
C3429 C 0.86795 0.25672 0.35773 0.0
C3430 C 0.85955 0.26808 0.36765 0.0
C3431 C 0.84699 0.26207 0.37819 0.0
C3432 C 0.86528 0.28583 0.36914 0.0
C3433 C 0.88056 0.26251 0.34515 0.0
C3434 C 0.8817 0.2899 0.37475 0.0
C3435 C 0.8871 0.30645 0.37752 0.0
C3436 C 0.87615 0.31934 0.37486 0.0
C3437 C 0.85967 0.31528 0.36924 0.0
C3438 C 0.85425 0.29862 0.3665 0.0
H3439 H 0.88106 0.25338 0.33474 0.0
H3440 H 0.87763 0.27483 0.33997 0.0
H3441 H 0.89314 0.26363 0.35128 0.0
H3442 H 0.89028 0.2802 0.37736 0.0
H3443 H 0.89986 0.30909 0.38189 0.0
H3444 H 0.17712 0.36919 0.85482 0.0
H3445 H 0.20703 0.36406 0.85429 0.0
H3446 H 0.21897 0.41536 0.86799 0.0
H3447 H 0.18939 0.42065 0.8684 0.0
H3448 H 0.2379 0.40336 0.84143 0.0
H3449 H 0.23772 0.36159 0.89648 0.0
H3450 H 0.2232 0.35616 0.87962 0.0
H3451 H 0.22068 0.37473 0.89166 0.0
C3452 C 0.18613 0.37937 0.85769 0.0
C3453 C 0.18086 0.39531 0.86172 0.0
C3454 C 0.20319 0.3764 0.85743 0.0
C3455 C 0.21517 0.38932 0.86121 0.0
C3456 C 0.20991 0.40524 0.86501 0.0
H3457 H 0.31325 0.40074 0.90004 0.0
H3458 H 0.28352 0.39827 0.89308 0.0
C3459 C 0.19297 0.40821 0.86529 0.0
C3460 C 0.23326 0.38648 0.86165 0.0
H3461 H 0.26369 0.3689 0.8851 0.0
C3462 C 0.24357 0.39561 0.85078 0.0
C3463 C 0.24055 0.37645 0.87396 0.0
C3464 C 0.23005 0.36672 0.8862 0.0
C3465 C 0.26104 0.39553 0.85234 0.0
C3466 C 0.26832 0.3859 0.86498 0.0
C3467 C 0.25801 0.37622 0.87539 0.0
C3468 C 0.2865 0.38711 0.86881 0.0
C3469 C 0.27155 0.40644 0.84107 0.0
C3470 C 0.29806 0.38165 0.85743 0.0
C3471 C 0.31519 0.38309 0.86134 0.0
C3472 C 0.32101 0.38995 0.87674 0.0
C3473 C 0.3093 0.39538 0.88807 0.0
C3474 C 0.29225 0.39394 0.88415 0.0
H3475 H 0.26394 0.41511 0.83375 0.0
H3476 H 0.28124 0.41386 0.84846 0.0
H3477 H 0.27803 0.39848 0.83221 0.0
H3478 H 0.29383 0.37617 0.84559 0.0
H3479 H 0.32385 0.37871 0.85235 0.0
H3480 H 0.1512 0.82351 0.40413 0.0
H3481 H 0.1559 0.79577 0.39364 0.0
H3482 H 0.17157 0.81639 0.34682 0.0
H3483 H 0.16668 0.84451 0.35723 0.0
H3484 H 0.14886 0.79008 0.34282 0.0
H3485 H 0.1988 0.77245 0.38662 0.0
H3486 H 0.18196 0.7806 0.39786 0.0
H3487 H 0.1935 0.79385 0.38374 0.0
C3488 C 0.15576 0.82225 0.39163 0.0
C3489 C 0.1586 0.83625 0.38152 0.0
C3490 C 0.15863 0.80635 0.38571 0.0
C3491 C 0.16453 0.80405 0.36962 0.0
C3492 C 0.16727 0.81795 0.35938 0.0
H3493 H 0.17105 0.69584 0.35298 0.0
H3494 H 0.18064 0.72533 0.35131 0.0
C3495 C 0.16441 0.83397 0.36532 0.0
C3496 C 0.16627 0.78689 0.36331 0.0
H3497 H 0.18001 0.74947 0.37604 0.0
C3498 C 0.15606 0.78127 0.34976 0.0
C3499 C 0.176 0.77544 0.37205 0.0
C3500 C 0.18832 0.78096 0.38575 0.0
C3501 C 0.15392 0.76423 0.34592 0.0
C3502 C 0.16195 0.75261 0.35611 0.0
C3503 C 0.17359 0.75837 0.36844 0.0
C3504 C 0.1564 0.73477 0.35601 0.0
C3505 C 0.1424 0.75877 0.33154 0.0
C3506 C 0.13974 0.7304 0.35954 0.0
C3507 C 0.13429 0.71375 0.3606 0.0
C3508 C 0.14541 0.70102 0.35825 0.0
C3509 C 0.16218 0.70537 0.3548 0.0
C3510 C 0.16766 0.72217 0.35379 0.0
H3511 H 0.14241 0.76837 0.32165 0.0
H3512 H 0.146 0.7468 0.32604 0.0
H3513 H 0.12945 0.75712 0.33602 0.0
H3514 H 0.13096 0.73992 0.36181 0.0
H3515 H 0.12132 0.7109 0.36336 0.0
H3516 H 0.82847 0.60552 0.90767 0.0
H3517 H 0.79861 0.60932 0.9045 0.0
H3518 H 0.80833 0.65087 0.87195 0.0
H3519 H 0.83846 0.64723 0.87503 0.0
H3520 H 0.7808 0.64127 0.91048 0.0
H3521 H 0.77535 0.61516 0.84585 0.0
H3522 H 0.79244 0.61037 0.85982 0.0
H3523 H 0.79168 0.63074 0.85101 0.0
C3524 C 0.82434 0.61556 0.8999 0.0
C3525 C 0.83587 0.62604 0.89154 0.0
C3526 C 0.80726 0.61771 0.89813 0.0
C3527 C 0.80135 0.63026 0.88789 0.0
C3528 C 0.81274 0.64103 0.87981 0.0
H3529 H 0.6937 0.63822 0.86608 0.0
H3530 H 0.72407 0.643 0.86441 0.0
C3531 C 0.82991 0.63898 0.88166 0.0
C3532 C 0.78317 0.63165 0.88561 0.0
H3533 H 0.75038 0.62022 0.85929 0.0
C3534 C 0.77413 0.63694 0.8992 0.0
C3535 C 0.7746 0.62607 0.87083 0.0
C3536 C 0.78391 0.62019 0.85599 0.0
C3537 C 0.75664 0.63617 0.89865 0.0
C3538 C 0.74804 0.62958 0.88426 0.0
C3539 C 0.75706 0.62515 0.87032 0.0
C3540 C 0.72981 0.62588 0.88415 0.0
C3541 C 0.74751 0.64204 0.91362 0.0
C3542 C 0.72311 0.6142 0.89533 0.0
C3543 C 0.7059 0.61142 0.8963 0.0
C3544 C 0.69499 0.6202 0.88603 0.0
C3545 C 0.70176 0.63127 0.87419 0.0
C3546 C 0.71908 0.63407 0.87325 0.0
H3547 H 0.75539 0.65111 0.92128 0.0
H3548 H 0.73579 0.64795 0.90981 0.0
H3549 H 0.7442 0.6312 0.92156 0.0
H3550 H 0.73124 0.60748 0.90357 0.0
H3551 H 0.70115 0.60266 0.90543 0.0
H3552 H 0.66037 0.85996 0.83083 0.0
H3553 H 0.66676 0.8582 0.8011 0.0
H3554 H 0.63339 0.8974 0.79056 0.0
H3555 H 0.62677 0.89911 0.81998 0.0
H3556 H 0.63757 0.85342 0.77401 0.0
H3557 H 0.68078 0.90906 0.7674 0.0
H3558 H 0.67872 0.89784 0.78674 0.0
H3559 H 0.66303 0.91174 0.78023 0.0
C3560 C 0.65462 0.86838 0.82219 0.0
C3561 C 0.64304 0.87966 0.82771 0.0
C3562 C 0.65823 0.8673 0.80526 0.0
C3563 C 0.65058 0.87773 0.79376 0.0
C3564 C 0.63948 0.88934 0.79932 0.0
H3565 H 0.63213 0.90581 0.69613 0.0
H3566 H 0.63722 0.90146 0.7257 0.0
C3567 C 0.63569 0.89026 0.81612 0.0
C3568 C 0.65311 0.876 0.77572 0.0
H3569 H 0.66735 0.89811 0.74252 0.0
C3570 C 0.6444 0.86292 0.76704 0.0
C3571 C 0.66199 0.88848 0.76684 0.0
C3572 C 0.6718 0.90254 0.77573 0.0
C3573 C 0.64334 0.86266 0.74956 0.0
C3574 C 0.65148 0.87568 0.74064 0.0
C3575 C 0.66108 0.88817 0.74938 0.0
C3576 C 0.64855 0.87781 0.72251 0.0
C3577 C 0.63257 0.84913 0.74083 0.0
C3578 C 0.65319 0.8659 0.71086 0.0
C3579 C 0.65014 0.86827 0.69381 0.0
C3580 C 0.64256 0.88269 0.68817 0.0
C3581 C 0.638 0.89457 0.69996 0.0
C3582 C 0.64095 0.89213 0.7169 0.0
H3583 H 0.62487 0.84171 0.74967 0.0
H3584 H 0.62414 0.85456 0.73137 0.0
H3585 H 0.64068 0.84054 0.73431 0.0
H3586 H 0.65931 0.85487 0.71492 0.0
H3587 H 0.65392 0.85895 0.68506 0.0
H3588 H 0.64757 0.15802 0.18583 0.0
H3589 H 0.65558 0.158 0.21565 0.0
H3590 H 0.61856 0.11833 0.22375 0.0
H3591 H 0.61036 0.1184 0.19428 0.0
H3592 H 0.62779 0.16085 0.24318 0.0
H3593 H 0.66635 0.10538 0.24586 0.0
H3594 H 0.66448 0.11803 0.22743 0.0
H3595 H 0.6478 0.10346 0.23272 0.0
C3596 C 0.64134 0.14915 0.19396 0.0
C3597 C 0.62831 0.13825 0.18778 0.0
C3598 C 0.64588 0.14921 0.21094 0.0
C3599 C 0.63767 0.13813 0.22177 0.0
C3600 C 0.62507 0.1269 0.2155 0.0
H3601 H 0.6216 0.10247 0.31701 0.0
H3602 H 0.62494 0.10942 0.28779 0.0
C3603 C 0.62039 0.12699 0.19869 0.0
C3604 C 0.64127 0.13865 0.23988 0.0
H3605 H 0.65494 0.11425 0.27138 0.0
C3606 C 0.63409 0.15095 0.24945 0.0
C3607 C 0.64942 0.12565 0.24785 0.0
C3608 C 0.65759 0.1124 0.23798 0.0
C3609 C 0.6338 0.14987 0.26689 0.0
C3610 C 0.64113 0.13628 0.27483 0.0
C3611 C 0.64926 0.12461 0.26525 0.0
C3612 C 0.63888 0.13278 0.29272 0.0
C3613 C 0.62467 0.16259 0.27656 0.0
C3614 C 0.64547 0.14372 0.30522 0.0
C3615 C 0.64345 0.13984 0.32205 0.0
C3616 C 0.63497 0.12487 0.32657 0.0
C3617 C 0.62824 0.11408 0.31398 0.0
C3618 C 0.63018 0.118 0.29725 0.0
H3619 H 0.61733 0.17065 0.26827 0.0
H3620 H 0.61609 0.15634 0.28545 0.0
H3621 H 0.63386 0.17068 0.28385 0.0
H3622 H 0.65242 0.15509 0.30198 0.0
H3623 H 0.64887 0.14835 0.33147 0.0
H3624 H 0.39124 0.10403 0.69006 0.0
H3625 H 0.38731 0.10717 0.71986 0.0
H3626 H 0.36459 0.154 0.7116 0.0
H3627 H 0.36867 0.15113 0.68161 0.0
H3628 H 0.38742 0.15512 0.73805 0.0
H3629 H 0.34321 0.10045 0.74342 0.0
H3630 H 0.36209 0.09521 0.73359 0.0
H3631 H 0.34849 0.10947 0.72361 0.0
C3632 C 0.38542 0.11504 0.69451 0.0
C3633 C 0.38015 0.12727 0.68339 0.0
C3634 C 0.38306 0.11674 0.71157 0.0
C3635 C 0.37525 0.13059 0.71787 0.0
C3636 C 0.37045 0.14311 0.70693 0.0
H3637 H 0.36147 0.14925 0.82536 0.0
H3638 H 0.35599 0.15019 0.79512 0.0
C3639 C 0.37285 0.14146 0.68981 0.0
C3640 C 0.37258 0.13207 0.73598 0.0
H3641 H 0.35695 0.11041 0.76898 0.0
C3642 C 0.38045 0.14555 0.74479 0.0
C3643 C 0.36333 0.11964 0.74471 0.0
C3644 C 0.35365 0.10547 0.73582 0.0
C3645 C 0.38026 0.14633 0.76225 0.0
C3646 C 0.37195 0.13333 0.77099 0.0
C3647 C 0.36334 0.12032 0.76217 0.0
C3648 C 0.37393 0.13198 0.78922 0.0
C3649 C 0.38971 0.16049 0.77137 0.0
C3650 C 0.38554 0.12119 0.79576 0.0
C3651 C 0.38875 0.12067 0.81286 0.0
C3652 C 0.3803 0.13087 0.8238 0.0
C3653 C 0.36813 0.1412 0.81726 0.0
C3654 C 0.36503 0.14182 0.80003 0.0
H3655 H 0.39579 0.1695 0.76272 0.0
H3656 H 0.38103 0.16723 0.77923 0.0
H3657 H 0.39944 0.15551 0.77977 0.0
H3658 H 0.39249 0.1135 0.78754 0.0
H3659 H 0.39813 0.1125 0.81748 0.0
H3660 H 0.35453 0.85926 0.18166 0.0
H3661 H 0.34632 0.85843 0.21091 0.0
H3662 H 0.39577 0.87701 0.22628 0.0
H3663 H 0.40411 0.87771 0.1974 0.0
H3664 H 0.38326 0.84941 0.24489 0.0
H3665 H 0.33844 0.90007 0.23982 0.0
H3666 H 0.33552 0.88255 0.22575 0.0
H3667 H 0.35346 0.89662 0.22398 0.0
C3668 C 0.36362 0.86318 0.19129 0.0
C3669 C 0.37996 0.86859 0.18719 0.0
C3670 C 0.35891 0.86271 0.20797 0.0
C3671 C 0.37044 0.86772 0.22072 0.0
C3672 C 0.38672 0.87303 0.21662 0.0
H3673 H 0.37885 0.91288 0.3125 0.0
H3674 H 0.37524 0.9028 0.28398 0.0
C3675 C 0.39143 0.87348 0.20007 0.0
C3676 C 0.36582 0.86795 0.23843 0.0
H3677 H 0.34556 0.89104 0.26659 0.0
C3678 C 0.37472 0.85822 0.24968 0.0
C3679 C 0.35468 0.87947 0.24454 0.0
C3680 C 0.34499 0.89037 0.23298 0.0
C3681 C 0.37368 0.86055 0.26695 0.0
C3682 C 0.36329 0.87278 0.27305 0.0
C3683 C 0.35348 0.88166 0.26182 0.0
C3684 C 0.3646 0.87855 0.2906 0.0
C3685 C 0.38462 0.85083 0.27849 0.0
C3686 C 0.35977 0.86823 0.30384 0.0
C3687 C 0.36191 0.87397 0.32033 0.0
C3688 C 0.36885 0.89011 0.32375 0.0
C3689 C 0.37348 0.90038 0.31038 0.0
C3690 C 0.37136 0.89467 0.29402 0.0
H3691 H 0.39333 0.84313 0.2716 0.0
H3692 H 0.39205 0.85943 0.28705 0.0
H3693 H 0.37667 0.84242 0.2862 0.0
H3694 H 0.35439 0.85579 0.30141 0.0
H3695 H 0.35815 0.86579 0.33036 0.0
H3696 H 0.12098 0.07943 0.58226 0.0
H3697 H 0.12173 0.06225 0.55668 0.0
H3698 H 0.09693 0.10019 0.52924 0.0
H3699 H 0.09639 0.11732 0.55434 0.0
H3700 H 0.08659 0.0612 0.52344 0.0
H3701 H 0.15302 0.08324 0.51675 0.0
H3702 H 0.1451 0.07559 0.53626 0.0
H3703 H 0.13983 0.09577 0.52903 0.0
C3704 C 0.11538 0.08385 0.57081 0.0
C3705 C 0.10876 0.09972 0.57017 0.0
C3706 C 0.11583 0.07407 0.55627 0.0
C3707 C 0.10936 0.08001 0.54116 0.0
C3708 C 0.1019 0.09539 0.54083 0.0
H3709 H 0.08788 0.10396 0.45235 0.0
H3710 H 0.08793 0.08896 0.47836 0.0
C3711 C 0.10169 0.10519 0.55515 0.0
C3712 C 0.11184 0.07166 0.52505 0.0
H3713 H 0.1368 0.0785 0.49196 0.0
C3714 C 0.09781 0.06424 0.51661 0.0
C3715 C 0.12657 0.07532 0.51626 0.0
C3716 C 0.14208 0.08285 0.52497 0.0
C3717 C 0.09746 0.06248 0.49921 0.0
C3718 C 0.11125 0.06881 0.49016 0.0
C3719 C 0.1261 0.07387 0.49884 0.0
C3720 C 0.1092 0.07449 0.47272 0.0
C3721 C 0.0818 0.05518 0.49061 0.0
C3722 C 0.1211 0.07139 0.46069 0.0
C3723 C 0.12119 0.08019 0.44568 0.0
C3724 C 0.10955 0.09241 0.4427 0.0
C3725 C 0.09708 0.09471 0.45432 0.0
C3726 C 0.09694 0.0859 0.46915 0.0
H3727 H 0.0764 0.04462 0.49788 0.0
H3728 H 0.07234 0.06478 0.48991 0.0
H3729 H 0.08422 0.05074 0.47781 0.0
H3730 H 0.13082 0.06282 0.46327 0.0
H3731 H 0.13099 0.07822 0.43696 0.0
H3732 H 0.40413 0.66843 0.9546 0.0
H3733 H 0.42073 0.66549 0.9801 0.0
H3734 H 0.44988 0.6291 0.95594 0.0
H3735 H 0.43331 0.6324 0.92996 0.0
H3736 H 0.43301 0.6177 0.98436 0.0
H3737 H 0.46768 0.67679 0.9997 0.0
H3738 H 0.44747 0.68087 0.99107 0.0
H3739 H 0.46216 0.6705 0.97848 0.0
C3740 C 0.41447 0.66025 0.95455 0.0
C3741 C 0.41751 0.65065 0.94042 0.0
C3742 C 0.42407 0.65868 0.96907 0.0
C3743 C 0.43675 0.64727 0.96985 0.0
C3744 C 0.44036 0.63818 0.95548 0.0
H3745 H 0.42944 0.62144 0.07515 0.0
H3746 H 0.44696 0.62151 0.05039 0.0
C3747 C 0.43092 0.64006 0.94071 0.0
C3748 C 0.4434 0.64287 0.98652 0.0
H3749 H 0.45258 0.66326 0.02319 0.0
C3750 C 0.43812 0.62732 0.99286 0.0
C3751 C 0.45033 0.6553 0.99754 0.0
C3752 C 0.4574 0.67174 0.99127 0.0
C3753 C 0.43684 0.62496 0.01009 0.0
C3754 C 0.44114 0.63847 0.02104 0.0
C3755 C 0.44905 0.65298 0.01475 0.0
C3756 C 0.43284 0.63973 0.03718 0.0
C3757 C 0.42875 0.60891 0.0163 0.0
C3758 C 0.41945 0.65022 0.03805 0.0
C3759 C 0.40948 0.65013 0.05193 0.0
C3760 C 0.41269 0.63958 0.06537 0.0
C3761 C 0.42665 0.62966 0.06494 0.0
C3762 C 0.43664 0.62967 0.05084 0.0
H3763 H 0.42666 0.59943 0.00621 0.0
H3764 H 0.43674 0.60368 0.02624 0.0
H3765 H 0.41652 0.61138 0.02175 0.0
H3766 H 0.41624 0.65802 0.02761 0.0
H3767 H 0.39898 0.65807 0.0519 0.0
H3768 H 0.88305 0.93695 0.43802 0.0
H3769 H 0.88409 0.95283 0.46432 0.0
H3770 H 0.92159 0.92095 0.48375 0.0
H3771 H 0.92107 0.90573 0.45775 0.0
H3772 H 0.87417 0.94103 0.49176 0.0
H3773 H 0.93848 0.96237 0.50583 0.0
H3774 H 0.93164 0.95692 0.48477 0.0
H3775 H 0.93983 0.94143 0.49855 0.0
C3776 C 0.89192 0.93376 0.44774 0.0
C3777 C 0.90182 0.91993 0.44586 0.0
C3778 C 0.89251 0.94285 0.46276 0.0
C3779 C 0.90312 0.93833 0.47603 0.0
C3780 C 0.9137 0.92518 0.47365 0.0
H3781 H 0.88701 0.89278 0.55634 0.0
H3782 H 0.88488 0.91013 0.53207 0.0
C3783 C 0.91317 0.91621 0.45876 0.0
C3784 C 0.90105 0.94464 0.49327 0.0
H3785 H 0.92408 0.9466 0.52954 0.0
C3786 C 0.88506 0.94302 0.49997 0.0
C3787 C 0.91497 0.94809 0.50419 0.0
C3788 C 0.93213 0.95251 0.49783 0.0
C3789 C 0.88308 0.94167 0.51721 0.0
C3790 C 0.89744 0.94138 0.5278 0.0
C3791 C 0.91306 0.9461 0.52139 0.0
C3792 C 0.89703 0.93213 0.54371 0.0
C3793 C 0.8657 0.93899 0.52373 0.0
C3794 C 0.90496 0.9385 0.55841 0.0
C3795 C 0.90643 0.92836 0.57249 0.0
C3796 C 0.90025 0.91166 0.57189 0.0
C3797 C 0.892 0.90554 0.55727 0.0
C3798 C 0.89051 0.91559 0.54338 0.0
H3799 H 0.85691 0.94691 0.51688 0.0
H3800 H 0.86128 0.92582 0.52157 0.0
H3801 H 0.8653 0.9419 0.53725 0.0
H3802 H 0.91033 0.95114 0.55885 0.0
H3803 H 0.91286 0.9334 0.58359 0.0
H3804 H 0.62833 0.38199 0.9605 0.0
H3805 H 0.61054 0.38359 0.98439 0.0
H3806 H 0.57354 0.35032 0.95995 0.0
H3807 H 0.59152 0.34859 0.93565 0.0
H3808 H 0.57531 0.39225 0.98772 0.0
H3809 H 0.58814 0.3267 1.00421 0.0
H3810 H 0.60101 0.3377 0.98938 0.0
H3811 H 0.57974 0.33162 0.9839 0.0
C3812 C 0.61635 0.3751 0.96006 0.0
C3813 C 0.61143 0.36495 0.94629 0.0
C3814 C 0.60613 0.37615 0.97369 0.0
C3815 C 0.59078 0.36703 0.97395 0.0
C3816 C 0.58539 0.3574 0.95997 0.0
H3817 H 0.57939 0.35838 0.08059 0.0
H3818 H 0.56563 0.35667 0.05275 0.0
C3819 C 0.59565 0.35644 0.94614 0.0
C3820 C 0.58175 0.36664 0.98976 0.0
H3821 H 0.58317 0.34511 0.02608 0.0
C3822 C 0.5763 0.38173 0.996 0.0
C3823 C 0.58277 0.35283 1.00048 0.0
C3824 C 0.5882 0.33624 0.99427 0.0
C3825 C 0.57409 0.38402 0.01311 0.0
C3826 C 0.57767 0.37098 0.02413 0.0
C3827 C 0.58062 0.35517 0.01761 0.0
C3828 C 0.58304 0.3745 0.04163 0.0
C3829 C 0.56949 0.40086 0.01941 0.0
C3830 C 0.59721 0.3852 0.0446 0.0
C3831 C 0.60514 0.38593 0.06022 0.0
C3832 C 0.599 0.37609 0.07322 0.0
C3833 C 0.58421 0.36617 0.07069 0.0
C3834 C 0.57637 0.36521 0.05487 0.0
H3835 H 0.56088 0.40672 0.0104 0.0
H3836 H 0.56351 0.39994 0.0317 0.0
H3837 H 0.58095 0.40916 0.02072 0.0
H3838 H 0.60286 0.39215 0.03452 0.0
H3839 H 0.6165 0.3937 0.06195 0.0
H3840 H 0.12926 0.89604 0.55493 0.0
H3841 H 0.12844 0.9138 0.53066 0.0
H3842 H 0.16463 0.94852 0.55431 0.0
H3843 H 0.16566 0.93047 0.57893 0.0
H3844 H 0.12232 0.94835 0.52493 0.0
H3845 H 0.18767 0.93225 0.51198 0.0
H3846 H 0.17592 0.92091 0.52743 0.0
H3847 H 0.183 0.94215 0.53139 0.0
C3848 C 0.13692 0.90754 0.55513 0.0
C3849 C 0.14776 0.91172 0.56871 0.0
C3850 C 0.13633 0.91777 0.54128 0.0
C3851 C 0.14658 0.93239 0.54062 0.0
C3852 C 0.15672 0.9372 0.55454 0.0
H3853 H 0.15851 0.94073 0.43395 0.0
H3854 H 0.15981 0.95516 0.46122 0.0
C3855 C 0.15727 0.92692 0.56858 0.0
C3856 C 0.14775 0.94096 0.52442 0.0
H3857 H 0.17021 0.93782 0.48922 0.0
C3858 C 0.13303 0.94675 0.5172 0.0
C3859 C 0.16181 0.93915 0.51441 0.0
C3860 C 0.17805 0.93328 0.52158 0.0
C3861 C 0.13127 0.9485 0.49989 0.0
C3862 C 0.14449 0.94419 0.48969 0.0
C3863 C 0.16001 0.94092 0.49709 0.0
C3864 C 0.14129 0.93845 0.47229 0.0
C3865 C 0.11475 0.95339 0.49258 0.0
C3866 C 0.13036 0.92445 0.46947 0.0
C3867 C 0.12987 0.91613 0.4542 0.0
C3868 C 0.14018 0.92173 0.44139 0.0
C3869 C 0.15036 0.93634 0.4437 0.0
C3870 C 0.15108 0.94456 0.4592 0.0
H3871 H 0.10884 0.96234 0.50093 0.0
H3872 H 0.11622 0.95907 0.48011 0.0
H3873 H 0.10618 0.94214 0.49129 0.0
H3874 H 0.12302 0.91923 0.47948 0.0
H3875 H 0.12193 0.90489 0.45262 0.0
H3876 H 0.58405 0.60168 0.93093 0.0
H3877 H 0.56639 0.6044 0.95535 0.0
H3878 H 0.60766 0.62988 0.98209 0.0
H3879 H 0.62495 0.62752 0.95812 0.0
H3880 H 0.57126 0.59081 0.98511 0.0
H3881 H 0.5708 0.65794 0.996 0.0
H3882 H 0.57572 0.6494 0.97592 0.0
H3883 H 0.59191 0.65352 0.99172 0.0
C3884 C 0.58916 0.60815 0.94194 0.0
C3885 C 0.60592 0.61427 0.94264 0.0
C3886 C 0.57907 0.60974 0.95584 0.0
C3887 C 0.58555 0.61772 0.97044 0.0
C3888 C 0.60213 0.6242 0.97084 0.0
H3889 H 0.61169 0.5947 0.05813 0.0
H3890 H 0.5969 0.59398 0.03158 0.0
C3891 C 0.61213 0.62258 0.95714 0.0
C3892 C 0.57635 0.61742 0.98623 0.0
H3893 H 0.57655 0.64093 0.02165 0.0
C3894 C 0.57171 0.60187 0.99298 0.0
C3895 C 0.57603 0.63183 0.99643 0.0
C3896 C 0.57869 0.64911 0.9895 0.0
C3897 C 0.5697 0.6001 0.01019 0.0
C3898 C 0.57302 0.6141 0.0208 0.0
C3899 C 0.57463 0.63 0.01369 0.0
C3900 C 0.57915 0.61223 0.03828 0.0
C3901 C 0.56538 0.58301 0.01692 0.0
C3902 C 0.57428 0.62279 0.05114 0.0
C3903 C 0.58309 0.62349 0.06648 0.0
C3904 C 0.59701 0.61375 0.06908 0.0
C3905 C 0.60113 0.60248 0.05656 0.0
C3906 C 0.59242 0.60183 0.04135 0.0
H3907 H 0.55565 0.57648 0.00882 0.0
H3908 H 0.57658 0.57546 0.01678 0.0
H3909 H 0.56079 0.5836 0.02983 0.0
H3910 H 0.56421 0.63107 0.04903 0.0
H3911 H 0.5796 0.63229 0.07589 0.0
H3912 H 0.85669 0.1124 0.46159 0.0
H3913 H 0.85738 0.0952 0.48621 0.0
H3914 H 0.87893 0.05596 0.45835 0.0
H3915 H 0.87824 0.07325 0.43314 0.0
H3916 H 0.84354 0.05579 0.48762 0.0
H3917 H 0.91004 0.07339 0.50342 0.0
H3918 H 0.89857 0.08822 0.4916 0.0
H3919 H 0.90268 0.06848 0.48237 0.0
C3920 C 0.86152 0.10011 0.4605 0.0
C3921 C 0.8675 0.09427 0.44533 0.0
C3922 C 0.86184 0.09026 0.47463 0.0
C3923 C 0.86816 0.07436 0.47402 0.0
C3924 C 0.87395 0.06822 0.45896 0.0
H3925 H 0.88014 0.06888 0.58035 0.0
H3926 H 0.88115 0.05311 0.55395 0.0
C3927 C 0.87356 0.07812 0.44463 0.0
C3928 C 0.86917 0.06507 0.48975 0.0
H3929 H 0.89163 0.06964 0.52616 0.0
C3930 C 0.85429 0.05801 0.49598 0.0
C3931 C 0.88326 0.06768 0.50053 0.0
C3932 C 0.89963 0.07476 0.49419 0.0
C3933 C 0.85246 0.05582 0.51316 0.0
C3934 C 0.8657 0.06122 0.5242 0.0
C3935 C 0.88137 0.0657 0.51773 0.0
C3936 C 0.86237 0.06713 0.54126 0.0
C3937 C 0.83582 0.0494 0.51942 0.0
C3938 C 0.85129 0.07998 0.54295 0.0
C3939 C 0.85093 0.08906 0.55774 0.0
C3940 C 0.86152 0.08539 0.57123 0.0
C3941 C 0.87172 0.07176 0.57011 0.0
C3942 C 0.87231 0.06278 0.55508 0.0
H3943 H 0.83017 0.03958 0.51091 0.0
H3944 H 0.83702 0.04425 0.53217 0.0
H3945 H 0.82716 0.05974 0.51966 0.0
H3946 H 0.84386 0.08394 0.53238 0.0
H3947 H 0.84303 0.09959 0.55831 0.0
H3948 H 0.42597 0.42425 0.9317 0.0
H3949 H 0.44329 0.42343 0.95747 0.0
H3950 H 0.41649 0.37796 0.97139 0.0
H3951 H 0.39933 0.37882 0.94611 0.0
H3952 H 0.42854 0.42538 0.98783 0.0
H3953 H 0.46349 0.36845 0.98687 0.0
H3954 H 0.45637 0.3783 0.96798 0.0
H3955 H 0.44275 0.36372 0.97879 0.0
C3956 C 0.4242 0.41385 0.94008 0.0
C3957 C 0.41125 0.40167 0.93705 0.0
C3958 C 0.43409 0.41338 0.95473 0.0
C3959 C 0.43141 0.40047 0.96622 0.0
C3960 C 0.41915 0.38779 0.96255 0.0
H3961 H 0.39831 0.36965 0.04745 0.0
H3962 H 0.41461 0.37447 0.02264 0.0
C3963 C 0.40917 0.38841 0.94817 0.0
C3964 C 0.43867 0.4015 0.98338 0.0
H3965 H 0.44981 0.37456 0.01375 0.0
C3966 C 0.43398 0.41466 0.99354 0.0
C3967 C 0.44601 0.38766 0.99079 0.0
C3968 C 0.4526 0.37384 0.98045 0.0
C3969 C 0.43386 0.41307 0.01093 0.0
C3970 C 0.43875 0.39802 0.01818 0.0
C3971 C 0.44585 0.38601 0.00816 0.0
C3972 C 0.43205 0.39269 0.03439 0.0
C3973 C 0.42644 0.42654 0.02118 0.0
C3974 C 0.43691 0.40079 0.04945 0.0
C3975 C 0.42754 0.39796 0.06375 0.0
C3976 C 0.41322 0.38714 0.06296 0.0
C3977 C 0.40922 0.37815 0.04826 0.0
C3978 C 0.4186 0.38083 0.03413 0.0
H3979 H 0.42317 0.43744 0.01355 0.0
H3980 H 0.41498 0.42149 0.02721 0.0
H3981 H 0.43548 0.43089 0.03117 0.0
H3982 H 0.44731 0.40993 0.04989 0.0
H3983 H 0.43075 0.40506 0.07501 0.0
H3984 H 0.57622 0.1205 0.07657 0.0
H3985 H 0.55004 0.12129 0.05997 0.0
H3986 H 0.52665 0.14436 0.10141 0.0
H3987 H 0.55231 0.14393 0.11769 0.0
H3988 H 0.5206 0.10583 0.06601 0.0
H3989 H 0.50988 0.1724 0.0644 0.0
H3990 H 0.53035 0.16484 0.06892 0.0
H3991 H 0.51585 0.16777 0.08541 0.0
C3992 C 0.56554 0.12596 0.082 0.0
C3993 C 0.56641 0.13212 0.09849 0.0
C3994 C 0.55063 0.12646 0.07248 0.0
C3995 C 0.5365 0.13333 0.07926 0.0
C3996 C 0.53751 0.13958 0.09563 0.0
H3997 H 0.45036 0.10508 0.10744 0.0
H3998 H 0.47586 0.10602 0.09221 0.0
C3999 C 0.55223 0.13909 0.10506 0.0
C4000 C 0.51995 0.13228 0.07054 0.0
H4001 H 0.48459 0.1539 0.07082 0.0
C4002 C 0.5128 0.11645 0.06636 0.0
C4003 C 0.50977 0.14615 0.07009 0.0
C4004 C 0.51699 0.16375 0.07225 0.0
C4005 C 0.4954 0.11381 0.06465 0.0
C4006 C 0.48507 0.1272 0.06783 0.0
C4007 C 0.49238 0.14343 0.06901 0.0
C4008 C 0.46799 0.12429 0.07428 0.0
C4009 C 0.48828 0.09645 0.06078 0.0
C4010 C 0.45482 0.1343 0.06948 0.0
C4011 C 0.44011 0.13405 0.07857 0.0
C4012 C 0.43846 0.12389 0.09268 0.0
C4013 C 0.45122 0.11317 0.09674 0.0
C4014 C 0.4658 0.11347 0.08777 0.0
H4015 H 0.49567 0.09056 0.05105 0.0
H4016 H 0.4892 0.08868 0.0721 0.0
H4017 H 0.47502 0.09644 0.05643 0.0
H4018 H 0.45626 0.1429 0.05924 0.0
H4019 H 0.43048 0.14244 0.07511 0.0
H4020 H 0.39882 0.93773 0.58822 0.0
H4021 H 0.40619 0.96294 0.57253 0.0
H4022 H 0.35796 0.98174 0.58244 0.0
H4023 H 0.35024 0.95639 0.59728 0.0
H4024 H 0.36935 0.99313 0.55292 0.0
H4025 H 0.41929 1.00174 0.60248 0.0
H4026 H 0.42056 0.9842 0.5887 0.0
H4027 H 0.40375 0.98483 0.60305 0.0
C4028 C 0.38962 0.94703 0.58658 0.0
C4029 C 0.37409 0.94525 0.59429 0.0
C4030 C 0.39388 0.96147 0.5777 0.0
C4031 C 0.38286 0.97448 0.57682 0.0
C4032 C 0.36674 0.97193 0.58305 0.0
H4033 H 0.36457 0.06691 0.59605 0.0
H4034 H 0.36512 0.04046 0.58117 0.0
C4035 C 0.36235 0.95741 0.59161 0.0
C4036 C 0.38857 0.99159 0.57204 0.0
H4037 H 0.412 0.02497 0.58778 0.0
C4038 C 0.379 1.00003 0.56021 0.0
C4039 C 0.4013 1.0006 0.58144 0.0
C4040 C 0.41178 0.99248 0.5947 0.0
C4041 C 0.38071 0.01742 0.55873 0.0
C4042 C 0.39225 0.02653 0.56932 0.0
C4043 C 0.40314 0.01793 0.57968 0.0
C4044 C 0.39056 0.04441 0.5731 0.0
C4045 C 0.36937 0.02602 0.54666 0.0
C4046 C 0.4045 0.05574 0.57308 0.0
C4047 C 0.40414 0.07103 0.58155 0.0
C4048 C 0.38998 0.0749 0.59042 0.0
C4049 C 0.37563 0.06418 0.58927 0.0
C4050 C 0.37589 0.04911 0.58061 0.0
H4051 H 0.36634 0.01803 0.53552 0.0
H4052 H 0.35747 0.02837 0.55279 0.0
H4053 H 0.37512 0.03813 0.54259 0.0
H4054 H 0.41601 0.05224 0.56757 0.0
H4055 H 0.4154 0.07906 0.58241 0.0
H4056 H 0.44621 0.85735 0.10849 0.0
H4057 H 0.47306 0.86113 0.09513 0.0
H4058 H 0.45682 0.90579 0.07166 0.0
H4059 H 0.42963 0.90199 0.08494 0.0
H4060 H 0.48416 0.86946 0.05847 0.0
H4061 H 0.4963 0.91767 0.10838 0.0
H4062 H 0.47991 0.90164 0.11031 0.0
H4063 H 0.47761 0.91795 0.09546 0.0
C4064 C 0.44817 0.86775 0.10015 0.0
C4065 C 0.43595 0.8795 0.09791 0.0
C4066 C 0.46346 0.86981 0.09243 0.0
C4067 C 0.46687 0.88373 0.08247 0.0
C4068 C 0.45431 0.89491 0.07924 0.0
H4069 H 0.57173 0.91255 0.08932 0.0
H4070 H 0.54362 0.91441 0.07708 0.0
C4071 C 0.43884 0.89273 0.08683 0.0
C4072 C 0.48436 0.88778 0.07819 0.0
H4073 H 0.51927 0.90767 0.09516 0.0
C4074 C 0.49187 0.87815 0.06612 0.0
C4075 C 0.49429 0.89917 0.08815 0.0
C4076 C 0.48674 0.90974 0.10135 0.0
C4077 C 0.50928 0.87899 0.06438 0.0
C4078 C 0.51937 0.88928 0.07542 0.0
C4079 C 0.51165 0.89977 0.08665 0.0
C4080 C 0.53771 0.88781 0.07746 0.0
C4081 C 0.51664 0.86854 0.05103 0.0
C4082 C 0.54415 0.87219 0.08086 0.0
C4083 C 0.56041 0.87112 0.08731 0.0
C4084 C 0.57026 0.88566 0.09088 0.0
C4085 C 0.56433 0.90117 0.08645 0.0
C4086 C 0.54827 0.90222 0.07954 0.0
H4087 H 0.50821 0.8676 0.03983 0.0
H4088 H 0.52907 0.87372 0.04732 0.0
H4089 H 0.51797 0.85571 0.05573 0.0
H4090 H 0.53621 0.86091 0.07994 0.0
H4091 H 0.56464 0.85907 0.09104 0.0
H4092 H 0.65033 0.06909 0.57991 0.0
H4093 H 0.64725 0.04333 0.56309 0.0
H4094 H 0.60688 0.02572 0.59388 0.0
H4095 H 0.60986 0.05111 0.61047 0.0
H4096 H 0.65299 0.01377 0.57714 0.0
H4097 H 0.58988 0.00843 0.54914 0.0
H4098 H 0.59983 0.02834 0.55525 0.0
H4099 H 0.58842 0.01581 0.57012 0.0
C4100 C 0.64047 0.05991 0.58268 0.0
C4101 C 0.63044 0.06198 0.59657 0.0
C4102 C 0.6387 0.04524 0.57307 0.0
C4103 C 0.62665 0.03269 0.57702 0.0
C4104 C 0.61595 0.03536 0.59023 0.0
H4105 H 0.60739 0.94921 0.61451 0.0
H4106 H 0.60779 0.97422 0.59765 0.0
C4107 C 0.61783 0.04982 0.59989 0.0
C4108 C 0.62708 0.01559 0.57 0.0
H4109 H 0.59977 0.98237 0.56244 0.0
C4110 C 0.64158 0.00691 0.5731 0.0
C4111 C 0.61232 0.00666 0.56443 0.0
C4112 C 0.59681 0.0154 0.55937 0.0
C4113 C 0.64094 0.98943 0.57347 0.0
C4114 C 0.62543 0.98057 0.57054 0.0
C4115 C 0.61161 0.98919 0.56492 0.0
C4116 C 0.62231 0.96399 0.57804 0.0
C4117 C 0.65629 0.98071 0.57914 0.0
C4118 C 0.62978 0.94967 0.57225 0.0
C4119 C 0.62945 0.93518 0.58191 0.0
C4120 C 0.62184 0.93507 0.59749 0.0
C4121 C 0.61342 0.94903 0.60259 0.0
C4122 C 0.61357 0.96329 0.59292 0.0
H4123 H 0.66742 0.98943 0.58068 0.0
H4124 H 0.654 0.9745 0.59123 0.0
H4125 H 0.65909 0.97096 0.56991 0.0
H4126 H 0.63656 0.94999 0.56076 0.0
H4127 H 0.63608 0.92455 0.57778 0.0
H4128 H 0.44064 0.86643 0.93262 0.0
H4129 H 0.46736 0.86814 0.94845 0.0
H4130 H 0.48761 0.9026 0.91236 0.0
H4131 H 0.46125 0.90125 0.89699 0.0
H4132 H 0.49467 0.85713 0.93696 0.0
H4133 H 0.51007 0.92234 0.9528 0.0
H4134 H 0.48881 0.91495 0.94799 0.0
H4135 H 0.50243 0.92219 0.93168 0.0
C4136 C 0.45067 0.87478 0.92845 0.0
C4137 C 0.44894 0.88356 0.91348 0.0
C4138 C 0.46591 0.87576 0.9375 0.0
C4139 C 0.47948 0.88572 0.9318 0.0
C4140 C 0.47728 0.89524 0.9174 0.0
H4141 H 0.56218 0.86868 0.89101 0.0
H4142 H 0.53685 0.86699 0.90672 0.0
C4143 C 0.46221 0.89424 0.90842 0.0
C4144 C 0.49674 0.88399 0.93851 0.0
H4145 H 0.53354 0.9071 0.93977 0.0
C4146 C 0.50313 0.86804 0.93831 0.0
C4147 C 0.50792 0.89804 0.94102 0.0
C4148 C 0.50183 0.91529 0.94359 0.0
C4149 C 0.52037 0.86607 0.93768 0.0
C4150 C 0.53131 0.88038 0.93675 0.0
C4151 C 0.52513 0.8961 0.93985 0.0
C4152 C 0.54768 0.87964 0.92868 0.0
C4153 C 0.52655 0.8487 0.93655 0.0
C4154 C 0.56228 0.88762 0.9356 0.0
C4155 C 0.57695 0.88879 0.92644 0.0
C4156 C 0.57707 0.88225 0.91014 0.0
C4157 C 0.56254 0.87393 0.90349 0.0
C4158 C 0.54805 0.87271 0.9126 0.0
H4159 H 0.51914 0.8401 0.94459 0.0
H4160 H 0.52487 0.84401 0.92355 0.0
H4161 H 0.53995 0.84838 0.94032 0.0
H4162 H 0.5622 0.89328 0.94789 0.0
H4163 H 0.58796 0.8953 0.93187 0.0
H4164 H 0.61549 0.93294 0.43569 0.0
H4165 H 0.61145 0.95887 0.45138 0.0
H4166 H 0.64995 0.98406 0.42306 0.0
H4167 H 0.65399 0.95838 0.40764 0.0
H4168 H 0.64875 0.99491 0.45761 0.0
H4169 H 0.58709 0.99401 0.42351 0.0
H4170 H 0.59199 0.97704 0.43698 0.0
H4171 H 0.60266 0.97976 0.41775 0.0
C4172 C 0.62345 0.94392 0.43334 0.0
C4173 C 0.63497 0.94387 0.42049 0.0
C4174 C 0.62108 0.95869 0.4422 0.0
C4175 C 0.63027 0.97341 0.43823 0.0
C4176 C 0.64276 0.97285 0.42636 0.0
H4177 H 0.64797 0.06238 0.40807 0.0
H4178 H 0.6475 0.03688 0.42409 0.0
C4179 C 0.64502 0.95822 0.4175 0.0
C4180 C 0.6255 0.99 0.44399 0.0
H4181 H 0.59962 0.0199 0.43091 0.0
C4182 C 0.63767 1.00032 0.45239 0.0
C4183 C 0.61093 0.99702 0.43737 0.0
C4184 C 0.59736 0.98648 0.42837 0.0
C4185 C 0.63665 0.01769 0.45246 0.0
C4186 C 0.62327 0.0248 0.44373 0.0
C4187 C 0.60996 0.0144 0.43746 0.0
C4188 C 0.62495 0.04191 0.43708 0.0
C4189 C 0.65063 0.02834 0.4606 0.0
C4190 C 0.61241 0.05332 0.43904 0.0
C4191 C 0.61269 0.06807 0.42981 0.0
C4192 C 0.62525 0.07128 0.41821 0.0
C4193 C 0.63808 0.06016 0.41682 0.0
C4194 C 0.63795 0.04567 0.42617 0.0
H4195 H 0.65571 0.02213 0.47182 0.0
H4196 H 0.66095 0.03008 0.45174 0.0
H4197 H 0.64641 0.04077 0.46423 0.0
H4198 H 0.60212 0.05049 0.44718 0.0
H4199 H 0.60261 0.07644 0.43102 0.0
H4200 H 0.46038 0.14347 0.89178 0.0
H4201 H 0.48618 0.14418 0.90808 0.0
H4202 H 0.46075 0.12037 0.9489 0.0
H4203 H 0.43451 0.11917 0.93219 0.0
H4204 H 0.49676 0.15739 0.93872 0.0
H4205 H 0.4967 0.08795 0.93877 0.0
H4206 H 0.48175 0.09841 0.92598 0.0
H4207 H 0.47996 0.09838 0.94822 0.0
C4208 C 0.46013 0.13845 0.90425 0.0
C4209 C 0.44543 0.13095 0.91055 0.0
C4210 C 0.47492 0.13901 0.91366 0.0
C4211 C 0.47549 0.13217 0.92966 0.0
C4212 C 0.46066 0.1255 0.93648 0.0
H4213 H 0.58453 0.14157 0.93514 0.0
H4214 H 0.55858 0.14021 0.95088 0.0
C4215 C 0.44568 0.12489 0.92695 0.0
C4216 C 0.49214 0.13081 0.93786 0.0
H4217 H 0.52251 0.10265 0.93931 0.0
C4218 C 0.50242 0.14543 0.93954 0.0
C4219 C 0.49939 0.11518 0.93927 0.0
C4220 C 0.48898 0.09903 0.93798 0.0
C4221 C 0.51988 0.14488 0.93967 0.0
C4222 C 0.52713 0.12922 0.93859 0.0
C4223 C 0.51687 0.11463 0.93987 0.0
C4224 C 0.54373 0.12773 0.93114 0.0
C4225 C 0.53026 0.16103 0.93876 0.0
C4226 C 0.54417 0.12047 0.91523 0.0
C4227 C 0.55883 0.12109 0.90638 0.0
C4228 C 0.57347 0.12909 0.91316 0.0
C4229 C 0.57338 0.13548 0.92953 0.0
C4230 C 0.55857 0.13478 0.9385 0.0
H4231 H 0.52252 0.1721 0.93907 0.0
H4232 H 0.53931 0.16197 0.94946 0.0
H4233 H 0.53744 0.16137 0.92713 0.0
H4234 H 0.53291 0.11497 0.90925 0.0
H4235 H 0.55847 0.1158 0.89391 0.0
H4236 H 0.39438 0.96692 0.39176 0.0
H4237 H 0.39576 0.99152 0.40938 0.0
H4238 H 0.3897 0.96098 0.45292 0.0
H4239 H 0.38854 0.93581 0.4351 0.0
H4240 H 0.36676 0.98723 0.44951 0.0
H4241 H 0.4312 0.01221 0.4425 0.0
H4242 H 0.42301 1.00442 0.42279 0.0
H4243 H 0.42532 0.99028 0.43993 0.0
C4244 C 0.39364 0.96527 0.40507 0.0
C4245 C 0.39138 0.94935 0.41199 0.0
C4246 C 0.39458 0.9794 0.41519 0.0
C4247 C 0.3932 0.97806 0.43249 0.0
C4248 C 0.39109 0.96222 0.4396 0.0
H4249 H 0.39185 0.08369 0.43783 0.0
H4250 H 0.396 0.05858 0.45453 0.0
C4251 C 0.39041 0.94791 0.42942 0.0
C4252 C 0.39196 0.99359 0.44228 0.0
H4253 H 0.40929 0.03299 0.44062 0.0
C4254 C 0.37629 0.99719 0.44834 0.0
C4255 C 0.40452 0.0065 0.44142 0.0
C4256 C 0.42202 1.00308 0.43648 0.0
C4257 C 0.37202 0.01375 0.45067 0.0
C4258 C 0.3836 0.02681 0.44644 0.0
C4259 C 0.40016 0.02305 0.44341 0.0
C4260 C 0.37793 0.04298 0.44025 0.0
C4261 C 0.35463 0.01711 0.45602 0.0
C4262 C 0.36608 0.0427 0.42703 0.0
C4263 C 0.36386 0.05684 0.41753 0.0
C4264 C 0.3734 0.07158 0.42104 0.0
C4265 C 0.38427 0.07242 0.43504 0.0
C4266 C 0.38663 0.05812 0.44455 0.0
H4267 H 0.35065 0.00821 0.46583 0.0
H4268 H 0.35383 0.03003 0.46084 0.0
H4269 H 0.34577 0.01515 0.44525 0.0
H4270 H 0.35955 0.03116 0.42306 0.0
H4271 H 0.35538 0.05598 0.40679 0.0
H4272 H 0.06942 0.43451 0.13538 0.0
H4273 H 0.05366 0.45993 0.13494 0.0
H4274 H 0.08262 0.47801 0.09366 0.0
H4275 H 0.09773 0.45282 0.0937 0.0
H4276 H 0.06729 0.48822 0.1429 0.0
H4277 H 0.04058 0.49811 0.081 0.0
H4278 H 0.04587 0.47755 0.08766 0.0
H4279 H 0.06099 0.49115 0.07742 0.0
C4280 C 0.07191 0.44367 0.12582 0.0
C4281 C 0.08498 0.4418 0.11474 0.0
C4282 C 0.06289 0.45818 0.12557 0.0
C4283 C 0.06672 0.47089 0.11413 0.0
C4284 C 0.07893 0.46831 0.1023 0.0
H4285 H 0.11665 0.55262 0.12265 0.0
H4286 H 0.09892 0.52776 0.1262 0.0
C4287 C 0.08785 0.45393 0.10253 0.0
C4288 C 0.06114 0.48808 0.11654 0.0
H4289 H 0.05854 0.52298 0.09301 0.0
C4290 C 0.06458 0.49576 0.13211 0.0
C4291 C 0.05687 0.49812 0.10281 0.0
C4292 C 0.05067 0.49067 0.08637 0.0
C4293 C 0.06691 0.51311 0.13352 0.0
C4294 C 0.06622 0.52284 0.11895 0.0
C4295 C 0.05975 0.51547 0.10409 0.0
C4296 C 0.0761 0.53885 0.11795 0.0
C4297 C 0.07178 0.5207 0.15029 0.0
C4298 C 0.06931 0.55335 0.1116 0.0
C4299 C 0.0796 0.56778 0.10937 0.0
C4300 C 0.09683 0.56773 0.11318 0.0
C4301 C 0.10346 0.55316 0.11955 0.0
C4302 C 0.09325 0.53893 0.12183 0.0
H4303 H 0.06499 0.51403 0.16032 0.0
H4304 H 0.08534 0.51939 0.15274 0.0
H4305 H 0.06913 0.53412 0.15087 0.0
H4306 H 0.05614 0.55344 0.10825 0.0
H4307 H 0.07414 0.57883 0.10443 0.0
H4308 H 0.1079 0.55497 0.88453 0.0
H4309 H 0.09063 0.52927 0.88509 0.0
H4310 H 0.05837 0.54767 0.84631 0.0
H4311 H 0.07587 0.57374 0.84564 0.0
H4312 H 0.05505 0.52037 0.88851 0.0
H4313 H 0.0796 0.50616 0.82581 0.0
H4314 H 0.089 0.5231 0.83823 0.0
H4315 H 0.06851 0.52478 0.82909 0.0
C4316 C 0.09697 0.55372 0.8763 0.0
C4317 C 0.09338 0.56622 0.86483 0.0
C4318 C 0.08702 0.53907 0.87673 0.0
C4319 C 0.07332 0.53651 0.86565 0.0
C4320 C 0.06897 0.5494 0.8549 0.0
H4321 H 0.0716 0.4299 0.85257 0.0
H4322 H 0.0559 0.45538 0.85022 0.0
C4323 C 0.07893 0.56426 0.85455 0.0
C4324 C 0.06557 0.51945 0.86413 0.0
H4325 H 0.07255 0.48373 0.8429 0.0
C4326 C 0.05823 0.51235 0.87825 0.0
C4327 C 0.06944 0.50903 0.85063 0.0
C4328 C 0.07707 0.51604 0.83504 0.0
C4329 C 0.05667 0.495 0.88009 0.0
C4330 C 0.06292 0.48463 0.86765 0.0
C4331 C 0.06796 0.49169 0.85255 0.0
C4332 C 0.06842 0.46771 0.8715 0.0
C4333 C 0.04962 0.488 0.89593 0.0
C4334 C 0.08032 0.46603 0.88446 0.0
C4335 C 0.08926 0.45167 0.88569 0.0
C4336 C 0.08642 0.4387 0.87406 0.0
C4337 C 0.07374 0.43974 0.8618 0.0
C4338 C 0.06482 0.45425 0.86046 0.0
H4339 H 0.03928 0.49554 0.9002 0.0
H4340 H 0.0449 0.47484 0.89425 0.0
H4341 H 0.0595 0.48861 0.90588 0.0
H4342 H 0.08374 0.47636 0.89281 0.0
H4343 H 0.09914 0.45112 0.89511 0.0
H4344 H 0.095 0.59156 0.38421 0.0
H4345 H 0.06851 0.57504 0.38615 0.0
H4346 H 0.04427 0.6105 0.35489 0.0
H4347 H 0.07032 0.62662 0.35259 0.0
H4348 H 0.04151 0.58488 0.40029 0.0
H4349 H 0.02269 0.56865 0.33606 0.0
H4350 H 0.0441 0.57471 0.34178 0.0
H4351 H 0.02945 0.5902 0.33612 0.0
C4352 C 0.08408 0.59557 0.37743 0.0
C4353 C 0.08478 0.61049 0.36834 0.0
C4354 C 0.06897 0.5861 0.37853 0.0
C4355 C 0.05444 0.59129 0.37036 0.0
C4356 C 0.05536 0.60585 0.36084 0.0
H4357 H 0.97028 0.62424 0.39526 0.0
H4358 H 0.9964 0.61051 0.39566 0.0
C4359 C 0.07031 0.61525 0.35975 0.0
C4360 C 0.03773 0.58341 0.3736 0.0
H4361 H 0.99974 0.57895 0.35371 0.0
C4362 C 0.03244 0.5829 0.39012 0.0
C4363 C 0.02586 0.58003 0.3605 0.0
C4364 C 0.03094 0.57823 0.34266 0.0
C4365 C 0.01539 0.58185 0.39364 0.0
C4366 C 1.00348 0.58186 0.38031 0.0
C4367 C 0.00881 0.57955 0.36398 0.0
C4368 C 0.98664 0.58825 0.38256 0.0
C4369 C 0.01034 0.58204 0.41159 0.0
C4370 C 0.97228 0.58047 0.37491 0.0
C4371 C 0.95716 0.58854 0.37442 0.0
C4372 C 0.95631 0.60459 0.38138 0.0
C4373 C 0.9705 0.61193 0.38969 0.0
C4374 C 0.98546 0.60392 0.39017 0.0
H4375 H 0.01867 0.57434 0.41924 0.0
H4376 H 0.01176 0.59498 0.41657 0.0
H4377 H 0.99721 0.5773 0.413 0.0
H4378 H 0.97293 0.56848 0.36876 0.0
H4379 H 0.94642 0.58259 0.36793 0.0
H4380 H 0.94538 0.58357 0.91248 0.0
H4381 H 0.96408 0.56034 0.90979 0.0
H4382 H 0.92593 0.53288 0.88047 0.0
H4383 H 0.90759 0.55566 0.88293 0.0
H4384 H 0.95837 0.52947 0.92168 0.0
H4385 H 0.96616 0.52236 0.8547 0.0
H4386 H 0.96037 0.54183 0.86381 0.0
H4387 H 0.9446 0.52599 0.85755 0.0
C4388 C 0.9412 0.57267 0.9052 0.0
C4389 C 0.92497 0.57137 0.89804 0.0
C4390 C 0.95189 0.55947 0.90362 0.0
C4391 C 0.94659 0.54502 0.89457 0.0
C4392 C 0.93059 0.54407 0.88703 0.0
H4393 H 0.9146 0.45922 0.90963 0.0
H4394 H 0.93137 0.48484 0.91341 0.0
C4395 C 0.91995 0.55706 0.88869 0.0
C4396 C 0.95618 0.52972 0.89484 0.0
H4397 H 0.95819 0.49563 0.86977 0.0
C4398 C 0.95911 0.52222 0.91029 0.0
C4399 C 0.9581 0.52035 0.88009 0.0
C4400 C 0.95733 0.5282 0.86313 0.0
C4401 C 0.96064 0.50494 0.91134 0.0
C4402 C 0.95859 0.49509 0.89666 0.0
C4403 C 0.95906 0.50302 0.88115 0.0
C4404 C 0.95106 0.47784 0.89713 0.0
C4405 C 0.96272 0.49726 0.92827 0.0
C4406 C 0.9564 0.46512 0.88668 0.0
C4407 C 0.94654 0.45031 0.88431 0.0
C4408 C 0.93111 0.44821 0.89214 0.0
C4409 C 0.92636 0.46051 0.90332 0.0
C4410 C 0.93616 0.47513 0.90573 0.0
H4411 H 0.97193 0.50491 0.93602 0.0
H4412 H 0.95066 0.49712 0.93475 0.0
H4413 H 0.96693 0.48433 0.92741 0.0
H4414 H 0.96772 0.467 0.87974 0.0
H4415 H 0.95047 0.441 0.87562 0.0
H4416 H 0.0501 0.4024 0.40768 0.0
H4417 H 0.0243 0.41679 0.40795 0.0
H4418 H 0.04083 0.44746 0.36712 0.0
H4419 H 0.0669 0.43263 0.3665 0.0
H4420 H 0.01459 0.44961 0.41071 0.0
H4421 H 0.99916 0.42227 0.34765 0.0
H4422 H 0.01695 0.41575 0.35963 0.0
H4423 H 0.01739 0.43607 0.35047 0.0
C4424 C 0.04843 0.41235 0.39887 0.0
C4425 C 0.0604 0.41613 0.38682 0.0
C4426 C 0.03369 0.42069 0.39914 0.0
C4427 C 0.03051 0.43303 0.3874 0.0
C4428 C 0.04294 0.4378 0.37614 0.0
H4429 H 0.92207 0.42797 0.37637 0.0
H4430 H 0.94845 0.44488 0.37446 0.0
C4431 C 0.05784 0.42938 0.37585 0.0
C4432 C 0.0133 0.43884 0.38601 0.0
H4433 H 0.97705 0.4282 0.3645 0.0
C4434 C 0.0064 0.44555 0.40034 0.0
C4435 C 1.00261 0.43374 0.3724 0.0
C4436 C 0.00928 0.42652 0.35664 0.0
C4437 C 0.98905 0.44521 0.40225 0.0
C4438 C 0.97848 0.43802 0.38952 0.0
C4439 C 0.98526 0.43358 0.3743 0.0
C4440 C 0.9616 0.43093 0.39314 0.0
C4441 C 0.98225 0.45113 0.41845 0.0
C4442 C 0.96026 0.4177 0.4044 0.0
C4443 C 0.94548 0.40793 0.40523 0.0
C4444 C 0.9317 0.41136 0.39497 0.0
C4445 C 0.93256 0.42528 0.38451 0.0
C4446 C 0.94755 0.43491 0.38343 0.0
H4447 H 0.99042 0.46138 0.42404 0.0
H4448 H 0.96941 0.4555 0.41666 0.0
H4449 H 0.98183 0.44067 0.4274 0.0
H4450 H 0.97104 0.41415 0.41171 0.0
H4451 H 0.94504 0.39722 0.41334 0.0
H4452 H 0.88291 0.44487 0.15951 0.0
H4453 H 0.89782 0.47181 0.15913 0.0
H4454 H 0.94124 0.4492 0.14023 0.0
H4455 H 0.92614 0.42181 0.14025 0.0
H4456 H 0.9282 0.48338 0.17485 0.0
H4457 H 0.93089 0.4851 0.10554 0.0
H4458 H 0.91757 0.46979 0.11571 0.0
H4459 H 0.9398 0.46821 0.1167 0.0
C4460 C 0.89564 0.44547 0.15529 0.0
C4461 C 0.90323 0.43113 0.14971 0.0
C4462 C 0.9042 0.46093 0.15519 0.0
C4463 C 0.9206 0.46253 0.14958 0.0
C4464 C 0.92852 0.44824 0.14445 0.0
H4465 H 0.93224 0.57158 0.15798 0.0
H4466 H 0.94564 0.5447 0.15745 0.0
C4467 C 0.91988 0.43263 0.1445 0.0
C4468 C 0.92848 0.47951 0.14835 0.0
H4469 H 0.93229 0.51057 0.11985 0.0
C4470 C 0.92974 0.48936 0.16289 0.0
C4471 C 0.93069 0.48714 0.13271 0.0
C4472 C 0.92967 0.47711 0.11671 0.0
C4473 C 0.93075 0.50681 0.16209 0.0
C4474 C 0.93088 0.5145 0.1463 0.0
C4475 C 0.93206 0.5046 0.13192 0.0
C4476 C 0.92502 0.53157 0.14421 0.0
C4477 C 0.92964 0.51677 0.178 0.0
C4478 C 0.90944 0.53327 0.13625 0.0
C4479 C 0.90189 0.54844 0.13645 0.0
C4480 C 0.90972 0.56235 0.14467 0.0
C4481 C 0.92585 0.56102 0.1517 0.0
C4482 C 0.93348 0.54568 0.15146 0.0
H4483 H 0.92867 0.50871 0.18915 0.0
H4484 H 0.94093 0.52523 0.17966 0.0
H4485 H 0.91858 0.52453 0.17738 0.0
H4486 H 0.90265 0.52257 0.13058 0.0
H4487 H 0.88958 0.54907 0.13067 0.0
H4488 H 0.93061 0.42746 0.65769 0.0
H4489 H 0.95724 0.444 0.65771 0.0
H4490 H 0.96875 0.42158 0.61063 0.0
H4491 H 0.94239 0.40549 0.61044 0.0
H4492 H 0.98553 0.42888 0.65985 0.0
H4493 H 0.98929 0.46702 0.60381 0.0
H4494 H 0.96946 0.45958 0.61185 0.0
H4495 H 0.98057 0.44692 0.59761 0.0
C4496 C 0.93858 0.42661 0.64707 0.0
C4497 C 0.93455 0.41508 0.63415 0.0
C4498 C 0.95378 0.43605 0.64709 0.0
C4499 C 0.96495 0.43425 0.63407 0.0
C4500 C 0.96023 0.42363 0.6206 0.0
H4501 H 0.04767 0.39846 0.61083 0.0
H4502 H 0.02249 0.41395 0.61347 0.0
C4503 C 0.94521 0.4142 0.62062 0.0
C4504 C 0.9827 0.4403 0.63582 0.0
H4505 H 0.01497 0.45126 0.61069 0.0
C4506 C 0.992 0.43455 0.64947 0.0
C4507 C 0.99121 0.4479 0.62244 0.0
C4508 C 0.98201 0.45586 0.60822 0.0
C4509 C 0.00942 0.43389 0.64891 0.0
C4510 C 0.01762 0.43917 0.63437 0.0
C4511 C 0.00861 0.44701 0.62174 0.0
C4512 C 0.03391 0.43258 0.63037 0.0
C4513 C 0.01867 0.42566 0.66296 0.0
C4514 C 0.04883 0.43832 0.63855 0.0
C4515 C 0.06334 0.42947 0.63692 0.0
C4516 C 0.06288 0.41474 0.62733 0.0
C4517 C 0.04823 0.40969 0.6184 0.0
C4518 C 0.0339 0.4186 0.61982 0.0
H4519 H 0.01053 0.4227 0.67363 0.0
H4520 H 0.02379 0.41393 0.65841 0.0
H4521 H 0.02934 0.43398 0.66747 0.0
H4522 H 0.04901 0.44906 0.64679 0.0
H4523 H 0.07454 0.43349 0.64399 0.0
H4524 H 0.0782 0.56994 0.64469 0.0
H4525 H 0.05251 0.55194 0.64181 0.0
H4526 H 0.03111 0.58808 0.60916 0.0
H4527 H 0.05641 0.60557 0.61167 0.0
H4528 H 0.0241 0.55979 0.65305 0.0
H4529 H 0.01118 0.54748 0.58717 0.0
H4530 H 0.03213 0.55306 0.59487 0.0
H4531 H 0.01824 0.56892 0.58822 0.0
C4532 C 0.06815 0.5737 0.6365 0.0
C4533 C 0.0692 0.58925 0.62858 0.0
C4534 C 0.05352 0.56341 0.63483 0.0
C4535 C 0.03991 0.56843 0.62501 0.0
C4536 C 0.04151 0.58352 0.61636 0.0
H4537 H 0.96251 0.60922 0.64348 0.0
H4538 H 0.98538 0.59086 0.64521 0.0
C4539 C 0.05596 0.59374 0.61805 0.0
C4540 C 0.02298 0.56022 0.62615 0.0
H4541 H 0.98705 0.56007 0.60266 0.0
C4542 C 0.01603 0.55903 0.64199 0.0
C4543 C 0.01227 0.55822 0.6119 0.0
C4544 C 0.01898 0.55678 0.59462 0.0
C4545 C 0.99871 0.55939 0.64381 0.0
C4546 C 0.98837 0.56154 0.62952 0.0
C4547 C 0.99501 0.55921 0.61372 0.0
C4548 C 0.97293 0.57087 0.63057 0.0
C4549 C 0.99187 0.55929 0.66111 0.0
C4550 C 0.95822 0.56598 0.62151 0.0
C4551 C 0.94498 0.57674 0.62031 0.0
C4552 C 0.94648 0.59262 0.62789 0.0
C4553 C 0.96097 0.59714 0.63739 0.0
C4554 C 0.97401 0.58646 0.63865 0.0
H4555 H 0.99825 0.55008 0.66894 0.0
H4556 H 0.99441 0.57172 0.66704 0.0
H4557 H 0.97821 0.55623 0.66095 0.0
H4558 H 0.95722 0.55414 0.61494 0.0
H4559 H 0.93394 0.57295 0.6129 0.0
H4560 H 0.92156 0.10181 0.37389 0.0
H4561 H 0.95172 0.10107 0.36932 0.0
H4562 H 0.96194 0.11709 0.42008 0.0
H4563 H 0.9321 0.11781 0.42477 0.0
H4564 H 0.9766 0.12719 0.37256 0.0
H4565 H 0.99009 0.07618 0.416 0.0
H4566 H 0.96917 0.08012 0.40872 0.0
H4567 H 0.97889 0.09238 0.42549 0.0
C4568 C 0.93024 0.10504 0.38412 0.0
C4569 C 0.92433 0.10974 0.39974 0.0
C4570 C 0.94749 0.10464 0.38147 0.0
C4571 C 0.95915 0.10875 0.39444 0.0
C4572 C 0.95324 0.1135 0.40998 0.0
H4573 H 0.06048 0.14603 0.39973 0.0
H4574 H 0.03037 0.14119 0.39651 0.0
C4575 C 0.9361 0.11398 0.41261 0.0
C4576 C 0.97751 0.10872 0.39177 0.0
H4577 H 0.01361 0.09348 0.4077 0.0
C4578 C 0.98467 0.11965 0.38008 0.0
C4579 C 0.9881 0.09872 0.40138 0.0
C4580 C 0.98118 0.08606 0.41348 0.0
C4581 C 1.00211 0.12146 0.37838 0.0
C4582 C 0.01274 0.11224 0.38876 0.0
C4583 C 0.00554 0.10067 0.39982 0.0
C4584 C 0.03129 0.11528 0.38925 0.0
C4585 C 0.00899 0.13339 0.36557 0.0
C4586 C 0.04203 0.10231 0.38634 0.0
C4587 C 0.05944 0.10504 0.38818 0.0
C4588 C 0.06646 0.12076 0.39322 0.0
C4589 C 0.05563 0.13376 0.39579 0.0
C4590 C 0.03832 0.13105 0.39385 0.0
H4591 H 0.99969 0.13532 0.35536 0.0
H4592 H 0.01213 0.14566 0.37162 0.0
H4593 H 0.02051 0.12883 0.36011 0.0
H4594 H 0.03691 0.08999 0.38289 0.0
H4595 H 0.06734 0.0947 0.38621 0.0
H4596 H 0.37269 0.44018 0.85568 0.0
H4597 H 0.3738 0.4705 0.85149 0.0
H4598 H 0.37935 0.47842 0.90453 0.0
H4599 H 0.37829 0.44843 0.90884 0.0
H4600 H 0.35194 0.49395 0.86451 0.0
H4601 H 0.41713 0.50889 0.88618 0.0
H4602 H 0.40957 0.48802 0.88046 0.0
H4603 H 0.4053 0.49646 0.90062 0.0
C4604 C 0.37435 0.44837 0.86644 0.0
C4605 C 0.37543 0.44173 0.8826 0.0
C4606 C 0.37493 0.46572 0.86402 0.0
C4607 C 0.37688 0.47682 0.87768 0.0
C4608 C 0.37815 0.4702 0.89375 0.0
H4609 H 0.34986 0.57753 0.89448 0.0
H4610 H 0.35215 0.54747 0.89195 0.0
C4611 C 0.37745 0.45295 0.89619 0.0
C4612 C 0.37678 0.49528 0.8754 0.0
H4613 H 0.39917 0.53178 0.88454 0.0
C4614 C 0.36235 0.5022 0.8687 0.0
C4615 C 0.3904 0.50614 0.88069 0.0
C4616 C 0.40655 0.49953 0.88724 0.0
C4617 C 0.36091 0.51959 0.86785 0.0
C4618 C 0.37419 0.53045 0.87398 0.0
C4619 C 0.38891 0.52353 0.87998 0.0
C4620 C 0.37271 0.54892 0.87505 0.0
C4621 C 0.3451 0.5262 0.86047 0.0
C4622 C 0.3837 0.55993 0.86664 0.0
C4623 C 0.38241 0.57729 0.86804 0.0
C4624 C 0.37022 0.58401 0.87807 0.0
C4625 C 0.35933 0.5729 0.88655 0.0
C4626 C 0.36057 0.55562 0.88506 0.0
H4627 H 0.33836 0.51684 0.85216 0.0
H4628 H 0.33669 0.52926 0.87068 0.0
H4629 H 0.34782 0.53771 0.85327 0.0
H4630 H 0.39327 0.5551 0.85895 0.0
H4631 H 0.39108 0.58543 0.86142 0.0
H4632 H 0.07978 0.89533 0.42141 0.0
H4633 H 0.04952 0.89497 0.41787 0.0
H4634 H 0.05454 0.91226 0.3675 0.0
H4635 H 0.08515 0.91263 0.37092 0.0
H4636 H 0.0288 0.92141 0.40971 0.0
H4637 H 0.02266 0.86999 0.36278 0.0
H4638 H 0.04145 0.87409 0.37533 0.0
H4639 H 0.03677 0.88734 0.35813 0.0
C4640 C 0.07455 0.89911 0.40953 0.0
C4641 C 0.08501 0.90401 0.39643 0.0
C4642 C 0.05717 0.89891 0.40756 0.0
C4643 C 0.04967 0.90345 0.39239 0.0
C4644 C 0.06001 0.9085 0.37927 0.0
H4645 H 0.94052 0.91659 0.38721 0.0
H4646 H 0.97065 0.92136 0.38338 0.0
C4647 C 0.07751 0.90879 0.38127 0.0
C4648 C 0.03105 0.90279 0.39062 0.0
H4649 H 0.99779 0.88119 0.37165 0.0
C4650 C 0.02201 0.91278 0.40123 0.0
C4651 C 0.02217 0.89138 0.37969 0.0
C4652 C 0.03117 0.87997 0.36838 0.0
C4653 C 1.00444 0.91145 0.40144 0.0
C4654 C 0.99555 0.89992 0.39064 0.0
C4655 C 1.00457 0.89013 0.37982 0.0
C4656 C 0.97706 0.89682 0.39149 0.0
C4657 C 0.99554 0.92189 0.41376 0.0
C4658 C 0.97052 0.88129 0.39678 0.0
C4659 C 0.95335 0.87851 0.39896 0.0
C4660 C 0.94217 0.89118 0.39579 0.0
C4661 C 0.94868 0.90655 0.38982 0.0
C4662 C 0.96594 0.90934 0.38771 0.0
H4663 H 1.00429 0.92791 0.42323 0.0
H4664 H 0.98914 0.93185 0.40701 0.0
H4665 H 0.98592 0.91417 0.42028 0.0
H4666 H 0.97879 0.87142 0.39973 0.0
H4667 H 0.94889 0.86649 0.40351 0.0
H4668 H 0.62648 0.42547 0.87314 0.0
H4669 H 0.62279 0.45558 0.87219 0.0
H4670 H 0.67451 0.46493 0.8871 0.0
H4671 H 0.67798 0.43502 0.88883 0.0
H4672 H 0.65715 0.48368 0.9045 0.0
H4673 H 0.63456 0.49051 0.83937 0.0
H4674 H 0.62145 0.47612 0.85069 0.0
H4675 H 0.64275 0.47141 0.84693 0.0
C4676 C 0.6371 0.43397 0.876 0.0
C4677 C 0.65254 0.42779 0.88104 0.0
C4678 C 0.63502 0.45125 0.87535 0.0
C4679 C 0.64842 0.46275 0.87932 0.0
C4680 C 0.66391 0.45648 0.88398 0.0
H4681 H 0.65218 0.57113 0.86356 0.0
H4682 H 0.65344 0.54078 0.86024 0.0
C4683 C 0.66591 0.4393 0.88492 0.0
C4684 C 0.64627 0.48123 0.87973 0.0
H4685 H 0.6322 0.51409 0.85732 0.0
C4686 C 0.65176 0.49027 0.89409 0.0
C4687 C 0.63946 0.49009 0.86614 0.0
C4688 C 0.63439 0.48157 0.84985 0.0
C4689 C 0.65059 0.50765 0.89532 0.0
C4690 C 0.64305 0.51641 0.88208 0.0
C4691 C 0.63774 0.50745 0.8676 0.0
C4692 C 0.64079 0.53481 0.88309 0.0
C4693 C 0.65797 0.51647 0.9107 0.0
C4694 C 0.63265 0.54169 0.89662 0.0
C4695 C 0.63214 0.55898 0.89865 0.0
C4696 C 0.63936 0.56993 0.88696 0.0
C4697 C 0.64647 0.56307 0.87278 0.0
C4698 C 0.64723 0.54569 0.8709 0.0
H4699 H 0.66777 0.50917 0.91682 0.0
H4700 H 0.66355 0.52898 0.90769 0.0
H4701 H 0.648 0.51801 0.91982 0.0
H4702 H 0.62702 0.53366 0.9059 0.0
H4703 H 0.62637 0.56379 0.90961 0.0
H4704 H 0.94335 0.87491 0.65467 0.0
H4705 H 0.97374 0.87545 0.65968 0.0
H4706 H 0.98133 0.88243 0.60722 0.0
H4707 H 0.95128 0.88203 0.60211 0.0
H4708 H 0.99621 0.85368 0.64655 0.0
H4709 H 0.0134 0.91827 0.62794 0.0
H4710 H 0.99222 0.9114 0.63244 0.0
H4711 H 1.00067 0.90716 0.61239 0.0
C4712 C 0.95149 0.87683 0.64424 0.0
C4713 C 0.94475 0.87847 0.62798 0.0
C4714 C 0.96888 0.87707 0.64712 0.0
C4715 C 0.97991 0.87921 0.63387 0.0
C4716 C 0.97318 0.88112 0.61772 0.0
H4717 H 0.07818 0.84734 0.61682 0.0
H4718 H 0.04845 0.85109 0.61975 0.0
C4719 C 0.95589 0.88079 0.61482 0.0
C4720 C 0.99837 0.87844 0.63654 0.0
H4721 H 0.03557 0.89922 0.62854 0.0
C4722 C 1.0048 0.86374 0.64283 0.0
C4723 C 0.00968 0.8916 0.6319 0.0
C4724 C 1.00366 0.90806 0.62595 0.0
C4725 C 0.02212 0.86155 0.64382 0.0
C4726 C 0.03339 0.87431 0.63818 0.0
C4727 C 0.027 0.88934 0.63269 0.0
C4728 C 0.05168 0.87192 0.63696 0.0
C4729 C 0.02819 0.84549 0.65077 0.0
C4730 C 0.06359 0.88259 0.64539 0.0
C4731 C 0.08078 0.88049 0.64374 0.0
C4732 C 0.0864 0.86777 0.63345 0.0
C4733 C 0.0744 0.85719 0.62498 0.0
C4734 C 0.05731 0.85925 0.6267 0.0
H4735 H 0.01887 0.83942 0.65906 0.0
H4736 H 0.03021 0.83674 0.64034 0.0
H4737 H 0.04018 0.84764 0.65788 0.0
H4738 H 0.05959 0.89256 0.65328 0.0
H4739 H 0.08964 0.88894 0.65034 0.0
H4740 H 0.6237 0.4364 0.09485 0.0
H4741 H 0.6234 0.4665 0.0984 0.0
H4742 H 0.60435 0.4601 0.14773 0.0
H4743 H 0.60465 0.42964 0.1443 0.0
H4744 H 0.59638 0.48657 0.105 0.0
H4745 H 0.6459 0.49258 0.15484 0.0
H4746 H 0.64256 0.47401 0.14214 0.0
H4747 H 0.62851 0.47817 0.15852 0.0
C4748 C 0.61939 0.44128 0.1065 0.0
C4749 C 0.6142 0.43048 0.11931 0.0
C4750 C 0.61922 0.45858 0.10848 0.0
C4751 C 0.614 0.46567 0.12337 0.0
C4752 C 0.60865 0.45498 0.13619 0.0
H4753 H 0.599 0.57433 0.12737 0.0
H4754 H 0.59445 0.54414 0.13097 0.0
C4755 C 0.60873 0.43755 0.13418 0.0
C4756 C 0.61429 0.48423 0.12516 0.0
H4757 H 0.63465 0.51737 0.1453 0.0
C4758 C 0.60459 0.4933 0.11397 0.0
C4759 C 0.62513 0.49306 0.13672 0.0
C4760 C 0.63624 0.48404 0.1487 0.0
C4761 C 0.60566 0.51086 0.11379 0.0
C4762 C 0.61663 0.5197 0.12523 0.0
C4763 C 0.62612 0.51064 0.13663 0.0
C4764 C 0.61951 0.53823 0.12453 0.0
C4765 C 0.59558 0.51981 0.10085 0.0
C4766 C 0.63524 0.54509 0.12026 0.0
C4767 C 0.6379 0.5623 0.11822 0.0
C4768 C 0.62491 0.57322 0.12052 0.0
C4769 C 0.6093 0.56638 0.12547 0.0
C4770 C 0.60664 0.54908 0.12743 0.0
H4771 H 0.59012 0.51117 0.09105 0.0
H4772 H 0.5852 0.52588 0.10696 0.0
H4773 H 0.60345 0.52967 0.0948 0.0
H4774 H 0.6454 0.53704 0.118 0.0
H4775 H 0.65011 0.567 0.11447 0.0
H4776 H 0.93019 0.11219 0.65058 0.0
H4777 H 0.96067 0.11053 0.65345 0.0
H4778 H 0.96737 0.15162 0.61973 0.0
H4779 H 0.93718 0.15337 0.61678 0.0
H4780 H 0.98381 0.10514 0.62773 0.0
H4781 H 0.99825 0.16562 0.65983 0.0
H4782 H 0.97749 0.15577 0.65885 0.0
H4783 H 0.98535 0.16728 0.64136 0.0
C4784 C 0.93816 0.12097 0.6439 0.0
C4785 C 0.93117 0.13298 0.63352 0.0
C4786 C 0.95559 0.11998 0.64553 0.0
C4787 C 0.96637 0.13112 0.63701 0.0
C4788 C 0.95938 0.1431 0.6267 0.0
H4789 H 0.06507 0.12949 0.60123 0.0
H4790 H 0.03536 0.12715 0.60669 0.0
C4791 C 0.94204 0.14402 0.62496 0.0
C4792 C 0.9849 0.12992 0.63821 0.0
H4793 H 0.02121 0.15283 0.64723 0.0
C4794 C 0.99198 0.11548 0.63222 0.0
C4795 C 0.99563 0.14331 0.64424 0.0
C4796 C 0.98882 0.15882 0.65159 0.0
C4797 C 0.00941 0.11442 0.6313 0.0
C4798 C 0.02011 0.12819 0.63641 0.0
C4799 C 0.01306 0.1423 0.6432 0.0
C4800 C 0.03845 0.12873 0.63349 0.0
C4801 C 0.01625 0.09862 0.62463 0.0
C4802 C 0.05025 0.13057 0.64675 0.0
C4803 C 0.06747 0.13187 0.64367 0.0
C4804 C 0.07318 0.13166 0.62723 0.0
C4805 C 0.06125 0.12971 0.61406 0.0
C4806 C 0.04417 0.12827 0.61715 0.0
H4807 H 0.00719 0.0878 0.62588 0.0
H4808 H 0.01877 0.10016 0.6112 0.0
H4809 H 0.02813 0.09582 0.6312 0.0
H4810 H 0.04614 0.13109 0.65947 0.0
H4811 H 0.07625 0.13346 0.65411 0.0
H4812 H 0.38024 0.57337 0.08252 0.0
H4813 H 0.38047 0.54324 0.08544 0.0
H4814 H 0.4054 0.54947 0.13348 0.0
H4815 H 0.40486 0.57988 0.13081 0.0
H4816 H 0.40614 0.52331 0.08808 0.0
H4817 H 0.36799 0.51623 0.14456 0.0
H4818 H 0.36963 0.53544 0.13311 0.0
H4819 H 0.38628 0.52994 0.14711 0.0
C4820 C 0.38576 0.56841 0.09377 0.0
C4821 C 0.39254 0.57915 0.10644 0.0
C4822 C 0.38587 0.5511 0.09542 0.0
C4823 C 0.39276 0.54393 0.10976 0.0
C4824 C 0.39966 0.55459 0.12244 0.0
H4825 H 0.40189 0.43546 0.12665 0.0
H4826 H 0.40591 0.46594 0.12958 0.0
C4827 C 0.39946 0.57202 0.12084 0.0
C4828 C 0.39296 0.52534 0.11098 0.0
H4829 H 0.37854 0.49171 0.13339 0.0
C4830 C 0.40017 0.51646 0.09807 0.0
C4831 C 0.38524 0.51625 0.12401 0.0
C4832 C 0.37671 0.5249 0.13793 0.0
C4833 C 0.39958 0.49893 0.09765 0.0
C4834 C 0.39151 0.48988 0.11042 0.0
C4835 C 0.38478 0.49866 0.12364 0.0
C4836 C 0.38874 0.47139 0.10936 0.0
C4837 C 0.40739 0.49015 0.08337 0.0
C4838 C 0.37758 0.46432 0.09723 0.0
C4839 C 0.37517 0.44702 0.09559 0.0
C4840 C 0.38391 0.43621 0.10602 0.0
C4841 C 0.39495 0.44333 0.11838 0.0
C4842 C 0.39725 0.46076 0.12009 0.0
H4843 H 0.41622 0.49859 0.07661 0.0
H4844 H 0.41415 0.47926 0.08788 0.0
H4845 H 0.39741 0.4855 0.07441 0.0
H4846 H 0.37078 0.47225 0.08889 0.0
H4847 H 0.36656 0.44216 0.08591 0.0
H4848 H 0.39635 0.07338 0.14731 0.0
H4849 H 0.39321 0.0433 0.1433 0.0
H4850 H 0.37822 0.05014 0.09199 0.0
H4851 H 0.38147 0.08052 0.09584 0.0
H4852 H 0.36616 0.02173 0.13292 0.0
H4853 H 0.41849 0.02038 0.08893 0.0
H4854 H 0.41486 0.03845 0.10157 0.0
H4855 H 0.40193 0.03372 0.08338 0.0
C4856 C 0.39223 0.06859 0.13516 0.0
C4857 C 0.38928 0.07951 0.12187 0.0
C4858 C 0.39041 0.0513 0.13291 0.0
C4859 C 0.38572 0.04436 0.11729 0.0
C4860 C 0.38212 0.05516 0.10411 0.0
H4861 H 0.36669 0.93491 0.10567 0.0
H4862 H 0.36299 0.96508 0.10488 0.0
C4863 C 0.38386 0.07256 0.10637 0.0
C4864 C 0.38529 0.02586 0.11491 0.0
H4865 H 0.40531 0.99463 0.09576 0.0
C4866 C 0.37458 0.0158 0.12464 0.0
C4867 C 0.39643 0.01807 0.10429 0.0
C4868 C 0.4087 0.02814 0.09401 0.0
C4869 C 0.37488 0.99826 0.12422 0.0
C4870 C 0.38611 0.99049 0.11368 0.0
C4871 C 0.39662 1.00055 0.10375 0.0
C4872 C 0.38812 0.97207 0.11374 0.0
C4873 C 0.36369 0.98823 0.13561 0.0
C4874 C 0.40353 0.96588 0.11865 0.0
C4875 C 0.40568 0.9487 0.11907 0.0
C4876 C 0.39251 0.93718 0.11447 0.0
C4877 C 0.3771 0.94338 0.10935 0.0
C4878 C 0.37493 0.96065 0.10897 0.0
H4879 H 0.35826 0.99614 0.14528 0.0
H4880 H 0.35325 0.98207 0.12815 0.0
H4881 H 0.37067 0.97836 0.14189 0.0
H4882 H 0.4139 0.97437 0.12238 0.0
H4883 H 0.41774 0.94448 0.1231 0.0
H4884 H 0.45105 0.89935 0.653 0.0
H4885 H 0.48096 0.89598 0.65155 0.0
H4886 H 0.4717 0.85026 0.6236 0.0
H4887 H 0.44146 0.85371 0.62475 0.0
H4888 H 0.49971 0.8712 0.6636 0.0
H4889 H 0.5056 0.87514 0.59488 0.0
H4890 H 0.48703 0.88086 0.60528 0.0
H4891 H 0.49097 0.85928 0.60205 0.0
C4892 C 0.45528 0.88854 0.6465 0.0
C4893 C 0.44375 0.87679 0.63899 0.0
C4894 C 0.47247 0.88664 0.64569 0.0
C4895 C 0.47871 0.87297 0.63732 0.0
C4896 C 0.46727 0.8611 0.62987 0.0
H4897 H 0.58712 0.85622 0.62793 0.0
H4898 H 0.55659 0.85075 0.6274 0.0
C4899 C 0.44996 0.86302 0.63063 0.0
C4900 C 0.49719 0.87127 0.63683 0.0
H4901 H 0.53032 0.87172 0.61073 0.0
C4902 C 0.50634 0.87115 0.65201 0.0
C4903 C 0.50597 0.87113 0.62173 0.0
C4904 C 0.49696 0.87174 0.60503 0.0
C4905 C 0.5239 0.87138 0.65251 0.0
C4906 C 0.53268 0.87189 0.63746 0.0
C4907 C 0.52358 0.87128 0.62226 0.0
C4908 C 0.55118 0.87489 0.63743 0.0
C4909 C 0.53298 0.87146 0.6692 0.0
C4910 C 0.55826 0.8903 0.64304 0.0
C4911 C 0.57555 0.89349 0.64326 0.0
C4912 C 0.58636 0.88134 0.63789 0.0
C4913 C 0.57924 0.86586 0.63219 0.0
C4914 C 0.56179 0.86272 0.63185 0.0
H4915 H 0.52474 0.86676 0.67922 0.0
H4916 H 0.54405 0.86372 0.66879 0.0
H4917 H 0.5374 0.88441 0.67248 0.0
H4918 H 0.55036 0.89994 0.64725 0.0
H4919 H 0.58041 0.90557 0.64776 0.0
H4920 H 0.63779 0.07496 0.11295 0.0
H4921 H 0.64155 0.04485 0.11338 0.0
H4922 H 0.58819 0.03553 0.10853 0.0
H4923 H 0.58439 0.06543 0.10894 0.0
H4924 H 0.59896 0.01666 0.13107 0.0
H4925 H 0.64089 0.0101 0.07811 0.0
H4926 H 0.64964 0.02439 0.09363 0.0
H4927 H 0.63081 0.02919 0.08232 0.0
C4928 C 0.62689 0.06646 0.11177 0.0
C4929 C 0.61079 0.07264 0.11088 0.0
C4930 C 0.62905 0.04918 0.1119 0.0
C4931 C 0.61518 0.03769 0.11072 0.0
C4932 C 0.59915 0.04397 0.10947 0.0
H4933 H 0.61575 0.92956 0.09366 0.0
H4934 H 0.61632 0.95996 0.09037 0.0
C4935 C 0.59698 0.06115 0.10967 0.0
C4936 C 0.61708 0.01921 0.11181 0.0
H4937 H 0.63739 0.98643 0.09571 0.0
C4938 C 0.60734 0.01011 0.12324 0.0
C4939 C 0.62779 0.01041 0.10149 0.0
C4940 C 0.63774 0.01899 0.08808 0.0
C4941 C 0.608 0.99272 0.1247 0.0
C4942 C 0.6193 0.98402 0.11498 0.0
C4943 C 0.62893 0.99303 0.10339 0.0
C4944 C 0.62098 0.96559 0.11655 0.0
C4945 C 0.59611 0.98382 0.13633 0.0
C4946 C 0.6242 0.9585 0.13219 0.0
C4947 C 0.62364 0.94118 0.13411 0.0
C4948 C 0.62036 0.93043 0.12036 0.0
C4949 C 0.61843 0.93748 0.10448 0.0
C4950 C 0.61868 0.95488 0.10261 0.0
H4951 H 0.585 0.99116 0.13857 0.0
H4952 H 0.59175 0.9714 0.13131 0.0
H4953 H 0.60256 0.9821 0.14855 0.0
H4954 H 0.62662 0.96638 0.14307 0.0
H4955 H 0.62531 0.93617 0.14649 0.0
H4956 H 0.57486 0.1358 0.61706 0.0
H4957 H 0.54452 0.1378 0.61399 0.0
H4958 H 0.53906 0.12399 0.66544 0.0
H4959 H 0.56913 0.12113 0.66824 0.0
H4960 H 0.51728 0.10714 0.64843 0.0
H4961 H 0.51338 0.17196 0.62674 0.0
H4962 H 0.52555 0.15992 0.61317 0.0
H4963 H 0.53269 0.16389 0.63436 0.0
C4964 C 0.56718 0.1334 0.62775 0.0
C4965 C 0.57444 0.12832 0.6429 0.0
C4966 C 0.54979 0.13467 0.62603 0.0
C4967 C 0.53931 0.13133 0.63955 0.0
C4968 C 0.54671 0.12664 0.65477 0.0
H4969 H 0.4323 0.1508 0.64333 0.0
H4970 H 0.46299 0.15322 0.64497 0.0
C4971 C 0.56398 0.12504 0.65638 0.0
C4972 C 0.52063 0.13154 0.63773 0.0
H4973 H 0.48826 0.15464 0.62414 0.0
C4974 C 0.51101 0.11763 0.64321 0.0
C4975 C 0.51221 0.14526 0.63117 0.0
C4976 C 0.52148 0.16116 0.6262 0.0
C4977 C 0.49345 0.11694 0.64222 0.0
C4978 C 0.48505 0.13024 0.63481 0.0
C4979 C 0.4946 0.1443 0.62956 0.0
C4980 C 0.46641 0.12967 0.63251 0.0
C4981 C 0.48414 0.10208 0.64959 0.0
C4982 C 0.458 0.11603 0.62437 0.0
C4983 C 0.44054 0.1145 0.6237 0.0
C4984 C 0.43095 0.12683 0.6307 0.0
C4985 C 0.43931 0.14109 0.63782 0.0
C4986 C 0.45687 0.14245 0.63879 0.0
H4987 H 0.49179 0.09616 0.65942 0.0
H4988 H 0.47227 0.10562 0.65512 0.0
H4989 H 0.48124 0.0926 0.63968 0.0
H4990 H 0.46495 0.10629 0.61883 0.0
H4991 H 0.43452 0.10347 0.61789 0.0
H4992 H 0.41379 0.07944 0.88201 0.0
H4993 H 0.40917 0.04927 0.88238 0.0
H4994 H 0.3561 0.05439 0.8768 0.0
H4995 H 0.36061 0.08487 0.87628 0.0
H4996 H 0.39062 0.02785 0.90312 0.0
H4997 H 0.36668 0.02364 0.8375 0.0
H4998 H 0.37721 0.0423 0.84606 0.0
H4999 H 0.35593 0.03707 0.85113 0.0
C5000 C 0.40107 0.07426 0.88097 0.0
C5001 C 0.38758 0.08473 0.87899 0.0
C5002 C 0.39846 0.05691 0.88121 0.0
C5003 C 0.38232 0.04945 0.87938 0.0
C5004 C 0.36871 0.05981 0.87797 0.0
H5005 H 0.36605 0.93996 0.89075 0.0
H5006 H 0.36361 0.97015 0.89423 0.0
C5007 C 0.37131 0.07727 0.8778 0.0
C5008 C 0.38005 0.03086 0.87849 0.0
H5009 H 0.36893 0.99843 0.85188 0.0
C5010 C 0.38569 0.02141 0.89199 0.0
C5011 C 0.37382 0.02241 0.86388 0.0
C5012 C 0.36816 0.0318 0.84873 0.0
C5013 C 0.38552 1.00386 0.89119 0.0
C5014 C 0.37939 0.99542 0.87655 0.0
C5015 C 0.3735 1.00485 0.86315 0.0
C5016 C 0.38025 0.97697 0.87435 0.0
C5017 C 0.39256 0.99454 0.90579 0.0
C5018 C 0.3901 0.97065 0.86181 0.0
C5019 C 0.39148 0.95345 0.85977 0.0
C5020 C 0.38294 0.94203 0.87015 0.0
C5021 C 0.37283 0.94835 0.88255 0.0
C5022 C 0.3715 0.96563 0.88462 0.0
H5023 H 0.39974 1.00296 0.91471 0.0
H5024 H 0.38215 0.98826 0.91254 0.0
H5025 H 0.40084 0.98481 0.90146 0.0
H5026 H 0.39697 0.97907 0.85371 0.0
H5027 H 0.39939 0.94913 0.85008 0.0
H5028 H 0.58658 0.88664 0.41381 0.0
H5029 H 0.55622 0.8834 0.41713 0.0
H5030 H 0.54826 0.90446 0.36856 0.0
H5031 H 0.57833 0.90776 0.36513 0.0
H5032 H 0.53343 0.90968 0.41623 0.0
H5033 H 0.51685 0.86215 0.36742 0.0
H5034 H 0.53788 0.86573 0.37578 0.0
H5035 H 0.52981 0.87934 0.36019 0.0
C5036 C 0.57837 0.89035 0.40373 0.0
C5037 C 0.585 0.89745 0.38919 0.0
C5038 C 0.561 0.88853 0.40567 0.0
C5039 C 0.5499 0.8935 0.39302 0.0
C5040 C 0.5565 0.90026 0.37839 0.0
H5041 H 0.4512 0.92818 0.38983 0.0
H5042 H 0.48101 0.9236 0.39104 0.0
C5043 C 0.57378 0.90222 0.3765 0.0
C5044 C 0.53146 0.8927 0.39533 0.0
H5045 H 0.49442 0.87782 0.37737 0.0
C5046 C 0.52491 0.90252 0.40789 0.0
C5047 C 0.52029 0.88325 0.38455 0.0
C5048 C 0.52653 0.87189 0.37132 0.0
C5049 C 0.50757 0.90378 0.40942 0.0
C5050 C 0.49642 0.89508 0.39805 0.0
C5051 C 0.50293 0.8846 0.38602 0.0
C5052 C 0.4781 0.89763 0.39774 0.0
C5053 C 0.5013 0.91465 0.42307 0.0
C5054 C 0.46639 0.88448 0.40084 0.0
C5055 C 0.44916 0.88707 0.40023 0.0
C5056 C 0.44333 0.90284 0.39625 0.0
C5057 C 0.45515 0.91589 0.39302 0.0
C5058 C 0.47228 0.91333 0.39377 0.0
H5059 H 0.5108 0.91676 0.4333 0.0
H5060 H 0.49844 0.92695 0.41784 0.0
H5061 H 0.48969 0.90901 0.42834 0.0
H5062 H 0.47058 0.87222 0.4038 0.0
H5063 H 0.44043 0.87672 0.40268 0.0
H5064 H 0.62411 0.06313 0.85207 0.0
H5065 H 0.62643 0.03322 0.8557 0.0
H5066 H 0.65872 0.0425 0.89889 0.0
H5067 H 0.65638 0.07266 0.89541 0.0
H5068 H 0.65444 0.0137 0.85605 0.0
H5069 H 0.62198 0.01003 0.91632 0.0
H5070 H 0.6213 0.02803 0.90307 0.0
H5071 H 0.63965 0.02467 0.91563 0.0
C5072 C 0.63177 0.05889 0.86235 0.0
C5073 C 0.64003 0.07041 0.87347 0.0
C5074 C 0.6331 0.04171 0.86439 0.0
C5075 C 0.6426 0.0355 0.87767 0.0
C5076 C 0.6511 0.04693 0.88868 0.0
H5077 H 0.66184 0.92748 0.88111 0.0
H5078 H 0.66646 0.95797 0.8819 0.0
C5079 C 0.64982 0.0642 0.88662 0.0
C5080 C 0.64335 0.01706 0.87987 0.0
H5081 H 0.63136 0.98498 0.90543 0.0
C5082 C 0.64956 0.00744 0.86694 0.0
C5083 C 0.63683 0.00881 0.89399 0.0
C5084 C 0.62943 0.01833 0.90802 0.0
C5085 C 0.64919 0.98989 0.86761 0.0
C5086 C 0.64257 0.98163 0.88167 0.0
C5087 C 0.6366 0.99127 0.89472 0.0
C5088 C 0.64022 0.96305 0.88234 0.0
C5089 C 0.65523 0.98028 0.85291 0.0
C5090 C 0.62402 0.95566 0.88287 0.0
C5091 C 0.62135 0.93831 0.88246 0.0
C5092 C 0.63484 0.92776 0.88164 0.0
C5093 C 0.65115 0.93515 0.88172 0.0
C5094 C 0.6538 0.95261 0.88205 0.0
H5095 H 0.65707 0.9883 0.84184 0.0
H5096 H 0.66736 0.97499 0.8563 0.0
H5097 H 0.64623 0.96979 0.84947 0.0
H5098 H 0.61332 0.96336 0.88316 0.0
H5099 H 0.6086 0.9332 0.88251 0.0
H5100 H 0.42308 0.12909 0.41412 0.0
H5101 H 0.4536 0.13255 0.41775 0.0
H5102 H 0.45957 0.10781 0.37063 0.0
H5103 H 0.42935 0.10428 0.3669 0.0
H5104 H 0.47666 0.10629 0.41859 0.0
H5105 H 0.49049 0.15032 0.36745 0.0
H5106 H 0.46989 0.14721 0.37582 0.0
H5107 H 0.47733 0.13252 0.3611 0.0
C5108 C 0.43088 0.12458 0.40442 0.0
C5109 C 0.42365 0.11642 0.3902 0.0
C5110 C 0.44834 0.12652 0.40655 0.0
C5111 C 0.45893 0.12061 0.39437 0.0
C5112 C 0.45173 0.11273 0.38008 0.0
H5113 H 0.55871 0.08766 0.39503 0.0
H5114 H 0.52874 0.09146 0.39539 0.0
C5115 C 0.43436 0.11065 0.37802 0.0
C5116 C 0.47748 0.12175 0.39684 0.0
H5117 H 0.51357 0.13583 0.37862 0.0
C5118 C 0.48472 0.11294 0.40998 0.0
C5119 C 0.48807 0.13053 0.38572 0.0
C5120 C 0.48108 0.14082 0.37181 0.0
C5121 C 0.50217 0.11204 0.41182 0.0
C5122 C 0.51273 0.12008 0.40016 0.0
C5123 C 0.50552 0.12954 0.38749 0.0
C5124 C 0.53113 0.11797 0.40036 0.0
C5125 C 0.50918 0.10232 0.42614 0.0
C5126 C 0.54259 0.13167 0.40276 0.0
C5127 C 0.55989 0.12953 0.40262 0.0
C5128 C 0.56606 0.11367 0.39984 0.0
C5129 C 0.55449 0.10005 0.39731 0.0
C5130 C 0.53729 0.10218 0.39758 0.0
H5131 H 0.50013 0.10081 0.43632 0.0
H5132 H 0.51205 0.08971 0.42165 0.0
H5133 H 0.52092 0.10852 0.43128 0.0
H5134 H 0.53816 0.14401 0.4048 0.0
H5135 H 0.56841 0.14032 0.40451 0.0
H5136 H 0.11415 0.42312 0.93675 0.0
H5137 H 0.11382 0.41911 0.96678 0.0
H5138 H 0.10042 0.36692 0.9592 0.0
H5139 H 0.10086 0.37081 0.92887 0.0
H5140 H 0.08803 0.40787 0.98694 0.0
H5141 H 0.14122 0.36622 0.99118 0.0
H5142 H 0.13678 0.37817 0.9728 0.0
H5143 H 0.12437 0.35954 0.97708 0.0
C5144 C 0.11111 0.41074 0.94137 0.0
C5145 C 0.10755 0.39727 0.93029 0.0
C5146 C 0.1109 0.40848 0.95863 0.0
C5147 C 0.10726 0.39269 0.96536 0.0
C5148 C 0.10353 0.37919 0.95437 0.0
H5149 H 0.0904 0.38458 0.07397 0.0
H5150 H 0.08655 0.38096 0.04367 0.0
C5151 C 0.1037 0.38145 0.93701 0.0
C5152 C 0.10741 0.39063 0.98387 0.0
H5153 H 0.12835 0.37277 0.01627 0.0
C5154 C 0.09673 0.40005 0.99335 0.0
C5155 C 0.11886 0.38056 0.99229 0.0
C5156 C 0.13108 0.37062 0.98289 0.0
C5157 C 0.09738 0.39993 0.0109 0.0
C5158 C 0.10891 0.38994 0.01933 0.0
C5159 C 0.11939 0.38029 0.00985 0.0
C5160 C 0.11138 0.39061 0.03786 0.0
C5161 C 0.08625 0.41109 0.0203 0.0
C5162 C 0.12678 0.39664 0.04479 0.0
C5163 C 0.12904 0.39865 0.06205 0.0
C5164 C 0.11597 0.39459 0.07294 0.0
C5165 C 0.10074 0.38786 0.06603 0.0
C5166 C 0.09847 0.38591 0.04867 0.0
H5167 H 0.08046 0.42034 0.01204 0.0
H5168 H 0.07608 0.40337 0.02596 0.0
H5169 H 0.0934 0.41788 0.03049 0.0
H5170 H 0.13696 0.40031 0.03679 0.0
H5171 H 0.14099 0.40379 0.0668 0.0
H5172 H 0.15859 0.61684 0.93512 0.0
H5173 H 0.15444 0.61911 0.96501 0.0
H5174 H 0.11324 0.65053 0.95593 0.0
H5175 H 0.11727 0.64826 0.92577 0.0
H5176 H 0.15511 0.64741 0.98615 0.0
H5177 H 0.09314 0.61303 0.98537 0.0
H5178 H 0.1069 0.6126 0.96796 0.0
H5179 H 0.09515 0.63061 0.97173 0.0
C5180 C 0.14865 0.62431 0.9394 0.0
C5181 C 0.13824 0.63234 0.92794 0.0
C5182 C 0.14632 0.62561 0.95657 0.0
C5183 C 0.13343 0.63484 0.9628 0.0
C5184 C 0.12313 0.64313 0.95145 0.0
H5185 H 0.12864 0.6531 0.07188 0.0
H5186 H 0.12831 0.65794 0.04169 0.0
C5187 C 0.12551 0.6419 0.93419 0.0
C5188 C 0.13085 0.63549 0.98117 0.0
H5189 H 0.10413 0.62233 0.01147 0.0
C5190 C 0.14388 0.64211 0.99169 0.0
C5191 C 0.11626 0.62842 0.98844 0.0
C5192 C 0.10207 0.62063 0.97787 0.0
C5193 C 0.14286 0.64158 0.00917 0.0
C5194 C 0.12834 0.63436 0.01644 0.0
C5195 C 0.11519 0.62801 1.00593 0.0
C5196 C 0.12727 0.6318 0.03482 0.0
C5197 C 0.15764 0.64809 0.01975 0.0
C5198 C 0.12625 0.61554 0.04107 0.0
C5199 C 0.1264 0.61274 0.05825 0.0
C5200 C 0.12746 0.62613 0.06974 0.0
C5201 C 0.12783 0.64247 0.06346 0.0
C5202 C 0.12777 0.64526 0.04618 0.0
H5203 H 0.16893 0.65054 0.01226 0.0
H5204 H 0.15456 0.65994 0.02586 0.0
H5205 H 0.16061 0.63908 0.02968 0.0
H5206 H 0.1258 0.60493 0.03262 0.0
H5207 H 0.12602 0.59997 0.0625 0.0
H5208 H 0.87249 0.61717 0.43912 0.0
H5209 H 0.87004 0.61336 0.46932 0.0
H5210 H 0.90174 0.6576 0.47831 0.0
H5211 H 0.90415 0.66156 0.44839 0.0
H5212 H 0.8947 0.60869 0.49345 0.0
H5213 H 0.86253 0.66617 0.50776 0.0
H5214 H 0.86402 0.65821 0.48679 0.0
H5215 H 0.88126 0.67024 0.49643 0.0
C5216 C 0.87881 0.62617 0.44753 0.0
C5217 C 0.88841 0.63976 0.44123 0.0
C5218 C 0.87742 0.62396 0.46482 0.0
C5219 C 0.88545 0.63535 0.47619 0.0
C5220 C 0.89508 0.64885 0.46989 0.0
H5221 H 0.92024 0.62628 0.57729 0.0
H5222 H 0.91538 0.62612 0.54727 0.0
C5223 C 0.89651 0.65104 0.45269 0.0
C5224 C 0.88444 0.6329 0.49462 0.0
H5225 H 0.87546 0.65273 0.53097 0.0
C5226 C 0.8903 0.61825 0.50162 0.0
C5227 C 0.87846 0.6452 0.50539 0.0
C5228 C 0.87105 0.66076 0.49872 0.0
C5229 C 0.89109 0.61594 0.51901 0.0
C5230 C 0.88609 0.6287 0.52981 0.0
C5231 C 0.87947 0.64299 0.52279 0.0
C5232 C 0.88863 0.62794 0.54833 0.0
C5233 C 0.89738 0.59984 0.52565 0.0
C5234 C 0.87524 0.62925 0.55918 0.0
C5235 C 0.87797 0.62938 0.57659 0.0
C5236 C 0.89422 0.62842 0.58352 0.0
C5237 C 0.90753 0.62697 0.57255 0.0
C5238 C 0.90477 0.62677 0.55526 0.0
H5239 H 0.89558 0.5896 0.51629 0.0
H5240 H 0.91095 0.60155 0.5286 0.0
H5241 H 0.89094 0.59605 0.53719 0.0
H5242 H 0.86266 0.6303 0.55418 0.0
H5243 H 0.86743 0.63062 0.58457 0.0
H5244 H 0.86722 0.4025 0.9535 0.0
H5245 H 0.871 0.40055 0.98362 0.0
H5246 H 0.90484 0.36115 0.97729 0.0
H5247 H 0.90114 0.36302 0.94683 0.0
H5248 H 0.87937 0.35572 1.00311 0.0
H5249 H 0.91439 0.41678 0.00986 0.0
H5250 H 0.89521 0.41739 0.99786 0.0
H5251 H 0.91198 0.40573 0.99019 0.0
C5252 C 0.87545 0.39334 0.95841 0.0
C5253 C 0.8839 0.38293 0.94763 0.0
C5254 C 0.87765 0.3923 0.97571 0.0
C5255 C 0.88836 0.38085 0.98277 0.0
C5256 C 0.89656 0.37014 0.97213 0.0
H5257 H 0.90512 0.36294 0.0911 0.0
H5258 H 0.90615 0.36001 0.06063 0.0
C5259 C 0.89444 0.37124 0.95472 0.0
C5260 C 0.89093 0.38035 1.00126 0.0
H5261 H 0.90398 0.40469 0.03471 0.0
C5262 C 0.88496 0.36631 0.01005 0.0
C5263 C 0.89823 0.39416 0.01032 0.0
C5264 C 0.90547 0.40933 1.00161 0.0
C5265 C 0.88534 0.36608 0.02764 0.0
C5266 C 0.89218 0.38014 0.03672 0.0
C5267 C 0.89868 0.39391 0.02785 0.0
C5268 C 0.89168 0.38146 0.05532 0.0
C5269 C 0.87769 0.35111 0.03634 0.0
C5270 C 0.88353 0.39464 0.0626 0.0
C5271 C 0.88308 0.39643 0.07992 0.0
C5272 C 0.89081 0.3851 0.09056 0.0
C5273 C 0.899 0.37186 0.08331 0.0
C5274 C 0.89949 0.37011 0.06587 0.0
H5275 H 0.86968 0.34308 0.02772 0.0
H5276 H 0.88779 0.34352 0.04141 0.0
H5277 H 0.87005 0.355 0.04689 0.0
H5278 H 0.8774 0.40359 0.05484 0.0
H5279 H 0.87658 0.40676 0.08495 0.0
H5280 H 0.13232 0.40567 0.57393 0.0
H5281 H 0.13615 0.4066 0.54364 0.0
H5282 H 0.08458 0.39029 0.53531 0.0
H5283 H 0.08063 0.3894 0.56527 0.0
H5284 H 0.13156 0.38086 0.51963 0.0
H5285 H 0.08907 0.4314 0.50573 0.0
H5286 H 0.09671 0.42729 0.52658 0.0
H5287 H 0.0794 0.41489 0.51757 0.0
C5288 C 0.12177 0.4024 0.56563 0.0
C5289 C 0.10613 0.39759 0.57212 0.0
C5290 C 0.12399 0.40291 0.54831 0.0
C5291 C 0.11058 0.39881 0.53712 0.0
C5292 C 0.09503 0.3939 0.5436 0.0
H5293 H 0.10305 0.36317 0.43642 0.0
H5294 H 0.10648 0.36741 0.46639 0.0
C5295 C 0.09283 0.39331 0.56083 0.0
C5296 C 0.11277 0.39905 0.51867 0.0
H5297 H 0.09648 0.41462 0.48252 0.0
C5298 C 0.12404 0.38841 0.51154 0.0
C5299 C 0.10317 0.40905 0.50802 0.0
C5300 C 0.09152 0.42143 0.51485 0.0
C5301 C 0.12535 0.3869 0.49412 0.0
C5302 C 0.11499 0.39614 0.48345 0.0
C5303 C 0.10433 0.40739 0.4906 0.0
C5304 C 0.11421 0.39353 0.46497 0.0
C5305 C 0.13776 0.3753 0.48729 0.0
C5306 C 0.11726 0.40682 0.45397 0.0
C5307 C 0.1153 0.40444 0.43663 0.0
C5308 C 0.11 0.38874 0.42992 0.0
C5309 C 0.10722 0.37544 0.44101 0.0
C5310 C 0.10927 0.37781 0.45825 0.0
H5311 H 0.14809 0.37336 0.49645 0.0
H5312 H 0.13134 0.363 0.48452 0.0
H5313 H 0.14316 0.38018 0.4756 0.0
H5314 H 0.12097 0.41911 0.45882 0.0
H5315 H 0.11743 0.41501 0.42854 0.0
H5316 H 0.89137 0.59839 0.94855 0.0
H5317 H 0.89081 0.60332 0.97846 0.0
H5318 H 0.8885 0.65609 0.97022 0.0
H5319 H 0.88883 0.65125 0.93997 0.0
H5320 H 0.91155 0.62171 1.00038 0.0
H5321 H 0.84785 0.64593 0.9989 0.0
H5322 H 0.85632 0.6356 0.98122 0.0
H5323 H 0.8628 0.65683 0.98614 0.0
C5324 C 0.89084 0.61111 0.95298 0.0
C5325 C 0.89004 0.62441 0.94167 0.0
C5326 C 0.89055 0.6139 0.97019 0.0
C5327 C 0.88935 0.63004 0.97671 0.0
C5328 C 0.88911 0.64346 0.96555 0.0
H5329 H 0.89932 0.64705 0.0861 0.0
H5330 H 0.90383 0.64896 0.05601 0.0
C5331 C 0.88944 0.64069 0.94822 0.0
C5332 C 0.88798 0.63247 0.99514 0.0
H5333 H 0.86135 0.6443 0.02518 0.0
C5334 C 0.90065 0.62682 1.0058 0.0
C5335 C 0.87366 0.63892 1.00229 0.0
C5336 C 0.85929 0.64456 0.99161 0.0
C5337 C 0.89929 0.62719 0.02328 0.0
C5338 C 0.88496 0.63361 0.03043 0.0
C5339 C 0.87241 0.6395 0.01977 0.0
C5340 C 0.88214 0.63315 0.0488 0.0
C5341 C 0.91292 0.62004 0.03391 0.0
C5342 C 0.86823 0.62402 0.05487 0.0
C5343 C 0.86558 0.62299 0.07202 0.0
C5344 C 0.87672 0.63115 0.08364 0.0
C5345 C 0.89051 0.64056 0.07755 0.0
C5346 C 0.89316 0.64158 0.06033 0.0
H5347 H 0.92119 0.61235 0.02648 0.0
H5348 H 0.92072 0.63038 0.03981 0.0
H5349 H 0.90754 0.61223 0.04398 0.0
H5350 H 0.85951 0.61741 0.04632 0.0
H5351 H 0.85483 0.6156 0.07615 0.0
H5352 H 0.91213 0.38527 0.45527 0.0
H5353 H 0.90804 0.38576 0.4852 0.0
H5354 H 0.85732 0.39971 0.47694 0.0
H5355 H 0.86129 0.39914 0.44665 0.0
H5356 H 0.89948 0.41177 0.50604 0.0
H5357 H 0.85213 0.35883 0.50738 0.0
H5358 H 0.86473 0.3631 0.48947 0.0
H5359 H 0.84745 0.37568 0.49373 0.0
C5360 C 0.90006 0.38849 0.45972 0.0
C5361 C 0.88702 0.39215 0.44844 0.0
C5362 C 0.89776 0.38878 0.47692 0.0
C5363 C 0.88234 0.39262 0.48342 0.0
C5364 C 0.86928 0.39647 0.47226 0.0
H5365 H 0.87705 0.40811 0.5929 0.0
H5366 H 0.87314 0.41239 0.56281 0.0
C5367 C 0.87159 0.39623 0.45494 0.0
C5368 C 0.88022 0.39246 0.50188 0.0
H5369 H 0.86049 0.37121 0.53312 0.0
C5370 C 0.8908 0.40305 0.51196 0.0
C5371 C 0.86902 0.38096 0.50966 0.0
C5372 C 0.85774 0.36888 0.49958 0.0
C5373 C 0.89076 0.40221 0.52948 0.0
C5374 C 0.8797 0.39058 0.53727 0.0
C5375 C 0.86886 0.38023 0.5272 0.0
C5376 C 0.88042 0.38781 0.55567 0.0
C5377 C 0.90315 0.41323 0.53951 0.0
C5378 C 0.88519 0.3724 0.56178 0.0
C5379 C 0.88737 0.36991 0.57891 0.0
C5380 C 0.88474 0.38273 0.5905 0.0
C5381 C 0.87921 0.39795 0.58441 0.0
C5382 C 0.8771 0.40046 0.56717 0.0
H5383 H 0.91283 0.41926 0.53159 0.0
H5384 H 0.89646 0.42319 0.54575 0.0
H5385 H 0.90945 0.40595 0.54931 0.0
H5386 H 0.88778 0.36241 0.55324 0.0
H5387 H 0.89155 0.35797 0.58303 0.0
H5388 H 0.11384 0.65251 0.56464 0.0
H5389 H 0.11615 0.64972 0.5346 0.0
H5390 H 0.15647 0.61678 0.54167 0.0
H5391 H 0.15397 0.61922 0.57202 0.0
H5392 H 0.14158 0.65808 0.51461 0.0
H5393 H 0.12658 0.58998 0.5089 0.0
H5394 H 0.1234 0.60152 0.52782 0.0
H5395 H 0.144 0.59573 0.52262 0.0
C5396 C 0.12322 0.64462 0.5599 0.0
C5397 C 0.13372 0.63607 0.57085 0.0
C5398 C 0.12453 0.64305 0.54262 0.0
C5399 C 0.13633 0.63287 0.53572 0.0
C5400 C 0.147 0.62443 0.5466 0.0
H5401 H 0.15276 0.61641 0.42803 0.0
H5402 H 0.15671 0.61683 0.45855 0.0
C5403 C 0.14565 0.62594 0.56398 0.0
C5404 C 0.13746 0.63154 0.51717 0.0
H5405 H 0.13297 0.60428 0.48411 0.0
C5406 C 0.13978 0.64627 0.508 0.0
C5407 C 0.13518 0.61616 0.5084 0.0
C5408 C 0.13201 0.59994 0.51738 0.0
C5409 C 0.13957 0.6461 0.49046 0.0
C5410 C 0.13684 0.63081 0.48171 0.0
C5411 C 0.13509 0.616 0.49081 0.0
C5412 C 0.13453 0.63019 0.4632 0.0
C5413 C 0.14214 0.66236 0.48139 0.0
C5414 C 0.12066 0.63734 0.45565 0.0
C5415 C 0.11832 0.63702 0.43832 0.0
C5416 C 0.12981 0.62956 0.428 0.0
C5417 C 0.14368 0.62229 0.43557 0.0
C5418 C 0.14594 0.6225 0.45302 0.0
H5419 H 0.14826 0.67222 0.48957 0.0
H5420 H 0.14986 0.66077 0.47026 0.0
H5421 H 0.12983 0.66668 0.47712 0.0
H5422 H 0.11157 0.64317 0.46322 0.0
H5423 H 0.10749 0.64277 0.43302 0.0
H5424 H 0.31078 0.0841 0.39268 0.0
H5425 H 0.28058 0.08583 0.39338 0.0
H5426 H 0.2867 0.13735 0.40878 0.0
H5427 H 0.31719 0.13578 0.40794 0.0
H5428 H 0.26107 0.09291 0.41983 0.0
H5429 H 0.25302 0.13911 0.36959 0.0
H5430 H 0.27211 0.12846 0.3728 0.0
H5431 H 0.26757 0.14569 0.38603 0.0
C5432 C 0.30579 0.09586 0.39622 0.0
C5433 C 0.3165 0.10982 0.40028 0.0
C5434 C 0.28844 0.09681 0.3966 0.0
C5435 C 0.28127 0.11175 0.40095 0.0
C5436 C 0.29189 0.12574 0.40508 0.0
H5437 H 0.17851 0.1196 0.43129 0.0
H5438 H 0.20882 0.11957 0.42961 0.0
C5439 C 0.30934 0.1248 0.40472 0.0
C5440 C 0.26271 0.11233 0.40156 0.0
H5441 H 0.22888 0.13096 0.38454 0.0
C5442 C 0.25405 0.10126 0.41212 0.0
C5443 C 0.25347 0.12303 0.39132 0.0
C5444 C 0.26195 0.13466 0.37917 0.0
C5445 C 0.23653 0.1007 0.41287 0.0
C5446 C 0.22731 0.11167 0.40294 0.0
C5447 C 0.23592 0.12262 0.39222 0.0
C5448 C 0.20875 0.11202 0.4037 0.0
C5449 C 0.228 0.08812 0.42407 0.0
C5450 C 0.19851 0.10815 0.38957 0.0
C5451 C 0.18103 0.10816 0.39047 0.0
C5452 C 0.17346 0.11216 0.40551 0.0
C5453 C 0.18382 0.11628 0.41954 0.0
C5454 C 0.20122 0.11624 0.41863 0.0
H5455 H 0.23626 0.07789 0.42739 0.0
H5456 H 0.22466 0.0944 0.43578 0.0
H5457 H 0.21635 0.08262 0.41806 0.0
H5458 H 0.20403 0.10494 0.37788 0.0
H5459 H 0.17347 0.10505 0.3794 0.0
H5460 H 0.37721 0.69084 0.86 0.0
H5461 H 0.37854 0.7212 0.85631 0.0
H5462 H 0.38937 0.72816 0.90886 0.0
H5463 H 0.3877 0.69815 0.91269 0.0
H5464 H 0.3657 0.74822 0.89885 0.0
H5465 H 0.41823 0.75401 0.85533 0.0
H5466 H 0.40105 0.74043 0.84808 0.0
H5467 H 0.41311 0.73498 0.86624 0.0
C5468 C 0.38008 0.69884 0.87072 0.0
C5469 C 0.38234 0.69194 0.88664 0.0
C5470 C 0.38088 0.71624 0.8686 0.0
C5471 C 0.38419 0.7271 0.88229 0.0
C5472 C 0.38674 0.72016 0.89808 0.0
H5473 H 0.41871 0.83049 0.88531 0.0
H5474 H 0.41457 0.80027 0.88594 0.0
C5475 C 0.38583 0.7029 0.90023 0.0
C5476 C 0.38457 0.74568 0.88056 0.0
H5477 H 0.40479 0.77867 0.8617 0.0
C5478 C 0.37422 0.75486 0.89067 0.0
C5479 C 0.39576 0.75445 0.87001 0.0
C5480 C 0.40779 0.74552 0.8594 0.0
C5481 C 0.37491 0.77243 0.89074 0.0
C5482 C 0.38601 0.7812 0.8801 0.0
C5483 C 0.39619 0.77202 0.8698 0.0
C5484 C 0.38806 0.79985 0.88016 0.0
C5485 C 0.36421 0.78138 0.90272 0.0
C5486 C 0.37452 0.80993 0.8768 0.0
C5487 C 0.37682 0.8274 0.87662 0.0
C5488 C 0.39276 0.8352 0.87957 0.0
C5489 C 0.40623 0.82504 0.883 0.0
C5490 C 0.4039 0.80766 0.88329 0.0
H5491 H 0.3598 0.7731 0.91289 0.0
H5492 H 0.37114 0.79242 0.90838 0.0
H5493 H 0.35305 0.78571 0.8959 0.0
H5494 H 0.36222 0.80429 0.874 0.0
H5495 H 0.36618 0.83475 0.87374 0.0
H5496 H 0.69819 0.93089 0.39451 0.0
H5497 H 0.72842 0.92894 0.39546 0.0
H5498 H 0.72257 0.87744 0.40979 0.0
H5499 H 0.69207 0.87923 0.4087 0.0
H5500 H 0.74921 0.92164 0.42183 0.0
H5501 H 0.7543 0.87537 0.37074 0.0
H5502 H 0.73548 0.88621 0.37408 0.0
H5503 H 0.74048 0.86889 0.38697 0.0
C5504 C 0.70325 0.91909 0.39787 0.0
C5505 C 0.6926 0.9052 0.40155 0.0
C5506 C 0.72061 0.91801 0.39839 0.0
C5507 C 0.72786 0.903 0.40249 0.0
C5508 C 0.71731 0.88909 0.40628 0.0
H5509 H 0.83189 0.89377 0.43346 0.0
H5510 H 0.80152 0.89432 0.43157 0.0
C5511 C 0.69986 0.89016 0.40577 0.0
C5512 C 0.74645 0.90223 0.40319 0.0
H5513 H 0.77923 0.88312 0.38607 0.0
C5514 C 0.75575 0.91319 0.41401 0.0
C5515 C 0.75507 0.8914 0.39282 0.0
C5516 C 0.74588 0.87989 0.38037 0.0
C5517 C 0.77332 0.9135 0.4149 0.0
C5518 C 0.78192 0.90239 0.40485 0.0
C5519 C 0.77266 0.89156 0.39385 0.0
C5520 C 0.80051 0.90175 0.40575 0.0
C5521 C 0.78253 0.92597 0.42641 0.0
C5522 C 0.81017 0.90537 0.39175 0.0
C5523 C 0.82768 0.90506 0.39277 0.0
C5524 C 0.83587 0.901 0.40781 0.0
C5525 C 0.8261 0.89713 0.42171 0.0
C5526 C 0.80866 0.89748 0.42068 0.0
H5527 H 0.77459 0.93635 0.42982 0.0
H5528 H 0.78626 0.91964 0.43806 0.0
H5529 H 0.794 0.93128 0.42061 0.0
H5530 H 0.80417 0.90862 0.38006 0.0
H5531 H 0.83477 0.908 0.3818 0.0
H5532 H 0.65599 0.17727 0.88723 0.0
H5533 H 0.65992 0.20774 0.88977 0.0
H5534 H 0.60702 0.21239 0.8818 0.0
H5535 H 0.60292 0.18228 0.87965 0.0
H5536 H 0.65317 0.23284 0.86773 0.0
H5537 H 0.61538 0.23969 0.92377 0.0
H5538 H 0.62191 0.21974 0.9167 0.0
H5539 H 0.60396 0.22879 0.90719 0.0
C5540 C 0.64517 0.18477 0.8862 0.0
C5541 C 0.62911 0.17716 0.88342 0.0
C5542 C 0.64744 0.20222 0.88757 0.0
C5543 C 0.63373 0.21244 0.88627 0.0
C5544 C 0.61777 0.20486 0.88329 0.0
H5545 H 0.6366 0.32067 0.8678 0.0
H5546 H 0.63383 0.29021 0.86472 0.0
C5547 C 0.61547 0.18752 0.882 0.0
C5548 C 0.63594 0.23102 0.88779 0.0
H5549 H 0.62219 0.26457 0.90897 0.0
C5550 C 0.64648 0.23977 0.87681 0.0
C5551 C 0.62736 0.24016 0.89975 0.0
C5552 C 0.61665 0.23161 0.91263 0.0
C5553 C 0.64844 0.25733 0.87728 0.0
C5554 C 0.63935 0.26649 0.88882 0.0
C5555 C 0.62901 0.25768 0.89994 0.0
C5556 C 0.64099 0.28512 0.8903 0.0
C5557 C 0.66053 0.26585 0.86564 0.0
C5558 C 0.64544 0.29256 0.90577 0.0
C5559 C 0.64676 0.3099 0.90762 0.0
C5560 C 0.64369 0.32045 0.89405 0.0
C5561 C 0.63912 0.31302 0.87853 0.0
C5562 C 0.63769 0.29555 0.87671 0.0
H5563 H 0.66969 0.25714 0.86094 0.0
H5564 H 0.65351 0.2706 0.85474 0.0
H5565 H 0.66748 0.27656 0.87189 0.0
H5566 H 0.64804 0.28491 0.91648 0.0
H5567 H 0.65036 0.31501 0.91979 0.0
H5568 H 0.33633 0.86017 0.62341 0.0
H5569 H 0.30568 0.85691 0.62151 0.0
H5570 H 0.30231 0.90904 0.63326 0.0
H5571 H 0.33255 0.91251 0.63481 0.0
H5572 H 0.28113 0.86235 0.64428 0.0
H5573 H 0.27416 0.90479 0.59092 0.0
H5574 H 0.29407 0.89718 0.59737 0.0
H5575 H 0.28574 0.91456 0.60807 0.0
C5576 C 0.32906 0.87095 0.62549 0.0
C5577 C 0.33705 0.88665 0.62901 0.0
C5578 C 0.31152 0.86906 0.62445 0.0
C5579 C 0.30162 0.88281 0.6269 0.0
C5580 C 0.30959 0.89833 0.63085 0.0
H5581 H 0.19393 0.88133 0.64624 0.0
H5582 H 0.22452 0.88303 0.64912 0.0
C5583 C 0.327 0.90026 0.63178 0.0
C5584 C 0.28299 0.88114 0.62539 0.0
H5585 H 0.24942 0.89749 0.60551 0.0
C5586 C 0.27419 0.86995 0.63573 0.0
C5587 C 0.27386 0.89091 0.61411 0.0
C5588 C 0.28244 0.90241 0.60187 0.0
C5589 C 0.25658 0.8685 0.63531 0.0
C5590 C 0.24745 0.87878 0.62449 0.0
C5591 C 0.25631 0.88976 0.61398 0.0
C5592 C 0.22877 0.87781 0.62311 0.0
C5593 C 0.24795 0.85571 0.64619 0.0
C5594 C 0.22086 0.87485 0.6075 0.0
C5595 C 0.20345 0.87418 0.60576 0.0
C5596 C 0.19334 0.8764 0.61963 0.0
C5597 C 0.20125 0.8795 0.63529 0.0
C5598 C 0.21878 0.88031 0.63699 0.0
H5599 H 0.25649 0.84593 0.65016 0.0
H5600 H 0.24367 0.86195 0.65757 0.0
H5601 H 0.23689 0.84961 0.63962 0.0
H5602 H 0.22818 0.87293 0.59657 0.0
H5603 H 0.19795 0.87172 0.59347 0.0
H5604 H 0.62413 0.6841 0.08296 0.0
H5605 H 0.62327 0.71436 0.08468 0.0
H5606 H 0.60365 0.7105 0.13403 0.0
H5607 H 0.60471 0.68004 0.13251 0.0
H5608 H 0.59685 0.73379 0.08829 0.0
H5609 H 0.64194 0.74521 0.14124 0.0
H5610 H 0.63963 0.72544 0.13036 0.0
H5611 H 0.62481 0.73081 0.14567 0.0
C5612 C 0.61964 0.68962 0.09423 0.0
C5613 C 0.61448 0.67953 0.10761 0.0
C5614 C 0.61917 0.707 0.09519 0.0
C5615 C 0.61361 0.71485 0.10956 0.0
C5616 C 0.60833 0.70484 0.12293 0.0
H5617 H 0.58139 0.81662 0.11529 0.0
H5618 H 0.58355 0.78643 0.11473 0.0
C5619 C 0.60883 0.68738 0.122 0.0
C5620 C 0.61292 0.73344 0.11018 0.0
H5621 H 0.6274 0.76849 0.13166 0.0
C5622 C 0.60355 0.74134 0.09779 0.0
C5623 C 0.62183 0.74342 0.12241 0.0
C5624 C 0.63275 0.73585 0.1356 0.0
C5625 C 0.60266 0.75879 0.09742 0.0
C5626 C 0.61119 0.76874 0.1099 0.0
C5627 C 0.62076 0.7609 0.12215 0.0
C5628 C 0.61009 0.78725 0.11049 0.0
C5629 C 0.59276 0.76648 0.08349 0.0
C5630 C 0.62435 0.79792 0.1086 0.0
C5631 C 0.62316 0.81532 0.10887 0.0
C5632 C 0.60769 0.82243 0.1112 0.0
C5633 C 0.5935 0.81167 0.11334 0.0
C5634 C 0.59469 0.79434 0.11298 0.0
H5635 H 0.59052 0.75774 0.07278 0.0
H5636 H 0.58045 0.76981 0.08815 0.0
H5637 H 0.59931 0.77803 0.07901 0.0
H5638 H 0.63639 0.79277 0.10674 0.0
H5639 H 0.63437 0.82319 0.1073 0.0
H5640 H 0.81675 0.11829 0.59742 0.0
H5641 H 0.78671 0.11735 0.60108 0.0
H5642 H 0.7945 0.12466 0.65401 0.0
H5643 H 0.82487 0.12518 0.6505 0.0
H5644 H 0.76937 0.10193 0.64759 0.0
H5645 H 0.75906 0.1568 0.60839 0.0
H5646 H 0.7694 0.14113 0.59718 0.0
H5647 H 0.77965 0.15118 0.61509 0.0
C5648 C 0.81217 0.11968 0.6099 0.0
C5649 C 0.82334 0.12198 0.62366 0.0
C5650 C 0.79489 0.11928 0.61194 0.0
C5651 C 0.78823 0.12145 0.62775 0.0
C5652 C 0.7993 0.12316 0.64164 0.0
H5653 H 0.68158 0.14071 0.6374 0.0
H5654 H 0.71216 0.14369 0.63716 0.0
C5655 C 0.81668 0.12341 0.63963 0.0
C5656 C 0.76973 0.12167 0.62963 0.0
H5657 H 0.73472 0.13939 0.61408 0.0
C5658 C 0.76183 0.11024 0.64038 0.0
C5659 C 0.75978 0.13274 0.62053 0.0
C5660 C 0.76743 0.14627 0.6098 0.0
C5661 C 0.74433 0.1091 0.64174 0.0
C5662 C 0.73432 0.11937 0.63174 0.0
C5663 C 0.74227 0.13128 0.62154 0.0
C5664 C 0.71564 0.11773 0.63147 0.0
C5665 C 0.7368 0.09699 0.65404 0.0
C5666 C 0.70727 0.1023 0.62783 0.0
C5667 C 0.68983 0.10055 0.62806 0.0
C5668 C 0.68019 0.11425 0.63165 0.0
C5669 C 0.68854 0.12988 0.63458 0.0
C5670 C 0.70606 0.13159 0.6345 0.0
H5671 H 0.74584 0.0944 0.66431 0.0
H5672 H 0.7254 0.10178 0.65954 0.0
H5673 H 0.73336 0.085 0.64758 0.0
H5674 H 0.71424 0.09153 0.62487 0.0
H5675 H 0.6839 0.08834 0.62555 0.0
H5676 H 0.42614 0.19269 0.1196 0.0
H5677 H 0.42404 0.22285 0.11905 0.0
H5678 H 0.37318 0.21649 0.10048 0.0
H5679 H 0.37509 0.18611 0.10124 0.0
H5680 H 0.41826 0.24321 0.09299 0.0
H5681 H 0.36849 0.24894 0.13904 0.0
H5682 H 0.3794 0.23004 0.13637 0.0
H5683 H 0.36287 0.235 0.12198 0.0
C5684 C 0.41445 0.19763 0.11541 0.0
C5685 C 0.40077 0.18687 0.11045 0.0
C5686 C 0.41328 0.21496 0.11512 0.0
C5687 C 0.39839 0.22206 0.10995 0.0
C5688 C 0.38471 0.21138 0.10487 0.0
H5689 H 0.38803 0.32376 0.07727 0.0
H5690 H 0.38957 0.29369 0.07999 0.0
C5691 C 0.38586 0.19398 0.10518 0.0
C5692 C 0.39752 0.24062 0.10941 0.0
H5693 H 0.37652 0.27348 0.12426 0.0
C5694 C 0.40913 0.2498 0.09987 0.0
C5695 C 0.3858 0.24934 0.11856 0.0
C5696 C 0.37352 0.24038 0.1297 0.0
C5697 C 0.40915 0.26729 0.09897 0.0
C5698 C 0.39711 0.27596 0.10768 0.0
C5699 C 0.38569 0.26686 0.11749 0.0
C5700 C 0.39595 0.2944 0.10633 0.0
C5701 C 0.42222 0.27638 0.08881 0.0
C5702 C 0.39869 0.30495 0.12031 0.0
C5703 C 0.39786 0.32232 0.1188 0.0
C5704 C 0.3941 0.32948 0.10329 0.0
C5705 C 0.39111 0.3188 0.0894 0.0
C5706 C 0.39202 0.30153 0.09091 0.0
H5707 H 0.43299 0.26858 0.08649 0.0
H5708 H 0.41661 0.27966 0.07657 0.0
H5709 H 0.4269 0.2881 0.09515 0.0
H5710 H 0.40166 0.29975 0.13237 0.0
H5711 H 0.40012 0.33013 0.12977 0.0
H5712 H 0.09707 0.37914 0.17991 0.0
H5713 H 0.09581 0.37736 0.21039 0.0
H5714 H 0.10908 0.42989 0.2147 0.0
H5715 H 0.11024 0.43182 0.18445 0.0
H5716 H 0.12056 0.38511 0.23535 0.0
H5717 H 0.06675 0.42509 0.24192 0.0
H5718 H 0.0723 0.41639 0.22215 0.0
H5719 H 0.0836 0.43461 0.23053 0.0
C5720 C 0.09964 0.39033 0.18734 0.0
C5721 C 0.10359 0.40565 0.17964 0.0
C5722 C 0.09896 0.38928 0.20479 0.0
C5723 C 0.1021 0.40354 0.2149 0.0
C5724 C 0.10626 0.41877 0.20722 0.0
H5725 H 0.12395 0.40834 0.32278 0.0
H5726 H 0.12574 0.40925 0.29232 0.0
C5727 C 0.10697 0.41983 0.18985 0.0
C5728 C 0.10116 0.40258 0.23345 0.0
H5729 H 0.08136 0.41835 0.26688 0.0
C5730 C 0.11195 0.39233 0.24224 0.0
C5731 C 0.08983 0.41188 0.2425 0.0
C5732 C 0.07734 0.4225 0.23381 0.0
C5733 C 0.11191 0.39135 0.25977 0.0
C5734 C 0.10091 0.40103 0.26885 0.0
C5735 C 0.08994 0.41106 0.26001 0.0
C5736 C 0.10008 0.4005 0.28744 0.0
C5737 C 0.12342 0.37969 0.26841 0.0
C5738 C 0.08501 0.39567 0.29495 0.0
C5739 C 0.08393 0.39525 0.31232 0.0
C5740 C 0.09788 0.39976 0.32272 0.0
C5741 C 0.11297 0.40474 0.3152 0.0
C5742 C 0.11404 0.40515 0.29775 0.0
H5743 H 0.12791 0.37021 0.25967 0.0
H5744 H 0.13448 0.38698 0.27364 0.0
H5745 H 0.11709 0.37318 0.27881 0.0
H5746 H 0.07405 0.39207 0.28734 0.0
H5747 H 0.0721 0.3913 0.31759 0.0
H5748 H 0.09672 0.61895 0.68213 0.0
H5749 H 0.10008 0.61877 0.71235 0.0
H5750 H 0.15271 0.63123 0.70834 0.0
H5751 H 0.14953 0.63109 0.67783 0.0
H5752 H 0.14712 0.60808 0.73205 0.0
H5753 H 0.10502 0.65935 0.74208 0.0
H5754 H 0.09483 0.64254 0.73029 0.0
H5755 H 0.11237 0.65412 0.72175 0.0
C5756 C 0.10907 0.6216 0.68759 0.0
C5757 C 0.12284 0.62516 0.67742 0.0
C5758 C 0.11093 0.62164 0.70496 0.0
C5759 C 0.12655 0.62548 0.71275 0.0
C5760 C 0.14047 0.62843 0.70268 0.0
H5761 H 0.13485 0.64652 0.82099 0.0
H5762 H 0.13481 0.6494 0.79056 0.0
C5763 C 0.13865 0.62828 0.6852 0.0
C5764 C 0.12822 0.62615 0.73136 0.0
H5765 H 0.11153 0.64306 0.76608 0.0
C5766 C 0.13944 0.61585 0.73946 0.0
C5767 C 0.1185 0.63655 0.74116 0.0
C5768 C 0.10714 0.6489 0.73337 0.0
C5769 C 0.14068 0.61512 0.75698 0.0
C5770 C 0.13012 0.62466 0.76676 0.0
C5771 C 0.11943 0.63551 0.75867 0.0
C5772 C 0.12965 0.62315 0.78531 0.0
C5773 C 0.15341 0.60417 0.7648 0.0
C5774 C 0.12622 0.60757 0.79259 0.0
C5775 C 0.12628 0.60588 0.80992 0.0
C5776 C 0.12954 0.61979 0.82054 0.0
C5777 C 0.13229 0.63554 0.81326 0.0
C5778 C 0.13233 0.63719 0.79583 0.0
H5779 H 0.16387 0.60224 0.75631 0.0
H5780 H 0.15863 0.60961 0.7767 0.0
H5781 H 0.14736 0.59178 0.7674 0.0
H5782 H 0.12355 0.59661 0.78485 0.0
H5783 H 0.12391 0.59356 0.81498 0.0
H5784 H 0.8788 0.59302 0.19682 0.0
H5785 H 0.88144 0.59653 0.22686 0.0
H5786 H 0.89443 0.64882 0.22089 0.0
H5787 H 0.89135 0.64551 0.1905 0.0
H5788 H 0.90726 0.60539 0.24648 0.0
H5789 H 0.85854 0.65101 0.25495 0.0
H5790 H 0.86093 0.64005 0.23552 0.0
H5791 H 0.87451 0.65788 0.24097 0.0
C5792 C 0.88222 0.60534 0.20177 0.0
C5793 C 0.88482 0.619 0.19106 0.0
C5794 C 0.88371 0.60731 0.21907 0.0
C5795 C 0.88788 0.62298 0.22632 0.0
C5796 C 0.89079 0.63665 0.21571 0.0
H5797 H 0.92584 0.63588 0.32832 0.0
H5798 H 0.92181 0.63342 0.29829 0.0
C5799 C 0.88918 0.63471 0.19829 0.0
C5800 C 0.88957 0.62463 0.24491 0.0
H5801 H 0.87526 0.64511 0.27886 0.0
C5802 C 0.90023 0.61409 0.25352 0.0
C5803 C 0.8802 0.63573 0.25427 0.0
C5804 C 0.86777 0.6467 0.246 0.0
C5805 C 0.90192 0.61444 0.27101 0.0
C5806 C 0.89303 0.62596 0.28034 0.0
C5807 C 0.88218 0.63635 0.27179 0.0
C5808 C 0.8952 0.62764 0.29887 0.0
C5809 C 0.91299 0.60216 0.27935 0.0
C5810 C 0.88151 0.62569 0.30943 0.0
C5811 C 0.88374 0.62724 0.32684 0.0
C5812 C 0.89973 0.63084 0.33407 0.0
C5813 C 0.91334 0.6329 0.32338 0.0
C5814 C 0.91109 0.63143 0.30608 0.0
H5815 H 0.91457 0.59108 0.27127 0.0
H5816 H 0.92554 0.60824 0.28185 0.0
H5817 H 0.90785 0.59786 0.29137 0.0
H5818 H 0.86909 0.62287 0.3042 0.0
H5819 H 0.87294 0.6257 0.33459 0.0
H5820 H 0.90599 0.42028 0.83731 0.0
H5821 H 0.90624 0.41785 0.80705 0.0
H5822 H 0.88617 0.36719 0.80978 0.0
H5823 H 0.88633 0.36937 0.84031 0.0
H5824 H 0.90933 0.36989 0.78634 0.0
H5825 H 0.86584 0.42034 0.77693 0.0
H5826 H 0.88407 0.42743 0.78886 0.0
H5827 H 0.86997 0.41161 0.79715 0.0
C5828 C 0.90172 0.40854 0.83154 0.0
C5829 C 0.89601 0.39506 0.84133 0.0
C5830 C 0.90172 0.40723 0.81415 0.0
C5831 C 0.89572 0.39252 0.80598 0.0
C5832 C 0.89068 0.37876 0.81572 0.0
H5833 H 0.87129 0.3927 0.69828 0.0
H5834 H 0.86961 0.39145 0.72872 0.0
C5835 C 0.89083 0.38 0.83321 0.0
C5836 C 0.89475 0.39162 0.78734 0.0
H5837 H 0.88048 0.41196 0.75291 0.0
C5838 C 0.90291 0.37902 0.77905 0.0
C5839 C 0.88605 0.40326 0.77768 0.0
C5840 C 0.87583 0.4163 0.78561 0.0
C5841 C 0.90313 0.37813 0.76151 0.0
C5842 C 0.89536 0.39044 0.75188 0.0
C5843 C 0.88668 0.40266 0.76017 0.0
C5844 C 0.89632 0.39106 0.73328 0.0
C5845 C 0.91151 0.36381 0.75353 0.0
C5846 C 0.91186 0.39159 0.72557 0.0
C5847 C 0.91283 0.39217 0.70819 0.0
C5848 C 0.8983 0.39255 0.698 0.0
C5849 C 0.88274 0.39244 0.70571 0.0
C5850 C 0.88177 0.3917 0.72315 0.0
H5851 H 0.91167 0.35287 0.76189 0.0
H5852 H 0.90515 0.3599 0.74158 0.0
H5853 H 0.92466 0.36771 0.75101 0.0
H5854 H 0.92332 0.39167 0.733 0.0
H5855 H 0.92505 0.39238 0.70275 0.0
H5856 H 0.69265 0.85168 0.64167 0.0
H5857 H 0.72299 0.84882 0.64185 0.0
H5858 H 0.73045 0.90202 0.63616 0.0
H5859 H 0.70037 0.90495 0.63735 0.0
H5860 H 0.74616 0.85318 0.6222 0.0
H5861 H 0.76219 0.89784 0.67318 0.0
H5862 H 0.74086 0.89153 0.6678 0.0
H5863 H 0.75151 0.90826 0.65678 0.0
C5864 C 0.70083 0.86273 0.64053 0.0
C5865 C 0.69418 0.87855 0.6397 0.0
C5866 C 0.7182 0.86112 0.64064 0.0
C5867 C 0.72927 0.87526 0.63958 0.0
C5868 C 0.72244 0.89096 0.63783 0.0
H5869 H 0.83143 0.86835 0.60705 0.0
H5870 H 0.80134 0.87019 0.60945 0.0
C5871 C 0.70516 0.89261 0.63827 0.0
C5872 C 0.74784 0.8736 0.63983 0.0
H5873 H 0.78477 0.89116 0.65561 0.0
C5874 C 0.75454 0.86139 0.62969 0.0
C5875 C 0.75902 0.8839 0.6499 0.0
C5876 C 0.75298 0.89595 0.66266 0.0
C5877 C 0.77187 0.85952 0.62898 0.0
C5878 C 0.78308 0.87081 0.63791 0.0
C5879 C 0.77638 0.88268 0.64843 0.0
C5880 C 0.8017 0.8706 0.63645 0.0
C5881 C 0.77782 0.84507 0.61899 0.0
C5882 C 0.81236 0.87145 0.65073 0.0
C5883 C 0.82977 0.87118 0.6493 0.0
C5884 C 0.83686 0.86969 0.63359 0.0
C5885 C 0.82629 0.8692 0.61934 0.0
C5886 C 0.809 0.87002 0.62074 0.0
H5887 H 0.76832 0.83452 0.61853 0.0
H5888 H 0.77984 0.84907 0.60597 0.0
H5889 H 0.78964 0.84049 0.62427 0.0
H5890 H 0.80721 0.87207 0.66304 0.0
H5891 H 0.83764 0.87159 0.66049 0.0
H5892 H 0.61951 0.18472 0.15153 0.0
H5893 H 0.62084 0.21503 0.14927 0.0
H5894 H 0.61187 0.21057 0.09617 0.0
H5895 H 0.61152 0.1801 0.0983 0.0
H5896 H 0.63272 0.23506 0.1014 0.0
H5897 H 0.58261 0.24365 0.14586 0.0
H5898 H 0.59947 0.23345 0.1558 0.0
H5899 H 0.58783 0.2233 0.13871 0.0
C5900 C 0.61797 0.1902 0.13933 0.0
C5901 C 0.61534 0.17998 0.1251 0.0
C5902 C 0.6185 0.20759 0.13808 0.0
C5903 C 0.61582 0.21527 0.12263 0.0
C5904 C 0.61379 0.20506 0.10829 0.0
H5905 H 0.59429 0.32207 0.11891 0.0
H5906 H 0.59168 0.29144 0.11934 0.0
C5907 C 0.61366 0.18762 0.10949 0.0
C5908 C 0.61542 0.23389 0.12146 0.0
H5909 H 0.59943 0.26821 0.13946 0.0
C5910 C 0.6253 0.24225 0.10964 0.0
C5911 C 0.60542 0.24346 0.13183 0.0
C5912 C 0.5931 0.23547 0.14361 0.0
C5913 C 0.62589 0.25973 0.10829 0.0
C5914 C 0.61693 0.26937 0.11958 0.0
C5915 C 0.6066 0.261 0.131 0.0
C5916 C 0.61834 0.28807 0.11989 0.0
C5917 C 0.63584 0.26757 0.09445 0.0
C5918 C 0.6341 0.29655 0.12064 0.0
C5919 C 0.63557 0.31395 0.12004 0.0
C5920 C 0.62131 0.32345 0.11925 0.0
C5921 C 0.60549 0.3151 0.1195 0.0
C5922 C 0.60402 0.29757 0.1197 0.0
H5923 H 0.63656 0.25884 0.08372 0.0
H5924 H 0.63033 0.27915 0.08993 0.0
H5925 H 0.64881 0.27063 0.09907 0.0
H5926 H 0.64536 0.28971 0.12156 0.0
H5927 H 0.64795 0.32001 0.12017 0.0
H5928 H 0.1861 0.1626 0.61217 0.0
H5929 H 0.21639 0.16123 0.6136 0.0
H5930 H 0.21204 0.12196 0.6497 0.0
H5931 H 0.18152 0.12343 0.64857 0.0
H5932 H 0.23674 0.14601 0.65843 0.0
H5933 H 0.24405 0.1261 0.59288 0.0
H5934 H 0.23298 0.14483 0.5949 0.0
H5935 H 0.22404 0.12553 0.60267 0.0
C5936 C 0.19151 0.15362 0.62044 0.0
C5937 C 0.18128 0.14308 0.63024 0.0
C5938 C 0.2089 0.15278 0.62113 0.0
C5939 C 0.21657 0.14127 0.6315 0.0
C5940 C 0.20644 0.13087 0.6415 0.0
H5941 H 0.31787 0.11429 0.6539 0.0
H5942 H 0.28783 0.11723 0.65216 0.0
C5943 C 0.18897 0.13172 0.64084 0.0
C5944 C 0.23514 0.14041 0.63216 0.0
H5945 H 0.26898 0.13412 0.60818 0.0
C5946 C 0.24376 0.14333 0.64745 0.0
C5947 C 0.2444 0.13702 0.61782 0.0
C5948 C 0.23591 0.13304 0.60117 0.0
C5949 C 0.26129 0.14314 0.64876 0.0
C5950 C 0.27053 0.13968 0.63444 0.0
C5951 C 0.26194 0.13687 0.61913 0.0
C5952 C 0.289 0.13809 0.63532 0.0
C5953 C 0.26981 0.1469 0.66544 0.0
C5954 C 0.29979 0.14857 0.62607 0.0
C5955 C 0.31717 0.1469 0.62699 0.0
C5956 C 0.32405 0.13461 0.63709 0.0
C5957 C 0.31312 0.12402 0.6461 0.0
C5958 C 0.29586 0.12572 0.6452 0.0
H5959 H 0.26172 0.15382 0.6738 0.0
H5960 H 0.27266 0.13502 0.67158 0.0
H5961 H 0.28173 0.15433 0.66398 0.0
H5962 H 0.29478 0.15812 0.61823 0.0
H5963 H 0.32518 0.1552 0.61982 0.0
H5964 H 0.38501 0.82406 0.14859 0.0
H5965 H 0.38395 0.79382 0.14519 0.0
H5966 H 0.39138 0.79935 0.09247 0.0
H5967 H 0.39157 0.8298 0.09576 0.0
H5968 H 0.37075 0.77422 0.0968 0.0
H5969 H 0.42327 0.76652 0.14132 0.0
H5970 H 0.40663 0.77634 0.15135 0.0
H5971 H 0.41728 0.78675 0.13456 0.0
C5972 C 0.38623 0.81883 0.13623 0.0
C5973 C 0.38845 0.82933 0.12245 0.0
C5974 C 0.38586 0.8015 0.13432 0.0
C5975 C 0.38824 0.79416 0.11868 0.0
C5976 C 0.38973 0.80463 0.10474 0.0
H5977 H 0.41162 0.68807 0.11117 0.0
H5978 H 0.41376 0.7187 0.11298 0.0
C5979 C 0.38974 0.82204 0.10659 0.0
C5980 C 0.38904 0.77563 0.11694 0.0
H5981 H 0.40668 0.74163 0.13418 0.0
C5982 C 0.37873 0.76715 0.1049 0.0
C5983 C 0.39978 0.76625 0.12713 0.0
C5984 C 0.41249 0.77447 0.13916 0.0
C5985 C 0.37839 0.74968 0.10318 0.0
C5986 C 0.38813 0.74021 0.11428 0.0
C5987 C 0.39892 0.74873 0.12589 0.0
C5988 C 0.38709 0.72153 0.11416 0.0
C5989 C 0.36781 0.74165 0.0892 0.0
C5990 C 0.37152 0.71278 0.11492 0.0
C5991 C 0.3703 0.6954 0.11362 0.0
C5992 C 0.38465 0.68621 0.11207 0.0
C5993 C 0.40036 0.69481 0.11242 0.0
C5994 C 0.40156 0.71232 0.11337 0.0
H5995 H 0.36622 0.75039 0.07869 0.0
H5996 H 0.37336 0.73025 0.08437 0.0
H5997 H 0.3552 0.73822 0.09383 0.0
H5998 H 0.36021 0.71941 0.11626 0.0
H5999 H 0.35802 0.68912 0.1136 0.0
H6000 H 0.67427 0.11438 0.41777 0.0
H6001 H 0.70484 0.11523 0.42058 0.0
H6002 H 0.70845 0.12311 0.36767 0.0
H6003 H 0.67804 0.12128 0.36477 0.0
H6004 H 0.72867 0.10107 0.37579 0.0
H6005 H 0.7391 0.1521 0.42214 0.0
H6006 H 0.72597 0.13537 0.42988 0.0
H6007 H 0.71894 0.1473 0.41236 0.0
C6008 C 0.68164 0.11662 0.40683 0.0
C6009 C 0.67377 0.11787 0.39108 0.0
C6010 C 0.69915 0.11715 0.40842 0.0
C6011 C 0.70916 0.11947 0.39437 0.0
C6012 C 0.70117 0.12125 0.37873 0.0
H6013 H 0.81494 0.14765 0.39823 0.0
H6014 H 0.78454 0.14596 0.39581 0.0
C6015 C 0.68375 0.12032 0.37709 0.0
C6016 C 0.72784 0.11923 0.39561 0.0
H6017 H 0.76252 0.13628 0.41625 0.0
C6018 C 0.73605 0.10888 0.38459 0.0
C6019 C 0.73764 0.12946 0.40696 0.0
C6020 C 0.72998 0.1418 0.41837 0.0
C6021 C 0.75359 0.10859 0.38445 0.0
C6022 C 0.76337 0.11841 0.39616 0.0
C6023 C 0.75515 0.12863 0.40731 0.0
C6024 C 0.78209 0.11902 0.39664 0.0
C6025 C 0.76138 0.09823 0.37126 0.0
C6026 C 0.79114 0.10445 0.39768 0.0
C6027 C 0.8087 0.10539 0.3986 0.0
C6028 C 0.81754 0.12094 0.39903 0.0
C6029 C 0.8085 0.13546 0.39797 0.0
C6030 C 0.79106 0.13451 0.39666 0.0
H6031 H 0.75272 0.09584 0.36038 0.0
H6032 H 0.77309 0.10442 0.36679 0.0
H6033 H 0.76432 0.08599 0.37656 0.0
H6034 H 0.78465 0.09233 0.39818 0.0
H6035 H 0.8153 0.094 0.39965 0.0
H6036 H 0.34943 0.32741 0.89344 0.0
H6037 H 0.3525 0.29744 0.89157 0.0
H6038 H 0.38884 0.30504 0.85342 0.0
H6039 H 0.38601 0.33528 0.85538 0.0
H6040 H 0.34664 0.27571 0.86544 0.0
H6041 H 0.41323 0.27563 0.88598 0.0
H6042 H 0.40094 0.29368 0.88824 0.0
H6043 H 0.40931 0.28864 0.86838 0.0
C6044 C 0.35811 0.3228 0.88462 0.0
C6045 C 0.36749 0.33387 0.87457 0.0
C6046 C 0.35984 0.30557 0.88357 0.0
C6047 C 0.37106 0.29888 0.87252 0.0
C6048 C 0.38034 0.30986 0.8623 0.0
H6049 H 0.3977 0.19778 0.84931 0.0
H6050 H 0.39462 0.2278 0.85074 0.0
C6051 C 0.37863 0.32717 0.86335 0.0
C6052 C 0.37273 0.28042 0.87165 0.0
H6053 H 0.40056 0.24983 0.8767 0.0
C6054 C 0.35843 0.27006 0.86795 0.0
C6055 C 0.38809 0.27296 0.87496 0.0
C6056 C 0.40375 0.28326 0.87977 0.0
C6057 C 0.35911 0.25258 0.86718 0.0
C6058 C 0.37446 0.24512 0.87051 0.0
C6059 C 0.38877 0.25548 0.87418 0.0
C6060 C 0.37608 0.22665 0.86981 0.0
C6061 C 0.34344 0.24228 0.8624 0.0
C6062 C 0.36681 0.21583 0.88019 0.0
C6063 C 0.36851 0.1985 0.87938 0.0
C6064 C 0.37958 0.19163 0.86822 0.0
C6065 C 0.38896 0.20254 0.858 0.0
C6066 C 0.38726 0.21979 0.85882 0.0
H6067 H 0.33399 0.24989 0.85611 0.0
H6068 H 0.34625 0.2318 0.85399 0.0
H6069 H 0.33785 0.23698 0.8738 0.0
H6070 H 0.35836 0.22078 0.88904 0.0
H6071 H 0.36118 0.19052 0.88752 0.0
H6072 H 0.19386 0.92562 0.39756 0.0
H6073 H 0.22442 0.92817 0.39598 0.0
H6074 H 0.22572 0.87475 0.39065 0.0
H6075 H 0.1955 0.87219 0.39339 0.0
H6076 H 0.24878 0.88377 0.41084 0.0
H6077 H 0.25434 0.92748 0.35822 0.0
H6078 H 0.24364 0.93628 0.37521 0.0
H6079 H 0.2345 0.91826 0.36422 0.0
C6080 C 0.20072 0.91449 0.39586 0.0
C6081 C 0.1923 0.89872 0.39556 0.0
C6082 C 0.21822 0.91593 0.39485 0.0
C6083 C 0.22758 0.90167 0.39291 0.0
C6084 C 0.21898 0.88598 0.39221 0.0
H6085 H 0.33007 0.90367 0.36017 0.0
H6086 H 0.29981 0.90191 0.36299 0.0
C6087 C 0.20164 0.88452 0.39369 0.0
C6088 C 0.2463 0.90278 0.39229 0.0
H6089 H 0.27945 0.92218 0.37314 0.0
C6090 C 0.25544 0.89212 0.40248 0.0
C6091 C 0.25519 0.9135 0.38131 0.0
C6092 C 0.2464 0.92439 0.36901 0.0
C6093 C 0.27295 0.89168 0.40187 0.0
C6094 C 0.28188 0.90285 0.39136 0.0
C6095 C 0.27277 0.91367 0.38132 0.0
C6096 C 0.30053 0.90312 0.38997 0.0
C6097 C 0.28149 0.8787 0.41202 0.0
C6098 C 0.31131 0.90424 0.40414 0.0
C6099 C 0.32873 0.90469 0.40253 0.0
C6100 C 0.33577 0.90466 0.38669 0.0
C6101 C 0.32503 0.90372 0.37255 0.0
C6102 C 0.30768 0.9028 0.37417 0.0
H6103 H 0.27277 0.86796 0.41479 0.0
H6104 H 0.29232 0.87393 0.40547 0.0
H6105 H 0.28598 0.8843 0.4241 0.0
H6106 H 0.3063 0.9051 0.41647 0.0
H6107 H 0.33669 0.90571 0.41364 0.0
H6108 H 0.66777 0.68432 0.9019 0.0
H6109 H 0.66557 0.71437 0.89972 0.0
H6110 H 0.62935 0.70697 0.85938 0.0
H6111 H 0.6313 0.67666 0.86164 0.0
H6112 H 0.67231 0.73533 0.87391 0.0
H6113 H 0.60568 0.73794 0.8901 0.0
H6114 H 0.61733 0.71954 0.89324 0.0
H6115 H 0.60929 0.72437 0.87283 0.0
C6116 C 0.65928 0.689 0.89255 0.0
C6117 C 0.64968 0.67797 0.88196 0.0
C6118 C 0.65806 0.70627 0.89132 0.0
C6119 C 0.64714 0.71304 0.87955 0.0
C6120 C 0.63762 0.7021 0.86882 0.0
H6121 H 0.62388 0.81407 0.85292 0.0
H6122 H 0.62612 0.78403 0.85514 0.0
C6123 C 0.63882 0.68474 0.87005 0.0
C6124 C 0.64606 0.73155 0.87843 0.0
H6125 H 0.61915 0.76312 0.88119 0.0
C6126 C 0.66068 0.7414 0.87556 0.0
C6127 C 0.63093 0.73956 0.88062 0.0
C6128 C 0.61493 0.72986 0.88452 0.0
C6129 C 0.66053 0.75889 0.87451 0.0
C6130 C 0.6454 0.7669 0.87668 0.0
C6131 C 0.63078 0.75705 0.87955 0.0
C6132 C 0.64432 0.78539 0.87552 0.0
C6133 C 0.67653 0.76861 0.87065 0.0
C6134 C 0.65369 0.79635 0.88636 0.0
C6135 C 0.65246 0.8137 0.88511 0.0
C6136 C 0.64179 0.82046 0.87302 0.0
C6137 C 0.63232 0.80941 0.86233 0.0
C6138 C 0.63354 0.79215 0.8636 0.0
H6139 H 0.68586 0.76052 0.86521 0.0
H6140 H 0.67415 0.77885 0.86184 0.0
H6141 H 0.68207 0.77421 0.88234 0.0
H6142 H 0.66184 0.79149 0.89591 0.0
H6143 H 0.65984 0.82179 0.89363 0.0
H6144 H 0.90064 0.64968 0.8344 0.0
H6145 H 0.90216 0.65182 0.80392 0.0
H6146 H 0.86342 0.6129 0.7981 0.0
H6147 H 0.86171 0.61077 0.82825 0.0
H6148 H 0.90926 0.62726 0.78018 0.0
H6149 H 0.84571 0.64941 0.76847 0.0
H6150 H 0.85556 0.64975 0.78895 0.0
H6151 H 0.84604 0.63067 0.78046 0.0
C6152 C 0.89238 0.64166 0.82662 0.0
C6153 C 0.88095 0.63016 0.83386 0.0
C6154 C 0.89328 0.64287 0.80919 0.0
C6155 C 0.88269 0.63273 0.79864 0.0
C6156 C 0.87145 0.62114 0.80588 0.0
H6157 H 0.86858 0.61875 0.69051 0.0
H6158 H 0.8669 0.61682 0.72098 0.0
C6159 C 0.87056 0.6199 0.82321 0.0
C6160 C 0.8836 0.63385 0.7801 0.0
H6161 H 0.8603 0.64088 0.74473 0.0
C6162 C 0.89859 0.63036 0.77245 0.0
C6163 C 0.86964 0.63775 0.76992 0.0
C6164 C 0.85337 0.64226 0.77734 0.0
C6165 C 0.89992 0.63035 0.75498 0.0
C6166 C 0.88597 0.63429 0.7448 0.0
C6167 C 0.87098 0.63778 0.75246 0.0
C6168 C 0.88688 0.63539 0.72624 0.0
C6169 C 0.91617 0.62572 0.74759 0.0
C6170 C 0.89843 0.64665 0.71898 0.0
C6171 C 0.89941 0.64777 0.70165 0.0
C6172 C 0.88876 0.63775 0.69102 0.0
C6173 C 0.87699 0.62663 0.69828 0.0
C6174 C 0.87602 0.62552 0.71571 0.0
H6175 H 0.92365 0.61834 0.75642 0.0
H6176 H 0.91397 0.6184 0.73588 0.0
H6177 H 0.92368 0.63725 0.7447 0.0
H6178 H 0.90667 0.65471 0.72674 0.0
H6179 H 0.90861 0.65654 0.6966 0.0
H6180 H 0.88604 0.40766 0.34035 0.0
H6181 H 0.88499 0.40887 0.30979 0.0
H6182 H 0.88764 0.35541 0.30715 0.0
H6183 H 0.88971 0.35434 0.33746 0.0
H6184 H 0.9072 0.36765 0.28583 0.0
H6185 H 0.84819 0.3997 0.27716 0.0
H6186 H 0.86337 0.41195 0.28935 0.0
H6187 H 0.85507 0.39237 0.2972 0.0
C6188 C 0.8862 0.39618 0.33319 0.0
C6189 C 0.88793 0.38092 0.34131 0.0
C6190 C 0.88551 0.39685 0.31568 0.0
C6191 C 0.88597 0.38219 0.30595 0.0
C6192 C 0.88732 0.36693 0.31419 0.0
H6193 H 0.85558 0.37443 0.20148 0.0
H6194 H 0.8582 0.37357 0.2318 0.0
C6195 C 0.88843 0.36632 0.33159 0.0
C6196 C 0.88568 0.38256 0.28725 0.0
H6197 H 0.86435 0.39653 0.25311 0.0
C6198 C 0.89774 0.37391 0.27871 0.0
C6199 C 0.87329 0.39053 0.27777 0.0
C6200 C 0.85916 0.399 0.28583 0.0
C6201 C 0.89766 0.37283 0.26118 0.0
C6202 C 0.88562 0.38129 0.2517 0.0
C6203 C 0.87368 0.3901 0.26023 0.0
C6204 C 0.88462 0.38066 0.233 0.0
C6205 C 0.91011 0.36205 0.25314 0.0
C6206 C 0.89863 0.38463 0.22327 0.0
C6207 C 0.89724 0.3846 0.20577 0.0
C6208 C 0.88169 0.38114 0.19765 0.0
C6209 C 0.86775 0.37712 0.20736 0.0
C6210 C 0.86922 0.37674 0.22475 0.0
H6211 H 0.91453 0.35244 0.26185 0.0
H6212 H 0.90468 0.35565 0.24179 0.0
H6213 H 0.92117 0.36995 0.24959 0.0
H6214 H 0.91057 0.38822 0.22917 0.0
H6215 H 0.90813 0.38806 0.19864 0.0
H6216 H 0.08937 0.39645 0.82216 0.0
H6217 H 0.08683 0.39454 0.7917 0.0
H6218 H 0.14047 0.39386 0.78891 0.0
H6219 H 0.14299 0.39703 0.81917 0.0
H6220 H 0.1311 0.41267 0.76648 0.0
H6221 H 0.088 0.35698 0.76073 0.0
H6222 H 0.07878 0.37321 0.77217 0.0
H6223 H 0.09716 0.36382 0.78049 0.0
C6224 C 0.10057 0.39566 0.81501 0.0
C6225 C 0.11637 0.39678 0.82305 0.0
C6226 C 0.09913 0.39446 0.79755 0.0
C6227 C 0.11343 0.3937 0.78777 0.0
C6228 C 0.12919 0.39444 0.79597 0.0
H6229 H 0.10802 0.36175 0.68368 0.0
H6230 H 0.1112 0.36418 0.71394 0.0
C6231 C 0.13064 0.39616 0.81332 0.0
C6232 C 0.11222 0.39287 0.76906 0.0
H6233 H 0.09211 0.37269 0.73603 0.0
C6234 C 0.12265 0.40378 0.75987 0.0
C6235 C 0.1014 0.3812 0.7602 0.0
C6236 C 0.09086 0.36804 0.76892 0.0
C6237 C 0.12268 0.40332 0.74232 0.0
C6238 C 0.11129 0.39221 0.73345 0.0
C6239 C 0.10079 0.38136 0.74264 0.0
C6240 C 0.11037 0.39109 0.71474 0.0
C6241 C 0.13545 0.41435 0.73362 0.0
C6242 C 0.10903 0.40536 0.70478 0.0
C6243 C 0.10782 0.40399 0.68731 0.0
C6244 C 0.10726 0.38828 0.67946 0.0
C6245 C 0.10844 0.37404 0.68938 0.0
C6246 C 0.11016 0.37543 0.70674 0.0
H6247 H 0.14649 0.41754 0.7419 0.0
H6248 H 0.13983 0.40829 0.72217 0.0
H6249 H 0.1298 0.42619 0.73015 0.0
H6250 H 0.10854 0.41756 0.71047 0.0
H6251 H 0.10662 0.41516 0.68 0.0
H6252 H 0.14075 0.6626 0.31688 0.0
H6253 H 0.14222 0.66031 0.28662 0.0
H6254 H 0.1271 0.60811 0.28905 0.0
H6255 H 0.12665 0.61021 0.31961 0.0
H6256 H 0.14827 0.61181 0.26584 0.0
H6257 H 0.10329 0.66061 0.25578 0.0
H6258 H 0.12118 0.66895 0.26743 0.0
H6259 H 0.10793 0.65264 0.2762 0.0
C6260 C 0.13797 0.65057 0.31096 0.0
C6261 C 0.13354 0.63659 0.32058 0.0
C6262 C 0.13857 0.64932 0.29361 0.0
C6263 C 0.13411 0.6342 0.28534 0.0
C6264 C 0.1304 0.62 0.29502 0.0
H6265 H 0.1109 0.63551 0.17734 0.0
H6266 H 0.10889 0.63481 0.2078 0.0
C6267 C 0.13022 0.62116 0.3125 0.0
C6268 C 0.13335 0.63331 0.26667 0.0
H6269 H 0.11912 0.65338 0.23207 0.0
C6270 C 0.14175 0.62082 0.25849 0.0
C6271 C 0.12444 0.64471 0.25687 0.0
C6272 C 0.11355 0.65733 0.26454 0.0
C6273 C 0.14201 0.61978 0.24097 0.0
C6274 C 0.13428 0.63204 0.23122 0.0
C6275 C 0.12537 0.64416 0.23939 0.0
C6276 C 0.13542 0.63264 0.21261 0.0
C6277 C 0.15027 0.60526 0.23321 0.0
C6278 C 0.15097 0.63213 0.20501 0.0
C6279 C 0.15205 0.63216 0.18765 0.0
C6280 C 0.13769 0.63333 0.17738 0.0
C6281 C 0.12219 0.63466 0.18492 0.0
C6282 C 0.12106 0.63421 0.20235 0.0
H6283 H 0.14986 0.59429 0.24155 0.0
H6284 H 0.14421 0.6015 0.22107 0.0
H6285 H 0.16361 0.6088 0.23119 0.0
H6286 H 0.16235 0.63166 0.2125 0.0
H6287 H 0.16422 0.63134 0.18225 0.0
loop_
_geom_bond_atom_site_label_1
_geom_bond_atom_site_label_2
_geom_bond_distance
_geom_bond_site_symmetry_2
_ccdc_geom_bond_type
Co0 O2 2.143 . S
Co0 O8 2.074 . S
Co0 O11 2.093 . S
Co0 O24 2.097 . S
Co0 N41 2.151 . S
Co0 N49 2.214 . S
Co1 O2 2.160 . S
Co1 O7 2.058 . S
Co1 O17 2.057 . S
Co1 O32 2.037 . S
Co1 N36 2.145 . S
Co1 N57 2.257 . S
O2 Co0 2.143 . S
O2 Co1 2.160 . S
C3 O4 1.278 . S
C3 O11 1.224 . S
O4 C3 1.278 . S
C5 O6 1.245 . S
C5 O17 1.232 . S
O6 C5 1.245 . S
O7 Co1 2.058 . S
O7 C33 1.269 . S
O8 Co0 2.074 . S
O8 C33 1.257 . S
H9 C34 0.930 . S
H10 C40 0.930 . S
O11 Co0 2.093 . S
O11 C3 1.224 . S
H12 C44 0.929 . S
H13 C46 0.930 . S
H14 C47 0.930 . S
H15 C45 0.929 . S
H16 C48 0.928 . S
O17 Co1 2.057 . S
O17 C5 1.232 . S
H18 C37 0.929 . S
H19 C38 0.929 . S
H20 C50 0.931 . S
H21 C42 0.929 . S
H22 C51 0.930 . S
H23 C43 0.931 . S
O24 Co0 2.097 . S
O24 C52 1.214 . S
H25 C53 0.929 . S
H26 C54 0.929 . S
H27 C55 0.930 . S
H28 C56 0.929 . S
H29 C58 0.930 . S
H30 C35 0.930 . S
H31 C39 0.930 . S
O32 Co1 2.037 . S
O32 C52 1.234 . S
C33 O7 1.269 . S
C33 O8 1.257 . S
C34 H9 0.930 . S
C34 C37 1.388 . S
C34 C39 1.418 . S
C35 H30 0.930 . S
C35 C38 1.404 . S
C35 C39 1.353 . S
N36 Co1 2.145 . S
N36 C37 1.397 . S
N36 C38 1.334 . S
C37 H18 0.929 . S
C37 C34 1.388 . S
C37 N36 1.397 . S
C38 H19 0.929 . S
C38 C35 1.404 . S
C38 N36 1.334 . S
C39 H31 0.930 . S
C39 C34 1.418 . S
C39 C35 1.353 . S
C40 H10 0.930 . S
C40 N41 1.330 . S
C40 C42 1.446 . S
N41 Co0 2.151 . S
N41 C40 1.330 . S
N41 C45 1.418 . S
C42 H21 0.929 . S
C42 C40 1.446 . S
C42 C43 1.332 . S
C43 H23 0.931 . S
C43 C42 1.332 . S
C43 C44 1.267 . S
C44 H12 0.929 . S
C44 C43 1.267 . S
C44 C45 1.251 . S
C45 H15 0.929 . S
C45 N41 1.418 . S
C45 C44 1.251 . S
C46 H13 0.930 . S
C46 C48 1.406 . S
C46 C51 1.261 . S
C47 H14 0.930 . S
C47 N49 1.325 . S
C47 C50 1.357 . S
C48 H16 0.928 . S
C48 C46 1.406 . S
C48 N49 1.261 . S
N49 Co0 2.214 . S
N49 C47 1.325 . S
N49 C48 1.261 . S
C50 H20 0.931 . S
C50 C47 1.357 . S
C50 C51 1.312 . S
C51 H22 0.930 . S
C51 C46 1.261 . S
C51 C50 1.312 . S
C52 O24 1.214 . S
C52 O32 1.234 . S
C53 H25 0.929 . S
C53 C56 1.391 . S
C53 C58 1.391 . S
C54 H26 0.929 . S
C54 C55 1.390 . S
C54 N57 1.391 . S
C55 H27 0.930 . S
C55 C54 1.390 . S
C55 C56 1.392 . S
C56 H28 0.929 . S
C56 C53 1.391 . S
C56 C55 1.392 . S
N57 Co1 2.257 . S
N57 C54 1.391 . S
N57 C58 1.388 . S
C58 H29 0.930 . S
C58 C53 1.391 . S
C58 N57 1.388 . S
Co59 O61 2.143 . S
Co59 O67 2.074 . S
Co59 O70 2.093 . S
Co59 O83 2.097 . S
Co59 N100 2.151 . S
Co59 N108 2.214 . S
Co60 O61 2.160 . S
Co60 O66 2.058 . S
Co60 O76 2.057 . S
Co60 O91 2.037 . S
Co60 N95 2.145 . S
Co60 N116 2.257 . S
O61 Co59 2.143 . S
O61 Co60 2.160 . S
C62 O63 1.278 . S
C62 O70 1.224 . S
O63 C62 1.278 . S
C64 O65 1.245 . S
C64 O76 1.232 . S
O65 C64 1.245 . S
O66 Co60 2.058 . S
O66 C92 1.269 . S
O67 Co59 2.074 . S
O67 C92 1.257 . S
H68 C93 0.930 . S
H69 C99 0.930 . S
O70 Co59 2.093 . S
O70 C62 1.224 . S
H71 C103 0.929 . S
H72 C105 0.930 . S
H73 C106 0.930 . S
H74 C104 0.929 . S
H75 C107 0.928 . S
O76 Co60 2.057 . S
O76 C64 1.232 . S
H77 C96 0.929 . S
H78 C97 0.929 . S
H79 C109 0.931 . S
H80 C101 0.929 . S
H81 C110 0.930 . S
H82 C102 0.931 . S
O83 Co59 2.097 . S
O83 C111 1.214 . S
H84 C112 0.929 . S
H85 C113 0.929 . S
H86 C114 0.930 . S
H87 C115 0.929 . S
H88 C117 0.930 . S
H89 C94 0.930 . S
H90 C98 0.930 . S
O91 Co60 2.037 . S
O91 C111 1.234 . S
C92 O66 1.269 . S
C92 O67 1.257 . S
C93 H68 0.930 . S
C93 C96 1.388 . S
C93 C98 1.418 . S
C94 H89 0.930 . S
C94 C97 1.404 . S
C94 C98 1.353 . S
N95 Co60 2.145 . S
N95 C96 1.397 . S
N95 C97 1.334 . S
C96 H77 0.929 . S
C96 C93 1.388 . S
C96 N95 1.397 . S
C97 H78 0.929 . S
C97 C94 1.404 . S
C97 N95 1.334 . S
C98 H90 0.930 . S
C98 C93 1.418 . S
C98 C94 1.353 . S
C99 H69 0.930 . S
C99 N100 1.330 . S
C99 C101 1.446 . S
N100 Co59 2.151 . S
N100 C99 1.330 . S
N100 C104 1.418 . S
C101 H80 0.929 . S
C101 C99 1.446 . S
C101 C102 1.332 . S
C102 H82 0.931 . S
C102 C101 1.332 . S
C102 C103 1.267 . S
C103 H71 0.929 . S
C103 C102 1.267 . S
C103 C104 1.251 . S
C104 H74 0.929 . S
C104 N100 1.418 . S
C104 C103 1.251 . S
C105 H72 0.930 . S
C105 C107 1.406 . S
C105 C110 1.261 . S
C106 H73 0.930 . S
C106 N108 1.325 . S
C106 C109 1.357 . S
C107 H75 0.928 . S
C107 C105 1.406 . S
C107 N108 1.261 . S
N108 Co59 2.214 . S
N108 C106 1.325 . S
N108 C107 1.261 . S
C109 H79 0.931 . S
C109 C106 1.357 . S
C109 C110 1.312 . S
C110 H81 0.930 . S
C110 C105 1.261 . S
C110 C109 1.312 . S
C111 O83 1.214 . S
C111 O91 1.234 . S
C112 H84 0.929 . S
C112 C115 1.391 . S
C112 C117 1.391 . S
C113 H85 0.929 . S
C113 C114 1.390 . S
C113 N116 1.391 . S
C114 H86 0.930 . S
C114 C113 1.390 . S
C114 C115 1.392 . S
C115 H87 0.929 . S
C115 C112 1.391 . S
C115 C114 1.392 . S
N116 Co60 2.257 . S
N116 C113 1.391 . S
N116 C117 1.388 . S
C117 H88 0.930 . S
C117 C112 1.391 . S
C117 N116 1.388 . S
Co118 O120 2.143 . S
Co118 O126 2.074 . S
Co118 O129 2.093 . S
Co118 O142 2.097 . S
Co118 N159 2.151 . S
Co118 N167 2.214 . S
Co119 O120 2.160 . S
Co119 O125 2.058 . S
Co119 O135 2.057 . S
Co119 O150 2.037 . S
Co119 N154 2.145 . S
Co119 N175 2.257 . S
O120 Co118 2.143 . S
O120 Co119 2.160 . S
C121 O122 1.278 . S
C121 O129 1.224 . S
O122 C121 1.278 . S
C123 O124 1.245 . S
C123 O135 1.232 . S
O124 C123 1.245 . S
O125 Co119 2.058 . S
O125 C151 1.269 . S
O126 Co118 2.074 . S
O126 C151 1.257 . S
H127 C152 0.930 . S
H128 C158 0.930 . S
O129 Co118 2.093 . S
O129 C121 1.224 . S
H130 C162 0.929 . S
H131 C164 0.930 . S
H132 C165 0.930 . S
H133 C163 0.929 . S
H134 C166 0.928 . S
O135 Co119 2.057 . S
O135 C123 1.232 . S
H136 C155 0.929 . S
H137 C156 0.929 . S
H138 C168 0.931 . S
H139 C160 0.929 . S
H140 C169 0.930 . S
H141 C161 0.931 . S
O142 Co118 2.097 . S
O142 C170 1.214 . S
H143 C171 0.929 . S
H144 C172 0.929 . S
H145 C173 0.930 . S
H146 C174 0.929 . S
H147 C176 0.930 . S
H148 C153 0.930 . S
H149 C157 0.930 . S
O150 Co119 2.037 . S
O150 C170 1.234 . S
C151 O125 1.269 . S
C151 O126 1.257 . S
C152 H127 0.930 . S
C152 C155 1.388 . S
C152 C157 1.418 . S
C153 H148 0.930 . S
C153 C156 1.404 . S
C153 C157 1.353 . S
N154 Co119 2.145 . S
N154 C155 1.397 . S
N154 C156 1.334 . S
C155 H136 0.929 . S
C155 C152 1.388 . S
C155 N154 1.397 . S
C156 H137 0.929 . S
C156 C153 1.404 . S
C156 N154 1.334 . S
C157 H149 0.930 . S
C157 C152 1.418 . S
C157 C153 1.353 . S
C158 H128 0.930 . S
C158 N159 1.330 . S
C158 C160 1.446 . S
N159 Co118 2.151 . S
N159 C158 1.330 . S
N159 C163 1.418 . S
C160 H139 0.929 . S
C160 C158 1.446 . S
C160 C161 1.332 . S
C161 H141 0.931 . S
C161 C160 1.332 . S
C161 C162 1.267 . S
C162 H130 0.929 . S
C162 C161 1.267 . S
C162 C163 1.251 . S
C163 H133 0.929 . S
C163 N159 1.418 . S
C163 C162 1.251 . S
C164 H131 0.930 . S
C164 C166 1.406 . S
C164 C169 1.261 . S
C165 H132 0.930 . S
C165 N167 1.325 . S
C165 C168 1.357 . S
C166 H134 0.928 . S
C166 C164 1.406 . S
C166 N167 1.261 . S
N167 Co118 2.214 . S
N167 C165 1.325 . S
N167 C166 1.261 . S
C168 H138 0.931 . S
C168 C165 1.357 . S
C168 C169 1.312 . S
C169 H140 0.930 . S
C169 C164 1.261 . S
C169 C168 1.312 . S
C170 O142 1.214 . S
C170 O150 1.234 . S
C171 H143 0.929 . S
C171 C174 1.391 . S
C171 C176 1.391 . S
C172 H144 0.929 . S
C172 C173 1.390 . S
C172 N175 1.391 . S
C173 H145 0.930 . S
C173 C172 1.390 . S
C173 C174 1.392 . S
C174 H146 0.929 . S
C174 C171 1.391 . S
C174 C173 1.392 . S
N175 Co119 2.257 . S
N175 C172 1.391 . S
N175 C176 1.388 . S
C176 H147 0.930 . S
C176 C171 1.391 . S
C176 N175 1.388 . S
Co177 O179 2.143 . S
Co177 O185 2.074 . S
Co177 O188 2.093 . S
Co177 O201 2.097 . S
Co177 N218 2.151 . S
Co177 N226 2.214 . S
Co178 O179 2.160 . S
Co178 O184 2.058 . S
Co178 O194 2.057 . S
Co178 O209 2.037 . S
Co178 N213 2.145 . S
Co178 N234 2.257 . S
O179 Co177 2.143 . S
O179 Co178 2.160 . S
C180 O181 1.278 . S
C180 O188 1.224 . S
O181 C180 1.278 . S
C182 O183 1.245 . S
C182 O194 1.232 . S
O183 C182 1.245 . S
O184 Co178 2.058 . S
O184 C210 1.269 . S
O185 Co177 2.074 . S
O185 C210 1.257 . S
H186 C211 0.930 . S
H187 C217 0.930 . S
O188 Co177 2.093 . S
O188 C180 1.224 . S
H189 C221 0.929 . S
H190 C223 0.930 . S
H191 C224 0.930 . S
H192 C222 0.929 . S
H193 C225 0.928 . S
O194 Co178 2.057 . S
O194 C182 1.232 . S
H195 C214 0.929 . S
H196 C215 0.929 . S
H197 C227 0.931 . S
H198 C219 0.929 . S
H199 C228 0.930 . S
H200 C220 0.931 . S
O201 Co177 2.097 . S
O201 C229 1.214 . S
H202 C230 0.929 . S
H203 C231 0.929 . S
H204 C232 0.930 . S
H205 C233 0.929 . S
H206 C235 0.930 . S
H207 C212 0.930 . S
H208 C216 0.930 . S
O209 Co178 2.037 . S
O209 C229 1.234 . S
C210 O184 1.269 . S
C210 O185 1.257 . S
C211 H186 0.930 . S
C211 C214 1.388 . S
C211 C216 1.418 . S
C212 H207 0.930 . S
C212 C215 1.404 . S
C212 C216 1.353 . S
N213 Co178 2.145 . S
N213 C214 1.397 . S
N213 C215 1.334 . S
C214 H195 0.929 . S
C214 C211 1.388 . S
C214 N213 1.397 . S
C215 H196 0.929 . S
C215 C212 1.404 . S
C215 N213 1.334 . S
C216 H208 0.930 . S
C216 C211 1.418 . S
C216 C212 1.353 . S
C217 H187 0.930 . S
C217 N218 1.330 . S
C217 C219 1.446 . S
N218 Co177 2.151 . S
N218 C217 1.330 . S
N218 C222 1.418 . S
C219 H198 0.929 . S
C219 C217 1.446 . S
C219 C220 1.332 . S
C220 H200 0.931 . S
C220 C219 1.332 . S
C220 C221 1.267 . S
C221 H189 0.929 . S
C221 C220 1.267 . S
C221 C222 1.251 . S
C222 H192 0.929 . S
C222 N218 1.418 . S
C222 C221 1.251 . S
C223 H190 0.930 . S
C223 C225 1.406 . S
C223 C228 1.261 . S
C224 H191 0.930 . S
C224 N226 1.325 . S
C224 C227 1.357 . S
C225 H193 0.928 . S
C225 C223 1.406 . S
C225 N226 1.261 . S
N226 Co177 2.214 . S
N226 C224 1.325 . S
N226 C225 1.261 . S
C227 H197 0.931 . S
C227 C224 1.357 . S
C227 C228 1.312 . S
C228 H199 0.930 . S
C228 C223 1.261 . S
C228 C227 1.312 . S
C229 O201 1.214 . S
C229 O209 1.234 . S
C230 H202 0.929 . S
C230 C233 1.391 . S
C230 C235 1.391 . S
C231 H203 0.929 . S
C231 C232 1.390 . S
C231 N234 1.391 . S
C232 H204 0.930 . S
C232 C231 1.390 . S
C232 C233 1.392 . S
C233 H205 0.929 . S
C233 C230 1.391 . S
C233 C232 1.392 . S
N234 Co178 2.257 . S
N234 C231 1.391 . S
N234 C235 1.388 . S
C235 H206 0.930 . S
C235 C230 1.391 . S
C235 N234 1.388 . S
Co236 O238 2.143 . S
Co236 O244 2.074 . S
Co236 O247 2.093 . S
Co236 O260 2.097 . S
Co236 N277 2.151 . S
Co236 N285 2.214 . S
Co237 O238 2.160 . S
Co237 O243 2.058 . S
Co237 O253 2.057 . S
Co237 O268 2.037 . S
Co237 N272 2.145 . S
Co237 N293 2.257 . S
O238 Co236 2.143 . S
O238 Co237 2.160 . S
C239 O240 1.278 . S
C239 O247 1.224 . S
O240 C239 1.278 . S
C241 O242 1.245 . S
C241 O253 1.232 . S
O242 C241 1.245 . S
O243 Co237 2.058 . S
O243 C269 1.269 . S
O244 Co236 2.074 . S
O244 C269 1.257 . S
H245 C270 0.930 . S
H246 C276 0.930 . S
O247 Co236 2.093 . S
O247 C239 1.224 . S
H248 C280 0.929 . S
H249 C282 0.930 . S
H250 C283 0.930 . S
H251 C281 0.929 . S
H252 C284 0.928 . S
O253 Co237 2.057 . S
O253 C241 1.232 . S
H254 C273 0.929 . S
H255 C274 0.929 . S
H256 C286 0.931 . S
H257 C278 0.929 . S
H258 C287 0.930 . S
H259 C279 0.931 . S
O260 Co236 2.097 . S
O260 C288 1.214 . S
H261 C289 0.929 . S
H262 C290 0.929 . S
H263 C291 0.930 . S
H264 C292 0.929 . S
H265 C294 0.930 . S
H266 C271 0.930 . S
H267 C275 0.930 . S
O268 Co237 2.037 . S
O268 C288 1.234 . S
C269 O243 1.269 . S
C269 O244 1.257 . S
C270 H245 0.930 . S
C270 C273 1.388 . S
C270 C275 1.418 . S
C271 H266 0.930 . S
C271 C274 1.404 . S
C271 C275 1.353 . S
N272 Co237 2.145 . S
N272 C273 1.397 . S
N272 C274 1.334 . S
C273 H254 0.929 . S
C273 C270 1.388 . S
C273 N272 1.397 . S
C274 H255 0.929 . S
C274 C271 1.404 . S
C274 N272 1.334 . S
C275 H267 0.930 . S
C275 C270 1.418 . S
C275 C271 1.353 . S
C276 H246 0.930 . S
C276 N277 1.330 . S
C276 C278 1.446 . S
N277 Co236 2.151 . S
N277 C276 1.330 . S
N277 C281 1.418 . S
C278 H257 0.929 . S
C278 C276 1.446 . S
C278 C279 1.332 . S
C279 H259 0.931 . S
C279 C278 1.332 . S
C279 C280 1.267 . S
C280 H248 0.929 . S
C280 C279 1.267 . S
C280 C281 1.251 . S
C281 H251 0.929 . S
C281 N277 1.418 . S
C281 C280 1.251 . S
C282 H249 0.930 . S
C282 C284 1.406 . S
C282 C287 1.261 . S
C283 H250 0.930 . S
C283 N285 1.325 . S
C283 C286 1.357 . S
C284 H252 0.928 . S
C284 C282 1.406 . S
C284 N285 1.261 . S
N285 Co236 2.214 . S
N285 C283 1.325 . S
N285 C284 1.261 . S
C286 H256 0.931 . S
C286 C283 1.357 . S
C286 C287 1.312 . S
C287 H258 0.930 . S
C287 C282 1.261 . S
C287 C286 1.312 . S
C288 O260 1.214 . S
C288 O268 1.234 . S
C289 H261 0.929 . S
C289 C292 1.391 . S
C289 C294 1.391 . S
C290 H262 0.929 . S
C290 C291 1.390 . S
C290 N293 1.391 . S
C291 H263 0.930 . S
C291 C290 1.390 . S
C291 C292 1.392 . S
C292 H264 0.929 . S
C292 C289 1.391 . S
C292 C291 1.392 . S
N293 Co237 2.257 . S
N293 C290 1.391 . S
N293 C294 1.388 . S
C294 H265 0.930 . S
C294 C289 1.391 . S
C294 N293 1.388 . S
Co295 O297 2.143 . S
Co295 O303 2.074 . S
Co295 O306 2.093 . S
Co295 O319 2.097 . S
Co295 N336 2.151 . S
Co295 N344 2.214 . S
Co296 O297 2.160 . S
Co296 O302 2.058 . S
Co296 O312 2.057 . S
Co296 O327 2.037 . S
Co296 N331 2.145 . S
Co296 N352 2.257 . S
O297 Co295 2.143 . S
O297 Co296 2.160 . S
C298 O299 1.278 . S
C298 O306 1.224 . S
O299 C298 1.278 . S
C300 O301 1.245 . S
C300 O312 1.232 . S
O301 C300 1.245 . S
O302 Co296 2.058 . S
O302 C328 1.269 . S
O303 Co295 2.074 . S
O303 C328 1.257 . S
H304 C329 0.930 . S
H305 C335 0.930 . S
O306 Co295 2.093 . S
O306 C298 1.224 . S
H307 C339 0.929 . S
H308 C341 0.930 . S
H309 C342 0.930 . S
H310 C340 0.929 . S
H311 C343 0.928 . S
O312 Co296 2.057 . S
O312 C300 1.232 . S
H313 C332 0.929 . S
H314 C333 0.929 . S
H315 C345 0.931 . S
H316 C337 0.929 . S
H317 C346 0.930 . S
H318 C338 0.931 . S
O319 Co295 2.097 . S
O319 C347 1.214 . S
H320 C348 0.929 . S
H321 C349 0.929 . S
H322 C350 0.930 . S
H323 C351 0.929 . S
H324 C353 0.930 . S
H325 C330 0.930 . S
H326 C334 0.930 . S
O327 Co296 2.037 . S
O327 C347 1.234 . S
C328 O302 1.269 . S
C328 O303 1.257 . S
C329 H304 0.930 . S
C329 C332 1.388 . S
C329 C334 1.418 . S
C330 H325 0.930 . S
C330 C333 1.404 . S
C330 C334 1.353 . S
N331 Co296 2.145 . S
N331 C332 1.397 . S
N331 C333 1.334 . S
C332 H313 0.929 . S
C332 C329 1.388 . S
C332 N331 1.397 . S
C333 H314 0.929 . S
C333 C330 1.404 . S
C333 N331 1.334 . S
C334 H326 0.930 . S
C334 C329 1.418 . S
C334 C330 1.353 . S
C335 H305 0.930 . S
C335 N336 1.330 . S
C335 C337 1.446 . S
N336 Co295 2.151 . S
N336 C335 1.330 . S
N336 C340 1.418 . S
C337 H316 0.929 . S
C337 C335 1.446 . S
C337 C338 1.332 . S
C338 H318 0.931 . S
C338 C337 1.332 . S
C338 C339 1.267 . S
C339 H307 0.929 . S
C339 C338 1.267 . S
C339 C340 1.251 . S
C340 H310 0.929 . S
C340 N336 1.418 . S
C340 C339 1.251 . S
C341 H308 0.930 . S
C341 C343 1.406 . S
C341 C346 1.261 . S
C342 H309 0.930 . S
C342 N344 1.325 . S
C342 C345 1.357 . S
C343 H311 0.928 . S
C343 C341 1.406 . S
C343 N344 1.261 . S
N344 Co295 2.214 . S
N344 C342 1.325 . S
N344 C343 1.261 . S
C345 H315 0.931 . S
C345 C342 1.357 . S
C345 C346 1.312 . S
C346 H317 0.930 . S
C346 C341 1.261 . S
C346 C345 1.312 . S
C347 O319 1.214 . S
C347 O327 1.234 . S
C348 H320 0.929 . S
C348 C351 1.391 . S
C348 C353 1.391 . S
C349 H321 0.929 . S
C349 C350 1.390 . S
C349 N352 1.391 . S
C350 H322 0.930 . S
C350 C349 1.390 . S
C350 C351 1.392 . S
C351 H323 0.929 . S
C351 C348 1.391 . S
C351 C350 1.392 . S
N352 Co296 2.257 . S
N352 C349 1.391 . S
N352 C353 1.388 . S
C353 H324 0.930 . S
C353 C348 1.391 . S
C353 N352 1.388 . S
Co354 O356 2.143 . S
Co354 O362 2.074 . S
Co354 O365 2.093 . S
Co354 O378 2.097 . S
Co354 N395 2.151 . S
Co354 N403 2.214 . S
Co355 O356 2.160 . S
Co355 O361 2.058 . S
Co355 O371 2.057 . S
Co355 O386 2.037 . S
Co355 N390 2.145 . S
Co355 N411 2.257 . S
O356 Co354 2.143 . S
O356 Co355 2.160 . S
C357 O358 1.278 . S
C357 O365 1.224 . S
O358 C357 1.278 . S
C359 O360 1.245 . S
C359 O371 1.232 . S
O360 C359 1.245 . S
O361 Co355 2.058 . S
O361 C387 1.269 . S
O362 Co354 2.074 . S
O362 C387 1.257 . S
H363 C388 0.930 . S
H364 C394 0.930 . S
O365 Co354 2.093 . S
O365 C357 1.224 . S
H366 C398 0.929 . S
H367 C400 0.930 . S
H368 C401 0.930 . S
H369 C399 0.929 . S
H370 C402 0.928 . S
O371 Co355 2.057 . S
O371 C359 1.232 . S
H372 C391 0.929 . S
H373 C392 0.929 . S
H374 C404 0.931 . S
H375 C396 0.929 . S
H376 C405 0.930 . S
H377 C397 0.931 . S
O378 Co354 2.097 . S
O378 C406 1.214 . S
H379 C407 0.929 . S
H380 C408 0.929 . S
H381 C409 0.930 . S
H382 C410 0.929 . S
H383 C412 0.930 . S
H384 C389 0.930 . S
H385 C393 0.930 . S
O386 Co355 2.037 . S
O386 C406 1.234 . S
C387 O361 1.269 . S
C387 O362 1.257 . S
C388 H363 0.930 . S
C388 C391 1.388 . S
C388 C393 1.418 . S
C389 H384 0.930 . S
C389 C392 1.404 . S
C389 C393 1.353 . S
N390 Co355 2.145 . S
N390 C391 1.397 . S
N390 C392 1.334 . S
C391 H372 0.929 . S
C391 C388 1.388 . S
C391 N390 1.397 . S
C392 H373 0.929 . S
C392 C389 1.404 . S
C392 N390 1.334 . S
C393 H385 0.930 . S
C393 C388 1.418 . S
C393 C389 1.353 . S
C394 H364 0.930 . S
C394 N395 1.330 . S
C394 C396 1.446 . S
N395 Co354 2.151 . S
N395 C394 1.330 . S
N395 C399 1.418 . S
C396 H375 0.929 . S
C396 C394 1.446 . S
C396 C397 1.332 . S
C397 H377 0.931 . S
C397 C396 1.332 . S
C397 C398 1.267 . S
C398 H366 0.929 . S
C398 C397 1.267 . S
C398 C399 1.251 . S
C399 H369 0.929 . S
C399 N395 1.418 . S
C399 C398 1.251 . S
C400 H367 0.930 . S
C400 C402 1.406 . S
C400 C405 1.261 . S
C401 H368 0.930 . S
C401 N403 1.325 . S
C401 C404 1.357 . S
C402 H370 0.928 . S
C402 C400 1.406 . S
C402 N403 1.261 . S
N403 Co354 2.214 . S
N403 C401 1.325 . S
N403 C402 1.261 . S
C404 H374 0.931 . S
C404 C401 1.357 . S
C404 C405 1.312 . S
C405 H376 0.930 . S
C405 C400 1.261 . S
C405 C404 1.312 . S
C406 O378 1.214 . S
C406 O386 1.234 . S
C407 H379 0.929 . S
C407 C410 1.391 . S
C407 C412 1.391 . S
C408 H380 0.929 . S
C408 C409 1.390 . S
C408 N411 1.391 . S
C409 H381 0.930 . S
C409 C408 1.390 . S
C409 C410 1.392 . S
C410 H382 0.929 . S
C410 C407 1.391 . S
C410 C409 1.392 . S
N411 Co355 2.257 . S
N411 C408 1.391 . S
N411 C412 1.388 . S
C412 H383 0.930 . S
C412 C407 1.391 . S
C412 N411 1.388 . S
Co413 O415 2.143 . S
Co413 O421 2.074 . S
Co413 O424 2.093 . S
Co413 O437 2.097 . S
Co413 N454 2.151 . S
Co413 N462 2.214 . S
Co414 O415 2.160 . S
Co414 O420 2.058 . S
Co414 O430 2.057 . S
Co414 O445 2.037 . S
Co414 N449 2.145 . S
Co414 N470 2.257 . S
O415 Co413 2.143 . S
O415 Co414 2.160 . S
C416 O417 1.278 . S
C416 O424 1.224 . S
O417 C416 1.278 . S
C418 O419 1.245 . S
C418 O430 1.232 . S
O419 C418 1.245 . S
O420 Co414 2.058 . S
O420 C446 1.269 . S
O421 Co413 2.074 . S
O421 C446 1.257 . S
H422 C447 0.930 . S
H423 C453 0.930 . S
O424 Co413 2.093 . S
O424 C416 1.224 . S
H425 C457 0.929 . S
H426 C459 0.930 . S
H427 C460 0.930 . S
H428 C458 0.929 . S
H429 C461 0.928 . S
O430 Co414 2.057 . S
O430 C418 1.232 . S
H431 C450 0.929 . S
H432 C451 0.929 . S
H433 C463 0.931 . S
H434 C455 0.929 . S
H435 C464 0.930 . S
H436 C456 0.931 . S
O437 Co413 2.097 . S
O437 C465 1.214 . S
H438 C466 0.929 . S
H439 C467 0.929 . S
H440 C468 0.930 . S
H441 C469 0.929 . S
H442 C471 0.930 . S
H443 C448 0.930 . S
H444 C452 0.930 . S
O445 Co414 2.037 . S
O445 C465 1.234 . S
C446 O420 1.269 . S
C446 O421 1.257 . S
C447 H422 0.930 . S
C447 C450 1.388 . S
C447 C452 1.418 . S
C448 H443 0.930 . S
C448 C451 1.404 . S
C448 C452 1.353 . S
N449 Co414 2.145 . S
N449 C450 1.397 . S
N449 C451 1.334 . S
C450 H431 0.929 . S
C450 C447 1.388 . S
C450 N449 1.397 . S
C451 H432 0.929 . S
C451 C448 1.404 . S
C451 N449 1.334 . S
C452 H444 0.930 . S
C452 C447 1.418 . S
C452 C448 1.353 . S
C453 H423 0.930 . S
C453 N454 1.330 . S
C453 C455 1.446 . S
N454 Co413 2.151 . S
N454 C453 1.330 . S
N454 C458 1.418 . S
C455 H434 0.929 . S
C455 C453 1.446 . S
C455 C456 1.332 . S
C456 H436 0.931 . S
C456 C455 1.332 . S
C456 C457 1.267 . S
C457 H425 0.929 . S
C457 C456 1.267 . S
C457 C458 1.251 . S
C458 H428 0.929 . S
C458 N454 1.418 . S
C458 C457 1.251 . S
C459 H426 0.930 . S
C459 C461 1.406 . S
C459 C464 1.261 . S
C460 H427 0.930 . S
C460 N462 1.325 . S
C460 C463 1.357 . S
C461 H429 0.928 . S
C461 C459 1.406 . S
C461 N462 1.261 . S
N462 Co413 2.214 . S
N462 C460 1.325 . S
N462 C461 1.261 . S
C463 H433 0.931 . S
C463 C460 1.357 . S
C463 C464 1.312 . S
C464 H435 0.930 . S
C464 C459 1.261 . S
C464 C463 1.312 . S
C465 O437 1.214 . S
C465 O445 1.234 . S
C466 H438 0.929 . S
C466 C469 1.391 . S
C466 C471 1.391 . S
C467 H439 0.929 . S
C467 C468 1.390 . S
C467 N470 1.391 . S
C468 H440 0.930 . S
C468 C467 1.390 . S
C468 C469 1.392 . S
C469 H441 0.929 . S
C469 C466 1.391 . S
C469 C468 1.392 . S
N470 Co414 2.257 . S
N470 C467 1.391 . S
N470 C471 1.388 . S
C471 H442 0.930 . S
C471 C466 1.391 . S
C471 N470 1.388 . S
Co472 O474 2.143 . S
Co472 O480 2.074 . S
Co472 O483 2.093 . S
Co472 O496 2.097 . S
Co472 N513 2.151 . S
Co472 N521 2.214 . S
Co473 O474 2.160 . S
Co473 O479 2.058 . S
Co473 O489 2.057 . S
Co473 O504 2.037 . S
Co473 N508 2.145 . S
Co473 N529 2.257 . S
O474 Co472 2.143 . S
O474 Co473 2.160 . S
C475 O476 1.278 . S
C475 O483 1.224 . S
O476 C475 1.278 . S
C477 O478 1.245 . S
C477 O489 1.232 . S
O478 C477 1.245 . S
O479 Co473 2.058 . S
O479 C505 1.269 . S
O480 Co472 2.074 . S
O480 C505 1.257 . S
H481 C506 0.930 . S
H482 C512 0.930 . S
O483 Co472 2.093 . S
O483 C475 1.224 . S
H484 C516 0.929 . S
H485 C518 0.930 . S
H486 C519 0.930 . S
H487 C517 0.929 . S
H488 C520 0.928 . S
O489 Co473 2.057 . S
O489 C477 1.232 . S
H490 C509 0.929 . S
H491 C510 0.929 . S
H492 C522 0.931 . S
H493 C514 0.929 . S
H494 C523 0.930 . S
H495 C515 0.931 . S
O496 Co472 2.097 . S
O496 C524 1.214 . S
H497 C525 0.929 . S
H498 C526 0.929 . S
H499 C527 0.930 . S
H500 C528 0.929 . S
H501 C530 0.930 . S
H502 C507 0.930 . S
H503 C511 0.930 . S
O504 Co473 2.037 . S
O504 C524 1.234 . S
C505 O479 1.269 . S
C505 O480 1.257 . S
C506 H481 0.930 . S
C506 C509 1.388 . S
C506 C511 1.418 . S
C507 H502 0.930 . S
C507 C510 1.404 . S
C507 C511 1.353 . S
N508 Co473 2.145 . S
N508 C509 1.397 . S
N508 C510 1.334 . S
C509 H490 0.929 . S
C509 C506 1.388 . S
C509 N508 1.397 . S
C510 H491 0.929 . S
C510 C507 1.404 . S
C510 N508 1.334 . S
C511 H503 0.930 . S
C511 C506 1.418 . S
C511 C507 1.353 . S
C512 H482 0.930 . S
C512 N513 1.330 . S
C512 C514 1.446 . S
N513 Co472 2.151 . S
N513 C512 1.330 . S
N513 C517 1.418 . S
C514 H493 0.929 . S
C514 C512 1.446 . S
C514 C515 1.332 . S
C515 H495 0.931 . S
C515 C514 1.332 . S
C515 C516 1.267 . S
C516 H484 0.929 . S
C516 C515 1.267 . S
C516 C517 1.251 . S
C517 H487 0.929 . S
C517 N513 1.418 . S
C517 C516 1.251 . S
C518 H485 0.930 . S
C518 C520 1.406 . S
C518 C523 1.261 . S
C519 H486 0.930 . S
C519 N521 1.325 . S
C519 C522 1.357 . S
C520 H488 0.928 . S
C520 C518 1.406 . S
C520 N521 1.261 . S
N521 Co472 2.214 . S
N521 C519 1.325 . S
N521 C520 1.261 . S
C522 H492 0.931 . S
C522 C519 1.357 . S
C522 C523 1.312 . S
C523 H494 0.930 . S
C523 C518 1.261 . S
C523 C522 1.312 . S
C524 O496 1.214 . S
C524 O504 1.234 . S
C525 H497 0.929 . S
C525 C528 1.391 . S
C525 C530 1.391 . S
C526 H498 0.929 . S
C526 C527 1.390 . S
C526 N529 1.391 . S
C527 H499 0.930 . S
C527 C526 1.390 . S
C527 C528 1.392 . S
C528 H500 0.929 . S
C528 C525 1.391 . S
C528 C527 1.392 . S
N529 Co473 2.257 . S
N529 C526 1.391 . S
N529 C530 1.388 . S
C530 H501 0.930 . S
C530 C525 1.391 . S
C530 N529 1.388 . S
Co531 O533 2.143 . S
Co531 O539 2.074 . S
Co531 O542 2.093 . S
Co531 O555 2.097 . S
Co531 N572 2.151 . S
Co531 N580 2.214 . S
Co532 O533 2.160 . S
Co532 O538 2.058 . S
Co532 O548 2.057 . S
Co532 O563 2.037 . S
Co532 N567 2.145 . S
Co532 N588 2.257 . S
O533 Co531 2.143 . S
O533 Co532 2.160 . S
C534 O535 1.278 . S
C534 O542 1.224 . S
O535 C534 1.278 . S
C536 O537 1.245 . S
C536 O548 1.232 . S
O537 C536 1.245 . S
O538 Co532 2.058 . S
O538 C564 1.269 . S
O539 Co531 2.074 . S
O539 C564 1.257 . S
H540 C565 0.930 . S
H541 C571 0.930 . S
O542 Co531 2.093 . S
O542 C534 1.224 . S
H543 C575 0.929 . S
H544 C577 0.930 . S
H545 C578 0.930 . S
H546 C576 0.929 . S
H547 C579 0.928 . S
O548 Co532 2.057 . S
O548 C536 1.232 . S
H549 C568 0.929 . S
H550 C569 0.929 . S
H551 C581 0.931 . S
H552 C573 0.929 . S
H553 C582 0.930 . S
H554 C574 0.931 . S
O555 Co531 2.097 . S
O555 C583 1.214 . S
H556 C584 0.929 . S
H557 C585 0.929 . S
H558 C586 0.930 . S
H559 C587 0.929 . S
H560 C589 0.930 . S
H561 C566 0.930 . S
H562 C570 0.930 . S
O563 Co532 2.037 . S
O563 C583 1.234 . S
C564 O538 1.269 . S
C564 O539 1.257 . S
C565 H540 0.930 . S
C565 C568 1.388 . S
C565 C570 1.418 . S
C566 H561 0.930 . S
C566 C569 1.404 . S
C566 C570 1.353 . S
N567 Co532 2.145 . S
N567 C568 1.397 . S
N567 C569 1.334 . S
C568 H549 0.929 . S
C568 C565 1.388 . S
C568 N567 1.397 . S
C569 H550 0.929 . S
C569 C566 1.404 . S
C569 N567 1.334 . S
C570 H562 0.930 . S
C570 C565 1.418 . S
C570 C566 1.353 . S
C571 H541 0.930 . S
C571 N572 1.330 . S
C571 C573 1.446 . S
N572 Co531 2.151 . S
N572 C571 1.330 . S
N572 C576 1.418 . S
C573 H552 0.929 . S
C573 C571 1.446 . S
C573 C574 1.332 . S
C574 H554 0.931 . S
C574 C573 1.332 . S
C574 C575 1.267 . S
C575 H543 0.929 . S
C575 C574 1.267 . S
C575 C576 1.251 . S
C576 H546 0.929 . S
C576 N572 1.418 . S
C576 C575 1.251 . S
C577 H544 0.930 . S
C577 C579 1.406 . S
C577 C582 1.261 . S
C578 H545 0.930 . S
C578 N580 1.325 . S
C578 C581 1.357 . S
C579 H547 0.928 . S
C579 C577 1.406 . S
C579 N580 1.261 . S
N580 Co531 2.214 . S
N580 C578 1.325 . S
N580 C579 1.261 . S
C581 H551 0.931 . S
C581 C578 1.357 . S
C581 C582 1.312 . S
C582 H553 0.930 . S
C582 C577 1.261 . S
C582 C581 1.312 . S
C583 O555 1.214 . S
C583 O563 1.234 . S
C584 H556 0.929 . S
C584 C587 1.391 . S
C584 C589 1.391 . S
C585 H557 0.929 . S
C585 C586 1.390 . S
C585 N588 1.391 . S
C586 H558 0.930 . S
C586 C585 1.390 . S
C586 C587 1.392 . S
C587 H559 0.929 . S
C587 C584 1.391 . S
C587 C586 1.392 . S
N588 Co532 2.257 . S
N588 C585 1.391 . S
N588 C589 1.388 . S
C589 H560 0.930 . S
C589 C584 1.391 . S
C589 N588 1.388 . S
Co590 O592 2.143 . S
Co590 O598 2.074 . S
Co590 O601 2.093 . S
Co590 O614 2.097 . S
Co590 N631 2.151 . S
Co590 N639 2.214 . S
Co591 O592 2.160 . S
Co591 O597 2.058 . S
Co591 O607 2.057 . S
Co591 O622 2.037 . S
Co591 N626 2.145 . S
Co591 N647 2.257 . S
O592 Co590 2.143 . S
O592 Co591 2.160 . S
C593 O594 1.278 . S
C593 O601 1.224 . S
O594 C593 1.278 . S
C595 O596 1.245 . S
C595 O607 1.232 . S
O596 C595 1.245 . S
O597 Co591 2.058 . S
O597 C623 1.269 . S
O598 Co590 2.074 . S
O598 C623 1.257 . S
H599 C624 0.930 . S
H600 C630 0.930 . S
O601 Co590 2.093 . S
O601 C593 1.224 . S
H602 C634 0.929 . S
H603 C636 0.930 . S
H604 C637 0.930 . S
H605 C635 0.929 . S
H606 C638 0.928 . S
O607 Co591 2.057 . S
O607 C595 1.232 . S
H608 C627 0.929 . S
H609 C628 0.929 . S
H610 C640 0.931 . S
H611 C632 0.929 . S
H612 C641 0.930 . S
H613 C633 0.931 . S
O614 Co590 2.097 . S
O614 C642 1.214 . S
H615 C643 0.929 . S
H616 C644 0.929 . S
H617 C645 0.930 . S
H618 C646 0.929 . S
H619 C648 0.930 . S
H620 C625 0.930 . S
H621 C629 0.930 . S
O622 Co591 2.037 . S
O622 C642 1.234 . S
C623 O597 1.269 . S
C623 O598 1.257 . S
C624 H599 0.930 . S
C624 C627 1.388 . S
C624 C629 1.418 . S
C625 H620 0.930 . S
C625 C628 1.404 . S
C625 C629 1.353 . S
N626 Co591 2.145 . S
N626 C627 1.397 . S
N626 C628 1.334 . S
C627 H608 0.929 . S
C627 C624 1.388 . S
C627 N626 1.397 . S
C628 H609 0.929 . S
C628 C625 1.404 . S
C628 N626 1.334 . S
C629 H621 0.930 . S
C629 C624 1.418 . S
C629 C625 1.353 . S
C630 H600 0.930 . S
C630 N631 1.330 . S
C630 C632 1.446 . S
N631 Co590 2.151 . S
N631 C630 1.330 . S
N631 C635 1.418 . S
C632 H611 0.929 . S
C632 C630 1.446 . S
C632 C633 1.332 . S
C633 H613 0.931 . S
C633 C632 1.332 . S
C633 C634 1.267 . S
C634 H602 0.929 . S
C634 C633 1.267 . S
C634 C635 1.251 . S
C635 H605 0.929 . S
C635 N631 1.418 . S
C635 C634 1.251 . S
C636 H603 0.930 . S
C636 C638 1.406 . S
C636 C641 1.261 . S
C637 H604 0.930 . S
C637 N639 1.325 . S
C637 C640 1.357 . S
C638 H606 0.928 . S
C638 C636 1.406 . S
C638 N639 1.261 . S
N639 Co590 2.214 . S
N639 C637 1.325 . S
N639 C638 1.261 . S
C640 H610 0.931 . S
C640 C637 1.357 . S
C640 C641 1.312 . S
C641 H612 0.930 . S
C641 C636 1.261 . S
C641 C640 1.312 . S
C642 O614 1.214 . S
C642 O622 1.234 . S
C643 H615 0.929 . S
C643 C646 1.391 . S
C643 C648 1.391 . S
C644 H616 0.929 . S
C644 C645 1.390 . S
C644 N647 1.391 . S
C645 H617 0.930 . S
C645 C644 1.390 . S
C645 C646 1.392 . S
C646 H618 0.929 . S
C646 C643 1.391 . S
C646 C645 1.392 . S
N647 Co591 2.257 . S
N647 C644 1.391 . S
N647 C648 1.388 . S
C648 H619 0.930 . S
C648 C643 1.391 . S
C648 N647 1.388 . S
Co649 O651 2.143 . S
Co649 O657 2.074 . S
Co649 O660 2.093 . S
Co649 O673 2.097 . S
Co649 N690 2.151 . S
Co649 N698 2.214 . S
Co650 O651 2.160 . S
Co650 O656 2.058 . S
Co650 O666 2.057 . S
Co650 O681 2.037 . S
Co650 N685 2.145 . S
Co650 N706 2.257 . S
O651 Co649 2.143 . S
O651 Co650 2.160 . S
C652 O653 1.278 . S
C652 O660 1.224 . S
O653 C652 1.278 . S
C654 O655 1.245 . S
C654 O666 1.232 . S
O655 C654 1.245 . S
O656 Co650 2.058 . S
O656 C682 1.269 . S
O657 Co649 2.074 . S
O657 C682 1.257 . S
H658 C683 0.930 . S
H659 C689 0.930 . S
O660 Co649 2.093 . S
O660 C652 1.224 . S
H661 C693 0.929 . S
H662 C695 0.930 . S
H663 C696 0.930 . S
H664 C694 0.929 . S
H665 C697 0.928 . S
O666 Co650 2.057 . S
O666 C654 1.232 . S
H667 C686 0.929 . S
H668 C687 0.929 . S
H669 C699 0.931 . S
H670 C691 0.929 . S
H671 C700 0.930 . S
H672 C692 0.931 . S
O673 Co649 2.097 . S
O673 C701 1.214 . S
H674 C702 0.929 . S
H675 C703 0.929 . S
H676 C704 0.930 . S
H677 C705 0.929 . S
H678 C707 0.930 . S
H679 C684 0.930 . S
H680 C688 0.930 . S
O681 Co650 2.037 . S
O681 C701 1.234 . S
C682 O656 1.269 . S
C682 O657 1.257 . S
C683 H658 0.930 . S
C683 C686 1.388 . S
C683 C688 1.418 . S
C684 H679 0.930 . S
C684 C687 1.404 . S
C684 C688 1.353 . S
N685 Co650 2.145 . S
N685 C686 1.397 . S
N685 C687 1.334 . S
C686 H667 0.929 . S
C686 C683 1.388 . S
C686 N685 1.397 . S
C687 H668 0.929 . S
C687 C684 1.404 . S
C687 N685 1.334 . S
C688 H680 0.930 . S
C688 C683 1.418 . S
C688 C684 1.353 . S
C689 H659 0.930 . S
C689 N690 1.330 . S
C689 C691 1.446 . S
N690 Co649 2.151 . S
N690 C689 1.330 . S
N690 C694 1.418 . S
C691 H670 0.929 . S
C691 C689 1.446 . S
C691 C692 1.332 . S
C692 H672 0.931 . S
C692 C691 1.332 . S
C692 C693 1.267 . S
C693 H661 0.929 . S
C693 C692 1.267 . S
C693 C694 1.251 . S
C694 H664 0.929 . S
C694 N690 1.418 . S
C694 C693 1.251 . S
C695 H662 0.930 . S
C695 C697 1.406 . S
C695 C700 1.261 . S
C696 H663 0.930 . S
C696 N698 1.325 . S
C696 C699 1.357 . S
C697 H665 0.928 . S
C697 C695 1.406 . S
C697 N698 1.261 . S
N698 Co649 2.214 . S
N698 C696 1.325 . S
N698 C697 1.261 . S
C699 H669 0.931 . S
C699 C696 1.357 . S
C699 C700 1.312 . S
C700 H671 0.930 . S
C700 C695 1.261 . S
C700 C699 1.312 . S
C701 O673 1.214 . S
C701 O681 1.234 . S
C702 H674 0.929 . S
C702 C705 1.391 . S
C702 C707 1.391 . S
C703 H675 0.929 . S
C703 C704 1.390 . S
C703 N706 1.391 . S
C704 H676 0.930 . S
C704 C703 1.390 . S
C704 C705 1.392 . S
C705 H677 0.929 . S
C705 C702 1.391 . S
C705 C704 1.392 . S
N706 Co650 2.257 . S
N706 C703 1.391 . S
N706 C707 1.388 . S
C707 H678 0.930 . S
C707 C702 1.391 . S
C707 N706 1.388 . S
Co708 O710 2.143 . S
Co708 O716 2.074 . S
Co708 O719 2.093 . S
Co708 O732 2.097 . S
Co708 N749 2.151 . S
Co708 N757 2.214 . S
Co709 O710 2.160 . S
Co709 O715 2.058 . S
Co709 O725 2.057 . S
Co709 O740 2.037 . S
Co709 N744 2.145 . S
Co709 N765 2.257 . S
O710 Co708 2.143 . S
O710 Co709 2.160 . S
C711 O712 1.278 . S
C711 O719 1.224 . S
O712 C711 1.278 . S
C713 O714 1.245 . S
C713 O725 1.232 . S
O714 C713 1.245 . S
O715 Co709 2.058 . S
O715 C741 1.269 . S
O716 Co708 2.074 . S
O716 C741 1.257 . S
H717 C742 0.930 . S
H718 C748 0.930 . S
O719 Co708 2.093 . S
O719 C711 1.224 . S
H720 C752 0.929 . S
H721 C754 0.930 . S
H722 C755 0.930 . S
H723 C753 0.929 . S
H724 C756 0.928 . S
O725 Co709 2.057 . S
O725 C713 1.232 . S
H726 C745 0.929 . S
H727 C746 0.929 . S
H728 C758 0.931 . S
H729 C750 0.929 . S
H730 C759 0.930 . S
H731 C751 0.931 . S
O732 Co708 2.097 . S
O732 C760 1.214 . S
H733 C761 0.929 . S
H734 C762 0.929 . S
H735 C763 0.930 . S
H736 C764 0.929 . S
H737 C766 0.930 . S
H738 C743 0.930 . S
H739 C747 0.930 . S
O740 Co709 2.037 . S
O740 C760 1.234 . S
C741 O715 1.269 . S
C741 O716 1.257 . S
C742 H717 0.930 . S
C742 C745 1.388 . S
C742 C747 1.418 . S
C743 H738 0.930 . S
C743 C746 1.404 . S
C743 C747 1.353 . S
N744 Co709 2.145 . S
N744 C745 1.397 . S
N744 C746 1.334 . S
C745 H726 0.929 . S
C745 C742 1.388 . S
C745 N744 1.397 . S
C746 H727 0.929 . S
C746 C743 1.404 . S
C746 N744 1.334 . S
C747 H739 0.930 . S
C747 C742 1.418 . S
C747 C743 1.353 . S
C748 H718 0.930 . S
C748 N749 1.330 . S
C748 C750 1.446 . S
N749 Co708 2.151 . S
N749 C748 1.330 . S
N749 C753 1.418 . S
C750 H729 0.929 . S
C750 C748 1.446 . S
C750 C751 1.332 . S
C751 H731 0.931 . S
C751 C750 1.332 . S
C751 C752 1.267 . S
C752 H720 0.929 . S
C752 C751 1.267 . S
C752 C753 1.251 . S
C753 H723 0.929 . S
C753 N749 1.418 . S
C753 C752 1.251 . S
C754 H721 0.930 . S
C754 C756 1.406 . S
C754 C759 1.261 . S
C755 H722 0.930 . S
C755 N757 1.325 . S
C755 C758 1.357 . S
C756 H724 0.928 . S
C756 C754 1.406 . S
C756 N757 1.261 . S
N757 Co708 2.214 . S
N757 C755 1.325 . S
N757 C756 1.261 . S
C758 H728 0.931 . S
C758 C755 1.357 . S
C758 C759 1.312 . S
C759 H730 0.930 . S
C759 C754 1.261 . S
C759 C758 1.312 . S
C760 O732 1.214 . S
C760 O740 1.234 . S
C761 H733 0.929 . S
C761 C764 1.391 . S
C761 C766 1.391 . S
C762 H734 0.929 . S
C762 C763 1.390 . S
C762 N765 1.391 . S
C763 H735 0.930 . S
C763 C762 1.390 . S
C763 C764 1.392 . S
C764 H736 0.929 . S
C764 C761 1.391 . S
C764 C763 1.392 . S
N765 Co709 2.257 . S
N765 C762 1.391 . S
N765 C766 1.388 . S
C766 H737 0.930 . S
C766 C761 1.391 . S
C766 N765 1.388 . S
Co767 O769 2.143 . S
Co767 O775 2.074 . S
Co767 O778 2.093 . S
Co767 O791 2.097 . S
Co767 N808 2.151 . S
Co767 N816 2.214 . S
Co768 O769 2.160 . S
Co768 O774 2.058 . S
Co768 O784 2.057 . S
Co768 O799 2.037 . S
Co768 N803 2.145 . S
Co768 N824 2.257 . S
O769 Co767 2.143 . S
O769 Co768 2.160 . S
C770 O771 1.278 . S
C770 O778 1.224 . S
O771 C770 1.278 . S
C772 O773 1.245 . S
C772 O784 1.232 . S
O773 C772 1.245 . S
O774 Co768 2.058 . S
O774 C800 1.269 . S
O775 Co767 2.074 . S
O775 C800 1.257 . S
H776 C801 0.930 . S
H777 C807 0.930 . S
O778 Co767 2.093 . S
O778 C770 1.224 . S
H779 C811 0.929 . S
H780 C813 0.930 . S
H781 C814 0.930 . S
H782 C812 0.929 . S
H783 C815 0.928 . S
O784 Co768 2.057 . S
O784 C772 1.232 . S
H785 C804 0.929 . S
H786 C805 0.929 . S
H787 C817 0.931 . S
H788 C809 0.929 . S
H789 C818 0.930 . S
H790 C810 0.931 . S
O791 Co767 2.097 . S
O791 C819 1.214 . S
H792 C820 0.929 . S
H793 C821 0.929 . S
H794 C822 0.930 . S
H795 C823 0.929 . S
H796 C825 0.930 . S
H797 C802 0.930 . S
H798 C806 0.930 . S
O799 Co768 2.037 . S
O799 C819 1.234 . S
C800 O774 1.269 . S
C800 O775 1.257 . S
C801 H776 0.930 . S
C801 C804 1.388 . S
C801 C806 1.418 . S
C802 H797 0.930 . S
C802 C805 1.404 . S
C802 C806 1.353 . S
N803 Co768 2.145 . S
N803 C804 1.397 . S
N803 C805 1.334 . S
C804 H785 0.929 . S
C804 C801 1.388 . S
C804 N803 1.397 . S
C805 H786 0.929 . S
C805 C802 1.404 . S
C805 N803 1.334 . S
C806 H798 0.930 . S
C806 C801 1.418 . S
C806 C802 1.353 . S
C807 H777 0.930 . S
C807 N808 1.330 . S
C807 C809 1.446 . S
N808 Co767 2.151 . S
N808 C807 1.330 . S
N808 C812 1.418 . S
C809 H788 0.929 . S
C809 C807 1.446 . S
C809 C810 1.332 . S
C810 H790 0.931 . S
C810 C809 1.332 . S
C810 C811 1.267 . S
C811 H779 0.929 . S
C811 C810 1.267 . S
C811 C812 1.251 . S
C812 H782 0.929 . S
C812 N808 1.418 . S
C812 C811 1.251 . S
C813 H780 0.930 . S
C813 C815 1.406 . S
C813 C818 1.261 . S
C814 H781 0.930 . S
C814 N816 1.325 . S
C814 C817 1.357 . S
C815 H783 0.928 . S
C815 C813 1.406 . S
C815 N816 1.261 . S
N816 Co767 2.214 . S
N816 C814 1.325 . S
N816 C815 1.261 . S
C817 H787 0.931 . S
C817 C814 1.357 . S
C817 C818 1.312 . S
C818 H789 0.930 . S
C818 C813 1.261 . S
C818 C817 1.312 . S
C819 O791 1.214 . S
C819 O799 1.234 . S
C820 H792 0.929 . S
C820 C823 1.391 . S
C820 C825 1.391 . S
C821 H793 0.929 . S
C821 C822 1.390 . S
C821 N824 1.391 . S
C822 H794 0.930 . S
C822 C821 1.390 . S
C822 C823 1.392 . S
C823 H795 0.929 . S
C823 C820 1.391 . S
C823 C822 1.392 . S
N824 Co768 2.257 . S
N824 C821 1.391 . S
N824 C825 1.388 . S
C825 H796 0.930 . S
C825 C820 1.391 . S
C825 N824 1.388 . S
Co826 O828 2.143 . S
Co826 O834 2.074 . S
Co826 O837 2.093 . S
Co826 O850 2.097 . S
Co826 N867 2.151 . S
Co826 N875 2.214 . S
Co827 O828 2.160 . S
Co827 O833 2.058 . S
Co827 O843 2.057 . S
Co827 O858 2.037 . S
Co827 N862 2.145 . S
Co827 N883 2.257 . S
O828 Co826 2.143 . S
O828 Co827 2.160 . S
C829 O830 1.278 . S
C829 O837 1.224 . S
O830 C829 1.278 . S
C831 O832 1.245 . S
C831 O843 1.232 . S
O832 C831 1.245 . S
O833 Co827 2.058 . S
O833 C859 1.269 . S
O834 Co826 2.074 . S
O834 C859 1.257 . S
H835 C860 0.930 . S
H836 C866 0.930 . S
O837 Co826 2.093 . S
O837 C829 1.224 . S
H838 C870 0.929 . S
H839 C872 0.930 . S
H840 C873 0.930 . S
H841 C871 0.929 . S
H842 C874 0.928 . S
O843 Co827 2.057 . S
O843 C831 1.232 . S
H844 C863 0.929 . S
H845 C864 0.929 . S
H846 C876 0.931 . S
H847 C868 0.929 . S
H848 C877 0.930 . S
H849 C869 0.931 . S
O850 Co826 2.097 . S
O850 C878 1.214 . S
H851 C879 0.929 . S
H852 C880 0.929 . S
H853 C881 0.930 . S
H854 C882 0.929 . S
H855 C884 0.930 . S
H856 C861 0.930 . S
H857 C865 0.930 . S
O858 Co827 2.037 . S
O858 C878 1.234 . S
C859 O833 1.269 . S
C859 O834 1.257 . S
C860 H835 0.930 . S
C860 C863 1.388 . S
C860 C865 1.418 . S
C861 H856 0.930 . S
C861 C864 1.404 . S
C861 C865 1.353 . S
N862 Co827 2.145 . S
N862 C863 1.397 . S
N862 C864 1.334 . S
C863 H844 0.929 . S
C863 C860 1.388 . S
C863 N862 1.397 . S
C864 H845 0.929 . S
C864 C861 1.404 . S
C864 N862 1.334 . S
C865 H857 0.930 . S
C865 C860 1.418 . S
C865 C861 1.353 . S
C866 H836 0.930 . S
C866 N867 1.330 . S
C866 C868 1.446 . S
N867 Co826 2.151 . S
N867 C866 1.330 . S
N867 C871 1.418 . S
C868 H847 0.929 . S
C868 C866 1.446 . S
C868 C869 1.332 . S
C869 H849 0.931 . S
C869 C868 1.332 . S
C869 C870 1.267 . S
C870 H838 0.929 . S
C870 C869 1.267 . S
C870 C871 1.251 . S
C871 H841 0.929 . S
C871 N867 1.418 . S
C871 C870 1.251 . S
C872 H839 0.930 . S
C872 C874 1.406 . S
C872 C877 1.261 . S
C873 H840 0.930 . S
C873 N875 1.325 . S
C873 C876 1.357 . S
C874 H842 0.928 . S
C874 C872 1.406 . S
C874 N875 1.261 . S
N875 Co826 2.214 . S
N875 C873 1.325 . S
N875 C874 1.261 . S
C876 H846 0.931 . S
C876 C873 1.357 . S
C876 C877 1.312 . S
C877 H848 0.930 . S
C877 C872 1.261 . S
C877 C876 1.312 . S
C878 O850 1.214 . S
C878 O858 1.234 . S
C879 H851 0.929 . S
C879 C882 1.391 . S
C879 C884 1.391 . S
C880 H852 0.929 . S
C880 C881 1.390 . S
C880 N883 1.391 . S
C881 H853 0.930 . S
C881 C880 1.390 . S
C881 C882 1.392 . S
C882 H854 0.929 . S
C882 C879 1.391 . S
C882 C881 1.392 . S
N883 Co827 2.257 . S
N883 C880 1.391 . S
N883 C884 1.388 . S
C884 H855 0.930 . S
C884 C879 1.391 . S
C884 N883 1.388 . S
Co885 O887 2.143 . S
Co885 O893 2.074 . S
Co885 O896 2.093 . S
Co885 O909 2.097 . S
Co885 N926 2.151 . S
Co885 N934 2.214 . S
Co886 O887 2.160 . S
Co886 O892 2.058 . S
Co886 O902 2.057 . S
Co886 O917 2.037 . S
Co886 N921 2.145 . S
Co886 N942 2.257 . S
O887 Co885 2.143 . S
O887 Co886 2.160 . S
C888 O889 1.278 . S
C888 O896 1.224 . S
O889 C888 1.278 . S
C890 O891 1.245 . S
C890 O902 1.232 . S
O891 C890 1.245 . S
O892 Co886 2.058 . S
O892 C918 1.269 . S
O893 Co885 2.074 . S
O893 C918 1.257 . S
H894 C919 0.930 . S
H895 C925 0.930 . S
O896 Co885 2.093 . S
O896 C888 1.224 . S
H897 C929 0.929 . S
H898 C931 0.930 . S
H899 C932 0.930 . S
H900 C930 0.929 . S
H901 C933 0.928 . S
O902 Co886 2.057 . S
O902 C890 1.232 . S
H903 C922 0.929 . S
H904 C923 0.929 . S
H905 C935 0.931 . S
H906 C927 0.929 . S
H907 C936 0.930 . S
H908 C928 0.931 . S
O909 Co885 2.097 . S
O909 C937 1.214 . S
H910 C938 0.929 . S
H911 C939 0.929 . S
H912 C940 0.930 . S
H913 C941 0.929 . S
H914 C943 0.930 . S
H915 C920 0.930 . S
H916 C924 0.930 . S
O917 Co886 2.037 . S
O917 C937 1.234 . S
C918 O892 1.269 . S
C918 O893 1.257 . S
C919 H894 0.930 . S
C919 C922 1.388 . S
C919 C924 1.418 . S
C920 H915 0.930 . S
C920 C923 1.404 . S
C920 C924 1.353 . S
N921 Co886 2.145 . S
N921 C922 1.397 . S
N921 C923 1.334 . S
C922 H903 0.929 . S
C922 C919 1.388 . S
C922 N921 1.397 . S
C923 H904 0.929 . S
C923 C920 1.404 . S
C923 N921 1.334 . S
C924 H916 0.930 . S
C924 C919 1.418 . S
C924 C920 1.353 . S
C925 H895 0.930 . S
C925 N926 1.330 . S
C925 C927 1.446 . S
N926 Co885 2.151 . S
N926 C925 1.330 . S
N926 C930 1.418 . S
C927 H906 0.929 . S
C927 C925 1.446 . S
C927 C928 1.332 . S
C928 H908 0.931 . S
C928 C927 1.332 . S
C928 C929 1.267 . S
C929 H897 0.929 . S
C929 C928 1.267 . S
C929 C930 1.251 . S
C930 H900 0.929 . S
C930 N926 1.418 . S
C930 C929 1.251 . S
C931 H898 0.930 . S
C931 C933 1.406 . S
C931 C936 1.261 . S
C932 H899 0.930 . S
C932 N934 1.325 . S
C932 C935 1.357 . S
C933 H901 0.928 . S
C933 C931 1.406 . S
C933 N934 1.261 . S
N934 Co885 2.214 . S
N934 C932 1.325 . S
N934 C933 1.261 . S
C935 H905 0.931 . S
C935 C932 1.357 . S
C935 C936 1.312 . S
C936 H907 0.930 . S
C936 C931 1.261 . S
C936 C935 1.312 . S
C937 O909 1.214 . S
C937 O917 1.234 . S
C938 H910 0.929 . S
C938 C941 1.391 . S
C938 C943 1.391 . S
C939 H911 0.929 . S
C939 C940 1.390 . S
C939 N942 1.391 . S
C940 H912 0.930 . S
C940 C939 1.390 . S
C940 C941 1.392 . S
C941 H913 0.929 . S
C941 C938 1.391 . S
C941 C940 1.392 . S
N942 Co886 2.257 . S
N942 C939 1.391 . S
N942 C943 1.388 . S
C943 H914 0.930 . S
C943 C938 1.391 . S
C943 N942 1.388 . S
Co944 O946 2.143 . S
Co944 O952 2.074 . S
Co944 O955 2.093 . S
Co944 O968 2.097 . S
Co944 N985 2.151 . S
Co944 N993 2.214 . S
Co945 O946 2.160 . S
Co945 O951 2.058 . S
Co945 O961 2.057 . S
Co945 O976 2.037 . S
Co945 N980 2.145 . S
Co945 N1001 2.257 . S
O946 Co944 2.143 . S
O946 Co945 2.160 . S
C947 O948 1.278 . S
C947 O955 1.224 . S
O948 C947 1.278 . S
C949 O950 1.245 . S
C949 O961 1.232 . S
O950 C949 1.245 . S
O951 Co945 2.058 . S
O951 C977 1.269 . S
O952 Co944 2.074 . S
O952 C977 1.257 . S
H953 C978 0.930 . S
H954 C984 0.930 . S
O955 Co944 2.093 . S
O955 C947 1.224 . S
H956 C988 0.929 . S
H957 C990 0.930 . S
H958 C991 0.930 . S
H959 C989 0.929 . S
H960 C992 0.928 . S
O961 Co945 2.057 . S
O961 C949 1.232 . S
H962 C981 0.929 . S
H963 C982 0.929 . S
H964 C994 0.931 . S
H965 C986 0.929 . S
H966 C995 0.930 . S
H967 C987 0.931 . S
O968 Co944 2.097 . S
O968 C996 1.214 . S
H969 C997 0.929 . S
H970 C998 0.929 . S
H971 C999 0.930 . S
H972 C1000 0.929 . S
H973 C1002 0.930 . S
H974 C979 0.930 . S
H975 C983 0.930 . S
O976 Co945 2.037 . S
O976 C996 1.234 . S
C977 O951 1.269 . S
C977 O952 1.257 . S
C978 H953 0.930 . S
C978 C981 1.388 . S
C978 C983 1.418 . S
C979 H974 0.930 . S
C979 C982 1.404 . S
C979 C983 1.353 . S
N980 Co945 2.145 . S
N980 C981 1.397 . S
N980 C982 1.334 . S
C981 H962 0.929 . S
C981 C978 1.388 . S
C981 N980 1.397 . S
C982 H963 0.929 . S
C982 C979 1.404 . S
C982 N980 1.334 . S
C983 H975 0.930 . S
C983 C978 1.418 . S
C983 C979 1.353 . S
C984 H954 0.930 . S
C984 N985 1.330 . S
C984 C986 1.446 . S
N985 Co944 2.151 . S
N985 C984 1.330 . S
N985 C989 1.418 . S
C986 H965 0.929 . S
C986 C984 1.446 . S
C986 C987 1.332 . S
C987 H967 0.931 . S
C987 C986 1.332 . S
C987 C988 1.267 . S
C988 H956 0.929 . S
C988 C987 1.267 . S
C988 C989 1.251 . S
C989 H959 0.929 . S
C989 N985 1.418 . S
C989 C988 1.251 . S
C990 H957 0.930 . S
C990 C992 1.406 . S
C990 C995 1.261 . S
C991 H958 0.930 . S
C991 N993 1.325 . S
C991 C994 1.357 . S
C992 H960 0.928 . S
C992 C990 1.406 . S
C992 N993 1.261 . S
N993 Co944 2.214 . S
N993 C991 1.325 . S
N993 C992 1.261 . S
C994 H964 0.931 . S
C994 C991 1.357 . S
C994 C995 1.312 . S
C995 H966 0.930 . S
C995 C990 1.261 . S
C995 C994 1.312 . S
C996 O968 1.214 . S
C996 O976 1.234 . S
C997 H969 0.929 . S
C997 C1000 1.391 . S
C997 C1002 1.391 . S
C998 H970 0.929 . S
C998 C999 1.390 . S
C998 N1001 1.391 . S
C999 H971 0.930 . S
C999 C998 1.390 . S
C999 C1000 1.392 . S
C1000 H972 0.929 . S
C1000 C997 1.391 . S
C1000 C999 1.392 . S
N1001 Co945 2.257 . S
N1001 C998 1.391 . S
N1001 C1002 1.388 . S
C1002 H973 0.930 . S
C1002 C997 1.391 . S
C1002 N1001 1.388 . S
Co1003 O1005 2.143 . S
Co1003 O1011 2.074 . S
Co1003 O1014 2.093 . S
Co1003 O1027 2.097 . S
Co1003 N1044 2.151 . S
Co1003 N1052 2.214 . S
Co1004 O1005 2.160 . S
Co1004 O1010 2.058 . S
Co1004 O1020 2.057 . S
Co1004 O1035 2.037 . S
Co1004 N1039 2.145 . S
Co1004 N1060 2.257 . S
O1005 Co1003 2.143 . S
O1005 Co1004 2.160 . S
C1006 O1007 1.278 . S
C1006 O1014 1.224 . S
O1007 C1006 1.278 . S
C1008 O1009 1.245 . S
C1008 O1020 1.232 . S
O1009 C1008 1.245 . S
O1010 Co1004 2.058 . S
O1010 C1036 1.269 . S
O1011 Co1003 2.074 . S
O1011 C1036 1.257 . S
H1012 C1037 0.930 . S
H1013 C1043 0.930 . S
O1014 Co1003 2.093 . S
O1014 C1006 1.224 . S
H1015 C1047 0.929 . S
H1016 C1049 0.930 . S
H1017 C1050 0.930 . S
H1018 C1048 0.929 . S
H1019 C1051 0.928 . S
O1020 Co1004 2.057 . S
O1020 C1008 1.232 . S
H1021 C1040 0.929 . S
H1022 C1041 0.929 . S
H1023 C1053 0.931 . S
H1024 C1045 0.929 . S
H1025 C1054 0.930 . S
H1026 C1046 0.931 . S
O1027 Co1003 2.097 . S
O1027 C1055 1.214 . S
H1028 C1056 0.929 . S
H1029 C1057 0.929 . S
H1030 C1058 0.930 . S
H1031 C1059 0.929 . S
H1032 C1061 0.930 . S
H1033 C1038 0.930 . S
H1034 C1042 0.930 . S
O1035 Co1004 2.037 . S
O1035 C1055 1.234 . S
C1036 O1010 1.269 . S
C1036 O1011 1.257 . S
C1037 H1012 0.930 . S
C1037 C1040 1.388 . S
C1037 C1042 1.418 . S
C1038 H1033 0.930 . S
C1038 C1041 1.404 . S
C1038 C1042 1.353 . S
N1039 Co1004 2.145 . S
N1039 C1040 1.397 . S
N1039 C1041 1.334 . S
C1040 H1021 0.929 . S
C1040 C1037 1.388 . S
C1040 N1039 1.397 . S
C1041 H1022 0.929 . S
C1041 C1038 1.404 . S
C1041 N1039 1.334 . S
C1042 H1034 0.930 . S
C1042 C1037 1.418 . S
C1042 C1038 1.353 . S
C1043 H1013 0.930 . S
C1043 N1044 1.330 . S
C1043 C1045 1.446 . S
N1044 Co1003 2.151 . S
N1044 C1043 1.330 . S
N1044 C1048 1.418 . S
C1045 H1024 0.929 . S
C1045 C1043 1.446 . S
C1045 C1046 1.332 . S
C1046 H1026 0.931 . S
C1046 C1045 1.332 . S
C1046 C1047 1.267 . S
C1047 H1015 0.929 . S
C1047 C1046 1.267 . S
C1047 C1048 1.251 . S
C1048 H1018 0.929 . S
C1048 N1044 1.418 . S
C1048 C1047 1.251 . S
C1049 H1016 0.930 . S
C1049 C1051 1.406 . S
C1049 C1054 1.261 . S
C1050 H1017 0.930 . S
C1050 N1052 1.325 . S
C1050 C1053 1.357 . S
C1051 H1019 0.928 . S
C1051 C1049 1.406 . S
C1051 N1052 1.261 . S
N1052 Co1003 2.214 . S
N1052 C1050 1.325 . S
N1052 C1051 1.261 . S
C1053 H1023 0.931 . S
C1053 C1050 1.357 . S
C1053 C1054 1.312 . S
C1054 H1025 0.930 . S
C1054 C1049 1.261 . S
C1054 C1053 1.312 . S
C1055 O1027 1.214 . S
C1055 O1035 1.234 . S
C1056 H1028 0.929 . S
C1056 C1059 1.391 . S
C1056 C1061 1.391 . S
C1057 H1029 0.929 . S
C1057 C1058 1.390 . S
C1057 N1060 1.391 . S
C1058 H1030 0.930 . S
C1058 C1057 1.390 . S
C1058 C1059 1.392 . S
C1059 H1031 0.929 . S
C1059 C1056 1.391 . S
C1059 C1058 1.392 . S
N1060 Co1004 2.257 . S
N1060 C1057 1.391 . S
N1060 C1061 1.388 . S
C1061 H1032 0.930 . S
C1061 C1056 1.391 . S
C1061 N1060 1.388 . S
Co1062 O1064 2.143 . S
Co1062 O1070 2.074 . S
Co1062 O1073 2.093 . S
Co1062 O1086 2.097 . S
Co1062 N1103 2.151 . S
Co1062 N1111 2.214 . S
Co1063 O1064 2.160 . S
Co1063 O1069 2.058 . S
Co1063 O1079 2.057 . S
Co1063 O1094 2.037 . S
Co1063 N1098 2.145 . S
Co1063 N1119 2.257 . S
O1064 Co1062 2.143 . S
O1064 Co1063 2.160 . S
C1065 O1066 1.278 . S
C1065 O1073 1.224 . S
O1066 C1065 1.278 . S
C1067 O1068 1.245 . S
C1067 O1079 1.232 . S
O1068 C1067 1.245 . S
O1069 Co1063 2.058 . S
O1069 C1095 1.269 . S
O1070 Co1062 2.074 . S
O1070 C1095 1.257 . S
H1071 C1096 0.930 . S
H1072 C1102 0.930 . S
O1073 Co1062 2.093 . S
O1073 C1065 1.224 . S
H1074 C1106 0.929 . S
H1075 C1108 0.930 . S
H1076 C1109 0.930 . S
H1077 C1107 0.929 . S
H1078 C1110 0.928 . S
O1079 Co1063 2.057 . S
O1079 C1067 1.232 . S
H1080 C1099 0.929 . S
H1081 C1100 0.929 . S
H1082 C1112 0.931 . S
H1083 C1104 0.929 . S
H1084 C1113 0.930 . S
H1085 C1105 0.931 . S
O1086 Co1062 2.097 . S
O1086 C1114 1.214 . S
H1087 C1115 0.929 . S
H1088 C1116 0.929 . S
H1089 C1117 0.930 . S
H1090 C1118 0.929 . S
H1091 C1120 0.930 . S
H1092 C1097 0.930 . S
H1093 C1101 0.930 . S
O1094 Co1063 2.037 . S
O1094 C1114 1.234 . S
C1095 O1069 1.269 . S
C1095 O1070 1.257 . S
C1096 H1071 0.930 . S
C1096 C1099 1.388 . S
C1096 C1101 1.418 . S
C1097 H1092 0.930 . S
C1097 C1100 1.404 . S
C1097 C1101 1.353 . S
N1098 Co1063 2.145 . S
N1098 C1099 1.397 . S
N1098 C1100 1.334 . S
C1099 H1080 0.929 . S
C1099 C1096 1.388 . S
C1099 N1098 1.397 . S
C1100 H1081 0.929 . S
C1100 C1097 1.404 . S
C1100 N1098 1.334 . S
C1101 H1093 0.930 . S
C1101 C1096 1.418 . S
C1101 C1097 1.353 . S
C1102 H1072 0.930 . S
C1102 N1103 1.330 . S
C1102 C1104 1.446 . S
N1103 Co1062 2.151 . S
N1103 C1102 1.330 . S
N1103 C1107 1.418 . S
C1104 H1083 0.929 . S
C1104 C1102 1.446 . S
C1104 C1105 1.332 . S
C1105 H1085 0.931 . S
C1105 C1104 1.332 . S
C1105 C1106 1.267 . S
C1106 H1074 0.929 . S
C1106 C1105 1.267 . S
C1106 C1107 1.251 . S
C1107 H1077 0.929 . S
C1107 N1103 1.418 . S
C1107 C1106 1.251 . S
C1108 H1075 0.930 . S
C1108 C1110 1.406 . S
C1108 C1113 1.261 . S
C1109 H1076 0.930 . S
C1109 N1111 1.325 . S
C1109 C1112 1.357 . S
C1110 H1078 0.928 . S
C1110 C1108 1.406 . S
C1110 N1111 1.261 . S
N1111 Co1062 2.214 . S
N1111 C1109 1.325 . S
N1111 C1110 1.261 . S
C1112 H1082 0.931 . S
C1112 C1109 1.357 . S
C1112 C1113 1.312 . S
C1113 H1084 0.930 . S
C1113 C1108 1.261 . S
C1113 C1112 1.312 . S
C1114 O1086 1.214 . S
C1114 O1094 1.234 . S
C1115 H1087 0.929 . S
C1115 C1118 1.391 . S
C1115 C1120 1.391 . S
C1116 H1088 0.929 . S
C1116 C1117 1.390 . S
C1116 N1119 1.391 . S
C1117 H1089 0.930 . S
C1117 C1116 1.390 . S
C1117 C1118 1.392 . S
C1118 H1090 0.929 . S
C1118 C1115 1.391 . S
C1118 C1117 1.392 . S
N1119 Co1063 2.257 . S
N1119 C1116 1.391 . S
N1119 C1120 1.388 . S
C1120 H1091 0.930 . S
C1120 C1115 1.391 . S
C1120 N1119 1.388 . S
Co1121 O1123 2.143 . S
Co1121 O1129 2.074 . S
Co1121 O1132 2.093 . S
Co1121 O1145 2.097 . S
Co1121 N1162 2.151 . S
Co1121 N1170 2.214 . S
Co1122 O1123 2.160 . S
Co1122 O1128 2.058 . S
Co1122 O1138 2.057 . S
Co1122 O1153 2.037 . S
Co1122 N1157 2.145 . S
Co1122 N1178 2.257 . S
O1123 Co1121 2.143 . S
O1123 Co1122 2.160 . S
C1124 O1125 1.278 . S
C1124 O1132 1.224 . S
O1125 C1124 1.278 . S
C1126 O1127 1.245 . S
C1126 O1138 1.232 . S
O1127 C1126 1.245 . S
O1128 Co1122 2.058 . S
O1128 C1154 1.269 . S
O1129 Co1121 2.074 . S
O1129 C1154 1.257 . S
H1130 C1155 0.930 . S
H1131 C1161 0.930 . S
O1132 Co1121 2.093 . S
O1132 C1124 1.224 . S
H1133 C1165 0.929 . S
H1134 C1167 0.930 . S
H1135 C1168 0.930 . S
H1136 C1166 0.929 . S
H1137 C1169 0.928 . S
O1138 Co1122 2.057 . S
O1138 C1126 1.232 . S
H1139 C1158 0.929 . S
H1140 C1159 0.929 . S
H1141 C1171 0.931 . S
H1142 C1163 0.929 . S
H1143 C1172 0.930 . S
H1144 C1164 0.931 . S
O1145 Co1121 2.097 . S
O1145 C1173 1.214 . S
H1146 C1174 0.929 . S
H1147 C1175 0.929 . S
H1148 C1176 0.930 . S
H1149 C1177 0.929 . S
H1150 C1179 0.930 . S
H1151 C1156 0.930 . S
H1152 C1160 0.930 . S
O1153 Co1122 2.037 . S
O1153 C1173 1.234 . S
C1154 O1128 1.269 . S
C1154 O1129 1.257 . S
C1155 H1130 0.930 . S
C1155 C1158 1.388 . S
C1155 C1160 1.418 . S
C1156 H1151 0.930 . S
C1156 C1159 1.404 . S
C1156 C1160 1.353 . S
N1157 Co1122 2.145 . S
N1157 C1158 1.397 . S
N1157 C1159 1.334 . S
C1158 H1139 0.929 . S
C1158 C1155 1.388 . S
C1158 N1157 1.397 . S
C1159 H1140 0.929 . S
C1159 C1156 1.404 . S
C1159 N1157 1.334 . S
C1160 H1152 0.930 . S
C1160 C1155 1.418 . S
C1160 C1156 1.353 . S
C1161 H1131 0.930 . S
C1161 N1162 1.330 . S
C1161 C1163 1.446 . S
N1162 Co1121 2.151 . S
N1162 C1161 1.330 . S
N1162 C1166 1.418 . S
C1163 H1142 0.929 . S
C1163 C1161 1.446 . S
C1163 C1164 1.332 . S
C1164 H1144 0.931 . S
C1164 C1163 1.332 . S
C1164 C1165 1.267 . S
C1165 H1133 0.929 . S
C1165 C1164 1.267 . S
C1165 C1166 1.251 . S
C1166 H1136 0.929 . S
C1166 N1162 1.418 . S
C1166 C1165 1.251 . S
C1167 H1134 0.930 . S
C1167 C1169 1.406 . S
C1167 C1172 1.261 . S
C1168 H1135 0.930 . S
C1168 N1170 1.325 . S
C1168 C1171 1.357 . S
C1169 H1137 0.928 . S
C1169 C1167 1.406 . S
C1169 N1170 1.261 . S
N1170 Co1121 2.214 . S
N1170 C1168 1.325 . S
N1170 C1169 1.261 . S
C1171 H1141 0.931 . S
C1171 C1168 1.357 . S
C1171 C1172 1.312 . S
C1172 H1143 0.930 . S
C1172 C1167 1.261 . S
C1172 C1171 1.312 . S
C1173 O1145 1.214 . S
C1173 O1153 1.234 . S
C1174 H1146 0.929 . S
C1174 C1177 1.391 . S
C1174 C1179 1.391 . S
C1175 H1147 0.929 . S
C1175 C1176 1.390 . S
C1175 N1178 1.391 . S
C1176 H1148 0.930 . S
C1176 C1175 1.390 . S
C1176 C1177 1.392 . S
C1177 H1149 0.929 . S
C1177 C1174 1.391 . S
C1177 C1176 1.392 . S
N1178 Co1122 2.257 . S
N1178 C1175 1.391 . S
N1178 C1179 1.388 . S
C1179 H1150 0.930 . S
C1179 C1174 1.391 . S
C1179 N1178 1.388 . S
Co1180 O1182 2.143 . S
Co1180 O1188 2.074 . S
Co1180 O1191 2.093 . S
Co1180 O1204 2.097 . S
Co1180 N1221 2.151 . S
Co1180 N1229 2.214 . S
Co1181 O1182 2.160 . S
Co1181 O1187 2.058 . S
Co1181 O1197 2.057 . S
Co1181 O1212 2.037 . S
Co1181 N1216 2.145 . S
Co1181 N1237 2.257 . S
O1182 Co1180 2.143 . S
O1182 Co1181 2.160 . S
C1183 O1184 1.278 . S
C1183 O1191 1.224 . S
O1184 C1183 1.278 . S
C1185 O1186 1.245 . S
C1185 O1197 1.232 . S
O1186 C1185 1.245 . S
O1187 Co1181 2.058 . S
O1187 C1213 1.269 . S
O1188 Co1180 2.074 . S
O1188 C1213 1.257 . S
H1189 C1214 0.930 . S
H1190 C1220 0.930 . S
O1191 Co1180 2.093 . S
O1191 C1183 1.224 . S
H1192 C1224 0.929 . S
H1193 C1226 0.930 . S
H1194 C1227 0.930 . S
H1195 C1225 0.929 . S
H1196 C1228 0.928 . S
O1197 Co1181 2.057 . S
O1197 C1185 1.232 . S
H1198 C1217 0.929 . S
H1199 C1218 0.929 . S
H1200 C1230 0.931 . S
H1201 C1222 0.929 . S
H1202 C1231 0.930 . S
H1203 C1223 0.931 . S
O1204 Co1180 2.097 . S
O1204 C1232 1.214 . S
H1205 C1233 0.929 . S
H1206 C1234 0.929 . S
H1207 C1235 0.930 . S
H1208 C1236 0.929 . S
H1209 C1238 0.930 . S
H1210 C1215 0.930 . S
H1211 C1219 0.930 . S
O1212 Co1181 2.037 . S
O1212 C1232 1.234 . S
C1213 O1187 1.269 . S
C1213 O1188 1.257 . S
C1214 H1189 0.930 . S
C1214 C1217 1.388 . S
C1214 C1219 1.418 . S
C1215 H1210 0.930 . S
C1215 C1218 1.404 . S
C1215 C1219 1.353 . S
N1216 Co1181 2.145 . S
N1216 C1217 1.397 . S
N1216 C1218 1.334 . S
C1217 H1198 0.929 . S
C1217 C1214 1.388 . S
C1217 N1216 1.397 . S
C1218 H1199 0.929 . S
C1218 C1215 1.404 . S
C1218 N1216 1.334 . S
C1219 H1211 0.930 . S
C1219 C1214 1.418 . S
C1219 C1215 1.353 . S
C1220 H1190 0.930 . S
C1220 N1221 1.330 . S
C1220 C1222 1.446 . S
N1221 Co1180 2.151 . S
N1221 C1220 1.330 . S
N1221 C1225 1.418 . S
C1222 H1201 0.929 . S
C1222 C1220 1.446 . S
C1222 C1223 1.332 . S
C1223 H1203 0.931 . S
C1223 C1222 1.332 . S
C1223 C1224 1.267 . S
C1224 H1192 0.929 . S
C1224 C1223 1.267 . S
C1224 C1225 1.251 . S
C1225 H1195 0.929 . S
C1225 N1221 1.418 . S
C1225 C1224 1.251 . S
C1226 H1193 0.930 . S
C1226 C1228 1.406 . S
C1226 C1231 1.261 . S
C1227 H1194 0.930 . S
C1227 N1229 1.325 . S
C1227 C1230 1.357 . S
C1228 H1196 0.928 . S
C1228 C1226 1.406 . S
C1228 N1229 1.261 . S
N1229 Co1180 2.214 . S
N1229 C1227 1.325 . S
N1229 C1228 1.261 . S
C1230 H1200 0.931 . S
C1230 C1227 1.357 . S
C1230 C1231 1.312 . S
C1231 H1202 0.930 . S
C1231 C1226 1.261 . S
C1231 C1230 1.312 . S
C1232 O1204 1.214 . S
C1232 O1212 1.234 . S
C1233 H1205 0.929 . S
C1233 C1236 1.391 . S
C1233 C1238 1.391 . S
C1234 H1206 0.929 . S
C1234 C1235 1.390 . S
C1234 N1237 1.391 . S
C1235 H1207 0.930 . S
C1235 C1234 1.390 . S
C1235 C1236 1.392 . S
C1236 H1208 0.929 . S
C1236 C1233 1.391 . S
C1236 C1235 1.392 . S
N1237 Co1181 2.257 . S
N1237 C1234 1.391 . S
N1237 C1238 1.388 . S
C1238 H1209 0.930 . S
C1238 C1233 1.391 . S
C1238 N1237 1.388 . S
Co1239 O1241 2.143 . S
Co1239 O1247 2.074 . S
Co1239 O1250 2.093 . S
Co1239 O1263 2.097 . S
Co1239 N1280 2.151 . S
Co1239 N1288 2.214 . S
Co1240 O1241 2.160 . S
Co1240 O1246 2.058 . S
Co1240 O1256 2.057 . S
Co1240 O1271 2.037 . S
Co1240 N1275 2.145 . S
Co1240 N1296 2.257 . S
O1241 Co1239 2.143 . S
O1241 Co1240 2.160 . S
C1242 O1243 1.278 . S
C1242 O1250 1.224 . S
O1243 C1242 1.278 . S
C1244 O1245 1.245 . S
C1244 O1256 1.232 . S
O1245 C1244 1.245 . S
O1246 Co1240 2.058 . S
O1246 C1272 1.269 . S
O1247 Co1239 2.074 . S
O1247 C1272 1.257 . S
H1248 C1273 0.930 . S
H1249 C1279 0.930 . S
O1250 Co1239 2.093 . S
O1250 C1242 1.224 . S
H1251 C1283 0.929 . S
H1252 C1285 0.930 . S
H1253 C1286 0.930 . S
H1254 C1284 0.929 . S
H1255 C1287 0.928 . S
O1256 Co1240 2.057 . S
O1256 C1244 1.232 . S
H1257 C1276 0.929 . S
H1258 C1277 0.929 . S
H1259 C1289 0.931 . S
H1260 C1281 0.929 . S
H1261 C1290 0.930 . S
H1262 C1282 0.931 . S
O1263 Co1239 2.097 . S
O1263 C1291 1.214 . S
H1264 C1292 0.929 . S
H1265 C1293 0.929 . S
H1266 C1294 0.930 . S
H1267 C1295 0.929 . S
H1268 C1297 0.930 . S
H1269 C1274 0.930 . S
H1270 C1278 0.930 . S
O1271 Co1240 2.037 . S
O1271 C1291 1.234 . S
C1272 O1246 1.269 . S
C1272 O1247 1.257 . S
C1273 H1248 0.930 . S
C1273 C1276 1.388 . S
C1273 C1278 1.418 . S
C1274 H1269 0.930 . S
C1274 C1277 1.404 . S
C1274 C1278 1.353 . S
N1275 Co1240 2.145 . S
N1275 C1276 1.397 . S
N1275 C1277 1.334 . S
C1276 H1257 0.929 . S
C1276 C1273 1.388 . S
C1276 N1275 1.397 . S
C1277 H1258 0.929 . S
C1277 C1274 1.404 . S
C1277 N1275 1.334 . S
C1278 H1270 0.930 . S
C1278 C1273 1.418 . S
C1278 C1274 1.353 . S
C1279 H1249 0.930 . S
C1279 N1280 1.330 . S
C1279 C1281 1.446 . S
N1280 Co1239 2.151 . S
N1280 C1279 1.330 . S
N1280 C1284 1.418 . S
C1281 H1260 0.929 . S
C1281 C1279 1.446 . S
C1281 C1282 1.332 . S
C1282 H1262 0.931 . S
C1282 C1281 1.332 . S
C1282 C1283 1.267 . S
C1283 H1251 0.929 . S
C1283 C1282 1.267 . S
C1283 C1284 1.251 . S
C1284 H1254 0.929 . S
C1284 N1280 1.418 . S
C1284 C1283 1.251 . S
C1285 H1252 0.930 . S
C1285 C1287 1.406 . S
C1285 C1290 1.261 . S
C1286 H1253 0.930 . S
C1286 N1288 1.325 . S
C1286 C1289 1.357 . S
C1287 H1255 0.928 . S
C1287 C1285 1.406 . S
C1287 N1288 1.261 . S
N1288 Co1239 2.214 . S
N1288 C1286 1.325 . S
N1288 C1287 1.261 . S
C1289 H1259 0.931 . S
C1289 C1286 1.357 . S
C1289 C1290 1.312 . S
C1290 H1261 0.930 . S
C1290 C1285 1.261 . S
C1290 C1289 1.312 . S
C1291 O1263 1.214 . S
C1291 O1271 1.234 . S
C1292 H1264 0.929 . S
C1292 C1295 1.391 . S
C1292 C1297 1.391 . S
C1293 H1265 0.929 . S
C1293 C1294 1.390 . S
C1293 N1296 1.391 . S
C1294 H1266 0.930 . S
C1294 C1293 1.390 . S
C1294 C1295 1.392 . S
C1295 H1267 0.929 . S
C1295 C1292 1.391 . S
C1295 C1294 1.392 . S
N1296 Co1240 2.257 . S
N1296 C1293 1.391 . S
N1296 C1297 1.388 . S
C1297 H1268 0.930 . S
C1297 C1292 1.391 . S
C1297 N1296 1.388 . S
Co1298 O1300 2.143 . S
Co1298 O1306 2.074 . S
Co1298 O1309 2.093 . S
Co1298 O1322 2.097 . S
Co1298 N1339 2.151 . S
Co1298 N1347 2.214 . S
Co1299 O1300 2.160 . S
Co1299 O1305 2.058 . S
Co1299 O1315 2.057 . S
Co1299 O1330 2.037 . S
Co1299 N1334 2.145 . S
Co1299 N1355 2.257 . S
O1300 Co1298 2.143 . S
O1300 Co1299 2.160 . S
C1301 O1302 1.278 . S
C1301 O1309 1.224 . S
O1302 C1301 1.278 . S
C1303 O1304 1.245 . S
C1303 O1315 1.232 . S
O1304 C1303 1.245 . S
O1305 Co1299 2.058 . S
O1305 C1331 1.269 . S
O1306 Co1298 2.074 . S
O1306 C1331 1.257 . S
H1307 C1332 0.930 . S
H1308 C1338 0.930 . S
O1309 Co1298 2.093 . S
O1309 C1301 1.224 . S
H1310 C1342 0.929 . S
H1311 C1344 0.930 . S
H1312 C1345 0.930 . S
H1313 C1343 0.929 . S
H1314 C1346 0.928 . S
O1315 Co1299 2.057 . S
O1315 C1303 1.232 . S
H1316 C1335 0.929 . S
H1317 C1336 0.929 . S
H1318 C1348 0.931 . S
H1319 C1340 0.929 . S
H1320 C1349 0.930 . S
H1321 C1341 0.931 . S
O1322 Co1298 2.097 . S
O1322 C1350 1.214 . S
H1323 C1351 0.929 . S
H1324 C1352 0.929 . S
H1325 C1353 0.930 . S
H1326 C1354 0.929 . S
H1327 C1356 0.930 . S
H1328 C1333 0.930 . S
H1329 C1337 0.930 . S
O1330 Co1299 2.037 . S
O1330 C1350 1.234 . S
C1331 O1305 1.269 . S
C1331 O1306 1.257 . S
C1332 H1307 0.930 . S
C1332 C1335 1.388 . S
C1332 C1337 1.418 . S
C1333 H1328 0.930 . S
C1333 C1336 1.404 . S
C1333 C1337 1.353 . S
N1334 Co1299 2.145 . S
N1334 C1335 1.397 . S
N1334 C1336 1.334 . S
C1335 H1316 0.929 . S
C1335 C1332 1.388 . S
C1335 N1334 1.397 . S
C1336 H1317 0.929 . S
C1336 C1333 1.404 . S
C1336 N1334 1.334 . S
C1337 H1329 0.930 . S
C1337 C1332 1.418 . S
C1337 C1333 1.353 . S
C1338 H1308 0.930 . S
C1338 N1339 1.330 . S
C1338 C1340 1.446 . S
N1339 Co1298 2.151 . S
N1339 C1338 1.330 . S
N1339 C1343 1.418 . S
C1340 H1319 0.929 . S
C1340 C1338 1.446 . S
C1340 C1341 1.332 . S
C1341 H1321 0.931 . S
C1341 C1340 1.332 . S
C1341 C1342 1.267 . S
C1342 H1310 0.929 . S
C1342 C1341 1.267 . S
C1342 C1343 1.251 . S
C1343 H1313 0.929 . S
C1343 N1339 1.418 . S
C1343 C1342 1.251 . S
C1344 H1311 0.930 . S
C1344 C1346 1.406 . S
C1344 C1349 1.261 . S
C1345 H1312 0.930 . S
C1345 N1347 1.325 . S
C1345 C1348 1.357 . S
C1346 H1314 0.928 . S
C1346 C1344 1.406 . S
C1346 N1347 1.261 . S
N1347 Co1298 2.214 . S
N1347 C1345 1.325 . S
N1347 C1346 1.261 . S
C1348 H1318 0.931 . S
C1348 C1345 1.357 . S
C1348 C1349 1.312 . S
C1349 H1320 0.930 . S
C1349 C1344 1.261 . S
C1349 C1348 1.312 . S
C1350 O1322 1.214 . S
C1350 O1330 1.234 . S
C1351 H1323 0.929 . S
C1351 C1354 1.391 . S
C1351 C1356 1.391 . S
C1352 H1324 0.929 . S
C1352 C1353 1.390 . S
C1352 N1355 1.391 . S
C1353 H1325 0.930 . S
C1353 C1352 1.390 . S
C1353 C1354 1.392 . S
C1354 H1326 0.929 . S
C1354 C1351 1.391 . S
C1354 C1353 1.392 . S
N1355 Co1299 2.257 . S
N1355 C1352 1.391 . S
N1355 C1356 1.388 . S
C1356 H1327 0.930 . S
C1356 C1351 1.391 . S
C1356 N1355 1.388 . S
Co1357 O1359 2.143 . S
Co1357 O1365 2.074 . S
Co1357 O1368 2.093 . S
Co1357 O1381 2.097 . S
Co1357 N1398 2.151 . S
Co1357 N1406 2.214 . S
Co1358 O1359 2.160 . S
Co1358 O1364 2.058 . S
Co1358 O1374 2.057 . S
Co1358 O1389 2.037 . S
Co1358 N1393 2.145 . S
Co1358 N1414 2.257 . S
O1359 Co1357 2.143 . S
O1359 Co1358 2.160 . S
C1360 O1361 1.278 . S
C1360 O1368 1.224 . S
O1361 C1360 1.278 . S
C1362 O1363 1.245 . S
C1362 O1374 1.232 . S
O1363 C1362 1.245 . S
O1364 Co1358 2.058 . S
O1364 C1390 1.269 . S
O1365 Co1357 2.074 . S
O1365 C1390 1.257 . S
H1366 C1391 0.930 . S
H1367 C1397 0.930 . S
O1368 Co1357 2.093 . S
O1368 C1360 1.224 . S
H1369 C1401 0.929 . S
H1370 C1403 0.930 . S
H1371 C1404 0.930 . S
H1372 C1402 0.929 . S
H1373 C1405 0.928 . S
O1374 Co1358 2.057 . S
O1374 C1362 1.232 . S
H1375 C1394 0.929 . S
H1376 C1395 0.929 . S
H1377 C1407 0.931 . S
H1378 C1399 0.929 . S
H1379 C1408 0.930 . S
H1380 C1400 0.931 . S
O1381 Co1357 2.097 . S
O1381 C1409 1.214 . S
H1382 C1410 0.929 . S
H1383 C1411 0.929 . S
H1384 C1412 0.930 . S
H1385 C1413 0.929 . S
H1386 C1415 0.930 . S
H1387 C1392 0.930 . S
H1388 C1396 0.930 . S
O1389 Co1358 2.037 . S
O1389 C1409 1.234 . S
C1390 O1364 1.269 . S
C1390 O1365 1.257 . S
C1391 H1366 0.930 . S
C1391 C1394 1.388 . S
C1391 C1396 1.418 . S
C1392 H1387 0.930 . S
C1392 C1395 1.404 . S
C1392 C1396 1.353 . S
N1393 Co1358 2.145 . S
N1393 C1394 1.397 . S
N1393 C1395 1.334 . S
C1394 H1375 0.929 . S
C1394 C1391 1.388 . S
C1394 N1393 1.397 . S
C1395 H1376 0.929 . S
C1395 C1392 1.404 . S
C1395 N1393 1.334 . S
C1396 H1388 0.930 . S
C1396 C1391 1.418 . S
C1396 C1392 1.353 . S
C1397 H1367 0.930 . S
C1397 N1398 1.330 . S
C1397 C1399 1.446 . S
N1398 Co1357 2.151 . S
N1398 C1397 1.330 . S
N1398 C1402 1.418 . S
C1399 H1378 0.929 . S
C1399 C1397 1.446 . S
C1399 C1400 1.332 . S
C1400 H1380 0.931 . S
C1400 C1399 1.332 . S
C1400 C1401 1.267 . S
C1401 H1369 0.929 . S
C1401 C1400 1.267 . S
C1401 C1402 1.251 . S
C1402 H1372 0.929 . S
C1402 N1398 1.418 . S
C1402 C1401 1.251 . S
C1403 H1370 0.930 . S
C1403 C1405 1.406 . S
C1403 C1408 1.261 . S
C1404 H1371 0.930 . S
C1404 N1406 1.325 . S
C1404 C1407 1.357 . S
C1405 H1373 0.928 . S
C1405 C1403 1.406 . S
C1405 N1406 1.261 . S
N1406 Co1357 2.214 . S
N1406 C1404 1.325 . S
N1406 C1405 1.261 . S
C1407 H1377 0.931 . S
C1407 C1404 1.357 . S
C1407 C1408 1.312 . S
C1408 H1379 0.930 . S
C1408 C1403 1.261 . S
C1408 C1407 1.312 . S
C1409 O1381 1.214 . S
C1409 O1389 1.234 . S
C1410 H1382 0.929 . S
C1410 C1413 1.391 . S
C1410 C1415 1.391 . S
C1411 H1383 0.929 . S
C1411 C1412 1.390 . S
C1411 N1414 1.391 . S
C1412 H1384 0.930 . S
C1412 C1411 1.390 . S
C1412 C1413 1.392 . S
C1413 H1385 0.929 . S
C1413 C1410 1.391 . S
C1413 C1412 1.392 . S
N1414 Co1358 2.257 . S
N1414 C1411 1.391 . S
N1414 C1415 1.388 . S
C1415 H1386 0.930 . S
C1415 C1410 1.391 . S
C1415 N1414 1.388 . S
Co1416 O1418 2.143 . S
Co1416 O1424 2.074 . S
Co1416 O1427 2.093 . S
Co1416 O1440 2.097 . S
Co1416 N1457 2.151 . S
Co1416 N1465 2.214 . S
Co1417 O1418 2.160 . S
Co1417 O1423 2.058 . S
Co1417 O1433 2.057 . S
Co1417 O1448 2.037 . S
Co1417 N1452 2.145 . S
Co1417 N1473 2.257 . S
O1418 Co1416 2.143 . S
O1418 Co1417 2.160 . S
C1419 O1420 1.278 . S
C1419 O1427 1.224 . S
O1420 C1419 1.278 . S
C1421 O1422 1.245 . S
C1421 O1433 1.232 . S
O1422 C1421 1.245 . S
O1423 Co1417 2.058 . S
O1423 C1449 1.269 . S
O1424 Co1416 2.074 . S
O1424 C1449 1.257 . S
H1425 C1450 0.930 . S
H1426 C1456 0.930 . S
O1427 Co1416 2.093 . S
O1427 C1419 1.224 . S
H1428 C1460 0.929 . S
H1429 C1462 0.930 . S
H1430 C1463 0.930 . S
H1431 C1461 0.929 . S
H1432 C1464 0.928 . S
O1433 Co1417 2.057 . S
O1433 C1421 1.232 . S
H1434 C1453 0.929 . S
H1435 C1454 0.929 . S
H1436 C1466 0.931 . S
H1437 C1458 0.929 . S
H1438 C1467 0.930 . S
H1439 C1459 0.931 . S
O1440 Co1416 2.097 . S
O1440 C1468 1.214 . S
H1441 C1469 0.929 . S
H1442 C1470 0.929 . S
H1443 C1471 0.930 . S
H1444 C1472 0.929 . S
H1445 C1474 0.930 . S
H1446 C1451 0.930 . S
H1447 C1455 0.930 . S
O1448 Co1417 2.037 . S
O1448 C1468 1.234 . S
C1449 O1423 1.269 . S
C1449 O1424 1.257 . S
C1450 H1425 0.930 . S
C1450 C1453 1.388 . S
C1450 C1455 1.418 . S
C1451 H1446 0.930 . S
C1451 C1454 1.404 . S
C1451 C1455 1.353 . S
N1452 Co1417 2.145 . S
N1452 C1453 1.397 . S
N1452 C1454 1.334 . S
C1453 H1434 0.929 . S
C1453 C1450 1.388 . S
C1453 N1452 1.397 . S
C1454 H1435 0.929 . S
C1454 C1451 1.404 . S
C1454 N1452 1.334 . S
C1455 H1447 0.930 . S
C1455 C1450 1.418 . S
C1455 C1451 1.353 . S
C1456 H1426 0.930 . S
C1456 N1457 1.330 . S
C1456 C1458 1.446 . S
N1457 Co1416 2.151 . S
N1457 C1456 1.330 . S
N1457 C1461 1.418 . S
C1458 H1437 0.929 . S
C1458 C1456 1.446 . S
C1458 C1459 1.332 . S
C1459 H1439 0.931 . S
C1459 C1458 1.332 . S
C1459 C1460 1.267 . S
C1460 H1428 0.929 . S
C1460 C1459 1.267 . S
C1460 C1461 1.251 . S
C1461 H1431 0.929 . S
C1461 N1457 1.418 . S
C1461 C1460 1.251 . S
C1462 H1429 0.930 . S
C1462 C1464 1.406 . S
C1462 C1467 1.261 . S
C1463 H1430 0.930 . S
C1463 N1465 1.325 . S
C1463 C1466 1.357 . S
C1464 H1432 0.928 . S
C1464 C1462 1.406 . S
C1464 N1465 1.261 . S
N1465 Co1416 2.214 . S
N1465 C1463 1.325 . S
N1465 C1464 1.261 . S
C1466 H1436 0.931 . S
C1466 C1463 1.357 . S
C1466 C1467 1.312 . S
C1467 H1438 0.930 . S
C1467 C1462 1.261 . S
C1467 C1466 1.312 . S
C1468 O1440 1.214 . S
C1468 O1448 1.234 . S
C1469 H1441 0.929 . S
C1469 C1472 1.391 . S
C1469 C1474 1.391 . S
C1470 H1442 0.929 . S
C1470 C1471 1.390 . S
C1470 N1473 1.391 . S
C1471 H1443 0.930 . S
C1471 C1470 1.390 . S
C1471 C1472 1.392 . S
C1472 H1444 0.929 . S
C1472 C1469 1.391 . S
C1472 C1471 1.392 . S
N1473 Co1417 2.257 . S
N1473 C1470 1.391 . S
N1473 C1474 1.388 . S
C1474 H1445 0.930 . S
C1474 C1469 1.391 . S
C1474 N1473 1.388 . S
Co1475 O1477 2.143 . S
Co1475 O1483 2.074 . S
Co1475 O1486 2.093 . S
Co1475 O1499 2.097 . S
Co1475 N1516 2.151 . S
Co1475 N1524 2.214 . S
Co1476 O1477 2.160 . S
Co1476 O1482 2.058 . S
Co1476 O1492 2.057 . S
Co1476 O1507 2.037 . S
Co1476 N1511 2.145 . S
Co1476 N1532 2.257 . S
O1477 Co1475 2.143 . S
O1477 Co1476 2.160 . S
C1478 O1479 1.278 . S
C1478 O1486 1.224 . S
O1479 C1478 1.278 . S
C1480 O1481 1.245 . S
C1480 O1492 1.232 . S
O1481 C1480 1.245 . S
O1482 Co1476 2.058 . S
O1482 C1508 1.269 . S
O1483 Co1475 2.074 . S
O1483 C1508 1.257 . S
H1484 C1509 0.930 . S
H1485 C1515 0.930 . S
O1486 Co1475 2.093 . S
O1486 C1478 1.224 . S
H1487 C1519 0.929 . S
H1488 C1521 0.930 . S
H1489 C1522 0.930 . S
H1490 C1520 0.929 . S
H1491 C1523 0.928 . S
O1492 Co1476 2.057 . S
O1492 C1480 1.232 . S
H1493 C1512 0.929 . S
H1494 C1513 0.929 . S
H1495 C1525 0.931 . S
H1496 C1517 0.929 . S
H1497 C1526 0.930 . S
H1498 C1518 0.931 . S
O1499 Co1475 2.097 . S
O1499 C1527 1.214 . S
H1500 C1528 0.929 . S
H1501 C1529 0.929 . S
H1502 C1530 0.930 . S
H1503 C1531 0.929 . S
H1504 C1533 0.930 . S
H1505 C1510 0.930 . S
H1506 C1514 0.930 . S
O1507 Co1476 2.037 . S
O1507 C1527 1.234 . S
C1508 O1482 1.269 . S
C1508 O1483 1.257 . S
C1509 H1484 0.930 . S
C1509 C1512 1.388 . S
C1509 C1514 1.418 . S
C1510 H1505 0.930 . S
C1510 C1513 1.404 . S
C1510 C1514 1.353 . S
N1511 Co1476 2.145 . S
N1511 C1512 1.397 . S
N1511 C1513 1.334 . S
C1512 H1493 0.929 . S
C1512 C1509 1.388 . S
C1512 N1511 1.397 . S
C1513 H1494 0.929 . S
C1513 C1510 1.404 . S
C1513 N1511 1.334 . S
C1514 H1506 0.930 . S
C1514 C1509 1.418 . S
C1514 C1510 1.353 . S
C1515 H1485 0.930 . S
C1515 N1516 1.330 . S
C1515 C1517 1.446 . S
N1516 Co1475 2.151 . S
N1516 C1515 1.330 . S
N1516 C1520 1.418 . S
C1517 H1496 0.929 . S
C1517 C1515 1.446 . S
C1517 C1518 1.332 . S
C1518 H1498 0.931 . S
C1518 C1517 1.332 . S
C1518 C1519 1.267 . S
C1519 H1487 0.929 . S
C1519 C1518 1.267 . S
C1519 C1520 1.251 . S
C1520 H1490 0.929 . S
C1520 N1516 1.418 . S
C1520 C1519 1.251 . S
C1521 H1488 0.930 . S
C1521 C1523 1.406 . S
C1521 C1526 1.261 . S
C1522 H1489 0.930 . S
C1522 N1524 1.325 . S
C1522 C1525 1.357 . S
C1523 H1491 0.928 . S
C1523 C1521 1.406 . S
C1523 N1524 1.261 . S
N1524 Co1475 2.214 . S
N1524 C1522 1.325 . S
N1524 C1523 1.261 . S
C1525 H1495 0.931 . S
C1525 C1522 1.357 . S
C1525 C1526 1.312 . S
C1526 H1497 0.930 . S
C1526 C1521 1.261 . S
C1526 C1525 1.312 . S
C1527 O1499 1.214 . S
C1527 O1507 1.234 . S
C1528 H1500 0.929 . S
C1528 C1531 1.391 . S
C1528 C1533 1.391 . S
C1529 H1501 0.929 . S
C1529 C1530 1.390 . S
C1529 N1532 1.391 . S
C1530 H1502 0.930 . S
C1530 C1529 1.390 . S
C1530 C1531 1.392 . S
C1531 H1503 0.929 . S
C1531 C1528 1.391 . S
C1531 C1530 1.392 . S
N1532 Co1476 2.257 . S
N1532 C1529 1.391 . S
N1532 C1533 1.388 . S
C1533 H1504 0.930 . S
C1533 C1528 1.391 . S
C1533 N1532 1.388 . S
Co1534 O1536 2.143 . S
Co1534 O1542 2.074 . S
Co1534 O1545 2.093 . S
Co1534 O1558 2.097 . S
Co1534 N1575 2.151 . S
Co1534 N1583 2.214 . S
Co1535 O1536 2.160 . S
Co1535 O1541 2.058 . S
Co1535 O1551 2.057 . S
Co1535 O1566 2.037 . S
Co1535 N1570 2.145 . S
Co1535 N1591 2.257 . S
O1536 Co1534 2.143 . S
O1536 Co1535 2.160 . S
C1537 O1538 1.278 . S
C1537 O1545 1.224 . S
O1538 C1537 1.278 . S
C1539 O1540 1.245 . S
C1539 O1551 1.232 . S
O1540 C1539 1.245 . S
O1541 Co1535 2.058 . S
O1541 C1567 1.269 . S
O1542 Co1534 2.074 . S
O1542 C1567 1.257 . S
H1543 C1568 0.930 . S
H1544 C1574 0.930 . S
O1545 Co1534 2.093 . S
O1545 C1537 1.224 . S
H1546 C1578 0.929 . S
H1547 C1580 0.930 . S
H1548 C1581 0.930 . S
H1549 C1579 0.929 . S
H1550 C1582 0.928 . S
O1551 Co1535 2.057 . S
O1551 C1539 1.232 . S
H1552 C1571 0.929 . S
H1553 C1572 0.929 . S
H1554 C1584 0.931 . S
H1555 C1576 0.929 . S
H1556 C1585 0.930 . S
H1557 C1577 0.931 . S
O1558 Co1534 2.097 . S
O1558 C1586 1.214 . S
H1559 C1587 0.929 . S
H1560 C1588 0.929 . S
H1561 C1589 0.930 . S
H1562 C1590 0.929 . S
H1563 C1592 0.930 . S
H1564 C1569 0.930 . S
H1565 C1573 0.930 . S
O1566 Co1535 2.037 . S
O1566 C1586 1.234 . S
C1567 O1541 1.269 . S
C1567 O1542 1.257 . S
C1568 H1543 0.930 . S
C1568 C1571 1.388 . S
C1568 C1573 1.418 . S
C1569 H1564 0.930 . S
C1569 C1572 1.404 . S
C1569 C1573 1.353 . S
N1570 Co1535 2.145 . S
N1570 C1571 1.397 . S
N1570 C1572 1.334 . S
C1571 H1552 0.929 . S
C1571 C1568 1.388 . S
C1571 N1570 1.397 . S
C1572 H1553 0.929 . S
C1572 C1569 1.404 . S
C1572 N1570 1.334 . S
C1573 H1565 0.930 . S
C1573 C1568 1.418 . S
C1573 C1569 1.353 . S
C1574 H1544 0.930 . S
C1574 N1575 1.330 . S
C1574 C1576 1.446 . S
N1575 Co1534 2.151 . S
N1575 C1574 1.330 . S
N1575 C1579 1.418 . S
C1576 H1555 0.929 . S
C1576 C1574 1.446 . S
C1576 C1577 1.332 . S
C1577 H1557 0.931 . S
C1577 C1576 1.332 . S
C1577 C1578 1.267 . S
C1578 H1546 0.929 . S
C1578 C1577 1.267 . S
C1578 C1579 1.251 . S
C1579 H1549 0.929 . S
C1579 N1575 1.418 . S
C1579 C1578 1.251 . S
C1580 H1547 0.930 . S
C1580 C1582 1.406 . S
C1580 C1585 1.261 . S
C1581 H1548 0.930 . S
C1581 N1583 1.325 . S
C1581 C1584 1.357 . S
C1582 H1550 0.928 . S
C1582 C1580 1.406 . S
C1582 N1583 1.261 . S
N1583 Co1534 2.214 . S
N1583 C1581 1.325 . S
N1583 C1582 1.261 . S
C1584 H1554 0.931 . S
C1584 C1581 1.357 . S
C1584 C1585 1.312 . S
C1585 H1556 0.930 . S
C1585 C1580 1.261 . S
C1585 C1584 1.312 . S
C1586 O1558 1.214 . S
C1586 O1566 1.234 . S
C1587 H1559 0.929 . S
C1587 C1590 1.391 . S
C1587 C1592 1.391 . S
C1588 H1560 0.929 . S
C1588 C1589 1.390 . S
C1588 N1591 1.391 . S
C1589 H1561 0.930 . S
C1589 C1588 1.390 . S
C1589 C1590 1.392 . S
C1590 H1562 0.929 . S
C1590 C1587 1.391 . S
C1590 C1589 1.392 . S
N1591 Co1535 2.257 . S
N1591 C1588 1.391 . S
N1591 C1592 1.388 . S
C1592 H1563 0.930 . S
C1592 C1587 1.391 . S
C1592 N1591 1.388 . S
Co1593 O1595 2.143 . S
Co1593 O1601 2.074 . S
Co1593 O1604 2.093 . S
Co1593 O1617 2.097 . S
Co1593 N1634 2.151 . S
Co1593 N1642 2.214 . S
Co1594 O1595 2.160 . S
Co1594 O1600 2.058 . S
Co1594 O1610 2.057 . S
Co1594 O1625 2.037 . S
Co1594 N1629 2.145 . S
Co1594 N1650 2.257 . S
O1595 Co1593 2.143 . S
O1595 Co1594 2.160 . S
C1596 O1597 1.278 . S
C1596 O1604 1.224 . S
O1597 C1596 1.278 . S
C1598 O1599 1.245 . S
C1598 O1610 1.232 . S
O1599 C1598 1.245 . S
O1600 Co1594 2.058 . S
O1600 C1626 1.269 . S
O1601 Co1593 2.074 . S
O1601 C1626 1.257 . S
H1602 C1627 0.930 . S
H1603 C1633 0.930 . S
O1604 Co1593 2.093 . S
O1604 C1596 1.224 . S
H1605 C1637 0.929 . S
H1606 C1639 0.930 . S
H1607 C1640 0.930 . S
H1608 C1638 0.929 . S
H1609 C1641 0.928 . S
O1610 Co1594 2.057 . S
O1610 C1598 1.232 . S
H1611 C1630 0.929 . S
H1612 C1631 0.929 . S
H1613 C1643 0.931 . S
H1614 C1635 0.929 . S
H1615 C1644 0.930 . S
H1616 C1636 0.931 . S
O1617 Co1593 2.097 . S
O1617 C1645 1.214 . S
H1618 C1646 0.929 . S
H1619 C1647 0.929 . S
H1620 C1648 0.930 . S
H1621 C1649 0.929 . S
H1622 C1651 0.930 . S
H1623 C1628 0.930 . S
H1624 C1632 0.930 . S
O1625 Co1594 2.037 . S
O1625 C1645 1.234 . S
C1626 O1600 1.269 . S
C1626 O1601 1.257 . S
C1627 H1602 0.930 . S
C1627 C1630 1.388 . S
C1627 C1632 1.418 . S
C1628 H1623 0.930 . S
C1628 C1631 1.404 . S
C1628 C1632 1.353 . S
N1629 Co1594 2.145 . S
N1629 C1630 1.397 . S
N1629 C1631 1.334 . S
C1630 H1611 0.929 . S
C1630 C1627 1.388 . S
C1630 N1629 1.397 . S
C1631 H1612 0.929 . S
C1631 C1628 1.404 . S
C1631 N1629 1.334 . S
C1632 H1624 0.930 . S
C1632 C1627 1.418 . S
C1632 C1628 1.353 . S
C1633 H1603 0.930 . S
C1633 N1634 1.330 . S
C1633 C1635 1.446 . S
N1634 Co1593 2.151 . S
N1634 C1633 1.330 . S
N1634 C1638 1.418 . S
C1635 H1614 0.929 . S
C1635 C1633 1.446 . S
C1635 C1636 1.332 . S
C1636 H1616 0.931 . S
C1636 C1635 1.332 . S
C1636 C1637 1.267 . S
C1637 H1605 0.929 . S
C1637 C1636 1.267 . S
C1637 C1638 1.251 . S
C1638 H1608 0.929 . S
C1638 N1634 1.418 . S
C1638 C1637 1.251 . S
C1639 H1606 0.930 . S
C1639 C1641 1.406 . S
C1639 C1644 1.261 . S
C1640 H1607 0.930 . S
C1640 N1642 1.325 . S
C1640 C1643 1.357 . S
C1641 H1609 0.928 . S
C1641 C1639 1.406 . S
C1641 N1642 1.261 . S
N1642 Co1593 2.214 . S
N1642 C1640 1.325 . S
N1642 C1641 1.261 . S
C1643 H1613 0.931 . S
C1643 C1640 1.357 . S
C1643 C1644 1.312 . S
C1644 H1615 0.930 . S
C1644 C1639 1.261 . S
C1644 C1643 1.312 . S
C1645 O1617 1.214 . S
C1645 O1625 1.234 . S
C1646 H1618 0.929 . S
C1646 C1649 1.391 . S
C1646 C1651 1.391 . S
C1647 H1619 0.929 . S
C1647 C1648 1.390 . S
C1647 N1650 1.391 . S
C1648 H1620 0.930 . S
C1648 C1647 1.390 . S
C1648 C1649 1.392 . S
C1649 H1621 0.929 . S
C1649 C1646 1.391 . S
C1649 C1648 1.392 . S
N1650 Co1594 2.257 . S
N1650 C1647 1.391 . S
N1650 C1651 1.388 . S
C1651 H1622 0.930 . S
C1651 C1646 1.391 . S
C1651 N1650 1.388 . S
Co1652 O1654 2.143 . S
Co1652 O1660 2.074 . S
Co1652 O1663 2.093 . S
Co1652 O1676 2.097 . S
Co1652 N1693 2.151 . S
Co1652 N1701 2.214 . S
Co1653 O1654 2.160 . S
Co1653 O1659 2.058 . S
Co1653 O1669 2.057 . S
Co1653 O1684 2.037 . S
Co1653 N1688 2.145 . S
Co1653 N1709 2.257 . S
O1654 Co1652 2.143 . S
O1654 Co1653 2.160 . S
C1655 O1656 1.278 . S
C1655 O1663 1.224 . S
O1656 C1655 1.278 . S
C1657 O1658 1.245 . S
C1657 O1669 1.232 . S
O1658 C1657 1.245 . S
O1659 Co1653 2.058 . S
O1659 C1685 1.269 . S
O1660 Co1652 2.074 . S
O1660 C1685 1.257 . S
H1661 C1686 0.930 . S
H1662 C1692 0.930 . S
O1663 Co1652 2.093 . S
O1663 C1655 1.224 . S
H1664 C1696 0.929 . S
H1665 C1698 0.930 . S
H1666 C1699 0.930 . S
H1667 C1697 0.929 . S
H1668 C1700 0.928 . S
O1669 Co1653 2.057 . S
O1669 C1657 1.232 . S
H1670 C1689 0.929 . S
H1671 C1690 0.929 . S
H1672 C1702 0.931 . S
H1673 C1694 0.929 . S
H1674 C1703 0.930 . S
H1675 C1695 0.931 . S
O1676 Co1652 2.097 . S
O1676 C1704 1.214 . S
H1677 C1705 0.929 . S
H1678 C1706 0.929 . S
H1679 C1707 0.930 . S
H1680 C1708 0.929 . S
H1681 C1710 0.930 . S
H1682 C1687 0.930 . S
H1683 C1691 0.930 . S
O1684 Co1653 2.037 . S
O1684 C1704 1.234 . S
C1685 O1659 1.269 . S
C1685 O1660 1.257 . S
C1686 H1661 0.930 . S
C1686 C1689 1.388 . S
C1686 C1691 1.418 . S
C1687 H1682 0.930 . S
C1687 C1690 1.404 . S
C1687 C1691 1.353 . S
N1688 Co1653 2.145 . S
N1688 C1689 1.397 . S
N1688 C1690 1.334 . S
C1689 H1670 0.929 . S
C1689 C1686 1.388 . S
C1689 N1688 1.397 . S
C1690 H1671 0.929 . S
C1690 C1687 1.404 . S
C1690 N1688 1.334 . S
C1691 H1683 0.930 . S
C1691 C1686 1.418 . S
C1691 C1687 1.353 . S
C1692 H1662 0.930 . S
C1692 N1693 1.330 . S
C1692 C1694 1.446 . S
N1693 Co1652 2.151 . S
N1693 C1692 1.330 . S
N1693 C1697 1.418 . S
C1694 H1673 0.929 . S
C1694 C1692 1.446 . S
C1694 C1695 1.332 . S
C1695 H1675 0.931 . S
C1695 C1694 1.332 . S
C1695 C1696 1.267 . S
C1696 H1664 0.929 . S
C1696 C1695 1.267 . S
C1696 C1697 1.251 . S
C1697 H1667 0.929 . S
C1697 N1693 1.418 . S
C1697 C1696 1.251 . S
C1698 H1665 0.930 . S
C1698 C1700 1.406 . S
C1698 C1703 1.261 . S
C1699 H1666 0.930 . S
C1699 N1701 1.325 . S
C1699 C1702 1.357 . S
C1700 H1668 0.928 . S
C1700 C1698 1.406 . S
C1700 N1701 1.261 . S
N1701 Co1652 2.214 . S
N1701 C1699 1.325 . S
N1701 C1700 1.261 . S
C1702 H1672 0.931 . S
C1702 C1699 1.357 . S
C1702 C1703 1.312 . S
C1703 H1674 0.930 . S
C1703 C1698 1.261 . S
C1703 C1702 1.312 . S
C1704 O1676 1.214 . S
C1704 O1684 1.234 . S
C1705 H1677 0.929 . S
C1705 C1708 1.391 . S
C1705 C1710 1.391 . S
C1706 H1678 0.929 . S
C1706 C1707 1.390 . S
C1706 N1709 1.391 . S
C1707 H1679 0.930 . S
C1707 C1706 1.390 . S
C1707 C1708 1.392 . S
C1708 H1680 0.929 . S
C1708 C1705 1.391 . S
C1708 C1707 1.392 . S
N1709 Co1653 2.257 . S
N1709 C1706 1.391 . S
N1709 C1710 1.388 . S
C1710 H1681 0.930 . S
C1710 C1705 1.391 . S
C1710 N1709 1.388 . S
Co1711 O1713 2.143 . S
Co1711 O1719 2.074 . S
Co1711 O1722 2.093 . S
Co1711 O1735 2.097 . S
Co1711 N1752 2.151 . S
Co1711 N1760 2.214 . S
Co1712 O1713 2.160 . S
Co1712 O1718 2.058 . S
Co1712 O1728 2.057 . S
Co1712 O1743 2.037 . S
Co1712 N1747 2.145 . S
Co1712 N1768 2.257 . S
O1713 Co1711 2.143 . S
O1713 Co1712 2.160 . S
C1714 O1715 1.278 . S
C1714 O1722 1.224 . S
O1715 C1714 1.278 . S
C1716 O1717 1.245 . S
C1716 O1728 1.232 . S
O1717 C1716 1.245 . S
O1718 Co1712 2.058 . S
O1718 C1744 1.269 . S
O1719 Co1711 2.074 . S
O1719 C1744 1.257 . S
H1720 C1745 0.930 . S
H1721 C1751 0.930 . S
O1722 Co1711 2.093 . S
O1722 C1714 1.224 . S
H1723 C1755 0.929 . S
H1724 C1757 0.930 . S
H1725 C1758 0.930 . S
H1726 C1756 0.929 . S
H1727 C1759 0.928 . S
O1728 Co1712 2.057 . S
O1728 C1716 1.232 . S
H1729 C1748 0.929 . S
H1730 C1749 0.929 . S
H1731 C1761 0.931 . S
H1732 C1753 0.929 . S
H1733 C1762 0.930 . S
H1734 C1754 0.931 . S
O1735 Co1711 2.097 . S
O1735 C1763 1.214 . S
H1736 C1764 0.929 . S
H1737 C1765 0.929 . S
H1738 C1766 0.930 . S
H1739 C1767 0.929 . S
H1740 C1769 0.930 . S
H1741 C1746 0.930 . S
H1742 C1750 0.930 . S
O1743 Co1712 2.037 . S
O1743 C1763 1.234 . S
C1744 O1718 1.269 . S
C1744 O1719 1.257 . S
C1745 H1720 0.930 . S
C1745 C1748 1.388 . S
C1745 C1750 1.418 . S
C1746 H1741 0.930 . S
C1746 C1749 1.404 . S
C1746 C1750 1.353 . S
N1747 Co1712 2.145 . S
N1747 C1748 1.397 . S
N1747 C1749 1.334 . S
C1748 H1729 0.929 . S
C1748 C1745 1.388 . S
C1748 N1747 1.397 . S
C1749 H1730 0.929 . S
C1749 C1746 1.404 . S
C1749 N1747 1.334 . S
C1750 H1742 0.930 . S
C1750 C1745 1.418 . S
C1750 C1746 1.353 . S
C1751 H1721 0.930 . S
C1751 N1752 1.330 . S
C1751 C1753 1.446 . S
N1752 Co1711 2.151 . S
N1752 C1751 1.330 . S
N1752 C1756 1.418 . S
C1753 H1732 0.929 . S
C1753 C1751 1.446 . S
C1753 C1754 1.332 . S
C1754 H1734 0.931 . S
C1754 C1753 1.332 . S
C1754 C1755 1.267 . S
C1755 H1723 0.929 . S
C1755 C1754 1.267 . S
C1755 C1756 1.251 . S
C1756 H1726 0.929 . S
C1756 N1752 1.418 . S
C1756 C1755 1.251 . S
C1757 H1724 0.930 . S
C1757 C1759 1.406 . S
C1757 C1762 1.261 . S
C1758 H1725 0.930 . S
C1758 N1760 1.325 . S
C1758 C1761 1.357 . S
C1759 H1727 0.928 . S
C1759 C1757 1.406 . S
C1759 N1760 1.261 . S
N1760 Co1711 2.214 . S
N1760 C1758 1.325 . S
N1760 C1759 1.261 . S
C1761 H1731 0.931 . S
C1761 C1758 1.357 . S
C1761 C1762 1.312 . S
C1762 H1733 0.930 . S
C1762 C1757 1.261 . S
C1762 C1761 1.312 . S
C1763 O1735 1.214 . S
C1763 O1743 1.234 . S
C1764 H1736 0.929 . S
C1764 C1767 1.391 . S
C1764 C1769 1.391 . S
C1765 H1737 0.929 . S
C1765 C1766 1.390 . S
C1765 N1768 1.391 . S
C1766 H1738 0.930 . S
C1766 C1765 1.390 . S
C1766 C1767 1.392 . S
C1767 H1739 0.929 . S
C1767 C1764 1.391 . S
C1767 C1766 1.392 . S
N1768 Co1712 2.257 . S
N1768 C1765 1.391 . S
N1768 C1769 1.388 . S
C1769 H1740 0.930 . S
C1769 C1764 1.391 . S
C1769 N1768 1.388 . S
Co1770 O1772 2.143 . S
Co1770 O1778 2.074 . S
Co1770 O1781 2.093 . S
Co1770 O1794 2.097 . S
Co1770 N1811 2.151 . S
Co1770 N1819 2.214 . S
Co1771 O1772 2.160 . S
Co1771 O1777 2.058 . S
Co1771 O1787 2.057 . S
Co1771 O1802 2.037 . S
Co1771 N1806 2.145 . S
Co1771 N1827 2.257 . S
O1772 Co1770 2.143 . S
O1772 Co1771 2.160 . S
C1773 O1774 1.278 . S
C1773 O1781 1.224 . S
O1774 C1773 1.278 . S
C1775 O1776 1.245 . S
C1775 O1787 1.232 . S
O1776 C1775 1.245 . S
O1777 Co1771 2.058 . S
O1777 C1803 1.269 . S
O1778 Co1770 2.074 . S
O1778 C1803 1.257 . S
H1779 C1804 0.930 . S
H1780 C1810 0.930 . S
O1781 Co1770 2.093 . S
O1781 C1773 1.224 . S
H1782 C1814 0.929 . S
H1783 C1816 0.930 . S
H1784 C1817 0.930 . S
H1785 C1815 0.929 . S
H1786 C1818 0.928 . S
O1787 Co1771 2.057 . S
O1787 C1775 1.232 . S
H1788 C1807 0.929 . S
H1789 C1808 0.929 . S
H1790 C1820 0.931 . S
H1791 C1812 0.929 . S
H1792 C1821 0.930 . S
H1793 C1813 0.931 . S
O1794 Co1770 2.097 . S
O1794 C1822 1.214 . S
H1795 C1823 0.929 . S
H1796 C1824 0.929 . S
H1797 C1825 0.930 . S
H1798 C1826 0.929 . S
H1799 C1828 0.930 . S
H1800 C1805 0.930 . S
H1801 C1809 0.930 . S
O1802 Co1771 2.037 . S
O1802 C1822 1.234 . S
C1803 O1777 1.269 . S
C1803 O1778 1.257 . S
C1804 H1779 0.930 . S
C1804 C1807 1.388 . S
C1804 C1809 1.418 . S
C1805 H1800 0.930 . S
C1805 C1808 1.404 . S
C1805 C1809 1.353 . S
N1806 Co1771 2.145 . S
N1806 C1807 1.397 . S
N1806 C1808 1.334 . S
C1807 H1788 0.929 . S
C1807 C1804 1.388 . S
C1807 N1806 1.397 . S
C1808 H1789 0.929 . S
C1808 C1805 1.404 . S
C1808 N1806 1.334 . S
C1809 H1801 0.930 . S
C1809 C1804 1.418 . S
C1809 C1805 1.353 . S
C1810 H1780 0.930 . S
C1810 N1811 1.330 . S
C1810 C1812 1.446 . S
N1811 Co1770 2.151 . S
N1811 C1810 1.330 . S
N1811 C1815 1.418 . S
C1812 H1791 0.929 . S
C1812 C1810 1.446 . S
C1812 C1813 1.332 . S
C1813 H1793 0.931 . S
C1813 C1812 1.332 . S
C1813 C1814 1.267 . S
C1814 H1782 0.929 . S
C1814 C1813 1.267 . S
C1814 C1815 1.251 . S
C1815 H1785 0.929 . S
C1815 N1811 1.418 . S
C1815 C1814 1.251 . S
C1816 H1783 0.930 . S
C1816 C1818 1.406 . S
C1816 C1821 1.261 . S
C1817 H1784 0.930 . S
C1817 N1819 1.325 . S
C1817 C1820 1.357 . S
C1818 H1786 0.928 . S
C1818 C1816 1.406 . S
C1818 N1819 1.261 . S
N1819 Co1770 2.214 . S
N1819 C1817 1.325 . S
N1819 C1818 1.261 . S
C1820 H1790 0.931 . S
C1820 C1817 1.357 . S
C1820 C1821 1.312 . S
C1821 H1792 0.930 . S
C1821 C1816 1.261 . S
C1821 C1820 1.312 . S
C1822 O1794 1.214 . S
C1822 O1802 1.234 . S
C1823 H1795 0.929 . S
C1823 C1826 1.391 . S
C1823 C1828 1.391 . S
C1824 H1796 0.929 . S
C1824 C1825 1.390 . S
C1824 N1827 1.391 . S
C1825 H1797 0.930 . S
C1825 C1824 1.390 . S
C1825 C1826 1.392 . S
C1826 H1798 0.929 . S
C1826 C1823 1.391 . S
C1826 C1825 1.392 . S
N1827 Co1771 2.257 . S
N1827 C1824 1.391 . S
N1827 C1828 1.388 . S
C1828 H1799 0.930 . S
C1828 C1823 1.391 . S
C1828 N1827 1.388 . S
Co1829 O1831 2.143 . S
Co1829 O1837 2.074 . S
Co1829 O1840 2.093 . S
Co1829 O1853 2.097 . S
Co1829 N1870 2.151 . S
Co1829 N1878 2.214 . S
Co1830 O1831 2.160 . S
Co1830 O1836 2.058 . S
Co1830 O1846 2.057 . S
Co1830 O1861 2.037 . S
Co1830 N1865 2.145 . S
Co1830 N1886 2.257 . S
O1831 Co1829 2.143 . S
O1831 Co1830 2.160 . S
C1832 O1833 1.278 . S
C1832 O1840 1.224 . S
O1833 C1832 1.278 . S
C1834 O1835 1.245 . S
C1834 O1846 1.232 . S
O1835 C1834 1.245 . S
O1836 Co1830 2.058 . S
O1836 C1862 1.269 . S
O1837 Co1829 2.074 . S
O1837 C1862 1.257 . S
H1838 C1863 0.930 . S
H1839 C1869 0.930 . S
O1840 Co1829 2.093 . S
O1840 C1832 1.224 . S
H1841 C1873 0.929 . S
H1842 C1875 0.930 . S
H1843 C1876 0.930 . S
H1844 C1874 0.929 . S
H1845 C1877 0.928 . S
O1846 Co1830 2.057 . S
O1846 C1834 1.232 . S
H1847 C1866 0.929 . S
H1848 C1867 0.929 . S
H1849 C1879 0.931 . S
H1850 C1871 0.929 . S
H1851 C1880 0.930 . S
H1852 C1872 0.931 . S
O1853 Co1829 2.097 . S
O1853 C1881 1.214 . S
H1854 C1882 0.929 . S
H1855 C1883 0.929 . S
H1856 C1884 0.930 . S
H1857 C1885 0.929 . S
H1858 C1887 0.930 . S
H1859 C1864 0.930 . S
H1860 C1868 0.930 . S
O1861 Co1830 2.037 . S
O1861 C1881 1.234 . S
C1862 O1836 1.269 . S
C1862 O1837 1.257 . S
C1863 H1838 0.930 . S
C1863 C1866 1.388 . S
C1863 C1868 1.418 . S
C1864 H1859 0.930 . S
C1864 C1867 1.404 . S
C1864 C1868 1.353 . S
N1865 Co1830 2.145 . S
N1865 C1866 1.397 . S
N1865 C1867 1.334 . S
C1866 H1847 0.929 . S
C1866 C1863 1.388 . S
C1866 N1865 1.397 . S
C1867 H1848 0.929 . S
C1867 C1864 1.404 . S
C1867 N1865 1.334 . S
C1868 H1860 0.930 . S
C1868 C1863 1.418 . S
C1868 C1864 1.353 . S
C1869 H1839 0.930 . S
C1869 N1870 1.330 . S
C1869 C1871 1.446 . S
N1870 Co1829 2.151 . S
N1870 C1869 1.330 . S
N1870 C1874 1.418 . S
C1871 H1850 0.929 . S
C1871 C1869 1.446 . S
C1871 C1872 1.332 . S
C1872 H1852 0.931 . S
C1872 C1871 1.332 . S
C1872 C1873 1.267 . S
C1873 H1841 0.929 . S
C1873 C1872 1.267 . S
C1873 C1874 1.251 . S
C1874 H1844 0.929 . S
C1874 N1870 1.418 . S
C1874 C1873 1.251 . S
C1875 H1842 0.930 . S
C1875 C1877 1.406 . S
C1875 C1880 1.261 . S
C1876 H1843 0.930 . S
C1876 N1878 1.325 . S
C1876 C1879 1.357 . S
C1877 H1845 0.928 . S
C1877 C1875 1.406 . S
C1877 N1878 1.261 . S
N1878 Co1829 2.214 . S
N1878 C1876 1.325 . S
N1878 C1877 1.261 . S
C1879 H1849 0.931 . S
C1879 C1876 1.357 . S
C1879 C1880 1.312 . S
C1880 H1851 0.930 . S
C1880 C1875 1.261 . S
C1880 C1879 1.312 . S
C1881 O1853 1.214 . S
C1881 O1861 1.234 . S
C1882 H1854 0.929 . S
C1882 C1885 1.391 . S
C1882 C1887 1.391 . S
C1883 H1855 0.929 . S
C1883 C1884 1.390 . S
C1883 N1886 1.391 . S
C1884 H1856 0.930 . S
C1884 C1883 1.390 . S
C1884 C1885 1.392 . S
C1885 H1857 0.929 . S
C1885 C1882 1.391 . S
C1885 C1884 1.392 . S
N1886 Co1830 2.257 . S
N1886 C1883 1.391 . S
N1886 C1887 1.388 . S
C1887 H1858 0.930 . S
C1887 C1882 1.391 . S
C1887 N1886 1.388 . S
Co1888 O1890 2.143 . S
Co1888 O1896 2.074 . S
Co1888 O1899 2.093 . S
Co1888 O1912 2.097 . S
Co1888 N1929 2.151 . S
Co1888 N1937 2.214 . S
Co1889 O1890 2.160 . S
Co1889 O1895 2.058 . S
Co1889 O1905 2.057 . S
Co1889 O1920 2.037 . S
Co1889 N1924 2.145 . S
Co1889 N1945 2.257 . S
O1890 Co1888 2.143 . S
O1890 Co1889 2.160 . S
C1891 O1892 1.278 . S
C1891 O1899 1.224 . S
O1892 C1891 1.278 . S
C1893 O1894 1.245 . S
C1893 O1905 1.232 . S
O1894 C1893 1.245 . S
O1895 Co1889 2.058 . S
O1895 C1921 1.269 . S
O1896 Co1888 2.074 . S
O1896 C1921 1.257 . S
H1897 C1922 0.930 . S
H1898 C1928 0.930 . S
O1899 Co1888 2.093 . S
O1899 C1891 1.224 . S
H1900 C1932 0.929 . S
H1901 C1934 0.930 . S
H1902 C1935 0.930 . S
H1903 C1933 0.929 . S
H1904 C1936 0.928 . S
O1905 Co1889 2.057 . S
O1905 C1893 1.232 . S
H1906 C1925 0.929 . S
H1907 C1926 0.929 . S
H1908 C1938 0.931 . S
H1909 C1930 0.929 . S
H1910 C1939 0.930 . S
H1911 C1931 0.931 . S
O1912 Co1888 2.097 . S
O1912 C1940 1.214 . S
H1913 C1941 0.929 . S
H1914 C1942 0.929 . S
H1915 C1943 0.930 . S
H1916 C1944 0.929 . S
H1917 C1946 0.930 . S
H1918 C1923 0.930 . S
H1919 C1927 0.930 . S
O1920 Co1889 2.037 . S
O1920 C1940 1.234 . S
C1921 O1895 1.269 . S
C1921 O1896 1.257 . S
C1922 H1897 0.930 . S
C1922 C1925 1.388 . S
C1922 C1927 1.418 . S
C1923 H1918 0.930 . S
C1923 C1926 1.404 . S
C1923 C1927 1.353 . S
N1924 Co1889 2.145 . S
N1924 C1925 1.397 . S
N1924 C1926 1.334 . S
C1925 H1906 0.929 . S
C1925 C1922 1.388 . S
C1925 N1924 1.397 . S
C1926 H1907 0.929 . S
C1926 C1923 1.404 . S
C1926 N1924 1.334 . S
C1927 H1919 0.930 . S
C1927 C1922 1.418 . S
C1927 C1923 1.353 . S
C1928 H1898 0.930 . S
C1928 N1929 1.330 . S
C1928 C1930 1.446 . S
N1929 Co1888 2.151 . S
N1929 C1928 1.330 . S
N1929 C1933 1.418 . S
C1930 H1909 0.929 . S
C1930 C1928 1.446 . S
C1930 C1931 1.332 . S
C1931 H1911 0.931 . S
C1931 C1930 1.332 . S
C1931 C1932 1.267 . S
C1932 H1900 0.929 . S
C1932 C1931 1.267 . S
C1932 C1933 1.251 . S
C1933 H1903 0.929 . S
C1933 N1929 1.418 . S
C1933 C1932 1.251 . S
C1934 H1901 0.930 . S
C1934 C1936 1.406 . S
C1934 C1939 1.261 . S
C1935 H1902 0.930 . S
C1935 N1937 1.325 . S
C1935 C1938 1.357 . S
C1936 H1904 0.928 . S
C1936 C1934 1.406 . S
C1936 N1937 1.261 . S
N1937 Co1888 2.214 . S
N1937 C1935 1.325 . S
N1937 C1936 1.261 . S
C1938 H1908 0.931 . S
C1938 C1935 1.357 . S
C1938 C1939 1.312 . S
C1939 H1910 0.930 . S
C1939 C1934 1.261 . S
C1939 C1938 1.312 . S
C1940 O1912 1.214 . S
C1940 O1920 1.234 . S
C1941 H1913 0.929 . S
C1941 C1944 1.391 . S
C1941 C1946 1.391 . S
C1942 H1914 0.929 . S
C1942 C1943 1.390 . S
C1942 N1945 1.391 . S
C1943 H1915 0.930 . S
C1943 C1942 1.390 . S
C1943 C1944 1.392 . S
C1944 H1916 0.929 . S
C1944 C1941 1.391 . S
C1944 C1943 1.392 . S
N1945 Co1889 2.257 . S
N1945 C1942 1.391 . S
N1945 C1946 1.388 . S
C1946 H1917 0.930 . S
C1946 C1941 1.391 . S
C1946 N1945 1.388 . S
Co1947 O1949 2.143 . S
Co1947 O1955 2.074 . S
Co1947 O1958 2.093 . S
Co1947 O1971 2.097 . S
Co1947 N1988 2.151 . S
Co1947 N1996 2.214 . S
Co1948 O1949 2.160 . S
Co1948 O1954 2.058 . S
Co1948 O1964 2.057 . S
Co1948 O1979 2.037 . S
Co1948 N1983 2.145 . S
Co1948 N2004 2.257 . S
O1949 Co1947 2.143 . S
O1949 Co1948 2.160 . S
C1950 O1951 1.278 . S
C1950 O1958 1.224 . S
O1951 C1950 1.278 . S
C1952 O1953 1.245 . S
C1952 O1964 1.232 . S
O1953 C1952 1.245 . S
O1954 Co1948 2.058 . S
O1954 C1980 1.269 . S
O1955 Co1947 2.074 . S
O1955 C1980 1.257 . S
H1956 C1981 0.930 . S
H1957 C1987 0.930 . S
O1958 Co1947 2.093 . S
O1958 C1950 1.224 . S
H1959 C1991 0.929 . S
H1960 C1993 0.930 . S
H1961 C1994 0.930 . S
H1962 C1992 0.929 . S
H1963 C1995 0.928 . S
O1964 Co1948 2.057 . S
O1964 C1952 1.232 . S
H1965 C1984 0.929 . S
H1966 C1985 0.929 . S
H1967 C1997 0.931 . S
H1968 C1989 0.929 . S
H1969 C1998 0.930 . S
H1970 C1990 0.931 . S
O1971 Co1947 2.097 . S
O1971 C1999 1.214 . S
H1972 C2000 0.929 . S
H1973 C2001 0.929 . S
H1974 C2002 0.930 . S
H1975 C2003 0.929 . S
H1976 C2005 0.930 . S
H1977 C1982 0.930 . S
H1978 C1986 0.930 . S
O1979 Co1948 2.037 . S
O1979 C1999 1.234 . S
C1980 O1954 1.269 . S
C1980 O1955 1.257 . S
C1981 H1956 0.930 . S
C1981 C1984 1.388 . S
C1981 C1986 1.418 . S
C1982 H1977 0.930 . S
C1982 C1985 1.404 . S
C1982 C1986 1.353 . S
N1983 Co1948 2.145 . S
N1983 C1984 1.397 . S
N1983 C1985 1.334 . S
C1984 H1965 0.929 . S
C1984 C1981 1.388 . S
C1984 N1983 1.397 . S
C1985 H1966 0.929 . S
C1985 C1982 1.404 . S
C1985 N1983 1.334 . S
C1986 H1978 0.930 . S
C1986 C1981 1.418 . S
C1986 C1982 1.353 . S
C1987 H1957 0.930 . S
C1987 N1988 1.330 . S
C1987 C1989 1.446 . S
N1988 Co1947 2.151 . S
N1988 C1987 1.330 . S
N1988 C1992 1.418 . S
C1989 H1968 0.929 . S
C1989 C1987 1.446 . S
C1989 C1990 1.332 . S
C1990 H1970 0.931 . S
C1990 C1989 1.332 . S
C1990 C1991 1.267 . S
C1991 H1959 0.929 . S
C1991 C1990 1.267 . S
C1991 C1992 1.251 . S
C1992 H1962 0.929 . S
C1992 N1988 1.418 . S
C1992 C1991 1.251 . S
C1993 H1960 0.930 . S
C1993 C1995 1.406 . S
C1993 C1998 1.261 . S
C1994 H1961 0.930 . S
C1994 N1996 1.325 . S
C1994 C1997 1.357 . S
C1995 H1963 0.928 . S
C1995 C1993 1.406 . S
C1995 N1996 1.261 . S
N1996 Co1947 2.214 . S
N1996 C1994 1.325 . S
N1996 C1995 1.261 . S
C1997 H1967 0.931 . S
C1997 C1994 1.357 . S
C1997 C1998 1.312 . S
C1998 H1969 0.930 . S
C1998 C1993 1.261 . S
C1998 C1997 1.312 . S
C1999 O1971 1.214 . S
C1999 O1979 1.234 . S
C2000 H1972 0.929 . S
C2000 C2003 1.391 . S
C2000 C2005 1.391 . S
C2001 H1973 0.929 . S
C2001 C2002 1.390 . S
C2001 N2004 1.391 . S
C2002 H1974 0.930 . S
C2002 C2001 1.390 . S
C2002 C2003 1.392 . S
C2003 H1975 0.929 . S
C2003 C2000 1.391 . S
C2003 C2002 1.392 . S
N2004 Co1948 2.257 . S
N2004 C2001 1.391 . S
N2004 C2005 1.388 . S
C2005 H1976 0.930 . S
C2005 C2000 1.391 . S
C2005 N2004 1.388 . S
Co2006 O2008 2.143 . S
Co2006 O2014 2.074 . S
Co2006 O2017 2.093 . S
Co2006 O2030 2.097 . S
Co2006 N2047 2.151 . S
Co2006 N2055 2.214 . S
Co2007 O2008 2.160 . S
Co2007 O2013 2.058 . S
Co2007 O2023 2.057 . S
Co2007 O2038 2.037 . S
Co2007 N2042 2.145 . S
Co2007 N2063 2.257 . S
O2008 Co2006 2.143 . S
O2008 Co2007 2.160 . S
C2009 O2010 1.278 . S
C2009 O2017 1.224 . S
O2010 C2009 1.278 . S
C2011 O2012 1.245 . S
C2011 O2023 1.232 . S
O2012 C2011 1.245 . S
O2013 Co2007 2.058 . S
O2013 C2039 1.269 . S
O2014 Co2006 2.074 . S
O2014 C2039 1.257 . S
H2015 C2040 0.930 . S
H2016 C2046 0.930 . S
O2017 Co2006 2.093 . S
O2017 C2009 1.224 . S
H2018 C2050 0.929 . S
H2019 C2052 0.930 . S
H2020 C2053 0.930 . S
H2021 C2051 0.929 . S
H2022 C2054 0.928 . S
O2023 Co2007 2.057 . S
O2023 C2011 1.232 . S
H2024 C2043 0.929 . S
H2025 C2044 0.929 . S
H2026 C2056 0.931 . S
H2027 C2048 0.929 . S
H2028 C2057 0.930 . S
H2029 C2049 0.931 . S
O2030 Co2006 2.097 . S
O2030 C2058 1.214 . S
H2031 C2059 0.929 . S
H2032 C2060 0.929 . S
H2033 C2061 0.930 . S
H2034 C2062 0.929 . S
H2035 C2064 0.930 . S
H2036 C2041 0.930 . S
H2037 C2045 0.930 . S
O2038 Co2007 2.037 . S
O2038 C2058 1.234 . S
C2039 O2013 1.269 . S
C2039 O2014 1.257 . S
C2040 H2015 0.930 . S
C2040 C2043 1.388 . S
C2040 C2045 1.418 . S
C2041 H2036 0.930 . S
C2041 C2044 1.404 . S
C2041 C2045 1.353 . S
N2042 Co2007 2.145 . S
N2042 C2043 1.397 . S
N2042 C2044 1.334 . S
C2043 H2024 0.929 . S
C2043 C2040 1.388 . S
C2043 N2042 1.397 . S
C2044 H2025 0.929 . S
C2044 C2041 1.404 . S
C2044 N2042 1.334 . S
C2045 H2037 0.930 . S
C2045 C2040 1.418 . S
C2045 C2041 1.353 . S
C2046 H2016 0.930 . S
C2046 N2047 1.330 . S
C2046 C2048 1.446 . S
N2047 Co2006 2.151 . S
N2047 C2046 1.330 . S
N2047 C2051 1.418 . S
C2048 H2027 0.929 . S
C2048 C2046 1.446 . S
C2048 C2049 1.332 . S
C2049 H2029 0.931 . S
C2049 C2048 1.332 . S
C2049 C2050 1.267 . S
C2050 H2018 0.929 . S
C2050 C2049 1.267 . S
C2050 C2051 1.251 . S
C2051 H2021 0.929 . S
C2051 N2047 1.418 . S
C2051 C2050 1.251 . S
C2052 H2019 0.930 . S
C2052 C2054 1.406 . S
C2052 C2057 1.261 . S
C2053 H2020 0.930 . S
C2053 N2055 1.325 . S
C2053 C2056 1.357 . S
C2054 H2022 0.928 . S
C2054 C2052 1.406 . S
C2054 N2055 1.261 . S
N2055 Co2006 2.214 . S
N2055 C2053 1.325 . S
N2055 C2054 1.261 . S
C2056 H2026 0.931 . S
C2056 C2053 1.357 . S
C2056 C2057 1.312 . S
C2057 H2028 0.930 . S
C2057 C2052 1.261 . S
C2057 C2056 1.312 . S
C2058 O2030 1.214 . S
C2058 O2038 1.234 . S
C2059 H2031 0.929 . S
C2059 C2062 1.391 . S
C2059 C2064 1.391 . S
C2060 H2032 0.929 . S
C2060 C2061 1.390 . S
C2060 N2063 1.391 . S
C2061 H2033 0.930 . S
C2061 C2060 1.390 . S
C2061 C2062 1.392 . S
C2062 H2034 0.929 . S
C2062 C2059 1.391 . S
C2062 C2061 1.392 . S
N2063 Co2007 2.257 . S
N2063 C2060 1.391 . S
N2063 C2064 1.388 . S
C2064 H2035 0.930 . S
C2064 C2059 1.391 . S
C2064 N2063 1.388 . S
Co2065 O2067 2.143 . S
Co2065 O2073 2.074 . S
Co2065 O2076 2.093 . S
Co2065 O2089 2.097 . S
Co2065 N2106 2.151 . S
Co2065 N2114 2.214 . S
Co2066 O2067 2.160 . S
Co2066 O2072 2.058 . S
Co2066 O2082 2.057 . S
Co2066 O2097 2.037 . S
Co2066 N2101 2.145 . S
Co2066 N2122 2.257 . S
O2067 Co2065 2.143 . S
O2067 Co2066 2.160 . S
C2068 O2069 1.278 . S
C2068 O2076 1.224 . S
O2069 C2068 1.278 . S
C2070 O2071 1.245 . S
C2070 O2082 1.232 . S
O2071 C2070 1.245 . S
O2072 Co2066 2.058 . S
O2072 C2098 1.269 . S
O2073 Co2065 2.074 . S
O2073 C2098 1.257 . S
H2074 C2099 0.930 . S
H2075 C2105 0.930 . S
O2076 Co2065 2.093 . S
O2076 C2068 1.224 . S
H2077 C2109 0.929 . S
H2078 C2111 0.930 . S
H2079 C2112 0.930 . S
H2080 C2110 0.929 . S
H2081 C2113 0.928 . S
O2082 Co2066 2.057 . S
O2082 C2070 1.232 . S
H2083 C2102 0.929 . S
H2084 C2103 0.929 . S
H2085 C2115 0.931 . S
H2086 C2107 0.929 . S
H2087 C2116 0.930 . S
H2088 C2108 0.931 . S
O2089 Co2065 2.097 . S
O2089 C2117 1.214 . S
H2090 C2118 0.929 . S
H2091 C2119 0.929 . S
H2092 C2120 0.930 . S
H2093 C2121 0.929 . S
H2094 C2123 0.930 . S
H2095 C2100 0.930 . S
H2096 C2104 0.930 . S
O2097 Co2066 2.037 . S
O2097 C2117 1.234 . S
C2098 O2072 1.269 . S
C2098 O2073 1.257 . S
C2099 H2074 0.930 . S
C2099 C2102 1.388 . S
C2099 C2104 1.418 . S
C2100 H2095 0.930 . S
C2100 C2103 1.404 . S
C2100 C2104 1.353 . S
N2101 Co2066 2.145 . S
N2101 C2102 1.397 . S
N2101 C2103 1.334 . S
C2102 H2083 0.929 . S
C2102 C2099 1.388 . S
C2102 N2101 1.397 . S
C2103 H2084 0.929 . S
C2103 C2100 1.404 . S
C2103 N2101 1.334 . S
C2104 H2096 0.930 . S
C2104 C2099 1.418 . S
C2104 C2100 1.353 . S
C2105 H2075 0.930 . S
C2105 N2106 1.330 . S
C2105 C2107 1.446 . S
N2106 Co2065 2.151 . S
N2106 C2105 1.330 . S
N2106 C2110 1.418 . S
C2107 H2086 0.929 . S
C2107 C2105 1.446 . S
C2107 C2108 1.332 . S
C2108 H2088 0.931 . S
C2108 C2107 1.332 . S
C2108 C2109 1.267 . S
C2109 H2077 0.929 . S
C2109 C2108 1.267 . S
C2109 C2110 1.251 . S
C2110 H2080 0.929 . S
C2110 N2106 1.418 . S
C2110 C2109 1.251 . S
C2111 H2078 0.930 . S
C2111 C2113 1.406 . S
C2111 C2116 1.261 . S
C2112 H2079 0.930 . S
C2112 N2114 1.325 . S
C2112 C2115 1.357 . S
C2113 H2081 0.928 . S
C2113 C2111 1.406 . S
C2113 N2114 1.261 . S
N2114 Co2065 2.214 . S
N2114 C2112 1.325 . S
N2114 C2113 1.261 . S
C2115 H2085 0.931 . S
C2115 C2112 1.357 . S
C2115 C2116 1.312 . S
C2116 H2087 0.930 . S
C2116 C2111 1.261 . S
C2116 C2115 1.312 . S
C2117 O2089 1.214 . S
C2117 O2097 1.234 . S
C2118 H2090 0.929 . S
C2118 C2121 1.391 . S
C2118 C2123 1.391 . S
C2119 H2091 0.929 . S
C2119 C2120 1.390 . S
C2119 N2122 1.391 . S
C2120 H2092 0.930 . S
C2120 C2119 1.390 . S
C2120 C2121 1.392 . S
C2121 H2093 0.929 . S
C2121 C2118 1.391 . S
C2121 C2120 1.392 . S
N2122 Co2066 2.257 . S
N2122 C2119 1.391 . S
N2122 C2123 1.388 . S
C2123 H2094 0.930 . S
C2123 C2118 1.391 . S
C2123 N2122 1.388 . S
Co2124 O2126 2.143 . S
Co2124 O2132 2.074 . S
Co2124 O2135 2.093 . S
Co2124 O2148 2.097 . S
Co2124 N2165 2.151 . S
Co2124 N2173 2.214 . S
Co2125 O2126 2.160 . S
Co2125 O2131 2.058 . S
Co2125 O2141 2.057 . S
Co2125 O2156 2.037 . S
Co2125 N2160 2.145 . S
Co2125 N2181 2.257 . S
O2126 Co2124 2.143 . S
O2126 Co2125 2.160 . S
C2127 O2128 1.278 . S
C2127 O2135 1.224 . S
O2128 C2127 1.278 . S
C2129 O2130 1.245 . S
C2129 O2141 1.232 . S
O2130 C2129 1.245 . S
O2131 Co2125 2.058 . S
O2131 C2157 1.269 . S
O2132 Co2124 2.074 . S
O2132 C2157 1.257 . S
H2133 C2158 0.930 . S
H2134 C2164 0.930 . S
O2135 Co2124 2.093 . S
O2135 C2127 1.224 . S
H2136 C2168 0.929 . S
H2137 C2170 0.930 . S
H2138 C2171 0.930 . S
H2139 C2169 0.929 . S
H2140 C2172 0.928 . S
O2141 Co2125 2.057 . S
O2141 C2129 1.232 . S
H2142 C2161 0.929 . S
H2143 C2162 0.929 . S
H2144 C2174 0.931 . S
H2145 C2166 0.929 . S
H2146 C2175 0.930 . S
H2147 C2167 0.931 . S
O2148 Co2124 2.097 . S
O2148 C2176 1.214 . S
H2149 C2177 0.929 . S
H2150 C2178 0.929 . S
H2151 C2179 0.930 . S
H2152 C2180 0.929 . S
H2153 C2182 0.930 . S
H2154 C2159 0.930 . S
H2155 C2163 0.930 . S
O2156 Co2125 2.037 . S
O2156 C2176 1.234 . S
C2157 O2131 1.269 . S
C2157 O2132 1.257 . S
C2158 H2133 0.930 . S
C2158 C2161 1.388 . S
C2158 C2163 1.418 . S
C2159 H2154 0.930 . S
C2159 C2162 1.404 . S
C2159 C2163 1.353 . S
N2160 Co2125 2.145 . S
N2160 C2161 1.397 . S
N2160 C2162 1.334 . S
C2161 H2142 0.929 . S
C2161 C2158 1.388 . S
C2161 N2160 1.397 . S
C2162 H2143 0.929 . S
C2162 C2159 1.404 . S
C2162 N2160 1.334 . S
C2163 H2155 0.930 . S
C2163 C2158 1.418 . S
C2163 C2159 1.353 . S
C2164 H2134 0.930 . S
C2164 N2165 1.330 . S
C2164 C2166 1.446 . S
N2165 Co2124 2.151 . S
N2165 C2164 1.330 . S
N2165 C2169 1.418 . S
C2166 H2145 0.929 . S
C2166 C2164 1.446 . S
C2166 C2167 1.332 . S
C2167 H2147 0.931 . S
C2167 C2166 1.332 . S
C2167 C2168 1.267 . S
C2168 H2136 0.929 . S
C2168 C2167 1.267 . S
C2168 C2169 1.251 . S
C2169 H2139 0.929 . S
C2169 N2165 1.418 . S
C2169 C2168 1.251 . S
C2170 H2137 0.930 . S
C2170 C2172 1.406 . S
C2170 C2175 1.261 . S
C2171 H2138 0.930 . S
C2171 N2173 1.325 . S
C2171 C2174 1.357 . S
C2172 H2140 0.928 . S
C2172 C2170 1.406 . S
C2172 N2173 1.261 . S
N2173 Co2124 2.214 . S
N2173 C2171 1.325 . S
N2173 C2172 1.261 . S
C2174 H2144 0.931 . S
C2174 C2171 1.357 . S
C2174 C2175 1.312 . S
C2175 H2146 0.930 . S
C2175 C2170 1.261 . S
C2175 C2174 1.312 . S
C2176 O2148 1.214 . S
C2176 O2156 1.234 . S
C2177 H2149 0.929 . S
C2177 C2180 1.391 . S
C2177 C2182 1.391 . S
C2178 H2150 0.929 . S
C2178 C2179 1.390 . S
C2178 N2181 1.391 . S
C2179 H2151 0.930 . S
C2179 C2178 1.390 . S
C2179 C2180 1.392 . S
C2180 H2152 0.929 . S
C2180 C2177 1.391 . S
C2180 C2179 1.392 . S
N2181 Co2125 2.257 . S
N2181 C2178 1.391 . S
N2181 C2182 1.388 . S
C2182 H2153 0.930 . S
C2182 C2177 1.391 . S
C2182 N2181 1.388 . S
Co2183 O2185 2.143 . S
Co2183 O2191 2.074 . S
Co2183 O2194 2.093 . S
Co2183 O2207 2.097 . S
Co2183 N2224 2.151 . S
Co2183 N2232 2.214 . S
Co2184 O2185 2.160 . S
Co2184 O2190 2.058 . S
Co2184 O2200 2.057 . S
Co2184 O2215 2.037 . S
Co2184 N2219 2.145 . S
Co2184 N2240 2.257 . S
O2185 Co2183 2.143 . S
O2185 Co2184 2.160 . S
C2186 O2187 1.278 . S
C2186 O2194 1.224 . S
O2187 C2186 1.278 . S
C2188 O2189 1.245 . S
C2188 O2200 1.232 . S
O2189 C2188 1.245 . S
O2190 Co2184 2.058 . S
O2190 C2216 1.269 . S
O2191 Co2183 2.074 . S
O2191 C2216 1.257 . S
H2192 C2217 0.930 . S
H2193 C2223 0.930 . S
O2194 Co2183 2.093 . S
O2194 C2186 1.224 . S
H2195 C2227 0.929 . S
H2196 C2229 0.930 . S
H2197 C2230 0.930 . S
H2198 C2228 0.929 . S
H2199 C2231 0.928 . S
O2200 Co2184 2.057 . S
O2200 C2188 1.232 . S
H2201 C2220 0.929 . S
H2202 C2221 0.929 . S
H2203 C2233 0.931 . S
H2204 C2225 0.929 . S
H2205 C2234 0.930 . S
H2206 C2226 0.931 . S
O2207 Co2183 2.097 . S
O2207 C2235 1.214 . S
H2208 C2236 0.929 . S
H2209 C2237 0.929 . S
H2210 C2238 0.930 . S
H2211 C2239 0.929 . S
H2212 C2241 0.930 . S
H2213 C2218 0.930 . S
H2214 C2222 0.930 . S
O2215 Co2184 2.037 . S
O2215 C2235 1.234 . S
C2216 O2190 1.269 . S
C2216 O2191 1.257 . S
C2217 H2192 0.930 . S
C2217 C2220 1.388 . S
C2217 C2222 1.418 . S
C2218 H2213 0.930 . S
C2218 C2221 1.404 . S
C2218 C2222 1.353 . S
N2219 Co2184 2.145 . S
N2219 C2220 1.397 . S
N2219 C2221 1.334 . S
C2220 H2201 0.929 . S
C2220 C2217 1.388 . S
C2220 N2219 1.397 . S
C2221 H2202 0.929 . S
C2221 C2218 1.404 . S
C2221 N2219 1.334 . S
C2222 H2214 0.930 . S
C2222 C2217 1.418 . S
C2222 C2218 1.353 . S
C2223 H2193 0.930 . S
C2223 N2224 1.330 . S
C2223 C2225 1.446 . S
N2224 Co2183 2.151 . S
N2224 C2223 1.330 . S
N2224 C2228 1.418 . S
C2225 H2204 0.929 . S
C2225 C2223 1.446 . S
C2225 C2226 1.332 . S
C2226 H2206 0.931 . S
C2226 C2225 1.332 . S
C2226 C2227 1.267 . S
C2227 H2195 0.929 . S
C2227 C2226 1.267 . S
C2227 C2228 1.251 . S
C2228 H2198 0.929 . S
C2228 N2224 1.418 . S
C2228 C2227 1.251 . S
C2229 H2196 0.930 . S
C2229 C2231 1.406 . S
C2229 C2234 1.261 . S
C2230 H2197 0.930 . S
C2230 N2232 1.325 . S
C2230 C2233 1.357 . S
C2231 H2199 0.928 . S
C2231 C2229 1.406 . S
C2231 N2232 1.261 . S
N2232 Co2183 2.214 . S
N2232 C2230 1.325 . S
N2232 C2231 1.261 . S
C2233 H2203 0.931 . S
C2233 C2230 1.357 . S
C2233 C2234 1.312 . S
C2234 H2205 0.930 . S
C2234 C2229 1.261 . S
C2234 C2233 1.312 . S
C2235 O2207 1.214 . S
C2235 O2215 1.234 . S
C2236 H2208 0.929 . S
C2236 C2239 1.391 . S
C2236 C2241 1.391 . S
C2237 H2209 0.929 . S
C2237 C2238 1.390 . S
C2237 N2240 1.391 . S
C2238 H2210 0.930 . S
C2238 C2237 1.390 . S
C2238 C2239 1.392 . S
C2239 H2211 0.929 . S
C2239 C2236 1.391 . S
C2239 C2238 1.392 . S
N2240 Co2184 2.257 . S
N2240 C2237 1.391 . S
N2240 C2241 1.388 . S
C2241 H2212 0.930 . S
C2241 C2236 1.391 . S
C2241 N2240 1.388 . S
Co2242 O2244 2.143 . S
Co2242 O2250 2.074 . S
Co2242 O2253 2.093 . S
Co2242 O2266 2.097 . S
Co2242 N2283 2.151 . S
Co2242 N2291 2.214 . S
Co2243 O2244 2.160 . S
Co2243 O2249 2.058 . S
Co2243 O2259 2.057 . S
Co2243 O2274 2.037 . S
Co2243 N2278 2.145 . S
Co2243 N2299 2.257 . S
O2244 Co2242 2.143 . S
O2244 Co2243 2.160 . S
C2245 O2246 1.278 . S
C2245 O2253 1.224 . S
O2246 C2245 1.278 . S
C2247 O2248 1.245 . S
C2247 O2259 1.232 . S
O2248 C2247 1.245 . S
O2249 Co2243 2.058 . S
O2249 C2275 1.269 . S
O2250 Co2242 2.074 . S
O2250 C2275 1.257 . S
H2251 C2276 0.930 . S
H2252 C2282 0.930 . S
O2253 Co2242 2.093 . S
O2253 C2245 1.224 . S
H2254 C2286 0.929 . S
H2255 C2288 0.930 . S
H2256 C2289 0.930 . S
H2257 C2287 0.929 . S
H2258 C2290 0.928 . S
O2259 Co2243 2.057 . S
O2259 C2247 1.232 . S
H2260 C2279 0.929 . S
H2261 C2280 0.929 . S
H2262 C2292 0.931 . S
H2263 C2284 0.929 . S
H2264 C2293 0.930 . S
H2265 C2285 0.931 . S
O2266 Co2242 2.097 . S
O2266 C2294 1.214 . S
H2267 C2295 0.929 . S
H2268 C2296 0.929 . S
H2269 C2297 0.930 . S
H2270 C2298 0.929 . S
H2271 C2300 0.930 . S
H2272 C2277 0.930 . S
H2273 C2281 0.930 . S
O2274 Co2243 2.037 . S
O2274 C2294 1.234 . S
C2275 O2249 1.269 . S
C2275 O2250 1.257 . S
C2276 H2251 0.930 . S
C2276 C2279 1.388 . S
C2276 C2281 1.418 . S
C2277 H2272 0.930 . S
C2277 C2280 1.404 . S
C2277 C2281 1.353 . S
N2278 Co2243 2.145 . S
N2278 C2279 1.397 . S
N2278 C2280 1.334 . S
C2279 H2260 0.929 . S
C2279 C2276 1.388 . S
C2279 N2278 1.397 . S
C2280 H2261 0.929 . S
C2280 C2277 1.404 . S
C2280 N2278 1.334 . S
C2281 H2273 0.930 . S
C2281 C2276 1.418 . S
C2281 C2277 1.353 . S
C2282 H2252 0.930 . S
C2282 N2283 1.330 . S
C2282 C2284 1.446 . S
N2283 Co2242 2.151 . S
N2283 C2282 1.330 . S
N2283 C2287 1.418 . S
C2284 H2263 0.929 . S
C2284 C2282 1.446 . S
C2284 C2285 1.332 . S
C2285 H2265 0.931 . S
C2285 C2284 1.332 . S
C2285 C2286 1.267 . S
C2286 H2254 0.929 . S
C2286 C2285 1.267 . S
C2286 C2287 1.251 . S
C2287 H2257 0.929 . S
C2287 N2283 1.418 . S
C2287 C2286 1.251 . S
C2288 H2255 0.930 . S
C2288 C2290 1.406 . S
C2288 C2293 1.261 . S
C2289 H2256 0.930 . S
C2289 N2291 1.325 . S
C2289 C2292 1.357 . S
C2290 H2258 0.928 . S
C2290 C2288 1.406 . S
C2290 N2291 1.261 . S
N2291 Co2242 2.214 . S
N2291 C2289 1.325 . S
N2291 C2290 1.261 . S
C2292 H2262 0.931 . S
C2292 C2289 1.357 . S
C2292 C2293 1.312 . S
C2293 H2264 0.930 . S
C2293 C2288 1.261 . S
C2293 C2292 1.312 . S
C2294 O2266 1.214 . S
C2294 O2274 1.234 . S
C2295 H2267 0.929 . S
C2295 C2298 1.391 . S
C2295 C2300 1.391 . S
C2296 H2268 0.929 . S
C2296 C2297 1.390 . S
C2296 N2299 1.391 . S
C2297 H2269 0.930 . S
C2297 C2296 1.390 . S
C2297 C2298 1.392 . S
C2298 H2270 0.929 . S
C2298 C2295 1.391 . S
C2298 C2297 1.392 . S
N2299 Co2243 2.257 . S
N2299 C2296 1.391 . S
N2299 C2300 1.388 . S
C2300 H2271 0.930 . S
C2300 C2295 1.391 . S
C2300 N2299 1.388 . S
Co2301 O2303 2.143 . S
Co2301 O2309 2.074 . S
Co2301 O2312 2.093 . S
Co2301 O2325 2.097 . S
Co2301 N2342 2.151 . S
Co2301 N2350 2.214 . S
Co2302 O2303 2.160 . S
Co2302 O2308 2.058 . S
Co2302 O2318 2.057 . S
Co2302 O2333 2.037 . S
Co2302 N2337 2.145 . S
Co2302 N2358 2.257 . S
O2303 Co2301 2.143 . S
O2303 Co2302 2.160 . S
C2304 O2305 1.278 . S
C2304 O2312 1.224 . S
O2305 C2304 1.278 . S
C2306 O2307 1.245 . S
C2306 O2318 1.232 . S
O2307 C2306 1.245 . S
O2308 Co2302 2.058 . S
O2308 C2334 1.269 . S
O2309 Co2301 2.074 . S
O2309 C2334 1.257 . S
H2310 C2335 0.930 . S
H2311 C2341 0.930 . S
O2312 Co2301 2.093 . S
O2312 C2304 1.224 . S
H2313 C2345 0.929 . S
H2314 C2347 0.930 . S
H2315 C2348 0.930 . S
H2316 C2346 0.929 . S
H2317 C2349 0.928 . S
O2318 Co2302 2.057 . S
O2318 C2306 1.232 . S
H2319 C2338 0.929 . S
H2320 C2339 0.929 . S
H2321 C2351 0.931 . S
H2322 C2343 0.929 . S
H2323 C2352 0.930 . S
H2324 C2344 0.931 . S
O2325 Co2301 2.097 . S
O2325 C2353 1.214 . S
H2326 C2354 0.929 . S
H2327 C2355 0.929 . S
H2328 C2356 0.930 . S
H2329 C2357 0.929 . S
H2330 C2359 0.930 . S
H2331 C2336 0.930 . S
H2332 C2340 0.930 . S
O2333 Co2302 2.037 . S
O2333 C2353 1.234 . S
C2334 O2308 1.269 . S
C2334 O2309 1.257 . S
C2335 H2310 0.930 . S
C2335 C2338 1.388 . S
C2335 C2340 1.418 . S
C2336 H2331 0.930 . S
C2336 C2339 1.404 . S
C2336 C2340 1.353 . S
N2337 Co2302 2.145 . S
N2337 C2338 1.397 . S
N2337 C2339 1.334 . S
C2338 H2319 0.929 . S
C2338 C2335 1.388 . S
C2338 N2337 1.397 . S
C2339 H2320 0.929 . S
C2339 C2336 1.404 . S
C2339 N2337 1.334 . S
C2340 H2332 0.930 . S
C2340 C2335 1.418 . S
C2340 C2336 1.353 . S
C2341 H2311 0.930 . S
C2341 N2342 1.330 . S
C2341 C2343 1.446 . S
N2342 Co2301 2.151 . S
N2342 C2341 1.330 . S
N2342 C2346 1.418 . S
C2343 H2322 0.929 . S
C2343 C2341 1.446 . S
C2343 C2344 1.332 . S
C2344 H2324 0.931 . S
C2344 C2343 1.332 . S
C2344 C2345 1.267 . S
C2345 H2313 0.929 . S
C2345 C2344 1.267 . S
C2345 C2346 1.251 . S
C2346 H2316 0.929 . S
C2346 N2342 1.418 . S
C2346 C2345 1.251 . S
C2347 H2314 0.930 . S
C2347 C2349 1.406 . S
C2347 C2352 1.261 . S
C2348 H2315 0.930 . S
C2348 N2350 1.325 . S
C2348 C2351 1.357 . S
C2349 H2317 0.928 . S
C2349 C2347 1.406 . S
C2349 N2350 1.261 . S
N2350 Co2301 2.214 . S
N2350 C2348 1.325 . S
N2350 C2349 1.261 . S
C2351 H2321 0.931 . S
C2351 C2348 1.357 . S
C2351 C2352 1.312 . S
C2352 H2323 0.930 . S
C2352 C2347 1.261 . S
C2352 C2351 1.312 . S
C2353 O2325 1.214 . S
C2353 O2333 1.234 . S
C2354 H2326 0.929 . S
C2354 C2357 1.391 . S
C2354 C2359 1.391 . S
C2355 H2327 0.929 . S
C2355 C2356 1.390 . S
C2355 N2358 1.391 . S
C2356 H2328 0.930 . S
C2356 C2355 1.390 . S
C2356 C2357 1.392 . S
C2357 H2329 0.929 . S
C2357 C2354 1.391 . S
C2357 C2356 1.392 . S
N2358 Co2302 2.257 . S
N2358 C2355 1.391 . S
N2358 C2359 1.388 . S
C2359 H2330 0.930 . S
C2359 C2354 1.391 . S
C2359 N2358 1.388 . S
Co2360 O2362 2.143 . S
Co2360 O2368 2.074 . S
Co2360 O2371 2.093 . S
Co2360 O2384 2.097 . S
Co2360 N2401 2.151 . S
Co2360 N2409 2.214 . S
Co2361 O2362 2.160 . S
Co2361 O2367 2.058 . S
Co2361 O2377 2.057 . S
Co2361 O2392 2.037 . S
Co2361 N2396 2.145 . S
Co2361 N2417 2.257 . S
O2362 Co2360 2.143 . S
O2362 Co2361 2.160 . S
C2363 O2364 1.278 . S
C2363 O2371 1.224 . S
O2364 C2363 1.278 . S
C2365 O2366 1.245 . S
C2365 O2377 1.232 . S
O2366 C2365 1.245 . S
O2367 Co2361 2.058 . S
O2367 C2393 1.269 . S
O2368 Co2360 2.074 . S
O2368 C2393 1.257 . S
H2369 C2394 0.930 . S
H2370 C2400 0.930 . S
O2371 Co2360 2.093 . S
O2371 C2363 1.224 . S
H2372 C2404 0.929 . S
H2373 C2406 0.930 . S
H2374 C2407 0.930 . S
H2375 C2405 0.929 . S
H2376 C2408 0.928 . S
O2377 Co2361 2.057 . S
O2377 C2365 1.232 . S
H2378 C2397 0.929 . S
H2379 C2398 0.929 . S
H2380 C2410 0.931 . S
H2381 C2402 0.929 . S
H2382 C2411 0.930 . S
H2383 C2403 0.931 . S
O2384 Co2360 2.097 . S
O2384 C2412 1.214 . S
H2385 C2413 0.929 . S
H2386 C2414 0.929 . S
H2387 C2415 0.930 . S
H2388 C2416 0.929 . S
H2389 C2418 0.930 . S
H2390 C2395 0.930 . S
H2391 C2399 0.930 . S
O2392 Co2361 2.037 . S
O2392 C2412 1.234 . S
C2393 O2367 1.269 . S
C2393 O2368 1.257 . S
C2394 H2369 0.930 . S
C2394 C2397 1.388 . S
C2394 C2399 1.418 . S
C2395 H2390 0.930 . S
C2395 C2398 1.404 . S
C2395 C2399 1.353 . S
N2396 Co2361 2.145 . S
N2396 C2397 1.397 . S
N2396 C2398 1.334 . S
C2397 H2378 0.929 . S
C2397 C2394 1.388 . S
C2397 N2396 1.397 . S
C2398 H2379 0.929 . S
C2398 C2395 1.404 . S
C2398 N2396 1.334 . S
C2399 H2391 0.930 . S
C2399 C2394 1.418 . S
C2399 C2395 1.353 . S
C2400 H2370 0.930 . S
C2400 N2401 1.330 . S
C2400 C2402 1.446 . S
N2401 Co2360 2.151 . S
N2401 C2400 1.330 . S
N2401 C2405 1.418 . S
C2402 H2381 0.929 . S
C2402 C2400 1.446 . S
C2402 C2403 1.332 . S
C2403 H2383 0.931 . S
C2403 C2402 1.332 . S
C2403 C2404 1.267 . S
C2404 H2372 0.929 . S
C2404 C2403 1.267 . S
C2404 C2405 1.251 . S
C2405 H2375 0.929 . S
C2405 N2401 1.418 . S
C2405 C2404 1.251 . S
C2406 H2373 0.930 . S
C2406 C2408 1.406 . S
C2406 C2411 1.261 . S
C2407 H2374 0.930 . S
C2407 N2409 1.325 . S
C2407 C2410 1.357 . S
C2408 H2376 0.928 . S
C2408 C2406 1.406 . S
C2408 N2409 1.261 . S
N2409 Co2360 2.214 . S
N2409 C2407 1.325 . S
N2409 C2408 1.261 . S
C2410 H2380 0.931 . S
C2410 C2407 1.357 . S
C2410 C2411 1.312 . S
C2411 H2382 0.930 . S
C2411 C2406 1.261 . S
C2411 C2410 1.312 . S
C2412 O2384 1.214 . S
C2412 O2392 1.234 . S
C2413 H2385 0.929 . S
C2413 C2416 1.391 . S
C2413 C2418 1.391 . S
C2414 H2386 0.929 . S
C2414 C2415 1.390 . S
C2414 N2417 1.391 . S
C2415 H2387 0.930 . S
C2415 C2414 1.390 . S
C2415 C2416 1.392 . S
C2416 H2388 0.929 . S
C2416 C2413 1.391 . S
C2416 C2415 1.392 . S
N2417 Co2361 2.257 . S
N2417 C2414 1.391 . S
N2417 C2418 1.388 . S
C2418 H2389 0.930 . S
C2418 C2413 1.391 . S
C2418 N2417 1.388 . S
Co2419 O2421 2.143 . S
Co2419 O2427 2.074 . S
Co2419 O2430 2.093 . S
Co2419 O2443 2.097 . S
Co2419 N2460 2.151 . S
Co2419 N2468 2.214 . S
Co2420 O2421 2.160 . S
Co2420 O2426 2.058 . S
Co2420 O2436 2.057 . S
Co2420 O2451 2.037 . S
Co2420 N2455 2.145 . S
Co2420 N2476 2.257 . S
O2421 Co2419 2.143 . S
O2421 Co2420 2.160 . S
C2422 O2423 1.278 . S
C2422 O2430 1.224 . S
O2423 C2422 1.278 . S
C2424 O2425 1.245 . S
C2424 O2436 1.232 . S
O2425 C2424 1.245 . S
O2426 Co2420 2.058 . S
O2426 C2452 1.269 . S
O2427 Co2419 2.074 . S
O2427 C2452 1.257 . S
H2428 C2453 0.930 . S
H2429 C2459 0.930 . S
O2430 Co2419 2.093 . S
O2430 C2422 1.224 . S
H2431 C2463 0.929 . S
H2432 C2465 0.930 . S
H2433 C2466 0.930 . S
H2434 C2464 0.929 . S
H2435 C2467 0.928 . S
O2436 Co2420 2.057 . S
O2436 C2424 1.232 . S
H2437 C2456 0.929 . S
H2438 C2457 0.929 . S
H2439 C2469 0.931 . S
H2440 C2461 0.929 . S
H2441 C2470 0.930 . S
H2442 C2462 0.931 . S
O2443 Co2419 2.097 . S
O2443 C2471 1.214 . S
H2444 C2472 0.929 . S
H2445 C2473 0.929 . S
H2446 C2474 0.930 . S
H2447 C2475 0.929 . S
H2448 C2477 0.930 . S
H2449 C2454 0.930 . S
H2450 C2458 0.930 . S
O2451 Co2420 2.037 . S
O2451 C2471 1.234 . S
C2452 O2426 1.269 . S
C2452 O2427 1.257 . S
C2453 H2428 0.930 . S
C2453 C2456 1.388 . S
C2453 C2458 1.418 . S
C2454 H2449 0.930 . S
C2454 C2457 1.404 . S
C2454 C2458 1.353 . S
N2455 Co2420 2.145 . S
N2455 C2456 1.397 . S
N2455 C2457 1.334 . S
C2456 H2437 0.929 . S
C2456 C2453 1.388 . S
C2456 N2455 1.397 . S
C2457 H2438 0.929 . S
C2457 C2454 1.404 . S
C2457 N2455 1.334 . S
C2458 H2450 0.930 . S
C2458 C2453 1.418 . S
C2458 C2454 1.353 . S
C2459 H2429 0.930 . S
C2459 N2460 1.330 . S
C2459 C2461 1.446 . S
N2460 Co2419 2.151 . S
N2460 C2459 1.330 . S
N2460 C2464 1.418 . S
C2461 H2440 0.929 . S
C2461 C2459 1.446 . S
C2461 C2462 1.332 . S
C2462 H2442 0.931 . S
C2462 C2461 1.332 . S
C2462 C2463 1.267 . S
C2463 H2431 0.929 . S
C2463 C2462 1.267 . S
C2463 C2464 1.251 . S
C2464 H2434 0.929 . S
C2464 N2460 1.418 . S
C2464 C2463 1.251 . S
C2465 H2432 0.930 . S
C2465 C2467 1.406 . S
C2465 C2470 1.261 . S
C2466 H2433 0.930 . S
C2466 N2468 1.325 . S
C2466 C2469 1.357 . S
C2467 H2435 0.928 . S
C2467 C2465 1.406 . S
C2467 N2468 1.261 . S
N2468 Co2419 2.214 . S
N2468 C2466 1.325 . S
N2468 C2467 1.261 . S
C2469 H2439 0.931 . S
C2469 C2466 1.357 . S
C2469 C2470 1.312 . S
C2470 H2441 0.930 . S
C2470 C2465 1.261 . S
C2470 C2469 1.312 . S
C2471 O2443 1.214 . S
C2471 O2451 1.234 . S
C2472 H2444 0.929 . S
C2472 C2475 1.391 . S
C2472 C2477 1.391 . S
C2473 H2445 0.929 . S
C2473 C2474 1.390 . S
C2473 N2476 1.391 . S
C2474 H2446 0.930 . S
C2474 C2473 1.390 . S
C2474 C2475 1.392 . S
C2475 H2447 0.929 . S
C2475 C2472 1.391 . S
C2475 C2474 1.392 . S
N2476 Co2420 2.257 . S
N2476 C2473 1.391 . S
N2476 C2477 1.388 . S
C2477 H2448 0.930 . S
C2477 C2472 1.391 . S
C2477 N2476 1.388 . S
Co2478 O2480 2.143 . S
Co2478 O2486 2.074 . S
Co2478 O2489 2.093 . S
Co2478 O2502 2.097 . S
Co2478 N2519 2.151 . S
Co2478 N2527 2.214 . S
Co2479 O2480 2.160 . S
Co2479 O2485 2.058 . S
Co2479 O2495 2.057 . S
Co2479 O2510 2.037 . S
Co2479 N2514 2.145 . S
Co2479 N2535 2.257 . S
O2480 Co2478 2.143 . S
O2480 Co2479 2.160 . S
C2481 O2482 1.278 . S
C2481 O2489 1.224 . S
O2482 C2481 1.278 . S
C2483 O2484 1.245 . S
C2483 O2495 1.232 . S
O2484 C2483 1.245 . S
O2485 Co2479 2.058 . S
O2485 C2511 1.269 . S
O2486 Co2478 2.074 . S
O2486 C2511 1.257 . S
H2487 C2512 0.930 . S
H2488 C2518 0.930 . S
O2489 Co2478 2.093 . S
O2489 C2481 1.224 . S
H2490 C2522 0.929 . S
H2491 C2524 0.930 . S
H2492 C2525 0.930 . S
H2493 C2523 0.929 . S
H2494 C2526 0.928 . S
O2495 Co2479 2.057 . S
O2495 C2483 1.232 . S
H2496 C2515 0.929 . S
H2497 C2516 0.929 . S
H2498 C2528 0.931 . S
H2499 C2520 0.929 . S
H2500 C2529 0.930 . S
H2501 C2521 0.931 . S
O2502 Co2478 2.097 . S
O2502 C2530 1.214 . S
H2503 C2531 0.929 . S
H2504 C2532 0.929 . S
H2505 C2533 0.930 . S
H2506 C2534 0.929 . S
H2507 C2536 0.930 . S
H2508 C2513 0.930 . S
H2509 C2517 0.930 . S
O2510 Co2479 2.037 . S
O2510 C2530 1.234 . S
C2511 O2485 1.269 . S
C2511 O2486 1.257 . S
C2512 H2487 0.930 . S
C2512 C2515 1.388 . S
C2512 C2517 1.418 . S
C2513 H2508 0.930 . S
C2513 C2516 1.404 . S
C2513 C2517 1.353 . S
N2514 Co2479 2.145 . S
N2514 C2515 1.397 . S
N2514 C2516 1.334 . S
C2515 H2496 0.929 . S
C2515 C2512 1.388 . S
C2515 N2514 1.397 . S
C2516 H2497 0.929 . S
C2516 C2513 1.404 . S
C2516 N2514 1.334 . S
C2517 H2509 0.930 . S
C2517 C2512 1.418 . S
C2517 C2513 1.353 . S
C2518 H2488 0.930 . S
C2518 N2519 1.330 . S
C2518 C2520 1.446 . S
N2519 Co2478 2.151 . S
N2519 C2518 1.330 . S
N2519 C2523 1.418 . S
C2520 H2499 0.929 . S
C2520 C2518 1.446 . S
C2520 C2521 1.332 . S
C2521 H2501 0.931 . S
C2521 C2520 1.332 . S
C2521 C2522 1.267 . S
C2522 H2490 0.929 . S
C2522 C2521 1.267 . S
C2522 C2523 1.251 . S
C2523 H2493 0.929 . S
C2523 N2519 1.418 . S
C2523 C2522 1.251 . S
C2524 H2491 0.930 . S
C2524 C2526 1.406 . S
C2524 C2529 1.261 . S
C2525 H2492 0.930 . S
C2525 N2527 1.325 . S
C2525 C2528 1.357 . S
C2526 H2494 0.928 . S
C2526 C2524 1.406 . S
C2526 N2527 1.261 . S
N2527 Co2478 2.214 . S
N2527 C2525 1.325 . S
N2527 C2526 1.261 . S
C2528 H2498 0.931 . S
C2528 C2525 1.357 . S
C2528 C2529 1.312 . S
C2529 H2500 0.930 . S
C2529 C2524 1.261 . S
C2529 C2528 1.312 . S
C2530 O2502 1.214 . S
C2530 O2510 1.234 . S
C2531 H2503 0.929 . S
C2531 C2534 1.391 . S
C2531 C2536 1.391 . S
C2532 H2504 0.929 . S
C2532 C2533 1.390 . S
C2532 N2535 1.391 . S
C2533 H2505 0.930 . S
C2533 C2532 1.390 . S
C2533 C2534 1.392 . S
C2534 H2506 0.929 . S
C2534 C2531 1.391 . S
C2534 C2533 1.392 . S
N2535 Co2479 2.257 . S
N2535 C2532 1.391 . S
N2535 C2536 1.388 . S
C2536 H2507 0.930 . S
C2536 C2531 1.391 . S
C2536 N2535 1.388 . S
Co2537 O2539 2.143 . S
Co2537 O2545 2.074 . S
Co2537 O2548 2.093 . S
Co2537 O2561 2.097 . S
Co2537 N2578 2.151 . S
Co2537 N2586 2.214 . S
Co2538 O2539 2.160 . S
Co2538 O2544 2.058 . S
Co2538 O2554 2.057 . S
Co2538 O2569 2.037 . S
Co2538 N2573 2.145 . S
Co2538 N2594 2.257 . S
O2539 Co2537 2.143 . S
O2539 Co2538 2.160 . S
C2540 O2541 1.278 . S
C2540 O2548 1.224 . S
O2541 C2540 1.278 . S
C2542 O2543 1.245 . S
C2542 O2554 1.232 . S
O2543 C2542 1.245 . S
O2544 Co2538 2.058 . S
O2544 C2570 1.269 . S
O2545 Co2537 2.074 . S
O2545 C2570 1.257 . S
H2546 C2571 0.930 . S
H2547 C2577 0.930 . S
O2548 Co2537 2.093 . S
O2548 C2540 1.224 . S
H2549 C2581 0.929 . S
H2550 C2583 0.930 . S
H2551 C2584 0.930 . S
H2552 C2582 0.929 . S
H2553 C2585 0.928 . S
O2554 Co2538 2.057 . S
O2554 C2542 1.232 . S
H2555 C2574 0.929 . S
H2556 C2575 0.929 . S
H2557 C2587 0.931 . S
H2558 C2579 0.929 . S
H2559 C2588 0.930 . S
H2560 C2580 0.931 . S
O2561 Co2537 2.097 . S
O2561 C2589 1.214 . S
H2562 C2590 0.929 . S
H2563 C2591 0.929 . S
H2564 C2592 0.930 . S
H2565 C2593 0.929 . S
H2566 C2595 0.930 . S
H2567 C2572 0.930 . S
H2568 C2576 0.930 . S
O2569 Co2538 2.037 . S
O2569 C2589 1.234 . S
C2570 O2544 1.269 . S
C2570 O2545 1.257 . S
C2571 H2546 0.930 . S
C2571 C2574 1.388 . S
C2571 C2576 1.418 . S
C2572 H2567 0.930 . S
C2572 C2575 1.404 . S
C2572 C2576 1.353 . S
N2573 Co2538 2.145 . S
N2573 C2574 1.397 . S
N2573 C2575 1.334 . S
C2574 H2555 0.929 . S
C2574 C2571 1.388 . S
C2574 N2573 1.397 . S
C2575 H2556 0.929 . S
C2575 C2572 1.404 . S
C2575 N2573 1.334 . S
C2576 H2568 0.930 . S
C2576 C2571 1.418 . S
C2576 C2572 1.353 . S
C2577 H2547 0.930 . S
C2577 N2578 1.330 . S
C2577 C2579 1.446 . S
N2578 Co2537 2.151 . S
N2578 C2577 1.330 . S
N2578 C2582 1.418 . S
C2579 H2558 0.929 . S
C2579 C2577 1.446 . S
C2579 C2580 1.332 . S
C2580 H2560 0.931 . S
C2580 C2579 1.332 . S
C2580 C2581 1.267 . S
C2581 H2549 0.929 . S
C2581 C2580 1.267 . S
C2581 C2582 1.251 . S
C2582 H2552 0.929 . S
C2582 N2578 1.418 . S
C2582 C2581 1.251 . S
C2583 H2550 0.930 . S
C2583 C2585 1.406 . S
C2583 C2588 1.261 . S
C2584 H2551 0.930 . S
C2584 N2586 1.325 . S
C2584 C2587 1.357 . S
C2585 H2553 0.928 . S
C2585 C2583 1.406 . S
C2585 N2586 1.261 . S
N2586 Co2537 2.214 . S
N2586 C2584 1.325 . S
N2586 C2585 1.261 . S
C2587 H2557 0.931 . S
C2587 C2584 1.357 . S
C2587 C2588 1.312 . S
C2588 H2559 0.930 . S
C2588 C2583 1.261 . S
C2588 C2587 1.312 . S
C2589 O2561 1.214 . S
C2589 O2569 1.234 . S
C2590 H2562 0.929 . S
C2590 C2593 1.391 . S
C2590 C2595 1.391 . S
C2591 H2563 0.929 . S
C2591 C2592 1.390 . S
C2591 N2594 1.391 . S
C2592 H2564 0.930 . S
C2592 C2591 1.390 . S
C2592 C2593 1.392 . S
C2593 H2565 0.929 . S
C2593 C2590 1.391 . S
C2593 C2592 1.392 . S
N2594 Co2538 2.257 . S
N2594 C2591 1.391 . S
N2594 C2595 1.388 . S
C2595 H2566 0.930 . S
C2595 C2590 1.391 . S
C2595 N2594 1.388 . S
Co2596 O2598 2.143 . S
Co2596 O2604 2.074 . S
Co2596 O2607 2.093 . S
Co2596 O2620 2.097 . S
Co2596 N2637 2.151 . S
Co2596 N2645 2.214 . S
Co2597 O2598 2.160 . S
Co2597 O2603 2.058 . S
Co2597 O2613 2.057 . S
Co2597 O2628 2.037 . S
Co2597 N2632 2.145 . S
Co2597 N2653 2.257 . S
O2598 Co2596 2.143 . S
O2598 Co2597 2.160 . S
C2599 O2600 1.278 . S
C2599 O2607 1.224 . S
O2600 C2599 1.278 . S
C2601 O2602 1.245 . S
C2601 O2613 1.232 . S
O2602 C2601 1.245 . S
O2603 Co2597 2.058 . S
O2603 C2629 1.269 . S
O2604 Co2596 2.074 . S
O2604 C2629 1.257 . S
H2605 C2630 0.930 . S
H2606 C2636 0.930 . S
O2607 Co2596 2.093 . S
O2607 C2599 1.224 . S
H2608 C2640 0.929 . S
H2609 C2642 0.930 . S
H2610 C2643 0.930 . S
H2611 C2641 0.929 . S
H2612 C2644 0.928 . S
O2613 Co2597 2.057 . S
O2613 C2601 1.232 . S
H2614 C2633 0.929 . S
H2615 C2634 0.929 . S
H2616 C2646 0.931 . S
H2617 C2638 0.929 . S
H2618 C2647 0.930 . S
H2619 C2639 0.931 . S
O2620 Co2596 2.097 . S
O2620 C2648 1.214 . S
H2621 C2649 0.929 . S
H2622 C2650 0.929 . S
H2623 C2651 0.930 . S
H2624 C2652 0.929 . S
H2625 C2654 0.930 . S
H2626 C2631 0.930 . S
H2627 C2635 0.930 . S
O2628 Co2597 2.037 . S
O2628 C2648 1.234 . S
C2629 O2603 1.269 . S
C2629 O2604 1.257 . S
C2630 H2605 0.930 . S
C2630 C2633 1.388 . S
C2630 C2635 1.418 . S
C2631 H2626 0.930 . S
C2631 C2634 1.404 . S
C2631 C2635 1.353 . S
N2632 Co2597 2.145 . S
N2632 C2633 1.397 . S
N2632 C2634 1.334 . S
C2633 H2614 0.929 . S
C2633 C2630 1.388 . S
C2633 N2632 1.397 . S
C2634 H2615 0.929 . S
C2634 C2631 1.404 . S
C2634 N2632 1.334 . S
C2635 H2627 0.930 . S
C2635 C2630 1.418 . S
C2635 C2631 1.353 . S
C2636 H2606 0.930 . S
C2636 N2637 1.330 . S
C2636 C2638 1.446 . S
N2637 Co2596 2.151 . S
N2637 C2636 1.330 . S
N2637 C2641 1.418 . S
C2638 H2617 0.929 . S
C2638 C2636 1.446 . S
C2638 C2639 1.332 . S
C2639 H2619 0.931 . S
C2639 C2638 1.332 . S
C2639 C2640 1.267 . S
C2640 H2608 0.929 . S
C2640 C2639 1.267 . S
C2640 C2641 1.251 . S
C2641 H2611 0.929 . S
C2641 N2637 1.418 . S
C2641 C2640 1.251 . S
C2642 H2609 0.930 . S
C2642 C2644 1.406 . S
C2642 C2647 1.261 . S
C2643 H2610 0.930 . S
C2643 N2645 1.325 . S
C2643 C2646 1.357 . S
C2644 H2612 0.928 . S
C2644 C2642 1.406 . S
C2644 N2645 1.261 . S
N2645 Co2596 2.214 . S
N2645 C2643 1.325 . S
N2645 C2644 1.261 . S
C2646 H2616 0.931 . S
C2646 C2643 1.357 . S
C2646 C2647 1.312 . S
C2647 H2618 0.930 . S
C2647 C2642 1.261 . S
C2647 C2646 1.312 . S
C2648 O2620 1.214 . S
C2648 O2628 1.234 . S
C2649 H2621 0.929 . S
C2649 C2652 1.391 . S
C2649 C2654 1.391 . S
C2650 H2622 0.929 . S
C2650 C2651 1.390 . S
C2650 N2653 1.391 . S
C2651 H2623 0.930 . S
C2651 C2650 1.390 . S
C2651 C2652 1.392 . S
C2652 H2624 0.929 . S
C2652 C2649 1.391 . S
C2652 C2651 1.392 . S
N2653 Co2597 2.257 . S
N2653 C2650 1.391 . S
N2653 C2654 1.388 . S
C2654 H2625 0.930 . S
C2654 C2649 1.391 . S
C2654 N2653 1.388 . S
Co2655 O2657 2.143 . S
Co2655 O2663 2.074 . S
Co2655 O2666 2.093 . S
Co2655 O2679 2.097 . S
Co2655 N2696 2.151 . S
Co2655 N2704 2.214 . S
Co2656 O2657 2.160 . S
Co2656 O2662 2.058 . S
Co2656 O2672 2.057 . S
Co2656 O2687 2.037 . S
Co2656 N2691 2.145 . S
Co2656 N2712 2.257 . S
O2657 Co2655 2.143 . S
O2657 Co2656 2.160 . S
C2658 O2659 1.278 . S
C2658 O2666 1.224 . S
O2659 C2658 1.278 . S
C2660 O2661 1.245 . S
C2660 O2672 1.232 . S
O2661 C2660 1.245 . S
O2662 Co2656 2.058 . S
O2662 C2688 1.269 . S
O2663 Co2655 2.074 . S
O2663 C2688 1.257 . S
H2664 C2689 0.930 . S
H2665 C2695 0.930 . S
O2666 Co2655 2.093 . S
O2666 C2658 1.224 . S
H2667 C2699 0.929 . S
H2668 C2701 0.930 . S
H2669 C2702 0.930 . S
H2670 C2700 0.929 . S
H2671 C2703 0.928 . S
O2672 Co2656 2.057 . S
O2672 C2660 1.232 . S
H2673 C2692 0.929 . S
H2674 C2693 0.929 . S
H2675 C2705 0.931 . S
H2676 C2697 0.929 . S
H2677 C2706 0.930 . S
H2678 C2698 0.931 . S
O2679 Co2655 2.097 . S
O2679 C2707 1.214 . S
H2680 C2708 0.929 . S
H2681 C2709 0.929 . S
H2682 C2710 0.930 . S
H2683 C2711 0.929 . S
H2684 C2713 0.930 . S
H2685 C2690 0.930 . S
H2686 C2694 0.930 . S
O2687 Co2656 2.037 . S
O2687 C2707 1.234 . S
C2688 O2662 1.269 . S
C2688 O2663 1.257 . S
C2689 H2664 0.930 . S
C2689 C2692 1.388 . S
C2689 C2694 1.418 . S
C2690 H2685 0.930 . S
C2690 C2693 1.404 . S
C2690 C2694 1.353 . S
N2691 Co2656 2.145 . S
N2691 C2692 1.397 . S
N2691 C2693 1.334 . S
C2692 H2673 0.929 . S
C2692 C2689 1.388 . S
C2692 N2691 1.397 . S
C2693 H2674 0.929 . S
C2693 C2690 1.404 . S
C2693 N2691 1.334 . S
C2694 H2686 0.930 . S
C2694 C2689 1.418 . S
C2694 C2690 1.353 . S
C2695 H2665 0.930 . S
C2695 N2696 1.330 . S
C2695 C2697 1.446 . S
N2696 Co2655 2.151 . S
N2696 C2695 1.330 . S
N2696 C2700 1.418 . S
C2697 H2676 0.929 . S
C2697 C2695 1.446 . S
C2697 C2698 1.332 . S
C2698 H2678 0.931 . S
C2698 C2697 1.332 . S
C2698 C2699 1.267 . S
C2699 H2667 0.929 . S
C2699 C2698 1.267 . S
C2699 C2700 1.251 . S
C2700 H2670 0.929 . S
C2700 N2696 1.418 . S
C2700 C2699 1.251 . S
C2701 H2668 0.930 . S
C2701 C2703 1.406 . S
C2701 C2706 1.261 . S
C2702 H2669 0.930 . S
C2702 N2704 1.325 . S
C2702 C2705 1.357 . S
C2703 H2671 0.928 . S
C2703 C2701 1.406 . S
C2703 N2704 1.261 . S
N2704 Co2655 2.214 . S
N2704 C2702 1.325 . S
N2704 C2703 1.261 . S
C2705 H2675 0.931 . S
C2705 C2702 1.357 . S
C2705 C2706 1.312 . S
C2706 H2677 0.930 . S
C2706 C2701 1.261 . S
C2706 C2705 1.312 . S
C2707 O2679 1.214 . S
C2707 O2687 1.234 . S
C2708 H2680 0.929 . S
C2708 C2711 1.391 . S
C2708 C2713 1.391 . S
C2709 H2681 0.929 . S
C2709 C2710 1.390 . S
C2709 N2712 1.391 . S
C2710 H2682 0.930 . S
C2710 C2709 1.390 . S
C2710 C2711 1.392 . S
C2711 H2683 0.929 . S
C2711 C2708 1.391 . S
C2711 C2710 1.392 . S
N2712 Co2656 2.257 . S
N2712 C2709 1.391 . S
N2712 C2713 1.388 . S
C2713 H2684 0.930 . S
C2713 C2708 1.391 . S
C2713 N2712 1.388 . S
Co2714 O2716 2.143 . S
Co2714 O2722 2.074 . S
Co2714 O2725 2.093 . S
Co2714 O2738 2.097 . S
Co2714 N2755 2.151 . S
Co2714 N2763 2.214 . S
Co2715 O2716 2.160 . S
Co2715 O2721 2.058 . S
Co2715 O2731 2.057 . S
Co2715 O2746 2.037 . S
Co2715 N2750 2.145 . S
Co2715 N2771 2.257 . S
O2716 Co2714 2.143 . S
O2716 Co2715 2.160 . S
C2717 O2718 1.278 . S
C2717 O2725 1.224 . S
O2718 C2717 1.278 . S
C2719 O2720 1.245 . S
C2719 O2731 1.232 . S
O2720 C2719 1.245 . S
O2721 Co2715 2.058 . S
O2721 C2747 1.269 . S
O2722 Co2714 2.074 . S
O2722 C2747 1.257 . S
H2723 C2748 0.930 . S
H2724 C2754 0.930 . S
O2725 Co2714 2.093 . S
O2725 C2717 1.224 . S
H2726 C2758 0.929 . S
H2727 C2760 0.930 . S
H2728 C2761 0.930 . S
H2729 C2759 0.929 . S
H2730 C2762 0.928 . S
O2731 Co2715 2.057 . S
O2731 C2719 1.232 . S
H2732 C2751 0.929 . S
H2733 C2752 0.929 . S
H2734 C2764 0.931 . S
H2735 C2756 0.929 . S
H2736 C2765 0.930 . S
H2737 C2757 0.931 . S
O2738 Co2714 2.097 . S
O2738 C2766 1.214 . S
H2739 C2767 0.929 . S
H2740 C2768 0.929 . S
H2741 C2769 0.930 . S
H2742 C2770 0.929 . S
H2743 C2772 0.930 . S
H2744 C2749 0.930 . S
H2745 C2753 0.930 . S
O2746 Co2715 2.037 . S
O2746 C2766 1.234 . S
C2747 O2721 1.269 . S
C2747 O2722 1.257 . S
C2748 H2723 0.930 . S
C2748 C2751 1.388 . S
C2748 C2753 1.418 . S
C2749 H2744 0.930 . S
C2749 C2752 1.404 . S
C2749 C2753 1.353 . S
N2750 Co2715 2.145 . S
N2750 C2751 1.397 . S
N2750 C2752 1.334 . S
C2751 H2732 0.929 . S
C2751 C2748 1.388 . S
C2751 N2750 1.397 . S
C2752 H2733 0.929 . S
C2752 C2749 1.404 . S
C2752 N2750 1.334 . S
C2753 H2745 0.930 . S
C2753 C2748 1.418 . S
C2753 C2749 1.353 . S
C2754 H2724 0.930 . S
C2754 N2755 1.330 . S
C2754 C2756 1.446 . S
N2755 Co2714 2.151 . S
N2755 C2754 1.330 . S
N2755 C2759 1.418 . S
C2756 H2735 0.929 . S
C2756 C2754 1.446 . S
C2756 C2757 1.332 . S
C2757 H2737 0.931 . S
C2757 C2756 1.332 . S
C2757 C2758 1.267 . S
C2758 H2726 0.929 . S
C2758 C2757 1.267 . S
C2758 C2759 1.251 . S
C2759 H2729 0.929 . S
C2759 N2755 1.418 . S
C2759 C2758 1.251 . S
C2760 H2727 0.930 . S
C2760 C2762 1.406 . S
C2760 C2765 1.261 . S
C2761 H2728 0.930 . S
C2761 N2763 1.325 . S
C2761 C2764 1.357 . S
C2762 H2730 0.928 . S
C2762 C2760 1.406 . S
C2762 N2763 1.261 . S
N2763 Co2714 2.214 . S
N2763 C2761 1.325 . S
N2763 C2762 1.261 . S
C2764 H2734 0.931 . S
C2764 C2761 1.357 . S
C2764 C2765 1.312 . S
C2765 H2736 0.930 . S
C2765 C2760 1.261 . S
C2765 C2764 1.312 . S
C2766 O2738 1.214 . S
C2766 O2746 1.234 . S
C2767 H2739 0.929 . S
C2767 C2770 1.391 . S
C2767 C2772 1.391 . S
C2768 H2740 0.929 . S
C2768 C2769 1.390 . S
C2768 N2771 1.391 . S
C2769 H2741 0.930 . S
C2769 C2768 1.390 . S
C2769 C2770 1.392 . S
C2770 H2742 0.929 . S
C2770 C2767 1.391 . S
C2770 C2769 1.392 . S
N2771 Co2715 2.257 . S
N2771 C2768 1.391 . S
N2771 C2772 1.388 . S
C2772 H2743 0.930 . S
C2772 C2767 1.391 . S
C2772 N2771 1.388 . S
Co2773 O2775 2.143 . S
Co2773 O2781 2.074 . S
Co2773 O2784 2.093 . S
Co2773 O2797 2.097 . S
Co2773 N2814 2.151 . S
Co2773 N2822 2.214 . S
Co2774 O2775 2.160 . S
Co2774 O2780 2.058 . S
Co2774 O2790 2.057 . S
Co2774 O2805 2.037 . S
Co2774 N2809 2.145 . S
Co2774 N2830 2.257 . S
O2775 Co2773 2.143 . S
O2775 Co2774 2.160 . S
C2776 O2777 1.278 . S
C2776 O2784 1.224 . S
O2777 C2776 1.278 . S
C2778 O2779 1.245 . S
C2778 O2790 1.232 . S
O2779 C2778 1.245 . S
O2780 Co2774 2.058 . S
O2780 C2806 1.269 . S
O2781 Co2773 2.074 . S
O2781 C2806 1.257 . S
H2782 C2807 0.930 . S
H2783 C2813 0.930 . S
O2784 Co2773 2.093 . S
O2784 C2776 1.224 . S
H2785 C2817 0.929 . S
H2786 C2819 0.930 . S
H2787 C2820 0.930 . S
H2788 C2818 0.929 . S
H2789 C2821 0.928 . S
O2790 Co2774 2.057 . S
O2790 C2778 1.232 . S
H2791 C2810 0.929 . S
H2792 C2811 0.929 . S
H2793 C2823 0.931 . S
H2794 C2815 0.929 . S
H2795 C2824 0.930 . S
H2796 C2816 0.931 . S
O2797 Co2773 2.097 . S
O2797 C2825 1.214 . S
H2798 C2826 0.929 . S
H2799 C2827 0.929 . S
H2800 C2828 0.930 . S
H2801 C2829 0.929 . S
H2802 C2831 0.930 . S
H2803 C2808 0.930 . S
H2804 C2812 0.930 . S
O2805 Co2774 2.037 . S
O2805 C2825 1.234 . S
C2806 O2780 1.269 . S
C2806 O2781 1.257 . S
C2807 H2782 0.930 . S
C2807 C2810 1.388 . S
C2807 C2812 1.418 . S
C2808 H2803 0.930 . S
C2808 C2811 1.404 . S
C2808 C2812 1.353 . S
N2809 Co2774 2.145 . S
N2809 C2810 1.397 . S
N2809 C2811 1.334 . S
C2810 H2791 0.929 . S
C2810 C2807 1.388 . S
C2810 N2809 1.397 . S
C2811 H2792 0.929 . S
C2811 C2808 1.404 . S
C2811 N2809 1.334 . S
C2812 H2804 0.930 . S
C2812 C2807 1.418 . S
C2812 C2808 1.353 . S
C2813 H2783 0.930 . S
C2813 N2814 1.330 . S
C2813 C2815 1.446 . S
N2814 Co2773 2.151 . S
N2814 C2813 1.330 . S
N2814 C2818 1.418 . S
C2815 H2794 0.929 . S
C2815 C2813 1.446 . S
C2815 C2816 1.332 . S
C2816 H2796 0.931 . S
C2816 C2815 1.332 . S
C2816 C2817 1.267 . S
C2817 H2785 0.929 . S
C2817 C2816 1.267 . S
C2817 C2818 1.251 . S
C2818 H2788 0.929 . S
C2818 N2814 1.418 . S
C2818 C2817 1.251 . S
C2819 H2786 0.930 . S
C2819 C2821 1.406 . S
C2819 C2824 1.261 . S
C2820 H2787 0.930 . S
C2820 N2822 1.325 . S
C2820 C2823 1.357 . S
C2821 H2789 0.928 . S
C2821 C2819 1.406 . S
C2821 N2822 1.261 . S
N2822 Co2773 2.214 . S
N2822 C2820 1.325 . S
N2822 C2821 1.261 . S
C2823 H2793 0.931 . S
C2823 C2820 1.357 . S
C2823 C2824 1.312 . S
C2824 H2795 0.930 . S
C2824 C2819 1.261 . S
C2824 C2823 1.312 . S
C2825 O2797 1.214 . S
C2825 O2805 1.234 . S
C2826 H2798 0.929 . S
C2826 C2829 1.391 . S
C2826 C2831 1.391 . S
C2827 H2799 0.929 . S
C2827 C2828 1.390 . S
C2827 N2830 1.391 . S
C2828 H2800 0.930 . S
C2828 C2827 1.390 . S
C2828 C2829 1.392 . S
C2829 H2801 0.929 . S
C2829 C2826 1.391 . S
C2829 C2828 1.392 . S
N2830 Co2774 2.257 . S
N2830 C2827 1.391 . S
N2830 C2831 1.388 . S
C2831 H2802 0.930 . S
C2831 C2826 1.391 . S
C2831 N2830 1.388 . S
H2832 C2840 0.929 . S
H2833 C2842 0.930 . S
H2834 C2844 0.930 . S
H2835 C2847 0.929 . S
H2836 C2850 0.930 . S
H2837 C2852 0.960 . S
H2838 C2852 0.960 . S
H2839 C2852 0.960 . S
C2840 H2832 0.929 . S
C2840 C2841 1.377 . S
C2840 C2842 1.384 . S
C2841 C2840 1.377 . S
C2841 C2847 1.390 . S
C2842 H2833 0.930 . S
C2842 C2840 1.384 . S
C2842 C2843 1.372 . S
C2843 C2842 1.372 . S
C2843 C2844 1.400 . S
C2843 C2848 1.490 . S
C2844 H2834 0.930 . S
C2844 C2843 1.400 . S
C2844 C2847 1.386 . S
H2845 C2861 0.930 . S
H2846 C2862 0.931 . S
C2847 H2835 0.929 . S
C2847 C2841 1.390 . S
C2847 C2844 1.386 . S
C2848 C2843 1.490 . S
C2848 C2850 1.395 . S
C2848 C2851 1.403 . S
H2849 C2855 0.930 . S
C2850 H2836 0.930 . S
C2850 C2848 1.395 . S
C2850 C2853 1.403 . S
C2851 C2848 1.403 . S
C2851 C2852 1.524 . S
C2851 C2855 1.400 . S
C2852 H2837 0.960 . S
C2852 H2838 0.960 . S
C2852 H2839 0.960 . S
C2852 C2851 1.524 . S
C2853 C2850 1.403 . S
C2853 C2854 1.392 . S
C2853 C2857 1.495 . S
C2854 C2853 1.392 . S
C2854 C2855 1.385 . S
C2854 C2856 1.478 . S
C2855 H2849 0.930 . S
C2855 C2851 1.400 . S
C2855 C2854 1.385 . S
C2856 C2854 1.478 . S
C2856 C2858 1.381 . S
C2856 C2862 1.383 . S
C2857 C2853 1.495 . S
C2857 H2863 0.959 . S
C2857 H2864 0.961 . S
C2857 H2865 0.960 . S
C2858 C2856 1.381 . S
C2858 C2859 1.394 . S
C2858 H2866 0.930 . S
C2859 C2858 1.394 . S
C2859 C2860 1.383 . S
C2859 H2867 0.929 . S
C2860 C2859 1.383 . S
C2860 C2861 1.377 . S
C2861 H2845 0.930 . S
C2861 C2860 1.377 . S
C2861 C2862 1.379 . S
C2862 H2846 0.931 . S
C2862 C2856 1.383 . S
C2862 C2861 1.379 . S
H2863 C2857 0.959 . S
H2864 C2857 0.961 . S
H2865 C2857 0.960 . S
H2866 C2858 0.930 . S
H2867 C2859 0.929 . S
H2868 C2876 0.929 . S
H2869 C2878 0.930 . S
H2870 C2880 0.930 . S
H2871 C2883 0.929 . S
H2872 C2886 0.930 . S
H2873 C2888 0.960 . S
H2874 C2888 0.960 . S
H2875 C2888 0.960 . S
C2876 H2868 0.929 . S
C2876 C2877 1.377 . S
C2876 C2878 1.384 . S
C2877 C2876 1.377 . S
C2877 C2883 1.390 . S
C2878 H2869 0.930 . S
C2878 C2876 1.384 . S
C2878 C2879 1.372 . S
C2879 C2878 1.372 . S
C2879 C2880 1.400 . S
C2879 C2884 1.490 . S
C2880 H2870 0.930 . S
C2880 C2879 1.400 . S
C2880 C2883 1.386 . S
H2881 C2897 0.930 . S
H2882 C2898 0.931 . S
C2883 H2871 0.929 . S
C2883 C2877 1.390 . S
C2883 C2880 1.386 . S
C2884 C2879 1.490 . S
C2884 C2886 1.395 . S
C2884 C2887 1.403 . S
H2885 C2891 0.930 . S
C2886 H2872 0.930 . S
C2886 C2884 1.395 . S
C2886 C2889 1.403 . S
C2887 C2884 1.403 . S
C2887 C2888 1.524 . S
C2887 C2891 1.400 . S
C2888 H2873 0.960 . S
C2888 H2874 0.960 . S
C2888 H2875 0.960 . S
C2888 C2887 1.524 . S
C2889 C2886 1.403 . S
C2889 C2890 1.392 . S
C2889 C2893 1.495 . S
C2890 C2889 1.392 . S
C2890 C2891 1.385 . S
C2890 C2892 1.478 . S
C2891 H2885 0.930 . S
C2891 C2887 1.400 . S
C2891 C2890 1.385 . S
C2892 C2890 1.478 . S
C2892 C2894 1.381 . S
C2892 C2898 1.383 . S
C2893 C2889 1.495 . S
C2893 H2899 0.959 . S
C2893 H2900 0.961 . S
C2893 H2901 0.960 . S
C2894 C2892 1.381 . S
C2894 C2895 1.394 . S
C2894 H2902 0.930 . S
C2895 C2894 1.394 . S
C2895 C2896 1.383 . S
C2895 H2903 0.929 . S
C2896 C2895 1.383 . S
C2896 C2897 1.377 . S
C2897 H2881 0.930 . S
C2897 C2896 1.377 . S
C2897 C2898 1.379 . S
C2898 H2882 0.931 . S
C2898 C2892 1.383 . S
C2898 C2897 1.379 . S
H2899 C2893 0.959 . S
H2900 C2893 0.961 . S
H2901 C2893 0.960 . S
H2902 C2894 0.930 . S
H2903 C2895 0.929 . S
H2904 C2912 0.929 . S
H2905 C2914 0.930 . S
H2906 C2916 0.930 . S
H2907 C2919 0.929 . S
H2908 C2922 0.930 . S
H2909 C2924 0.960 . S
H2910 C2924 0.960 . S
H2911 C2924 0.960 . S
C2912 H2904 0.929 . S
C2912 C2913 1.377 . S
C2912 C2914 1.384 . S
C2913 C2912 1.377 . S
C2913 C2919 1.390 . S
C2914 H2905 0.930 . S
C2914 C2912 1.384 . S
C2914 C2915 1.372 . S
C2915 C2914 1.372 . S
C2915 C2916 1.400 . S
C2915 C2920 1.490 . S
C2916 H2906 0.930 . S
C2916 C2915 1.400 . S
C2916 C2919 1.386 . S
H2917 C2933 0.930 . S
H2918 C2934 0.931 . S
C2919 H2907 0.929 . S
C2919 C2913 1.390 . S
C2919 C2916 1.386 . S
C2920 C2915 1.490 . S
C2920 C2922 1.395 . S
C2920 C2923 1.403 . S
H2921 C2927 0.930 . S
C2922 H2908 0.930 . S
C2922 C2920 1.395 . S
C2922 C2925 1.403 . S
C2923 C2920 1.403 . S
C2923 C2924 1.524 . S
C2923 C2927 1.400 . S
C2924 H2909 0.960 . S
C2924 H2910 0.960 . S
C2924 H2911 0.960 . S
C2924 C2923 1.524 . S
C2925 C2922 1.403 . S
C2925 C2926 1.392 . S
C2925 C2929 1.495 . S
C2926 C2925 1.392 . S
C2926 C2927 1.385 . S
C2926 C2928 1.478 . S
C2927 H2921 0.930 . S
C2927 C2923 1.400 . S
C2927 C2926 1.385 . S
C2928 C2926 1.478 . S
C2928 C2930 1.381 . S
C2928 C2934 1.383 . S
C2929 C2925 1.495 . S
C2929 H2935 0.959 . S
C2929 H2936 0.961 . S
C2929 H2937 0.960 . S
C2930 C2928 1.381 . S
C2930 C2931 1.394 . S
C2930 H2938 0.930 . S
C2931 C2930 1.394 . S
C2931 C2932 1.383 . S
C2931 H2939 0.929 . S
C2932 C2931 1.383 . S
C2932 C2933 1.377 . S
C2933 H2917 0.930 . S
C2933 C2932 1.377 . S
C2933 C2934 1.379 . S
C2934 H2918 0.931 . S
C2934 C2928 1.383 . S
C2934 C2933 1.379 . S
H2935 C2929 0.959 . S
H2936 C2929 0.961 . S
H2937 C2929 0.960 . S
H2938 C2930 0.930 . S
H2939 C2931 0.929 . S
H2940 C2948 0.929 . S
H2941 C2950 0.930 . S
H2942 C2952 0.930 . S
H2943 C2955 0.929 . S
H2944 C2958 0.930 . S
H2945 C2960 0.960 . S
H2946 C2960 0.960 . S
H2947 C2960 0.960 . S
C2948 H2940 0.929 . S
C2948 C2949 1.377 . S
C2948 C2950 1.384 . S
C2949 C2948 1.377 . S
C2949 C2955 1.390 . S
C2950 H2941 0.930 . S
C2950 C2948 1.384 . S
C2950 C2951 1.372 . S
C2951 C2950 1.372 . S
C2951 C2952 1.400 . S
C2951 C2956 1.490 . S
C2952 H2942 0.930 . S
C2952 C2951 1.400 . S
C2952 C2955 1.386 . S
H2953 C2969 0.930 . S
H2954 C2970 0.931 . S
C2955 H2943 0.929 . S
C2955 C2949 1.390 . S
C2955 C2952 1.386 . S
C2956 C2951 1.490 . S
C2956 C2958 1.395 . S
C2956 C2959 1.403 . S
H2957 C2963 0.930 . S
C2958 H2944 0.930 . S
C2958 C2956 1.395 . S
C2958 C2961 1.403 . S
C2959 C2956 1.403 . S
C2959 C2960 1.524 . S
C2959 C2963 1.400 . S
C2960 H2945 0.960 . S
C2960 H2946 0.960 . S
C2960 H2947 0.960 . S
C2960 C2959 1.524 . S
C2961 C2958 1.403 . S
C2961 C2962 1.392 . S
C2961 C2965 1.495 . S
C2962 C2961 1.392 . S
C2962 C2963 1.385 . S
C2962 C2964 1.478 . S
C2963 H2957 0.930 . S
C2963 C2959 1.400 . S
C2963 C2962 1.385 . S
C2964 C2962 1.478 . S
C2964 C2966 1.381 . S
C2964 C2970 1.383 . S
C2965 C2961 1.495 . S
C2965 H2971 0.959 . S
C2965 H2972 0.961 . S
C2965 H2973 0.960 . S
C2966 C2964 1.381 . S
C2966 C2967 1.394 . S
C2966 H2974 0.930 . S
C2967 C2966 1.394 . S
C2967 C2968 1.383 . S
C2967 H2975 0.929 . S
C2968 C2967 1.383 . S
C2968 C2969 1.377 . S
C2969 H2953 0.930 . S
C2969 C2968 1.377 . S
C2969 C2970 1.379 . S
C2970 H2954 0.931 . S
C2970 C2964 1.383 . S
C2970 C2969 1.379 . S
H2971 C2965 0.959 . S
H2972 C2965 0.961 . S
H2973 C2965 0.960 . S
H2974 C2966 0.930 . S
H2975 C2967 0.929 . S
H2976 C2984 0.929 . S
H2977 C2986 0.930 . S
H2978 C2988 0.930 . S
H2979 C2991 0.929 . S
H2980 C2994 0.930 . S
H2981 C2996 0.960 . S
H2982 C2996 0.960 . S
H2983 C2996 0.960 . S
C2984 H2976 0.929 . S
C2984 C2985 1.377 . S
C2984 C2986 1.384 . S
C2985 C2984 1.377 . S
C2985 C2991 1.390 . S
C2986 H2977 0.930 . S
C2986 C2984 1.384 . S
C2986 C2987 1.372 . S
C2987 C2986 1.372 . S
C2987 C2988 1.400 . S
C2987 C2992 1.490 . S
C2988 H2978 0.930 . S
C2988 C2987 1.400 . S
C2988 C2991 1.386 . S
H2989 C3005 0.930 . S
H2990 C3006 0.931 . S
C2991 H2979 0.929 . S
C2991 C2985 1.390 . S
C2991 C2988 1.386 . S
C2992 C2987 1.490 . S
C2992 C2994 1.395 . S
C2992 C2995 1.403 . S
H2993 C2999 0.930 . S
C2994 H2980 0.930 . S
C2994 C2992 1.395 . S
C2994 C2997 1.403 . S
C2995 C2992 1.403 . S
C2995 C2996 1.524 . S
C2995 C2999 1.400 . S
C2996 H2981 0.960 . S
C2996 H2982 0.960 . S
C2996 H2983 0.960 . S
C2996 C2995 1.524 . S
C2997 C2994 1.403 . S
C2997 C2998 1.392 . S
C2997 C3001 1.495 . S
C2998 C2997 1.392 . S
C2998 C2999 1.385 . S
C2998 C3000 1.478 . S
C2999 H2993 0.930 . S
C2999 C2995 1.400 . S
C2999 C2998 1.385 . S
C3000 C2998 1.478 . S
C3000 C3002 1.381 . S
C3000 C3006 1.383 . S
C3001 C2997 1.495 . S
C3001 H3007 0.959 . S
C3001 H3008 0.961 . S
C3001 H3009 0.960 . S
C3002 C3000 1.381 . S
C3002 C3003 1.394 . S
C3002 H3010 0.930 . S
C3003 C3002 1.394 . S
C3003 C3004 1.383 . S
C3003 H3011 0.929 . S
C3004 C3003 1.383 . S
C3004 C3005 1.377 . S
C3005 H2989 0.930 . S
C3005 C3004 1.377 . S
C3005 C3006 1.379 . S
C3006 H2990 0.931 . S
C3006 C3000 1.383 . S
C3006 C3005 1.379 . S
H3007 C3001 0.959 . S
H3008 C3001 0.961 . S
H3009 C3001 0.960 . S
H3010 C3002 0.930 . S
H3011 C3003 0.929 . S
H3012 C3020 0.929 . S
H3013 C3022 0.930 . S
H3014 C3024 0.930 . S
H3015 C3027 0.929 . S
H3016 C3030 0.930 . S
H3017 C3032 0.960 . S
H3018 C3032 0.960 . S
H3019 C3032 0.960 . S
C3020 H3012 0.929 . S
C3020 C3021 1.377 . S
C3020 C3022 1.384 . S
C3021 C3020 1.377 . S
C3021 C3027 1.390 . S
C3022 H3013 0.930 . S
C3022 C3020 1.384 . S
C3022 C3023 1.372 . S
C3023 C3022 1.372 . S
C3023 C3024 1.400 . S
C3023 C3028 1.490 . S
C3024 H3014 0.930 . S
C3024 C3023 1.400 . S
C3024 C3027 1.386 . S
H3025 C3041 0.930 . S
H3026 C3042 0.931 . S
C3027 H3015 0.929 . S
C3027 C3021 1.390 . S
C3027 C3024 1.386 . S
C3028 C3023 1.490 . S
C3028 C3030 1.395 . S
C3028 C3031 1.403 . S
H3029 C3035 0.930 . S
C3030 H3016 0.930 . S
C3030 C3028 1.395 . S
C3030 C3033 1.403 . S
C3031 C3028 1.403 . S
C3031 C3032 1.524 . S
C3031 C3035 1.400 . S
C3032 H3017 0.960 . S
C3032 H3018 0.960 . S
C3032 H3019 0.960 . S
C3032 C3031 1.524 . S
C3033 C3030 1.403 . S
C3033 C3034 1.392 . S
C3033 C3037 1.495 . S
C3034 C3033 1.392 . S
C3034 C3035 1.385 . S
C3034 C3036 1.478 . S
C3035 H3029 0.930 . S
C3035 C3031 1.400 . S
C3035 C3034 1.385 . S
C3036 C3034 1.478 . S
C3036 C3038 1.381 . S
C3036 C3042 1.383 . S
C3037 C3033 1.495 . S
C3037 H3043 0.959 . S
C3037 H3044 0.961 . S
C3037 H3045 0.960 . S
C3038 C3036 1.381 . S
C3038 C3039 1.394 . S
C3038 H3046 0.930 . S
C3039 C3038 1.394 . S
C3039 C3040 1.383 . S
C3039 H3047 0.929 . S
C3040 C3039 1.383 . S
C3040 C3041 1.377 . S
C3041 H3025 0.930 . S
C3041 C3040 1.377 . S
C3041 C3042 1.379 . S
C3042 H3026 0.931 . S
C3042 C3036 1.383 . S
C3042 C3041 1.379 . S
H3043 C3037 0.959 . S
H3044 C3037 0.961 . S
H3045 C3037 0.960 . S
H3046 C3038 0.930 . S
H3047 C3039 0.929 . S
H3048 C3056 0.929 . S
H3049 C3058 0.930 . S
H3050 C3060 0.930 . S
H3051 C3063 0.929 . S
H3052 C3066 0.930 . S
H3053 C3068 0.960 . S
H3054 C3068 0.960 . S
H3055 C3068 0.960 . S
C3056 H3048 0.929 . S
C3056 C3057 1.377 . S
C3056 C3058 1.384 . S
C3057 C3056 1.377 . S
C3057 C3063 1.390 . S
C3058 H3049 0.930 . S
C3058 C3056 1.384 . S
C3058 C3059 1.372 . S
C3059 C3058 1.372 . S
C3059 C3060 1.400 . S
C3059 C3064 1.490 . S
C3060 H3050 0.930 . S
C3060 C3059 1.400 . S
C3060 C3063 1.386 . S
H3061 C3077 0.930 . S
H3062 C3078 0.931 . S
C3063 H3051 0.929 . S
C3063 C3057 1.390 . S
C3063 C3060 1.386 . S
C3064 C3059 1.490 . S
C3064 C3066 1.395 . S
C3064 C3067 1.403 . S
H3065 C3071 0.930 . S
C3066 H3052 0.930 . S
C3066 C3064 1.395 . S
C3066 C3069 1.403 . S
C3067 C3064 1.403 . S
C3067 C3068 1.524 . S
C3067 C3071 1.400 . S
C3068 H3053 0.960 . S
C3068 H3054 0.960 . S
C3068 H3055 0.960 . S
C3068 C3067 1.524 . S
C3069 C3066 1.403 . S
C3069 C3070 1.392 . S
C3069 C3073 1.495 . S
C3070 C3069 1.392 . S
C3070 C3071 1.385 . S
C3070 C3072 1.478 . S
C3071 H3065 0.930 . S
C3071 C3067 1.400 . S
C3071 C3070 1.385 . S
C3072 C3070 1.478 . S
C3072 C3074 1.381 . S
C3072 C3078 1.383 . S
C3073 C3069 1.495 . S
C3073 H3079 0.959 . S
C3073 H3080 0.961 . S
C3073 H3081 0.960 . S
C3074 C3072 1.381 . S
C3074 C3075 1.394 . S
C3074 H3082 0.930 . S
C3075 C3074 1.394 . S
C3075 C3076 1.383 . S
C3075 H3083 0.929 . S
C3076 C3075 1.383 . S
C3076 C3077 1.377 . S
C3077 H3061 0.930 . S
C3077 C3076 1.377 . S
C3077 C3078 1.379 . S
C3078 H3062 0.931 . S
C3078 C3072 1.383 . S
C3078 C3077 1.379 . S
H3079 C3073 0.959 . S
H3080 C3073 0.961 . S
H3081 C3073 0.960 . S
H3082 C3074 0.930 . S
H3083 C3075 0.929 . S
H3084 C3092 0.929 . S
H3085 C3094 0.930 . S
H3086 C3096 0.930 . S
H3087 C3099 0.929 . S
H3088 C3102 0.930 . S
H3089 C3104 0.960 . S
H3090 C3104 0.960 . S
H3091 C3104 0.960 . S
C3092 H3084 0.929 . S
C3092 C3093 1.377 . S
C3092 C3094 1.384 . S
C3093 C3092 1.377 . S
C3093 C3099 1.390 . S
C3094 H3085 0.930 . S
C3094 C3092 1.384 . S
C3094 C3095 1.372 . S
C3095 C3094 1.372 . S
C3095 C3096 1.400 . S
C3095 C3100 1.490 . S
C3096 H3086 0.930 . S
C3096 C3095 1.400 . S
C3096 C3099 1.386 . S
H3097 C3113 0.930 . S
H3098 C3114 0.931 . S
C3099 H3087 0.929 . S
C3099 C3093 1.390 . S
C3099 C3096 1.386 . S
C3100 C3095 1.490 . S
C3100 C3102 1.395 . S
C3100 C3103 1.403 . S
H3101 C3107 0.930 . S
C3102 H3088 0.930 . S
C3102 C3100 1.395 . S
C3102 C3105 1.403 . S
C3103 C3100 1.403 . S
C3103 C3104 1.524 . S
C3103 C3107 1.400 . S
C3104 H3089 0.960 . S
C3104 H3090 0.960 . S
C3104 H3091 0.960 . S
C3104 C3103 1.524 . S
C3105 C3102 1.403 . S
C3105 C3106 1.392 . S
C3105 C3109 1.495 . S
C3106 C3105 1.392 . S
C3106 C3107 1.385 . S
C3106 C3108 1.478 . S
C3107 H3101 0.930 . S
C3107 C3103 1.400 . S
C3107 C3106 1.385 . S
C3108 C3106 1.478 . S
C3108 C3110 1.381 . S
C3108 C3114 1.383 . S
C3109 C3105 1.495 . S
C3109 H3115 0.959 . S
C3109 H3116 0.961 . S
C3109 H3117 0.960 . S
C3110 C3108 1.381 . S
C3110 C3111 1.394 . S
C3110 H3118 0.930 . S
C3111 C3110 1.394 . S
C3111 C3112 1.383 . S
C3111 H3119 0.929 . S
C3112 C3111 1.383 . S
C3112 C3113 1.377 . S
C3113 H3097 0.930 . S
C3113 C3112 1.377 . S
C3113 C3114 1.379 . S
C3114 H3098 0.931 . S
C3114 C3108 1.383 . S
C3114 C3113 1.379 . S
H3115 C3109 0.959 . S
H3116 C3109 0.961 . S
H3117 C3109 0.960 . S
H3118 C3110 0.930 . S
H3119 C3111 0.929 . S
H3120 C3128 0.929 . S
H3121 C3130 0.930 . S
H3122 C3132 0.930 . S
H3123 C3135 0.929 . S
H3124 C3138 0.930 . S
H3125 C3140 0.960 . S
H3126 C3140 0.960 . S
H3127 C3140 0.960 . S
C3128 H3120 0.929 . S
C3128 C3129 1.377 . S
C3128 C3130 1.384 . S
C3129 C3128 1.377 . S
C3129 C3135 1.390 . S
C3130 H3121 0.930 . S
C3130 C3128 1.384 . S
C3130 C3131 1.372 . S
C3131 C3130 1.372 . S
C3131 C3132 1.400 . S
C3131 C3136 1.490 . S
C3132 H3122 0.930 . S
C3132 C3131 1.400 . S
C3132 C3135 1.386 . S
H3133 C3149 0.930 . S
H3134 C3150 0.931 . S
C3135 H3123 0.929 . S
C3135 C3129 1.390 . S
C3135 C3132 1.386 . S
C3136 C3131 1.490 . S
C3136 C3138 1.395 . S
C3136 C3139 1.403 . S
H3137 C3143 0.930 . S
C3138 H3124 0.930 . S
C3138 C3136 1.395 . S
C3138 C3141 1.403 . S
C3139 C3136 1.403 . S
C3139 C3140 1.524 . S
C3139 C3143 1.400 . S
C3140 H3125 0.960 . S
C3140 H3126 0.960 . S
C3140 H3127 0.960 . S
C3140 C3139 1.524 . S
C3141 C3138 1.403 . S
C3141 C3142 1.392 . S
C3141 C3145 1.495 . S
C3142 C3141 1.392 . S
C3142 C3143 1.385 . S
C3142 C3144 1.478 . S
C3143 H3137 0.930 . S
C3143 C3139 1.400 . S
C3143 C3142 1.385 . S
C3144 C3142 1.478 . S
C3144 C3146 1.381 . S
C3144 C3150 1.383 . S
C3145 C3141 1.495 . S
C3145 H3151 0.959 . S
C3145 H3152 0.961 . S
C3145 H3153 0.960 . S
C3146 C3144 1.381 . S
C3146 C3147 1.394 . S
C3146 H3154 0.930 . S
C3147 C3146 1.394 . S
C3147 C3148 1.383 . S
C3147 H3155 0.929 . S
C3148 C3147 1.383 . S
C3148 C3149 1.377 . S
C3149 H3133 0.930 . S
C3149 C3148 1.377 . S
C3149 C3150 1.379 . S
C3150 H3134 0.931 . S
C3150 C3144 1.383 . S
C3150 C3149 1.379 . S
H3151 C3145 0.959 . S
H3152 C3145 0.961 . S
H3153 C3145 0.960 . S
H3154 C3146 0.930 . S
H3155 C3147 0.929 . S
H3156 C3164 0.929 . S
H3157 C3166 0.930 . S
H3158 C3168 0.930 . S
H3159 C3171 0.929 . S
H3160 C3174 0.930 . S
H3161 C3176 0.960 . S
H3162 C3176 0.960 . S
H3163 C3176 0.960 . S
C3164 H3156 0.929 . S
C3164 C3165 1.377 . S
C3164 C3166 1.384 . S
C3165 C3164 1.377 . S
C3165 C3171 1.390 . S
C3166 H3157 0.930 . S
C3166 C3164 1.384 . S
C3166 C3167 1.372 . S
C3167 C3166 1.372 . S
C3167 C3168 1.400 . S
C3167 C3172 1.490 . S
C3168 H3158 0.930 . S
C3168 C3167 1.400 . S
C3168 C3171 1.386 . S
H3169 C3185 0.930 . S
H3170 C3186 0.931 . S
C3171 H3159 0.929 . S
C3171 C3165 1.390 . S
C3171 C3168 1.386 . S
C3172 C3167 1.490 . S
C3172 C3174 1.395 . S
C3172 C3175 1.403 . S
H3173 C3179 0.930 . S
C3174 H3160 0.930 . S
C3174 C3172 1.395 . S
C3174 C3177 1.403 . S
C3175 C3172 1.403 . S
C3175 C3176 1.524 . S
C3175 C3179 1.400 . S
C3176 H3161 0.960 . S
C3176 H3162 0.960 . S
C3176 H3163 0.960 . S
C3176 C3175 1.524 . S
C3177 C3174 1.403 . S
C3177 C3178 1.392 . S
C3177 C3181 1.495 . S
C3178 C3177 1.392 . S
C3178 C3179 1.385 . S
C3178 C3180 1.478 . S
C3179 H3173 0.930 . S
C3179 C3175 1.400 . S
C3179 C3178 1.385 . S
C3180 C3178 1.478 . S
C3180 C3182 1.381 . S
C3180 C3186 1.383 . S
C3181 C3177 1.495 . S
C3181 H3187 0.959 . S
C3181 H3188 0.961 . S
C3181 H3189 0.960 . S
C3182 C3180 1.381 . S
C3182 C3183 1.394 . S
C3182 H3190 0.930 . S
C3183 C3182 1.394 . S
C3183 C3184 1.383 . S
C3183 H3191 0.929 . S
C3184 C3183 1.383 . S
C3184 C3185 1.377 . S
C3185 H3169 0.930 . S
C3185 C3184 1.377 . S
C3185 C3186 1.379 . S
C3186 H3170 0.931 . S
C3186 C3180 1.383 . S
C3186 C3185 1.379 . S
H3187 C3181 0.959 . S
H3188 C3181 0.961 . S
H3189 C3181 0.960 . S
H3190 C3182 0.930 . S
H3191 C3183 0.929 . S
H3192 C3200 0.929 . S
H3193 C3202 0.930 . S
H3194 C3204 0.930 . S
H3195 C3207 0.929 . S
H3196 C3210 0.930 . S
H3197 C3212 0.960 . S
H3198 C3212 0.960 . S
H3199 C3212 0.960 . S
C3200 H3192 0.929 . S
C3200 C3201 1.377 . S
C3200 C3202 1.384 . S
C3201 C3200 1.377 . S
C3201 C3207 1.390 . S
C3202 H3193 0.930 . S
C3202 C3200 1.384 . S
C3202 C3203 1.372 . S
C3203 C3202 1.372 . S
C3203 C3204 1.400 . S
C3203 C3208 1.490 . S
C3204 H3194 0.930 . S
C3204 C3203 1.400 . S
C3204 C3207 1.386 . S
H3205 C3221 0.930 . S
H3206 C3222 0.931 . S
C3207 H3195 0.929 . S
C3207 C3201 1.390 . S
C3207 C3204 1.386 . S
C3208 C3203 1.490 . S
C3208 C3210 1.395 . S
C3208 C3211 1.403 . S
H3209 C3215 0.930 . S
C3210 H3196 0.930 . S
C3210 C3208 1.395 . S
C3210 C3213 1.403 . S
C3211 C3208 1.403 . S
C3211 C3212 1.524 . S
C3211 C3215 1.400 . S
C3212 H3197 0.960 . S
C3212 H3198 0.960 . S
C3212 H3199 0.960 . S
C3212 C3211 1.524 . S
C3213 C3210 1.403 . S
C3213 C3214 1.392 . S
C3213 C3217 1.495 . S
C3214 C3213 1.392 . S
C3214 C3215 1.385 . S
C3214 C3216 1.478 . S
C3215 H3209 0.930 . S
C3215 C3211 1.400 . S
C3215 C3214 1.385 . S
C3216 C3214 1.478 . S
C3216 C3218 1.381 . S
C3216 C3222 1.383 . S
C3217 C3213 1.495 . S
C3217 H3223 0.959 . S
C3217 H3224 0.961 . S
C3217 H3225 0.960 . S
C3218 C3216 1.381 . S
C3218 C3219 1.394 . S
C3218 H3226 0.930 . S
C3219 C3218 1.394 . S
C3219 C3220 1.383 . S
C3219 H3227 0.929 . S
C3220 C3219 1.383 . S
C3220 C3221 1.377 . S
C3221 H3205 0.930 . S
C3221 C3220 1.377 . S
C3221 C3222 1.379 . S
C3222 H3206 0.931 . S
C3222 C3216 1.383 . S
C3222 C3221 1.379 . S
H3223 C3217 0.959 . S
H3224 C3217 0.961 . S
H3225 C3217 0.960 . S
H3226 C3218 0.930 . S
H3227 C3219 0.929 . S
H3228 C3236 0.929 . S
H3229 C3238 0.930 . S
H3230 C3240 0.930 . S
H3231 C3243 0.929 . S
H3232 C3246 0.930 . S
H3233 C3248 0.960 . S
H3234 C3248 0.960 . S
H3235 C3248 0.960 . S
C3236 H3228 0.929 . S
C3236 C3237 1.377 . S
C3236 C3238 1.384 . S
C3237 C3236 1.377 . S
C3237 C3243 1.390 . S
C3238 H3229 0.930 . S
C3238 C3236 1.384 . S
C3238 C3239 1.372 . S
C3239 C3238 1.372 . S
C3239 C3240 1.400 . S
C3239 C3244 1.490 . S
C3240 H3230 0.930 . S
C3240 C3239 1.400 . S
C3240 C3243 1.386 . S
H3241 C3257 0.930 . S
H3242 C3258 0.931 . S
C3243 H3231 0.929 . S
C3243 C3237 1.390 . S
C3243 C3240 1.386 . S
C3244 C3239 1.490 . S
C3244 C3246 1.395 . S
C3244 C3247 1.403 . S
H3245 C3251 0.930 . S
C3246 H3232 0.930 . S
C3246 C3244 1.395 . S
C3246 C3249 1.403 . S
C3247 C3244 1.403 . S
C3247 C3248 1.524 . S
C3247 C3251 1.400 . S
C3248 H3233 0.960 . S
C3248 H3234 0.960 . S
C3248 H3235 0.960 . S
C3248 C3247 1.524 . S
C3249 C3246 1.403 . S
C3249 C3250 1.392 . S
C3249 C3253 1.495 . S
C3250 C3249 1.392 . S
C3250 C3251 1.385 . S
C3250 C3252 1.478 . S
C3251 H3245 0.930 . S
C3251 C3247 1.400 . S
C3251 C3250 1.385 . S
C3252 C3250 1.478 . S
C3252 C3254 1.381 . S
C3252 C3258 1.383 . S
C3253 C3249 1.495 . S
C3253 H3259 0.959 . S
C3253 H3260 0.961 . S
C3253 H3261 0.960 . S
C3254 C3252 1.381 . S
C3254 C3255 1.394 . S
C3254 H3262 0.930 . S
C3255 C3254 1.394 . S
C3255 C3256 1.383 . S
C3255 H3263 0.929 . S
C3256 C3255 1.383 . S
C3256 C3257 1.377 . S
C3257 H3241 0.930 . S
C3257 C3256 1.377 . S
C3257 C3258 1.379 . S
C3258 H3242 0.931 . S
C3258 C3252 1.383 . S
C3258 C3257 1.379 . S
H3259 C3253 0.959 . S
H3260 C3253 0.961 . S
H3261 C3253 0.960 . S
H3262 C3254 0.930 . S
H3263 C3255 0.929 . S
H3264 C3272 0.929 . S
H3265 C3274 0.930 . S
H3266 C3276 0.930 . S
H3267 C3279 0.929 . S
H3268 C3282 0.930 . S
H3269 C3284 0.960 . S
H3270 C3284 0.960 . S
H3271 C3284 0.960 . S
C3272 H3264 0.929 . S
C3272 C3273 1.377 . S
C3272 C3274 1.384 . S
C3273 C3272 1.377 . S
C3273 C3279 1.390 . S
C3274 H3265 0.930 . S
C3274 C3272 1.384 . S
C3274 C3275 1.372 . S
C3275 C3274 1.372 . S
C3275 C3276 1.400 . S
C3275 C3280 1.490 . S
C3276 H3266 0.930 . S
C3276 C3275 1.400 . S
C3276 C3279 1.386 . S
H3277 C3293 0.930 . S
H3278 C3294 0.931 . S
C3279 H3267 0.929 . S
C3279 C3273 1.390 . S
C3279 C3276 1.386 . S
C3280 C3275 1.490 . S
C3280 C3282 1.395 . S
C3280 C3283 1.403 . S
H3281 C3287 0.930 . S
C3282 H3268 0.930 . S
C3282 C3280 1.395 . S
C3282 C3285 1.403 . S
C3283 C3280 1.403 . S
C3283 C3284 1.524 . S
C3283 C3287 1.400 . S
C3284 H3269 0.960 . S
C3284 H3270 0.960 . S
C3284 H3271 0.960 . S
C3284 C3283 1.524 . S
C3285 C3282 1.403 . S
C3285 C3286 1.392 . S
C3285 C3289 1.495 . S
C3286 C3285 1.392 . S
C3286 C3287 1.385 . S
C3286 C3288 1.478 . S
C3287 H3281 0.930 . S
C3287 C3283 1.400 . S
C3287 C3286 1.385 . S
C3288 C3286 1.478 . S
C3288 C3290 1.381 . S
C3288 C3294 1.383 . S
C3289 C3285 1.495 . S
C3289 H3295 0.959 . S
C3289 H3296 0.961 . S
C3289 H3297 0.960 . S
C3290 C3288 1.381 . S
C3290 C3291 1.394 . S
C3290 H3298 0.930 . S
C3291 C3290 1.394 . S
C3291 C3292 1.383 . S
C3291 H3299 0.929 . S
C3292 C3291 1.383 . S
C3292 C3293 1.377 . S
C3293 H3277 0.930 . S
C3293 C3292 1.377 . S
C3293 C3294 1.379 . S
C3294 H3278 0.931 . S
C3294 C3288 1.383 . S
C3294 C3293 1.379 . S
H3295 C3289 0.959 . S
H3296 C3289 0.961 . S
H3297 C3289 0.960 . S
H3298 C3290 0.930 . S
H3299 C3291 0.929 . S
H3300 C3308 0.929 . S
H3301 C3310 0.930 . S
H3302 C3312 0.930 . S
H3303 C3315 0.929 . S
H3304 C3318 0.930 . S
H3305 C3320 0.960 . S
H3306 C3320 0.960 . S
H3307 C3320 0.960 . S
C3308 H3300 0.929 . S
C3308 C3309 1.377 . S
C3308 C3310 1.384 . S
C3309 C3308 1.377 . S
C3309 C3315 1.390 . S
C3310 H3301 0.930 . S
C3310 C3308 1.384 . S
C3310 C3311 1.372 . S
C3311 C3310 1.372 . S
C3311 C3312 1.400 . S
C3311 C3316 1.490 . S
C3312 H3302 0.930 . S
C3312 C3311 1.400 . S
C3312 C3315 1.386 . S
H3313 C3329 0.930 . S
H3314 C3330 0.931 . S
C3315 H3303 0.929 . S
C3315 C3309 1.390 . S
C3315 C3312 1.386 . S
C3316 C3311 1.490 . S
C3316 C3318 1.395 . S
C3316 C3319 1.403 . S
H3317 C3323 0.930 . S
C3318 H3304 0.930 . S
C3318 C3316 1.395 . S
C3318 C3321 1.403 . S
C3319 C3316 1.403 . S
C3319 C3320 1.524 . S
C3319 C3323 1.400 . S
C3320 H3305 0.960 . S
C3320 H3306 0.960 . S
C3320 H3307 0.960 . S
C3320 C3319 1.524 . S
C3321 C3318 1.403 . S
C3321 C3322 1.392 . S
C3321 C3325 1.495 . S
C3322 C3321 1.392 . S
C3322 C3323 1.385 . S
C3322 C3324 1.478 . S
C3323 H3317 0.930 . S
C3323 C3319 1.400 . S
C3323 C3322 1.385 . S
C3324 C3322 1.478 . S
C3324 C3326 1.381 . S
C3324 C3330 1.383 . S
C3325 C3321 1.495 . S
C3325 H3331 0.959 . S
C3325 H3332 0.961 . S
C3325 H3333 0.960 . S
C3326 C3324 1.381 . S
C3326 C3327 1.394 . S
C3326 H3334 0.930 . S
C3327 C3326 1.394 . S
C3327 C3328 1.383 . S
C3327 H3335 0.929 . S
C3328 C3327 1.383 . S
C3328 C3329 1.377 . S
C3329 H3313 0.930 . S
C3329 C3328 1.377 . S
C3329 C3330 1.379 . S
C3330 H3314 0.931 . S
C3330 C3324 1.383 . S
C3330 C3329 1.379 . S
H3331 C3325 0.959 . S
H3332 C3325 0.961 . S
H3333 C3325 0.960 . S
H3334 C3326 0.930 . S
H3335 C3327 0.929 . S
H3336 C3344 0.929 . S
H3337 C3346 0.930 . S
H3338 C3348 0.930 . S
H3339 C3351 0.929 . S
H3340 C3354 0.930 . S
H3341 C3356 0.960 . S
H3342 C3356 0.960 . S
H3343 C3356 0.960 . S
C3344 H3336 0.929 . S
C3344 C3345 1.377 . S
C3344 C3346 1.384 . S
C3345 C3344 1.377 . S
C3345 C3351 1.390 . S
C3346 H3337 0.930 . S
C3346 C3344 1.384 . S
C3346 C3347 1.372 . S
C3347 C3346 1.372 . S
C3347 C3348 1.400 . S
C3347 C3352 1.490 . S
C3348 H3338 0.930 . S
C3348 C3347 1.400 . S
C3348 C3351 1.386 . S
H3349 C3365 0.930 . S
H3350 C3366 0.931 . S
C3351 H3339 0.929 . S
C3351 C3345 1.390 . S
C3351 C3348 1.386 . S
C3352 C3347 1.490 . S
C3352 C3354 1.395 . S
C3352 C3355 1.403 . S
H3353 C3359 0.930 . S
C3354 H3340 0.930 . S
C3354 C3352 1.395 . S
C3354 C3357 1.403 . S
C3355 C3352 1.403 . S
C3355 C3356 1.524 . S
C3355 C3359 1.400 . S
C3356 H3341 0.960 . S
C3356 H3342 0.960 . S
C3356 H3343 0.960 . S
C3356 C3355 1.524 . S
C3357 C3354 1.403 . S
C3357 C3358 1.392 . S
C3357 C3361 1.495 . S
C3358 C3357 1.392 . S
C3358 C3359 1.385 . S
C3358 C3360 1.478 . S
C3359 H3353 0.930 . S
C3359 C3355 1.400 . S
C3359 C3358 1.385 . S
C3360 C3358 1.478 . S
C3360 C3362 1.381 . S
C3360 C3366 1.383 . S
C3361 C3357 1.495 . S
C3361 H3367 0.959 . S
C3361 H3368 0.961 . S
C3361 H3369 0.960 . S
C3362 C3360 1.381 . S
C3362 C3363 1.394 . S
C3362 H3370 0.930 . S
C3363 C3362 1.394 . S
C3363 C3364 1.383 . S
C3363 H3371 0.929 . S
C3364 C3363 1.383 . S
C3364 C3365 1.377 . S
C3365 H3349 0.930 . S
C3365 C3364 1.377 . S
C3365 C3366 1.379 . S
C3366 H3350 0.931 . S
C3366 C3360 1.383 . S
C3366 C3365 1.379 . S
H3367 C3361 0.959 . S
H3368 C3361 0.961 . S
H3369 C3361 0.960 . S
H3370 C3362 0.930 . S
H3371 C3363 0.929 . S
H3372 C3380 0.929 . S
H3373 C3382 0.930 . S
H3374 C3384 0.930 . S
H3375 C3387 0.929 . S
H3376 C3390 0.930 . S
H3377 C3392 0.960 . S
H3378 C3392 0.960 . S
H3379 C3392 0.960 . S
C3380 H3372 0.929 . S
C3380 C3381 1.377 . S
C3380 C3382 1.384 . S
C3381 C3380 1.377 . S
C3381 C3387 1.390 . S
C3382 H3373 0.930 . S
C3382 C3380 1.384 . S
C3382 C3383 1.372 . S
C3383 C3382 1.372 . S
C3383 C3384 1.400 . S
C3383 C3388 1.490 . S
C3384 H3374 0.930 . S
C3384 C3383 1.400 . S
C3384 C3387 1.386 . S
H3385 C3401 0.930 . S
H3386 C3402 0.931 . S
C3387 H3375 0.929 . S
C3387 C3381 1.390 . S
C3387 C3384 1.386 . S
C3388 C3383 1.490 . S
C3388 C3390 1.395 . S
C3388 C3391 1.403 . S
H3389 C3395 0.930 . S
C3390 H3376 0.930 . S
C3390 C3388 1.395 . S
C3390 C3393 1.403 . S
C3391 C3388 1.403 . S
C3391 C3392 1.524 . S
C3391 C3395 1.400 . S
C3392 H3377 0.960 . S
C3392 H3378 0.960 . S
C3392 H3379 0.960 . S
C3392 C3391 1.524 . S
C3393 C3390 1.403 . S
C3393 C3394 1.392 . S
C3393 C3397 1.495 . S
C3394 C3393 1.392 . S
C3394 C3395 1.385 . S
C3394 C3396 1.478 . S
C3395 H3389 0.930 . S
C3395 C3391 1.400 . S
C3395 C3394 1.385 . S
C3396 C3394 1.478 . S
C3396 C3398 1.381 . S
C3396 C3402 1.383 . S
C3397 C3393 1.495 . S
C3397 H3403 0.959 . S
C3397 H3404 0.961 . S
C3397 H3405 0.960 . S
C3398 C3396 1.381 . S
C3398 C3399 1.394 . S
C3398 H3406 0.930 . S
C3399 C3398 1.394 . S
C3399 C3400 1.383 . S
C3399 H3407 0.929 . S
C3400 C3399 1.383 . S
C3400 C3401 1.377 . S
C3401 H3385 0.930 . S
C3401 C3400 1.377 . S
C3401 C3402 1.379 . S
C3402 H3386 0.931 . S
C3402 C3396 1.383 . S
C3402 C3401 1.379 . S
H3403 C3397 0.959 . S
H3404 C3397 0.961 . S
H3405 C3397 0.960 . S
H3406 C3398 0.930 . S
H3407 C3399 0.929 . S
H3408 C3416 0.929 . S
H3409 C3418 0.930 . S
H3410 C3420 0.930 . S
H3411 C3423 0.929 . S
H3412 C3426 0.930 . S
H3413 C3428 0.960 . S
H3414 C3428 0.960 . S
H3415 C3428 0.960 . S
C3416 H3408 0.929 . S
C3416 C3417 1.377 . S
C3416 C3418 1.384 . S
C3417 C3416 1.377 . S
C3417 C3423 1.390 . S
C3418 H3409 0.930 . S
C3418 C3416 1.384 . S
C3418 C3419 1.372 . S
C3419 C3418 1.372 . S
C3419 C3420 1.400 . S
C3419 C3424 1.490 . S
C3420 H3410 0.930 . S
C3420 C3419 1.400 . S
C3420 C3423 1.386 . S
H3421 C3437 0.930 . S
H3422 C3438 0.931 . S
C3423 H3411 0.929 . S
C3423 C3417 1.390 . S
C3423 C3420 1.386 . S
C3424 C3419 1.490 . S
C3424 C3426 1.395 . S
C3424 C3427 1.403 . S
H3425 C3431 0.930 . S
C3426 H3412 0.930 . S
C3426 C3424 1.395 . S
C3426 C3429 1.403 . S
C3427 C3424 1.403 . S
C3427 C3428 1.524 . S
C3427 C3431 1.400 . S
C3428 H3413 0.960 . S
C3428 H3414 0.960 . S
C3428 H3415 0.960 . S
C3428 C3427 1.524 . S
C3429 C3426 1.403 . S
C3429 C3430 1.392 . S
C3429 C3433 1.495 . S
C3430 C3429 1.392 . S
C3430 C3431 1.385 . S
C3430 C3432 1.478 . S
C3431 H3425 0.930 . S
C3431 C3427 1.400 . S
C3431 C3430 1.385 . S
C3432 C3430 1.478 . S
C3432 C3434 1.381 . S
C3432 C3438 1.383 . S
C3433 C3429 1.495 . S
C3433 H3439 0.959 . S
C3433 H3440 0.961 . S
C3433 H3441 0.960 . S
C3434 C3432 1.381 . S
C3434 C3435 1.394 . S
C3434 H3442 0.930 . S
C3435 C3434 1.394 . S
C3435 C3436 1.383 . S
C3435 H3443 0.929 . S
C3436 C3435 1.383 . S
C3436 C3437 1.377 . S
C3437 H3421 0.930 . S
C3437 C3436 1.377 . S
C3437 C3438 1.379 . S
C3438 H3422 0.931 . S
C3438 C3432 1.383 . S
C3438 C3437 1.379 . S
H3439 C3433 0.959 . S
H3440 C3433 0.961 . S
H3441 C3433 0.960 . S
H3442 C3434 0.930 . S
H3443 C3435 0.929 . S
H3444 C3452 0.929 . S
H3445 C3454 0.930 . S
H3446 C3456 0.930 . S
H3447 C3459 0.929 . S
H3448 C3462 0.930 . S
H3449 C3464 0.960 . S
H3450 C3464 0.960 . S
H3451 C3464 0.960 . S
C3452 H3444 0.929 . S
C3452 C3453 1.377 . S
C3452 C3454 1.384 . S
C3453 C3452 1.377 . S
C3453 C3459 1.390 . S
C3454 H3445 0.930 . S
C3454 C3452 1.384 . S
C3454 C3455 1.372 . S
C3455 C3454 1.372 . S
C3455 C3456 1.400 . S
C3455 C3460 1.490 . S
C3456 H3446 0.930 . S
C3456 C3455 1.400 . S
C3456 C3459 1.386 . S
H3457 C3473 0.930 . S
H3458 C3474 0.931 . S
C3459 H3447 0.929 . S
C3459 C3453 1.390 . S
C3459 C3456 1.386 . S
C3460 C3455 1.490 . S
C3460 C3462 1.395 . S
C3460 C3463 1.403 . S
H3461 C3467 0.930 . S
C3462 H3448 0.930 . S
C3462 C3460 1.395 . S
C3462 C3465 1.403 . S
C3463 C3460 1.403 . S
C3463 C3464 1.524 . S
C3463 C3467 1.400 . S
C3464 H3449 0.960 . S
C3464 H3450 0.960 . S
C3464 H3451 0.960 . S
C3464 C3463 1.524 . S
C3465 C3462 1.403 . S
C3465 C3466 1.392 . S
C3465 C3469 1.495 . S
C3466 C3465 1.392 . S
C3466 C3467 1.385 . S
C3466 C3468 1.478 . S
C3467 H3461 0.930 . S
C3467 C3463 1.400 . S
C3467 C3466 1.385 . S
C3468 C3466 1.478 . S
C3468 C3470 1.381 . S
C3468 C3474 1.383 . S
C3469 C3465 1.495 . S
C3469 H3475 0.959 . S
C3469 H3476 0.961 . S
C3469 H3477 0.960 . S
C3470 C3468 1.381 . S
C3470 C3471 1.394 . S
C3470 H3478 0.930 . S
C3471 C3470 1.394 . S
C3471 C3472 1.383 . S
C3471 H3479 0.929 . S
C3472 C3471 1.383 . S
C3472 C3473 1.377 . S
C3473 H3457 0.930 . S
C3473 C3472 1.377 . S
C3473 C3474 1.379 . S
C3474 H3458 0.931 . S
C3474 C3468 1.383 . S
C3474 C3473 1.379 . S
H3475 C3469 0.959 . S
H3476 C3469 0.961 . S
H3477 C3469 0.960 . S
H3478 C3470 0.930 . S
H3479 C3471 0.929 . S
H3480 C3488 0.929 . S
H3481 C3490 0.930 . S
H3482 C3492 0.930 . S
H3483 C3495 0.929 . S
H3484 C3498 0.930 . S
H3485 C3500 0.960 . S
H3486 C3500 0.960 . S
H3487 C3500 0.960 . S
C3488 H3480 0.929 . S
C3488 C3489 1.377 . S
C3488 C3490 1.384 . S
C3489 C3488 1.377 . S
C3489 C3495 1.390 . S
C3490 H3481 0.930 . S
C3490 C3488 1.384 . S
C3490 C3491 1.372 . S
C3491 C3490 1.372 . S
C3491 C3492 1.400 . S
C3491 C3496 1.490 . S
C3492 H3482 0.930 . S
C3492 C3491 1.400 . S
C3492 C3495 1.386 . S
H3493 C3509 0.930 . S
H3494 C3510 0.931 . S
C3495 H3483 0.929 . S
C3495 C3489 1.390 . S
C3495 C3492 1.386 . S
C3496 C3491 1.490 . S
C3496 C3498 1.395 . S
C3496 C3499 1.403 . S
H3497 C3503 0.930 . S
C3498 H3484 0.930 . S
C3498 C3496 1.395 . S
C3498 C3501 1.403 . S
C3499 C3496 1.403 . S
C3499 C3500 1.524 . S
C3499 C3503 1.400 . S
C3500 H3485 0.960 . S
C3500 H3486 0.960 . S
C3500 H3487 0.960 . S
C3500 C3499 1.524 . S
C3501 C3498 1.403 . S
C3501 C3502 1.392 . S
C3501 C3505 1.495 . S
C3502 C3501 1.392 . S
C3502 C3503 1.385 . S
C3502 C3504 1.478 . S
C3503 H3497 0.930 . S
C3503 C3499 1.400 . S
C3503 C3502 1.385 . S
C3504 C3502 1.478 . S
C3504 C3506 1.381 . S
C3504 C3510 1.383 . S
C3505 C3501 1.495 . S
C3505 H3511 0.959 . S
C3505 H3512 0.961 . S
C3505 H3513 0.960 . S
C3506 C3504 1.381 . S
C3506 C3507 1.394 . S
C3506 H3514 0.930 . S
C3507 C3506 1.394 . S
C3507 C3508 1.383 . S
C3507 H3515 0.929 . S
C3508 C3507 1.383 . S
C3508 C3509 1.377 . S
C3509 H3493 0.930 . S
C3509 C3508 1.377 . S
C3509 C3510 1.379 . S
C3510 H3494 0.931 . S
C3510 C3504 1.383 . S
C3510 C3509 1.379 . S
H3511 C3505 0.959 . S
H3512 C3505 0.961 . S
H3513 C3505 0.960 . S
H3514 C3506 0.930 . S
H3515 C3507 0.929 . S
H3516 C3524 0.929 . S
H3517 C3526 0.930 . S
H3518 C3528 0.930 . S
H3519 C3531 0.929 . S
H3520 C3534 0.930 . S
H3521 C3536 0.960 . S
H3522 C3536 0.960 . S
H3523 C3536 0.960 . S
C3524 H3516 0.929 . S
C3524 C3525 1.377 . S
C3524 C3526 1.384 . S
C3525 C3524 1.377 . S
C3525 C3531 1.390 . S
C3526 H3517 0.930 . S
C3526 C3524 1.384 . S
C3526 C3527 1.372 . S
C3527 C3526 1.372 . S
C3527 C3528 1.400 . S
C3527 C3532 1.490 . S
C3528 H3518 0.930 . S
C3528 C3527 1.400 . S
C3528 C3531 1.386 . S
H3529 C3545 0.930 . S
H3530 C3546 0.931 . S
C3531 H3519 0.929 . S
C3531 C3525 1.390 . S
C3531 C3528 1.386 . S
C3532 C3527 1.490 . S
C3532 C3534 1.395 . S
C3532 C3535 1.403 . S
H3533 C3539 0.930 . S
C3534 H3520 0.930 . S
C3534 C3532 1.395 . S
C3534 C3537 1.403 . S
C3535 C3532 1.403 . S
C3535 C3536 1.524 . S
C3535 C3539 1.400 . S
C3536 H3521 0.960 . S
C3536 H3522 0.960 . S
C3536 H3523 0.960 . S
C3536 C3535 1.524 . S
C3537 C3534 1.403 . S
C3537 C3538 1.392 . S
C3537 C3541 1.495 . S
C3538 C3537 1.392 . S
C3538 C3539 1.385 . S
C3538 C3540 1.478 . S
C3539 H3533 0.930 . S
C3539 C3535 1.400 . S
C3539 C3538 1.385 . S
C3540 C3538 1.478 . S
C3540 C3542 1.381 . S
C3540 C3546 1.383 . S
C3541 C3537 1.495 . S
C3541 H3547 0.959 . S
C3541 H3548 0.961 . S
C3541 H3549 0.960 . S
C3542 C3540 1.381 . S
C3542 C3543 1.394 . S
C3542 H3550 0.930 . S
C3543 C3542 1.394 . S
C3543 C3544 1.383 . S
C3543 H3551 0.929 . S
C3544 C3543 1.383 . S
C3544 C3545 1.377 . S
C3545 H3529 0.930 . S
C3545 C3544 1.377 . S
C3545 C3546 1.379 . S
C3546 H3530 0.931 . S
C3546 C3540 1.383 . S
C3546 C3545 1.379 . S
H3547 C3541 0.959 . S
H3548 C3541 0.961 . S
H3549 C3541 0.960 . S
H3550 C3542 0.930 . S
H3551 C3543 0.929 . S
H3552 C3560 0.929 . S
H3553 C3562 0.930 . S
H3554 C3564 0.930 . S
H3555 C3567 0.929 . S
H3556 C3570 0.930 . S
H3557 C3572 0.960 . S
H3558 C3572 0.960 . S
H3559 C3572 0.960 . S
C3560 H3552 0.929 . S
C3560 C3561 1.377 . S
C3560 C3562 1.384 . S
C3561 C3560 1.377 . S
C3561 C3567 1.390 . S
C3562 H3553 0.930 . S
C3562 C3560 1.384 . S
C3562 C3563 1.372 . S
C3563 C3562 1.372 . S
C3563 C3564 1.400 . S
C3563 C3568 1.490 . S
C3564 H3554 0.930 . S
C3564 C3563 1.400 . S
C3564 C3567 1.386 . S
H3565 C3581 0.930 . S
H3566 C3582 0.931 . S
C3567 H3555 0.929 . S
C3567 C3561 1.390 . S
C3567 C3564 1.386 . S
C3568 C3563 1.490 . S
C3568 C3570 1.395 . S
C3568 C3571 1.403 . S
H3569 C3575 0.930 . S
C3570 H3556 0.930 . S
C3570 C3568 1.395 . S
C3570 C3573 1.403 . S
C3571 C3568 1.403 . S
C3571 C3572 1.524 . S
C3571 C3575 1.400 . S
C3572 H3557 0.960 . S
C3572 H3558 0.960 . S
C3572 H3559 0.960 . S
C3572 C3571 1.524 . S
C3573 C3570 1.403 . S
C3573 C3574 1.392 . S
C3573 C3577 1.495 . S
C3574 C3573 1.392 . S
C3574 C3575 1.385 . S
C3574 C3576 1.478 . S
C3575 H3569 0.930 . S
C3575 C3571 1.400 . S
C3575 C3574 1.385 . S
C3576 C3574 1.478 . S
C3576 C3578 1.381 . S
C3576 C3582 1.383 . S
C3577 C3573 1.495 . S
C3577 H3583 0.959 . S
C3577 H3584 0.961 . S
C3577 H3585 0.960 . S
C3578 C3576 1.381 . S
C3578 C3579 1.394 . S
C3578 H3586 0.930 . S
C3579 C3578 1.394 . S
C3579 C3580 1.383 . S
C3579 H3587 0.929 . S
C3580 C3579 1.383 . S
C3580 C3581 1.377 . S
C3581 H3565 0.930 . S
C3581 C3580 1.377 . S
C3581 C3582 1.379 . S
C3582 H3566 0.931 . S
C3582 C3576 1.383 . S
C3582 C3581 1.379 . S
H3583 C3577 0.959 . S
H3584 C3577 0.961 . S
H3585 C3577 0.960 . S
H3586 C3578 0.930 . S
H3587 C3579 0.929 . S
H3588 C3596 0.929 . S
H3589 C3598 0.930 . S
H3590 C3600 0.930 . S
H3591 C3603 0.929 . S
H3592 C3606 0.930 . S
H3593 C3608 0.960 . S
H3594 C3608 0.960 . S
H3595 C3608 0.960 . S
C3596 H3588 0.929 . S
C3596 C3597 1.377 . S
C3596 C3598 1.384 . S
C3597 C3596 1.377 . S
C3597 C3603 1.390 . S
C3598 H3589 0.930 . S
C3598 C3596 1.384 . S
C3598 C3599 1.372 . S
C3599 C3598 1.372 . S
C3599 C3600 1.400 . S
C3599 C3604 1.490 . S
C3600 H3590 0.930 . S
C3600 C3599 1.400 . S
C3600 C3603 1.386 . S
H3601 C3617 0.930 . S
H3602 C3618 0.931 . S
C3603 H3591 0.929 . S
C3603 C3597 1.390 . S
C3603 C3600 1.386 . S
C3604 C3599 1.490 . S
C3604 C3606 1.395 . S
C3604 C3607 1.403 . S
H3605 C3611 0.930 . S
C3606 H3592 0.930 . S
C3606 C3604 1.395 . S
C3606 C3609 1.403 . S
C3607 C3604 1.403 . S
C3607 C3608 1.524 . S
C3607 C3611 1.400 . S
C3608 H3593 0.960 . S
C3608 H3594 0.960 . S
C3608 H3595 0.960 . S
C3608 C3607 1.524 . S
C3609 C3606 1.403 . S
C3609 C3610 1.392 . S
C3609 C3613 1.495 . S
C3610 C3609 1.392 . S
C3610 C3611 1.385 . S
C3610 C3612 1.478 . S
C3611 H3605 0.930 . S
C3611 C3607 1.400 . S
C3611 C3610 1.385 . S
C3612 C3610 1.478 . S
C3612 C3614 1.381 . S
C3612 C3618 1.383 . S
C3613 C3609 1.495 . S
C3613 H3619 0.959 . S
C3613 H3620 0.961 . S
C3613 H3621 0.960 . S
C3614 C3612 1.381 . S
C3614 C3615 1.394 . S
C3614 H3622 0.930 . S
C3615 C3614 1.394 . S
C3615 C3616 1.383 . S
C3615 H3623 0.929 . S
C3616 C3615 1.383 . S
C3616 C3617 1.377 . S
C3617 H3601 0.930 . S
C3617 C3616 1.377 . S
C3617 C3618 1.379 . S
C3618 H3602 0.931 . S
C3618 C3612 1.383 . S
C3618 C3617 1.379 . S
H3619 C3613 0.959 . S
H3620 C3613 0.961 . S
H3621 C3613 0.960 . S
H3622 C3614 0.930 . S
H3623 C3615 0.929 . S
H3624 C3632 0.929 . S
H3625 C3634 0.930 . S
H3626 C3636 0.930 . S
H3627 C3639 0.929 . S
H3628 C3642 0.930 . S
H3629 C3644 0.960 . S
H3630 C3644 0.960 . S
H3631 C3644 0.960 . S
C3632 H3624 0.929 . S
C3632 C3633 1.377 . S
C3632 C3634 1.384 . S
C3633 C3632 1.377 . S
C3633 C3639 1.390 . S
C3634 H3625 0.930 . S
C3634 C3632 1.384 . S
C3634 C3635 1.372 . S
C3635 C3634 1.372 . S
C3635 C3636 1.400 . S
C3635 C3640 1.490 . S
C3636 H3626 0.930 . S
C3636 C3635 1.400 . S
C3636 C3639 1.386 . S
H3637 C3653 0.930 . S
H3638 C3654 0.931 . S
C3639 H3627 0.929 . S
C3639 C3633 1.390 . S
C3639 C3636 1.386 . S
C3640 C3635 1.490 . S
C3640 C3642 1.395 . S
C3640 C3643 1.403 . S
H3641 C3647 0.930 . S
C3642 H3628 0.930 . S
C3642 C3640 1.395 . S
C3642 C3645 1.403 . S
C3643 C3640 1.403 . S
C3643 C3644 1.524 . S
C3643 C3647 1.400 . S
C3644 H3629 0.960 . S
C3644 H3630 0.960 . S
C3644 H3631 0.960 . S
C3644 C3643 1.524 . S
C3645 C3642 1.403 . S
C3645 C3646 1.392 . S
C3645 C3649 1.495 . S
C3646 C3645 1.392 . S
C3646 C3647 1.385 . S
C3646 C3648 1.478 . S
C3647 H3641 0.930 . S
C3647 C3643 1.400 . S
C3647 C3646 1.385 . S
C3648 C3646 1.478 . S
C3648 C3650 1.381 . S
C3648 C3654 1.383 . S
C3649 C3645 1.495 . S
C3649 H3655 0.959 . S
C3649 H3656 0.961 . S
C3649 H3657 0.960 . S
C3650 C3648 1.381 . S
C3650 C3651 1.394 . S
C3650 H3658 0.930 . S
C3651 C3650 1.394 . S
C3651 C3652 1.383 . S
C3651 H3659 0.929 . S
C3652 C3651 1.383 . S
C3652 C3653 1.377 . S
C3653 H3637 0.930 . S
C3653 C3652 1.377 . S
C3653 C3654 1.379 . S
C3654 H3638 0.931 . S
C3654 C3648 1.383 . S
C3654 C3653 1.379 . S
H3655 C3649 0.959 . S
H3656 C3649 0.961 . S
H3657 C3649 0.960 . S
H3658 C3650 0.930 . S
H3659 C3651 0.929 . S
H3660 C3668 0.929 . S
H3661 C3670 0.930 . S
H3662 C3672 0.930 . S
H3663 C3675 0.929 . S
H3664 C3678 0.930 . S
H3665 C3680 0.960 . S
H3666 C3680 0.960 . S
H3667 C3680 0.960 . S
C3668 H3660 0.929 . S
C3668 C3669 1.377 . S
C3668 C3670 1.384 . S
C3669 C3668 1.377 . S
C3669 C3675 1.390 . S
C3670 H3661 0.930 . S
C3670 C3668 1.384 . S
C3670 C3671 1.372 . S
C3671 C3670 1.372 . S
C3671 C3672 1.400 . S
C3671 C3676 1.490 . S
C3672 H3662 0.930 . S
C3672 C3671 1.400 . S
C3672 C3675 1.386 . S
H3673 C3689 0.930 . S
H3674 C3690 0.931 . S
C3675 H3663 0.929 . S
C3675 C3669 1.390 . S
C3675 C3672 1.386 . S
C3676 C3671 1.490 . S
C3676 C3678 1.395 . S
C3676 C3679 1.403 . S
H3677 C3683 0.930 . S
C3678 H3664 0.930 . S
C3678 C3676 1.395 . S
C3678 C3681 1.403 . S
C3679 C3676 1.403 . S
C3679 C3680 1.524 . S
C3679 C3683 1.400 . S
C3680 H3665 0.960 . S
C3680 H3666 0.960 . S
C3680 H3667 0.960 . S
C3680 C3679 1.524 . S
C3681 C3678 1.403 . S
C3681 C3682 1.392 . S
C3681 C3685 1.495 . S
C3682 C3681 1.392 . S
C3682 C3683 1.385 . S
C3682 C3684 1.478 . S
C3683 H3677 0.930 . S
C3683 C3679 1.400 . S
C3683 C3682 1.385 . S
C3684 C3682 1.478 . S
C3684 C3686 1.381 . S
C3684 C3690 1.383 . S
C3685 C3681 1.495 . S
C3685 H3691 0.959 . S
C3685 H3692 0.961 . S
C3685 H3693 0.960 . S
C3686 C3684 1.381 . S
C3686 C3687 1.394 . S
C3686 H3694 0.930 . S
C3687 C3686 1.394 . S
C3687 C3688 1.383 . S
C3687 H3695 0.929 . S
C3688 C3687 1.383 . S
C3688 C3689 1.377 . S
C3689 H3673 0.930 . S
C3689 C3688 1.377 . S
C3689 C3690 1.379 . S
C3690 H3674 0.931 . S
C3690 C3684 1.383 . S
C3690 C3689 1.379 . S
H3691 C3685 0.959 . S
H3692 C3685 0.961 . S
H3693 C3685 0.960 . S
H3694 C3686 0.930 . S
H3695 C3687 0.929 . S
H3696 C3704 0.929 . S
H3697 C3706 0.930 . S
H3698 C3708 0.930 . S
H3699 C3711 0.929 . S
H3700 C3714 0.930 . S
H3701 C3716 0.960 . S
H3702 C3716 0.960 . S
H3703 C3716 0.960 . S
C3704 H3696 0.929 . S
C3704 C3705 1.377 . S
C3704 C3706 1.384 . S
C3705 C3704 1.377 . S
C3705 C3711 1.390 . S
C3706 H3697 0.930 . S
C3706 C3704 1.384 . S
C3706 C3707 1.372 . S
C3707 C3706 1.372 . S
C3707 C3708 1.400 . S
C3707 C3712 1.490 . S
C3708 H3698 0.930 . S
C3708 C3707 1.400 . S
C3708 C3711 1.386 . S
H3709 C3725 0.930 . S
H3710 C3726 0.931 . S
C3711 H3699 0.929 . S
C3711 C3705 1.390 . S
C3711 C3708 1.386 . S
C3712 C3707 1.490 . S
C3712 C3714 1.395 . S
C3712 C3715 1.403 . S
H3713 C3719 0.930 . S
C3714 H3700 0.930 . S
C3714 C3712 1.395 . S
C3714 C3717 1.403 . S
C3715 C3712 1.403 . S
C3715 C3716 1.524 . S
C3715 C3719 1.400 . S
C3716 H3701 0.960 . S
C3716 H3702 0.960 . S
C3716 H3703 0.960 . S
C3716 C3715 1.524 . S
C3717 C3714 1.403 . S
C3717 C3718 1.392 . S
C3717 C3721 1.495 . S
C3718 C3717 1.392 . S
C3718 C3719 1.385 . S
C3718 C3720 1.478 . S
C3719 H3713 0.930 . S
C3719 C3715 1.400 . S
C3719 C3718 1.385 . S
C3720 C3718 1.478 . S
C3720 C3722 1.381 . S
C3720 C3726 1.383 . S
C3721 C3717 1.495 . S
C3721 H3727 0.959 . S
C3721 H3728 0.961 . S
C3721 H3729 0.960 . S
C3722 C3720 1.381 . S
C3722 C3723 1.394 . S
C3722 H3730 0.930 . S
C3723 C3722 1.394 . S
C3723 C3724 1.383 . S
C3723 H3731 0.929 . S
C3724 C3723 1.383 . S
C3724 C3725 1.377 . S
C3725 H3709 0.930 . S
C3725 C3724 1.377 . S
C3725 C3726 1.379 . S
C3726 H3710 0.931 . S
C3726 C3720 1.383 . S
C3726 C3725 1.379 . S
H3727 C3721 0.959 . S
H3728 C3721 0.961 . S
H3729 C3721 0.960 . S
H3730 C3722 0.930 . S
H3731 C3723 0.929 . S
H3732 C3740 0.929 . S
H3733 C3742 0.930 . S
H3734 C3744 0.930 . S
H3735 C3747 0.929 . S
H3736 C3750 0.930 . S
H3737 C3752 0.960 . S
H3738 C3752 0.960 . S
H3739 C3752 0.960 . S
C3740 H3732 0.929 . S
C3740 C3741 1.377 . S
C3740 C3742 1.384 . S
C3741 C3740 1.377 . S
C3741 C3747 1.390 . S
C3742 H3733 0.930 . S
C3742 C3740 1.384 . S
C3742 C3743 1.372 . S
C3743 C3742 1.372 . S
C3743 C3744 1.400 . S
C3743 C3748 1.490 . S
C3744 H3734 0.930 . S
C3744 C3743 1.400 . S
C3744 C3747 1.386 . S
H3745 C3761 0.930 . S
H3746 C3762 0.931 . S
C3747 H3735 0.929 . S
C3747 C3741 1.390 . S
C3747 C3744 1.386 . S
C3748 C3743 1.490 . S
C3748 C3750 1.395 . S
C3748 C3751 1.403 . S
H3749 C3755 0.905 1_554 S
C3750 H3736 0.930 . S
C3750 C3748 1.395 . S
C3750 C3753 1.403 . S
C3751 C3748 1.403 . S
C3751 C3752 1.524 . S
C3751 C3755 1.445 . S
C3752 H3737 0.960 . S
C3752 H3738 0.960 . S
C3752 H3739 0.960 . S
C3752 C3751 1.524 . S
C3753 C3750 1.403 . S
C3753 C3754 1.392 1_556 S
C3753 C3757 1.495 1_556 S
C3754 C3753 1.392 1_554 S
C3754 C3755 1.366 1_554 S
C3754 C3756 1.478 . S
C3755 H3749 0.905 1_556 S
C3755 C3751 1.445 . S
C3755 C3754 1.366 1_556 S
C3756 C3754 1.478 . S
C3756 C3758 1.381 . S
C3756 C3762 1.383 . S
C3757 C3753 1.495 1_554 S
C3757 H3763 0.959 1_554 S
C3757 H3764 0.961 . S
C3757 H3765 0.960 . S
C3758 C3756 1.381 . S
C3758 C3759 1.394 . S
C3758 H3766 0.930 . S
C3759 C3758 1.394 . S
C3759 C3760 1.383 . S
C3759 H3767 0.929 . S
C3760 C3759 1.383 . S
C3760 C3761 1.377 . S
C3761 H3745 0.930 . S
C3761 C3760 1.377 . S
C3761 C3762 1.379 . S
C3762 H3746 0.931 . S
C3762 C3756 1.383 . S
C3762 C3761 1.379 . S
H3763 C3757 0.959 1_556 S
H3764 C3757 0.961 . S
H3765 C3757 0.960 . S
H3766 C3758 0.930 . S
H3767 C3759 0.929 . S
H3768 C3776 0.929 . S
H3769 C3778 0.930 . S
H3770 C3780 0.930 . S
H3771 C3783 0.929 . S
H3772 C3786 0.930 . S
H3773 C3788 0.960 . S
H3774 C3788 0.960 . S
H3775 C3788 0.960 . S
C3776 H3768 0.929 . S
C3776 C3777 1.377 . S
C3776 C3778 1.384 . S
C3777 C3776 1.377 . S
C3777 C3783 1.390 . S
C3778 H3769 0.930 . S
C3778 C3776 1.384 . S
C3778 C3779 1.372 . S
C3779 C3778 1.372 . S
C3779 C3780 1.400 . S
C3779 C3784 1.490 . S
C3780 H3770 0.930 . S
C3780 C3779 1.400 . S
C3780 C3783 1.386 . S
H3781 C3797 0.930 . S
H3782 C3798 0.931 . S
C3783 H3771 0.929 . S
C3783 C3777 1.390 . S
C3783 C3780 1.386 . S
C3784 C3779 1.490 . S
C3784 C3786 1.395 . S
C3784 C3787 1.403 . S
H3785 C3791 0.930 . S
C3786 H3772 0.930 . S
C3786 C3784 1.395 . S
C3786 C3789 1.403 . S
C3787 C3784 1.403 . S
C3787 C3788 1.524 . S
C3787 C3791 1.400 . S
C3788 H3773 0.960 . S
C3788 H3774 0.960 . S
C3788 H3775 0.960 . S
C3788 C3787 1.524 . S
C3789 C3786 1.403 . S
C3789 C3790 1.392 . S
C3789 C3793 1.495 . S
C3790 C3789 1.392 . S
C3790 C3791 1.385 . S
C3790 C3792 1.478 . S
C3791 H3785 0.930 . S
C3791 C3787 1.400 . S
C3791 C3790 1.385 . S
C3792 C3790 1.478 . S
C3792 C3794 1.381 . S
C3792 C3798 1.383 . S
C3793 C3789 1.495 . S
C3793 H3799 0.959 . S
C3793 H3800 0.961 . S
C3793 H3801 0.960 . S
C3794 C3792 1.381 . S
C3794 C3795 1.394 . S
C3794 H3802 0.930 . S
C3795 C3794 1.394 . S
C3795 C3796 1.383 . S
C3795 H3803 0.929 . S
C3796 C3795 1.383 . S
C3796 C3797 1.377 . S
C3797 H3781 0.930 . S
C3797 C3796 1.377 . S
C3797 C3798 1.379 . S
C3798 H3782 0.931 . S
C3798 C3792 1.383 . S
C3798 C3797 1.379 . S
H3799 C3793 0.959 . S
H3800 C3793 0.961 . S
H3801 C3793 0.960 . S
H3802 C3794 0.930 . S
H3803 C3795 0.929 . S
H3804 C3812 0.929 . S
H3805 C3814 0.930 . S
H3806 C3816 0.930 . S
H3807 C3819 0.929 . S
H3808 C3822 0.930 . S
H3809 C3824 0.960 . S
H3810 C3824 0.960 . S
H3811 C3824 0.960 . S
C3812 H3804 0.929 . S
C3812 C3813 1.377 . S
C3812 C3814 1.384 . S
C3813 C3812 1.377 . S
C3813 C3819 1.390 . S
C3814 H3805 0.930 . S
C3814 C3812 1.384 . S
C3814 C3815 1.372 . S
C3815 C3814 1.372 . S
C3815 C3816 1.400 . S
C3815 C3820 1.490 . S
C3816 H3806 0.930 . S
C3816 C3815 1.400 . S
C3816 C3819 1.386 . S
H3817 C3833 0.930 . S
H3818 C3834 0.931 . S
C3819 H3807 0.929 . S
C3819 C3813 1.390 . S
C3819 C3816 1.386 . S
C3820 C3815 1.490 . S
C3820 C3822 1.395 . S
C3820 C3823 1.403 . S
H3821 C3827 0.930 . S
C3822 H3808 0.930 . S
C3822 C3820 1.395 . S
C3822 C3825 1.403 1_556 S
C3823 C3820 1.403 . S
C3823 C3824 1.524 . S
C3823 C3827 1.400 1_556 S
C3824 H3809 0.960 . S
C3824 H3810 0.960 . S
C3824 H3811 0.960 . S
C3824 C3823 1.524 . S
C3825 C3822 1.403 1_554 S
C3825 C3826 1.392 . S
C3825 C3829 1.495 . S
C3826 C3825 1.392 . S
C3826 C3827 1.385 . S
C3826 C3828 1.478 . S
C3827 H3821 0.930 . S
C3827 C3823 1.400 1_554 S
C3827 C3826 1.385 . S
C3828 C3826 1.478 . S
C3828 C3830 1.381 . S
C3828 C3834 1.383 . S
C3829 C3825 1.495 . S
C3829 H3835 0.959 . S
C3829 H3836 0.961 . S
C3829 H3837 0.960 . S
C3830 C3828 1.381 . S
C3830 C3831 1.394 . S
C3830 H3838 0.930 . S
C3831 C3830 1.394 . S
C3831 C3832 1.383 . S
C3831 H3839 0.929 . S
C3832 C3831 1.383 . S
C3832 C3833 1.377 . S
C3833 H3817 0.930 . S
C3833 C3832 1.377 . S
C3833 C3834 1.379 . S
C3834 H3818 0.931 . S
C3834 C3828 1.383 . S
C3834 C3833 1.379 . S
H3835 C3829 0.959 . S
H3836 C3829 0.961 . S
H3837 C3829 0.960 . S
H3838 C3830 0.930 . S
H3839 C3831 0.929 . S
H3840 C3848 0.929 . S
H3841 C3850 0.930 . S
H3842 C3852 0.930 . S
H3843 C3855 0.929 . S
H3844 C3858 0.930 . S
H3845 C3860 0.960 . S
H3846 C3860 0.960 . S
H3847 C3860 0.960 . S
C3848 H3840 0.929 . S
C3848 C3849 1.377 . S
C3848 C3850 1.384 . S
C3849 C3848 1.377 . S
C3849 C3855 1.390 . S
C3850 H3841 0.930 . S
C3850 C3848 1.384 . S
C3850 C3851 1.372 . S
C3851 C3850 1.372 . S
C3851 C3852 1.400 . S
C3851 C3856 1.490 . S
C3852 H3842 0.930 . S
C3852 C3851 1.400 . S
C3852 C3855 1.386 . S
H3853 C3869 0.930 . S
H3854 C3870 0.931 . S
C3855 H3843 0.929 . S
C3855 C3849 1.390 . S
C3855 C3852 1.386 . S
C3856 C3851 1.490 . S
C3856 C3858 1.395 . S
C3856 C3859 1.403 . S
H3857 C3863 0.930 . S
C3858 H3844 0.930 . S
C3858 C3856 1.395 . S
C3858 C3861 1.403 . S
C3859 C3856 1.403 . S
C3859 C3860 1.524 . S
C3859 C3863 1.400 . S
C3860 H3845 0.960 . S
C3860 H3846 0.960 . S
C3860 H3847 0.960 . S
C3860 C3859 1.524 . S
C3861 C3858 1.403 . S
C3861 C3862 1.392 . S
C3861 C3865 1.495 . S
C3862 C3861 1.392 . S
C3862 C3863 1.385 . S
C3862 C3864 1.478 . S
C3863 H3857 0.930 . S
C3863 C3859 1.400 . S
C3863 C3862 1.385 . S
C3864 C3862 1.478 . S
C3864 C3866 1.381 . S
C3864 C3870 1.383 . S
C3865 C3861 1.495 . S
C3865 H3871 0.959 . S
C3865 H3872 0.961 . S
C3865 H3873 0.960 . S
C3866 C3864 1.381 . S
C3866 C3867 1.394 . S
C3866 H3874 0.930 . S
C3867 C3866 1.394 . S
C3867 C3868 1.383 . S
C3867 H3875 0.929 . S
C3868 C3867 1.383 . S
C3868 C3869 1.377 . S
C3869 H3853 0.930 . S
C3869 C3868 1.377 . S
C3869 C3870 1.379 . S
C3870 H3854 0.931 . S
C3870 C3864 1.383 . S
C3870 C3869 1.379 . S
H3871 C3865 0.959 . S
H3872 C3865 0.961 . S
H3873 C3865 0.960 . S
H3874 C3866 0.930 . S
H3875 C3867 0.929 . S
H3876 C3884 0.929 . S
H3877 C3886 0.930 . S
H3878 C3888 0.930 . S
H3879 C3891 0.929 . S
H3880 C3894 0.930 1_556 S
H3881 C3896 0.960 1_554 S
H3882 C3896 0.960 . S
H3883 C3896 0.960 . S
C3884 H3876 0.929 . S
C3884 C3885 1.377 . S
C3884 C3886 1.384 . S
C3885 C3884 1.377 . S
C3885 C3891 1.390 . S
C3886 H3877 0.930 . S
C3886 C3884 1.384 . S
C3886 C3887 1.372 . S
C3887 C3886 1.372 . S
C3887 C3888 1.400 . S
C3887 C3892 1.490 . S
C3888 H3878 0.930 . S
C3888 C3887 1.400 . S
C3888 C3891 1.386 . S
H3889 C3905 0.930 . S
H3890 C3906 0.931 . S
C3891 H3879 0.929 . S
C3891 C3885 1.390 . S
C3891 C3888 1.386 . S
C3892 C3887 1.490 . S
C3892 C3894 1.395 1_556 S
C3892 C3895 1.403 1_556 S
H3893 C3899 0.930 . S
C3894 H3880 0.930 1_554 S
C3894 C3892 1.395 1_554 S
C3894 C3897 1.403 . S
C3895 C3892 1.403 1_554 S
C3895 C3896 1.524 1_554 S
C3895 C3899 1.400 . S
C3896 H3881 0.960 1_556 S
C3896 H3882 0.960 . S
C3896 H3883 0.960 . S
C3896 C3895 1.524 1_556 S
C3897 C3894 1.403 . S
C3897 C3898 1.392 . S
C3897 C3901 1.495 . S
C3898 C3897 1.392 . S
C3898 C3899 1.385 . S
C3898 C3900 1.478 . S
C3899 H3893 0.930 . S
C3899 C3895 1.400 . S
C3899 C3898 1.385 . S
C3900 C3898 1.478 . S
C3900 C3902 1.381 . S
C3900 C3906 1.383 . S
C3901 C3897 1.495 . S
C3901 H3907 0.959 . S
C3901 H3908 0.961 . S
C3901 H3909 0.960 . S
C3902 C3900 1.381 . S
C3902 C3903 1.394 . S
C3902 H3910 0.930 . S
C3903 C3902 1.394 . S
C3903 C3904 1.383 . S
C3903 H3911 0.929 . S
C3904 C3903 1.383 . S
C3904 C3905 1.377 . S
C3905 H3889 0.930 . S
C3905 C3904 1.377 . S
C3905 C3906 1.379 . S
C3906 H3890 0.931 . S
C3906 C3900 1.383 . S
C3906 C3905 1.379 . S
H3907 C3901 0.959 . S
H3908 C3901 0.961 . S
H3909 C3901 0.960 . S
H3910 C3902 0.930 . S
H3911 C3903 0.929 . S
H3912 C3920 0.929 . S
H3913 C3922 0.930 . S
H3914 C3924 0.930 . S
H3915 C3927 0.929 . S
H3916 C3930 0.930 . S
H3917 C3932 0.960 . S
H3918 C3932 0.960 . S
H3919 C3932 0.960 . S
C3920 H3912 0.929 . S
C3920 C3921 1.377 . S
C3920 C3922 1.384 . S
C3921 C3920 1.377 . S
C3921 C3927 1.390 . S
C3922 H3913 0.930 . S
C3922 C3920 1.384 . S
C3922 C3923 1.372 . S
C3923 C3922 1.372 . S
C3923 C3924 1.400 . S
C3923 C3928 1.490 . S
C3924 H3914 0.930 . S
C3924 C3923 1.400 . S
C3924 C3927 1.386 . S
H3925 C3941 0.930 . S
H3926 C3942 0.931 . S
C3927 H3915 0.929 . S
C3927 C3921 1.390 . S
C3927 C3924 1.386 . S
C3928 C3923 1.490 . S
C3928 C3930 1.395 . S
C3928 C3931 1.403 . S
H3929 C3935 0.930 . S
C3930 H3916 0.930 . S
C3930 C3928 1.395 . S
C3930 C3933 1.403 . S
C3931 C3928 1.403 . S
C3931 C3932 1.524 . S
C3931 C3935 1.400 . S
C3932 H3917 0.960 . S
C3932 H3918 0.960 . S
C3932 H3919 0.960 . S
C3932 C3931 1.524 . S
C3933 C3930 1.403 . S
C3933 C3934 1.392 . S
C3933 C3937 1.495 . S
C3934 C3933 1.392 . S
C3934 C3935 1.385 . S
C3934 C3936 1.478 . S
C3935 H3929 0.930 . S
C3935 C3931 1.400 . S
C3935 C3934 1.385 . S
C3936 C3934 1.478 . S
C3936 C3938 1.381 . S
C3936 C3942 1.383 . S
C3937 C3933 1.495 . S
C3937 H3943 0.959 . S
C3937 H3944 0.961 . S
C3937 H3945 0.960 . S
C3938 C3936 1.381 . S
C3938 C3939 1.394 . S
C3938 H3946 0.930 . S
C3939 C3938 1.394 . S
C3939 C3940 1.383 . S
C3939 H3947 0.929 . S
C3940 C3939 1.383 . S
C3940 C3941 1.377 . S
C3941 H3925 0.930 . S
C3941 C3940 1.377 . S
C3941 C3942 1.379 . S
C3942 H3926 0.931 . S
C3942 C3936 1.383 . S
C3942 C3941 1.379 . S
H3943 C3937 0.959 . S
H3944 C3937 0.961 . S
H3945 C3937 0.960 . S
H3946 C3938 0.930 . S
H3947 C3939 0.929 . S
H3948 C3956 0.929 . S
H3949 C3958 0.930 . S
H3950 C3960 0.930 . S
H3951 C3963 0.929 . S
H3952 C3966 0.930 . S
H3953 C3968 0.960 . S
H3954 C3968 0.960 . S
H3955 C3968 0.960 . S
C3956 H3948 0.929 . S
C3956 C3957 1.377 . S
C3956 C3958 1.384 . S
C3957 C3956 1.377 . S
C3957 C3963 1.390 . S
C3958 H3949 0.930 . S
C3958 C3956 1.384 . S
C3958 C3959 1.372 . S
C3959 C3958 1.372 . S
C3959 C3960 1.400 . S
C3959 C3964 1.490 . S
C3960 H3950 0.930 . S
C3960 C3959 1.400 . S
C3960 C3963 1.386 . S
H3961 C3977 0.930 . S
H3962 C3978 0.931 . S
C3963 H3951 0.929 . S
C3963 C3957 1.390 . S
C3963 C3960 1.386 . S
C3964 C3959 1.490 . S
C3964 C3966 1.395 . S
C3964 C3967 1.403 . S
H3965 C3971 0.930 . S
C3966 H3952 0.930 . S
C3966 C3964 1.395 . S
C3966 C3969 1.403 1_556 S
C3967 C3964 1.403 . S
C3967 C3968 1.524 . S
C3967 C3971 1.400 1_556 S
C3968 H3953 0.960 . S
C3968 H3954 0.960 . S
C3968 H3955 0.960 . S
C3968 C3967 1.524 . S
C3969 C3966 1.403 1_554 S
C3969 C3970 1.392 . S
C3969 C3973 1.495 . S
C3970 C3969 1.392 . S
C3970 C3971 1.385 . S
C3970 C3972 1.478 . S
C3971 H3965 0.930 . S
C3971 C3967 1.400 1_554 S
C3971 C3970 1.385 . S
C3972 C3970 1.478 . S
C3972 C3974 1.381 . S
C3972 C3978 1.383 . S
C3973 C3969 1.495 . S
C3973 H3979 0.959 . S
C3973 H3980 0.961 . S
C3973 H3981 0.960 . S
C3974 C3972 1.381 . S
C3974 C3975 1.394 . S
C3974 H3982 0.930 . S
C3975 C3974 1.394 . S
C3975 C3976 1.383 . S
C3975 H3983 0.929 . S
C3976 C3975 1.383 . S
C3976 C3977 1.377 . S
C3977 H3961 0.930 . S
C3977 C3976 1.377 . S
C3977 C3978 1.379 . S
C3978 H3962 0.931 . S
C3978 C3972 1.383 . S
C3978 C3977 1.379 . S
H3979 C3973 0.959 . S
H3980 C3973 0.961 . S
H3981 C3973 0.960 . S
H3982 C3974 0.930 . S
H3983 C3975 0.929 . S
H3984 C3992 0.929 . S
H3985 C3994 0.930 . S
H3986 C3996 0.930 . S
H3987 C3999 0.929 . S
H3988 C4002 0.930 . S
H3989 C4004 0.960 . S
H3990 C4004 0.960 . S
H3991 C4004 0.960 . S
C3992 H3984 0.929 . S
C3992 C3993 1.377 . S
C3992 C3994 1.384 . S
C3993 C3992 1.377 . S
C3993 C3999 1.390 . S
C3994 H3985 0.930 . S
C3994 C3992 1.384 . S
C3994 C3995 1.372 . S
C3995 C3994 1.372 . S
C3995 C3996 1.400 . S
C3995 C4000 1.490 . S
C3996 H3986 0.930 . S
C3996 C3995 1.400 . S
C3996 C3999 1.386 . S
H3997 C4013 0.930 . S
H3998 C4014 0.931 . S
C3999 H3987 0.929 . S
C3999 C3993 1.390 . S
C3999 C3996 1.386 . S
C4000 C3995 1.490 . S
C4000 C4002 1.395 . S
C4000 C4003 1.403 . S
H4001 C4007 0.930 . S
C4002 H3988 0.930 . S
C4002 C4000 1.395 . S
C4002 C4005 1.403 . S
C4003 C4000 1.403 . S
C4003 C4004 1.524 . S
C4003 C4007 1.400 . S
C4004 H3989 0.960 . S
C4004 H3990 0.960 . S
C4004 H3991 0.960 . S
C4004 C4003 1.524 . S
C4005 C4002 1.403 . S
C4005 C4006 1.392 . S
C4005 C4009 1.495 . S
C4006 C4005 1.392 . S
C4006 C4007 1.385 . S
C4006 C4008 1.478 . S
C4007 H4001 0.930 . S
C4007 C4003 1.400 . S
C4007 C4006 1.385 . S
C4008 C4006 1.478 . S
C4008 C4010 1.381 . S
C4008 C4014 1.383 . S
C4009 C4005 1.495 . S
C4009 H4015 0.959 . S
C4009 H4016 0.961 . S
C4009 H4017 0.960 . S
C4010 C4008 1.381 . S
C4010 C4011 1.394 . S
C4010 H4018 0.930 . S
C4011 C4010 1.394 . S
C4011 C4012 1.383 . S
C4011 H4019 0.929 . S
C4012 C4011 1.383 . S
C4012 C4013 1.377 . S
C4013 H3997 0.930 . S
C4013 C4012 1.377 . S
C4013 C4014 1.379 . S
C4014 H3998 0.931 . S
C4014 C4008 1.383 . S
C4014 C4013 1.379 . S
H4015 C4009 0.959 . S
H4016 C4009 0.961 . S
H4017 C4009 0.960 . S
H4018 C4010 0.930 . S
H4019 C4011 0.929 . S
H4020 C4028 0.929 . S
H4021 C4030 0.930 . S
H4022 C4032 0.930 . S
H4023 C4035 0.929 . S
H4024 C4038 0.930 . S
H4025 C4040 0.960 . S
H4026 C4040 0.960 . S
H4027 C4040 0.960 . S
C4028 H4020 0.929 . S
C4028 C4029 1.377 . S
C4028 C4030 1.384 . S
C4029 C4028 1.377 . S
C4029 C4035 1.390 . S
C4030 H4021 0.930 . S
C4030 C4028 1.384 . S
C4030 C4031 1.372 . S
C4031 C4030 1.372 . S
C4031 C4032 1.400 . S
C4031 C4036 1.490 . S
C4032 H4022 0.930 . S
C4032 C4031 1.400 . S
C4032 C4035 1.386 . S
H4033 C4049 0.930 . S
H4034 C4050 0.931 . S
C4035 H4023 0.929 . S
C4035 C4029 1.390 . S
C4035 C4032 1.386 . S
C4036 C4031 1.490 . S
C4036 C4038 1.395 . S
C4036 C4039 1.403 . S
H4037 C4043 0.894 1_545 S
C4038 H4024 0.930 . S
C4038 C4036 1.395 . S
C4038 C4041 1.403 . S
C4039 C4036 1.403 . S
C4039 C4040 1.524 . S
C4039 C4043 1.467 . S
C4040 H4025 0.960 . S
C4040 H4026 0.960 . S
C4040 H4027 0.960 . S
C4040 C4039 1.524 . S
C4041 C4038 1.403 . S
C4041 C4042 1.392 1_565 S
C4041 C4045 1.495 1_565 S
C4042 C4041 1.392 1_545 S
C4042 C4043 1.355 1_545 S
C4042 C4044 1.478 . S
C4043 H4037 0.894 1_565 S
C4043 C4039 1.467 . S
C4043 C4042 1.355 1_565 S
C4044 C4042 1.478 . S
C4044 C4046 1.381 . S
C4044 C4050 1.383 . S
C4045 C4041 1.495 1_545 S
C4045 H4051 0.959 1_545 S
C4045 H4052 0.961 . S
C4045 H4053 0.960 . S
C4046 C4044 1.381 . S
C4046 C4047 1.394 . S
C4046 H4054 0.930 . S
C4047 C4046 1.394 . S
C4047 C4048 1.383 . S
C4047 H4055 0.929 . S
C4048 C4047 1.383 . S
C4048 C4049 1.377 . S
C4049 H4033 0.930 . S
C4049 C4048 1.377 . S
C4049 C4050 1.379 . S
C4050 H4034 0.931 . S
C4050 C4044 1.383 . S
C4050 C4049 1.379 . S
H4051 C4045 0.959 1_565 S
H4052 C4045 0.961 . S
H4053 C4045 0.960 . S
H4054 C4046 0.930 . S
H4055 C4047 0.929 . S
H4056 C4064 0.929 . S
H4057 C4066 0.930 . S
H4058 C4068 0.930 . S
H4059 C4071 0.929 . S
H4060 C4074 0.930 . S
H4061 C4076 0.960 . S
H4062 C4076 0.960 . S
H4063 C4076 0.960 . S
C4064 H4056 0.929 . S
C4064 C4065 1.377 . S
C4064 C4066 1.384 . S
C4065 C4064 1.377 . S
C4065 C4071 1.390 . S
C4066 H4057 0.930 . S
C4066 C4064 1.384 . S
C4066 C4067 1.372 . S
C4067 C4066 1.372 . S
C4067 C4068 1.400 . S
C4067 C4072 1.490 . S
C4068 H4058 0.930 . S
C4068 C4067 1.400 . S
C4068 C4071 1.386 . S
H4069 C4085 0.930 . S
H4070 C4086 0.931 . S
C4071 H4059 0.929 . S
C4071 C4065 1.390 . S
C4071 C4068 1.386 . S
C4072 C4067 1.490 . S
C4072 C4074 1.395 . S
C4072 C4075 1.403 . S
H4073 C4079 0.930 . S
C4074 H4060 0.930 . S
C4074 C4072 1.395 . S
C4074 C4077 1.403 . S
C4075 C4072 1.403 . S
C4075 C4076 1.524 . S
C4075 C4079 1.400 . S
C4076 H4061 0.960 . S
C4076 H4062 0.960 . S
C4076 H4063 0.960 . S
C4076 C4075 1.524 . S
C4077 C4074 1.403 . S
C4077 C4078 1.392 . S
C4077 C4081 1.495 . S
C4078 C4077 1.392 . S
C4078 C4079 1.385 . S
C4078 C4080 1.478 . S
C4079 H4073 0.930 . S
C4079 C4075 1.400 . S
C4079 C4078 1.385 . S
C4080 C4078 1.478 . S
C4080 C4082 1.381 . S
C4080 C4086 1.383 . S
C4081 C4077 1.495 . S
C4081 H4087 0.959 . S
C4081 H4088 0.961 . S
C4081 H4089 0.960 . S
C4082 C4080 1.381 . S
C4082 C4083 1.394 . S
C4082 H4090 0.930 . S
C4083 C4082 1.394 . S
C4083 C4084 1.383 . S
C4083 H4091 0.929 . S
C4084 C4083 1.383 . S
C4084 C4085 1.377 . S
C4085 H4069 0.930 . S
C4085 C4084 1.377 . S
C4085 C4086 1.379 . S
C4086 H4070 0.931 . S
C4086 C4080 1.383 . S
C4086 C4085 1.379 . S
H4087 C4081 0.959 . S
H4088 C4081 0.961 . S
H4089 C4081 0.960 . S
H4090 C4082 0.930 . S
H4091 C4083 0.929 . S
H4092 C4100 0.929 . S
H4093 C4102 0.930 . S
H4094 C4104 0.930 . S
H4095 C4107 0.929 . S
H4096 C4110 0.930 . S
H4097 C4112 0.960 . S
H4098 C4112 0.960 . S
H4099 C4112 0.960 . S
C4100 H4092 0.929 . S
C4100 C4101 1.377 . S
C4100 C4102 1.384 . S
C4101 C4100 1.377 . S
C4101 C4107 1.390 . S
C4102 H4093 0.930 . S
C4102 C4100 1.384 . S
C4102 C4103 1.372 . S
C4103 C4102 1.372 . S
C4103 C4104 1.400 . S
C4103 C4108 1.490 . S
C4104 H4094 0.930 . S
C4104 C4103 1.400 . S
C4104 C4107 1.386 . S
H4105 C4121 0.930 . S
H4106 C4122 0.931 . S
C4107 H4095 0.929 . S
C4107 C4101 1.390 . S
C4107 C4104 1.386 . S
C4108 C4103 1.490 . S
C4108 C4110 1.395 . S
C4108 C4111 1.403 . S
H4109 C4115 0.930 . S
C4110 H4096 0.930 . S
C4110 C4108 1.395 . S
C4110 C4113 1.403 1_545 S
C4111 C4108 1.403 . S
C4111 C4112 1.524 . S
C4111 C4115 1.400 1_545 S
C4112 H4097 0.960 . S
C4112 H4098 0.960 . S
C4112 H4099 0.960 . S
C4112 C4111 1.524 . S
C4113 C4110 1.403 1_565 S
C4113 C4114 1.392 . S
C4113 C4117 1.495 . S
C4114 C4113 1.392 . S
C4114 C4115 1.385 . S
C4114 C4116 1.478 . S
C4115 H4109 0.930 . S
C4115 C4111 1.400 1_565 S
C4115 C4114 1.385 . S
C4116 C4114 1.478 . S
C4116 C4118 1.381 . S
C4116 C4122 1.383 . S
C4117 C4113 1.495 . S
C4117 H4123 0.955 . S
C4117 H4124 0.961 . S
C4117 H4125 0.960 . S
C4118 C4116 1.381 . S
C4118 C4119 1.394 . S
C4118 H4126 0.930 . S
C4119 C4118 1.394 . S
C4119 C4120 1.383 . S
C4119 H4127 0.929 . S
C4120 C4119 1.383 . S
C4120 C4121 1.377 . S
C4121 H4105 0.930 . S
C4121 C4120 1.377 . S
C4121 C4122 1.379 . S
C4122 H4106 0.931 . S
C4122 C4116 1.383 . S
C4122 C4121 1.379 . S
H4123 C4117 0.955 . S
H4124 C4117 0.961 . S
H4125 C4117 0.960 . S
H4126 C4118 0.930 . S
H4127 C4119 0.929 . S
H4128 C4136 0.929 . S
H4129 C4138 0.930 . S
H4130 C4140 0.930 . S
H4131 C4143 0.929 . S
H4132 C4146 0.930 . S
H4133 C4148 0.960 . S
H4134 C4148 0.960 . S
H4135 C4148 0.960 . S
C4136 H4128 0.929 . S
C4136 C4137 1.377 . S
C4136 C4138 1.384 . S
C4137 C4136 1.377 . S
C4137 C4143 1.390 . S
C4138 H4129 0.930 . S
C4138 C4136 1.384 . S
C4138 C4139 1.372 . S
C4139 C4138 1.372 . S
C4139 C4140 1.400 . S
C4139 C4144 1.490 . S
C4140 H4130 0.930 . S
C4140 C4139 1.400 . S
C4140 C4143 1.386 . S
H4141 C4157 0.930 . S
H4142 C4158 0.931 . S
C4143 H4131 0.929 . S
C4143 C4137 1.390 . S
C4143 C4140 1.386 . S
C4144 C4139 1.490 . S
C4144 C4146 1.395 . S
C4144 C4147 1.403 . S
H4145 C4151 0.930 . S
C4146 H4132 0.930 . S
C4146 C4144 1.395 . S
C4146 C4149 1.403 . S
C4147 C4144 1.403 . S
C4147 C4148 1.524 . S
C4147 C4151 1.400 . S
C4148 H4133 0.960 . S
C4148 H4134 0.960 . S
C4148 H4135 0.960 . S
C4148 C4147 1.524 . S
C4149 C4146 1.403 . S
C4149 C4150 1.392 . S
C4149 C4153 1.495 . S
C4150 C4149 1.392 . S
C4150 C4151 1.385 . S
C4150 C4152 1.478 . S
C4151 H4145 0.930 . S
C4151 C4147 1.400 . S
C4151 C4150 1.385 . S
C4152 C4150 1.478 . S
C4152 C4154 1.381 . S
C4152 C4158 1.383 . S
C4153 C4149 1.495 . S
C4153 H4159 0.959 . S
C4153 H4160 0.961 . S
C4153 H4161 0.960 . S
C4154 C4152 1.381 . S
C4154 C4155 1.394 . S
C4154 H4162 0.930 . S
C4155 C4154 1.394 . S
C4155 C4156 1.383 . S
C4155 H4163 0.929 . S
C4156 C4155 1.383 . S
C4156 C4157 1.377 . S
C4157 H4141 0.930 . S
C4157 C4156 1.377 . S
C4157 C4158 1.379 . S
C4158 H4142 0.931 . S
C4158 C4152 1.383 . S
C4158 C4157 1.379 . S
H4159 C4153 0.959 . S
H4160 C4153 0.961 . S
H4161 C4153 0.960 . S
H4162 C4154 0.930 . S
H4163 C4155 0.929 . S
H4164 C4172 0.929 . S
H4165 C4174 0.930 . S
H4166 C4176 0.930 . S
H4167 C4179 0.929 . S
H4168 C4182 0.930 . S
H4169 C4184 0.960 . S
H4170 C4184 0.960 . S
H4171 C4184 0.960 . S
C4172 H4164 0.929 . S
C4172 C4173 1.377 . S
C4172 C4174 1.384 . S
C4173 C4172 1.377 . S
C4173 C4179 1.390 . S
C4174 H4165 0.930 . S
C4174 C4172 1.384 . S
C4174 C4175 1.372 . S
C4175 C4174 1.372 . S
C4175 C4176 1.400 . S
C4175 C4180 1.490 . S
C4176 H4166 0.930 . S
C4176 C4175 1.400 . S
C4176 C4179 1.386 . S
H4177 C4193 0.930 . S
H4178 C4194 0.931 . S
C4179 H4167 0.929 . S
C4179 C4173 1.390 . S
C4179 C4176 1.386 . S
C4180 C4175 1.490 . S
C4180 C4182 1.395 . S
C4180 C4183 1.403 . S
H4181 C4187 0.930 . S
C4182 H4168 0.930 . S
C4182 C4180 1.395 . S
C4182 C4185 1.403 1_565 S
C4183 C4180 1.403 . S
C4183 C4184 1.524 . S
C4183 C4187 1.400 1_565 S
C4184 H4169 0.960 . S
C4184 H4170 0.960 . S
C4184 H4171 0.960 . S
C4184 C4183 1.524 . S
C4185 C4182 1.403 1_545 S
C4185 C4186 1.392 . S
C4185 C4189 1.495 . S
C4186 C4185 1.392 . S
C4186 C4187 1.385 . S
C4186 C4188 1.478 . S
C4187 H4181 0.930 . S
C4187 C4183 1.400 1_545 S
C4187 C4186 1.385 . S
C4188 C4186 1.478 . S
C4188 C4190 1.381 . S
C4188 C4194 1.383 . S
C4189 C4185 1.495 . S
C4189 H4195 0.959 . S
C4189 H4196 0.961 . S
C4189 H4197 0.960 . S
C4190 C4188 1.381 . S
C4190 C4191 1.394 . S
C4190 H4198 0.930 . S
C4191 C4190 1.394 . S
C4191 C4192 1.383 . S
C4191 H4199 0.929 . S
C4192 C4191 1.383 . S
C4192 C4193 1.377 . S
C4193 H4177 0.930 . S
C4193 C4192 1.377 . S
C4193 C4194 1.379 . S
C4194 H4178 0.931 . S
C4194 C4188 1.383 . S
C4194 C4193 1.379 . S
H4195 C4189 0.959 . S
H4196 C4189 0.961 . S
H4197 C4189 0.960 . S
H4198 C4190 0.930 . S
H4199 C4191 0.929 . S
H4200 C4208 0.929 . S
H4201 C4210 0.930 . S
H4202 C4212 0.930 . S
H4203 C4215 0.929 . S
H4204 C4218 0.930 . S
H4205 C4220 0.960 . S
H4206 C4220 0.960 . S
H4207 C4220 0.960 . S
C4208 H4200 0.929 . S
C4208 C4209 1.377 . S
C4208 C4210 1.384 . S
C4209 C4208 1.377 . S
C4209 C4215 1.390 . S
C4210 H4201 0.930 . S
C4210 C4208 1.384 . S
C4210 C4211 1.372 . S
C4211 C4210 1.372 . S
C4211 C4212 1.400 . S
C4211 C4216 1.490 . S
C4212 H4202 0.930 . S
C4212 C4211 1.400 . S
C4212 C4215 1.386 . S
H4213 C4229 0.930 . S
H4214 C4230 0.931 . S
C4215 H4203 0.929 . S
C4215 C4209 1.390 . S
C4215 C4212 1.386 . S
C4216 C4211 1.490 . S
C4216 C4218 1.395 . S
C4216 C4219 1.403 . S
H4217 C4223 0.930 . S
C4218 H4204 0.930 . S
C4218 C4216 1.395 . S
C4218 C4221 1.403 . S
C4219 C4216 1.403 . S
C4219 C4220 1.524 . S
C4219 C4223 1.400 . S
C4220 H4205 0.960 . S
C4220 H4206 0.960 . S
C4220 H4207 0.960 . S
C4220 C4219 1.524 . S
C4221 C4218 1.403 . S
C4221 C4222 1.392 . S
C4221 C4225 1.495 . S
C4222 C4221 1.392 . S
C4222 C4223 1.385 . S
C4222 C4224 1.478 . S
C4223 H4217 0.930 . S
C4223 C4219 1.400 . S
C4223 C4222 1.385 . S
C4224 C4222 1.478 . S
C4224 C4226 1.381 . S
C4224 C4230 1.383 . S
C4225 C4221 1.495 . S
C4225 H4231 0.959 . S
C4225 H4232 0.961 . S
C4225 H4233 0.960 . S
C4226 C4224 1.381 . S
C4226 C4227 1.394 . S
C4226 H4234 0.930 . S
C4227 C4226 1.394 . S
C4227 C4228 1.383 . S
C4227 H4235 0.929 . S
C4228 C4227 1.383 . S
C4228 C4229 1.377 . S
C4229 H4213 0.930 . S
C4229 C4228 1.377 . S
C4229 C4230 1.379 . S
C4230 H4214 0.931 . S
C4230 C4224 1.383 . S
C4230 C4229 1.379 . S
H4231 C4225 0.959 . S
H4232 C4225 0.961 . S
H4233 C4225 0.960 . S
H4234 C4226 0.930 . S
H4235 C4227 0.929 . S
H4236 C4244 0.929 . S
H4237 C4246 0.930 . S
H4238 C4248 0.930 . S
H4239 C4251 0.929 . S
H4240 C4254 0.930 . S
H4241 C4256 0.960 . S
H4242 C4256 0.960 . S
H4243 C4256 0.960 . S
C4244 H4236 0.929 . S
C4244 C4245 1.377 . S
C4244 C4246 1.384 . S
C4245 C4244 1.377 . S
C4245 C4251 1.390 . S
C4246 H4237 0.930 . S
C4246 C4244 1.384 . S
C4246 C4247 1.372 . S
C4247 C4246 1.372 . S
C4247 C4248 1.400 . S
C4247 C4252 1.490 . S
C4248 H4238 0.930 . S
C4248 C4247 1.400 . S
C4248 C4251 1.386 . S
H4249 C4265 0.930 . S
H4250 C4266 0.931 . S
C4251 H4239 0.929 . S
C4251 C4245 1.390 . S
C4251 C4248 1.386 . S
C4252 C4247 1.490 . S
C4252 C4254 1.395 . S
C4252 C4255 1.403 . S
H4253 C4259 0.930 . S
C4254 H4240 0.930 . S
C4254 C4252 1.395 . S
C4254 C4257 1.403 1_565 S
C4255 C4252 1.403 . S
C4255 C4256 1.524 . S
C4255 C4259 1.400 1_565 S
C4256 H4241 0.960 . S
C4256 H4242 0.960 . S
C4256 H4243 0.960 . S
C4256 C4255 1.524 . S
C4257 C4254 1.403 1_545 S
C4257 C4258 1.392 . S
C4257 C4261 1.495 . S
C4258 C4257 1.392 . S
C4258 C4259 1.385 . S
C4258 C4260 1.478 . S
C4259 H4253 0.930 . S
C4259 C4255 1.400 1_545 S
C4259 C4258 1.385 . S
C4260 C4258 1.478 . S
C4260 C4262 1.381 . S
C4260 C4266 1.383 . S
C4261 C4257 1.495 . S
C4261 H4267 0.959 . S
C4261 H4268 0.961 . S
C4261 H4269 0.960 . S
C4262 C4260 1.381 . S
C4262 C4263 1.394 . S
C4262 H4270 0.930 . S
C4263 C4262 1.394 . S
C4263 C4264 1.383 . S
C4263 H4271 0.929 . S
C4264 C4263 1.383 . S
C4264 C4265 1.377 . S
C4265 H4249 0.930 . S
C4265 C4264 1.377 . S
C4265 C4266 1.379 . S
C4266 H4250 0.931 . S
C4266 C4260 1.383 . S
C4266 C4265 1.379 . S
H4267 C4261 0.959 . S
H4268 C4261 0.961 . S
H4269 C4261 0.960 . S
H4270 C4262 0.930 . S
H4271 C4263 0.929 . S
H4272 C4280 0.929 . S
H4273 C4282 0.930 . S
H4274 C4284 0.930 . S
H4275 C4287 0.929 . S
H4276 C4290 0.930 . S
H4277 C4292 0.960 . S
H4278 C4292 0.960 . S
H4279 C4292 0.960 . S
C4280 H4272 0.929 . S
C4280 C4281 1.377 . S
C4280 C4282 1.384 . S
C4281 C4280 1.377 . S
C4281 C4287 1.390 . S
C4282 H4273 0.930 . S
C4282 C4280 1.384 . S
C4282 C4283 1.372 . S
C4283 C4282 1.372 . S
C4283 C4284 1.400 . S
C4283 C4288 1.490 . S
C4284 H4274 0.930 . S
C4284 C4283 1.400 . S
C4284 C4287 1.386 . S
H4285 C4301 0.930 . S
H4286 C4302 0.931 . S
C4287 H4275 0.929 . S
C4287 C4281 1.390 . S
C4287 C4284 1.386 . S
C4288 C4283 1.490 . S
C4288 C4290 1.395 . S
C4288 C4291 1.403 . S
H4289 C4295 0.930 . S
C4290 H4276 0.930 . S
C4290 C4288 1.395 . S
C4290 C4293 1.403 . S
C4291 C4288 1.403 . S
C4291 C4292 1.524 . S
C4291 C4295 1.400 . S
C4292 H4277 0.960 . S
C4292 H4278 0.960 . S
C4292 H4279 0.960 . S
C4292 C4291 1.524 . S
C4293 C4290 1.403 . S
C4293 C4294 1.392 . S
C4293 C4297 1.495 . S
C4294 C4293 1.392 . S
C4294 C4295 1.385 . S
C4294 C4296 1.478 . S
C4295 H4289 0.930 . S
C4295 C4291 1.400 . S
C4295 C4294 1.385 . S
C4296 C4294 1.478 . S
C4296 C4298 1.381 . S
C4296 C4302 1.383 . S
C4297 C4293 1.495 . S
C4297 H4303 0.959 . S
C4297 H4304 0.961 . S
C4297 H4305 0.960 . S
C4298 C4296 1.381 . S
C4298 C4299 1.394 . S
C4298 H4306 0.930 . S
C4299 C4298 1.394 . S
C4299 C4300 1.383 . S
C4299 H4307 0.929 . S
C4300 C4299 1.383 . S
C4300 C4301 1.377 . S
C4301 H4285 0.930 . S
C4301 C4300 1.377 . S
C4301 C4302 1.379 . S
C4302 H4286 0.931 . S
C4302 C4296 1.383 . S
C4302 C4301 1.379 . S
H4303 C4297 0.959 . S
H4304 C4297 0.961 . S
H4305 C4297 0.960 . S
H4306 C4298 0.930 . S
H4307 C4299 0.929 . S
H4308 C4316 0.929 . S
H4309 C4318 0.930 . S
H4310 C4320 0.930 . S
H4311 C4323 0.929 . S
H4312 C4326 0.930 . S
H4313 C4328 0.960 . S
H4314 C4328 0.960 . S
H4315 C4328 0.960 . S
C4316 H4308 0.929 . S
C4316 C4317 1.377 . S
C4316 C4318 1.384 . S
C4317 C4316 1.377 . S
C4317 C4323 1.390 . S
C4318 H4309 0.930 . S
C4318 C4316 1.384 . S
C4318 C4319 1.372 . S
C4319 C4318 1.372 . S
C4319 C4320 1.400 . S
C4319 C4324 1.490 . S
C4320 H4310 0.930 . S
C4320 C4319 1.400 . S
C4320 C4323 1.386 . S
H4321 C4337 0.930 . S
H4322 C4338 0.931 . S
C4323 H4311 0.929 . S
C4323 C4317 1.390 . S
C4323 C4320 1.386 . S
C4324 C4319 1.490 . S
C4324 C4326 1.395 . S
C4324 C4327 1.403 . S
H4325 C4331 0.930 . S
C4326 H4312 0.930 . S
C4326 C4324 1.395 . S
C4326 C4329 1.403 . S
C4327 C4324 1.403 . S
C4327 C4328 1.524 . S
C4327 C4331 1.400 . S
C4328 H4313 0.960 . S
C4328 H4314 0.960 . S
C4328 H4315 0.960 . S
C4328 C4327 1.524 . S
C4329 C4326 1.403 . S
C4329 C4330 1.392 . S
C4329 C4333 1.495 . S
C4330 C4329 1.392 . S
C4330 C4331 1.385 . S
C4330 C4332 1.478 . S
C4331 H4325 0.930 . S
C4331 C4327 1.400 . S
C4331 C4330 1.385 . S
C4332 C4330 1.478 . S
C4332 C4334 1.381 . S
C4332 C4338 1.383 . S
C4333 C4329 1.495 . S
C4333 H4339 0.959 . S
C4333 H4340 0.961 . S
C4333 H4341 0.960 . S
C4334 C4332 1.381 . S
C4334 C4335 1.394 . S
C4334 H4342 0.930 . S
C4335 C4334 1.394 . S
C4335 C4336 1.383 . S
C4335 H4343 0.929 . S
C4336 C4335 1.383 . S
C4336 C4337 1.377 . S
C4337 H4321 0.930 . S
C4337 C4336 1.377 . S
C4337 C4338 1.379 . S
C4338 H4322 0.931 . S
C4338 C4332 1.383 . S
C4338 C4337 1.379 . S
H4339 C4333 0.959 . S
H4340 C4333 0.961 . S
H4341 C4333 0.960 . S
H4342 C4334 0.930 . S
H4343 C4335 0.929 . S
H4344 C4352 0.929 . S
H4345 C4354 0.930 . S
H4346 C4356 0.930 . S
H4347 C4359 0.929 . S
H4348 C4362 0.930 . S
H4349 C4364 0.960 . S
H4350 C4364 0.960 . S
H4351 C4364 0.960 . S
C4352 H4344 0.929 . S
C4352 C4353 1.377 . S
C4352 C4354 1.384 . S
C4353 C4352 1.377 . S
C4353 C4359 1.390 . S
C4354 H4345 0.930 . S
C4354 C4352 1.384 . S
C4354 C4355 1.372 . S
C4355 C4354 1.372 . S
C4355 C4356 1.400 . S
C4355 C4360 1.490 . S
C4356 H4346 0.930 . S
C4356 C4355 1.400 . S
C4356 C4359 1.386 . S
H4357 C4373 0.930 . S
H4358 C4374 0.931 . S
C4359 H4347 0.929 . S
C4359 C4353 1.390 . S
C4359 C4356 1.386 . S
C4360 C4355 1.490 . S
C4360 C4362 1.395 . S
C4360 C4363 1.403 . S
H4361 C4367 0.930 . S
C4362 H4348 0.930 . S
C4362 C4360 1.395 . S
C4362 C4365 1.403 . S
C4363 C4360 1.403 . S
C4363 C4364 1.524 . S
C4363 C4367 1.400 . S
C4364 H4349 0.960 . S
C4364 H4350 0.960 . S
C4364 H4351 0.960 . S
C4364 C4363 1.524 . S
C4365 C4362 1.403 . S
C4365 C4366 1.392 . S
C4365 C4369 1.495 . S
C4366 C4365 1.392 . S
C4366 C4367 1.385 . S
C4366 C4368 1.478 1_455 S
C4367 H4361 0.930 . S
C4367 C4363 1.400 . S
C4367 C4366 1.385 . S
C4368 C4366 1.478 1_655 S
C4368 C4370 1.381 . S
C4368 C4374 1.383 . S
C4369 C4365 1.495 . S
C4369 H4375 0.959 . S
C4369 H4376 0.988 . S
C4369 H4377 0.964 1_455 S
C4370 C4368 1.381 . S
C4370 C4371 1.394 . S
C4370 H4378 0.930 . S
C4371 C4370 1.394 . S
C4371 C4372 1.383 . S
C4371 H4379 0.929 . S
C4372 C4371 1.383 . S
C4372 C4373 1.377 . S
C4373 H4357 0.930 . S
C4373 C4372 1.377 . S
C4373 C4374 1.379 . S
C4374 H4358 0.931 . S
C4374 C4368 1.383 . S
C4374 C4373 1.379 . S
H4375 C4369 0.959 . S
H4376 C4369 0.988 . S
H4377 C4369 0.964 1_655 S
H4378 C4370 0.930 . S
H4379 C4371 0.929 . S
H4380 C4388 0.929 . S
H4381 C4390 0.930 . S
H4382 C4392 0.930 . S
H4383 C4395 0.929 . S
H4384 C4398 0.930 . S
H4385 C4400 0.960 . S
H4386 C4400 0.960 . S
H4387 C4400 0.960 . S
C4388 H4380 0.929 . S
C4388 C4389 1.377 . S
C4388 C4390 1.384 . S
C4389 C4388 1.377 . S
C4389 C4395 1.390 . S
C4390 H4381 0.930 . S
C4390 C4388 1.384 . S
C4390 C4391 1.372 . S
C4391 C4390 1.372 . S
C4391 C4392 1.400 . S
C4391 C4396 1.490 . S
C4392 H4382 0.930 . S
C4392 C4391 1.400 . S
C4392 C4395 1.386 . S
H4393 C4409 0.930 . S
H4394 C4410 0.931 . S
C4395 H4383 0.929 . S
C4395 C4389 1.390 . S
C4395 C4392 1.386 . S
C4396 C4391 1.490 . S
C4396 C4398 1.395 . S
C4396 C4399 1.403 . S
H4397 C4403 0.930 . S
C4398 H4384 0.930 . S
C4398 C4396 1.395 . S
C4398 C4401 1.403 . S
C4399 C4396 1.403 . S
C4399 C4400 1.524 . S
C4399 C4403 1.400 . S
C4400 H4385 0.960 . S
C4400 H4386 0.960 . S
C4400 H4387 0.960 . S
C4400 C4399 1.524 . S
C4401 C4398 1.403 . S
C4401 C4402 1.392 . S
C4401 C4405 1.495 . S
C4402 C4401 1.392 . S
C4402 C4403 1.385 . S
C4402 C4404 1.478 . S
C4403 H4397 0.930 . S
C4403 C4399 1.400 . S
C4403 C4402 1.385 . S
C4404 C4402 1.478 . S
C4404 C4406 1.381 . S
C4404 C4410 1.383 . S
C4405 C4401 1.495 . S
C4405 H4411 0.959 . S
C4405 H4412 0.961 . S
C4405 H4413 0.960 . S
C4406 C4404 1.381 . S
C4406 C4407 1.394 . S
C4406 H4414 0.930 . S
C4407 C4406 1.394 . S
C4407 C4408 1.383 . S
C4407 H4415 0.929 . S
C4408 C4407 1.383 . S
C4408 C4409 1.377 . S
C4409 H4393 0.930 . S
C4409 C4408 1.377 . S
C4409 C4410 1.379 . S
C4410 H4394 0.931 . S
C4410 C4404 1.383 . S
C4410 C4409 1.379 . S
H4411 C4405 0.959 . S
H4412 C4405 0.961 . S
H4413 C4405 0.960 . S
H4414 C4406 0.930 . S
H4415 C4407 0.929 . S
H4416 C4424 0.929 . S
H4417 C4426 0.930 . S
H4418 C4428 0.930 . S
H4419 C4431 0.929 . S
H4420 C4434 0.930 . S
H4421 C4436 0.960 . S
H4422 C4436 0.960 1_455 S
H4423 C4436 0.960 1_455 S
C4424 H4416 0.929 . S
C4424 C4425 1.377 . S
C4424 C4426 1.384 . S
C4425 C4424 1.377 . S
C4425 C4431 1.390 . S
C4426 H4417 0.930 . S
C4426 C4424 1.384 . S
C4426 C4427 1.372 . S
C4427 C4426 1.372 . S
C4427 C4428 1.400 . S
C4427 C4432 1.543 . S
C4428 H4418 0.930 . S
C4428 C4427 1.400 . S
C4428 C4431 1.386 . S
H4429 C4445 0.930 . S
H4430 C4446 0.931 . S
C4431 H4419 0.929 . S
C4431 C4425 1.390 . S
C4431 C4428 1.386 . S
C4432 C4427 1.543 . S
C4432 C4434 1.370 1_455 S
C4432 C4435 1.376 1_455 S
H4433 C4439 0.930 . S
C4434 H4420 0.930 . S
C4434 C4432 1.370 1_655 S
C4434 C4437 1.403 . S
C4435 C4432 1.376 1_655 S
C4435 C4436 1.524 . S
C4435 C4439 1.400 . S
C4436 H4421 0.960 . S
C4436 H4422 0.960 1_655 S
C4436 H4423 0.960 1_655 S
C4436 C4435 1.524 . S
C4437 C4434 1.403 . S
C4437 C4438 1.392 . S
C4437 C4441 1.495 . S
C4438 C4437 1.392 . S
C4438 C4439 1.385 . S
C4438 C4440 1.478 . S
C4439 H4433 0.930 . S
C4439 C4435 1.400 . S
C4439 C4438 1.385 . S
C4440 C4438 1.478 . S
C4440 C4442 1.381 . S
C4440 C4446 1.383 . S
C4441 C4437 1.495 . S
C4441 H4447 0.959 . S
C4441 H4448 0.961 . S
C4441 H4449 0.960 . S
C4442 C4440 1.381 . S
C4442 C4443 1.394 . S
C4442 H4450 0.930 . S
C4443 C4442 1.394 . S
C4443 C4444 1.383 . S
C4443 H4451 0.929 . S
C4444 C4443 1.383 . S
C4444 C4445 1.377 . S
C4445 H4429 0.930 . S
C4445 C4444 1.377 . S
C4445 C4446 1.379 . S
C4446 H4430 0.931 . S
C4446 C4440 1.383 . S
C4446 C4445 1.379 . S
H4447 C4441 0.959 . S
H4448 C4441 0.961 . S
H4449 C4441 0.960 . S
H4450 C4442 0.930 . S
H4451 C4443 0.929 . S
H4452 C4460 0.929 . S
H4453 C4462 0.930 . S
H4454 C4464 0.930 . S
H4455 C4467 0.929 . S
H4456 C4470 0.930 . S
H4457 C4472 0.960 . S
H4458 C4472 0.960 . S
H4459 C4472 0.960 . S
C4460 H4452 0.929 . S
C4460 C4461 1.377 . S
C4460 C4462 1.384 . S
C4461 C4460 1.377 . S
C4461 C4467 1.390 . S
C4462 H4453 0.930 . S
C4462 C4460 1.384 . S
C4462 C4463 1.372 . S
C4463 C4462 1.372 . S
C4463 C4464 1.400 . S
C4463 C4468 1.490 . S
C4464 H4454 0.930 . S
C4464 C4463 1.400 . S
C4464 C4467 1.386 . S
H4465 C4481 0.930 . S
H4466 C4482 0.931 . S
C4467 H4455 0.929 . S
C4467 C4461 1.390 . S
C4467 C4464 1.386 . S
C4468 C4463 1.490 . S
C4468 C4470 1.395 . S
C4468 C4471 1.403 . S
H4469 C4475 0.930 . S
C4470 H4456 0.930 . S
C4470 C4468 1.395 . S
C4470 C4473 1.403 . S
C4471 C4468 1.403 . S
C4471 C4472 1.524 . S
C4471 C4475 1.400 . S
C4472 H4457 0.960 . S
C4472 H4458 0.960 . S
C4472 H4459 0.960 . S
C4472 C4471 1.524 . S
C4473 C4470 1.403 . S
C4473 C4474 1.392 . S
C4473 C4477 1.495 . S
C4474 C4473 1.392 . S
C4474 C4475 1.385 . S
C4474 C4476 1.478 . S
C4475 H4469 0.930 . S
C4475 C4471 1.400 . S
C4475 C4474 1.385 . S
C4476 C4474 1.478 . S
C4476 C4478 1.381 . S
C4476 C4482 1.383 . S
C4477 C4473 1.495 . S
C4477 H4483 0.959 . S
C4477 H4484 0.961 . S
C4477 H4485 0.960 . S
C4478 C4476 1.381 . S
C4478 C4479 1.394 . S
C4478 H4486 0.930 . S
C4479 C4478 1.394 . S
C4479 C4480 1.383 . S
C4479 H4487 0.929 . S
C4480 C4479 1.383 . S
C4480 C4481 1.377 . S
C4481 H4465 0.930 . S
C4481 C4480 1.377 . S
C4481 C4482 1.379 . S
C4482 H4466 0.931 . S
C4482 C4476 1.383 . S
C4482 C4481 1.379 . S
H4483 C4477 0.959 . S
H4484 C4477 0.961 . S
H4485 C4477 0.960 . S
H4486 C4478 0.930 . S
H4487 C4479 0.929 . S
H4488 C4496 0.929 . S
H4489 C4498 0.930 . S
H4490 C4500 0.930 . S
H4491 C4503 0.929 . S
H4492 C4506 0.930 . S
H4493 C4508 0.960 . S
H4494 C4508 0.960 . S
H4495 C4508 0.960 . S
C4496 H4488 0.929 . S
C4496 C4497 1.377 . S
C4496 C4498 1.384 . S
C4497 C4496 1.377 . S
C4497 C4503 1.390 . S
C4498 H4489 0.930 . S
C4498 C4496 1.384 . S
C4498 C4499 1.372 . S
C4499 C4498 1.372 . S
C4499 C4500 1.400 . S
C4499 C4504 1.490 . S
C4500 H4490 0.930 . S
C4500 C4499 1.400 . S
C4500 C4503 1.386 . S
H4501 C4517 0.930 . S
H4502 C4518 0.931 . S
C4503 H4491 0.929 . S
C4503 C4497 1.390 . S
C4503 C4500 1.386 . S
C4504 C4499 1.490 . S
C4504 C4506 1.395 . S
C4504 C4507 1.403 . S
H4505 C4511 0.930 . S
C4506 H4492 0.930 . S
C4506 C4504 1.395 . S
C4506 C4509 1.403 . S
C4507 C4504 1.403 . S
C4507 C4508 1.524 . S
C4507 C4511 1.400 . S
C4508 H4493 0.960 . S
C4508 H4494 0.960 . S
C4508 H4495 0.960 . S
C4508 C4507 1.524 . S
C4509 C4506 1.403 . S
C4509 C4510 1.375 1_655 S
C4509 C4513 1.495 1_655 S
C4510 C4509 1.375 1_455 S
C4510 C4511 1.368 1_455 S
C4510 C4512 1.513 . S
C4511 H4505 0.930 . S
C4511 C4507 1.400 . S
C4511 C4510 1.368 1_655 S
C4512 C4510 1.513 . S
C4512 C4514 1.381 . S
C4512 C4518 1.383 . S
C4513 C4509 1.495 1_455 S
C4513 H4519 0.959 1_455 S
C4513 H4520 0.961 . S
C4513 H4521 0.960 . S
C4514 C4512 1.381 . S
C4514 C4515 1.394 . S
C4514 H4522 0.930 . S
C4515 C4514 1.394 . S
C4515 C4516 1.383 . S
C4515 H4523 0.929 . S
C4516 C4515 1.383 . S
C4516 C4517 1.377 . S
C4517 H4501 0.930 . S
C4517 C4516 1.377 . S
C4517 C4518 1.379 . S
C4518 H4502 0.931 . S
C4518 C4512 1.383 . S
C4518 C4517 1.379 . S
H4519 C4513 0.959 1_655 S
H4520 C4513 0.961 . S
H4521 C4513 0.960 . S
H4522 C4514 0.930 . S
H4523 C4515 0.929 . S
H4524 C4532 0.929 . S
H4525 C4534 0.930 . S
H4526 C4536 0.930 . S
H4527 C4539 0.929 . S
H4528 C4542 0.930 . S
H4529 C4544 0.960 . S
H4530 C4544 0.960 . S
H4531 C4544 0.960 . S
C4532 H4524 0.929 . S
C4532 C4533 1.377 . S
C4532 C4534 1.384 . S
C4533 C4532 1.377 . S
C4533 C4539 1.390 . S
C4534 H4525 0.930 . S
C4534 C4532 1.384 . S
C4534 C4535 1.372 . S
C4535 C4534 1.372 . S
C4535 C4536 1.400 . S
C4535 C4540 1.490 . S
C4536 H4526 0.930 . S
C4536 C4535 1.400 . S
C4536 C4539 1.386 . S
H4537 C4553 0.930 . S
H4538 C4554 0.931 . S
C4539 H4527 0.929 . S
C4539 C4533 1.390 . S
C4539 C4536 1.386 . S
C4540 C4535 1.490 . S
C4540 C4542 1.395 . S
C4540 C4543 1.403 . S
H4541 C4547 0.930 . S
C4542 H4528 0.930 . S
C4542 C4540 1.395 . S
C4542 C4545 1.403 . S
C4543 C4540 1.403 . S
C4543 C4544 1.524 . S
C4543 C4547 1.400 . S
C4544 H4529 0.960 . S
C4544 H4530 0.960 . S
C4544 H4531 0.960 . S
C4544 C4543 1.524 . S
C4545 C4542 1.403 . S
C4545 C4546 1.392 . S
C4545 C4549 1.495 . S
C4546 C4545 1.392 . S
C4546 C4547 1.385 . S
C4546 C4548 1.478 1_455 S
C4547 H4541 0.930 . S
C4547 C4543 1.400 . S
C4547 C4546 1.385 . S
C4548 C4546 1.478 1_655 S
C4548 C4550 1.381 . S
C4548 C4554 1.383 . S
C4549 C4545 1.495 . S
C4549 H4555 0.959 . S
C4549 H4556 0.961 . S
C4549 H4557 0.960 . S
C4550 C4548 1.381 . S
C4550 C4551 1.394 . S
C4550 H4558 0.930 . S
C4551 C4550 1.394 . S
C4551 C4552 1.383 . S
C4551 H4559 0.929 . S
C4552 C4551 1.383 . S
C4552 C4553 1.377 . S
C4553 H4537 0.930 . S
C4553 C4552 1.377 . S
C4553 C4554 1.379 . S
C4554 H4538 0.931 . S
C4554 C4548 1.383 . S
C4554 C4553 1.379 . S
H4555 C4549 0.959 . S
H4556 C4549 0.961 . S
H4557 C4549 0.960 . S
H4558 C4550 0.930 . S
H4559 C4551 0.929 . S
H4560 C4568 0.929 . S
H4561 C4570 0.930 . S
H4562 C4572 0.930 . S
H4563 C4575 0.929 . S
H4564 C4578 0.930 . S
H4565 C4580 0.960 . S
H4566 C4580 0.960 . S
H4567 C4580 0.960 . S
C4568 H4560 0.929 . S
C4568 C4569 1.377 . S
C4568 C4570 1.384 . S
C4569 C4568 1.377 . S
C4569 C4575 1.390 . S
C4570 H4561 0.930 . S
C4570 C4568 1.384 . S
C4570 C4571 1.372 . S
C4571 C4570 1.372 . S
C4571 C4572 1.400 . S
C4571 C4576 1.490 . S
C4572 H4562 0.930 . S
C4572 C4571 1.400 . S
C4572 C4575 1.386 . S
H4573 C4589 0.930 . S
H4574 C4590 0.931 . S
C4575 H4563 0.929 . S
C4575 C4569 1.390 . S
C4575 C4572 1.386 . S
C4576 C4571 1.490 . S
C4576 C4578 1.395 . S
C4576 C4579 1.403 . S
H4577 C4583 0.894 1_455 S
C4578 H4564 0.930 . S
C4578 C4576 1.395 . S
C4578 C4581 1.403 . S
C4579 C4576 1.403 . S
C4579 C4580 1.524 . S
C4579 C4583 1.464 . S
C4580 H4565 0.960 . S
C4580 H4566 0.960 . S
C4580 H4567 0.960 . S
C4580 C4579 1.524 . S
C4581 C4578 1.403 . S
C4581 C4582 1.392 1_655 S
C4581 C4585 1.495 1_655 S
C4582 C4581 1.392 1_455 S
C4582 C4583 1.358 1_455 S
C4582 C4584 1.478 . S
C4583 H4577 0.894 1_655 S
C4583 C4579 1.464 . S
C4583 C4582 1.358 1_655 S
C4584 C4582 1.478 . S
C4584 C4586 1.381 . S
C4584 C4590 1.383 . S
C4585 C4581 1.495 1_455 S
C4585 H4591 0.959 1_455 S
C4585 H4592 0.961 . S
C4585 H4593 0.960 . S
C4586 C4584 1.381 . S
C4586 C4587 1.394 . S
C4586 H4594 0.930 . S
C4587 C4586 1.394 . S
C4587 C4588 1.383 . S
C4587 H4595 0.929 . S
C4588 C4587 1.383 . S
C4588 C4589 1.377 . S
C4589 H4573 0.930 . S
C4589 C4588 1.377 . S
C4589 C4590 1.379 . S
C4590 H4574 0.931 . S
C4590 C4584 1.383 . S
C4590 C4589 1.379 . S
H4591 C4585 0.959 1_655 S
H4592 C4585 0.961 . S
H4593 C4585 0.960 . S
H4594 C4586 0.930 . S
H4595 C4587 0.929 . S
H4596 C4604 0.929 . S
H4597 C4606 0.930 . S
H4598 C4608 0.930 . S
H4599 C4611 0.929 . S
H4600 C4614 0.930 . S
H4601 C4616 0.960 . S
H4602 C4616 0.960 . S
H4603 C4616 0.960 . S
C4604 H4596 0.929 . S
C4604 C4605 1.377 . S
C4604 C4606 1.384 . S
C4605 C4604 1.377 . S
C4605 C4611 1.390 . S
C4606 H4597 0.930 . S
C4606 C4604 1.384 . S
C4606 C4607 1.372 . S
C4607 C4606 1.372 . S
C4607 C4608 1.400 . S
C4607 C4612 1.490 . S
C4608 H4598 0.930 . S
C4608 C4607 1.400 . S
C4608 C4611 1.386 . S
H4609 C4625 0.930 . S
H4610 C4626 0.931 . S
C4611 H4599 0.929 . S
C4611 C4605 1.390 . S
C4611 C4608 1.386 . S
C4612 C4607 1.490 . S
C4612 C4614 1.395 . S
C4612 C4615 1.403 . S
H4613 C4619 0.930 . S
C4614 H4600 0.930 . S
C4614 C4612 1.395 . S
C4614 C4617 1.403 . S
C4615 C4612 1.403 . S
C4615 C4616 1.524 . S
C4615 C4619 1.400 . S
C4616 H4601 0.960 . S
C4616 H4602 0.960 . S
C4616 H4603 0.960 . S
C4616 C4615 1.524 . S
C4617 C4614 1.403 . S
C4617 C4618 1.392 . S
C4617 C4621 1.495 . S
C4618 C4617 1.392 . S
C4618 C4619 1.385 . S
C4618 C4620 1.478 . S
C4619 H4613 0.930 . S
C4619 C4615 1.400 . S
C4619 C4618 1.385 . S
C4620 C4618 1.478 . S
C4620 C4622 1.381 . S
C4620 C4626 1.383 . S
C4621 C4617 1.495 . S
C4621 H4627 0.959 . S
C4621 H4628 0.961 . S
C4621 H4629 0.960 . S
C4622 C4620 1.381 . S
C4622 C4623 1.394 . S
C4622 H4630 0.930 . S
C4623 C4622 1.394 . S
C4623 C4624 1.383 . S
C4623 H4631 0.929 . S
C4624 C4623 1.383 . S
C4624 C4625 1.377 . S
C4625 H4609 0.930 . S
C4625 C4624 1.377 . S
C4625 C4626 1.379 . S
C4626 H4610 0.931 . S
C4626 C4620 1.383 . S
C4626 C4625 1.379 . S
H4627 C4621 0.959 . S
H4628 C4621 0.961 . S
H4629 C4621 0.960 . S
H4630 C4622 0.930 . S
H4631 C4623 0.929 . S
H4632 C4640 0.929 . S
H4633 C4642 0.930 . S
H4634 C4644 0.930 . S
H4635 C4647 0.929 . S
H4636 C4650 0.930 . S
H4637 C4652 0.960 . S
H4638 C4652 0.960 . S
H4639 C4652 0.960 . S
C4640 H4632 0.929 . S
C4640 C4641 1.377 . S
C4640 C4642 1.384 . S
C4641 C4640 1.377 . S
C4641 C4647 1.390 . S
C4642 H4633 0.930 . S
C4642 C4640 1.384 . S
C4642 C4643 1.372 . S
C4643 C4642 1.372 . S
C4643 C4644 1.400 . S
C4643 C4648 1.490 . S
C4644 H4634 0.930 . S
C4644 C4643 1.400 . S
C4644 C4647 1.386 . S
H4645 C4661 0.930 . S
H4646 C4662 0.931 . S
C4647 H4635 0.929 . S
C4647 C4641 1.390 . S
C4647 C4644 1.386 . S
C4648 C4643 1.490 . S
C4648 C4650 1.395 . S
C4648 C4651 1.403 . S
H4649 C4655 0.930 . S
C4650 H4636 0.930 . S
C4650 C4648 1.395 . S
C4650 C4653 1.358 1_455 S
C4651 C4648 1.403 . S
C4651 C4652 1.524 . S
C4651 C4655 1.400 1_455 S
C4652 H4637 0.960 . S
C4652 H4638 0.960 . S
C4652 H4639 0.960 . S
C4652 C4651 1.524 . S
C4653 C4650 1.358 1_655 S
C4653 C4654 1.421 . S
C4653 C4657 1.511 . S
C4654 C4653 1.421 . S
C4654 C4655 1.385 . S
C4654 C4656 1.478 . S
C4655 H4649 0.930 . S
C4655 C4651 1.400 1_655 S
C4655 C4654 1.385 . S
C4656 C4654 1.478 . S
C4656 C4658 1.381 . S
C4656 C4662 1.383 . S
C4657 C4653 1.511 . S
C4657 H4663 0.959 1_655 S
C4657 H4664 0.961 . S
C4657 H4665 0.960 . S
C4658 C4656 1.381 . S
C4658 C4659 1.394 . S
C4658 H4666 0.930 . S
C4659 C4658 1.394 . S
C4659 C4660 1.383 . S
C4659 H4667 0.929 . S
C4660 C4659 1.383 . S
C4660 C4661 1.377 . S
C4661 H4645 0.930 . S
C4661 C4660 1.377 . S
C4661 C4662 1.379 . S
C4662 H4646 0.931 . S
C4662 C4656 1.383 . S
C4662 C4661 1.379 . S
H4663 C4657 0.959 1_455 S
H4664 C4657 0.961 . S
H4665 C4657 0.960 . S
H4666 C4658 0.930 . S
H4667 C4659 0.929 . S
H4668 C4676 0.929 . S
H4669 C4678 0.930 . S
H4670 C4680 0.930 . S
H4671 C4683 0.929 . S
H4672 C4686 0.930 . S
H4673 C4688 0.960 . S
H4674 C4688 0.960 . S
H4675 C4688 0.960 . S
C4676 H4668 0.929 . S
C4676 C4677 1.377 . S
C4676 C4678 1.384 . S
C4677 C4676 1.377 . S
C4677 C4683 1.390 . S
C4678 H4669 0.930 . S
C4678 C4676 1.384 . S
C4678 C4679 1.372 . S
C4679 C4678 1.372 . S
C4679 C4680 1.400 . S
C4679 C4684 1.490 . S
C4680 H4670 0.930 . S
C4680 C4679 1.400 . S
C4680 C4683 1.386 . S
H4681 C4697 0.930 . S
H4682 C4698 0.931 . S
C4683 H4671 0.929 . S
C4683 C4677 1.390 . S
C4683 C4680 1.386 . S
C4684 C4679 1.490 . S
C4684 C4686 1.395 . S
C4684 C4687 1.403 . S
H4685 C4691 0.930 . S
C4686 H4672 0.930 . S
C4686 C4684 1.395 . S
C4686 C4689 1.403 . S
C4687 C4684 1.403 . S
C4687 C4688 1.524 . S
C4687 C4691 1.400 . S
C4688 H4673 0.960 . S
C4688 H4674 0.960 . S
C4688 H4675 0.960 . S
C4688 C4687 1.524 . S
C4689 C4686 1.403 . S
C4689 C4690 1.392 . S
C4689 C4693 1.495 . S
C4690 C4689 1.392 . S
C4690 C4691 1.385 . S
C4690 C4692 1.478 . S
C4691 H4685 0.930 . S
C4691 C4687 1.400 . S
C4691 C4690 1.385 . S
C4692 C4690 1.478 . S
C4692 C4694 1.381 . S
C4692 C4698 1.383 . S
C4693 C4689 1.495 . S
C4693 H4699 0.959 . S
C4693 H4700 0.961 . S
C4693 H4701 0.960 . S
C4694 C4692 1.381 . S
C4694 C4695 1.394 . S
C4694 H4702 0.930 . S
C4695 C4694 1.394 . S
C4695 C4696 1.383 . S
C4695 H4703 0.929 . S
C4696 C4695 1.383 . S
C4696 C4697 1.377 . S
C4697 H4681 0.930 . S
C4697 C4696 1.377 . S
C4697 C4698 1.379 . S
C4698 H4682 0.931 . S
C4698 C4692 1.383 . S
C4698 C4697 1.379 . S
H4699 C4693 0.959 . S
H4700 C4693 0.961 . S
H4701 C4693 0.960 . S
H4702 C4694 0.930 . S
H4703 C4695 0.929 . S
H4704 C4712 0.929 . S
H4705 C4714 0.930 . S
H4706 C4716 0.930 . S
H4707 C4719 0.929 . S
H4708 C4722 0.930 1_655 S
H4709 C4724 0.960 1_455 S
H4710 C4724 0.960 . S
H4711 C4724 0.960 . S
C4712 H4704 0.929 . S
C4712 C4713 1.377 . S
C4712 C4714 1.384 . S
C4713 C4712 1.377 . S
C4713 C4719 1.390 . S
C4714 H4705 0.930 . S
C4714 C4712 1.384 . S
C4714 C4715 1.372 . S
C4715 C4714 1.372 . S
C4715 C4716 1.400 . S
C4715 C4720 1.490 . S
C4716 H4706 0.930 . S
C4716 C4715 1.400 . S
C4716 C4719 1.386 . S
H4717 C4733 0.930 . S
H4718 C4734 0.931 . S
C4719 H4707 0.929 . S
C4719 C4713 1.390 . S
C4719 C4716 1.386 . S
C4720 C4715 1.490 . S
C4720 C4722 1.395 1_655 S
C4720 C4723 1.403 1_655 S
H4721 C4727 0.930 . S
C4722 H4708 0.930 1_455 S
C4722 C4720 1.395 1_455 S
C4722 C4725 1.403 . S
C4723 C4720 1.403 1_455 S
C4723 C4724 1.524 1_455 S
C4723 C4727 1.400 . S
C4724 H4709 0.960 1_655 S
C4724 H4710 0.960 . S
C4724 H4711 0.960 . S
C4724 C4723 1.524 1_655 S
C4725 C4722 1.403 . S
C4725 C4726 1.392 . S
C4725 C4729 1.495 . S
C4726 C4725 1.392 . S
C4726 C4727 1.385 . S
C4726 C4728 1.478 . S
C4727 H4721 0.930 . S
C4727 C4723 1.400 . S
C4727 C4726 1.385 . S
C4728 C4726 1.478 . S
C4728 C4730 1.381 . S
C4728 C4734 1.383 . S
C4729 C4725 1.495 . S
C4729 H4735 0.959 . S
C4729 H4736 0.961 . S
C4729 H4737 0.960 . S
C4730 C4728 1.381 . S
C4730 C4731 1.394 . S
C4730 H4738 0.930 . S
C4731 C4730 1.394 . S
C4731 C4732 1.383 . S
C4731 H4739 0.929 . S
C4732 C4731 1.383 . S
C4732 C4733 1.377 . S
C4733 H4717 0.930 . S
C4733 C4732 1.377 . S
C4733 C4734 1.379 . S
C4734 H4718 0.931 . S
C4734 C4728 1.383 . S
C4734 C4733 1.379 . S
H4735 C4729 0.959 . S
H4736 C4729 0.961 . S
H4737 C4729 0.960 . S
H4738 C4730 0.930 . S
H4739 C4731 0.929 . S
H4740 C4748 0.929 . S
H4741 C4750 0.930 . S
H4742 C4752 0.930 . S
H4743 C4755 0.929 . S
H4744 C4758 0.930 . S
H4745 C4760 0.960 . S
H4746 C4760 0.960 . S
H4747 C4760 0.960 . S
C4748 H4740 0.929 . S
C4748 C4749 1.377 . S
C4748 C4750 1.384 . S
C4749 C4748 1.377 . S
C4749 C4755 1.390 . S
C4750 H4741 0.930 . S
C4750 C4748 1.384 . S
C4750 C4751 1.372 . S
C4751 C4750 1.372 . S
C4751 C4752 1.400 . S
C4751 C4756 1.490 . S
C4752 H4742 0.930 . S
C4752 C4751 1.400 . S
C4752 C4755 1.386 . S
H4753 C4769 0.930 . S
H4754 C4770 0.931 . S
C4755 H4743 0.929 . S
C4755 C4749 1.390 . S
C4755 C4752 1.386 . S
C4756 C4751 1.490 . S
C4756 C4758 1.395 . S
C4756 C4759 1.403 . S
H4757 C4763 0.930 . S
C4758 H4744 0.930 . S
C4758 C4756 1.395 . S
C4758 C4761 1.403 . S
C4759 C4756 1.403 . S
C4759 C4760 1.524 . S
C4759 C4763 1.400 . S
C4760 H4745 0.960 . S
C4760 H4746 0.960 . S
C4760 H4747 0.960 . S
C4760 C4759 1.524 . S
C4761 C4758 1.403 . S
C4761 C4762 1.392 . S
C4761 C4765 1.495 . S
C4762 C4761 1.392 . S
C4762 C4763 1.385 . S
C4762 C4764 1.478 . S
C4763 H4757 0.930 . S
C4763 C4759 1.400 . S
C4763 C4762 1.385 . S
C4764 C4762 1.478 . S
C4764 C4766 1.381 . S
C4764 C4770 1.383 . S
C4765 C4761 1.495 . S
C4765 H4771 0.959 . S
C4765 H4772 0.961 . S
C4765 H4773 0.960 . S
C4766 C4764 1.381 . S
C4766 C4767 1.394 . S
C4766 H4774 0.930 . S
C4767 C4766 1.394 . S
C4767 C4768 1.383 . S
C4767 H4775 0.929 . S
C4768 C4767 1.383 . S
C4768 C4769 1.377 . S
C4769 H4753 0.930 . S
C4769 C4768 1.377 . S
C4769 C4770 1.379 . S
C4770 H4754 0.931 . S
C4770 C4764 1.383 . S
C4770 C4769 1.379 . S
H4771 C4765 0.959 . S
H4772 C4765 0.961 . S
H4773 C4765 0.960 . S
H4774 C4766 0.930 . S
H4775 C4767 0.929 . S
H4776 C4784 0.929 . S
H4777 C4786 0.930 . S
H4778 C4788 0.930 . S
H4779 C4791 0.929 . S
H4780 C4794 0.930 . S
H4781 C4796 0.960 . S
H4782 C4796 0.960 . S
H4783 C4796 0.960 . S
C4784 H4776 0.929 . S
C4784 C4785 1.377 . S
C4784 C4786 1.384 . S
C4785 C4784 1.377 . S
C4785 C4791 1.390 . S
C4786 H4777 0.930 . S
C4786 C4784 1.384 . S
C4786 C4787 1.372 . S
C4787 C4786 1.372 . S
C4787 C4788 1.400 . S
C4787 C4792 1.490 . S
C4788 H4778 0.930 . S
C4788 C4787 1.400 . S
C4788 C4791 1.386 . S
H4789 C4805 0.930 . S
H4790 C4806 0.931 . S
C4791 H4779 0.929 . S
C4791 C4785 1.390 . S
C4791 C4788 1.386 . S
C4792 C4787 1.490 . S
C4792 C4794 1.395 . S
C4792 C4795 1.403 . S
H4793 C4799 0.930 . S
C4794 H4780 0.930 . S
C4794 C4792 1.395 . S
C4794 C4797 1.403 1_655 S
C4795 C4792 1.403 . S
C4795 C4796 1.524 . S
C4795 C4799 1.400 1_655 S
C4796 H4781 0.960 . S
C4796 H4782 0.960 . S
C4796 H4783 0.960 . S
C4796 C4795 1.524 . S
C4797 C4794 1.403 1_455 S
C4797 C4798 1.392 . S
C4797 C4801 1.495 . S
C4798 C4797 1.392 . S
C4798 C4799 1.385 . S
C4798 C4800 1.478 . S
C4799 H4793 0.930 . S
C4799 C4795 1.400 1_455 S
C4799 C4798 1.385 . S
C4800 C4798 1.478 . S
C4800 C4802 1.381 . S
C4800 C4806 1.383 . S
C4801 C4797 1.495 . S
C4801 H4807 0.959 . S
C4801 H4808 0.961 . S
C4801 H4809 0.960 . S
C4802 C4800 1.381 . S
C4802 C4803 1.394 . S
C4802 H4810 0.930 . S
C4803 C4802 1.394 . S
C4803 C4804 1.383 . S
C4803 H4811 0.929 . S
C4804 C4803 1.383 . S
C4804 C4805 1.377 . S
C4805 H4789 0.930 . S
C4805 C4804 1.377 . S
C4805 C4806 1.379 . S
C4806 H4790 0.931 . S
C4806 C4800 1.383 . S
C4806 C4805 1.379 . S
H4807 C4801 0.959 . S
H4808 C4801 0.961 . S
H4809 C4801 0.960 . S
H4810 C4802 0.930 . S
H4811 C4803 0.929 . S
H4812 C4820 0.929 . S
H4813 C4822 0.930 . S
H4814 C4824 0.930 . S
H4815 C4827 0.929 . S
H4816 C4830 0.930 . S
H4817 C4832 0.960 . S
H4818 C4832 0.960 . S
H4819 C4832 0.960 . S
C4820 H4812 0.929 . S
C4820 C4821 1.377 . S
C4820 C4822 1.384 . S
C4821 C4820 1.377 . S
C4821 C4827 1.390 . S
C4822 H4813 0.930 . S
C4822 C4820 1.384 . S
C4822 C4823 1.372 . S
C4823 C4822 1.372 . S
C4823 C4824 1.400 . S
C4823 C4828 1.490 . S
C4824 H4814 0.930 . S
C4824 C4823 1.400 . S
C4824 C4827 1.386 . S
H4825 C4841 0.930 . S
H4826 C4842 0.931 . S
C4827 H4815 0.929 . S
C4827 C4821 1.390 . S
C4827 C4824 1.386 . S
C4828 C4823 1.490 . S
C4828 C4830 1.395 . S
C4828 C4831 1.403 . S
H4829 C4835 0.930 . S
C4830 H4816 0.930 . S
C4830 C4828 1.395 . S
C4830 C4833 1.403 . S
C4831 C4828 1.403 . S
C4831 C4832 1.524 . S
C4831 C4835 1.400 . S
C4832 H4817 0.960 . S
C4832 H4818 0.960 . S
C4832 H4819 0.960 . S
C4832 C4831 1.524 . S
C4833 C4830 1.403 . S
C4833 C4834 1.392 . S
C4833 C4837 1.495 . S
C4834 C4833 1.392 . S
C4834 C4835 1.385 . S
C4834 C4836 1.478 . S
C4835 H4829 0.930 . S
C4835 C4831 1.400 . S
C4835 C4834 1.385 . S
C4836 C4834 1.478 . S
C4836 C4838 1.381 . S
C4836 C4842 1.383 . S
C4837 C4833 1.495 . S
C4837 H4843 0.959 . S
C4837 H4844 0.961 . S
C4837 H4845 0.960 . S
C4838 C4836 1.381 . S
C4838 C4839 1.394 . S
C4838 H4846 0.930 . S
C4839 C4838 1.394 . S
C4839 C4840 1.383 . S
C4839 H4847 0.929 . S
C4840 C4839 1.383 . S
C4840 C4841 1.377 . S
C4841 H4825 0.930 . S
C4841 C4840 1.377 . S
C4841 C4842 1.379 . S
C4842 H4826 0.931 . S
C4842 C4836 1.383 . S
C4842 C4841 1.379 . S
H4843 C4837 0.959 . S
H4844 C4837 0.961 . S
H4845 C4837 0.960 . S
H4846 C4838 0.930 . S
H4847 C4839 0.929 . S
H4848 C4856 0.929 . S
H4849 C4858 0.930 . S
H4850 C4860 0.930 . S
H4851 C4863 0.929 . S
H4852 C4866 0.930 . S
H4853 C4868 0.960 . S
H4854 C4868 0.960 . S
H4855 C4868 0.960 . S
C4856 H4848 0.929 . S
C4856 C4857 1.377 . S
C4856 C4858 1.384 . S
C4857 C4856 1.377 . S
C4857 C4863 1.390 . S
C4858 H4849 0.930 . S
C4858 C4856 1.384 . S
C4858 C4859 1.372 . S
C4859 C4858 1.372 . S
C4859 C4860 1.400 . S
C4859 C4864 1.490 . S
C4860 H4850 0.930 . S
C4860 C4859 1.400 . S
C4860 C4863 1.386 . S
H4861 C4877 0.930 . S
H4862 C4878 0.931 . S
C4863 H4851 0.929 . S
C4863 C4857 1.390 . S
C4863 C4860 1.386 . S
C4864 C4859 1.490 . S
C4864 C4866 1.395 . S
C4864 C4867 1.403 . S
H4865 C4871 0.923 1_565 S
C4866 H4852 0.930 . S
C4866 C4864 1.395 . S
C4866 C4869 1.403 . S
C4867 C4864 1.403 . S
C4867 C4868 1.524 . S
C4867 C4871 1.413 . S
C4868 H4853 0.960 . S
C4868 H4854 0.960 . S
C4868 H4855 0.960 . S
C4868 C4867 1.524 . S
C4869 C4866 1.403 . S
C4869 C4870 1.392 1_545 S
C4869 C4873 1.495 1_545 S
C4870 C4869 1.392 1_565 S
C4870 C4871 1.379 1_565 S
C4870 C4872 1.478 . S
C4871 H4865 0.923 1_545 S
C4871 C4867 1.413 . S
C4871 C4870 1.379 1_545 S
C4872 C4870 1.478 . S
C4872 C4874 1.381 . S
C4872 C4878 1.383 . S
C4873 C4869 1.495 1_565 S
C4873 H4879 0.959 1_565 S
C4873 H4880 0.961 . S
C4873 H4881 0.960 . S
C4874 C4872 1.381 . S
C4874 C4875 1.394 . S
C4874 H4882 0.930 . S
C4875 C4874 1.394 . S
C4875 C4876 1.383 . S
C4875 H4883 0.929 . S
C4876 C4875 1.383 . S
C4876 C4877 1.377 . S
C4877 H4861 0.930 . S
C4877 C4876 1.377 . S
C4877 C4878 1.379 . S
C4878 H4862 0.931 . S
C4878 C4872 1.383 . S
C4878 C4877 1.379 . S
H4879 C4873 0.959 1_545 S
H4880 C4873 0.961 . S
H4881 C4873 0.960 . S
H4882 C4874 0.930 . S
H4883 C4875 0.929 . S
H4884 C4892 0.929 . S
H4885 C4894 0.930 . S
H4886 C4896 0.930 . S
H4887 C4899 0.929 . S
H4888 C4902 0.930 . S
H4889 C4904 0.960 . S
H4890 C4904 0.960 . S
H4891 C4904 0.960 . S
C4892 H4884 0.929 . S
C4892 C4893 1.377 . S
C4892 C4894 1.384 . S
C4893 C4892 1.377 . S
C4893 C4899 1.390 . S
C4894 H4885 0.930 . S
C4894 C4892 1.384 . S
C4894 C4895 1.372 . S
C4895 C4894 1.372 . S
C4895 C4896 1.400 . S
C4895 C4900 1.490 . S
C4896 H4886 0.930 . S
C4896 C4895 1.400 . S
C4896 C4899 1.386 . S
H4897 C4913 0.930 . S
H4898 C4914 0.931 . S
C4899 H4887 0.929 . S
C4899 C4893 1.390 . S
C4899 C4896 1.386 . S
C4900 C4895 1.490 . S
C4900 C4902 1.395 . S
C4900 C4903 1.403 . S
H4901 C4907 0.930 . S
C4902 H4888 0.930 . S
C4902 C4900 1.395 . S
C4902 C4905 1.403 . S
C4903 C4900 1.403 . S
C4903 C4904 1.524 . S
C4903 C4907 1.400 . S
C4904 H4889 0.960 . S
C4904 H4890 0.960 . S
C4904 H4891 0.960 . S
C4904 C4903 1.524 . S
C4905 C4902 1.403 . S
C4905 C4906 1.392 . S
C4905 C4909 1.495 . S
C4906 C4905 1.392 . S
C4906 C4907 1.385 . S
C4906 C4908 1.478 . S
C4907 H4901 0.930 . S
C4907 C4903 1.400 . S
C4907 C4906 1.385 . S
C4908 C4906 1.478 . S
C4908 C4910 1.381 . S
C4908 C4914 1.383 . S
C4909 C4905 1.495 . S
C4909 H4915 0.959 . S
C4909 H4916 0.961 . S
C4909 H4917 0.960 . S
C4910 C4908 1.381 . S
C4910 C4911 1.394 . S
C4910 H4918 0.930 . S
C4911 C4910 1.394 . S
C4911 C4912 1.383 . S
C4911 H4919 0.929 . S
C4912 C4911 1.383 . S
C4912 C4913 1.377 . S
C4913 H4897 0.930 . S
C4913 C4912 1.377 . S
C4913 C4914 1.379 . S
C4914 H4898 0.931 . S
C4914 C4908 1.383 . S
C4914 C4913 1.379 . S
H4915 C4909 0.959 . S
H4916 C4909 0.961 . S
H4917 C4909 0.960 . S
H4918 C4910 0.930 . S
H4919 C4911 0.929 . S
H4920 C4928 0.929 . S
H4921 C4930 0.930 . S
H4922 C4932 0.930 . S
H4923 C4935 0.929 . S
H4924 C4938 0.896 1_545 S
H4925 C4940 0.960 1_565 S
H4926 C4940 0.960 . S
H4927 C4940 0.960 . S
C4928 H4920 0.929 . S
C4928 C4929 1.377 . S
C4928 C4930 1.384 . S
C4929 C4928 1.377 . S
C4929 C4935 1.390 . S
C4930 H4921 0.930 . S
C4930 C4928 1.384 . S
C4930 C4931 1.372 . S
C4931 C4930 1.372 . S
C4931 C4932 1.400 . S
C4931 C4936 1.490 . S
C4932 H4922 0.930 . S
C4932 C4931 1.400 . S
C4932 C4935 1.386 . S
H4933 C4949 0.930 . S
H4934 C4950 0.931 . S
C4935 H4923 0.929 . S
C4935 C4929 1.390 . S
C4935 C4932 1.386 . S
C4936 C4931 1.490 . S
C4936 C4938 1.369 1_545 S
C4936 C4939 1.403 1_545 S
H4937 C4943 0.930 . S
C4938 H4924 0.896 1_565 S
C4938 C4936 1.369 1_565 S
C4938 C4941 1.464 . S
C4939 C4936 1.403 1_565 S
C4939 C4940 1.524 1_565 S
C4939 C4943 1.400 . S
C4940 H4925 0.960 1_545 S
C4940 H4926 0.960 . S
C4940 H4927 0.960 . S
C4940 C4939 1.524 1_545 S
C4941 C4938 1.464 . S
C4941 C4942 1.392 . S
C4941 C4945 1.495 . S
C4942 C4941 1.392 . S
C4942 C4943 1.385 . S
C4942 C4944 1.478 . S
C4943 H4937 0.930 . S
C4943 C4939 1.400 . S
C4943 C4942 1.385 . S
C4944 C4942 1.478 . S
C4944 C4946 1.381 . S
C4944 C4950 1.383 . S
C4945 C4941 1.495 . S
C4945 H4951 0.959 . S
C4945 H4952 0.961 . S
C4945 H4953 0.960 . S
C4946 C4944 1.381 . S
C4946 C4947 1.394 . S
C4946 H4954 0.930 . S
C4947 C4946 1.394 . S
C4947 C4948 1.383 . S
C4947 H4955 0.929 . S
C4948 C4947 1.383 . S
C4948 C4949 1.377 . S
C4949 H4933 0.930 . S
C4949 C4948 1.377 . S
C4949 C4950 1.379 . S
C4950 H4934 0.931 . S
C4950 C4944 1.383 . S
C4950 C4949 1.379 . S
H4951 C4945 0.959 . S
H4952 C4945 0.961 . S
H4953 C4945 0.960 . S
H4954 C4946 0.930 . S
H4955 C4947 0.929 . S
H4956 C4964 0.929 . S
H4957 C4966 0.930 . S
H4958 C4968 0.930 . S
H4959 C4971 0.929 . S
H4960 C4974 0.930 . S
H4961 C4976 0.960 . S
H4962 C4976 0.960 . S
H4963 C4976 0.960 . S
C4964 H4956 0.929 . S
C4964 C4965 1.377 . S
C4964 C4966 1.384 . S
C4965 C4964 1.377 . S
C4965 C4971 1.390 . S
C4966 H4957 0.930 . S
C4966 C4964 1.384 . S
C4966 C4967 1.372 . S
C4967 C4966 1.372 . S
C4967 C4968 1.400 . S
C4967 C4972 1.490 . S
C4968 H4958 0.930 . S
C4968 C4967 1.400 . S
C4968 C4971 1.386 . S
H4969 C4985 0.930 . S
H4970 C4986 0.931 . S
C4971 H4959 0.929 . S
C4971 C4965 1.390 . S
C4971 C4968 1.386 . S
C4972 C4967 1.490 . S
C4972 C4974 1.395 . S
C4972 C4975 1.403 . S
H4973 C4979 0.930 . S
C4974 H4960 0.930 . S
C4974 C4972 1.395 . S
C4974 C4977 1.403 . S
C4975 C4972 1.403 . S
C4975 C4976 1.524 . S
C4975 C4979 1.400 . S
C4976 H4961 0.960 . S
C4976 H4962 0.960 . S
C4976 H4963 0.960 . S
C4976 C4975 1.524 . S
C4977 C4974 1.403 . S
C4977 C4978 1.392 . S
C4977 C4981 1.495 . S
C4978 C4977 1.392 . S
C4978 C4979 1.385 . S
C4978 C4980 1.478 . S
C4979 H4973 0.930 . S
C4979 C4975 1.400 . S
C4979 C4978 1.385 . S
C4980 C4978 1.478 . S
C4980 C4982 1.381 . S
C4980 C4986 1.383 . S
C4981 C4977 1.495 . S
C4981 H4987 0.959 . S
C4981 H4988 0.961 . S
C4981 H4989 0.960 . S
C4982 C4980 1.381 . S
C4982 C4983 1.394 . S
C4982 H4990 0.930 . S
C4983 C4982 1.394 . S
C4983 C4984 1.383 . S
C4983 H4991 0.929 . S
C4984 C4983 1.383 . S
C4984 C4985 1.377 . S
C4985 H4969 0.930 . S
C4985 C4984 1.377 . S
C4985 C4986 1.379 . S
C4986 H4970 0.931 . S
C4986 C4980 1.383 . S
C4986 C4985 1.379 . S
H4987 C4981 0.959 . S
H4988 C4981 0.961 . S
H4989 C4981 0.960 . S
H4990 C4982 0.930 . S
H4991 C4983 0.929 . S
H4992 C5000 0.929 . S
H4993 C5002 0.930 . S
H4994 C5004 0.930 . S
H4995 C5007 0.929 . S
H4996 C5010 0.930 . S
H4997 C5012 0.960 . S
H4998 C5012 0.960 . S
H4999 C5012 0.960 . S
C5000 H4992 0.929 . S
C5000 C5001 1.377 . S
C5000 C5002 1.384 . S
C5001 C5000 1.377 . S
C5001 C5007 1.390 . S
C5002 H4993 0.930 . S
C5002 C5000 1.384 . S
C5002 C5003 1.372 . S
C5003 C5002 1.372 . S
C5003 C5004 1.400 . S
C5003 C5008 1.490 . S
C5004 H4994 0.930 . S
C5004 C5003 1.400 . S
C5004 C5007 1.386 . S
H5005 C5021 0.930 . S
H5006 C5022 0.931 . S
C5007 H4995 0.929 . S
C5007 C5001 1.390 . S
C5007 C5004 1.386 . S
C5008 C5003 1.490 . S
C5008 C5010 1.395 . S
C5008 C5011 1.403 . S
H5009 C5015 0.930 . S
C5010 H4996 0.930 . S
C5010 C5008 1.395 . S
C5010 C5013 1.402 . S
C5011 C5008 1.403 . S
C5011 C5012 1.524 . S
C5011 C5015 1.400 1_545 S
C5012 H4997 0.960 . S
C5012 H4998 0.960 . S
C5012 H4999 0.960 . S
C5012 C5011 1.524 . S
C5013 C5010 1.402 . S
C5013 C5014 1.393 1_545 S
C5013 C5017 1.496 1_545 S
C5014 C5013 1.393 1_565 S
C5014 C5015 1.385 . S
C5014 C5016 1.478 . S
C5015 H5009 0.930 . S
C5015 C5011 1.400 1_565 S
C5015 C5014 1.385 . S
C5016 C5014 1.478 . S
C5016 C5018 1.381 . S
C5016 C5022 1.383 . S
C5017 C5013 1.496 1_565 S
C5017 H5023 0.925 1_565 S
C5017 H5024 0.961 . S
C5017 H5025 0.960 . S
C5018 C5016 1.381 . S
C5018 C5019 1.394 . S
C5018 H5026 0.930 . S
C5019 C5018 1.394 . S
C5019 C5020 1.383 . S
C5019 H5027 0.929 . S
C5020 C5019 1.383 . S
C5020 C5021 1.377 . S
C5021 H5005 0.930 . S
C5021 C5020 1.377 . S
C5021 C5022 1.379 . S
C5022 H5006 0.931 . S
C5022 C5016 1.383 . S
C5022 C5021 1.379 . S
H5023 C5017 0.925 1_545 S
H5024 C5017 0.961 . S
H5025 C5017 0.960 . S
H5026 C5018 0.930 . S
H5027 C5019 0.929 . S
H5028 C5036 0.929 . S
H5029 C5038 0.930 . S
H5030 C5040 0.930 . S
H5031 C5043 0.929 . S
H5032 C5046 0.930 . S
H5033 C5048 0.960 . S
H5034 C5048 0.960 . S
H5035 C5048 0.960 . S
C5036 H5028 0.929 . S
C5036 C5037 1.377 . S
C5036 C5038 1.384 . S
C5037 C5036 1.377 . S
C5037 C5043 1.390 . S
C5038 H5029 0.930 . S
C5038 C5036 1.384 . S
C5038 C5039 1.372 . S
C5039 C5038 1.372 . S
C5039 C5040 1.400 . S
C5039 C5044 1.490 . S
C5040 H5030 0.930 . S
C5040 C5039 1.400 . S
C5040 C5043 1.386 . S
H5041 C5057 0.930 . S
H5042 C5058 0.931 . S
C5043 H5031 0.929 . S
C5043 C5037 1.390 . S
C5043 C5040 1.386 . S
C5044 C5039 1.490 . S
C5044 C5046 1.395 . S
C5044 C5047 1.403 . S
H5045 C5051 0.930 . S
C5046 H5032 0.930 . S
C5046 C5044 1.395 . S
C5046 C5049 1.403 . S
C5047 C5044 1.403 . S
C5047 C5048 1.524 . S
C5047 C5051 1.400 . S
C5048 H5033 0.960 . S
C5048 H5034 0.960 . S
C5048 H5035 0.960 . S
C5048 C5047 1.524 . S
C5049 C5046 1.403 . S
C5049 C5050 1.392 . S
C5049 C5053 1.495 . S
C5050 C5049 1.392 . S
C5050 C5051 1.385 . S
C5050 C5052 1.478 . S
C5051 H5045 0.930 . S
C5051 C5047 1.400 . S
C5051 C5050 1.385 . S
C5052 C5050 1.478 . S
C5052 C5054 1.381 . S
C5052 C5058 1.383 . S
C5053 C5049 1.495 . S
C5053 H5059 0.959 . S
C5053 H5060 0.961 . S
C5053 H5061 0.960 . S
C5054 C5052 1.381 . S
C5054 C5055 1.394 . S
C5054 H5062 0.930 . S
C5055 C5054 1.394 . S
C5055 C5056 1.383 . S
C5055 H5063 0.929 . S
C5056 C5055 1.383 . S
C5056 C5057 1.377 . S
C5057 H5041 0.930 . S
C5057 C5056 1.377 . S
C5057 C5058 1.379 . S
C5058 H5042 0.931 . S
C5058 C5052 1.383 . S
C5058 C5057 1.379 . S
H5059 C5053 0.959 . S
H5060 C5053 0.961 . S
H5061 C5053 0.960 . S
H5062 C5054 0.930 . S
H5063 C5055 0.929 . S
H5064 C5072 0.929 . S
H5065 C5074 0.930 . S
H5066 C5076 0.930 . S
H5067 C5079 0.929 . S
H5068 C5082 0.930 . S
H5069 C5084 0.960 1_565 S
H5070 C5084 0.960 . S
H5071 C5084 0.960 . S
C5072 H5064 0.929 . S
C5072 C5073 1.377 . S
C5072 C5074 1.384 . S
C5073 C5072 1.377 . S
C5073 C5079 1.390 . S
C5074 H5065 0.930 . S
C5074 C5072 1.384 . S
C5074 C5075 1.372 . S
C5075 C5074 1.372 . S
C5075 C5076 1.400 . S
C5075 C5080 1.490 . S
C5076 H5066 0.930 . S
C5076 C5075 1.400 . S
C5076 C5079 1.386 . S
H5077 C5093 0.930 . S
H5078 C5094 0.931 . S
C5079 H5067 0.929 . S
C5079 C5073 1.390 . S
C5079 C5076 1.386 . S
C5080 C5075 1.490 . S
C5080 C5082 1.395 . S
C5080 C5083 1.379 1_545 S
H5081 C5087 0.930 . S
C5082 H5068 0.930 . S
C5082 C5080 1.395 . S
C5082 C5085 1.403 1_545 S
C5083 C5080 1.379 1_565 S
C5083 C5084 1.512 1_565 S
C5083 C5087 1.437 . S
C5084 H5069 0.960 1_545 S
C5084 H5070 0.960 . S
C5084 H5071 0.960 . S
C5084 C5083 1.512 1_545 S
C5085 C5082 1.403 1_565 S
C5085 C5086 1.392 . S
C5085 C5089 1.495 . S
C5086 C5085 1.392 . S
C5086 C5087 1.385 . S
C5086 C5088 1.478 . S
C5087 H5081 0.930 . S
C5087 C5083 1.437 . S
C5087 C5086 1.385 . S
C5088 C5086 1.478 . S
C5088 C5090 1.381 . S
C5088 C5094 1.383 . S
C5089 C5085 1.495 . S
C5089 H5095 0.959 . S
C5089 H5096 0.961 . S
C5089 H5097 0.960 . S
C5090 C5088 1.381 . S
C5090 C5091 1.394 . S
C5090 H5098 0.930 . S
C5091 C5090 1.394 . S
C5091 C5092 1.383 . S
C5091 H5099 0.929 . S
C5092 C5091 1.383 . S
C5092 C5093 1.377 . S
C5093 H5077 0.930 . S
C5093 C5092 1.377 . S
C5093 C5094 1.379 . S
C5094 H5078 0.931 . S
C5094 C5088 1.383 . S
C5094 C5093 1.379 . S
H5095 C5089 0.959 . S
H5096 C5089 0.961 . S
H5097 C5089 0.960 . S
H5098 C5090 0.930 . S
H5099 C5091 0.929 . S
H5100 C5108 0.929 . S
H5101 C5110 0.930 . S
H5102 C5112 0.930 . S
H5103 C5115 0.929 . S
H5104 C5118 0.930 . S
H5105 C5120 0.960 . S
H5106 C5120 0.960 . S
H5107 C5120 0.960 . S
C5108 H5100 0.929 . S
C5108 C5109 1.377 . S
C5108 C5110 1.384 . S
C5109 C5108 1.377 . S
C5109 C5115 1.390 . S
C5110 H5101 0.930 . S
C5110 C5108 1.384 . S
C5110 C5111 1.372 . S
C5111 C5110 1.372 . S
C5111 C5112 1.400 . S
C5111 C5116 1.490 . S
C5112 H5102 0.930 . S
C5112 C5111 1.400 . S
C5112 C5115 1.386 . S
H5113 C5129 0.930 . S
H5114 C5130 0.931 . S
C5115 H5103 0.929 . S
C5115 C5109 1.390 . S
C5115 C5112 1.386 . S
C5116 C5111 1.490 . S
C5116 C5118 1.395 . S
C5116 C5119 1.403 . S
H5117 C5123 0.930 . S
C5118 H5104 0.930 . S
C5118 C5116 1.395 . S
C5118 C5121 1.403 . S
C5119 C5116 1.403 . S
C5119 C5120 1.524 . S
C5119 C5123 1.400 . S
C5120 H5105 0.960 . S
C5120 H5106 0.960 . S
C5120 H5107 0.960 . S
C5120 C5119 1.524 . S
C5121 C5118 1.403 . S
C5121 C5122 1.392 . S
C5121 C5125 1.495 . S
C5122 C5121 1.392 . S
C5122 C5123 1.385 . S
C5122 C5124 1.478 . S
C5123 H5117 0.930 . S
C5123 C5119 1.400 . S
C5123 C5122 1.385 . S
C5124 C5122 1.478 . S
C5124 C5126 1.381 . S
C5124 C5130 1.383 . S
C5125 C5121 1.495 . S
C5125 H5131 0.959 . S
C5125 H5132 0.961 . S
C5125 H5133 0.960 . S
C5126 C5124 1.381 . S
C5126 C5127 1.394 . S
C5126 H5134 0.930 . S
C5127 C5126 1.394 . S
C5127 C5128 1.383 . S
C5127 H5135 0.929 . S
C5128 C5127 1.383 . S
C5128 C5129 1.377 . S
C5129 H5113 0.930 . S
C5129 C5128 1.377 . S
C5129 C5130 1.379 . S
C5130 H5114 0.931 . S
C5130 C5124 1.383 . S
C5130 C5129 1.379 . S
H5131 C5125 0.959 . S
H5132 C5125 0.961 . S
H5133 C5125 0.960 . S
H5134 C5126 0.930 . S
H5135 C5127 0.929 . S
H5136 C5144 0.929 . S
H5137 C5146 0.930 . S
H5138 C5148 0.930 . S
H5139 C5151 0.929 . S
H5140 C5154 0.930 . S
H5141 C5156 0.960 . S
H5142 C5156 0.960 . S
H5143 C5156 0.960 . S
C5144 H5136 0.929 . S
C5144 C5145 1.377 . S
C5144 C5146 1.384 . S
C5145 C5144 1.377 . S
C5145 C5151 1.390 . S
C5146 H5137 0.930 . S
C5146 C5144 1.384 . S
C5146 C5147 1.372 . S
C5147 C5146 1.372 . S
C5147 C5148 1.400 . S
C5147 C5152 1.490 . S
C5148 H5138 0.930 . S
C5148 C5147 1.400 . S
C5148 C5151 1.386 . S
H5149 C5165 0.930 . S
H5150 C5166 0.931 . S
C5151 H5139 0.929 . S
C5151 C5145 1.390 . S
C5151 C5148 1.386 . S
C5152 C5147 1.490 . S
C5152 C5154 1.395 . S
C5152 C5155 1.403 . S
H5153 C5159 0.930 . S
C5154 H5140 0.930 . S
C5154 C5152 1.395 . S
C5154 C5157 1.403 1_556 S
C5155 C5152 1.403 . S
C5155 C5156 1.524 . S
C5155 C5159 1.400 1_556 S
C5156 H5141 0.960 . S
C5156 H5142 0.960 . S
C5156 H5143 0.960 . S
C5156 C5155 1.524 . S
C5157 C5154 1.403 1_554 S
C5157 C5158 1.392 . S
C5157 C5161 1.495 . S
C5158 C5157 1.392 . S
C5158 C5159 1.385 . S
C5158 C5160 1.478 . S
C5159 H5153 0.930 . S
C5159 C5155 1.400 1_554 S
C5159 C5158 1.385 . S
C5160 C5158 1.478 . S
C5160 C5162 1.381 . S
C5160 C5166 1.383 . S
C5161 C5157 1.495 . S
C5161 H5167 0.959 . S
C5161 H5168 0.961 . S
C5161 H5169 0.960 . S
C5162 C5160 1.381 . S
C5162 C5163 1.394 . S
C5162 H5170 0.930 . S
C5163 C5162 1.394 . S
C5163 C5164 1.383 . S
C5163 H5171 0.929 . S
C5164 C5163 1.383 . S
C5164 C5165 1.377 . S
C5165 H5149 0.930 . S
C5165 C5164 1.377 . S
C5165 C5166 1.379 . S
C5166 H5150 0.931 . S
C5166 C5160 1.383 . S
C5166 C5165 1.379 . S
H5167 C5161 0.959 . S
H5168 C5161 0.961 . S
H5169 C5161 0.960 . S
H5170 C5162 0.930 . S
H5171 C5163 0.929 . S
H5172 C5180 0.929 . S
H5173 C5182 0.930 . S
H5174 C5184 0.930 . S
H5175 C5187 0.929 . S
H5176 C5190 0.930 . S
H5177 C5192 0.960 . S
H5178 C5192 0.960 . S
H5179 C5192 0.960 . S
C5180 H5172 0.929 . S
C5180 C5181 1.377 . S
C5180 C5182 1.384 . S
C5181 C5180 1.377 . S
C5181 C5187 1.390 . S
C5182 H5173 0.930 . S
C5182 C5180 1.384 . S
C5182 C5183 1.372 . S
C5183 C5182 1.372 . S
C5183 C5184 1.400 . S
C5183 C5188 1.490 . S
C5184 H5174 0.930 . S
C5184 C5183 1.400 . S
C5184 C5187 1.386 . S
H5185 C5201 0.930 . S
H5186 C5202 0.931 . S
C5187 H5175 0.929 . S
C5187 C5181 1.390 . S
C5187 C5184 1.386 . S
C5188 C5183 1.490 . S
C5188 C5190 1.395 . S
C5188 C5191 1.403 . S
H5189 C5195 0.930 . S
C5190 H5176 0.930 . S
C5190 C5188 1.395 . S
C5190 C5193 1.399 . S
C5191 C5188 1.403 . S
C5191 C5192 1.524 . S
C5191 C5195 1.400 1_556 S
C5192 H5177 0.960 . S
C5192 H5178 0.960 . S
C5192 H5179 0.960 . S
C5192 C5191 1.524 . S
C5193 C5190 1.399 . S
C5193 C5194 1.395 1_556 S
C5193 C5197 1.497 1_556 S
C5194 C5193 1.395 1_554 S
C5194 C5195 1.385 . S
C5194 C5196 1.478 . S
C5195 H5189 0.930 . S
C5195 C5191 1.400 1_554 S
C5195 C5194 1.385 . S
C5196 C5194 1.478 . S
C5196 C5198 1.381 . S
C5196 C5202 1.383 . S
C5197 C5193 1.497 1_554 S
C5197 H5203 0.959 1_554 S
C5197 H5204 0.961 . S
C5197 H5205 0.960 . S
C5198 C5196 1.381 . S
C5198 C5199 1.394 . S
C5198 H5206 0.930 . S
C5199 C5198 1.394 . S
C5199 C5200 1.383 . S
C5199 H5207 0.929 . S
C5200 C5199 1.383 . S
C5200 C5201 1.377 . S
C5201 H5185 0.930 . S
C5201 C5200 1.377 . S
C5201 C5202 1.379 . S
C5202 H5186 0.931 . S
C5202 C5196 1.383 . S
C5202 C5201 1.379 . S
H5203 C5197 0.959 1_556 S
H5204 C5197 0.961 . S
H5205 C5197 0.960 . S
H5206 C5198 0.930 . S
H5207 C5199 0.929 . S
H5208 C5216 0.929 . S
H5209 C5218 0.930 . S
H5210 C5220 0.930 . S
H5211 C5223 0.929 . S
H5212 C5226 0.930 . S
H5213 C5228 0.960 . S
H5214 C5228 0.960 . S
H5215 C5228 0.960 . S
C5216 H5208 0.929 . S
C5216 C5217 1.377 . S
C5216 C5218 1.384 . S
C5217 C5216 1.377 . S
C5217 C5223 1.390 . S
C5218 H5209 0.930 . S
C5218 C5216 1.384 . S
C5218 C5219 1.372 . S
C5219 C5218 1.372 . S
C5219 C5220 1.400 . S
C5219 C5224 1.490 . S
C5220 H5210 0.930 . S
C5220 C5219 1.400 . S
C5220 C5223 1.386 . S
H5221 C5237 0.930 . S
H5222 C5238 0.931 . S
C5223 H5211 0.929 . S
C5223 C5217 1.390 . S
C5223 C5220 1.386 . S
C5224 C5219 1.490 . S
C5224 C5226 1.395 . S
C5224 C5227 1.403 . S
H5225 C5231 0.930 . S
C5226 H5212 0.930 . S
C5226 C5224 1.395 . S
C5226 C5229 1.403 . S
C5227 C5224 1.403 . S
C5227 C5228 1.524 . S
C5227 C5231 1.400 . S
C5228 H5213 0.960 . S
C5228 H5214 0.960 . S
C5228 H5215 0.960 . S
C5228 C5227 1.524 . S
C5229 C5226 1.403 . S
C5229 C5230 1.392 . S
C5229 C5233 1.495 . S
C5230 C5229 1.392 . S
C5230 C5231 1.385 . S
C5230 C5232 1.478 . S
C5231 H5225 0.930 . S
C5231 C5227 1.400 . S
C5231 C5230 1.385 . S
C5232 C5230 1.478 . S
C5232 C5234 1.381 . S
C5232 C5238 1.383 . S
C5233 C5229 1.495 . S
C5233 H5239 0.959 . S
C5233 H5240 0.961 . S
C5233 H5241 0.960 . S
C5234 C5232 1.381 . S
C5234 C5235 1.394 . S
C5234 H5242 0.930 . S
C5235 C5234 1.394 . S
C5235 C5236 1.383 . S
C5235 H5243 0.929 . S
C5236 C5235 1.383 . S
C5236 C5237 1.377 . S
C5237 H5221 0.930 . S
C5237 C5236 1.377 . S
C5237 C5238 1.379 . S
C5238 H5222 0.931 . S
C5238 C5232 1.383 . S
C5238 C5237 1.379 . S
H5239 C5233 0.959 . S
H5240 C5233 0.961 . S
H5241 C5233 0.960 . S
H5242 C5234 0.930 . S
H5243 C5235 0.929 . S
H5244 C5252 0.929 . S
H5245 C5254 0.930 . S
H5246 C5256 0.930 . S
H5247 C5259 0.929 . S
H5248 C5262 0.930 . S
H5249 C5264 0.960 . S
H5250 C5264 0.960 1_556 S
H5251 C5264 0.960 1_556 S
C5252 H5244 0.929 . S
C5252 C5253 1.377 . S
C5252 C5254 1.384 . S
C5253 C5252 1.377 . S
C5253 C5259 1.390 . S
C5254 H5245 0.930 . S
C5254 C5252 1.384 . S
C5254 C5255 1.372 . S
C5255 C5254 1.372 . S
C5255 C5256 1.400 . S
C5255 C5260 1.490 1_556 S
C5256 H5246 0.930 . S
C5256 C5255 1.400 . S
C5256 C5259 1.386 . S
H5257 C5273 0.930 . S
H5258 C5274 0.931 . S
C5259 H5247 0.929 . S
C5259 C5253 1.390 . S
C5259 C5256 1.386 . S
C5260 C5255 1.490 1_554 S
C5260 C5262 1.395 . S
C5260 C5263 1.403 . S
H5261 C5267 0.930 . S
C5262 H5248 0.930 . S
C5262 C5260 1.395 . S
C5262 C5265 1.403 . S
C5263 C5260 1.403 . S
C5263 C5264 1.524 . S
C5263 C5267 1.400 . S
C5264 H5249 0.960 . S
C5264 H5250 0.960 1_554 S
C5264 H5251 0.960 1_554 S
C5264 C5263 1.524 . S
C5265 C5262 1.403 . S
C5265 C5266 1.392 . S
C5265 C5269 1.495 . S
C5266 C5265 1.392 . S
C5266 C5267 1.385 . S
C5266 C5268 1.478 . S
C5267 H5261 0.930 . S
C5267 C5263 1.400 . S
C5267 C5266 1.385 . S
C5268 C5266 1.478 . S
C5268 C5270 1.381 . S
C5268 C5274 1.383 . S
C5269 C5265 1.495 . S
C5269 H5275 0.959 . S
C5269 H5276 0.961 . S
C5269 H5277 0.960 . S
C5270 C5268 1.381 . S
C5270 C5271 1.394 . S
C5270 H5278 0.930 . S
C5271 C5270 1.394 . S
C5271 C5272 1.383 . S
C5271 H5279 0.929 . S
C5272 C5271 1.383 . S
C5272 C5273 1.377 . S
C5273 H5257 0.930 . S
C5273 C5272 1.377 . S
C5273 C5274 1.379 . S
C5274 H5258 0.931 . S
C5274 C5268 1.383 . S
C5274 C5273 1.379 . S
H5275 C5269 0.959 . S
H5276 C5269 0.961 . S
H5277 C5269 0.960 . S
H5278 C5270 0.930 . S
H5279 C5271 0.929 . S
H5280 C5288 0.929 . S
H5281 C5290 0.930 . S
H5282 C5292 0.930 . S
H5283 C5295 0.929 . S
H5284 C5298 0.930 . S
H5285 C5300 0.960 . S
H5286 C5300 0.960 . S
H5287 C5300 0.960 . S
C5288 H5280 0.929 . S
C5288 C5289 1.377 . S
C5288 C5290 1.384 . S
C5289 C5288 1.377 . S
C5289 C5295 1.390 . S
C5290 H5281 0.930 . S
C5290 C5288 1.384 . S
C5290 C5291 1.372 . S
C5291 C5290 1.372 . S
C5291 C5292 1.400 . S
C5291 C5296 1.490 . S
C5292 H5282 0.930 . S
C5292 C5291 1.400 . S
C5292 C5295 1.386 . S
H5293 C5309 0.930 . S
H5294 C5310 0.931 . S
C5295 H5283 0.929 . S
C5295 C5289 1.390 . S
C5295 C5292 1.386 . S
C5296 C5291 1.490 . S
C5296 C5298 1.395 . S
C5296 C5299 1.403 . S
H5297 C5303 0.930 . S
C5298 H5284 0.930 . S
C5298 C5296 1.395 . S
C5298 C5301 1.403 . S
C5299 C5296 1.403 . S
C5299 C5300 1.524 . S
C5299 C5303 1.400 . S
C5300 H5285 0.960 . S
C5300 H5286 0.960 . S
C5300 H5287 0.960 . S
C5300 C5299 1.524 . S
C5301 C5298 1.403 . S
C5301 C5302 1.392 . S
C5301 C5305 1.495 . S
C5302 C5301 1.392 . S
C5302 C5303 1.385 . S
C5302 C5304 1.478 . S
C5303 H5297 0.930 . S
C5303 C5299 1.400 . S
C5303 C5302 1.385 . S
C5304 C5302 1.478 . S
C5304 C5306 1.381 . S
C5304 C5310 1.383 . S
C5305 C5301 1.495 . S
C5305 H5311 0.959 . S
C5305 H5312 0.961 . S
C5305 H5313 0.960 . S
C5306 C5304 1.381 . S
C5306 C5307 1.394 . S
C5306 H5314 0.930 . S
C5307 C5306 1.394 . S
C5307 C5308 1.383 . S
C5307 H5315 0.929 . S
C5308 C5307 1.383 . S
C5308 C5309 1.377 . S
C5309 H5293 0.930 . S
C5309 C5308 1.377 . S
C5309 C5310 1.379 . S
C5310 H5294 0.931 . S
C5310 C5304 1.383 . S
C5310 C5309 1.379 . S
H5311 C5305 0.959 . S
H5312 C5305 0.961 . S
H5313 C5305 0.960 . S
H5314 C5306 0.930 . S
H5315 C5307 0.929 . S
H5316 C5324 0.929 . S
H5317 C5326 0.930 . S
H5318 C5328 0.930 . S
H5319 C5331 0.929 . S
H5320 C5334 0.930 . S
H5321 C5336 0.958 . S
H5322 C5336 0.960 . S
H5323 C5336 0.960 . S
C5324 H5316 0.929 . S
C5324 C5325 1.377 . S
C5324 C5326 1.384 . S
C5325 C5324 1.377 . S
C5325 C5331 1.390 . S
C5326 H5317 0.930 . S
C5326 C5324 1.384 . S
C5326 C5327 1.372 . S
C5327 C5326 1.372 . S
C5327 C5328 1.400 . S
C5327 C5332 1.490 . S
C5328 H5318 0.930 . S
C5328 C5327 1.400 . S
C5328 C5331 1.386 . S
H5329 C5345 0.930 . S
H5330 C5346 0.931 . S
C5331 H5319 0.929 . S
C5331 C5325 1.390 . S
C5331 C5328 1.386 . S
C5332 C5327 1.490 . S
C5332 C5334 1.395 . S
C5332 C5335 1.421 . S
H5333 C5339 0.930 . S
C5334 H5320 0.930 . S
C5334 C5332 1.395 . S
C5334 C5337 1.403 1_556 S
C5335 C5332 1.421 . S
C5335 C5336 1.538 . S
C5335 C5339 1.366 1_556 S
C5336 H5321 0.958 . S
C5336 H5322 0.960 . S
C5336 H5323 0.960 . S
C5336 C5335 1.538 . S
C5337 C5334 1.403 1_554 S
C5337 C5338 1.392 . S
C5337 C5341 1.495 . S
C5338 C5337 1.392 . S
C5338 C5339 1.385 . S
C5338 C5340 1.478 . S
C5339 H5333 0.930 . S
C5339 C5335 1.366 1_554 S
C5339 C5338 1.385 . S
C5340 C5338 1.478 . S
C5340 C5342 1.381 . S
C5340 C5346 1.383 . S
C5341 C5337 1.495 . S
C5341 H5347 0.959 . S
C5341 H5348 0.961 . S
C5341 H5349 0.960 . S
C5342 C5340 1.381 . S
C5342 C5343 1.394 . S
C5342 H5350 0.930 . S
C5343 C5342 1.394 . S
C5343 C5344 1.383 . S
C5343 H5351 0.929 . S
C5344 C5343 1.383 . S
C5344 C5345 1.377 . S
C5345 H5329 0.930 . S
C5345 C5344 1.377 . S
C5345 C5346 1.379 . S
C5346 H5330 0.931 . S
C5346 C5340 1.383 . S
C5346 C5345 1.379 . S
H5347 C5341 0.959 . S
H5348 C5341 0.961 . S
H5349 C5341 0.960 . S
H5350 C5342 0.930 . S
H5351 C5343 0.929 . S
H5352 C5360 0.929 . S
H5353 C5362 0.930 . S
H5354 C5364 0.930 . S
H5355 C5367 0.929 . S
H5356 C5370 0.930 . S
H5357 C5372 0.960 . S
H5358 C5372 0.960 . S
H5359 C5372 0.960 . S
C5360 H5352 0.929 . S
C5360 C5361 1.377 . S
C5360 C5362 1.384 . S
C5361 C5360 1.377 . S
C5361 C5367 1.390 . S
C5362 H5353 0.930 . S
C5362 C5360 1.384 . S
C5362 C5363 1.372 . S
C5363 C5362 1.372 . S
C5363 C5364 1.400 . S
C5363 C5368 1.490 . S
C5364 H5354 0.930 . S
C5364 C5363 1.400 . S
C5364 C5367 1.386 . S
H5365 C5381 0.930 . S
H5366 C5382 0.931 . S
C5367 H5355 0.929 . S
C5367 C5361 1.390 . S
C5367 C5364 1.386 . S
C5368 C5363 1.490 . S
C5368 C5370 1.395 . S
C5368 C5371 1.403 . S
H5369 C5375 0.930 . S
C5370 H5356 0.930 . S
C5370 C5368 1.395 . S
C5370 C5373 1.403 . S
C5371 C5368 1.403 . S
C5371 C5372 1.524 . S
C5371 C5375 1.400 . S
C5372 H5357 0.960 . S
C5372 H5358 0.960 . S
C5372 H5359 0.960 . S
C5372 C5371 1.524 . S
C5373 C5370 1.403 . S
C5373 C5374 1.392 . S
C5373 C5377 1.495 . S
C5374 C5373 1.392 . S
C5374 C5375 1.385 . S
C5374 C5376 1.478 . S
C5375 H5369 0.930 . S
C5375 C5371 1.400 . S
C5375 C5374 1.385 . S
C5376 C5374 1.478 . S
C5376 C5378 1.381 . S
C5376 C5382 1.383 . S
C5377 C5373 1.495 . S
C5377 H5383 0.959 . S
C5377 H5384 0.961 . S
C5377 H5385 0.960 . S
C5378 C5376 1.381 . S
C5378 C5379 1.394 . S
C5378 H5386 0.930 . S
C5379 C5378 1.394 . S
C5379 C5380 1.383 . S
C5379 H5387 0.929 . S
C5380 C5379 1.383 . S
C5380 C5381 1.377 . S
C5381 H5365 0.930 . S
C5381 C5380 1.377 . S
C5381 C5382 1.379 . S
C5382 H5366 0.931 . S
C5382 C5376 1.383 . S
C5382 C5381 1.379 . S
H5383 C5377 0.959 . S
H5384 C5377 0.961 . S
H5385 C5377 0.960 . S
H5386 C5378 0.930 . S
H5387 C5379 0.929 . S
H5388 C5396 0.929 . S
H5389 C5398 0.930 . S
H5390 C5400 0.930 . S
H5391 C5403 0.929 . S
H5392 C5406 0.930 . S
H5393 C5408 0.960 . S
H5394 C5408 0.960 . S
H5395 C5408 0.960 . S
C5396 H5388 0.929 . S
C5396 C5397 1.377 . S
C5396 C5398 1.384 . S
C5397 C5396 1.377 . S
C5397 C5403 1.390 . S
C5398 H5389 0.930 . S
C5398 C5396 1.384 . S
C5398 C5399 1.372 . S
C5399 C5398 1.372 . S
C5399 C5400 1.400 . S
C5399 C5404 1.490 . S
C5400 H5390 0.930 . S
C5400 C5399 1.400 . S
C5400 C5403 1.386 . S
H5401 C5417 0.930 . S
H5402 C5418 0.931 . S
C5403 H5391 0.929 . S
C5403 C5397 1.390 . S
C5403 C5400 1.386 . S
C5404 C5399 1.490 . S
C5404 C5406 1.395 . S
C5404 C5407 1.403 . S
H5405 C5411 0.930 . S
C5406 H5392 0.930 . S
C5406 C5404 1.395 . S
C5406 C5409 1.403 . S
C5407 C5404 1.403 . S
C5407 C5408 1.524 . S
C5407 C5411 1.400 . S
C5408 H5393 0.960 . S
C5408 H5394 0.960 . S
C5408 H5395 0.960 . S
C5408 C5407 1.524 . S
C5409 C5406 1.403 . S
C5409 C5410 1.392 . S
C5409 C5413 1.495 . S
C5410 C5409 1.392 . S
C5410 C5411 1.385 . S
C5410 C5412 1.478 . S
C5411 H5405 0.930 . S
C5411 C5407 1.400 . S
C5411 C5410 1.385 . S
C5412 C5410 1.478 . S
C5412 C5414 1.381 . S
C5412 C5418 1.383 . S
C5413 C5409 1.495 . S
C5413 H5419 0.959 . S
C5413 H5420 0.961 . S
C5413 H5421 0.960 . S
C5414 C5412 1.381 . S
C5414 C5415 1.394 . S
C5414 H5422 0.930 . S
C5415 C5414 1.394 . S
C5415 C5416 1.383 . S
C5415 H5423 0.929 . S
C5416 C5415 1.383 . S
C5416 C5417 1.377 . S
C5417 H5401 0.930 . S
C5417 C5416 1.377 . S
C5417 C5418 1.379 . S
C5418 H5402 0.931 . S
C5418 C5412 1.383 . S
C5418 C5417 1.379 . S
H5419 C5413 0.959 . S
H5420 C5413 0.961 . S
H5421 C5413 0.960 . S
H5422 C5414 0.930 . S
H5423 C5415 0.929 . S
H5424 C5432 0.929 . S
H5425 C5434 0.930 . S
H5426 C5436 0.930 . S
H5427 C5439 0.929 . S
H5428 C5442 0.930 . S
H5429 C5444 0.960 . S
H5430 C5444 0.960 . S
H5431 C5444 0.960 . S
C5432 H5424 0.929 . S
C5432 C5433 1.377 . S
C5432 C5434 1.384 . S
C5433 C5432 1.377 . S
C5433 C5439 1.390 . S
C5434 H5425 0.930 . S
C5434 C5432 1.384 . S
C5434 C5435 1.372 . S
C5435 C5434 1.372 . S
C5435 C5436 1.400 . S
C5435 C5440 1.490 . S
C5436 H5426 0.930 . S
C5436 C5435 1.400 . S
C5436 C5439 1.386 . S
H5437 C5453 0.930 . S
H5438 C5454 0.931 . S
C5439 H5427 0.929 . S
C5439 C5433 1.390 . S
C5439 C5436 1.386 . S
C5440 C5435 1.490 . S
C5440 C5442 1.395 . S
C5440 C5443 1.403 . S
H5441 C5447 0.930 . S
C5442 H5428 0.930 . S
C5442 C5440 1.395 . S
C5442 C5445 1.403 . S
C5443 C5440 1.403 . S
C5443 C5444 1.524 . S
C5443 C5447 1.400 . S
C5444 H5429 0.960 . S
C5444 H5430 0.960 . S
C5444 H5431 0.960 . S
C5444 C5443 1.524 . S
C5445 C5442 1.403 . S
C5445 C5446 1.392 . S
C5445 C5449 1.495 . S
C5446 C5445 1.392 . S
C5446 C5447 1.385 . S
C5446 C5448 1.478 . S
C5447 H5441 0.930 . S
C5447 C5443 1.400 . S
C5447 C5446 1.385 . S
C5448 C5446 1.478 . S
C5448 C5450 1.381 . S
C5448 C5454 1.383 . S
C5449 C5445 1.495 . S
C5449 H5455 0.959 . S
C5449 H5456 0.961 . S
C5449 H5457 0.960 . S
C5450 C5448 1.381 . S
C5450 C5451 1.394 . S
C5450 H5458 0.930 . S
C5451 C5450 1.394 . S
C5451 C5452 1.383 . S
C5451 H5459 0.929 . S
C5452 C5451 1.383 . S
C5452 C5453 1.377 . S
C5453 H5437 0.930 . S
C5453 C5452 1.377 . S
C5453 C5454 1.379 . S
C5454 H5438 0.931 . S
C5454 C5448 1.383 . S
C5454 C5453 1.379 . S
H5455 C5449 0.959 . S
H5456 C5449 0.961 . S
H5457 C5449 0.960 . S
H5458 C5450 0.930 . S
H5459 C5451 0.929 . S
H5460 C5468 0.929 . S
H5461 C5470 0.930 . S
H5462 C5472 0.930 . S
H5463 C5475 0.929 . S
H5464 C5478 0.930 . S
H5465 C5480 0.960 . S
H5466 C5480 0.960 . S
H5467 C5480 0.960 . S
C5468 H5460 0.929 . S
C5468 C5469 1.377 . S
C5468 C5470 1.384 . S
C5469 C5468 1.377 . S
C5469 C5475 1.390 . S
C5470 H5461 0.930 . S
C5470 C5468 1.384 . S
C5470 C5471 1.372 . S
C5471 C5470 1.372 . S
C5471 C5472 1.400 . S
C5471 C5476 1.490 . S
C5472 H5462 0.930 . S
C5472 C5471 1.400 . S
C5472 C5475 1.386 . S
H5473 C5489 0.930 . S
H5474 C5490 0.931 . S
C5475 H5463 0.929 . S
C5475 C5469 1.390 . S
C5475 C5472 1.386 . S
C5476 C5471 1.490 . S
C5476 C5478 1.395 . S
C5476 C5479 1.403 . S
H5477 C5483 0.930 . S
C5478 H5464 0.930 . S
C5478 C5476 1.395 . S
C5478 C5481 1.403 . S
C5479 C5476 1.403 . S
C5479 C5480 1.524 . S
C5479 C5483 1.400 . S
C5480 H5465 0.960 . S
C5480 H5466 0.960 . S
C5480 H5467 0.960 . S
C5480 C5479 1.524 . S
C5481 C5478 1.403 . S
C5481 C5482 1.392 . S
C5481 C5485 1.495 . S
C5482 C5481 1.392 . S
C5482 C5483 1.385 . S
C5482 C5484 1.478 . S
C5483 H5477 0.930 . S
C5483 C5479 1.400 . S
C5483 C5482 1.385 . S
C5484 C5482 1.478 . S
C5484 C5486 1.381 . S
C5484 C5490 1.383 . S
C5485 C5481 1.495 . S
C5485 H5491 0.959 . S
C5485 H5492 0.961 . S
C5485 H5493 0.960 . S
C5486 C5484 1.381 . S
C5486 C5487 1.394 . S
C5486 H5494 0.930 . S
C5487 C5486 1.394 . S
C5487 C5488 1.383 . S
C5487 H5495 0.929 . S
C5488 C5487 1.383 . S
C5488 C5489 1.377 . S
C5489 H5473 0.930 . S
C5489 C5488 1.377 . S
C5489 C5490 1.379 . S
C5490 H5474 0.931 . S
C5490 C5484 1.383 . S
C5490 C5489 1.379 . S
H5491 C5485 0.959 . S
H5492 C5485 0.961 . S
H5493 C5485 0.960 . S
H5494 C5486 0.930 . S
H5495 C5487 0.929 . S
H5496 C5504 0.929 . S
H5497 C5506 0.930 . S
H5498 C5508 0.930 . S
H5499 C5511 0.929 . S
H5500 C5514 0.930 . S
H5501 C5516 0.960 . S
H5502 C5516 0.960 . S
H5503 C5516 0.960 . S
C5504 H5496 0.929 . S
C5504 C5505 1.377 . S
C5504 C5506 1.384 . S
C5505 C5504 1.377 . S
C5505 C5511 1.390 . S
C5506 H5497 0.930 . S
C5506 C5504 1.384 . S
C5506 C5507 1.372 . S
C5507 C5506 1.372 . S
C5507 C5508 1.400 . S
C5507 C5512 1.490 . S
C5508 H5498 0.930 . S
C5508 C5507 1.400 . S
C5508 C5511 1.386 . S
H5509 C5525 0.930 . S
H5510 C5526 0.931 . S
C5511 H5499 0.929 . S
C5511 C5505 1.390 . S
C5511 C5508 1.386 . S
C5512 C5507 1.490 . S
C5512 C5514 1.395 . S
C5512 C5515 1.403 . S
H5513 C5519 0.930 . S
C5514 H5500 0.930 . S
C5514 C5512 1.395 . S
C5514 C5517 1.403 . S
C5515 C5512 1.403 . S
C5515 C5516 1.524 . S
C5515 C5519 1.400 . S
C5516 H5501 0.960 . S
C5516 H5502 0.960 . S
C5516 H5503 0.960 . S
C5516 C5515 1.524 . S
C5517 C5514 1.403 . S
C5517 C5518 1.392 . S
C5517 C5521 1.495 . S
C5518 C5517 1.392 . S
C5518 C5519 1.385 . S
C5518 C5520 1.478 . S
C5519 H5513 0.930 . S
C5519 C5515 1.400 . S
C5519 C5518 1.385 . S
C5520 C5518 1.478 . S
C5520 C5522 1.381 . S
C5520 C5526 1.383 . S
C5521 C5517 1.495 . S
C5521 H5527 0.959 . S
C5521 H5528 0.961 . S
C5521 H5529 0.960 . S
C5522 C5520 1.381 . S
C5522 C5523 1.394 . S
C5522 H5530 0.930 . S
C5523 C5522 1.394 . S
C5523 C5524 1.383 . S
C5523 H5531 0.929 . S
C5524 C5523 1.383 . S
C5524 C5525 1.377 . S
C5525 H5509 0.930 . S
C5525 C5524 1.377 . S
C5525 C5526 1.379 . S
C5526 H5510 0.931 . S
C5526 C5520 1.383 . S
C5526 C5525 1.379 . S
H5527 C5521 0.959 . S
H5528 C5521 0.961 . S
H5529 C5521 0.960 . S
H5530 C5522 0.930 . S
H5531 C5523 0.929 . S
H5532 C5540 0.929 . S
H5533 C5542 0.930 . S
H5534 C5544 0.930 . S
H5535 C5547 0.929 . S
H5536 C5550 0.930 . S
H5537 C5552 0.960 . S
H5538 C5552 0.960 . S
H5539 C5552 0.960 . S
C5540 H5532 0.929 . S
C5540 C5541 1.377 . S
C5540 C5542 1.384 . S
C5541 C5540 1.377 . S
C5541 C5547 1.390 . S
C5542 H5533 0.930 . S
C5542 C5540 1.384 . S
C5542 C5543 1.372 . S
C5543 C5542 1.372 . S
C5543 C5544 1.400 . S
C5543 C5548 1.490 . S
C5544 H5534 0.930 . S
C5544 C5543 1.400 . S
C5544 C5547 1.386 . S
H5545 C5561 0.930 . S
H5546 C5562 0.931 . S
C5547 H5535 0.929 . S
C5547 C5541 1.390 . S
C5547 C5544 1.386 . S
C5548 C5543 1.490 . S
C5548 C5550 1.395 . S
C5548 C5551 1.403 . S
H5549 C5555 0.930 . S
C5550 H5536 0.930 . S
C5550 C5548 1.395 . S
C5550 C5553 1.403 . S
C5551 C5548 1.403 . S
C5551 C5552 1.524 . S
C5551 C5555 1.400 . S
C5552 H5537 0.960 . S
C5552 H5538 0.960 . S
C5552 H5539 0.960 . S
C5552 C5551 1.524 . S
C5553 C5550 1.403 . S
C5553 C5554 1.392 . S
C5553 C5557 1.495 . S
C5554 C5553 1.392 . S
C5554 C5555 1.385 . S
C5554 C5556 1.478 . S
C5555 H5549 0.930 . S
C5555 C5551 1.400 . S
C5555 C5554 1.385 . S
C5556 C5554 1.478 . S
C5556 C5558 1.381 . S
C5556 C5562 1.383 . S
C5557 C5553 1.495 . S
C5557 H5563 0.959 . S
C5557 H5564 0.961 . S
C5557 H5565 0.960 . S
C5558 C5556 1.381 . S
C5558 C5559 1.394 . S
C5558 H5566 0.930 . S
C5559 C5558 1.394 . S
C5559 C5560 1.383 . S
C5559 H5567 0.929 . S
C5560 C5559 1.383 . S
C5560 C5561 1.377 . S
C5561 H5545 0.930 . S
C5561 C5560 1.377 . S
C5561 C5562 1.379 . S
C5562 H5546 0.931 . S
C5562 C5556 1.383 . S
C5562 C5561 1.379 . S
H5563 C5557 0.959 . S
H5564 C5557 0.961 . S
H5565 C5557 0.960 . S
H5566 C5558 0.930 . S
H5567 C5559 0.929 . S
H5568 C5576 0.929 . S
H5569 C5578 0.930 . S
H5570 C5580 0.930 . S
H5571 C5583 0.929 . S
H5572 C5586 0.930 . S
H5573 C5588 0.960 . S
H5574 C5588 0.960 . S
H5575 C5588 0.960 . S
C5576 H5568 0.929 . S
C5576 C5577 1.377 . S
C5576 C5578 1.384 . S
C5577 C5576 1.377 . S
C5577 C5583 1.390 . S
C5578 H5569 0.930 . S
C5578 C5576 1.384 . S
C5578 C5579 1.372 . S
C5579 C5578 1.372 . S
C5579 C5580 1.400 . S
C5579 C5584 1.490 . S
C5580 H5570 0.930 . S
C5580 C5579 1.400 . S
C5580 C5583 1.386 . S
H5581 C5597 0.930 . S
H5582 C5598 0.931 . S
C5583 H5571 0.929 . S
C5583 C5577 1.390 . S
C5583 C5580 1.386 . S
C5584 C5579 1.490 . S
C5584 C5586 1.395 . S
C5584 C5587 1.403 . S
H5585 C5591 0.930 . S
C5586 H5572 0.930 . S
C5586 C5584 1.395 . S
C5586 C5589 1.403 . S
C5587 C5584 1.403 . S
C5587 C5588 1.524 . S
C5587 C5591 1.400 . S
C5588 H5573 0.960 . S
C5588 H5574 0.960 . S
C5588 H5575 0.960 . S
C5588 C5587 1.524 . S
C5589 C5586 1.403 . S
C5589 C5590 1.392 . S
C5589 C5593 1.495 . S
C5590 C5589 1.392 . S
C5590 C5591 1.385 . S
C5590 C5592 1.478 . S
C5591 H5585 0.930 . S
C5591 C5587 1.400 . S
C5591 C5590 1.385 . S
C5592 C5590 1.478 . S
C5592 C5594 1.381 . S
C5592 C5598 1.383 . S
C5593 C5589 1.495 . S
C5593 H5599 0.959 . S
C5593 H5600 0.961 . S
C5593 H5601 0.960 . S
C5594 C5592 1.381 . S
C5594 C5595 1.394 . S
C5594 H5602 0.930 . S
C5595 C5594 1.394 . S
C5595 C5596 1.383 . S
C5595 H5603 0.929 . S
C5596 C5595 1.383 . S
C5596 C5597 1.377 . S
C5597 H5581 0.930 . S
C5597 C5596 1.377 . S
C5597 C5598 1.379 . S
C5598 H5582 0.931 . S
C5598 C5592 1.383 . S
C5598 C5597 1.379 . S
H5599 C5593 0.959 . S
H5600 C5593 0.961 . S
H5601 C5593 0.960 . S
H5602 C5594 0.930 . S
H5603 C5595 0.929 . S
H5604 C5612 0.929 . S
H5605 C5614 0.930 . S
H5606 C5616 0.930 . S
H5607 C5619 0.929 . S
H5608 C5622 0.930 . S
H5609 C5624 0.960 . S
H5610 C5624 0.960 . S
H5611 C5624 0.960 . S
C5612 H5604 0.929 . S
C5612 C5613 1.377 . S
C5612 C5614 1.384 . S
C5613 C5612 1.377 . S
C5613 C5619 1.390 . S
C5614 H5605 0.930 . S
C5614 C5612 1.384 . S
C5614 C5615 1.372 . S
C5615 C5614 1.372 . S
C5615 C5616 1.400 . S
C5615 C5620 1.490 . S
C5616 H5606 0.930 . S
C5616 C5615 1.400 . S
C5616 C5619 1.386 . S
H5617 C5633 0.930 . S
H5618 C5634 0.931 . S
C5619 H5607 0.929 . S
C5619 C5613 1.390 . S
C5619 C5616 1.386 . S
C5620 C5615 1.490 . S
C5620 C5622 1.395 . S
C5620 C5623 1.403 . S
H5621 C5627 0.930 . S
C5622 H5608 0.930 . S
C5622 C5620 1.395 . S
C5622 C5625 1.403 . S
C5623 C5620 1.403 . S
C5623 C5624 1.524 . S
C5623 C5627 1.400 . S
C5624 H5609 0.960 . S
C5624 H5610 0.960 . S
C5624 H5611 0.960 . S
C5624 C5623 1.524 . S
C5625 C5622 1.403 . S
C5625 C5626 1.392 . S
C5625 C5629 1.495 . S
C5626 C5625 1.392 . S
C5626 C5627 1.385 . S
C5626 C5628 1.478 . S
C5627 H5621 0.930 . S
C5627 C5623 1.400 . S
C5627 C5626 1.385 . S
C5628 C5626 1.478 . S
C5628 C5630 1.381 . S
C5628 C5634 1.383 . S
C5629 C5625 1.495 . S
C5629 H5635 0.959 . S
C5629 H5636 0.961 . S
C5629 H5637 0.960 . S
C5630 C5628 1.381 . S
C5630 C5631 1.394 . S
C5630 H5638 0.930 . S
C5631 C5630 1.394 . S
C5631 C5632 1.383 . S
C5631 H5639 0.929 . S
C5632 C5631 1.383 . S
C5632 C5633 1.377 . S
C5633 H5617 0.930 . S
C5633 C5632 1.377 . S
C5633 C5634 1.379 . S
C5634 H5618 0.931 . S
C5634 C5628 1.383 . S
C5634 C5633 1.379 . S
H5635 C5629 0.959 . S
H5636 C5629 0.961 . S
H5637 C5629 0.960 . S
H5638 C5630 0.930 . S
H5639 C5631 0.929 . S
H5640 C5648 0.929 . S
H5641 C5650 0.930 . S
H5642 C5652 0.930 . S
H5643 C5655 0.929 . S
H5644 C5658 0.930 . S
H5645 C5660 0.960 . S
H5646 C5660 0.960 . S
H5647 C5660 0.960 . S
C5648 H5640 0.929 . S
C5648 C5649 1.377 . S
C5648 C5650 1.384 . S
C5649 C5648 1.377 . S
C5649 C5655 1.390 . S
C5650 H5641 0.930 . S
C5650 C5648 1.384 . S
C5650 C5651 1.372 . S
C5651 C5650 1.372 . S
C5651 C5652 1.400 . S
C5651 C5656 1.490 . S
C5652 H5642 0.930 . S
C5652 C5651 1.400 . S
C5652 C5655 1.386 . S
H5653 C5669 0.930 . S
H5654 C5670 0.931 . S
C5655 H5643 0.929 . S
C5655 C5649 1.390 . S
C5655 C5652 1.386 . S
C5656 C5651 1.490 . S
C5656 C5658 1.395 . S
C5656 C5659 1.403 . S
H5657 C5663 0.930 . S
C5658 H5644 0.930 . S
C5658 C5656 1.395 . S
C5658 C5661 1.403 . S
C5659 C5656 1.403 . S
C5659 C5660 1.524 . S
C5659 C5663 1.400 . S
C5660 H5645 0.960 . S
C5660 H5646 0.960 . S
C5660 H5647 0.960 . S
C5660 C5659 1.524 . S
C5661 C5658 1.403 . S
C5661 C5662 1.392 . S
C5661 C5665 1.495 . S
C5662 C5661 1.392 . S
C5662 C5663 1.385 . S
C5662 C5664 1.478 . S
C5663 H5657 0.930 . S
C5663 C5659 1.400 . S
C5663 C5662 1.385 . S
C5664 C5662 1.478 . S
C5664 C5666 1.381 . S
C5664 C5670 1.383 . S
C5665 C5661 1.495 . S
C5665 H5671 0.959 . S
C5665 H5672 0.961 . S
C5665 H5673 0.960 . S
C5666 C5664 1.381 . S
C5666 C5667 1.394 . S
C5666 H5674 0.930 . S
C5667 C5666 1.394 . S
C5667 C5668 1.383 . S
C5667 H5675 0.929 . S
C5668 C5667 1.383 . S
C5668 C5669 1.377 . S
C5669 H5653 0.930 . S
C5669 C5668 1.377 . S
C5669 C5670 1.379 . S
C5670 H5654 0.931 . S
C5670 C5664 1.383 . S
C5670 C5669 1.379 . S
H5671 C5665 0.959 . S
H5672 C5665 0.961 . S
H5673 C5665 0.960 . S
H5674 C5666 0.930 . S
H5675 C5667 0.929 . S
H5676 C5684 0.929 . S
H5677 C5686 0.930 . S
H5678 C5688 0.930 . S
H5679 C5691 0.929 . S
H5680 C5694 0.930 . S
H5681 C5696 0.960 . S
H5682 C5696 0.960 . S
H5683 C5696 0.960 . S
C5684 H5676 0.929 . S
C5684 C5685 1.377 . S
C5684 C5686 1.384 . S
C5685 C5684 1.377 . S
C5685 C5691 1.390 . S
C5686 H5677 0.930 . S
C5686 C5684 1.384 . S
C5686 C5687 1.372 . S
C5687 C5686 1.372 . S
C5687 C5688 1.400 . S
C5687 C5692 1.490 . S
C5688 H5678 0.930 . S
C5688 C5687 1.400 . S
C5688 C5691 1.386 . S
H5689 C5705 0.930 . S
H5690 C5706 0.931 . S
C5691 H5679 0.929 . S
C5691 C5685 1.390 . S
C5691 C5688 1.386 . S
C5692 C5687 1.490 . S
C5692 C5694 1.395 . S
C5692 C5695 1.403 . S
H5693 C5699 0.930 . S
C5694 H5680 0.930 . S
C5694 C5692 1.395 . S
C5694 C5697 1.403 . S
C5695 C5692 1.403 . S
C5695 C5696 1.524 . S
C5695 C5699 1.400 . S
C5696 H5681 0.960 . S
C5696 H5682 0.960 . S
C5696 H5683 0.960 . S
C5696 C5695 1.524 . S
C5697 C5694 1.403 . S
C5697 C5698 1.392 . S
C5697 C5701 1.495 . S
C5698 C5697 1.392 . S
C5698 C5699 1.385 . S
C5698 C5700 1.478 . S
C5699 H5693 0.930 . S
C5699 C5695 1.400 . S
C5699 C5698 1.385 . S
C5700 C5698 1.478 . S
C5700 C5702 1.381 . S
C5700 C5706 1.383 . S
C5701 C5697 1.495 . S
C5701 H5707 0.959 . S
C5701 H5708 0.961 . S
C5701 H5709 0.960 . S
C5702 C5700 1.381 . S
C5702 C5703 1.394 . S
C5702 H5710 0.930 . S
C5703 C5702 1.394 . S
C5703 C5704 1.383 . S
C5703 H5711 0.929 . S
C5704 C5703 1.383 . S
C5704 C5705 1.377 . S
C5705 H5689 0.930 . S
C5705 C5704 1.377 . S
C5705 C5706 1.379 . S
C5706 H5690 0.931 . S
C5706 C5700 1.383 . S
C5706 C5705 1.379 . S
H5707 C5701 0.959 . S
H5708 C5701 0.961 . S
H5709 C5701 0.960 . S
H5710 C5702 0.930 . S
H5711 C5703 0.929 . S
H5712 C5720 0.929 . S
H5713 C5722 0.930 . S
H5714 C5724 0.930 . S
H5715 C5727 0.929 . S
H5716 C5730 0.930 . S
H5717 C5732 0.960 . S
H5718 C5732 0.960 . S
H5719 C5732 0.960 . S
C5720 H5712 0.929 . S
C5720 C5721 1.377 . S
C5720 C5722 1.384 . S
C5721 C5720 1.377 . S
C5721 C5727 1.390 . S
C5722 H5713 0.930 . S
C5722 C5720 1.384 . S
C5722 C5723 1.372 . S
C5723 C5722 1.372 . S
C5723 C5724 1.400 . S
C5723 C5728 1.490 . S
C5724 H5714 0.930 . S
C5724 C5723 1.400 . S
C5724 C5727 1.386 . S
H5725 C5741 0.930 . S
H5726 C5742 0.931 . S
C5727 H5715 0.929 . S
C5727 C5721 1.390 . S
C5727 C5724 1.386 . S
C5728 C5723 1.490 . S
C5728 C5730 1.395 . S
C5728 C5731 1.403 . S
H5729 C5735 0.930 . S
C5730 H5716 0.930 . S
C5730 C5728 1.395 . S
C5730 C5733 1.403 . S
C5731 C5728 1.403 . S
C5731 C5732 1.524 . S
C5731 C5735 1.400 . S
C5732 H5717 0.960 . S
C5732 H5718 0.960 . S
C5732 H5719 0.960 . S
C5732 C5731 1.524 . S
C5733 C5730 1.403 . S
C5733 C5734 1.392 . S
C5733 C5737 1.495 . S
C5734 C5733 1.392 . S
C5734 C5735 1.385 . S
C5734 C5736 1.478 . S
C5735 H5729 0.930 . S
C5735 C5731 1.400 . S
C5735 C5734 1.385 . S
C5736 C5734 1.478 . S
C5736 C5738 1.381 . S
C5736 C5742 1.383 . S
C5737 C5733 1.495 . S
C5737 H5743 0.959 . S
C5737 H5744 0.961 . S
C5737 H5745 0.960 . S
C5738 C5736 1.381 . S
C5738 C5739 1.394 . S
C5738 H5746 0.930 . S
C5739 C5738 1.394 . S
C5739 C5740 1.383 . S
C5739 H5747 0.929 . S
C5740 C5739 1.383 . S
C5740 C5741 1.377 . S
C5741 H5725 0.930 . S
C5741 C5740 1.377 . S
C5741 C5742 1.379 . S
C5742 H5726 0.931 . S
C5742 C5736 1.383 . S
C5742 C5741 1.379 . S
H5743 C5737 0.959 . S
H5744 C5737 0.961 . S
H5745 C5737 0.960 . S
H5746 C5738 0.930 . S
H5747 C5739 0.929 . S
H5748 C5756 0.929 . S
H5749 C5758 0.930 . S
H5750 C5760 0.930 . S
H5751 C5763 0.929 . S
H5752 C5766 0.930 . S
H5753 C5768 0.960 . S
H5754 C5768 0.960 . S
H5755 C5768 0.960 . S
C5756 H5748 0.929 . S
C5756 C5757 1.377 . S
C5756 C5758 1.384 . S
C5757 C5756 1.377 . S
C5757 C5763 1.390 . S
C5758 H5749 0.930 . S
C5758 C5756 1.384 . S
C5758 C5759 1.372 . S
C5759 C5758 1.372 . S
C5759 C5760 1.400 . S
C5759 C5764 1.490 . S
C5760 H5750 0.930 . S
C5760 C5759 1.400 . S
C5760 C5763 1.386 . S
H5761 C5777 0.930 . S
H5762 C5778 0.931 . S
C5763 H5751 0.929 . S
C5763 C5757 1.390 . S
C5763 C5760 1.386 . S
C5764 C5759 1.490 . S
C5764 C5766 1.395 . S
C5764 C5767 1.403 . S
H5765 C5771 0.930 . S
C5766 H5752 0.930 . S
C5766 C5764 1.395 . S
C5766 C5769 1.403 . S
C5767 C5764 1.403 . S
C5767 C5768 1.524 . S
C5767 C5771 1.400 . S
C5768 H5753 0.960 . S
C5768 H5754 0.960 . S
C5768 H5755 0.960 . S
C5768 C5767 1.524 . S
C5769 C5766 1.403 . S
C5769 C5770 1.392 . S
C5769 C5773 1.495 . S
C5770 C5769 1.392 . S
C5770 C5771 1.385 . S
C5770 C5772 1.478 . S
C5771 H5765 0.930 . S
C5771 C5767 1.400 . S
C5771 C5770 1.385 . S
C5772 C5770 1.478 . S
C5772 C5774 1.381 . S
C5772 C5778 1.383 . S
C5773 C5769 1.495 . S
C5773 H5779 0.959 . S
C5773 H5780 0.961 . S
C5773 H5781 0.960 . S
C5774 C5772 1.381 . S
C5774 C5775 1.394 . S
C5774 H5782 0.930 . S
C5775 C5774 1.394 . S
C5775 C5776 1.383 . S
C5775 H5783 0.929 . S
C5776 C5775 1.383 . S
C5776 C5777 1.377 . S
C5777 H5761 0.930 . S
C5777 C5776 1.377 . S
C5777 C5778 1.379 . S
C5778 H5762 0.931 . S
C5778 C5772 1.383 . S
C5778 C5777 1.379 . S
H5779 C5773 0.959 . S
H5780 C5773 0.961 . S
H5781 C5773 0.960 . S
H5782 C5774 0.930 . S
H5783 C5775 0.929 . S
H5784 C5792 0.929 . S
H5785 C5794 0.930 . S
H5786 C5796 0.930 . S
H5787 C5799 0.929 . S
H5788 C5802 0.930 . S
H5789 C5804 0.960 . S
H5790 C5804 0.960 . S
H5791 C5804 0.960 . S
C5792 H5784 0.929 . S
C5792 C5793 1.377 . S
C5792 C5794 1.384 . S
C5793 C5792 1.377 . S
C5793 C5799 1.390 . S
C5794 H5785 0.930 . S
C5794 C5792 1.384 . S
C5794 C5795 1.372 . S
C5795 C5794 1.372 . S
C5795 C5796 1.400 . S
C5795 C5800 1.490 . S
C5796 H5786 0.930 . S
C5796 C5795 1.400 . S
C5796 C5799 1.386 . S
H5797 C5813 0.930 . S
H5798 C5814 0.931 . S
C5799 H5787 0.929 . S
C5799 C5793 1.390 . S
C5799 C5796 1.386 . S
C5800 C5795 1.490 . S
C5800 C5802 1.395 . S
C5800 C5803 1.403 . S
H5801 C5807 0.930 . S
C5802 H5788 0.930 . S
C5802 C5800 1.395 . S
C5802 C5805 1.403 . S
C5803 C5800 1.403 . S
C5803 C5804 1.524 . S
C5803 C5807 1.400 . S
C5804 H5789 0.960 . S
C5804 H5790 0.960 . S
C5804 H5791 0.960 . S
C5804 C5803 1.524 . S
C5805 C5802 1.403 . S
C5805 C5806 1.392 . S
C5805 C5809 1.495 . S
C5806 C5805 1.392 . S
C5806 C5807 1.385 . S
C5806 C5808 1.478 . S
C5807 H5801 0.930 . S
C5807 C5803 1.400 . S
C5807 C5806 1.385 . S
C5808 C5806 1.478 . S
C5808 C5810 1.381 . S
C5808 C5814 1.383 . S
C5809 C5805 1.495 . S
C5809 H5815 0.959 . S
C5809 H5816 0.961 . S
C5809 H5817 0.960 . S
C5810 C5808 1.381 . S
C5810 C5811 1.394 . S
C5810 H5818 0.930 . S
C5811 C5810 1.394 . S
C5811 C5812 1.383 . S
C5811 H5819 0.929 . S
C5812 C5811 1.383 . S
C5812 C5813 1.377 . S
C5813 H5797 0.930 . S
C5813 C5812 1.377 . S
C5813 C5814 1.379 . S
C5814 H5798 0.931 . S
C5814 C5808 1.383 . S
C5814 C5813 1.379 . S
H5815 C5809 0.959 . S
H5816 C5809 0.961 . S
H5817 C5809 0.960 . S
H5818 C5810 0.930 . S
H5819 C5811 0.929 . S
H5820 C5828 0.929 . S
H5821 C5830 0.930 . S
H5822 C5832 0.930 . S
H5823 C5835 0.929 . S
H5824 C5838 0.930 . S
H5825 C5840 0.960 . S
H5826 C5840 0.960 . S
H5827 C5840 0.960 . S
C5828 H5820 0.929 . S
C5828 C5829 1.377 . S
C5828 C5830 1.384 . S
C5829 C5828 1.377 . S
C5829 C5835 1.390 . S
C5830 H5821 0.930 . S
C5830 C5828 1.384 . S
C5830 C5831 1.372 . S
C5831 C5830 1.372 . S
C5831 C5832 1.400 . S
C5831 C5836 1.490 . S
C5832 H5822 0.930 . S
C5832 C5831 1.400 . S
C5832 C5835 1.386 . S
H5833 C5849 0.930 . S
H5834 C5850 0.931 . S
C5835 H5823 0.929 . S
C5835 C5829 1.390 . S
C5835 C5832 1.386 . S
C5836 C5831 1.490 . S
C5836 C5838 1.395 . S
C5836 C5839 1.403 . S
H5837 C5843 0.930 . S
C5838 H5824 0.930 . S
C5838 C5836 1.395 . S
C5838 C5841 1.403 . S
C5839 C5836 1.403 . S
C5839 C5840 1.524 . S
C5839 C5843 1.400 . S
C5840 H5825 0.960 . S
C5840 H5826 0.960 . S
C5840 H5827 0.960 . S
C5840 C5839 1.524 . S
C5841 C5838 1.403 . S
C5841 C5842 1.392 . S
C5841 C5845 1.495 . S
C5842 C5841 1.392 . S
C5842 C5843 1.385 . S
C5842 C5844 1.478 . S
C5843 H5837 0.930 . S
C5843 C5839 1.400 . S
C5843 C5842 1.385 . S
C5844 C5842 1.478 . S
C5844 C5846 1.381 . S
C5844 C5850 1.383 . S
C5845 C5841 1.495 . S
C5845 H5851 0.959 . S
C5845 H5852 0.961 . S
C5845 H5853 0.960 . S
C5846 C5844 1.381 . S
C5846 C5847 1.394 . S
C5846 H5854 0.930 . S
C5847 C5846 1.394 . S
C5847 C5848 1.383 . S
C5847 H5855 0.929 . S
C5848 C5847 1.383 . S
C5848 C5849 1.377 . S
C5849 H5833 0.930 . S
C5849 C5848 1.377 . S
C5849 C5850 1.379 . S
C5850 H5834 0.931 . S
C5850 C5844 1.383 . S
C5850 C5849 1.379 . S
H5851 C5845 0.959 . S
H5852 C5845 0.961 . S
H5853 C5845 0.960 . S
H5854 C5846 0.930 . S
H5855 C5847 0.929 . S
H5856 C5864 0.929 . S
H5857 C5866 0.930 . S
H5858 C5868 0.930 . S
H5859 C5871 0.929 . S
H5860 C5874 0.930 . S
H5861 C5876 0.960 . S
H5862 C5876 0.960 . S
H5863 C5876 0.960 . S
C5864 H5856 0.929 . S
C5864 C5865 1.377 . S
C5864 C5866 1.384 . S
C5865 C5864 1.377 . S
C5865 C5871 1.390 . S
C5866 H5857 0.930 . S
C5866 C5864 1.384 . S
C5866 C5867 1.372 . S
C5867 C5866 1.372 . S
C5867 C5868 1.400 . S
C5867 C5872 1.490 . S
C5868 H5858 0.930 . S
C5868 C5867 1.400 . S
C5868 C5871 1.386 . S
H5869 C5885 0.930 . S
H5870 C5886 0.931 . S
C5871 H5859 0.929 . S
C5871 C5865 1.390 . S
C5871 C5868 1.386 . S
C5872 C5867 1.490 . S
C5872 C5874 1.395 . S
C5872 C5875 1.403 . S
H5873 C5879 0.930 . S
C5874 H5860 0.930 . S
C5874 C5872 1.395 . S
C5874 C5877 1.403 . S
C5875 C5872 1.403 . S
C5875 C5876 1.524 . S
C5875 C5879 1.400 . S
C5876 H5861 0.960 . S
C5876 H5862 0.960 . S
C5876 H5863 0.960 . S
C5876 C5875 1.524 . S
C5877 C5874 1.403 . S
C5877 C5878 1.392 . S
C5877 C5881 1.495 . S
C5878 C5877 1.392 . S
C5878 C5879 1.385 . S
C5878 C5880 1.478 . S
C5879 H5873 0.930 . S
C5879 C5875 1.400 . S
C5879 C5878 1.385 . S
C5880 C5878 1.478 . S
C5880 C5882 1.381 . S
C5880 C5886 1.383 . S
C5881 C5877 1.495 . S
C5881 H5887 0.959 . S
C5881 H5888 0.961 . S
C5881 H5889 0.960 . S
C5882 C5880 1.381 . S
C5882 C5883 1.394 . S
C5882 H5890 0.930 . S
C5883 C5882 1.394 . S
C5883 C5884 1.383 . S
C5883 H5891 0.929 . S
C5884 C5883 1.383 . S
C5884 C5885 1.377 . S
C5885 H5869 0.930 . S
C5885 C5884 1.377 . S
C5885 C5886 1.379 . S
C5886 H5870 0.931 . S
C5886 C5880 1.383 . S
C5886 C5885 1.379 . S
H5887 C5881 0.959 . S
H5888 C5881 0.961 . S
H5889 C5881 0.960 . S
H5890 C5882 0.930 . S
H5891 C5883 0.929 . S
H5892 C5900 0.929 . S
H5893 C5902 0.930 . S
H5894 C5904 0.930 . S
H5895 C5907 0.929 . S
H5896 C5910 0.930 . S
H5897 C5912 0.960 . S
H5898 C5912 0.960 . S
H5899 C5912 0.960 . S
C5900 H5892 0.929 . S
C5900 C5901 1.377 . S
C5900 C5902 1.384 . S
C5901 C5900 1.377 . S
C5901 C5907 1.390 . S
C5902 H5893 0.930 . S
C5902 C5900 1.384 . S
C5902 C5903 1.372 . S
C5903 C5902 1.372 . S
C5903 C5904 1.400 . S
C5903 C5908 1.490 . S
C5904 H5894 0.930 . S
C5904 C5903 1.400 . S
C5904 C5907 1.386 . S
H5905 C5921 0.930 . S
H5906 C5922 0.931 . S
C5907 H5895 0.929 . S
C5907 C5901 1.390 . S
C5907 C5904 1.386 . S
C5908 C5903 1.490 . S
C5908 C5910 1.395 . S
C5908 C5911 1.403 . S
H5909 C5915 0.930 . S
C5910 H5896 0.930 . S
C5910 C5908 1.395 . S
C5910 C5913 1.403 . S
C5911 C5908 1.403 . S
C5911 C5912 1.524 . S
C5911 C5915 1.400 . S
C5912 H5897 0.960 . S
C5912 H5898 0.960 . S
C5912 H5899 0.960 . S
C5912 C5911 1.524 . S
C5913 C5910 1.403 . S
C5913 C5914 1.392 . S
C5913 C5917 1.495 . S
C5914 C5913 1.392 . S
C5914 C5915 1.385 . S
C5914 C5916 1.478 . S
C5915 H5909 0.930 . S
C5915 C5911 1.400 . S
C5915 C5914 1.385 . S
C5916 C5914 1.478 . S
C5916 C5918 1.381 . S
C5916 C5922 1.383 . S
C5917 C5913 1.495 . S
C5917 H5923 0.959 . S
C5917 H5924 0.961 . S
C5917 H5925 0.960 . S
C5918 C5916 1.381 . S
C5918 C5919 1.394 . S
C5918 H5926 0.930 . S
C5919 C5918 1.394 . S
C5919 C5920 1.383 . S
C5919 H5927 0.929 . S
C5920 C5919 1.383 . S
C5920 C5921 1.377 . S
C5921 H5905 0.930 . S
C5921 C5920 1.377 . S
C5921 C5922 1.379 . S
C5922 H5906 0.931 . S
C5922 C5916 1.383 . S
C5922 C5921 1.379 . S
H5923 C5917 0.959 . S
H5924 C5917 0.961 . S
H5925 C5917 0.960 . S
H5926 C5918 0.930 . S
H5927 C5919 0.929 . S
H5928 C5936 0.929 . S
H5929 C5938 0.930 . S
H5930 C5940 0.930 . S
H5931 C5943 0.929 . S
H5932 C5946 0.930 . S
H5933 C5948 0.960 . S
H5934 C5948 0.960 . S
H5935 C5948 0.960 . S
C5936 H5928 0.929 . S
C5936 C5937 1.377 . S
C5936 C5938 1.384 . S
C5937 C5936 1.377 . S
C5937 C5943 1.390 . S
C5938 H5929 0.930 . S
C5938 C5936 1.384 . S
C5938 C5939 1.372 . S
C5939 C5938 1.372 . S
C5939 C5940 1.400 . S
C5939 C5944 1.490 . S
C5940 H5930 0.930 . S
C5940 C5939 1.400 . S
C5940 C5943 1.386 . S
H5941 C5957 0.930 . S
H5942 C5958 0.931 . S
C5943 H5931 0.929 . S
C5943 C5937 1.390 . S
C5943 C5940 1.386 . S
C5944 C5939 1.490 . S
C5944 C5946 1.395 . S
C5944 C5947 1.403 . S
H5945 C5951 0.930 . S
C5946 H5932 0.930 . S
C5946 C5944 1.395 . S
C5946 C5949 1.403 . S
C5947 C5944 1.403 . S
C5947 C5948 1.524 . S
C5947 C5951 1.400 . S
C5948 H5933 0.960 . S
C5948 H5934 0.960 . S
C5948 H5935 0.960 . S
C5948 C5947 1.524 . S
C5949 C5946 1.403 . S
C5949 C5950 1.392 . S
C5949 C5953 1.495 . S
C5950 C5949 1.392 . S
C5950 C5951 1.385 . S
C5950 C5952 1.478 . S
C5951 H5945 0.930 . S
C5951 C5947 1.400 . S
C5951 C5950 1.385 . S
C5952 C5950 1.478 . S
C5952 C5954 1.381 . S
C5952 C5958 1.383 . S
C5953 C5949 1.495 . S
C5953 H5959 0.959 . S
C5953 H5960 0.961 . S
C5953 H5961 0.960 . S
C5954 C5952 1.381 . S
C5954 C5955 1.394 . S
C5954 H5962 0.930 . S
C5955 C5954 1.394 . S
C5955 C5956 1.383 . S
C5955 H5963 0.929 . S
C5956 C5955 1.383 . S
C5956 C5957 1.377 . S
C5957 H5941 0.930 . S
C5957 C5956 1.377 . S
C5957 C5958 1.379 . S
C5958 H5942 0.931 . S
C5958 C5952 1.383 . S
C5958 C5957 1.379 . S
H5959 C5953 0.959 . S
H5960 C5953 0.961 . S
H5961 C5953 0.960 . S
H5962 C5954 0.930 . S
H5963 C5955 0.929 . S
H5964 C5972 0.929 . S
H5965 C5974 0.930 . S
H5966 C5976 0.930 . S
H5967 C5979 0.929 . S
H5968 C5982 0.930 . S
H5969 C5984 0.960 . S
H5970 C5984 0.960 . S
H5971 C5984 0.960 . S
C5972 H5964 0.929 . S
C5972 C5973 1.377 . S
C5972 C5974 1.384 . S
C5973 C5972 1.377 . S
C5973 C5979 1.390 . S
C5974 H5965 0.930 . S
C5974 C5972 1.384 . S
C5974 C5975 1.372 . S
C5975 C5974 1.372 . S
C5975 C5976 1.400 . S
C5975 C5980 1.490 . S
C5976 H5966 0.930 . S
C5976 C5975 1.400 . S
C5976 C5979 1.386 . S
H5977 C5993 0.930 . S
H5978 C5994 0.931 . S
C5979 H5967 0.929 . S
C5979 C5973 1.390 . S
C5979 C5976 1.386 . S
C5980 C5975 1.490 . S
C5980 C5982 1.395 . S
C5980 C5983 1.403 . S
H5981 C5987 0.930 . S
C5982 H5968 0.930 . S
C5982 C5980 1.395 . S
C5982 C5985 1.403 . S
C5983 C5980 1.403 . S
C5983 C5984 1.524 . S
C5983 C5987 1.400 . S
C5984 H5969 0.960 . S
C5984 H5970 0.960 . S
C5984 H5971 0.960 . S
C5984 C5983 1.524 . S
C5985 C5982 1.403 . S
C5985 C5986 1.392 . S
C5985 C5989 1.495 . S
C5986 C5985 1.392 . S
C5986 C5987 1.385 . S
C5986 C5988 1.478 . S
C5987 H5981 0.930 . S
C5987 C5983 1.400 . S
C5987 C5986 1.385 . S
C5988 C5986 1.478 . S
C5988 C5990 1.381 . S
C5988 C5994 1.383 . S
C5989 C5985 1.495 . S
C5989 H5995 0.959 . S
C5989 H5996 0.961 . S
C5989 H5997 0.960 . S
C5990 C5988 1.381 . S
C5990 C5991 1.394 . S
C5990 H5998 0.930 . S
C5991 C5990 1.394 . S
C5991 C5992 1.383 . S
C5991 H5999 0.929 . S
C5992 C5991 1.383 . S
C5992 C5993 1.377 . S
C5993 H5977 0.930 . S
C5993 C5992 1.377 . S
C5993 C5994 1.379 . S
C5994 H5978 0.931 . S
C5994 C5988 1.383 . S
C5994 C5993 1.379 . S
H5995 C5989 0.959 . S
H5996 C5989 0.961 . S
H5997 C5989 0.960 . S
H5998 C5990 0.930 . S
H5999 C5991 0.929 . S
H6000 C6008 0.929 . S
H6001 C6010 0.930 . S
H6002 C6012 0.930 . S
H6003 C6015 0.929 . S
H6004 C6018 0.930 . S
H6005 C6020 0.960 . S
H6006 C6020 0.960 . S
H6007 C6020 0.960 . S
C6008 H6000 0.929 . S
C6008 C6009 1.377 . S
C6008 C6010 1.384 . S
C6009 C6008 1.377 . S
C6009 C6015 1.390 . S
C6010 H6001 0.930 . S
C6010 C6008 1.384 . S
C6010 C6011 1.372 . S
C6011 C6010 1.372 . S
C6011 C6012 1.400 . S
C6011 C6016 1.490 . S
C6012 H6002 0.930 . S
C6012 C6011 1.400 . S
C6012 C6015 1.386 . S
H6013 C6029 0.930 . S
H6014 C6030 0.931 . S
C6015 H6003 0.929 . S
C6015 C6009 1.390 . S
C6015 C6012 1.386 . S
C6016 C6011 1.490 . S
C6016 C6018 1.395 . S
C6016 C6019 1.403 . S
H6017 C6023 0.930 . S
C6018 H6004 0.930 . S
C6018 C6016 1.395 . S
C6018 C6021 1.403 . S
C6019 C6016 1.403 . S
C6019 C6020 1.524 . S
C6019 C6023 1.400 . S
C6020 H6005 0.960 . S
C6020 H6006 0.960 . S
C6020 H6007 0.960 . S
C6020 C6019 1.524 . S
C6021 C6018 1.403 . S
C6021 C6022 1.392 . S
C6021 C6025 1.495 . S
C6022 C6021 1.392 . S
C6022 C6023 1.385 . S
C6022 C6024 1.478 . S
C6023 H6017 0.930 . S
C6023 C6019 1.400 . S
C6023 C6022 1.385 . S
C6024 C6022 1.478 . S
C6024 C6026 1.381 . S
C6024 C6030 1.383 . S
C6025 C6021 1.495 . S
C6025 H6031 0.959 . S
C6025 H6032 0.961 . S
C6025 H6033 0.960 . S
C6026 C6024 1.381 . S
C6026 C6027 1.394 . S
C6026 H6034 0.930 . S
C6027 C6026 1.394 . S
C6027 C6028 1.383 . S
C6027 H6035 0.929 . S
C6028 C6027 1.383 . S
C6028 C6029 1.377 . S
C6029 H6013 0.930 . S
C6029 C6028 1.377 . S
C6029 C6030 1.379 . S
C6030 H6014 0.931 . S
C6030 C6024 1.383 . S
C6030 C6029 1.379 . S
H6031 C6025 0.959 . S
H6032 C6025 0.961 . S
H6033 C6025 0.960 . S
H6034 C6026 0.930 . S
H6035 C6027 0.929 . S
H6036 C6044 0.929 . S
H6037 C6046 0.930 . S
H6038 C6048 0.930 . S
H6039 C6051 0.929 . S
H6040 C6054 0.930 . S
H6041 C6056 0.960 . S
H6042 C6056 0.960 . S
H6043 C6056 0.960 . S
C6044 H6036 0.929 . S
C6044 C6045 1.377 . S
C6044 C6046 1.384 . S
C6045 C6044 1.377 . S
C6045 C6051 1.390 . S
C6046 H6037 0.930 . S
C6046 C6044 1.384 . S
C6046 C6047 1.372 . S
C6047 C6046 1.372 . S
C6047 C6048 1.400 . S
C6047 C6052 1.490 . S
C6048 H6038 0.930 . S
C6048 C6047 1.400 . S
C6048 C6051 1.386 . S
H6049 C6065 0.930 . S
H6050 C6066 0.931 . S
C6051 H6039 0.929 . S
C6051 C6045 1.390 . S
C6051 C6048 1.386 . S
C6052 C6047 1.490 . S
C6052 C6054 1.395 . S
C6052 C6055 1.403 . S
H6053 C6059 0.930 . S
C6054 H6040 0.930 . S
C6054 C6052 1.395 . S
C6054 C6057 1.403 . S
C6055 C6052 1.403 . S
C6055 C6056 1.524 . S
C6055 C6059 1.400 . S
C6056 H6041 0.960 . S
C6056 H6042 0.960 . S
C6056 H6043 0.960 . S
C6056 C6055 1.524 . S
C6057 C6054 1.403 . S
C6057 C6058 1.392 . S
C6057 C6061 1.495 . S
C6058 C6057 1.392 . S
C6058 C6059 1.385 . S
C6058 C6060 1.478 . S
C6059 H6053 0.930 . S
C6059 C6055 1.400 . S
C6059 C6058 1.385 . S
C6060 C6058 1.478 . S
C6060 C6062 1.381 . S
C6060 C6066 1.383 . S
C6061 C6057 1.495 . S
C6061 H6067 0.959 . S
C6061 H6068 0.961 . S
C6061 H6069 0.960 . S
C6062 C6060 1.381 . S
C6062 C6063 1.394 . S
C6062 H6070 0.930 . S
C6063 C6062 1.394 . S
C6063 C6064 1.383 . S
C6063 H6071 0.929 . S
C6064 C6063 1.383 . S
C6064 C6065 1.377 . S
C6065 H6049 0.930 . S
C6065 C6064 1.377 . S
C6065 C6066 1.379 . S
C6066 H6050 0.931 . S
C6066 C6060 1.383 . S
C6066 C6065 1.379 . S
H6067 C6061 0.959 . S
H6068 C6061 0.961 . S
H6069 C6061 0.960 . S
H6070 C6062 0.930 . S
H6071 C6063 0.929 . S
H6072 C6080 0.929 . S
H6073 C6082 0.930 . S
H6074 C6084 0.930 . S
H6075 C6087 0.929 . S
H6076 C6090 0.930 . S
H6077 C6092 0.960 . S
H6078 C6092 0.960 . S
H6079 C6092 0.960 . S
C6080 H6072 0.929 . S
C6080 C6081 1.377 . S
C6080 C6082 1.384 . S
C6081 C6080 1.377 . S
C6081 C6087 1.390 . S
C6082 H6073 0.930 . S
C6082 C6080 1.384 . S
C6082 C6083 1.372 . S
C6083 C6082 1.372 . S
C6083 C6084 1.400 . S
C6083 C6088 1.490 . S
C6084 H6074 0.930 . S
C6084 C6083 1.400 . S
C6084 C6087 1.386 . S
H6085 C6101 0.930 . S
H6086 C6102 0.931 . S
C6087 H6075 0.929 . S
C6087 C6081 1.390 . S
C6087 C6084 1.386 . S
C6088 C6083 1.490 . S
C6088 C6090 1.395 . S
C6088 C6091 1.403 . S
H6089 C6095 0.930 . S
C6090 H6076 0.930 . S
C6090 C6088 1.395 . S
C6090 C6093 1.403 . S
C6091 C6088 1.403 . S
C6091 C6092 1.524 . S
C6091 C6095 1.400 . S
C6092 H6077 0.960 . S
C6092 H6078 0.960 . S
C6092 H6079 0.960 . S
C6092 C6091 1.524 . S
C6093 C6090 1.403 . S
C6093 C6094 1.392 . S
C6093 C6097 1.495 . S
C6094 C6093 1.392 . S
C6094 C6095 1.385 . S
C6094 C6096 1.478 . S
C6095 H6089 0.930 . S
C6095 C6091 1.400 . S
C6095 C6094 1.385 . S
C6096 C6094 1.478 . S
C6096 C6098 1.381 . S
C6096 C6102 1.383 . S
C6097 C6093 1.495 . S
C6097 H6103 0.959 . S
C6097 H6104 0.961 . S
C6097 H6105 0.960 . S
C6098 C6096 1.381 . S
C6098 C6099 1.394 . S
C6098 H6106 0.930 . S
C6099 C6098 1.394 . S
C6099 C6100 1.383 . S
C6099 H6107 0.929 . S
C6100 C6099 1.383 . S
C6100 C6101 1.377 . S
C6101 H6085 0.930 . S
C6101 C6100 1.377 . S
C6101 C6102 1.379 . S
C6102 H6086 0.931 . S
C6102 C6096 1.383 . S
C6102 C6101 1.379 . S
H6103 C6097 0.959 . S
H6104 C6097 0.961 . S
H6105 C6097 0.960 . S
H6106 C6098 0.930 . S
H6107 C6099 0.929 . S
H6108 C6116 0.929 . S
H6109 C6118 0.930 . S
H6110 C6120 0.930 . S
H6111 C6123 0.929 . S
H6112 C6126 0.930 . S
H6113 C6128 0.960 . S
H6114 C6128 0.960 . S
H6115 C6128 0.960 . S
C6116 H6108 0.929 . S
C6116 C6117 1.377 . S
C6116 C6118 1.384 . S
C6117 C6116 1.377 . S
C6117 C6123 1.390 . S
C6118 H6109 0.930 . S
C6118 C6116 1.384 . S
C6118 C6119 1.372 . S
C6119 C6118 1.372 . S
C6119 C6120 1.400 . S
C6119 C6124 1.490 . S
C6120 H6110 0.930 . S
C6120 C6119 1.400 . S
C6120 C6123 1.386 . S
H6121 C6137 0.930 . S
H6122 C6138 0.931 . S
C6123 H6111 0.929 . S
C6123 C6117 1.390 . S
C6123 C6120 1.386 . S
C6124 C6119 1.490 . S
C6124 C6126 1.395 . S
C6124 C6127 1.403 . S
H6125 C6131 0.930 . S
C6126 H6112 0.930 . S
C6126 C6124 1.395 . S
C6126 C6129 1.403 . S
C6127 C6124 1.403 . S
C6127 C6128 1.524 . S
C6127 C6131 1.400 . S
C6128 H6113 0.960 . S
C6128 H6114 0.960 . S
C6128 H6115 0.960 . S
C6128 C6127 1.524 . S
C6129 C6126 1.403 . S
C6129 C6130 1.392 . S
C6129 C6133 1.495 . S
C6130 C6129 1.392 . S
C6130 C6131 1.385 . S
C6130 C6132 1.478 . S
C6131 H6125 0.930 . S
C6131 C6127 1.400 . S
C6131 C6130 1.385 . S
C6132 C6130 1.478 . S
C6132 C6134 1.381 . S
C6132 C6138 1.383 . S
C6133 C6129 1.495 . S
C6133 H6139 0.959 . S
C6133 H6140 0.961 . S
C6133 H6141 0.960 . S
C6134 C6132 1.381 . S
C6134 C6135 1.394 . S
C6134 H6142 0.930 . S
C6135 C6134 1.394 . S
C6135 C6136 1.383 . S
C6135 H6143 0.929 . S
C6136 C6135 1.383 . S
C6136 C6137 1.377 . S
C6137 H6121 0.930 . S
C6137 C6136 1.377 . S
C6137 C6138 1.379 . S
C6138 H6122 0.931 . S
C6138 C6132 1.383 . S
C6138 C6137 1.379 . S
H6139 C6133 0.959 . S
H6140 C6133 0.961 . S
H6141 C6133 0.960 . S
H6142 C6134 0.930 . S
H6143 C6135 0.929 . S
H6144 C6152 0.929 . S
H6145 C6154 0.930 . S
H6146 C6156 0.930 . S
H6147 C6159 0.929 . S
H6148 C6162 0.930 . S
H6149 C6164 0.960 . S
H6150 C6164 0.960 . S
H6151 C6164 0.960 . S
C6152 H6144 0.929 . S
C6152 C6153 1.377 . S
C6152 C6154 1.384 . S
C6153 C6152 1.377 . S
C6153 C6159 1.390 . S
C6154 H6145 0.930 . S
C6154 C6152 1.384 . S
C6154 C6155 1.372 . S
C6155 C6154 1.372 . S
C6155 C6156 1.400 . S
C6155 C6160 1.490 . S
C6156 H6146 0.930 . S
C6156 C6155 1.400 . S
C6156 C6159 1.386 . S
H6157 C6173 0.930 . S
H6158 C6174 0.931 . S
C6159 H6147 0.929 . S
C6159 C6153 1.390 . S
C6159 C6156 1.386 . S
C6160 C6155 1.490 . S
C6160 C6162 1.395 . S
C6160 C6163 1.403 . S
H6161 C6167 0.930 . S
C6162 H6148 0.930 . S
C6162 C6160 1.395 . S
C6162 C6165 1.403 . S
C6163 C6160 1.403 . S
C6163 C6164 1.524 . S
C6163 C6167 1.400 . S
C6164 H6149 0.960 . S
C6164 H6150 0.960 . S
C6164 H6151 0.960 . S
C6164 C6163 1.524 . S
C6165 C6162 1.403 . S
C6165 C6166 1.392 . S
C6165 C6169 1.495 . S
C6166 C6165 1.392 . S
C6166 C6167 1.385 . S
C6166 C6168 1.478 . S
C6167 H6161 0.930 . S
C6167 C6163 1.400 . S
C6167 C6166 1.385 . S
C6168 C6166 1.478 . S
C6168 C6170 1.381 . S
C6168 C6174 1.383 . S
C6169 C6165 1.495 . S
C6169 H6175 0.959 . S
C6169 H6176 0.961 . S
C6169 H6177 0.960 . S
C6170 C6168 1.381 . S
C6170 C6171 1.394 . S
C6170 H6178 0.930 . S
C6171 C6170 1.394 . S
C6171 C6172 1.383 . S
C6171 H6179 0.929 . S
C6172 C6171 1.383 . S
C6172 C6173 1.377 . S
C6173 H6157 0.930 . S
C6173 C6172 1.377 . S
C6173 C6174 1.379 . S
C6174 H6158 0.931 . S
C6174 C6168 1.383 . S
C6174 C6173 1.379 . S
H6175 C6169 0.959 . S
H6176 C6169 0.961 . S
H6177 C6169 0.960 . S
H6178 C6170 0.930 . S
H6179 C6171 0.929 . S
H6180 C6188 0.929 . S
H6181 C6190 0.930 . S
H6182 C6192 0.930 . S
H6183 C6195 0.929 . S
H6184 C6198 0.930 . S
H6185 C6200 0.960 . S
H6186 C6200 0.960 . S
H6187 C6200 0.960 . S
C6188 H6180 0.929 . S
C6188 C6189 1.377 . S
C6188 C6190 1.384 . S
C6189 C6188 1.377 . S
C6189 C6195 1.390 . S
C6190 H6181 0.930 . S
C6190 C6188 1.384 . S
C6190 C6191 1.372 . S
C6191 C6190 1.372 . S
C6191 C6192 1.400 . S
C6191 C6196 1.490 . S
C6192 H6182 0.930 . S
C6192 C6191 1.400 . S
C6192 C6195 1.386 . S
H6193 C6209 0.930 . S
H6194 C6210 0.931 . S
C6195 H6183 0.929 . S
C6195 C6189 1.390 . S
C6195 C6192 1.386 . S
C6196 C6191 1.490 . S
C6196 C6198 1.395 . S
C6196 C6199 1.403 . S
H6197 C6203 0.930 . S
C6198 H6184 0.930 . S
C6198 C6196 1.395 . S
C6198 C6201 1.403 . S
C6199 C6196 1.403 . S
C6199 C6200 1.524 . S
C6199 C6203 1.400 . S
C6200 H6185 0.960 . S
C6200 H6186 0.960 . S
C6200 H6187 0.960 . S
C6200 C6199 1.524 . S
C6201 C6198 1.403 . S
C6201 C6202 1.392 . S
C6201 C6205 1.495 . S
C6202 C6201 1.392 . S
C6202 C6203 1.385 . S
C6202 C6204 1.478 . S
C6203 H6197 0.930 . S
C6203 C6199 1.400 . S
C6203 C6202 1.385 . S
C6204 C6202 1.478 . S
C6204 C6206 1.381 . S
C6204 C6210 1.383 . S
C6205 C6201 1.495 . S
C6205 H6211 0.959 . S
C6205 H6212 0.961 . S
C6205 H6213 0.960 . S
C6206 C6204 1.381 . S
C6206 C6207 1.394 . S
C6206 H6214 0.930 . S
C6207 C6206 1.394 . S
C6207 C6208 1.383 . S
C6207 H6215 0.929 . S
C6208 C6207 1.383 . S
C6208 C6209 1.377 . S
C6209 H6193 0.930 . S
C6209 C6208 1.377 . S
C6209 C6210 1.379 . S
C6210 H6194 0.931 . S
C6210 C6204 1.383 . S
C6210 C6209 1.379 . S
H6211 C6205 0.959 . S
H6212 C6205 0.961 . S
H6213 C6205 0.960 . S
H6214 C6206 0.930 . S
H6215 C6207 0.929 . S
H6216 C6224 0.929 . S
H6217 C6226 0.930 . S
H6218 C6228 0.930 . S
H6219 C6231 0.929 . S
H6220 C6234 0.930 . S
H6221 C6236 0.960 . S
H6222 C6236 0.960 . S
H6223 C6236 0.960 . S
C6224 H6216 0.929 . S
C6224 C6225 1.377 . S
C6224 C6226 1.384 . S
C6225 C6224 1.377 . S
C6225 C6231 1.390 . S
C6226 H6217 0.930 . S
C6226 C6224 1.384 . S
C6226 C6227 1.372 . S
C6227 C6226 1.372 . S
C6227 C6228 1.400 . S
C6227 C6232 1.490 . S
C6228 H6218 0.930 . S
C6228 C6227 1.400 . S
C6228 C6231 1.386 . S
H6229 C6245 0.930 . S
H6230 C6246 0.931 . S
C6231 H6219 0.929 . S
C6231 C6225 1.390 . S
C6231 C6228 1.386 . S
C6232 C6227 1.490 . S
C6232 C6234 1.395 . S
C6232 C6235 1.403 . S
H6233 C6239 0.930 . S
C6234 H6220 0.930 . S
C6234 C6232 1.395 . S
C6234 C6237 1.403 . S
C6235 C6232 1.403 . S
C6235 C6236 1.524 . S
C6235 C6239 1.400 . S
C6236 H6221 0.960 . S
C6236 H6222 0.960 . S
C6236 H6223 0.960 . S
C6236 C6235 1.524 . S
C6237 C6234 1.403 . S
C6237 C6238 1.392 . S
C6237 C6241 1.495 . S
C6238 C6237 1.392 . S
C6238 C6239 1.385 . S
C6238 C6240 1.478 . S
C6239 H6233 0.930 . S
C6239 C6235 1.400 . S
C6239 C6238 1.385 . S
C6240 C6238 1.478 . S
C6240 C6242 1.381 . S
C6240 C6246 1.383 . S
C6241 C6237 1.495 . S
C6241 H6247 0.959 . S
C6241 H6248 0.961 . S
C6241 H6249 0.960 . S
C6242 C6240 1.381 . S
C6242 C6243 1.394 . S
C6242 H6250 0.930 . S
C6243 C6242 1.394 . S
C6243 C6244 1.383 . S
C6243 H6251 0.929 . S
C6244 C6243 1.383 . S
C6244 C6245 1.377 . S
C6245 H6229 0.930 . S
C6245 C6244 1.377 . S
C6245 C6246 1.379 . S
C6246 H6230 0.931 . S
C6246 C6240 1.383 . S
C6246 C6245 1.379 . S
H6247 C6241 0.959 . S
H6248 C6241 0.961 . S
H6249 C6241 0.960 . S
H6250 C6242 0.930 . S
H6251 C6243 0.929 . S
H6252 C6260 0.929 . S
H6253 C6262 0.930 . S
H6254 C6264 0.930 . S
H6255 C6267 0.929 . S
H6256 C6270 0.930 . S
H6257 C6272 0.960 . S
H6258 C6272 0.960 . S
H6259 C6272 0.960 . S
C6260 H6252 0.929 . S
C6260 C6261 1.377 . S
C6260 C6262 1.384 . S
C6261 C6260 1.377 . S
C6261 C6267 1.390 . S
C6262 H6253 0.930 . S
C6262 C6260 1.384 . S
C6262 C6263 1.372 . S
C6263 C6262 1.372 . S
C6263 C6264 1.400 . S
C6263 C6268 1.490 . S
C6264 H6254 0.930 . S
C6264 C6263 1.400 . S
C6264 C6267 1.386 . S
H6265 C6281 0.930 . S
H6266 C6282 0.931 . S
C6267 H6255 0.929 . S
C6267 C6261 1.390 . S
C6267 C6264 1.386 . S
C6268 C6263 1.490 . S
C6268 C6270 1.395 . S
C6268 C6271 1.403 . S
H6269 C6275 0.930 . S
C6270 H6256 0.930 . S
C6270 C6268 1.395 . S
C6270 C6273 1.403 . S
C6271 C6268 1.403 . S
C6271 C6272 1.524 . S
C6271 C6275 1.400 . S
C6272 H6257 0.960 . S
C6272 H6258 0.960 . S
C6272 H6259 0.960 . S
C6272 C6271 1.524 . S
C6273 C6270 1.403 . S
C6273 C6274 1.392 . S
C6273 C6277 1.495 . S
C6274 C6273 1.392 . S
C6274 C6275 1.385 . S
C6274 C6276 1.478 . S
C6275 H6269 0.930 . S
C6275 C6271 1.400 . S
C6275 C6274 1.385 . S
C6276 C6274 1.478 . S
C6276 C6278 1.381 . S
C6276 C6282 1.383 . S
C6277 C6273 1.495 . S
C6277 H6283 0.959 . S
C6277 H6284 0.961 . S
C6277 H6285 0.960 . S
C6278 C6276 1.381 . S
C6278 C6279 1.394 . S
C6278 H6286 0.930 . S
C6279 C6278 1.394 . S
C6279 C6280 1.383 . S
C6279 H6287 0.929 . S
C6280 C6279 1.383 . S
C6280 C6281 1.377 . S
C6281 H6265 0.930 . S
C6281 C6280 1.377 . S
C6281 C6282 1.379 . S
C6282 H6266 0.931 . S
C6282 C6276 1.383 . S
C6282 C6281 1.379 . S
H6283 C6277 0.959 . S
H6284 C6277 0.961 . S
H6285 C6277 0.960 . S
H6286 C6278 0.930 . S
H6287 C6279 0.929 . S
C2841 C1183 1.647 . S
C2860 C5 1.653 . S
C2877 C92 1.687 . S
C2896 C1036 1.708 . S
C2913 C123 1.727 . S
C2932 C1095 1.701 . S
C2949 C1154 1.833 . S
C2968 C210 1.845 . S
C2985 C1390 1.806 . S
C3004 C288 1.827 . S
C3021 C298 1.750 . S
C3040 C1272 1.771 . S
C3057 C406 1.625 . S
C3076 C1301 1.638 . S
C3093 C416 1.667 . S
C3112 C947 1.644 . S
C3129 C475 1.655 . S
C3148 C890 1.681 . S
C3165 C583 1.641 . S
C3184 C741 1.678 . S
C3201 C593 1.561 . S
C3220 C772 1.565 . S
C3237 C859 1.695 . S
C3256 C701 1.705 . S
C3273 C1468 1.907 . S
C3292 C2629 1.931 . S
C3309 C2422 1.482 . S
C3328 C1478 1.492 . S
C3345 C1586 1.863 . S
C3364 C2481 1.866 . S
C3381 C2570 1.760 . S
C3400 C1596 1.735 . S
C3417 C1657 1.559 . S
C3436 C2776 1.523 . S
C3453 C2658 1.821 . S
C3472 C1744 1.834 . S
C3489 C1775 1.379 . S
C3508 C2717 1.346 . S
C3525 C2393 1.938 . S
C3544 C1862 1.923 . S
C3561 C1921 1.778 . S
C3580 C2353 1.776 . S
C3597 C2127 1.687 . S
C3616 C1952 1.709 . S
C3633 C2235 1.685 . S
C3652 C2039 1.686 . S
C3669 C2245 1.734 . S
C3688 C2070 1.754 . S
C3705 C1539 1.044 . S
C3724 C52 1.066 . S
C3741 C62 0.958 . S
C3760 C1626 0.933 . S
C3777 C170 1.062 . S
C3796 C1421 1.069 . S
C3813 C180 1.161 . S
C3832 C1508 1.178 . S
C3849 C241 1.221 . S
C3868 C1822 1.211 . S
C3885 C1832 1.070 . S
C3904 C328 1.066 . S
C3921 C1704 1.012 . S
C3940 C359 1.035 . S
C3957 C1714 1.051 . S
C3976 C446 1.055 . S
C3993 C2157 1.147 . S
C4012 C505 1.155 . S
C4029 C536 0.953 . S
C4048 C2188 0.982 . S
C4065 C2275 1.132 . S
C4084 C623 1.161 . S
C4101 C654 0.951 . S
C4120 C2306 0.937 . S
C4137 C711 1.000 . S
C4156 C1891 0.993 . S
C4173 C819 1.093 . S
C4192 C1999 1.111 . S
C4209 C2009 1.004 . S
C4228 C829 0.976 . S
C4245 C2117 1.084 . S
C4264 C937 1.106 . S
C4281 C977 1.120 . S
C4300 C2540 1.129 . S
C4317 C1006 1.043 . S
C4336 C2688 1.072 . S
C4353 C2747 1.182 . S
C4372 C1065 1.192 . S
C4389 C2363 0.866 . S
C4408 C1124 0.900 . S
C4425 C1213 1.106 . S
C4444 C2806 1.128 . S
C4461 C2452 1.213 . S
C4480 C1242 1.211 . S
C4497 C1331 1.172 . S
C4516 C2511 1.171 . S
C4533 C1360 0.879 . S
C4552 C2599 0.856 . S
C4569 C1655 1.867 . S
C4588 C33 1.873 . S
C4605 C1763 1.940 . S
C4624 C64 1.899 . S
C4641 C1773 1.975 . S
C4660 C151 1.977 . S
C4677 C182 1.919 . S
C4696 C1881 1.936 . S
C4713 C1449 1.960 . S
C4732 C239 1.909 . S
C4749 C1480 1.970 . S
C4768 C347 1.996 . S
C4785 C357 1.863 . S
C4804 C1567 1.903 . S
C4821 C1598 1.922 . S
C4840 C465 1.914 . S
C4857 C524 1.886 . S
C4876 C2247 1.865 . S
C4893 C534 1.971 . S
C4912 C2334 1.983 . S
C4929 C2129 1.889 . S
C4948 C642 1.883 . S
C4965 C652 1.999 . S
C4984 C2216 2.006 . S
C5001 C2058 2.032 . S
C5020 C713 2.003 . S
C5037 C800 1.862 . S
C5056 C2068 1.842 . S
C5073 C831 2.004 . S
C5092 C1940 2.016 . S
C5109 C918 1.872 . S
C5128 C1950 1.858 . S
C5145 C2660 1.914 . S
C5164 C996 1.907 . S
C5181 C1008 2.057 . S
C5200 C2589 2.065 . S
C5217 C1067 1.968 . S
C5236 C2648 1.992 . S
C5253 C1126 1.792 . S
C5272 C2424 1.813 . S
C5289 C2483 1.872 . S
C5308 C1232 1.877 . S
C5325 C2412 2.006 . S
C5344 C1244 2.005 . S
C5361 C2778 2.057 . S
C5380 C1350 2.061 . S
C5397 C1362 1.817 . S
C5416 C2719 1.826 . S
C5433 C888 1.337 . S
C5452 C3 1.353 . S
C5469 C111 1.250 . S
C5488 C760 1.262 . S
C5505 C770 1.287 . S
C5524 C121 1.248 . S
C5541 C878 1.234 . S
C5560 C229 1.239 . S
C5577 C564 1.182 . S
C5596 C269 1.171 . S
C5613 C300 1.306 . S
C5632 C595 1.313 . S
C5649 C387 1.223 . S
C5668 C682 1.186 . S
C5685 C477 1.313 . S
C5704 C418 1.316 . S
C5721 C949 1.267 . S
C5740 C1185 1.242 . S
C5757 C1409 1.341 . S
C5776 C1055 1.339 . S
C5793 C1291 1.110 . S
C5812 C1114 1.107 . S
C5829 C1173 1.354 . S
C5848 C1303 1.317 . S
C5865 C2304 1.316 . S
C5884 C1419 1.293 . S
C5901 C2176 1.355 . S
C5920 C1527 1.332 . S
C5937 C1537 1.345 . S
C5956 C2186 1.305 . S
C5973 C2294 1.347 . S
C5992 C1645 1.322 . S
C6009 C1980 1.311 . S
C6028 C1685 1.317 . S
C6045 C1716 1.350 . S
C6064 C2011 1.355 . S
C6081 C1803 1.332 . S
C6100 C2098 1.331 . S
C6117 C1834 1.332 . S
C6136 C1893 1.329 . S
C6153 C2365 1.332 . S
C6172 C2601 1.320 . S
C6189 C2825 1.427 . S
C6208 C2471 1.453 . S
C6225 C2707 1.365 . S
C6244 C2530 1.372 . S
C6261 C2766 1.469 . S
C6280 C2542 1.420 . S
