# Generated by pormake.
# Topology pcb, (4)-cn, num edge types: 1
# Building blocks:
#     Node 0, Type 0, BuildingBlock: GALJAG_clean_sbu_0, # of connection points: 4
#     Node 1, Type 0, BuildingBlock: GALJAG_clean_sbu_0, # of connection points: 4
#     Node 2, Type 0, BuildingBlock: GALJAG_clean_sbu_0, # of connection points: 4
#     Node 3, Type 0, BuildingBlock: GALJAG_clean_sbu_0, # of connection points: 4
#     Node 4, Type 0, BuildingBlock: GALJAG_clean_sbu_0, # of connection points: 4
#     Node 5, Type 0, BuildingBlock: GALJAG_clean_sbu_0, # of connection points: 4
#     Node 6, Type 0, BuildingBlock: GALJAG_clean_sbu_0, # of connection points: 4
#     Node 7, Type 0, BuildingBlock: GALJAG_clean_sbu_0, # of connection points: 4
#     Node 8, Type 0, BuildingBlock: GALJAG_clean_sbu_0, # of connection points: 4
#     Node 9, Type 0, BuildingBlock: GALJAG_clean_sbu_0, # of connection points: 4
#     Node 10, Type 0, BuildingBlock: GALJAG_clean_sbu_0, # of connection points: 4
#     Node 11, Type 0, BuildingBlock: GALJAG_clean_sbu_0, # of connection points: 4
#     Node 12, Type 0, BuildingBlock: GALJAG_clean_sbu_0, # of connection points: 4
#     Node 13, Type 0, BuildingBlock: GALJAG_clean_sbu_0, # of connection points: 4
#     Node 14, Type 0, BuildingBlock: GALJAG_clean_sbu_0, # of connection points: 4
#     Node 15, Type 0, BuildingBlock: GALJAG_clean_sbu_0, # of connection points: 4
#     Edge 16, Type (0, 0), BuildingBlock: MIFKUJ_clean_linker_0, # of connection points: 2
#     Edge 17, Type (0, 0), BuildingBlock: MIFKUJ_clean_linker_0, # of connection points: 2
#     Edge 18, Type (0, 0), BuildingBlock: MIFKUJ_clean_linker_0, # of connection points: 2
#     Edge 19, Type (0, 0), BuildingBlock: MIFKUJ_clean_linker_0, # of connection points: 2
#     Edge 20, Type (0, 0), BuildingBlock: MIFKUJ_clean_linker_0, # of connection points: 2
#     Edge 21, Type (0, 0), BuildingBlock: MIFKUJ_clean_linker_0, # of connection points: 2
#     Edge 22, Type (0, 0), BuildingBlock: MIFKUJ_clean_linker_0, # of connection points: 2
#     Edge 23, Type (0, 0), BuildingBlock: MIFKUJ_clean_linker_0, # of connection points: 2
#     Edge 24, Type (0, 0), BuildingBlock: MIFKUJ_clean_linker_0, # of connection points: 2
#     Edge 25, Type (0, 0), BuildingBlock: MIFKUJ_clean_linker_0, # of connection points: 2
#     Edge 26, Type (0, 0), BuildingBlock: MIFKUJ_clean_linker_0, # of connection points: 2
#     Edge 27, Type (0, 0), BuildingBlock: MIFKUJ_clean_linker_0, # of connection points: 2
#     Edge 28, Type (0, 0), BuildingBlock: MIFKUJ_clean_linker_0, # of connection points: 2
#     Edge 29, Type (0, 0), BuildingBlock: MIFKUJ_clean_linker_0, # of connection points: 2
#     Edge 30, Type (0, 0), BuildingBlock: MIFKUJ_clean_linker_0, # of connection points: 2
#     Edge 31, Type (0, 0), BuildingBlock: MIFKUJ_clean_linker_0, # of connection points: 2
#     Edge 32, Type (0, 0), BuildingBlock: MIFKUJ_clean_linker_0, # of connection points: 2
#     Edge 33, Type (0, 0), BuildingBlock: MIFKUJ_clean_linker_0, # of connection points: 2
#     Edge 34, Type (0, 0), BuildingBlock: MIFKUJ_clean_linker_0, # of connection points: 2
#     Edge 35, Type (0, 0), BuildingBlock: MIFKUJ_clean_linker_0, # of connection points: 2
#     Edge 36, Type (0, 0), BuildingBlock: MIFKUJ_clean_linker_0, # of connection points: 2
#     Edge 37, Type (0, 0), BuildingBlock: MIFKUJ_clean_linker_0, # of connection points: 2
#     Edge 38, Type (0, 0), BuildingBlock: MIFKUJ_clean_linker_0, # of connection points: 2
#     Edge 39, Type (0, 0), BuildingBlock: MIFKUJ_clean_linker_0, # of connection points: 2
#     Edge 40, Type (0, 0), BuildingBlock: MIFKUJ_clean_linker_0, # of connection points: 2
#     Edge 41, Type (0, 0), BuildingBlock: MIFKUJ_clean_linker_0, # of connection points: 2
#     Edge 42, Type (0, 0), BuildingBlock: MIFKUJ_clean_linker_0, # of connection points: 2
#     Edge 43, Type (0, 0), BuildingBlock: MIFKUJ_clean_linker_0, # of connection points: 2
#     Edge 44, Type (0, 0), BuildingBlock: MIFKUJ_clean_linker_0, # of connection points: 2
#     Edge 45, Type (0, 0), BuildingBlock: MIFKUJ_clean_linker_0, # of connection points: 2
#     Edge 46, Type (0, 0), BuildingBlock: MIFKUJ_clean_linker_0, # of connection points: 2
#     Edge 47, Type (0, 0), BuildingBlock: MIFKUJ_clean_linker_0, # of connection points: 2
# Relax obj value: 0.356
# Max RMSD: 0.193
# Mean RMSD: 0.171
data_MOF--net-pcb--node1-GALJAG_clean_sbu_0--edge1-MIFKUJ_clean_linker_0
_symmetry_space_group_name_H-M    P1
_symmetry_Int_Tables_number       1
_symmetry_cell_setting            triclinic
loop_
_symmetry_equiv_pos_as_xyz
'x, y, z'
_cell_length_a     49.215063
_cell_length_b     62.004523
_cell_length_c     62.011322
_cell_angle_alpha  99.297128
_cell_angle_beta   95.962604
_cell_angle_gamma 95.913882
loop_
_atom_site_label
_atom_site_type_symbol
_atom_site_fract_x
_atom_site_fract_y
_atom_site_fract_z
_atom_type_partial_charge
In0 In 0.25865 0.13324 0.12084 0.0
O1 O 0.27707 0.16089 0.14951 0.0
O2 O 0.2445 0.16672 0.12663 0.0
C3 C 0.28433 0.09818 0.12704 0.0
C4 C 0.2077 0.11958 0.12907 0.0
C5 C 0.27338 0.14287 0.08283 0.0
O6 O 0.28749 0.11552 0.14137 0.0
O7 O 0.26894 0.09889 0.10966 0.0
O8 O 0.24891 0.1366 0.08545 0.0
O9 O 0.29101 0.14411 0.0995 0.0
C10 C 0.26025 0.17384 0.14421 0.0
O11 O 0.21337 0.12032 0.10979 0.0
O12 O 0.22804 0.12435 0.14381 0.0
In13 In 0.88409 0.16347 0.17438 0.0
O14 O 0.88001 0.18874 0.20495 0.0
O15 O 0.84393 0.1698 0.18655 0.0
C16 C 0.93808 0.1632 0.17125 0.0
C17 C 0.87198 0.12195 0.18081 0.0
C18 C 0.86758 0.1822 0.14 0.0
O19 O 0.92964 0.17245 0.18862 0.0
O20 O 0.91942 0.15452 0.15593 0.0
O21 O 0.85858 0.16276 0.14163 0.0
O22 O 0.88509 0.19219 0.15572 0.0
C23 C 0.85404 0.18435 0.20281 0.0
O24 O 0.86732 0.1275 0.16217 0.0
O25 O 0.88308 0.13727 0.19606 0.0
In26 In 0.79123 0.86032 0.15313 0.0
O27 O 0.76415 0.84308 0.17465 0.0
O28 O 0.78931 0.82408 0.15536 0.0
C29 C 0.78562 0.90008 0.17603 0.0
C30 C 0.84645 0.86615 0.15416 0.0
C31 C 0.76505 0.85186 0.11175 0.0
O32 O 0.79881 0.8864 0.18429 0.0
O33 O 0.77442 0.89334 0.15655 0.0
O34 O 0.7899 0.84909 0.11628 0.0
O35 O 0.75325 0.85889 0.12815 0.0
C36 C 0.77202 0.8245 0.16897 0.0
O37 O 0.83066 0.87438 0.14122 0.0
O38 O 0.83435 0.8549 0.16636 0.0
In39 In 0.18529 0.84456 0.14941 0.0
O40 O 0.149 0.86237 0.13909 0.0
O41 O 0.14618 0.84554 0.16613 0.0
C42 C 0.21818 0.8824 0.15062 0.0
C43 C 0.20355 0.82259 0.18105 0.0
C44 C 0.18507 0.81785 0.11045 0.0
O45 O 0.20369 0.87945 0.16578 0.0
O46 O 0.21594 0.86635 0.13496 0.0
O47 O 0.20691 0.82555 0.123 0.0
O48 O 0.1633 0.82311 0.11784 0.0
C49 C 0.13479 0.85696 0.15358 0.0
O50 O 0.18361 0.81466 0.16656 0.0
O51 O 0.21441 0.84148 0.17946 0.0
In52 In 0.12874 0.81893 0.84511 0.0
O53 O 0.13401 0.78771 0.82101 0.0
O54 O 0.16762 0.81304 0.83022 0.0
C55 C 0.0739 0.81889 0.84221 0.0
C56 C 0.14397 0.80669 0.88381 0.0
C57 C 0.14096 0.85983 0.83701 0.0
O58 O 0.08538 0.80924 0.82668 0.0
O59 O 0.09006 0.82807 0.85908 0.0
O60 O 0.14792 0.85453 0.85544 0.0
O61 O 0.12743 0.84459 0.8228 0.0
C62 C 0.15874 0.7943 0.81933 0.0
O63 O 0.15548 0.82355 0.87795 0.0
O64 O 0.12444 0.79599 0.87024 0.0
In65 In 0.19251 0.12449 0.82337 0.0
O66 O 0.15396 0.11709 0.83966 0.0
O67 O 0.15225 0.13856 0.81618 0.0
C68 C 0.19581 0.08136 0.80981 0.0
C69 C 0.20948 0.15098 0.79582 0.0
C70 C 0.22327 0.13754 0.86269 0.0
O71 O 0.17509 0.09044 0.80415 0.0
O72 O 0.21505 0.09414 0.82176 0.0
O73 O 0.23313 0.1288 0.84588 0.0
O74 O 0.19805 0.13977 0.85959 0.0
C75 C 0.13983 0.12901 0.82948 0.0
O76 O 0.21098 0.1572 0.8163 0.0
O77 O 0.19982 0.13111 0.7891 0.0
In78 In 0.8147 0.1731 0.88166 0.0
O79 O 0.85792 0.16497 0.89163 0.0
O80 O 0.84906 0.17209 0.85951 0.0
C81 C 0.8112 0.19537 0.92217 0.0
C82 C 0.7952 0.19672 0.85208 0.0
C83 C 0.78755 0.13249 0.87908 0.0
O84 O 0.83104 0.19947 0.91153 0.0
O85 O 0.79278 0.18045 0.91212 0.0
O86 O 0.77581 0.14803 0.87297 0.0
O87 O 0.81271 0.13746 0.88617 0.0
C88 C 0.8665 0.1669 0.87351 0.0
O89 O 0.79483 0.17609 0.84765 0.0
O90 O 0.80499 0.20536 0.87154 0.0
In91 In 0.73936 0.86214 0.85102 0.0
O92 O 0.71648 0.83034 0.83058 0.0
O93 O 0.7297 0.85599 0.81382 0.0
C94 C 0.72416 0.85045 0.88835 0.0
C95 C 0.79181 0.8555 0.84642 0.0
C96 C 0.73137 0.90484 0.8581 0.0
O97 O 0.70663 0.8542 0.87343 0.0
O98 O 0.74873 0.85253 0.88424 0.0
O99 O 0.7528 0.89787 0.86592 0.0
O100 O 0.71366 0.89019 0.84654 0.0
C101 C 0.71917 0.83634 0.81235 0.0
O102 O 0.78175 0.87214 0.84121 0.0
O103 O 0.77567 0.84268 0.85443 0.0
In104 In 0.75231 0.63464 0.60996 0.0
O105 O 0.7789 0.658 0.63873 0.0
O106 O 0.74879 0.67092 0.61912 0.0
C107 C 0.77065 0.59635 0.61592 0.0
C108 C 0.69955 0.62611 0.6177 0.0
C109 C 0.76715 0.64215 0.57102 0.0
O110 O 0.77649 0.61369 0.63015 0.0
O111 O 0.75606 0.59846 0.59859 0.0
O112 O 0.74325 0.64357 0.57626 0.0
O113 O 0.78408 0.63709 0.58559 0.0
C114 C 0.76673 0.67443 0.6357 0.0
O115 O 0.70619 0.62548 0.59852 0.0
O116 O 0.71952 0.63028 0.63275 0.0
In117 In 0.37117 0.65449 0.66796 0.0
O118 O 0.36849 0.68135 0.69757 0.0
O119 O 0.33341 0.65789 0.68484 0.0
C120 C 0.42489 0.65504 0.66285 0.0
C121 C 0.35842 0.61282 0.67343 0.0
C122 C 0.35082 0.67262 0.63425 0.0
O123 O 0.41719 0.66214 0.68124 0.0
O124 O 0.40566 0.6482 0.64747 0.0
O125 O 0.3481 0.6521 0.63399 0.0
O126 O 0.36397 0.68412 0.65158 0.0
C127 C 0.34365 0.67451 0.69887 0.0
O128 O 0.34948 0.61989 0.65639 0.0
O129 O 0.37445 0.62666 0.68748 0.0
In130 In 0.29126 0.34681 0.64599 0.0
O131 O 0.32935 0.32895 0.65041 0.0
O132 O 0.33524 0.36176 0.64459 0.0
C133 C 0.2672 0.33878 0.60414 0.0
C134 C 0.26666 0.31713 0.6672 0.0
C135 C 0.28438 0.38826 0.66341 0.0
O136 O 0.29246 0.33749 0.60918 0.0
O137 O 0.25409 0.3441 0.62025 0.0
O138 O 0.29577 0.37566 0.6746 0.0
O139 O 0.27589 0.37972 0.64369 0.0
C140 C 0.34615 0.34504 0.64837 0.0
O141 O 0.2761 0.33637 0.67666 0.0
O142 O 0.2693 0.31299 0.64703 0.0
In143 In 0.68896 0.34787 0.66164 0.0
O144 O 0.70469 0.31666 0.67025 0.0
O145 O 0.712 0.3455 0.69476 0.0
C146 C 0.67387 0.33261 0.6185 0.0
C147 C 0.63847 0.34937 0.67446 0.0
C148 C 0.72369 0.38409 0.66022 0.0
O149 O 0.6939 0.32615 0.62913 0.0
O150 O 0.66172 0.3466 0.62965 0.0
O151 O 0.70606 0.38395 0.67361 0.0
O152 O 0.72422 0.36586 0.64797 0.0
C153 C 0.71462 0.32537 0.68964 0.0
O154 O 0.65356 0.36643 0.67226 0.0
O155 O 0.64928 0.33175 0.67094 0.0
In156 In 0.63042 0.3217 0.34267 0.0
O157 O 0.63766 0.33762 0.37871 0.0
O158 O 0.62549 0.30307 0.37112 0.0
C159 C 0.6543 0.35622 0.3275 0.0
C160 C 0.66295 0.29255 0.32613 0.0
C161 C 0.57593 0.32245 0.33275 0.0
O162 O 0.65867 0.3538 0.34735 0.0
O163 O 0.6378 0.34116 0.31523 0.0
O164 O 0.58661 0.30465 0.33024 0.0
O165 O 0.59272 0.33946 0.33991 0.0
C166 C 0.6321 0.31994 0.38582 0.0
O167 O 0.63841 0.29228 0.31759 0.0
O168 O 0.67044 0.30701 0.34302 0.0
In169 In 0.68574 0.61666 0.30388 0.0
O170 O 0.71787 0.63961 0.29163 0.0
O171 O 0.6795 0.63023 0.27189 0.0
C172 C 0.71586 0.62505 0.34399 0.0
C173 C 0.63459 0.62586 0.31064 0.0
C174 C 0.68479 0.57295 0.29144 0.0
O175 O 0.6999 0.63797 0.3375 0.0
O176 O 0.71693 0.60794 0.33017 0.0
O177 O 0.66667 0.58151 0.30171 0.0
O178 O 0.70363 0.5865 0.2872 0.0
C179 C 0.70278 0.64139 0.27451 0.0
O180 O 0.63907 0.61158 0.29489 0.0
O181 O 0.65587 0.63544 0.32293 0.0
In182 In 0.32045 0.68322 0.37827 0.0
O183 O 0.3664 0.69149 0.37749 0.0
O184 O 0.34562 0.66453 0.3541 0.0
C185 C 0.32136 0.70252 0.42058 0.0
C186 C 0.29802 0.70977 0.35296 0.0
C187 C 0.29555 0.64228 0.37792 0.0
O188 O 0.34157 0.69443 0.41301 0.0
O189 O 0.30037 0.70116 0.40667 0.0
O190 O 0.28873 0.65364 0.36356 0.0
O191 O 0.31488 0.65157 0.39244 0.0
C192 C 0.36811 0.67618 0.36183 0.0
O193 O 0.28474 0.69265 0.35689 0.0
O194 O 0.32252 0.71374 0.36212 0.0
In195 In 0.24367 0.36727 0.34604 0.0
O196 O 0.28757 0.37686 0.33865 0.0
O197 O 0.27569 0.34352 0.34096 0.0
C198 C 0.23921 0.4107 0.354 0.0
C199 C 0.21434 0.34396 0.3091 0.0
C200 C 0.23073 0.3545 0.38353 0.0
O201 O 0.25736 0.40208 0.36439 0.0
O202 O 0.22311 0.39738 0.33953 0.0
O203 O 0.21325 0.36132 0.37069 0.0
O204 O 0.25435 0.3543 0.37744 0.0
C205 C 0.29437 0.35769 0.33771 0.0
O206 O 0.21223 0.33903 0.32786 0.0
O207 O 0.23019 0.36131 0.30918 0.0
H208 H 0.1928 0.30108 0.30527 0.0
H209 H 0.19286 0.27259 0.27319 0.0
H210 H 0.21425 0.32242 0.23463 0.0
H211 H 0.21508 0.35102 0.26689 0.0
H212 H 0.17401 0.25839 0.23028 0.0
H213 H 0.27014 0.31045 0.21213 0.0
H214 H 0.30317 0.34196 0.23171 0.0
H215 H 0.29127 0.32176 0.29344 0.0
H216 H 0.25873 0.29001 0.27425 0.0
H217 H 0.22189 0.20103 0.13665 0.0
H218 H 0.20834 0.23043 0.16291 0.0
H219 H 0.27354 0.22129 0.2115 0.0
H220 H 0.28714 0.19149 0.18523 0.0
H221 H 0.26967 0.26451 0.21106 0.0
H222 H 0.2109 0.20038 0.21506 0.0
H223 H 0.17692 0.16724 0.20481 0.0
H224 H 0.11658 0.2059 0.18111 0.0
H225 H 0.15036 0.23928 0.19085 0.0
C226 C 0.19649 0.30604 0.28975 0.0
C227 C 0.20469 0.32819 0.28866 0.0
C228 C 0.19645 0.28971 0.2714 0.0
C229 C 0.20437 0.29542 0.25178 0.0
C230 C 0.20864 0.31772 0.24981 0.0
C231 C 0.20905 0.33403 0.26823 0.0
C232 C 0.21322 0.27842 0.23526 0.0
C233 C 0.19473 0.25982 0.22573 0.0
C234 C 0.24074 0.27986 0.23032 0.0
C235 C 0.26186 0.29801 0.24176 0.0
C236 C 0.27486 0.31263 0.22986 0.0
C237 C 0.29347 0.33055 0.24091 0.0
C238 C 0.29934 0.33389 0.26384 0.0
C239 C 0.28684 0.31918 0.27572 0.0
C240 C 0.26833 0.30122 0.26477 0.0
C241 C 0.23365 0.20545 0.15282 0.0
C242 C 0.25557 0.19393 0.15893 0.0
C243 C 0.2257 0.22214 0.16784 0.0
C244 C 0.23964 0.22774 0.18921 0.0
C245 C 0.26245 0.21707 0.19506 0.0
C246 C 0.27028 0.20016 0.18005 0.0
C247 C 0.23017 0.24462 0.20544 0.0
C248 C 0.2487 0.2632 0.2151 0.0
C249 C 0.20297 0.24265 0.21113 0.0
C250 C 0.1833 0.22234 0.20351 0.0
C251 C 0.19056 0.20179 0.2073 0.0
C252 C 0.17126 0.18297 0.20173 0.0
C253 C 0.14454 0.18452 0.19255 0.0
C254 C 0.13723 0.20479 0.18843 0.0
C255 C 0.15647 0.22364 0.19391 0.0
H256 H 0.12953 0.17001 0.18848 0.0
H257 H 0.31356 0.34786 0.27241 0.0
H258 H 0.71752 0.29449 0.33958 0.0
H259 H 0.75117 0.2744 0.32123 0.0
H260 H 0.68655 0.23889 0.27218 0.0
H261 H 0.65252 0.25921 0.2904 0.0
H262 H 0.72773 0.21269 0.28841 0.0
H263 H 0.7202 0.27921 0.2584 0.0
H264 H 0.71979 0.31924 0.26063 0.0
H265 H 0.80265 0.33078 0.29318 0.0
H266 H 0.80339 0.29079 0.29145 0.0
H267 H 0.79856 0.17655 0.19992 0.0
H268 H 0.76831 0.19373 0.22427 0.0
H269 H 0.83847 0.23325 0.2644 0.0
H270 H 0.8692 0.21616 0.23966 0.0
H271 H 0.79678 0.25738 0.25565 0.0
H272 H 0.80595 0.19065 0.28297 0.0
H273 H 0.80652 0.15064 0.28066 0.0
H274 H 0.72136 0.13924 0.25358 0.0
H275 H 0.72035 0.1792 0.25544 0.0
C276 C 0.71035 0.28222 0.32504 0.0
C277 C 0.68242 0.2785 0.3163 0.0
C278 C 0.72963 0.27079 0.3146 0.0
C279 C 0.72129 0.25537 0.29531 0.0
C280 C 0.69327 0.25079 0.28709 0.0
C281 C 0.67393 0.26241 0.29744 0.0
C282 C 0.74216 0.24513 0.28306 0.0
C283 C 0.74269 0.22235 0.28105 0.0
C284 C 0.76207 0.25798 0.27408 0.0
C285 C 0.76173 0.28202 0.27503 0.0
C286 C 0.73824 0.29029 0.26623 0.0
C287 C 0.73797 0.31297 0.26736 0.0
C288 C 0.76115 0.32755 0.2771 0.0
C289 C 0.78469 0.31947 0.28567 0.0
C290 C 0.78505 0.2968 0.28461 0.0
C291 C 0.80766 0.18885 0.21395 0.0
C292 C 0.83627 0.195 0.21795 0.0
C293 C 0.79032 0.19856 0.22793 0.0
C294 C 0.80119 0.21447 0.24633 0.0
C295 C 0.82974 0.22086 0.25033 0.0
C296 C 0.84723 0.21112 0.23625 0.0
C297 C 0.78232 0.22481 0.26078 0.0
C298 C 0.78208 0.24766 0.26321 0.0
C299 C 0.76274 0.21201 0.27018 0.0
C300 C 0.76313 0.18795 0.26922 0.0
C301 C 0.78738 0.17962 0.27639 0.0
C302 C 0.78778 0.15694 0.27518 0.0
C303 C 0.764 0.14241 0.26695 0.0
C304 C 0.73976 0.15053 0.25995 0.0
C305 C 0.73925 0.1732 0.26112 0.0
H306 H 0.76436 0.12486 0.26605 0.0
H307 H 0.7609 0.3451 0.27795 0.0
H308 H 0.78955 0.78412 0.16116 0.0
H309 H 0.77531 0.75182 0.17697 0.0
H310 H 0.71855 0.78791 0.21246 0.0
H311 H 0.73323 0.82056 0.19703 0.0
H312 H 0.74677 0.76663 0.23861 0.0
H313 H 0.69556 0.74805 0.16728 0.0
H314 H 0.68806 0.74257 0.12673 0.0
H315 H 0.7424 0.69254 0.12289 0.0
H316 H 0.75055 0.69793 0.16344 0.0
H317 H 0.6706 0.65184 0.24019 0.0
H318 H 0.68091 0.6818 0.21996 0.0
H319 H 0.76246 0.69625 0.25586 0.0
H320 H 0.75204 0.66663 0.27654 0.0
H321 H 0.71743 0.69255 0.19355 0.0
H322 H 0.77894 0.75135 0.26889 0.0
H323 H 0.78182 0.75749 0.30943 0.0
H324 H 0.69787 0.72857 0.30498 0.0
H325 H 0.69438 0.72254 0.26445 0.0
C326 C 0.77391 0.78514 0.17224 0.0
C327 C 0.76246 0.80482 0.17789 0.0
C328 C 0.7657 0.76664 0.18117 0.0
C329 C 0.74564 0.76739 0.19568 0.0
C330 C 0.73404 0.787 0.20125 0.0
C331 C 0.74238 0.80559 0.19241 0.0
C332 C 0.73766 0.74795 0.20571 0.0
C333 C 0.74029 0.75045 0.22874 0.0
C334 C 0.72878 0.72691 0.19282 0.0
C335 C 0.72384 0.72353 0.16841 0.0
C336 C 0.70608 0.73599 0.1578 0.0
C337 C 0.70168 0.73288 0.13481 0.0
C338 C 0.71479 0.71725 0.12225 0.0
C339 C 0.73227 0.70465 0.13265 0.0
C340 C 0.73677 0.70771 0.15563 0.0
C341 C 0.69087 0.6612 0.24355 0.0
C342 C 0.71044 0.65711 0.26009 0.0
C343 C 0.69673 0.67828 0.23195 0.0
C344 C 0.72224 0.69147 0.23671 0.0
C345 C 0.74243 0.68651 0.25226 0.0
C346 C 0.73652 0.66954 0.26398 0.0
C347 C 0.72712 0.71121 0.2264 0.0
C348 C 0.7239 0.70875 0.20336 0.0
C349 C 0.73477 0.73241 0.23926 0.0
C350 C 0.73651 0.73631 0.26364 0.0
C351 C 0.76107 0.74639 0.27658 0.0
C352 C 0.76281 0.74984 0.29955 0.0
C353 C 0.74007 0.74337 0.30978 0.0
C354 C 0.7155 0.73351 0.29705 0.0
C355 C 0.71364 0.73006 0.27407 0.0
H356 H 0.74148 0.74602 0.32756 0.0
H357 H 0.71136 0.71487 0.10445 0.0
H358 H 0.24802 0.70156 0.32796 0.0
H359 H 0.23062 0.72185 0.29983 0.0
H360 H 0.30435 0.7683 0.31496 0.0
H361 H 0.32194 0.74808 0.34316 0.0
H362 H 0.25584 0.78802 0.30838 0.0
H363 H 0.30076 0.72897 0.27275 0.0
H364 H 0.3094 0.69031 0.26327 0.0
H365 H 0.22561 0.67224 0.23368 0.0
H366 H 0.21636 0.71078 0.24329 0.0
H367 H 0.2485 0.83502 0.21176 0.0
H368 H 0.26332 0.81636 0.24198 0.0
H369 H 0.1942 0.76586 0.22115 0.0
H370 H 0.17966 0.78416 0.19054 0.0
H371 H 0.23944 0.74816 0.23117 0.0
H372 H 0.19421 0.80687 0.26569 0.0
H373 H 0.18474 0.8453 0.27541 0.0
H374 H 0.26747 0.86383 0.3073 0.0
H375 H 0.27756 0.82555 0.2975 0.0
C376 C 0.26038 0.71623 0.32547 0.0
C377 C 0.2864 0.72319 0.3376 0.0
C378 C 0.25045 0.72775 0.30938 0.0
C379 C 0.26638 0.74637 0.30521 0.0
C380 C 0.29183 0.75392 0.31796 0.0
C381 C 0.30185 0.74234 0.33399 0.0
C382 C 0.2571 0.75732 0.28682 0.0
C383 C 0.25251 0.77944 0.29145 0.0
C384 C 0.25222 0.74586 0.26488 0.0
C385 C 0.2578 0.72271 0.25894 0.0
C386 C 0.28412 0.71672 0.26438 0.0
C387 C 0.28913 0.69484 0.25896 0.0
C388 C 0.26804 0.67882 0.24793 0.0
C389 C 0.24191 0.68466 0.24225 0.0
C390 C 0.23678 0.70653 0.24767 0.0
C391 C 0.23651 0.81991 0.21361 0.0
C392 C 0.21289 0.81105 0.19889 0.0
C393 C 0.2449 0.80934 0.23094 0.0
C394 C 0.22959 0.78993 0.23401 0.0
C395 C 0.20624 0.78087 0.2191 0.0
C396 C 0.19795 0.79134 0.20166 0.0
C397 C 0.2381 0.77895 0.25265 0.0
C398 C 0.24262 0.75679 0.24808 0.0
C399 C 0.24275 0.79036 0.27466 0.0
C400 C 0.23671 0.81338 0.28068 0.0
C401 C 0.21045 0.81917 0.27464 0.0
C402 C 0.20496 0.84092 0.28018 0.0
C403 C 0.22551 0.857 0.29192 0.0
C404 C 0.25158 0.85136 0.29819 0.0
C405 C 0.25719 0.82963 0.29266 0.0
H406 H 0.22122 0.87383 0.2962 0.0
H407 H 0.27197 0.66188 0.24375 0.0
H408 H 0.29256 0.65936 0.70634 0.0
H409 H 0.26181 0.67889 0.72856 0.0
H410 H 0.32514 0.73413 0.74865 0.0
H411 H 0.3564 0.71447 0.72638 0.0
H412 H 0.29508 0.72408 0.78284 0.0
H413 H 0.27796 0.73679 0.70859 0.0
H414 H 0.2683 0.72598 0.66825 0.0
H415 H 0.19209 0.68876 0.67511 0.0
H416 H 0.20152 0.69907 0.71554 0.0
H417 H 0.2121 0.80623 0.81499 0.0
H418 H 0.24329 0.78422 0.7958 0.0
H419 H 0.1779 0.7305 0.77583 0.0
H420 H 0.1462 0.75264 0.79511 0.0
H421 H 0.20856 0.73882 0.74207 0.0
H422 H 0.22506 0.72728 0.81649 0.0
H423 H 0.23487 0.73835 0.85679 0.0
H424 H 0.31222 0.7737 0.84966 0.0
H425 H 0.30268 0.76312 0.80927 0.0
C426 C 0.30012 0.67558 0.71566 0.0
C427 C 0.32676 0.68555 0.71446 0.0
C428 C 0.28249 0.6867 0.72831 0.0
C429 C 0.2911 0.70804 0.73987 0.0
C430 C 0.31817 0.71766 0.7397 0.0
C431 C 0.33594 0.70647 0.727 0.0
C432 C 0.27117 0.72059 0.7511 0.0
C433 C 0.27633 0.72757 0.77394 0.0
C434 C 0.24644 0.7246 0.73944 0.0
C435 C 0.24059 0.71853 0.71511 0.0
C436 C 0.25925 0.72616 0.70151 0.0
C437 C 0.2538 0.72014 0.67863 0.0
C438 C 0.22963 0.70665 0.66913 0.0
C439 C 0.21082 0.69919 0.6825 0.0
C440 C 0.2162 0.70513 0.7054 0.0
C441 C 0.20424 0.78976 0.80647 0.0
C442 C 0.17674 0.78107 0.80661 0.0
C443 C 0.22216 0.77718 0.79561 0.0
C444 C 0.21297 0.75567 0.78475 0.0
C445 C 0.18533 0.74708 0.78429 0.0
C446 C 0.16731 0.75969 0.79526 0.0
C447 C 0.23245 0.74235 0.77382 0.0
C448 C 0.22724 0.73525 0.75101 0.0
C449 C 0.25714 0.73828 0.78552 0.0
C450 C 0.26304 0.74456 0.80983 0.0
C451 C 0.24406 0.73756 0.8235 0.0
C452 C 0.24959 0.74372 0.84636 0.0
C453 C 0.27412 0.75676 0.85578 0.0
C454 C 0.29321 0.76362 0.84234 0.0
C455 C 0.28777 0.75752 0.81946 0.0
H456 H 0.27836 0.76151 0.87349 0.0
H457 H 0.22544 0.70201 0.6514 0.0
H458 H 0.23354 0.19325 0.80728 0.0
H459 H 0.2404 0.22017 0.78308 0.0
H460 H 0.20701 0.17075 0.7267 0.0
H461 H 0.20046 0.14351 0.75088 0.0
H462 H 0.25216 0.19676 0.7189 0.0
H463 H 0.16687 0.20705 0.74782 0.0
H464 H 0.13665 0.21252 0.77706 0.0
H465 H 0.18599 0.27348 0.8062 0.0
H466 H 0.21675 0.26822 0.77731 0.0
H467 H 0.2408 0.27615 0.64965 0.0
H468 H 0.2269 0.2467 0.66959 0.0
H469 H 0.25454 0.29027 0.73135 0.0
H470 H 0.26773 0.31994 0.71152 0.0
H471 H 0.20812 0.26528 0.73389 0.0
H472 H 0.29554 0.25367 0.70774 0.0
H473 H 0.32712 0.2484 0.67946 0.0
H474 H 0.275 0.19028 0.64602 0.0
H475 H 0.24291 0.19538 0.67398 0.0
C476 C 0.22791 0.18805 0.78971 0.0
C477 C 0.21627 0.16638 0.78093 0.0
C478 C 0.23171 0.20346 0.77594 0.0
C479 C 0.22364 0.19751 0.75321 0.0
C480 C 0.21315 0.17564 0.74425 0.0
C481 C 0.20945 0.16013 0.75804 0.0
C482 C 0.22566 0.21437 0.73899 0.0
C483 C 0.24215 0.21158 0.72188 0.0
C484 C 0.21292 0.23381 0.74322 0.0
C485 C 0.19422 0.23716 0.76047 0.0
C486 C 0.17137 0.22156 0.76054 0.0
C487 C 0.15413 0.22463 0.77704 0.0
C488 C 0.15942 0.24331 0.7935 0.0
C489 C 0.18192 0.25901 0.79345 0.0
C490 C 0.19924 0.256 0.77699 0.0
C491 C 0.24356 0.2795 0.66748 0.0
C492 C 0.25555 0.30021 0.67909 0.0
C493 C 0.23572 0.26267 0.67883 0.0
C494 C 0.24022 0.26622 0.70191 0.0
C495 C 0.251 0.2872 0.71352 0.0
C496 C 0.25857 0.3041 0.70219 0.0
C497 C 0.23501 0.24786 0.71402 0.0
C498 C 0.21788 0.25036 0.73072 0.0
C499 C 0.2473 0.22821 0.7095 0.0
C500 C 0.26669 0.22504 0.6928 0.0
C501 C 0.29073 0.23985 0.69427 0.0
C502 C 0.30873 0.23689 0.67832 0.0
C503 C 0.30303 0.21905 0.66092 0.0
C504 C 0.27936 0.20411 0.65949 0.0
C505 C 0.26127 0.20702 0.67538 0.0
H506 H 0.31698 0.21679 0.64858 0.0
H507 H 0.14606 0.24565 0.80627 0.0
H508 H 0.7959 0.24127 0.85762 0.0
H509 H 0.78329 0.26326 0.82963 0.0
H510 H 0.76184 0.20401 0.78117 0.0
H511 H 0.77479 0.18189 0.80904 0.0
H512 H 0.79307 0.23531 0.76572 0.0
H513 H 0.7121 0.23121 0.80268 0.0
H514 H 0.686 0.23485 0.83467 0.0
H515 H 0.71398 0.30412 0.85001 0.0
H516 H 0.74056 0.30084 0.81827 0.0
H517 H 0.71841 0.28129 0.68337 0.0
H518 H 0.73429 0.2598 0.71091 0.0
H519 H 0.75365 0.31925 0.75937 0.0
H520 H 0.73735 0.34079 0.73199 0.0
H521 H 0.72413 0.28804 0.77493 0.0
H522 H 0.8045 0.2924 0.73764 0.0
H523 H 0.8307 0.28885 0.70571 0.0
H524 H 0.80412 0.21934 0.69098 0.0
H525 H 0.77744 0.22252 0.72266 0.0
C526 C 0.78833 0.23292 0.84104 0.0
C527 C 0.78623 0.20988 0.8355 0.0
C528 C 0.78109 0.2455 0.82509 0.0
C529 C 0.77145 0.23523 0.80339 0.0
C530 C 0.76926 0.21222 0.79783 0.0
C531 C 0.77653 0.19962 0.81378 0.0
C532 C 0.76407 0.24855 0.78641 0.0
C533 C 0.77773 0.24664 0.76756 0.0
C534 C 0.74458 0.26371 0.78916 0.0
C535 C 0.72854 0.26573 0.80822 0.0
C536 C 0.71287 0.24719 0.81297 0.0
C537 C 0.69795 0.24919 0.83104 0.0
C538 C 0.69839 0.26969 0.8444 0.0
C539 C 0.71369 0.28824 0.83967 0.0
C540 C 0.72866 0.28633 0.82163 0.0
C541 C 0.72636 0.2898 0.69982 0.0
C542 C 0.7266 0.31268 0.70558 0.0
C543 C 0.73551 0.27752 0.71551 0.0
C544 C 0.74529 0.28796 0.73714 0.0
C545 C 0.74615 0.31089 0.74277 0.0
C546 C 0.73691 0.32316 0.72711 0.0
C547 C 0.75315 0.27484 0.7542 0.0
C548 C 0.73953 0.27677 0.77308 0.0
C549 C 0.77269 0.25972 0.75146 0.0
C550 C 0.78875 0.25774 0.73241 0.0
C551 C 0.80405 0.27639 0.72749 0.0
C552 C 0.81903 0.27443 0.70945 0.0
C553 C 0.81902 0.25389 0.69629 0.0
C554 C 0.80408 0.23525 0.70118 0.0
C555 C 0.78905 0.23711 0.71918 0.0
H556 H 0.83063 0.25241 0.68234 0.0
H557 H 0.68683 0.2712 0.85838 0.0
H558 H 0.70434 0.79193 0.80605 0.0
H559 H 0.71367 0.76501 0.77514 0.0
H560 H 0.7402 0.81768 0.74151 0.0
H561 H 0.73104 0.8447 0.77235 0.0
H562 H 0.6979 0.75441 0.73153 0.0
H563 H 0.80011 0.80534 0.72036 0.0
H564 H 0.83575 0.83328 0.74268 0.0
H565 H 0.81542 0.81057 0.80153 0.0
H566 H 0.77998 0.78228 0.77956 0.0
H567 H 0.7404 0.71035 0.63257 0.0
H568 H 0.7345 0.73937 0.66267 0.0
H569 H 0.79133 0.71343 0.70659 0.0
H570 H 0.79716 0.68395 0.67645 0.0
H571 H 0.79431 0.76135 0.71399 0.0
H572 H 0.73118 0.69678 0.70859 0.0
H573 H 0.69638 0.66559 0.69146 0.0
H574 H 0.64111 0.71055 0.67295 0.0
H575 H 0.67583 0.74203 0.68958 0.0
C576 C 0.71138 0.79776 0.79179 0.0
C577 C 0.71721 0.82041 0.79169 0.0
C578 C 0.71685 0.78237 0.77421 0.0
C579 C 0.7283 0.78943 0.75636 0.0
C580 C 0.73191 0.81196 0.75539 0.0
C581 C 0.7264 0.82735 0.77292 0.0
C582 C 0.7379 0.77333 0.73941 0.0
C583 C 0.71892 0.75601 0.72762 0.0
C584 C 0.76564 0.775 0.73494 0.0
C585 C 0.78716 0.79184 0.74829 0.0
C586 C 0.8033 0.80625 0.73805 0.0
C587 C 0.82347 0.82216 0.75065 0.0
C588 C 0.82778 0.82375 0.77352 0.0
C589 C 0.81199 0.80939 0.78383 0.0
C590 C 0.79183 0.79343 0.77131 0.0
C591 C 0.75224 0.71111 0.64846 0.0
C592 C 0.76898 0.69472 0.65225 0.0
C593 C 0.74879 0.72769 0.66564 0.0
C594 C 0.76215 0.72827 0.68684 0.0
C595 C 0.78082 0.71315 0.69029 0.0
C596 C 0.78414 0.69637 0.67308 0.0
C597 C 0.75399 0.74299 0.70563 0.0
C598 C 0.77325 0.75994 0.71782 0.0
C599 C 0.72672 0.74061 0.71101 0.0
C600 C 0.70622 0.72176 0.70013 0.0
C601 C 0.71178 0.70002 0.70056 0.0
C602 C 0.69205 0.68229 0.691 0.0
C603 C 0.66657 0.68611 0.68117 0.0
C604 C 0.66087 0.70764 0.6806 0.0
C605 C 0.68057 0.72543 0.69006 0.0
H606 H 0.65116 0.6724 0.67418 0.0
H607 H 0.84341 0.83606 0.78322 0.0
H608 H 0.27608 0.13002 0.87477 0.0
H609 H 0.30083 0.13702 0.91213 0.0
H610 H 0.23148 0.1655 0.93712 0.0
H611 H 0.20689 0.15877 0.90003 0.0
H612 H 0.27996 0.18814 0.95769 0.0
H613 H 0.23791 0.11167 0.93662 0.0
H614 H 0.23141 0.07484 0.91338 0.0
H615 H 0.31737 0.06921 0.92777 0.0
H616 H 0.32443 0.10619 0.95088 0.0
H617 H 0.23993 0.15769 0.05279 0.0
H618 H 0.2487 0.16343 0.01606 0.0
H619 H 0.3305 0.14517 0.02776 0.0
H620 H 0.32197 0.13989 0.06517 0.0
H621 H 0.29519 0.12076 0.98859 0.0
H622 H 0.3302 0.19421 0.02048 0.0
H623 H 0.33187 0.22997 0.04494 0.0
H624 H 0.25491 0.24064 0.01141 0.0
H625 H 0.25252 0.2048 0.98696 0.0
C626 C 0.26635 0.13809 0.88822 0.0
C627 C 0.23947 0.14367 0.88459 0.0
C628 C 0.28049 0.14207 0.90951 0.0
C629 C 0.2679 0.15165 0.92737 0.0
C630 C 0.24162 0.15819 0.92355 0.0
C631 C 0.22751 0.15418 0.90236 0.0
C632 C 0.28047 0.15306 0.95036 0.0
C633 C 0.28362 0.17349 0.96448 0.0
C634 C 0.28601 0.13398 0.95902 0.0
C635 C 0.28178 0.11178 0.94519 0.0
C636 C 0.25546 0.10264 0.93468 0.0
C637 C 0.25166 0.08174 0.92156 0.0
C638 C 0.27397 0.06972 0.91903 0.0
C639 C 0.30012 0.07857 0.92968 0.0
C640 C 0.30404 0.0995 0.94278 0.0
C641 C 0.25995 0.15524 0.04769 0.0
C642 C 0.28025 0.14828 0.06167 0.0
C643 C 0.265 0.15866 0.02679 0.0
C644 C 0.29031 0.15489 0.01934 0.0
C645 C 0.31095 0.14834 0.03338 0.0
C646 C 0.30607 0.14536 0.05464 0.0
C647 C 0.29333 0.15568 0.99604 0.0
C648 C 0.29294 0.13563 0.98177 0.0
C649 C 0.28986 0.17504 0.9873 0.0
C650 C 0.29121 0.19676 0.00186 0.0
C651 C 0.31355 0.20412 0.01838 0.0
C652 C 0.31463 0.22442 0.03225 0.0
C653 C 0.29351 0.23757 0.02973 0.0
C654 C 0.27128 0.23046 0.01332 0.0
C655 C 0.27009 0.21016 -0.00059 0.0
H656 H 0.29438 0.25329 0.04049 0.0
H657 H 0.27098 0.05353 0.90888 0.0
H658 H 0.84594 0.23001 0.94636 0.0
H659 H 0.85251 0.24047 0.98651 0.0
H660 H 0.78476 0.19191 0.99081 0.0
H661 H 0.77746 0.18205 0.95079 0.0
H662 H 0.78767 0.22547 0.02369 0.0
H663 H 0.85182 0.17914 0.99079 0.0
H664 H 0.88737 0.17059 0.96652 0.0
H665 H 0.94038 0.22787 0.00084 0.0
H666 H 0.90493 0.2369 0.02513 0.0
H667 H 0.82419 0.1672 0.10845 0.0
H668 H 0.81209 0.18176 0.07487 0.0
H669 H 0.87955 0.23387 0.09423 0.0
H670 H 0.89165 0.21946 0.1281 0.0
H671 H 0.87986 0.20929 0.05256 0.0
H672 H 0.81721 0.24818 0.09208 0.0
H673 H 0.78089 0.25325 0.11633 0.0
H674 H 0.72418 0.20653 0.06993 0.0
H675 H 0.76026 0.20091 0.04553 0.0
C676 C 0.83198 0.22204 0.95587 0.0
C677 C 0.81152 0.20494 0.94555 0.0
C678 C 0.83577 0.22799 0.97879 0.0
C679 C 0.81959 0.21656 0.99166 0.0
C680 C 0.79758 0.20089 0.98122 0.0
C681 C 0.79351 0.19518 0.95833 0.0
C682 C 0.82772 0.2184 0.01563 0.0
C683 C 0.80785 0.22204 0.03007 0.0
C684 C 0.85426 0.21434 0.02401 0.0
C685 C 0.87563 0.20884 0.00956 0.0
C686 C 0.871 0.18997 0.99306 0.0
C687 C 0.89112 0.18504 0.97931 0.0
C688 C 0.91608 0.19872 0.98209 0.0
C689 C 0.921 0.21733 -0.00133 0.0
C690 C 0.90091 0.22236 0.01242 0.0
C691 C 0.8362 0.18194 0.10571 0.0
C692 C 0.85895 0.19213 0.12076 0.0
C693 C 0.82914 0.19035 0.08663 0.0
C694 C 0.84479 0.209 0.08222 0.0
C695 C 0.86712 0.21955 0.09748 0.0
C696 C 0.874 0.2113 0.11675 0.0
C697 C 0.83955 0.21569 0.06049 0.0
C698 C 0.85998 0.21351 0.04642 0.0
C699 C 0.8134 0.22067 0.05244 0.0
C700 C 0.79153 0.22406 0.067 0.0
C701 C 0.79705 0.23886 0.08711 0.0
C702 C 0.77649 0.24186 0.10087 0.0
C703 C 0.75026 0.23021 0.09469 0.0
C704 C 0.74451 0.21556 0.0747 0.0
C705 C 0.765 0.21249 0.06087 0.0
H706 H 0.73437 0.23255 0.10537 0.0
H707 H 0.93164 0.19488 0.97143 0.0
H708 H 0.67713 0.85663 0.90763 0.0
H709 H 0.66932 0.85181 0.94523 0.0
H710 H 0.74809 0.82754 0.9541 0.0
H711 H 0.75593 0.83231 0.91697 0.0
H712 H 0.70832 0.80452 0.97256 0.0
H713 H 0.74245 0.88133 0.96968 0.0
H714 H 0.73827 0.91669 0.95695 0.0
H715 H 0.66144 0.92069 0.98358 0.0
H716 H 0.66505 0.88519 0.99623 0.0
H717 H 0.78535 0.83362 0.0749 0.0
H718 H 0.76396 0.82853 0.0369 0.0
H719 H 0.6923 0.8558 0.05877 0.0
H720 H 0.7138 0.86106 0.09711 0.0
H721 H 0.71118 0.87432 0.0252 0.0
H722 H 0.68583 0.80219 0.03762 0.0
H723 H 0.69185 0.76738 0.05088 0.0
H724 H 0.75218 0.75424 0.00674 0.0
H725 H 0.74686 0.78913 0.99345 0.0
C726 C 0.69245 0.84988 0.91753 0.0
C727 C 0.71723 0.84503 0.90954 0.0
C728 C 0.68801 0.84718 0.93894 0.0
C729 C 0.70821 0.83943 0.95244 0.0
C730 C 0.73219 0.83345 0.94394 0.0
C731 C 0.73673 0.83633 0.92276 0.0
C732 C 0.70625 0.83939 0.97608 0.0
C733 C 0.70869 0.81971 0.98412 0.0
C734 C 0.70583 0.85913 0.99105 0.0
C735 C 0.70383 0.88051 0.98362 0.0
C736 C 0.72458 0.88969 0.97268 0.0
C737 C 0.72233 0.90976 0.9655 0.0
C738 C 0.69955 0.92089 0.96938 0.0
C739 C 0.67904 0.91201 0.98053 0.0
C740 C 0.68117 0.89193 0.9877 0.0
C741 C 0.76493 0.83835 0.07167 0.0
C742 C 0.75124 0.84774 0.08894 0.0
C743 C 0.75264 0.8353 0.04995 0.0
C744 C 0.72637 0.8415 0.04505 0.0
C745 C 0.7125 0.85076 0.06226 0.0
C746 C 0.72478 0.85373 0.08409 0.0
C747 C 0.71467 0.83959 0.02173 0.0
C748 C 0.7097 0.85892 0.01374 0.0
C749 C 0.71281 0.81952 0.0068 0.0
C750 C 0.71596 0.79835 0.01456 0.0
C751 C 0.70049 0.79194 0.03082 0.0
C752 C 0.70377 0.77218 0.03833 0.0
C753 C 0.72239 0.75861 0.02966 0.0
C754 C 0.73774 0.76476 0.01343 0.0
C755 C 0.73455 0.78451 0.00586 0.0
H756 H 0.72491 0.74333 0.03551 0.0
H757 H 0.69782 0.9364 0.96379 0.0
H758 H 0.14108 0.79672 0.08173 0.0
H759 H 0.13996 0.78556 0.04192 0.0
H760 H 0.22778 0.80335 0.04769 0.0
H761 H 0.22916 0.81425 0.08754 0.0
H762 H 0.1952 0.82707 0.02158 0.0
H763 H 0.20538 0.75259 0.02878 0.0
H764 H 0.19443 0.71737 0.04144 0.0
H765 H 0.11311 0.7097 0.00639 0.0
H766 H 0.12342 0.74506 0.99377 0.0
H767 H 0.19413 0.81624 0.9081 0.0
H768 H 0.20666 0.8096 0.94543 0.0
H769 H 0.12435 0.77795 0.94567 0.0
H770 H 0.11227 0.78347 0.90777 0.0
H771 H 0.15896 0.75874 0.96872 0.0
H772 H 0.1438 0.83371 0.9669 0.0
H773 H 0.15045 0.86998 0.95543 0.0
H774 H 0.23566 0.87814 0.98218 0.0
H775 H 0.22958 0.84176 0.99354 0.0
C776 C 0.16026 0.7976 0.07459 0.0
C777 C 0.18516 0.80659 0.08764 0.0
C778 C 0.1596 0.79112 0.05189 0.0
C779 C 0.18379 0.79369 0.04195 0.0
C780 C 0.20895 0.80119 0.05514 0.0
C781 C 0.20967 0.8074 0.07788 0.0
C782 C 0.182 0.79233 0.01784 0.0
C783 C 0.18794 0.81202 0.00996 0.0
C784 C 0.17141 0.77287 0.0029 0.0
C785 C 0.16512 0.75159 0.01047 0.0
C786 C 0.18507 0.74351 0.02393 0.0
C787 C 0.179 0.72349 0.03106 0.0
C788 C 0.15308 0.71133 0.02476 0.0
C789 C 0.13318 0.71915 0.01127 0.0
C790 C 0.13914 0.73916 0.0041 0.0
C791 C 0.17888 0.80757 0.91604 0.0
C792 C 0.15215 0.80064 0.9053 0.0
C793 C 0.18601 0.80382 0.93735 0.0
C794 C 0.16623 0.79381 0.94857 0.0
C795 C 0.13993 0.78579 0.93738 0.0
C796 C 0.13299 0.78903 0.9158 0.0
C797 C 0.17217 0.79353 0.97246 0.0
C798 C 0.16676 0.77369 0.98031 0.0
C799 C 0.18261 0.81301 0.98758 0.0
C800 C 0.18631 0.83492 0.98083 0.0
C801 C 0.16399 0.84318 0.97019 0.0
C802 C 0.16766 0.86376 0.96373 0.0
C803 C 0.19348 0.87633 0.96801 0.0
C804 C 0.21568 0.86837 0.97883 0.0
C805 C 0.21214 0.84777 0.98529 0.0
H806 H 0.19628 0.89226 0.963 0.0
H807 H 0.14842 0.69583 0.0303 0.0
H808 H 0.16005 0.11215 0.10073 0.0
H809 H 0.11421 0.11866 0.11018 0.0
H810 H 0.14555 0.13122 0.17922 0.0
H811 H 0.19118 0.12431 0.16994 0.0
H812 H 0.0942 0.11165 0.17326 0.0
H813 H 0.14397 0.17116 0.14825 0.0
H814 H 0.16856 0.19076 0.1233 0.0
H815 H 0.09616 0.17891 0.07601 0.0
H816 H 0.07105 0.15907 0.1007 0.0
H817 H 0.98225 0.17095 0.2036 0.0
H818 H 0.02992 0.16428 0.19907 0.0
H819 H 0.00696 0.14479 0.129 0.0
H820 H 0.95975 0.15139 0.13337 0.0
H821 H 0.05649 0.171 0.13898 0.0
H822 H 0.01002 0.10658 0.16122 0.0
H823 H 0.98466 0.08743 0.1863 0.0
H824 H 0.05137 0.1091 0.2382 0.0
H825 H 0.07698 0.12865 0.21347 0.0
C826 C 0.15698 0.11569 0.11793 0.0
C827 C 0.17923 0.11803 0.13458 0.0
C828 C 0.13085 0.11957 0.1233 0.0
C829 C 0.12675 0.12613 0.14537 0.0
C830 C 0.14837 0.12649 0.16208 0.0
C831 C 0.17444 0.12248 0.15673 0.0
C832 C 0.10074 0.13442 0.15094 0.0
C833 C 0.08613 0.1248 0.16594 0.0
C834 C 0.09028 0.15166 0.1414 0.0
C835 C 0.10552 0.16356 0.12645 0.0
C836 C 0.13318 0.17271 0.1326 0.0
C837 C 0.14728 0.18385 0.11845 0.0
C838 C 0.13394 0.18609 0.09807 0.0
C839 C 0.10647 0.17718 0.09182 0.0
C840 C 0.09227 0.166 0.10592 0.0
C841 C 0.98755 0.16553 0.18724 0.0
C842 C 0.96732 0.16154 0.16886 0.0
C843 C 0.01468 0.16165 0.18468 0.0
C844 C 0.02184 0.15387 0.16371 0.0
C845 C 0.00186 0.1508 0.14531 0.0
C846 C 0.97487 0.15449 0.14786 0.0
C847 C 0.04965 0.14775 0.16069 0.0
C848 C 0.06474 0.15794 0.14633 0.0
C849 C 0.06057 0.1311 0.17078 0.0
C850 C 0.04525 0.11928 0.18559 0.0
C851 C 0.01918 0.10741 0.17803 0.0
C852 C 0.00478 0.09646 0.19217 0.0
C853 C 0.01636 0.09711 0.21385 0.0
C854 C 0.0424 0.10866 0.22142 0.0
C855 C 0.05687 0.11967 0.20735 0.0
H856 H 0.00518 0.08861 0.22477 0.0
H857 H 0.14489 0.19472 0.08713 0.0
H858 H 0.75592 0.93146 0.16314 0.0
H859 H 0.76853 0.97124 0.17331 0.0
H860 H 0.8331 0.96116 0.2219 0.0
H861 H 0.82048 0.92131 0.21194 0.0
H862 H 0.78055 0.00622 0.21175 0.0
H863 H 0.89122 0.98903 0.20744 0.0
H864 H 0.91727 0.95833 0.19495 0.0
H865 H 0.85135 0.93126 0.14376 0.0
H866 H 0.8252 0.96204 0.15566 0.0
H867 H 0.86868 0.10852 0.22029 0.0
H868 H 0.85298 0.07147 0.22657 0.0
H869 H 0.84188 0.04782 0.15652 0.0
H870 H 0.85714 0.08483 0.15008 0.0
H871 H 0.8697 0.02042 0.18253 0.0
H872 H 0.78794 0.05826 0.17855 0.0
H873 H 0.76123 0.08871 0.19024 0.0
H874 H 0.76802 0.07447 0.25595 0.0
H875 H 0.79509 0.04407 0.24469 0.0
C876 C 0.77212 0.93774 0.17656 0.0
C877 C 0.78759 0.92336 0.18646 0.0
C878 C 0.77919 0.96047 0.18244 0.0
C879 C 0.80198 0.96901 0.19809 0.0
C880 C 0.8155 0.95478 0.20972 0.0
C881 C 0.80828 0.93204 0.20398 0.0
C882 C 0.81471 0.99175 0.19875 0.0
C883 C 0.80022 0.00941 0.20571 0.0
C884 C 0.84021 0.99577 0.19056 0.0
C885 C 0.85616 0.97768 0.18262 0.0
C886 C 0.88238 0.97659 0.19344 0.0
C887 C 0.89716 0.95918 0.18646 0.0
C888 C 0.88593 0.94282 0.16862 0.0
C889 C 0.85999 0.94392 0.15761 0.0
C890 C 0.8452 0.96135 0.16445 0.0
C891 C 0.86306 0.09537 0.20625 0.0
C892 C 0.86403 0.09949 0.18469 0.0
C893 C 0.85407 0.07429 0.20988 0.0
C894 C 0.84626 0.05705 0.192 0.0
C895 C 0.84791 0.06099 0.1705 0.0
C896 C 0.85651 0.0821 0.16685 0.0
C897 C 0.83554 0.03493 0.19549 0.0
C898 C 0.85038 0.01735 0.18915 0.0
C899 C 0.81035 0.03103 0.20415 0.0
C900 C 0.79377 0.04906 0.21084 0.0
C901 C 0.78391 0.06173 0.19553 0.0
C902 C 0.76867 0.07895 0.20207 0.0
C903 C 0.76299 0.08355 0.22383 0.0
C904 C 0.77247 0.0709 0.2391 0.0
C905 C 0.78773 0.05366 0.23265 0.0
H906 H 0.75118 0.09689 0.22885 0.0
H907 H 0.89737 0.92934 0.16331 0.0
H908 H 0.8774 0.88934 0.12945 0.0
H909 H 0.92755 0.89305 0.13006 0.0
H910 H 0.93371 0.85337 0.18107 0.0
H911 H 0.88377 0.84982 0.18072 0.0
H912 H 0.97337 0.88845 0.18929 0.0
H913 H 0.93579 0.831 0.1278 0.0
H914 H 0.90647 0.81564 0.09286 0.0
H915 H 0.94735 0.86408 0.0611 0.0
H916 H 0.97669 0.87991 0.09595 0.0
H917 H 0.09954 0.84484 0.1818 0.0
H918 H 0.05167 0.85176 0.1825 0.0
H919 H 0.05819 0.88858 0.12947 0.0
H920 H 0.10607 0.88133 0.12841 0.0
H921 H 0.01288 0.85995 0.12143 0.0
H922 H 0.05438 0.9147 0.18213 0.0
H923 H 0.08396 0.92958 0.21703 0.0
H924 H 0.03625 0.88649 0.25039 0.0
H925 H 0.00659 0.87111 0.21562 0.0
C926 C 0.88948 0.88147 0.14082 0.0
C927 C 0.87669 0.86913 0.1549 0.0
C928 C 0.9181 0.88359 0.14115 0.0
C929 C 0.93431 0.87329 0.15546 0.0
C930 C 0.92159 0.86146 0.16991 0.0
C931 C 0.89304 0.85936 0.16961 0.0
C932 C 0.96442 0.87405 0.15494 0.0
C933 C 0.98205 0.88212 0.1745 0.0
C934 C 0.97574 0.86635 0.13549 0.0
C935 C 0.9582 0.85679 0.11453 0.0
C936 C 0.93837 0.83848 0.1134 0.0
C937 C 0.92178 0.82967 0.09361 0.0
C938 C 0.92498 0.83893 0.07479 0.0
C939 C 0.94485 0.85696 0.0757 0.0
C940 C 0.96148 0.86585 0.09546 0.0
C941 C 0.09087 0.8546 0.17043 0.0
C942 C 0.10652 0.86254 0.15505 0.0
C943 C 0.06354 0.85864 0.17092 0.0
C944 C 0.05142 0.87091 0.1562 0.0
C945 C 0.06715 0.87913 0.14101 0.0
C946 C 0.09449 0.87502 0.14046 0.0
C947 C 0.0219 0.87401 0.15589 0.0
C948 C 0.00434 0.86663 0.13617 0.0
C949 C 0.01068 0.88235 0.17521 0.0
C950 C 0.02837 0.89165 0.19621 0.0
C951 C 0.0503 0.90829 0.19687 0.0
C952 C 0.06707 0.91683 0.21664 0.0
C953 C 0.06202 0.90896 0.2359 0.0
C954 C 0.04014 0.89256 0.23545 0.0
C955 C 0.02332 0.88395 0.21572 0.0
H956 H 0.07503 0.91559 0.25119 0.0
H957 H 0.91212 0.83208 0.05948 0.0
H958 H 0.29195 0.08431 0.16642 0.0
H959 H 0.29409 0.04628 0.17162 0.0
H960 H 0.30033 0.02712 0.10236 0.0
H961 H 0.29668 0.06493 0.097 0.0
H962 H 0.259 0.00457 0.11199 0.0
H963 H 0.35197 0.02108 0.14499 0.0
H964 H 0.39184 0.04142 0.17002 0.0
H965 H 0.35257 0.02791 0.22589 0.0
H966 H 0.31227 0.00774 0.20121 0.0
H967 H 0.2489 0.89254 0.11878 0.0
H968 H 0.27299 0.92843 0.11651 0.0
H969 H 0.25037 0.95542 0.17977 0.0
H970 H 0.22619 0.91946 0.18222 0.0
H971 H 0.30522 0.97212 0.17185 0.0
H972 H 0.21014 0.96074 0.13781 0.0
H973 H 0.1707 0.94009 0.11245 0.0
H974 H 0.21633 0.94427 0.05758 0.0
H975 H 0.25621 0.96467 0.08269 0.0
C976 C 0.29477 0.0721 0.15249 0.0
C977 C 0.29385 0.07738 0.13128 0.0
C978 C 0.2961 0.05034 0.15547 0.0
C979 C 0.29725 0.03373 0.13735 0.0
C980 C 0.29921 0.03958 0.11655 0.0
C981 C 0.29721 0.06118 0.1135 0.0
C982 C 0.29147 0.01017 0.13924 0.0
C983 C 0.26973 -0.00259 0.12475 0.0
C984 C 0.30478 0.00088 0.15628 0.0
C985 C 0.32898 0.01302 0.17122 0.0
C986 C 0.35172 0.02259 0.16262 0.0
C987 C 0.37443 0.03406 0.17675 0.0
C988 C 0.37472 0.03599 0.19953 0.0
C989 C 0.35232 0.02641 0.20824 0.0
C990 C 0.32955 0.01492 0.19418 0.0
C991 C 0.24942 0.90601 0.13238 0.0
C992 C 0.23534 0.90333 0.15054 0.0
C993 C 0.26329 0.92645 0.13109 0.0
C994 C 0.26326 0.94453 0.14791 0.0
C995 C 0.25067 0.9416 0.16668 0.0
C996 C 0.23671 0.92113 0.16797 0.0
C997 C 0.2731 0.96694 0.14457 0.0
C998 C 0.29519 0.97938 0.15885 0.0
C999 C 0.26031 0.97604 0.12726 0.0
C1000 C 0.23624 0.96399 0.11214 0.0
C1001 C 0.21183 0.9571 0.12036 0.0
C1002 C 0.18939 0.94547 0.10603 0.0
C1003 C 0.19103 0.94081 0.08342 0.0
C1004 C 0.2151 0.94785 0.07509 0.0
C1005 C 0.23762 0.95945 0.08936 0.0
H1006 H 0.17364 0.93181 0.07235 0.0
H1007 H 0.39232 0.04488 0.21045 0.0
H1008 H 0.81843 0.82272 0.85967 0.0
H1009 H 0.86558 0.81566 0.85523 0.0
H1010 H 0.87589 0.8705 0.8207 0.0
H1011 H 0.82878 0.87796 0.82555 0.0
H1012 H 0.89274 0.80513 0.82122 0.0
H1013 H 0.94187 0.8953 0.83385 0.0
H1014 H 0.93358 0.9322 0.85167 0.0
H1015 H 0.89001 0.90344 0.89861 0.0
H1016 H 0.89834 0.86641 0.88124 0.0
H1017 H 0.03574 0.80777 0.80558 0.0
H1018 H 0.9869 0.81315 0.80296 0.0
H1019 H 0.9962 0.83855 0.8727 0.0
H1020 H 0.04491 0.83378 0.87527 0.0
H1021 H 0.96924 0.86427 0.85148 0.0
H1022 H 0.96421 0.78594 0.85002 0.0
H1023 H 0.97232 0.74791 0.83593 0.0
H1024 H 0.92779 0.75086 0.77335 0.0
H1025 H 0.91973 0.78903 0.787 0.0
C1026 C 0.83074 0.83328 0.85113 0.0
C1027 C 0.8201 0.85107 0.84321 0.0
C1028 C 0.85761 0.82914 0.84847 0.0
C1029 C 0.87433 0.84267 0.83782 0.0
C1030 C 0.86347 0.86006 0.82928 0.0
C1031 C 0.8366 0.86431 0.83207 0.0
C1032 C 0.90349 0.83907 0.83668 0.0
C1033 C 0.9095 0.81808 0.8277 0.0
C1034 C 0.92532 0.85591 0.84533 0.0
C1035 C 0.92046 0.8781 0.85608 0.0
C1036 C 0.93059 0.89688 0.84801 0.0
C1037 C 0.92587 0.9178 0.85802 0.0
C1038 C 0.91118 0.92016 0.87621 0.0
C1039 C 0.90128 0.90159 0.88447 0.0
C1040 C 0.90597 0.88063 0.87454 0.0
C1041 C 0.02724 0.81433 0.82035 0.0
C1042 C 0.04408 0.82039 0.84062 0.0
C1043 C -0.00064 0.81737 0.81884 0.0
C1044 C 0.98788 0.82622 0.83765 0.0
C1045 C 0.00464 0.83185 0.85794 0.0
C1046 C 0.03245 0.82902 0.85941 0.0
C1047 C 0.9586 0.83018 0.83637 0.0
C1048 C 0.95254 0.85133 0.84476 0.0
C1049 C 0.93677 0.81333 0.82767 0.0
C1050 C 0.94166 0.79042 0.81944 0.0
C1051 C 0.95636 0.77854 0.8332 0.0
C1052 C 0.96091 0.75695 0.82531 0.0
C1053 C 0.95066 0.747 0.80374 0.0
C1054 C 0.93577 0.7586 0.79004 0.0
C1055 C 0.9312 0.78021 0.79784 0.0
H1056 H 0.95419 0.73028 0.79766 0.0
H1057 H 0.90753 0.93637 0.88392 0.0
H1058 H 0.11898 0.87816 0.80319 0.0
H1059 H 0.13246 0.91477 0.79508 0.0
H1060 H 0.19533 0.92729 0.85112 0.0
H1061 H 0.18098 0.89111 0.85986 0.0
H1062 H 0.17074 0.9613 0.85092 0.0
H1063 H 0.20965 0.91553 0.79573 0.0
H1064 H 0.21045 0.88488 0.76514 0.0
H1065 H 0.15116 0.91188 0.72474 0.0
H1066 H 0.14971 0.94255 0.7552 0.0
H1067 H 0.23493 0.0581 0.82573 0.0
H1068 H 0.23032 0.01846 0.82555 0.0
H1069 H 0.15235 0.01065 0.78464 0.0
H1070 H 0.15667 0.05039 0.78484 0.0
H1071 H 0.18779 0.97433 0.77628 0.0
H1072 H 0.14674 0.01788 0.8345 0.0
H1073 H 0.14887 0.04918 0.865 0.0
H1074 H 0.21693 0.02589 0.89972 0.0
H1075 H 0.21536 0.99456 0.86926 0.0
C1076 C 0.13566 0.88877 0.81375 0.0
C1077 C 0.14894 0.88189 0.83216 0.0
C1078 C 0.14353 0.9096 0.809 0.0
C1079 C 0.16528 0.92365 0.82224 0.0
C1080 C 0.17853 0.91673 0.84064 0.0
C1081 C 0.17032 0.89608 0.84564 0.0
C1082 C 0.17344 0.94595 0.81752 0.0
C1083 C 0.17493 0.96399 0.83466 0.0
C1084 C 0.17853 0.94964 0.79622 0.0
C1085 C 0.17939 0.93124 0.77783 0.0
C1086 C 0.19663 0.91485 0.78038 0.0
C1087 C 0.19723 0.89749 0.76305 0.0
C1088 C 0.18082 0.8964 0.74303 0.0
C1089 C 0.16384 0.91272 0.74027 0.0
C1090 C 0.16314 0.93012 0.75755 0.0
C1091 C 0.21717 0.04788 0.81618 0.0
C1092 C 0.19593 0.05731 0.80558 0.0
C1093 C 0.21462 0.02527 0.81606 0.0
C1094 C 0.19089 0.01181 0.80527 0.0
C1095 C 0.17082 0.02086 0.79302 0.0
C1096 C 0.17326 0.04354 0.79325 0.0
C1097 C 0.18504 0.98924 0.80966 0.0
C1098 C 0.18386 0.97134 0.7925 0.0
C1099 C 0.1806 0.98556 0.83098 0.0
C1100 C 0.18107 0.00401 0.84956 0.0
C1101 C 0.16223 0.0195 0.8486 0.0
C1102 C 0.16332 0.03723 0.86587 0.0
C1103 C 0.18304 0.03953 0.88428 0.0
C1104 C 0.20166 0.02407 0.88546 0.0
C1105 C 0.20066 0.00632 0.86821 0.0
H1106 H 0.18383 0.05326 0.89763 0.0
H1107 H 0.18132 0.88295 0.72963 0.0
H1108 H 0.11036 0.11293 0.85956 0.0
H1109 H 0.06345 0.1189 0.86641 0.0
H1110 H 0.05772 0.15749 0.81445 0.0
H1111 H 0.10487 0.15199 0.80787 0.0
H1112 H 0.03839 0.17751 0.84937 0.0
H1113 H 0.02481 0.10464 0.80747 0.0
H1114 H 0.03266 0.06581 0.79782 0.0
H1115 H 0.00845 0.05318 0.85961 0.0
H1116 H 0.00082 0.09203 0.86977 0.0
H1117 H 0.89238 0.17678 0.8389 0.0
H1118 H 0.93893 0.17004 0.8313 0.0
H1119 H 0.95019 0.14116 0.88989 0.0
H1120 H 0.90379 0.1481 0.89777 0.0
H1121 H 0.96609 0.11606 0.85124 0.0
H1122 H 0.98012 0.18987 0.8926 0.0
H1123 H 0.97144 0.22862 0.90094 0.0
H1124 H 0.99385 0.2391 0.838 0.0
H1125 H 0.00227 0.20029 0.82914 0.0
C1126 C 0.09905 0.12261 0.84954 0.0
C1127 C 0.11122 0.13197 0.83316 0.0
C1128 C 0.07221 0.12593 0.85341 0.0
C1129 C 0.05696 0.13844 0.84077 0.0
C1130 C 0.0691 0.14777 0.82438 0.0
C1131 C 0.096 0.14457 0.8206 0.0
C1132 C 0.02859 0.14226 0.84501 0.0
C1133 C 0.02249 0.16404 0.84945 0.0
C1134 C 0.00797 0.12471 0.84553 0.0
C1135 C 0.01251 0.10131 0.83947 0.0
C1136 C 0.02138 0.09363 0.81908 0.0
C1137 C 0.02575 0.07161 0.81351 0.0
C1138 C 0.02113 0.05705 0.82812 0.0
C1139 C 0.01206 0.06448 0.84832 0.0
C1140 C 0.00769 0.0865 0.85399 0.0
C1141 C 0.90481 0.16903 0.85017 0.0
C1142 C 0.89456 0.163 0.86895 0.0
C1143 C 0.93135 0.16523 0.84583 0.0
C1144 C 0.94792 0.15518 0.86009 0.0
C1145 C 0.93764 0.14893 0.87871 0.0
C1146 C 0.91123 0.15298 0.88322 0.0
C1147 C 0.97606 0.15124 0.85557 0.0
C1148 C 0.98206 0.12946 0.85109 0.0
C1149 C 0.99651 0.16876 0.8548 0.0
C1150 C 0.99153 0.19212 0.86011 0.0
C1151 C 0.98295 0.20038 0.88045 0.0
C1152 C 0.97813 0.22237 0.88529 0.0
C1153 C 0.98201 0.2363 0.86998 0.0
C1154 C 0.9908 0.22828 0.84982 0.0
C1155 C 0.99562 0.2063 0.84489 0.0
H1156 H 0.97828 0.25332 0.87376 0.0
H1157 H 0.02452 0.04 0.82377 0.0
H1158 H 0.76588 0.93803 0.88404 0.0
H1159 H 0.76219 0.97729 0.88894 0.0
H1160 H 0.68554 0.96463 0.84579 0.0
H1161 H 0.68931 0.92496 0.84056 0.0
H1162 H 0.72005 0.99674 0.835 0.0
H1163 H 0.68482 0.98314 0.90004 0.0
H1164 H 0.68204 0.9675 0.93398 0.0
H1165 H 0.7597 0.00438 0.9623 0.0
H1166 H 0.76323 0.01995 0.92842 0.0
H1167 H 0.73534 0.11556 0.85984 0.0
H1168 H 0.71297 0.07781 0.85761 0.0
H1169 H 0.78529 0.0618 0.89434 0.0
H1170 H 0.8076 0.09917 0.89659 0.0
H1171 H 0.73689 0.04516 0.90823 0.0
H1172 H 0.77604 0.04949 0.83918 0.0
H1173 H 0.77985 0.06416 0.80479 0.0
H1174 H 0.69361 0.04423 0.78434 0.0
H1175 H 0.68926 0.02967 0.81878 0.0
C1176 C 0.74808 0.94353 0.87573 0.0
C1177 C 0.72789 0.92845 0.86189 0.0
C1178 C 0.74588 0.96599 0.87868 0.0
C1179 C 0.72336 0.97387 0.86801 0.0
C1180 C 0.70296 0.95885 0.8543 0.0
C1181 C 0.70514 0.93625 0.85136 0.0
C1182 C 0.72268 -0.00206 0.8701 0.0
C1183 C 0.72288 0.00735 0.851 0.0
C1184 C 0.72644 0.01177 0.89097 0.0
C1185 C 0.7243 0.0027 0.9116 0.0
C1186 C 0.70139 0.98784 0.91345 0.0
C1187 C 0.69968 0.97898 0.93269 0.0
C1188 C 0.72068 0.98495 0.95028 0.0
C1189 C 0.74343 -0.0002 0.94867 0.0
C1190 C 0.74527 0.00868 0.92946 0.0
C1191 C 0.74632 0.10398 0.86754 0.0
C1192 C 0.77326 0.11021 0.87825 0.0
C1193 C 0.73354 0.08248 0.86627 0.0
C1194 C 0.74752 0.06705 0.87581 0.0
C1195 C 0.77409 0.0735 0.88699 0.0
C1196 C 0.78689 0.09482 0.88812 0.0
C1197 C 0.73563 0.04374 0.87323 0.0
C1198 C 0.73304 0.03453 0.89225 0.0
C1199 C 0.72958 0.0301 0.85231 0.0
C1200 C 0.73225 0.03878 0.83164 0.0
C1201 C 0.75786 0.0484 0.82742 0.0
C1202 C 0.76012 0.05666 0.80791 0.0
C1203 C 0.73696 0.0552 0.79242 0.0
C1204 C 0.71151 0.0454 0.79638 0.0
C1205 C 0.70913 0.03715 0.81588 0.0
H1206 H 0.73876 0.0616 0.77733 0.0
H1207 H 0.71933 0.97807 0.96516 0.0
H1208 H 0.75495 0.60181 0.36061 0.0
H1209 H 0.77673 0.60684 0.39872 0.0
H1210 H 0.73118 0.66166 0.4162 0.0
H1211 H 0.71021 0.6572 0.37809 0.0
H1212 H 0.78046 0.67041 0.43786 0.0
H1213 H 0.70943 0.60796 0.42403 0.0
H1214 H 0.68624 0.57156 0.40554 0.0
H1215 H 0.75889 0.54201 0.42255 0.0
H1216 H 0.78259 0.57835 0.44104 0.0
H1217 H 0.74208 0.66567 0.54339 0.0
H1218 H 0.74767 0.66543 0.50468 0.0
H1219 H 0.81144 0.62304 0.50942 0.0
H1220 H 0.80635 0.62365 0.54856 0.0
H1221 H 0.76551 0.60675 0.4763 0.0
H1222 H 0.83079 0.6705 0.49866 0.0
H1223 H 0.84933 0.70737 0.51926 0.0
H1224 H 0.78282 0.73522 0.48778 0.0
H1225 H 0.76361 0.69846 0.46722 0.0
C1226 C 0.74988 0.6151 0.37256 0.0
C1227 C 0.73073 0.62901 0.36646 0.0
C1228 C 0.76227 0.61791 0.39433 0.0
C1229 C 0.75528 0.63441 0.41043 0.0
C1230 C 0.73696 0.64883 0.40411 0.0
C1231 C 0.72486 0.6462 0.38232 0.0
C1232 C 0.76545 0.63595 0.43409 0.0
C1233 C 0.7772 0.65649 0.44626 0.0
C1234 C 0.76192 0.61765 0.44501 0.0
C1235 C 0.74788 0.59588 0.43364 0.0
C1236 C 0.72053 0.59373 0.42364 0.0
C1237 C 0.70728 0.5731 0.4132 0.0
C1238 C 0.72111 0.55448 0.41279 0.0
C1239 C 0.74823 0.55646 0.42284 0.0
C1240 C 0.76157 0.57706 0.43331 0.0
C1241 C 0.75774 0.65672 0.53632 0.0
C1242 C 0.77373 0.64462 0.54886 0.0
C1243 C 0.76101 0.65668 0.51426 0.0
C1244 C 0.78004 0.64429 0.50427 0.0
C1245 C 0.79679 0.63282 0.51694 0.0
C1246 C 0.79391 0.63322 0.53923 0.0
C1247 C 0.77961 0.64134 0.48009 0.0
C1248 C 0.76958 0.62052 0.4678 0.0
C1249 C 0.7842 0.65946 0.46918 0.0
C1250 C 0.79569 0.68166 0.48145 0.0
C1251 C 0.81999 0.68445 0.49624 0.0
C1252 C 0.83064 0.70534 0.50789 0.0
C1253 C 0.81725 0.72362 0.50485 0.0
C1254 C 0.79318 0.72104 0.49012 0.0
C1255 C 0.78243 0.70018 0.47842 0.0
H1256 H 0.82553 0.73978 0.51389 0.0
H1257 H 0.71079 0.5385 0.40479 0.0
H1258 H 0.33174 0.65079 0.59312 0.0
H1259 H 0.31931 0.6665 0.56052 0.0
H1260 H 0.33327 0.73178 0.59965 0.0
H1261 H 0.34695 0.71604 0.63239 0.0
H1262 H 0.28245 0.68907 0.54643 0.0
H1263 H 0.3587 0.76743 0.56777 0.0
H1264 H 0.40153 0.78282 0.59218 0.0
H1265 H 0.42489 0.7178 0.59084 0.0
H1266 H 0.38235 0.7021 0.56626 0.0
H1267 H 0.28046 0.72029 0.44179 0.0
H1268 H 0.279 0.7279 0.48172 0.0
H1269 H 0.36094 0.70945 0.49232 0.0
H1270 H 0.36289 0.7028 0.45291 0.0
H1271 H 0.35509 0.73979 0.52447 0.0
H1272 H 0.29996 0.67133 0.48589 0.0
H1273 H 0.26193 0.65018 0.45931 0.0
H1274 H 0.2037 0.68634 0.49215 0.0
H1275 H 0.24149 0.70785 0.51878 0.0
C1276 C 0.33194 0.66848 0.59485 0.0
C1277 C 0.34065 0.68223 0.61519 0.0
C1278 C 0.32464 0.67746 0.57621 0.0
C1279 C 0.32559 0.70035 0.57756 0.0
C1280 C 0.33281 0.71409 0.59815 0.0
C1281 C 0.34058 0.7051 0.61681 0.0
C1282 C 0.32126 0.70943 0.55693 0.0
C1283 C 0.29809 0.7005 0.54177 0.0
C1284 C 0.34157 0.72439 0.55081 0.0
C1285 C 0.36722 0.73362 0.56549 0.0
C1286 C 0.37301 0.75645 0.57271 0.0
C1287 C 0.39722 0.76522 0.58655 0.0
C1288 C 0.41586 0.75129 0.59314 0.0
C1289 C 0.41038 0.72857 0.58581 0.0
C1290 C 0.38623 0.71973 0.57194 0.0
C1291 C 0.29836 0.71841 0.45274 0.0
C1292 C 0.32161 0.71061 0.44429 0.0
C1293 C 0.29749 0.72272 0.47551 0.0
C1294 C 0.31965 0.71884 0.49001 0.0
C1295 C 0.34357 0.7126 0.48153 0.0
C1296 C 0.34459 0.70862 0.45892 0.0
C1297 C 0.31722 0.71828 0.51356 0.0
C1298 C 0.33889 0.72906 0.52939 0.0
C1299 C 0.29616 0.70425 0.52003 0.0
C1300 C 0.2735 0.69136 0.50409 0.0
C1301 C 0.27905 0.67483 0.48734 0.0
C1302 C 0.25756 0.66278 0.47229 0.0
C1303 C 0.23043 0.66697 0.474 0.0
C1304 C 0.22473 0.68317 0.49081 0.0
C1305 C 0.24617 0.69529 0.50587 0.0
H1306 H 0.21381 0.65763 0.46234 0.0
H1307 H 0.43457 0.7581 0.60387 0.0
H1308 H 0.18429 0.35894 0.40396 0.0
H1309 H 0.1768 0.35047 0.44043 0.0
H1310 H 0.25621 0.32679 0.44639 0.0
H1311 H 0.26367 0.33499 0.41023 0.0
H1312 H 0.2176 0.30093 0.46239 0.0
H1313 H 0.24878 0.37949 0.46741 0.0
H1314 H 0.24396 0.41642 0.45858 0.0
H1315 H 0.16616 0.41559 0.48421 0.0
H1316 H 0.17039 0.37851 0.49294 0.0
H1317 H 0.29004 0.32377 0.56738 0.0
H1318 H 0.27012 0.32055 0.52913 0.0
H1319 H 0.19548 0.34278 0.55054 0.0
H1320 H 0.21541 0.34609 0.58903 0.0
H1321 H 0.21559 0.36571 0.52052 0.0
H1322 H 0.19271 0.29077 0.52496 0.0
H1323 H 0.19972 0.2545 0.53454 0.0
H1324 H 0.26277 0.24838 0.49177 0.0
H1325 H 0.25646 0.28475 0.48218 0.0
C1326 C 0.19992 0.35165 0.41299 0.0
C1327 C 0.22467 0.34782 0.40443 0.0
C1328 C 0.19562 0.34683 0.43375 0.0
C1329 C 0.21603 0.33812 0.4461 0.0
C1330 C 0.24015 0.33341 0.43708 0.0
C1331 C 0.24448 0.33827 0.41648 0.0
C1332 C 0.2139 0.33559 0.46918 0.0
C1333 C 0.21698 0.31501 0.47515 0.0
C1334 C 0.21217 0.35386 0.48568 0.0
C1335 C 0.20971 0.37615 0.48053 0.0
C1336 C 0.23055 0.38713 0.471 0.0
C1337 C 0.22795 0.40809 0.46604 0.0
C1338 C 0.20472 0.41831 0.47076 0.0
C1339 C 0.1841 0.40762 0.48051 0.0
C1340 C 0.18658 0.38664 0.48546 0.0
C1341 C 0.26926 0.32771 0.56396 0.0
C1342 C 0.2543 0.33524 0.58113 0.0
C1343 C 0.25782 0.32572 0.54211 0.0
C1344 C 0.23119 0.33118 0.53703 0.0
C1345 C 0.21598 0.33835 0.55415 0.0
C1346 C 0.22738 0.34022 0.57608 0.0
C1347 C 0.22065 0.33124 0.51383 0.0
C1348 C 0.21518 0.35137 0.50783 0.0
C1349 C 0.22032 0.31257 0.49732 0.0
C1350 C 0.22413 0.29056 0.50289 0.0
C1351 C 0.20819 0.28176 0.51769 0.0
C1352 C 0.21202 0.26116 0.52311 0.0
C1353 C 0.23168 0.24915 0.51378 0.0
C1354 C 0.24752 0.25769 0.49897 0.0
C1355 C 0.24378 0.27829 0.4935 0.0
H1356 H 0.23463 0.23321 0.518 0.0
H1357 H 0.20274 0.43454 0.46691 0.0
H1358 H 0.62642 0.28347 0.40523 0.0
H1359 H 0.63158 0.28226 0.44471 0.0
H1360 H 0.64685 0.35321 0.45918 0.0
H1361 H 0.64234 0.3545 0.41984 0.0
H1362 H 0.683 0.33615 0.4834 0.0
H1363 H 0.58495 0.32556 0.46504 0.0
H1364 H 0.54068 0.30777 0.4443 0.0
H1365 H 0.55458 0.24682 0.46554 0.0
H1366 H 0.59916 0.26417 0.48614 0.0
H1367 H 0.62839 0.34082 0.59385 0.0
H1368 H 0.61884 0.33409 0.55374 0.0
H1369 H 0.69244 0.30224 0.54901 0.0
H1370 H 0.70225 0.30904 0.58926 0.0
H1371 H 0.61151 0.29851 0.51996 0.0
H1372 H 0.725 0.32287 0.50871 0.0
H1373 H 0.76702 0.34429 0.5301 0.0
H1374 H 0.71771 0.38429 0.56918 0.0
H1375 H 0.67545 0.36348 0.5477 0.0
C1376 C 0.63076 0.29879 0.41686 0.0
C1377 C 0.634 0.31908 0.40952 0.0
C1378 C 0.63363 0.29808 0.43938 0.0
C1379 C 0.63945 0.31766 0.45486 0.0
C1380 C 0.64246 0.33791 0.4475 0.0
C1381 C 0.63978 0.33863 0.42504 0.0
C1382 C 0.64296 0.31715 0.47876 0.0
C1383 C 0.66741 0.32782 0.49135 0.0
C1384 C 0.62245 0.30653 0.48916 0.0
C1385 C 0.59553 0.29611 0.47695 0.0
C1386 C 0.57867 0.30832 0.46516 0.0
C1387 C 0.5535 0.29833 0.45344 0.0
C1388 C 0.54486 0.27617 0.45355 0.0
C1389 C 0.56132 0.26398 0.46544 0.0
C1390 C 0.58653 0.27389 0.47715 0.0
C1391 C 0.64234 0.33209 0.58428 0.0
C1392 C 0.66628 0.32573 0.5946 0.0
C1393 C 0.63674 0.32813 0.56139 0.0
C1394 C 0.6551 0.31791 0.54848 0.0
C1395 C 0.67816 0.31033 0.55876 0.0
C1396 C 0.68373 0.31421 0.5817 0.0
C1397 C 0.65159 0.31735 0.52443 0.0
C1398 C 0.62719 0.30655 0.51187 0.0
C1399 C 0.67179 0.32839 0.5141 0.0
C1400 C 0.69708 0.3414 0.52677 0.0
C1401 C 0.72315 0.33631 0.52179 0.0
C1402 C 0.74699 0.34837 0.53392 0.0
C1403 C 0.74502 0.36561 0.55101 0.0
C1404 C 0.7192 0.37093 0.55594 0.0
C1405 C 0.6953 0.359 0.5438 0.0
H1406 H 0.7635 0.37488 0.56042 0.0
H1407 H 0.52537 0.26846 0.44447 0.0
H1408 H 0.65301 0.62102 0.58834 0.0
H1409 H 0.60599 0.62424 0.59682 0.0
H1410 H 0.63409 0.63179 0.66619 0.0
H1411 H 0.68105 0.6284 0.65783 0.0
H1412 H 0.58497 0.60862 0.6573 0.0
H1413 H 0.62602 0.67668 0.64063 0.0
H1414 H 0.64952 0.70073 0.61854 0.0
H1415 H 0.58206 0.68317 0.5667 0.0
H1416 H 0.55838 0.65881 0.5885 0.0
H1417 H 0.47004 0.66 0.69397 0.0
H1418 H 0.51741 0.65434 0.6874 0.0
H1419 H 0.492 0.64083 0.61735 0.0
H1420 H 0.445 0.64646 0.62374 0.0
H1421 H 0.54034 0.66793 0.62805 0.0
H1422 H 0.49963 0.5993 0.64454 0.0
H1423 H 0.47604 0.57578 0.66712 0.0
H1424 H 0.54259 0.59504 0.71951 0.0
H1425 H 0.5664 0.61893 0.69735 0.0
C1426 C 0.64908 0.62303 0.60537 0.0
C1427 C 0.67072 0.62473 0.62244 0.0
C1428 C 0.62225 0.625 0.61021 0.0
C1429 C 0.61669 0.62891 0.63218 0.0
C1430 C 0.63797 0.62907 0.64914 0.0
C1431 C 0.66479 0.62714 0.64433 0.0
C1432 C 0.58916 0.6341 0.63757 0.0
C1433 C 0.57536 0.62175 0.65112 0.0
C1434 C 0.57646 0.65111 0.62931 0.0
C1435 C 0.5906 0.66577 0.61615 0.0
C1436 C 0.61633 0.67785 0.62449 0.0
C1437 C 0.62966 0.69155 0.61202 0.0
C1438 C 0.61732 0.69344 0.59119 0.0
C1439 C 0.59161 0.68167 0.58283 0.0
C1440 C 0.57823 0.66792 0.59525 0.0
C1441 C 0.47471 0.65605 0.6772 0.0
C1442 C 0.45388 0.65359 0.65937 0.0
C1443 C 0.50166 0.6527 0.67347 0.0
C1444 C 0.50808 0.64695 0.65189 0.0
C1445 C 0.48746 0.64521 0.63412 0.0
C1446 C 0.46061 0.64839 0.63781 0.0
C1447 C 0.53611 0.64232 0.64757 0.0
C1448 C 0.55002 0.65483 0.63427 0.0
C1449 C 0.54887 0.62552 0.65607 0.0
C1450 C 0.53464 0.61109 0.66938 0.0
C1451 C 0.50912 0.59867 0.66095 0.0
C1452 C 0.49573 0.58524 0.67365 0.0
C1453 C 0.50777 0.58397 0.69476 0.0
C1454 C 0.53326 0.59607 0.70318 0.0
C1455 C 0.54672 0.60955 0.69054 0.0
H1456 H 0.49737 0.57356 0.70457 0.0
H1457 H 0.62766 0.70405 0.58154 0.0
H1458 H 0.37054 0.59528 0.71043 0.0
H1459 H 0.35362 0.55866 0.71706 0.0
H1460 H 0.309 0.54365 0.6517 0.0
H1461 H 0.32539 0.58025 0.64512 0.0
H1462 H 0.27797 0.53078 0.68216 0.0
H1463 H 0.37123 0.52553 0.66338 0.0
H1464 H 0.42144 0.53648 0.66895 0.0
H1465 H 0.42566 0.5209 0.73413 0.0
H1466 H 0.37539 0.51015 0.72903 0.0
H1467 H 0.2637 0.41843 0.64119 0.0
H1468 H 0.27125 0.45826 0.652 0.0
H1469 H 0.31239 0.45154 0.7151 0.0
H1470 H 0.30544 0.41141 0.70406 0.0
H1471 H 0.3436 0.47757 0.69607 0.0
H1472 H 0.25116 0.47496 0.71117 0.0
H1473 H 0.20105 0.46377 0.70516 0.0
H1474 H 0.19458 0.49371 0.64735 0.0
H1475 H 0.24471 0.50482 0.6528 0.0
C1476 C 0.35719 0.58412 0.69747 0.0
C1477 C 0.34938 0.59051 0.67721 0.0
C1478 C 0.34752 0.56327 0.7013 0.0
C1479 C 0.33013 0.54848 0.68484 0.0
C1480 C 0.32227 0.5549 0.66465 0.0
C1481 C 0.33181 0.57573 0.66086 0.0
C1482 C 0.32062 0.526 0.68815 0.0
C1483 C 0.29223 0.51906 0.68518 0.0
C1484 C 0.3393 0.51108 0.693 0.0
C1485 C 0.36954 0.5173 0.69593 0.0
C1486 C 0.38285 0.52459 0.67895 0.0
C1487 C 0.41131 0.53074 0.68201 0.0
C1488 C 0.42672 0.52946 0.70191 0.0
C1489 C 0.4137 0.52193 0.71875 0.0
C1490 C 0.38523 0.51581 0.71578 0.0
C1491 C 0.27377 0.42539 0.65757 0.0
C1492 C 0.28421 0.41186 0.67171 0.0
C1493 C 0.27791 0.4482 0.66382 0.0
C1494 C 0.29222 0.45791 0.68444 0.0
C1495 C 0.30125 0.44437 0.69913 0.0
C1496 C 0.29722 0.42148 0.69283 0.0
C1497 C 0.30084 0.48196 0.68914 0.0
C1498 C 0.32914 0.48929 0.69366 0.0
C1499 C 0.28203 0.49722 0.68571 0.0
C1500 C 0.25178 0.49068 0.68239 0.0
C1501 C 0.2391 0.47906 0.6971 0.0
C1502 C 0.21067 0.47274 0.6938 0.0
C1503 C 0.19465 0.47801 0.67588 0.0
C1504 C 0.20702 0.48965 0.66124 0.0
C1505 C 0.23544 0.49601 0.66446 0.0
H1506 H 0.17264 0.47309 0.67335 0.0
H1507 H 0.44875 0.53424 0.70425 0.0
H1508 H 0.60161 0.31433 0.67731 0.0
H1509 H 0.55171 0.31341 0.67611 0.0
H1510 H 0.55911 0.38347 0.67686 0.0
H1511 H 0.60913 0.38456 0.67827 0.0
H1512 H 0.51918 0.37003 0.70141 0.0
H1513 H 0.54526 0.34969 0.62921 0.0
H1514 H 0.56857 0.32854 0.60101 0.0
H1515 H 0.52114 0.26873 0.60865 0.0
H1516 H 0.49788 0.28949 0.63721 0.0
H1517 H 0.38588 0.37966 0.65095 0.0
H1518 H 0.43572 0.37981 0.65815 0.0
H1519 H 0.42425 0.31025 0.66003 0.0
H1520 H 0.37426 0.30998 0.65292 0.0
H1521 H 0.46595 0.32258 0.63519 0.0
H1522 H 0.43829 0.34437 0.70677 0.0
H1523 H 0.41529 0.36658 0.73441 0.0
H1524 H 0.46564 0.42503 0.72684 0.0
H1525 H 0.48869 0.40321 0.69889 0.0
C1526 C 0.59268 0.32961 0.67767 0.0
C1527 C 0.6092 0.34949 0.67766 0.0
C1528 C 0.56417 0.32904 0.6769 0.0
C1529 C 0.55174 0.3483 0.67598 0.0
C1530 C 0.56834 0.36841 0.67746 0.0
C1531 C 0.59688 0.369 0.67825 0.0
C1532 C 0.52144 0.34718 0.67175 0.0
C1533 C 0.50754 0.35982 0.68685 0.0
C1534 C 0.5063 0.33363 0.65286 0.0
C1535 C 0.52005 0.32111 0.63552 0.0
C1536 C 0.53995 0.332 0.62501 0.0
C1537 C 0.55314 0.32009 0.60894 0.0
C1538 C 0.54639 0.2973 0.60308 0.0
C1539 C 0.52638 0.28638 0.61324 0.0
C1540 C 0.51319 0.29821 0.62936 0.0
C1541 C 0.39398 0.36437 0.65277 0.0
C1542 C 0.37623 0.34481 0.65142 0.0
C1543 C 0.42241 0.36451 0.657 0.0
C1544 C 0.43357 0.34509 0.65985 0.0
C1545 C 0.41597 0.32541 0.65794 0.0
C1546 C 0.38748 0.32529 0.65391 0.0
C1547 C 0.46367 0.34539 0.66487 0.0
C1548 C 0.47755 0.33266 0.64984 0.0
C1549 C 0.47878 0.35902 0.68371 0.0
C1550 C 0.46503 0.37218 0.70058 0.0
C1551 C 0.4443 0.36199 0.71085 0.0
C1552 C 0.43128 0.3745 0.7266 0.0
C1553 C 0.43895 0.39721 0.73233 0.0
C1554 C 0.4597 0.40744 0.72236 0.0
C1555 C 0.47277 0.39501 0.70658 0.0
H1556 H 0.42885 0.40687 0.74454 0.0
H1557 H 0.55661 0.2881 0.59063 0.0
H1558 H 0.77989 0.58319 0.65545 0.0
H1559 H 0.78371 0.54583 0.66194 0.0
H1560 H 0.78237 0.52358 0.59207 0.0
H1561 H 0.77657 0.56079 0.58551 0.0
H1562 H 0.74892 0.49769 0.60485 0.0
H1563 H 0.84124 0.52409 0.63288 0.0
H1564 H 0.88061 0.54885 0.65437 0.0
H1565 H 0.84999 0.53788 0.71454 0.0
H1566 H 0.8102 0.51329 0.69343 0.0
H1567 H 0.75437 0.3899 0.62699 0.0
H1568 H 0.77507 0.4249 0.619 0.0
H1569 H 0.7507 0.4592 0.67876 0.0
H1570 H 0.72975 0.42429 0.6868 0.0
H1571 H 0.80477 0.47613 0.66743 0.0
H1572 H 0.70797 0.45447 0.63529 0.0
H1573 H 0.67151 0.42786 0.61218 0.0
H1574 H 0.71673 0.42842 0.55662 0.0
H1575 H 0.75364 0.45483 0.57952 0.0
C1576 C 0.78097 0.57039 0.64154 0.0
C1577 C 0.77782 0.57477 0.61999 0.0
C1578 C 0.78339 0.54901 0.64526 0.0
C1579 C 0.78367 0.53175 0.62753 0.0
C1580 C 0.7821 0.5365 0.60604 0.0
C1581 C 0.77887 0.55776 0.60229 0.0
C1582 C 0.78224 0.50854 0.6312 0.0
C1583 C 0.76176 0.49298 0.6182 0.0
C1584 C 0.79871 0.50213 0.64869 0.0
C1585 C 0.82261 0.51693 0.66153 0.0
C1586 C 0.84278 0.52707 0.65069 0.0
C1587 C 0.8652 0.54106 0.66281 0.0
C1588 C 0.86778 0.54496 0.6858 0.0
C1589 C 0.84797 0.53484 0.69672 0.0
C1590 C 0.82549 0.52084 0.68469 0.0
C1591 C 0.754 0.40483 0.6387 0.0
C1592 C 0.74019 0.40445 0.6574 0.0
C1593 C 0.76587 0.42478 0.63411 0.0
C1594 C 0.76423 0.44457 0.64824 0.0
C1595 C 0.75223 0.44405 0.66773 0.0
C1596 C 0.74014 0.42414 0.67222 0.0
C1597 C 0.77138 0.46594 0.64134 0.0
C1598 C 0.79267 0.48101 0.65378 0.0
C1599 C 0.75619 0.47181 0.62301 0.0
C1600 C 0.73364 0.45644 0.60914 0.0
C1601 C 0.71017 0.44883 0.61817 0.0
C1602 C 0.68943 0.4338 0.60511 0.0
C1603 C 0.69182 0.42643 0.58295 0.0
C1604 C 0.7149 0.43415 0.57378 0.0
C1605 C 0.73573 0.44915 0.58679 0.0
H1606 H 0.67578 0.41474 0.57287 0.0
H1607 H 0.88515 0.5558 0.69515 0.0
H1608 H 0.33868 0.38552 0.33176 0.0
H1609 H 0.38503 0.37649 0.32663 0.0
H1610 H 0.35877 0.30833 0.32871 0.0
H1611 H 0.3127 0.31744 0.33465 0.0
H1612 H 0.4051 0.32062 0.35356 0.0
H1613 H 0.37438 0.32563 0.27846 0.0
H1614 H 0.35446 0.3421 0.24772 0.0
H1615 H 0.41479 0.39897 0.26687 0.0
H1616 H 0.43548 0.38265 0.29746 0.0
H1617 H 0.53394 0.28843 0.325 0.0
H1618 H 0.48433 0.29134 0.32165 0.0
H1619 H 0.50132 0.36192 0.32838 0.0
H1620 H 0.55061 0.35916 0.3317 0.0
H1621 H 0.45842 0.34467 0.2962 0.0
H1622 H 0.48798 0.33964 0.37195 0.0
H1623 H 0.50925 0.32218 0.40142 0.0
H1624 H 0.45017 0.26464 0.38071 0.0
H1625 H 0.42878 0.28166 0.35089 0.0
C1626 C 0.34278 0.3686 0.33101 0.0
C1627 C 0.32209 0.3522 0.33362 0.0
C1628 C 0.36922 0.3634 0.32787 0.0
C1629 C 0.37534 0.34164 0.32695 0.0
C1630 C 0.35456 0.32522 0.32932 0.0
C1631 C 0.32824 0.33045 0.3327 0.0
C1632 C 0.4038 0.33629 0.3249 0.0
C1633 C 0.41653 0.32549 0.34072 0.0
C1634 C 0.41899 0.34296 0.30843 0.0
C1635 C 0.40632 0.353 0.29033 0.0
C1636 C 0.38329 0.34171 0.27619 0.0
C1637 C 0.3719 0.35099 0.25877 0.0
C1638 C 0.38316 0.37165 0.25547 0.0
C1639 C 0.40603 0.38299 0.26947 0.0
C1640 C 0.41771 0.37368 0.28677 0.0
C1641 C 0.52702 0.30451 0.3255 0.0
C1642 C 0.54608 0.32358 0.32874 0.0
C1643 C 0.49875 0.30616 0.32367 0.0
C1644 C 0.48923 0.32688 0.32497 0.0
C1645 C 0.50825 0.3458 0.32734 0.0
C1646 C 0.5364 0.34418 0.32931 0.0
C1647 C 0.45958 0.32918 0.32489 0.0
C1648 C 0.44674 0.3395 0.30877 0.0
C1649 C 0.44426 0.32199 0.34103 0.0
C1650 C 0.45699 0.31181 0.35904 0.0
C1651 C 0.47967 0.32319 0.37357 0.0
C1652 C 0.49172 0.31339 0.39035 0.0
C1653 C 0.48113 0.29229 0.39289 0.0
C1654 C 0.45839 0.28097 0.37869 0.0
C1655 C 0.44629 0.29069 0.36186 0.0
H1656 H 0.49049 0.28473 0.4059 0.0
H1657 H 0.37424 0.37882 0.242 0.0
H1658 H 0.64048 0.36906 0.28817 0.0
H1659 H 0.65514 0.40438 0.27771 0.0
H1660 H 0.70954 0.42309 0.33864 0.0
H1661 H 0.69436 0.38804 0.34944 0.0
H1662 H 0.67763 0.45295 0.33434 0.0
H1663 H 0.73443 0.41498 0.28815 0.0
H1664 H 0.74637 0.38555 0.26028 0.0
H1665 H 0.68905 0.40361 0.21121 0.0
H1666 H 0.67639 0.4329 0.23888 0.0
H1667 H 0.72849 0.55036 0.28285 0.0
H1668 H 0.73078 0.51112 0.28372 0.0
H1669 H 0.64432 0.50247 0.291 0.0
H1670 H 0.64204 0.54152 0.29064 0.0
H1671 H 0.70234 0.46872 0.26237 0.0
H1672 H 0.63826 0.47904 0.3354 0.0
H1673 H 0.62756 0.50896 0.36341 0.0
H1674 H 0.70525 0.54618 0.36053 0.0
H1675 H 0.71669 0.51628 0.33288 0.0
C1676 C 0.65594 0.38055 0.29914 0.0
C1677 C 0.66604 0.37597 0.31973 0.0
C1678 C 0.66447 0.40066 0.29307 0.0
C1679 C 0.68353 0.41636 0.30736 0.0
C1680 C 0.69478 0.41123 0.32739 0.0
C1681 C 0.68606 0.39123 0.33355 0.0
C1682 C 0.68883 0.43904 0.30279 0.0
C1683 C 0.68339 0.45634 0.31869 0.0
C1684 C 0.69661 0.44356 0.28246 0.0
C1685 C 0.70434 0.42608 0.26566 0.0
C1686 C 0.72422 0.41259 0.27146 0.0
C1687 C 0.73114 0.39593 0.25568 0.0
C1688 C 0.71846 0.39269 0.23399 0.0
C1689 C 0.69886 0.40614 0.22802 0.0
C1690 C 0.69183 0.42279 0.24375 0.0
C1691 C 0.70986 0.53992 0.28404 0.0
C1692 C 0.6852 0.54896 0.28709 0.0
C1693 C 0.71118 0.51754 0.28445 0.0
C1694 C 0.68782 0.50409 0.2878 0.0
C1695 C 0.66263 0.51271 0.28868 0.0
C1696 C 0.66137 0.53501 0.28854 0.0
C1697 C 0.69026 0.48215 0.29366 0.0
C1698 C 0.69709 0.46516 0.27809 0.0
C1699 C 0.68427 0.47785 0.31449 0.0
C1700 C 0.67821 0.49548 0.33194 0.0
C1701 C 0.65317 0.49352 0.3409 0.0
C1702 C 0.64696 0.51048 0.35669 0.0
C1703 C 0.66567 0.52948 0.36368 0.0
C1704 C 0.69075 0.53148 0.35505 0.0
C1705 C 0.69711 0.51452 0.33934 0.0
H1706 H 0.6607 0.54263 0.37579 0.0
H1707 H 0.72383 0.37979 0.22181 0.0
H1708 H 0.58557 0.60601 0.28774 0.0
H1709 H 0.53933 0.61419 0.2947 0.0
H1710 H 0.57446 0.66546 0.34898 0.0
H1711 H 0.62064 0.65709 0.34237 0.0
H1712 H 0.53286 0.64067 0.36029 0.0
H1713 H 0.54837 0.67732 0.2992 0.0
H1714 H 0.55987 0.6801 0.2619 0.0
H1715 H 0.49097 0.632 0.23379 0.0
H1716 H 0.47928 0.62871 0.27097 0.0
H1717 H 0.41889 0.69783 0.37792 0.0
H1718 H 0.46322 0.68865 0.36717 0.0
H1719 H 0.42185 0.63495 0.31784 0.0
H1720 H 0.37723 0.64411 0.32848 0.0
H1721 H 0.46521 0.65911 0.30305 0.0
H1722 H 0.44918 0.62344 0.36443 0.0
H1723 H 0.43762 0.62131 0.40184 0.0
H1724 H 0.50784 0.66825 0.42947 0.0
H1725 H 0.5196 0.67091 0.39219 0.0
C1726 C 0.5834 0.61906 0.30112 0.0
C1727 C 0.60668 0.63094 0.3145 0.0
C1728 C 0.557 0.62378 0.30501 0.0
C1729 C 0.55347 0.64059 0.32222 0.0
C1730 C 0.57672 0.65243 0.33561 0.0
C1731 C 0.60308 0.64766 0.33178 0.0
C1732 C 0.52557 0.6456 0.32666 0.0
C1733 C 0.51821 0.64496 0.34783 0.0
C1734 C 0.50618 0.65061 0.31024 0.0
C1735 C 0.51313 0.6526 0.28788 0.0
C1736 C 0.53581 0.6672 0.28508 0.0
C1737 C 0.54233 0.66889 0.26396 0.0
C1738 C 0.52621 0.65619 0.24549 0.0
C1739 C 0.50347 0.64181 0.24811 0.0
C1740 C 0.49688 0.64003 0.2692 0.0
C1741 C 0.41919 0.68417 0.36466 0.0
C1742 C 0.39463 0.67158 0.35412 0.0
C1743 C 0.44453 0.67892 0.35859 0.0
C1744 C 0.44578 0.66096 0.34192 0.0
C1745 C 0.42127 0.64884 0.33079 0.0
C1746 C 0.39585 0.65405 0.33691 0.0
C1747 C 0.47278 0.65448 0.33672 0.0
C1748 C 0.4799 0.65476 0.31544 0.0
C1749 C 0.49203 0.64919 0.35304 0.0
C1750 C 0.48512 0.64752 0.3755 0.0
C1751 C 0.46204 0.63343 0.37847 0.0
C1752 C 0.45547 0.63211 0.39966 0.0
C1753 C 0.47195 0.64467 0.41802 0.0
C1754 C 0.49508 0.65854 0.41523 0.0
C1755 C 0.50172 0.65995 0.39408 0.0
H1756 H 0.46683 0.64363 0.4344 0.0
H1757 H 0.53129 0.65753 0.22916 0.0
H1758 H 0.26907 0.44153 0.38629 0.0
H1759 H 0.26949 0.48143 0.39123 0.0
H1760 H 0.20688 0.47397 0.33553 0.0
H1761 H 0.20643 0.43388 0.33042 0.0
H1762 H 0.25071 0.50353 0.33279 0.0
H1763 H 0.19086 0.491 0.38624 0.0
H1764 H 0.17546 0.47563 0.41781 0.0
H1765 H 0.24638 0.51103 0.45966 0.0
H1766 H 0.26245 0.52637 0.42827 0.0
H1767 H 0.25277 0.61932 0.34897 0.0
H1768 H 0.2344 0.5806 0.34599 0.0
H1769 H 0.29178 0.57508 0.4018 0.0
H1770 H 0.3098 0.61386 0.40516 0.0
H1771 H 0.24261 0.55226 0.40305 0.0
H1772 H 0.30586 0.55949 0.34919 0.0
H1773 H 0.32332 0.57399 0.31782 0.0
H1774 H 0.24744 0.54767 0.27709 0.0
H1775 H 0.22939 0.53326 0.30833 0.0
C1776 C 0.25516 0.44836 0.37524 0.0
C1777 C 0.23779 0.43463 0.35792 0.0
C1778 C 0.2553 0.47115 0.37817 0.0
C1779 C 0.23803 0.48063 0.36387 0.0
C1780 C 0.22027 0.46694 0.34679 0.0
C1781 C 0.22002 0.44408 0.34392 0.0
C1782 C 0.24026 0.50487 0.36582 0.0
C1783 C 0.24827 0.51421 0.34797 0.0
C1784 C 0.23768 0.51872 0.38581 0.0
C1785 C 0.22795 0.50973 0.40483 0.0
C1786 C 0.20328 0.4954 0.40214 0.0
C1787 C 0.19441 0.48671 0.42001 0.0
C1788 C 0.20995 0.49232 0.44072 0.0
C1789 C 0.23436 0.50669 0.44361 0.0
C1790 C 0.24334 0.51542 0.42578 0.0
C1791 C 0.26125 0.6099 0.36074 0.0
C1792 C 0.28291 0.6195 0.37715 0.0
C1793 C 0.25077 0.58779 0.35901 0.0
C1794 C 0.26201 0.57489 0.37348 0.0
C1795 C 0.28282 0.58473 0.39046 0.0
C1796 C 0.29319 0.60685 0.39228 0.0
C1797 C 0.25352 0.55084 0.37014 0.0
C1798 C 0.24444 0.54156 0.38773 0.0
C1799 C 0.2553 0.53697 0.34996 0.0
C1800 C 0.26616 0.54554 0.33115 0.0
C1801 C 0.29283 0.55694 0.33358 0.0
C1802 C 0.30284 0.56512 0.31582 0.0
C1803 C 0.28646 0.56182 0.29549 0.0
C1804 C 0.26007 0.55027 0.29286 0.0
C1805 C 0.24995 0.54208 0.31058 0.0
H1806 H 0.29425 0.56816 0.28176 0.0
H1807 H 0.20307 0.48555 0.45453 0.0
loop_
_geom_bond_atom_site_label_1
_geom_bond_atom_site_label_2
_geom_bond_distance
_geom_bond_site_symmetry_2
_ccdc_geom_bond_type
In0 O1 2.294 . S
In0 O2 2.326 . S
In0 O6 2.266 . S
In0 O7 2.326 . S
In0 O8 2.266 . S
In0 O9 2.326 . S
In0 O11 2.294 . S
In0 O12 2.326 . S
O1 In0 2.294 . S
O1 C10 1.240 . S
O2 In0 2.326 . S
O2 C10 1.252 . S
C3 O6 1.252 . S
C3 O7 1.260 . S
C4 O11 1.240 . S
C4 O12 1.252 . S
C5 O8 1.252 . S
C5 O9 1.260 . S
O6 In0 2.266 . S
O6 C3 1.252 . S
O7 In0 2.326 . S
O7 C3 1.260 . S
O8 In0 2.266 . S
O8 C5 1.252 . S
O9 In0 2.326 . S
O9 C5 1.260 . S
C10 O1 1.240 . S
C10 O2 1.252 . S
O11 In0 2.294 . S
O11 C4 1.240 . S
O12 In0 2.326 . S
O12 C4 1.252 . S
In13 O14 2.294 . S
In13 O15 2.326 . S
In13 O19 2.266 . S
In13 O20 2.326 . S
In13 O21 2.266 . S
In13 O22 2.326 . S
In13 O24 2.294 . S
In13 O25 2.326 . S
O14 In13 2.294 . S
O14 C23 1.240 . S
O15 In13 2.326 . S
O15 C23 1.252 . S
C16 O19 1.252 . S
C16 O20 1.260 . S
C17 O24 1.240 . S
C17 O25 1.252 . S
C18 O21 1.252 . S
C18 O22 1.260 . S
O19 In13 2.266 . S
O19 C16 1.252 . S
O20 In13 2.326 . S
O20 C16 1.260 . S
O21 In13 2.266 . S
O21 C18 1.252 . S
O22 In13 2.326 . S
O22 C18 1.260 . S
C23 O14 1.240 . S
C23 O15 1.252 . S
O24 In13 2.294 . S
O24 C17 1.240 . S
O25 In13 2.326 . S
O25 C17 1.252 . S
In26 O27 2.294 . S
In26 O28 2.326 . S
In26 O32 2.266 . S
In26 O33 2.326 . S
In26 O34 2.266 . S
In26 O35 2.326 . S
In26 O37 2.294 . S
In26 O38 2.326 . S
O27 In26 2.294 . S
O27 C36 1.240 . S
O28 In26 2.326 . S
O28 C36 1.252 . S
C29 O32 1.252 . S
C29 O33 1.260 . S
C30 O37 1.240 . S
C30 O38 1.252 . S
C31 O34 1.252 . S
C31 O35 1.260 . S
O32 In26 2.266 . S
O32 C29 1.252 . S
O33 In26 2.326 . S
O33 C29 1.260 . S
O34 In26 2.266 . S
O34 C31 1.252 . S
O35 In26 2.326 . S
O35 C31 1.260 . S
C36 O27 1.240 . S
C36 O28 1.252 . S
O37 In26 2.294 . S
O37 C30 1.240 . S
O38 In26 2.326 . S
O38 C30 1.252 . S
In39 O40 2.294 . S
In39 O41 2.326 . S
In39 O45 2.266 . S
In39 O46 2.326 . S
In39 O47 2.266 . S
In39 O48 2.326 . S
In39 O50 2.294 . S
In39 O51 2.326 . S
O40 In39 2.294 . S
O40 C49 1.240 . S
O41 In39 2.326 . S
O41 C49 1.252 . S
C42 O45 1.252 . S
C42 O46 1.260 . S
C43 O50 1.240 . S
C43 O51 1.252 . S
C44 O47 1.252 . S
C44 O48 1.260 . S
O45 In39 2.266 . S
O45 C42 1.252 . S
O46 In39 2.326 . S
O46 C42 1.260 . S
O47 In39 2.266 . S
O47 C44 1.252 . S
O48 In39 2.326 . S
O48 C44 1.260 . S
C49 O40 1.240 . S
C49 O41 1.252 . S
O50 In39 2.294 . S
O50 C43 1.240 . S
O51 In39 2.326 . S
O51 C43 1.252 . S
In52 O53 2.294 . S
In52 O54 2.326 . S
In52 O58 2.266 . S
In52 O59 2.326 . S
In52 O60 2.266 . S
In52 O61 2.326 . S
In52 O63 2.294 . S
In52 O64 2.326 . S
O53 In52 2.294 . S
O53 C62 1.240 . S
O54 In52 2.326 . S
O54 C62 1.252 . S
C55 O58 1.252 . S
C55 O59 1.260 . S
C56 O63 1.240 . S
C56 O64 1.252 . S
C57 O60 1.252 . S
C57 O61 1.260 . S
O58 In52 2.266 . S
O58 C55 1.252 . S
O59 In52 2.326 . S
O59 C55 1.260 . S
O60 In52 2.266 . S
O60 C57 1.252 . S
O61 In52 2.326 . S
O61 C57 1.260 . S
C62 O53 1.240 . S
C62 O54 1.252 . S
O63 In52 2.294 . S
O63 C56 1.240 . S
O64 In52 2.326 . S
O64 C56 1.252 . S
In65 O66 2.294 . S
In65 O67 2.326 . S
In65 O71 2.266 . S
In65 O72 2.326 . S
In65 O73 2.266 . S
In65 O74 2.326 . S
In65 O76 2.294 . S
In65 O77 2.326 . S
O66 In65 2.294 . S
O66 C75 1.240 . S
O67 In65 2.326 . S
O67 C75 1.252 . S
C68 O71 1.252 . S
C68 O72 1.260 . S
C69 O76 1.240 . S
C69 O77 1.252 . S
C70 O73 1.252 . S
C70 O74 1.260 . S
O71 In65 2.266 . S
O71 C68 1.252 . S
O72 In65 2.326 . S
O72 C68 1.260 . S
O73 In65 2.266 . S
O73 C70 1.252 . S
O74 In65 2.326 . S
O74 C70 1.260 . S
C75 O66 1.240 . S
C75 O67 1.252 . S
O76 In65 2.294 . S
O76 C69 1.240 . S
O77 In65 2.326 . S
O77 C69 1.252 . S
In78 O79 2.294 . S
In78 O80 2.326 . S
In78 O84 2.266 . S
In78 O85 2.326 . S
In78 O86 2.266 . S
In78 O87 2.326 . S
In78 O89 2.294 . S
In78 O90 2.326 . S
O79 In78 2.294 . S
O79 C88 1.240 . S
O80 In78 2.326 . S
O80 C88 1.252 . S
C81 O84 1.252 . S
C81 O85 1.260 . S
C82 O89 1.240 . S
C82 O90 1.252 . S
C83 O86 1.252 . S
C83 O87 1.260 . S
O84 In78 2.266 . S
O84 C81 1.252 . S
O85 In78 2.326 . S
O85 C81 1.260 . S
O86 In78 2.266 . S
O86 C83 1.252 . S
O87 In78 2.326 . S
O87 C83 1.260 . S
C88 O79 1.240 . S
C88 O80 1.252 . S
O89 In78 2.294 . S
O89 C82 1.240 . S
O90 In78 2.326 . S
O90 C82 1.252 . S
In91 O92 2.294 . S
In91 O93 2.326 . S
In91 O97 2.266 . S
In91 O98 2.326 . S
In91 O99 2.266 . S
In91 O100 2.326 . S
In91 O102 2.294 . S
In91 O103 2.326 . S
O92 In91 2.294 . S
O92 C101 1.240 . S
O93 In91 2.326 . S
O93 C101 1.252 . S
C94 O97 1.252 . S
C94 O98 1.260 . S
C95 O102 1.240 . S
C95 O103 1.252 . S
C96 O99 1.252 . S
C96 O100 1.260 . S
O97 In91 2.266 . S
O97 C94 1.252 . S
O98 In91 2.326 . S
O98 C94 1.260 . S
O99 In91 2.266 . S
O99 C96 1.252 . S
O100 In91 2.326 . S
O100 C96 1.260 . S
C101 O92 1.240 . S
C101 O93 1.252 . S
O102 In91 2.294 . S
O102 C95 1.240 . S
O103 In91 2.326 . S
O103 C95 1.252 . S
In104 O105 2.294 . S
In104 O106 2.326 . S
In104 O110 2.266 . S
In104 O111 2.326 . S
In104 O112 2.266 . S
In104 O113 2.326 . S
In104 O115 2.294 . S
In104 O116 2.326 . S
O105 In104 2.294 . S
O105 C114 1.240 . S
O106 In104 2.326 . S
O106 C114 1.252 . S
C107 O110 1.252 . S
C107 O111 1.260 . S
C108 O115 1.240 . S
C108 O116 1.252 . S
C109 O112 1.252 . S
C109 O113 1.260 . S
O110 In104 2.266 . S
O110 C107 1.252 . S
O111 In104 2.326 . S
O111 C107 1.260 . S
O112 In104 2.266 . S
O112 C109 1.252 . S
O113 In104 2.326 . S
O113 C109 1.260 . S
C114 O105 1.240 . S
C114 O106 1.252 . S
O115 In104 2.294 . S
O115 C108 1.240 . S
O116 In104 2.326 . S
O116 C108 1.252 . S
In117 O118 2.294 . S
In117 O119 2.326 . S
In117 O123 2.266 . S
In117 O124 2.326 . S
In117 O125 2.266 . S
In117 O126 2.326 . S
In117 O128 2.294 . S
In117 O129 2.326 . S
O118 In117 2.294 . S
O118 C127 1.240 . S
O119 In117 2.326 . S
O119 C127 1.252 . S
C120 O123 1.252 . S
C120 O124 1.260 . S
C121 O128 1.240 . S
C121 O129 1.252 . S
C122 O125 1.252 . S
C122 O126 1.260 . S
O123 In117 2.266 . S
O123 C120 1.252 . S
O124 In117 2.326 . S
O124 C120 1.260 . S
O125 In117 2.266 . S
O125 C122 1.252 . S
O126 In117 2.326 . S
O126 C122 1.260 . S
C127 O118 1.240 . S
C127 O119 1.252 . S
O128 In117 2.294 . S
O128 C121 1.240 . S
O129 In117 2.326 . S
O129 C121 1.252 . S
In130 O131 2.294 . S
In130 O132 2.326 . S
In130 O136 2.266 . S
In130 O137 2.326 . S
In130 O138 2.266 . S
In130 O139 2.326 . S
In130 O141 2.294 . S
In130 O142 2.326 . S
O131 In130 2.294 . S
O131 C140 1.240 . S
O132 In130 2.326 . S
O132 C140 1.252 . S
C133 O136 1.252 . S
C133 O137 1.260 . S
C134 O141 1.240 . S
C134 O142 1.252 . S
C135 O138 1.252 . S
C135 O139 1.260 . S
O136 In130 2.266 . S
O136 C133 1.252 . S
O137 In130 2.326 . S
O137 C133 1.260 . S
O138 In130 2.266 . S
O138 C135 1.252 . S
O139 In130 2.326 . S
O139 C135 1.260 . S
C140 O131 1.240 . S
C140 O132 1.252 . S
O141 In130 2.294 . S
O141 C134 1.240 . S
O142 In130 2.326 . S
O142 C134 1.252 . S
In143 O144 2.294 . S
In143 O145 2.326 . S
In143 O149 2.266 . S
In143 O150 2.326 . S
In143 O151 2.266 . S
In143 O152 2.326 . S
In143 O154 2.294 . S
In143 O155 2.326 . S
O144 In143 2.294 . S
O144 C153 1.240 . S
O145 In143 2.326 . S
O145 C153 1.252 . S
C146 O149 1.252 . S
C146 O150 1.260 . S
C147 O154 1.240 . S
C147 O155 1.252 . S
C148 O151 1.252 . S
C148 O152 1.260 . S
O149 In143 2.266 . S
O149 C146 1.252 . S
O150 In143 2.326 . S
O150 C146 1.260 . S
O151 In143 2.266 . S
O151 C148 1.252 . S
O152 In143 2.326 . S
O152 C148 1.260 . S
C153 O144 1.240 . S
C153 O145 1.252 . S
O154 In143 2.294 . S
O154 C147 1.240 . S
O155 In143 2.326 . S
O155 C147 1.252 . S
In156 O157 2.294 . S
In156 O158 2.326 . S
In156 O162 2.266 . S
In156 O163 2.326 . S
In156 O164 2.266 . S
In156 O165 2.326 . S
In156 O167 2.294 . S
In156 O168 2.326 . S
O157 In156 2.294 . S
O157 C166 1.240 . S
O158 In156 2.326 . S
O158 C166 1.252 . S
C159 O162 1.252 . S
C159 O163 1.260 . S
C160 O167 1.240 . S
C160 O168 1.252 . S
C161 O164 1.252 . S
C161 O165 1.260 . S
O162 In156 2.266 . S
O162 C159 1.252 . S
O163 In156 2.326 . S
O163 C159 1.260 . S
O164 In156 2.266 . S
O164 C161 1.252 . S
O165 In156 2.326 . S
O165 C161 1.260 . S
C166 O157 1.240 . S
C166 O158 1.252 . S
O167 In156 2.294 . S
O167 C160 1.240 . S
O168 In156 2.326 . S
O168 C160 1.252 . S
In169 O170 2.294 . S
In169 O171 2.326 . S
In169 O175 2.266 . S
In169 O176 2.326 . S
In169 O177 2.266 . S
In169 O178 2.326 . S
In169 O180 2.294 . S
In169 O181 2.326 . S
O170 In169 2.294 . S
O170 C179 1.240 . S
O171 In169 2.326 . S
O171 C179 1.252 . S
C172 O175 1.252 . S
C172 O176 1.260 . S
C173 O180 1.240 . S
C173 O181 1.252 . S
C174 O177 1.252 . S
C174 O178 1.260 . S
O175 In169 2.266 . S
O175 C172 1.252 . S
O176 In169 2.326 . S
O176 C172 1.260 . S
O177 In169 2.266 . S
O177 C174 1.252 . S
O178 In169 2.326 . S
O178 C174 1.260 . S
C179 O170 1.240 . S
C179 O171 1.252 . S
O180 In169 2.294 . S
O180 C173 1.240 . S
O181 In169 2.326 . S
O181 C173 1.252 . S
In182 O183 2.294 . S
In182 O184 2.326 . S
In182 O188 2.266 . S
In182 O189 2.326 . S
In182 O190 2.266 . S
In182 O191 2.326 . S
In182 O193 2.294 . S
In182 O194 2.326 . S
O183 In182 2.294 . S
O183 C192 1.240 . S
O184 In182 2.326 . S
O184 C192 1.252 . S
C185 O188 1.252 . S
C185 O189 1.260 . S
C186 O193 1.240 . S
C186 O194 1.252 . S
C187 O190 1.252 . S
C187 O191 1.260 . S
O188 In182 2.266 . S
O188 C185 1.252 . S
O189 In182 2.326 . S
O189 C185 1.260 . S
O190 In182 2.266 . S
O190 C187 1.252 . S
O191 In182 2.326 . S
O191 C187 1.260 . S
C192 O183 1.240 . S
C192 O184 1.252 . S
O193 In182 2.294 . S
O193 C186 1.240 . S
O194 In182 2.326 . S
O194 C186 1.252 . S
In195 O196 2.294 . S
In195 O197 2.326 . S
In195 O201 2.266 . S
In195 O202 2.326 . S
In195 O203 2.266 . S
In195 O204 2.326 . S
In195 O206 2.294 . S
In195 O207 2.326 . S
O196 In195 2.294 . S
O196 C205 1.240 . S
O197 In195 2.326 . S
O197 C205 1.252 . S
C198 O201 1.252 . S
C198 O202 1.260 . S
C199 O206 1.240 . S
C199 O207 1.252 . S
C200 O203 1.252 . S
C200 O204 1.260 . S
O201 In195 2.266 . S
O201 C198 1.252 . S
O202 In195 2.326 . S
O202 C198 1.260 . S
O203 In195 2.266 . S
O203 C200 1.252 . S
O204 In195 2.326 . S
O204 C200 1.260 . S
C205 O196 1.240 . S
C205 O197 1.252 . S
O206 In195 2.294 . S
O206 C199 1.240 . S
O207 In195 2.326 . S
O207 C199 1.252 . S
H208 C226 0.951 . S
H209 C228 0.951 . S
H210 C230 0.950 . S
H211 C231 0.950 . S
H212 C233 0.950 . S
H213 C236 0.950 . S
H214 C237 0.950 . S
H215 C239 0.950 . S
H216 C240 0.950 . S
H217 C241 0.951 . S
H218 C243 0.951 . S
H219 C245 0.950 . S
H220 C246 0.950 . S
H221 C248 0.950 . S
H222 C251 0.950 . S
H223 C252 0.950 . S
H224 C254 0.950 . S
H225 C255 0.950 . S
C226 H208 0.951 . S
C226 C227 1.366 . S
C226 C228 1.388 . S
C227 C226 1.366 . S
C227 C231 1.385 . S
C228 H209 0.951 . S
C228 C226 1.388 . S
C228 C229 1.366 . S
C229 C228 1.366 . S
C229 C230 1.414 . S
C229 C232 1.499 . S
C230 H210 0.950 . S
C230 C229 1.414 . S
C230 C231 1.374 . S
C231 H211 0.950 . S
C231 C227 1.385 . S
C231 C230 1.374 . S
C232 C229 1.499 . S
C232 C233 1.373 . S
C232 C234 1.389 . S
C233 H212 0.950 . S
C233 C232 1.373 . S
C233 C249 1.377 . S
C234 C232 1.389 . S
C234 C235 1.524 . S
C234 C248 1.377 . S
C235 C234 1.524 . S
C235 C236 1.397 . S
C235 C240 1.363 . S
C236 H213 0.950 . S
C236 C235 1.397 . S
C236 C237 1.334 . S
C237 H214 0.950 . S
C237 C236 1.334 . S
C237 C238 1.287 . S
C238 C237 1.287 . S
C238 C239 1.524 . S
C238 H257 0.913 . S
C239 H215 0.950 . S
C239 C238 1.524 . S
C239 C240 1.415 . S
C240 H216 0.950 . S
C240 C235 1.363 . S
C240 C239 1.415 . S
C241 H217 0.951 . S
C241 C242 1.366 . S
C241 C243 1.388 . S
C242 C241 1.366 . S
C242 C246 1.385 . S
C243 H218 0.951 . S
C243 C241 1.388 . S
C243 C244 1.366 . S
C244 C243 1.366 . S
C244 C245 1.414 . S
C244 C247 1.499 . S
C245 H219 0.950 . S
C245 C244 1.414 . S
C245 C246 1.374 . S
C246 H220 0.950 . S
C246 C242 1.385 . S
C246 C245 1.374 . S
C247 C244 1.499 . S
C247 C248 1.373 . S
C247 C249 1.389 . S
C248 H221 0.950 . S
C248 C234 1.377 . S
C248 C247 1.373 . S
C249 C233 1.377 . S
C249 C247 1.389 . S
C249 C250 1.524 . S
C250 C249 1.524 . S
C250 C251 1.397 . S
C250 C255 1.363 . S
C251 H222 0.950 . S
C251 C250 1.397 . S
C251 C252 1.334 . S
C252 H223 0.950 . S
C252 C251 1.334 . S
C252 C253 1.287 . S
C253 C252 1.287 . S
C253 C254 1.524 . S
C253 H256 0.999 . S
C254 H224 0.950 . S
C254 C253 1.524 . S
C254 C255 1.415 . S
C255 H225 0.950 . S
C255 C250 1.363 . S
C255 C254 1.415 . S
H256 C253 0.999 . S
H257 C238 0.913 . S
H258 C276 0.951 . S
H259 C278 0.951 . S
H260 C280 0.950 . S
H261 C281 0.950 . S
H262 C283 0.950 . S
H263 C286 0.950 . S
H264 C287 0.950 . S
H265 C289 0.950 . S
H266 C290 0.950 . S
H267 C291 0.951 . S
H268 C293 0.951 . S
H269 C295 0.950 . S
H270 C296 0.950 . S
H271 C298 0.950 . S
H272 C301 0.950 . S
H273 C302 0.950 . S
H274 C304 0.950 . S
H275 C305 0.950 . S
C276 H258 0.951 . S
C276 C277 1.366 . S
C276 C278 1.388 . S
C277 C276 1.366 . S
C277 C281 1.385 . S
C278 H259 0.951 . S
C278 C276 1.388 . S
C278 C279 1.366 . S
C279 C278 1.366 . S
C279 C280 1.414 . S
C279 C282 1.499 . S
C280 H260 0.950 . S
C280 C279 1.414 . S
C280 C281 1.374 . S
C281 H261 0.950 . S
C281 C277 1.385 . S
C281 C280 1.374 . S
C282 C279 1.499 . S
C282 C283 1.373 . S
C282 C284 1.389 . S
C283 H262 0.950 . S
C283 C282 1.373 . S
C283 C299 1.377 . S
C284 C282 1.389 . S
C284 C285 1.524 . S
C284 C298 1.377 . S
C285 C284 1.524 . S
C285 C286 1.397 . S
C285 C290 1.363 . S
C286 H263 0.950 . S
C286 C285 1.397 . S
C286 C287 1.334 . S
C287 H264 0.950 . S
C287 C286 1.334 . S
C287 C288 1.287 . S
C288 C287 1.287 . S
C288 C289 1.524 . S
C288 H307 0.913 . S
C289 H265 0.950 . S
C289 C288 1.524 . S
C289 C290 1.415 . S
C290 H266 0.950 . S
C290 C285 1.363 . S
C290 C289 1.415 . S
C291 H267 0.951 . S
C291 C292 1.366 . S
C291 C293 1.388 . S
C292 C291 1.366 . S
C292 C296 1.385 . S
C293 H268 0.951 . S
C293 C291 1.388 . S
C293 C294 1.366 . S
C294 C293 1.366 . S
C294 C295 1.414 . S
C294 C297 1.499 . S
C295 H269 0.950 . S
C295 C294 1.414 . S
C295 C296 1.374 . S
C296 H270 0.950 . S
C296 C292 1.385 . S
C296 C295 1.374 . S
C297 C294 1.499 . S
C297 C298 1.373 . S
C297 C299 1.389 . S
C298 H271 0.950 . S
C298 C284 1.377 . S
C298 C297 1.373 . S
C299 C283 1.377 . S
C299 C297 1.389 . S
C299 C300 1.524 . S
C300 C299 1.524 . S
C300 C301 1.397 . S
C300 C305 1.363 . S
C301 H272 0.950 . S
C301 C300 1.397 . S
C301 C302 1.334 . S
C302 H273 0.950 . S
C302 C301 1.334 . S
C302 C303 1.287 . S
C303 C302 1.287 . S
C303 C304 1.524 . S
C303 H306 0.999 . S
C304 H274 0.950 . S
C304 C303 1.524 . S
C304 C305 1.415 . S
C305 H275 0.950 . S
C305 C300 1.363 . S
C305 C304 1.415 . S
H306 C303 0.999 . S
H307 C288 0.913 . S
H308 C326 0.951 . S
H309 C328 0.951 . S
H310 C330 0.950 . S
H311 C331 0.950 . S
H312 C333 0.950 . S
H313 C336 0.950 . S
H314 C337 0.950 . S
H315 C339 0.950 . S
H316 C340 0.950 . S
H317 C341 0.951 . S
H318 C343 0.951 . S
H319 C345 0.950 . S
H320 C346 0.950 . S
H321 C348 0.950 . S
H322 C351 0.950 . S
H323 C352 0.950 . S
H324 C354 0.950 . S
H325 C355 0.950 . S
C326 H308 0.951 . S
C326 C327 1.366 . S
C326 C328 1.388 . S
C327 C326 1.366 . S
C327 C331 1.385 . S
C328 H309 0.951 . S
C328 C326 1.388 . S
C328 C329 1.366 . S
C329 C328 1.366 . S
C329 C330 1.414 . S
C329 C332 1.499 . S
C330 H310 0.950 . S
C330 C329 1.414 . S
C330 C331 1.374 . S
C331 H311 0.950 . S
C331 C327 1.385 . S
C331 C330 1.374 . S
C332 C329 1.499 . S
C332 C333 1.373 . S
C332 C334 1.389 . S
C333 H312 0.950 . S
C333 C332 1.373 . S
C333 C349 1.377 . S
C334 C332 1.389 . S
C334 C335 1.524 . S
C334 C348 1.377 . S
C335 C334 1.524 . S
C335 C336 1.397 . S
C335 C340 1.363 . S
C336 H313 0.950 . S
C336 C335 1.397 . S
C336 C337 1.334 . S
C337 H314 0.950 . S
C337 C336 1.334 . S
C337 C338 1.287 . S
C338 C337 1.287 . S
C338 C339 1.524 . S
C338 H357 0.913 . S
C339 H315 0.950 . S
C339 C338 1.524 . S
C339 C340 1.415 . S
C340 H316 0.950 . S
C340 C335 1.363 . S
C340 C339 1.415 . S
C341 H317 0.951 . S
C341 C342 1.366 . S
C341 C343 1.388 . S
C342 C341 1.366 . S
C342 C346 1.385 . S
C343 H318 0.951 . S
C343 C341 1.388 . S
C343 C344 1.366 . S
C344 C343 1.366 . S
C344 C345 1.414 . S
C344 C347 1.499 . S
C345 H319 0.950 . S
C345 C344 1.414 . S
C345 C346 1.374 . S
C346 H320 0.950 . S
C346 C342 1.385 . S
C346 C345 1.374 . S
C347 C344 1.499 . S
C347 C348 1.373 . S
C347 C349 1.389 . S
C348 H321 0.950 . S
C348 C334 1.377 . S
C348 C347 1.373 . S
C349 C333 1.377 . S
C349 C347 1.389 . S
C349 C350 1.524 . S
C350 C349 1.524 . S
C350 C351 1.397 . S
C350 C355 1.363 . S
C351 H322 0.950 . S
C351 C350 1.397 . S
C351 C352 1.334 . S
C352 H323 0.950 . S
C352 C351 1.334 . S
C352 C353 1.287 . S
C353 C352 1.287 . S
C353 C354 1.524 . S
C353 H356 0.999 . S
C354 H324 0.950 . S
C354 C353 1.524 . S
C354 C355 1.415 . S
C355 H325 0.950 . S
C355 C350 1.363 . S
C355 C354 1.415 . S
H356 C353 0.999 . S
H357 C338 0.913 . S
H358 C376 0.951 . S
H359 C378 0.951 . S
H360 C380 0.950 . S
H361 C381 0.950 . S
H362 C383 0.950 . S
H363 C386 0.950 . S
H364 C387 0.950 . S
H365 C389 0.950 . S
H366 C390 0.950 . S
H367 C391 0.951 . S
H368 C393 0.951 . S
H369 C395 0.950 . S
H370 C396 0.950 . S
H371 C398 0.950 . S
H372 C401 0.950 . S
H373 C402 0.950 . S
H374 C404 0.950 . S
H375 C405 0.950 . S
C376 H358 0.951 . S
C376 C377 1.366 . S
C376 C378 1.388 . S
C377 C376 1.366 . S
C377 C381 1.385 . S
C378 H359 0.951 . S
C378 C376 1.388 . S
C378 C379 1.366 . S
C379 C378 1.366 . S
C379 C380 1.414 . S
C379 C382 1.499 . S
C380 H360 0.950 . S
C380 C379 1.414 . S
C380 C381 1.374 . S
C381 H361 0.950 . S
C381 C377 1.385 . S
C381 C380 1.374 . S
C382 C379 1.499 . S
C382 C383 1.373 . S
C382 C384 1.389 . S
C383 H362 0.950 . S
C383 C382 1.373 . S
C383 C399 1.377 . S
C384 C382 1.389 . S
C384 C385 1.524 . S
C384 C398 1.377 . S
C385 C384 1.524 . S
C385 C386 1.397 . S
C385 C390 1.363 . S
C386 H363 0.950 . S
C386 C385 1.397 . S
C386 C387 1.334 . S
C387 H364 0.950 . S
C387 C386 1.334 . S
C387 C388 1.287 . S
C388 C387 1.287 . S
C388 C389 1.524 . S
C388 H407 0.913 . S
C389 H365 0.950 . S
C389 C388 1.524 . S
C389 C390 1.415 . S
C390 H366 0.950 . S
C390 C385 1.363 . S
C390 C389 1.415 . S
C391 H367 0.951 . S
C391 C392 1.366 . S
C391 C393 1.388 . S
C392 C391 1.366 . S
C392 C396 1.385 . S
C393 H368 0.951 . S
C393 C391 1.388 . S
C393 C394 1.366 . S
C394 C393 1.366 . S
C394 C395 1.414 . S
C394 C397 1.499 . S
C395 H369 0.950 . S
C395 C394 1.414 . S
C395 C396 1.374 . S
C396 H370 0.950 . S
C396 C392 1.385 . S
C396 C395 1.374 . S
C397 C394 1.499 . S
C397 C398 1.373 . S
C397 C399 1.389 . S
C398 H371 0.950 . S
C398 C384 1.377 . S
C398 C397 1.373 . S
C399 C383 1.377 . S
C399 C397 1.389 . S
C399 C400 1.524 . S
C400 C399 1.524 . S
C400 C401 1.397 . S
C400 C405 1.363 . S
C401 H372 0.950 . S
C401 C400 1.397 . S
C401 C402 1.334 . S
C402 H373 0.950 . S
C402 C401 1.334 . S
C402 C403 1.287 . S
C403 C402 1.287 . S
C403 C404 1.524 . S
C403 H406 0.999 . S
C404 H374 0.950 . S
C404 C403 1.524 . S
C404 C405 1.415 . S
C405 H375 0.950 . S
C405 C400 1.363 . S
C405 C404 1.415 . S
H406 C403 0.999 . S
H407 C388 0.913 . S
H408 C426 0.951 . S
H409 C428 0.951 . S
H410 C430 0.950 . S
H411 C431 0.950 . S
H412 C433 0.950 . S
H413 C436 0.950 . S
H414 C437 0.950 . S
H415 C439 0.950 . S
H416 C440 0.950 . S
H417 C441 0.951 . S
H418 C443 0.951 . S
H419 C445 0.950 . S
H420 C446 0.950 . S
H421 C448 0.950 . S
H422 C451 0.950 . S
H423 C452 0.950 . S
H424 C454 0.950 . S
H425 C455 0.950 . S
C426 H408 0.951 . S
C426 C427 1.366 . S
C426 C428 1.388 . S
C427 C426 1.366 . S
C427 C431 1.385 . S
C428 H409 0.951 . S
C428 C426 1.388 . S
C428 C429 1.366 . S
C429 C428 1.366 . S
C429 C430 1.414 . S
C429 C432 1.499 . S
C430 H410 0.950 . S
C430 C429 1.414 . S
C430 C431 1.374 . S
C431 H411 0.950 . S
C431 C427 1.385 . S
C431 C430 1.374 . S
C432 C429 1.499 . S
C432 C433 1.373 . S
C432 C434 1.389 . S
C433 H412 0.950 . S
C433 C432 1.373 . S
C433 C449 1.377 . S
C434 C432 1.389 . S
C434 C435 1.524 . S
C434 C448 1.377 . S
C435 C434 1.524 . S
C435 C436 1.397 . S
C435 C440 1.363 . S
C436 H413 0.950 . S
C436 C435 1.397 . S
C436 C437 1.334 . S
C437 H414 0.950 . S
C437 C436 1.334 . S
C437 C438 1.287 . S
C438 C437 1.287 . S
C438 C439 1.524 . S
C438 H457 0.913 . S
C439 H415 0.950 . S
C439 C438 1.524 . S
C439 C440 1.415 . S
C440 H416 0.950 . S
C440 C435 1.363 . S
C440 C439 1.415 . S
C441 H417 0.951 . S
C441 C442 1.366 . S
C441 C443 1.388 . S
C442 C441 1.366 . S
C442 C446 1.385 . S
C443 H418 0.951 . S
C443 C441 1.388 . S
C443 C444 1.366 . S
C444 C443 1.366 . S
C444 C445 1.414 . S
C444 C447 1.499 . S
C445 H419 0.950 . S
C445 C444 1.414 . S
C445 C446 1.374 . S
C446 H420 0.950 . S
C446 C442 1.385 . S
C446 C445 1.374 . S
C447 C444 1.499 . S
C447 C448 1.373 . S
C447 C449 1.389 . S
C448 H421 0.950 . S
C448 C434 1.377 . S
C448 C447 1.373 . S
C449 C433 1.377 . S
C449 C447 1.389 . S
C449 C450 1.524 . S
C450 C449 1.524 . S
C450 C451 1.397 . S
C450 C455 1.363 . S
C451 H422 0.950 . S
C451 C450 1.397 . S
C451 C452 1.334 . S
C452 H423 0.950 . S
C452 C451 1.334 . S
C452 C453 1.287 . S
C453 C452 1.287 . S
C453 C454 1.524 . S
C453 H456 0.999 . S
C454 H424 0.950 . S
C454 C453 1.524 . S
C454 C455 1.415 . S
C455 H425 0.950 . S
C455 C450 1.363 . S
C455 C454 1.415 . S
H456 C453 0.999 . S
H457 C438 0.913 . S
H458 C476 0.951 . S
H459 C478 0.951 . S
H460 C480 0.950 . S
H461 C481 0.950 . S
H462 C483 0.950 . S
H463 C486 0.950 . S
H464 C487 0.950 . S
H465 C489 0.950 . S
H466 C490 0.950 . S
H467 C491 0.951 . S
H468 C493 0.951 . S
H469 C495 0.950 . S
H470 C496 0.950 . S
H471 C498 0.950 . S
H472 C501 0.950 . S
H473 C502 0.950 . S
H474 C504 0.950 . S
H475 C505 0.950 . S
C476 H458 0.951 . S
C476 C477 1.366 . S
C476 C478 1.388 . S
C477 C476 1.366 . S
C477 C481 1.385 . S
C478 H459 0.951 . S
C478 C476 1.388 . S
C478 C479 1.366 . S
C479 C478 1.366 . S
C479 C480 1.414 . S
C479 C482 1.499 . S
C480 H460 0.950 . S
C480 C479 1.414 . S
C480 C481 1.374 . S
C481 H461 0.950 . S
C481 C477 1.385 . S
C481 C480 1.374 . S
C482 C479 1.499 . S
C482 C483 1.373 . S
C482 C484 1.389 . S
C483 H462 0.950 . S
C483 C482 1.373 . S
C483 C499 1.377 . S
C484 C482 1.389 . S
C484 C485 1.524 . S
C484 C498 1.377 . S
C485 C484 1.524 . S
C485 C486 1.397 . S
C485 C490 1.363 . S
C486 H463 0.950 . S
C486 C485 1.397 . S
C486 C487 1.334 . S
C487 H464 0.950 . S
C487 C486 1.334 . S
C487 C488 1.287 . S
C488 C487 1.287 . S
C488 C489 1.524 . S
C488 H507 0.913 . S
C489 H465 0.950 . S
C489 C488 1.524 . S
C489 C490 1.415 . S
C490 H466 0.950 . S
C490 C485 1.363 . S
C490 C489 1.415 . S
C491 H467 0.951 . S
C491 C492 1.366 . S
C491 C493 1.388 . S
C492 C491 1.366 . S
C492 C496 1.385 . S
C493 H468 0.951 . S
C493 C491 1.388 . S
C493 C494 1.366 . S
C494 C493 1.366 . S
C494 C495 1.414 . S
C494 C497 1.499 . S
C495 H469 0.950 . S
C495 C494 1.414 . S
C495 C496 1.374 . S
C496 H470 0.950 . S
C496 C492 1.385 . S
C496 C495 1.374 . S
C497 C494 1.499 . S
C497 C498 1.373 . S
C497 C499 1.389 . S
C498 H471 0.950 . S
C498 C484 1.377 . S
C498 C497 1.373 . S
C499 C483 1.377 . S
C499 C497 1.389 . S
C499 C500 1.524 . S
C500 C499 1.524 . S
C500 C501 1.397 . S
C500 C505 1.363 . S
C501 H472 0.950 . S
C501 C500 1.397 . S
C501 C502 1.334 . S
C502 H473 0.950 . S
C502 C501 1.334 . S
C502 C503 1.287 . S
C503 C502 1.287 . S
C503 C504 1.524 . S
C503 H506 0.999 . S
C504 H474 0.950 . S
C504 C503 1.524 . S
C504 C505 1.415 . S
C505 H475 0.950 . S
C505 C500 1.363 . S
C505 C504 1.415 . S
H506 C503 0.999 . S
H507 C488 0.913 . S
H508 C526 0.951 . S
H509 C528 0.951 . S
H510 C530 0.950 . S
H511 C531 0.950 . S
H512 C533 0.950 . S
H513 C536 0.950 . S
H514 C537 0.950 . S
H515 C539 0.950 . S
H516 C540 0.950 . S
H517 C541 0.951 . S
H518 C543 0.951 . S
H519 C545 0.950 . S
H520 C546 0.950 . S
H521 C548 0.950 . S
H522 C551 0.950 . S
H523 C552 0.950 . S
H524 C554 0.950 . S
H525 C555 0.950 . S
C526 H508 0.951 . S
C526 C527 1.366 . S
C526 C528 1.388 . S
C527 C526 1.366 . S
C527 C531 1.385 . S
C528 H509 0.951 . S
C528 C526 1.388 . S
C528 C529 1.366 . S
C529 C528 1.366 . S
C529 C530 1.414 . S
C529 C532 1.499 . S
C530 H510 0.950 . S
C530 C529 1.414 . S
C530 C531 1.374 . S
C531 H511 0.950 . S
C531 C527 1.385 . S
C531 C530 1.374 . S
C532 C529 1.499 . S
C532 C533 1.373 . S
C532 C534 1.389 . S
C533 H512 0.950 . S
C533 C532 1.373 . S
C533 C549 1.377 . S
C534 C532 1.389 . S
C534 C535 1.524 . S
C534 C548 1.377 . S
C535 C534 1.524 . S
C535 C536 1.397 . S
C535 C540 1.363 . S
C536 H513 0.950 . S
C536 C535 1.397 . S
C536 C537 1.334 . S
C537 H514 0.950 . S
C537 C536 1.334 . S
C537 C538 1.287 . S
C538 C537 1.287 . S
C538 C539 1.524 . S
C538 H557 0.913 . S
C539 H515 0.950 . S
C539 C538 1.524 . S
C539 C540 1.415 . S
C540 H516 0.950 . S
C540 C535 1.363 . S
C540 C539 1.415 . S
C541 H517 0.951 . S
C541 C542 1.366 . S
C541 C543 1.388 . S
C542 C541 1.366 . S
C542 C546 1.385 . S
C543 H518 0.951 . S
C543 C541 1.388 . S
C543 C544 1.366 . S
C544 C543 1.366 . S
C544 C545 1.414 . S
C544 C547 1.499 . S
C545 H519 0.950 . S
C545 C544 1.414 . S
C545 C546 1.374 . S
C546 H520 0.950 . S
C546 C542 1.385 . S
C546 C545 1.374 . S
C547 C544 1.499 . S
C547 C548 1.373 . S
C547 C549 1.389 . S
C548 H521 0.950 . S
C548 C534 1.377 . S
C548 C547 1.373 . S
C549 C533 1.377 . S
C549 C547 1.389 . S
C549 C550 1.524 . S
C550 C549 1.524 . S
C550 C551 1.397 . S
C550 C555 1.363 . S
C551 H522 0.950 . S
C551 C550 1.397 . S
C551 C552 1.334 . S
C552 H523 0.950 . S
C552 C551 1.334 . S
C552 C553 1.287 . S
C553 C552 1.287 . S
C553 C554 1.524 . S
C553 H556 0.999 . S
C554 H524 0.950 . S
C554 C553 1.524 . S
C554 C555 1.415 . S
C555 H525 0.950 . S
C555 C550 1.363 . S
C555 C554 1.415 . S
H556 C553 0.999 . S
H557 C538 0.913 . S
H558 C576 0.951 . S
H559 C578 0.951 . S
H560 C580 0.950 . S
H561 C581 0.950 . S
H562 C583 0.950 . S
H563 C586 0.950 . S
H564 C587 0.950 . S
H565 C589 0.950 . S
H566 C590 0.950 . S
H567 C591 0.951 . S
H568 C593 0.951 . S
H569 C595 0.950 . S
H570 C596 0.950 . S
H571 C598 0.950 . S
H572 C601 0.950 . S
H573 C602 0.950 . S
H574 C604 0.950 . S
H575 C605 0.950 . S
C576 H558 0.951 . S
C576 C577 1.366 . S
C576 C578 1.388 . S
C577 C576 1.366 . S
C577 C581 1.385 . S
C578 H559 0.951 . S
C578 C576 1.388 . S
C578 C579 1.366 . S
C579 C578 1.366 . S
C579 C580 1.414 . S
C579 C582 1.499 . S
C580 H560 0.950 . S
C580 C579 1.414 . S
C580 C581 1.374 . S
C581 H561 0.950 . S
C581 C577 1.385 . S
C581 C580 1.374 . S
C582 C579 1.499 . S
C582 C583 1.373 . S
C582 C584 1.389 . S
C583 H562 0.950 . S
C583 C582 1.373 . S
C583 C599 1.377 . S
C584 C582 1.389 . S
C584 C585 1.524 . S
C584 C598 1.377 . S
C585 C584 1.524 . S
C585 C586 1.397 . S
C585 C590 1.363 . S
C586 H563 0.950 . S
C586 C585 1.397 . S
C586 C587 1.334 . S
C587 H564 0.950 . S
C587 C586 1.334 . S
C587 C588 1.287 . S
C588 C587 1.287 . S
C588 C589 1.524 . S
C588 H607 0.913 . S
C589 H565 0.950 . S
C589 C588 1.524 . S
C589 C590 1.415 . S
C590 H566 0.950 . S
C590 C585 1.363 . S
C590 C589 1.415 . S
C591 H567 0.951 . S
C591 C592 1.366 . S
C591 C593 1.388 . S
C592 C591 1.366 . S
C592 C596 1.385 . S
C593 H568 0.951 . S
C593 C591 1.388 . S
C593 C594 1.366 . S
C594 C593 1.366 . S
C594 C595 1.414 . S
C594 C597 1.499 . S
C595 H569 0.950 . S
C595 C594 1.414 . S
C595 C596 1.374 . S
C596 H570 0.950 . S
C596 C592 1.385 . S
C596 C595 1.374 . S
C597 C594 1.499 . S
C597 C598 1.373 . S
C597 C599 1.389 . S
C598 H571 0.950 . S
C598 C584 1.377 . S
C598 C597 1.373 . S
C599 C583 1.377 . S
C599 C597 1.389 . S
C599 C600 1.524 . S
C600 C599 1.524 . S
C600 C601 1.397 . S
C600 C605 1.363 . S
C601 H572 0.950 . S
C601 C600 1.397 . S
C601 C602 1.334 . S
C602 H573 0.950 . S
C602 C601 1.334 . S
C602 C603 1.287 . S
C603 C602 1.287 . S
C603 C604 1.524 . S
C603 H606 0.999 . S
C604 H574 0.950 . S
C604 C603 1.524 . S
C604 C605 1.415 . S
C605 H575 0.950 . S
C605 C600 1.363 . S
C605 C604 1.415 . S
H606 C603 0.999 . S
H607 C588 0.913 . S
H608 C626 0.951 . S
H609 C628 0.951 . S
H610 C630 0.950 . S
H611 C631 0.950 . S
H612 C633 0.950 . S
H613 C636 0.950 . S
H614 C637 0.950 . S
H615 C639 0.950 . S
H616 C640 0.950 . S
H617 C641 0.951 . S
H618 C643 0.951 . S
H619 C645 0.950 . S
H620 C646 0.950 . S
H621 C648 0.950 . S
H622 C651 0.950 . S
H623 C652 0.950 . S
H624 C654 0.950 . S
H625 C655 0.950 . S
C626 H608 0.951 . S
C626 C627 1.366 . S
C626 C628 1.388 . S
C627 C626 1.366 . S
C627 C631 1.385 . S
C628 H609 0.951 . S
C628 C626 1.388 . S
C628 C629 1.366 . S
C629 C628 1.366 . S
C629 C630 1.414 . S
C629 C632 1.499 . S
C630 H610 0.950 . S
C630 C629 1.414 . S
C630 C631 1.374 . S
C631 H611 0.950 . S
C631 C627 1.385 . S
C631 C630 1.374 . S
C632 C629 1.499 . S
C632 C633 1.373 . S
C632 C634 1.389 . S
C633 H612 0.950 . S
C633 C632 1.373 . S
C633 C649 1.377 . S
C634 C632 1.389 . S
C634 C635 1.524 . S
C634 C648 1.377 . S
C635 C634 1.524 . S
C635 C636 1.397 . S
C635 C640 1.363 . S
C636 H613 0.950 . S
C636 C635 1.397 . S
C636 C637 1.334 . S
C637 H614 0.950 . S
C637 C636 1.334 . S
C637 C638 1.287 . S
C638 C637 1.287 . S
C638 C639 1.524 . S
C638 H657 0.913 . S
C639 H615 0.950 . S
C639 C638 1.524 . S
C639 C640 1.415 . S
C640 H616 0.950 . S
C640 C635 1.363 . S
C640 C639 1.415 . S
C641 H617 0.951 . S
C641 C642 1.366 . S
C641 C643 1.388 . S
C642 C641 1.366 . S
C642 C646 1.385 . S
C643 H618 0.951 . S
C643 C641 1.388 . S
C643 C644 1.366 . S
C644 C643 1.366 . S
C644 C645 1.414 . S
C644 C647 1.499 1_554 S
C645 H619 0.950 . S
C645 C644 1.414 . S
C645 C646 1.374 . S
C646 H620 0.950 . S
C646 C642 1.385 . S
C646 C645 1.374 . S
C647 C644 1.499 1_556 S
C647 C648 1.373 . S
C647 C649 1.389 . S
C648 H621 0.950 . S
C648 C634 1.377 . S
C648 C647 1.373 . S
C649 C633 1.377 . S
C649 C647 1.389 . S
C649 C650 1.524 . S
C650 C649 1.524 . S
C650 C651 1.397 1_556 S
C650 C655 1.363 . S
C651 H622 0.950 . S
C651 C650 1.397 1_554 S
C651 C652 1.334 . S
C652 H623 0.950 . S
C652 C651 1.334 . S
C652 C653 1.287 . S
C653 C652 1.287 . S
C653 C654 1.524 . S
C653 H656 0.999 . S
C654 H624 0.950 . S
C654 C653 1.524 . S
C654 C655 1.415 1_554 S
C655 H625 0.950 . S
C655 C650 1.363 . S
C655 C654 1.415 1_556 S
H656 C653 0.999 . S
H657 C638 0.913 . S
H658 C676 0.951 . S
H659 C678 0.951 . S
H660 C680 0.950 . S
H661 C681 0.950 . S
H662 C683 0.950 . S
H663 C686 0.950 . S
H664 C687 0.950 . S
H665 C689 0.950 . S
H666 C690 0.963 . S
H667 C691 0.951 . S
H668 C693 0.951 . S
H669 C695 0.950 . S
H670 C696 0.950 . S
H671 C698 0.950 . S
H672 C701 0.950 . S
H673 C702 0.950 . S
H674 C704 0.950 . S
H675 C705 0.950 . S
C676 H658 0.951 . S
C676 C677 1.366 . S
C676 C678 1.388 . S
C677 C676 1.366 . S
C677 C681 1.385 . S
C678 H659 0.951 . S
C678 C676 1.388 . S
C678 C679 1.366 . S
C679 C678 1.366 . S
C679 C680 1.414 . S
C679 C682 1.499 1_556 S
C680 H660 0.950 . S
C680 C679 1.414 . S
C680 C681 1.374 . S
C681 H661 0.950 . S
C681 C677 1.385 . S
C681 C680 1.374 . S
C682 C679 1.499 1_554 S
C682 C683 1.373 . S
C682 C684 1.389 . S
C683 H662 0.950 . S
C683 C682 1.373 . S
C683 C699 1.377 . S
C684 C682 1.389 . S
C684 C685 1.524 1_554 S
C684 C698 1.377 . S
C685 C684 1.524 1_556 S
C685 C686 1.397 . S
C685 C690 1.362 1_556 S
C686 H663 0.950 . S
C686 C685 1.397 . S
C686 C687 1.334 . S
C687 H664 0.950 . S
C687 C686 1.334 . S
C687 C688 1.287 . S
C688 C687 1.287 . S
C688 C689 1.524 . S
C688 H707 0.913 . S
C689 H665 0.950 . S
C689 C688 1.524 . S
C689 C690 1.404 1_556 S
C690 H666 0.963 . S
C690 C685 1.362 1_554 S
C690 C689 1.404 1_554 S
C691 H667 0.951 . S
C691 C692 1.366 . S
C691 C693 1.388 . S
C692 C691 1.366 . S
C692 C696 1.385 . S
C693 H668 0.951 . S
C693 C691 1.388 . S
C693 C694 1.366 . S
C694 C693 1.366 . S
C694 C695 1.414 . S
C694 C697 1.499 . S
C695 H669 0.950 . S
C695 C694 1.414 . S
C695 C696 1.374 . S
C696 H670 0.950 . S
C696 C692 1.385 . S
C696 C695 1.374 . S
C697 C694 1.499 . S
C697 C698 1.373 . S
C697 C699 1.389 . S
C698 H671 0.950 . S
C698 C684 1.377 . S
C698 C697 1.373 . S
C699 C683 1.377 . S
C699 C697 1.389 . S
C699 C700 1.524 . S
C700 C699 1.524 . S
C700 C701 1.397 . S
C700 C705 1.363 . S
C701 H672 0.950 . S
C701 C700 1.397 . S
C701 C702 1.334 . S
C702 H673 0.950 . S
C702 C701 1.334 . S
C702 C703 1.287 . S
C703 C702 1.287 . S
C703 C704 1.524 . S
C703 H706 0.999 . S
C704 H674 0.950 . S
C704 C703 1.524 . S
C704 C705 1.415 . S
C705 H675 0.950 . S
C705 C700 1.363 . S
C705 C704 1.415 . S
H706 C703 0.999 . S
H707 C688 0.913 . S
H708 C726 0.951 . S
H709 C728 0.951 . S
H710 C730 0.950 . S
H711 C731 0.950 . S
H712 C733 0.950 1_556 S
H713 C736 0.950 1_556 S
H714 C737 0.950 . S
H715 C739 0.950 . S
H716 C740 0.950 . S
H717 C741 0.951 . S
H718 C743 0.951 . S
H719 C745 0.950 . S
H720 C746 0.950 . S
H721 C748 0.950 . S
H722 C751 0.950 . S
H723 C752 0.950 . S
H724 C754 0.950 . S
H725 C755 0.950 . S
C726 H708 0.951 . S
C726 C727 1.366 . S
C726 C728 1.388 . S
C727 C726 1.366 . S
C727 C731 1.385 . S
C728 H709 0.951 . S
C728 C726 1.388 . S
C728 C729 1.366 . S
C729 C728 1.366 . S
C729 C730 1.414 . S
C729 C732 1.504 1_556 S
C730 H710 0.950 . S
C730 C729 1.414 . S
C730 C731 1.374 . S
C731 H711 0.950 . S
C731 C727 1.385 . S
C731 C730 1.374 . S
C732 C729 1.504 1_554 S
C732 C733 1.371 . S
C732 C734 1.386 . S
C733 H712 0.950 1_554 S
C733 C732 1.371 . S
C733 C749 1.377 . S
C734 C732 1.386 . S
C734 C735 1.524 . S
C734 C748 1.377 . S
C735 C734 1.524 . S
C735 C736 1.397 . S
C735 C740 1.363 . S
C736 H713 0.950 1_554 S
C736 C735 1.397 . S
C736 C737 1.334 1_554 S
C737 H714 0.950 . S
C737 C736 1.334 1_556 S
C737 C738 1.287 1_556 S
C738 C737 1.287 1_554 S
C738 C739 1.524 . S
C738 H757 0.913 1_554 S
C739 H715 0.950 . S
C739 C738 1.524 . S
C739 C740 1.415 . S
C740 H716 0.950 . S
C740 C735 1.363 . S
C740 C739 1.415 . S
C741 H717 0.951 . S
C741 C742 1.366 . S
C741 C743 1.388 . S
C742 C741 1.366 . S
C742 C746 1.385 . S
C743 H718 0.951 . S
C743 C741 1.388 . S
C743 C744 1.366 . S
C744 C743 1.366 . S
C744 C745 1.414 . S
C744 C747 1.499 . S
C745 H719 0.950 . S
C745 C744 1.414 . S
C745 C746 1.374 . S
C746 H720 0.950 . S
C746 C742 1.385 . S
C746 C745 1.374 . S
C747 C744 1.499 . S
C747 C748 1.373 . S
C747 C749 1.389 . S
C748 H721 0.950 . S
C748 C734 1.377 . S
C748 C747 1.373 . S
C749 C733 1.377 . S
C749 C747 1.389 . S
C749 C750 1.524 . S
C750 C749 1.524 . S
C750 C751 1.397 . S
C750 C755 1.363 . S
C751 H722 0.950 . S
C751 C750 1.397 . S
C751 C752 1.334 . S
C752 H723 0.950 . S
C752 C751 1.334 . S
C752 C753 1.287 . S
C753 C752 1.287 . S
C753 C754 1.524 . S
C753 H756 0.999 . S
C754 H724 0.950 . S
C754 C753 1.524 . S
C754 C755 1.415 . S
C755 H725 0.950 . S
C755 C750 1.363 . S
C755 C754 1.415 . S
H756 C753 0.999 . S
H757 C738 0.913 1_556 S
H758 C776 0.951 . S
H759 C778 0.951 . S
H760 C780 0.950 . S
H761 C781 0.950 . S
H762 C783 0.950 1_554 S
H763 C786 0.950 . S
H764 C787 0.950 . S
H765 C789 0.950 . S
H766 C790 0.950 . S
H767 C791 0.951 . S
H768 C793 0.951 . S
H769 C795 0.950 . S
H770 C796 0.950 . S
H771 C798 0.950 . S
H772 C801 0.950 . S
H773 C802 0.950 . S
H774 C804 0.950 . S
H775 C805 0.950 . S
C776 H758 0.951 . S
C776 C777 1.366 . S
C776 C778 1.388 . S
C777 C776 1.366 . S
C777 C781 1.385 . S
C778 H759 0.951 . S
C778 C776 1.388 . S
C778 C779 1.366 . S
C779 C778 1.366 . S
C779 C780 1.414 . S
C779 C782 1.499 . S
C780 H760 0.950 . S
C780 C779 1.414 . S
C780 C781 1.374 . S
C781 H761 0.950 . S
C781 C777 1.385 . S
C781 C780 1.374 . S
C782 C779 1.499 . S
C782 C783 1.373 1_554 S
C782 C784 1.389 1_554 S
C783 H762 0.950 1_556 S
C783 C782 1.373 1_556 S
C783 C799 1.377 . S
C784 C782 1.389 1_556 S
C784 C785 1.552 . S
C784 C798 1.377 . S
C785 C784 1.552 . S
C785 C786 1.371 1_556 S
C785 C790 1.369 . S
C786 H763 0.950 . S
C786 C785 1.371 1_554 S
C786 C787 1.334 . S
C787 H764 0.950 . S
C787 C786 1.334 . S
C787 C788 1.287 . S
C788 C787 1.287 . S
C788 C789 1.514 1_554 S
C788 H807 0.913 . S
C789 H765 0.950 . S
C789 C788 1.514 1_556 S
C789 C790 1.425 . S
C790 H766 0.950 . S
C790 C785 1.369 . S
C790 C789 1.425 . S
C791 H767 0.951 . S
C791 C792 1.366 . S
C791 C793 1.388 . S
C792 C791 1.366 . S
C792 C796 1.385 . S
C793 H768 0.951 . S
C793 C791 1.388 . S
C793 C794 1.366 . S
C794 C793 1.366 . S
C794 C795 1.414 . S
C794 C797 1.499 . S
C795 H769 0.950 . S
C795 C794 1.414 . S
C795 C796 1.374 . S
C796 H770 0.950 . S
C796 C792 1.385 . S
C796 C795 1.374 . S
C797 C794 1.499 . S
C797 C798 1.373 . S
C797 C799 1.389 . S
C798 H771 0.950 . S
C798 C784 1.377 . S
C798 C797 1.373 . S
C799 C783 1.377 . S
C799 C797 1.389 . S
C799 C800 1.524 . S
C800 C799 1.524 . S
C800 C801 1.397 . S
C800 C805 1.363 . S
C801 H772 0.950 . S
C801 C800 1.397 . S
C801 C802 1.334 . S
C802 H773 0.950 . S
C802 C801 1.334 . S
C802 C803 1.287 . S
C803 C802 1.287 . S
C803 C804 1.524 . S
C803 H806 0.999 . S
C804 H774 0.950 . S
C804 C803 1.524 . S
C804 C805 1.415 . S
C805 H775 0.950 . S
C805 C800 1.363 . S
C805 C804 1.415 . S
H806 C803 0.999 . S
H807 C788 0.913 . S
H808 C826 0.951 . S
H809 C828 0.951 . S
H810 C830 0.950 . S
H811 C831 0.950 . S
H812 C833 0.950 . S
H813 C836 0.950 . S
H814 C837 0.950 . S
H815 C839 0.950 . S
H816 C840 0.950 . S
H817 C841 0.951 . S
H818 C843 0.951 1_455 S
H819 C845 0.950 . S
H820 C846 0.950 . S
H821 C848 0.950 . S
H822 C851 0.950 1_655 S
H823 C852 0.950 . S
H824 C854 0.950 . S
H825 C855 0.950 . S
C826 H808 0.951 . S
C826 C827 1.366 . S
C826 C828 1.388 . S
C827 C826 1.366 . S
C827 C831 1.385 . S
C828 H809 0.951 . S
C828 C826 1.388 . S
C828 C829 1.366 . S
C829 C828 1.366 . S
C829 C830 1.414 . S
C829 C832 1.499 . S
C830 H810 0.950 . S
C830 C829 1.414 . S
C830 C831 1.374 . S
C831 H811 0.950 . S
C831 C827 1.385 . S
C831 C830 1.374 . S
C832 C829 1.499 . S
C832 C833 1.373 . S
C832 C834 1.389 . S
C833 H812 0.950 . S
C833 C832 1.373 . S
C833 C849 1.377 . S
C834 C832 1.389 . S
C834 C835 1.524 . S
C834 C848 1.377 . S
C835 C834 1.524 . S
C835 C836 1.397 . S
C835 C840 1.363 . S
C836 H813 0.950 . S
C836 C835 1.397 . S
C836 C837 1.334 . S
C837 H814 0.950 . S
C837 C836 1.334 . S
C837 C838 1.287 . S
C838 C837 1.287 . S
C838 C839 1.524 . S
C838 H857 0.913 . S
C839 H815 0.950 . S
C839 C838 1.524 . S
C839 C840 1.415 . S
C840 H816 0.950 . S
C840 C835 1.363 . S
C840 C839 1.415 . S
C841 H817 0.951 . S
C841 C842 1.366 . S
C841 C843 1.388 . S
C842 C841 1.366 . S
C842 C846 1.385 . S
C843 H818 0.951 1_655 S
C843 C841 1.388 . S
C843 C844 1.366 1_655 S
C844 C843 1.366 1_455 S
C844 C845 1.414 1_455 S
C844 C847 1.499 . S
C845 H819 0.950 . S
C845 C844 1.414 1_655 S
C845 C846 1.374 . S
C846 H820 0.950 . S
C846 C842 1.385 . S
C846 C845 1.374 . S
C847 C844 1.499 . S
C847 C848 1.373 . S
C847 C849 1.389 . S
C848 H821 0.950 . S
C848 C834 1.377 . S
C848 C847 1.373 . S
C849 C833 1.377 . S
C849 C847 1.389 . S
C849 C850 1.524 . S
C850 C849 1.524 . S
C850 C851 1.397 . S
C850 C855 1.363 . S
C851 H822 0.950 1_455 S
C851 C850 1.397 . S
C851 C852 1.334 1_455 S
C852 H823 0.950 . S
C852 C851 1.334 1_655 S
C852 C853 1.287 . S
C853 C852 1.287 . S
C853 C854 1.524 1_655 S
C853 H856 0.999 . S
C854 H824 0.950 . S
C854 C853 1.524 1_455 S
C854 C855 1.415 . S
C855 H825 0.950 . S
C855 C850 1.363 . S
C855 C854 1.415 . S
H856 C853 0.999 . S
H857 C838 0.913 . S
H858 C876 0.951 . S
H859 C878 0.951 . S
H860 C880 0.950 . S
H861 C881 0.950 . S
H862 C883 0.950 . S
H863 C886 0.950 . S
H864 C887 0.950 . S
H865 C889 0.950 . S
H866 C890 0.950 1_545 S
H867 C891 0.951 . S
H868 C893 0.951 . S
H869 C895 0.950 . S
H870 C896 0.950 . S
H871 C898 0.950 . S
H872 C901 0.950 . S
H873 C902 0.950 . S
H874 C904 0.950 . S
H875 C905 0.950 . S
C876 H858 0.951 . S
C876 C877 1.366 . S
C876 C878 1.388 . S
C877 C876 1.366 . S
C877 C881 1.385 . S
C878 H859 0.951 . S
C878 C876 1.388 . S
C878 C879 1.366 . S
C879 C878 1.366 . S
C879 C880 1.414 . S
C879 C882 1.499 . S
C880 H860 0.950 . S
C880 C879 1.414 . S
C880 C881 1.374 . S
C881 H861 0.950 . S
C881 C877 1.385 . S
C881 C880 1.374 . S
C882 C879 1.499 . S
C882 C883 1.373 1_565 S
C882 C884 1.389 1_565 S
C883 H862 0.950 . S
C883 C882 1.373 1_545 S
C883 C899 1.377 . S
C884 C882 1.389 1_545 S
C884 C885 1.524 1_545 S
C884 C898 1.377 . S
C885 C884 1.524 1_565 S
C885 C886 1.397 . S
C885 C890 1.363 . S
C886 H863 0.950 . S
C886 C885 1.397 . S
C886 C887 1.334 . S
C887 H864 0.950 . S
C887 C886 1.334 . S
C887 C888 1.287 . S
C888 C887 1.287 . S
C888 C889 1.524 . S
C888 H907 0.913 . S
C889 H865 0.950 . S
C889 C888 1.524 . S
C889 C890 1.415 . S
C890 H866 0.950 1_565 S
C890 C885 1.363 . S
C890 C889 1.415 . S
C891 H867 0.951 . S
C891 C892 1.366 . S
C891 C893 1.388 . S
C892 C891 1.366 . S
C892 C896 1.385 . S
C893 H868 0.951 . S
C893 C891 1.388 . S
C893 C894 1.366 . S
C894 C893 1.366 . S
C894 C895 1.414 . S
C894 C897 1.499 . S
C895 H869 0.950 . S
C895 C894 1.414 . S
C895 C896 1.374 . S
C896 H870 0.950 . S
C896 C892 1.385 . S
C896 C895 1.374 . S
C897 C894 1.499 . S
C897 C898 1.373 . S
C897 C899 1.389 . S
C898 H871 0.950 . S
C898 C884 1.377 . S
C898 C897 1.373 . S
C899 C883 1.377 . S
C899 C897 1.389 . S
C899 C900 1.524 . S
C900 C899 1.524 . S
C900 C901 1.397 . S
C900 C905 1.363 . S
C901 H872 0.950 . S
C901 C900 1.397 . S
C901 C902 1.334 . S
C902 H873 0.950 . S
C902 C901 1.334 . S
C902 C903 1.287 . S
C903 C902 1.287 . S
C903 C904 1.524 . S
C903 H906 0.999 . S
C904 H874 0.950 . S
C904 C903 1.524 . S
C904 C905 1.415 . S
C905 H875 0.950 . S
C905 C900 1.363 . S
C905 C904 1.415 . S
H906 C903 0.999 . S
H907 C888 0.913 . S
H908 C926 0.951 . S
H909 C928 0.951 . S
H910 C930 0.950 . S
H911 C931 0.950 . S
H912 C933 0.950 . S
H913 C936 0.950 . S
H914 C937 0.950 . S
H915 C939 0.950 . S
H916 C940 0.950 . S
H917 C941 0.951 . S
H918 C943 0.951 . S
H919 C945 0.950 . S
H920 C946 0.950 . S
H921 C948 0.950 . S
H922 C951 0.950 . S
H923 C952 0.950 . S
H924 C954 0.950 . S
H925 C955 0.950 . S
C926 H908 0.951 . S
C926 C927 1.366 . S
C926 C928 1.388 . S
C927 C926 1.366 . S
C927 C931 1.385 . S
C928 H909 0.951 . S
C928 C926 1.388 . S
C928 C929 1.366 . S
C929 C928 1.366 . S
C929 C930 1.414 . S
C929 C932 1.499 . S
C930 H910 0.950 . S
C930 C929 1.414 . S
C930 C931 1.374 . S
C931 H911 0.950 . S
C931 C927 1.385 . S
C931 C930 1.374 . S
C932 C929 1.499 . S
C932 C933 1.373 . S
C932 C934 1.389 . S
C933 H912 0.950 . S
C933 C932 1.373 . S
C933 C949 1.377 1_655 S
C934 C932 1.389 . S
C934 C935 1.524 . S
C934 C948 1.377 1_655 S
C935 C934 1.524 . S
C935 C936 1.397 . S
C935 C940 1.363 . S
C936 H913 0.950 . S
C936 C935 1.397 . S
C936 C937 1.334 . S
C937 H914 0.950 . S
C937 C936 1.334 . S
C937 C938 1.287 . S
C938 C937 1.287 . S
C938 C939 1.524 . S
C938 H957 0.913 . S
C939 H915 0.950 . S
C939 C938 1.524 . S
C939 C940 1.415 . S
C940 H916 0.950 . S
C940 C935 1.363 . S
C940 C939 1.415 . S
C941 H917 0.951 . S
C941 C942 1.366 . S
C941 C943 1.388 . S
C942 C941 1.366 . S
C942 C946 1.385 . S
C943 H918 0.951 . S
C943 C941 1.388 . S
C943 C944 1.366 . S
C944 C943 1.366 . S
C944 C945 1.414 . S
C944 C947 1.499 . S
C945 H919 0.950 . S
C945 C944 1.414 . S
C945 C946 1.374 . S
C946 H920 0.950 . S
C946 C942 1.385 . S
C946 C945 1.374 . S
C947 C944 1.499 . S
C947 C948 1.373 . S
C947 C949 1.389 . S
C948 H921 0.950 . S
C948 C934 1.377 1_455 S
C948 C947 1.373 . S
C949 C933 1.377 1_455 S
C949 C947 1.389 . S
C949 C950 1.524 . S
C950 C949 1.524 . S
C950 C951 1.397 . S
C950 C955 1.363 . S
C951 H922 0.950 . S
C951 C950 1.397 . S
C951 C952 1.334 . S
C952 H923 0.950 . S
C952 C951 1.334 . S
C952 C953 1.287 . S
C953 C952 1.287 . S
C953 C954 1.524 . S
C953 H956 0.999 . S
C954 H924 0.950 . S
C954 C953 1.524 . S
C954 C955 1.415 . S
C955 H925 0.950 . S
C955 C950 1.363 . S
C955 C954 1.415 . S
H956 C953 0.999 . S
H957 C938 0.913 . S
H958 C976 0.951 . S
H959 C978 0.951 . S
H960 C980 0.950 . S
H961 C981 0.950 . S
H962 C983 0.950 . S
H963 C986 0.950 . S
H964 C987 0.950 . S
H965 C989 0.950 . S
H966 C990 0.950 1_565 S
H967 C991 0.951 . S
H968 C993 0.951 . S
H969 C995 0.950 . S
H970 C996 0.950 . S
H971 C998 0.950 . S
H972 C1001 0.950 . S
H973 C1002 0.950 . S
H974 C1004 0.950 . S
H975 C1005 0.950 . S
C976 H958 0.951 . S
C976 C977 1.366 . S
C976 C978 1.388 . S
C977 C976 1.366 . S
C977 C981 1.385 . S
C978 H959 0.951 . S
C978 C976 1.388 . S
C978 C979 1.366 . S
C979 C978 1.366 . S
C979 C980 1.414 . S
C979 C982 1.502 . S
C980 H960 0.950 . S
C980 C979 1.414 . S
C980 C981 1.374 . S
C981 H961 0.950 . S
C981 C977 1.385 . S
C981 C980 1.374 . S
C982 C979 1.502 . S
C982 C983 1.372 1_545 S
C982 C984 1.387 1_545 S
C983 H962 0.950 . S
C983 C982 1.372 1_565 S
C983 C999 1.377 . S
C984 C982 1.387 1_565 S
C984 C985 1.524 1_565 S
C984 C998 1.377 . S
C985 C984 1.524 1_545 S
C985 C986 1.397 . S
C985 C990 1.363 . S
C986 H963 0.950 . S
C986 C985 1.397 . S
C986 C987 1.334 . S
C987 H964 0.950 . S
C987 C986 1.334 . S
C987 C988 1.287 . S
C988 C987 1.287 . S
C988 C989 1.524 . S
C988 H1007 0.913 . S
C989 H965 0.950 . S
C989 C988 1.524 . S
C989 C990 1.415 . S
C990 H966 0.950 1_545 S
C990 C985 1.363 . S
C990 C989 1.415 . S
C991 H967 0.951 . S
C991 C992 1.366 . S
C991 C993 1.388 . S
C992 C991 1.366 . S
C992 C996 1.385 . S
C993 H968 0.951 . S
C993 C991 1.388 . S
C993 C994 1.366 . S
C994 C993 1.366 . S
C994 C995 1.414 . S
C994 C997 1.499 . S
C995 H969 0.950 . S
C995 C994 1.414 . S
C995 C996 1.374 . S
C996 H970 0.950 . S
C996 C992 1.385 . S
C996 C995 1.374 . S
C997 C994 1.499 . S
C997 C998 1.373 . S
C997 C999 1.389 . S
C998 H971 0.950 . S
C998 C984 1.377 . S
C998 C997 1.373 . S
C999 C983 1.377 . S
C999 C997 1.389 . S
C999 C1000 1.524 . S
C1000 C999 1.524 . S
C1000 C1001 1.397 . S
C1000 C1005 1.363 . S
C1001 H972 0.950 . S
C1001 C1000 1.397 . S
C1001 C1002 1.334 . S
C1002 H973 0.950 . S
C1002 C1001 1.334 . S
C1002 C1003 1.287 . S
C1003 C1002 1.287 . S
C1003 C1004 1.524 . S
C1003 H1006 0.999 . S
C1004 H974 0.950 . S
C1004 C1003 1.524 . S
C1004 C1005 1.415 . S
C1005 H975 0.950 . S
C1005 C1000 1.363 . S
C1005 C1004 1.415 . S
H1006 C1003 0.999 . S
H1007 C988 0.913 . S
H1008 C1026 0.951 . S
H1009 C1028 0.951 . S
H1010 C1030 0.950 . S
H1011 C1031 0.950 . S
H1012 C1033 0.950 . S
H1013 C1036 0.950 . S
H1014 C1037 0.950 . S
H1015 C1039 0.950 . S
H1016 C1040 0.950 . S
H1017 C1041 0.951 . S
H1018 C1043 0.951 1_655 S
H1019 C1045 0.950 . S
H1020 C1046 0.950 . S
H1021 C1048 0.950 . S
H1022 C1051 0.950 . S
H1023 C1052 0.950 . S
H1024 C1054 0.950 . S
H1025 C1055 0.950 . S
C1026 H1008 0.951 . S
C1026 C1027 1.366 . S
C1026 C1028 1.388 . S
C1027 C1026 1.366 . S
C1027 C1031 1.385 . S
C1028 H1009 0.951 . S
C1028 C1026 1.388 . S
C1028 C1029 1.366 . S
C1029 C1028 1.366 . S
C1029 C1030 1.414 . S
C1029 C1032 1.499 . S
C1030 H1010 0.950 . S
C1030 C1029 1.414 . S
C1030 C1031 1.374 . S
C1031 H1011 0.950 . S
C1031 C1027 1.385 . S
C1031 C1030 1.374 . S
C1032 C1029 1.499 . S
C1032 C1033 1.373 . S
C1032 C1034 1.389 . S
C1033 H1012 0.950 . S
C1033 C1032 1.373 . S
C1033 C1049 1.377 . S
C1034 C1032 1.389 . S
C1034 C1035 1.524 . S
C1034 C1048 1.377 . S
C1035 C1034 1.524 . S
C1035 C1036 1.397 . S
C1035 C1040 1.363 . S
C1036 H1013 0.950 . S
C1036 C1035 1.397 . S
C1036 C1037 1.334 . S
C1037 H1014 0.950 . S
C1037 C1036 1.334 . S
C1037 C1038 1.287 . S
C1038 C1037 1.287 . S
C1038 C1039 1.524 . S
C1038 H1057 0.913 . S
C1039 H1015 0.950 . S
C1039 C1038 1.524 . S
C1039 C1040 1.415 . S
C1040 H1016 0.950 . S
C1040 C1035 1.363 . S
C1040 C1039 1.415 . S
C1041 H1017 0.951 . S
C1041 C1042 1.366 . S
C1041 C1043 1.388 . S
C1042 C1041 1.366 . S
C1042 C1046 1.385 . S
C1043 H1018 0.951 1_455 S
C1043 C1041 1.388 . S
C1043 C1044 1.366 1_455 S
C1044 C1043 1.366 1_655 S
C1044 C1045 1.414 1_655 S
C1044 C1047 1.499 . S
C1045 H1019 0.950 . S
C1045 C1044 1.414 1_455 S
C1045 C1046 1.374 . S
C1046 H1020 0.950 . S
C1046 C1042 1.385 . S
C1046 C1045 1.374 . S
C1047 C1044 1.499 . S
C1047 C1048 1.373 . S
C1047 C1049 1.389 . S
C1048 H1021 0.950 . S
C1048 C1034 1.377 . S
C1048 C1047 1.373 . S
C1049 C1033 1.377 . S
C1049 C1047 1.389 . S
C1049 C1050 1.524 . S
C1050 C1049 1.524 . S
C1050 C1051 1.397 . S
C1050 C1055 1.363 . S
C1051 H1022 0.950 . S
C1051 C1050 1.397 . S
C1051 C1052 1.334 . S
C1052 H1023 0.950 . S
C1052 C1051 1.334 . S
C1052 C1053 1.287 . S
C1053 C1052 1.287 . S
C1053 C1054 1.524 . S
C1053 H1056 0.999 . S
C1054 H1024 0.950 . S
C1054 C1053 1.524 . S
C1054 C1055 1.415 . S
C1055 H1025 0.950 . S
C1055 C1050 1.363 . S
C1055 C1054 1.415 . S
H1056 C1053 0.999 . S
H1057 C1038 0.913 . S
H1058 C1076 0.951 . S
H1059 C1078 0.951 . S
H1060 C1080 0.950 . S
H1061 C1081 0.950 . S
H1062 C1083 0.950 . S
H1063 C1086 0.950 . S
H1064 C1087 0.950 . S
H1065 C1089 0.950 . S
H1066 C1090 0.950 . S
H1067 C1091 0.951 . S
H1068 C1093 0.951 . S
H1069 C1095 0.950 . S
H1070 C1096 0.950 . S
H1071 C1098 0.950 . S
H1072 C1101 0.950 . S
H1073 C1102 0.950 . S
H1074 C1104 0.950 . S
H1075 C1105 0.950 1_565 S
C1076 H1058 0.951 . S
C1076 C1077 1.366 . S
C1076 C1078 1.388 . S
C1077 C1076 1.366 . S
C1077 C1081 1.385 . S
C1078 H1059 0.951 . S
C1078 C1076 1.388 . S
C1078 C1079 1.366 . S
C1079 C1078 1.366 . S
C1079 C1080 1.414 . S
C1079 C1082 1.499 . S
C1080 H1060 0.950 . S
C1080 C1079 1.414 . S
C1080 C1081 1.374 . S
C1081 H1061 0.950 . S
C1081 C1077 1.385 . S
C1081 C1080 1.374 . S
C1082 C1079 1.499 . S
C1082 C1083 1.373 . S
C1082 C1084 1.389 . S
C1083 H1062 0.950 . S
C1083 C1082 1.373 . S
C1083 C1099 1.377 . S
C1084 C1082 1.389 . S
C1084 C1085 1.524 . S
C1084 C1098 1.377 . S
C1085 C1084 1.524 . S
C1085 C1086 1.397 . S
C1085 C1090 1.363 . S
C1086 H1063 0.950 . S
C1086 C1085 1.397 . S
C1086 C1087 1.334 . S
C1087 H1064 0.950 . S
C1087 C1086 1.334 . S
C1087 C1088 1.287 . S
C1088 C1087 1.287 . S
C1088 C1089 1.524 . S
C1088 H1107 0.913 . S
C1089 H1065 0.950 . S
C1089 C1088 1.524 . S
C1089 C1090 1.415 . S
C1090 H1066 0.950 . S
C1090 C1085 1.363 . S
C1090 C1089 1.415 . S
C1091 H1067 0.951 . S
C1091 C1092 1.366 . S
C1091 C1093 1.388 . S
C1092 C1091 1.366 . S
C1092 C1096 1.385 . S
C1093 H1068 0.951 . S
C1093 C1091 1.388 . S
C1093 C1094 1.366 . S
C1094 C1093 1.366 . S
C1094 C1095 1.414 . S
C1094 C1097 1.499 1_545 S
C1095 H1069 0.950 . S
C1095 C1094 1.414 . S
C1095 C1096 1.374 . S
C1096 H1070 0.950 . S
C1096 C1092 1.385 . S
C1096 C1095 1.374 . S
C1097 C1094 1.499 1_565 S
C1097 C1098 1.373 . S
C1097 C1099 1.389 . S
C1098 H1071 0.950 . S
C1098 C1084 1.377 . S
C1098 C1097 1.373 . S
C1099 C1083 1.377 . S
C1099 C1097 1.389 . S
C1099 C1100 1.524 1_565 S
C1100 C1099 1.524 1_545 S
C1100 C1101 1.397 . S
C1100 C1105 1.363 . S
C1101 H1072 0.950 . S
C1101 C1100 1.397 . S
C1101 C1102 1.334 . S
C1102 H1073 0.950 . S
C1102 C1101 1.334 . S
C1102 C1103 1.287 . S
C1103 C1102 1.287 . S
C1103 C1104 1.524 . S
C1103 H1106 0.999 . S
C1104 H1074 0.950 . S
C1104 C1103 1.524 . S
C1104 C1105 1.415 . S
C1105 H1075 0.950 1_545 S
C1105 C1100 1.363 . S
C1105 C1104 1.415 . S
H1106 C1103 0.999 . S
H1107 C1088 0.913 . S
H1108 C1126 0.951 . S
H1109 C1128 0.951 . S
H1110 C1130 0.950 . S
H1111 C1131 0.950 . S
H1112 C1133 0.950 . S
H1113 C1136 0.950 . S
H1114 C1137 0.950 . S
H1115 C1139 0.950 . S
H1116 C1140 0.950 . S
H1117 C1141 0.951 . S
H1118 C1143 0.951 . S
H1119 C1145 0.950 . S
H1120 C1146 0.950 . S
H1121 C1148 0.950 . S
H1122 C1151 0.950 . S
H1123 C1152 0.950 . S
H1124 C1154 0.950 . S
H1125 C1155 0.950 . S
C1126 H1108 0.951 . S
C1126 C1127 1.366 . S
C1126 C1128 1.388 . S
C1127 C1126 1.366 . S
C1127 C1131 1.385 . S
C1128 H1109 0.951 . S
C1128 C1126 1.388 . S
C1128 C1129 1.366 . S
C1129 C1128 1.366 . S
C1129 C1130 1.414 . S
C1129 C1132 1.499 . S
C1130 H1110 0.950 . S
C1130 C1129 1.414 . S
C1130 C1131 1.374 . S
C1131 H1111 0.950 . S
C1131 C1127 1.385 . S
C1131 C1130 1.374 . S
C1132 C1129 1.499 . S
C1132 C1133 1.373 . S
C1132 C1134 1.389 . S
C1133 H1112 0.950 . S
C1133 C1132 1.373 . S
C1133 C1149 1.377 1_455 S
C1134 C1132 1.389 . S
C1134 C1135 1.524 . S
C1134 C1148 1.377 1_455 S
C1135 C1134 1.524 . S
C1135 C1136 1.397 . S
C1135 C1140 1.363 1_455 S
C1136 H1113 0.950 . S
C1136 C1135 1.397 . S
C1136 C1137 1.334 . S
C1137 H1114 0.950 . S
C1137 C1136 1.334 . S
C1137 C1138 1.287 . S
C1138 C1137 1.287 . S
C1138 C1139 1.524 1_455 S
C1138 H1157 0.913 . S
C1139 H1115 0.950 . S
C1139 C1138 1.524 1_655 S
C1139 C1140 1.415 . S
C1140 H1116 0.950 . S
C1140 C1135 1.363 1_655 S
C1140 C1139 1.415 . S
C1141 H1117 0.951 . S
C1141 C1142 1.366 . S
C1141 C1143 1.388 . S
C1142 C1141 1.366 . S
C1142 C1146 1.385 . S
C1143 H1118 0.951 . S
C1143 C1141 1.388 . S
C1143 C1144 1.366 . S
C1144 C1143 1.366 . S
C1144 C1145 1.414 . S
C1144 C1147 1.499 . S
C1145 H1119 0.950 . S
C1145 C1144 1.414 . S
C1145 C1146 1.374 . S
C1146 H1120 0.950 . S
C1146 C1142 1.385 . S
C1146 C1145 1.374 . S
C1147 C1144 1.499 . S
C1147 C1148 1.373 . S
C1147 C1149 1.389 . S
C1148 H1121 0.950 . S
C1148 C1134 1.377 1_655 S
C1148 C1147 1.373 . S
C1149 C1133 1.377 1_655 S
C1149 C1147 1.389 . S
C1149 C1150 1.524 . S
C1150 C1149 1.524 . S
C1150 C1151 1.397 . S
C1150 C1155 1.363 1_655 S
C1151 H1122 0.950 . S
C1151 C1150 1.397 . S
C1151 C1152 1.334 . S
C1152 H1123 0.950 . S
C1152 C1151 1.334 . S
C1152 C1153 1.287 . S
C1153 C1152 1.287 . S
C1153 C1154 1.524 1_655 S
C1153 H1156 0.999 . S
C1154 H1124 0.950 . S
C1154 C1153 1.524 1_455 S
C1154 C1155 1.415 . S
C1155 H1125 0.950 . S
C1155 C1150 1.363 1_455 S
C1155 C1154 1.415 . S
H1156 C1153 0.999 . S
H1157 C1138 0.913 . S
H1158 C1176 0.951 . S
H1159 C1178 0.951 . S
H1160 C1180 0.950 . S
H1161 C1181 0.950 . S
H1162 C1183 0.950 . S
H1163 C1186 0.947 . S
H1164 C1187 0.950 . S
H1165 C1189 0.950 . S
H1166 C1190 0.950 . S
H1167 C1191 0.951 . S
H1168 C1193 0.951 . S
H1169 C1195 0.950 . S
H1170 C1196 0.950 . S
H1171 C1198 0.950 . S
H1172 C1201 0.950 . S
H1173 C1202 0.950 . S
H1174 C1204 0.950 . S
H1175 C1205 0.950 . S
C1176 H1158 0.951 . S
C1176 C1177 1.366 . S
C1176 C1178 1.388 . S
C1177 C1176 1.366 . S
C1177 C1181 1.385 . S
C1178 H1159 0.951 . S
C1178 C1176 1.388 . S
C1178 C1179 1.366 . S
C1179 C1178 1.366 . S
C1179 C1180 1.414 . S
C1179 C1182 1.499 1_565 S
C1180 H1160 0.950 . S
C1180 C1179 1.414 . S
C1180 C1181 1.374 . S
C1181 H1161 0.950 . S
C1181 C1177 1.385 . S
C1181 C1180 1.374 . S
C1182 C1179 1.499 1_545 S
C1182 C1183 1.373 . S
C1182 C1184 1.389 . S
C1183 H1162 0.950 . S
C1183 C1182 1.373 . S
C1183 C1199 1.377 . S
C1184 C1182 1.389 . S
C1184 C1185 1.524 . S
C1184 C1198 1.377 . S
C1185 C1184 1.524 . S
C1185 C1186 1.397 . S
C1185 C1190 1.363 . S
C1186 H1163 0.947 . S
C1186 C1185 1.397 . S
C1186 C1187 1.334 1_545 S
C1187 H1164 0.950 . S
C1187 C1186 1.334 1_565 S
C1187 C1188 1.287 . S
C1188 C1187 1.287 . S
C1188 C1189 1.524 1_565 S
C1188 H1207 0.913 . S
C1189 H1165 0.950 . S
C1189 C1188 1.524 1_545 S
C1189 C1190 1.415 . S
C1190 H1166 0.950 . S
C1190 C1185 1.363 . S
C1190 C1189 1.415 . S
C1191 H1167 0.951 . S
C1191 C1192 1.366 . S
C1191 C1193 1.388 . S
C1192 C1191 1.366 . S
C1192 C1196 1.385 . S
C1193 H1168 0.951 . S
C1193 C1191 1.388 . S
C1193 C1194 1.366 . S
C1194 C1193 1.366 . S
C1194 C1195 1.414 . S
C1194 C1197 1.499 . S
C1195 H1169 0.950 . S
C1195 C1194 1.414 . S
C1195 C1196 1.374 . S
C1196 H1170 0.950 . S
C1196 C1192 1.385 . S
C1196 C1195 1.374 . S
C1197 C1194 1.499 . S
C1197 C1198 1.373 . S
C1197 C1199 1.389 . S
C1198 H1171 0.950 . S
C1198 C1184 1.377 . S
C1198 C1197 1.373 . S
C1199 C1183 1.377 . S
C1199 C1197 1.389 . S
C1199 C1200 1.524 . S
C1200 C1199 1.524 . S
C1200 C1201 1.397 . S
C1200 C1205 1.363 . S
C1201 H1172 0.950 . S
C1201 C1200 1.397 . S
C1201 C1202 1.334 . S
C1202 H1173 0.950 . S
C1202 C1201 1.334 . S
C1202 C1203 1.287 . S
C1203 C1202 1.287 . S
C1203 C1204 1.524 . S
C1203 H1206 0.999 . S
C1204 H1174 0.950 . S
C1204 C1203 1.524 . S
C1204 C1205 1.415 . S
C1205 H1175 0.950 . S
C1205 C1200 1.363 . S
C1205 C1204 1.415 . S
H1206 C1203 0.999 . S
H1207 C1188 0.913 . S
H1208 C1226 0.951 . S
H1209 C1228 0.951 . S
H1210 C1230 0.950 . S
H1211 C1231 0.950 . S
H1212 C1233 0.950 . S
H1213 C1236 0.950 . S
H1214 C1237 0.950 . S
H1215 C1239 0.950 . S
H1216 C1240 0.950 . S
H1217 C1241 0.951 . S
H1218 C1243 0.951 . S
H1219 C1245 0.950 . S
H1220 C1246 0.950 . S
H1221 C1248 0.950 . S
H1222 C1251 0.950 . S
H1223 C1252 0.950 . S
H1224 C1254 0.950 . S
H1225 C1255 0.950 . S
C1226 H1208 0.951 . S
C1226 C1227 1.366 . S
C1226 C1228 1.388 . S
C1227 C1226 1.366 . S
C1227 C1231 1.385 . S
C1228 H1209 0.951 . S
C1228 C1226 1.388 . S
C1228 C1229 1.366 . S
C1229 C1228 1.366 . S
C1229 C1230 1.414 . S
C1229 C1232 1.499 . S
C1230 H1210 0.950 . S
C1230 C1229 1.414 . S
C1230 C1231 1.374 . S
C1231 H1211 0.950 . S
C1231 C1227 1.385 . S
C1231 C1230 1.374 . S
C1232 C1229 1.499 . S
C1232 C1233 1.373 . S
C1232 C1234 1.389 . S
C1233 H1212 0.950 . S
C1233 C1232 1.373 . S
C1233 C1249 1.377 . S
C1234 C1232 1.389 . S
C1234 C1235 1.524 . S
C1234 C1248 1.377 . S
C1235 C1234 1.524 . S
C1235 C1236 1.397 . S
C1235 C1240 1.363 . S
C1236 H1213 0.950 . S
C1236 C1235 1.397 . S
C1236 C1237 1.334 . S
C1237 H1214 0.950 . S
C1237 C1236 1.334 . S
C1237 C1238 1.287 . S
C1238 C1237 1.287 . S
C1238 C1239 1.524 . S
C1238 H1257 0.913 . S
C1239 H1215 0.950 . S
C1239 C1238 1.524 . S
C1239 C1240 1.415 . S
C1240 H1216 0.950 . S
C1240 C1235 1.363 . S
C1240 C1239 1.415 . S
C1241 H1217 0.951 . S
C1241 C1242 1.366 . S
C1241 C1243 1.388 . S
C1242 C1241 1.366 . S
C1242 C1246 1.385 . S
C1243 H1218 0.951 . S
C1243 C1241 1.388 . S
C1243 C1244 1.366 . S
C1244 C1243 1.366 . S
C1244 C1245 1.414 . S
C1244 C1247 1.499 . S
C1245 H1219 0.950 . S
C1245 C1244 1.414 . S
C1245 C1246 1.374 . S
C1246 H1220 0.950 . S
C1246 C1242 1.385 . S
C1246 C1245 1.374 . S
C1247 C1244 1.499 . S
C1247 C1248 1.373 . S
C1247 C1249 1.389 . S
C1248 H1221 0.950 . S
C1248 C1234 1.377 . S
C1248 C1247 1.373 . S
C1249 C1233 1.377 . S
C1249 C1247 1.389 . S
C1249 C1250 1.524 . S
C1250 C1249 1.524 . S
C1250 C1251 1.397 . S
C1250 C1255 1.363 . S
C1251 H1222 0.950 . S
C1251 C1250 1.397 . S
C1251 C1252 1.334 . S
C1252 H1223 0.950 . S
C1252 C1251 1.334 . S
C1252 C1253 1.287 . S
C1253 C1252 1.287 . S
C1253 C1254 1.524 . S
C1253 H1256 0.999 . S
C1254 H1224 0.950 . S
C1254 C1253 1.524 . S
C1254 C1255 1.415 . S
C1255 H1225 0.950 . S
C1255 C1250 1.363 . S
C1255 C1254 1.415 . S
H1256 C1253 0.999 . S
H1257 C1238 0.913 . S
H1258 C1276 0.951 . S
H1259 C1278 0.951 . S
H1260 C1280 0.950 . S
H1261 C1281 0.950 . S
H1262 C1283 0.950 . S
H1263 C1286 0.950 . S
H1264 C1287 0.950 . S
H1265 C1289 0.950 . S
H1266 C1290 0.950 . S
H1267 C1291 0.951 . S
H1268 C1293 0.951 . S
H1269 C1295 0.950 . S
H1270 C1296 0.950 . S
H1271 C1298 0.950 . S
H1272 C1301 0.950 . S
H1273 C1302 0.950 . S
H1274 C1304 0.950 . S
H1275 C1305 0.950 . S
C1276 H1258 0.951 . S
C1276 C1277 1.366 . S
C1276 C1278 1.388 . S
C1277 C1276 1.366 . S
C1277 C1281 1.385 . S
C1278 H1259 0.951 . S
C1278 C1276 1.388 . S
C1278 C1279 1.366 . S
C1279 C1278 1.366 . S
C1279 C1280 1.414 . S
C1279 C1282 1.499 . S
C1280 H1260 0.950 . S
C1280 C1279 1.414 . S
C1280 C1281 1.374 . S
C1281 H1261 0.950 . S
C1281 C1277 1.385 . S
C1281 C1280 1.374 . S
C1282 C1279 1.499 . S
C1282 C1283 1.373 . S
C1282 C1284 1.389 . S
C1283 H1262 0.950 . S
C1283 C1282 1.373 . S
C1283 C1299 1.377 . S
C1284 C1282 1.389 . S
C1284 C1285 1.524 . S
C1284 C1298 1.377 . S
C1285 C1284 1.524 . S
C1285 C1286 1.397 . S
C1285 C1290 1.363 . S
C1286 H1263 0.950 . S
C1286 C1285 1.397 . S
C1286 C1287 1.334 . S
C1287 H1264 0.950 . S
C1287 C1286 1.334 . S
C1287 C1288 1.287 . S
C1288 C1287 1.287 . S
C1288 C1289 1.524 . S
C1288 H1307 0.913 . S
C1289 H1265 0.950 . S
C1289 C1288 1.524 . S
C1289 C1290 1.415 . S
C1290 H1266 0.950 . S
C1290 C1285 1.363 . S
C1290 C1289 1.415 . S
C1291 H1267 0.951 . S
C1291 C1292 1.366 . S
C1291 C1293 1.388 . S
C1292 C1291 1.366 . S
C1292 C1296 1.385 . S
C1293 H1268 0.951 . S
C1293 C1291 1.388 . S
C1293 C1294 1.366 . S
C1294 C1293 1.366 . S
C1294 C1295 1.414 . S
C1294 C1297 1.499 . S
C1295 H1269 0.950 . S
C1295 C1294 1.414 . S
C1295 C1296 1.374 . S
C1296 H1270 0.950 . S
C1296 C1292 1.385 . S
C1296 C1295 1.374 . S
C1297 C1294 1.499 . S
C1297 C1298 1.373 . S
C1297 C1299 1.389 . S
C1298 H1271 0.950 . S
C1298 C1284 1.377 . S
C1298 C1297 1.373 . S
C1299 C1283 1.377 . S
C1299 C1297 1.389 . S
C1299 C1300 1.524 . S
C1300 C1299 1.524 . S
C1300 C1301 1.397 . S
C1300 C1305 1.363 . S
C1301 H1272 0.950 . S
C1301 C1300 1.397 . S
C1301 C1302 1.334 . S
C1302 H1273 0.950 . S
C1302 C1301 1.334 . S
C1302 C1303 1.287 . S
C1303 C1302 1.287 . S
C1303 C1304 1.524 . S
C1303 H1306 0.999 . S
C1304 H1274 0.950 . S
C1304 C1303 1.524 . S
C1304 C1305 1.415 . S
C1305 H1275 0.950 . S
C1305 C1300 1.363 . S
C1305 C1304 1.415 . S
H1306 C1303 0.999 . S
H1307 C1288 0.913 . S
H1308 C1326 0.951 . S
H1309 C1328 0.951 . S
H1310 C1330 0.950 . S
H1311 C1331 0.950 . S
H1312 C1333 0.950 . S
H1313 C1336 0.950 . S
H1314 C1337 0.950 . S
H1315 C1339 0.950 . S
H1316 C1340 0.950 . S
H1317 C1341 0.951 . S
H1318 C1343 0.951 . S
H1319 C1345 0.950 . S
H1320 C1346 0.950 . S
H1321 C1348 0.950 . S
H1322 C1351 0.950 . S
H1323 C1352 0.950 . S
H1324 C1354 0.950 . S
H1325 C1355 0.950 . S
C1326 H1308 0.951 . S
C1326 C1327 1.366 . S
C1326 C1328 1.388 . S
C1327 C1326 1.366 . S
C1327 C1331 1.385 . S
C1328 H1309 0.951 . S
C1328 C1326 1.388 . S
C1328 C1329 1.366 . S
C1329 C1328 1.366 . S
C1329 C1330 1.414 . S
C1329 C1332 1.499 . S
C1330 H1310 0.950 . S
C1330 C1329 1.414 . S
C1330 C1331 1.374 . S
C1331 H1311 0.950 . S
C1331 C1327 1.385 . S
C1331 C1330 1.374 . S
C1332 C1329 1.499 . S
C1332 C1333 1.373 . S
C1332 C1334 1.389 . S
C1333 H1312 0.950 . S
C1333 C1332 1.373 . S
C1333 C1349 1.377 . S
C1334 C1332 1.389 . S
C1334 C1335 1.524 . S
C1334 C1348 1.377 . S
C1335 C1334 1.524 . S
C1335 C1336 1.397 . S
C1335 C1340 1.363 . S
C1336 H1313 0.950 . S
C1336 C1335 1.397 . S
C1336 C1337 1.334 . S
C1337 H1314 0.950 . S
C1337 C1336 1.334 . S
C1337 C1338 1.287 . S
C1338 C1337 1.287 . S
C1338 C1339 1.524 . S
C1338 H1357 0.913 . S
C1339 H1315 0.950 . S
C1339 C1338 1.524 . S
C1339 C1340 1.415 . S
C1340 H1316 0.950 . S
C1340 C1335 1.363 . S
C1340 C1339 1.415 . S
C1341 H1317 0.951 . S
C1341 C1342 1.366 . S
C1341 C1343 1.388 . S
C1342 C1341 1.366 . S
C1342 C1346 1.385 . S
C1343 H1318 0.951 . S
C1343 C1341 1.388 . S
C1343 C1344 1.366 . S
C1344 C1343 1.366 . S
C1344 C1345 1.414 . S
C1344 C1347 1.499 . S
C1345 H1319 0.950 . S
C1345 C1344 1.414 . S
C1345 C1346 1.374 . S
C1346 H1320 0.950 . S
C1346 C1342 1.385 . S
C1346 C1345 1.374 . S
C1347 C1344 1.499 . S
C1347 C1348 1.373 . S
C1347 C1349 1.389 . S
C1348 H1321 0.950 . S
C1348 C1334 1.377 . S
C1348 C1347 1.373 . S
C1349 C1333 1.377 . S
C1349 C1347 1.389 . S
C1349 C1350 1.524 . S
C1350 C1349 1.524 . S
C1350 C1351 1.397 . S
C1350 C1355 1.363 . S
C1351 H1322 0.950 . S
C1351 C1350 1.397 . S
C1351 C1352 1.334 . S
C1352 H1323 0.950 . S
C1352 C1351 1.334 . S
C1352 C1353 1.287 . S
C1353 C1352 1.287 . S
C1353 C1354 1.524 . S
C1353 H1356 0.999 . S
C1354 H1324 0.950 . S
C1354 C1353 1.524 . S
C1354 C1355 1.415 . S
C1355 H1325 0.950 . S
C1355 C1350 1.363 . S
C1355 C1354 1.415 . S
H1356 C1353 0.999 . S
H1357 C1338 0.913 . S
H1358 C1376 0.951 . S
H1359 C1378 0.951 . S
H1360 C1380 0.950 . S
H1361 C1381 0.950 . S
H1362 C1383 0.950 . S
H1363 C1386 0.950 . S
H1364 C1387 0.950 . S
H1365 C1389 0.950 . S
H1366 C1390 0.950 . S
H1367 C1391 0.951 . S
H1368 C1393 0.951 . S
H1369 C1395 0.950 . S
H1370 C1396 0.950 . S
H1371 C1398 0.950 . S
H1372 C1401 0.950 . S
H1373 C1402 0.950 . S
H1374 C1404 0.950 . S
H1375 C1405 0.950 . S
C1376 H1358 0.951 . S
C1376 C1377 1.366 . S
C1376 C1378 1.388 . S
C1377 C1376 1.366 . S
C1377 C1381 1.385 . S
C1378 H1359 0.951 . S
C1378 C1376 1.388 . S
C1378 C1379 1.366 . S
C1379 C1378 1.366 . S
C1379 C1380 1.414 . S
C1379 C1382 1.499 . S
C1380 H1360 0.950 . S
C1380 C1379 1.414 . S
C1380 C1381 1.374 . S
C1381 H1361 0.950 . S
C1381 C1377 1.385 . S
C1381 C1380 1.374 . S
C1382 C1379 1.499 . S
C1382 C1383 1.373 . S
C1382 C1384 1.389 . S
C1383 H1362 0.950 . S
C1383 C1382 1.373 . S
C1383 C1399 1.377 . S
C1384 C1382 1.389 . S
C1384 C1385 1.524 . S
C1384 C1398 1.377 . S
C1385 C1384 1.524 . S
C1385 C1386 1.397 . S
C1385 C1390 1.363 . S
C1386 H1363 0.950 . S
C1386 C1385 1.397 . S
C1386 C1387 1.334 . S
C1387 H1364 0.950 . S
C1387 C1386 1.334 . S
C1387 C1388 1.287 . S
C1388 C1387 1.287 . S
C1388 C1389 1.524 . S
C1388 H1407 0.913 . S
C1389 H1365 0.950 . S
C1389 C1388 1.524 . S
C1389 C1390 1.415 . S
C1390 H1366 0.950 . S
C1390 C1385 1.363 . S
C1390 C1389 1.415 . S
C1391 H1367 0.951 . S
C1391 C1392 1.366 . S
C1391 C1393 1.388 . S
C1392 C1391 1.366 . S
C1392 C1396 1.385 . S
C1393 H1368 0.951 . S
C1393 C1391 1.388 . S
C1393 C1394 1.366 . S
C1394 C1393 1.366 . S
C1394 C1395 1.414 . S
C1394 C1397 1.499 . S
C1395 H1369 0.950 . S
C1395 C1394 1.414 . S
C1395 C1396 1.374 . S
C1396 H1370 0.950 . S
C1396 C1392 1.385 . S
C1396 C1395 1.374 . S
C1397 C1394 1.499 . S
C1397 C1398 1.373 . S
C1397 C1399 1.389 . S
C1398 H1371 0.950 . S
C1398 C1384 1.377 . S
C1398 C1397 1.373 . S
C1399 C1383 1.377 . S
C1399 C1397 1.389 . S
C1399 C1400 1.524 . S
C1400 C1399 1.524 . S
C1400 C1401 1.397 . S
C1400 C1405 1.363 . S
C1401 H1372 0.950 . S
C1401 C1400 1.397 . S
C1401 C1402 1.334 . S
C1402 H1373 0.950 . S
C1402 C1401 1.334 . S
C1402 C1403 1.287 . S
C1403 C1402 1.287 . S
C1403 C1404 1.524 . S
C1403 H1406 0.999 . S
C1404 H1374 0.950 . S
C1404 C1403 1.524 . S
C1404 C1405 1.415 . S
C1405 H1375 0.950 . S
C1405 C1400 1.363 . S
C1405 C1404 1.415 . S
H1406 C1403 0.999 . S
H1407 C1388 0.913 . S
H1408 C1426 0.951 . S
H1409 C1428 0.951 . S
H1410 C1430 0.950 . S
H1411 C1431 0.950 . S
H1412 C1433 0.950 . S
H1413 C1436 0.950 . S
H1414 C1437 0.950 . S
H1415 C1439 0.950 . S
H1416 C1440 0.950 . S
H1417 C1441 0.951 . S
H1418 C1443 0.951 . S
H1419 C1445 0.950 . S
H1420 C1446 0.950 . S
H1421 C1448 0.950 . S
H1422 C1451 0.950 . S
H1423 C1452 0.950 . S
H1424 C1454 0.950 . S
H1425 C1455 0.950 . S
C1426 H1408 0.951 . S
C1426 C1427 1.366 . S
C1426 C1428 1.388 . S
C1427 C1426 1.366 . S
C1427 C1431 1.385 . S
C1428 H1409 0.951 . S
C1428 C1426 1.388 . S
C1428 C1429 1.366 . S
C1429 C1428 1.366 . S
C1429 C1430 1.414 . S
C1429 C1432 1.499 . S
C1430 H1410 0.950 . S
C1430 C1429 1.414 . S
C1430 C1431 1.374 . S
C1431 H1411 0.950 . S
C1431 C1427 1.385 . S
C1431 C1430 1.374 . S
C1432 C1429 1.499 . S
C1432 C1433 1.373 . S
C1432 C1434 1.389 . S
C1433 H1412 0.950 . S
C1433 C1432 1.373 . S
C1433 C1449 1.377 . S
C1434 C1432 1.389 . S
C1434 C1435 1.524 . S
C1434 C1448 1.377 . S
C1435 C1434 1.524 . S
C1435 C1436 1.397 . S
C1435 C1440 1.363 . S
C1436 H1413 0.950 . S
C1436 C1435 1.397 . S
C1436 C1437 1.334 . S
C1437 H1414 0.950 . S
C1437 C1436 1.334 . S
C1437 C1438 1.287 . S
C1438 C1437 1.287 . S
C1438 C1439 1.524 . S
C1438 H1457 0.913 . S
C1439 H1415 0.950 . S
C1439 C1438 1.524 . S
C1439 C1440 1.415 . S
C1440 H1416 0.950 . S
C1440 C1435 1.363 . S
C1440 C1439 1.415 . S
C1441 H1417 0.951 . S
C1441 C1442 1.366 . S
C1441 C1443 1.388 . S
C1442 C1441 1.366 . S
C1442 C1446 1.385 . S
C1443 H1418 0.951 . S
C1443 C1441 1.388 . S
C1443 C1444 1.366 . S
C1444 C1443 1.366 . S
C1444 C1445 1.414 . S
C1444 C1447 1.499 . S
C1445 H1419 0.950 . S
C1445 C1444 1.414 . S
C1445 C1446 1.374 . S
C1446 H1420 0.950 . S
C1446 C1442 1.385 . S
C1446 C1445 1.374 . S
C1447 C1444 1.499 . S
C1447 C1448 1.373 . S
C1447 C1449 1.389 . S
C1448 H1421 0.950 . S
C1448 C1434 1.377 . S
C1448 C1447 1.373 . S
C1449 C1433 1.377 . S
C1449 C1447 1.389 . S
C1449 C1450 1.524 . S
C1450 C1449 1.524 . S
C1450 C1451 1.397 . S
C1450 C1455 1.363 . S
C1451 H1422 0.950 . S
C1451 C1450 1.397 . S
C1451 C1452 1.334 . S
C1452 H1423 0.950 . S
C1452 C1451 1.334 . S
C1452 C1453 1.287 . S
C1453 C1452 1.287 . S
C1453 C1454 1.524 . S
C1453 H1456 0.999 . S
C1454 H1424 0.950 . S
C1454 C1453 1.524 . S
C1454 C1455 1.415 . S
C1455 H1425 0.950 . S
C1455 C1450 1.363 . S
C1455 C1454 1.415 . S
H1456 C1453 0.999 . S
H1457 C1438 0.913 . S
H1458 C1476 0.951 . S
H1459 C1478 0.951 . S
H1460 C1480 0.950 . S
H1461 C1481 0.950 . S
H1462 C1483 0.950 . S
H1463 C1486 0.950 . S
H1464 C1487 0.950 . S
H1465 C1489 0.950 . S
H1466 C1490 0.950 . S
H1467 C1491 0.951 . S
H1468 C1493 0.951 . S
H1469 C1495 0.950 . S
H1470 C1496 0.950 . S
H1471 C1498 0.950 . S
H1472 C1501 0.950 . S
H1473 C1502 0.950 . S
H1474 C1504 0.950 . S
H1475 C1505 0.950 . S
C1476 H1458 0.951 . S
C1476 C1477 1.366 . S
C1476 C1478 1.388 . S
C1477 C1476 1.366 . S
C1477 C1481 1.385 . S
C1478 H1459 0.951 . S
C1478 C1476 1.388 . S
C1478 C1479 1.366 . S
C1479 C1478 1.366 . S
C1479 C1480 1.414 . S
C1479 C1482 1.499 . S
C1480 H1460 0.950 . S
C1480 C1479 1.414 . S
C1480 C1481 1.374 . S
C1481 H1461 0.950 . S
C1481 C1477 1.385 . S
C1481 C1480 1.374 . S
C1482 C1479 1.499 . S
C1482 C1483 1.373 . S
C1482 C1484 1.389 . S
C1483 H1462 0.950 . S
C1483 C1482 1.373 . S
C1483 C1499 1.377 . S
C1484 C1482 1.389 . S
C1484 C1485 1.524 . S
C1484 C1498 1.377 . S
C1485 C1484 1.524 . S
C1485 C1486 1.397 . S
C1485 C1490 1.363 . S
C1486 H1463 0.950 . S
C1486 C1485 1.397 . S
C1486 C1487 1.334 . S
C1487 H1464 0.950 . S
C1487 C1486 1.334 . S
C1487 C1488 1.287 . S
C1488 C1487 1.287 . S
C1488 C1489 1.524 . S
C1488 H1507 0.913 . S
C1489 H1465 0.950 . S
C1489 C1488 1.524 . S
C1489 C1490 1.415 . S
C1490 H1466 0.950 . S
C1490 C1485 1.363 . S
C1490 C1489 1.415 . S
C1491 H1467 0.951 . S
C1491 C1492 1.366 . S
C1491 C1493 1.388 . S
C1492 C1491 1.366 . S
C1492 C1496 1.385 . S
C1493 H1468 0.951 . S
C1493 C1491 1.388 . S
C1493 C1494 1.366 . S
C1494 C1493 1.366 . S
C1494 C1495 1.414 . S
C1494 C1497 1.499 . S
C1495 H1469 0.950 . S
C1495 C1494 1.414 . S
C1495 C1496 1.374 . S
C1496 H1470 0.950 . S
C1496 C1492 1.385 . S
C1496 C1495 1.374 . S
C1497 C1494 1.499 . S
C1497 C1498 1.373 . S
C1497 C1499 1.389 . S
C1498 H1471 0.950 . S
C1498 C1484 1.377 . S
C1498 C1497 1.373 . S
C1499 C1483 1.377 . S
C1499 C1497 1.389 . S
C1499 C1500 1.524 . S
C1500 C1499 1.524 . S
C1500 C1501 1.397 . S
C1500 C1505 1.363 . S
C1501 H1472 0.950 . S
C1501 C1500 1.397 . S
C1501 C1502 1.334 . S
C1502 H1473 0.950 . S
C1502 C1501 1.334 . S
C1502 C1503 1.287 . S
C1503 C1502 1.287 . S
C1503 C1504 1.524 . S
C1503 H1506 0.999 . S
C1504 H1474 0.950 . S
C1504 C1503 1.524 . S
C1504 C1505 1.415 . S
C1505 H1475 0.950 . S
C1505 C1500 1.363 . S
C1505 C1504 1.415 . S
H1506 C1503 0.999 . S
H1507 C1488 0.913 . S
H1508 C1526 0.951 . S
H1509 C1528 0.951 . S
H1510 C1530 0.950 . S
H1511 C1531 0.950 . S
H1512 C1533 0.950 . S
H1513 C1536 0.950 . S
H1514 C1537 0.950 . S
H1515 C1539 0.950 . S
H1516 C1540 0.950 . S
H1517 C1541 0.951 . S
H1518 C1543 0.951 . S
H1519 C1545 0.950 . S
H1520 C1546 0.950 . S
H1521 C1548 0.950 . S
H1522 C1551 0.950 . S
H1523 C1552 0.950 . S
H1524 C1554 0.950 . S
H1525 C1555 0.950 . S
C1526 H1508 0.951 . S
C1526 C1527 1.366 . S
C1526 C1528 1.388 . S
C1527 C1526 1.366 . S
C1527 C1531 1.385 . S
C1528 H1509 0.951 . S
C1528 C1526 1.388 . S
C1528 C1529 1.366 . S
C1529 C1528 1.366 . S
C1529 C1530 1.414 . S
C1529 C1532 1.499 . S
C1530 H1510 0.950 . S
C1530 C1529 1.414 . S
C1530 C1531 1.374 . S
C1531 H1511 0.950 . S
C1531 C1527 1.385 . S
C1531 C1530 1.374 . S
C1532 C1529 1.499 . S
C1532 C1533 1.373 . S
C1532 C1534 1.389 . S
C1533 H1512 0.950 . S
C1533 C1532 1.373 . S
C1533 C1549 1.377 . S
C1534 C1532 1.389 . S
C1534 C1535 1.524 . S
C1534 C1548 1.377 . S
C1535 C1534 1.524 . S
C1535 C1536 1.397 . S
C1535 C1540 1.363 . S
C1536 H1513 0.950 . S
C1536 C1535 1.397 . S
C1536 C1537 1.334 . S
C1537 H1514 0.950 . S
C1537 C1536 1.334 . S
C1537 C1538 1.287 . S
C1538 C1537 1.287 . S
C1538 C1539 1.524 . S
C1538 H1557 0.913 . S
C1539 H1515 0.950 . S
C1539 C1538 1.524 . S
C1539 C1540 1.415 . S
C1540 H1516 0.950 . S
C1540 C1535 1.363 . S
C1540 C1539 1.415 . S
C1541 H1517 0.951 . S
C1541 C1542 1.366 . S
C1541 C1543 1.388 . S
C1542 C1541 1.366 . S
C1542 C1546 1.385 . S
C1543 H1518 0.951 . S
C1543 C1541 1.388 . S
C1543 C1544 1.366 . S
C1544 C1543 1.366 . S
C1544 C1545 1.414 . S
C1544 C1547 1.499 . S
C1545 H1519 0.950 . S
C1545 C1544 1.414 . S
C1545 C1546 1.374 . S
C1546 H1520 0.950 . S
C1546 C1542 1.385 . S
C1546 C1545 1.374 . S
C1547 C1544 1.499 . S
C1547 C1548 1.373 . S
C1547 C1549 1.389 . S
C1548 H1521 0.950 . S
C1548 C1534 1.377 . S
C1548 C1547 1.373 . S
C1549 C1533 1.377 . S
C1549 C1547 1.389 . S
C1549 C1550 1.524 . S
C1550 C1549 1.524 . S
C1550 C1551 1.397 . S
C1550 C1555 1.363 . S
C1551 H1522 0.950 . S
C1551 C1550 1.397 . S
C1551 C1552 1.334 . S
C1552 H1523 0.950 . S
C1552 C1551 1.334 . S
C1552 C1553 1.287 . S
C1553 C1552 1.287 . S
C1553 C1554 1.524 . S
C1553 H1556 0.999 . S
C1554 H1524 0.950 . S
C1554 C1553 1.524 . S
C1554 C1555 1.415 . S
C1555 H1525 0.950 . S
C1555 C1550 1.363 . S
C1555 C1554 1.415 . S
H1556 C1553 0.999 . S
H1557 C1538 0.913 . S
H1558 C1576 0.951 . S
H1559 C1578 0.951 . S
H1560 C1580 0.950 . S
H1561 C1581 0.950 . S
H1562 C1583 0.950 . S
H1563 C1586 0.950 . S
H1564 C1587 0.950 . S
H1565 C1589 0.950 . S
H1566 C1590 0.950 . S
H1567 C1591 0.951 . S
H1568 C1593 0.951 . S
H1569 C1595 0.950 . S
H1570 C1596 0.950 . S
H1571 C1598 0.950 . S
H1572 C1601 0.950 . S
H1573 C1602 0.950 . S
H1574 C1604 0.950 . S
H1575 C1605 0.950 . S
C1576 H1558 0.951 . S
C1576 C1577 1.366 . S
C1576 C1578 1.388 . S
C1577 C1576 1.366 . S
C1577 C1581 1.385 . S
C1578 H1559 0.951 . S
C1578 C1576 1.388 . S
C1578 C1579 1.366 . S
C1579 C1578 1.366 . S
C1579 C1580 1.414 . S
C1579 C1582 1.499 . S
C1580 H1560 0.950 . S
C1580 C1579 1.414 . S
C1580 C1581 1.374 . S
C1581 H1561 0.950 . S
C1581 C1577 1.385 . S
C1581 C1580 1.374 . S
C1582 C1579 1.499 . S
C1582 C1583 1.373 . S
C1582 C1584 1.389 . S
C1583 H1562 0.950 . S
C1583 C1582 1.373 . S
C1583 C1599 1.377 . S
C1584 C1582 1.389 . S
C1584 C1585 1.524 . S
C1584 C1598 1.377 . S
C1585 C1584 1.524 . S
C1585 C1586 1.397 . S
C1585 C1590 1.363 . S
C1586 H1563 0.950 . S
C1586 C1585 1.397 . S
C1586 C1587 1.334 . S
C1587 H1564 0.950 . S
C1587 C1586 1.334 . S
C1587 C1588 1.287 . S
C1588 C1587 1.287 . S
C1588 C1589 1.524 . S
C1588 H1607 0.913 . S
C1589 H1565 0.950 . S
C1589 C1588 1.524 . S
C1589 C1590 1.415 . S
C1590 H1566 0.950 . S
C1590 C1585 1.363 . S
C1590 C1589 1.415 . S
C1591 H1567 0.951 . S
C1591 C1592 1.366 . S
C1591 C1593 1.388 . S
C1592 C1591 1.366 . S
C1592 C1596 1.385 . S
C1593 H1568 0.951 . S
C1593 C1591 1.388 . S
C1593 C1594 1.366 . S
C1594 C1593 1.366 . S
C1594 C1595 1.414 . S
C1594 C1597 1.499 . S
C1595 H1569 0.950 . S
C1595 C1594 1.414 . S
C1595 C1596 1.374 . S
C1596 H1570 0.950 . S
C1596 C1592 1.385 . S
C1596 C1595 1.374 . S
C1597 C1594 1.499 . S
C1597 C1598 1.373 . S
C1597 C1599 1.389 . S
C1598 H1571 0.950 . S
C1598 C1584 1.377 . S
C1598 C1597 1.373 . S
C1599 C1583 1.377 . S
C1599 C1597 1.389 . S
C1599 C1600 1.524 . S
C1600 C1599 1.524 . S
C1600 C1601 1.397 . S
C1600 C1605 1.363 . S
C1601 H1572 0.950 . S
C1601 C1600 1.397 . S
C1601 C1602 1.334 . S
C1602 H1573 0.950 . S
C1602 C1601 1.334 . S
C1602 C1603 1.287 . S
C1603 C1602 1.287 . S
C1603 C1604 1.524 . S
C1603 H1606 0.999 . S
C1604 H1574 0.950 . S
C1604 C1603 1.524 . S
C1604 C1605 1.415 . S
C1605 H1575 0.950 . S
C1605 C1600 1.363 . S
C1605 C1604 1.415 . S
H1606 C1603 0.999 . S
H1607 C1588 0.913 . S
H1608 C1626 0.951 . S
H1609 C1628 0.951 . S
H1610 C1630 0.950 . S
H1611 C1631 0.950 . S
H1612 C1633 0.950 . S
H1613 C1636 0.950 . S
H1614 C1637 0.950 . S
H1615 C1639 0.950 . S
H1616 C1640 0.950 . S
H1617 C1641 0.951 . S
H1618 C1643 0.951 . S
H1619 C1645 0.950 . S
H1620 C1646 0.950 . S
H1621 C1648 0.950 . S
H1622 C1651 0.950 . S
H1623 C1652 0.950 . S
H1624 C1654 0.950 . S
H1625 C1655 0.950 . S
C1626 H1608 0.951 . S
C1626 C1627 1.366 . S
C1626 C1628 1.388 . S
C1627 C1626 1.366 . S
C1627 C1631 1.385 . S
C1628 H1609 0.951 . S
C1628 C1626 1.388 . S
C1628 C1629 1.366 . S
C1629 C1628 1.366 . S
C1629 C1630 1.414 . S
C1629 C1632 1.499 . S
C1630 H1610 0.950 . S
C1630 C1629 1.414 . S
C1630 C1631 1.374 . S
C1631 H1611 0.950 . S
C1631 C1627 1.385 . S
C1631 C1630 1.374 . S
C1632 C1629 1.499 . S
C1632 C1633 1.373 . S
C1632 C1634 1.389 . S
C1633 H1612 0.950 . S
C1633 C1632 1.373 . S
C1633 C1649 1.377 . S
C1634 C1632 1.389 . S
C1634 C1635 1.524 . S
C1634 C1648 1.377 . S
C1635 C1634 1.524 . S
C1635 C1636 1.397 . S
C1635 C1640 1.363 . S
C1636 H1613 0.950 . S
C1636 C1635 1.397 . S
C1636 C1637 1.334 . S
C1637 H1614 0.950 . S
C1637 C1636 1.334 . S
C1637 C1638 1.287 . S
C1638 C1637 1.287 . S
C1638 C1639 1.524 . S
C1638 H1657 0.913 . S
C1639 H1615 0.950 . S
C1639 C1638 1.524 . S
C1639 C1640 1.415 . S
C1640 H1616 0.950 . S
C1640 C1635 1.363 . S
C1640 C1639 1.415 . S
C1641 H1617 0.951 . S
C1641 C1642 1.366 . S
C1641 C1643 1.388 . S
C1642 C1641 1.366 . S
C1642 C1646 1.385 . S
C1643 H1618 0.951 . S
C1643 C1641 1.388 . S
C1643 C1644 1.366 . S
C1644 C1643 1.366 . S
C1644 C1645 1.414 . S
C1644 C1647 1.499 . S
C1645 H1619 0.950 . S
C1645 C1644 1.414 . S
C1645 C1646 1.374 . S
C1646 H1620 0.950 . S
C1646 C1642 1.385 . S
C1646 C1645 1.374 . S
C1647 C1644 1.499 . S
C1647 C1648 1.373 . S
C1647 C1649 1.389 . S
C1648 H1621 0.950 . S
C1648 C1634 1.377 . S
C1648 C1647 1.373 . S
C1649 C1633 1.377 . S
C1649 C1647 1.389 . S
C1649 C1650 1.524 . S
C1650 C1649 1.524 . S
C1650 C1651 1.397 . S
C1650 C1655 1.363 . S
C1651 H1622 0.950 . S
C1651 C1650 1.397 . S
C1651 C1652 1.334 . S
C1652 H1623 0.950 . S
C1652 C1651 1.334 . S
C1652 C1653 1.287 . S
C1653 C1652 1.287 . S
C1653 C1654 1.524 . S
C1653 H1656 0.999 . S
C1654 H1624 0.950 . S
C1654 C1653 1.524 . S
C1654 C1655 1.415 . S
C1655 H1625 0.950 . S
C1655 C1650 1.363 . S
C1655 C1654 1.415 . S
H1656 C1653 0.999 . S
H1657 C1638 0.913 . S
H1658 C1676 0.951 . S
H1659 C1678 0.951 . S
H1660 C1680 0.950 . S
H1661 C1681 0.950 . S
H1662 C1683 0.950 . S
H1663 C1686 0.950 . S
H1664 C1687 0.950 . S
H1665 C1689 0.950 . S
H1666 C1690 0.950 . S
H1667 C1691 0.951 . S
H1668 C1693 0.951 . S
H1669 C1695 0.950 . S
H1670 C1696 0.950 . S
H1671 C1698 0.950 . S
H1672 C1701 0.950 . S
H1673 C1702 0.950 . S
H1674 C1704 0.950 . S
H1675 C1705 0.950 . S
C1676 H1658 0.951 . S
C1676 C1677 1.366 . S
C1676 C1678 1.388 . S
C1677 C1676 1.366 . S
C1677 C1681 1.385 . S
C1678 H1659 0.951 . S
C1678 C1676 1.388 . S
C1678 C1679 1.366 . S
C1679 C1678 1.366 . S
C1679 C1680 1.414 . S
C1679 C1682 1.499 . S
C1680 H1660 0.950 . S
C1680 C1679 1.414 . S
C1680 C1681 1.374 . S
C1681 H1661 0.950 . S
C1681 C1677 1.385 . S
C1681 C1680 1.374 . S
C1682 C1679 1.499 . S
C1682 C1683 1.373 . S
C1682 C1684 1.389 . S
C1683 H1662 0.950 . S
C1683 C1682 1.373 . S
C1683 C1699 1.377 . S
C1684 C1682 1.389 . S
C1684 C1685 1.524 . S
C1684 C1698 1.377 . S
C1685 C1684 1.524 . S
C1685 C1686 1.397 . S
C1685 C1690 1.363 . S
C1686 H1663 0.950 . S
C1686 C1685 1.397 . S
C1686 C1687 1.334 . S
C1687 H1664 0.950 . S
C1687 C1686 1.334 . S
C1687 C1688 1.287 . S
C1688 C1687 1.287 . S
C1688 C1689 1.524 . S
C1688 H1707 0.913 . S
C1689 H1665 0.950 . S
C1689 C1688 1.524 . S
C1689 C1690 1.415 . S
C1690 H1666 0.950 . S
C1690 C1685 1.363 . S
C1690 C1689 1.415 . S
C1691 H1667 0.951 . S
C1691 C1692 1.366 . S
C1691 C1693 1.388 . S
C1692 C1691 1.366 . S
C1692 C1696 1.385 . S
C1693 H1668 0.951 . S
C1693 C1691 1.388 . S
C1693 C1694 1.366 . S
C1694 C1693 1.366 . S
C1694 C1695 1.414 . S
C1694 C1697 1.499 . S
C1695 H1669 0.950 . S
C1695 C1694 1.414 . S
C1695 C1696 1.374 . S
C1696 H1670 0.950 . S
C1696 C1692 1.385 . S
C1696 C1695 1.374 . S
C1697 C1694 1.499 . S
C1697 C1698 1.373 . S
C1697 C1699 1.389 . S
C1698 H1671 0.950 . S
C1698 C1684 1.377 . S
C1698 C1697 1.373 . S
C1699 C1683 1.377 . S
C1699 C1697 1.389 . S
C1699 C1700 1.524 . S
C1700 C1699 1.524 . S
C1700 C1701 1.397 . S
C1700 C1705 1.363 . S
C1701 H1672 0.950 . S
C1701 C1700 1.397 . S
C1701 C1702 1.334 . S
C1702 H1673 0.950 . S
C1702 C1701 1.334 . S
C1702 C1703 1.287 . S
C1703 C1702 1.287 . S
C1703 C1704 1.524 . S
C1703 H1706 0.999 . S
C1704 H1674 0.950 . S
C1704 C1703 1.524 . S
C1704 C1705 1.415 . S
C1705 H1675 0.950 . S
C1705 C1700 1.363 . S
C1705 C1704 1.415 . S
H1706 C1703 0.999 . S
H1707 C1688 0.913 . S
H1708 C1726 0.951 . S
H1709 C1728 0.951 . S
H1710 C1730 0.950 . S
H1711 C1731 0.950 . S
H1712 C1733 0.950 . S
H1713 C1736 0.950 . S
H1714 C1737 0.950 . S
H1715 C1739 0.950 . S
H1716 C1740 0.950 . S
H1717 C1741 0.951 . S
H1718 C1743 0.951 . S
H1719 C1745 0.950 . S
H1720 C1746 0.950 . S
H1721 C1748 0.950 . S
H1722 C1751 0.950 . S
H1723 C1752 0.950 . S
H1724 C1754 0.950 . S
H1725 C1755 0.950 . S
C1726 H1708 0.951 . S
C1726 C1727 1.366 . S
C1726 C1728 1.388 . S
C1727 C1726 1.366 . S
C1727 C1731 1.385 . S
C1728 H1709 0.951 . S
C1728 C1726 1.388 . S
C1728 C1729 1.366 . S
C1729 C1728 1.366 . S
C1729 C1730 1.414 . S
C1729 C1732 1.499 . S
C1730 H1710 0.950 . S
C1730 C1729 1.414 . S
C1730 C1731 1.374 . S
C1731 H1711 0.950 . S
C1731 C1727 1.385 . S
C1731 C1730 1.374 . S
C1732 C1729 1.499 . S
C1732 C1733 1.373 . S
C1732 C1734 1.389 . S
C1733 H1712 0.950 . S
C1733 C1732 1.373 . S
C1733 C1749 1.377 . S
C1734 C1732 1.389 . S
C1734 C1735 1.524 . S
C1734 C1748 1.377 . S
C1735 C1734 1.524 . S
C1735 C1736 1.397 . S
C1735 C1740 1.363 . S
C1736 H1713 0.950 . S
C1736 C1735 1.397 . S
C1736 C1737 1.334 . S
C1737 H1714 0.950 . S
C1737 C1736 1.334 . S
C1737 C1738 1.287 . S
C1738 C1737 1.287 . S
C1738 C1739 1.524 . S
C1738 H1757 0.913 . S
C1739 H1715 0.950 . S
C1739 C1738 1.524 . S
C1739 C1740 1.415 . S
C1740 H1716 0.950 . S
C1740 C1735 1.363 . S
C1740 C1739 1.415 . S
C1741 H1717 0.951 . S
C1741 C1742 1.366 . S
C1741 C1743 1.388 . S
C1742 C1741 1.366 . S
C1742 C1746 1.385 . S
C1743 H1718 0.951 . S
C1743 C1741 1.388 . S
C1743 C1744 1.366 . S
C1744 C1743 1.366 . S
C1744 C1745 1.414 . S
C1744 C1747 1.499 . S
C1745 H1719 0.950 . S
C1745 C1744 1.414 . S
C1745 C1746 1.374 . S
C1746 H1720 0.950 . S
C1746 C1742 1.385 . S
C1746 C1745 1.374 . S
C1747 C1744 1.499 . S
C1747 C1748 1.373 . S
C1747 C1749 1.389 . S
C1748 H1721 0.950 . S
C1748 C1734 1.377 . S
C1748 C1747 1.373 . S
C1749 C1733 1.377 . S
C1749 C1747 1.389 . S
C1749 C1750 1.524 . S
C1750 C1749 1.524 . S
C1750 C1751 1.397 . S
C1750 C1755 1.363 . S
C1751 H1722 0.950 . S
C1751 C1750 1.397 . S
C1751 C1752 1.334 . S
C1752 H1723 0.950 . S
C1752 C1751 1.334 . S
C1752 C1753 1.287 . S
C1753 C1752 1.287 . S
C1753 C1754 1.524 . S
C1753 H1756 0.999 . S
C1754 H1724 0.950 . S
C1754 C1753 1.524 . S
C1754 C1755 1.415 . S
C1755 H1725 0.950 . S
C1755 C1750 1.363 . S
C1755 C1754 1.415 . S
H1756 C1753 0.999 . S
H1757 C1738 0.913 . S
H1758 C1776 0.951 . S
H1759 C1778 0.951 . S
H1760 C1780 0.950 . S
H1761 C1781 0.950 . S
H1762 C1783 0.950 . S
H1763 C1786 0.950 . S
H1764 C1787 0.950 . S
H1765 C1789 0.950 . S
H1766 C1790 0.950 . S
H1767 C1791 0.951 . S
H1768 C1793 0.951 . S
H1769 C1795 0.950 . S
H1770 C1796 0.950 . S
H1771 C1798 0.950 . S
H1772 C1801 0.950 . S
H1773 C1802 0.950 . S
H1774 C1804 0.950 . S
H1775 C1805 0.950 . S
C1776 H1758 0.951 . S
C1776 C1777 1.366 . S
C1776 C1778 1.388 . S
C1777 C1776 1.366 . S
C1777 C1781 1.385 . S
C1778 H1759 0.951 . S
C1778 C1776 1.388 . S
C1778 C1779 1.366 . S
C1779 C1778 1.366 . S
C1779 C1780 1.414 . S
C1779 C1782 1.499 . S
C1780 H1760 0.950 . S
C1780 C1779 1.414 . S
C1780 C1781 1.374 . S
C1781 H1761 0.950 . S
C1781 C1777 1.385 . S
C1781 C1780 1.374 . S
C1782 C1779 1.499 . S
C1782 C1783 1.373 . S
C1782 C1784 1.389 . S
C1783 H1762 0.950 . S
C1783 C1782 1.373 . S
C1783 C1799 1.377 . S
C1784 C1782 1.389 . S
C1784 C1785 1.524 . S
C1784 C1798 1.377 . S
C1785 C1784 1.524 . S
C1785 C1786 1.397 . S
C1785 C1790 1.363 . S
C1786 H1763 0.950 . S
C1786 C1785 1.397 . S
C1786 C1787 1.334 . S
C1787 H1764 0.950 . S
C1787 C1786 1.334 . S
C1787 C1788 1.287 . S
C1788 C1787 1.287 . S
C1788 C1789 1.524 . S
C1788 H1807 0.913 . S
C1789 H1765 0.950 . S
C1789 C1788 1.524 . S
C1789 C1790 1.415 . S
C1790 H1766 0.950 . S
C1790 C1785 1.363 . S
C1790 C1789 1.415 . S
C1791 H1767 0.951 . S
C1791 C1792 1.366 . S
C1791 C1793 1.388 . S
C1792 C1791 1.366 . S
C1792 C1796 1.385 . S
C1793 H1768 0.951 . S
C1793 C1791 1.388 . S
C1793 C1794 1.366 . S
C1794 C1793 1.366 . S
C1794 C1795 1.414 . S
C1794 C1797 1.499 . S
C1795 H1769 0.950 . S
C1795 C1794 1.414 . S
C1795 C1796 1.374 . S
C1796 H1770 0.950 . S
C1796 C1792 1.385 . S
C1796 C1795 1.374 . S
C1797 C1794 1.499 . S
C1797 C1798 1.373 . S
C1797 C1799 1.389 . S
C1798 H1771 0.950 . S
C1798 C1784 1.377 . S
C1798 C1797 1.373 . S
C1799 C1783 1.377 . S
C1799 C1797 1.389 . S
C1799 C1800 1.524 . S
C1800 C1799 1.524 . S
C1800 C1801 1.397 . S
C1800 C1805 1.363 . S
C1801 H1772 0.950 . S
C1801 C1800 1.397 . S
C1801 C1802 1.334 . S
C1802 H1773 0.950 . S
C1802 C1801 1.334 . S
C1802 C1803 1.287 . S
C1803 C1802 1.287 . S
C1803 C1804 1.524 . S
C1803 H1806 0.999 . S
C1804 H1774 0.950 . S
C1804 C1803 1.524 . S
C1804 C1805 1.415 . S
C1805 H1775 0.950 . S
C1805 C1800 1.363 . S
C1805 C1804 1.415 . S
H1806 C1803 0.999 . S
H1807 C1788 0.913 . S
C227 C199 1.294 . S
C242 C10 1.295 . S
C277 C160 0.743 . S
C292 C23 0.743 . S
C327 C36 0.991 . S
C342 C179 0.974 . S
C377 C186 0.975 . S
C392 C43 0.991 . S
C427 C127 0.743 . S
C442 C62 0.743 . S
C477 C69 0.975 . S
C492 C134 0.991 . S
C527 C82 0.973 . S
C542 C153 0.991 . S
C577 C101 1.294 . S
C592 C114 1.294 . S
C627 C70 1.735 . S
C642 C5 1.668 . S
C677 C81 1.402 . S
C692 C18 1.454 . S
C727 C94 1.715 . S
C742 C31 1.683 . S
C777 C44 1.274 . S
C792 C56 1.260 . S
C827 C4 1.408 . S
C842 C16 1.407 . S
C877 C29 1.274 . S
C892 C17 1.259 . S
C927 C30 1.815 . S
C942 C49 1.815 . S
C977 C3 1.715 . S
C992 C42 1.684 . S
C1027 C95 1.408 . S
C1042 C55 1.407 . S
C1077 C57 1.454 . S
C1092 C68 1.402 . S
C1127 C75 1.506 . S
C1142 C88 1.506 . S
C1177 C96 1.668 . S
C1192 C83 1.735 . S
C1227 C172 1.736 . S
C1242 C109 1.667 . S
C1277 C122 1.454 . S
C1292 C185 1.402 . S
C1327 C200 1.715 . S
C1342 C133 1.683 . S
C1377 C166 1.260 . S
C1392 C146 1.274 . S
C1427 C108 1.408 . S
C1442 C120 1.407 . S
C1477 C121 1.259 . S
C1492 C135 1.274 . S
C1527 C147 1.815 . S
C1542 C140 1.814 . S
C1577 C107 1.715 . S
C1592 C148 1.684 . S
C1627 C205 1.408 . S
C1642 C161 1.407 . S
C1677 C159 1.454 . S
C1692 C174 1.402 . S
C1727 C173 1.505 . S
C1742 C192 1.506 . S
C1777 C198 1.667 . S
C1792 C187 1.735 . S
