# Generated by pormake.
# Topology unp, (4)-cn, num edge types: 1
# Building blocks:
#     Node 0, Type 0, BuildingBlock: CEKHIL_clean_sbu_0, # of connection points: 4
#     Node 1, Type 0, BuildingBlock: CEKHIL_clean_sbu_0, # of connection points: 4
#     Node 2, Type 0, BuildingBlock: CEKHIL_clean_sbu_0, # of connection points: 4
#     Node 3, Type 0, BuildingBlock: CEKHIL_clean_sbu_0, # of connection points: 4
#     Node 4, Type 0, BuildingBlock: CEKHIL_clean_sbu_0, # of connection points: 4
#     Node 5, Type 0, BuildingBlock: CEKHIL_clean_sbu_0, # of connection points: 4
#     Node 6, Type 0, BuildingBlock: CEKHIL_clean_sbu_0, # of connection points: 4
#     Node 7, Type 0, BuildingBlock: CEKHIL_clean_sbu_0, # of connection points: 4
#     Node 8, Type 0, BuildingBlock: CEKHIL_clean_sbu_0, # of connection points: 4
#     Node 9, Type 0, BuildingBlock: CEKHIL_clean_sbu_0, # of connection points: 4
#     Node 10, Type 0, BuildingBlock: CEKHIL_clean_sbu_0, # of connection points: 4
#     Node 11, Type 0, BuildingBlock: CEKHIL_clean_sbu_0, # of connection points: 4
#     Node 12, Type 0, BuildingBlock: CEKHIL_clean_sbu_0, # of connection points: 4
#     Node 13, Type 0, BuildingBlock: CEKHIL_clean_sbu_0, # of connection points: 4
#     Node 14, Type 0, BuildingBlock: CEKHIL_clean_sbu_0, # of connection points: 4
#     Node 15, Type 0, BuildingBlock: CEKHIL_clean_sbu_0, # of connection points: 4
#     Node 16, Type 0, BuildingBlock: CEKHIL_clean_sbu_0, # of connection points: 4
#     Node 17, Type 0, BuildingBlock: CEKHIL_clean_sbu_0, # of connection points: 4
#     Edge 18, Type (0, 0), BuildingBlock: XUDNAN_clean_linker_2, # of connection points: 2
#     Edge 19, Type (0, 0), BuildingBlock: XUDNAN_clean_linker_2, # of connection points: 2
#     Edge 20, Type (0, 0), BuildingBlock: XUDNAN_clean_linker_2, # of connection points: 2
#     Edge 21, Type (0, 0), BuildingBlock: XUDNAN_clean_linker_2, # of connection points: 2
#     Edge 22, Type (0, 0), BuildingBlock: XUDNAN_clean_linker_2, # of connection points: 2
#     Edge 23, Type (0, 0), BuildingBlock: XUDNAN_clean_linker_2, # of connection points: 2
#     Edge 24, Type (0, 0), BuildingBlock: XUDNAN_clean_linker_2, # of connection points: 2
#     Edge 25, Type (0, 0), BuildingBlock: XUDNAN_clean_linker_2, # of connection points: 2
#     Edge 26, Type (0, 0), BuildingBlock: XUDNAN_clean_linker_2, # of connection points: 2
#     Edge 27, Type (0, 0), BuildingBlock: XUDNAN_clean_linker_2, # of connection points: 2
#     Edge 28, Type (0, 0), BuildingBlock: XUDNAN_clean_linker_2, # of connection points: 2
#     Edge 29, Type (0, 0), BuildingBlock: XUDNAN_clean_linker_2, # of connection points: 2
#     Edge 30, Type (0, 0), BuildingBlock: XUDNAN_clean_linker_2, # of connection points: 2
#     Edge 31, Type (0, 0), BuildingBlock: XUDNAN_clean_linker_2, # of connection points: 2
#     Edge 32, Type (0, 0), BuildingBlock: XUDNAN_clean_linker_2, # of connection points: 2
#     Edge 33, Type (0, 0), BuildingBlock: XUDNAN_clean_linker_2, # of connection points: 2
#     Edge 34, Type (0, 0), BuildingBlock: XUDNAN_clean_linker_2, # of connection points: 2
#     Edge 35, Type (0, 0), BuildingBlock: XUDNAN_clean_linker_2, # of connection points: 2
#     Edge 36, Type (0, 0), BuildingBlock: XUDNAN_clean_linker_2, # of connection points: 2
#     Edge 37, Type (0, 0), BuildingBlock: XUDNAN_clean_linker_2, # of connection points: 2
#     Edge 38, Type (0, 0), BuildingBlock: XUDNAN_clean_linker_2, # of connection points: 2
#     Edge 39, Type (0, 0), BuildingBlock: XUDNAN_clean_linker_2, # of connection points: 2
#     Edge 40, Type (0, 0), BuildingBlock: XUDNAN_clean_linker_2, # of connection points: 2
#     Edge 41, Type (0, 0), BuildingBlock: XUDNAN_clean_linker_2, # of connection points: 2
#     Edge 42, Type (0, 0), BuildingBlock: XUDNAN_clean_linker_2, # of connection points: 2
#     Edge 43, Type (0, 0), BuildingBlock: XUDNAN_clean_linker_2, # of connection points: 2
#     Edge 44, Type (0, 0), BuildingBlock: XUDNAN_clean_linker_2, # of connection points: 2
#     Edge 45, Type (0, 0), BuildingBlock: XUDNAN_clean_linker_2, # of connection points: 2
#     Edge 46, Type (0, 0), BuildingBlock: XUDNAN_clean_linker_2, # of connection points: 2
#     Edge 47, Type (0, 0), BuildingBlock: XUDNAN_clean_linker_2, # of connection points: 2
#     Edge 48, Type (0, 0), BuildingBlock: XUDNAN_clean_linker_2, # of connection points: 2
#     Edge 49, Type (0, 0), BuildingBlock: XUDNAN_clean_linker_2, # of connection points: 2
#     Edge 50, Type (0, 0), BuildingBlock: XUDNAN_clean_linker_2, # of connection points: 2
#     Edge 51, Type (0, 0), BuildingBlock: XUDNAN_clean_linker_2, # of connection points: 2
#     Edge 52, Type (0, 0), BuildingBlock: XUDNAN_clean_linker_2, # of connection points: 2
#     Edge 53, Type (0, 0), BuildingBlock: XUDNAN_clean_linker_2, # of connection points: 2
# Relax obj value: 0.423
# Max RMSD: 0.186
# Mean RMSD: 0.186
data_MOF--net-unp--node1-CEKHIL_clean_sbu_0--edge1-XUDNAN_clean_linker_2
_symmetry_space_group_name_H-M    P1
_symmetry_Int_Tables_number       1
_symmetry_cell_setting            triclinic
loop_
_symmetry_equiv_pos_as_xyz
'x, y, z'
_cell_length_a     49.142587
_cell_length_b     49.103536
_cell_length_c     54.023338
_cell_angle_alpha  89.957787
_cell_angle_beta   90.009977
_cell_angle_gamma 119.99318
loop_
_atom_site_label
_atom_site_type_symbol
_atom_site_fract_x
_atom_site_fract_y
_atom_site_fract_z
_atom_type_partial_charge
Co0 Co 0.16105 0.13592 0.1418 0.0
O1 O 0.20515 0.15089 0.14067 0.0
O2 O 0.18359 0.17969 0.15112 0.0
C3 C 0.14749 0.09051 0.16171 0.0
O4 O 0.11687 0.12872 0.14593 0.0
Co5 Co 0.11383 0.07421 0.11489 0.0
O6 O 0.08186 0.08009 0.13279 0.0
C7 C 0.15656 0.13074 0.08623 0.0
C8 C 0.20879 0.17798 0.1472 0.0
C9 C 0.08862 0.1058 0.14357 0.0
O10 O 0.16255 0.14768 0.10583 0.0
O11 O 0.14021 0.10067 0.08656 0.0
O12 O 0.15735 0.1163 0.17434 0.0
O13 O 0.14845 0.09352 0.13801 0.0
Co14 Co 0.83616 0.02522 0.14102 0.0
O15 O 0.81596 0.04966 0.14098 0.0
O16 O 0.79318 -0.0004 0.15256 0.0
C17 C 0.88097 0.06164 0.15888 0.0
O18 O 0.8509 -0.00674 0.14392 0.0
Co19 Co 0.89732 0.04933 0.10986 0.0
O20 O 0.89766 0.01239 0.12455 0.0
C21 C 0.83648 0.02551 0.08526 0.0
C22 C 0.79102 0.02463 0.14867 0.0
C23 C 0.87524 0.99153 0.13756 0.0
O24 O 0.82234 0.01269 0.10564 0.0
O25 O 0.86613 0.04415 0.08366 0.0
O26 O 0.85697 0.04339 0.17265 0.0
O27 O 0.87606 0.05916 0.13538 0.0
Co28 Co 0.9591 0.80746 0.13433 0.0
O29 O 0.93061 0.76318 0.13091 0.0
O30 O 0.9758 0.78442 0.15133 0.0
C31 C 0.9231 0.82172 0.14376 0.0
O32 O -0.00597 0.8518 0.14277 0.0
Co33 Co 0.95494 0.85631 0.10001 0.0
O34 O 0.98057 0.88564 0.12666 0.0
C35 C 0.98165 0.81835 0.08098 0.0
C36 C 0.95075 0.75924 0.14374 0.0
C37 C -0.00287 0.87936 0.14119 0.0
O38 O 0.98072 0.80686 0.10259 0.0
O39 O 0.97097 0.83675 0.07607 0.0
O40 O 0.93341 0.81059 0.16096 0.0
O41 O 0.93231 0.8206 0.12166 0.0
Co42 Co 0.13338 0.16592 0.86194 0.0
O43 O 0.15432 0.21071 0.86098 0.0
O44 O 0.17396 0.18179 0.84625 0.0
C45 C 0.08633 0.15791 0.84911 0.0
O46 O 0.1173 0.11893 0.85841 0.0
Co47 Co 0.0759 0.12754 0.89653 0.0
O48 O 0.06751 0.09364 0.87245 0.0
C49 C 0.13999 0.1618 0.9173 0.0
C50 C 0.17705 0.20936 0.84997 0.0
C51 C 0.08973 0.09442 0.85976 0.0
O52 O 0.15226 0.16767 0.89554 0.0
O53 O 0.11043 0.14808 0.92146 0.0
O54 O 0.10812 0.16342 0.83295 0.0
O55 O 0.09486 0.16048 0.87194 0.0
Co56 Co 0.80176 0.95473 0.8629 0.0
O57 O 0.75687 0.93043 0.86132 0.0
O58 O 0.78571 0.98093 0.8509 0.0
C59 C 0.81152 0.91881 0.84551 0.0
O60 O 0.84795 0.98714 0.8605 0.0
Co61 Co 0.84055 0.9329 0.89403 0.0
O62 O 0.87742 0.9693 0.87839 0.0
C63 C 0.80324 0.95652 0.91897 0.0
C64 C 0.75823 0.95602 0.85329 0.0
C65 C 0.87452 0.98962 0.86576 0.0
O66 O 0.7993 0.96696 0.89819 0.0
O67 O 0.81609 0.93946 0.92071 0.0
O68 O 0.8058 0.93695 0.83153 0.0
O69 O 0.80839 0.92106 0.86896 0.0
Co70 Co 0.01769 0.84201 0.85726 0.0
O71 O 0.04577 0.82596 0.85447 0.0
O72 O -0.00592 0.79787 0.84887 0.0
C73 C 0.04636 0.88643 0.83541 0.0
O74 O 0.98155 0.85097 0.85773 0.0
Co75 Co 0.03831 0.90521 0.88423 0.0
O76 O 0.00101 0.90203 0.86704 0.0
C77 C 0.02563 0.84884 0.91285 0.0
C78 C 0.02108 0.79899 0.84974 0.0
C79 C 0.97906 0.87579 0.85893 0.0
O80 O 0.01286 0.83149 0.8937 0.0
O81 O 0.03945 0.87892 0.91221 0.0
O82 O 0.02826 0.86019 0.82392 0.0
O83 O 0.04877 0.88411 0.85896 0.0
Co84 Co 0.83284 0.47018 0.47155 0.0
O85 O 0.8766 0.48867 0.47858 0.0
O86 O 0.8504 0.51475 0.47723 0.0
C87 C 0.81625 0.42793 0.49629 0.0
O88 O 0.78751 0.45866 0.4665 0.0
Co89 Co 0.7959 0.4046 0.44661 0.0
O90 O 0.75889 0.40667 0.45943 0.0
C91 C 0.83852 0.45978 0.41678 0.0
C92 C 0.87668 0.51501 0.48087 0.0
C93 C 0.76106 0.43293 0.46501 0.0
O94 O 0.84162 0.47801 0.43497 0.0
O95 O 0.82372 0.42976 0.41834 0.0
O96 O 0.82218 0.45476 0.50561 0.0
O97 O 0.82385 0.42861 0.47336 0.0
Co98 Co 0.50113 0.35666 0.46966 0.0
O99 O 0.48277 0.38294 0.47174 0.0
O100 O 0.46063 0.33369 0.4855 0.0
C101 C 0.54937 0.39216 0.48293 0.0
O102 O 0.51334 0.32294 0.47167 0.0
Co103 Co 0.55665 0.37349 0.4335 0.0
O104 O 0.55671 0.33672 0.44881 0.0
C105 C 0.49336 0.35253 0.41433 0.0
C106 C 0.45908 0.35911 0.48227 0.0
C107 C 0.53543 0.31839 0.46388 0.0
O108 O 0.48154 0.34206 0.43585 0.0
O109 O 0.52288 0.36883 0.41019 0.0
O110 O 0.52722 0.3763 0.49893 0.0
O111 O 0.54092 0.38828 0.46005 0.0
Co112 Co 0.62698 0.14924 0.46945 0.0
O113 O 0.60516 0.1043 0.46828 0.0
O114 O 0.6517 0.13407 0.48607 0.0
C115 C 0.58551 0.15429 0.48054 0.0
O116 O 0.65574 0.19624 0.47539 0.0
Co117 Co 0.6088 0.18842 0.43496 0.0
O118 O 0.63104 0.22102 0.46068 0.0
C119 C 0.64488 0.15995 0.41509 0.0
C120 C 0.62884 0.10623 0.4804 0.0
C121 C 0.65189 0.2203 0.47422 0.0
O122 O 0.64787 0.151 0.43681 0.0
O123 O 0.62909 0.17363 0.41046 0.0
O124 O 0.60088 0.14836 0.49728 0.0
O125 O 0.59372 0.15366 0.45798 0.0
Co126 Co 0.79982 0.49907 0.19393 0.0
O127 O 0.82334 0.54391 0.19541 0.0
O128 O 0.84082 0.51391 0.17919 0.0
C129 C 0.75486 0.49541 0.18021 0.0
O130 O 0.78097 0.45196 0.18813 0.0
Co131 Co 0.73997 0.46167 0.22639 0.0
O132 O 0.73097 0.42807 0.20176 0.0
C133 C 0.80297 0.49113 0.24919 0.0
C134 C 0.84558 0.54186 0.18427 0.0
C135 C 0.75291 0.42812 0.18913 0.0
O136 O 0.81599 0.49627 0.2277 0.0
O137 O 0.7735 0.48034 0.25239 0.0
O138 O 0.77715 0.5008 0.1646 0.0
O139 O 0.76194 0.49573 0.2032 0.0
Co140 Co 0.471 0.29397 0.19277 0.0
O141 O 0.42662 0.26716 0.18977 0.0
O142 O 0.45288 0.31795 0.17972 0.0
C143 C 0.48393 0.25986 0.17643 0.0
O144 O 0.51655 0.32857 0.19146 0.0
Co145 Co 0.5115 0.27565 0.22534 0.0
O146 O 0.54742 0.31202 0.2088 0.0
C147 C 0.46915 0.29443 0.24865 0.0
C148 C 0.42634 0.29171 0.18116 0.0
C149 C 0.54357 0.33189 0.19636 0.0
O150 O 0.46568 0.30506 0.22779 0.0
O151 O 0.4838 0.27912 0.25086 0.0
O152 O 0.47785 0.27725 0.16186 0.0
O153 O 0.47983 0.26205 0.19971 0.0
Co154 Co 0.68522 0.17813 0.19147 0.0
O155 O 0.71062 0.15953 0.1849 0.0
O156 O 0.65837 0.13351 0.18607 0.0
C157 C 0.71117 0.22034 0.16656 0.0
O158 O 0.65101 0.18939 0.19589 0.0
Co159 Co 0.71254 0.24403 0.21554 0.0
O160 O 0.67412 0.24165 0.20113 0.0
C161 C 0.69994 0.18933 0.24651 0.0
C162 C 0.68437 0.13312 0.18284 0.0
C163 C 0.65022 0.21516 0.19586 0.0
O164 O 0.68626 0.17065 0.22817 0.0
O165 O 0.71383 0.21932 0.24458 0.0
O166 O 0.69034 0.19344 0.15728 0.0
O167 O 0.71766 0.21978 0.18961 0.0
Co168 Co 0.50167 0.80561 0.80167 0.0
O169 O 0.5464 0.82603 0.80056 0.0
O170 O 0.51918 0.84777 0.81467 0.0
C171 C 0.49403 0.75997 0.81746 0.0
O172 O 0.45538 0.79125 0.8064 0.0
Co173 Co 0.46154 0.74552 0.77019 0.0
O174 O 0.42574 0.74374 0.78871 0.0
C175 C 0.49927 0.80713 0.74629 0.0
C176 C 0.5463 0.85036 0.80982 0.0
C177 C 0.42879 0.76657 0.80196 0.0
O178 O 0.50181 0.821 0.76703 0.0
O179 O 0.48709 0.77734 0.74412 0.0
O180 O 0.5003 0.78333 0.83218 0.0
O181 O 0.49507 0.76577 0.79414 0.0
Co182 Co 0.16691 0.6847 0.797 0.0
O183 O 0.14911 0.71141 0.79995 0.0
O184 O 0.12499 0.66075 0.81033 0.0
C185 C 0.21441 0.71878 0.81295 0.0
O186 O 0.17817 0.65024 0.79824 0.0
Co187 Co 0.22571 0.70264 0.76441 0.0
O188 O 0.22814 0.67069 0.78557 0.0
C189 C 0.16419 0.68216 0.74109 0.0
C190 C 0.12442 0.68685 0.80869 0.0
C191 C 0.20387 0.64947 0.7967 0.0
O192 O 0.15015 0.67311 0.76212 0.0
O193 O 0.19405 0.69653 0.73845 0.0
O194 O 0.19094 0.70203 0.82771 0.0
O195 O 0.20751 0.71639 0.78976 0.0
Co196 Co 0.28938 0.47665 0.81108 0.0
O197 O 0.25899 0.43285 0.81163 0.0
O198 O 0.30899 0.45335 0.82268 0.0
C199 C 0.25876 0.49347 0.82856 0.0
O200 O 0.32729 0.52059 0.81349 0.0
Co201 Co 0.27638 0.52249 0.77994 0.0
O202 O 0.3152 0.5551 0.79644 0.0
C203 C 0.28948 0.47692 0.7554 0.0
C204 C 0.28165 0.4285 0.81911 0.0
C205 C 0.33357 0.54875 0.80861 0.0
O206 O 0.29992 0.47217 0.77579 0.0
O207 O 0.27616 0.49353 0.7537 0.0
O208 O 0.27363 0.48367 0.84261 0.0
O209 O 0.26084 0.49028 0.80514 0.0
Co210 Co 0.46985 0.84473 0.52418 0.0
O211 O 0.48833 0.8894 0.52528 0.0
O212 O 0.51261 0.86423 0.5121 0.0
C213 C 0.42356 0.83382 0.50744 0.0
O214 O 0.45761 0.79883 0.51975 0.0
Co215 Co 0.40929 0.80259 0.55489 0.0
O216 O 0.40904 0.7681 0.53547 0.0
C217 C 0.46996 0.84107 0.57993 0.0
C218 C 0.51368 0.89074 0.51681 0.0
C219 C 0.43283 0.77191 0.52317 0.0
O220 O 0.48452 0.8454 0.55922 0.0
O221 O 0.44 0.8276 0.58159 0.0
O222 O 0.44777 0.8421 0.49313 0.0
O223 O 0.42926 0.8359 0.53081 0.0
Co224 Co 0.14011 0.62596 0.51686 0.0
O225 O 0.09572 0.59894 0.51869 0.0
O226 O 0.11947 0.64849 0.50564 0.0
C227 C 0.15103 0.59097 0.49928 0.0
O228 O 0.18535 0.6605 0.51171 0.0
Co229 Co 0.18407 0.6091 0.54643 0.0
O230 O 0.21799 0.64586 0.52871 0.0
C231 C 0.14453 0.62906 0.57257 0.0
C232 C 0.09349 0.62268 0.51068 0.0
C233 C 0.2129 0.66467 0.51592 0.0
O234 O 0.13985 0.63954 0.55211 0.0
O235 O 0.15861 0.61311 0.5737 0.0
O236 O 0.14241 0.60701 0.48546 0.0
O237 O 0.15008 0.59464 0.52279 0.0
Co238 Co 0.34949 0.5108 0.53189 0.0
O239 O 0.37677 0.49356 0.53476 0.0
O240 O 0.32827 0.46847 0.5193 0.0
C241 C 0.3851 0.55803 0.51646 0.0
O242 O 0.31485 0.52084 0.52516 0.0
Co243 Co 0.3616 0.57031 0.56124 0.0
O244 O 0.33063 0.57026 0.53742 0.0
C245 C 0.34096 0.50997 0.58696 0.0
C246 C 0.35371 0.46818 0.52531 0.0
C247 C 0.31179 0.54532 0.52569 0.0
O248 O 0.33313 0.49517 0.56622 0.0
O249 O 0.3553 0.54001 0.58861 0.0
O250 O 0.37096 0.53398 0.50169 0.0
O251 O 0.3794 0.5519 0.53967 0.0
H252 H 0.39064 0.2537 0.14502 0.0
H253 H 0.39577 0.32133 0.19874 0.0
H254 H 0.34026 0.30574 0.18988 0.0
H255 H 0.33186 0.25991 0.1013 0.0
H256 H 0.31353 0.21845 0.09478 0.0
H257 H 0.35521 0.24099 0.10059 0.0
H258 H 0.34897 0.20194 0.13541 0.0
H259 H 0.30746 0.17967 0.13011 0.0
H260 H 0.32211 0.19507 0.16055 0.0
H261 H 0.28186 0.27442 0.1817 0.0
H262 H 0.22712 0.23184 0.17419 0.0
H263 H 0.26162 0.1855 0.12572 0.0
C264 C 0.38032 0.26611 0.15402 0.0
C265 C 0.397 0.28876 0.17223 0.0
C266 C 0.38313 0.30427 0.18433 0.0
C267 C 0.35174 0.29556 0.17939 0.0
C268 C 0.33522 0.27193 0.16195 0.0
C269 C 0.34938 0.25796 0.14904 0.0
C270 C 0.326 0.2305 0.13373 0.0
C271 C 0.33201 0.23792 0.10595 0.0
C272 C 0.32615 0.20003 0.14038 0.0
C273 C 0.29603 0.22925 0.14177 0.0
C274 C 0.3017 0.25384 0.1574 0.0
C275 C 0.2772 0.25556 0.16898 0.0
C276 C 0.24625 0.23127 0.16473 0.0
C277 C 0.24042 0.20546 0.14953 0.0
C278 C 0.26554 0.205 0.13747 0.0
H279 H 0.77308 0.0586 0.12178 0.0
H280 H 0.74468 -0.00569 0.18381 0.0
H281 H 0.70315 0.00718 0.19423 0.0
H282 H 0.77296 0.11673 0.15087 0.0
H283 H 0.75875 0.13073 0.12596 0.0
H284 H 0.77861 0.10945 0.11908 0.0
H285 H 0.73074 0.06886 0.09358 0.0
H286 H 0.71065 0.09032 0.1002 0.0
H287 H 0.69228 0.04905 0.10755 0.0
H288 H 0.67375 0.03633 0.20303 0.0
H289 H 0.66097 0.07876 0.20966 0.0
H290 H 0.71086 0.12464 0.14259 0.0
C291 C 0.75728 0.04633 0.137 0.0
C292 C 0.76184 0.02557 0.15204 0.0
C293 C 0.74114 0.01005 0.17194 0.0
C294 C 0.71753 0.01722 0.17791 0.0
C295 C 0.71479 0.03938 0.16344 0.0
C296 C 0.73392 0.05328 0.14309 0.0
C297 C 0.73032 0.07988 0.13277 0.0
C298 C 0.76202 0.11099 0.13218 0.0
C299 C 0.71508 0.07151 0.107 0.0
C300 C 0.7082 0.0807 0.15167 0.0
C301 C 0.69842 0.0565 0.16873 0.0
C302 C 0.68054 0.05478 0.1894 0.0
C303 C 0.67337 0.07887 0.19305 0.0
C304 C 0.6848 0.10443 0.1764 0.0
C305 C 0.70151 0.10484 0.15522 0.0
H306 H 0.84705 0.57507 0.14476 0.0
H307 H 0.90331 0.57433 0.20597 0.0
H308 H 0.94259 0.63021 0.19769 0.0
H309 H 0.91462 0.63531 0.10437 0.0
H310 H 0.89096 0.65206 0.09483 0.0
H311 H 0.87267 0.61055 0.10127 0.0
H312 H 0.83568 0.61575 0.13266 0.0
H313 H 0.8542 0.65721 0.12688 0.0
H314 H 0.85241 0.64312 0.158 0.0
H315 H 0.96946 0.68823 0.18785 0.0
H316 H 0.98214 0.7423 0.17686 0.0
H317 H 0.90659 0.70439 0.12301 0.0
C318 C 0.86859 0.58633 0.15544 0.0
C319 C 0.87299 0.57057 0.1754 0.0
C320 C 0.90036 0.58603 0.19005 0.0
C321 C 0.9226 0.61772 0.18551 0.0
C322 C 0.91691 0.63324 0.16626 0.0
C323 C 0.89072 0.61781 0.1512 0.0
C324 C 0.88726 0.64041 0.13426 0.0
C325 C 0.89165 0.63421 0.10707 0.0
C326 C 0.85553 0.63903 0.13822 0.0
C327 C 0.91439 0.67118 0.14313 0.0
C328 C 0.93174 0.66667 0.16115 0.0
C329 C 0.95644 0.69198 0.17339 0.0
C330 C 0.96337 0.72257 0.16713 0.0
C331 C 0.94526 0.72744 0.14915 0.0
C332 C 0.92088 0.70138 0.1368 0.0
H333 H 0.23461 0.37579 0.79879 0.0
H334 H 0.31669 0.40902 0.84573 0.0
H335 H 0.30414 0.35391 0.85236 0.0
H336 H 0.18463 0.31398 0.83376 0.0
H337 H 0.1638 0.28809 0.80835 0.0
H338 H 0.18289 0.32984 0.80407 0.0
H339 H 0.21446 0.32559 0.76722 0.0
H340 H 0.19558 0.28363 0.77164 0.0
H341 H 0.23785 0.30709 0.77174 0.0
H342 H 0.27716 0.29489 0.85919 0.0
H343 H 0.23761 0.23884 0.86675 0.0
H344 H 0.17471 0.24575 0.81449 0.0
C345 C 0.2503 0.37155 0.81013 0.0
C346 C 0.27643 0.39644 0.82192 0.0
C347 C 0.29651 0.39009 0.83654 0.0
C348 C 0.28967 0.35894 0.84025 0.0
C349 C 0.26316 0.33474 0.8287 0.0
C350 C 0.24402 0.34089 0.81373 0.0
C351 C 0.2152 0.31112 0.80545 0.0
C352 C 0.18487 0.31075 0.81341 0.0
C353 C 0.21583 0.3066 0.77734 0.0
C354 C 0.21984 0.28718 0.81945 0.0
C355 C 0.24803 0.30098 0.83225 0.0
C356 C 0.25551 0.28372 0.8487 0.0
C357 C 0.2331 0.25196 0.85282 0.0
C358 C 0.20374 0.23831 0.84069 0.0
C359 C 0.19753 0.25575 0.8233 0.0
H360 H 0.72736 0.9341 0.81063 0.0
H361 H 0.72412 0.97472 0.88072 0.0
H362 H 0.66959 0.96232 0.87187 0.0
H363 H 0.67074 0.95396 0.77528 0.0
H364 H 0.65431 0.91696 0.75915 0.0
H365 H 0.69536 0.93769 0.76745 0.0
H366 H 0.68801 0.88805 0.79035 0.0
H367 H 0.6472 0.86738 0.78236 0.0
H368 H 0.65876 0.87079 0.8144 0.0
H369 H 0.61279 0.93471 0.8599 0.0
H370 H 0.55958 0.89358 0.84674 0.0
H371 H 0.60028 0.87067 0.78472 0.0
C372 C 0.71551 0.94172 0.82342 0.0
C373 C 0.72959 0.95582 0.84599 0.0
C374 C 0.71355 0.96451 0.86304 0.0
C375 C 0.68271 0.95764 0.85809 0.0
C376 C 0.66872 0.94242 0.83594 0.0
C377 C 0.68488 0.935 0.81869 0.0
C378 C 0.66342 0.91411 0.79845 0.0
C379 C 0.67144 0.93174 0.77361 0.0
C380 C 0.6644 0.88328 0.79632 0.0
C381 C 0.63224 0.90847 0.80819 0.0
C382 C 0.63573 0.9259 0.82927 0.0
C383 C 0.6098 0.92162 0.84304 0.0
C384 C 0.57971 0.89824 0.8355 0.0
C385 C 0.57617 0.87914 0.81482 0.0
C386 C 0.60256 0.88519 0.80056 0.0
H387 H 0.12551 0.72173 0.84695 0.0
H388 H 0.06527 0.66 0.78932 0.0
H389 H 0.02517 0.67499 0.79938 0.0
H390 H 0.05885 0.71138 0.8905 0.0
H391 H 0.08168 0.75202 0.89964 0.0
H392 H 0.10105 0.7301 0.89217 0.0
H393 H 0.1353 0.77252 0.85979 0.0
H394 H 0.11593 0.79427 0.86686 0.0
H395 H 0.11637 0.78212 0.83544 0.0
H396 H -0.00239 0.70536 0.81004 0.0
H397 H 0.9855 0.74746 0.82033 0.0
H398 H 0.06438 0.78846 0.87092 0.0
C399 C 0.10322 0.71043 0.83727 0.0
C400 C 0.09792 0.6896 0.81771 0.0
C401 C 0.06914 0.67562 0.80474 0.0
C402 C 0.04635 0.68397 0.81037 0.0
C403 C 0.05273 0.70572 0.8293 0.0
C404 C 0.0803 0.71823 0.8429 0.0
C405 C 0.08374 0.74403 0.86 0.0
C406 C 0.08117 0.73376 0.88719 0.0
C407 C 0.11463 0.77504 0.8552 0.0
C408 C 0.05539 0.74619 0.85232 0.0
C409 C 0.03708 0.7233 0.83525 0.0
C410 C 0.01132 0.72286 0.82386 0.0
C411 C 0.00465 0.74682 0.82971 0.0
C412 C 0.02421 0.77106 0.84626 0.0
C413 C 0.04915 0.7701 0.85817 0.0
H414 H 0.91269 0.52068 0.51969 0.0
H415 H 0.90631 0.57159 0.45674 0.0
H416 H 0.96177 0.61331 0.46317 0.0
H417 H 0.97265 0.59387 0.55673 0.0
H418 H -0.00895 0.57229 0.5677 0.0
H419 H 0.94921 0.55223 0.56249 0.0
H420 H 0.95424 0.51293 0.53351 0.0
H421 H -0.00415 0.53297 0.53823 0.0
H422 H 0.98037 0.52773 0.50725 0.0
H423 H 0.02048 0.64164 0.47044 0.0
H424 H 0.07526 0.65409 0.47849 0.0
H425 H 0.04183 0.58422 0.53683 0.0
C426 C 0.92268 0.54144 0.50806 0.0
C427 C 0.90566 0.54342 0.48796 0.0
C428 C 0.91915 0.57025 0.47255 0.0
C429 C 0.95055 0.59395 0.4761 0.0
C430 C 0.96748 0.59055 0.49547 0.0
C431 C 0.95363 0.56522 0.51159 0.0
C432 C 0.97741 0.56421 0.52866 0.0
C433 C 0.97227 0.57107 0.55548 0.0
C434 C 0.97693 0.53262 0.52675 0.0
C435 C 0.0072 0.59101 0.51812 0.0
C436 C 0.00118 0.60672 0.49956 0.0
C437 C 0.02543 0.63008 0.4854 0.0
C438 C 0.0564 0.63694 0.48999 0.0
C439 C 0.06244 0.61989 0.50815 0.0
C440 C 0.03769 0.59753 0.52282 0.0
H441 H 0.36595 0.4489 0.48228 0.0
H442 H 0.35101 0.42756 0.56044 0.0
H443 H 0.36565 0.38639 0.55526 0.0
H444 H 0.34469 0.3663 0.45973 0.0
H445 H 0.3759 0.38306 0.4372 0.0
H446 H 0.35521 0.40346 0.44543 0.0
H447 H 0.40815 0.45298 0.45663 0.0
H448 H 0.42885 0.43281 0.44856 0.0
H449 H 0.43363 0.44969 0.47899 0.0
H450 H 0.39044 0.35477 0.54314 0.0
H451 H 0.4281 0.33987 0.52632 0.0
H452 H 0.43079 0.38537 0.45697 0.0
C453 C 0.36443 0.43442 0.49795 0.0
C454 C 0.35671 0.44041 0.52156 0.0
C455 C 0.35628 0.42247 0.54212 0.0
C456 C 0.36436 0.39902 0.53929 0.0
C457 C 0.37295 0.39416 0.5158 0.0
C458 C 0.37303 0.41141 0.49545 0.0
C459 C 0.38869 0.4061 0.47338 0.0
C460 C 0.36468 0.38869 0.45271 0.0
C461 C 0.41647 0.43724 0.46387 0.0
C462 C 0.3996 0.38522 0.485 0.0
C463 C 0.38906 0.37734 0.50911 0.0
C464 C 0.39829 0.36023 0.52413 0.0
C465 C 0.41963 0.35188 0.5145 0.0
C466 C 0.43204 0.3616 0.49047 0.0
C467 C 0.42126 0.37759 0.47537 0.0
H468 H 0.59998 0.0735 0.52102 0.0
H469 H 0.65207 0.0734 0.45665 0.0
H470 H 0.63627 0.0177 0.46468 0.0
H471 H 0.60924 0.01198 0.55935 0.0
H472 H 0.56956 -0.00425 0.57052 0.0
H473 H 0.59304 0.03733 0.56443 0.0
H474 H 0.54947 0.03374 0.53532 0.0
H475 H 0.52618 -0.00769 0.54088 0.0
H476 H 0.53669 0.00669 0.50962 0.0
H477 H 0.60528 0.95989 0.47423 0.0
H478 H 0.56204 0.90613 0.48401 0.0
H479 H 0.52892 0.94446 0.54108 0.0
C480 C 0.60945 0.0621 0.50957 0.0
C481 C 0.62789 0.07752 0.48878 0.0
C482 C 0.63871 0.0619 0.47316 0.0
C483 C 0.6298 0.03034 0.47759 0.0
C484 C 0.61018 0.01505 0.49772 0.0
C485 C 0.60051 0.03066 0.51369 0.0
C486 C 0.57529 0.00814 0.53121 0.0
C487 C 0.58753 0.01363 0.55796 0.0
C488 C 0.54515 0.01036 0.52909 0.0
C489 C 0.57045 0.97726 0.52136 0.0
C490 C 0.59143 0.9816 0.50265 0.0
C491 C 0.58925 0.95624 0.48926 0.0
C492 C 0.56462 0.92584 0.49484 0.0
C493 C 0.54224 0.92141 0.51317 0.0
C494 C 0.54581 0.94732 0.52697 0.0
H495 H 0.03675 0.06151 0.16768 0.0
H496 H 0.08211 0.15785 0.14194 0.0
H497 H 0.03482 0.16071 0.15336 0.0
H498 H 0.966 0.03747 0.14257 0.0
H499 H 0.94284 0.0118 0.16742 0.0
H500 H 0.98237 0.0201 0.1628 0.0
H501 H -0.00428 0.0396 0.20815 0.0
H502 H 0.95602 0.03151 0.21273 0.0
H503 H -0.01136 0.07023 0.21894 0.0
H504 H 0.9798 0.1489 0.15751 0.0
H505 H 0.92203 0.12382 0.1548 0.0
H506 H 0.91239 0.03589 0.18017 0.0
C507 C 0.03685 0.08328 0.16478 0.0
C508 C 0.06268 0.10925 0.15359 0.0
C509 C 0.06244 0.13771 0.15057 0.0
C510 C 0.03576 0.13954 0.1571 0.0
C511 C 0.01001 0.11294 0.16718 0.0
C512 C 0.01057 0.08546 0.17138 0.0
C513 C 0.97877 0.05902 0.1795 0.0
C514 C 0.96681 0.03046 0.16202 0.0
C515 C 0.97987 0.04955 0.20643 0.0
C516 C 0.95953 0.07519 0.17728 0.0
C517 C 0.97815 0.10653 0.17072 0.0
C518 C 0.96512 0.12486 0.16363 0.0
C519 C 0.93235 0.11053 0.1622 0.0
C520 C 0.91316 0.07843 0.16818 0.0
C521 C 0.92678 0.0609 0.17676 0.0
H522 H 0.88607 0.95505 0.10657 0.0
H523 H 0.86878 0.96533 0.18363 0.0
H524 H 0.87591 0.92001 0.19453 0.0
H525 H 0.84433 0.86947 0.10635 0.0
H526 H 0.87173 0.86785 0.08507 0.0
H527 H 0.86464 0.90044 0.08397 0.0
H528 H 0.92437 0.93942 0.08935 0.0
H529 H 0.93159 0.90697 0.09042 0.0
H530 H 0.94474 0.93498 0.11543 0.0
H531 H 0.89077 0.8762 0.19656 0.0
H532 H 0.9076 0.83682 0.18909 0.0
H533 H 0.9082 0.853 0.1101 0.0
C534 C 0.88349 0.94752 0.12571 0.0
C535 C 0.87695 0.96343 0.14432 0.0
C536 C 0.87358 0.95306 0.16916 0.0
C537 C 0.87768 0.9275 0.17546 0.0
C538 C 0.88435 0.9123 0.15656 0.0
C539 C 0.88666 0.92174 0.13214 0.0
C540 C 0.89389 0.90187 0.11512 0.0
C541 C 0.86704 0.88384 0.09654 0.0
C542 C 0.92552 0.92201 0.10181 0.0
C543 C 0.89583 0.87997 0.1337 0.0
C544 C 0.89069 0.88635 0.15759 0.0
C545 C 0.8942 0.87063 0.17785 0.0
C546 C 0.90366 0.84826 0.17347 0.0
C547 C 0.90909 0.8417 0.14902 0.0
C548 C 0.90417 0.85725 0.12904 0.0
H549 H 0.08614 0.05735 0.17385 0.0
H550 H 0.17133 0.05224 0.17116 0.0
H551 H 0.14013 -0.00561 0.17596 0.0
H552 H 0.03395 0.98554 0.21169 0.0
H553 H 0.0013 0.97558 0.19122 0.0
H554 H 0.03049 0.0162 0.19621 0.0
H555 H 0.04009 0.02342 0.1481 0.0
H556 H 0.01054 0.98322 0.14409 0.0
H557 H 0.04949 -0.00263 0.13188 0.0
H558 H 0.0996 0.93737 0.17103 0.0
H559 H 0.05464 0.88792 0.15532 0.0
H560 H -0.00392 0.93071 0.15767 0.0
C561 C 0.09819 0.0441 0.17533 0.0
C562 C 0.13102 0.05905 0.1728 0.0
C563 C 0.14618 0.04109 0.17398 0.0
C564 C 0.12859 0.00824 0.17656 0.0
C565 C 0.09587 -0.00617 0.1774 0.0
C566 C 0.08084 0.01132 0.17672 0.0
C567 C 0.04595 0.99067 0.17224 0.0
C568 C 0.02678 -0.00793 0.19416 0.0
C569 C 0.03597 -0.00082 0.14767 0.0
C570 C 0.04364 0.95894 0.1703 0.0
C571 C 0.07251 0.96099 0.1736 0.0
C572 C 0.07675 0.93535 0.16904 0.0
C573 C 0.05114 0.90737 0.16009 0.0
C574 C 0.02203 0.90568 0.15533 0.0
C575 C 0.01807 0.93137 0.1614 0.0
H576 H 0.09929 0.941 0.84489 0.0
H577 H 0.0113 0.90114 0.80495 0.0
H578 H 0.01751 0.95407 0.80075 0.0
H579 H 0.0885 0.98855 0.88051 0.0
H580 H 0.12793 0.02168 0.88077 0.0
H581 H 0.12156 0.98299 0.87481 0.0
H582 H 0.15128 0.00137 0.83313 0.0
H583 H 0.15868 0.04061 0.8392 0.0
H584 H 0.13979 0.02104 0.8108 0.0
H585 H 0.02562 0.00697 0.81163 0.0
H586 H 0.03949 0.05815 0.83063 0.0
H587 H 0.1245 0.06529 0.86071 0.0
C588 C 0.08237 0.94382 0.83398 0.0
C589 C 0.05513 0.91733 0.8249 0.0
C590 C 0.03275 0.92137 0.81142 0.0
C591 C 0.03601 0.95134 0.80914 0.0
C592 C 0.06225 0.9769 0.81976 0.0
C593 C 0.08564 0.97359 0.83118 0.0
C594 C 0.10956 0.00383 0.84363 0.0
C595 C 0.11198 -0.00106 0.87157 0.0
C596 C 0.14173 0.01753 0.83092 0.0
C597 C 0.09491 0.02406 0.83892 0.0
C598 C 0.0677 0.00817 0.82501 0.0
C599 C 0.04753 0.02015 0.8216 0.0
C600 C 0.05542 0.04903 0.8326 0.0
C601 C 0.08335 0.06568 0.84658 0.0
C602 C 0.1036 0.05337 0.84935 0.0
H603 H 0.03862 0.14298 0.88081 0.0
H604 H 0.05815 0.13148 0.80446 0.0
H605 H 0.00218 0.0911 0.7987 0.0
H606 H -0.003 0.06544 0.89229 0.0
H607 H 0.96952 0.06672 0.91368 0.0
H608 H 0.00791 0.10054 0.90999 0.0
H609 H 0.98342 0.13509 0.89891 0.0
H610 H 0.94476 0.10148 0.90309 0.0
H611 H 0.95488 0.12301 0.87434 0.0
H612 H 0.94558 0.04699 0.80333 0.0
H613 H 0.89528 0.0022 0.81815 0.0
H614 H 0.91702 0.03875 0.89284 0.0
C615 C 0.03097 0.13286 0.86257 0.0
C616 C 0.05259 0.14045 0.84302 0.0
C617 C 0.0418 0.12631 0.81957 0.0
C618 C 0.01009 0.10329 0.8162 0.0
C619 C -0.0102 0.09484 0.83648 0.0
C620 C -5e-05 0.10934 0.85921 0.0
C621 C 0.97562 0.09284 0.8792 0.0
C622 C -0.01172 0.08067 0.9 0.0
C623 C 0.96398 0.11439 0.88948 0.0
C624 C 0.9504 0.06614 0.86442 0.0
C625 C 0.9585 0.06811 0.83967 0.0
C626 C 0.93899 0.0454 0.82261 0.0
C627 C 0.91066 0.02003 0.83117 0.0
C628 C 0.90291 0.0172 0.8566 0.0
C629 C 0.92277 0.04058 0.87333 0.0
H630 H 0.97118 0.92335 0.84099 0.0
H631 H 0.92023 0.82393 0.85889 0.0
H632 H 0.87022 0.8219 0.84875 0.0
H633 H 0.92053 0.94312 0.86749 0.0
H634 H 0.92456 0.97116 0.84417 0.0
H635 H 0.95587 0.96307 0.84916 0.0
H636 H 0.95383 0.94897 0.80269 0.0
H637 H 0.92194 0.95661 0.79788 0.0
H638 H 0.91741 0.91906 0.78938 0.0
H639 H 0.82629 0.83317 0.84534 0.0
H640 H 0.79207 0.85668 0.8475 0.0
H641 H 0.8706 0.94718 0.82732 0.0
C642 C 0.94951 0.90104 0.84233 0.0
C643 C 0.94945 0.87384 0.85088 0.0
C644 C 0.92074 0.84502 0.85232 0.0
C645 C 0.89226 0.84363 0.84649 0.0
C646 C 0.89304 0.87105 0.83859 0.0
C647 C 0.92099 0.89912 0.8361 0.0
C648 C 0.91531 0.92579 0.82932 0.0
C649 C 0.9299 0.9523 0.84871 0.0
C650 C 0.92786 0.93833 0.80326 0.0
C651 C 0.87973 0.90875 0.82992 0.0
C652 C 0.86731 0.87708 0.83501 0.0
C653 C 0.83551 0.85758 0.84036 0.0
C654 C 0.8162 0.87102 0.84145 0.0
C655 C 0.82865 0.90338 0.83671 0.0
C656 C 0.86042 0.92213 0.82993 0.0
H657 H 0.70452 0.38473 0.48133 0.0
H658 H 0.7527 0.48367 0.4615 0.0
H659 H 0.70473 0.48587 0.47088 0.0
H660 H 0.63151 0.36411 0.45539 0.0
H661 H 0.6087 0.33719 0.47972 0.0
H662 H 0.64764 0.34448 0.47329 0.0
H663 H 0.66262 0.36018 0.51917 0.0
H664 H 0.62374 0.35357 0.52545 0.0
H665 H 0.6577 0.39112 0.53245 0.0
H666 H 0.65039 0.47575 0.47645 0.0
H667 H 0.59282 0.45356 0.478 0.0
H668 H 0.58059 0.36287 0.49837 0.0
C669 C 0.70497 0.40687 0.47908 0.0
C670 C 0.73222 0.43399 0.47053 0.0
C671 C 0.73206 0.46262 0.46803 0.0
C672 C 0.705 0.46415 0.47344 0.0
C673 C 0.67852 0.43703 0.48183 0.0
C674 C 0.67831 0.40895 0.48482 0.0
C675 C 0.64625 0.38289 0.49293 0.0
C676 C 0.63274 0.35559 0.4742 0.0
C677 C 0.64768 0.37127 0.51906 0.0
C678 C 0.62812 0.40038 0.49282 0.0
C679 C 0.6473 0.43168 0.48659 0.0
C680 C 0.63526 0.45161 0.48214 0.0
C681 C 0.60266 0.43894 0.48318 0.0
C682 C 0.58273 0.40695 0.48909 0.0
C683 C 0.59563 0.38772 0.49479 0.0
H684 H 0.53127 0.27049 0.43648 0.0
H685 H 0.54259 0.30519 0.51157 0.0
H686 H 0.54926 0.26093 0.52626 0.0
H687 H 0.48707 0.18551 0.45316 0.0
H688 H 0.50556 0.17551 0.42877 0.0
H689 H 0.49894 0.20823 0.42497 0.0
H690 H 0.55831 0.24521 0.41601 0.0
H691 H 0.56496 0.21263 0.41953 0.0
H692 H 0.5869 0.24745 0.43807 0.0
H693 H 0.56297 0.21754 0.53095 0.0
H694 H 0.5805 0.17859 0.52529 0.0
H695 H 0.55327 0.16904 0.44804 0.0
C696 C 0.53454 0.26828 0.45606 0.0
C697 C 0.53647 0.29086 0.47299 0.0
C698 C 0.54089 0.28771 0.49847 0.0
C699 C 0.5446 0.26271 0.50692 0.0
C700 C 0.54282 0.24073 0.48967 0.0
C701 C 0.53733 0.24306 0.46483 0.0
C702 C 0.53788 0.21749 0.44979 0.0
C703 C 0.50542 0.19537 0.43851 0.0
C704 C 0.56354 0.23154 0.42968 0.0
C705 C 0.54591 0.20117 0.46978 0.0
C706 C 0.54865 0.21473 0.49273 0.0
C707 C 0.55998 0.2061 0.51324 0.0
C708 C 0.56974 0.18385 0.50992 0.0
C709 C 0.56799 0.17065 0.48628 0.0
C710 C 0.55449 0.1784 0.46642 0.0
H711 H 0.81443 0.37248 0.491 0.0
H712 H 0.7648 0.41552 0.52389 0.0
H713 H 0.71767 0.36313 0.52888 0.0
H714 H 0.7582 0.32306 0.45491 0.0
H715 H 0.76401 0.28972 0.45773 0.0
H716 H 0.79621 0.3286 0.46318 0.0
H717 H 0.80458 0.31265 0.50697 0.0
H718 H 0.7728 0.27321 0.50152 0.0
H719 H 0.77206 0.29471 0.5283 0.0
H720 H 0.6732 0.30987 0.51871 0.0
H721 H 0.63662 0.25805 0.50033 0.0
H722 H 0.71548 0.24812 0.47692 0.0
C723 C 0.79418 0.37056 0.50058 0.0
C724 C 0.79319 0.39774 0.50736 0.0
C725 C 0.76617 0.39481 0.51915 0.0
C726 C 0.73923 0.36513 0.52188 0.0
C727 C 0.74022 0.33877 0.51343 0.0
C728 C 0.76739 0.34111 0.50378 0.0
C729 C 0.76144 0.31002 0.49326 0.0
C730 C 0.77048 0.31306 0.46565 0.0
C731 C 0.77874 0.29687 0.50843 0.0
C732 C 0.72629 0.29041 0.49682 0.0
C733 C 0.71447 0.30731 0.50866 0.0
C734 C 0.68224 0.29592 0.51042 0.0
C735 C 0.66167 0.26665 0.49978 0.0
C736 C 0.67344 0.24906 0.48778 0.0
C737 C 0.70604 0.26074 0.48681 0.0
H738 H 0.76433 0.27584 0.17293 0.0
H739 H 0.67304 0.23298 0.13773 0.0
H740 H 0.67795 0.28532 0.1332 0.0
H741 H 0.75509 0.32382 0.20928 0.0
H742 H 0.79418 0.35741 0.20768 0.0
H743 H 0.7881 0.31878 0.20189 0.0
H744 H 0.81439 0.33608 0.15885 0.0
H745 H 0.82152 0.37527 0.16468 0.0
H746 H 0.80063 0.3545 0.13722 0.0
H747 H 0.68587 0.33844 0.14398 0.0
H748 H 0.70046 0.39013 0.16236 0.0
H749 H 0.78837 0.39976 0.18794 0.0
C750 C 0.74625 0.2778 0.16297 0.0
C751 C 0.71853 0.25062 0.15542 0.0
C752 C 0.6948 0.25366 0.14309 0.0
C753 C 0.6973 0.28331 0.14066 0.0
C754 C 0.72404 0.30956 0.15002 0.0
C755 C 0.74865 0.3072 0.16015 0.0
C756 C 0.77311 0.33805 0.17147 0.0
C757 C 0.77786 0.33426 0.1992 0.0
C758 C 0.80426 0.35179 0.15719 0.0
C759 C 0.75755 0.35761 0.16761 0.0
C760 C 0.7293 0.34084 0.15512 0.0
C761 C 0.7085 0.35225 0.15282 0.0
C762 C 0.71683 0.38146 0.16348 0.0
C763 C 0.7458 0.399 0.17604 0.0
C764 C 0.76661 0.3872 0.17766 0.0
H765 H 0.70668 0.48582 0.20955 0.0
H766 H 0.72812 0.468 0.13557 0.0
H767 H 0.67194 0.42906 0.12912 0.0
H768 H 0.66277 0.41097 0.2245 0.0
H769 H 0.6345 0.41436 0.24356 0.0
H770 H 0.67324 0.44753 0.23982 0.0
H771 H 0.65026 0.48161 0.22374 0.0
H772 H 0.61116 0.44871 0.22803 0.0
H773 H 0.62291 0.46773 0.19827 0.0
H774 H 0.61576 0.38551 0.13379 0.0
H775 H 0.56559 0.34124 0.14919 0.0
H776 H 0.58375 0.38424 0.22171 0.0
C777 C 0.69933 0.47477 0.19157 0.0
C778 C 0.72155 0.48001 0.17299 0.0
C779 C 0.7113 0.4647 0.14988 0.0
C780 C 0.67945 0.44246 0.14612 0.0
C781 C 0.65842 0.43615 0.16561 0.0
C782 C 0.66799 0.45216 0.18783 0.0
C783 C 0.64267 0.43758 0.20739 0.0
C784 C 0.65398 0.42698 0.23013 0.0
C785 C 0.63106 0.46026 0.21479 0.0
C786 C 0.61784 0.40984 0.19318 0.0
C787 C 0.62686 0.40991 0.16889 0.0
C788 C 0.60833 0.38553 0.15264 0.0
C789 C 0.58008 0.36043 0.16156 0.0
C790 C 0.57136 0.35959 0.18659 0.0
C791 C 0.59014 0.38468 0.20246 0.0
H792 H 0.54356 0.28768 0.15956 0.0
H793 H 0.46382 0.19779 0.17921 0.0
H794 H 0.49787 0.17408 0.17979 0.0
H795 H 0.59148 0.25735 0.12484 0.0
H796 H 0.62729 0.28807 0.13829 0.0
H797 H 0.59547 0.29517 0.13144 0.0
H798 H 0.5967 0.31219 0.17684 0.0
H799 H 0.62755 0.30408 0.18416 0.0
H800 H 0.59136 0.28522 0.20152 0.0
H801 H 0.54127 0.16282 0.18625 0.0
H802 H 0.59071 0.16444 0.19766 0.0
H803 H 0.6431 0.26331 0.17784 0.0
C804 C 0.53315 0.26268 0.16251 0.0
C805 C 0.50109 0.24419 0.16848 0.0
C806 C 0.48823 0.2119 0.17376 0.0
C807 C 0.50743 0.19835 0.17425 0.0
C808 C 0.53948 0.21765 0.16978 0.0
C809 C 0.55229 0.24914 0.16381 0.0
C810 C 0.58789 0.26599 0.16422 0.0
C811 C 0.60132 0.27729 0.13814 0.0
C812 C 0.60164 0.29346 0.1828 0.0
C813 C 0.593 0.23952 0.17271 0.0
C814 C 0.56486 0.21164 0.1751 0.0
C815 C 0.5635 0.18436 0.18404 0.0
C816 C 0.59166 0.18556 0.19063 0.0
C817 C 0.62067 0.21404 0.1888 0.0
C818 C 0.62124 0.24124 0.17956 0.0
H819 H 0.26503 0.75571 0.78486 0.0
H820 H 0.23855 0.71147 0.85707 0.0
H821 H 0.29399 0.72611 0.86478 0.0
H822 H 0.31104 0.72521 0.76962 0.0
H823 H 0.33988 0.75875 0.7524 0.0
H824 H 0.30041 0.75161 0.75503 0.0
H825 H 0.32099 0.80728 0.77342 0.0
H826 H 0.36074 0.81488 0.77054 0.0
H827 H 0.3464 0.8193 0.80011 0.0
H828 H 0.35129 0.73973 0.86187 0.0
H829 H 0.40353 0.74911 0.84818 0.0
H830 H 0.38961 0.77985 0.7766 0.0
C831 C 0.271 0.74996 0.80267 0.0
C832 C 0.24761 0.73271 0.82047 0.0
C833 C 0.25625 0.72514 0.84335 0.0
C834 C 0.28765 0.73331 0.84782 0.0
C835 C 0.30992 0.74908 0.82926 0.0
C836 C 0.30186 0.75744 0.80718 0.0
C837 C 0.32863 0.77036 0.7888 0.0
C838 C 0.31943 0.75027 0.76508 0.0
C839 C 0.33986 0.80502 0.78288 0.0
C840 C 0.35286 0.76708 0.8036 0.0
C841 C 0.34205 0.75549 0.82712 0.0
C842 C 0.36005 0.74916 0.84363 0.0
C843 C 0.38955 0.75445 0.83574 0.0
C844 C 0.40017 0.76511 0.81143 0.0
C845 C 0.38188 0.77192 0.79536 0.0
H846 H 0.28884 0.55604 0.8366 0.0
H847 H 0.19712 0.47251 0.83714 0.0
H848 H 0.17219 0.50556 0.83642 0.0
H849 H 0.26948 0.61352 0.86763 0.0
H850 H 0.29401 0.6439 0.84595 0.0
H851 H 0.30391 0.61457 0.85499 0.0
H852 H 0.30456 0.60139 0.80823 0.0
H853 H 0.29375 0.62988 0.79965 0.0
H854 H 0.26993 0.58956 0.78988 0.0
H855 H 0.15768 0.54649 0.8266 0.0
H856 H 0.15467 0.59145 0.80915 0.0
H857 H 0.2564 0.64777 0.81048 0.0
C858 C 0.26359 0.54491 0.83764 0.0
C859 C 0.24481 0.51193 0.83752 0.0
C860 C 0.21178 0.49785 0.83813 0.0
C861 C 0.1975 0.51647 0.83751 0.0
C862 C 0.21672 0.54904 0.83582 0.0
C863 C 0.24916 0.56319 0.83596 0.0
C864 C 0.2645 0.59768 0.8291 0.0
C865 C 0.28413 0.61866 0.85071 0.0
C866 C 0.28432 0.60501 0.80533 0.0
C867 C 0.23574 0.60055 0.82449 0.0
C868 C 0.20839 0.57246 0.82884 0.0
C869 C 0.17894 0.56875 0.8236 0.0
C870 C 0.17747 0.59435 0.81354 0.0
C871 C 0.20533 0.62299 0.8083 0.0
C872 C 0.23471 0.62613 0.81422 0.0
H873 H 0.43851 0.72672 0.84087 0.0
H874 H 0.51591 0.71994 0.80977 0.0
H875 H 0.48501 0.66198 0.81302 0.0
H876 H 0.4019 0.65204 0.88043 0.0
H877 H 0.36298 0.64333 0.87161 0.0
H878 H 0.39406 0.68362 0.87453 0.0
H879 H 0.38338 0.69446 0.8297 0.0
H880 H 0.35267 0.65446 0.82652 0.0
H881 H 0.38475 0.6709 0.80474 0.0
H882 H 0.44277 0.60576 0.81144 0.0
H883 H 0.39241 0.55683 0.8033 0.0
H884 H 0.34166 0.60047 0.83295 0.0
C885 C 0.44941 0.71295 0.83619 0.0
C886 C 0.47978 0.72742 0.82599 0.0
C887 C 0.49294 0.70898 0.81841 0.0
C888 C 0.47554 0.67612 0.82017 0.0
C889 C 0.44488 0.66222 0.82919 0.0
C890 C 0.43191 0.68011 0.83711 0.0
C891 C 0.39685 0.65994 0.84115 0.0
C892 C 0.38846 0.65971 0.86857 0.0
C893 C 0.37836 0.67056 0.82452 0.0
C894 C 0.39194 0.62829 0.8332 0.0
C895 C 0.41996 0.62981 0.82701 0.0
C896 C 0.42077 0.60411 0.81676 0.0
C897 C 0.39216 0.57648 0.81217 0.0
C898 C 0.36339 0.57525 0.81731 0.0
C899 C 0.36339 0.60105 0.82864 0.0
H900 H 0.44881 0.7348 0.54858 0.0
H901 H 0.41353 0.74482 0.47782 0.0
H902 H 0.4054 0.69274 0.46479 0.0
H903 H 0.48747 0.69003 0.52627 0.0
H904 H 0.47558 0.66582 0.55368 0.0
H905 H 0.48366 0.70585 0.55533 0.0
H906 H 0.42821 0.68648 0.57382 0.0
H907 H 0.4201 0.64659 0.57228 0.0
H908 H 0.39414 0.65744 0.55727 0.0
H909 H 0.39379 0.6362 0.46243 0.0
H910 H 0.37866 0.58085 0.47147 0.0
H911 H 0.42293 0.60931 0.54346 0.0
C912 C 0.44042 0.72637 0.53004 0.0
C913 C 0.43234 0.74366 0.51391 0.0
C914 C 0.42037 0.73184 0.49012 0.0
C915 C 0.41575 0.70241 0.48262 0.0
C916 C 0.42345 0.68544 0.49916 0.0
C917 C 0.43576 0.69719 0.52234 0.0
C918 C 0.43881 0.67322 0.53779 0.0
C919 C 0.47345 0.6844 0.5436 0.0
C920 C 0.41914 0.66548 0.56168 0.0
C921 C 0.42527 0.64572 0.52011 0.0
C922 C 0.41689 0.65316 0.49776 0.0
C923 C 0.40094 0.63032 0.47962 0.0
C924 C 0.39256 0.59898 0.48483 0.0
C925 C 0.39992 0.59097 0.50805 0.0
C926 C 0.41741 0.61488 0.5254 0.0
H927 H 0.24861 0.71883 0.54042 0.0
H928 H 0.23912 0.67281 0.4701 0.0
H929 H 0.29025 0.71734 0.45647 0.0
H930 H 0.29031 0.80192 0.51602 0.0
H931 H 0.31465 0.81594 0.54327 0.0
H932 H 0.27516 0.7831 0.54547 0.0
H933 H 0.29647 0.74918 0.56513 0.0
H934 H 0.3358 0.78183 0.56307 0.0
H935 H 0.32618 0.74483 0.54896 0.0
H936 H 0.34644 0.76237 0.45394 0.0
H937 H 0.40148 0.80327 0.46282 0.0
H938 H 0.37201 0.82112 0.53364 0.0
C939 C 0.25692 0.71881 0.52185 0.0
C940 C 0.24019 0.69289 0.50615 0.0
C941 C 0.25175 0.69284 0.48221 0.0
C942 C 0.28064 0.71804 0.47432 0.0
C943 C 0.29715 0.74319 0.4905 0.0
C944 C 0.28541 0.7439 0.51365 0.0
C945 C 0.30881 0.77182 0.52857 0.0
C946 C 0.29649 0.79454 0.53362 0.0
C947 C 0.31731 0.76127 0.55284 0.0
C948 C 0.33612 0.78594 0.51073 0.0
C949 C 0.32902 0.76946 0.48871 0.0
C950 C 0.35202 0.77604 0.47079 0.0
C951 C 0.38318 0.79936 0.4759 0.0
C952 C 0.39082 0.81547 0.49879 0.0
C953 C 0.36672 0.80947 0.51582 0.0
H954 H 0.30773 0.59359 0.50443 0.0
H955 H 0.25384 0.49363 0.51973 0.0
H956 H 0.20599 0.49221 0.50398 0.0
H957 H 0.25578 0.61376 0.52432 0.0
H958 H 0.26284 0.64233 0.50051 0.0
H959 H 0.29293 0.63342 0.50827 0.0
H960 H 0.29518 0.61992 0.4621 0.0
H961 H 0.26418 0.62813 0.45474 0.0
H962 H 0.25997 0.59051 0.44697 0.0
H963 H 0.16329 0.50416 0.49724 0.0
H964 H 0.12978 0.52846 0.49849 0.0
H965 H 0.21049 0.61913 0.48242 0.0
C966 C 0.28596 0.5713 0.50381 0.0
C967 C 0.28429 0.54378 0.51339 0.0
C968 C 0.25556 0.51496 0.51235 0.0
C969 C 0.22832 0.5139 0.50332 0.0
C970 C 0.23047 0.54166 0.49465 0.0
C971 C 0.25873 0.56973 0.49429 0.0
C972 C 0.25418 0.59679 0.48644 0.0
C973 C 0.26715 0.62306 0.50608 0.0
C974 C 0.26927 0.60958 0.46104 0.0
C975 C 0.21866 0.5801 0.48478 0.0
C976 C 0.20544 0.54814 0.48901 0.0
C977 C 0.1732 0.52881 0.49278 0.0
C978 C 0.15428 0.54271 0.49335 0.0
C979 C 0.16761 0.57538 0.48972 0.0
C980 C 0.19979 0.59394 0.48421 0.0
H981 H 0.16132 0.10393 0.04363 0.0
H982 H 0.17608 0.19218 0.07369 0.0
H983 H 0.18686 0.21488 0.03154 0.0
H984 H 0.21964 0.13941 0.99018 0.0
H985 H 0.19397 0.10715 0.97038 0.0
H986 H 0.19546 0.10074 0.00312 0.0
H987 H 0.13516 0.07743 0.00614 0.0
H988 H 0.13354 0.08359 0.97362 0.0
H989 H 0.11816 0.1004 0.99531 0.0
H990 H 0.18403 0.2236 0.98623 0.0
H991 H 0.16644 0.21679 0.94259 0.0
H992 H 0.15447 0.12342 0.94214 0.0
C993 C 0.16768 0.12833 0.04147 0.0
C994 C 0.16768 0.14624 0.0619 0.0
C995 C 0.17605 0.17805 0.0583 0.0
C996 C 0.18238 0.19118 0.03443 0.0
C997 C 0.18094 0.1724 0.0145 0.0
C998 C 0.17418 0.14173 0.01789 0.0
C999 C 0.16971 0.12496 0.99347 0.0
C1000 C 0.19629 0.11764 0.98903 0.0
C1001 C 0.13722 0.09487 0.99207 0.0
C1002 C 0.17226 0.15002 0.97583 0.0
C1003 C 0.17983 0.17765 0.98817 0.0
C1004 C 0.17923 0.20257 0.97623 0.0
C1005 C 0.16936 0.19861 0.95146 0.0
C1006 C 0.1602 0.16998 0.9391 0.0
C1007 C 0.16274 0.14594 0.95109 0.0
H1008 H 0.79272 0.92811 0.96405 0.0
H1009 H 0.79774 0.00879 0.92682 0.0
H1010 H 0.79587 0.0311 0.96733 0.0
H1011 H 0.74218 0.9264 0.01835 0.0
H1012 H 0.76343 0.91502 0.03917 0.0
H1013 H 0.75761 0.90214 0.00737 0.0
H1014 H 0.81774 0.92618 0.00219 0.0
H1015 H 0.82375 0.93925 0.03374 0.0
H1016 H 0.84345 0.96719 0.00919 0.0
H1017 H 0.8069 0.05024 0.01094 0.0
H1018 H 0.82606 0.06272 0.05413 0.0
H1019 H 0.81072 0.96858 0.06344 0.0
C1020 C 0.79233 0.94996 0.96437 0.0
C1021 C 0.79545 0.96677 0.94232 0.0
C1022 C 0.79511 -0.00461 0.94347 0.0
C1023 C 0.79402 0.00822 0.96642 0.0
C1024 C 0.79251 -0.00826 0.98792 0.0
C1025 C 0.79096 0.96286 0.98705 0.0
C1026 C 0.79321 0.95157 0.01264 0.0
C1027 C 0.76225 0.92203 0.0198 0.0
C1028 C 0.8212 0.94574 0.01453 0.0
C1029 C 0.79851 0.97958 0.02794 0.0
C1030 C 0.79753 0.00234 0.01342 0.0
C1031 C 0.80649 0.03218 0.02268 0.0
C1032 C 0.81736 0.03912 0.04715 0.0
C1033 C 0.81878 0.0162 0.06203 0.0
C1034 C 0.80843 0.98589 0.05258 0.0
H1035 H 0.0578 0.8772 0.9549 0.0
H1036 H -0.01268 0.78671 0.92595 0.0
H1037 H 0.97817 0.76439 0.96817 0.0
H1038 H 0.08566 0.84575 0.00801 0.0
H1039 H 0.0903 0.87746 0.02764 0.0
H1040 H 0.09728 0.88375 0.9948 0.0
H1041 H 0.0569 0.90303 0.99212 0.0
H1042 H 0.05015 0.8971 0.02474 0.0
H1043 H 0.01757 0.87803 0.00357 0.0
H1044 H 0.96852 0.75544 0.01382 0.0
H1045 H 0.95725 0.76208 0.05737 0.0
H1046 H 0.03381 0.85814 0.05627 0.0
C1047 C 0.04107 0.85243 0.95727 0.0
C1048 C 0.02318 0.83376 0.93714 0.0
C1049 C 0.00142 0.80148 0.94108 0.0
C1050 C -0.00378 0.78855 0.96501 0.0
C1051 C 0.01341 0.80804 0.98467 0.0
C1052 C 0.03568 0.83928 0.98091 0.0
C1053 C 0.04761 0.85669 0.00511 0.0
C1054 C 0.08227 0.86648 0.00912 0.0
C1055 C 0.04271 0.88535 0.00645 0.0
C1056 C 0.02666 0.83115 0.02308 0.0
C1057 C 0.00791 0.80284 0.01112 0.0
C1058 C 0.98376 0.77712 0.02351 0.0
C1059 C 0.9776 0.78096 0.04827 0.0
C1060 C -0.00472 0.81038 0.06006 0.0
C1061 C 0.02087 0.83517 0.04772 0.0
H1062 H 0.79569 0.51171 0.29386 0.0
H1063 H 0.85171 0.47967 0.25514 0.0
H1064 H 0.87532 0.47709 0.29498 0.0
H1065 H 0.8559 0.55807 0.34368 0.0
H1066 H 0.82527 0.5466 0.36646 0.0
H1067 H 0.81791 0.55188 0.33461 0.0
H1068 H 0.76994 0.49538 0.33403 0.0
H1069 H 0.77721 0.48985 0.36567 0.0
H1070 H 0.7753 0.46278 0.34229 0.0
H1071 H 0.88205 0.46548 0.33919 0.0
H1072 H 0.87566 0.45132 0.38371 0.0
H1073 H 0.81941 0.49575 0.39351 0.0
C1074 C 0.81376 0.50522 0.29372 0.0
C1075 C 0.82198 0.4959 0.27158 0.0
C1076 C 0.84542 0.48723 0.27196 0.0
C1077 C 0.85888 0.48567 0.29448 0.0
C1078 C 0.84923 0.49374 0.31623 0.0
C1079 C 0.82777 0.50414 0.3159 0.0
C1080 C 0.81891 0.50853 0.3418 0.0
C1081 C 0.83019 0.54335 0.34694 0.0
C1082 C 0.78325 0.4879 0.34619 0.0
C1083 C 0.83729 0.49722 0.35684 0.0
C1084 C 0.8548 0.48891 0.34182 0.0
C1085 C 0.86954 0.47309 0.35123 0.0
C1086 C 0.86579 0.46509 0.37646 0.0
C1087 C 0.84796 0.47346 0.39194 0.0
C1088 C 0.83435 0.49046 0.38215 0.0
H1089 H 0.45511 0.2623 0.29207 0.0
H1090 H 0.45991 0.34431 0.25758 0.0
H1091 H 0.45281 0.36234 0.29853 0.0
H1092 H 0.39908 0.25423 0.34487 0.0
H1093 H 0.41983 0.24241 0.36582 0.0
H1094 H 0.41639 0.2318 0.33354 0.0
H1095 H 0.47699 0.2579 0.3305 0.0
H1096 H 0.48055 0.2685 0.36254 0.0
H1097 H 0.50114 0.29849 0.33949 0.0
H1098 H 0.45985 0.37807 0.34286 0.0
H1099 H 0.47873 0.38907 0.38613 0.0
H1100 H 0.46681 0.29598 0.39228 0.0
C1101 C 0.4535 0.28347 0.29303 0.0
C1102 C 0.45812 0.30196 0.27172 0.0
C1103 C 0.45613 0.32964 0.27366 0.0
C1104 C 0.45204 0.34001 0.29686 0.0
C1105 C 0.4492 0.322 0.31776 0.0
C1106 C 0.44924 0.29393 0.31595 0.0
C1107 C 0.45039 0.28115 0.34119 0.0
C1108 C 0.41958 0.25058 0.34667 0.0
C1109 C 0.47897 0.27628 0.34355 0.0
C1110 C 0.4537 0.30768 0.35747 0.0
C1111 C 0.45214 0.33069 0.34371 0.0
C1112 C 0.45978 0.35972 0.354 0.0
C1113 C 0.4704 0.36579 0.37857 0.0
C1114 C 0.47299 0.34285 0.39252 0.0
C1115 C 0.46342 0.31313 0.3822 0.0
H1116 H 0.69384 0.20439 0.3896 0.0
H1117 H 0.62787 0.10453 0.39198 0.0
H1118 H 0.64325 0.09895 0.34941 0.0
H1119 H 0.67713 0.21766 0.33398 0.0
H1120 H 0.71609 0.24641 0.32395 0.0
H1121 H 0.70702 0.24116 0.35633 0.0
H1122 H 0.75257 0.23005 0.36429 0.0
H1123 H 0.76227 0.23582 0.3318 0.0
H1124 H 0.75461 0.19987 0.34681 0.0
H1125 H 0.65604 0.10695 0.30394 0.0
H1126 H 0.66703 0.12707 0.26101 0.0
H1127 H 0.7261 0.2217 0.2891 0.0
C1128 C 0.68405 0.18116 0.38155 0.0
C1129 C 0.66035 0.15477 0.39395 0.0
C1130 C 0.64677 0.12479 0.3828 0.0
C1131 C 0.65532 0.12149 0.35865 0.0
C1132 C 0.67782 0.14837 0.34627 0.0
C1133 C 0.69257 0.17756 0.35764 0.0
C1134 C 0.71257 0.20343 0.33956 0.0
C1135 C 0.70257 0.2286 0.33839 0.0
C1136 C 0.74759 0.21816 0.346 0.0
C1137 C 0.70484 0.1847 0.31586 0.0
C1138 C 0.68535 0.1529 0.32006 0.0
C1139 C 0.67206 0.13167 0.30051 0.0
C1140 C 0.67833 0.14334 0.27615 0.0
C1141 C 0.69746 0.176 0.27161 0.0
C1142 C 0.71163 0.19657 0.29182 0.0
H1143 H 0.45251 0.85436 0.62394 0.0
H1144 H 0.52691 0.84532 0.58884 0.0
H1145 H 0.55033 0.84792 0.62986 0.0
H1146 H 0.50215 0.90556 0.67854 0.0
H1147 H 0.46881 0.88574 0.69892 0.0
H1148 H 0.46305 0.89183 0.66686 0.0
H1149 H 0.42472 0.83204 0.66192 0.0
H1150 H 0.43049 0.82573 0.6937 0.0
H1151 H 0.43792 0.8048 0.66968 0.0
H1152 H 0.55681 0.83701 0.67367 0.0
H1153 H 0.54768 0.81686 0.71663 0.0
H1154 H 0.47093 0.8356 0.72391 0.0
C1155 C 0.47438 0.85408 0.62485 0.0
C1156 C 0.48786 0.84951 0.60332 0.0
C1157 C 0.51634 0.84905 0.60513 0.0
C1158 C 0.52983 0.85058 0.62836 0.0
C1159 C 0.51495 0.85338 0.64943 0.0
C1160 C 0.4882 0.85588 0.64782 0.0
C1161 C 0.4743 0.85451 0.67311 0.0
C1162 C 0.47727 0.88631 0.67975 0.0
C1163 C 0.43986 0.82766 0.67467 0.0
C1164 C 0.49571 0.848 0.68905 0.0
C1165 C 0.51951 0.84821 0.67514 0.0
C1166 C 0.53915 0.83802 0.68496 0.0
C1167 C 0.53379 0.82656 0.70929 0.0
C1168 C 0.50923 0.82567 0.72347 0.0
C1169 C 0.49065 0.83739 0.71357 0.0
H1170 H 0.13192 0.5969 0.61594 0.0
H1171 H 0.13676 0.67959 0.58268 0.0
H1172 H 0.12979 0.69694 0.62399 0.0
H1173 H 0.07498 0.58739 0.66782 0.0
H1174 H 0.09497 0.57482 0.68891 0.0
H1175 H 0.09276 0.56542 0.65644 0.0
H1176 H 0.15346 0.59175 0.65468 0.0
H1177 H 0.1558 0.60109 0.68696 0.0
H1178 H 0.17721 0.63196 0.66472 0.0
H1179 H 0.13517 0.71109 0.66885 0.0
H1180 H 0.15122 0.71996 0.71288 0.0
H1181 H 0.14021 0.62707 0.71705 0.0
C1182 C 0.13055 0.61819 0.61726 0.0
C1183 C 0.13499 0.63699 0.59619 0.0
C1184 C 0.13319 0.66474 0.5986 0.0
C1185 C 0.12914 0.6747 0.62198 0.0
C1186 C 0.1261 0.65621 0.64259 0.0
C1187 C 0.12618 0.62819 0.64034 0.0
C1188 C 0.12641 0.61448 0.66538 0.0
C1189 C 0.09543 0.5837 0.6699 0.0
C1190 C 0.15492 0.60958 0.66808 0.0
C1191 C 0.12906 0.64037 0.6821 0.0
C1192 C 0.12804 0.66391 0.66869 0.0
C1193 C 0.13473 0.69232 0.67967 0.0
C1194 C 0.14373 0.69717 0.70466 0.0
C1195 C 0.14571 0.67367 0.71828 0.0
C1196 C 0.13731 0.64465 0.70714 0.0
H1197 H 0.37362 0.5273 0.6299 0.0
H1198 H 0.28871 0.45287 0.59659 0.0
H1199 H 0.27062 0.42821 0.63779 0.0
H1200 H 0.3802 0.47679 0.681 0.0
H1201 H 0.39466 0.50929 0.70234 0.0
H1202 H 0.40395 0.51649 0.66984 0.0
H1203 H 0.38088 0.55382 0.66889 0.0
H1204 H 0.3716 0.54677 0.70117 0.0
H1205 H 0.34107 0.53939 0.67918 0.0
H1206 H 0.25642 0.42008 0.68266 0.0
H1207 H 0.24869 0.42789 0.72684 0.0
H1208 H 0.3442 0.50518 0.73096 0.0
C1209 C 0.35168 0.50525 0.63122 0.0
C1210 C 0.33244 0.49198 0.61026 0.0
C1211 C 0.30384 0.46323 0.6125 0.0
C1212 C 0.29347 0.44905 0.6358 0.0
C1213 C 0.31247 0.46351 0.65639 0.0
C1214 C 0.34135 0.49066 0.65418 0.0
C1215 C 0.35569 0.50379 0.67919 0.0
C1216 C 0.38538 0.50144 0.68333 0.0
C1217 C 0.36267 0.53792 0.68227 0.0
C1218 C 0.32931 0.48134 0.6959 0.0
C1219 C 0.30479 0.45781 0.68249 0.0
C1220 C 0.27588 0.4375 0.69349 0.0
C1221 C 0.27166 0.44202 0.71852 0.0
C1222 C 0.2963 0.4664 0.73215 0.0
C1223 C 0.32567 0.48551 0.72099 0.0
loop_
_geom_bond_atom_site_label_1
_geom_bond_atom_site_label_2
_geom_bond_distance
_geom_bond_site_symmetry_2
_ccdc_geom_bond_type
Co0 O1 2.216 . S
Co0 O2 2.091 . S
Co0 O4 2.004 . S
Co0 O10 2.021 . S
Co0 O12 2.137 . S
Co0 O13 2.244 . S
O1 Co0 2.216 . S
O1 C8 1.247 . S
O2 Co0 2.091 . S
O2 C8 1.261 . S
C3 O12 1.247 . S
C3 O13 1.272 . S
O4 Co0 2.004 . S
O4 C9 1.259 . S
Co5 O6 2.061 . S
Co5 O11 2.052 . S
Co5 O13 2.135 . S
O6 Co5 2.061 . S
O6 C9 1.235 . S
C7 O10 1.238 . S
C7 O11 1.241 . S
C8 O1 1.247 . S
C8 O2 1.261 . S
C9 O4 1.259 . S
C9 O6 1.235 . S
O10 Co0 2.021 . S
O10 C7 1.238 . S
O11 Co5 2.052 . S
O11 C7 1.241 . S
O12 Co0 2.137 . S
O12 C3 1.247 . S
O13 Co0 2.244 . S
O13 C3 1.272 . S
O13 Co5 2.135 . S
Co14 O15 2.216 . S
Co14 O16 2.097 1_545 S
Co14 O18 2.004 1_545 S
Co14 O24 2.021 1_545 S
Co14 O26 2.137 . S
Co14 O27 2.244 . S
O15 Co14 2.216 . S
O15 C22 1.247 . S
O16 Co14 2.097 1_565 S
O16 C22 1.245 1_565 S
C17 O26 1.247 . S
C17 O27 1.272 . S
O18 Co14 2.004 1_565 S
O18 C23 1.259 . S
Co19 O20 2.061 1_545 S
Co19 O25 2.052 . S
Co19 O27 2.135 . S
O20 Co19 2.061 1_565 S
O20 C23 1.235 . S
C21 O24 1.238 . S
C21 O25 1.241 1_565 S
C22 O15 1.247 . S
C22 O16 1.245 1_545 S
C23 O18 1.259 . S
C23 O20 1.235 . S
O24 Co14 2.021 1_565 S
O24 C21 1.238 . S
O25 Co19 2.052 . S
O25 C21 1.241 1_545 S
O26 Co14 2.137 . S
O26 C17 1.247 . S
O27 Co14 2.244 . S
O27 C17 1.272 . S
O27 Co19 2.135 . S
Co28 O29 2.216 . S
Co28 O30 2.088 1_655 S
Co28 O32 2.004 1_655 S
Co28 O38 2.021 1_655 S
Co28 O40 2.137 . S
Co28 O41 2.244 . S
O29 Co28 2.216 . S
O29 C36 1.247 . S
O30 Co28 2.088 1_455 S
O30 C36 1.258 1_455 S
C31 O40 1.247 . S
C31 O41 1.272 . S
O32 Co28 2.004 1_455 S
O32 C37 1.259 . S
Co33 O34 2.061 1_655 S
Co33 O39 2.052 . S
Co33 O41 2.135 . S
O34 Co33 2.061 1_455 S
O34 C37 1.235 . S
C35 O38 1.238 . S
C35 O39 1.241 1_455 S
C36 O29 1.247 . S
C36 O30 1.258 1_655 S
C37 O32 1.259 . S
C37 O34 1.235 . S
O38 Co28 2.021 1_455 S
O38 C35 1.238 . S
O39 Co33 2.052 . S
O39 C35 1.241 1_655 S
O40 Co28 2.137 . S
O40 C31 1.247 . S
O41 Co28 2.244 . S
O41 C31 1.272 . S
O41 Co33 2.135 . S
Co42 O43 2.216 . S
Co42 O44 2.091 . S
Co42 O46 2.004 . S
Co42 O52 2.021 . S
Co42 O54 2.137 . S
Co42 O55 2.244 . S
O43 Co42 2.216 . S
O43 C50 1.247 . S
O44 Co42 2.091 . S
O44 C50 1.261 . S
C45 O54 1.247 . S
C45 O55 1.272 . S
O46 Co42 2.004 . S
O46 C51 1.259 . S
Co47 O48 2.061 . S
Co47 O53 2.052 . S
Co47 O55 2.135 . S
O48 Co47 2.061 . S
O48 C51 1.235 . S
C49 O52 1.238 . S
C49 O53 1.241 . S
C50 O43 1.247 . S
C50 O44 1.261 . S
C51 O46 1.259 . S
C51 O48 1.235 . S
O52 Co42 2.021 . S
O52 C49 1.238 . S
O53 Co47 2.052 . S
O53 C49 1.241 . S
O54 Co42 2.137 . S
O54 C45 1.247 . S
O55 Co42 2.244 . S
O55 C45 1.272 . S
O55 Co47 2.135 . S
Co56 O57 2.216 . S
Co56 O58 2.089 1_565 S
Co56 O60 2.004 1_565 S
Co56 O66 2.021 1_565 S
Co56 O68 2.137 . S
Co56 O69 2.244 . S
O57 Co56 2.216 . S
O57 C64 1.247 . S
O58 Co56 2.089 1_545 S
O58 C64 1.259 1_545 S
C59 O68 1.247 . S
C59 O69 1.272 . S
O60 Co56 2.004 1_545 S
O60 C65 1.259 . S
Co61 O62 2.061 1_565 S
Co61 O67 2.052 . S
Co61 O69 2.135 . S
O62 Co61 2.061 1_545 S
O62 C65 1.235 . S
C63 O66 1.238 . S
C63 O67 1.241 1_545 S
C64 O57 1.247 . S
C64 O58 1.259 1_565 S
C65 O60 1.259 . S
C65 O62 1.235 . S
O66 Co56 2.021 1_545 S
O66 C63 1.238 . S
O67 Co61 2.052 . S
O67 C63 1.241 1_565 S
O68 Co56 2.137 . S
O68 C59 1.247 . S
O69 Co56 2.244 . S
O69 C59 1.272 . S
O69 Co61 2.135 . S
Co70 O71 2.216 . S
Co70 O72 2.097 1_455 S
Co70 O74 2.004 1_455 S
Co70 O80 2.021 1_455 S
Co70 O82 2.137 . S
Co70 O83 2.244 . S
O71 Co70 2.216 . S
O71 C78 1.247 . S
O72 Co70 2.097 1_655 S
O72 C78 1.246 1_655 S
C73 O82 1.247 . S
C73 O83 1.272 . S
O74 Co70 2.004 1_655 S
O74 C79 1.259 . S
Co75 O76 2.061 1_455 S
Co75 O81 2.052 . S
Co75 O83 2.135 . S
O76 Co75 2.061 1_655 S
O76 C79 1.235 . S
C77 O80 1.238 . S
C77 O81 1.241 1_655 S
C78 O71 1.247 . S
C78 O72 1.246 1_455 S
C79 O74 1.259 . S
C79 O76 1.235 . S
O80 Co70 2.021 1_655 S
O80 C77 1.238 . S
O81 Co75 2.052 . S
O81 C77 1.241 1_455 S
O82 Co70 2.137 . S
O82 C73 1.247 . S
O83 Co70 2.244 . S
O83 C73 1.272 . S
O83 Co75 2.135 . S
Co84 O85 2.216 . S
Co84 O86 2.091 . S
Co84 O88 2.004 . S
Co84 O94 2.021 . S
Co84 O96 2.137 . S
Co84 O97 2.244 . S
O85 Co84 2.216 . S
O85 C92 1.247 . S
O86 Co84 2.091 . S
O86 C92 1.261 . S
C87 O96 1.247 . S
C87 O97 1.272 . S
O88 Co84 2.004 . S
O88 C93 1.259 . S
Co89 O90 2.061 . S
Co89 O95 2.052 . S
Co89 O97 2.135 . S
O90 Co89 2.061 . S
O90 C93 1.235 . S
C91 O94 1.238 . S
C91 O95 1.241 . S
C92 O85 1.247 . S
C92 O86 1.261 . S
C93 O88 1.259 . S
C93 O90 1.235 . S
O94 Co84 2.021 . S
O94 C91 1.238 . S
O95 Co89 2.052 . S
O95 C91 1.241 . S
O96 Co84 2.137 . S
O96 C87 1.247 . S
O97 Co84 2.244 . S
O97 C87 1.272 . S
O97 Co89 2.135 . S
Co98 O99 2.216 . S
Co98 O100 2.091 . S
Co98 O102 2.004 . S
Co98 O108 2.021 . S
Co98 O110 2.137 . S
Co98 O111 2.244 . S
O99 Co98 2.216 . S
O99 C106 1.247 . S
O100 Co98 2.091 . S
O100 C106 1.261 . S
C101 O110 1.247 . S
C101 O111 1.272 . S
O102 Co98 2.004 . S
O102 C107 1.259 . S
Co103 O104 2.061 . S
Co103 O109 2.052 . S
Co103 O111 2.135 . S
O104 Co103 2.061 . S
O104 C107 1.235 . S
C105 O108 1.238 . S
C105 O109 1.241 . S
C106 O99 1.247 . S
C106 O100 1.261 . S
C107 O102 1.259 . S
C107 O104 1.235 . S
O108 Co98 2.021 . S
O108 C105 1.238 . S
O109 Co103 2.052 . S
O109 C105 1.241 . S
O110 Co98 2.137 . S
O110 C101 1.247 . S
O111 Co98 2.244 . S
O111 C101 1.272 . S
O111 Co103 2.135 . S
Co112 O113 2.216 . S
Co112 O114 2.091 . S
Co112 O116 2.004 . S
Co112 O122 2.021 . S
Co112 O124 2.137 . S
Co112 O125 2.244 . S
O113 Co112 2.216 . S
O113 C120 1.247 . S
O114 Co112 2.091 . S
O114 C120 1.261 . S
C115 O124 1.247 . S
C115 O125 1.272 . S
O116 Co112 2.004 . S
O116 C121 1.259 . S
Co117 O118 2.061 . S
Co117 O123 2.052 . S
Co117 O125 2.135 . S
O118 Co117 2.061 . S
O118 C121 1.235 . S
C119 O122 1.238 . S
C119 O123 1.241 . S
C120 O113 1.247 . S
C120 O114 1.261 . S
C121 O116 1.259 . S
C121 O118 1.235 . S
O122 Co112 2.021 . S
O122 C119 1.238 . S
O123 Co117 2.052 . S
O123 C119 1.241 . S
O124 Co112 2.137 . S
O124 C115 1.247 . S
O125 Co112 2.244 . S
O125 C115 1.272 . S
O125 Co117 2.135 . S
Co126 O127 2.216 . S
Co126 O128 2.091 . S
Co126 O130 2.004 . S
Co126 O136 2.021 . S
Co126 O138 2.137 . S
Co126 O139 2.244 . S
O127 Co126 2.216 . S
O127 C134 1.247 . S
O128 Co126 2.091 . S
O128 C134 1.261 . S
C129 O138 1.247 . S
C129 O139 1.272 . S
O130 Co126 2.004 . S
O130 C135 1.259 . S
Co131 O132 2.061 . S
Co131 O137 2.052 . S
Co131 O139 2.135 . S
O132 Co131 2.061 . S
O132 C135 1.235 . S
C133 O136 1.238 . S
C133 O137 1.241 . S
C134 O127 1.247 . S
C134 O128 1.261 . S
C135 O130 1.259 . S
C135 O132 1.235 . S
O136 Co126 2.021 . S
O136 C133 1.238 . S
O137 Co131 2.052 . S
O137 C133 1.241 . S
O138 Co126 2.137 . S
O138 C129 1.247 . S
O139 Co126 2.244 . S
O139 C129 1.272 . S
O139 Co131 2.135 . S
Co140 O141 2.216 . S
Co140 O142 2.091 . S
Co140 O144 2.004 . S
Co140 O150 2.021 . S
Co140 O152 2.137 . S
Co140 O153 2.244 . S
O141 Co140 2.216 . S
O141 C148 1.247 . S
O142 Co140 2.091 . S
O142 C148 1.261 . S
C143 O152 1.247 . S
C143 O153 1.272 . S
O144 Co140 2.004 . S
O144 C149 1.259 . S
Co145 O146 2.061 . S
Co145 O151 2.052 . S
Co145 O153 2.135 . S
O146 Co145 2.061 . S
O146 C149 1.235 . S
C147 O150 1.238 . S
C147 O151 1.241 . S
C148 O141 1.247 . S
C148 O142 1.261 . S
C149 O144 1.259 . S
C149 O146 1.235 . S
O150 Co140 2.021 . S
O150 C147 1.238 . S
O151 Co145 2.052 . S
O151 C147 1.241 . S
O152 Co140 2.137 . S
O152 C143 1.247 . S
O153 Co140 2.244 . S
O153 C143 1.272 . S
O153 Co145 2.135 . S
Co154 O155 2.216 . S
Co154 O156 2.091 . S
Co154 O158 2.004 . S
Co154 O164 2.021 . S
Co154 O166 2.137 . S
Co154 O167 2.244 . S
O155 Co154 2.216 . S
O155 C162 1.247 . S
O156 Co154 2.091 . S
O156 C162 1.261 . S
C157 O166 1.247 . S
C157 O167 1.272 . S
O158 Co154 2.004 . S
O158 C163 1.259 . S
Co159 O160 2.061 . S
Co159 O165 2.052 . S
Co159 O167 2.135 . S
O160 Co159 2.061 . S
O160 C163 1.235 . S
C161 O164 1.238 . S
C161 O165 1.241 . S
C162 O155 1.247 . S
C162 O156 1.261 . S
C163 O158 1.259 . S
C163 O160 1.235 . S
O164 Co154 2.021 . S
O164 C161 1.238 . S
O165 Co159 2.052 . S
O165 C161 1.241 . S
O166 Co154 2.137 . S
O166 C157 1.247 . S
O167 Co154 2.244 . S
O167 C157 1.272 . S
O167 Co159 2.135 . S
Co168 O169 2.216 . S
Co168 O170 2.091 . S
Co168 O172 2.004 . S
Co168 O178 2.021 . S
Co168 O180 2.137 . S
Co168 O181 2.244 . S
O169 Co168 2.216 . S
O169 C176 1.247 . S
O170 Co168 2.091 . S
O170 C176 1.261 . S
C171 O180 1.247 . S
C171 O181 1.272 . S
O172 Co168 2.004 . S
O172 C177 1.259 . S
Co173 O174 2.061 . S
Co173 O179 2.052 . S
Co173 O181 2.135 . S
O174 Co173 2.061 . S
O174 C177 1.235 . S
C175 O178 1.238 . S
C175 O179 1.241 . S
C176 O169 1.247 . S
C176 O170 1.261 . S
C177 O172 1.259 . S
C177 O174 1.235 . S
O178 Co168 2.021 . S
O178 C175 1.238 . S
O179 Co173 2.052 . S
O179 C175 1.241 . S
O180 Co168 2.137 . S
O180 C171 1.247 . S
O181 Co168 2.244 . S
O181 C171 1.272 . S
O181 Co173 2.135 . S
Co182 O183 2.216 . S
Co182 O184 2.091 . S
Co182 O186 2.004 . S
Co182 O192 2.021 . S
Co182 O194 2.137 . S
Co182 O195 2.244 . S
O183 Co182 2.216 . S
O183 C190 1.247 . S
O184 Co182 2.091 . S
O184 C190 1.261 . S
C185 O194 1.247 . S
C185 O195 1.272 . S
O186 Co182 2.004 . S
O186 C191 1.259 . S
Co187 O188 2.061 . S
Co187 O193 2.052 . S
Co187 O195 2.135 . S
O188 Co187 2.061 . S
O188 C191 1.235 . S
C189 O192 1.238 . S
C189 O193 1.241 . S
C190 O183 1.247 . S
C190 O184 1.261 . S
C191 O186 1.259 . S
C191 O188 1.235 . S
O192 Co182 2.021 . S
O192 C189 1.238 . S
O193 Co187 2.052 . S
O193 C189 1.241 . S
O194 Co182 2.137 . S
O194 C185 1.247 . S
O195 Co182 2.244 . S
O195 C185 1.272 . S
O195 Co187 2.135 . S
Co196 O197 2.216 . S
Co196 O198 2.091 . S
Co196 O200 2.004 . S
Co196 O206 2.021 . S
Co196 O208 2.137 . S
Co196 O209 2.244 . S
O197 Co196 2.216 . S
O197 C204 1.247 . S
O198 Co196 2.091 . S
O198 C204 1.261 . S
C199 O208 1.247 . S
C199 O209 1.272 . S
O200 Co196 2.004 . S
O200 C205 1.259 . S
Co201 O202 2.061 . S
Co201 O207 2.052 . S
Co201 O209 2.135 . S
O202 Co201 2.061 . S
O202 C205 1.235 . S
C203 O206 1.238 . S
C203 O207 1.241 . S
C204 O197 1.247 . S
C204 O198 1.261 . S
C205 O200 1.259 . S
C205 O202 1.235 . S
O206 Co196 2.021 . S
O206 C203 1.238 . S
O207 Co201 2.052 . S
O207 C203 1.241 . S
O208 Co196 2.137 . S
O208 C199 1.247 . S
O209 Co196 2.244 . S
O209 C199 1.272 . S
O209 Co201 2.135 . S
Co210 O211 2.216 . S
Co210 O212 2.091 . S
Co210 O214 2.004 . S
Co210 O220 2.021 . S
Co210 O222 2.137 . S
Co210 O223 2.244 . S
O211 Co210 2.216 . S
O211 C218 1.247 . S
O212 Co210 2.091 . S
O212 C218 1.261 . S
C213 O222 1.247 . S
C213 O223 1.272 . S
O214 Co210 2.004 . S
O214 C219 1.259 . S
Co215 O216 2.061 . S
Co215 O221 2.052 . S
Co215 O223 2.135 . S
O216 Co215 2.061 . S
O216 C219 1.235 . S
C217 O220 1.238 . S
C217 O221 1.241 . S
C218 O211 1.247 . S
C218 O212 1.261 . S
C219 O214 1.259 . S
C219 O216 1.235 . S
O220 Co210 2.021 . S
O220 C217 1.238 . S
O221 Co215 2.052 . S
O221 C217 1.241 . S
O222 Co210 2.137 . S
O222 C213 1.247 . S
O223 Co210 2.244 . S
O223 C213 1.272 . S
O223 Co215 2.135 . S
Co224 O225 2.216 . S
Co224 O226 2.091 . S
Co224 O228 2.004 . S
Co224 O234 2.021 . S
Co224 O236 2.137 . S
Co224 O237 2.244 . S
O225 Co224 2.216 . S
O225 C232 1.247 . S
O226 Co224 2.091 . S
O226 C232 1.261 . S
C227 O236 1.247 . S
C227 O237 1.272 . S
O228 Co224 2.004 . S
O228 C233 1.259 . S
Co229 O230 2.061 . S
Co229 O235 2.052 . S
Co229 O237 2.135 . S
O230 Co229 2.061 . S
O230 C233 1.235 . S
C231 O234 1.238 . S
C231 O235 1.241 . S
C232 O225 1.247 . S
C232 O226 1.261 . S
C233 O228 1.259 . S
C233 O230 1.235 . S
O234 Co224 2.021 . S
O234 C231 1.238 . S
O235 Co229 2.052 . S
O235 C231 1.241 . S
O236 Co224 2.137 . S
O236 C227 1.247 . S
O237 Co224 2.244 . S
O237 C227 1.272 . S
O237 Co229 2.135 . S
Co238 O239 2.216 . S
Co238 O240 2.091 . S
Co238 O242 2.004 . S
Co238 O248 2.021 . S
Co238 O250 2.137 . S
Co238 O251 2.244 . S
O239 Co238 2.216 . S
O239 C246 1.247 . S
O240 Co238 2.091 . S
O240 C246 1.261 . S
C241 O250 1.247 . S
C241 O251 1.272 . S
O242 Co238 2.004 . S
O242 C247 1.259 . S
Co243 O244 2.061 . S
Co243 O249 2.052 . S
Co243 O251 2.135 . S
O244 Co243 2.061 . S
O244 C247 1.235 . S
C245 O248 1.238 . S
C245 O249 1.241 . S
C246 O239 1.247 . S
C246 O240 1.261 . S
C247 O242 1.259 . S
C247 O244 1.235 . S
O248 Co238 2.021 . S
O248 C245 1.238 . S
O249 Co243 2.052 . S
O249 C245 1.241 . S
O250 Co238 2.137 . S
O250 C241 1.247 . S
O251 Co238 2.244 . S
O251 C241 1.272 . S
O251 Co243 2.135 . S
H252 C264 0.930 . S
H253 C266 0.930 . S
H254 C267 0.930 . S
H255 C271 0.959 . S
H256 C271 0.959 . S
H257 C271 0.961 . S
H258 C272 0.960 . S
H259 C272 0.961 . S
H260 C272 0.959 . S
H261 C275 0.929 . S
H262 C276 0.931 . S
H263 C278 0.930 . S
C264 H252 0.930 . S
C264 C265 1.399 . S
C264 C269 1.399 . S
C265 C264 1.399 . S
C265 C266 1.376 . S
C266 H253 0.930 . S
C266 C265 1.376 . S
C266 C267 1.388 . S
C267 H254 0.930 . S
C267 C266 1.388 . S
C267 C268 1.390 . S
C268 C267 1.390 . S
C268 C269 1.394 . S
C268 C274 1.465 . S
C269 C264 1.399 . S
C269 C268 1.394 . S
C269 C270 1.516 . S
C270 C269 1.516 . S
C270 C271 1.502 . S
C270 C272 1.561 . S
C270 C273 1.526 . S
C271 H255 0.959 . S
C271 H256 0.959 . S
C271 H257 0.961 . S
C271 C270 1.502 . S
C272 H258 0.960 . S
C272 H259 0.961 . S
C272 H260 0.959 . S
C272 C270 1.561 . S
C273 C270 1.526 . S
C273 C274 1.396 . S
C273 C278 1.390 . S
C274 C268 1.465 . S
C274 C273 1.396 . S
C274 C275 1.399 . S
C275 H261 0.929 . S
C275 C274 1.399 . S
C275 C276 1.385 . S
C276 H262 0.931 . S
C276 C275 1.385 . S
C276 C277 1.389 . S
C277 C276 1.389 . S
C277 C278 1.387 . S
C278 H263 0.930 . S
C278 C273 1.390 . S
C278 C277 1.387 . S
H279 C291 0.930 . S
H280 C293 0.930 . S
H281 C294 0.930 . S
H282 C298 0.959 . S
H283 C298 0.959 . S
H284 C298 0.961 . S
H285 C299 0.960 . S
H286 C299 0.961 . S
H287 C299 0.959 . S
H288 C302 0.929 . S
H289 C303 0.931 . S
H290 C305 0.930 . S
C291 H279 0.930 . S
C291 C292 1.399 . S
C291 C296 1.399 . S
C292 C291 1.399 . S
C292 C293 1.376 . S
C293 H280 0.930 . S
C293 C292 1.376 . S
C293 C294 1.388 . S
C294 H281 0.930 . S
C294 C293 1.388 . S
C294 C295 1.390 . S
C295 C294 1.390 . S
C295 C296 1.394 . S
C295 C301 1.465 . S
C296 C291 1.399 . S
C296 C295 1.394 . S
C296 C297 1.516 . S
C297 C296 1.516 . S
C297 C298 1.502 . S
C297 C299 1.561 . S
C297 C300 1.526 . S
C298 H282 0.959 . S
C298 H283 0.959 . S
C298 H284 0.961 . S
C298 C297 1.502 . S
C299 H285 0.960 . S
C299 H286 0.961 . S
C299 H287 0.959 . S
C299 C297 1.561 . S
C300 C297 1.526 . S
C300 C301 1.396 . S
C300 C305 1.390 . S
C301 C295 1.465 . S
C301 C300 1.396 . S
C301 C302 1.399 . S
C302 H288 0.929 . S
C302 C301 1.399 . S
C302 C303 1.385 . S
C303 H289 0.931 . S
C303 C302 1.385 . S
C303 C304 1.389 . S
C304 C303 1.389 . S
C304 C305 1.387 . S
C305 H290 0.930 . S
C305 C300 1.390 . S
C305 C304 1.387 . S
H306 C318 0.930 . S
H307 C320 0.930 . S
H308 C321 0.930 . S
H309 C325 0.959 . S
H310 C325 0.959 . S
H311 C325 0.961 . S
H312 C326 0.960 . S
H313 C326 0.961 . S
H314 C326 0.959 . S
H315 C329 0.929 . S
H316 C330 0.931 . S
H317 C332 0.930 . S
C318 H306 0.930 . S
C318 C319 1.399 . S
C318 C323 1.399 . S
C319 C318 1.399 . S
C319 C320 1.376 . S
C320 H307 0.930 . S
C320 C319 1.376 . S
C320 C321 1.388 . S
C321 H308 0.930 . S
C321 C320 1.388 . S
C321 C322 1.390 . S
C322 C321 1.390 . S
C322 C323 1.394 . S
C322 C328 1.465 . S
C323 C318 1.399 . S
C323 C322 1.394 . S
C323 C324 1.516 . S
C324 C323 1.516 . S
C324 C325 1.502 . S
C324 C326 1.561 . S
C324 C327 1.526 . S
C325 H309 0.959 . S
C325 H310 0.959 . S
C325 H311 0.961 . S
C325 C324 1.502 . S
C326 H312 0.960 . S
C326 H313 0.961 . S
C326 H314 0.959 . S
C326 C324 1.561 . S
C327 C324 1.526 . S
C327 C328 1.396 . S
C327 C332 1.390 . S
C328 C322 1.465 . S
C328 C327 1.396 . S
C328 C329 1.399 . S
C329 H315 0.929 . S
C329 C328 1.399 . S
C329 C330 1.385 . S
C330 H316 0.931 . S
C330 C329 1.385 . S
C330 C331 1.389 . S
C331 C330 1.389 . S
C331 C332 1.387 . S
C332 H317 0.930 . S
C332 C327 1.390 . S
C332 C331 1.387 . S
H333 C345 0.930 . S
H334 C347 0.930 . S
H335 C348 0.930 . S
H336 C352 0.959 . S
H337 C352 0.959 . S
H338 C352 0.961 . S
H339 C353 0.960 . S
H340 C353 0.961 . S
H341 C353 0.959 . S
H342 C356 0.929 . S
H343 C357 0.931 . S
H344 C359 0.930 . S
C345 H333 0.930 . S
C345 C346 1.399 . S
C345 C350 1.399 . S
C346 C345 1.399 . S
C346 C347 1.376 . S
C347 H334 0.930 . S
C347 C346 1.376 . S
C347 C348 1.388 . S
C348 H335 0.930 . S
C348 C347 1.388 . S
C348 C349 1.390 . S
C349 C348 1.390 . S
C349 C350 1.394 . S
C349 C355 1.465 . S
C350 C345 1.399 . S
C350 C349 1.394 . S
C350 C351 1.516 . S
C351 C350 1.516 . S
C351 C352 1.502 . S
C351 C353 1.561 . S
C351 C354 1.526 . S
C352 H336 0.959 . S
C352 H337 0.959 . S
C352 H338 0.961 . S
C352 C351 1.502 . S
C353 H339 0.960 . S
C353 H340 0.961 . S
C353 H341 0.959 . S
C353 C351 1.561 . S
C354 C351 1.526 . S
C354 C355 1.396 . S
C354 C359 1.390 . S
C355 C349 1.465 . S
C355 C354 1.396 . S
C355 C356 1.399 . S
C356 H342 0.929 . S
C356 C355 1.399 . S
C356 C357 1.385 . S
C357 H343 0.931 . S
C357 C356 1.385 . S
C357 C358 1.389 . S
C358 C357 1.389 . S
C358 C359 1.387 . S
C359 H344 0.930 . S
C359 C354 1.390 . S
C359 C358 1.387 . S
H360 C372 0.930 . S
H361 C374 0.930 . S
H362 C375 0.930 . S
H363 C379 0.959 . S
H364 C379 0.959 . S
H365 C379 0.961 . S
H366 C380 0.960 . S
H367 C380 0.961 . S
H368 C380 0.959 . S
H369 C383 0.929 . S
H370 C384 0.931 . S
H371 C386 0.930 . S
C372 H360 0.930 . S
C372 C373 1.399 . S
C372 C377 1.399 . S
C373 C372 1.399 . S
C373 C374 1.376 . S
C374 H361 0.930 . S
C374 C373 1.376 . S
C374 C375 1.388 . S
C375 H362 0.930 . S
C375 C374 1.388 . S
C375 C376 1.390 . S
C376 C375 1.390 . S
C376 C377 1.394 . S
C376 C382 1.465 . S
C377 C372 1.399 . S
C377 C376 1.394 . S
C377 C378 1.516 . S
C378 C377 1.516 . S
C378 C379 1.502 . S
C378 C380 1.561 . S
C378 C381 1.526 . S
C379 H363 0.959 . S
C379 H364 0.959 . S
C379 H365 0.961 . S
C379 C378 1.502 . S
C380 H366 0.960 . S
C380 H367 0.961 . S
C380 H368 0.959 . S
C380 C378 1.561 . S
C381 C378 1.526 . S
C381 C382 1.396 . S
C381 C386 1.390 . S
C382 C376 1.465 . S
C382 C381 1.396 . S
C382 C383 1.399 . S
C383 H369 0.929 . S
C383 C382 1.399 . S
C383 C384 1.385 . S
C384 H370 0.931 . S
C384 C383 1.385 . S
C384 C385 1.389 . S
C385 C384 1.389 . S
C385 C386 1.387 . S
C386 H371 0.930 . S
C386 C381 1.390 . S
C386 C385 1.387 . S
H387 C399 0.930 . S
H388 C401 0.930 . S
H389 C402 0.930 . S
H390 C406 0.959 . S
H391 C406 0.959 . S
H392 C406 0.961 . S
H393 C407 0.960 . S
H394 C407 0.961 . S
H395 C407 0.959 . S
H396 C410 0.929 . S
H397 C411 0.931 . S
H398 C413 0.930 . S
C399 H387 0.930 . S
C399 C400 1.399 . S
C399 C404 1.399 . S
C400 C399 1.399 . S
C400 C401 1.376 . S
C401 H388 0.930 . S
C401 C400 1.376 . S
C401 C402 1.388 . S
C402 H389 0.930 . S
C402 C401 1.388 . S
C402 C403 1.390 . S
C403 C402 1.390 . S
C403 C404 1.394 . S
C403 C409 1.465 . S
C404 C399 1.399 . S
C404 C403 1.394 . S
C404 C405 1.516 . S
C405 C404 1.516 . S
C405 C406 1.502 . S
C405 C407 1.561 . S
C405 C408 1.526 . S
C406 H390 0.959 . S
C406 H391 0.959 . S
C406 H392 0.961 . S
C406 C405 1.502 . S
C407 H393 0.960 . S
C407 H394 0.961 . S
C407 H395 0.959 . S
C407 C405 1.561 . S
C408 C405 1.526 . S
C408 C409 1.396 . S
C408 C413 1.390 . S
C409 C403 1.465 . S
C409 C408 1.396 . S
C409 C410 1.399 . S
C410 H396 0.929 . S
C410 C409 1.399 . S
C410 C411 1.385 . S
C411 H397 0.931 . S
C411 C410 1.385 . S
C411 C412 1.389 . S
C412 C411 1.389 . S
C412 C413 1.387 . S
C413 H398 0.930 . S
C413 C408 1.390 . S
C413 C412 1.387 . S
H414 C426 0.930 . S
H415 C428 0.930 . S
H416 C429 0.930 . S
H417 C433 0.958 . S
H418 C433 0.959 1_455 S
H419 C433 0.961 . S
H420 C434 0.960 . S
H421 C434 0.961 1_455 S
H422 C434 0.959 . S
H423 C437 0.929 . S
H424 C438 0.931 . S
H425 C440 0.930 . S
C426 H414 0.930 . S
C426 C427 1.399 . S
C426 C431 1.399 . S
C427 C426 1.399 . S
C427 C428 1.376 . S
C428 H415 0.930 . S
C428 C427 1.376 . S
C428 C429 1.388 . S
C429 H416 0.930 . S
C429 C428 1.388 . S
C429 C430 1.390 . S
C430 C429 1.390 . S
C430 C431 1.394 . S
C430 C436 1.465 1_655 S
C431 C426 1.399 . S
C431 C430 1.394 . S
C431 C432 1.516 . S
C432 C431 1.516 . S
C432 C433 1.502 . S
C432 C434 1.561 . S
C432 C435 1.526 1_655 S
C433 H417 0.958 . S
C433 H418 0.959 1_655 S
C433 H419 0.961 . S
C433 C432 1.502 . S
C434 H420 0.960 . S
C434 H421 0.961 1_655 S
C434 H422 0.959 . S
C434 C432 1.561 . S
C435 C432 1.526 1_455 S
C435 C436 1.396 . S
C435 C440 1.390 . S
C436 C430 1.465 1_455 S
C436 C435 1.396 . S
C436 C437 1.399 . S
C437 H423 0.929 . S
C437 C436 1.399 . S
C437 C438 1.385 . S
C438 H424 0.931 . S
C438 C437 1.385 . S
C438 C439 1.389 . S
C439 C438 1.389 . S
C439 C440 1.387 . S
C440 H425 0.930 . S
C440 C435 1.390 . S
C440 C439 1.387 . S
H441 C453 0.930 . S
H442 C455 0.930 . S
H443 C456 0.930 . S
H444 C460 0.959 . S
H445 C460 0.959 . S
H446 C460 0.961 . S
H447 C461 0.960 . S
H448 C461 0.961 . S
H449 C461 0.959 . S
H450 C464 0.929 . S
H451 C465 0.931 . S
H452 C467 0.930 . S
C453 H441 0.930 . S
C453 C454 1.399 . S
C453 C458 1.399 . S
C454 C453 1.399 . S
C454 C455 1.376 . S
C455 H442 0.930 . S
C455 C454 1.376 . S
C455 C456 1.388 . S
C456 H443 0.930 . S
C456 C455 1.388 . S
C456 C457 1.390 . S
C457 C456 1.390 . S
C457 C458 1.394 . S
C457 C463 1.465 . S
C458 C453 1.399 . S
C458 C457 1.394 . S
C458 C459 1.516 . S
C459 C458 1.516 . S
C459 C460 1.502 . S
C459 C461 1.561 . S
C459 C462 1.526 . S
C460 H444 0.959 . S
C460 H445 0.959 . S
C460 H446 0.961 . S
C460 C459 1.502 . S
C461 H447 0.960 . S
C461 H448 0.961 . S
C461 H449 0.959 . S
C461 C459 1.561 . S
C462 C459 1.526 . S
C462 C463 1.396 . S
C462 C467 1.390 . S
C463 C457 1.465 . S
C463 C462 1.396 . S
C463 C464 1.399 . S
C464 H450 0.929 . S
C464 C463 1.399 . S
C464 C465 1.385 . S
C465 H451 0.931 . S
C465 C464 1.385 . S
C465 C466 1.389 . S
C466 C465 1.389 . S
C466 C467 1.387 . S
C467 H452 0.930 . S
C467 C462 1.390 . S
C467 C466 1.387 . S
H468 C480 0.930 . S
H469 C482 0.930 . S
H470 C483 0.930 . S
H471 C487 0.957 . S
H472 C487 0.959 1_565 S
H473 C487 0.961 . S
H474 C488 0.960 . S
H475 C488 0.961 1_565 S
H476 C488 0.959 . S
H477 C491 0.929 . S
H478 C492 0.931 . S
H479 C494 0.930 . S
C480 H468 0.930 . S
C480 C481 1.399 . S
C480 C485 1.399 . S
C481 C480 1.399 . S
C481 C482 1.376 . S
C482 H469 0.930 . S
C482 C481 1.376 . S
C482 C483 1.388 . S
C483 H470 0.930 . S
C483 C482 1.388 . S
C483 C484 1.390 . S
C484 C483 1.390 . S
C484 C485 1.394 . S
C484 C490 1.465 1_545 S
C485 C480 1.399 . S
C485 C484 1.394 . S
C485 C486 1.516 . S
C486 C485 1.516 . S
C486 C487 1.502 . S
C486 C488 1.561 . S
C486 C489 1.526 1_545 S
C487 H471 0.957 . S
C487 H472 0.959 1_545 S
C487 H473 0.961 . S
C487 C486 1.502 . S
C488 H474 0.960 . S
C488 H475 0.961 1_545 S
C488 H476 0.959 . S
C488 C486 1.561 . S
C489 C486 1.526 1_565 S
C489 C490 1.396 . S
C489 C494 1.390 . S
C490 C484 1.465 1_565 S
C490 C489 1.396 . S
C490 C491 1.399 . S
C491 H477 0.929 . S
C491 C490 1.399 . S
C491 C492 1.385 . S
C492 H478 0.931 . S
C492 C491 1.385 . S
C492 C493 1.389 . S
C493 C492 1.389 . S
C493 C494 1.387 . S
C494 H479 0.930 . S
C494 C489 1.390 . S
C494 C493 1.387 . S
H495 C507 0.930 . S
H496 C509 0.930 . S
H497 C510 0.930 . S
H498 C514 0.959 . S
H499 C514 0.959 1_655 S
H500 C514 0.961 . S
H501 C515 0.960 . S
H502 C515 0.961 1_655 S
H503 C515 0.939 1_655 S
H504 C518 0.929 . S
H505 C519 0.931 . S
H506 C521 0.930 . S
C507 H495 0.930 . S
C507 C508 1.399 . S
C507 C512 1.399 . S
C508 C507 1.399 . S
C508 C509 1.376 . S
C509 H496 0.930 . S
C509 C508 1.376 . S
C509 C510 1.388 . S
C510 H497 0.930 . S
C510 C509 1.388 . S
C510 C511 1.390 . S
C511 C510 1.390 . S
C511 C512 1.394 . S
C511 C517 1.465 1_455 S
C512 C507 1.399 . S
C512 C511 1.394 . S
C512 C513 1.516 . S
C513 C512 1.516 . S
C513 C514 1.502 . S
C513 C515 1.561 . S
C513 C516 1.526 1_455 S
C514 H498 0.959 . S
C514 H499 0.959 1_455 S
C514 H500 0.961 . S
C514 C513 1.502 . S
C515 H501 0.960 . S
C515 H502 0.961 1_455 S
C515 H503 0.939 1_455 S
C515 C513 1.561 . S
C516 C513 1.526 1_655 S
C516 C517 1.396 . S
C516 C521 1.390 . S
C517 C511 1.465 1_655 S
C517 C516 1.396 . S
C517 C518 1.399 . S
C518 H504 0.929 . S
C518 C517 1.399 . S
C518 C519 1.385 . S
C519 H505 0.931 . S
C519 C518 1.385 . S
C519 C520 1.389 . S
C520 C519 1.389 . S
C520 C521 1.387 . S
C521 H506 0.930 . S
C521 C516 1.390 . S
C521 C520 1.387 . S
H522 C534 0.930 . S
H523 C536 0.930 . S
H524 C537 0.930 . S
H525 C541 0.959 . S
H526 C541 0.959 . S
H527 C541 0.961 . S
H528 C542 0.960 . S
H529 C542 0.961 . S
H530 C542 0.959 . S
H531 C545 0.929 . S
H532 C546 0.931 . S
H533 C548 0.930 . S
C534 H522 0.930 . S
C534 C535 1.399 . S
C534 C539 1.399 . S
C535 C534 1.399 . S
C535 C536 1.376 . S
C536 H523 0.930 . S
C536 C535 1.376 . S
C536 C537 1.388 . S
C537 H524 0.930 . S
C537 C536 1.388 . S
C537 C538 1.390 . S
C538 C537 1.390 . S
C538 C539 1.394 . S
C538 C544 1.465 . S
C539 C534 1.399 . S
C539 C538 1.394 . S
C539 C540 1.516 . S
C540 C539 1.516 . S
C540 C541 1.502 . S
C540 C542 1.561 . S
C540 C543 1.526 . S
C541 H525 0.959 . S
C541 H526 0.959 . S
C541 H527 0.961 . S
C541 C540 1.502 . S
C542 H528 0.960 . S
C542 H529 0.961 . S
C542 H530 0.959 . S
C542 C540 1.561 . S
C543 C540 1.526 . S
C543 C544 1.396 . S
C543 C548 1.390 . S
C544 C538 1.465 . S
C544 C543 1.396 . S
C544 C545 1.399 . S
C545 H531 0.929 . S
C545 C544 1.399 . S
C545 C546 1.385 . S
C546 H532 0.931 . S
C546 C545 1.385 . S
C546 C547 1.389 . S
C547 C546 1.389 . S
C547 C548 1.387 . S
C548 H533 0.930 . S
C548 C543 1.390 . S
C548 C547 1.387 . S
H549 C561 0.930 . S
H550 C563 0.930 . S
H551 C564 0.930 . S
H552 C568 0.959 . S
H553 C568 0.959 . S
H554 C568 0.961 1_545 S
H555 C569 0.960 1_545 S
H556 C569 0.961 . S
H557 C569 0.959 . S
H558 C572 0.929 . S
H559 C573 0.931 . S
H560 C575 0.930 . S
C561 H549 0.930 . S
C561 C562 1.399 . S
C561 C566 1.399 . S
C562 C561 1.399 . S
C562 C563 1.376 . S
C563 H550 0.930 . S
C563 C562 1.376 . S
C563 C564 1.388 . S
C564 H551 0.930 . S
C564 C563 1.388 . S
C564 C565 1.390 . S
C565 C564 1.390 . S
C565 C566 1.394 . S
C565 C571 1.465 1_545 S
C566 C561 1.399 . S
C566 C565 1.394 . S
C566 C567 1.516 1_545 S
C567 C566 1.516 1_565 S
C567 C568 1.502 . S
C567 C569 1.561 . S
C567 C570 1.526 . S
C568 H552 0.959 . S
C568 H553 0.959 . S
C568 H554 0.961 1_565 S
C568 C567 1.502 . S
C569 H555 0.960 1_565 S
C569 H556 0.961 . S
C569 H557 0.959 . S
C569 C567 1.561 . S
C570 C567 1.526 . S
C570 C571 1.396 . S
C570 C575 1.390 . S
C571 C565 1.465 1_565 S
C571 C570 1.396 . S
C571 C572 1.399 . S
C572 H558 0.929 . S
C572 C571 1.399 . S
C572 C573 1.385 . S
C573 H559 0.931 . S
C573 C572 1.385 . S
C573 C574 1.389 . S
C574 C573 1.389 . S
C574 C575 1.387 . S
C575 H560 0.930 . S
C575 C570 1.390 . S
C575 C574 1.387 . S
H576 C588 0.930 . S
H577 C590 0.930 . S
H578 C591 0.930 . S
H579 C595 0.959 . S
H580 C595 0.959 1_545 S
H581 C595 0.961 . S
H582 C596 0.960 1_565 S
H583 C596 0.961 . S
H584 C596 0.959 . S
H585 C599 0.929 . S
H586 C600 0.931 . S
H587 C602 0.930 . S
C588 H576 0.930 . S
C588 C589 1.399 . S
C588 C593 1.399 . S
C589 C588 1.399 . S
C589 C590 1.376 . S
C590 H577 0.930 . S
C590 C589 1.376 . S
C590 C591 1.388 . S
C591 H578 0.930 . S
C591 C590 1.388 . S
C591 C592 1.390 . S
C592 C591 1.390 . S
C592 C593 1.394 . S
C592 C598 1.465 1_565 S
C593 C588 1.399 . S
C593 C592 1.394 . S
C593 C594 1.528 . S
C594 C593 1.528 . S
C594 C595 1.520 . S
C594 C596 1.560 1_565 S
C594 C597 1.496 1_565 S
C595 H579 0.959 . S
C595 H580 0.959 1_565 S
C595 H581 0.961 . S
C595 C594 1.520 . S
C596 H582 0.960 1_545 S
C596 H583 0.961 . S
C596 H584 0.959 . S
C596 C594 1.560 1_545 S
C597 C594 1.496 1_545 S
C597 C598 1.396 . S
C597 C602 1.390 . S
C598 C592 1.465 1_545 S
C598 C597 1.396 . S
C598 C599 1.399 . S
C599 H585 0.929 . S
C599 C598 1.399 . S
C599 C600 1.385 . S
C600 H586 0.931 . S
C600 C599 1.385 . S
C600 C601 1.389 . S
C601 C600 1.389 . S
C601 C602 1.387 . S
C602 H587 0.930 . S
C602 C597 1.390 . S
C602 C601 1.387 . S
H603 C615 0.930 . S
H604 C617 0.930 . S
H605 C618 0.930 . S
H606 C622 0.959 . S
H607 C622 0.959 . S
H608 C622 0.961 1_455 S
H609 C623 0.960 . S
H610 C623 0.961 1_655 S
H611 C623 0.959 . S
H612 C626 0.929 . S
H613 C627 0.931 . S
H614 C629 0.930 . S
C615 H603 0.930 . S
C615 C616 1.399 . S
C615 C620 1.399 . S
C616 C615 1.399 . S
C616 C617 1.376 . S
C617 H604 0.930 . S
C617 C616 1.376 . S
C617 C618 1.388 . S
C618 H605 0.930 . S
C618 C617 1.388 . S
C618 C619 1.390 . S
C619 C618 1.390 . S
C619 C620 1.394 . S
C619 C625 1.465 1_455 S
C620 C615 1.399 . S
C620 C619 1.394 . S
C620 C621 1.517 . S
C621 C620 1.517 . S
C621 C622 1.503 1_455 S
C621 C623 1.561 . S
C621 C624 1.524 1_455 S
C622 H606 0.959 . S
C622 H607 0.959 . S
C622 H608 0.961 1_655 S
C622 C621 1.503 1_655 S
C623 H609 0.960 . S
C623 H610 0.961 1_455 S
C623 H611 0.959 . S
C623 C621 1.561 . S
C624 C621 1.524 1_655 S
C624 C625 1.396 . S
C624 C629 1.390 . S
C625 C619 1.465 1_655 S
C625 C624 1.396 . S
C625 C626 1.399 . S
C626 H612 0.929 . S
C626 C625 1.399 . S
C626 C627 1.385 . S
C627 H613 0.931 . S
C627 C626 1.385 . S
C627 C628 1.389 . S
C628 C627 1.389 . S
C628 C629 1.387 . S
C629 H614 0.930 . S
C629 C624 1.390 . S
C629 C628 1.387 . S
H630 C642 0.930 . S
H631 C644 0.930 . S
H632 C645 0.930 . S
H633 C649 0.959 . S
H634 C649 0.959 . S
H635 C649 0.961 . S
H636 C650 0.960 . S
H637 C650 0.961 . S
H638 C650 0.959 . S
H639 C653 0.929 . S
H640 C654 0.931 . S
H641 C656 0.930 . S
C642 H630 0.930 . S
C642 C643 1.399 . S
C642 C647 1.399 . S
C643 C642 1.399 . S
C643 C644 1.376 . S
C644 H631 0.930 . S
C644 C643 1.376 . S
C644 C645 1.388 . S
C645 H632 0.930 . S
C645 C644 1.388 . S
C645 C646 1.390 . S
C646 C645 1.390 . S
C646 C647 1.394 . S
C646 C652 1.465 . S
C647 C642 1.399 . S
C647 C646 1.394 . S
C647 C648 1.516 . S
C648 C647 1.516 . S
C648 C649 1.502 . S
C648 C650 1.561 . S
C648 C651 1.526 . S
C649 H633 0.959 . S
C649 H634 0.959 . S
C649 H635 0.961 . S
C649 C648 1.502 . S
C650 H636 0.960 . S
C650 H637 0.961 . S
C650 H638 0.959 . S
C650 C648 1.561 . S
C651 C648 1.526 . S
C651 C652 1.396 . S
C651 C656 1.390 . S
C652 C646 1.465 . S
C652 C651 1.396 . S
C652 C653 1.399 . S
C653 H639 0.929 . S
C653 C652 1.399 . S
C653 C654 1.385 . S
C654 H640 0.931 . S
C654 C653 1.385 . S
C654 C655 1.389 . S
C655 C654 1.389 . S
C655 C656 1.387 . S
C656 H641 0.930 . S
C656 C651 1.390 . S
C656 C655 1.387 . S
H657 C669 0.930 . S
H658 C671 0.930 . S
H659 C672 0.930 . S
H660 C676 0.959 . S
H661 C676 0.959 . S
H662 C676 0.961 . S
H663 C677 0.960 . S
H664 C677 0.961 . S
H665 C677 0.959 . S
H666 C680 0.929 . S
H667 C681 0.931 . S
H668 C683 0.930 . S
C669 H657 0.930 . S
C669 C670 1.399 . S
C669 C674 1.399 . S
C670 C669 1.399 . S
C670 C671 1.376 . S
C671 H658 0.930 . S
C671 C670 1.376 . S
C671 C672 1.388 . S
C672 H659 0.930 . S
C672 C671 1.388 . S
C672 C673 1.390 . S
C673 C672 1.390 . S
C673 C674 1.394 . S
C673 C679 1.465 . S
C674 C669 1.399 . S
C674 C673 1.394 . S
C674 C675 1.516 . S
C675 C674 1.516 . S
C675 C676 1.502 . S
C675 C677 1.561 . S
C675 C678 1.526 . S
C676 H660 0.959 . S
C676 H661 0.959 . S
C676 H662 0.961 . S
C676 C675 1.502 . S
C677 H663 0.960 . S
C677 H664 0.961 . S
C677 H665 0.959 . S
C677 C675 1.561 . S
C678 C675 1.526 . S
C678 C679 1.396 . S
C678 C683 1.390 . S
C679 C673 1.465 . S
C679 C678 1.396 . S
C679 C680 1.399 . S
C680 H666 0.929 . S
C680 C679 1.399 . S
C680 C681 1.385 . S
C681 H667 0.931 . S
C681 C680 1.385 . S
C681 C682 1.389 . S
C682 C681 1.389 . S
C682 C683 1.387 . S
C683 H668 0.930 . S
C683 C678 1.390 . S
C683 C682 1.387 . S
H684 C696 0.930 . S
H685 C698 0.930 . S
H686 C699 0.930 . S
H687 C703 0.959 . S
H688 C703 0.959 . S
H689 C703 0.961 . S
H690 C704 0.960 . S
H691 C704 0.961 . S
H692 C704 0.959 . S
H693 C707 0.929 . S
H694 C708 0.931 . S
H695 C710 0.930 . S
C696 H684 0.930 . S
C696 C697 1.399 . S
C696 C701 1.399 . S
C697 C696 1.399 . S
C697 C698 1.376 . S
C698 H685 0.930 . S
C698 C697 1.376 . S
C698 C699 1.388 . S
C699 H686 0.930 . S
C699 C698 1.388 . S
C699 C700 1.390 . S
C700 C699 1.390 . S
C700 C701 1.394 . S
C700 C706 1.465 . S
C701 C696 1.399 . S
C701 C700 1.394 . S
C701 C702 1.516 . S
C702 C701 1.516 . S
C702 C703 1.502 . S
C702 C704 1.561 . S
C702 C705 1.526 . S
C703 H687 0.959 . S
C703 H688 0.959 . S
C703 H689 0.961 . S
C703 C702 1.502 . S
C704 H690 0.960 . S
C704 H691 0.961 . S
C704 H692 0.959 . S
C704 C702 1.561 . S
C705 C702 1.526 . S
C705 C706 1.396 . S
C705 C710 1.390 . S
C706 C700 1.465 . S
C706 C705 1.396 . S
C706 C707 1.399 . S
C707 H693 0.929 . S
C707 C706 1.399 . S
C707 C708 1.385 . S
C708 H694 0.931 . S
C708 C707 1.385 . S
C708 C709 1.389 . S
C709 C708 1.389 . S
C709 C710 1.387 . S
C710 H695 0.930 . S
C710 C705 1.390 . S
C710 C709 1.387 . S
H711 C723 0.930 . S
H712 C725 0.930 . S
H713 C726 0.930 . S
H714 C730 0.959 . S
H715 C730 0.959 . S
H716 C730 0.961 . S
H717 C731 0.960 . S
H718 C731 0.961 . S
H719 C731 0.959 . S
H720 C734 0.929 . S
H721 C735 0.931 . S
H722 C737 0.930 . S
C723 H711 0.930 . S
C723 C724 1.399 . S
C723 C728 1.399 . S
C724 C723 1.399 . S
C724 C725 1.376 . S
C725 H712 0.930 . S
C725 C724 1.376 . S
C725 C726 1.388 . S
C726 H713 0.930 . S
C726 C725 1.388 . S
C726 C727 1.390 . S
C727 C726 1.390 . S
C727 C728 1.394 . S
C727 C733 1.465 . S
C728 C723 1.399 . S
C728 C727 1.394 . S
C728 C729 1.516 . S
C729 C728 1.516 . S
C729 C730 1.502 . S
C729 C731 1.561 . S
C729 C732 1.526 . S
C730 H714 0.959 . S
C730 H715 0.959 . S
C730 H716 0.961 . S
C730 C729 1.502 . S
C731 H717 0.960 . S
C731 H718 0.961 . S
C731 H719 0.959 . S
C731 C729 1.561 . S
C732 C729 1.526 . S
C732 C733 1.396 . S
C732 C737 1.390 . S
C733 C727 1.465 . S
C733 C732 1.396 . S
C733 C734 1.399 . S
C734 H720 0.929 . S
C734 C733 1.399 . S
C734 C735 1.385 . S
C735 H721 0.931 . S
C735 C734 1.385 . S
C735 C736 1.389 . S
C736 C735 1.389 . S
C736 C737 1.387 . S
C737 H722 0.930 . S
C737 C732 1.390 . S
C737 C736 1.387 . S
H738 C750 0.930 . S
H739 C752 0.930 . S
H740 C753 0.930 . S
H741 C757 0.959 . S
H742 C757 0.959 . S
H743 C757 0.961 . S
H744 C758 0.960 . S
H745 C758 0.961 . S
H746 C758 0.959 . S
H747 C761 0.929 . S
H748 C762 0.931 . S
H749 C764 0.930 . S
C750 H738 0.930 . S
C750 C751 1.399 . S
C750 C755 1.399 . S
C751 C750 1.399 . S
C751 C752 1.376 . S
C752 H739 0.930 . S
C752 C751 1.376 . S
C752 C753 1.388 . S
C753 H740 0.930 . S
C753 C752 1.388 . S
C753 C754 1.390 . S
C754 C753 1.390 . S
C754 C755 1.394 . S
C754 C760 1.465 . S
C755 C750 1.399 . S
C755 C754 1.394 . S
C755 C756 1.516 . S
C756 C755 1.516 . S
C756 C757 1.502 . S
C756 C758 1.561 . S
C756 C759 1.526 . S
C757 H741 0.959 . S
C757 H742 0.959 . S
C757 H743 0.961 . S
C757 C756 1.502 . S
C758 H744 0.960 . S
C758 H745 0.961 . S
C758 H746 0.959 . S
C758 C756 1.561 . S
C759 C756 1.526 . S
C759 C760 1.396 . S
C759 C764 1.390 . S
C760 C754 1.465 . S
C760 C759 1.396 . S
C760 C761 1.399 . S
C761 H747 0.929 . S
C761 C760 1.399 . S
C761 C762 1.385 . S
C762 H748 0.931 . S
C762 C761 1.385 . S
C762 C763 1.389 . S
C763 C762 1.389 . S
C763 C764 1.387 . S
C764 H749 0.930 . S
C764 C759 1.390 . S
C764 C763 1.387 . S
H765 C777 0.930 . S
H766 C779 0.930 . S
H767 C780 0.930 . S
H768 C784 0.959 . S
H769 C784 0.959 . S
H770 C784 0.961 . S
H771 C785 0.960 . S
H772 C785 0.961 . S
H773 C785 0.959 . S
H774 C788 0.929 . S
H775 C789 0.931 . S
H776 C791 0.930 . S
C777 H765 0.930 . S
C777 C778 1.399 . S
C777 C782 1.399 . S
C778 C777 1.399 . S
C778 C779 1.376 . S
C779 H766 0.930 . S
C779 C778 1.376 . S
C779 C780 1.388 . S
C780 H767 0.930 . S
C780 C779 1.388 . S
C780 C781 1.390 . S
C781 C780 1.390 . S
C781 C782 1.394 . S
C781 C787 1.465 . S
C782 C777 1.399 . S
C782 C781 1.394 . S
C782 C783 1.516 . S
C783 C782 1.516 . S
C783 C784 1.502 . S
C783 C785 1.561 . S
C783 C786 1.526 . S
C784 H768 0.959 . S
C784 H769 0.959 . S
C784 H770 0.961 . S
C784 C783 1.502 . S
C785 H771 0.960 . S
C785 H772 0.961 . S
C785 H773 0.959 . S
C785 C783 1.561 . S
C786 C783 1.526 . S
C786 C787 1.396 . S
C786 C791 1.390 . S
C787 C781 1.465 . S
C787 C786 1.396 . S
C787 C788 1.399 . S
C788 H774 0.929 . S
C788 C787 1.399 . S
C788 C789 1.385 . S
C789 H775 0.931 . S
C789 C788 1.385 . S
C789 C790 1.389 . S
C790 C789 1.389 . S
C790 C791 1.387 . S
C791 H776 0.930 . S
C791 C786 1.390 . S
C791 C790 1.387 . S
H792 C804 0.930 . S
H793 C806 0.930 . S
H794 C807 0.930 . S
H795 C811 0.959 . S
H796 C811 0.959 . S
H797 C811 0.961 . S
H798 C812 0.960 . S
H799 C812 0.961 . S
H800 C812 0.959 . S
H801 C815 0.929 . S
H802 C816 0.931 . S
H803 C818 0.930 . S
C804 H792 0.930 . S
C804 C805 1.399 . S
C804 C809 1.399 . S
C805 C804 1.399 . S
C805 C806 1.376 . S
C806 H793 0.930 . S
C806 C805 1.376 . S
C806 C807 1.388 . S
C807 H794 0.930 . S
C807 C806 1.388 . S
C807 C808 1.390 . S
C808 C807 1.390 . S
C808 C809 1.394 . S
C808 C814 1.465 . S
C809 C804 1.399 . S
C809 C808 1.394 . S
C809 C810 1.516 . S
C810 C809 1.516 . S
C810 C811 1.502 . S
C810 C812 1.561 . S
C810 C813 1.526 . S
C811 H795 0.959 . S
C811 H796 0.959 . S
C811 H797 0.961 . S
C811 C810 1.502 . S
C812 H798 0.960 . S
C812 H799 0.961 . S
C812 H800 0.959 . S
C812 C810 1.561 . S
C813 C810 1.526 . S
C813 C814 1.396 . S
C813 C818 1.390 . S
C814 C808 1.465 . S
C814 C813 1.396 . S
C814 C815 1.399 . S
C815 H801 0.929 . S
C815 C814 1.399 . S
C815 C816 1.385 . S
C816 H802 0.931 . S
C816 C815 1.385 . S
C816 C817 1.389 . S
C817 C816 1.389 . S
C817 C818 1.387 . S
C818 H803 0.930 . S
C818 C813 1.390 . S
C818 C817 1.387 . S
H819 C831 0.930 . S
H820 C833 0.930 . S
H821 C834 0.930 . S
H822 C838 0.959 . S
H823 C838 0.959 . S
H824 C838 0.961 . S
H825 C839 0.960 . S
H826 C839 0.961 . S
H827 C839 0.959 . S
H828 C842 0.929 . S
H829 C843 0.931 . S
H830 C845 0.930 . S
C831 H819 0.930 . S
C831 C832 1.399 . S
C831 C836 1.399 . S
C832 C831 1.399 . S
C832 C833 1.376 . S
C833 H820 0.930 . S
C833 C832 1.376 . S
C833 C834 1.388 . S
C834 H821 0.930 . S
C834 C833 1.388 . S
C834 C835 1.390 . S
C835 C834 1.390 . S
C835 C836 1.394 . S
C835 C841 1.465 . S
C836 C831 1.399 . S
C836 C835 1.394 . S
C836 C837 1.516 . S
C837 C836 1.516 . S
C837 C838 1.502 . S
C837 C839 1.561 . S
C837 C840 1.526 . S
C838 H822 0.959 . S
C838 H823 0.959 . S
C838 H824 0.961 . S
C838 C837 1.502 . S
C839 H825 0.960 . S
C839 H826 0.961 . S
C839 H827 0.959 . S
C839 C837 1.561 . S
C840 C837 1.526 . S
C840 C841 1.396 . S
C840 C845 1.390 . S
C841 C835 1.465 . S
C841 C840 1.396 . S
C841 C842 1.399 . S
C842 H828 0.929 . S
C842 C841 1.399 . S
C842 C843 1.385 . S
C843 H829 0.931 . S
C843 C842 1.385 . S
C843 C844 1.389 . S
C844 C843 1.389 . S
C844 C845 1.387 . S
C845 H830 0.930 . S
C845 C840 1.390 . S
C845 C844 1.387 . S
H846 C858 0.930 . S
H847 C860 0.930 . S
H848 C861 0.930 . S
H849 C865 0.959 . S
H850 C865 0.959 . S
H851 C865 0.961 . S
H852 C866 0.960 . S
H853 C866 0.961 . S
H854 C866 0.959 . S
H855 C869 0.929 . S
H856 C870 0.931 . S
H857 C872 0.930 . S
C858 H846 0.930 . S
C858 C859 1.399 . S
C858 C863 1.399 . S
C859 C858 1.399 . S
C859 C860 1.376 . S
C860 H847 0.930 . S
C860 C859 1.376 . S
C860 C861 1.388 . S
C861 H848 0.930 . S
C861 C860 1.388 . S
C861 C862 1.390 . S
C862 C861 1.390 . S
C862 C863 1.394 . S
C862 C868 1.465 . S
C863 C858 1.399 . S
C863 C862 1.394 . S
C863 C864 1.516 . S
C864 C863 1.516 . S
C864 C865 1.502 . S
C864 C866 1.561 . S
C864 C867 1.526 . S
C865 H849 0.959 . S
C865 H850 0.959 . S
C865 H851 0.961 . S
C865 C864 1.502 . S
C866 H852 0.960 . S
C866 H853 0.961 . S
C866 H854 0.959 . S
C866 C864 1.561 . S
C867 C864 1.526 . S
C867 C868 1.396 . S
C867 C872 1.390 . S
C868 C862 1.465 . S
C868 C867 1.396 . S
C868 C869 1.399 . S
C869 H855 0.929 . S
C869 C868 1.399 . S
C869 C870 1.385 . S
C870 H856 0.931 . S
C870 C869 1.385 . S
C870 C871 1.389 . S
C871 C870 1.389 . S
C871 C872 1.387 . S
C872 H857 0.930 . S
C872 C867 1.390 . S
C872 C871 1.387 . S
H873 C885 0.930 . S
H874 C887 0.930 . S
H875 C888 0.930 . S
H876 C892 0.959 . S
H877 C892 0.959 . S
H878 C892 0.961 . S
H879 C893 0.960 . S
H880 C893 0.961 . S
H881 C893 0.959 . S
H882 C896 0.929 . S
H883 C897 0.931 . S
H884 C899 0.930 . S
C885 H873 0.930 . S
C885 C886 1.399 . S
C885 C890 1.399 . S
C886 C885 1.399 . S
C886 C887 1.376 . S
C887 H874 0.930 . S
C887 C886 1.376 . S
C887 C888 1.388 . S
C888 H875 0.930 . S
C888 C887 1.388 . S
C888 C889 1.390 . S
C889 C888 1.390 . S
C889 C890 1.394 . S
C889 C895 1.465 . S
C890 C885 1.399 . S
C890 C889 1.394 . S
C890 C891 1.516 . S
C891 C890 1.516 . S
C891 C892 1.502 . S
C891 C893 1.561 . S
C891 C894 1.526 . S
C892 H876 0.959 . S
C892 H877 0.959 . S
C892 H878 0.961 . S
C892 C891 1.502 . S
C893 H879 0.960 . S
C893 H880 0.961 . S
C893 H881 0.959 . S
C893 C891 1.561 . S
C894 C891 1.526 . S
C894 C895 1.396 . S
C894 C899 1.390 . S
C895 C889 1.465 . S
C895 C894 1.396 . S
C895 C896 1.399 . S
C896 H882 0.929 . S
C896 C895 1.399 . S
C896 C897 1.385 . S
C897 H883 0.931 . S
C897 C896 1.385 . S
C897 C898 1.389 . S
C898 C897 1.389 . S
C898 C899 1.387 . S
C899 H884 0.930 . S
C899 C894 1.390 . S
C899 C898 1.387 . S
H900 C912 0.930 . S
H901 C914 0.930 . S
H902 C915 0.930 . S
H903 C919 0.959 . S
H904 C919 0.959 . S
H905 C919 0.961 . S
H906 C920 0.960 . S
H907 C920 0.961 . S
H908 C920 0.959 . S
H909 C923 0.929 . S
H910 C924 0.931 . S
H911 C926 0.930 . S
C912 H900 0.930 . S
C912 C913 1.399 . S
C912 C917 1.399 . S
C913 C912 1.399 . S
C913 C914 1.376 . S
C914 H901 0.930 . S
C914 C913 1.376 . S
C914 C915 1.388 . S
C915 H902 0.930 . S
C915 C914 1.388 . S
C915 C916 1.390 . S
C916 C915 1.390 . S
C916 C917 1.394 . S
C916 C922 1.465 . S
C917 C912 1.399 . S
C917 C916 1.394 . S
C917 C918 1.516 . S
C918 C917 1.516 . S
C918 C919 1.502 . S
C918 C920 1.561 . S
C918 C921 1.526 . S
C919 H903 0.959 . S
C919 H904 0.959 . S
C919 H905 0.961 . S
C919 C918 1.502 . S
C920 H906 0.960 . S
C920 H907 0.961 . S
C920 H908 0.959 . S
C920 C918 1.561 . S
C921 C918 1.526 . S
C921 C922 1.396 . S
C921 C926 1.390 . S
C922 C916 1.465 . S
C922 C921 1.396 . S
C922 C923 1.399 . S
C923 H909 0.929 . S
C923 C922 1.399 . S
C923 C924 1.385 . S
C924 H910 0.931 . S
C924 C923 1.385 . S
C924 C925 1.389 . S
C925 C924 1.389 . S
C925 C926 1.387 . S
C926 H911 0.930 . S
C926 C921 1.390 . S
C926 C925 1.387 . S
H927 C939 0.930 . S
H928 C941 0.930 . S
H929 C942 0.930 . S
H930 C946 0.959 . S
H931 C946 0.959 . S
H932 C946 0.961 . S
H933 C947 0.960 . S
H934 C947 0.961 . S
H935 C947 0.959 . S
H936 C950 0.929 . S
H937 C951 0.931 . S
H938 C953 0.930 . S
C939 H927 0.930 . S
C939 C940 1.399 . S
C939 C944 1.399 . S
C940 C939 1.399 . S
C940 C941 1.376 . S
C941 H928 0.930 . S
C941 C940 1.376 . S
C941 C942 1.388 . S
C942 H929 0.930 . S
C942 C941 1.388 . S
C942 C943 1.390 . S
C943 C942 1.390 . S
C943 C944 1.394 . S
C943 C949 1.465 . S
C944 C939 1.399 . S
C944 C943 1.394 . S
C944 C945 1.516 . S
C945 C944 1.516 . S
C945 C946 1.502 . S
C945 C947 1.561 . S
C945 C948 1.526 . S
C946 H930 0.959 . S
C946 H931 0.959 . S
C946 H932 0.961 . S
C946 C945 1.502 . S
C947 H933 0.960 . S
C947 H934 0.961 . S
C947 H935 0.959 . S
C947 C945 1.561 . S
C948 C945 1.526 . S
C948 C949 1.396 . S
C948 C953 1.390 . S
C949 C943 1.465 . S
C949 C948 1.396 . S
C949 C950 1.399 . S
C950 H936 0.929 . S
C950 C949 1.399 . S
C950 C951 1.385 . S
C951 H937 0.931 . S
C951 C950 1.385 . S
C951 C952 1.389 . S
C952 C951 1.389 . S
C952 C953 1.387 . S
C953 H938 0.930 . S
C953 C948 1.390 . S
C953 C952 1.387 . S
H954 C966 0.930 . S
H955 C968 0.930 . S
H956 C969 0.930 . S
H957 C973 0.959 . S
H958 C973 0.959 . S
H959 C973 0.961 . S
H960 C974 0.960 . S
H961 C974 0.961 . S
H962 C974 0.959 . S
H963 C977 0.929 . S
H964 C978 0.931 . S
H965 C980 0.930 . S
C966 H954 0.930 . S
C966 C967 1.399 . S
C966 C971 1.399 . S
C967 C966 1.399 . S
C967 C968 1.376 . S
C968 H955 0.930 . S
C968 C967 1.376 . S
C968 C969 1.388 . S
C969 H956 0.930 . S
C969 C968 1.388 . S
C969 C970 1.390 . S
C970 C969 1.390 . S
C970 C971 1.394 . S
C970 C976 1.465 . S
C971 C966 1.399 . S
C971 C970 1.394 . S
C971 C972 1.516 . S
C972 C971 1.516 . S
C972 C973 1.502 . S
C972 C974 1.561 . S
C972 C975 1.526 . S
C973 H957 0.959 . S
C973 H958 0.959 . S
C973 H959 0.961 . S
C973 C972 1.502 . S
C974 H960 0.960 . S
C974 H961 0.961 . S
C974 H962 0.959 . S
C974 C972 1.561 . S
C975 C972 1.526 . S
C975 C976 1.396 . S
C975 C980 1.390 . S
C976 C970 1.465 . S
C976 C975 1.396 . S
C976 C977 1.399 . S
C977 H963 0.929 . S
C977 C976 1.399 . S
C977 C978 1.385 . S
C978 H964 0.931 . S
C978 C977 1.385 . S
C978 C979 1.389 . S
C979 C978 1.389 . S
C979 C980 1.387 . S
C980 H965 0.930 . S
C980 C975 1.390 . S
C980 C979 1.387 . S
H981 C993 0.930 . S
H982 C995 0.930 . S
H983 C996 0.930 . S
H984 C1000 0.959 . S
H985 C1000 0.959 1_556 S
H986 C1000 0.961 . S
H987 C1001 0.960 . S
H988 C1001 0.961 1_556 S
H989 C1001 0.964 . S
H990 C1004 0.929 . S
H991 C1005 0.931 . S
H992 C1007 0.930 . S
C993 H981 0.930 . S
C993 C994 1.399 . S
C993 C998 1.399 . S
C994 C993 1.399 . S
C994 C995 1.376 . S
C995 H982 0.930 . S
C995 C994 1.376 . S
C995 C996 1.388 . S
C996 H983 0.930 . S
C996 C995 1.388 . S
C996 C997 1.390 . S
C997 C996 1.390 . S
C997 C998 1.394 . S
C997 C1003 1.465 1_554 S
C998 C993 1.399 . S
C998 C997 1.394 . S
C998 C999 1.516 . S
C999 C998 1.516 . S
C999 C1000 1.502 . S
C999 C1001 1.561 . S
C999 C1002 1.526 1_554 S
C1000 H984 0.959 . S
C1000 H985 0.959 1_554 S
C1000 H986 0.961 . S
C1000 C999 1.502 . S
C1001 H987 0.960 . S
C1001 H988 0.961 1_554 S
C1001 H989 0.964 . S
C1001 C999 1.561 . S
C1002 C999 1.526 1_556 S
C1002 C1003 1.396 . S
C1002 C1007 1.390 . S
C1003 C997 1.465 1_556 S
C1003 C1002 1.396 . S
C1003 C1004 1.399 . S
C1004 H990 0.929 . S
C1004 C1003 1.399 . S
C1004 C1005 1.385 . S
C1005 H991 0.931 . S
C1005 C1004 1.385 . S
C1005 C1006 1.389 . S
C1006 C1005 1.389 . S
C1006 C1007 1.387 . S
C1007 H992 0.930 . S
C1007 C1002 1.390 . S
C1007 C1006 1.387 . S
H1008 C1020 0.930 . S
H1009 C1022 0.930 . S
H1010 C1023 0.930 . S
H1011 C1027 0.959 . S
H1012 C1027 0.959 1_554 S
H1013 C1027 0.961 . S
H1014 C1028 0.960 . S
H1015 C1028 0.961 1_554 S
H1016 C1028 0.933 1_544 S
H1017 C1031 0.929 . S
H1018 C1032 0.931 . S
H1019 C1034 0.930 . S
C1020 H1008 0.930 . S
C1020 C1021 1.399 1_565 S
C1020 C1025 1.399 . S
C1021 C1020 1.399 1_545 S
C1021 C1022 1.376 . S
C1022 H1009 0.930 . S
C1022 C1021 1.376 . S
C1022 C1023 1.388 . S
C1023 H1010 0.930 . S
C1023 C1022 1.388 . S
C1023 C1024 1.390 . S
C1024 C1023 1.390 . S
C1024 C1025 1.394 1_545 S
C1024 C1030 1.465 1_556 S
C1025 C1020 1.399 . S
C1025 C1024 1.394 1_565 S
C1025 C1026 1.516 . S
C1026 C1025 1.516 . S
C1026 C1027 1.502 . S
C1026 C1028 1.561 . S
C1026 C1029 1.526 1_556 S
C1027 H1011 0.959 . S
C1027 H1012 0.959 1_556 S
C1027 H1013 0.961 . S
C1027 C1026 1.502 . S
C1028 H1014 0.960 . S
C1028 H1015 0.961 1_556 S
C1028 H1016 0.933 1_566 S
C1028 C1026 1.561 . S
C1029 C1026 1.526 1_554 S
C1029 C1030 1.396 1_565 S
C1029 C1034 1.390 . S
C1030 C1024 1.465 1_554 S
C1030 C1029 1.396 1_545 S
C1030 C1031 1.399 . S
C1031 H1017 0.929 . S
C1031 C1030 1.399 . S
C1031 C1032 1.385 . S
C1032 H1018 0.931 . S
C1032 C1031 1.385 . S
C1032 C1033 1.389 1_545 S
C1033 C1032 1.389 1_565 S
C1033 C1034 1.387 . S
C1034 H1019 0.930 . S
C1034 C1029 1.390 . S
C1034 C1033 1.387 . S
H1035 C1047 0.930 . S
H1036 C1049 0.930 . S
H1037 C1050 0.930 . S
H1038 C1054 0.959 . S
H1039 C1054 0.959 1_554 S
H1040 C1054 0.961 . S
H1041 C1055 0.960 . S
H1042 C1055 0.961 1_554 S
H1043 C1055 0.959 1_554 S
H1044 C1058 0.929 . S
H1045 C1059 0.931 . S
H1046 C1061 0.930 . S
C1047 H1035 0.930 . S
C1047 C1048 1.399 1_455 S
C1047 C1052 1.399 . S
C1048 C1047 1.399 1_655 S
C1048 C1049 1.376 . S
C1049 H1036 0.930 . S
C1049 C1048 1.376 . S
C1049 C1050 1.388 . S
C1050 H1037 0.930 . S
C1050 C1049 1.388 . S
C1050 C1051 1.390 . S
C1051 C1050 1.390 . S
C1051 C1052 1.394 1_655 S
C1051 C1057 1.465 1_556 S
C1052 C1047 1.399 . S
C1052 C1051 1.394 1_455 S
C1052 C1053 1.516 . S
C1053 C1052 1.516 . S
C1053 C1054 1.502 . S
C1053 C1055 1.561 . S
C1053 C1056 1.526 1_556 S
C1054 H1038 0.959 . S
C1054 H1039 0.959 1_556 S
C1054 H1040 0.961 . S
C1054 C1053 1.502 . S
C1055 H1041 0.960 . S
C1055 H1042 0.961 1_556 S
C1055 H1043 0.959 1_556 S
C1055 C1053 1.561 . S
C1056 C1053 1.526 1_554 S
C1056 C1057 1.396 1_455 S
C1056 C1061 1.390 . S
C1057 C1051 1.465 1_554 S
C1057 C1056 1.396 1_655 S
C1057 C1058 1.399 . S
C1058 H1044 0.929 . S
C1058 C1057 1.399 . S
C1058 C1059 1.385 . S
C1059 H1045 0.931 . S
C1059 C1058 1.385 . S
C1059 C1060 1.389 1_655 S
C1060 C1059 1.389 1_455 S
C1060 C1061 1.387 . S
C1061 H1046 0.930 . S
C1061 C1056 1.390 . S
C1061 C1060 1.387 . S
H1062 C1074 0.930 . S
H1063 C1076 0.930 . S
H1064 C1077 0.930 . S
H1065 C1081 0.959 . S
H1066 C1081 0.959 . S
H1067 C1081 0.961 . S
H1068 C1082 0.960 . S
H1069 C1082 0.961 . S
H1070 C1082 0.959 . S
H1071 C1085 0.929 . S
H1072 C1086 0.931 . S
H1073 C1088 0.930 . S
C1074 H1062 0.930 . S
C1074 C1075 1.399 . S
C1074 C1079 1.399 . S
C1075 C1074 1.399 . S
C1075 C1076 1.376 . S
C1076 H1063 0.930 . S
C1076 C1075 1.376 . S
C1076 C1077 1.388 . S
C1077 H1064 0.930 . S
C1077 C1076 1.388 . S
C1077 C1078 1.390 . S
C1078 C1077 1.390 . S
C1078 C1079 1.394 . S
C1078 C1084 1.465 . S
C1079 C1074 1.399 . S
C1079 C1078 1.394 . S
C1079 C1080 1.516 . S
C1080 C1079 1.516 . S
C1080 C1081 1.502 . S
C1080 C1082 1.561 . S
C1080 C1083 1.526 . S
C1081 H1065 0.959 . S
C1081 H1066 0.959 . S
C1081 H1067 0.961 . S
C1081 C1080 1.502 . S
C1082 H1068 0.960 . S
C1082 H1069 0.961 . S
C1082 H1070 0.959 . S
C1082 C1080 1.561 . S
C1083 C1080 1.526 . S
C1083 C1084 1.396 . S
C1083 C1088 1.390 . S
C1084 C1078 1.465 . S
C1084 C1083 1.396 . S
C1084 C1085 1.399 . S
C1085 H1071 0.929 . S
C1085 C1084 1.399 . S
C1085 C1086 1.385 . S
C1086 H1072 0.931 . S
C1086 C1085 1.385 . S
C1086 C1087 1.389 . S
C1087 C1086 1.389 . S
C1087 C1088 1.387 . S
C1088 H1073 0.930 . S
C1088 C1083 1.390 . S
C1088 C1087 1.387 . S
H1089 C1101 0.930 . S
H1090 C1103 0.930 . S
H1091 C1104 0.930 . S
H1092 C1108 0.959 . S
H1093 C1108 0.959 . S
H1094 C1108 0.961 . S
H1095 C1109 0.960 . S
H1096 C1109 0.961 . S
H1097 C1109 0.959 . S
H1098 C1112 0.929 . S
H1099 C1113 0.931 . S
H1100 C1115 0.930 . S
C1101 H1089 0.930 . S
C1101 C1102 1.399 . S
C1101 C1106 1.399 . S
C1102 C1101 1.399 . S
C1102 C1103 1.376 . S
C1103 H1090 0.930 . S
C1103 C1102 1.376 . S
C1103 C1104 1.388 . S
C1104 H1091 0.930 . S
C1104 C1103 1.388 . S
C1104 C1105 1.390 . S
C1105 C1104 1.390 . S
C1105 C1106 1.394 . S
C1105 C1111 1.465 . S
C1106 C1101 1.399 . S
C1106 C1105 1.394 . S
C1106 C1107 1.516 . S
C1107 C1106 1.516 . S
C1107 C1108 1.502 . S
C1107 C1109 1.561 . S
C1107 C1110 1.526 . S
C1108 H1092 0.959 . S
C1108 H1093 0.959 . S
C1108 H1094 0.961 . S
C1108 C1107 1.502 . S
C1109 H1095 0.960 . S
C1109 H1096 0.961 . S
C1109 H1097 0.959 . S
C1109 C1107 1.561 . S
C1110 C1107 1.526 . S
C1110 C1111 1.396 . S
C1110 C1115 1.390 . S
C1111 C1105 1.465 . S
C1111 C1110 1.396 . S
C1111 C1112 1.399 . S
C1112 H1098 0.929 . S
C1112 C1111 1.399 . S
C1112 C1113 1.385 . S
C1113 H1099 0.931 . S
C1113 C1112 1.385 . S
C1113 C1114 1.389 . S
C1114 C1113 1.389 . S
C1114 C1115 1.387 . S
C1115 H1100 0.930 . S
C1115 C1110 1.390 . S
C1115 C1114 1.387 . S
H1116 C1128 0.930 . S
H1117 C1130 0.930 . S
H1118 C1131 0.930 . S
H1119 C1135 0.959 . S
H1120 C1135 0.959 . S
H1121 C1135 0.961 . S
H1122 C1136 0.960 . S
H1123 C1136 0.961 . S
H1124 C1136 0.959 . S
H1125 C1139 0.929 . S
H1126 C1140 0.931 . S
H1127 C1142 0.930 . S
C1128 H1116 0.930 . S
C1128 C1129 1.399 . S
C1128 C1133 1.399 . S
C1129 C1128 1.399 . S
C1129 C1130 1.376 . S
C1130 H1117 0.930 . S
C1130 C1129 1.376 . S
C1130 C1131 1.388 . S
C1131 H1118 0.930 . S
C1131 C1130 1.388 . S
C1131 C1132 1.390 . S
C1132 C1131 1.390 . S
C1132 C1133 1.394 . S
C1132 C1138 1.465 . S
C1133 C1128 1.399 . S
C1133 C1132 1.394 . S
C1133 C1134 1.516 . S
C1134 C1133 1.516 . S
C1134 C1135 1.502 . S
C1134 C1136 1.561 . S
C1134 C1137 1.526 . S
C1135 H1119 0.959 . S
C1135 H1120 0.959 . S
C1135 H1121 0.961 . S
C1135 C1134 1.502 . S
C1136 H1122 0.960 . S
C1136 H1123 0.961 . S
C1136 H1124 0.959 . S
C1136 C1134 1.561 . S
C1137 C1134 1.526 . S
C1137 C1138 1.396 . S
C1137 C1142 1.390 . S
C1138 C1132 1.465 . S
C1138 C1137 1.396 . S
C1138 C1139 1.399 . S
C1139 H1125 0.929 . S
C1139 C1138 1.399 . S
C1139 C1140 1.385 . S
C1140 H1126 0.931 . S
C1140 C1139 1.385 . S
C1140 C1141 1.389 . S
C1141 C1140 1.389 . S
C1141 C1142 1.387 . S
C1142 H1127 0.930 . S
C1142 C1137 1.390 . S
C1142 C1141 1.387 . S
H1143 C1155 0.930 . S
H1144 C1157 0.930 . S
H1145 C1158 0.930 . S
H1146 C1162 0.959 . S
H1147 C1162 0.959 . S
H1148 C1162 0.961 . S
H1149 C1163 0.960 . S
H1150 C1163 0.961 . S
H1151 C1163 0.959 . S
H1152 C1166 0.929 . S
H1153 C1167 0.931 . S
H1154 C1169 0.930 . S
C1155 H1143 0.930 . S
C1155 C1156 1.399 . S
C1155 C1160 1.399 . S
C1156 C1155 1.399 . S
C1156 C1157 1.376 . S
C1157 H1144 0.930 . S
C1157 C1156 1.376 . S
C1157 C1158 1.388 . S
C1158 H1145 0.930 . S
C1158 C1157 1.388 . S
C1158 C1159 1.390 . S
C1159 C1158 1.390 . S
C1159 C1160 1.394 . S
C1159 C1165 1.465 . S
C1160 C1155 1.399 . S
C1160 C1159 1.394 . S
C1160 C1161 1.516 . S
C1161 C1160 1.516 . S
C1161 C1162 1.502 . S
C1161 C1163 1.561 . S
C1161 C1164 1.526 . S
C1162 H1146 0.959 . S
C1162 H1147 0.959 . S
C1162 H1148 0.961 . S
C1162 C1161 1.502 . S
C1163 H1149 0.960 . S
C1163 H1150 0.961 . S
C1163 H1151 0.959 . S
C1163 C1161 1.561 . S
C1164 C1161 1.526 . S
C1164 C1165 1.396 . S
C1164 C1169 1.390 . S
C1165 C1159 1.465 . S
C1165 C1164 1.396 . S
C1165 C1166 1.399 . S
C1166 H1152 0.929 . S
C1166 C1165 1.399 . S
C1166 C1167 1.385 . S
C1167 H1153 0.931 . S
C1167 C1166 1.385 . S
C1167 C1168 1.389 . S
C1168 C1167 1.389 . S
C1168 C1169 1.387 . S
C1169 H1154 0.930 . S
C1169 C1164 1.390 . S
C1169 C1168 1.387 . S
H1170 C1182 0.930 . S
H1171 C1184 0.930 . S
H1172 C1185 0.930 . S
H1173 C1189 0.959 . S
H1174 C1189 0.959 . S
H1175 C1189 0.961 . S
H1176 C1190 0.960 . S
H1177 C1190 0.961 . S
H1178 C1190 0.959 . S
H1179 C1193 0.929 . S
H1180 C1194 0.931 . S
H1181 C1196 0.930 . S
C1182 H1170 0.930 . S
C1182 C1183 1.399 . S
C1182 C1187 1.399 . S
C1183 C1182 1.399 . S
C1183 C1184 1.376 . S
C1184 H1171 0.930 . S
C1184 C1183 1.376 . S
C1184 C1185 1.388 . S
C1185 H1172 0.930 . S
C1185 C1184 1.388 . S
C1185 C1186 1.390 . S
C1186 C1185 1.390 . S
C1186 C1187 1.394 . S
C1186 C1192 1.465 . S
C1187 C1182 1.399 . S
C1187 C1186 1.394 . S
C1187 C1188 1.516 . S
C1188 C1187 1.516 . S
C1188 C1189 1.502 . S
C1188 C1190 1.561 . S
C1188 C1191 1.526 . S
C1189 H1173 0.959 . S
C1189 H1174 0.959 . S
C1189 H1175 0.961 . S
C1189 C1188 1.502 . S
C1190 H1176 0.960 . S
C1190 H1177 0.961 . S
C1190 H1178 0.959 . S
C1190 C1188 1.561 . S
C1191 C1188 1.526 . S
C1191 C1192 1.396 . S
C1191 C1196 1.390 . S
C1192 C1186 1.465 . S
C1192 C1191 1.396 . S
C1192 C1193 1.399 . S
C1193 H1179 0.929 . S
C1193 C1192 1.399 . S
C1193 C1194 1.385 . S
C1194 H1180 0.931 . S
C1194 C1193 1.385 . S
C1194 C1195 1.389 . S
C1195 C1194 1.389 . S
C1195 C1196 1.387 . S
C1196 H1181 0.930 . S
C1196 C1191 1.390 . S
C1196 C1195 1.387 . S
H1197 C1209 0.930 . S
H1198 C1211 0.930 . S
H1199 C1212 0.930 . S
H1200 C1216 0.959 . S
H1201 C1216 0.959 . S
H1202 C1216 0.961 . S
H1203 C1217 0.960 . S
H1204 C1217 0.961 . S
H1205 C1217 0.959 . S
H1206 C1220 0.929 . S
H1207 C1221 0.931 . S
H1208 C1223 0.930 . S
C1209 H1197 0.930 . S
C1209 C1210 1.399 . S
C1209 C1214 1.399 . S
C1210 C1209 1.399 . S
C1210 C1211 1.376 . S
C1211 H1198 0.930 . S
C1211 C1210 1.376 . S
C1211 C1212 1.388 . S
C1212 H1199 0.930 . S
C1212 C1211 1.388 . S
C1212 C1213 1.390 . S
C1213 C1212 1.390 . S
C1213 C1214 1.394 . S
C1213 C1219 1.465 . S
C1214 C1209 1.399 . S
C1214 C1213 1.394 . S
C1214 C1215 1.516 . S
C1215 C1214 1.516 . S
C1215 C1216 1.502 . S
C1215 C1217 1.561 . S
C1215 C1218 1.526 . S
C1216 H1200 0.959 . S
C1216 H1201 0.959 . S
C1216 H1202 0.961 . S
C1216 C1215 1.502 . S
C1217 H1203 0.960 . S
C1217 H1204 0.961 . S
C1217 H1205 0.959 . S
C1217 C1215 1.561 . S
C1218 C1215 1.526 . S
C1218 C1219 1.396 . S
C1218 C1223 1.390 . S
C1219 C1213 1.465 . S
C1219 C1218 1.396 . S
C1219 C1220 1.399 . S
C1220 H1206 0.929 . S
C1220 C1219 1.399 . S
C1220 C1221 1.385 . S
C1221 H1207 0.931 . S
C1221 C1220 1.385 . S
C1221 C1222 1.389 . S
C1222 C1221 1.389 . S
C1222 C1223 1.387 . S
C1223 H1208 0.930 . S
C1223 C1218 1.390 . S
C1223 C1222 1.387 . S
C265 C148 1.132 . S
C277 C8 1.165 . S
C292 C22 1.178 . S
C304 C162 1.141 . S
C319 C134 1.130 . S
C331 C36 1.176 . S
C346 C204 1.179 . S
C358 C50 1.140 . S
C373 C64 1.130 . S
C385 C176 1.172 . S
C400 C190 1.139 . S
C412 C78 1.155 . S
C427 C92 1.130 . S
C439 C232 1.172 . S
C454 C246 1.144 . S
C466 C106 1.149 . S
C481 C120 1.130 . S
C493 C218 1.171 . S
C508 C9 1.040 . S
C520 C17 1.051 . S
C535 C23 1.028 . S
C547 C31 1.096 . S
C562 C3 1.046 . S
C574 C37 1.028 . S
C589 C73 1.047 . S
C601 C51 0.922 . S
C616 C45 1.094 . S
C628 C65 1.073 . S
C643 C79 1.025 . S
C655 C59 1.045 . S
C670 C93 1.036 . S
C682 C101 1.049 . S
C697 C107 0.984 . S
C709 C115 1.086 . S
C724 C87 1.038 . S
C736 C121 0.926 . S
C751 C157 1.097 . S
C763 C135 1.064 . S
C778 C129 1.096 . S
C790 C149 1.067 . S
C805 C143 1.032 . S
C817 C163 0.943 . S
C832 C185 1.098 . S
C844 C177 1.048 . S
C859 C199 1.089 . S
C871 C191 1.079 . S
C886 C171 1.034 . S
C898 C205 0.934 . S
C913 C219 0.975 . S
C925 C241 1.083 . S
C940 C233 0.928 . S
C952 C213 1.036 . S
C967 C247 1.016 . S
C979 C227 1.042 . S
C994 C7 1.592 . S
C1006 C49 1.575 . S
C1021 C63 1.610 . S
C1033 C21 1.594 . S
C1048 C77 1.608 . S
C1060 C35 1.592 . S
C1075 C133 1.627 . S
C1087 C91 1.617 . S
C1102 C147 1.561 . S
C1114 C105 1.549 . S
C1129 C119 1.631 . S
C1141 C161 1.629 . S
C1156 C217 1.540 . S
C1168 C175 1.540 . S
C1183 C231 1.566 . S
C1195 C189 1.553 . S
C1210 C245 1.617 . S
C1222 C203 1.603 . S
