# Generated by pormake.
# Topology wip, (6)-cn, num edge types: 1
# Building blocks:
#     Node 0, Type 0, BuildingBlock: INOVEN_clean_sbu_0, # of connection points: 6
#     Node 1, Type 0, BuildingBlock: INOVEN_clean_sbu_0, # of connection points: 6
#     Node 2, Type 0, BuildingBlock: INOVEN_clean_sbu_0, # of connection points: 6
#     Node 3, Type 0, BuildingBlock: INOVEN_clean_sbu_0, # of connection points: 6
#     Node 4, Type 0, BuildingBlock: INOVEN_clean_sbu_0, # of connection points: 6
#     Node 5, Type 0, BuildingBlock: INOVEN_clean_sbu_0, # of connection points: 6
#     Node 6, Type 0, BuildingBlock: INOVEN_clean_sbu_0, # of connection points: 6
#     Node 7, Type 0, BuildingBlock: INOVEN_clean_sbu_0, # of connection points: 6
#     Node 8, Type 0, BuildingBlock: INOVEN_clean_sbu_0, # of connection points: 6
#     Node 9, Type 0, BuildingBlock: INOVEN_clean_sbu_0, # of connection points: 6
#     Node 10, Type 0, BuildingBlock: INOVEN_clean_sbu_0, # of connection points: 6
#     Node 11, Type 0, BuildingBlock: INOVEN_clean_sbu_0, # of connection points: 6
#     Node 12, Type 0, BuildingBlock: INOVEN_clean_sbu_0, # of connection points: 6
#     Node 13, Type 0, BuildingBlock: INOVEN_clean_sbu_0, # of connection points: 6
#     Node 14, Type 0, BuildingBlock: INOVEN_clean_sbu_0, # of connection points: 6
#     Node 15, Type 0, BuildingBlock: INOVEN_clean_sbu_0, # of connection points: 6
#     Node 16, Type 0, BuildingBlock: INOVEN_clean_sbu_0, # of connection points: 6
#     Node 17, Type 0, BuildingBlock: INOVEN_clean_sbu_0, # of connection points: 6
#     Node 18, Type 0, BuildingBlock: INOVEN_clean_sbu_0, # of connection points: 6
#     Node 19, Type 0, BuildingBlock: INOVEN_clean_sbu_0, # of connection points: 6
#     Node 20, Type 0, BuildingBlock: INOVEN_clean_sbu_0, # of connection points: 6
#     Node 21, Type 0, BuildingBlock: INOVEN_clean_sbu_0, # of connection points: 6
#     Node 22, Type 0, BuildingBlock: INOVEN_clean_sbu_0, # of connection points: 6
#     Node 23, Type 0, BuildingBlock: INOVEN_clean_sbu_0, # of connection points: 6
#     Node 24, Type 0, BuildingBlock: INOVEN_clean_sbu_0, # of connection points: 6
#     Node 25, Type 0, BuildingBlock: INOVEN_clean_sbu_0, # of connection points: 6
#     Node 26, Type 0, BuildingBlock: INOVEN_clean_sbu_0, # of connection points: 6
#     Node 27, Type 0, BuildingBlock: INOVEN_clean_sbu_0, # of connection points: 6
#     Node 28, Type 0, BuildingBlock: INOVEN_clean_sbu_0, # of connection points: 6
#     Node 29, Type 0, BuildingBlock: INOVEN_clean_sbu_0, # of connection points: 6
#     Node 30, Type 0, BuildingBlock: INOVEN_clean_sbu_0, # of connection points: 6
#     Node 31, Type 0, BuildingBlock: INOVEN_clean_sbu_0, # of connection points: 6
#     Edge 32, Type (0, 0), BuildingBlock: OJICUG_clean_linker_0, # of connection points: 2
#     Edge 33, Type (0, 0), BuildingBlock: OJICUG_clean_linker_0, # of connection points: 2
#     Edge 34, Type (0, 0), BuildingBlock: OJICUG_clean_linker_0, # of connection points: 2
#     Edge 35, Type (0, 0), BuildingBlock: OJICUG_clean_linker_0, # of connection points: 2
#     Edge 36, Type (0, 0), BuildingBlock: OJICUG_clean_linker_0, # of connection points: 2
#     Edge 37, Type (0, 0), BuildingBlock: OJICUG_clean_linker_0, # of connection points: 2
#     Edge 38, Type (0, 0), BuildingBlock: OJICUG_clean_linker_0, # of connection points: 2
#     Edge 39, Type (0, 0), BuildingBlock: OJICUG_clean_linker_0, # of connection points: 2
#     Edge 40, Type (0, 0), BuildingBlock: OJICUG_clean_linker_0, # of connection points: 2
#     Edge 41, Type (0, 0), BuildingBlock: OJICUG_clean_linker_0, # of connection points: 2
#     Edge 42, Type (0, 0), BuildingBlock: OJICUG_clean_linker_0, # of connection points: 2
#     Edge 43, Type (0, 0), BuildingBlock: OJICUG_clean_linker_0, # of connection points: 2
#     Edge 44, Type (0, 0), BuildingBlock: OJICUG_clean_linker_0, # of connection points: 2
#     Edge 45, Type (0, 0), BuildingBlock: OJICUG_clean_linker_0, # of connection points: 2
#     Edge 46, Type (0, 0), BuildingBlock: OJICUG_clean_linker_0, # of connection points: 2
#     Edge 47, Type (0, 0), BuildingBlock: OJICUG_clean_linker_0, # of connection points: 2
#     Edge 48, Type (0, 0), BuildingBlock: OJICUG_clean_linker_0, # of connection points: 2
#     Edge 49, Type (0, 0), BuildingBlock: OJICUG_clean_linker_0, # of connection points: 2
#     Edge 50, Type (0, 0), BuildingBlock: OJICUG_clean_linker_0, # of connection points: 2
#     Edge 51, Type (0, 0), BuildingBlock: OJICUG_clean_linker_0, # of connection points: 2
#     Edge 52, Type (0, 0), BuildingBlock: OJICUG_clean_linker_0, # of connection points: 2
#     Edge 53, Type (0, 0), BuildingBlock: OJICUG_clean_linker_0, # of connection points: 2
#     Edge 54, Type (0, 0), BuildingBlock: OJICUG_clean_linker_0, # of connection points: 2
#     Edge 55, Type (0, 0), BuildingBlock: OJICUG_clean_linker_0, # of connection points: 2
#     Edge 56, Type (0, 0), BuildingBlock: OJICUG_clean_linker_0, # of connection points: 2
#     Edge 57, Type (0, 0), BuildingBlock: OJICUG_clean_linker_0, # of connection points: 2
#     Edge 58, Type (0, 0), BuildingBlock: OJICUG_clean_linker_0, # of connection points: 2
#     Edge 59, Type (0, 0), BuildingBlock: OJICUG_clean_linker_0, # of connection points: 2
#     Edge 60, Type (0, 0), BuildingBlock: OJICUG_clean_linker_0, # of connection points: 2
#     Edge 61, Type (0, 0), BuildingBlock: OJICUG_clean_linker_0, # of connection points: 2
#     Edge 62, Type (0, 0), BuildingBlock: OJICUG_clean_linker_0, # of connection points: 2
#     Edge 63, Type (0, 0), BuildingBlock: OJICUG_clean_linker_0, # of connection points: 2
#     Edge 64, Type (0, 0), BuildingBlock: OJICUG_clean_linker_0, # of connection points: 2
#     Edge 65, Type (0, 0), BuildingBlock: OJICUG_clean_linker_0, # of connection points: 2
#     Edge 66, Type (0, 0), BuildingBlock: OJICUG_clean_linker_0, # of connection points: 2
#     Edge 67, Type (0, 0), BuildingBlock: OJICUG_clean_linker_0, # of connection points: 2
#     Edge 68, Type (0, 0), BuildingBlock: OJICUG_clean_linker_0, # of connection points: 2
#     Edge 69, Type (0, 0), BuildingBlock: OJICUG_clean_linker_0, # of connection points: 2
#     Edge 70, Type (0, 0), BuildingBlock: OJICUG_clean_linker_0, # of connection points: 2
#     Edge 71, Type (0, 0), BuildingBlock: OJICUG_clean_linker_0, # of connection points: 2
#     Edge 72, Type (0, 0), BuildingBlock: OJICUG_clean_linker_0, # of connection points: 2
#     Edge 73, Type (0, 0), BuildingBlock: OJICUG_clean_linker_0, # of connection points: 2
#     Edge 74, Type (0, 0), BuildingBlock: OJICUG_clean_linker_0, # of connection points: 2
#     Edge 75, Type (0, 0), BuildingBlock: OJICUG_clean_linker_0, # of connection points: 2
#     Edge 76, Type (0, 0), BuildingBlock: OJICUG_clean_linker_0, # of connection points: 2
#     Edge 77, Type (0, 0), BuildingBlock: OJICUG_clean_linker_0, # of connection points: 2
#     Edge 78, Type (0, 0), BuildingBlock: OJICUG_clean_linker_0, # of connection points: 2
#     Edge 79, Type (0, 0), BuildingBlock: OJICUG_clean_linker_0, # of connection points: 2
#     Edge 80, Type (0, 0), BuildingBlock: OJICUG_clean_linker_0, # of connection points: 2
#     Edge 81, Type (0, 0), BuildingBlock: OJICUG_clean_linker_0, # of connection points: 2
#     Edge 82, Type (0, 0), BuildingBlock: OJICUG_clean_linker_0, # of connection points: 2
#     Edge 83, Type (0, 0), BuildingBlock: OJICUG_clean_linker_0, # of connection points: 2
#     Edge 84, Type (0, 0), BuildingBlock: OJICUG_clean_linker_0, # of connection points: 2
#     Edge 85, Type (0, 0), BuildingBlock: OJICUG_clean_linker_0, # of connection points: 2
#     Edge 86, Type (0, 0), BuildingBlock: OJICUG_clean_linker_0, # of connection points: 2
#     Edge 87, Type (0, 0), BuildingBlock: OJICUG_clean_linker_0, # of connection points: 2
#     Edge 88, Type (0, 0), BuildingBlock: OJICUG_clean_linker_0, # of connection points: 2
#     Edge 89, Type (0, 0), BuildingBlock: OJICUG_clean_linker_0, # of connection points: 2
#     Edge 90, Type (0, 0), BuildingBlock: OJICUG_clean_linker_0, # of connection points: 2
#     Edge 91, Type (0, 0), BuildingBlock: OJICUG_clean_linker_0, # of connection points: 2
#     Edge 92, Type (0, 0), BuildingBlock: OJICUG_clean_linker_0, # of connection points: 2
#     Edge 93, Type (0, 0), BuildingBlock: OJICUG_clean_linker_0, # of connection points: 2
#     Edge 94, Type (0, 0), BuildingBlock: OJICUG_clean_linker_0, # of connection points: 2
#     Edge 95, Type (0, 0), BuildingBlock: OJICUG_clean_linker_0, # of connection points: 2
#     Edge 96, Type (0, 0), BuildingBlock: OJICUG_clean_linker_0, # of connection points: 2
#     Edge 97, Type (0, 0), BuildingBlock: OJICUG_clean_linker_0, # of connection points: 2
#     Edge 98, Type (0, 0), BuildingBlock: OJICUG_clean_linker_0, # of connection points: 2
#     Edge 99, Type (0, 0), BuildingBlock: OJICUG_clean_linker_0, # of connection points: 2
#     Edge 100, Type (0, 0), BuildingBlock: OJICUG_clean_linker_0, # of connection points: 2
#     Edge 101, Type (0, 0), BuildingBlock: OJICUG_clean_linker_0, # of connection points: 2
#     Edge 102, Type (0, 0), BuildingBlock: OJICUG_clean_linker_0, # of connection points: 2
#     Edge 103, Type (0, 0), BuildingBlock: OJICUG_clean_linker_0, # of connection points: 2
#     Edge 104, Type (0, 0), BuildingBlock: OJICUG_clean_linker_0, # of connection points: 2
#     Edge 105, Type (0, 0), BuildingBlock: OJICUG_clean_linker_0, # of connection points: 2
#     Edge 106, Type (0, 0), BuildingBlock: OJICUG_clean_linker_0, # of connection points: 2
#     Edge 107, Type (0, 0), BuildingBlock: OJICUG_clean_linker_0, # of connection points: 2
#     Edge 108, Type (0, 0), BuildingBlock: OJICUG_clean_linker_0, # of connection points: 2
#     Edge 109, Type (0, 0), BuildingBlock: OJICUG_clean_linker_0, # of connection points: 2
#     Edge 110, Type (0, 0), BuildingBlock: OJICUG_clean_linker_0, # of connection points: 2
#     Edge 111, Type (0, 0), BuildingBlock: OJICUG_clean_linker_0, # of connection points: 2
#     Edge 112, Type (0, 0), BuildingBlock: OJICUG_clean_linker_0, # of connection points: 2
#     Edge 113, Type (0, 0), BuildingBlock: OJICUG_clean_linker_0, # of connection points: 2
#     Edge 114, Type (0, 0), BuildingBlock: OJICUG_clean_linker_0, # of connection points: 2
#     Edge 115, Type (0, 0), BuildingBlock: OJICUG_clean_linker_0, # of connection points: 2
#     Edge 116, Type (0, 0), BuildingBlock: OJICUG_clean_linker_0, # of connection points: 2
#     Edge 117, Type (0, 0), BuildingBlock: OJICUG_clean_linker_0, # of connection points: 2
#     Edge 118, Type (0, 0), BuildingBlock: OJICUG_clean_linker_0, # of connection points: 2
#     Edge 119, Type (0, 0), BuildingBlock: OJICUG_clean_linker_0, # of connection points: 2
#     Edge 120, Type (0, 0), BuildingBlock: OJICUG_clean_linker_0, # of connection points: 2
#     Edge 121, Type (0, 0), BuildingBlock: OJICUG_clean_linker_0, # of connection points: 2
#     Edge 122, Type (0, 0), BuildingBlock: OJICUG_clean_linker_0, # of connection points: 2
#     Edge 123, Type (0, 0), BuildingBlock: OJICUG_clean_linker_0, # of connection points: 2
#     Edge 124, Type (0, 0), BuildingBlock: OJICUG_clean_linker_0, # of connection points: 2
#     Edge 125, Type (0, 0), BuildingBlock: OJICUG_clean_linker_0, # of connection points: 2
#     Edge 126, Type (0, 0), BuildingBlock: OJICUG_clean_linker_0, # of connection points: 2
#     Edge 127, Type (0, 0), BuildingBlock: OJICUG_clean_linker_0, # of connection points: 2
# Relax obj value: 0.379
# Max RMSD: 0.334
# Mean RMSD: 0.256
data_MOF--net-wip--node1-INOVEN_clean_sbu_0--edge1-OJICUG_clean_linker_0
_symmetry_space_group_name_H-M    P1
_symmetry_Int_Tables_number       1
_symmetry_cell_setting            triclinic
loop_
_symmetry_equiv_pos_as_xyz
'x, y, z'
_cell_length_a     47.108529
_cell_length_b     44.434163
_cell_length_c     27.832729
_cell_angle_alpha  95.991909
_cell_angle_beta   84.488542
_cell_angle_gamma 89.001204
loop_
_atom_site_label
_atom_site_type_symbol
_atom_site_fract_x
_atom_site_fract_y
_atom_site_fract_z
_atom_type_partial_charge
Gd0 Gd 0.04985 0.39989 0.12791 0.0
Gd1 Gd 0.09303 0.43285 0.06919 0.0
C2 C 0.09235 0.44897 0.18057 0.0
C3 C 0.02427 0.36593 0.18758 0.0
C4 C 0.02829 0.35603 0.23504 0.0
C5 C 0.00828 0.33716 0.25603 0.0
C6 C 0.0495 0.36863 0.2623 0.0
C7 C 0.02852 0.34658 0.33312 0.0
C8 C 0.04983 0.3637 0.31097 0.0
C9 C 0.00834 0.33249 0.30484 0.0
C10 C 0.0283 0.45444 0.11393 0.0
C11 C 0.03827 0.40367 1.01786 0.0
C12 C 0.12016 0.45996 1.0001 0.0
C13 C 0.11494 0.47208 0.95299 0.0
C14 C 0.138 0.47556 0.91807 0.0
C15 C 0.08752 0.48077 0.94237 0.0
C16 C 0.10661 0.49685 0.86348 0.0
C17 C 0.08344 0.49296 0.89847 0.0
C18 C 0.13396 0.48766 0.87417 0.0
C19 C 0.11604 0.3882 0.11834 0.0
O20 O 0.07569 0.42517 0.18391 0.0
O21 O 0.09886 0.46022 0.13885 0.0
O22 O 0.01877 0.39488 0.18825 0.0
O23 O 0.04233 0.35516 0.15083 0.0
O24 O 0.01478 0.42933 0.10884 0.0
O25 O 0.05417 0.44841 0.11889 0.0
O26 O 0.05921 0.42278 1.01803 0.0
O27 O 0.03246 0.3877 0.05498 0.0
O28 O 0.12043 0.43048 1.0009 0.0
O29 O 0.10769 0.47427 0.04048 0.0
O30 O 0.12899 0.41208 0.1055 0.0
O31 O 0.09323 0.38672 0.09635 0.0
H32 H 0.99165 0.32743 0.23549 0.0
H33 H 0.06484 0.38352 0.24663 0.0
H34 H 0.06547 0.37502 0.33202 0.0
H35 H 0.9918 0.31906 0.32112 0.0
H36 H 0.15941 0.46917 0.92496 0.0
H37 H 0.06919 0.47826 0.96813 0.0
H38 H 0.06193 0.49909 0.89185 0.0
H39 H 0.1525 0.4904 0.84904 0.0
Gd40 Gd 0.84029 0.7989 0.38535 0.0
Gd41 Gd 0.80353 0.84277 0.33929 0.0
C42 C 0.79618 0.84895 0.45261 0.0
C43 C 0.87347 0.77357 0.43986 0.0
C44 C 0.87415 0.76913 0.49191 0.0
C45 C 0.87294 0.73966 0.50584 0.0
C46 C 0.87649 0.79351 0.52778 0.0
C47 C 0.87619 0.75883 0.59043 0.0
C48 C 0.87761 0.78839 0.57649 0.0
C49 C 0.87381 0.73458 0.55444 0.0
C50 C 0.78825 0.77686 0.37214 0.0
C51 C 0.83856 0.7877 0.2733 0.0
C52 C 0.77215 0.86891 0.28205 0.0
C53 C 0.75969 0.86471 0.23393 0.0
C54 C 0.77688 0.86194 0.18921 0.0
C55 C 0.72991 0.86619 0.23251 0.0
C56 C 0.73474 0.86269 0.14324 0.0
C57 C 0.71766 0.86511 0.18811 0.0
C58 C 0.76463 0.86094 0.14471 0.0
C59 C 0.85231 0.86529 0.37442 0.0
O60 O 0.81842 0.82972 0.44903 0.0
O61 O 0.78356 0.85539 0.41441 0.0
O62 O 0.85396 0.75916 0.41715 0.0
O63 O 0.87702 0.80082 0.42708 0.0
O64 O 0.81213 0.76172 0.36088 0.0
O65 O 0.79358 0.80433 0.3839 0.0
O66 O 0.81533 0.80495 0.28128 0.0
O67 O 0.85576 0.78475 0.30736 0.0
O68 O 0.79977 0.872 0.28205 0.0
O69 O 0.76156 0.8536 0.31712 0.0
O70 O 0.82864 0.88072 0.37441 0.0
O71 O 0.8496 0.83972 0.35073 0.0
H72 H 0.87139 0.72043 0.47897 0.0
H73 H 0.87741 0.81652 0.51834 0.0
H74 H 0.87921 0.80761 0.60334 0.0
H75 H 0.87306 0.71151 0.56372 0.0
H76 H 0.7999 0.86086 0.18848 0.0
H77 H 0.71595 0.86881 0.26604 0.0
H78 H 0.69465 0.86692 0.18918 0.0
H79 H 0.77869 0.85859 0.11133 0.0
Gd80 Gd 0.43904 0.59008 0.68096 0.0
Gd81 Gd 0.39934 0.55304 0.62339 0.0
C82 C 0.40304 0.53449 0.72674 0.0
C83 C 0.46093 0.62613 0.74564 0.0
C84 C 0.4561 0.63565 0.7978 0.0
C85 C 0.47332 0.65779 0.81849 0.0
C86 C 0.43741 0.61993 0.8279 0.0
C87 C 0.45586 0.64576 0.89907 0.0
C88 C 0.43705 0.62517 0.87832 0.0
C89 C 0.47329 0.66278 0.86884 0.0
C90 C 0.46629 0.53892 0.63882 0.0
C91 C 0.45084 0.58866 0.56587 0.0
C92 C 0.37655 0.52382 0.55035 0.0
C93 C 0.38407 0.5118 0.49709 0.0
C94 C 0.38094 0.52994 0.459 0.0
C95 C 0.39242 0.48119 0.48334 0.0
C96 C 0.39415 0.48726 0.39563 0.0
C97 C 0.39743 0.46924 0.43392 0.0
C98 C 0.38588 0.51798 0.4095 0.0
C99 C 0.37204 0.59302 0.69939 0.0
O100 O 0.41684 0.56025 0.73447 0.0
O101 O 0.39761 0.5233 0.68274 0.0
O102 O 0.46892 0.59777 0.73443 0.0
O103 O 0.44223 0.6353 0.71801 0.0
O104 O 0.47701 0.56562 0.63997 0.0
O105 O 0.44002 0.54162 0.65384 0.0
O106 O 0.43184 0.56741 0.56566 0.0
O107 O 0.4551 0.60489 0.60713 0.0
O108 O 0.37361 0.55324 0.56202 0.0
O109 O 0.38828 0.51041 0.58373 0.0
O110 O 0.3618 0.56802 0.68035 0.0
O111 O 0.39405 0.59812 0.67034 0.0
H112 H 0.488 0.66998 0.7957 0.0
H113 H 0.42427 0.60251 0.81235 0.0
H114 H 0.42359 0.6116 0.90082 0.0
H115 H 0.4879 0.67884 0.88411 0.0
H116 H 0.37434 0.55352 0.46735 0.0
H117 H 0.39468 0.46611 0.51098 0.0
H118 H 0.40327 0.44546 0.4259 0.0
H119 H 0.38337 0.53309 0.38203 0.0
Gd120 Gd 0.67181 0.18915 0.8504 0.0
Gd121 Gd 0.71394 0.14127 0.87627 0.0
C122 C 0.71728 0.15324 0.76371 0.0
C123 C 0.64559 0.23163 0.81494 0.0
C124 C 0.65153 0.24574 0.77008 0.0
C125 C 0.62897 0.25666 0.7469 0.0
C126 C 0.67943 0.24509 0.74733 0.0
C127 C 0.66211 0.26526 0.67755 0.0
C128 C 0.68468 0.25469 0.70139 0.0
C129 C 0.63422 0.26647 0.7009 0.0
C130 C 0.64564 0.14157 0.8848 0.0
C131 C 0.6801 0.18851 0.96558 0.0
C132 C 0.73838 0.0947 0.90524 0.0
C133 C 0.74815 0.08735 0.95099 0.0
C134 C 0.75286 0.05709 0.95884 0.0
C135 C 0.75286 0.11061 0.98707 0.0
C136 C 0.76697 0.07342 0.03889 0.0
C137 C 0.7623 0.10371 1.03059 0.0
C138 C 0.76211 0.05011 1.00274 0.0
C139 C 0.73518 0.19794 0.87175 0.0
O140 O 0.70177 0.17812 0.77993 0.0
O141 O 0.72078 0.13222 0.79332 0.0
O142 O 0.63879 0.20313 0.80822 0.0
O143 O 0.66376 0.23694 0.84752 0.0
O144 O 0.63434 0.16833 0.88611 0.0
O145 O 0.66934 0.13958 0.85764 0.0
O146 O 0.69648 0.1634 0.95295 0.0
O147 O 0.67023 0.20401 0.93173 0.0
O148 O 0.75231 0.11591 0.88479 0.0
O149 O 0.71081 0.09755 0.90442 0.0
O150 O 0.75064 0.17315 0.86213 0.0
O151 O 0.71066 0.19023 0.8847 0.0
H152 H 0.60727 0.25696 0.76389 0.0
H153 H 0.69709 0.23643 0.76452 0.0
H154 H 0.70633 0.25313 0.68407 0.0
H155 H 0.61651 0.2749 0.68358 0.0
H156 H 0.74923 0.03892 0.93118 0.0
H157 H 0.74908 0.1341 0.98168 0.0
H158 H 0.76521 0.12209 0.05832 0.0
H159 H 0.76542 0.02662 1.00851 0.0
Gd160 Gd 0.04435 0.58854 0.62318 0.0
Gd161 Gd 0.08296 0.54039 0.56503 0.0
C162 C 0.08601 0.54865 0.68164 0.0
C163 C 0.01001 0.62407 0.68244 0.0
C164 C -0.00065 0.62658 0.73381 0.0
C165 C 0.98462 0.65302 0.7553 0.0
C166 C 0.00548 0.60358 0.76233 0.0
C167 C 0.98469 0.63472 0.83442 0.0
C168 C 0.99837 0.60771 0.81239 0.0
C169 C 0.97711 0.65701 0.80541 0.0
C170 C 0.08514 0.61014 0.56058 0.0
C171 C 0.03052 0.5719 0.51458 0.0
C172 C 0.12043 0.50946 0.50546 0.0
C173 C 0.13076 0.51005 0.45459 0.0
C174 C 0.11682 0.52878 0.42624 0.0
C175 C 0.15065 0.48793 0.43241 0.0
C176 C 0.13753 0.49871 0.35378 0.0
C177 C 0.15402 0.48219 0.38195 0.0
C178 C 0.12059 0.52349 0.37594 0.0
C179 C 0.04018 0.51778 0.6194 0.0
O180 O 0.06327 0.56679 0.68361 0.0
O181 O 0.10006 0.53859 0.63909 0.0
O182 O 0.03725 0.62897 0.67358 0.0
O183 O 0.00151 0.60075 0.65532 0.0
O184 O 0.05994 0.62205 0.57263 0.0
O185 O 0.08889 0.5885 0.58579 0.0
O186 O 0.05633 0.55829 0.50729 0.0
O187 O 0.01921 0.58133 0.55894 0.0
O188 O 0.09375 0.50184 0.51266 0.0
O189 O 0.12704 0.53233 0.53549 0.0
O190 O 0.06502 0.50457 0.60911 0.0
O191 O 0.03831 0.54089 0.59702 0.0
H192 H 0.9797 0.67094 0.73355 0.0
H193 H 0.01644 0.58285 0.74605 0.0
H194 H 0.0041 0.59007 0.83409 0.0
H195 H 0.96662 0.67801 0.82171 0.0
H196 H 0.10091 0.5455 0.44279 0.0
H197 H 0.16145 0.47324 0.45399 0.0
H198 H 0.16707 0.46286 0.3653 0.0
H199 H 0.10739 0.53622 0.35495 0.0
Gd200 Gd 0.65261 0.80688 0.87965 0.0
Gd201 Gd 0.70028 0.83783 0.84079 0.0
C202 C 0.68632 0.85086 0.9549 0.0
C203 C 0.61487 0.78269 0.93638 0.0
C204 C 0.61561 0.77428 0.98623 0.0
C205 C 0.59022 0.77136 1.0159 0.0
C206 C 0.64184 0.77031 1.00518 0.0
C207 C 0.61732 0.76085 0.08316 0.0
C208 C 0.64269 0.76376 0.05311 0.0
C209 C 0.59105 0.76455 0.06388 0.0
C210 C 0.63767 0.84109 0.80726 0.0
C211 C 0.67639 0.77976 0.7774 0.0
C212 C 0.73389 0.87124 0.79222 0.0
C213 C 0.73662 0.88071 0.74363 0.0
C214 C 0.75867 0.89978 0.73051 0.0
C215 C 0.71945 0.86809 0.70879 0.0
C216 C 0.75 0.88881 0.64618 0.0
C217 C 0.726 0.8723 0.66016 0.0
C218 C 0.76533 0.90389 0.68186 0.0
C219 C 0.71875 0.79516 0.89547 0.0
O220 O 0.66962 0.82777 0.94849 0.0
O221 O 0.6977 0.86303 0.91658 0.0
O222 O 0.61529 0.81177 0.93226 0.0
O223 O 0.63199 0.7669 0.9028 0.0
O224 O 0.62662 0.81589 0.81778 0.0
O225 O 0.65423 0.84933 0.84016 0.0
O226 O 0.68911 0.80607 0.7759 0.0
O227 O 0.66491 0.7715 0.81878 0.0
O228 O 0.73891 0.84235 0.79431 0.0
O229 O 0.71146 0.88205 0.82045 0.0
O230 O 0.73009 0.82112 0.89119 0.0
O231 O 0.69863 0.79181 0.86803 0.0
H232 H 0.56977 0.77461 1.00212 0.0
H233 H 0.66174 0.77249 0.983 0.0
H234 H 0.66328 0.76078 0.06655 0.0
H235 H 0.57112 0.76284 0.0862 0.0
H236 H 0.7719 0.90979 0.75735 0.0
H237 H 0.70235 0.85326 0.71868 0.0
H238 H 0.71404 0.86023 0.63325 0.0
H239 H 0.78385 0.91682 0.67171 0.0
Gd240 Gd 0.46012 0.40077 0.09956 0.0
Gd241 Gd 0.41895 0.44674 0.07244 0.0
C242 C 0.41707 0.43798 0.18719 0.0
C243 C 0.49507 0.36576 0.1355 0.0
C244 C 0.50549 0.36385 0.183 0.0
C245 C 0.52167 0.33843 0.1912 0.0
C246 C 0.49816 0.38667 0.22107 0.0
C247 C 0.52113 0.35754 0.27625 0.0
C248 C 0.5057 0.3834 0.2675 0.0
C249 C 0.52968 0.33538 0.2376 0.0
C250 C 0.42053 0.37865 0.03973 0.0
C251 C 0.47412 0.42083 0.99426 0.0
C252 C 0.3782 0.47286 1.03591 0.0
C253 C 0.36759 0.47005 0.98839 0.0
C254 C 0.38266 0.45162 0.95009 0.0
C255 C 0.34579 0.48976 0.97921 0.0
C256 C 0.35968 0.47863 0.89309 0.0
C257 C 0.34173 0.49399 0.93144 0.0
C258 C 0.37836 0.45553 0.90243 0.0
C259 C 0.45929 0.47253 0.1226 0.0
O260 O 0.44042 0.42079 0.17471 0.0
O261 O 0.40244 0.44769 0.15299 0.0
O262 O 0.46801 0.3601 0.13321 0.0
O263 O 0.50317 0.38924 0.11345 0.0
O264 O 0.44665 0.3688 1.03725 0.0
O265 O 0.41617 0.39822 0.07629 0.0
O266 O 0.44757 0.43281 1.00002 0.0
O267 O 0.48562 0.41118 1.03149 0.0
O268 O 0.40389 0.48368 1.03655 0.0
O269 O 0.37434 0.44959 0.06068 0.0
O270 O 0.43379 0.48398 0.12318 0.0
O271 O 0.46336 0.44959 0.09145 0.0
H272 H 0.52755 0.32068 0.16202 0.0
H273 H 0.48615 0.40668 0.21509 0.0
H274 H 0.49915 0.4009 0.29678 0.0
H275 H 0.54154 0.31525 0.24371 0.0
H276 H 0.39965 0.43638 0.9568 0.0
H277 H 0.33397 0.50401 1.00866 0.0
H278 H 0.3272 0.51191 0.92469 0.0
H279 H 0.39251 0.44355 0.8734 0.0
Gd280 Gd 0.82838 0.17769 0.49094 0.0
Gd281 Gd 0.78155 0.13714 0.4486 0.0
C282 C 0.77904 0.14598 0.56432 0.0
C283 C 0.85503 0.21203 0.55215 0.0
C284 C 0.84906 0.2261 0.60391 0.0
C285 C 0.87037 0.22567 0.63598 0.0
C286 C 0.82256 0.24021 0.62199 0.0
C287 C 0.83909 0.25329 0.70279 0.0
C288 C 0.8177 0.25365 0.67051 0.0
C289 C 0.86551 0.23895 0.68444 0.0
C290 C 0.8497 0.13488 0.41559 0.0
C291 C 0.81447 0.18724 0.38398 0.0
C292 C 0.7588 0.09609 0.39356 0.0
C293 C 0.76363 0.08785 0.34086 0.0
C294 C 0.76688 0.11072 0.30987 0.0
C295 C 0.76646 0.05742 0.32123 0.0
C296 C 0.7752 0.07316 0.24008 0.0
C297 C 0.77201 0.05008 0.27095 0.0
C298 C 0.77264 0.10351 0.26017 0.0
C299 C 0.76261 0.19482 0.48325 0.0
O300 O 0.79783 0.16726 0.5566 0.0
O301 O 0.77256 0.12685 0.52739 0.0
O302 O 0.8589 0.18241 0.5452 0.0
O303 O 0.84035 0.2226 0.51931 0.0
O304 O 0.86288 0.15867 0.43232 0.0
O305 O 0.82867 0.13155 0.44825 0.0
O306 O 0.79912 0.16228 0.38525 0.0
O307 O 0.82532 0.20067 0.42306 0.0
O308 O 0.74681 0.12282 0.40724 0.0
O309 O 0.78017 0.0902 0.41826 0.0
O310 O 0.74632 0.17134 0.48141 0.0
O311 O 0.78691 0.18491 0.46679 0.0
H312 H 0.89103 0.21509 0.62342 0.0
H313 H 0.80549 0.24083 0.59864 0.0
H314 H 0.79693 0.26394 0.68289 0.0
H315 H 0.88276 0.23834 0.70738 0.0
H316 H 0.76472 0.13429 0.32405 0.0
H317 H 0.76435 0.03945 0.3447 0.0
H318 H 0.77386 0.0265 0.25625 0.0
H319 H 0.77432 0.12183 0.23731 0.0
Gd320 Gd 0.90611 0.5613 0.30502 0.0
Gd321 Gd 0.94912 0.59534 0.24726 0.0
C322 C 0.95982 0.59207 0.35781 0.0
C323 C 0.8793 0.53344 0.37353 0.0
C324 C 0.88452 0.52155 0.42085 0.0
C325 C 0.86138 0.51756 0.45536 0.0
C326 C 0.912 0.51349 0.43204 0.0
C327 C 0.89282 0.49704 0.51066 0.0
C328 C 0.91607 0.50145 0.47608 0.0
C329 C 0.86541 0.5056 0.49938 0.0
C330 C 0.88266 0.60511 0.25482 0.0
C331 C 0.90843 0.54478 0.19329 0.0
C332 C 0.9741 0.63019 0.18851 0.0
C333 C 0.96988 0.63998 0.14109 0.0
C334 C 0.98941 0.6594 0.12028 0.0
C335 C 0.94895 0.62684 0.11374 0.0
C336 C 0.96938 0.64942 0.04312 0.0
C337 C 0.94849 0.63175 0.06513 0.0
C338 C 0.98921 0.66408 0.0715 0.0
C339 C 0.9714 0.54112 0.2622 0.0
O340 O 0.93921 0.57255 0.35718 0.0
O341 O 0.96569 0.60803 0.3207 0.0
O342 O 0.87821 0.56292 0.3727 0.0
O343 O 0.89239 0.51946 0.33338 0.0
O344 O 0.87013 0.58094 0.26744 0.0
O345 O 0.90522 0.60732 0.27746 0.0
O346 O 0.92451 0.56907 0.19031 0.0
O347 O 0.9017 0.5336 0.23503 0.0
O348 O 0.98041 0.60139 0.18769 0.0
O349 O 0.95562 0.64035 0.22503 0.0
O350 O 0.98463 0.56646 0.26688 0.0
O351 O 0.94562 0.5469 0.25648 0.0
H352 H 0.83992 0.52344 0.44804 0.0
H353 H 0.93039 0.5164 0.40662 0.0
H354 H 0.93762 0.49582 0.48312 0.0
H355 H 0.84679 0.50245 0.52414 0.0
H356 H 0.00581 0.66957 0.14092 0.0
H357 H 0.93397 0.61154 0.12929 0.0
H358 H 0.93313 0.61999 0.04397 0.0
H359 H 0.00543 0.67793 0.05531 0.0
Gd360 Gd 0.19474 0.15179 1.03357 0.0
Gd361 Gd 0.15831 0.19623 0.98791 0.0
C362 C 0.15982 0.20681 0.10002 0.0
C363 C 0.22603 0.12544 0.09074 0.0
C364 C 0.23852 0.12966 0.13886 0.0
C365 C 0.22138 0.13219 0.18363 0.0
C366 C 0.26833 0.12848 0.14025 0.0
C367 C 0.26359 0.13184 0.22953 0.0
C368 C 0.28063 0.12964 0.18462 0.0
C369 C 0.23369 0.13326 0.22811 0.0
C370 C 0.14601 0.12972 0.99773 0.0
C371 C 0.20229 0.14621 0.92027 0.0
C372 C 0.12534 0.22222 0.93387 0.0
C373 C 0.1243 0.22631 0.88185 0.0
C374 C 0.12426 0.25575 0.8678 0.0
C375 C 0.1231 0.20164 0.84607 0.0
C376 C 0.12208 0.23601 0.7832 0.0
C377 C 0.12186 0.20646 0.79728 0.0
C378 C 0.12329 0.26055 0.81912 0.0
C379 C 0.21051 0.21774 1.00197 0.0
O380 O 0.18289 0.18933 0.09202 0.0
O381 O 0.14279 0.21021 0.06587 0.0
O382 O 0.1984 0.12245 0.09074 0.0
O383 O 0.23667 0.14067 0.05562 0.0
O384 O 0.16957 0.11411 0.99783 0.0
O385 O 0.14873 0.15519 1.02173 0.0
O386 O 0.18008 0.16552 0.92396 0.0
O387 O 0.21481 0.13953 0.95842 0.0
O388 O 0.14558 0.23607 0.95545 0.0
O389 O 0.12109 0.19525 0.94741 0.0
O390 O 0.18671 0.23301 1.01347 0.0
O391 O 0.20489 0.19044 0.98958 0.0
H392 H 0.19835 0.13302 0.18441 0.0
H393 H 0.28227 0.12605 0.1067 0.0
H394 H 0.30364 0.12807 0.18349 0.0
H395 H 0.21964 0.13543 0.26151 0.0
H396 H 0.12497 0.27516 0.89464 0.0
H397 H 0.12323 0.17865 0.85567 0.0
H398 H 0.12118 0.18706 0.77046 0.0
H399 H 0.12311 0.28359 0.80969 0.0
Gd400 Gd 0.59807 0.44187 0.75064 0.0
Gd401 Gd 0.55773 0.40569 0.69326 0.0
C402 C 0.54646 0.40648 0.80826 0.0
C403 C 0.62139 0.47057 0.82358 0.0
C404 C 0.61403 0.48252 0.87692 0.0
C405 C 0.61928 0.46503 0.91493 0.0
C406 C 0.60364 0.51249 0.8908 0.0
C407 C 0.60391 0.507 0.97848 0.0
C408 C 0.59864 0.52439 0.94024 0.0
C409 C 0.61429 0.47694 0.96446 0.0
C410 C 0.62472 0.40175 0.67426 0.0
C411 C 0.59445 0.46082 0.64758 0.0
C412 C 0.53495 0.37042 0.62866 0.0
C413 C 0.53978 0.36072 0.57656 0.0
C414 C 0.52336 0.33764 0.55632 0.0
C415 C 0.55785 0.37684 0.54608 0.0
C416 C 0.54046 0.34929 0.47536 0.0
C417 C 0.55845 0.37094 0.49573 0.0
C418 C 0.52361 0.332 0.50599 0.0
C419 C 0.53129 0.45714 0.73644 0.0
O420 O 0.56567 0.42752 0.80854 0.0
O421 O 0.54184 0.3906 0.76691 0.0
O422 O 0.62402 0.44115 0.81173 0.0
O423 O 0.6097 0.4842 0.79039 0.0
O424 O 0.6353 0.42654 0.69339 0.0
O425 O 0.60264 0.39687 0.70328 0.0
O426 O 0.58036 0.43526 0.63978 0.0
O427 O 0.60001 0.47183 0.69159 0.0
O428 O 0.52774 0.39901 0.63976 0.0
O429 O 0.55324 0.36064 0.65648 0.0
O430 O 0.52031 0.43057 0.73544 0.0
O431 O 0.55741 0.45404 0.72068 0.0
H432 H 0.62757 0.44201 0.90645 0.0
H433 H 0.59972 0.52712 0.86324 0.0
H434 H 0.59118 0.54771 0.94825 0.0
H435 H 0.61843 0.46227 0.99183 0.0
H436 H 0.50917 0.32511 0.57941 0.0
H437 H 0.5704 0.39494 0.56125 0.0
H438 H 0.57143 0.38475 0.47291 0.0
H439 H 0.50963 0.31513 0.49102 0.0
Gd440 Gd 0.28449 0.85644 0.49397 0.0
Gd441 Gd 0.32495 0.80713 0.51967 0.0
C442 C 0.31725 0.80843 0.40447 0.0
C443 C 0.2617 0.90384 0.46471 0.0
C444 C 0.25249 0.91139 0.41864 0.0
C445 C 0.25028 0.94171 0.40934 0.0
C446 C 0.24589 0.88827 0.38363 0.0
C447 C 0.23473 0.9257 0.33018 0.0
C448 C 0.23695 0.89538 0.33987 0.0
C449 C 0.24157 0.94886 0.36514 0.0
C450 C 0.26131 0.80076 0.49805 0.0
C451 C 0.28015 0.84393 0.6062 0.0
C452 C 0.35014 0.76403 0.55539 0.0
C453 C 0.34424 0.74947 0.59991 0.0
C454 C 0.36697 0.74045 0.62457 0.0
C455 C 0.31609 0.74743 0.6207 0.0
C456 C 0.33353 0.72821 0.69116 0.0
C457 C 0.31077 0.73672 0.66591 0.0
C458 C 0.36167 0.72992 0.67001 0.0
C459 C 0.35259 0.85412 0.4859 0.0
O460 O 0.30148 0.83395 0.41725 0.0
O461 O 0.3266 0.7925 0.43825 0.0
O462 O 0.247 0.88318 0.48524 0.0
O463 O 0.28915 0.90011 0.466 0.0
O464 O 0.24669 0.82607 0.50825 0.0
O465 O 0.28618 0.80736 0.48501 0.0
O466 O 0.29479 0.81852 0.58976 0.0
O467 O 0.27762 0.86531 0.57689 0.0
O468 O 0.35733 0.79238 0.56251 0.0
O469 O 0.33201 0.75919 0.52263 0.0
O470 O 0.36305 0.82695 0.48389 0.0
O471 O 0.32895 0.85661 0.51316 0.0
H472 H 0.25543 0.95977 0.43609 0.0
H473 H 0.2478 0.86471 0.39005 0.0
H474 H 0.23249 0.87706 0.31302 0.0
H475 H 0.24019 0.97236 0.35826 0.0
H476 H 0.38882 0.74226 0.60919 0.0
H477 H 0.29825 0.75481 0.60258 0.0
H478 H 0.28891 0.73591 0.68174 0.0
H479 H 0.37952 0.72322 0.68868 0.0
Gd480 Gd 0.91306 0.45308 0.81042 0.0
Gd481 Gd 0.95414 0.40586 0.75296 0.0
C482 C 0.96719 0.42454 0.8618 0.0
C483 C 0.87204 0.47888 0.86896 0.0
C484 C 0.8635 0.4794 0.92066 0.0
C485 C 0.84648 0.50367 0.9441 0.0
C486 C 0.87721 0.45978 0.94791 0.0
C487 C 0.86279 0.49316 1.02069 0.0
C488 C 0.87668 0.46651 0.99797 0.0
C489 C 0.84606 0.51053 0.99413 0.0
C490 C 0.95571 0.47736 0.75875 0.0
C491 C 0.91254 0.44537 0.69322 0.0
C492 C 0.98903 0.37054 0.69441 0.0
C493 C -0.00054 0.36804 0.64287 0.0
C494 C 0.01367 0.34141 0.62086 0.0
C495 C 0.9936 0.39133 0.61471 0.0
C496 C 0.01368 0.36023 0.54205 0.0
C497 C 0.00049 0.38738 0.56458 0.0
C498 C 0.02096 0.33759 0.57066 0.0
C499 C 0.91221 0.38488 0.81496 0.0
O500 O 0.94123 0.43804 0.86864 0.0
O501 O 0.97857 0.41428 0.81777 0.0
O502 O 0.89645 0.49162 0.85888 0.0
O503 O 0.86932 0.45315 0.84245 0.0
O504 O 0.93061 0.49022 0.76898 0.0
O505 O 0.95787 0.45382 0.78018 0.0
O506 O 0.93567 0.42782 0.69211 0.0
O507 O 0.89749 0.45478 0.7352 0.0
O508 O 0.96194 0.365 0.70367 0.0
O509 O 0.99716 0.39423 0.72118 0.0
O510 O 0.93784 0.37345 0.80594 0.0
O511 O 0.9096 0.40529 0.78726 0.0
H512 H 0.83582 0.51898 0.92333 0.0
H513 H 0.89064 0.44112 0.93007 0.0
H514 H 0.88986 0.45292 1.01774 0.0
H515 H 0.83509 0.5311 1.01125 0.0
H516 H 0.01837 0.32327 0.64228 0.0
H517 H 0.98305 0.4122 0.63135 0.0
H518 H 0.99499 0.40529 0.54324 0.0
H519 H 0.03109 0.31648 0.55398 0.0
Gd520 Gd 0.29864 0.15656 0.53198 0.0
Gd521 Gd 0.34617 0.18769 0.49302 0.0
C522 C 0.32236 0.21472 0.59542 0.0
C523 C 0.26521 0.12298 0.58057 0.0
C524 C 0.2624 0.11364 0.62924 0.0
C525 C 0.24018 0.09479 0.64248 0.0
C526 C 0.27955 0.1263 0.66407 0.0
C527 C 0.24869 0.1061 0.72681 0.0
C528 C 0.27283 0.12237 0.71277 0.0
C529 C 0.23334 0.09098 0.6912 0.0
C530 C 0.27986 0.19926 0.47768 0.0
C531 C 0.31234 0.1438 0.41776 0.0
C532 C 0.38386 0.21199 0.43634 0.0
C533 C 0.38311 0.22045 0.38653 0.0
C534 C 0.40849 0.2235 0.3569 0.0
C535 C 0.35687 0.22438 0.36758 0.0
C536 C 0.38136 0.23401 0.28968 0.0
C537 C 0.356 0.23098 0.31969 0.0
C538 C 0.40764 0.23037 0.30897 0.0
C539 C 0.36122 0.15356 0.5653 0.0
O540 O 0.30969 0.18838 0.59689 0.0
O541 O 0.33384 0.223 0.55405 0.0
O542 O 0.26001 0.15181 0.57831 0.0
O543 O 0.28777 0.1123 0.55254 0.0
O544 O 0.2686 0.17325 0.48197 0.0
O545 O 0.30011 0.20264 0.50483 0.0
O546 O 0.32903 0.16691 0.42418 0.0
O547 O 0.30108 0.13152 0.45606 0.0
O548 O 0.38349 0.1829 0.44038 0.0
O549 O 0.36672 0.22773 0.46994 0.0
O550 O 0.37218 0.17879 0.55485 0.0
O551 O 0.34472 0.14521 0.53233 0.0
H552 H 0.22693 0.08478 0.61565 0.0
H553 H 0.29674 0.141 0.6541 0.0
H554 H 0.2848 0.13448 0.73965 0.0
H555 H 0.2147 0.07826 0.70142 0.0
H556 H 0.42894 0.22029 0.37069 0.0
H557 H 0.33697 0.22211 0.38974 0.0
H558 H 0.33541 0.23391 0.30624 0.0
H559 H 0.42756 0.23219 0.28667 0.0
Gd560 Gd 0.57869 0.54793 0.30193 0.0
Gd561 Gd 0.53749 0.59381 0.2745 0.0
C562 C 0.52351 0.57406 0.38004 0.0
C563 C 0.61951 0.52197 0.33858 0.0
C564 C 0.63022 0.52488 0.38603 0.0
C565 C 0.6152 0.54332 0.42435 0.0
C566 C 0.65209 0.50523 0.39514 0.0
C567 C 0.63834 0.5164 0.4813 0.0
C568 C 0.65626 0.50106 0.44289 0.0
C569 C 0.61959 0.53946 0.47199 0.0
C570 C 0.53835 0.52193 0.25213 0.0
C571 C 0.58045 0.55631 0.18701 0.0
C572 C 0.50256 0.62873 0.23834 0.0
C573 C 0.4919 0.63038 0.19094 0.0
C574 C 0.47599 0.65591 0.18243 0.0
C575 C 0.4987 0.60717 0.15327 0.0
C576 C 0.47576 0.63613 0.09779 0.0
C577 C 0.49091 0.61014 0.10689 0.0
C578 C 0.46775 0.65868 0.1361 0.0
C579 C 0.57729 0.61599 0.33401 0.0
O580 O 0.55006 0.56208 0.37434 0.0
O581 O 0.51201 0.58361 0.34272 0.0
O582 O 0.59381 0.51115 0.33812 0.0
O583 O 0.62332 0.54517 0.31363 0.0
O584 O 0.56384 0.51047 0.25168 0.0
O585 O 0.53427 0.54505 0.28293 0.0
O586 O 0.55703 0.57342 0.19944 0.0
O587 O 0.59517 0.54682 0.22128 0.0
O588 O 0.52969 0.63424 0.24014 0.0
O589 O 0.49443 0.60548 0.26096 0.0
O590 O 0.55117 0.62587 0.33664 0.0
O591 O 0.58148 0.5964 0.29749 0.0
H592 H 0.59816 0.55853 0.41769 0.0
H593 H 0.66388 0.49097 0.36567 0.0
H594 H 0.67085 0.48318 0.4496 0.0
H595 H 0.60547 0.55144 0.50106 0.0
H596 H 0.47053 0.67397 0.21129 0.0
H597 H 0.51049 0.58707 0.15953 0.0
H598 H 0.49706 0.59234 0.0779 0.0
H599 H 0.45614 0.67893 0.12974 0.0
Gd600 Gd 0.21475 0.86029 0.9203 0.0
Gd601 Gd 0.16704 0.82208 0.87773 0.0
C602 C 0.18042 0.81083 0.98392 0.0
C603 C 0.2389 0.90007 0.97572 0.0
C604 C 0.23422 0.90893 1.02825 0.0
C605 C 0.22814 0.88678 0.05978 0.0
C606 C 0.23491 0.93939 0.04724 0.0
C607 C 0.2245 0.92503 0.129 0.0
C608 C 0.23022 0.94742 0.09745 0.0
C609 C 0.22334 0.89468 0.10949 0.0
C610 C 0.23261 0.80248 0.88487 0.0
C611 C 0.21745 0.85222 0.80475 0.0
C612 C 0.13857 0.7899 0.81646 0.0
C613 C 0.14353 0.77587 0.76455 0.0
C614 C 0.12251 0.77883 0.73253 0.0
C615 C 0.16872 0.75918 0.74636 0.0
C616 C 0.15144 0.74846 0.66563 0.0
C617 C 0.17255 0.74565 0.69784 0.0
C618 C 0.12638 0.76545 0.68401 0.0
C619 C 0.14688 0.86485 0.95418 0.0
O620 O 0.19644 0.83528 0.98301 0.0
O621 O 0.16919 0.79811 0.94477 0.0
O622 O 0.24951 0.87266 0.96283 0.0
O623 O 0.21805 0.90702 0.95059 0.0
O624 O 0.24911 0.82578 0.88591 0.0
O625 O 0.20834 0.81248 0.90167 0.0
O626 O 0.1982 0.83138 0.81223 0.0
O627 O 0.22418 0.87103 0.84185 0.0
O628 O 0.13629 0.81965 0.82378 0.0
O629 O 0.15281 0.77821 0.84882 0.0
O630 O 0.13319 0.84151 0.93724 0.0
O631 O 0.16786 0.86781 0.92129 0.0
H632 H 0.22747 0.8632 0.04608 0.0
H633 H 0.23925 0.95685 1.02333 0.0
H634 H 0.2312 0.97098 0.11162 0.0
H635 H 0.21961 0.87678 0.13276 0.0
H636 H 0.10284 0.79143 0.74517 0.0
H637 H 0.18555 0.75655 0.76964 0.0
H638 H 0.19236 0.7333 0.68542 0.0
H639 H 0.10938 0.76804 0.6611 0.0
Gd640 Gd 0.55039 0.90014 0.62699 0.0
Gd641 Gd 0.59346 0.93396 0.56896 0.0
C642 C 0.59133 0.95059 0.6806 0.0
C643 C 0.52527 0.86556 0.68609 0.0
C644 C 0.52935 0.85581 0.73361 0.0
C645 C 0.50961 0.83661 0.75448 0.0
C646 C 0.55033 0.86879 0.76099 0.0
C647 C 0.52969 0.84635 0.83165 0.0
C648 C 0.55072 0.86386 0.80963 0.0
C649 C 0.50973 0.83193 0.80328 0.0
C650 C 0.52817 0.95424 0.61212 0.0
C651 C 0.53942 0.90373 0.51666 0.0
C652 C 0.62018 0.96159 0.50008 0.0
C653 C 0.61468 0.97356 0.45293 0.0
C654 C 0.63764 0.97763 0.41813 0.0
C655 C 0.5871 0.98157 0.44216 0.0
C656 C 0.60582 -0.00191 0.36334 0.0
C657 C 0.58275 0.99363 0.39823 0.0
C658 C 0.63334 0.98961 0.37423 0.0
C659 C 0.61668 0.88992 0.61909 0.0
O660 O 0.57515 0.92639 0.68369 0.0
O661 O 0.5981 0.9617 0.63882 0.0
O662 O 0.51914 0.89439 0.68676 0.0
O663 O 0.54369 0.85522 0.64959 0.0
O664 O 0.51494 0.92892 0.6074 0.0
O665 O 0.55403 0.94859 0.61754 0.0
O666 O 0.56014 0.9231 0.51717 0.0
O667 O 0.53356 0.88771 0.5537 0.0
O668 O 0.62103 0.93209 0.50089 0.0
O669 O 0.60747 0.97567 0.54046 0.0
O670 O 0.62935 0.91403 0.60652 0.0
O671 O 0.59416 0.88792 0.59639 0.0
H672 H 0.49314 0.82659 0.73384 0.0
H673 H 0.56546 0.88394 0.74542 0.0
H674 H 0.56619 0.87544 0.83077 0.0
H675 H 0.49339 0.81822 0.81947 0.0
H676 H 0.65917 0.97179 0.42512 0.0
H677 H 0.56883 0.97861 0.46782 0.0
H678 H 0.56113 -0.00079 0.39151 0.0
H679 H 0.65183 0.99281 0.34924 0.0
Gd680 Gd 0.34056 0.29801 0.88404 0.0
Gd681 Gd 0.3038 0.34198 0.83815 0.0
C682 C 0.29645 0.34794 0.9515 0.0
C683 C 0.37378 0.27248 0.93828 0.0
C684 C 0.37468 0.2682 0.9903 0.0
C685 C 0.3744 0.23871 1.00417 0.0
C686 C 0.37615 0.29274 1.02622 0.0
C687 C 0.37682 0.25815 0.08886 0.0
C688 C 0.37734 0.28774 0.07497 0.0
C689 C 0.37533 0.23374 0.0528 0.0
C690 C 0.28852 0.27601 0.87076 0.0
C691 C 0.3388 0.28693 0.77198 0.0
C692 C 0.27238 0.36814 0.78098 0.0
C693 C 0.25987 0.36392 0.7329 0.0
C694 C 0.27701 0.36126 0.68812 0.0
C695 C 0.23007 0.36525 0.73156 0.0
C696 C 0.2348 0.36183 0.64229 0.0
C697 C 0.21776 0.36414 0.68721 0.0
C698 C 0.2647 0.36024 0.64366 0.0
C699 C 0.35248 0.36452 0.87364 0.0
O700 O 0.31871 0.32874 0.94786 0.0
O701 O 0.28381 0.35442 0.91333 0.0
O702 O 0.35395 0.25826 0.91612 0.0
O703 O 0.37754 0.29962 0.92518 0.0
O704 O 0.31239 0.26088 0.85935 0.0
O705 O 0.29387 0.30347 0.88259 0.0
O706 O 0.31562 0.30425 0.78 0.0
O707 O 0.35598 0.28388 0.80603 0.0
O708 O 0.30001 0.37121 0.7809 0.0
O709 O 0.26181 0.35288 0.81612 0.0
O710 O 0.32882 0.37994 0.87347 0.0
O711 O 0.34984 0.33898 0.84979 0.0
H712 H 0.3735 0.21938 0.97724 0.0
H713 H 0.3763 0.31577 1.01679 0.0
H714 H 0.37825 0.30706 0.10189 0.0
H715 H 0.37528 0.21066 0.06207 0.0
H716 H 0.30004 0.36031 0.68732 0.0
H717 H 0.21614 0.36777 0.76512 0.0
H718 H 0.19475 0.36583 0.68835 0.0
H719 H 0.27873 0.35797 0.61025 0.0
Gd720 Gd 0.93949 0.09043 0.17951 0.0
Gd721 Gd 0.89942 0.05422 0.12151 0.0
C722 C 0.90305 0.03455 0.22403 0.0
C723 C 0.95985 0.12481 0.24768 0.0
C724 C 0.95204 0.13212 0.30017 0.0
C725 C 0.94359 0.10927 0.32936 0.0
C726 C 0.95506 0.16159 0.322 0.0
C727 C 0.94561 0.14424 0.40208 0.0
C728 C 0.95179 0.16765 0.3726 0.0
C729 C 0.94038 0.11526 0.3798 0.0
C730 C 0.96642 0.03954 0.13636 0.0
C731 C 0.95117 0.09004 0.06459 0.0
C732 C 0.87564 0.02581 0.04874 0.0
C733 C 0.88238 0.0147 0.99522 0.0
C734 C 0.86014 0.01016 0.96494 0.0
C735 C 0.91037 0.00743 0.97386 0.0
C736 C 0.89348 0.99068 0.8938 0.0
C737 C 0.9158 0.99569 0.92428 0.0
C738 C 0.86552 -0.00155 0.91546 0.0
C739 C 0.87276 0.09392 0.19865 0.0
O740 O 0.91718 0.06005 0.23199 0.0
O741 O 0.8973 0.02381 0.18001 0.0
O742 O 0.9689 0.09698 0.234 0.0
O743 O 0.9428 0.13518 0.21834 0.0
O744 O 0.97726 0.06622 0.13784 0.0
O745 O 0.94013 0.04219 0.15139 0.0
O746 O 0.93178 0.06917 0.06402 0.0
O747 O 0.95585 0.10574 0.10615 0.0
O748 O 0.87272 0.05512 0.0613 0.0
O749 O 0.88863 0.01213 0.08041 0.0
O750 O 0.86232 0.06906 0.17947 0.0
O751 O 0.89463 0.09896 0.16931 0.0
H752 H 0.94091 0.08636 0.31338 0.0
H753 H 0.96117 0.17961 0.30006 0.0
H754 H 0.95538 0.19035 0.38867 0.0
H755 H 0.93578 0.09662 0.40119 0.0
H756 H 0.83829 0.01532 0.97981 0.0
H757 H 0.92816 0.01067 0.9956 0.0
H758 H 0.93773 0.99078 0.90983 0.0
H759 H 0.84745 0.99488 0.89451 0.0
Gd760 Gd 0.16472 0.69464 0.34483 0.0
Gd761 Gd 0.20547 0.64622 0.37667 0.0
C762 C 0.21279 0.6577 0.26259 0.0
C763 C 0.14069 0.73904 0.31055 0.0
C764 C 0.14738 0.75332 0.26625 0.0
C765 C 0.12554 0.76686 0.24459 0.0
C766 C 0.1749 0.74978 0.24207 0.0
C767 C 0.15842 0.77177 0.17333 0.0
C768 C 0.18036 0.75881 0.19586 0.0
C769 C 0.13105 0.7762 0.19836 0.0
C770 C 0.13673 0.64767 0.37922 0.0
C771 C 0.16928 0.69383 0.4616 0.0
C772 C 0.22599 0.59987 0.41192 0.0
C773 C 0.22209 0.58822 0.45928 0.0
C774 C 0.24342 0.57003 0.47424 0.0
C775 C 0.19835 0.59781 0.49168 0.0
C776 C 0.21817 0.5732 0.55526 0.0
C777 C 0.19597 0.5897 0.53875 0.0
C778 C 0.2416 0.56271 0.52207 0.0
C779 C 0.22763 0.70191 0.37024 0.0
O780 O 0.19534 0.68165 0.27573 0.0
O781 O 0.21724 0.63795 0.29413 0.0
O782 O 0.13269 0.71101 0.3029 0.0
O783 O 0.15908 0.74288 0.343 0.0
O784 O 0.12483 0.67267 0.3705 0.0
O785 O 0.16162 0.64614 0.35623 0.0
O786 O 0.18422 0.66773 0.45071 0.0
O787 O 0.16137 0.70967 0.42658 0.0
O788 O 0.23869 0.62579 0.41199 0.0
O789 O 0.20385 0.5986 0.38672 0.0
O790 O 0.24268 0.67674 0.36061 0.0
O791 O 0.20263 0.69513 0.38259 0.0
H792 H 0.10411 0.76939 0.2628 0.0
H793 H 0.19195 0.73911 0.25822 0.0
H794 H 0.20157 0.75478 0.17725 0.0
H795 H 0.11389 0.7866 0.18207 0.0
H796 H 0.26211 0.56279 0.44972 0.0
H797 H 0.18232 0.61279 0.48133 0.0
H798 H 0.17731 0.59766 0.56281 0.0
H799 H 0.25931 0.55034 0.53356 0.0
Gd800 Gd 0.54377 0.08906 0.12092 0.0
Gd801 Gd 0.58464 0.04163 0.06371 0.0
C802 C 0.5853 0.04954 0.18087 0.0
C803 C 0.50902 0.12461 0.17934 0.0
C804 C 0.49867 0.12719 0.23091 0.0
C805 C 0.48446 0.15384 0.25286 0.0
C806 C 0.50458 0.10396 0.25913 0.0
C807 C 0.48457 0.13513 0.33173 0.0
C808 C 0.49776 0.10798 0.30927 0.0
C809 C 0.47723 0.15772 0.30307 0.0
C810 C 0.58581 0.10979 0.05891 0.0
C811 C 0.53067 0.07032 1.01215 0.0
C812 C 0.62566 0.01562 1.00546 0.0
C813 C 0.63457 0.01529 0.95391 0.0
C814 C 0.62104 0.03496 0.92653 0.0
C815 C 0.65199 0.99128 0.93065 0.0
C816 C 0.63645 0.00208 0.85365 0.0
C817 C 0.65301 0.98471 0.88049 0.0
C818 C 0.62216 0.02851 0.87635 0.0
C819 C 0.54189 0.01768 0.11581 0.0
O820 O 0.56223 0.06718 0.18196 0.0
O821 O 0.60026 0.03999 0.13887 0.0
O822 O 0.53612 0.13004 0.16996 0.0
O823 O 0.5008 0.10091 0.15271 0.0
O824 O 0.56016 0.12121 0.06756 0.0
O825 O 0.58837 0.08941 0.08668 0.0
O826 O 0.5566 0.05678 1.00538 0.0
O827 O 0.51929 0.08062 0.05616 0.0
O828 O 0.60106 0.00311 1.01499 0.0
O829 O 0.62849 0.04121 1.03227 0.0
O830 O 0.56694 0.0047 0.10555 0.0
O831 O 0.53986 0.04108 0.09404 0.0
H832 H 0.47971 0.17194 0.23139 0.0
H833 H 0.51512 0.08307 0.24253 0.0
H834 H 0.5033 0.09011 0.33066 0.0
H835 H 0.4671 0.17884 0.31971 0.0
H836 H 0.60733 0.05343 0.94424 0.0
H837 H 0.66253 0.97596 0.95154 0.0
H838 H 0.66426 0.9643 0.8634 0.0
H839 H 0.6091 0.04208 0.85636 0.0
Gd840 Gd 0.15251 0.30576 0.37891 0.0
Gd841 Gd 0.20012 0.33694 0.33998 0.0
C842 C 0.18613 0.34992 0.45411 0.0
C843 C 0.11488 0.28134 0.4355 0.0
C844 C 0.11565 0.27296 0.48534 0.0
C845 C 0.09028 0.26989 0.51499 0.0
C846 C 0.14191 0.26915 0.50428 0.0
C847 C 0.11746 0.25957 0.58222 0.0
C848 C 0.14281 0.26263 0.5522 0.0
C849 C 0.09116 0.26309 0.56295 0.0
C850 C 0.13741 0.3398 0.30653 0.0
C851 C 0.17641 0.27879 0.2766 0.0
C852 C 0.23369 0.37034 0.2913 0.0
C853 C 0.23653 0.37961 0.24258 0.0
C854 C 0.25848 0.39881 0.22948 0.0
C855 C 0.21959 0.36667 0.20763 0.0
C856 C 0.25008 0.3875 0.14508 0.0
C857 C 0.22621 0.37078 0.15899 0.0
C858 C 0.26525 0.40279 0.18079 0.0
C859 C 0.21867 0.29432 0.39461 0.0
O860 O 0.16948 0.32677 0.44773 0.0
O861 O 0.19745 0.36214 0.41578 0.0
O862 O 0.11511 0.31043 0.43139 0.0
O863 O 0.13211 0.26565 0.40198 0.0
O864 O 0.12639 0.31463 0.3172 0.0
O865 O 0.15401 0.34816 0.33934 0.0
O866 O 0.18904 0.30514 0.27511 0.0
O867 O 0.16497 0.27047 0.31796 0.0
O868 O 0.23882 0.34151 0.29371 0.0
O869 O 0.21115 0.38113 0.31929 0.0
O870 O 0.22995 0.32032 0.39039 0.0
O871 O 0.19857 0.29092 0.36714 0.0
H872 H 0.06981 0.27304 0.50121 0.0
H873 H 0.16179 0.27145 0.48211 0.0
H874 H 0.16341 0.2598 0.56567 0.0
H875 H 0.07126 0.26124 0.58527 0.0
H876 H 0.27156 0.40903 0.25638 0.0
H877 H 0.20262 0.35168 0.21748 0.0
H878 H 0.21441 0.35852 0.13203 0.0
H879 H 0.28368 0.41584 0.17067 0.0
Gd880 Gd 0.96081 0.90255 0.59862 0.0
Gd881 Gd 0.91919 0.94801 0.57081 0.0
C882 C 0.91781 0.94005 0.68595 0.0
C883 C 0.99571 0.86767 0.63487 0.0
C884 C 0.00566 0.86389 0.68241 0.0
C885 C 0.9869 0.86852 0.72496 0.0
C886 C 0.03414 0.85506 0.68528 0.0
C887 C 0.02479 0.85454 0.77264 0.0
C888 C 0.0437 0.85052 0.73012 0.0
C889 C 0.99637 0.86382 0.76961 0.0
C890 C 0.92104 0.87991 0.53954 0.0
C891 C 0.97443 0.9219 0.49268 0.0
C892 C 0.87829 0.97366 0.53384 0.0
C893 C 0.86769 0.97067 0.48627 0.0
C894 C 0.84587 0.99032 0.47696 0.0
C895 C 0.88279 0.95221 0.44805 0.0
C896 C 0.85975 0.97904 0.39084 0.0
C897 C 0.8785 0.95603 0.40033 0.0
C898 C 0.84179 0.99443 0.42915 0.0
C899 C 0.9596 0.97436 0.61997 0.0
O900 O 0.94132 0.92305 0.67366 0.0
O901 O 0.90293 0.94921 0.6516 0.0
O902 O 0.96906 0.86119 0.62979 0.0
O903 O 0.00372 0.8921 0.61532 0.0
O904 O 0.94727 0.87033 0.53669 0.0
O905 O 0.91674 0.89963 0.5759 0.0
O906 O 0.94781 0.93373 0.49843 0.0
O907 O 0.98609 0.91257 0.53002 0.0
O908 O 0.9039 0.98466 0.53449 0.0
O909 O 0.87458 0.95045 0.55879 0.0
O910 O 0.93403 0.98566 0.62076 0.0
O911 O 0.96364 0.95123 0.5892 0.0
H912 H 0.96489 0.87559 0.7237 0.0
H913 H 0.04892 0.85145 0.65277 0.0
H914 H 0.0657 0.84339 0.73144 0.0
H915 H 0.98146 0.86772 0.80193 0.0
H916 H 0.83403 0.0046 0.50634 0.0
H917 H 0.89978 0.93699 0.45485 0.0
H918 H 0.89266 0.94402 0.37135 0.0
H919 H 0.82721 0.01228 0.42231 0.0
Gd920 Gd 0.32479 0.67992 0.98866 0.0
Gd921 Gd 0.27744 0.64024 0.94881 0.0
C922 C 0.27619 0.64958 0.06423 0.0
C923 C 0.35201 0.71471 0.04846 0.0
C924 C 0.34623 0.72899 0.10014 0.0
C925 C 0.36782 0.72911 0.13175 0.0
C926 C 0.31954 0.74246 0.11876 0.0
C927 C 0.3364 0.75586 0.19925 0.0
C928 C 0.31475 0.75574 0.16739 0.0
C929 C 0.36303 0.74224 0.18032 0.0
C930 C 0.34608 0.63638 0.91491 0.0
C931 C 0.31088 0.68699 0.88001 0.0
C932 C 0.24804 0.59972 0.90344 0.0
C933 C 0.24203 0.58724 0.85459 0.0
C934 C 0.21383 0.58888 0.84265 0.0
C935 C 0.26362 0.57522 0.81919 0.0
C936 C 0.22953 0.57105 0.75892 0.0
C937 C 0.25742 0.56719 0.77154 0.0
C938 C 0.20762 0.58091 0.79519 0.0
C939 C 0.26001 0.69898 0.98178 0.0
O940 O 0.29442 0.67115 0.05551 0.0
O941 O 0.27015 0.62991 1.02783 0.0
O942 O 0.35582 0.68509 0.04199 0.0
O943 O 0.33716 0.72501 1.01562 0.0
O944 O 0.35926 0.66028 0.93112 0.0
O945 O 0.32479 0.63319 0.94738 0.0
O946 O 0.29517 0.66236 0.88264 0.0
O947 O 0.32162 0.70114 0.9188 0.0
O948 O 0.23913 0.62765 0.91625 0.0
O949 O 0.27295 0.59372 0.91813 0.0
O950 O 0.24352 0.67582 0.98275 0.0
O951 O 0.28377 0.68836 0.96404 0.0
H952 H 0.38862 0.71902 0.1188 0.0
H953 H 0.30225 0.74261 0.09578 0.0
H954 H 0.29382 0.76548 0.18021 0.0
H955 H 0.38049 0.74203 0.2029 0.0
H956 H 0.19675 0.59756 0.86968 0.0
H957 H 0.28533 0.57301 0.82774 0.0
H958 H 0.27469 0.55972 0.74409 0.0
H959 H 0.1859 0.58374 0.78632 0.0
Gd960 Gd 0.40602 0.0609 0.80318 0.0
Gd961 Gd 0.44904 0.09493 0.74524 0.0
C962 C 0.46 0.09127 0.85562 0.0
C963 C 0.37939 0.03305 0.87182 0.0
C964 C 0.38491 0.02113 0.91898 0.0
C965 C 0.36194 0.01689 0.95367 0.0
C966 C 0.41253 0.01338 0.92987 0.0
C967 C 0.39384 0.99676 1.00862 0.0
C968 C 0.41691 0.00139 0.97383 0.0
C969 C 0.36628 0.00499 0.9976 0.0
C970 C 0.38261 0.10489 0.75335 0.0
C971 C 0.40812 0.04451 0.69146 0.0
C972 C 0.47414 0.12957 0.68622 0.0
C973 C 0.47008 0.13932 0.63869 0.0
C974 C 0.48988 0.15843 0.61775 0.0
C975 C 0.44905 0.1264 0.61133 0.0
C976 C 0.46978 0.1487 0.5406 0.0
C977 C 0.44868 0.13129 0.56267 0.0
C978 C 0.48978 0.16307 0.56894 0.0
C979 C 0.4712 0.04071 0.76018 0.0
O980 O 0.43927 0.0719 0.85511 0.0
O981 O 0.46586 0.1073 0.81857 0.0
O982 O 0.37834 0.06254 0.87107 0.0
O983 O 0.39227 0.01906 0.8315 0.0
O984 O 0.37 0.08077 0.766 0.0
O985 O 0.40523 0.10698 0.77582 0.0
O986 O 0.42428 0.06873 0.68847 0.0
O987 O 0.4014 0.0333 0.73318 0.0
O988 O 0.48032 0.10076 0.68556 0.0
O989 O 0.45567 0.13987 0.72269 0.0
O990 O 0.48446 0.06602 0.76492 0.0
O991 O 0.44543 0.04651 0.75444 0.0
H992 H 0.34038 0.02254 0.94656 0.0
H993 H 0.43079 0.01648 0.90429 0.0
H994 H 0.43855 0.99601 0.98067 0.0
H995 H 0.34779 0.00165 1.02252 0.0
H996 H 0.50638 0.1684 0.63837 0.0
H997 H 0.43388 0.11131 0.62695 0.0
H998 H 0.43318 0.11975 0.54155 0.0
H999 H 0.50617 0.17671 0.55271 0.0
Gd1000 Gd 0.69448 0.65265 0.53496 0.0
Gd1001 Gd 0.65779 0.69672 0.48901 0.0
C1002 C 0.65942 0.7077 0.60107 0.0
C1003 C 0.72587 0.62653 0.59223 0.0
C1004 C 0.73834 0.63074 0.64036 0.0
C1005 C 0.72118 0.63325 0.68511 0.0
C1006 C 0.76814 0.62953 0.64176 0.0
C1007 C 0.76337 0.63279 0.73104 0.0
C1008 C 0.78042 0.63062 0.68614 0.0
C1009 C 0.73347 0.63426 0.72959 0.0
C1010 C 0.64579 0.63019 0.49952 0.0
C1011 C 0.70187 0.64668 0.42163 0.0
C1012 C 0.62471 0.72233 0.43466 0.0
C1013 C 0.62388 0.72664 0.38262 0.0
C1014 C 0.62447 0.75611 0.36869 0.0
C1015 C 0.62214 0.70213 0.34674 0.0
C1016 C 0.62181 0.73672 0.28404 0.0
C1017 C 0.62099 0.70715 0.29799 0.0
C1018 C 0.62357 0.7611 0.32006 0.0
C1019 C 0.70994 0.71852 0.50274 0.0
O1020 O 0.68258 0.69035 0.59311 0.0
O1021 O 0.64229 0.71082 0.56697 0.0
O1022 O 0.69825 0.62342 0.59222 0.0
O1023 O 0.73645 0.64182 0.55713 0.0
O1024 O 0.66943 0.61473 0.49971 0.0
O1025 O 0.64842 0.65578 0.52325 0.0
O1026 O 0.67962 0.66592 0.42524 0.0
O1027 O 0.71448 0.64018 0.45981 0.0
O1028 O 0.64454 0.73651 0.45689 0.0
O1029 O 0.62087 0.6952 0.44775 0.0
O1030 O 0.68609 0.73373 0.51402 0.0
O1031 O 0.70441 0.69117 0.49056 0.0
H1032 H 0.69815 0.63411 0.68587 0.0
H1033 H 0.78209 0.62711 0.60823 0.0
H1034 H 0.80343 0.62901 0.68502 0.0
H1035 H 0.71942 0.63642 0.76298 0.0
H1036 H 0.62557 0.77542 0.39559 0.0
H1037 H 0.62173 0.67911 0.3562 0.0
H1038 H 0.61987 0.68785 0.27111 0.0
H1039 H 0.62385 0.78417 0.31076 0.0
Gd1040 Gd 0.09802 0.94365 0.24918 0.0
Gd1041 Gd 0.05783 0.90732 0.19127 0.0
C1042 C 0.04654 0.9075 0.30622 0.0
C1043 C 0.12173 0.97221 0.32187 0.0
C1044 C 0.11507 0.98317 0.37547 0.0
C1045 C 0.13733 0.98734 0.40577 0.0
C1046 C 0.08713 0.9907 0.39688 0.0
C1047 C 0.10414 0.00695 0.47702 0.0
C1048 C 0.08178 0.00232 0.44652 0.0
C1049 C 0.13203 -0.00108 0.45531 0.0
C1050 C 0.12472 0.90427 0.17175 0.0
C1051 C 0.09409 0.9633 0.14672 0.0
C1052 C 0.03714 0.87279 0.12362 0.0
C1053 C 0.04477 0.86495 0.07122 0.0
C1054 C 0.05415 0.88724 0.04158 0.0
C1055 C 0.04064 0.83558 0.04992 0.0
C1056 C 0.0511 0.85205 0.96946 0.0
C1057 C 0.04382 0.82914 0.99939 0.0
C1058 C 0.05735 0.88085 0.99121 0.0
C1059 C 0.03102 0.95827 0.23508 0.0
O1060 O 0.06596 0.92835 0.30678 0.0
O1061 O 0.04172 0.89192 0.26465 0.0
O1062 O 0.12493 0.94294 0.30913 0.0
O1063 O 0.1085 0.98582 0.29038 0.0
O1064 O 0.13515 0.92905 0.19121 0.0
O1065 O 0.10283 0.89902 0.20095 0.0
O1066 O 0.08001 0.93776 0.13875 0.0
O1067 O 0.09984 0.97407 0.19073 0.0
O1068 O 0.02846 0.90081 0.13671 0.0
O1069 O 0.05415 0.86246 0.15308 0.0
O1070 O 0.02017 0.93159 0.23349 0.0
O1071 O 0.0572 0.95547 0.2195 0.0
H1072 H 0.15914 0.98199 0.39086 0.0
H1073 H 0.06931 0.98775 0.37513 0.0
H1074 H 0.05989 0.00745 0.46101 0.0
H1075 H 0.15013 0.00221 0.47629 0.0
H1076 H 0.05764 0.91005 0.05719 0.0
H1077 H 0.03372 0.81799 0.07223 0.0
H1078 H 0.03933 0.8066 0.98369 0.0
H1079 H 0.06281 0.8991 0.96939 0.0
Gd1080 Gd 0.78501 0.35465 0.99543 0.0
Gd1081 Gd 0.82635 0.30574 1.02294 0.0
C1082 C 0.81931 0.30697 0.9073 0.0
C1083 C 0.76218 0.40241 0.96675 0.0
C1084 C 0.75646 0.41558 0.92209 0.0
C1085 C 0.72835 0.42422 0.91599 0.0
C1086 C 0.77814 0.41887 0.88495 0.0
C1087 C 0.74312 0.43561 0.83385 0.0
C1088 C 0.77153 0.42857 0.84117 0.0
C1089 C 0.72172 0.43425 0.87238 0.0
C1090 C 0.76295 0.2986 1.00074 0.0
C1091 C 0.78021 0.34202 0.10869 0.0
C1092 C 0.85161 0.26239 0.05796 0.0
C1093 C 0.84564 0.24822 0.10274 0.0
C1094 C 0.86811 0.23618 0.12484 0.0
C1095 C 0.81795 0.24986 0.12647 0.0
C1096 C 0.83539 0.22857 0.19522 0.0
C1097 C 0.81287 0.24019 0.1724 0.0
C1098 C 0.86302 0.2263 0.1708 0.0
C1099 C 0.85344 0.35342 0.99031 0.0
O1100 O 0.80347 0.3325 0.91941 0.0
O1101 O 0.8284 0.29118 0.94145 0.0
O1102 O 0.74803 0.37827 0.97565 0.0
O1103 O 0.78861 0.40092 0.97739 0.0
O1104 O 0.7478 0.32366 1.01031 0.0
O1105 O 0.78773 0.30563 0.98779 0.0
O1106 O 0.79651 0.31754 0.09331 0.0
O1107 O 0.77603 0.36263 0.07853 0.0
O1108 O 0.8591 0.29065 0.06473 0.0
O1109 O 0.83312 0.25774 1.02578 0.0
O1110 O 0.86466 0.32667 0.98968 0.0
O1111 O 0.82923 0.35508 1.01585 0.0
H1112 H 0.71133 0.42243 0.94457 0.0
H1113 H 0.80008 0.4132 0.88889 0.0
H1114 H 0.78859 0.42903 0.81228 0.0
H1115 H 0.69971 0.44007 0.86836 0.0
H1116 H 0.88965 0.23508 0.10705 0.0
H1117 H 0.80037 0.25937 0.11008 0.0
H1118 H 0.79142 0.24258 0.19054 0.0
H1119 H 0.88068 0.21702 0.1873 0.0
Gd1120 Gd 0.41515 0.95364 0.30827 0.0
Gd1121 Gd 0.4561 0.90625 0.25119 0.0
C1122 C 0.469 0.92492 0.36001 0.0
C1123 C 0.37408 0.97966 0.36642 0.0
C1124 C 0.3651 0.97998 0.41794 0.0
C1125 C 0.3786 0.96032 0.44538 0.0
C1126 C 0.34764 0.00396 0.44116 0.0
C1127 C 0.36308 0.99317 0.51823 0.0
C1128 C 0.34655 0.01053 0.49134 0.0
C1129 C 0.37742 0.96676 0.49556 0.0
C1130 C 0.45789 0.97772 0.25643 0.0
C1131 C 0.41456 0.94565 0.19116 0.0
C1132 C 0.49088 0.87066 0.19292 0.0
C1133 C 0.50117 0.86799 0.14132 0.0
C1134 C 0.51533 0.84131 0.11941 0.0
C1135 C 0.49521 0.89118 0.11304 0.0
C1136 C 0.51508 0.85989 0.04048 0.0
C1137 C 0.50193 0.88708 0.06289 0.0
C1138 C 0.52247 0.83735 0.06918 0.0
C1139 C 0.41395 0.88562 0.31307 0.0
O1140 O 0.44305 0.93841 0.36671 0.0
O1141 O 0.48048 0.91472 0.31603 0.0
O1142 O 0.39871 0.99215 0.357 0.0
O1143 O 0.37127 0.9541 0.33955 0.0
O1144 O 0.43282 0.99064 0.26664 0.0
O1145 O 0.46 0.95425 0.27803 0.0
O1146 O 0.43768 0.92809 0.19011 0.0
O1147 O 0.39955 0.95518 0.23311 0.0
O1148 O 0.46381 0.86516 0.20242 0.0
O1149 O 0.49908 0.89444 0.21938 0.0
O1150 O 0.43962 0.87423 0.30477 0.0
O1151 O 0.4115 0.90589 0.28508 0.0
H1152 H 0.39235 0.94187 0.4277 0.0
H1153 H 0.33712 0.01928 0.42024 0.0
H1154 H 0.33527 0.03093 0.5084 0.0
H1155 H 0.39045 0.95318 0.51559 0.0
H1156 H 0.52011 0.82324 0.14093 0.0
H1157 H 0.4847 0.91209 0.12961 0.0
H1158 H 0.49636 0.90491 0.04145 0.0
H1159 H 0.53257 0.81621 0.05257 0.0
Gd1160 Gd 0.79837 0.65731 1.03344 0.0
Gd1161 Gd 0.84597 0.6882 0.99459 0.0
C1162 C 0.82217 0.71542 0.09682 0.0
C1163 C 0.76479 0.62387 0.08201 0.0
C1164 C 0.76195 0.61444 0.13062 0.0
C1165 C 0.73969 0.59561 0.14376 0.0
C1166 C 0.77913 0.62697 0.16551 0.0
C1167 C 0.74822 0.6067 0.22813 0.0
C1168 C 0.7724 0.62294 0.21417 0.0
C1169 C 0.73285 0.59168 0.19244 0.0
C1170 C 0.7797 0.70004 0.97902 0.0
C1171 C 0.81207 0.64447 0.91927 0.0
C1172 C 0.88375 0.71224 0.93774 0.0
C1173 C 0.88293 0.7207 0.88792 0.0
C1174 C 0.90827 0.7233 0.85795 0.0
C1175 C 0.85666 0.72505 0.8693 0.0
C1176 C 0.88103 0.73428 0.79109 0.0
C1177 C 0.85571 0.73168 0.82143 0.0
C1178 C 0.90735 0.73017 0.81003 0.0
C1179 C 0.8609 0.65407 0.06702 0.0
O1180 O 0.80945 0.68911 0.09834 0.0
O1181 O 0.83371 0.72363 0.05544 0.0
O1182 O 0.75973 0.65273 0.07985 0.0
O1183 O 0.78729 0.61309 0.05391 0.0
O1184 O 0.7684 0.67406 0.98335 0.0
O1185 O 0.79995 0.70338 1.00618 0.0
O1186 O 0.82881 0.66752 0.92573 0.0
O1187 O 0.80077 0.63222 0.95757 0.0
O1188 O 0.88324 0.68316 0.94184 0.0
O1189 O 0.86676 0.72809 0.97144 0.0
O1190 O 0.87189 0.67929 0.05655 0.0
O1191 O 0.84441 0.64574 1.03402 0.0
H1192 H 0.72642 0.58569 0.11689 0.0
H1193 H 0.79638 0.64161 0.1556 0.0
H1194 H 0.7844 0.63496 0.24109 0.0
H1195 H 0.7142 0.57896 0.20257 0.0
H1196 H 0.92875 0.71974 0.87147 0.0
H1197 H 0.83679 0.72311 0.89171 0.0
H1198 H 0.8351 0.73497 0.80827 0.0
H1199 H 0.92723 0.73164 0.78749 0.0
Gd1200 Gd 0.07866 0.0489 0.80017 0.0
Gd1201 Gd 0.03755 0.09488 0.7726 0.0
C1202 C 0.0235 0.07532 0.8783 0.0
C1203 C 0.11937 0.02289 0.83706 0.0
C1204 C 0.12997 0.02601 0.88459 0.0
C1205 C 0.152 0.00665 0.894 0.0
C1206 C 0.11482 0.0445 0.9227 0.0
C1207 C 0.13827 0.0183 0.9801 0.0
C1208 C 0.11932 0.04106 0.97043 0.0
C1209 C 0.15625 0.00286 0.94187 0.0
C1210 C 0.03823 0.02298 0.75071 0.0
C1211 C 0.08021 0.05714 0.68511 0.0
C1212 C 0.00309 0.13012 0.73615 0.0
C1213 C 0.99293 0.13369 0.68863 0.0
C1214 C 0.01187 0.13099 0.6462 0.0
C1215 C 0.96394 0.14027 0.68568 0.0
C1216 C 0.97306 0.14235 0.5986 0.0
C1217 C 0.95403 0.14445 0.64097 0.0
C1218 C 0.00203 0.13537 0.60167 0.0
C1219 C 0.0775 0.11682 0.83206 0.0
O1220 O 0.05 0.0632 0.87254 0.0
O1221 O 0.01201 0.08494 0.841 0.0
O1222 O 0.09365 0.01214 0.83659 0.0
O1223 O 0.12329 0.04595 0.81185 0.0
O1224 O 0.06369 0.01144 0.75018 0.0
O1225 O 0.03422 0.04616 0.78142 0.0
O1226 O 0.05685 0.07435 0.6975 0.0
O1227 O 0.09499 0.04773 0.7194 0.0
O1228 O 0.02989 0.13618 0.74083 0.0
O1229 O 0.99471 0.10608 0.75649 0.0
O1230 O 0.05136 0.1267 0.83494 0.0
O1231 O 0.0816 0.09728 0.79544 0.0
H1232 H 0.16389 0.99234 0.86471 0.0
H1233 H 0.09767 0.05949 0.91583 0.0
H1234 H 0.10514 0.0531 0.99935 0.0
H1235 H 0.17096 0.98516 0.94886 0.0
H1236 H 0.03429 0.12561 0.6474 0.0
H1237 H 0.949 0.14235 0.71805 0.0
H1238 H 0.93161 0.14979 0.63966 0.0
H1239 H 0.0171 0.13295 0.56947 0.0
Gd1240 Gd 0.71693 0.3573 0.42542 0.0
Gd1241 Gd 0.67028 0.31703 0.38237 0.0
C1242 C 0.68381 0.30705 0.48923 0.0
C1243 C 0.74008 0.39853 0.47995 0.0
C1244 C 0.73528 0.40942 0.53181 0.0
C1245 C 0.72592 0.38945 0.56536 0.0
C1246 C 0.74033 0.43956 0.54828 0.0
C1247 C 0.72846 0.42894 0.63187 0.0
C1248 C 0.73698 0.44929 0.59807 0.0
C1249 C 0.72261 0.39902 0.61477 0.0
C1250 C 0.73615 0.29992 0.38998 0.0
C1251 C 0.71961 0.34883 0.30924 0.0
C1252 C 0.64371 0.2827 0.321 0.0
C1253 C 0.64982 0.26873 0.26923 0.0
C1254 C 0.62822 0.26794 0.2376 0.0
C1255 C 0.67679 0.25593 0.25072 0.0
C1256 C 0.66016 0.24173 0.1703 0.0
C1257 C 0.68184 0.24258 0.20217 0.0
C1258 C 0.63326 0.25474 0.18911 0.0
C1259 C 0.64885 0.35973 0.45798 0.0
O1260 O 0.69896 0.33214 0.48834 0.0
O1261 O 0.67323 0.29366 0.44989 0.0
O1262 O 0.75049 0.37083 0.46995 0.0
O1263 O 0.71953 0.40453 0.45355 0.0
O1264 O 0.75229 0.32351 0.39205 0.0
O1265 O 0.71174 0.30945 0.40659 0.0
O1266 O 0.70059 0.32775 0.31669 0.0
O1267 O 0.72641 0.36755 0.34648 0.0
O1268 O 0.63977 0.31231 0.32806 0.0
O1269 O 0.65839 0.27214 0.35381 0.0
O1270 O 0.63576 0.33588 0.4412 0.0
O1271 O 0.66987 0.36306 0.42536 0.0
H1272 H 0.72175 0.3662 0.5535 0.0
H1273 H 0.74733 0.45538 0.52278 0.0
H1274 H 0.74147 0.47253 0.61014 0.0
H1275 H 0.71652 0.38251 0.63961 0.0
H1276 H 0.60721 0.27749 0.25051 0.0
H1277 H 0.69407 0.25627 0.27376 0.0
H1278 H 0.70296 0.23334 0.18942 0.0
H1279 H 0.61577 0.25437 0.16652 0.0
C1280 C 0.1183 0.49005 0.22504 0.0
C1281 C 0.10518 0.46184 0.22381 0.0
H1282 H 0.13938 0.52415 0.26804 0.0
C1283 C 0.10539 0.44512 0.26377 0.0
H1284 H 0.11842 0.50338 0.19459 0.0
C1285 C 0.11832 0.45632 0.30434 0.0
C1286 C 0.13056 0.48489 0.3064 0.0
H1287 H 0.09563 0.42329 0.26387 0.0
H1288 H 0.11732 0.44329 0.33526 0.0
C1289 C 0.13058 0.50174 0.26652 0.0
C1290 C 0.7909 0.87261 0.58654 0.0
C1291 C 0.76273 0.88402 0.59564 0.0
H1292 H 0.82324 0.85193 0.53434 0.0
C1293 C 0.74606 0.88585 0.55684 0.0
H1294 H 0.80399 0.87034 0.61599 0.0
C1295 C 0.75724 0.87546 0.50962 0.0
C1296 C 0.78494 0.86256 0.50109 0.0
H1297 H 0.72417 0.89433 0.56331 0.0
H1298 H 0.74382 0.87635 0.48028 0.0
C1299 C 0.8018 0.86172 0.53981 0.0
C1300 C 0.38078 0.49021 0.76263 0.0
C1301 C 0.39142 0.5196 0.76854 0.0
H1302 H 0.36181 0.4538 0.79834 0.0
C1303 C 0.38925 0.53574 0.81478 0.0
H1304 H 0.38221 0.47732 0.72719 0.0
C1305 C 0.37662 0.52293 0.85445 0.0
C1306 C 0.3666 0.49335 0.84897 0.0
H1307 H 0.39705 0.55845 0.8205 0.0
H1308 H 0.37599 0.53568 0.88994 0.0
C1309 C 0.36878 0.47694 0.80289 0.0
C1310 C 0.79734 0.08391 0.15896 0.0
C1311 C 0.77887 0.06648 0.18671 0.0
H1312 H 0.80853 0.09911 0.08945 0.0
C1313 C 0.76048 0.04665 0.16315 0.0
H1314 H 0.81189 0.09919 0.17622 0.0
C1315 C 0.75837 0.04682 0.11343 0.0
C1316 C 0.77469 0.06676 0.08689 0.0
H1317 H 0.74593 0.03306 0.18374 0.0
H1318 H 0.74227 0.03333 0.09681 0.0
C1319 C 0.79533 0.08398 0.10943 0.0
C1320 C 0.88407 0.50252 0.14858 0.0
C1321 C 0.89667 0.53101 0.14952 0.0
H1322 H 0.86309 0.46793 0.10639 0.0
C1323 C 0.89672 0.54714 0.10887 0.0
H1324 H 0.88379 0.48958 0.17952 0.0
C1325 C 0.88423 0.53526 0.06817 0.0
C1326 C 0.87193 0.5067 0.06687 0.0
H1327 H 0.90612 0.56916 0.10849 0.0
H1328 H 0.88507 0.54803 1.03697 0.0
C1329 C 0.87205 0.49024 0.10717 0.0
C1330 C 0.1969 0.13392 0.83285 0.0
C1331 C 0.21359 0.13275 0.87173 0.0
H1332 H 0.19489 0.12543 0.75659 0.0
C1333 C 0.24117 0.11953 0.86336 0.0
H1334 H 0.17556 0.14397 0.83819 0.0
C1335 C 0.2524 0.10909 0.81619 0.0
C1336 C 0.23588 0.11117 0.77728 0.0
H1337 H 0.25447 0.11839 0.89281 0.0
H1338 H 0.27419 0.10032 0.80988 0.0
C1339 C 0.20784 0.12296 0.78616 0.0
C1340 C 0.62168 0.47203 0.52008 0.0
C1341 C 0.6315 0.50169 0.52548 0.0
H1342 H 0.6012 0.43652 0.55404 0.0
C1343 C 0.6291 0.51819 0.57151 0.0
H1344 H 0.6225 0.45917 0.48464 0.0
C1345 C 0.61695 0.50499 0.61174 0.0
C1346 C 0.60639 0.47557 0.60584 0.0
H1347 H 0.63594 0.54138 0.57601 0.0
H1348 H 0.6153 0.51798 0.64711 0.0
C1349 C 0.6089 0.45928 0.55971 0.0
C1350 C 0.24519 0.95019 0.25391 0.0
C1351 C 0.22733 0.93237 0.282 0.0
H1352 H 0.25818 0.96193 0.18258 0.0
C1353 C 0.20498 0.91713 0.26104 0.0
H1354 H 0.26262 0.96211 0.26931 0.0
C1355 C 0.20245 0.917 0.21162 0.0
C1356 C 0.22217 0.93218 0.18233 0.0
H1357 H 0.19062 0.90367 0.28225 0.0
H1358 H 0.18633 0.90324 0.19569 0.0
C1359 C 0.24262 0.95011 0.2043 0.0
C1360 C 0.61535 0.95999 0.8058 0.0
C1361 C 0.62766 0.98854 0.80724 0.0
H1362 H 0.59348 0.92617 0.76532 0.0
C1363 C 0.6277 0.00501 0.76694 0.0
H1364 H 0.61437 0.94721 0.837 0.0
C1365 C 0.61579 0.99277 0.72539 0.0
C1366 C 0.60312 0.96431 0.72436 0.0
H1367 H 0.63666 0.02733 0.76785 0.0
H1368 H 0.61616 0.00571 0.69445 0.0
C1369 C 0.60294 0.94815 0.765 0.0
C1370 C 0.30199 0.36056 0.03878 0.0
C1371 C 0.28517 0.36145 1.00001 0.0
H1372 H 0.3041 0.36911 0.11501 0.0
C1373 C 0.25745 0.37432 1.00853 0.0
H1374 H 0.32343 0.35078 1.03332 0.0
C1375 C 0.24622 0.38464 0.05575 0.0
C1376 C 0.26286 0.38277 0.09457 0.0
H1377 H 0.24406 0.37524 0.97916 0.0
H1378 H 0.22432 0.39308 0.0622 0.0
C1379 C 0.29104 0.3714 0.08552 0.0
C1380 C 0.88886 0.03608 0.31193 0.0
C1381 C 0.89125 0.01975 0.26582 0.0
H1382 H 0.87555 0.03624 0.3871 0.0
C1383 C 0.88077 0.99029 0.2601 0.0
H1384 H 0.89646 0.05891 0.31746 0.0
C1385 C 0.86884 0.97709 0.30051 0.0
C1386 C 0.86656 0.99364 0.34652 0.0
H1387 H 0.88232 0.9773 0.22475 0.0
H1388 H 0.86203 0.95388 0.29616 0.0
C1389 C 0.8763 0.02333 0.35172 0.0
C1390 C 0.23121 0.54516 0.6247 0.0
C1391 C 0.21849 0.57047 0.6079 0.0
H1392 H 0.24473 0.52539 0.68626 0.0
C1393 C 0.20795 0.59473 0.64183 0.0
H1394 H 0.23927 0.52595 0.59965 0.0
C1395 C 0.21051 0.59402 0.69097 0.0
C1396 C 0.22407 0.5693 0.70749 0.0
H1397 H 0.19884 0.61505 0.63045 0.0
H1398 H 0.20308 0.61358 0.71586 0.0
C1399 C 0.23421 0.54471 0.67414 0.0
C1400 C 0.39646 0.04707 0.6071 0.0
C1401 C 0.39631 0.03085 0.64767 0.0
H1402 H 0.38503 0.0481 0.53512 0.0
C1403 C 0.38367 0.00238 0.64654 0.0
H1404 H 0.40589 0.06907 0.60687 0.0
C1405 C 0.37178 0.99017 0.60495 0.0
C1406 C 0.3718 0.0067 0.5647 0.0
H1407 H 0.38332 0.98938 0.67741 0.0
H1408 H 0.36286 0.96784 0.60395 0.0
C1409 C 0.38407 0.03528 0.56627 0.0
C1410 C 0.70731 0.62321 0.28761 0.0
C1411 C 0.73543 0.61164 0.27863 0.0
H1412 H 0.67497 0.64399 0.33973 0.0
C1413 C 0.75201 0.60969 0.31751 0.0
H1414 H 0.69429 0.62557 0.2581 0.0
C1415 C 0.74079 0.62009 0.36469 0.0
C1416 C 0.71314 0.63313 0.37313 0.0
H1417 H 0.77386 0.60107 0.31114 0.0
H1418 H 0.75415 0.6191 0.3941 0.0
C1419 C 0.69636 0.63411 0.33433 0.0
C1420 C 0.10851 0.96162 0.0589 0.0
C1421 C 0.10605 0.978 0.10496 0.0
H1422 H 0.1222 0.96123 0.98384 0.0
C1423 C 0.11679 0.00735 0.11071 0.0
H1424 H 0.10074 0.93887 0.05334 0.0
C1425 C 0.12905 0.02038 0.07037 0.0
C1426 C 0.1314 0.00376 1.02443 0.0
H1427 H 0.11521 0.02039 0.14603 0.0
H1428 H 0.13602 0.04353 0.07471 0.0
C1429 C 0.12141 0.97418 1.01921 0.0
C1430 C 0.70789 0.42547 0.71736 0.0
C1431 C 0.7283 0.4374 0.68487 0.0
H1432 H 0.69663 0.4153 0.78975 0.0
C1433 C 0.75089 0.45362 0.70344 0.0
H1434 H 0.69 0.41326 0.70425 0.0
C1435 C 0.75449 0.45528 0.75288 0.0
C1436 C 0.73569 0.44058 0.78455 0.0
H1437 H 0.76699 0.46312 0.67943 0.0
H1438 H 0.7729 0.46665 0.76577 0.0
C1439 C 0.71158 0.42692 0.76662 0.0
C1440 C 0.11393 0.33832 0.22667 0.0
C1441 C 0.13246 0.35297 0.25868 0.0
H1442 H 0.09437 0.3368 0.15918 0.0
C1443 C 0.14616 0.37855 0.24247 0.0
H1444 H 0.10306 0.31827 0.23656 0.0
C1445 C 0.14132 0.38898 0.19699 0.0
C1446 C 0.12201 0.37492 0.16578 0.0
H1447 H 0.16078 0.39057 0.26481 0.0
H1448 H 0.15245 0.40881 0.18676 0.0
C1449 C 0.10875 0.34903 0.18165 0.0
C1450 C 0.87488 0.88658 0.5016 0.0
C1451 C 0.90338 0.87613 0.49732 0.0
H1452 H 0.83739 0.89356 0.4658 0.0
C1453 C 0.91534 0.86272 0.45142 0.0
H1454 H 0.86466 0.89617 0.53639 0.0
C1455 C 0.89918 0.85976 0.41116 0.0
C1456 C 0.87069 0.8704 0.41553 0.0
H1457 H 0.9373 0.85445 0.44652 0.0
H1458 H 0.90887 0.84885 0.37673 0.0
C1459 C 0.85907 0.88456 0.46106 0.0
C1460 C 0.36909 0.64108 0.82756 0.0
C1461 C 0.3514 0.62458 0.85961 0.0
H1462 H 0.38892 0.64557 0.75513 0.0
C1463 C 0.34027 0.59796 0.83714 0.0
H1464 H 0.3784 0.66183 0.84186 0.0
C1465 C 0.34639 0.58861 0.78602 0.0
C1466 C 0.36456 0.60489 0.75428 0.0
H1467 H 0.32734 0.58386 0.85937 0.0
H1468 H 0.33729 0.56779 0.77148 0.0
C1469 C 0.37539 0.63166 0.77677 0.0
C1470 C 0.60326 0.12106 0.92633 0.0
C1471 C 0.63322 0.12176 0.92106 0.0
H1472 H 0.56523 0.11872 0.97395 0.0
C1473 C 0.64775 0.11448 0.96055 0.0
H1474 H 0.59118 0.1272 0.89738 0.0
C1475 C 0.63261 0.10875 1.00485 0.0
C1476 C 0.60265 0.11112 1.01097 0.0
H1477 H 0.67052 0.11587 0.95938 0.0
H1478 H 0.64435 0.10468 1.03525 0.0
C1479 C 0.58827 0.11661 0.97071 0.0
C1480 C 0.12234 0.59979 0.48656 0.0
C1481 C 0.10347 0.61945 0.51814 0.0
H1482 H 0.1472 0.59218 0.41645 0.0
C1483 C 0.09837 0.64847 0.50519 0.0
H1484 H 0.12728 0.57763 0.49595 0.0
C1485 C 0.11014 0.65709 0.46119 0.0
C1486 C 0.12765 0.63708 0.42766 0.0
H1487 H 0.08429 0.66451 0.52859 0.0
H1488 H 0.10482 0.67976 0.45334 0.0
C1489 C 0.13392 0.60825 0.44109 0.0
C1490 C 0.64091 0.89132 0.69895 0.0
C1491 C 0.62248 0.87667 0.66666 0.0
H1492 H 0.6597 0.89312 0.76743 0.0
C1493 C 0.61 0.85012 0.6815 0.0
H1494 H 0.6514 0.91169 0.68957 0.0
C1495 C 0.61511 0.83927 0.72646 0.0
C1496 C 0.63282 0.85438 0.75942 0.0
H1497 H 0.59628 0.83748 0.65825 0.0
H1498 H 0.60485 0.81871 0.7355 0.0
C1499 C 0.64573 0.88069 0.74431 0.0
C1500 C 0.37463 0.38576 1.00115 0.0
C1501 C 0.40306 0.3751 0.99724 0.0
H1502 H 0.33735 0.39294 0.96488 0.0
C1503 C 0.41514 0.36166 0.95143 0.0
H1504 H 0.36433 0.39547 1.03582 0.0
C1505 C 0.39916 0.35882 0.91094 0.0
C1506 C 0.37071 0.36958 0.91498 0.0
H1507 H 0.43705 0.35324 0.9468 0.0
H1508 H 0.40894 0.34787 0.8766 0.0
C1509 C 0.35899 0.38383 0.96039 0.0
C1510 C 0.87322 0.13926 0.32851 0.0
C1511 C 0.85436 0.12361 0.35997 0.0
H1512 H 0.89265 0.14421 0.25614 0.0
C1513 C 0.84101 0.09868 0.33638 0.0
H1514 H 0.88403 0.15885 0.34351 0.0
C1515 C 0.84655 0.08991 0.285 0.0
C1516 C 0.86588 0.10532 0.25388 0.0
H1517 H 0.82661 0.08541 0.35762 0.0
H1518 H 0.83598 0.07024 0.26972 0.0
C1519 C 0.87857 0.13065 0.27735 0.0
C1520 C 0.88903 0.64495 0.19242 0.0
C1521 C 0.87667 0.61836 0.20732 0.0
H1522 H 0.89391 0.67643 0.13848 0.0
C1523 C 0.8582 0.60366 0.17515 0.0
H1524 H 0.90282 0.65761 0.21555 0.0
C1525 C 0.85318 0.61433 0.12988 0.0
C1526 C 0.86595 0.6407 0.11473 0.0
H1527 H 0.84781 0.58324 0.18456 0.0
H1528 H 0.83917 0.60187 0.10688 0.0
C1529 C 0.88374 0.65582 0.14756 0.0
C1530 C 0.1236 0.10949 0.87007 0.0
C1531 C 0.09513 0.12011 0.8744 0.0
H1532 H 0.16098 0.10198 0.90592 0.0
C1533 C 0.08317 0.13325 0.92046 0.0
H1534 H 0.13383 0.10007 0.83518 0.0
C1535 C 0.09926 0.13577 0.96082 0.0
C1536 C 0.12771 0.12497 0.95642 0.0
H1537 H 0.06125 0.14164 0.92541 0.0
H1538 H 0.08955 0.14649 0.99537 0.0
C1539 C 0.13934 0.1111 0.9107 0.0
C1540 C 0.65694 0.39649 0.53678 0.0
C1541 C 0.64408 0.37111 0.51351 0.0
H1542 H 0.66142 0.42547 0.60312 0.0
C1543 C 0.6255 0.35527 0.54515 0.0
H1544 H 0.67123 0.40981 0.51537 0.0
C1545 C 0.61969 0.36432 0.59613 0.0
C1546 C 0.63192 0.39005 0.61926 0.0
H1547 H 0.61506 0.33537 0.53034 0.0
H1548 H 0.6054 0.35095 0.61742 0.0
C1549 C 0.65112 0.40554 0.58803 0.0
C1550 C 0.39554 0.87417 0.44538 0.0
C1551 C 0.36556 0.87391 0.45011 0.0
H1552 H 0.43391 0.87622 0.39842 0.0
C1553 C 0.35143 0.88145 0.41034 0.0
H1554 H 0.40731 0.86776 0.47453 0.0
C1555 C 0.36692 0.88705 0.36633 0.0
C1556 C 0.39685 0.88433 0.36075 0.0
H1557 H 0.32867 0.88034 0.41103 0.0
H1558 H 0.35545 0.89131 0.33571 0.0
C1559 C 0.41089 0.87857 0.40126 0.0
C1560 C 0.8658 0.38644 0.87045 0.0
C1561 C 0.89574 0.38358 0.86325 0.0
H1562 H 0.82829 0.37993 0.91789 0.0
C1563 C 0.91053 0.37751 0.9028 0.0
H1564 H 0.85372 0.39096 0.84066 0.0
C1565 C 0.89596 0.37291 0.94742 0.0
C1566 C 0.866 0.37281 0.95366 0.0
H1567 H 0.93356 0.37505 0.89881 0.0
H1568 H 0.90828 0.36631 0.97577 0.0
C1569 C 0.8511 0.38079 0.91518 0.0
C1570 C 0.38394 0.15541 0.64591 0.0
C1571 C 0.36617 0.14027 0.61309 0.0
H1572 H 0.40292 0.15727 0.71398 0.0
C1573 C 0.3533 0.11398 0.62832 0.0
H1574 H 0.39418 0.17597 0.63677 0.0
C1575 C 0.3582 0.1034 0.67368 0.0
C1576 C 0.37668 0.11809 0.70582 0.0
H1577 H 0.33929 0.10152 0.6053 0.0
H1578 H 0.34773 0.08303 0.68316 0.0
C1579 C 0.38914 0.14461 0.69085 0.0
C1580 C 0.62336 0.60896 0.37218 0.0
C1581 C 0.59491 0.61957 0.37633 0.0
H1582 H 0.66077 0.60183 0.40816 0.0
C1583 C 0.58293 0.63303 0.42219 0.0
H1584 H 0.63359 0.5993 0.33743 0.0
C1585 C 0.59903 0.63589 0.46253 0.0
C1586 C 0.62748 0.62511 0.4583 0.0
H1587 H 0.56102 0.64143 0.42699 0.0
H1588 H 0.58933 0.64684 0.49691 0.0
C1589 C 0.63911 0.6109 0.41281 0.0
C1590 C 0.12355 0.86009 0.04121 0.0
C1591 C 0.14265 0.87565 1.01 0.0
H1592 H 0.10406 0.85489 0.11342 0.0
C1593 C 0.15654 0.90003 1.034 0.0
H1594 H 0.11232 0.8409 1.02589 0.0
C1595 C 0.15119 0.90844 0.08554 0.0
C1596 C 0.13156 0.89316 0.11638 0.0
H1597 H 0.17122 0.91315 1.01299 0.0
H1598 H 0.16217 0.92772 0.10117 0.0
C1599 C 0.11841 0.86832 0.09248 0.0
C1600 C 0.01602 0.51798 0.21567 0.0
C1601 C 0.98647 0.51661 0.22855 0.0
H1602 H 0.05212 0.50092 0.16742 0.0
C1603 C 0.9707 0.49579 0.20106 0.0
H1604 H 0.02882 0.53402 0.23553 0.0
C1605 C 0.98393 0.47745 0.16109 0.0
C1606 C 0.01347 0.47883 0.14814 0.0
H1607 H 0.94789 0.49423 0.20952 0.0
H1608 H 0.97107 0.46149 0.14118 0.0
C1609 C 0.0293 0.4995 0.1758 0.0
C1610 C 0.76636 0.73027 0.4009 0.0
C1611 C 0.76616 0.76203 0.40232 0.0
H1612 H 0.75004 0.69162 0.43303 0.0
C1613 C 0.7486 0.77926 0.43926 0.0
H1614 H 0.77996 0.71633 0.37339 0.0
C1615 C 0.73193 0.76511 0.47416 0.0
C1616 C 0.73211 0.73335 0.47271 0.0
H1617 H 0.74824 0.80376 0.44202 0.0
H1618 H 0.71832 0.77906 0.50167 0.0
C1619 C 0.74969 0.71612 0.4358 0.0
C1620 C 0.48489 0.4759 0.71234 0.0
C1621 C 0.51408 0.48037 0.71668 0.0
H1622 H 0.44745 0.48917 0.68135 0.0
C1623 C 0.52771 0.50307 0.69213 0.0
H1624 H 0.47372 0.45835 0.73008 0.0
C1625 C 0.51272 0.52038 0.66328 0.0
C1626 C 0.48354 0.51585 0.65886 0.0
H1627 H 0.55021 0.50697 0.6941 0.0
H1628 H 0.52386 0.53795 0.64554 0.0
C1629 C 0.46993 0.49315 0.6834 0.0
C1630 C 0.76587 0.22176 0.93173 0.0
C1631 C 0.74505 0.22487 0.8997 0.0
H1632 H 0.78619 0.24232 0.99183 0.0
C1633 C 0.72799 0.25149 0.90504 0.0
H1634 H 0.77852 0.20099 0.92983 0.0
C1635 C 0.73174 0.27472 0.94153 0.0
C1636 C 0.75265 0.27165 0.97342 0.0
H1637 H 0.71129 0.25404 0.88154 0.0
H1638 H 0.71912 0.2955 0.94343 0.0
C1639 C 0.76956 0.24493 0.96828 0.0
C1640 C 0.00447 0.47359 0.71519 0.0
C1641 C 0.97753 0.48797 0.72381 0.0
H1642 H 0.04551 0.47196 0.67495 0.0
C1643 C 0.97113 0.51229 0.69782 0.0
H1644 H 0.00987 0.45488 0.73494 0.0
C1645 C 0.99144 0.52207 0.66346 0.0
C1646 C 0.01835 0.50762 0.65476 0.0
H1647 H 0.95035 0.52363 0.70373 0.0
H1648 H 0.98606 0.54075 0.64364 0.0
C1649 C 0.02476 0.48336 0.68087 0.0
C1650 C 0.77319 0.75474 0.96205 0.0
C1651 C 0.76456 0.72458 0.9573 0.0
H1652 H 0.76535 0.8004 0.94697 0.0
C1653 C 0.74038 0.71779 0.93212 0.0
H1654 H 0.79157 0.76088 0.98116 0.0
C1655 C 0.72522 0.74045 0.91248 0.0
C1656 C 0.73386 0.77061 0.91722 0.0
H1657 H 0.73306 0.69479 0.92758 0.0
H1658 H 0.70685 0.7343 0.89336 0.0
C1659 C 0.75803 0.7774 0.94242 0.0
C1660 C 0.50715 0.47208 0.15377 0.0
C1661 C 0.47984 0.48515 0.15505 0.0
H1662 H 0.54715 0.47371 0.18401 0.0
C1663 C 0.47164 0.51033 0.18884 0.0
H1664 H 0.51388 0.45265 0.12814 0.0
C1665 C 0.49053 0.52236 0.22089 0.0
C1666 C 0.51784 0.50929 0.21962 0.0
H1667 H 0.45054 0.52074 0.19067 0.0
H1668 H 0.4838 0.5418 0.2465 0.0
C1669 C 0.52605 0.48411 0.18584 0.0
C1670 C 0.77256 0.24732 0.46425 0.0
C1671 C 0.75358 0.22322 0.46486 0.0
H1672 H 0.78306 0.28977 0.4379 0.0
C1673 C 0.73045 0.22352 0.43654 0.0
H1674 H 0.79101 0.24731 0.48468 0.0
C1675 C 0.72648 0.24729 0.40835 0.0
C1676 C 0.7454 0.27145 0.40786 0.0
H1677 H 0.71594 0.20488 0.43477 0.0
H1678 H 0.70802 0.2473 0.38796 0.0
C1679 C 0.76858 0.27111 0.43609 0.0
C1680 C 0.26677 0.22943 0.89984 0.0
C1681 C 0.2665 0.26118 0.90112 0.0
H1682 H 0.25059 0.19081 0.93223 0.0
C1683 C 0.24898 0.27843 0.93809 0.0
H1684 H 0.28035 0.21547 0.87232 0.0
C1685 C 0.23241 0.26431 0.97315 0.0
C1686 C 0.23264 0.23256 0.97183 0.0
H1687 H 0.24857 0.30293 0.94074 0.0
H1688 H 0.21882 0.27829 1.00066 0.0
C1689 C 0.25019 0.21531 0.9349 0.0
C1690 C 0.26249 0.72578 0.42305 0.0
C1691 C 0.23831 0.72853 0.39805 0.0
H1692 H 0.28746 0.74599 0.47723 0.0
C1693 C 0.22021 0.75432 0.4098 0.0
H1694 H 0.27634 0.70577 0.41598 0.0
C1695 C 0.22608 0.77691 0.4459 0.0
C1696 C 0.25029 0.77415 0.47083 0.0
H1697 H 0.20108 0.75665 0.39183 0.0
H1698 H 0.21231 0.79698 0.45291 0.0
C1699 C 0.26831 0.74831 0.45923 0.0
C1700 C 0.27322 0.25397 0.46098 0.0
C1701 C 0.26466 0.22378 0.45607 0.0
H1702 H 0.26525 0.29964 0.44613 0.0
C1703 C 0.24051 0.21695 0.43087 0.0
H1704 H 0.29158 0.26013 0.48012 0.0
C1705 C 0.22528 0.23961 0.41135 0.0
C1706 C 0.23384 0.26979 0.41625 0.0
H1707 H 0.23326 0.19393 0.42621 0.0
H1708 H 0.20693 0.23344 0.3922 0.0
C1709 C 0.25799 0.27662 0.44147 0.0
C1710 C 0.22677 0.72738 0.9364 0.0
C1711 C 0.25083 0.72706 0.96256 0.0
H1712 H 0.20322 0.7507 0.88865 0.0
C1713 C 0.27026 0.75061 0.95897 0.0
H1714 H 0.21185 0.70912 0.93695 0.0
C1715 C 0.26585 0.77388 0.92998 0.0
C1716 C 0.24175 0.77427 0.90388 0.0
H1717 H 0.28939 0.75056 0.97766 0.0
H1718 H 0.28081 0.79209 0.92944 0.0
C1719 C 0.22234 0.75066 0.90739 0.0
C1720 C 0.51569 0.01801 0.71303 0.0
C1721 C 0.48624 0.01626 0.72648 0.0
H1722 H 0.55163 0.00149 0.66411 0.0
C1723 C 0.47049 0.99521 0.69941 0.0
H1724 H 0.52847 0.03426 0.73252 0.0
C1725 C 0.48368 0.97688 0.65938 0.0
C1726 C 0.51313 0.97864 0.64591 0.0
H1727 H 0.44774 0.99343 0.7083 0.0
H1728 H 0.47091 0.96063 0.63989 0.0
C1729 C 0.52888 -0.00031 0.67299 0.0
C1730 C 0.02747 0.00419 0.19098 0.0
C1731 C 0.0138 0.98142 0.21529 0.0
H1732 H 0.02387 0.03883 0.14396 0.0
C1733 C 0.9847 0.97671 0.21028 0.0
H1734 H 0.04988 0.00832 0.19352 0.0
C1735 C 0.96991 0.99375 0.18086 0.0
C1736 C 0.9836 0.01648 0.15648 0.0
H1737 H 0.97352 0.95909 0.22784 0.0
H1738 H 0.9475 0.98962 0.17832 0.0
C1739 C 0.01268 0.02123 0.16155 0.0
C1740 C 0.4731 0.01227 0.19487 0.0
C1741 C 0.47961 0.98808 0.22106 0.0
H1742 H 0.4878 0.04049 0.14025 0.0
C1743 C 0.50651 0.97362 0.21218 0.0
H1744 H 0.45235 0.02366 0.20094 0.0
C1745 C 0.52668 0.98323 0.17748 0.0
C1746 C 0.52017 0.00741 0.15127 0.0
H1747 H 0.51199 0.95501 0.23207 0.0
H1748 H 0.54743 0.97183 0.17141 0.0
C1749 C 0.49327 0.02188 0.16016 0.0
C1750 C 0.97148 0.01137 0.6876 0.0
C1751 C 0.98003 0.98685 0.65269 0.0
H1752 H 0.98328 0.04209 0.74652 0.0
C1753 C 0.00759 0.97428 0.65053 0.0
H1754 H 0.95017 0.02135 0.69012 0.0
C1755 C 0.02638 0.98611 0.6829 0.0
C1756 C 0.01783 0.0106 0.71784 0.0
H1757 H 0.0146 0.95541 0.62395 0.0
H1758 H 0.04769 0.97612 0.68038 0.0
C1759 C 0.99028 0.0232 0.71995 0.0
C1760 C 0.03122 0.40826 0.93072 0.0
C1761 C 0.01904 0.40496 0.97795 0.0
H1762 H 0.02485 0.41692 0.85828 0.0
C1763 C 0.98914 0.40899 0.98751 0.0
H1764 H 0.05415 0.4062 0.92218 0.0
C1765 C 0.9721 0.4164 0.9508 0.0
C1766 C 0.98448 0.41932 0.90331 0.0
H1767 H 0.97906 0.40769 1.02385 0.0
H1768 H 0.94927 0.41956 0.95952 0.0
C1769 C 0.0143 0.41485 0.89407 0.0
C1770 C 0.83037 0.71981 0.18487 0.0
C1771 C 0.82796 0.73359 0.1421 0.0
H1772 H 0.83743 0.72633 0.26035 0.0
C1773 C 0.83346 0.76452 0.14185 0.0
H1774 H 0.82683 0.69584 0.18576 0.0
C1775 C 0.83968 0.78172 0.1842 0.0
C1776 C 0.84137 0.76819 0.22722 0.0
H1777 H 0.83205 0.77564 0.10929 0.0
H1778 H 0.84189 0.80595 0.18396 0.0
C1779 C 0.83722 0.73699 0.2271 0.0
C1780 C 0.47575 0.57942 0.43037 0.0
C1781 C 0.50578 0.5783 0.42877 0.0
H1782 H 0.4354 0.58377 0.47383 0.0
C1783 C 0.51777 0.58338 0.47346 0.0
H1784 H 0.4655 0.57576 0.39712 0.0
C1785 C 0.50016 0.58913 0.51807 0.0
C1786 C 0.47007 0.58949 0.51933 0.0
H1787 H 0.54073 0.58312 0.47396 0.0
H1788 H 0.51009 0.59198 0.5517 0.0
C1789 C 0.45834 0.58443 0.4746 0.0
C1790 C 0.64975 0.26697 0.59215 0.0
C1791 C 0.66784 0.27501 0.62851 0.0
H1792 H 0.64084 0.2706 0.5188 0.0
C1793 C 0.69181 0.29228 0.61771 0.0
H1794 H 0.63133 0.2533 0.59937 0.0
C1795 C 0.69741 0.30167 0.57177 0.0
C1796 C 0.67906 0.29425 0.53575 0.0
H1797 H 0.70603 0.299 0.64503 0.0
H1798 H 0.71611 0.31491 0.56463 0.0
C1799 C 0.65538 0.27647 0.54597 0.0
C1800 C 0.00016 0.6408 0.96517 0.0
C1801 C 0.97321 0.64866 0.98975 0.0
H1802 H 0.02468 0.63004 0.89665 0.0
C1803 C 0.94997 0.65302 0.9629 0.0
H1804 H 0.01833 0.63684 0.98501 0.0
C1805 C 0.95368 0.64927 0.9121 0.0
C1806 C 0.9805 0.64039 0.88778 0.0
H1807 H 0.929 0.65896 0.98125 0.0
H1808 H 0.93551 0.65242 0.89187 0.0
C1809 C 0.00373 0.63655 0.91471 0.0
C1810 C 0.60169 0.72714 0.20314 0.0
C1811 C 0.62089 0.74236 0.23226 0.0
H1812 H 0.58537 0.72111 0.13348 0.0
C1813 C 0.63892 0.76356 0.21181 0.0
H1814 H 0.58735 0.71086 0.21785 0.0
C1815 C 0.63777 0.76944 0.16359 0.0
C1816 C 0.61843 0.75444 0.13455 0.0
H1817 H 0.65413 0.77551 0.23304 0.0
H1818 H 0.65183 0.78609 0.14923 0.0
C1819 C 0.60035 0.73324 0.15495 0.0
C1820 C 0.55908 0.34633 0.38724 0.0
C1821 C 0.53597 0.34815 0.42343 0.0
H1822 H 0.57238 0.34733 0.31135 0.0
C1823 C 0.50814 0.35164 0.41041 0.0
H1824 H 0.58073 0.34373 0.39658 0.0
C1825 C 0.50348 0.35426 0.36238 0.0
C1826 C 0.52652 0.35301 0.32632 0.0
H1827 H 0.49 0.35354 0.43772 0.0
H1828 H 0.48184 0.35761 0.35342 0.0
C1829 C 0.55434 0.34837 0.33877 0.0
C1830 C 0.81298 0.30747 0.81713 0.0
C1831 C 0.82472 0.29395 0.8547 0.0
H1832 H 0.80813 0.30574 0.74077 0.0
C1833 C 0.84121 0.26702 0.84154 0.0
H1834 H 0.80015 0.32816 0.82538 0.0
C1835 C 0.8458 0.2541 0.79288 0.0
C1836 C 0.83398 0.26744 0.75518 0.0
H1837 H 0.85058 0.25564 0.869 0.0
H1838 H 0.85831 0.23319 0.78501 0.0
C1839 C 0.81742 0.2944 0.76834 0.0
C1840 C 0.02586 0.58248 0.4267 0.0
C1841 C 0.01331 0.57765 0.4733 0.0
H1842 H 0.01904 0.59216 0.35404 0.0
C1843 C 0.98333 0.58021 0.48175 0.0
H1844 H 0.04884 0.58104 0.41884 0.0
C1845 C 0.96641 0.58646 0.4449 0.0
C1846 C 0.97871 0.5913 0.39833 0.0
H1847 H 0.97272 0.57672 0.51694 0.0
H1848 H 0.94341 0.58695 0.45271 0.0
C1849 C 0.00878 0.58948 0.3898 0.0
C1850 C 0.16791 0.27457 0.18874 0.0
C1851 C 0.1706 0.26069 0.23132 0.0
H1852 H 0.16058 0.2682 0.11338 0.0
C1853 C 0.16533 0.22971 0.23142 0.0
H1854 H 0.17127 0.29858 0.188 0.0
C1855 C 0.15905 0.21256 0.18907 0.0
C1856 C 0.15711 0.2262 0.14621 0.0
H1857 H 0.16694 0.21851 0.26386 0.0
H1858 H 0.15701 0.1883 0.18915 0.0
C1859 C 0.16101 0.25744 0.1465 0.0
C1860 C 0.4797 0.41175 0.9009 0.0
C1861 C 0.49178 0.41667 0.94552 0.0
H1862 H 0.48724 0.40333 0.82265 0.0
C1863 C 0.52181 0.41547 0.9438 0.0
H1864 H 0.45673 0.41209 0.90051 0.0
C1865 C 0.53915 0.41051 0.8995 0.0
C1866 C 0.52732 0.40562 0.85484 0.0
H1867 H 0.53212 0.41899 0.97702 0.0
H1868 H 0.56209 0.4111 0.90017 0.0
C1869 C 0.49723 0.40607 0.85622 0.0
C1870 C 0.30693 0.69641 0.7478 0.0
C1871 C 0.32781 0.7179 0.73973 0.0
H1872 H 0.28519 0.66987 0.79847 0.0
C1873 C 0.34282 0.72974 0.77837 0.0
H1874 H 0.29524 0.68679 0.71848 0.0
C1875 C 0.33695 0.72024 0.82447 0.0
C1876 C 0.31619 0.69854 0.83241 0.0
H1877 H 0.35886 0.74656 0.77301 0.0
H1878 H 0.34893 0.72955 0.8536 0.0
C1879 C 0.30126 0.68673 0.79362 0.0
C1880 C 0.04794 0.34207 0.41315 0.0
C1881 C 0.02478 0.34724 0.38652 0.0
H1882 H 0.06247 0.34169 0.48399 0.0
C1883 C 0.99801 0.35564 0.41139 0.0
H1884 H 0.06878 0.33568 0.3946 0.0
C1885 C 0.99456 0.35958 0.46188 0.0
C1886 C 0.01772 0.35488 0.48859 0.0
H1887 H 0.97991 0.36022 0.39175 0.0
H1888 H 0.97375 0.36649 0.48013 0.0
C1889 C 0.04435 0.3455 0.46397 0.0
C1890 C 0.39682 0.2679 0.16984 0.0
C1891 C 0.37775 0.25252 0.14064 0.0
H1892 H 0.41306 0.27403 0.23956 0.0
C1893 C 0.35985 0.23118 0.16099 0.0
H1894 H 0.41105 0.28429 0.15518 0.0
C1895 C 0.36101 0.2253 0.2092 0.0
C1896 C 0.38024 0.24045 0.23832 0.0
H1897 H 0.34474 0.21911 0.13969 0.0
H1898 H 0.34706 0.20854 0.22351 0.0
C1899 C 0.39817 0.26179 0.21802 0.0
C1900 C 0.4425 0.64623 1.03571 0.0
C1901 C 0.47023 0.64042 0.04766 0.0
H1902 H 0.41602 0.65227 0.97848 0.0
C1903 C 0.49307 0.63816 1.01115 0.0
H1904 H 0.4246 0.64807 0.06347 0.0
C1905 C 0.4883 0.64112 0.96327 0.0
C1906 C 0.46054 0.64598 0.95081 0.0
H1907 H 0.51466 0.63393 1.01967 0.0
H1908 H 0.50628 0.63856 0.93564 0.0
C1909 C 0.43762 0.64861 0.98738 0.0
C1910 C 0.16966 0.70556 0.60066 0.0
C1911 C 0.1555 0.73398 0.61336 0.0
H1912 H 0.18467 0.67054 0.54416 0.0
C1913 C 0.14527 0.74846 0.57534 0.0
H1914 H 0.17756 0.69327 0.62846 0.0
C1915 C 0.14932 0.7353 0.52672 0.0
C1916 C 0.16366 0.70705 0.51404 0.0
H1917 H 0.13457 0.77044 0.58292 0.0
H1918 H 0.14143 0.74759 0.4989 0.0
C1919 C 0.17358 0.69231 0.552 0.0
C1920 C 0.51594 0.91484 0.39259 0.0
C1921 C 0.48613 0.91953 0.40163 0.0
H1922 H 0.55564 0.90595 0.42102 0.0
C1923 C 0.47359 0.91666 0.44904 0.0
H1924 H 0.52661 0.91687 0.35687 0.0
C1925 C 0.49046 0.90913 0.48588 0.0
C1926 C 0.52036 0.90491 0.47653 0.0
H1927 H 0.45077 0.91999 0.4576 0.0
H1928 H 0.48027 0.90792 0.52217 0.0
C1929 C 0.5327 0.90812 0.42937 0.0
C1930 C 0.33364 0.2638 0.6405 0.0
C1931 C 0.32814 0.23287 0.64072 0.0
H1932 H 0.34208 0.30522 0.68265 0.0
C1933 C 0.33056 0.21908 0.68347 0.0
H1934 H 0.33223 0.27494 0.60795 0.0
C1935 C 0.33741 0.23625 0.72572 0.0
C1936 C 0.34156 0.26745 0.72586 0.0
H1937 H 0.32702 0.19511 0.68434 0.0
H1938 H 0.33763 0.22556 0.75895 0.0
C1939 C 0.33987 0.28099 0.68286 0.0
C1940 C 0.00045 0.09028 1.0165 0.0
C1941 C 0.97035 0.09089 1.01797 0.0
H1942 H 0.04093 0.08404 0.97212 0.0
C1943 C 0.95852 0.08604 0.97329 0.0
H1944 H 0.01047 0.09295 0.05005 0.0
C1945 C 0.97583 0.08099 0.92894 0.0
C1946 C 0.00585 0.07964 0.92714 0.0
H1947 H 0.93556 0.08554 0.97264 0.0
H1948 H 0.96548 0.07748 0.89577 0.0
C1949 C 0.01795 0.08451 0.97176 0.0
C1950 C 0.19556 0.80293 0.06422 0.0
C1951 C 0.17562 0.79797 1.03015 0.0
H1952 H 0.20533 0.79948 0.1366 0.0
C1953 C 0.15031 0.78325 0.04249 0.0
H1954 H 0.21553 0.81364 0.05517 0.0
C1955 C 0.14461 0.7746 0.08917 0.0
C1956 C 0.16425 0.78049 0.12378 0.0
H1957 H 0.13459 0.77936 1.01672 0.0
H1958 H 0.12489 0.76337 0.09818 0.0
C1959 C 0.18986 0.7945 0.11068 0.0
C1960 C 0.45386 0.14962 0.4098 0.0
C1961 C 0.48055 0.14053 0.38517 0.0
H1962 H 0.42939 0.15916 0.47919 0.0
C1963 C 0.50378 0.1361 0.41185 0.0
H1964 H 0.43569 0.15321 0.38978 0.0
C1965 C 0.50033 0.14001 0.46234 0.0
C1966 C 0.4735 0.1481 0.48721 0.0
H1967 H 0.52463 0.12939 0.39356 0.0
H1968 H 0.51849 0.13564 0.48197 0.0
C1969 C 0.45027 0.15302 0.46062 0.0
C1970 C 0.13774 0.26861 0.66268 0.0
C1971 C 0.11862 0.25325 0.63361 0.0
H1972 H 0.15394 0.27511 0.73222 0.0
C1973 C 0.10081 0.23183 0.65399 0.0
H1974 H 0.15159 0.28544 0.6483 0.0
C1975 C 0.10219 0.22586 0.70222 0.0
C1976 C 0.12115 0.24146 0.73138 0.0
H1977 H 0.08601 0.21943 0.63247 0.0
H1978 H 0.08807 0.2094 0.71695 0.0
C1979 C 0.13892 0.26287 0.71094 0.0
C1980 C 0.02363 0.83319 0.90057 0.0
C1981 C 0.04783 0.84763 0.91668 0.0
H1982 H 0.99763 0.82381 0.84224 0.0
C1983 C 0.06634 0.86126 0.8831 0.0
H1984 H 0.00876 0.82271 0.92546 0.0
C1985 C 0.05971 0.86216 0.8353 0.0
C1986 C 0.03439 0.84961 0.82044 0.0
H1987 H 0.08531 0.8723 0.8943 0.0
H1988 H 0.07357 0.8741 0.81085 0.0
C1989 C 0.017 0.83418 0.85303 0.0
C1990 C 0.33932 0.76911 0.33788 0.0
C1991 C 0.32232 0.79562 0.35172 0.0
H1992 H 0.35674 0.7359 0.28067 0.0
C1993 C 0.30989 0.809 0.31466 0.0
H1994 H 0.34923 0.75787 0.36493 0.0
C1995 C 0.31422 0.7962 0.26569 0.0
C1996 C 0.33134 0.76969 0.25185 0.0
H1997 H 0.29663 0.82936 0.32345 0.0
H1998 H 0.30439 0.80742 0.23853 0.0
C1999 C 0.34379 0.75648 0.28905 0.0
C2000 C 0.50899 0.08585 0.88628 0.0
C2001 C 0.4791 0.09009 0.89571 0.0
H2002 H 0.54873 0.07503 0.91444 0.0
C2003 C 0.46682 0.08695 0.94294 0.0
H2004 H 0.51914 0.08701 0.84994 0.0
C2005 C 0.48364 0.08032 0.97971 0.0
C2006 C 0.51346 0.07562 0.97058 0.0
H2007 H 0.44389 0.08914 0.95137 0.0
H2008 H 0.47303 0.07837 1.0155 0.0
C2009 C 0.52592 0.07839 0.92309 0.0
C2010 C 0.65834 0.71365 0.69015 0.0
C2011 C 0.6567 0.72721 0.64715 0.0
H2012 H 0.66613 0.71963 0.76498 0.0
C2013 C 0.66106 0.75837 0.64723 0.0
H2014 H 0.65598 0.68944 0.69039 0.0
C2015 C 0.66808 0.77548 0.68941 0.0
C2016 C 0.67047 0.76166 0.73214 0.0
H2017 H 0.66088 0.76905 0.61399 0.0
H2018 H 0.67178 0.79942 0.6885 0.0
C2019 C 0.66476 0.73078 0.73243 0.0
C2020 C 0.99735 0.90692 0.35446 0.0
C2021 C 0.02745 0.90656 0.3529 0.0
H2022 H 0.9569 0.91288 0.39896 0.0
C2023 C 0.03933 0.91155 0.39752 0.0
H2024 H 0.98729 0.90413 0.32096 0.0
C2025 C 0.02205 0.91652 0.44191 0.0
C2026 C 0.99202 0.91763 0.4438 0.0
H2027 H 0.06228 0.91223 0.39809 0.0
H2028 H 0.03243 0.92016 0.47504 0.0
C2029 C 0.97988 0.9126 0.39924 0.0
C2030 C 0.84882 0.22597 0.2798 0.0
C2031 C 0.8299 0.2189 0.24436 0.0
H2032 H 0.85855 0.22169 0.35256 0.0
C2033 C 0.80535 0.20276 0.25624 0.0
H2034 H 0.86772 0.23878 0.27178 0.0
C2035 C 0.79995 0.19354 0.30233 0.0
C2036 C 0.8191 0.19995 0.3374 0.0
H2037 H 0.79047 0.1968 0.22966 0.0
H2038 H 0.78076 0.18129 0.31039 0.0
C2039 C 0.8434 0.21662 0.32612 0.0
C2040 C 0.54928 0.84209 0.91155 0.0
C2041 C 0.526 0.84688 0.88502 0.0
H2042 H 0.56395 0.84201 0.98235 0.0
C2043 C 0.49915 0.85482 0.90995 0.0
H2044 H 0.57018 0.83607 0.89293 0.0
C2045 C 0.49575 0.85872 0.96045 0.0
C2046 C 0.51903 0.85443 0.98706 0.0
H2047 H 0.48095 0.8591 0.89037 0.0
H2048 H 0.47489 0.86534 0.97879 0.0
C2049 C 0.54574 0.84548 0.96237 0.0
C2050 C 0.89676 0.76788 0.67102 0.0
C2051 C 0.87719 0.75309 0.64217 0.0
H2052 H 0.91344 0.7735 0.74041 0.0
C2053 C 0.85887 0.73221 0.66283 0.0
H2054 H 0.91134 0.7839 0.65615 0.0
C2055 C 0.86011 0.72623 0.71099 0.0
C2056 C 0.87982 0.74081 0.73976 0.0
H2057 H 0.84337 0.7206 0.64182 0.0
H2058 H 0.84582 0.70983 0.7255 0.0
C2059 C 0.89817 0.76169 0.71915 0.0
C2060 C 0.93846 0.13266 0.53576 0.0
C2061 C 0.96301 0.14684 0.55091 0.0
H2062 H 0.91314 0.12129 0.47677 0.0
C2063 C 0.97921 0.16365 0.51875 0.0
H2064 H 0.92551 0.1196 0.55985 0.0
C2065 C 0.97229 0.16448 0.47132 0.0
C2066 C 0.94894 0.14853 0.4549 0.0
H2067 H 0.99792 0.17531 0.52976 0.0
H2068 H 0.98636 0.17612 0.44675 0.0
C2069 C 0.9315 0.13347 0.48813 0.0
C2070 C 0.68769 0.18866 0.05541 0.0
C2071 C 0.67485 0.20145 1.01823 0.0
H2072 H 0.69332 0.19086 0.13155 0.0
C2073 C 0.65725 0.22756 1.03181 0.0
H2074 H 0.70142 0.16863 0.04681 0.0
C2075 C 0.6526 0.24037 0.0805 0.0
C2076 C 0.66544 0.22774 0.11784 0.0
H2077 H 0.64701 0.23836 1.00464 0.0
H2078 H 0.63918 0.26063 0.08868 0.0
C2079 C 0.68317 0.20163 0.10427 0.0
C2080 C 0.0771 0.54654 0.7728 0.0
C2081 C 0.09323 0.53675 0.72829 0.0
H2082 H 0.06851 0.54238 0.8489 0.0
C2083 C 0.11442 0.51401 0.72901 0.0
H2084 H 0.06062 0.56399 0.77447 0.0
C2085 C 0.11895 0.50134 0.7724 0.0
C2086 C 0.10234 0.51075 0.81674 0.0
H2087 H 0.1272 0.50551 0.69579 0.0
H2088 H 0.1351 0.48354 0.77079 0.0
C2089 C 0.08149 0.53382 0.81592 0.0
C2090 C 0.68358 0.845 0.0447 0.0
C2091 C 0.69687 0.85781 1.00427 0.0
H2092 H 0.68485 0.83591 0.1186 0.0
C2093 C 0.72231 0.87334 1.01061 0.0
H2094 H 0.66415 0.83259 0.04155 0.0
C2095 C 0.73439 0.87522 0.05538 0.0
C2096 C 0.72142 0.86173 0.09551 0.0
H2097 H 0.73348 0.88318 0.98045 0.0
H2098 H 0.75406 0.88719 0.05841 0.0
C2099 C 0.69555 0.84696 0.08933 0.0
C2100 C 0.38392 0.48482 0.30558 0.0
C2101 C 0.39926 0.4741 0.34207 0.0
H2102 H 0.37684 0.48207 0.22974 0.0
C2103 C 0.41966 0.45049 0.32649 0.0
H2104 H 0.36774 0.50258 0.31515 0.0
C2105 C 0.4247 0.4385 0.27716 0.0
C2106 C 0.40955 0.44935 0.24072 0.0
H2107 H 0.43242 0.44153 0.35232 0.0
H2108 H 0.4409 0.42076 0.26757 0.0
C2109 C 0.38892 0.4727 0.25611 0.0
C2110 C 0.75329 0.12048 0.6359 0.0
C2111 C 0.76299 0.14667 0.61513 0.0
H2112 H 0.7324 0.10153 0.69836 0.0
C2113 C 0.75704 0.17462 0.64398 0.0
H2114 H 0.75727 0.09846 0.61548 0.0
C2115 C 0.74189 0.17648 0.6908 0.0
C2116 C 0.73268 0.15041 0.71219 0.0
H2117 H 0.76378 0.19547 0.62996 0.0
H2118 H 0.73786 0.19863 0.71081 0.0
C2119 C 0.73895 0.12227 0.6838 0.0
C2120 C 0.88418 0.47953 0.64499 0.0
C2121 C 0.90579 0.45732 0.64631 0.0
H2122 H 0.86332 0.50955 0.60271 0.0
C2123 C 0.92263 0.44812 0.60227 0.0
H2124 H 0.87086 0.48763 0.67784 0.0
C2125 C 0.91842 0.46081 0.559 0.0
C2126 C 0.89707 0.48328 0.55757 0.0
H2127 H 0.93948 0.43112 0.60106 0.0
H2128 H 0.93191 0.45265 0.52639 0.0
C2129 C 0.87985 0.49218 0.60149 0.0
C2130 C 0.30276 0.14785 0.28341 0.0
C2131 C 0.27698 0.13288 0.27725 0.0
H2132 H 0.33416 0.1624 0.33109 0.0
C2133 C 0.26417 0.11929 0.31739 0.0
H2134 H 0.31334 0.15901 0.25415 0.0
C2135 C 0.27633 0.12121 0.36212 0.0
C2136 C 0.30168 0.13691 0.36841 0.0
H2137 H 0.24458 0.10716 0.31441 0.0
H2138 H 0.26528 0.11125 0.39226 0.0
C2139 C 0.3148 0.14985 0.32799 0.0
C2140 C 0.61486 0.51057 0.06837 0.0
C2141 C 0.59862 0.52013 1.03209 0.0
H2142 H 0.6225 0.5142 0.14404 0.0
C2143 C 0.57711 0.54257 0.04795 0.0
H2144 H 0.63191 0.49377 0.05864 0.0
C2145 C 0.57195 0.55459 0.09725 0.0
C2146 C 0.58799 0.54488 0.13348 0.0
H2147 H 0.56358 0.55059 1.0224 0.0
H2148 H 0.55492 0.57141 0.10698 0.0
C2149 C 0.60966 0.52266 0.11786 0.0
C2150 C 0.23913 0.82325 0.72523 0.0
C2151 C 0.23376 0.85126 0.75416 0.0
H2152 H 0.25808 0.79894 0.6585 0.0
C2153 C 0.24429 0.87723 0.73372 0.0
H2154 H 0.23173 0.80256 0.73904 0.0
C2155 C 0.25887 0.8752 0.686 0.0
C2156 C 0.26454 0.847 0.65752 0.0
H2157 H 0.24079 0.89927 0.75425 0.0
H2158 H 0.26608 0.89579 0.67166 0.0
C2159 C 0.25451 0.82112 0.6786 0.0
C2160 C 0.61841 0.00294 0.27242 0.0
C2161 C 0.60129 0.01179 0.31645 0.0
H2162 H 0.62715 0.00748 0.19604 0.0
C2163 C 0.57978 0.03413 0.31515 0.0
H2164 H 0.63503 0.98566 0.27107 0.0
C2165 C 0.57536 0.04676 0.2719 0.0
C2166 C 0.59215 0.03763 0.22777 0.0
H2167 H 0.56634 0.04223 0.34785 0.0
H2168 H 0.55841 0.06365 0.27318 0.0
C2169 C 0.61387 0.01553 0.22896 0.0
C2170 C 0.18356 0.34399 0.54389 0.0
C2171 C 0.19673 0.35688 0.50346 0.0
H2172 H 0.18497 0.33485 0.61775 0.0
C2173 C 0.22212 0.3725 0.50974 0.0
H2174 H 0.16417 0.3315 0.54079 0.0
C2175 C 0.23427 0.3744 0.55446 0.0
C2176 C 0.22141 0.36084 0.5946 0.0
H2177 H 0.23322 0.38241 0.47957 0.0
H2178 H 0.2539 0.38645 0.55744 0.0
C2179 C 0.19558 0.34597 0.58847 0.0
C2180 C 0.92227 0.95665 0.8245 0.0
C2181 C 0.89919 0.97723 0.84038 0.0
H2182 H 0.94588 0.92893 0.76554 0.0
C2183 C 0.88166 0.98457 0.80434 0.0
H2184 H 0.93625 0.94967 0.85019 0.0
C2185 C 0.88713 0.97222 0.75505 0.0
C2186 C 0.9103 0.9518 0.73937 0.0
H2187 H 0.86388 0.00049 0.81384 0.0
H2188 H 0.87331 0.9791 0.729 0.0
C2189 C 0.92767 0.94429 0.77536 0.0
C2190 C 0.23808 0.68058 0.18986 0.0
C2191 C 0.22909 0.65457 0.2117 0.0
H2192 H 0.26007 0.69938 0.12888 0.0
C2193 C 0.23604 0.62632 0.18409 0.0
H2194 H 0.23352 0.70281 0.20928 0.0
C2195 C 0.25072 0.62435 0.1364 0.0
C2196 C 0.26012 0.65049 0.11511 0.0
H2197 H 0.22964 0.60564 0.19897 0.0
H2198 H 0.25512 0.60224 0.1165 0.0
C2199 C 0.25359 0.67856 0.1433 0.0
C2200 C 0.4245 0.94838 0.10015 0.0
C2201 C 0.40766 0.95747 0.14424 0.0
H2202 H 0.4335 0.95287 1.02419 0.0
C2203 C 0.38584 0.97945 0.14299 0.0
H2204 H 0.44152 0.93158 0.09892 0.0
C2205 C 0.38125 0.99196 0.0995 0.0
C2206 C 0.39841 0.98315 0.05551 0.0
H2207 H 0.37252 0.98745 0.17589 0.0
H2208 H 0.36455 0.00914 0.10078 0.0
C2209 C 0.42002 0.96093 0.05687 0.0
C2210 C 0.77604 0.62198 0.86357 0.0
C2211 C 0.80142 0.63763 0.86992 0.0
H2212 H 0.74428 0.60805 0.81582 0.0
C2213 C 0.81457 0.65059 0.82955 0.0
H2214 H 0.76497 0.61202 0.89369 0.0
C2215 C 0.80254 0.64866 0.78496 0.0
C2216 C 0.77674 0.63375 0.77876 0.0
H2217 H 0.83395 0.6631 0.83269 0.0
H2218 H 0.81315 0.65983 0.75574 0.0
C2219 C 0.76389 0.62013 0.81884 0.0
C2220 C 0.11591 0.01252 0.56649 0.0
C2221 C 0.09854 0.02027 0.5305 0.0
H2222 H 0.12423 0.01755 0.64185 0.0
C2223 C 0.07572 0.04117 0.5465 0.0
H2224 H 0.1335 0.99634 0.55688 0.0
C2225 C 0.07043 0.05343 0.59571 0.0
C2226 C 0.08764 0.04549 0.63164 0.0
H2227 H 0.06188 0.04847 0.52084 0.0
H2228 H 0.05244 0.06908 0.60561 0.0
C2229 C 0.11055 0.02476 0.61585 0.0
C2230 C 0.74131 0.32045 0.22912 0.0
C2231 C 0.73542 0.34834 0.25818 0.0
H2232 H 0.76009 0.29659 0.16189 0.0
C2233 C 0.74474 0.37461 0.2372 0.0
H2234 H 0.73483 0.29954 0.24322 0.0
C2235 C 0.75867 0.37294 0.18896 0.0
C2236 C 0.7649 0.34485 0.16038 0.0
H2237 H 0.74076 0.3966 0.25772 0.0
H2238 H 0.76498 0.39372 0.17432 0.0
C2239 C 0.75606 0.31871 0.18197 0.0
loop_
_geom_bond_atom_site_label_1
_geom_bond_atom_site_label_2
_geom_bond_distance
_geom_bond_site_symmetry_2
_ccdc_geom_bond_type
Gd0 C3 2.818 . S
Gd0 O20 2.377 . S
Gd0 O22 2.448 . S
Gd0 O23 2.506 . S
Gd0 O24 2.435 . S
Gd0 O25 2.717 . S
Gd0 O27 2.395 . S
Gd0 O31 2.327 . S
Gd1 C12 2.818 1_554 S
Gd1 O21 2.395 . S
Gd1 O25 2.327 . S
Gd1 O26 2.377 . S
Gd1 O28 2.448 1_554 S
Gd1 O29 2.506 1_554 S
Gd1 O30 2.435 . S
Gd1 O31 2.717 . S
C2 O20 1.240 . S
C2 O21 1.240 . S
C3 Gd0 2.818 . S
C3 C4 1.510 . S
C3 O22 1.249 . S
C3 O23 1.252 . S
C4 C3 1.510 . S
C4 C5 1.404 1_455 S
C4 C6 1.352 . S
C5 C4 1.404 1_655 S
C5 C9 1.389 . S
C5 H32 0.930 . S
C6 C4 1.352 . S
C6 C8 1.374 . S
C6 H33 0.931 . S
C7 C8 1.359 . S
C7 C9 1.364 1_455 S
C8 C6 1.374 . S
C8 C7 1.359 . S
C8 H34 0.931 . S
C9 C5 1.389 . S
C9 C7 1.364 1_655 S
C9 H35 0.931 . S
C10 O24 1.256 . S
C10 O25 1.257 . S
C11 O26 1.240 . S
C11 O27 1.240 . S
C12 Gd1 2.818 1_556 S
C12 C13 1.510 . S
C12 O28 1.249 . S
C12 O29 1.252 . S
C13 C12 1.510 . S
C13 C14 1.404 . S
C13 C15 1.352 . S
C14 C13 1.404 . S
C14 C18 1.389 . S
C14 H36 0.930 . S
C15 C13 1.352 . S
C15 C17 1.374 . S
C15 H37 0.931 . S
C16 C17 1.359 . S
C16 C18 1.364 . S
C17 C15 1.374 . S
C17 C16 1.359 . S
C17 H38 0.931 . S
C18 C14 1.389 . S
C18 C16 1.364 . S
C18 H39 0.931 . S
C19 O30 1.256 . S
C19 O31 1.257 . S
O20 Gd0 2.377 . S
O20 C2 1.240 . S
O21 Gd1 2.395 . S
O21 C2 1.240 . S
O22 Gd0 2.448 . S
O22 C3 1.249 . S
O23 Gd0 2.506 . S
O23 C3 1.252 . S
O24 Gd0 2.435 . S
O24 C10 1.256 . S
O25 Gd0 2.717 . S
O25 Gd1 2.327 . S
O25 C10 1.257 . S
O26 Gd1 2.377 . S
O26 C11 1.240 . S
O27 Gd0 2.395 . S
O27 C11 1.240 . S
O28 Gd1 2.448 1_556 S
O28 C12 1.249 . S
O29 Gd1 2.506 1_556 S
O29 C12 1.252 . S
O30 Gd1 2.435 . S
O30 C19 1.256 . S
O31 Gd0 2.327 . S
O31 Gd1 2.717 . S
O31 C19 1.257 . S
H32 C5 0.930 . S
H33 C6 0.931 . S
H34 C8 0.931 . S
H35 C9 0.931 . S
H36 C14 0.930 . S
H37 C15 0.931 . S
H38 C17 0.931 . S
H39 C18 0.931 . S
Gd40 C43 2.818 . S
Gd40 O60 2.377 . S
Gd40 O62 2.448 . S
Gd40 O63 2.506 . S
Gd40 O64 2.435 . S
Gd40 O65 2.717 . S
Gd40 O67 2.395 . S
Gd40 O71 2.327 . S
Gd41 C52 2.818 . S
Gd41 O61 2.395 . S
Gd41 O65 2.327 . S
Gd41 O66 2.377 . S
Gd41 O68 2.448 . S
Gd41 O69 2.506 . S
Gd41 O70 2.435 . S
Gd41 O71 2.717 . S
C42 O60 1.240 . S
C42 O61 1.240 . S
C43 Gd40 2.818 . S
C43 C44 1.510 . S
C43 O62 1.249 . S
C43 O63 1.252 . S
C44 C43 1.510 . S
C44 C45 1.404 . S
C44 C46 1.352 . S
C45 C44 1.404 . S
C45 C49 1.389 . S
C45 H72 0.930 . S
C46 C44 1.352 . S
C46 C48 1.374 . S
C46 H73 0.931 . S
C47 C48 1.359 . S
C47 C49 1.364 . S
C48 C46 1.374 . S
C48 C47 1.359 . S
C48 H74 0.931 . S
C49 C45 1.389 . S
C49 C47 1.364 . S
C49 H75 0.931 . S
C50 O64 1.256 . S
C50 O65 1.257 . S
C51 O66 1.240 . S
C51 O67 1.240 . S
C52 Gd41 2.818 . S
C52 C53 1.510 . S
C52 O68 1.249 . S
C52 O69 1.252 . S
C53 C52 1.510 . S
C53 C54 1.404 . S
C53 C55 1.352 . S
C54 C53 1.404 . S
C54 C58 1.389 . S
C54 H76 0.930 . S
C55 C53 1.352 . S
C55 C57 1.374 . S
C55 H77 0.931 . S
C56 C57 1.359 . S
C56 C58 1.364 . S
C57 C55 1.374 . S
C57 C56 1.359 . S
C57 H78 0.931 . S
C58 C54 1.389 . S
C58 C56 1.364 . S
C58 H79 0.931 . S
C59 O70 1.256 . S
C59 O71 1.257 . S
O60 Gd40 2.377 . S
O60 C42 1.240 . S
O61 Gd41 2.395 . S
O61 C42 1.240 . S
O62 Gd40 2.448 . S
O62 C43 1.249 . S
O63 Gd40 2.506 . S
O63 C43 1.252 . S
O64 Gd40 2.435 . S
O64 C50 1.256 . S
O65 Gd40 2.717 . S
O65 Gd41 2.327 . S
O65 C50 1.257 . S
O66 Gd41 2.377 . S
O66 C51 1.240 . S
O67 Gd40 2.395 . S
O67 C51 1.240 . S
O68 Gd41 2.448 . S
O68 C52 1.249 . S
O69 Gd41 2.506 . S
O69 C52 1.252 . S
O70 Gd41 2.435 . S
O70 C59 1.256 . S
O71 Gd40 2.327 . S
O71 Gd41 2.717 . S
O71 C59 1.257 . S
H72 C45 0.930 . S
H73 C46 0.931 . S
H74 C48 0.931 . S
H75 C49 0.931 . S
H76 C54 0.930 . S
H77 C55 0.931 . S
H78 C57 0.931 . S
H79 C58 0.931 . S
Gd80 C83 2.818 . S
Gd80 O100 2.377 . S
Gd80 O102 2.448 . S
Gd80 O103 2.506 . S
Gd80 O104 2.435 . S
Gd80 O105 2.717 . S
Gd80 O107 2.395 . S
Gd80 O111 2.327 . S
Gd81 C92 2.818 . S
Gd81 O101 2.395 . S
Gd81 O105 2.327 . S
Gd81 O106 2.377 . S
Gd81 O108 2.448 . S
Gd81 O109 2.506 . S
Gd81 O110 2.435 . S
Gd81 O111 2.717 . S
C82 O100 1.240 . S
C82 O101 1.240 . S
C83 Gd80 2.818 . S
C83 C84 1.510 . S
C83 O102 1.249 . S
C83 O103 1.252 . S
C84 C83 1.510 . S
C84 C85 1.404 . S
C84 C86 1.352 . S
C85 C84 1.404 . S
C85 C89 1.389 . S
C85 H112 0.930 . S
C86 C84 1.352 . S
C86 C88 1.374 . S
C86 H113 0.931 . S
C87 C88 1.359 . S
C87 C89 1.364 . S
C88 C86 1.374 . S
C88 C87 1.359 . S
C88 H114 0.931 . S
C89 C85 1.389 . S
C89 C87 1.364 . S
C89 H115 0.931 . S
C90 O104 1.256 . S
C90 O105 1.257 . S
C91 O106 1.240 . S
C91 O107 1.240 . S
C92 Gd81 2.818 . S
C92 C93 1.510 . S
C92 O108 1.249 . S
C92 O109 1.252 . S
C93 C92 1.510 . S
C93 C94 1.404 . S
C93 C95 1.352 . S
C94 C93 1.404 . S
C94 C98 1.389 . S
C94 H116 0.930 . S
C95 C93 1.352 . S
C95 C97 1.374 . S
C95 H117 0.931 . S
C96 C97 1.359 . S
C96 C98 1.364 . S
C97 C95 1.374 . S
C97 C96 1.359 . S
C97 H118 0.931 . S
C98 C94 1.389 . S
C98 C96 1.364 . S
C98 H119 0.931 . S
C99 O110 1.256 . S
C99 O111 1.257 . S
O100 Gd80 2.377 . S
O100 C82 1.240 . S
O101 Gd81 2.395 . S
O101 C82 1.240 . S
O102 Gd80 2.448 . S
O102 C83 1.249 . S
O103 Gd80 2.506 . S
O103 C83 1.252 . S
O104 Gd80 2.435 . S
O104 C90 1.256 . S
O105 Gd80 2.717 . S
O105 Gd81 2.327 . S
O105 C90 1.257 . S
O106 Gd81 2.377 . S
O106 C91 1.240 . S
O107 Gd80 2.395 . S
O107 C91 1.240 . S
O108 Gd81 2.448 . S
O108 C92 1.249 . S
O109 Gd81 2.506 . S
O109 C92 1.252 . S
O110 Gd81 2.435 . S
O110 C99 1.256 . S
O111 Gd80 2.327 . S
O111 Gd81 2.717 . S
O111 C99 1.257 . S
H112 C85 0.930 . S
H113 C86 0.931 . S
H114 C88 0.931 . S
H115 C89 0.931 . S
H116 C94 0.930 . S
H117 C95 0.931 . S
H118 C97 0.931 . S
H119 C98 0.931 . S
Gd120 C123 2.818 . S
Gd120 O140 2.377 . S
Gd120 O142 2.448 . S
Gd120 O143 2.506 . S
Gd120 O144 2.435 . S
Gd120 O145 2.717 . S
Gd120 O147 2.395 . S
Gd120 O151 2.327 . S
Gd121 C132 2.818 . S
Gd121 O141 2.395 . S
Gd121 O145 2.327 . S
Gd121 O146 2.377 . S
Gd121 O148 2.448 . S
Gd121 O149 2.506 . S
Gd121 O150 2.435 . S
Gd121 O151 2.717 . S
C122 O140 1.240 . S
C122 O141 1.240 . S
C123 Gd120 2.818 . S
C123 C124 1.510 . S
C123 O142 1.249 . S
C123 O143 1.252 . S
C124 C123 1.510 . S
C124 C125 1.404 . S
C124 C126 1.352 . S
C125 C124 1.404 . S
C125 C129 1.389 . S
C125 H152 0.930 . S
C126 C124 1.352 . S
C126 C128 1.374 . S
C126 H153 0.931 . S
C127 C128 1.359 . S
C127 C129 1.364 . S
C128 C126 1.374 . S
C128 C127 1.359 . S
C128 H154 0.931 . S
C129 C125 1.389 . S
C129 C127 1.364 . S
C129 H155 0.931 . S
C130 O144 1.256 . S
C130 O145 1.257 . S
C131 O146 1.240 . S
C131 O147 1.240 . S
C132 Gd121 2.818 . S
C132 C133 1.510 1_556 S
C132 O148 1.249 . S
C132 O149 1.252 . S
C133 C132 1.510 1_554 S
C133 C134 1.404 . S
C133 C135 1.352 . S
C134 C133 1.404 . S
C134 C138 1.389 . S
C134 H156 0.941 . S
C135 C133 1.352 . S
C135 C137 1.374 . S
C135 H157 0.931 . S
C136 C137 1.359 . S
C136 C138 1.364 . S
C137 C135 1.374 . S
C137 C136 1.359 . S
C137 H158 0.931 . S
C138 C134 1.389 . S
C138 C136 1.364 . S
C138 H159 0.931 . S
C139 O150 1.256 . S
C139 O151 1.257 . S
O140 Gd120 2.377 . S
O140 C122 1.240 . S
O141 Gd121 2.395 . S
O141 C122 1.240 . S
O142 Gd120 2.448 . S
O142 C123 1.249 . S
O143 Gd120 2.506 . S
O143 C123 1.252 . S
O144 Gd120 2.435 . S
O144 C130 1.256 . S
O145 Gd120 2.717 . S
O145 Gd121 2.327 . S
O145 C130 1.257 . S
O146 Gd121 2.377 . S
O146 C131 1.240 . S
O147 Gd120 2.395 . S
O147 C131 1.240 . S
O148 Gd121 2.448 . S
O148 C132 1.249 . S
O149 Gd121 2.506 . S
O149 C132 1.252 . S
O150 Gd121 2.435 . S
O150 C139 1.256 . S
O151 Gd120 2.327 . S
O151 Gd121 2.717 . S
O151 C139 1.257 . S
H152 C125 0.930 . S
H153 C126 0.931 . S
H154 C128 0.931 . S
H155 C129 0.931 . S
H156 C134 0.941 . S
H157 C135 0.931 . S
H158 C137 0.931 . S
H159 C138 0.931 . S
Gd160 C163 2.818 . S
Gd160 O180 2.377 . S
Gd160 O182 2.448 . S
Gd160 O183 2.506 . S
Gd160 O184 2.435 . S
Gd160 O185 2.717 . S
Gd160 O187 2.395 . S
Gd160 O191 2.327 . S
Gd161 C172 2.818 . S
Gd161 O181 2.395 . S
Gd161 O185 2.327 . S
Gd161 O186 2.377 . S
Gd161 O188 2.448 . S
Gd161 O189 2.506 . S
Gd161 O190 2.435 . S
Gd161 O191 2.717 . S
C162 O180 1.240 . S
C162 O181 1.240 . S
C163 Gd160 2.818 . S
C163 C164 1.510 . S
C163 O182 1.249 . S
C163 O183 1.252 . S
C164 C163 1.510 . S
C164 C165 1.404 . S
C164 C166 1.352 . S
C165 C164 1.404 . S
C165 C169 1.389 . S
C165 H192 0.930 . S
C166 C164 1.352 . S
C166 C168 1.374 . S
C166 H193 0.931 . S
C167 C168 1.359 . S
C167 C169 1.364 . S
C168 C166 1.374 . S
C168 C167 1.359 . S
C168 H194 0.931 . S
C169 C165 1.389 . S
C169 C167 1.364 . S
C169 H195 0.931 . S
C170 O184 1.256 . S
C170 O185 1.257 . S
C171 O186 1.240 . S
C171 O187 1.240 . S
C172 Gd161 2.818 . S
C172 C173 1.510 . S
C172 O188 1.249 . S
C172 O189 1.252 . S
C173 C172 1.510 . S
C173 C174 1.404 . S
C173 C175 1.352 . S
C174 C173 1.404 . S
C174 C178 1.389 . S
C174 H196 0.930 . S
C175 C173 1.352 . S
C175 C177 1.374 . S
C175 H197 0.931 . S
C176 C177 1.359 . S
C176 C178 1.364 . S
C177 C175 1.374 . S
C177 C176 1.359 . S
C177 H198 0.931 . S
C178 C174 1.389 . S
C178 C176 1.364 . S
C178 H199 0.931 . S
C179 O190 1.256 . S
C179 O191 1.257 . S
O180 Gd160 2.377 . S
O180 C162 1.240 . S
O181 Gd161 2.395 . S
O181 C162 1.240 . S
O182 Gd160 2.448 . S
O182 C163 1.249 . S
O183 Gd160 2.506 . S
O183 C163 1.252 . S
O184 Gd160 2.435 . S
O184 C170 1.256 . S
O185 Gd160 2.717 . S
O185 Gd161 2.327 . S
O185 C170 1.257 . S
O186 Gd161 2.377 . S
O186 C171 1.240 . S
O187 Gd160 2.395 . S
O187 C171 1.240 . S
O188 Gd161 2.448 . S
O188 C172 1.249 . S
O189 Gd161 2.506 . S
O189 C172 1.252 . S
O190 Gd161 2.435 . S
O190 C179 1.256 . S
O191 Gd160 2.327 . S
O191 Gd161 2.717 . S
O191 C179 1.257 . S
H192 C165 0.930 . S
H193 C166 0.931 . S
H194 C168 0.931 . S
H195 C169 0.931 . S
H196 C174 0.930 . S
H197 C175 0.931 . S
H198 C177 0.931 . S
H199 C178 0.931 . S
Gd200 C203 2.818 . S
Gd200 O220 2.377 . S
Gd200 O222 2.448 . S
Gd200 O223 2.506 . S
Gd200 O224 2.435 . S
Gd200 O225 2.717 . S
Gd200 O227 2.395 . S
Gd200 O231 2.327 . S
Gd201 C212 2.818 . S
Gd201 O221 2.395 . S
Gd201 O225 2.327 . S
Gd201 O226 2.377 . S
Gd201 O228 2.448 . S
Gd201 O229 2.506 . S
Gd201 O230 2.435 . S
Gd201 O231 2.717 . S
C202 O220 1.240 . S
C202 O221 1.240 . S
C203 Gd200 2.818 . S
C203 C204 1.510 . S
C203 O222 1.249 . S
C203 O223 1.252 . S
C204 C203 1.510 . S
C204 C205 1.404 . S
C204 C206 1.352 1_556 S
C205 C204 1.404 . S
C205 C209 1.389 1_556 S
C205 H232 0.930 . S
C206 C204 1.352 1_554 S
C206 C208 1.374 . S
C206 H233 0.931 1_554 S
C207 C208 1.359 . S
C207 C209 1.364 . S
C208 C206 1.374 . S
C208 C207 1.359 . S
C208 H234 0.931 . S
C209 C205 1.389 1_554 S
C209 C207 1.364 . S
C209 H235 0.931 . S
C210 O224 1.256 . S
C210 O225 1.257 . S
C211 O226 1.240 . S
C211 O227 1.240 . S
C212 Gd201 2.818 . S
C212 C213 1.510 . S
C212 O228 1.249 . S
C212 O229 1.252 . S
C213 C212 1.510 . S
C213 C214 1.404 . S
C213 C215 1.352 . S
C214 C213 1.404 . S
C214 C218 1.389 . S
C214 H236 0.930 . S
C215 C213 1.352 . S
C215 C217 1.374 . S
C215 H237 0.931 . S
C216 C217 1.359 . S
C216 C218 1.364 . S
C217 C215 1.374 . S
C217 C216 1.359 . S
C217 H238 0.931 . S
C218 C214 1.389 . S
C218 C216 1.364 . S
C218 H239 0.931 . S
C219 O230 1.256 . S
C219 O231 1.257 . S
O220 Gd200 2.377 . S
O220 C202 1.240 . S
O221 Gd201 2.395 . S
O221 C202 1.240 . S
O222 Gd200 2.448 . S
O222 C203 1.249 . S
O223 Gd200 2.506 . S
O223 C203 1.252 . S
O224 Gd200 2.435 . S
O224 C210 1.256 . S
O225 Gd200 2.717 . S
O225 Gd201 2.327 . S
O225 C210 1.257 . S
O226 Gd201 2.377 . S
O226 C211 1.240 . S
O227 Gd200 2.395 . S
O227 C211 1.240 . S
O228 Gd201 2.448 . S
O228 C212 1.249 . S
O229 Gd201 2.506 . S
O229 C212 1.252 . S
O230 Gd201 2.435 . S
O230 C219 1.256 . S
O231 Gd200 2.327 . S
O231 Gd201 2.717 . S
O231 C219 1.257 . S
H232 C205 0.930 . S
H233 C206 0.931 1_556 S
H234 C208 0.931 . S
H235 C209 0.931 . S
H236 C214 0.930 . S
H237 C215 0.931 . S
H238 C217 0.931 . S
H239 C218 0.931 . S
Gd240 C243 2.818 . S
Gd240 O260 2.377 . S
Gd240 O262 2.448 . S
Gd240 O263 2.506 . S
Gd240 O264 2.435 . S
Gd240 O265 2.717 . S
Gd240 O267 2.395 1_554 S
Gd240 O271 2.327 . S
Gd241 C252 2.818 1_554 S
Gd241 O261 2.395 . S
Gd241 O265 2.327 . S
Gd241 O266 2.377 1_554 S
Gd241 O268 2.448 1_554 S
Gd241 O269 2.506 1_554 S
Gd241 O270 2.435 . S
Gd241 O271 2.717 . S
C242 O260 1.240 . S
C242 O261 1.240 . S
C243 Gd240 2.818 . S
C243 C244 1.510 . S
C243 O262 1.249 . S
C243 O263 1.252 . S
C244 C243 1.510 . S
C244 C245 1.404 . S
C244 C246 1.352 . S
C245 C244 1.404 . S
C245 C249 1.389 . S
C245 H272 0.930 . S
C246 C244 1.352 . S
C246 C248 1.374 . S
C246 H273 0.931 . S
C247 C248 1.359 . S
C247 C249 1.364 . S
C248 C246 1.374 . S
C248 C247 1.359 . S
C248 H274 0.931 . S
C249 C245 1.389 . S
C249 C247 1.364 . S
C249 H275 0.931 . S
C250 O264 1.256 . S
C250 O265 1.257 . S
C251 O266 1.240 . S
C251 O267 1.240 . S
C252 Gd241 2.818 1_556 S
C252 C253 1.510 . S
C252 O268 1.249 . S
C252 O269 1.252 . S
C253 C252 1.510 . S
C253 C254 1.404 . S
C253 C255 1.352 . S
C254 C253 1.404 . S
C254 C258 1.389 . S
C254 H276 0.930 . S
C255 C253 1.352 . S
C255 C257 1.374 . S
C255 H277 0.931 . S
C256 C257 1.359 . S
C256 C258 1.364 . S
C257 C255 1.374 . S
C257 C256 1.359 . S
C257 H278 0.931 . S
C258 C254 1.389 . S
C258 C256 1.364 . S
C258 H279 0.931 . S
C259 O270 1.256 . S
C259 O271 1.257 . S
O260 Gd240 2.377 . S
O260 C242 1.240 . S
O261 Gd241 2.395 . S
O261 C242 1.240 . S
O262 Gd240 2.448 . S
O262 C243 1.249 . S
O263 Gd240 2.506 . S
O263 C243 1.252 . S
O264 Gd240 2.435 . S
O264 C250 1.256 . S
O265 Gd240 2.717 . S
O265 Gd241 2.327 . S
O265 C250 1.257 . S
O266 Gd241 2.377 1_556 S
O266 C251 1.240 . S
O267 Gd240 2.395 1_556 S
O267 C251 1.240 . S
O268 Gd241 2.448 1_556 S
O268 C252 1.249 . S
O269 Gd241 2.506 1_556 S
O269 C252 1.252 . S
O270 Gd241 2.435 . S
O270 C259 1.256 . S
O271 Gd240 2.327 . S
O271 Gd241 2.717 . S
O271 C259 1.257 . S
H272 C245 0.930 . S
H273 C246 0.931 . S
H274 C248 0.931 . S
H275 C249 0.931 . S
H276 C254 0.930 . S
H277 C255 0.931 . S
H278 C257 0.931 . S
H279 C258 0.931 . S
Gd280 C283 2.818 . S
Gd280 O300 2.377 . S
Gd280 O302 2.448 . S
Gd280 O303 2.506 . S
Gd280 O304 2.435 . S
Gd280 O305 2.717 . S
Gd280 O307 2.395 . S
Gd280 O311 2.327 . S
Gd281 C292 2.818 . S
Gd281 O301 2.395 . S
Gd281 O305 2.327 . S
Gd281 O306 2.377 . S
Gd281 O308 2.448 . S
Gd281 O309 2.506 . S
Gd281 O310 2.435 . S
Gd281 O311 2.717 . S
C282 O300 1.240 . S
C282 O301 1.240 . S
C283 Gd280 2.818 . S
C283 C284 1.510 . S
C283 O302 1.249 . S
C283 O303 1.252 . S
C284 C283 1.510 . S
C284 C285 1.404 . S
C284 C286 1.352 . S
C285 C284 1.404 . S
C285 C289 1.389 . S
C285 H312 0.930 . S
C286 C284 1.352 . S
C286 C288 1.374 . S
C286 H313 0.931 . S
C287 C288 1.359 . S
C287 C289 1.364 . S
C288 C286 1.374 . S
C288 C287 1.359 . S
C288 H314 0.931 . S
C289 C285 1.389 . S
C289 C287 1.364 . S
C289 H315 0.931 . S
C290 O304 1.256 . S
C290 O305 1.257 . S
C291 O306 1.240 . S
C291 O307 1.240 . S
C292 Gd281 2.818 . S
C292 C293 1.510 . S
C292 O308 1.249 . S
C292 O309 1.252 . S
C293 C292 1.510 . S
C293 C294 1.404 . S
C293 C295 1.352 . S
C294 C293 1.404 . S
C294 C298 1.389 . S
C294 H316 0.930 . S
C295 C293 1.352 . S
C295 C297 1.374 . S
C295 H317 0.931 . S
C296 C297 1.359 . S
C296 C298 1.364 . S
C297 C295 1.374 . S
C297 C296 1.359 . S
C297 H318 0.931 . S
C298 C294 1.389 . S
C298 C296 1.364 . S
C298 H319 0.931 . S
C299 O310 1.256 . S
C299 O311 1.257 . S
O300 Gd280 2.377 . S
O300 C282 1.240 . S
O301 Gd281 2.395 . S
O301 C282 1.240 . S
O302 Gd280 2.448 . S
O302 C283 1.249 . S
O303 Gd280 2.506 . S
O303 C283 1.252 . S
O304 Gd280 2.435 . S
O304 C290 1.256 . S
O305 Gd280 2.717 . S
O305 Gd281 2.327 . S
O305 C290 1.257 . S
O306 Gd281 2.377 . S
O306 C291 1.240 . S
O307 Gd280 2.395 . S
O307 C291 1.240 . S
O308 Gd281 2.448 . S
O308 C292 1.249 . S
O309 Gd281 2.506 . S
O309 C292 1.252 . S
O310 Gd281 2.435 . S
O310 C299 1.256 . S
O311 Gd280 2.327 . S
O311 Gd281 2.717 . S
O311 C299 1.257 . S
H312 C285 0.930 . S
H313 C286 0.931 . S
H314 C288 0.931 . S
H315 C289 0.931 . S
H316 C294 0.930 . S
H317 C295 0.931 . S
H318 C297 0.931 . S
H319 C298 0.931 . S
Gd320 C323 2.818 . S
Gd320 O340 2.377 . S
Gd320 O342 2.448 . S
Gd320 O343 2.506 . S
Gd320 O344 2.435 . S
Gd320 O345 2.717 . S
Gd320 O347 2.395 . S
Gd320 O351 2.327 . S
Gd321 C332 2.818 . S
Gd321 O341 2.395 . S
Gd321 O345 2.327 . S
Gd321 O346 2.377 . S
Gd321 O348 2.448 . S
Gd321 O349 2.506 . S
Gd321 O350 2.435 . S
Gd321 O351 2.717 . S
C322 O340 1.240 . S
C322 O341 1.240 . S
C323 Gd320 2.818 . S
C323 C324 1.510 . S
C323 O342 1.249 . S
C323 O343 1.252 . S
C324 C323 1.510 . S
C324 C325 1.404 . S
C324 C326 1.352 . S
C325 C324 1.404 . S
C325 C329 1.389 . S
C325 H352 0.930 . S
C326 C324 1.352 . S
C326 C328 1.374 . S
C326 H353 0.931 . S
C327 C328 1.359 . S
C327 C329 1.364 . S
C328 C326 1.374 . S
C328 C327 1.359 . S
C328 H354 0.931 . S
C329 C325 1.389 . S
C329 C327 1.364 . S
C329 H355 0.931 . S
C330 O344 1.256 . S
C330 O345 1.257 . S
C331 O346 1.240 . S
C331 O347 1.240 . S
C332 Gd321 2.818 . S
C332 C333 1.510 . S
C332 O348 1.249 . S
C332 O349 1.252 . S
C333 C332 1.510 . S
C333 C334 1.404 1_655 S
C333 C335 1.352 . S
C334 C333 1.404 1_455 S
C334 C338 1.389 1_554 S
C334 H356 0.930 . S
C335 C333 1.352 . S
C335 C337 1.374 1_554 S
C335 H357 0.931 . S
C336 C337 1.359 . S
C336 C338 1.364 1_655 S
C337 C335 1.374 1_556 S
C337 C336 1.359 . S
C337 H358 0.931 . S
C338 C334 1.389 1_556 S
C338 C336 1.364 1_455 S
C338 H359 0.931 . S
C339 O350 1.256 . S
C339 O351 1.257 . S
O340 Gd320 2.377 . S
O340 C322 1.240 . S
O341 Gd321 2.395 . S
O341 C322 1.240 . S
O342 Gd320 2.448 . S
O342 C323 1.249 . S
O343 Gd320 2.506 . S
O343 C323 1.252 . S
O344 Gd320 2.435 . S
O344 C330 1.256 . S
O345 Gd320 2.717 . S
O345 Gd321 2.327 . S
O345 C330 1.257 . S
O346 Gd321 2.377 . S
O346 C331 1.240 . S
O347 Gd320 2.395 . S
O347 C331 1.240 . S
O348 Gd321 2.448 . S
O348 C332 1.249 . S
O349 Gd321 2.506 . S
O349 C332 1.252 . S
O350 Gd321 2.435 . S
O350 C339 1.256 . S
O351 Gd320 2.327 . S
O351 Gd321 2.717 . S
O351 C339 1.257 . S
H352 C325 0.930 . S
H353 C326 0.931 . S
H354 C328 0.931 . S
H355 C329 0.931 . S
H356 C334 0.930 . S
H357 C335 0.931 . S
H358 C337 0.931 . S
H359 C338 0.931 . S
Gd360 C363 2.818 1_556 S
Gd360 O380 2.377 1_556 S
Gd360 O382 2.448 1_556 S
Gd360 O383 2.506 1_556 S
Gd360 O384 2.435 . S
Gd360 O385 2.717 . S
Gd360 O387 2.395 . S
Gd360 O391 2.327 . S
Gd361 C372 2.818 . S
Gd361 O381 2.395 1_556 S
Gd361 O385 2.327 . S
Gd361 O386 2.377 . S
Gd361 O388 2.448 . S
Gd361 O389 2.506 . S
Gd361 O390 2.435 . S
Gd361 O391 2.717 . S
C362 O380 1.240 . S
C362 O381 1.240 . S
C363 Gd360 2.818 1_554 S
C363 C364 1.510 . S
C363 O382 1.249 . S
C363 O383 1.252 . S
C364 C363 1.510 . S
C364 C365 1.404 . S
C364 C366 1.352 . S
C365 C364 1.404 . S
C365 C369 1.389 . S
C365 H392 0.930 . S
C366 C364 1.352 . S
C366 C368 1.374 . S
C366 H393 0.931 . S
C367 C368 1.359 . S
C367 C369 1.364 . S
C368 C366 1.374 . S
C368 C367 1.359 . S
C368 H394 0.931 . S
C369 C365 1.389 . S
C369 C367 1.364 . S
C369 H395 0.931 . S
C370 O384 1.256 . S
C370 O385 1.257 . S
C371 O386 1.240 . S
C371 O387 1.240 . S
C372 Gd361 2.818 . S
C372 C373 1.510 . S
C372 O388 1.249 . S
C372 O389 1.252 . S
C373 C372 1.510 . S
C373 C374 1.404 . S
C373 C375 1.352 . S
C374 C373 1.404 . S
C374 C378 1.389 . S
C374 H396 0.930 . S
C375 C373 1.352 . S
C375 C377 1.374 . S
C375 H397 0.931 . S
C376 C377 1.359 . S
C376 C378 1.364 . S
C377 C375 1.374 . S
C377 C376 1.359 . S
C377 H398 0.931 . S
C378 C374 1.389 . S
C378 C376 1.364 . S
C378 H399 0.931 . S
C379 O390 1.256 . S
C379 O391 1.257 . S
O380 Gd360 2.377 1_554 S
O380 C362 1.240 . S
O381 Gd361 2.395 1_554 S
O381 C362 1.240 . S
O382 Gd360 2.448 1_554 S
O382 C363 1.249 . S
O383 Gd360 2.506 1_554 S
O383 C363 1.252 . S
O384 Gd360 2.435 . S
O384 C370 1.256 . S
O385 Gd360 2.717 . S
O385 Gd361 2.327 . S
O385 C370 1.257 . S
O386 Gd361 2.377 . S
O386 C371 1.240 . S
O387 Gd360 2.395 . S
O387 C371 1.240 . S
O388 Gd361 2.448 . S
O388 C372 1.249 . S
O389 Gd361 2.506 . S
O389 C372 1.252 . S
O390 Gd361 2.435 . S
O390 C379 1.256 . S
O391 Gd360 2.327 . S
O391 Gd361 2.717 . S
O391 C379 1.257 . S
H392 C365 0.930 . S
H393 C366 0.931 . S
H394 C368 0.931 . S
H395 C369 0.931 . S
H396 C374 0.930 . S
H397 C375 0.931 . S
H398 C377 0.931 . S
H399 C378 0.931 . S
Gd400 C403 2.818 . S
Gd400 O420 2.377 . S
Gd400 O422 2.448 . S
Gd400 O423 2.506 . S
Gd400 O424 2.435 . S
Gd400 O425 2.717 . S
Gd400 O427 2.395 . S
Gd400 O431 2.327 . S
Gd401 C412 2.818 . S
Gd401 O421 2.395 . S
Gd401 O425 2.327 . S
Gd401 O426 2.377 . S
Gd401 O428 2.448 . S
Gd401 O429 2.506 . S
Gd401 O430 2.435 . S
Gd401 O431 2.717 . S
C402 O420 1.240 . S
C402 O421 1.240 . S
C403 Gd400 2.818 . S
C403 C404 1.510 . S
C403 O422 1.249 . S
C403 O423 1.252 . S
C404 C403 1.510 . S
C404 C405 1.404 . S
C404 C406 1.352 . S
C405 C404 1.404 . S
C405 C409 1.389 . S
C405 H432 0.930 . S
C406 C404 1.352 . S
C406 C408 1.374 . S
C406 H433 0.931 . S
C407 C408 1.359 . S
C407 C409 1.364 . S
C408 C406 1.374 . S
C408 C407 1.359 . S
C408 H434 0.931 . S
C409 C405 1.389 . S
C409 C407 1.364 . S
C409 H435 0.931 . S
C410 O424 1.256 . S
C410 O425 1.257 . S
C411 O426 1.240 . S
C411 O427 1.240 . S
C412 Gd401 2.818 . S
C412 C413 1.510 . S
C412 O428 1.249 . S
C412 O429 1.252 . S
C413 C412 1.510 . S
C413 C414 1.404 . S
C413 C415 1.352 . S
C414 C413 1.404 . S
C414 C418 1.389 . S
C414 H436 0.930 . S
C415 C413 1.352 . S
C415 C417 1.374 . S
C415 H437 0.931 . S
C416 C417 1.359 . S
C416 C418 1.364 . S
C417 C415 1.374 . S
C417 C416 1.359 . S
C417 H438 0.931 . S
C418 C414 1.389 . S
C418 C416 1.364 . S
C418 H439 0.931 . S
C419 O430 1.256 . S
C419 O431 1.257 . S
O420 Gd400 2.377 . S
O420 C402 1.240 . S
O421 Gd401 2.395 . S
O421 C402 1.240 . S
O422 Gd400 2.448 . S
O422 C403 1.249 . S
O423 Gd400 2.506 . S
O423 C403 1.252 . S
O424 Gd400 2.435 . S
O424 C410 1.256 . S
O425 Gd400 2.717 . S
O425 Gd401 2.327 . S
O425 C410 1.257 . S
O426 Gd401 2.377 . S
O426 C411 1.240 . S
O427 Gd400 2.395 . S
O427 C411 1.240 . S
O428 Gd401 2.448 . S
O428 C412 1.249 . S
O429 Gd401 2.506 . S
O429 C412 1.252 . S
O430 Gd401 2.435 . S
O430 C419 1.256 . S
O431 Gd400 2.327 . S
O431 Gd401 2.717 . S
O431 C419 1.257 . S
H432 C405 0.930 . S
H433 C406 0.931 . S
H434 C408 0.931 . S
H435 C409 0.931 . S
H436 C414 0.930 . S
H437 C415 0.931 . S
H438 C417 0.931 . S
H439 C418 0.931 . S
Gd440 C443 2.818 . S
Gd440 O460 2.377 . S
Gd440 O462 2.448 . S
Gd440 O463 2.506 . S
Gd440 O464 2.435 . S
Gd440 O465 2.717 . S
Gd440 O467 2.395 . S
Gd440 O471 2.327 . S
Gd441 C452 2.818 . S
Gd441 O461 2.395 . S
Gd441 O465 2.327 . S
Gd441 O466 2.377 . S
Gd441 O468 2.448 . S
Gd441 O469 2.506 . S
Gd441 O470 2.435 . S
Gd441 O471 2.717 . S
C442 O460 1.240 . S
C442 O461 1.240 . S
C443 Gd440 2.818 . S
C443 C444 1.510 . S
C443 O462 1.249 . S
C443 O463 1.252 . S
C444 C443 1.510 . S
C444 C445 1.404 . S
C444 C446 1.352 . S
C445 C444 1.404 . S
C445 C449 1.389 . S
C445 H472 0.930 . S
C446 C444 1.352 . S
C446 C448 1.374 . S
C446 H473 0.931 . S
C447 C448 1.359 . S
C447 C449 1.364 . S
C448 C446 1.374 . S
C448 C447 1.359 . S
C448 H474 0.931 . S
C449 C445 1.389 . S
C449 C447 1.364 . S
C449 H475 0.931 . S
C450 O464 1.256 . S
C450 O465 1.257 . S
C451 O466 1.240 . S
C451 O467 1.240 . S
C452 Gd441 2.818 . S
C452 C453 1.510 . S
C452 O468 1.249 . S
C452 O469 1.252 . S
C453 C452 1.510 . S
C453 C454 1.404 . S
C453 C455 1.352 . S
C454 C453 1.404 . S
C454 C458 1.389 . S
C454 H476 0.930 . S
C455 C453 1.352 . S
C455 C457 1.374 . S
C455 H477 0.931 . S
C456 C457 1.359 . S
C456 C458 1.364 . S
C457 C455 1.374 . S
C457 C456 1.359 . S
C457 H478 0.931 . S
C458 C454 1.389 . S
C458 C456 1.364 . S
C458 H479 0.931 . S
C459 O470 1.256 . S
C459 O471 1.257 . S
O460 Gd440 2.377 . S
O460 C442 1.240 . S
O461 Gd441 2.395 . S
O461 C442 1.240 . S
O462 Gd440 2.448 . S
O462 C443 1.249 . S
O463 Gd440 2.506 . S
O463 C443 1.252 . S
O464 Gd440 2.435 . S
O464 C450 1.256 . S
O465 Gd440 2.717 . S
O465 Gd441 2.327 . S
O465 C450 1.257 . S
O466 Gd441 2.377 . S
O466 C451 1.240 . S
O467 Gd440 2.395 . S
O467 C451 1.240 . S
O468 Gd441 2.448 . S
O468 C452 1.249 . S
O469 Gd441 2.506 . S
O469 C452 1.252 . S
O470 Gd441 2.435 . S
O470 C459 1.256 . S
O471 Gd440 2.327 . S
O471 Gd441 2.717 . S
O471 C459 1.257 . S
H472 C445 0.930 . S
H473 C446 0.931 . S
H474 C448 0.931 . S
H475 C449 0.931 . S
H476 C454 0.930 . S
H477 C455 0.931 . S
H478 C457 0.931 . S
H479 C458 0.931 . S
Gd480 C483 2.818 . S
Gd480 O500 2.377 . S
Gd480 O502 2.448 . S
Gd480 O503 2.506 . S
Gd480 O504 2.435 . S
Gd480 O505 2.717 . S
Gd480 O507 2.395 . S
Gd480 O511 2.327 . S
Gd481 C492 2.818 . S
Gd481 O501 2.395 . S
Gd481 O505 2.327 . S
Gd481 O506 2.377 . S
Gd481 O508 2.448 . S
Gd481 O509 2.506 . S
Gd481 O510 2.435 . S
Gd481 O511 2.717 . S
C482 O500 1.240 . S
C482 O501 1.240 . S
C483 Gd480 2.818 . S
C483 C484 1.510 . S
C483 O502 1.249 . S
C483 O503 1.252 . S
C484 C483 1.510 . S
C484 C485 1.404 . S
C484 C486 1.352 . S
C485 C484 1.404 . S
C485 C489 1.389 . S
C485 H512 0.930 . S
C486 C484 1.352 . S
C486 C488 1.374 1_556 S
C486 H513 0.931 . S
C487 C488 1.359 . S
C487 C489 1.364 1_554 S
C488 C486 1.374 1_554 S
C488 C487 1.359 . S
C488 H514 0.931 . S
C489 C485 1.389 . S
C489 C487 1.364 1_556 S
C489 H515 0.931 1_556 S
C490 O504 1.256 . S
C490 O505 1.257 . S
C491 O506 1.240 . S
C491 O507 1.240 . S
C492 Gd481 2.818 . S
C492 C493 1.510 . S
C492 O508 1.249 . S
C492 O509 1.252 . S
C493 C492 1.510 . S
C493 C494 1.404 . S
C493 C495 1.352 . S
C494 C493 1.404 . S
C494 C498 1.389 . S
C494 H516 0.930 . S
C495 C493 1.352 . S
C495 C497 1.374 . S
C495 H517 0.931 . S
C496 C497 1.359 . S
C496 C498 1.364 . S
C497 C495 1.374 . S
C497 C496 1.359 . S
C497 H518 0.931 . S
C498 C494 1.389 . S
C498 C496 1.364 . S
C498 H519 0.931 . S
C499 O510 1.256 . S
C499 O511 1.257 . S
O500 Gd480 2.377 . S
O500 C482 1.240 . S
O501 Gd481 2.395 . S
O501 C482 1.240 . S
O502 Gd480 2.448 . S
O502 C483 1.249 . S
O503 Gd480 2.506 . S
O503 C483 1.252 . S
O504 Gd480 2.435 . S
O504 C490 1.256 . S
O505 Gd480 2.717 . S
O505 Gd481 2.327 . S
O505 C490 1.257 . S
O506 Gd481 2.377 . S
O506 C491 1.240 . S
O507 Gd480 2.395 . S
O507 C491 1.240 . S
O508 Gd481 2.448 . S
O508 C492 1.249 . S
O509 Gd481 2.506 . S
O509 C492 1.252 . S
O510 Gd481 2.435 . S
O510 C499 1.256 . S
O511 Gd480 2.327 . S
O511 Gd481 2.717 . S
O511 C499 1.257 . S
H512 C485 0.930 . S
H513 C486 0.931 . S
H514 C488 0.931 . S
H515 C489 0.931 1_554 S
H516 C494 0.930 . S
H517 C495 0.931 . S
H518 C497 0.931 . S
H519 C498 0.931 . S
Gd520 C523 2.818 . S
Gd520 O540 2.377 . S
Gd520 O542 2.448 . S
Gd520 O543 2.506 . S
Gd520 O544 2.435 . S
Gd520 O545 2.717 . S
Gd520 O547 2.395 . S
Gd520 O551 2.327 . S
Gd521 C532 2.818 . S
Gd521 O541 2.395 . S
Gd521 O545 2.327 . S
Gd521 O546 2.377 . S
Gd521 O548 2.448 . S
Gd521 O549 2.506 . S
Gd521 O550 2.435 . S
Gd521 O551 2.717 . S
C522 O540 1.240 . S
C522 O541 1.240 . S
C523 Gd520 2.818 . S
C523 C524 1.510 . S
C523 O542 1.249 . S
C523 O543 1.252 . S
C524 C523 1.510 . S
C524 C525 1.404 . S
C524 C526 1.352 . S
C525 C524 1.404 . S
C525 C529 1.389 . S
C525 H552 0.930 . S
C526 C524 1.352 . S
C526 C528 1.374 . S
C526 H553 0.931 . S
C527 C528 1.359 . S
C527 C529 1.364 . S
C528 C526 1.374 . S
C528 C527 1.359 . S
C528 H554 0.931 . S
C529 C525 1.389 . S
C529 C527 1.364 . S
C529 H555 0.931 . S
C530 O544 1.256 . S
C530 O545 1.257 . S
C531 O546 1.240 . S
C531 O547 1.240 . S
C532 Gd521 2.818 . S
C532 C533 1.510 . S
C532 O548 1.249 . S
C532 O549 1.252 . S
C533 C532 1.510 . S
C533 C534 1.404 . S
C533 C535 1.352 . S
C534 C533 1.404 . S
C534 C538 1.389 . S
C534 H556 0.930 . S
C535 C533 1.352 . S
C535 C537 1.374 . S
C535 H557 0.931 . S
C536 C537 1.359 . S
C536 C538 1.364 . S
C537 C535 1.374 . S
C537 C536 1.359 . S
C537 H558 0.931 . S
C538 C534 1.389 . S
C538 C536 1.364 . S
C538 H559 0.931 . S
C539 O550 1.256 . S
C539 O551 1.257 . S
O540 Gd520 2.377 . S
O540 C522 1.240 . S
O541 Gd521 2.395 . S
O541 C522 1.240 . S
O542 Gd520 2.448 . S
O542 C523 1.249 . S
O543 Gd520 2.506 . S
O543 C523 1.252 . S
O544 Gd520 2.435 . S
O544 C530 1.256 . S
O545 Gd520 2.717 . S
O545 Gd521 2.327 . S
O545 C530 1.257 . S
O546 Gd521 2.377 . S
O546 C531 1.240 . S
O547 Gd520 2.395 . S
O547 C531 1.240 . S
O548 Gd521 2.448 . S
O548 C532 1.249 . S
O549 Gd521 2.506 . S
O549 C532 1.252 . S
O550 Gd521 2.435 . S
O550 C539 1.256 . S
O551 Gd520 2.327 . S
O551 Gd521 2.717 . S
O551 C539 1.257 . S
H552 C525 0.930 . S
H553 C526 0.931 . S
H554 C528 0.931 . S
H555 C529 0.931 . S
H556 C534 0.930 . S
H557 C535 0.931 . S
H558 C537 0.931 . S
H559 C538 0.931 . S
Gd560 C563 2.818 . S
Gd560 O580 2.377 . S
Gd560 O582 2.448 . S
Gd560 O583 2.506 . S
Gd560 O584 2.435 . S
Gd560 O585 2.717 . S
Gd560 O587 2.395 . S
Gd560 O591 2.327 . S
Gd561 C572 2.818 . S
Gd561 O581 2.395 . S
Gd561 O585 2.327 . S
Gd561 O586 2.377 . S
Gd561 O588 2.448 . S
Gd561 O589 2.506 . S
Gd561 O590 2.435 . S
Gd561 O591 2.717 . S
C562 O580 1.240 . S
C562 O581 1.240 . S
C563 Gd560 2.818 . S
C563 C564 1.510 . S
C563 O582 1.249 . S
C563 O583 1.252 . S
C564 C563 1.510 . S
C564 C565 1.404 . S
C564 C566 1.352 . S
C565 C564 1.404 . S
C565 C569 1.389 . S
C565 H592 0.930 . S
C566 C564 1.352 . S
C566 C568 1.374 . S
C566 H593 0.931 . S
C567 C568 1.359 . S
C567 C569 1.364 . S
C568 C566 1.374 . S
C568 C567 1.359 . S
C568 H594 0.931 . S
C569 C565 1.389 . S
C569 C567 1.364 . S
C569 H595 0.931 . S
C570 O584 1.256 . S
C570 O585 1.257 . S
C571 O586 1.240 . S
C571 O587 1.240 . S
C572 Gd561 2.818 . S
C572 C573 1.510 . S
C572 O588 1.249 . S
C572 O589 1.252 . S
C573 C572 1.510 . S
C573 C574 1.404 . S
C573 C575 1.352 . S
C574 C573 1.404 . S
C574 C578 1.389 . S
C574 H596 0.930 . S
C575 C573 1.352 . S
C575 C577 1.374 . S
C575 H597 0.931 . S
C576 C577 1.359 . S
C576 C578 1.364 . S
C577 C575 1.374 . S
C577 C576 1.359 . S
C577 H598 0.931 1_554 S
C578 C574 1.389 . S
C578 C576 1.364 . S
C578 H599 0.931 . S
C579 O590 1.256 . S
C579 O591 1.257 . S
O580 Gd560 2.377 . S
O580 C562 1.240 . S
O581 Gd561 2.395 . S
O581 C562 1.240 . S
O582 Gd560 2.448 . S
O582 C563 1.249 . S
O583 Gd560 2.506 . S
O583 C563 1.252 . S
O584 Gd560 2.435 . S
O584 C570 1.256 . S
O585 Gd560 2.717 . S
O585 Gd561 2.327 . S
O585 C570 1.257 . S
O586 Gd561 2.377 . S
O586 C571 1.240 . S
O587 Gd560 2.395 . S
O587 C571 1.240 . S
O588 Gd561 2.448 . S
O588 C572 1.249 . S
O589 Gd561 2.506 . S
O589 C572 1.252 . S
O590 Gd561 2.435 . S
O590 C579 1.256 . S
O591 Gd560 2.327 . S
O591 Gd561 2.717 . S
O591 C579 1.257 . S
H592 C565 0.930 . S
H593 C566 0.931 . S
H594 C568 0.931 . S
H595 C569 0.931 . S
H596 C574 0.930 . S
H597 C575 0.931 . S
H598 C577 0.931 1_556 S
H599 C578 0.931 . S
Gd600 C603 2.818 . S
Gd600 O620 2.377 . S
Gd600 O622 2.448 . S
Gd600 O623 2.506 . S
Gd600 O624 2.435 . S
Gd600 O625 2.717 . S
Gd600 O627 2.395 . S
Gd600 O631 2.327 . S
Gd601 C612 2.818 . S
Gd601 O621 2.395 . S
Gd601 O625 2.327 . S
Gd601 O626 2.377 . S
Gd601 O628 2.448 . S
Gd601 O629 2.506 . S
Gd601 O630 2.435 . S
Gd601 O631 2.717 . S
C602 O620 1.240 . S
C602 O621 1.240 . S
C603 Gd600 2.818 . S
C603 C604 1.510 1_556 S
C603 O622 1.249 . S
C603 O623 1.252 . S
C604 C603 1.510 1_554 S
C604 C605 1.404 . S
C604 C606 1.352 . S
C605 C604 1.404 . S
C605 C609 1.389 . S
C605 H632 0.930 . S
C606 C604 1.352 . S
C606 C608 1.374 . S
C606 H633 0.931 . S
C607 C608 1.359 . S
C607 C609 1.364 . S
C608 C606 1.374 . S
C608 C607 1.359 . S
C608 H634 0.931 . S
C609 C605 1.389 . S
C609 C607 1.364 . S
C609 H635 0.931 . S
C610 O624 1.256 . S
C610 O625 1.257 . S
C611 O626 1.240 . S
C611 O627 1.240 . S
C612 Gd601 2.818 . S
C612 C613 1.510 . S
C612 O628 1.249 . S
C612 O629 1.252 . S
C613 C612 1.510 . S
C613 C614 1.404 . S
C613 C615 1.352 . S
C614 C613 1.404 . S
C614 C618 1.389 . S
C614 H636 0.930 . S
C615 C613 1.352 . S
C615 C617 1.374 . S
C615 H637 0.931 . S
C616 C617 1.359 . S
C616 C618 1.364 . S
C617 C615 1.374 . S
C617 C616 1.359 . S
C617 H638 0.931 . S
C618 C614 1.389 . S
C618 C616 1.364 . S
C618 H639 0.931 . S
C619 O630 1.256 . S
C619 O631 1.257 . S
O620 Gd600 2.377 . S
O620 C602 1.240 . S
O621 Gd601 2.395 . S
O621 C602 1.240 . S
O622 Gd600 2.448 . S
O622 C603 1.249 . S
O623 Gd600 2.506 . S
O623 C603 1.252 . S
O624 Gd600 2.435 . S
O624 C610 1.256 . S
O625 Gd600 2.717 . S
O625 Gd601 2.327 . S
O625 C610 1.257 . S
O626 Gd601 2.377 . S
O626 C611 1.240 . S
O627 Gd600 2.395 . S
O627 C611 1.240 . S
O628 Gd601 2.448 . S
O628 C612 1.249 . S
O629 Gd601 2.506 . S
O629 C612 1.252 . S
O630 Gd601 2.435 . S
O630 C619 1.256 . S
O631 Gd600 2.327 . S
O631 Gd601 2.717 . S
O631 C619 1.257 . S
H632 C605 0.930 . S
H633 C606 0.931 . S
H634 C608 0.931 . S
H635 C609 0.931 . S
H636 C614 0.930 . S
H637 C615 0.931 . S
H638 C617 0.931 . S
H639 C618 0.931 . S
Gd640 C643 2.818 . S
Gd640 O660 2.377 . S
Gd640 O662 2.448 . S
Gd640 O663 2.506 . S
Gd640 O664 2.435 . S
Gd640 O665 2.717 . S
Gd640 O667 2.395 . S
Gd640 O671 2.327 . S
Gd641 C652 2.818 . S
Gd641 O661 2.395 . S
Gd641 O665 2.327 . S
Gd641 O666 2.377 . S
Gd641 O668 2.448 . S
Gd641 O669 2.506 . S
Gd641 O670 2.435 . S
Gd641 O671 2.717 . S
C642 O660 1.240 . S
C642 O661 1.240 . S
C643 Gd640 2.818 . S
C643 C644 1.510 . S
C643 O662 1.249 . S
C643 O663 1.252 . S
C644 C643 1.510 . S
C644 C645 1.404 . S
C644 C646 1.352 . S
C645 C644 1.404 . S
C645 C649 1.389 . S
C645 H672 0.930 . S
C646 C644 1.352 . S
C646 C648 1.374 . S
C646 H673 0.931 . S
C647 C648 1.359 . S
C647 C649 1.364 . S
C648 C646 1.374 . S
C648 C647 1.359 . S
C648 H674 0.931 . S
C649 C645 1.389 . S
C649 C647 1.364 . S
C649 H675 0.931 . S
C650 O664 1.256 . S
C650 O665 1.257 . S
C651 O666 1.240 . S
C651 O667 1.240 . S
C652 Gd641 2.818 . S
C652 C653 1.510 . S
C652 O668 1.249 . S
C652 O669 1.252 . S
C653 C652 1.510 . S
C653 C654 1.404 . S
C653 C655 1.352 . S
C654 C653 1.404 . S
C654 C658 1.389 . S
C654 H676 0.930 . S
C655 C653 1.352 . S
C655 C657 1.374 . S
C655 H677 0.931 . S
C656 C657 1.359 . S
C656 C658 1.364 . S
C657 C655 1.374 . S
C657 C656 1.359 . S
C657 H678 0.931 . S
C658 C654 1.389 . S
C658 C656 1.364 . S
C658 H679 0.931 . S
C659 O670 1.256 . S
C659 O671 1.257 . S
O660 Gd640 2.377 . S
O660 C642 1.240 . S
O661 Gd641 2.395 . S
O661 C642 1.240 . S
O662 Gd640 2.448 . S
O662 C643 1.249 . S
O663 Gd640 2.506 . S
O663 C643 1.252 . S
O664 Gd640 2.435 . S
O664 C650 1.256 . S
O665 Gd640 2.717 . S
O665 Gd641 2.327 . S
O665 C650 1.257 . S
O666 Gd641 2.377 . S
O666 C651 1.240 . S
O667 Gd640 2.395 . S
O667 C651 1.240 . S
O668 Gd641 2.448 . S
O668 C652 1.249 . S
O669 Gd641 2.506 . S
O669 C652 1.252 . S
O670 Gd641 2.435 . S
O670 C659 1.256 . S
O671 Gd640 2.327 . S
O671 Gd641 2.717 . S
O671 C659 1.257 . S
H672 C645 0.930 . S
H673 C646 0.931 . S
H674 C648 0.931 . S
H675 C649 0.931 . S
H676 C654 0.930 . S
H677 C655 0.931 . S
H678 C657 0.931 . S
H679 C658 0.931 . S
Gd680 C683 2.818 . S
Gd680 O700 2.377 . S
Gd680 O702 2.448 . S
Gd680 O703 2.506 . S
Gd680 O704 2.435 . S
Gd680 O705 2.717 . S
Gd680 O707 2.395 . S
Gd680 O711 2.327 . S
Gd681 C692 2.818 . S
Gd681 O701 2.395 . S
Gd681 O705 2.327 . S
Gd681 O706 2.377 . S
Gd681 O708 2.448 . S
Gd681 O709 2.506 . S
Gd681 O710 2.435 . S
Gd681 O711 2.717 . S
C682 O700 1.240 . S
C682 O701 1.240 . S
C683 Gd680 2.818 . S
C683 C684 1.510 1_556 S
C683 O702 1.249 . S
C683 O703 1.252 . S
C684 C683 1.510 1_554 S
C684 C685 1.404 . S
C684 C686 1.352 . S
C685 C684 1.404 . S
C685 C689 1.389 . S
C685 H712 0.930 . S
C686 C684 1.352 . S
C686 C688 1.374 . S
C686 H713 0.931 . S
C687 C688 1.359 . S
C687 C689 1.364 . S
C688 C686 1.374 . S
C688 C687 1.359 . S
C688 H714 0.931 . S
C689 C685 1.389 . S
C689 C687 1.364 . S
C689 H715 0.931 . S
C690 O704 1.256 . S
C690 O705 1.257 . S
C691 O706 1.240 . S
C691 O707 1.240 . S
C692 Gd681 2.818 . S
C692 C693 1.510 . S
C692 O708 1.249 . S
C692 O709 1.252 . S
C693 C692 1.510 . S
C693 C694 1.404 . S
C693 C695 1.352 . S
C694 C693 1.404 . S
C694 C698 1.389 . S
C694 H716 0.930 . S
C695 C693 1.352 . S
C695 C697 1.374 . S
C695 H717 0.931 . S
C696 C697 1.359 . S
C696 C698 1.364 . S
C697 C695 1.374 . S
C697 C696 1.359 . S
C697 H718 0.931 . S
C698 C694 1.389 . S
C698 C696 1.364 . S
C698 H719 0.931 . S
C699 O710 1.256 . S
C699 O711 1.257 . S
O700 Gd680 2.377 . S
O700 C682 1.240 . S
O701 Gd681 2.395 . S
O701 C682 1.240 . S
O702 Gd680 2.448 . S
O702 C683 1.249 . S
O703 Gd680 2.506 . S
O703 C683 1.252 . S
O704 Gd680 2.435 . S
O704 C690 1.256 . S
O705 Gd680 2.717 . S
O705 Gd681 2.327 . S
O705 C690 1.257 . S
O706 Gd681 2.377 . S
O706 C691 1.240 . S
O707 Gd680 2.395 . S
O707 C691 1.240 . S
O708 Gd681 2.448 . S
O708 C692 1.249 . S
O709 Gd681 2.506 . S
O709 C692 1.252 . S
O710 Gd681 2.435 . S
O710 C699 1.256 . S
O711 Gd680 2.327 . S
O711 Gd681 2.717 . S
O711 C699 1.257 . S
H712 C685 0.930 . S
H713 C686 0.931 . S
H714 C688 0.931 . S
H715 C689 0.931 . S
H716 C694 0.930 . S
H717 C695 0.931 . S
H718 C697 0.931 . S
H719 C698 0.931 . S
Gd720 C723 2.818 . S
Gd720 O740 2.377 . S
Gd720 O742 2.448 1_655 S
Gd720 O743 2.506 . S
Gd720 O744 2.435 1_655 S
Gd720 O745 2.717 . S
Gd720 O747 2.395 . S
Gd720 O751 2.327 . S
Gd721 C732 2.818 . S
Gd721 O741 2.395 . S
Gd721 O745 2.327 . S
Gd721 O746 2.377 . S
Gd721 O748 2.448 . S
Gd721 O749 2.506 . S
Gd721 O750 2.435 . S
Gd721 O751 2.717 . S
C722 O740 1.240 . S
C722 O741 1.240 . S
C723 Gd720 2.818 . S
C723 C724 1.510 . S
C723 O742 1.249 1_655 S
C723 O743 1.252 . S
C724 C723 1.510 . S
C724 C725 1.404 1_655 S
C724 C726 1.352 . S
C725 C724 1.404 1_455 S
C725 C729 1.389 . S
C725 H752 0.930 . S
C726 C724 1.352 . S
C726 C728 1.374 . S
C726 H753 0.931 . S
C727 C728 1.359 1_455 S
C727 C729 1.364 . S
C728 C726 1.374 . S
C728 C727 1.359 1_655 S
C728 H754 0.931 . S
C729 C725 1.389 . S
C729 C727 1.364 . S
C729 H755 0.931 . S
C730 O744 1.256 1_655 S
C730 O745 1.257 . S
C731 O746 1.240 . S
C731 O747 1.240 . S
C732 Gd721 2.818 . S
C732 C733 1.510 1_554 S
C732 O748 1.249 . S
C732 O749 1.252 . S
C733 C732 1.510 1_556 S
C733 C734 1.404 . S
C733 C735 1.352 . S
C734 C733 1.404 . S
C734 C738 1.389 . S
C734 H756 0.930 . S
C735 C733 1.352 . S
C735 C737 1.374 . S
C735 H757 0.931 . S
C736 C737 1.359 . S
C736 C738 1.364 . S
C737 C735 1.374 . S
C737 C736 1.359 . S
C737 H758 0.931 . S
C738 C734 1.389 . S
C738 C736 1.364 . S
C738 H759 0.931 . S
C739 O750 1.256 . S
C739 O751 1.257 . S
O740 Gd720 2.377 . S
O740 C722 1.240 . S
O741 Gd721 2.395 . S
O741 C722 1.240 . S
O742 Gd720 2.448 1_455 S
O742 C723 1.249 1_455 S
O743 Gd720 2.506 . S
O743 C723 1.252 . S
O744 Gd720 2.435 1_455 S
O744 C730 1.256 1_455 S
O745 Gd720 2.717 . S
O745 Gd721 2.327 . S
O745 C730 1.257 . S
O746 Gd721 2.377 . S
O746 C731 1.240 . S
O747 Gd720 2.395 . S
O747 C731 1.240 . S
O748 Gd721 2.448 . S
O748 C732 1.249 . S
O749 Gd721 2.506 . S
O749 C732 1.252 . S
O750 Gd721 2.435 . S
O750 C739 1.256 . S
O751 Gd720 2.327 . S
O751 Gd721 2.717 . S
O751 C739 1.257 . S
H752 C725 0.930 . S
H753 C726 0.931 . S
H754 C728 0.931 . S
H755 C729 0.931 . S
H756 C734 0.930 . S
H757 C735 0.931 . S
H758 C737 0.931 . S
H759 C738 0.931 . S
Gd760 C763 2.818 . S
Gd760 O780 2.377 . S
Gd760 O782 2.448 . S
Gd760 O783 2.506 . S
Gd760 O784 2.435 . S
Gd760 O785 2.717 . S
Gd760 O787 2.395 . S
Gd760 O791 2.327 . S
Gd761 C772 2.818 . S
Gd761 O781 2.395 . S
Gd761 O785 2.327 . S
Gd761 O786 2.377 . S
Gd761 O788 2.448 . S
Gd761 O789 2.506 . S
Gd761 O790 2.435 . S
Gd761 O791 2.717 . S
C762 O780 1.240 . S
C762 O781 1.240 . S
C763 Gd760 2.818 . S
C763 C764 1.510 . S
C763 O782 1.249 . S
C763 O783 1.252 . S
C764 C763 1.510 . S
C764 C765 1.404 . S
C764 C766 1.352 . S
C765 C764 1.404 . S
C765 C769 1.389 . S
C765 H792 0.930 . S
C766 C764 1.352 . S
C766 C768 1.374 . S
C766 H793 0.931 . S
C767 C768 1.359 . S
C767 C769 1.364 . S
C768 C766 1.374 . S
C768 C767 1.359 . S
C768 H794 0.931 . S
C769 C765 1.389 . S
C769 C767 1.364 . S
C769 H795 0.931 . S
C770 O784 1.256 . S
C770 O785 1.257 . S
C771 O786 1.240 . S
C771 O787 1.240 . S
C772 Gd761 2.818 . S
C772 C773 1.510 . S
C772 O788 1.249 . S
C772 O789 1.252 . S
C773 C772 1.510 . S
C773 C774 1.404 . S
C773 C775 1.352 . S
C774 C773 1.404 . S
C774 C778 1.389 . S
C774 H796 0.930 . S
C775 C773 1.352 . S
C775 C777 1.374 . S
C775 H797 0.931 . S
C776 C777 1.359 . S
C776 C778 1.364 . S
C777 C775 1.374 . S
C777 C776 1.359 . S
C777 H798 0.931 . S
C778 C774 1.389 . S
C778 C776 1.364 . S
C778 H799 0.931 . S
C779 O790 1.256 . S
C779 O791 1.257 . S
O780 Gd760 2.377 . S
O780 C762 1.240 . S
O781 Gd761 2.395 . S
O781 C762 1.240 . S
O782 Gd760 2.448 . S
O782 C763 1.249 . S
O783 Gd760 2.506 . S
O783 C763 1.252 . S
O784 Gd760 2.435 . S
O784 C770 1.256 . S
O785 Gd760 2.717 . S
O785 Gd761 2.327 . S
O785 C770 1.257 . S
O786 Gd761 2.377 . S
O786 C771 1.240 . S
O787 Gd760 2.395 . S
O787 C771 1.240 . S
O788 Gd761 2.448 . S
O788 C772 1.249 . S
O789 Gd761 2.506 . S
O789 C772 1.252 . S
O790 Gd761 2.435 . S
O790 C779 1.256 . S
O791 Gd760 2.327 . S
O791 Gd761 2.717 . S
O791 C779 1.257 . S
H792 C765 0.930 . S
H793 C766 0.931 . S
H794 C768 0.931 . S
H795 C769 0.931 . S
H796 C774 0.930 . S
H797 C775 0.931 . S
H798 C777 0.931 . S
H799 C778 0.931 . S
Gd800 C803 2.818 . S
Gd800 O820 2.377 . S
Gd800 O822 2.448 . S
Gd800 O823 2.506 . S
Gd800 O824 2.435 . S
Gd800 O825 2.717 . S
Gd800 O827 2.395 . S
Gd800 O831 2.327 . S
Gd801 C812 2.818 1_544 S
Gd801 O821 2.395 . S
Gd801 O825 2.327 . S
Gd801 O826 2.377 1_554 S
Gd801 O828 2.448 1_544 S
Gd801 O829 2.506 1_554 S
Gd801 O830 2.435 1_545 S
Gd801 O831 2.717 . S
C802 O820 1.240 . S
C802 O821 1.240 . S
C803 Gd800 2.818 . S
C803 C804 1.510 . S
C803 O822 1.249 . S
C803 O823 1.252 . S
C804 C803 1.510 . S
C804 C805 1.404 . S
C804 C806 1.352 . S
C805 C804 1.404 . S
C805 C809 1.389 . S
C805 H832 0.930 . S
C806 C804 1.352 . S
C806 C808 1.374 . S
C806 H833 0.931 . S
C807 C808 1.359 . S
C807 C809 1.364 . S
C808 C806 1.374 . S
C808 C807 1.359 . S
C808 H834 0.931 . S
C809 C805 1.389 . S
C809 C807 1.364 . S
C809 H835 0.931 . S
C810 O824 1.256 . S
C810 O825 1.257 . S
C811 O826 1.240 . S
C811 O827 1.240 1_556 S
C812 Gd801 2.818 1_566 S
C812 C813 1.510 . S
C812 O828 1.249 . S
C812 O829 1.252 1_565 S
C813 C812 1.510 . S
C813 C814 1.404 . S
C813 C815 1.352 . S
C814 C813 1.404 . S
C814 C818 1.389 . S
C814 H836 0.930 . S
C815 C813 1.352 . S
C815 C817 1.374 . S
C815 H837 0.931 1_565 S
C816 C817 1.359 . S
C816 C818 1.364 . S
C817 C815 1.374 . S
C817 C816 1.359 . S
C817 H838 0.944 . S
C818 C814 1.389 . S
C818 C816 1.364 . S
C818 H839 0.931 . S
C819 O830 1.256 1_545 S
C819 O831 1.257 . S
O820 Gd800 2.377 . S
O820 C802 1.240 . S
O821 Gd801 2.395 . S
O821 C802 1.240 . S
O822 Gd800 2.448 . S
O822 C803 1.249 . S
O823 Gd800 2.506 . S
O823 C803 1.252 . S
O824 Gd800 2.435 . S
O824 C810 1.256 . S
O825 Gd800 2.717 . S
O825 Gd801 2.327 . S
O825 C810 1.257 . S
O826 Gd801 2.377 1_556 S
O826 C811 1.240 . S
O827 Gd800 2.395 . S
O827 C811 1.240 1_554 S
O828 Gd801 2.448 1_566 S
O828 C812 1.249 . S
O829 Gd801 2.506 1_556 S
O829 C812 1.252 1_545 S
O830 Gd801 2.435 1_565 S
O830 C819 1.256 1_565 S
O831 Gd800 2.327 . S
O831 Gd801 2.717 . S
O831 C819 1.257 . S
H832 C805 0.930 . S
H833 C806 0.931 . S
H834 C808 0.931 . S
H835 C809 0.931 . S
H836 C814 0.930 . S
H837 C815 0.931 1_545 S
H838 C817 0.944 . S
H839 C818 0.931 . S
Gd840 C843 2.818 . S
Gd840 O860 2.377 . S
Gd840 O862 2.448 . S
Gd840 O863 2.506 . S
Gd840 O864 2.435 . S
Gd840 O865 2.717 . S
Gd840 O867 2.395 . S
Gd840 O871 2.327 . S
Gd841 C852 2.818 . S
Gd841 O861 2.395 . S
Gd841 O865 2.327 . S
Gd841 O866 2.377 . S
Gd841 O868 2.448 . S
Gd841 O869 2.506 . S
Gd841 O870 2.435 . S
Gd841 O871 2.717 . S
C842 O860 1.240 . S
C842 O861 1.240 . S
C843 Gd840 2.818 . S
C843 C844 1.510 . S
C843 O862 1.249 . S
C843 O863 1.252 . S
C844 C843 1.510 . S
C844 C845 1.404 . S
C844 C846 1.352 . S
C845 C844 1.404 . S
C845 C849 1.389 . S
C845 H872 0.930 . S
C846 C844 1.352 . S
C846 C848 1.374 . S
C846 H873 0.931 . S
C847 C848 1.359 . S
C847 C849 1.364 . S
C848 C846 1.374 . S
C848 C847 1.359 . S
C848 H874 0.931 . S
C849 C845 1.389 . S
C849 C847 1.364 . S
C849 H875 0.931 . S
C850 O864 1.256 . S
C850 O865 1.257 . S
C851 O866 1.240 . S
C851 O867 1.240 . S
C852 Gd841 2.818 . S
C852 C853 1.510 . S
C852 O868 1.249 . S
C852 O869 1.252 . S
C853 C852 1.510 . S
C853 C854 1.404 . S
C853 C855 1.352 . S
C854 C853 1.404 . S
C854 C858 1.389 . S
C854 H876 0.930 . S
C855 C853 1.352 . S
C855 C857 1.374 . S
C855 H877 0.931 . S
C856 C857 1.359 . S
C856 C858 1.364 . S
C857 C855 1.374 . S
C857 C856 1.359 . S
C857 H878 0.931 . S
C858 C854 1.389 . S
C858 C856 1.364 . S
C858 H879 0.931 . S
C859 O870 1.256 . S
C859 O871 1.257 . S
O860 Gd840 2.377 . S
O860 C842 1.240 . S
O861 Gd841 2.395 . S
O861 C842 1.240 . S
O862 Gd840 2.448 . S
O862 C843 1.249 . S
O863 Gd840 2.506 . S
O863 C843 1.252 . S
O864 Gd840 2.435 . S
O864 C850 1.256 . S
O865 Gd840 2.717 . S
O865 Gd841 2.327 . S
O865 C850 1.257 . S
O866 Gd841 2.377 . S
O866 C851 1.240 . S
O867 Gd840 2.395 . S
O867 C851 1.240 . S
O868 Gd841 2.448 . S
O868 C852 1.249 . S
O869 Gd841 2.506 . S
O869 C852 1.252 . S
O870 Gd841 2.435 . S
O870 C859 1.256 . S
O871 Gd840 2.327 . S
O871 Gd841 2.717 . S
O871 C859 1.257 . S
H872 C845 0.930 . S
H873 C846 0.931 . S
H874 C848 0.931 . S
H875 C849 0.931 . S
H876 C854 0.930 . S
H877 C855 0.931 . S
H878 C857 0.931 . S
H879 C858 0.931 . S
Gd880 C883 2.818 . S
Gd880 O900 2.377 . S
Gd880 O902 2.448 . S
Gd880 O903 2.506 . S
Gd880 O904 2.435 . S
Gd880 O905 2.717 . S
Gd880 O907 2.395 . S
Gd880 O911 2.327 . S
Gd881 C892 2.821 . S
Gd881 O901 2.394 1_545 S
Gd881 O905 2.320 1_545 S
Gd881 O906 2.374 1_545 S
Gd881 O908 2.453 . S
Gd881 O909 2.506 1_545 S
Gd881 O910 2.438 . S
Gd881 O911 2.714 1_545 S
C882 O900 1.240 . S
C882 O901 1.240 . S
C883 Gd880 2.818 . S
C883 C884 1.510 . S
C883 O902 1.249 . S
C883 O903 1.252 . S
C884 C883 1.510 . S
C884 C885 1.404 . S
C884 C886 1.352 . S
C885 C884 1.404 . S
C885 C889 1.389 . S
C885 H912 0.930 . S
C886 C884 1.352 . S
C886 C888 1.374 . S
C886 H913 0.931 . S
C887 C888 1.359 . S
C887 C889 1.364 . S
C888 C886 1.374 . S
C888 C887 1.359 . S
C888 H914 0.931 . S
C889 C885 1.389 . S
C889 C887 1.364 . S
C889 H915 0.931 . S
C890 O904 1.256 . S
C890 O905 1.257 . S
C891 O906 1.240 . S
C891 O907 1.240 . S
C892 Gd881 2.821 . S
C892 C893 1.510 . S
C892 O908 1.249 . S
C892 O909 1.252 1_545 S
C893 C892 1.510 . S
C893 C894 1.404 . S
C893 C895 1.352 . S
C894 C893 1.404 . S
C894 C898 1.389 . S
C894 H916 0.930 . S
C895 C893 1.352 . S
C895 C897 1.374 . S
C895 H917 0.931 1_545 S
C896 C897 1.359 . S
C896 C898 1.364 . S
C897 C895 1.374 . S
C897 C896 1.359 . S
C897 H918 0.931 . S
C898 C894 1.389 . S
C898 C896 1.364 . S
C898 H919 0.931 . S
C899 O910 1.256 . S
C899 O911 1.257 1_545 S
O900 Gd880 2.377 . S
O900 C882 1.240 . S
O901 Gd881 2.394 1_565 S
O901 C882 1.240 . S
O902 Gd880 2.448 . S
O902 C883 1.249 . S
O903 Gd880 2.506 . S
O903 C883 1.252 . S
O904 Gd880 2.435 . S
O904 C890 1.256 . S
O905 Gd880 2.717 . S
O905 Gd881 2.320 1_565 S
O905 C890 1.257 . S
O906 Gd881 2.374 1_565 S
O906 C891 1.240 . S
O907 Gd880 2.395 . S
O907 C891 1.240 . S
O908 Gd881 2.453 . S
O908 C892 1.249 . S
O909 Gd881 2.506 1_565 S
O909 C892 1.252 1_565 S
O910 Gd881 2.438 . S
O910 C899 1.256 . S
O911 Gd880 2.327 . S
O911 Gd881 2.714 1_565 S
O911 C899 1.257 1_565 S
H912 C885 0.930 . S
H913 C886 0.931 . S
H914 C888 0.931 . S
H915 C889 0.931 . S
H916 C894 0.930 . S
H917 C895 0.931 1_565 S
H918 C897 0.931 . S
H919 C898 0.931 . S
Gd920 C923 2.818 1_556 S
Gd920 O940 2.377 . S
Gd920 O942 2.448 1_556 S
Gd920 O943 2.506 1_556 S
Gd920 O944 2.435 . S
Gd920 O945 2.717 . S
Gd920 O947 2.395 . S
Gd920 O951 2.327 . S
Gd921 C932 2.818 . S
Gd921 O941 2.395 . S
Gd921 O945 2.327 . S
Gd921 O946 2.377 . S
Gd921 O948 2.448 . S
Gd921 O949 2.506 . S
Gd921 O950 2.435 . S
Gd921 O951 2.717 . S
C922 O940 1.242 . S
C922 O941 1.260 . S
C923 Gd920 2.818 1_554 S
C923 C924 1.510 . S
C923 O942 1.249 . S
C923 O943 1.252 . S
C924 C923 1.510 . S
C924 C925 1.404 . S
C924 C926 1.352 . S
C925 C924 1.404 . S
C925 C929 1.389 . S
C925 H952 0.930 . S
C926 C924 1.352 . S
C926 C928 1.374 . S
C926 H953 0.931 . S
C927 C928 1.359 . S
C927 C929 1.364 . S
C928 C926 1.374 . S
C928 C927 1.359 . S
C928 H954 0.931 . S
C929 C925 1.389 . S
C929 C927 1.364 . S
C929 H955 0.931 . S
C930 O944 1.256 . S
C930 O945 1.257 . S
C931 O946 1.240 . S
C931 O947 1.240 . S
C932 Gd921 2.818 . S
C932 C933 1.510 . S
C932 O948 1.249 . S
C932 O949 1.252 . S
C933 C932 1.510 . S
C933 C934 1.404 . S
C933 C935 1.352 . S
C934 C933 1.404 . S
C934 C938 1.389 . S
C934 H956 0.930 . S
C935 C933 1.352 . S
C935 C937 1.374 . S
C935 H957 0.931 . S
C936 C937 1.359 . S
C936 C938 1.364 . S
C937 C935 1.374 . S
C937 C936 1.359 . S
C937 H958 0.931 . S
C938 C934 1.389 . S
C938 C936 1.364 . S
C938 H959 0.931 . S
C939 O950 1.256 . S
C939 O951 1.257 . S
O940 Gd920 2.377 . S
O940 C922 1.242 . S
O941 Gd921 2.395 . S
O941 C922 1.260 . S
O942 Gd920 2.448 1_554 S
O942 C923 1.249 . S
O943 Gd920 2.506 1_554 S
O943 C923 1.252 . S
O944 Gd920 2.435 . S
O944 C930 1.256 . S
O945 Gd920 2.717 . S
O945 Gd921 2.327 . S
O945 C930 1.257 . S
O946 Gd921 2.377 . S
O946 C931 1.240 . S
O947 Gd920 2.395 . S
O947 C931 1.240 . S
O948 Gd921 2.448 . S
O948 C932 1.249 . S
O949 Gd921 2.506 . S
O949 C932 1.252 . S
O950 Gd921 2.435 . S
O950 C939 1.256 . S
O951 Gd920 2.327 . S
O951 Gd921 2.717 . S
O951 C939 1.257 . S
H952 C925 0.930 . S
H953 C926 0.931 . S
H954 C928 0.931 . S
H955 C929 0.931 . S
H956 C934 0.930 . S
H957 C935 0.931 . S
H958 C937 0.931 . S
H959 C938 0.931 . S
Gd960 C963 2.818 . S
Gd960 O980 2.377 . S
Gd960 O982 2.448 . S
Gd960 O983 2.506 . S
Gd960 O984 2.435 . S
Gd960 O985 2.717 . S
Gd960 O987 2.395 . S
Gd960 O991 2.327 . S
Gd961 C972 2.818 . S
Gd961 O981 2.395 . S
Gd961 O985 2.327 . S
Gd961 O986 2.377 . S
Gd961 O988 2.448 . S
Gd961 O989 2.506 . S
Gd961 O990 2.435 . S
Gd961 O991 2.717 . S
C962 O980 1.240 . S
C962 O981 1.240 . S
C963 Gd960 2.818 . S
C963 C964 1.510 . S
C963 O982 1.249 . S
C963 O983 1.252 . S
C964 C963 1.510 . S
C964 C965 1.404 . S
C964 C966 1.352 . S
C965 C964 1.404 . S
C965 C969 1.389 . S
C965 H992 0.930 . S
C966 C964 1.352 . S
C966 C968 1.374 . S
C966 H993 0.931 . S
C967 C968 1.359 . S
C967 C969 1.364 . S
C968 C966 1.374 . S
C968 C967 1.359 . S
C968 H994 0.931 . S
C969 C965 1.389 . S
C969 C967 1.364 . S
C969 H995 0.931 . S
C970 O984 1.256 . S
C970 O985 1.257 . S
C971 O986 1.240 . S
C971 O987 1.240 . S
C972 Gd961 2.818 . S
C972 C973 1.510 . S
C972 O988 1.249 . S
C972 O989 1.252 . S
C973 C972 1.510 . S
C973 C974 1.404 . S
C973 C975 1.352 . S
C974 C973 1.404 . S
C974 C978 1.389 . S
C974 H996 0.930 . S
C975 C973 1.352 . S
C975 C977 1.374 . S
C975 H997 0.931 . S
C976 C977 1.359 . S
C976 C978 1.364 . S
C977 C975 1.374 . S
C977 C976 1.359 . S
C977 H998 0.931 . S
C978 C974 1.389 . S
C978 C976 1.364 . S
C978 H999 0.931 . S
C979 O990 1.256 . S
C979 O991 1.257 . S
O980 Gd960 2.377 . S
O980 C962 1.240 . S
O981 Gd961 2.395 . S
O981 C962 1.240 . S
O982 Gd960 2.448 . S
O982 C963 1.249 . S
O983 Gd960 2.506 . S
O983 C963 1.252 . S
O984 Gd960 2.435 . S
O984 C970 1.256 . S
O985 Gd960 2.717 . S
O985 Gd961 2.327 . S
O985 C970 1.257 . S
O986 Gd961 2.377 . S
O986 C971 1.240 . S
O987 Gd960 2.395 . S
O987 C971 1.240 . S
O988 Gd961 2.448 . S
O988 C972 1.249 . S
O989 Gd961 2.506 . S
O989 C972 1.252 . S
O990 Gd961 2.435 . S
O990 C979 1.256 . S
O991 Gd960 2.327 . S
O991 Gd961 2.717 . S
O991 C979 1.257 . S
H992 C965 0.930 . S
H993 C966 0.931 . S
H994 C968 0.931 . S
H995 C969 0.931 . S
H996 C974 0.930 . S
H997 C975 0.931 . S
H998 C977 0.931 . S
H999 C978 0.931 . S
Gd1000 C1003 2.818 . S
Gd1000 O1020 2.377 . S
Gd1000 O1022 2.448 . S
Gd1000 O1023 2.506 . S
Gd1000 O1024 2.435 . S
Gd1000 O1025 2.717 . S
Gd1000 O1027 2.395 . S
Gd1000 O1031 2.327 . S
Gd1001 C1012 2.818 . S
Gd1001 O1021 2.395 . S
Gd1001 O1025 2.327 . S
Gd1001 O1026 2.377 . S
Gd1001 O1028 2.448 . S
Gd1001 O1029 2.506 . S
Gd1001 O1030 2.435 . S
Gd1001 O1031 2.717 . S
C1002 O1020 1.240 . S
C1002 O1021 1.240 . S
C1003 Gd1000 2.818 . S
C1003 C1004 1.510 . S
C1003 O1022 1.249 . S
C1003 O1023 1.252 . S
C1004 C1003 1.510 . S
C1004 C1005 1.404 . S
C1004 C1006 1.352 . S
C1005 C1004 1.404 . S
C1005 C1009 1.389 . S
C1005 H1032 0.930 . S
C1006 C1004 1.352 . S
C1006 C1008 1.374 . S
C1006 H1033 0.931 . S
C1007 C1008 1.359 . S
C1007 C1009 1.364 . S
C1008 C1006 1.374 . S
C1008 C1007 1.359 . S
C1008 H1034 0.931 . S
C1009 C1005 1.389 . S
C1009 C1007 1.364 . S
C1009 H1035 0.931 . S
C1010 O1024 1.256 . S
C1010 O1025 1.257 . S
C1011 O1026 1.240 . S
C1011 O1027 1.240 . S
C1012 Gd1001 2.818 . S
C1012 C1013 1.510 . S
C1012 O1028 1.249 . S
C1012 O1029 1.252 . S
C1013 C1012 1.510 . S
C1013 C1014 1.404 . S
C1013 C1015 1.352 . S
C1014 C1013 1.404 . S
C1014 C1018 1.389 . S
C1014 H1036 0.930 . S
C1015 C1013 1.352 . S
C1015 C1017 1.374 . S
C1015 H1037 0.931 . S
C1016 C1017 1.359 . S
C1016 C1018 1.364 . S
C1017 C1015 1.374 . S
C1017 C1016 1.359 . S
C1017 H1038 0.931 . S
C1018 C1014 1.389 . S
C1018 C1016 1.364 . S
C1018 H1039 0.931 . S
C1019 O1030 1.256 . S
C1019 O1031 1.257 . S
O1020 Gd1000 2.377 . S
O1020 C1002 1.240 . S
O1021 Gd1001 2.395 . S
O1021 C1002 1.240 . S
O1022 Gd1000 2.448 . S
O1022 C1003 1.249 . S
O1023 Gd1000 2.506 . S
O1023 C1003 1.252 . S
O1024 Gd1000 2.435 . S
O1024 C1010 1.256 . S
O1025 Gd1000 2.717 . S
O1025 Gd1001 2.327 . S
O1025 C1010 1.257 . S
O1026 Gd1001 2.377 . S
O1026 C1011 1.240 . S
O1027 Gd1000 2.395 . S
O1027 C1011 1.240 . S
O1028 Gd1001 2.448 . S
O1028 C1012 1.249 . S
O1029 Gd1001 2.506 . S
O1029 C1012 1.252 . S
O1030 Gd1001 2.435 . S
O1030 C1019 1.256 . S
O1031 Gd1000 2.327 . S
O1031 Gd1001 2.717 . S
O1031 C1019 1.257 . S
H1032 C1005 0.930 . S
H1033 C1006 0.931 . S
H1034 C1008 0.931 . S
H1035 C1009 0.931 . S
H1036 C1014 0.930 . S
H1037 C1015 0.931 . S
H1038 C1017 0.931 . S
H1039 C1018 0.931 . S
Gd1040 C1043 2.818 . S
Gd1040 O1060 2.377 . S
Gd1040 O1062 2.448 . S
Gd1040 O1063 2.506 . S
Gd1040 O1064 2.435 . S
Gd1040 O1065 2.717 . S
Gd1040 O1067 2.395 . S
Gd1040 O1071 2.327 . S
Gd1041 C1052 2.818 . S
Gd1041 O1061 2.395 . S
Gd1041 O1065 2.327 . S
Gd1041 O1066 2.377 . S
Gd1041 O1068 2.448 1_455 S
Gd1041 O1069 2.506 . S
Gd1041 O1070 2.435 1_455 S
Gd1041 O1071 2.717 . S
C1042 O1060 1.240 . S
C1042 O1061 1.240 . S
C1043 Gd1040 2.818 . S
C1043 C1044 1.510 . S
C1043 O1062 1.249 . S
C1043 O1063 1.252 . S
C1044 C1043 1.510 . S
C1044 C1045 1.404 . S
C1044 C1046 1.352 . S
C1045 C1044 1.404 . S
C1045 C1049 1.389 . S
C1045 H1072 0.930 . S
C1046 C1044 1.352 . S
C1046 C1048 1.374 . S
C1046 H1073 0.931 . S
C1047 C1048 1.359 . S
C1047 C1049 1.364 . S
C1048 C1046 1.374 . S
C1048 C1047 1.359 . S
C1048 H1074 0.931 . S
C1049 C1045 1.389 . S
C1049 C1047 1.364 . S
C1049 H1075 0.931 . S
C1050 O1064 1.256 . S
C1050 O1065 1.257 . S
C1051 O1066 1.240 . S
C1051 O1067 1.240 . S
C1052 Gd1041 2.818 . S
C1052 C1053 1.508 . S
C1052 O1068 1.249 1_455 S
C1052 O1069 1.252 . S
C1053 C1052 1.508 . S
C1053 C1054 1.405 1_454 S
C1053 C1055 1.353 1_554 S
C1054 C1053 1.405 1_656 S
C1054 C1058 1.389 . S
C1054 H1076 0.930 1_556 S
C1055 C1053 1.353 1_556 S
C1055 C1057 1.374 . S
C1055 H1077 0.931 . S
C1056 C1057 1.359 1_655 S
C1056 C1058 1.364 . S
C1057 C1055 1.374 . S
C1057 C1056 1.359 1_455 S
C1057 H1078 0.931 . S
C1058 C1054 1.389 . S
C1058 C1056 1.364 . S
C1058 H1079 0.931 . S
C1059 O1070 1.256 1_455 S
C1059 O1071 1.257 . S
O1060 Gd1040 2.377 . S
O1060 C1042 1.240 . S
O1061 Gd1041 2.395 . S
O1061 C1042 1.240 . S
O1062 Gd1040 2.448 . S
O1062 C1043 1.249 . S
O1063 Gd1040 2.506 . S
O1063 C1043 1.252 . S
O1064 Gd1040 2.435 . S
O1064 C1050 1.256 . S
O1065 Gd1040 2.717 . S
O1065 Gd1041 2.327 . S
O1065 C1050 1.257 . S
O1066 Gd1041 2.377 . S
O1066 C1051 1.240 . S
O1067 Gd1040 2.395 . S
O1067 C1051 1.240 . S
O1068 Gd1041 2.448 1_655 S
O1068 C1052 1.249 1_655 S
O1069 Gd1041 2.506 . S
O1069 C1052 1.252 . S
O1070 Gd1041 2.435 1_655 S
O1070 C1059 1.256 1_655 S
O1071 Gd1040 2.327 . S
O1071 Gd1041 2.717 . S
O1071 C1059 1.257 . S
H1072 C1045 0.930 . S
H1073 C1046 0.931 . S
H1074 C1048 0.931 . S
H1075 C1049 0.931 . S
H1076 C1054 0.930 1_554 S
H1077 C1055 0.931 . S
H1078 C1057 0.931 . S
H1079 C1058 0.931 . S
Gd1080 C1083 2.818 . S
Gd1080 O1100 2.377 . S
Gd1080 O1102 2.448 . S
Gd1080 O1103 2.506 . S
Gd1080 O1104 2.435 . S
Gd1080 O1105 2.717 . S
Gd1080 O1107 2.395 1_556 S
Gd1080 O1111 2.327 . S
Gd1081 C1092 2.818 1_556 S
Gd1081 O1101 2.395 . S
Gd1081 O1105 2.327 . S
Gd1081 O1106 2.377 1_556 S
Gd1081 O1108 2.448 1_556 S
Gd1081 O1109 2.506 1_556 S
Gd1081 O1110 2.435 . S
Gd1081 O1111 2.717 . S
C1082 O1100 1.240 . S
C1082 O1101 1.240 . S
C1083 Gd1080 2.818 . S
C1083 C1084 1.510 . S
C1083 O1102 1.249 . S
C1083 O1103 1.252 . S
C1084 C1083 1.510 . S
C1084 C1085 1.404 . S
C1084 C1086 1.352 . S
C1085 C1084 1.404 . S
C1085 C1089 1.389 . S
C1085 H1112 0.930 . S
C1086 C1084 1.352 . S
C1086 C1088 1.374 . S
C1086 H1113 0.931 . S
C1087 C1088 1.359 . S
C1087 C1089 1.364 . S
C1088 C1086 1.374 . S
C1088 C1087 1.359 . S
C1088 H1114 0.931 . S
C1089 C1085 1.389 . S
C1089 C1087 1.364 . S
C1089 H1115 0.931 . S
C1090 O1104 1.256 . S
C1090 O1105 1.257 . S
C1091 O1106 1.240 . S
C1091 O1107 1.240 . S
C1092 Gd1081 2.818 1_554 S
C1092 C1093 1.510 . S
C1092 O1108 1.249 . S
C1092 O1109 1.252 . S
C1093 C1092 1.510 . S
C1093 C1094 1.404 . S
C1093 C1095 1.352 . S
C1094 C1093 1.404 . S
C1094 C1098 1.389 . S
C1094 H1116 0.930 . S
C1095 C1093 1.352 . S
C1095 C1097 1.374 . S
C1095 H1117 0.931 . S
C1096 C1097 1.359 . S
C1096 C1098 1.364 . S
C1097 C1095 1.374 . S
C1097 C1096 1.359 . S
C1097 H1118 0.931 . S
C1098 C1094 1.389 . S
C1098 C1096 1.364 . S
C1098 H1119 0.931 . S
C1099 O1110 1.256 . S
C1099 O1111 1.257 . S
O1100 Gd1080 2.377 . S
O1100 C1082 1.240 . S
O1101 Gd1081 2.395 . S
O1101 C1082 1.240 . S
O1102 Gd1080 2.448 . S
O1102 C1083 1.249 . S
O1103 Gd1080 2.506 . S
O1103 C1083 1.252 . S
O1104 Gd1080 2.435 . S
O1104 C1090 1.256 . S
O1105 Gd1080 2.717 . S
O1105 Gd1081 2.327 . S
O1105 C1090 1.257 . S
O1106 Gd1081 2.377 1_554 S
O1106 C1091 1.240 . S
O1107 Gd1080 2.395 1_554 S
O1107 C1091 1.240 . S
O1108 Gd1081 2.448 1_554 S
O1108 C1092 1.249 . S
O1109 Gd1081 2.506 1_554 S
O1109 C1092 1.252 . S
O1110 Gd1081 2.435 . S
O1110 C1099 1.256 . S
O1111 Gd1080 2.327 . S
O1111 Gd1081 2.717 . S
O1111 C1099 1.257 . S
H1112 C1085 0.930 . S
H1113 C1086 0.931 . S
H1114 C1088 0.931 . S
H1115 C1089 0.931 . S
H1116 C1094 0.930 . S
H1117 C1095 0.931 . S
H1118 C1097 0.931 . S
H1119 C1098 0.931 . S
Gd1120 C1123 2.818 1_565 S
Gd1120 O1140 2.377 . S
Gd1120 O1142 2.448 1_565 S
Gd1120 O1143 2.506 . S
Gd1120 O1144 2.435 1_565 S
Gd1120 O1145 2.717 . S
Gd1120 O1147 2.395 . S
Gd1120 O1151 2.327 . S
Gd1121 C1132 2.818 . S
Gd1121 O1141 2.395 . S
Gd1121 O1145 2.327 . S
Gd1121 O1146 2.377 . S
Gd1121 O1148 2.448 . S
Gd1121 O1149 2.506 . S
Gd1121 O1150 2.435 . S
Gd1121 O1151 2.717 . S
C1122 O1140 1.240 . S
C1122 O1141 1.240 . S
C1123 Gd1120 2.818 1_545 S
C1123 C1124 1.510 . S
C1123 O1142 1.249 . S
C1123 O1143 1.252 1_545 S
C1124 C1123 1.510 . S
C1124 C1125 1.404 . S
C1124 C1126 1.352 . S
C1125 C1124 1.404 . S
C1125 C1129 1.389 . S
C1125 H1152 0.930 . S
C1126 C1124 1.352 . S
C1126 C1128 1.374 . S
C1126 H1153 0.931 1_545 S
C1127 C1128 1.359 . S
C1127 C1129 1.364 . S
C1128 C1126 1.374 . S
C1128 C1127 1.359 . S
C1128 H1154 0.945 . S
C1129 C1125 1.389 . S
C1129 C1127 1.364 . S
C1129 H1155 0.931 . S
C1130 O1144 1.256 1_565 S
C1130 O1145 1.257 . S
C1131 O1146 1.240 . S
C1131 O1147 1.240 . S
C1132 Gd1121 2.818 . S
C1132 C1133 1.510 . S
C1132 O1148 1.249 . S
C1132 O1149 1.252 . S
C1133 C1132 1.510 . S
C1133 C1134 1.404 . S
C1133 C1135 1.352 . S
C1134 C1133 1.404 . S
C1134 C1138 1.389 . S
C1134 H1156 0.930 . S
C1135 C1133 1.352 . S
C1135 C1137 1.374 1_554 S
C1135 H1157 0.931 . S
C1136 C1137 1.359 . S
C1136 C1138 1.364 1_556 S
C1137 C1135 1.374 1_556 S
C1137 C1136 1.359 . S
C1137 H1158 0.931 . S
C1138 C1134 1.389 . S
C1138 C1136 1.364 1_554 S
C1138 H1159 0.931 . S
C1139 O1150 1.256 . S
C1139 O1151 1.257 . S
O1140 Gd1120 2.377 . S
O1140 C1122 1.240 . S
O1141 Gd1121 2.395 . S
O1141 C1122 1.240 . S
O1142 Gd1120 2.448 1_545 S
O1142 C1123 1.249 . S
O1143 Gd1120 2.506 . S
O1143 C1123 1.252 1_565 S
O1144 Gd1120 2.435 1_545 S
O1144 C1130 1.256 1_545 S
O1145 Gd1120 2.717 . S
O1145 Gd1121 2.327 . S
O1145 C1130 1.257 . S
O1146 Gd1121 2.377 . S
O1146 C1131 1.240 . S
O1147 Gd1120 2.395 . S
O1147 C1131 1.240 . S
O1148 Gd1121 2.448 . S
O1148 C1132 1.249 . S
O1149 Gd1121 2.506 . S
O1149 C1132 1.252 . S
O1150 Gd1121 2.435 . S
O1150 C1139 1.256 . S
O1151 Gd1120 2.327 . S
O1151 Gd1121 2.717 . S
O1151 C1139 1.257 . S
H1152 C1125 0.930 . S
H1153 C1126 0.931 1_565 S
H1154 C1128 0.945 . S
H1155 C1129 0.931 . S
H1156 C1134 0.930 . S
H1157 C1135 0.931 . S
H1158 C1137 0.931 . S
H1159 C1138 0.931 . S
Gd1160 C1163 2.818 . S
Gd1160 O1180 2.377 . S
Gd1160 O1182 2.448 . S
Gd1160 O1183 2.506 . S
Gd1160 O1184 2.435 . S
Gd1160 O1185 2.717 1_554 S
Gd1160 O1187 2.395 1_554 S
Gd1160 O1191 2.327 . S
Gd1161 C1172 2.818 . S
Gd1161 O1181 2.395 1_556 S
Gd1161 O1185 2.327 . S
Gd1161 O1186 2.377 . S
Gd1161 O1188 2.448 . S
Gd1161 O1189 2.506 . S
Gd1161 O1190 2.435 . S
Gd1161 O1191 2.717 1_556 S
C1162 O1180 1.240 . S
C1162 O1181 1.240 . S
C1163 Gd1160 2.818 . S
C1163 C1164 1.510 . S
C1163 O1182 1.249 . S
C1163 O1183 1.252 . S
C1164 C1163 1.510 . S
C1164 C1165 1.404 . S
C1164 C1166 1.352 . S
C1165 C1164 1.404 . S
C1165 C1169 1.389 . S
C1165 H1192 0.930 . S
C1166 C1164 1.352 . S
C1166 C1168 1.374 . S
C1166 H1193 0.931 . S
C1167 C1168 1.359 . S
C1167 C1169 1.364 . S
C1168 C1166 1.374 . S
C1168 C1167 1.359 . S
C1168 H1194 0.931 . S
C1169 C1165 1.389 . S
C1169 C1167 1.364 . S
C1169 H1195 0.931 . S
C1170 O1184 1.256 1_556 S
C1170 O1185 1.257 . S
C1171 O1186 1.240 . S
C1171 O1187 1.240 . S
C1172 Gd1161 2.818 . S
C1172 C1173 1.510 . S
C1172 O1188 1.249 . S
C1172 O1189 1.252 . S
C1173 C1172 1.510 . S
C1173 C1174 1.404 . S
C1173 C1175 1.352 . S
C1174 C1173 1.404 . S
C1174 C1178 1.389 . S
C1174 H1196 0.930 . S
C1175 C1173 1.352 . S
C1175 C1177 1.374 . S
C1175 H1197 0.931 . S
C1176 C1177 1.359 . S
C1176 C1178 1.364 . S
C1177 C1175 1.374 . S
C1177 C1176 1.359 . S
C1177 H1198 0.931 . S
C1178 C1174 1.389 . S
C1178 C1176 1.364 . S
C1178 H1199 0.931 . S
C1179 O1190 1.256 1_554 S
C1179 O1191 1.257 . S
O1180 Gd1160 2.377 . S
O1180 C1162 1.240 . S
O1181 Gd1161 2.395 1_554 S
O1181 C1162 1.240 . S
O1182 Gd1160 2.448 . S
O1182 C1163 1.249 . S
O1183 Gd1160 2.506 . S
O1183 C1163 1.252 . S
O1184 Gd1160 2.435 . S
O1184 C1170 1.256 1_554 S
O1185 Gd1160 2.717 1_556 S
O1185 Gd1161 2.327 . S
O1185 C1170 1.257 . S
O1186 Gd1161 2.377 . S
O1186 C1171 1.240 . S
O1187 Gd1160 2.395 1_556 S
O1187 C1171 1.240 . S
O1188 Gd1161 2.448 . S
O1188 C1172 1.249 . S
O1189 Gd1161 2.506 . S
O1189 C1172 1.252 . S
O1190 Gd1161 2.435 . S
O1190 C1179 1.256 1_556 S
O1191 Gd1160 2.327 . S
O1191 Gd1161 2.717 1_554 S
O1191 C1179 1.257 . S
H1192 C1165 0.930 . S
H1193 C1166 0.931 . S
H1194 C1168 0.931 . S
H1195 C1169 0.931 . S
H1196 C1174 0.930 . S
H1197 C1175 0.931 . S
H1198 C1177 0.931 . S
H1199 C1178 0.931 . S
Gd1200 C1203 2.822 . S
Gd1200 O1220 2.373 1_565 S
Gd1200 O1222 2.455 . S
Gd1200 O1223 2.506 1_565 S
Gd1200 O1224 2.439 . S
Gd1200 O1225 2.713 1_565 S
Gd1200 O1227 2.394 1_565 S
Gd1200 O1231 2.318 1_565 S
Gd1201 C1212 2.818 . S
Gd1201 O1221 2.395 . S
Gd1201 O1225 2.327 . S
Gd1201 O1226 2.377 . S
Gd1201 O1228 2.448 . S
Gd1201 O1229 2.506 . S
Gd1201 O1230 2.435 . S
Gd1201 O1231 2.717 . S
C1202 O1220 1.240 . S
C1202 O1221 1.240 . S
C1203 Gd1200 2.822 . S
C1203 C1204 1.510 . S
C1203 O1222 1.249 . S
C1203 O1223 1.252 1_565 S
C1204 C1203 1.510 . S
C1204 C1205 1.404 . S
C1204 C1206 1.352 . S
C1205 C1204 1.404 . S
C1205 C1209 1.389 . S
C1205 H1232 0.930 . S
C1206 C1204 1.352 . S
C1206 C1208 1.374 . S
C1206 H1233 0.931 1_565 S
C1207 C1208 1.359 . S
C1207 C1209 1.364 . S
C1208 C1206 1.374 . S
C1208 C1207 1.359 . S
C1208 H1234 0.928 1_556 S
C1209 C1205 1.389 . S
C1209 C1207 1.364 . S
C1209 H1235 0.931 . S
C1210 O1224 1.256 . S
C1210 O1225 1.257 1_565 S
C1211 O1226 1.240 . S
C1211 O1227 1.240 . S
C1212 Gd1201 2.818 . S
C1212 C1213 1.510 . S
C1212 O1228 1.249 . S
C1212 O1229 1.252 . S
C1213 C1212 1.510 . S
C1213 C1214 1.404 . S
C1213 C1215 1.352 . S
C1214 C1213 1.404 . S
C1214 C1218 1.389 . S
C1214 H1236 0.930 . S
C1215 C1213 1.352 . S
C1215 C1217 1.374 . S
C1215 H1237 0.931 . S
C1216 C1217 1.359 . S
C1216 C1218 1.364 . S
C1217 C1215 1.374 . S
C1217 C1216 1.359 . S
C1217 H1238 0.931 . S
C1218 C1214 1.389 . S
C1218 C1216 1.364 . S
C1218 H1239 0.931 . S
C1219 O1230 1.256 . S
C1219 O1231 1.257 . S
O1220 Gd1200 2.373 1_545 S
O1220 C1202 1.240 . S
O1221 Gd1201 2.395 . S
O1221 C1202 1.240 . S
O1222 Gd1200 2.455 . S
O1222 C1203 1.249 . S
O1223 Gd1200 2.506 1_545 S
O1223 C1203 1.252 1_545 S
O1224 Gd1200 2.439 . S
O1224 C1210 1.256 . S
O1225 Gd1200 2.713 1_545 S
O1225 Gd1201 2.327 . S
O1225 C1210 1.257 1_545 S
O1226 Gd1201 2.377 . S
O1226 C1211 1.240 . S
O1227 Gd1200 2.394 1_545 S
O1227 C1211 1.240 . S
O1228 Gd1201 2.448 . S
O1228 C1212 1.249 . S
O1229 Gd1201 2.506 . S
O1229 C1212 1.252 . S
O1230 Gd1201 2.435 . S
O1230 C1219 1.256 . S
O1231 Gd1200 2.318 1_545 S
O1231 Gd1201 2.717 . S
O1231 C1219 1.257 . S
H1232 C1205 0.930 . S
H1233 C1206 0.931 1_545 S
H1234 C1208 0.928 1_554 S
H1235 C1209 0.931 . S
H1236 C1214 0.930 . S
H1237 C1215 0.931 . S
H1238 C1217 0.931 . S
H1239 C1218 0.931 . S
Gd1240 C1243 2.818 . S
Gd1240 O1260 2.377 . S
Gd1240 O1262 2.448 . S
Gd1240 O1263 2.506 . S
Gd1240 O1264 2.435 . S
Gd1240 O1265 2.717 . S
Gd1240 O1267 2.395 . S
Gd1240 O1271 2.327 . S
Gd1241 C1252 2.818 . S
Gd1241 O1261 2.395 . S
Gd1241 O1265 2.327 . S
Gd1241 O1266 2.377 . S
Gd1241 O1268 2.448 . S
Gd1241 O1269 2.506 . S
Gd1241 O1270 2.435 . S
Gd1241 O1271 2.717 . S
C1242 O1260 1.240 . S
C1242 O1261 1.240 . S
C1243 Gd1240 2.818 . S
C1243 C1244 1.510 . S
C1243 O1262 1.249 . S
C1243 O1263 1.252 . S
C1244 C1243 1.510 . S
C1244 C1245 1.404 . S
C1244 C1246 1.352 . S
C1245 C1244 1.404 . S
C1245 C1249 1.389 . S
C1245 H1272 0.930 . S
C1246 C1244 1.352 . S
C1246 C1248 1.374 . S
C1246 H1273 0.931 . S
C1247 C1248 1.359 . S
C1247 C1249 1.364 . S
C1248 C1246 1.374 . S
C1248 C1247 1.359 . S
C1248 H1274 0.931 . S
C1249 C1245 1.389 . S
C1249 C1247 1.364 . S
C1249 H1275 0.931 . S
C1250 O1264 1.256 . S
C1250 O1265 1.257 . S
C1251 O1266 1.240 . S
C1251 O1267 1.240 . S
C1252 Gd1241 2.818 . S
C1252 C1253 1.510 . S
C1252 O1268 1.249 . S
C1252 O1269 1.252 . S
C1253 C1252 1.510 . S
C1253 C1254 1.404 . S
C1253 C1255 1.352 . S
C1254 C1253 1.404 . S
C1254 C1258 1.389 . S
C1254 H1276 0.930 . S
C1255 C1253 1.352 . S
C1255 C1257 1.374 . S
C1255 H1277 0.931 . S
C1256 C1257 1.359 . S
C1256 C1258 1.364 . S
C1257 C1255 1.374 . S
C1257 C1256 1.359 . S
C1257 H1278 0.931 . S
C1258 C1254 1.389 . S
C1258 C1256 1.364 . S
C1258 H1279 0.931 . S
C1259 O1270 1.256 . S
C1259 O1271 1.257 . S
O1260 Gd1240 2.377 . S
O1260 C1242 1.240 . S
O1261 Gd1241 2.395 . S
O1261 C1242 1.240 . S
O1262 Gd1240 2.448 . S
O1262 C1243 1.249 . S
O1263 Gd1240 2.506 . S
O1263 C1243 1.252 . S
O1264 Gd1240 2.435 . S
O1264 C1250 1.256 . S
O1265 Gd1240 2.717 . S
O1265 Gd1241 2.327 . S
O1265 C1250 1.257 . S
O1266 Gd1241 2.377 . S
O1266 C1251 1.240 . S
O1267 Gd1240 2.395 . S
O1267 C1251 1.240 . S
O1268 Gd1241 2.448 . S
O1268 C1252 1.249 . S
O1269 Gd1241 2.506 . S
O1269 C1252 1.252 . S
O1270 Gd1241 2.435 . S
O1270 C1259 1.256 . S
O1271 Gd1240 2.327 . S
O1271 Gd1241 2.717 . S
O1271 C1259 1.257 . S
H1272 C1245 0.930 . S
H1273 C1246 0.931 . S
H1274 C1248 0.931 . S
H1275 C1249 0.931 . S
H1276 C1254 0.930 . S
H1277 C1255 0.931 . S
H1278 C1257 0.931 . S
H1279 C1258 0.931 . S
C1280 C1281 1.387 . S
C1280 H1284 0.950 . S
C1280 C1289 1.390 . S
C1281 C1280 1.387 . S
C1281 C1283 1.387 . S
H1282 C1289 0.950 . S
C1283 C1281 1.387 . S
C1283 C1285 1.390 . S
C1283 H1287 0.950 . S
H1284 C1280 0.950 . S
C1285 C1283 1.390 . S
C1285 C1286 1.387 . S
C1285 H1288 0.950 . S
C1286 C1285 1.387 . S
C1286 C1289 1.387 . S
H1287 C1283 0.950 . S
H1288 C1285 0.950 . S
C1289 C1280 1.390 . S
C1289 H1282 0.950 . S
C1289 C1286 1.387 . S
C1290 C1291 1.387 . S
C1290 H1294 0.950 . S
C1290 C1299 1.390 . S
C1291 C1290 1.387 . S
C1291 C1293 1.387 . S
H1292 C1299 0.950 . S
C1293 C1291 1.387 . S
C1293 C1295 1.390 . S
C1293 H1297 0.950 . S
H1294 C1290 0.950 . S
C1295 C1293 1.390 . S
C1295 C1296 1.387 . S
C1295 H1298 0.950 . S
C1296 C1295 1.387 . S
C1296 C1299 1.387 . S
H1297 C1293 0.950 . S
H1298 C1295 0.950 . S
C1299 C1290 1.390 . S
C1299 H1292 0.950 . S
C1299 C1296 1.387 . S
C1300 C1301 1.387 . S
C1300 H1304 0.950 . S
C1300 C1309 1.390 . S
C1301 C1300 1.387 . S
C1301 C1303 1.387 . S
H1302 C1309 0.950 . S
C1303 C1301 1.387 . S
C1303 C1305 1.390 . S
C1303 H1307 0.950 . S
H1304 C1300 0.950 . S
C1305 C1303 1.390 . S
C1305 C1306 1.387 . S
C1305 H1308 0.950 . S
C1306 C1305 1.387 . S
C1306 C1309 1.387 . S
H1307 C1303 0.950 . S
H1308 C1305 0.950 . S
C1309 C1300 1.390 . S
C1309 H1302 0.950 . S
C1309 C1306 1.387 . S
C1310 C1311 1.387 . S
C1310 H1314 0.950 . S
C1310 C1319 1.390 . S
C1311 C1310 1.387 . S
C1311 C1313 1.387 . S
H1312 C1319 0.950 . S
C1313 C1311 1.387 . S
C1313 C1315 1.390 . S
C1313 H1317 0.950 . S
H1314 C1310 0.950 . S
C1315 C1313 1.390 . S
C1315 C1316 1.387 . S
C1315 H1318 0.950 . S
C1316 C1315 1.387 . S
C1316 C1319 1.387 . S
H1317 C1313 0.950 . S
H1318 C1315 0.950 . S
C1319 C1310 1.390 . S
C1319 H1312 0.950 . S
C1319 C1316 1.387 . S
C1320 C1321 1.387 . S
C1320 H1324 0.950 . S
C1320 C1329 1.390 . S
C1321 C1320 1.387 . S
C1321 C1323 1.387 . S
H1322 C1329 0.950 . S
C1323 C1321 1.387 . S
C1323 C1325 1.390 . S
C1323 H1327 0.950 . S
H1324 C1320 0.950 . S
C1325 C1323 1.390 . S
C1325 C1326 1.387 . S
C1325 H1328 0.950 . S
C1326 C1325 1.387 . S
C1326 C1329 1.387 . S
H1327 C1323 0.950 . S
H1328 C1325 0.950 . S
C1329 C1320 1.390 . S
C1329 H1322 0.950 . S
C1329 C1326 1.387 . S
C1330 C1331 1.387 . S
C1330 H1334 0.950 . S
C1330 C1339 1.390 . S
C1331 C1330 1.387 . S
C1331 C1333 1.387 . S
H1332 C1339 0.950 . S
C1333 C1331 1.387 . S
C1333 C1335 1.390 . S
C1333 H1337 0.950 . S
H1334 C1330 0.950 . S
C1335 C1333 1.390 . S
C1335 C1336 1.387 . S
C1335 H1338 0.950 . S
C1336 C1335 1.387 . S
C1336 C1339 1.387 . S
H1337 C1333 0.950 . S
H1338 C1335 0.950 . S
C1339 C1330 1.390 . S
C1339 H1332 0.950 . S
C1339 C1336 1.387 . S
C1340 C1341 1.387 . S
C1340 H1344 0.950 . S
C1340 C1349 1.390 . S
C1341 C1340 1.387 . S
C1341 C1343 1.387 . S
H1342 C1349 0.950 . S
C1343 C1341 1.387 . S
C1343 C1345 1.390 . S
C1343 H1347 0.950 . S
H1344 C1340 0.950 . S
C1345 C1343 1.390 . S
C1345 C1346 1.387 . S
C1345 H1348 0.950 . S
C1346 C1345 1.387 . S
C1346 C1349 1.387 . S
H1347 C1343 0.950 . S
H1348 C1345 0.950 . S
C1349 C1340 1.390 . S
C1349 H1342 0.950 . S
C1349 C1346 1.387 . S
C1350 C1351 1.387 . S
C1350 H1354 0.950 . S
C1350 C1359 1.390 . S
C1351 C1350 1.387 . S
C1351 C1353 1.387 . S
H1352 C1359 0.950 . S
C1353 C1351 1.387 . S
C1353 C1355 1.390 . S
C1353 H1357 0.950 . S
H1354 C1350 0.950 . S
C1355 C1353 1.390 . S
C1355 C1356 1.387 . S
C1355 H1358 0.950 . S
C1356 C1355 1.387 . S
C1356 C1359 1.387 . S
H1357 C1353 0.950 . S
H1358 C1355 0.950 . S
C1359 C1350 1.390 . S
C1359 H1352 0.950 . S
C1359 C1356 1.387 . S
C1360 C1361 1.387 . S
C1360 H1364 0.950 . S
C1360 C1369 1.390 . S
C1361 C1360 1.387 . S
C1361 C1363 1.387 . S
H1362 C1369 0.950 . S
C1363 C1361 1.387 . S
C1363 C1365 1.390 . S
C1363 H1367 0.950 . S
H1364 C1360 0.950 . S
C1365 C1363 1.390 . S
C1365 C1366 1.387 . S
C1365 H1368 0.950 . S
C1366 C1365 1.387 . S
C1366 C1369 1.387 . S
H1367 C1363 0.950 . S
H1368 C1365 0.950 . S
C1369 C1360 1.390 . S
C1369 H1362 0.950 . S
C1369 C1366 1.387 . S
C1370 C1371 1.387 . S
C1370 H1374 0.950 . S
C1370 C1379 1.390 1_556 S
C1371 C1370 1.387 . S
C1371 C1373 1.387 . S
H1372 C1379 0.950 . S
C1373 C1371 1.387 . S
C1373 C1375 1.390 1_556 S
C1373 H1377 0.950 . S
H1374 C1370 0.950 . S
C1375 C1373 1.390 1_554 S
C1375 C1376 1.387 . S
C1375 H1378 0.950 . S
C1376 C1375 1.387 . S
C1376 C1379 1.387 . S
H1377 C1373 0.950 . S
H1378 C1375 0.950 . S
C1379 C1370 1.390 1_554 S
C1379 H1372 0.950 . S
C1379 C1376 1.387 . S
C1380 C1381 1.387 . S
C1380 H1384 0.950 . S
C1380 C1389 1.390 . S
C1381 C1380 1.387 . S
C1381 C1383 1.387 . S
H1382 C1389 0.950 . S
C1383 C1381 1.387 . S
C1383 C1385 1.390 . S
C1383 H1387 0.950 . S
H1384 C1380 0.950 . S
C1385 C1383 1.390 . S
C1385 C1386 1.387 . S
C1385 H1388 0.950 . S
C1386 C1385 1.387 . S
C1386 C1389 1.387 . S
H1387 C1383 0.950 . S
H1388 C1385 0.950 . S
C1389 C1380 1.390 . S
C1389 H1382 0.950 . S
C1389 C1386 1.387 . S
C1390 C1391 1.387 . S
C1390 H1394 0.950 . S
C1390 C1399 1.390 . S
C1391 C1390 1.387 . S
C1391 C1393 1.387 . S
H1392 C1399 0.950 . S
C1393 C1391 1.387 . S
C1393 C1395 1.390 . S
C1393 H1397 0.950 . S
H1394 C1390 0.950 . S
C1395 C1393 1.390 . S
C1395 C1396 1.387 . S
C1395 H1398 0.950 . S
C1396 C1395 1.387 . S
C1396 C1399 1.387 . S
H1397 C1393 0.950 . S
H1398 C1395 0.950 . S
C1399 C1390 1.390 . S
C1399 H1392 0.950 . S
C1399 C1396 1.387 . S
C1400 C1401 1.387 . S
C1400 H1404 0.950 . S
C1400 C1409 1.390 . S
C1401 C1400 1.387 . S
C1401 C1403 1.387 . S
H1402 C1409 0.950 . S
C1403 C1401 1.387 . S
C1403 C1405 1.390 . S
C1403 H1407 0.950 . S
H1404 C1400 0.950 . S
C1405 C1403 1.390 . S
C1405 C1406 1.387 . S
C1405 H1408 0.950 . S
C1406 C1405 1.387 . S
C1406 C1409 1.387 . S
H1407 C1403 0.950 . S
H1408 C1405 0.950 . S
C1409 C1400 1.390 . S
C1409 H1402 0.950 . S
C1409 C1406 1.387 . S
C1410 C1411 1.387 . S
C1410 H1414 0.950 . S
C1410 C1419 1.390 . S
C1411 C1410 1.387 . S
C1411 C1413 1.387 . S
H1412 C1419 0.950 . S
C1413 C1411 1.387 . S
C1413 C1415 1.390 . S
C1413 H1417 0.950 . S
H1414 C1410 0.950 . S
C1415 C1413 1.390 . S
C1415 C1416 1.387 . S
C1415 H1418 0.950 . S
C1416 C1415 1.387 . S
C1416 C1419 1.387 . S
H1417 C1413 0.950 . S
H1418 C1415 0.950 . S
C1419 C1410 1.390 . S
C1419 H1412 0.950 . S
C1419 C1416 1.387 . S
C1420 C1421 1.387 . S
C1420 H1424 0.950 . S
C1420 C1429 1.390 . S
C1421 C1420 1.387 . S
C1421 C1423 1.387 . S
H1422 C1429 0.950 . S
C1423 C1421 1.387 . S
C1423 C1425 1.390 . S
C1423 H1427 0.950 . S
H1424 C1420 0.950 . S
C1425 C1423 1.390 . S
C1425 C1426 1.387 1_554 S
C1425 H1428 0.950 1_554 S
C1426 C1425 1.387 1_556 S
C1426 C1429 1.387 1_556 S
H1427 C1423 0.950 . S
H1428 C1425 0.950 1_556 S
C1429 C1420 1.390 . S
C1429 H1422 0.950 . S
C1429 C1426 1.387 1_554 S
C1430 C1431 1.387 . S
C1430 H1434 0.950 . S
C1430 C1439 1.390 . S
C1431 C1430 1.387 . S
C1431 C1433 1.387 . S
H1432 C1439 0.950 . S
C1433 C1431 1.387 . S
C1433 C1435 1.390 . S
C1433 H1437 0.950 . S
H1434 C1430 0.950 . S
C1435 C1433 1.390 . S
C1435 C1436 1.387 . S
C1435 H1438 0.950 . S
C1436 C1435 1.387 . S
C1436 C1439 1.387 . S
H1437 C1433 0.950 . S
H1438 C1435 0.950 . S
C1439 C1430 1.390 . S
C1439 H1432 0.950 . S
C1439 C1436 1.387 . S
C1440 C1441 1.387 . S
C1440 H1444 0.950 . S
C1440 C1449 1.390 . S
C1441 C1440 1.387 . S
C1441 C1443 1.387 . S
H1442 C1449 0.950 . S
C1443 C1441 1.387 . S
C1443 C1445 1.390 . S
C1443 H1447 0.950 . S
H1444 C1440 0.950 . S
C1445 C1443 1.390 . S
C1445 C1446 1.387 . S
C1445 H1448 0.950 . S
C1446 C1445 1.387 . S
C1446 C1449 1.387 . S
H1447 C1443 0.950 . S
H1448 C1445 0.950 . S
C1449 C1440 1.390 . S
C1449 H1442 0.950 . S
C1449 C1446 1.387 . S
C1450 C1451 1.387 . S
C1450 H1454 0.950 . S
C1450 C1459 1.390 . S
C1451 C1450 1.387 . S
C1451 C1453 1.387 . S
H1452 C1459 0.950 . S
C1453 C1451 1.387 . S
C1453 C1455 1.390 . S
C1453 H1457 0.950 . S
H1454 C1450 0.950 . S
C1455 C1453 1.390 . S
C1455 C1456 1.387 . S
C1455 H1458 0.950 . S
C1456 C1455 1.387 . S
C1456 C1459 1.387 . S
H1457 C1453 0.950 . S
H1458 C1455 0.950 . S
C1459 C1450 1.390 . S
C1459 H1452 0.950 . S
C1459 C1456 1.387 . S
C1460 C1461 1.387 . S
C1460 H1464 0.950 . S
C1460 C1469 1.390 . S
C1461 C1460 1.387 . S
C1461 C1463 1.387 . S
H1462 C1469 0.950 . S
C1463 C1461 1.387 . S
C1463 C1465 1.390 . S
C1463 H1467 0.950 . S
H1464 C1460 0.950 . S
C1465 C1463 1.390 . S
C1465 C1466 1.387 . S
C1465 H1468 0.950 . S
C1466 C1465 1.387 . S
C1466 C1469 1.387 . S
H1467 C1463 0.950 . S
H1468 C1465 0.950 . S
C1469 C1460 1.390 . S
C1469 H1462 0.950 . S
C1469 C1466 1.387 . S
C1470 C1471 1.387 . S
C1470 H1474 0.950 . S
C1470 C1479 1.390 . S
C1471 C1470 1.387 . S
C1471 C1473 1.387 . S
H1472 C1479 0.950 . S
C1473 C1471 1.387 . S
C1473 C1475 1.390 . S
C1473 H1477 0.950 . S
H1474 C1470 0.950 . S
C1475 C1473 1.390 . S
C1475 C1476 1.387 . S
C1475 H1478 0.950 . S
C1476 C1475 1.387 . S
C1476 C1479 1.387 . S
H1477 C1473 0.950 . S
H1478 C1475 0.950 . S
C1479 C1470 1.390 . S
C1479 H1472 0.950 . S
C1479 C1476 1.387 . S
C1480 C1481 1.387 . S
C1480 H1484 0.950 . S
C1480 C1489 1.390 . S
C1481 C1480 1.387 . S
C1481 C1483 1.387 . S
H1482 C1489 0.950 . S
C1483 C1481 1.387 . S
C1483 C1485 1.390 . S
C1483 H1487 0.950 . S
H1484 C1480 0.950 . S
C1485 C1483 1.390 . S
C1485 C1486 1.387 . S
C1485 H1488 0.950 . S
C1486 C1485 1.387 . S
C1486 C1489 1.387 . S
H1487 C1483 0.950 . S
H1488 C1485 0.950 . S
C1489 C1480 1.390 . S
C1489 H1482 0.950 . S
C1489 C1486 1.387 . S
C1490 C1491 1.387 . S
C1490 H1494 0.950 . S
C1490 C1499 1.390 . S
C1491 C1490 1.387 . S
C1491 C1493 1.387 . S
H1492 C1499 0.950 . S
C1493 C1491 1.387 . S
C1493 C1495 1.390 . S
C1493 H1497 0.950 . S
H1494 C1490 0.950 . S
C1495 C1493 1.390 . S
C1495 C1496 1.387 . S
C1495 H1498 0.950 . S
C1496 C1495 1.387 . S
C1496 C1499 1.387 . S
H1497 C1493 0.950 . S
H1498 C1495 0.950 . S
C1499 C1490 1.390 . S
C1499 H1492 0.950 . S
C1499 C1496 1.387 . S
C1500 C1501 1.387 . S
C1500 H1504 0.950 . S
C1500 C1509 1.390 . S
C1501 C1500 1.387 . S
C1501 C1503 1.387 . S
H1502 C1509 0.950 . S
C1503 C1501 1.387 . S
C1503 C1505 1.390 . S
C1503 H1507 0.950 . S
H1504 C1500 0.950 . S
C1505 C1503 1.390 . S
C1505 C1506 1.387 . S
C1505 H1508 0.950 . S
C1506 C1505 1.387 . S
C1506 C1509 1.387 . S
H1507 C1503 0.950 . S
H1508 C1505 0.950 . S
C1509 C1500 1.390 . S
C1509 H1502 0.950 . S
C1509 C1506 1.387 . S
C1510 C1511 1.387 . S
C1510 H1514 0.950 . S
C1510 C1519 1.390 . S
C1511 C1510 1.387 . S
C1511 C1513 1.387 . S
H1512 C1519 0.950 . S
C1513 C1511 1.387 . S
C1513 C1515 1.390 . S
C1513 H1517 0.950 . S
H1514 C1510 0.950 . S
C1515 C1513 1.390 . S
C1515 C1516 1.387 . S
C1515 H1518 0.950 . S
C1516 C1515 1.387 . S
C1516 C1519 1.387 . S
H1517 C1513 0.950 . S
H1518 C1515 0.950 . S
C1519 C1510 1.390 . S
C1519 H1512 0.950 . S
C1519 C1516 1.387 . S
C1520 C1521 1.387 . S
C1520 H1524 0.950 . S
C1520 C1529 1.390 . S
C1521 C1520 1.387 . S
C1521 C1523 1.387 . S
H1522 C1529 0.950 . S
C1523 C1521 1.387 . S
C1523 C1525 1.390 . S
C1523 H1527 0.950 . S
H1524 C1520 0.950 . S
C1525 C1523 1.390 . S
C1525 C1526 1.387 . S
C1525 H1528 0.950 . S
C1526 C1525 1.387 . S
C1526 C1529 1.387 . S
H1527 C1523 0.950 . S
H1528 C1525 0.950 . S
C1529 C1520 1.390 . S
C1529 H1522 0.950 . S
C1529 C1526 1.387 . S
C1530 C1531 1.387 . S
C1530 H1534 0.950 . S
C1530 C1539 1.390 . S
C1531 C1530 1.387 . S
C1531 C1533 1.387 . S
H1532 C1539 0.950 . S
C1533 C1531 1.387 . S
C1533 C1535 1.390 . S
C1533 H1537 0.950 . S
H1534 C1530 0.950 . S
C1535 C1533 1.390 . S
C1535 C1536 1.387 . S
C1535 H1538 0.950 . S
C1536 C1535 1.387 . S
C1536 C1539 1.387 . S
H1537 C1533 0.950 . S
H1538 C1535 0.950 . S
C1539 C1530 1.390 . S
C1539 H1532 0.950 . S
C1539 C1536 1.387 . S
C1540 C1541 1.387 . S
C1540 H1544 0.950 . S
C1540 C1549 1.390 . S
C1541 C1540 1.387 . S
C1541 C1543 1.387 . S
H1542 C1549 0.950 . S
C1543 C1541 1.387 . S
C1543 C1545 1.390 . S
C1543 H1547 0.950 . S
H1544 C1540 0.950 . S
C1545 C1543 1.390 . S
C1545 C1546 1.387 . S
C1545 H1548 0.950 . S
C1546 C1545 1.387 . S
C1546 C1549 1.387 . S
H1547 C1543 0.950 . S
H1548 C1545 0.950 . S
C1549 C1540 1.390 . S
C1549 H1542 0.950 . S
C1549 C1546 1.387 . S
C1550 C1551 1.387 . S
C1550 H1554 0.950 . S
C1550 C1559 1.390 . S
C1551 C1550 1.387 . S
C1551 C1553 1.387 . S
H1552 C1559 0.950 . S
C1553 C1551 1.387 . S
C1553 C1555 1.390 . S
C1553 H1557 0.950 . S
H1554 C1550 0.950 . S
C1555 C1553 1.390 . S
C1555 C1556 1.387 . S
C1555 H1558 0.950 . S
C1556 C1555 1.387 . S
C1556 C1559 1.387 . S
H1557 C1553 0.950 . S
H1558 C1555 0.950 . S
C1559 C1550 1.390 . S
C1559 H1552 0.950 . S
C1559 C1556 1.387 . S
C1560 C1561 1.387 . S
C1560 H1564 0.950 . S
C1560 C1569 1.390 . S
C1561 C1560 1.387 . S
C1561 C1563 1.387 . S
H1562 C1569 0.950 . S
C1563 C1561 1.387 . S
C1563 C1565 1.390 . S
C1563 H1567 0.950 . S
H1564 C1560 0.950 . S
C1565 C1563 1.390 . S
C1565 C1566 1.387 . S
C1565 H1568 0.950 . S
C1566 C1565 1.387 . S
C1566 C1569 1.387 . S
H1567 C1563 0.950 . S
H1568 C1565 0.950 . S
C1569 C1560 1.390 . S
C1569 H1562 0.950 . S
C1569 C1566 1.387 . S
C1570 C1571 1.387 . S
C1570 H1574 0.950 . S
C1570 C1579 1.390 . S
C1571 C1570 1.387 . S
C1571 C1573 1.387 . S
H1572 C1579 0.950 . S
C1573 C1571 1.387 . S
C1573 C1575 1.390 . S
C1573 H1577 0.950 . S
H1574 C1570 0.950 . S
C1575 C1573 1.390 . S
C1575 C1576 1.387 . S
C1575 H1578 0.950 . S
C1576 C1575 1.387 . S
C1576 C1579 1.387 . S
H1577 C1573 0.950 . S
H1578 C1575 0.950 . S
C1579 C1570 1.390 . S
C1579 H1572 0.950 . S
C1579 C1576 1.387 . S
C1580 C1581 1.387 . S
C1580 H1584 0.950 . S
C1580 C1589 1.390 . S
C1581 C1580 1.387 . S
C1581 C1583 1.387 . S
H1582 C1589 0.950 . S
C1583 C1581 1.387 . S
C1583 C1585 1.390 . S
C1583 H1587 0.950 . S
H1584 C1580 0.950 . S
C1585 C1583 1.390 . S
C1585 C1586 1.387 . S
C1585 H1588 0.950 . S
C1586 C1585 1.387 . S
C1586 C1589 1.387 . S
H1587 C1583 0.950 . S
H1588 C1585 0.950 . S
C1589 C1580 1.390 . S
C1589 H1582 0.950 . S
C1589 C1586 1.387 . S
C1590 C1591 1.387 1_554 S
C1590 H1594 0.950 1_554 S
C1590 C1599 1.390 . S
C1591 C1590 1.387 1_556 S
C1591 C1593 1.378 1_556 S
H1592 C1599 0.950 . S
C1593 C1591 1.378 1_554 S
C1593 C1595 1.405 . S
C1593 H1597 0.944 1_554 S
H1594 C1590 0.950 1_556 S
C1595 C1593 1.405 . S
C1595 C1596 1.387 . S
C1595 H1598 0.950 . S
C1596 C1595 1.387 . S
C1596 C1599 1.387 . S
H1597 C1593 0.944 1_556 S
H1598 C1595 0.950 . S
C1599 C1590 1.390 . S
C1599 H1592 0.950 . S
C1599 C1596 1.387 . S
C1600 C1601 1.387 1_455 S
C1600 H1604 0.950 . S
C1600 C1609 1.390 . S
C1601 C1600 1.387 1_655 S
C1601 C1603 1.387 . S
H1602 C1609 0.950 . S
C1603 C1601 1.387 . S
C1603 C1605 1.390 . S
C1603 H1607 0.950 . S
H1604 C1600 0.950 . S
C1605 C1603 1.390 . S
C1605 C1606 1.387 1_655 S
C1605 H1608 0.950 . S
C1606 C1605 1.387 1_455 S
C1606 C1609 1.387 . S
H1607 C1603 0.950 . S
H1608 C1605 0.950 . S
C1609 C1600 1.390 . S
C1609 H1602 0.950 . S
C1609 C1606 1.387 . S
C1610 C1611 1.387 . S
C1610 H1614 0.950 . S
C1610 C1619 1.390 . S
C1611 C1610 1.387 . S
C1611 C1613 1.387 . S
H1612 C1619 0.950 . S
C1613 C1611 1.387 . S
C1613 C1615 1.390 . S
C1613 H1617 0.950 . S
H1614 C1610 0.950 . S
C1615 C1613 1.390 . S
C1615 C1616 1.387 . S
C1615 H1618 0.950 . S
C1616 C1615 1.387 . S
C1616 C1619 1.387 . S
H1617 C1613 0.950 . S
H1618 C1615 0.950 . S
C1619 C1610 1.390 . S
C1619 H1612 0.950 . S
C1619 C1616 1.387 . S
C1620 C1621 1.387 . S
C1620 H1624 0.950 . S
C1620 C1629 1.390 . S
C1621 C1620 1.387 . S
C1621 C1623 1.387 . S
H1622 C1629 0.950 . S
C1623 C1621 1.387 . S
C1623 C1625 1.390 . S
C1623 H1627 0.950 . S
H1624 C1620 0.950 . S
C1625 C1623 1.390 . S
C1625 C1626 1.387 . S
C1625 H1628 0.950 . S
C1626 C1625 1.387 . S
C1626 C1629 1.387 . S
H1627 C1623 0.950 . S
H1628 C1625 0.950 . S
C1629 C1620 1.390 . S
C1629 H1622 0.950 . S
C1629 C1626 1.387 . S
C1630 C1631 1.387 . S
C1630 H1634 0.950 . S
C1630 C1639 1.390 . S
C1631 C1630 1.387 . S
C1631 C1633 1.387 . S
H1632 C1639 0.950 . S
C1633 C1631 1.387 . S
C1633 C1635 1.390 . S
C1633 H1637 0.950 . S
H1634 C1630 0.950 . S
C1635 C1633 1.390 . S
C1635 C1636 1.387 . S
C1635 H1638 0.950 . S
C1636 C1635 1.387 . S
C1636 C1639 1.387 . S
H1637 C1633 0.950 . S
H1638 C1635 0.950 . S
C1639 C1630 1.390 . S
C1639 H1632 0.950 . S
C1639 C1636 1.387 . S
C1640 C1641 1.387 . S
C1640 H1644 0.950 . S
C1640 C1649 1.390 1_655 S
C1641 C1640 1.387 . S
C1641 C1643 1.387 . S
H1642 C1649 0.950 . S
C1643 C1641 1.387 . S
C1643 C1645 1.390 1_655 S
C1643 H1647 0.950 . S
H1644 C1640 0.950 . S
C1645 C1643 1.390 1_455 S
C1645 C1646 1.387 . S
C1645 H1648 0.950 . S
C1646 C1645 1.387 . S
C1646 C1649 1.387 . S
H1647 C1643 0.950 . S
H1648 C1645 0.950 . S
C1649 C1640 1.390 1_455 S
C1649 H1642 0.950 . S
C1649 C1646 1.387 . S
C1650 C1651 1.387 . S
C1650 H1654 0.950 . S
C1650 C1659 1.390 . S
C1651 C1650 1.387 . S
C1651 C1653 1.387 . S
H1652 C1659 0.950 . S
C1653 C1651 1.387 . S
C1653 C1655 1.390 . S
C1653 H1657 0.950 . S
H1654 C1650 0.950 . S
C1655 C1653 1.390 . S
C1655 C1656 1.387 . S
C1655 H1658 0.950 . S
C1656 C1655 1.387 . S
C1656 C1659 1.387 . S
H1657 C1653 0.950 . S
H1658 C1655 0.950 . S
C1659 C1650 1.390 . S
C1659 H1652 0.950 . S
C1659 C1656 1.387 . S
C1660 C1661 1.387 . S
C1660 H1664 0.950 . S
C1660 C1669 1.390 . S
C1661 C1660 1.387 . S
C1661 C1663 1.387 . S
H1662 C1669 0.950 . S
C1663 C1661 1.387 . S
C1663 C1665 1.390 . S
C1663 H1667 0.950 . S
H1664 C1660 0.950 . S
C1665 C1663 1.390 . S
C1665 C1666 1.387 . S
C1665 H1668 0.950 . S
C1666 C1665 1.387 . S
C1666 C1669 1.387 . S
H1667 C1663 0.950 . S
H1668 C1665 0.950 . S
C1669 C1660 1.390 . S
C1669 H1662 0.950 . S
C1669 C1666 1.387 . S
C1670 C1671 1.387 . S
C1670 H1674 0.950 . S
C1670 C1679 1.390 . S
C1671 C1670 1.387 . S
C1671 C1673 1.387 . S
H1672 C1679 0.950 . S
C1673 C1671 1.387 . S
C1673 C1675 1.390 . S
C1673 H1677 0.950 . S
H1674 C1670 0.950 . S
C1675 C1673 1.390 . S
C1675 C1676 1.387 . S
C1675 H1678 0.950 . S
C1676 C1675 1.387 . S
C1676 C1679 1.387 . S
H1677 C1673 0.950 . S
H1678 C1675 0.950 . S
C1679 C1670 1.390 . S
C1679 H1672 0.950 . S
C1679 C1676 1.387 . S
C1680 C1681 1.387 . S
C1680 H1684 0.950 . S
C1680 C1689 1.390 . S
C1681 C1680 1.387 . S
C1681 C1683 1.387 . S
H1682 C1689 0.950 . S
C1683 C1681 1.387 . S
C1683 C1685 1.390 . S
C1683 H1687 0.950 . S
H1684 C1680 0.950 . S
C1685 C1683 1.390 . S
C1685 C1686 1.387 . S
C1685 H1688 0.950 . S
C1686 C1685 1.387 . S
C1686 C1689 1.387 . S
H1687 C1683 0.950 . S
H1688 C1685 0.950 . S
C1689 C1680 1.390 . S
C1689 H1682 0.950 . S
C1689 C1686 1.387 . S
C1690 C1691 1.387 . S
C1690 H1694 0.950 . S
C1690 C1699 1.390 . S
C1691 C1690 1.387 . S
C1691 C1693 1.387 . S
H1692 C1699 0.950 . S
C1693 C1691 1.387 . S
C1693 C1695 1.390 . S
C1693 H1697 0.950 . S
H1694 C1690 0.950 . S
C1695 C1693 1.390 . S
C1695 C1696 1.387 . S
C1695 H1698 0.950 . S
C1696 C1695 1.387 . S
C1696 C1699 1.387 . S
H1697 C1693 0.950 . S
H1698 C1695 0.950 . S
C1699 C1690 1.390 . S
C1699 H1692 0.950 . S
C1699 C1696 1.387 . S
C1700 C1701 1.387 . S
C1700 H1704 0.950 . S
C1700 C1709 1.390 . S
C1701 C1700 1.387 . S
C1701 C1703 1.387 . S
H1702 C1709 0.950 . S
C1703 C1701 1.387 . S
C1703 C1705 1.390 . S
C1703 H1707 0.950 . S
H1704 C1700 0.950 . S
C1705 C1703 1.390 . S
C1705 C1706 1.387 . S
C1705 H1708 0.950 . S
C1706 C1705 1.387 . S
C1706 C1709 1.387 . S
H1707 C1703 0.950 . S
H1708 C1705 0.950 . S
C1709 C1700 1.390 . S
C1709 H1702 0.950 . S
C1709 C1706 1.387 . S
C1710 C1711 1.387 . S
C1710 H1714 0.950 . S
C1710 C1719 1.390 . S
C1711 C1710 1.387 . S
C1711 C1713 1.387 . S
H1712 C1719 0.950 . S
C1713 C1711 1.387 . S
C1713 C1715 1.390 . S
C1713 H1717 0.950 . S
H1714 C1710 0.950 . S
C1715 C1713 1.390 . S
C1715 C1716 1.387 . S
C1715 H1718 0.950 . S
C1716 C1715 1.387 . S
C1716 C1719 1.387 . S
H1717 C1713 0.950 . S
H1718 C1715 0.950 . S
C1719 C1710 1.390 . S
C1719 H1712 0.950 . S
C1719 C1716 1.387 . S
C1720 C1721 1.387 1_565 S
C1720 H1724 0.950 . S
C1720 C1729 1.390 . S
C1721 C1720 1.387 1_545 S
C1721 C1723 1.387 . S
H1722 C1729 0.950 . S
C1723 C1721 1.387 . S
C1723 C1725 1.390 . S
C1723 H1727 0.950 . S
H1724 C1720 0.950 . S
C1725 C1723 1.390 . S
C1725 C1726 1.387 1_545 S
C1725 H1728 0.950 . S
C1726 C1725 1.387 1_565 S
C1726 C1729 1.387 . S
H1727 C1723 0.950 . S
H1728 C1725 0.950 . S
C1729 C1720 1.390 . S
C1729 H1722 0.950 . S
C1729 C1726 1.387 . S
C1730 C1731 1.387 . S
C1730 H1734 0.950 . S
C1730 C1739 1.390 . S
C1731 C1730 1.387 . S
C1731 C1733 1.387 1_465 S
H1732 C1739 0.950 . S
C1733 C1731 1.387 1_645 S
C1733 C1735 1.390 . S
C1733 H1737 0.950 . S
H1734 C1730 0.950 . S
C1735 C1733 1.390 . S
C1735 C1736 1.387 . S
C1735 H1738 0.950 . S
C1736 C1735 1.387 . S
C1736 C1739 1.387 1_645 S
H1737 C1733 0.950 . S
H1738 C1735 0.950 . S
C1739 C1730 1.390 . S
C1739 H1732 0.950 . S
C1739 C1736 1.387 1_465 S
C1740 C1741 1.387 1_545 S
C1740 H1744 0.950 . S
C1740 C1749 1.390 . S
C1741 C1740 1.387 1_565 S
C1741 C1743 1.387 . S
H1742 C1749 0.950 . S
C1743 C1741 1.387 . S
C1743 C1745 1.390 . S
C1743 H1747 0.950 . S
H1744 C1740 0.950 . S
C1745 C1743 1.390 . S
C1745 C1746 1.387 1_565 S
C1745 H1748 0.950 . S
C1746 C1745 1.387 1_545 S
C1746 C1749 1.387 . S
H1747 C1743 0.950 . S
H1748 C1745 0.950 . S
C1749 C1740 1.390 . S
C1749 H1742 0.950 . S
C1749 C1746 1.387 . S
C1750 C1751 1.387 . S
C1750 H1754 0.950 . S
C1750 C1759 1.390 1_655 S
C1751 C1750 1.387 . S
C1751 C1753 1.387 1_545 S
H1752 C1759 0.950 . S
C1753 C1751 1.387 1_565 S
C1753 C1755 1.390 1_655 S
C1753 H1757 0.950 . S
H1754 C1750 0.950 . S
C1755 C1753 1.390 1_455 S
C1755 C1756 1.387 . S
C1755 H1758 0.950 . S
C1756 C1755 1.387 . S
C1756 C1759 1.387 1_565 S
H1757 C1753 0.950 . S
H1758 C1755 0.950 . S
C1759 C1750 1.390 1_455 S
C1759 H1752 0.950 . S
C1759 C1756 1.387 1_545 S
C1760 C1761 1.387 . S
C1760 H1764 0.950 . S
C1760 C1769 1.390 1_455 S
C1761 C1760 1.387 . S
C1761 C1763 1.387 . S
H1762 C1769 0.950 . S
C1763 C1761 1.387 . S
C1763 C1765 1.390 1_455 S
C1763 H1767 0.950 . S
H1764 C1760 0.950 . S
C1765 C1763 1.390 1_655 S
C1765 C1766 1.387 . S
C1765 H1768 0.950 . S
C1766 C1765 1.387 . S
C1766 C1769 1.387 . S
H1767 C1763 0.950 . S
H1768 C1765 0.950 . S
C1769 C1760 1.390 1_655 S
C1769 H1762 0.950 . S
C1769 C1766 1.387 . S
C1770 C1771 1.387 . S
C1770 H1774 0.950 . S
C1770 C1779 1.390 . S
C1771 C1770 1.387 . S
C1771 C1773 1.387 . S
H1772 C1779 0.950 . S
C1773 C1771 1.387 . S
C1773 C1775 1.390 . S
C1773 H1777 0.950 . S
H1774 C1770 0.950 . S
C1775 C1773 1.390 . S
C1775 C1776 1.387 . S
C1775 H1778 0.950 . S
C1776 C1775 1.387 . S
C1776 C1779 1.387 . S
H1777 C1773 0.950 . S
H1778 C1775 0.950 . S
C1779 C1770 1.390 . S
C1779 H1772 0.950 . S
C1779 C1776 1.387 . S
C1780 C1781 1.387 . S
C1780 H1784 0.950 . S
C1780 C1789 1.390 . S
C1781 C1780 1.387 . S
C1781 C1783 1.387 . S
H1782 C1789 0.950 . S
C1783 C1781 1.387 . S
C1783 C1785 1.390 . S
C1783 H1787 0.950 . S
H1784 C1780 0.950 . S
C1785 C1783 1.390 . S
C1785 C1786 1.387 . S
C1785 H1788 0.950 . S
C1786 C1785 1.387 . S
C1786 C1789 1.387 . S
H1787 C1783 0.950 . S
H1788 C1785 0.950 . S
C1789 C1780 1.390 . S
C1789 H1782 0.950 . S
C1789 C1786 1.387 . S
C1790 C1791 1.387 . S
C1790 H1794 0.950 . S
C1790 C1799 1.390 . S
C1791 C1790 1.387 . S
C1791 C1793 1.387 . S
H1792 C1799 0.950 . S
C1793 C1791 1.387 . S
C1793 C1795 1.390 . S
C1793 H1797 0.950 . S
H1794 C1790 0.950 . S
C1795 C1793 1.390 . S
C1795 C1796 1.387 . S
C1795 H1798 0.950 . S
C1796 C1795 1.387 . S
C1796 C1799 1.387 . S
H1797 C1793 0.950 . S
H1798 C1795 0.950 . S
C1799 C1790 1.390 . S
C1799 H1792 0.950 . S
C1799 C1796 1.387 . S
C1800 C1801 1.387 1_455 S
C1800 H1804 0.960 . S
C1800 C1809 1.390 . S
C1801 C1800 1.387 1_655 S
C1801 C1803 1.387 1_655 S
H1802 C1809 0.950 . S
C1803 C1801 1.387 1_455 S
C1803 C1805 1.390 . S
C1803 H1807 0.957 . S
H1804 C1800 0.960 . S
C1805 C1803 1.390 . S
C1805 C1806 1.387 . S
C1805 H1808 0.950 . S
C1806 C1805 1.387 . S
C1806 C1809 1.387 . S
H1807 C1803 0.957 . S
H1808 C1805 0.950 . S
C1809 C1800 1.390 . S
C1809 H1802 0.950 . S
C1809 C1806 1.387 . S
C1810 C1811 1.387 . S
C1810 H1814 0.950 . S
C1810 C1819 1.390 . S
C1811 C1810 1.387 . S
C1811 C1813 1.387 . S
H1812 C1819 0.950 . S
C1813 C1811 1.387 . S
C1813 C1815 1.390 . S
C1813 H1817 0.950 . S
H1814 C1810 0.950 . S
C1815 C1813 1.390 . S
C1815 C1816 1.387 . S
C1815 H1818 0.950 . S
C1816 C1815 1.387 . S
C1816 C1819 1.387 . S
H1817 C1813 0.950 . S
H1818 C1815 0.950 . S
C1819 C1810 1.390 . S
C1819 H1812 0.950 . S
C1819 C1816 1.387 . S
C1820 C1821 1.387 . S
C1820 H1824 0.950 . S
C1820 C1829 1.390 . S
C1821 C1820 1.387 . S
C1821 C1823 1.387 . S
H1822 C1829 0.950 . S
C1823 C1821 1.387 . S
C1823 C1825 1.390 . S
C1823 H1827 0.950 . S
H1824 C1820 0.950 . S
C1825 C1823 1.390 . S
C1825 C1826 1.387 . S
C1825 H1828 0.950 . S
C1826 C1825 1.387 . S
C1826 C1829 1.387 . S
H1827 C1823 0.950 . S
H1828 C1825 0.950 . S
C1829 C1820 1.390 . S
C1829 H1822 0.950 . S
C1829 C1826 1.387 . S
C1830 C1831 1.387 . S
C1830 H1834 0.950 . S
C1830 C1839 1.390 . S
C1831 C1830 1.387 . S
C1831 C1833 1.387 . S
H1832 C1839 0.950 . S
C1833 C1831 1.387 . S
C1833 C1835 1.390 . S
C1833 H1837 0.950 . S
H1834 C1830 0.950 . S
C1835 C1833 1.390 . S
C1835 C1836 1.387 . S
C1835 H1838 0.950 . S
C1836 C1835 1.387 . S
C1836 C1839 1.387 . S
H1837 C1833 0.950 . S
H1838 C1835 0.950 . S
C1839 C1830 1.390 . S
C1839 H1832 0.950 . S
C1839 C1836 1.387 . S
C1840 C1841 1.387 1_655 S
C1840 H1844 0.950 . S
C1840 C1849 1.390 . S
C1841 C1840 1.387 1_455 S
C1841 C1843 1.387 . S
H1842 C1849 0.950 . S
C1843 C1841 1.387 . S
C1843 C1845 1.390 1_455 S
C1843 H1847 0.950 . S
H1844 C1840 0.950 . S
C1845 C1843 1.390 1_655 S
C1845 C1846 1.387 . S
C1845 H1848 0.950 . S
C1846 C1845 1.387 . S
C1846 C1849 1.387 . S
H1847 C1843 0.950 . S
H1848 C1845 0.950 . S
C1849 C1840 1.390 . S
C1849 H1842 0.950 . S
C1849 C1846 1.387 . S
C1850 C1851 1.387 . S
C1850 H1854 0.950 . S
C1850 C1859 1.390 . S
C1851 C1850 1.387 . S
C1851 C1853 1.387 . S
H1852 C1859 0.950 . S
C1853 C1851 1.387 . S
C1853 C1855 1.390 . S
C1853 H1857 0.950 . S
H1854 C1850 0.950 . S
C1855 C1853 1.390 . S
C1855 C1856 1.387 . S
C1855 H1858 0.950 . S
C1856 C1855 1.387 . S
C1856 C1859 1.387 . S
H1857 C1853 0.950 . S
H1858 C1855 0.950 . S
C1859 C1850 1.390 . S
C1859 H1852 0.950 . S
C1859 C1856 1.387 . S
C1860 C1861 1.387 . S
C1860 H1864 0.950 . S
C1860 C1869 1.390 . S
C1861 C1860 1.387 . S
C1861 C1863 1.387 . S
H1862 C1869 0.950 . S
C1863 C1861 1.387 . S
C1863 C1865 1.390 . S
C1863 H1867 0.950 . S
H1864 C1860 0.950 . S
C1865 C1863 1.390 . S
C1865 C1866 1.387 . S
C1865 H1868 0.950 . S
C1866 C1865 1.387 . S
C1866 C1869 1.387 . S
H1867 C1863 0.950 . S
H1868 C1865 0.950 . S
C1869 C1860 1.390 . S
C1869 H1862 0.950 . S
C1869 C1866 1.387 . S
C1870 C1871 1.387 . S
C1870 H1874 0.950 . S
C1870 C1879 1.390 . S
C1871 C1870 1.387 . S
C1871 C1873 1.387 . S
H1872 C1879 0.950 . S
C1873 C1871 1.387 . S
C1873 C1875 1.390 . S
C1873 H1877 0.950 . S
H1874 C1870 0.950 . S
C1875 C1873 1.390 . S
C1875 C1876 1.387 . S
C1875 H1878 0.950 . S
C1876 C1875 1.387 . S
C1876 C1879 1.387 . S
H1877 C1873 0.950 . S
H1878 C1875 0.950 . S
C1879 C1870 1.390 . S
C1879 H1872 0.950 . S
C1879 C1876 1.387 . S
C1880 C1881 1.387 1_655 S
C1880 H1884 0.961 . S
C1880 C1889 1.390 . S
C1881 C1880 1.387 1_455 S
C1881 C1883 1.387 1_455 S
H1882 C1889 0.950 . S
C1883 C1881 1.387 1_655 S
C1883 C1885 1.390 . S
C1883 H1887 0.958 . S
H1884 C1880 0.961 . S
C1885 C1883 1.390 . S
C1885 C1886 1.387 . S
C1885 H1888 0.950 . S
C1886 C1885 1.387 . S
C1886 C1889 1.387 . S
H1887 C1883 0.958 . S
H1888 C1885 0.950 . S
C1889 C1880 1.390 . S
C1889 H1882 0.950 . S
C1889 C1886 1.387 . S
C1890 C1891 1.387 . S
C1890 H1894 0.950 . S
C1890 C1899 1.390 . S
C1891 C1890 1.387 . S
C1891 C1893 1.387 . S
H1892 C1899 0.950 . S
C1893 C1891 1.387 . S
C1893 C1895 1.390 . S
C1893 H1897 0.950 . S
H1894 C1890 0.950 . S
C1895 C1893 1.390 . S
C1895 C1896 1.387 . S
C1895 H1898 0.950 . S
C1896 C1895 1.387 . S
C1896 C1899 1.387 . S
H1897 C1893 0.950 . S
H1898 C1895 0.950 . S
C1899 C1890 1.390 . S
C1899 H1892 0.950 . S
C1899 C1896 1.387 . S
C1900 C1901 1.387 . S
C1900 H1904 0.950 . S
C1900 C1909 1.390 . S
C1901 C1900 1.387 . S
C1901 C1903 1.387 . S
H1902 C1909 0.950 . S
C1903 C1901 1.387 . S
C1903 C1905 1.390 . S
C1903 H1907 0.950 . S
H1904 C1900 0.950 . S
C1905 C1903 1.390 . S
C1905 C1906 1.387 . S
C1905 H1908 0.950 . S
C1906 C1905 1.387 . S
C1906 C1909 1.387 . S
H1907 C1903 0.950 . S
H1908 C1905 0.950 . S
C1909 C1900 1.390 . S
C1909 H1902 0.950 . S
C1909 C1906 1.387 . S
C1910 C1911 1.387 . S
C1910 H1914 0.950 . S
C1910 C1919 1.390 . S
C1911 C1910 1.387 . S
C1911 C1913 1.387 . S
H1912 C1919 0.950 . S
C1913 C1911 1.387 . S
C1913 C1915 1.390 . S
C1913 H1917 0.950 . S
H1914 C1910 0.950 . S
C1915 C1913 1.390 . S
C1915 C1916 1.387 . S
C1915 H1918 0.950 . S
C1916 C1915 1.387 . S
C1916 C1919 1.387 . S
H1917 C1913 0.950 . S
H1918 C1915 0.950 . S
C1919 C1910 1.390 . S
C1919 H1912 0.950 . S
C1919 C1916 1.387 . S
C1920 C1921 1.387 . S
C1920 H1924 0.950 . S
C1920 C1929 1.390 . S
C1921 C1920 1.387 . S
C1921 C1923 1.387 . S
H1922 C1929 0.950 . S
C1923 C1921 1.387 . S
C1923 C1925 1.390 . S
C1923 H1927 0.950 . S
H1924 C1920 0.950 . S
C1925 C1923 1.390 . S
C1925 C1926 1.387 . S
C1925 H1928 0.950 . S
C1926 C1925 1.387 . S
C1926 C1929 1.387 . S
H1927 C1923 0.950 . S
H1928 C1925 0.950 . S
C1929 C1920 1.390 . S
C1929 H1922 0.950 . S
C1929 C1926 1.387 . S
C1930 C1931 1.387 . S
C1930 H1934 0.950 . S
C1930 C1939 1.390 . S
C1931 C1930 1.387 . S
C1931 C1933 1.387 . S
H1932 C1939 0.950 . S
C1933 C1931 1.387 . S
C1933 C1935 1.390 . S
C1933 H1937 0.950 . S
H1934 C1930 0.950 . S
C1935 C1933 1.390 . S
C1935 C1936 1.387 . S
C1935 H1938 0.950 . S
C1936 C1935 1.387 . S
C1936 C1939 1.387 . S
H1937 C1933 0.950 . S
H1938 C1935 0.950 . S
C1939 C1930 1.390 . S
C1939 H1932 0.950 . S
C1939 C1936 1.387 . S
C1940 C1941 1.387 1_455 S
C1940 H1944 0.950 1_556 S
C1940 C1949 1.390 . S
C1941 C1940 1.387 1_655 S
C1941 C1943 1.387 . S
H1942 C1949 0.950 . S
C1943 C1941 1.387 . S
C1943 C1945 1.390 1_655 S
C1943 H1947 0.950 . S
H1944 C1940 0.950 1_554 S
C1945 C1943 1.390 1_455 S
C1945 C1946 1.387 . S
C1945 H1948 0.950 . S
C1946 C1945 1.387 . S
C1946 C1949 1.387 . S
H1947 C1943 0.950 . S
H1948 C1945 0.950 . S
C1949 C1940 1.390 . S
C1949 H1942 0.950 . S
C1949 C1946 1.387 . S
C1950 C1951 1.387 1_554 S
C1950 H1954 0.950 . S
C1950 C1959 1.390 . S
C1951 C1950 1.387 1_556 S
C1951 C1953 1.387 . S
H1952 C1959 0.950 . S
C1953 C1951 1.387 . S
C1953 C1955 1.390 1_556 S
C1953 H1957 0.950 . S
H1954 C1950 0.950 . S
C1955 C1953 1.390 1_554 S
C1955 C1956 1.387 . S
C1955 H1958 0.950 . S
C1956 C1955 1.387 . S
C1956 C1959 1.387 . S
H1957 C1953 0.950 . S
H1958 C1955 0.950 . S
C1959 C1950 1.390 . S
C1959 H1952 0.950 . S
C1959 C1956 1.387 . S
C1960 C1961 1.387 . S
C1960 H1964 0.950 . S
C1960 C1969 1.390 . S
C1961 C1960 1.387 . S
C1961 C1963 1.387 . S
H1962 C1969 0.950 . S
C1963 C1961 1.387 . S
C1963 C1965 1.390 . S
C1963 H1967 0.950 . S
H1964 C1960 0.950 . S
C1965 C1963 1.390 . S
C1965 C1966 1.387 . S
C1965 H1968 0.950 . S
C1966 C1965 1.387 . S
C1966 C1969 1.387 . S
H1967 C1963 0.950 . S
H1968 C1965 0.950 . S
C1969 C1960 1.390 . S
C1969 H1962 0.950 . S
C1969 C1966 1.387 . S
C1970 C1971 1.387 . S
C1970 H1974 0.950 . S
C1970 C1979 1.390 . S
C1971 C1970 1.387 . S
C1971 C1973 1.387 . S
H1972 C1979 0.950 . S
C1973 C1971 1.387 . S
C1973 C1975 1.390 . S
C1973 H1977 0.950 . S
H1974 C1970 0.950 . S
C1975 C1973 1.390 . S
C1975 C1976 1.387 . S
C1975 H1978 0.950 . S
C1976 C1975 1.387 . S
C1976 C1979 1.387 . S
H1977 C1973 0.950 . S
H1978 C1975 0.950 . S
C1979 C1970 1.390 . S
C1979 H1972 0.950 . S
C1979 C1976 1.387 . S
C1980 C1981 1.387 . S
C1980 H1984 0.950 . S
C1980 C1989 1.390 . S
C1981 C1980 1.387 . S
C1981 C1983 1.387 . S
H1982 C1989 0.950 . S
C1983 C1981 1.387 . S
C1983 C1985 1.390 . S
C1983 H1987 0.950 . S
H1984 C1980 0.950 . S
C1985 C1983 1.390 . S
C1985 C1986 1.387 . S
C1985 H1988 0.950 . S
C1986 C1985 1.387 . S
C1986 C1989 1.387 . S
H1987 C1983 0.950 . S
H1988 C1985 0.950 . S
C1989 C1980 1.390 . S
C1989 H1982 0.950 . S
C1989 C1986 1.387 . S
C1990 C1991 1.387 . S
C1990 H1994 0.950 . S
C1990 C1999 1.390 . S
C1991 C1990 1.387 . S
C1991 C1993 1.387 . S
H1992 C1999 0.950 . S
C1993 C1991 1.387 . S
C1993 C1995 1.390 . S
C1993 H1997 0.950 . S
H1994 C1990 0.950 . S
C1995 C1993 1.390 . S
C1995 C1996 1.387 . S
C1995 H1998 0.950 . S
C1996 C1995 1.387 . S
C1996 C1999 1.387 . S
H1997 C1993 0.950 . S
H1998 C1995 0.950 . S
C1999 C1990 1.390 . S
C1999 H1992 0.950 . S
C1999 C1996 1.387 . S
C2000 C2001 1.387 . S
C2000 H2004 0.950 . S
C2000 C2009 1.390 . S
C2001 C2000 1.387 . S
C2001 C2003 1.387 . S
H2002 C2009 0.950 . S
C2003 C2001 1.387 . S
C2003 C2005 1.390 . S
C2003 H2007 0.950 . S
H2004 C2000 0.950 . S
C2005 C2003 1.390 . S
C2005 C2006 1.387 . S
C2005 H2008 0.950 . S
C2006 C2005 1.387 . S
C2006 C2009 1.387 . S
H2007 C2003 0.950 . S
H2008 C2005 0.950 . S
C2009 C2000 1.390 . S
C2009 H2002 0.950 . S
C2009 C2006 1.387 . S
C2010 C2011 1.387 . S
C2010 H2014 0.950 . S
C2010 C2019 1.390 . S
C2011 C2010 1.387 . S
C2011 C2013 1.387 . S
H2012 C2019 0.950 . S
C2013 C2011 1.387 . S
C2013 C2015 1.390 . S
C2013 H2017 0.950 . S
H2014 C2010 0.950 . S
C2015 C2013 1.390 . S
C2015 C2016 1.387 . S
C2015 H2018 0.950 . S
C2016 C2015 1.387 . S
C2016 C2019 1.387 . S
H2017 C2013 0.950 . S
H2018 C2015 0.950 . S
C2019 C2010 1.390 . S
C2019 H2012 0.950 . S
C2019 C2016 1.387 . S
C2020 C2021 1.387 . S
C2020 H2024 0.950 . S
C2020 C2029 1.390 1_455 S
C2021 C2020 1.387 . S
C2021 C2023 1.385 1_455 S
H2022 C2029 0.950 . S
C2023 C2021 1.385 1_655 S
C2023 C2025 1.394 . S
C2023 H2027 0.948 1_655 S
H2024 C2020 0.950 . S
C2025 C2023 1.394 . S
C2025 C2026 1.387 . S
C2025 H2028 0.950 . S
C2026 C2025 1.387 . S
C2026 C2029 1.387 . S
H2027 C2023 0.948 1_455 S
H2028 C2025 0.950 . S
C2029 C2020 1.390 1_655 S
C2029 H2022 0.950 . S
C2029 C2026 1.387 . S
C2030 C2031 1.387 . S
C2030 H2034 0.950 . S
C2030 C2039 1.390 . S
C2031 C2030 1.387 . S
C2031 C2033 1.387 . S
H2032 C2039 0.950 . S
C2033 C2031 1.387 . S
C2033 C2035 1.390 . S
C2033 H2037 0.950 . S
H2034 C2030 0.950 . S
C2035 C2033 1.390 . S
C2035 C2036 1.387 . S
C2035 H2038 0.950 . S
C2036 C2035 1.387 . S
C2036 C2039 1.387 . S
H2037 C2033 0.950 . S
H2038 C2035 0.950 . S
C2039 C2030 1.390 . S
C2039 H2032 0.950 . S
C2039 C2036 1.387 . S
C2040 C2041 1.387 . S
C2040 H2044 0.950 . S
C2040 C2049 1.390 . S
C2041 C2040 1.387 . S
C2041 C2043 1.387 . S
H2042 C2049 0.950 . S
C2043 C2041 1.387 . S
C2043 C2045 1.390 . S
C2043 H2047 0.950 . S
H2044 C2040 0.950 . S
C2045 C2043 1.390 . S
C2045 C2046 1.387 . S
C2045 H2048 0.950 . S
C2046 C2045 1.387 . S
C2046 C2049 1.387 . S
H2047 C2043 0.950 . S
H2048 C2045 0.950 . S
C2049 C2040 1.390 . S
C2049 H2042 0.950 . S
C2049 C2046 1.387 . S
C2050 C2051 1.387 . S
C2050 H2054 0.950 . S
C2050 C2059 1.390 . S
C2051 C2050 1.387 . S
C2051 C2053 1.387 . S
H2052 C2059 0.950 . S
C2053 C2051 1.387 . S
C2053 C2055 1.390 . S
C2053 H2057 0.950 . S
H2054 C2050 0.950 . S
C2055 C2053 1.390 . S
C2055 C2056 1.387 . S
C2055 H2058 0.950 . S
C2056 C2055 1.387 . S
C2056 C2059 1.387 . S
H2057 C2053 0.950 . S
H2058 C2055 0.950 . S
C2059 C2050 1.390 . S
C2059 H2052 0.950 . S
C2059 C2056 1.387 . S
C2060 C2061 1.387 . S
C2060 H2064 0.950 . S
C2060 C2069 1.390 . S
C2061 C2060 1.387 . S
C2061 C2063 1.387 . S
H2062 C2069 0.950 . S
C2063 C2061 1.387 . S
C2063 C2065 1.390 . S
C2063 H2067 0.950 . S
H2064 C2060 0.950 . S
C2065 C2063 1.390 . S
C2065 C2066 1.387 . S
C2065 H2068 0.950 . S
C2066 C2065 1.387 . S
C2066 C2069 1.387 . S
H2067 C2063 0.950 . S
H2068 C2065 0.950 . S
C2069 C2060 1.390 . S
C2069 H2062 0.950 . S
C2069 C2066 1.387 . S
C2070 C2071 1.387 1_554 S
C2070 H2074 0.950 . S
C2070 C2079 1.390 . S
C2071 C2070 1.387 1_556 S
C2071 C2073 1.387 . S
H2072 C2079 0.950 . S
C2073 C2071 1.387 . S
C2073 C2075 1.390 1_556 S
C2073 H2077 0.950 . S
H2074 C2070 0.950 . S
C2075 C2073 1.390 1_554 S
C2075 C2076 1.387 . S
C2075 H2078 0.950 . S
C2076 C2075 1.387 . S
C2076 C2079 1.387 . S
H2077 C2073 0.950 . S
H2078 C2075 0.950 . S
C2079 C2070 1.390 . S
C2079 H2072 0.950 . S
C2079 C2076 1.387 . S
C2080 C2081 1.387 . S
C2080 H2084 0.950 . S
C2080 C2089 1.390 . S
C2081 C2080 1.387 . S
C2081 C2083 1.387 . S
H2082 C2089 0.950 . S
C2083 C2081 1.387 . S
C2083 C2085 1.390 . S
C2083 H2087 0.950 . S
H2084 C2080 0.950 . S
C2085 C2083 1.390 . S
C2085 C2086 1.387 . S
C2085 H2088 0.950 . S
C2086 C2085 1.387 . S
C2086 C2089 1.387 . S
H2087 C2083 0.950 . S
H2088 C2085 0.950 . S
C2089 C2080 1.390 . S
C2089 H2082 0.950 . S
C2089 C2086 1.387 . S
C2090 C2091 1.387 . S
C2090 H2094 0.950 . S
C2090 C2099 1.390 1_556 S
C2091 C2090 1.387 . S
C2091 C2093 1.387 . S
H2092 C2099 0.950 . S
C2093 C2091 1.387 . S
C2093 C2095 1.390 1_556 S
C2093 H2097 0.950 . S
H2094 C2090 0.950 . S
C2095 C2093 1.390 1_554 S
C2095 C2096 1.387 . S
C2095 H2098 0.950 . S
C2096 C2095 1.387 . S
C2096 C2099 1.387 . S
H2097 C2093 0.950 . S
H2098 C2095 0.950 . S
C2099 C2090 1.390 1_554 S
C2099 H2092 0.950 . S
C2099 C2096 1.387 . S
C2100 C2101 1.387 . S
C2100 H2104 0.950 . S
C2100 C2109 1.390 . S
C2101 C2100 1.387 . S
C2101 C2103 1.387 . S
H2102 C2109 0.950 . S
C2103 C2101 1.387 . S
C2103 C2105 1.390 . S
C2103 H2107 0.950 . S
H2104 C2100 0.950 . S
C2105 C2103 1.390 . S
C2105 C2106 1.387 . S
C2105 H2108 0.950 . S
C2106 C2105 1.387 . S
C2106 C2109 1.387 . S
H2107 C2103 0.950 . S
H2108 C2105 0.950 . S
C2109 C2100 1.390 . S
C2109 H2102 0.950 . S
C2109 C2106 1.387 . S
C2110 C2111 1.387 . S
C2110 H2114 0.950 . S
C2110 C2119 1.390 . S
C2111 C2110 1.387 . S
C2111 C2113 1.387 . S
H2112 C2119 0.950 . S
C2113 C2111 1.387 . S
C2113 C2115 1.390 . S
C2113 H2117 0.950 . S
H2114 C2110 0.950 . S
C2115 C2113 1.390 . S
C2115 C2116 1.387 . S
C2115 H2118 0.950 . S
C2116 C2115 1.387 . S
C2116 C2119 1.387 . S
H2117 C2113 0.950 . S
H2118 C2115 0.950 . S
C2119 C2110 1.390 . S
C2119 H2112 0.950 . S
C2119 C2116 1.387 . S
C2120 C2121 1.387 . S
C2120 H2124 0.950 . S
C2120 C2129 1.390 . S
C2121 C2120 1.387 . S
C2121 C2123 1.387 . S
H2122 C2129 0.950 . S
C2123 C2121 1.387 . S
C2123 C2125 1.390 . S
C2123 H2127 0.950 . S
H2124 C2120 0.950 . S
C2125 C2123 1.390 . S
C2125 C2126 1.387 . S
C2125 H2128 0.950 . S
C2126 C2125 1.387 . S
C2126 C2129 1.387 . S
H2127 C2123 0.950 . S
H2128 C2125 0.950 . S
C2129 C2120 1.390 . S
C2129 H2122 0.950 . S
C2129 C2126 1.387 . S
C2130 C2131 1.387 . S
C2130 H2134 0.950 . S
C2130 C2139 1.390 . S
C2131 C2130 1.387 . S
C2131 C2133 1.387 . S
H2132 C2139 0.950 . S
C2133 C2131 1.387 . S
C2133 C2135 1.390 . S
C2133 H2137 0.950 . S
H2134 C2130 0.950 . S
C2135 C2133 1.390 . S
C2135 C2136 1.387 . S
C2135 H2138 0.950 . S
C2136 C2135 1.387 . S
C2136 C2139 1.387 . S
H2137 C2133 0.950 . S
H2138 C2135 0.950 . S
C2139 C2130 1.390 . S
C2139 H2132 0.950 . S
C2139 C2136 1.387 . S
C2140 C2141 1.387 . S
C2140 H2144 0.950 . S
C2140 C2149 1.390 . S
C2141 C2140 1.387 . S
C2141 C2143 1.387 . S
H2142 C2149 0.950 . S
C2143 C2141 1.387 . S
C2143 C2145 1.390 . S
C2143 H2147 0.950 . S
H2144 C2140 0.950 . S
C2145 C2143 1.390 . S
C2145 C2146 1.387 . S
C2145 H2148 0.950 . S
C2146 C2145 1.387 . S
C2146 C2149 1.387 . S
H2147 C2143 0.950 . S
H2148 C2145 0.950 . S
C2149 C2140 1.390 . S
C2149 H2142 0.950 . S
C2149 C2146 1.387 . S
C2150 C2151 1.387 . S
C2150 H2154 0.950 . S
C2150 C2159 1.390 . S
C2151 C2150 1.387 . S
C2151 C2153 1.387 . S
H2152 C2159 0.950 . S
C2153 C2151 1.387 . S
C2153 C2155 1.390 . S
C2153 H2157 0.950 . S
H2154 C2150 0.950 . S
C2155 C2153 1.390 . S
C2155 C2156 1.387 . S
C2155 H2158 0.950 . S
C2156 C2155 1.387 . S
C2156 C2159 1.387 . S
H2157 C2153 0.950 . S
H2158 C2155 0.950 . S
C2159 C2150 1.390 . S
C2159 H2152 0.950 . S
C2159 C2156 1.387 . S
C2160 C2161 1.387 . S
C2160 H2164 0.950 . S
C2160 C2169 1.390 . S
C2161 C2160 1.387 . S
C2161 C2163 1.387 1_565 S
H2162 C2169 0.950 . S
C2163 C2161 1.387 1_545 S
C2163 C2165 1.390 . S
C2163 H2167 0.950 . S
H2164 C2160 0.950 . S
C2165 C2163 1.390 . S
C2165 C2166 1.387 . S
C2165 H2168 0.950 . S
C2166 C2165 1.387 . S
C2166 C2169 1.387 1_545 S
H2167 C2163 0.950 . S
H2168 C2165 0.950 . S
C2169 C2160 1.390 . S
C2169 H2162 0.950 . S
C2169 C2166 1.387 1_565 S
C2170 C2171 1.387 . S
C2170 H2174 0.950 . S
C2170 C2179 1.390 . S
C2171 C2170 1.387 . S
C2171 C2173 1.387 . S
H2172 C2179 0.950 . S
C2173 C2171 1.387 . S
C2173 C2175 1.390 . S
C2173 H2177 0.950 . S
H2174 C2170 0.950 . S
C2175 C2173 1.390 . S
C2175 C2176 1.387 . S
C2175 H2178 0.950 . S
C2176 C2175 1.387 . S
C2176 C2179 1.387 . S
H2177 C2173 0.950 . S
H2178 C2175 0.950 . S
C2179 C2170 1.390 . S
C2179 H2172 0.950 . S
C2179 C2176 1.387 . S
C2180 C2181 1.387 1_565 S
C2180 H2184 0.950 . S
C2180 C2189 1.390 . S
C2181 C2180 1.387 1_545 S
C2181 C2183 1.387 . S
H2182 C2189 0.950 . S
C2183 C2181 1.387 . S
C2183 C2185 1.390 . S
C2183 H2187 0.950 . S
H2184 C2180 0.950 . S
C2185 C2183 1.390 . S
C2185 C2186 1.387 1_545 S
C2185 H2188 0.950 . S
C2186 C2185 1.387 1_565 S
C2186 C2189 1.387 . S
H2187 C2183 0.950 . S
H2188 C2185 0.950 . S
C2189 C2180 1.390 . S
C2189 H2182 0.950 . S
C2189 C2186 1.387 . S
C2190 C2191 1.387 . S
C2190 H2194 0.950 . S
C2190 C2199 1.390 . S
C2191 C2190 1.387 . S
C2191 C2193 1.387 . S
H2192 C2199 0.950 . S
C2193 C2191 1.387 . S
C2193 C2195 1.390 . S
C2193 H2197 0.950 . S
H2194 C2190 0.950 . S
C2195 C2193 1.390 . S
C2195 C2196 1.387 . S
C2195 H2198 0.950 . S
C2196 C2195 1.387 . S
C2196 C2199 1.387 . S
H2197 C2193 0.950 . S
H2198 C2195 0.950 . S
C2199 C2190 1.390 . S
C2199 H2192 0.950 . S
C2199 C2196 1.387 . S
C2200 C2201 1.387 . S
C2200 H2204 0.950 . S
C2200 C2209 1.390 . S
C2201 C2200 1.387 . S
C2201 C2203 1.387 1_565 S
H2202 C2209 0.950 . S
C2203 C2201 1.387 1_545 S
C2203 C2205 1.390 . S
C2203 H2207 0.950 . S
H2204 C2200 0.950 . S
C2205 C2203 1.390 . S
C2205 C2206 1.387 . S
C2205 H2208 0.950 . S
C2206 C2205 1.387 . S
C2206 C2209 1.387 1_545 S
H2207 C2203 0.950 . S
H2208 C2205 0.950 . S
C2209 C2200 1.390 . S
C2209 H2202 0.950 . S
C2209 C2206 1.387 1_565 S
C2210 C2211 1.387 . S
C2210 H2214 0.950 . S
C2210 C2219 1.390 . S
C2211 C2210 1.387 . S
C2211 C2213 1.387 . S
H2212 C2219 0.950 . S
C2213 C2211 1.387 . S
C2213 C2215 1.390 . S
C2213 H2217 0.950 . S
H2214 C2210 0.950 . S
C2215 C2213 1.390 . S
C2215 C2216 1.387 . S
C2215 H2218 0.950 . S
C2216 C2215 1.387 . S
C2216 C2219 1.387 . S
H2217 C2213 0.950 . S
H2218 C2215 0.950 . S
C2219 C2210 1.390 . S
C2219 H2212 0.950 . S
C2219 C2216 1.387 . S
C2220 C2221 1.387 . S
C2220 H2224 0.950 . S
C2220 C2229 1.390 . S
C2221 C2220 1.387 . S
C2221 C2223 1.387 1_565 S
H2222 C2229 0.950 . S
C2223 C2221 1.387 1_545 S
C2223 C2225 1.390 . S
C2223 H2227 0.950 . S
H2224 C2220 0.950 . S
C2225 C2223 1.390 . S
C2225 C2226 1.387 . S
C2225 H2228 0.950 . S
C2226 C2225 1.387 . S
C2226 C2229 1.387 1_545 S
H2227 C2223 0.950 . S
H2228 C2225 0.950 . S
C2229 C2220 1.390 . S
C2229 H2222 0.950 . S
C2229 C2226 1.387 1_565 S
C2230 C2231 1.387 . S
C2230 H2234 0.950 . S
C2230 C2239 1.390 . S
C2231 C2230 1.387 . S
C2231 C2233 1.387 . S
H2232 C2239 0.950 . S
C2233 C2231 1.387 . S
C2233 C2235 1.390 . S
C2233 H2237 0.950 . S
H2234 C2230 0.950 . S
C2235 C2233 1.390 . S
C2235 C2236 1.387 . S
C2235 H2238 0.950 . S
C2236 C2235 1.387 . S
C2236 C2239 1.387 . S
H2237 C2233 0.950 . S
H2238 C2235 0.950 . S
C2239 C2230 1.390 . S
C2239 H2232 0.950 . S
C2239 C2236 1.387 . S
C1281 C2 0.385 . S
C1286 C176 0.342 . S
C1291 C216 0.411 . S
C1296 C42 0.412 . S
C1301 C82 0.371 . S
C1306 C256 0.449 . S
C1311 C296 0.432 . S
C1316 C136 0.511 . S
C1321 C331 0.378 . S
C1326 C487 0.345 . S
C1331 C371 0.415 . S
C1336 C527 0.406 . S
C1341 C567 0.450 . S
C1346 C411 0.372 . S
C1351 C447 0.510 . S
C1356 C607 0.431 . S
C1361 C816 0.342 . S
C1366 C642 0.377 . S
C1371 C682 0.412 . S
C1376 C856 0.411 . S
C1381 C722 0.372 . S
C1386 C896 0.459 . S
C1391 C776 0.519 . S
C1396 C936 0.443 . S
C1401 C971 0.385 . S
C1406 C1127 0.342 . S
C1411 C1167 0.406 . S
C1416 C1011 0.414 . S
C1421 C1051 0.371 . S
C1426 C1207 0.458 . S
C1431 C1247 0.443 . S
C1436 C1087 0.519 . S
C1441 C850 2.360 . S
C1446 C19 2.292 . S
C1451 C890 1.792 . S
C1456 C59 1.750 . S
C1461 C930 2.539 . S
C1466 C99 2.518 . S
C1471 C130 1.655 . S
C1476 C810 1.681 1_556 S
C1481 C170 1.683 . S
C1486 C770 1.658 . S
C1491 C659 2.293 . S
C1496 C210 2.361 . S
C1501 C250 1.791 1_556 S
C1506 C699 1.750 . S
C1511 C290 2.539 . S
C1516 C739 2.518 . S
C1521 C330 2.293 . S
C1526 C1179 2.361 . S
C1531 C1219 1.793 . S
C1536 C370 1.750 . S
C1541 C1259 2.539 . S
C1546 C410 2.518 . S
C1551 C459 1.658 . S
C1556 C1139 1.680 . S
C1561 C499 1.683 . S
C1566 C1099 1.656 . S
C1571 C539 2.360 . S
C1576 C970 2.293 . S
C1581 C579 1.792 . S
C1586 C1010 1.750 . S
C1591 C619 2.541 . S
C1596 C1050 2.520 . S
C1601 C339 1.564 . S
C1606 C10 1.564 . S
C1611 C50 1.493 . S
C1616 C1019 1.493 . S
C1621 C419 1.406 . S
C1626 C90 1.406 . S
C1631 C139 1.430 . S
C1636 C1090 1.430 . S
C1641 C490 1.405 . S
C1646 C179 1.405 . S
C1651 C1170 1.562 . S
C1656 C219 1.562 . S
C1661 C259 1.517 . S
C1666 C570 1.517 . S
C1671 C299 1.388 . S
C1676 C1250 1.388 . S
C1681 C690 1.491 . S
C1686 C379 1.491 . S
C1691 C779 1.429 . S
C1696 C450 1.429 . S
C1701 C530 1.562 . S
C1706 C859 1.562 . S
C1711 C939 1.386 . S
C1716 C610 1.386 . S
C1721 C979 1.566 . S
C1726 C650 1.566 . S
C1731 C1059 1.408 . S
C1736 C730 1.408 . S
C1741 C1130 1.402 . S
C1746 C819 1.402 . S
C1751 C899 1.520 . S
C1756 C1210 1.520 . S
C1761 C11 2.295 1_556 S
C1766 C482 2.380 . S
C1771 C1162 2.051 . S
C1776 C51 1.976 . S
C1781 C562 2.376 . S
C1786 C91 2.286 . S
C1791 C127 1.337 . S
C1796 C1242 1.423 . S
C1801 C336 0.952 . S
C1806 C167 0.929 . S
C1811 C1016 1.104 . S
C1816 C207 1.082 . S
C1821 C416 0.843 . S
C1826 C247 0.835 . S
C1831 C1082 1.720 . S
C1836 C287 1.629 . S
C1841 C171 2.380 . S
C1846 C322 2.295 . S
C1851 C851 2.050 . S
C1856 C362 1.973 . S
C1861 C251 2.377 . S
C1866 C402 2.287 . S
C1871 C456 1.337 . S
C1876 C931 1.423 . S
C1881 C7 0.951 . S
C1886 C496 0.929 . S
C1891 C687 1.102 . S
C1896 C536 1.078 . S
C1901 C576 0.829 1_556 S
C1906 C87 0.840 . S
C1911 C616 1.626 . S
C1916 C771 1.720 . S
C1921 C1122 2.380 . S
C1926 C651 2.294 . S
C1931 C522 2.050 . S
C1936 C691 1.973 . S
C1941 C731 2.288 1_556 S
C1946 C1202 2.377 . S
C1951 C602 1.422 . S
C1956 C767 1.340 . S
C1961 C807 0.934 . S
C1966 C976 0.955 . S
C1971 C847 1.079 . S
C1976 C376 1.103 . S
C1981 C1056 0.843 . S
C1986 C887 0.834 . S
C1991 C442 1.721 . S
C1996 C927 1.626 . S
C2001 C962 2.295 . S
C2006 C811 2.380 . S
C2011 C1002 1.976 . S
C2016 C211 2.051 . S
C2021 C1042 2.287 . S
C2026 C891 2.377 . S
C2031 C1096 1.339 . S
C2036 C291 1.422 . S
C2041 C647 0.951 . S
C2046 C1136 0.929 . S
C2051 C47 1.103 . S
C2056 C1176 1.078 . S
C2061 C1216 0.834 . S
C2066 C727 0.842 . S
C2071 C131 1.721 . S
C2076 C1256 1.627 . S
C2081 C162 2.304 . S
C2086 C16 2.232 . S
C2091 C202 2.199 . S
C2096 C56 2.175 . S
C2101 C96 2.199 . S
C2106 C242 2.253 . S
C2111 C282 3.076 . S
C2116 C122 3.095 . S
C2121 C491 2.304 . S
C2126 C327 2.232 . S
C2131 C367 2.174 . S
C2136 C531 2.198 . S
C2141 C407 2.200 1_554 S
C2146 C571 2.254 . S
C2151 C611 3.076 . S
C2156 C451 3.094 . S
C2161 C656 2.234 . S
C2166 C802 2.304 . S
C2171 C842 2.199 . S
C2176 C696 2.175 . S
C2181 C736 2.199 . S
C2186 C882 2.254 . S
C2191 C762 3.095 . S
C2196 C922 3.055 1_554 S
C2201 C1131 2.304 . S
C2206 C967 2.234 1_554 S
C2211 C1171 2.199 . S
C2216 C1007 2.175 . S
C2221 C1047 2.199 . S
C2226 C1211 2.254 . S
C2231 C1251 3.076 . S
C2236 C1091 3.094 . S
