# Generated by pormake.
# Topology wkx, (5)-cn, num edge types: 1
# Building blocks:
#     Node 0, Type 0, BuildingBlock: BEQFEK_clean_sbu_0, # of connection points: 5
#     Node 1, Type 0, BuildingBlock: BEQFEK_clean_sbu_0, # of connection points: 5
#     Node 2, Type 0, BuildingBlock: BEQFEK_clean_sbu_0, # of connection points: 5
#     Node 3, Type 0, BuildingBlock: BEQFEK_clean_sbu_0, # of connection points: 5
#     Node 4, Type 0, BuildingBlock: BEQFEK_clean_sbu_0, # of connection points: 5
#     Node 5, Type 0, BuildingBlock: BEQFEK_clean_sbu_0, # of connection points: 5
#     Node 6, Type 0, BuildingBlock: BEQFEK_clean_sbu_0, # of connection points: 5
#     Node 7, Type 0, BuildingBlock: BEQFEK_clean_sbu_0, # of connection points: 5
#     Node 8, Type 0, BuildingBlock: BEQFEK_clean_sbu_0, # of connection points: 5
#     Node 9, Type 0, BuildingBlock: BEQFEK_clean_sbu_0, # of connection points: 5
#     Node 10, Type 0, BuildingBlock: BEQFEK_clean_sbu_0, # of connection points: 5
#     Node 11, Type 0, BuildingBlock: BEQFEK_clean_sbu_0, # of connection points: 5
#     Edge 12, Type (0, 0), BuildingBlock: EZIPEK_clean_linker_0, # of connection points: 2
#     Edge 13, Type (0, 0), BuildingBlock: EZIPEK_clean_linker_0, # of connection points: 2
#     Edge 14, Type (0, 0), BuildingBlock: EZIPEK_clean_linker_0, # of connection points: 2
#     Edge 15, Type (0, 0), BuildingBlock: EZIPEK_clean_linker_0, # of connection points: 2
#     Edge 16, Type (0, 0), BuildingBlock: EZIPEK_clean_linker_0, # of connection points: 2
#     Edge 17, Type (0, 0), BuildingBlock: EZIPEK_clean_linker_0, # of connection points: 2
#     Edge 18, Type (0, 0), BuildingBlock: EZIPEK_clean_linker_0, # of connection points: 2
#     Edge 19, Type (0, 0), BuildingBlock: EZIPEK_clean_linker_0, # of connection points: 2
#     Edge 20, Type (0, 0), BuildingBlock: EZIPEK_clean_linker_0, # of connection points: 2
#     Edge 21, Type (0, 0), BuildingBlock: EZIPEK_clean_linker_0, # of connection points: 2
#     Edge 22, Type (0, 0), BuildingBlock: EZIPEK_clean_linker_0, # of connection points: 2
#     Edge 23, Type (0, 0), BuildingBlock: EZIPEK_clean_linker_0, # of connection points: 2
#     Edge 24, Type (0, 0), BuildingBlock: EZIPEK_clean_linker_0, # of connection points: 2
#     Edge 25, Type (0, 0), BuildingBlock: EZIPEK_clean_linker_0, # of connection points: 2
#     Edge 26, Type (0, 0), BuildingBlock: EZIPEK_clean_linker_0, # of connection points: 2
#     Edge 27, Type (0, 0), BuildingBlock: EZIPEK_clean_linker_0, # of connection points: 2
#     Edge 28, Type (0, 0), BuildingBlock: EZIPEK_clean_linker_0, # of connection points: 2
#     Edge 29, Type (0, 0), BuildingBlock: EZIPEK_clean_linker_0, # of connection points: 2
#     Edge 30, Type (0, 0), BuildingBlock: EZIPEK_clean_linker_0, # of connection points: 2
#     Edge 31, Type (0, 0), BuildingBlock: EZIPEK_clean_linker_0, # of connection points: 2
#     Edge 32, Type (0, 0), BuildingBlock: EZIPEK_clean_linker_0, # of connection points: 2
#     Edge 33, Type (0, 0), BuildingBlock: EZIPEK_clean_linker_0, # of connection points: 2
#     Edge 34, Type (0, 0), BuildingBlock: EZIPEK_clean_linker_0, # of connection points: 2
#     Edge 35, Type (0, 0), BuildingBlock: EZIPEK_clean_linker_0, # of connection points: 2
#     Edge 36, Type (0, 0), BuildingBlock: EZIPEK_clean_linker_0, # of connection points: 2
#     Edge 37, Type (0, 0), BuildingBlock: EZIPEK_clean_linker_0, # of connection points: 2
#     Edge 38, Type (0, 0), BuildingBlock: EZIPEK_clean_linker_0, # of connection points: 2
#     Edge 39, Type (0, 0), BuildingBlock: EZIPEK_clean_linker_0, # of connection points: 2
#     Edge 40, Type (0, 0), BuildingBlock: EZIPEK_clean_linker_0, # of connection points: 2
#     Edge 41, Type (0, 0), BuildingBlock: EZIPEK_clean_linker_0, # of connection points: 2
# Relax obj value: 0.450
# Max RMSD: 0.259
# Mean RMSD: 0.259
data_MOF--net-wkx--node1-BEQFEK_clean_sbu_0--edge1-EZIPEK_clean_linker_0
_symmetry_space_group_name_H-M    P1
_symmetry_Int_Tables_number       1
_symmetry_cell_setting            triclinic
loop_
_symmetry_equiv_pos_as_xyz
'x, y, z'
_cell_length_a     28.409433
_cell_length_b     28.252284
_cell_length_c     54.926742
_cell_angle_alpha  89.717384
_cell_angle_beta   89.993153
_cell_angle_gamma 120.45879
loop_
_atom_site_label
_atom_site_type_symbol
_atom_site_fract_x
_atom_site_fract_y
_atom_site_fract_z
_atom_type_partial_charge
Co0 Co 0.19346 0.12634 0.45019 0.0
Co1 Co 0.31618 0.18394 0.46136 0.0
C2 C 0.23803 0.22234 0.47979 0.0
O3 O 0.20397 0.19559 0.4632 0.0
O4 O 0.28185 0.22025 0.48144 0.0
C5 C 0.08145 0.09425 0.43803 0.0
O6 O 0.09531 0.14593 0.44043 0.0
C7 C 0.42353 0.28247 0.45245 0.0
C8 C 0.48026 0.25297 0.46113 0.0
C9 C 0.47835 0.29799 0.45233 0.0
N10 N 0.39422 0.23039 0.46066 0.0
N11 N 0.4285 0.21317 0.46596 0.0
C12 C 0.39932 0.3162 0.44449 0.0
H13 H 0.35414 0.29059 0.44351 0.0
H14 H 0.41617 0.33543 0.42651 0.0
H15 H 0.4107 0.34981 0.45774 0.0
C16 C 0.22779 0.1135 0.40189 0.0
N17 N 0.23911 0.13828 0.42371 0.0
N18 N 0.29151 0.16096 0.42827 0.0
C19 C 0.3151 0.14975 0.40945 0.0
C20 C 0.2754 0.11933 0.39206 0.0
C21 C 0.17108 0.07636 0.39274 0.0
H22 H 0.15124 0.03838 0.404 0.0
H23 H 0.14689 0.09702 0.39448 0.0
H24 H 0.1713 0.06507 0.37343 0.0
O25 O 0.20608 0.08242 0.47555 0.0
O26 O 0.29552 0.11668 0.48028 0.0
H27 H 0.38108 0.14297 0.3935 0.0
H28 H 0.4013 0.2012 0.41319 0.0
C29 C 0.37105 0.15728 0.41045 0.0
H30 H 0.37368 0.13411 0.42626 0.0
H31 H 0.41645 0.17371 0.47227 0.0
O32 O 0.1164 0.07942 0.44105 0.0
C33 C 0.24612 0.0806 0.48509 0.0
Co34 Co 0.0666 0.20475 0.62319 0.0
Co35 Co 0.13083 0.32914 0.6324 0.0
C36 C 0.01042 0.25164 0.6466 0.0
O37 O 0.00601 0.21691 0.63095 0.0
O38 O 0.05641 0.29561 0.64935 0.0
C39 C 0.98616 0.09157 0.61235 0.0
O40 O 0.94949 0.10671 0.61129 0.0
C41 C 0.13978 0.43446 0.61936 0.0
C42 C 0.21849 0.49535 0.63559 0.0
C43 C 0.17498 0.49044 0.62214 0.0
N44 N 0.16143 0.40739 0.63053 0.0
N45 N 0.20855 0.44412 0.64021 0.0
C46 C 0.08605 0.40717 0.60655 0.0
H47 H 0.06701 0.36182 0.60724 0.0
H48 H 0.09196 0.42122 0.58731 0.0
H49 H 0.05855 0.41941 0.61523 0.0
C50 C 0.12352 0.23458 0.57676 0.0
N51 N 0.10836 0.24794 0.59754 0.0
N52 N 0.13475 0.30148 0.60021 0.0
C53 C 0.16686 0.32423 0.58026 0.0
C54 C 0.16115 0.28236 0.56479 0.0
C55 C 0.10612 0.1767 0.56989 0.0
H56 H 0.11235 0.15562 0.58557 0.0
H57 H 0.06195 0.15443 0.56548 0.0
H58 H 0.12947 0.17465 0.55418 0.0
O59 O 0.11642 0.21999 0.65079 0.0
O60 O 0.17181 0.30939 0.65621 0.0
H61 H 0.2281 0.40392 0.59229 0.0
H62 H 0.2277 0.39388 0.55958 0.0
C63 C 0.202 0.38458 0.57612 0.0
H64 H 0.17511 0.40208 0.57386 0.0
H65 H 0.23398 0.43423 0.64995 0.0
O66 O 0.03592 0.12638 0.61643 0.0
C67 C 0.1561 0.25963 0.66191 0.0
Co68 Co 0.86358 0.09944 0.78993 0.0
Co69 Co 0.79847 0.15701 0.79749 0.0
C70 C 0.7684 0.04393 0.81894 0.0
O71 O 0.79543 0.03801 0.80218 0.0
O72 O 0.76676 0.0883 0.81997 0.0
C73 C 0.8997 0.02144 0.78111 0.0
O74 O 0.84996 0.98124 0.78583 0.0
C75 C 0.70165 0.16536 0.78555 0.0
C76 C 0.72312 0.24529 0.80169 0.0
C77 C 0.68325 0.20203 0.78841 0.0
N78 N 0.75046 0.18608 0.79652 0.0
N79 N 0.76292 0.2338 0.8062 0.0
C80 C 0.67311 0.11145 0.77273 0.0
H81 H 0.69911 0.09251 0.77225 0.0
H82 H 0.66262 0.1173 0.75393 0.0
H83 H 0.63427 0.08358 0.78236 0.0
C84 C 0.88005 0.14485 0.74143 0.0
N85 N 0.85296 0.13099 0.76269 0.0
N86 N 0.82269 0.15372 0.76456 0.0
C87 C 0.82881 0.18225 0.74367 0.0
C88 C 0.86583 0.17783 0.72841 0.0
C89 C 0.92485 0.13337 0.7355 0.0
H90 H 0.90721 0.08848 0.73331 0.0
H91 H 0.94763 0.15481 0.71879 0.0
H92 H 0.95434 0.1472 0.75078 0.0
O93 O 0.90411 0.15841 0.81406 0.0
O94 O 0.86541 0.21005 0.81508 0.0
H95 H 0.80776 0.2418 0.75459 0.0
H96 H 0.81785 0.24004 0.72199 0.0
C97 C 0.80186 0.21495 0.73884 0.0
H98 H 0.75751 0.18611 0.73661 0.0
H99 H 0.79897 0.25893 0.81564 0.0
O100 O 0.91133 0.07106 0.782 0.0
C101 C 0.9032 0.20072 0.82129 0.0
Co102 Co 0.7862 0.88429 0.96557 0.0
Co103 Co 0.65921 0.80778 0.9657 0.0
C104 C 0.73335 0.77095 0.98687 0.0
O105 O 0.77482 0.81663 0.98114 0.0
O106 O 0.68557 0.76006 0.98087 0.0
C107 C 0.8916 0.90833 0.95011 0.0
O108 O 0.86755 0.85529 0.94619 0.0
C109 C 0.55474 0.71136 0.95188 0.0
C110 C 0.49486 0.73571 0.96216 0.0
C111 C 0.49933 0.69305 0.95238 0.0
N112 N 0.58197 0.76258 0.9609 0.0
N113 N 0.54588 0.77693 0.96696 0.0
C114 C 0.58132 0.68016 0.94362 0.0
H115 H 0.62433 0.70891 0.9382 0.0
H116 H 0.55844 0.65285 0.92821 0.0
H117 H 0.58103 0.65416 0.95889 0.0
C118 C 0.7635 0.91243 0.91774 0.0
N119 N 0.74735 0.8777 0.93684 0.0
N120 N 0.69442 0.84353 0.9356 0.0
C121 C 0.67579 0.85367 0.91462 0.0
C122 C 0.71913 0.89838 0.90265 0.0
C123 C 0.81838 0.9637 0.91609 0.0
H124 H 0.83129 0.98236 0.93436 0.0
H125 H 0.84866 0.95316 0.90938 0.0
H126 H 0.81801 0.99445 0.90357 0.0
O127 O 0.76469 0.92044 0.98904 0.0
O128 O 0.67367 0.8672 0.99021 0.0
H129 H 0.5924 0.83106 0.91975 0.0
H130 H 0.61242 0.83485 0.88815 0.0
C131 C 0.61739 0.82285 0.90683 0.0
H132 H 0.6024 0.77819 0.90742 0.0
H133 H 0.55605 0.8147 0.97458 0.0
O134 O 0.86479 0.92903 0.95897 0.0
C135 C 0.71828 0.90905 0.99728 0.0
Co136 Co 0.90433 0.78676 0.12536 0.0
Co137 Co 0.84944 0.65949 0.129 0.0
C138 C 0.95932 0.73565 0.15173 0.0
O139 O 0.95796 0.77733 0.14405 0.0
O140 O 0.92139 0.68722 0.14648 0.0
C141 C 0.98943 0.89596 0.11435 0.0
O142 O 0.02102 0.87458 0.11319 0.0
C143 C 0.84391 0.55632 0.11669 0.0
C144 C 0.75902 0.49394 0.12618 0.0
C145 C 0.8073 0.5003 0.11695 0.0
N146 N 0.81847 0.58208 0.12522 0.0
N147 N 0.76768 0.54455 0.13085 0.0
C148 C 0.90257 0.58502 0.10913 0.0
H149 H 0.91594 0.62746 0.10292 0.0
H150 H 0.90925 0.56205 0.09452 0.0
H151 H 0.92772 0.58739 0.12505 0.0
C152 C 0.86741 0.76097 0.07487 0.0
N153 N 0.87985 0.74619 0.09621 0.0
N154 N 0.85458 0.69231 0.09763 0.0
C155 C 0.82476 0.67119 0.07717 0.0
C156 C 0.8319 0.71403 0.06202 0.0
C157 C 0.8798 0.81803 0.06925 0.0
H158 H 0.85946 0.83056 0.08291 0.0
H159 H 0.92437 0.84656 0.07056 0.0
H160 H 0.86588 0.82116 0.05074 0.0
O161 O 0.84057 0.7651 0.14656 0.0
O162 O 0.80049 0.67405 0.15026 0.0
H163 H 0.75247 0.59932 0.08958 0.0
H164 H 0.76019 0.60451 0.05676 0.0
C165 C 0.78212 0.61208 0.07433 0.0
H166 H 0.80183 0.58692 0.07518 0.0
H167 H 0.73898 0.55348 0.13794 0.0
O168 O 0.93881 0.86582 0.11893 0.0
C169 C 0.80316 0.7195 0.15524 0.0
Co170 Co 0.12892 0.9218 0.27964 0.0
Co171 Co 0.18667 0.85622 0.2926 0.0
C172 C 0.22353 0.96883 0.31344 0.0
O173 O 0.18667 0.9722 0.3019 0.0
O174 O 0.23061 0.9281 0.31048 0.0
C175 C 0.0977 0.00418 0.2752 0.0
O176 O 0.14374 0.0377 0.28622 0.0
C177 C 0.27896 0.8404 0.28283 0.0
C178 C 0.25347 0.75965 0.29947 0.0
C179 C 0.29561 0.80254 0.28658 0.0
N180 N 0.22922 0.82084 0.29285 0.0
N181 N 0.21419 0.7725 0.3028 0.0
C182 C 0.30959 0.89412 0.26965 0.0
H183 H 0.29502 0.92213 0.27536 0.0
H184 H 0.30243 0.88685 0.24981 0.0
H185 H 0.35411 0.91333 0.27297 0.0
C186 C 0.12691 0.88224 0.23147 0.0
N187 N 0.15083 0.89525 0.25351 0.0
N188 N 0.16789 0.86117 0.2592 0.0
C189 C 0.15349 0.82406 0.2411 0.0
C190 C 0.12654 0.8359 0.22297 0.0
C191 C 0.09287 0.90459 0.22167 0.0
H192 H 0.11405 0.94954 0.22465 0.0
H193 H 0.08497 0.89596 0.20193 0.0
H194 H 0.05314 0.88505 0.23143 0.0
O195 O 0.07683 0.85732 0.29865 0.0
O196 O 0.11787 0.81359 0.31242 0.0
H197 H 0.13269 0.75081 0.26109 0.0
H198 H 0.13311 0.74347 0.22828 0.0
C199 C 0.15353 0.7714 0.24383 0.0
H200 H 0.19621 0.78056 0.24497 0.0
H201 H 0.1771 0.74822 0.31181 0.0
O202 O 0.08647 0.95604 0.26953 0.0
C203 C 0.07643 0.81993 0.31181 0.0
Co204 Co 0.86379 0.77971 0.41545 0.0
Co205 Co 0.79605 0.65158 0.40933 0.0
C206 C 0.75673 0.72616 0.39014 0.0
O207 O 0.79816 0.76804 0.39874 0.0
O208 O 0.74871 0.67807 0.39397 0.0
C209 C 0.89118 0.8927 0.4195 0.0
O210 O 0.84217 0.87645 0.41098 0.0
C211 C 0.69807 0.54613 0.42019 0.0
C212 C 0.72561 0.48627 0.41605 0.0
C213 C 0.68086 0.49079 0.42251 0.0
N214 N 0.75066 0.57327 0.41296 0.0
N215 N 0.76681 0.53714 0.41039 0.0
C216 C 0.66546 0.57316 0.42517 0.0
H217 H 0.65251 0.58238 0.40758 0.0
H218 H 0.6912 0.61264 0.43471 0.0
H219 H 0.62847 0.54623 0.43614 0.0
C220 C 0.88281 0.75081 0.46355 0.0
N221 N 0.85416 0.73624 0.44273 0.0
N222 N 0.82662 0.68246 0.44088 0.0
C223 C 0.83567 0.66101 0.46129 0.0
C224 C 0.87219 0.70377 0.47623 0.0
C225 C 0.9259 0.80871 0.46924 0.0
H226 H 0.95326 0.82707 0.45327 0.0
H227 H 0.90608 0.83311 0.47292 0.0
H228 H 0.9512 0.81127 0.48509 0.0
O229 O 0.90378 0.76327 0.39185 0.0
O230 O 0.85767 0.67321 0.3847 0.0
H231 H 0.82962 0.58467 0.45239 0.0
H232 H 0.82145 0.59298 0.48451 0.0
C233 C 0.81238 0.60106 0.4658 0.0
H234 H 0.76771 0.57961 0.46314 0.0
H235 H 0.8062 0.54732 0.4052 0.0
O236 O 0.90707 0.85852 0.42307 0.0
C237 C 0.89793 0.72159 0.38037 0.0
Co238 Co 0.06425 0.85844 0.58956 0.0
Co239 Co 0.12861 0.80051 0.5782 0.0
C240 C 0.01106 0.762 0.5608 0.0
O241 O 0.00419 0.78849 0.5776 0.0
O242 O 0.05704 0.76441 0.55876 0.0
C243 C 0.98576 0.89292 0.59963 0.0
O244 O 0.94722 0.84155 0.5967 0.0
C245 C 0.13517 0.70201 0.58927 0.0
C246 C 0.21685 0.72453 0.57534 0.0
C247 C 0.17176 0.68323 0.58746 0.0
N248 N 0.15781 0.75222 0.57896 0.0
N249 N 0.20658 0.76531 0.57058 0.0
C250 C 0.08023 0.67358 0.60119 0.0
H251 H 0.05208 0.68337 0.59135 0.0
H252 H 0.08427 0.68888 0.62008 0.0
H253 H 0.06315 0.62848 0.60182 0.0
C254 C 0.11383 0.87346 0.63743 0.0
N255 N 0.09929 0.84785 0.61582 0.0
N256 N 0.12897 0.8254 0.6111 0.0
C257 C 0.16496 0.83776 0.62955 0.0
C258 C 0.15639 0.86854 0.64694 0.0
C259 C 0.09439 0.91044 0.64659 0.0
H260 H 0.11324 0.94869 0.63551 0.0
H261 H 0.04943 0.88993 0.64461 0.0
H262 H 0.10553 0.92125 0.66598 0.0
O263 O 0.1196 0.90019 0.5634 0.0
O264 O 0.17501 0.86658 0.55834 0.0
H265 H 0.2374 0.85158 0.6114 0.0
H266 H 0.24002 0.84755 0.64432 0.0
C267 C 0.21356 0.83069 0.62804 0.0
H268 H 0.19963 0.78652 0.62641 0.0
H269 H 0.23327 0.80248 0.56197 0.0
O270 O 0.03572 0.90685 0.59813 0.0
C271 C 0.16103 0.90192 0.55343 0.0
Co272 Co 0.20608 0.06216 0.76038 0.0
Co273 Co 0.32615 0.13596 0.74482 0.0
C274 C 0.25447 0.02041 0.72511 0.0
O275 O 0.21424 0.01277 0.73806 0.0
O276 O 0.30069 0.06444 0.72695 0.0
C277 C 0.09329 0.01687 0.75696 0.0
O278 O 0.12634 0.01942 0.77409 0.0
C279 C 0.43518 0.15706 0.75424 0.0
C280 C 0.48918 0.24019 0.73931 0.0
C281 C 0.48949 0.19757 0.75185 0.0
N282 N 0.40407 0.17481 0.74385 0.0
N283 N 0.43654 0.2245 0.73482 0.0
C284 C 0.41283 0.10309 0.76714 0.0
H285 H 0.37548 0.07132 0.75789 0.0
H286 H 0.40128 0.10723 0.78598 0.0
H287 H 0.44367 0.09006 0.76803 0.0
C288 C 0.24712 0.10624 0.80813 0.0
N289 N 0.25697 0.09344 0.78579 0.0
N290 N 0.30579 0.13175 0.77858 0.0
C291 C 0.32723 0.1716 0.79564 0.0
C292 C 0.29022 0.15712 0.81485 0.0
C293 C 0.19331 0.07605 0.82099 0.0
H294 H 0.16743 0.09298 0.81526 0.0
H295 H 0.17248 0.03164 0.81674 0.0
H296 H 0.19921 0.08164 0.84098 0.0
O297 O 0.2107 0.12378 0.74097 0.0
O298 O 0.2945 0.17419 0.7261 0.0
H299 H 0.36834 0.24412 0.77361 0.0
H300 H 0.38137 0.25629 0.80599 0.0
C301 C 0.37496 0.22773 0.79087 0.0
H302 H 0.4122 0.22505 0.78855 0.0
H303 H 0.42278 0.2481 0.72609 0.0
O304 O 0.12765 0.02068 0.77291 0.0
C305 C 0.24504 0.16312 0.72753 0.0
Co306 Co 0.10974 0.20634 0.90891 0.0
Co307 Co 0.18911 0.33338 0.90969 0.0
C308 C 0.22024 0.25695 0.88566 0.0
O309 O 0.17503 0.21591 0.8921 0.0
O310 O 0.23253 0.30574 0.89122 0.0
C311 C 0.08361 0.09941 0.92395 0.0
O312 O 0.13635 0.12258 0.9278 0.0
C313 C 0.28662 0.4385 0.92336 0.0
C314 C 0.2602 0.49807 0.91503 0.0
C315 C 0.30378 0.49401 0.92367 0.0
N316 N 0.23508 0.41081 0.91495 0.0
N317 N 0.21958 0.44676 0.91004 0.0
C318 C 0.31903 0.4124 0.93051 0.0
H319 H 0.29201 0.36734 0.93272 0.0
H320 H 0.34138 0.43064 0.94769 0.0
H321 H 0.34973 0.42069 0.91611 0.0
C322 C 0.08826 0.22749 0.95804 0.0
N323 N 0.121 0.24386 0.93837 0.0
N324 N 0.15731 0.29641 0.94014 0.0
C325 C 0.15077 0.31424 0.9621 0.0
C326 C 0.10616 0.27093 0.97415 0.0
C327 C 0.03508 0.1742 0.95942 0.0
H328 H 0.01565 0.16348 0.94122 0.0
H329 H 0.04278 0.1413 0.96542 0.0
H330 H 0.00634 0.17628 0.97244 0.0
O331 O 0.07192 0.23115 0.88763 0.0
O332 O 0.12636 0.32239 0.88821 0.0
H333 H 0.17711 0.39957 0.95917 0.0
H334 H 0.17553 0.37593 0.99004 0.0
C335 C 0.18481 0.37198 0.97079 0.0
H336 H 0.2286 0.38493 0.96898 0.0
H337 H 0.18126 0.43628 0.90318 0.0
O338 O 0.06385 0.12726 0.91513 0.0
C339 C 0.08305 0.27906 0.88121 0.0
Co340 Co 0.91821 0.12468 0.09312 0.0
Co341 Co 0.85994 0.19029 0.08362 0.0
C342 C 0.97014 0.21829 0.06081 0.0
O343 O 0.97648 0.18936 0.07667 0.0
O344 O 0.92691 0.22159 0.06093 0.0
C345 C 0.00061 0.09699 0.10471 0.0
O346 O 0.03591 0.14983 0.10314 0.0
C347 C 0.85237 0.28894 0.0935 0.0
C348 C 0.77322 0.26691 0.07673 0.0
C349 C 0.81648 0.30791 0.0896 0.0
N350 N 0.83108 0.23874 0.0836 0.0
N351 N 0.78381 0.22594 0.07356 0.0
C352 C 0.9058 0.31786 0.10651 0.0
H353 H 0.93078 0.29897 0.10207 0.0
H354 H 0.89816 0.3145 0.12643 0.0
H355 H 0.92817 0.36213 0.10157 0.0
C356 C 0.87485 0.11485 0.14174 0.0
N357 N 0.89095 0.14219 0.12041 0.0
N358 N 0.86504 0.16913 0.11669 0.0
C359 C 0.83064 0.15869 0.13569 0.0
C360 C 0.83561 0.12374 0.15217 0.0
C361 C 0.88739 0.07144 0.1492 0.0
H362 H 0.93202 0.08846 0.14823 0.0
H363 H 0.87297 0.05636 0.16798 0.0
H364 H 0.86742 0.03648 0.13639 0.0
O365 O 0.8555 0.08008 0.07059 0.0
O366 O 0.80684 0.12176 0.06758 0.0
H367 H 0.76214 0.15618 0.1182 0.0
H368 H 0.75774 0.15272 0.15121 0.0
C369 C 0.78559 0.1713 0.13538 0.0
H370 H 0.80388 0.21632 0.13586 0.0
H371 H 0.75856 0.18904 0.06462 0.0
O372 O 0.94988 0.07874 0.10175 0.0
C373 C 0.81403 0.08183 0.06276 0.0
Co374 Co 0.77919 0.90312 0.25167 0.0
Co375 Co 0.65218 0.84789 0.24691 0.0
C376 C 0.73074 0.96 0.22504 0.0
O377 O 0.77163 0.95882 0.23356 0.0
O378 O 0.68207 0.9211 0.22934 0.0
C379 C 0.89299 0.98639 0.26421 0.0
O380 O 0.86244 0.93503 0.25808 0.0
C381 C 0.54628 0.83788 0.25939 0.0
C382 C 0.48727 0.75447 0.24653 0.0
C383 C 0.49086 0.80005 0.25767 0.0
N384 N 0.5743 0.81565 0.24984 0.0
N385 N 0.53866 0.76573 0.24219 0.0
C386 C 0.57208 0.8945 0.26961 0.0
H387 H 0.6172 0.91381 0.27013 0.0
H388 H 0.55617 0.89291 0.28823 0.0
H389 H 0.56089 0.91977 0.25816 0.0
C390 C 0.75008 0.86362 0.30193 0.0
N391 N 0.73686 0.87706 0.28045 0.0
N392 N 0.68334 0.85185 0.27854 0.0
C393 C 0.66099 0.82099 0.29881 0.0
C394 C 0.70256 0.82722 0.31428 0.0
C395 C 0.80663 0.87689 0.30848 0.0
H396 H 0.82035 0.85629 0.29552 0.0
H397 H 0.83486 0.92183 0.307 0.0
H398 H 0.80846 0.86335 0.32729 0.0
O399 O 0.75802 0.84044 0.22995 0.0
O400 O 0.66767 0.79914 0.22587 0.0
H401 H 0.58916 0.75065 0.28526 0.0
H402 H 0.5936 0.754 0.31821 0.0
C403 C 0.60196 0.7784 0.3012 0.0
H404 H 0.57778 0.79912 0.30132 0.0
H405 H 0.54941 0.73931 0.23397 0.0
O406 O 0.86137 0.93632 0.25818 0.0
C407 C 0.71338 0.80278 0.22102 0.0
C408 C 0.00356 0.03999 0.40999 0.0
C409 C 0.0242 0.05139 0.43404 0.0
C410 C 0.94416 0.96735 0.44886 0.0
C411 C 0.92946 0.95107 0.42444 0.0
N412 N 0.94143 0.97115 0.38145 0.0
N413 N 0.01439 0.02868 0.47682 0.0
C414 C 0.95731 0.98772 0.40487 0.0
C415 C -0.00597 0.01627 0.4537 0.0
N416 N 0.02902 0.07871 0.39214 0.0
N417 N 0.91002 0.93589 0.46725 0.0
H418 H 0.04944 0.06561 0.48111 0.0
H419 H -0.00193 0.00172 0.49152 0.0
H420 H 0.87274 0.90024 0.46392 0.0
H421 H 0.91594 0.94737 0.48548 0.0
H422 H 0.01404 0.07496 0.37454 0.0
H423 H 0.06338 0.11698 0.39552 0.0
H424 H 0.96313 0.99341 0.3662 0.0
H425 H 0.90707 0.93359 0.37714 0.0
C426 C 0.97402 0.96781 0.58186 0.0
C427 C 0.97198 0.93625 0.60247 0.0
C428 C 0.96781 0.00203 0.62971 0.0
C429 C 0.97063 0.03387 0.6091 0.0
N430 N 0.96211 0.04125 0.56586 0.0
N431 N 0.95399 0.91519 0.64516 0.0
C432 C 0.96849 0.01447 0.58523 0.0
C433 C 0.9642 0.95057 0.62615 0.0
N434 N 0.98427 0.95497 0.55928 0.0
N435 N 0.97107 0.02223 0.6526 0.0
H436 H 0.95161 0.87736 0.64299 0.0
H437 H 0.94335 0.921 0.66256 0.0
H438 H 0.97159 0.05881 0.65581 0.0
H439 H 0.97601 0.00438 0.66828 0.0
H440 H -0.00727 0.98003 0.54401 0.0
H441 H 0.98797 0.92075 0.55608 0.0
H442 H 0.95534 0.02636 0.54813 0.0
H443 H 0.95864 0.07606 0.56786 0.0
C444 C -0.00723 0.04204 0.79093 0.0
C445 C 0.94486 0.01109 0.77704 0.0
C446 C -0.00716 0.97776 0.7517 0.0
C447 C 0.04211 0.01472 0.76371 0.0
N448 N 0.09042 0.09649 0.78831 0.0
N449 N 0.90043 0.95479 0.74192 0.0
C450 C 0.0427 0.05081 0.78169 0.0
C451 C 0.94481 0.97979 0.75688 0.0
N452 N -0.00929 0.06358 0.81285 0.0
N453 N -0.00807 0.94077 0.73549 0.0
H454 H 0.86458 0.95542 0.74506 0.0
H455 H 0.90057 0.93683 0.72542 0.0
H456 H 0.0268 0.93934 0.73082 0.0
H457 H 0.95608 0.90912 0.72804 0.0
H458 H 0.02437 0.083 0.82438 0.0
H459 H 0.95415 0.05662 0.82057 0.0
H460 H 0.09177 0.12613 0.8 0.0
H461 H 0.12756 0.10858 0.77968 0.0
C462 C 0.96321 0.9578 0.91822 0.0
C463 C 0.949 0.94545 0.94315 0.0
C464 C 0.03438 0.0264 0.95558 0.0
C465 C 0.04586 0.04165 0.93068 0.0
N466 N 0.03251 0.01563 0.88857 0.0
N467 N 0.97654 0.9563 0.98506 0.0
C468 C 0.01398 0.00488 0.91207 0.0
C469 C 0.98679 0.9759 0.96168 0.0
N470 N 0.92683 0.92676 0.90055 0.0
N471 N 0.06681 0.06164 0.97332 0.0
H472 H 0.94188 0.91901 0.98972 0.0
H473 H 0.00416 0.97398 0.99929 0.0
H474 H 0.1029 0.0982 0.96953 0.0
H475 H 0.05688 0.0562 0.99175 0.0
H476 H 0.9317 0.93761 0.8822 0.0
H477 H 0.88998 0.891 0.90436 0.0
H478 H 0.0136 0.98861 0.87422 0.0
H479 H 0.07 0.04989 0.88386 0.0
C480 C 0.02146 0.98042 0.08902 0.0
C481 C 0.0125 0.95563 0.11232 0.0
C482 C 0.01831 0.03631 0.13146 0.0
C483 C 0.01921 0.0573 0.10794 0.0
N484 N 0.04012 0.0612 0.06539 0.0
N485 N 0.01831 0.96413 0.15586 0.0
C486 C 0.0272 0.03322 0.087 0.0
C487 C 0.01652 0.98531 0.13368 0.0
N488 N 0.02186 0.95229 0.06892 0.0
N489 N 0.01748 0.06462 0.15138 0.0
H490 H 0.01785 0.92709 0.15766 0.0
H491 H 0.02409 0.98447 0.17226 0.0
H492 H 0.02285 0.10392 0.14993 0.0
H493 H 0.01165 0.04986 0.16915 0.0
H494 H 0.02199 0.96495 0.0511 0.0
H495 H 0.02101 0.91501 0.07019 0.0
H496 H 0.04923 0.04778 0.04943 0.0
H497 H 0.04645 0.10086 0.06411 0.0
C498 C 0.02608 0.02088 0.29292 0.0
C499 C 0.05466 0.01828 0.2722 0.0
C500 C 0.98258 0.01044 0.24533 0.0
C501 C 0.95233 0.00886 0.26615 0.0
N502 N 0.95093 0.0302 0.30831 0.0
N503 N 0.06941 0.02785 0.22896 0.0
C504 C 0.97641 0.02068 0.28947 0.0
C505 C 0.03586 0.01883 0.24842 0.0
N506 N 0.044 0.01921 0.31584 0.0
N507 N 0.9595 0.00224 0.22278 0.0
H508 H 0.10908 0.03516 0.23104 0.0
H509 H 0.06022 0.03338 0.21122 0.0
H510 H 0.92228 0.00035 0.21982 0.0
H511 H 0.97608 0.99538 0.20725 0.0
H512 H 0.02148 0.01437 0.33153 0.0
H513 H 0.0802 0.01951 0.31926 0.0
H514 H 0.96851 0.04364 0.32538 0.0
H515 H 0.91416 0.02964 0.30605 0.0
C516 C 0.61035 0.43688 0.45489 0.0
C517 C 0.62602 0.44471 0.42993 0.0
C518 C 0.53958 0.36159 0.41925 0.0
C519 C 0.52645 0.35104 0.44441 0.0
N520 N 0.54828 0.37698 0.48639 0.0
N521 N 0.60689 0.41557 0.38816 0.0
C522 C 0.5614 0.38853 0.46227 0.0
C523 C 0.59076 0.40748 0.41204 0.0
N524 N 0.64218 0.47597 0.47151 0.0
N525 N 0.50284 0.32782 0.40227 0.0
H526 H 0.6421 0.45056 0.38197 0.0
H527 H 0.58694 0.38696 0.37448 0.0
H528 H 0.46598 0.29295 0.40686 0.0
H529 H 0.50671 0.33583 0.38365 0.0
H530 H 0.63061 0.47638 0.48943 0.0
H531 H 0.6793 0.51056 0.46701 0.0
H532 H 0.57468 0.39829 0.5006 0.0
H533 H 0.51116 0.34408 0.4924 0.0
C534 C 0.17503 0.55028 0.58785 0.0
C535 C 0.16864 0.53667 0.61301 0.0
C536 C 0.1635 0.61908 0.62176 0.0
C537 C 0.16607 0.63057 0.59641 0.0
N538 N 0.16075 0.5995 0.55515 0.0
N539 N 0.14466 0.55115 0.65324 0.0
C540 C 0.16761 0.59373 0.5794 0.0
C541 C 0.15901 0.56891 0.62976 0.0
N542 N 0.19098 0.52368 0.57216 0.0
N543 N 0.16841 0.65723 0.63831 0.0
H544 H 0.14076 0.51453 0.65969 0.0
H545 H 0.13161 0.56995 0.66562 0.0
H546 H 0.17287 0.69485 0.63331 0.0
H547 H 0.17296 0.65368 0.65693 0.0
H548 H 0.20185 0.53573 0.5541 0.0
H549 H 0.19841 0.49283 0.57779 0.0
H550 H 0.1561 0.57068 0.54217 0.0
H551 H 0.15405 0.63013 0.54834 0.0
C552 C 0.54551 0.19373 0.78665 0.0
C553 C 0.53836 0.19694 0.7612 0.0
C554 C 0.62809 0.20709 0.75372 0.0
C555 C 0.63253 0.19813 0.77884 0.0
N556 N 0.59103 0.17277 0.81862 0.0
N557 N 0.56781 0.19504 0.72017 0.0
C558 C 0.58981 0.1883 0.79513 0.0
C559 C 0.5782 0.2002 0.74461 0.0
N560 N 0.51169 0.19863 0.80281 0.0
N561 N 0.6723 0.2247 0.73873 0.0
H562 H 0.53133 0.18891 0.71278 0.0
H563 H 0.59307 0.19143 0.70749 0.0
H564 H 0.71008 0.23223 0.74497 0.0
H565 H 0.67306 0.23715 0.72078 0.0
H566 H 0.51845 0.20232 0.82153 0.0
H567 H 0.47986 0.20442 0.7974 0.0
H568 H 0.55822 0.15941 0.83061 0.0
H569 H 0.62287 0.16838 0.82548 0.0
C570 C 0.36946 0.55331 0.95618 0.0
C571 C 0.35753 0.5409 0.93114 0.0
C572 C 0.44033 0.62709 0.91985 0.0
C573 C 0.45308 0.63877 0.94489 0.0
N574 N 0.43703 0.60803 0.98665 0.0
N575 N 0.38685 0.55905 0.88928 0.0
C576 C 0.41984 0.60023 0.96299 0.0
C577 C 0.39473 0.57569 0.91301 0.0
N578 N 0.33164 0.52165 0.97343 0.0
N579 N 0.47035 0.66607 0.90266 0.0
H580 H 0.35389 0.5216 0.8837 0.0
H581 H 0.41532 0.57983 0.87552 0.0
H582 H 0.50432 0.70394 0.90693 0.0
H583 H 0.45941 0.66262 0.88439 0.0
H584 H 0.33508 0.53214 0.99175 0.0
H585 H 0.29465 0.4866 0.96918 0.0
H586 H 0.41753 0.57875 1.00032 0.0
H587 H 0.47378 0.64187 0.99223 0.0
C588 C 0.8145 0.37015 0.12185 0.0
C589 C 0.82158 0.36082 0.09709 0.0
C590 C 0.82153 0.44459 0.08518 0.0
C591 C 0.81695 0.45512 0.11006 0.0
N592 N 0.82273 0.43563 0.15235 0.0
N593 N 0.84454 0.39529 0.05599 0.0
C594 C 0.81783 0.42031 0.12849 0.0
C595 C 0.82913 0.40007 0.079 0.0
N596 N 0.80152 0.32994 0.13885 0.0
N597 N 0.81613 0.47549 0.0674 0.0
H598 H 0.85096 0.36344 0.05093 0.0
H599 H 0.85599 0.4255 0.04263 0.0
H600 H 0.81082 0.50858 0.07119 0.0
H601 H 0.81277 0.46584 0.04898 0.0
H602 H 0.78989 0.33197 0.15662 0.0
H603 H 0.7976 0.29229 0.13462 0.0
H604 H 0.82921 0.4147 0.1664 0.0
H605 H 0.82571 0.47236 0.15784 0.0
C606 C 0.35924 0.80419 0.25403 0.0
C607 C 0.34785 0.80638 0.27904 0.0
C608 C 0.43046 0.80437 0.29025 0.0
C609 C 0.44379 0.80603 0.26522 0.0
N610 N 0.42724 0.81963 0.22345 0.0
N611 N 0.37886 0.8211 0.32067 0.0
C612 C 0.41011 0.80973 0.24716 0.0
C613 C 0.3854 0.81028 0.29708 0.0
N614 N 0.32046 0.79404 0.23687 0.0
N615 N 0.4592 0.79456 0.30748 0.0
H616 H 0.3468 0.82644 0.32631 0.0
H617 H 0.40799 0.83004 0.33413 0.0
H618 H 0.49202 0.78943 0.30319 0.0
H619 H 0.4476 0.78681 0.32571 0.0
H620 H 0.32413 0.78604 0.2187 0.0
H621 H 0.28235 0.78864 0.24118 0.0
H622 H 0.40716 0.82841 0.20987 0.0
H623 H 0.46445 0.82433 0.21779 0.0
C624 C 0.24059 0.98939 0.35833 0.0
C625 C 0.25105 0.00841 0.33374 0.0
C626 C 0.28844 0.10335 0.34798 0.0
C627 C 0.27731 0.08397 0.37236 0.0
N628 N 0.25836 0.01193 0.40115 0.0
N629 N 0.29616 0.0838 0.30553 0.0
C630 C 0.25899 0.02812 0.37761 0.0
C631 C 0.27886 0.06569 0.32874 0.0
N632 N 0.20893 0.93451 0.3634 0.0
N633 N 0.30604 0.15731 0.34321 0.0
H634 H 0.29008 0.05696 0.29129 0.0
H635 H 0.32052 0.12505 0.30081 0.0
H636 H 0.31565 0.18607 0.357 0.0
H637 H 0.30883 0.1731 0.32577 0.0
H638 H 0.19416 0.91915 0.38076 0.0
H639 H 0.19323 0.90409 0.35018 0.0
H640 H 0.25067 0.97292 0.40596 0.0
H641 H 0.27091 0.03916 0.41572 0.0
C642 C 0.16456 0.22742 0.50451 0.0
C643 C 0.22118 0.24781 0.49965 0.0
C644 C 0.2421 0.30129 0.53752 0.0
C645 C 0.18596 0.28424 0.54044 0.0
N646 N 0.0989 0.24912 0.5209 0.0
N647 N 0.31388 0.31932 0.50857 0.0
C648 C 0.14961 0.25504 0.52142 0.0
C649 C 0.26018 0.2898 0.51515 0.0
N650 N 0.12478 0.17762 0.49609 0.0
N651 N 0.27766 0.32559 0.55629 0.0
H652 H 0.32792 0.31517 0.49164 0.0
H653 H 0.34286 0.35254 0.51866 0.0
H654 H 0.26584 0.33378 0.57296 0.0
H655 H 0.31774 0.33362 0.55578 0.0
H656 H 0.08365 0.16107 0.50051 0.0
H657 H 0.13301 0.14857 0.4889 0.0
H658 H 0.07186 0.22985 0.50654 0.0
H659 H 0.0868 0.26849 0.53351 0.0
C660 C 0.88227 0.1645 0.68559 0.0
C661 C 0.88838 0.20191 0.70387 0.0
C662 C 0.9603 0.2753 0.6788 0.0
C663 C 0.96458 0.23535 0.66471 0.0
N664 N 0.93719 0.13832 0.66318 0.0
N665 N 0.93802 0.29501 0.7187 0.0
C666 C 0.92677 0.17865 0.6698 0.0
C667 C 0.92824 0.25827 0.70062 0.0
N668 N 0.83706 0.1133 0.68525 0.0
N669 N 0.98599 0.32888 0.67147 0.0
H670 H 0.91602 0.28398 0.73497 0.0
H671 H 0.97055 0.33538 0.71809 0.0
H672 H 0.00628 0.342 0.65481 0.0
H673 H 0.98111 0.3585 0.6805 0.0
H674 H 0.83021 0.08523 0.67146 0.0
H675 H 0.80458 0.10178 0.69734 0.0
H676 H 0.91123 0.09716 0.66779 0.0
H677 H 0.97557 0.14636 0.65764 0.0
C678 C 0.78347 0.98088 0.84637 0.0
C679 C 0.7506 0.00396 0.83999 0.0
C680 C 0.69276 0.95595 0.87563 0.0
C681 C 0.72149 0.92723 0.87922 0.0
N682 N 0.783 0.90091 0.86212 0.0
N683 N 0.66617 0.00332 0.84658 0.0
C684 C 0.76233 0.93524 0.86228 0.0
C685 C 0.70262 0.98832 0.85396 0.0
N686 N 0.83709 0.0057 0.83954 0.0
N687 N 0.65875 0.95533 0.89331 0.0
H688 H 0.67115 0.02531 0.83055 0.0
H689 H 0.62852 0.98906 0.8551 0.0
H690 H 0.65236 0.93434 0.90975 0.0
H691 H 0.64104 0.97982 0.89252 0.0
H692 H 0.86288 0.99171 0.84539 0.0
H693 H 0.85786 0.04447 0.83143 0.0
H694 H 0.81098 0.9039 0.849 0.0
H695 H 0.7678 0.86636 0.8734 0.0
C696 C 0.78583 0.72454 0.99819 0.0
C697 C 0.74276 0.73463 1.00367 0.0
C698 C 0.74934 0.71668 0.047 0.0
C699 C 0.79554 0.71162 0.04176 0.0
N700 N 0.84905 0.69613 1.01252 0.0
N701 N 0.6714 0.72087 0.03183 0.0
C702 C 0.81067 0.71041 1.0173 0.0
C703 C 0.72029 0.72399 0.02758 0.0
N704 N 0.80387 0.7304 0.9747 0.0
N705 N 0.7348 0.71712 0.07069 0.0
H706 H 0.64782 0.72413 1.0182 0.0
H707 H 0.65082 0.7087 0.04842 0.0
H708 H 0.7529 0.70862 0.08526 0.0
H709 H 0.70695 0.72867 0.07608 0.0
H710 H 0.839 0.73029 0.96946 0.0
H711 H 0.78351 0.73649 0.96028 0.0
H712 H 0.85966 0.6905 0.99509 0.0
H713 H 0.86767 0.68584 0.02628 0.0
C714 C 0.05899 0.77913 0.16198 0.0
C715 C 0.00356 0.74559 0.16925 0.0
C716 C 0.03115 0.761 0.21225 0.0
C717 C 0.08613 0.79703 0.20493 0.0
N718 N 0.15485 0.83004 0.17371 0.0
N719 N 0.93863 0.69286 0.20093 0.0
C720 C 0.10082 0.8024 0.18 0.0
C721 C -0.00964 0.73222 0.19427 0.0
N722 N 0.07114 0.79004 0.13778 0.0
N723 N 0.0173 0.75691 0.23635 0.0
H724 H 0.90703 0.67197 0.18857 0.0
H725 H 0.92787 0.67718 0.21854 0.0
H726 H 0.04594 0.77528 0.2502 0.0
H727 H 0.97724 0.73791 0.24268 0.0
H728 H 0.10939 0.81922 0.13113 0.0
H729 H 0.04188 0.77059 0.12421 0.0
H730 H 0.16913 0.83223 0.15606 0.0
H731 H 0.18589 0.84724 0.18667 0.0
C732 C 0.93476 0.76029 0.53588 0.0
C733 C 0.9688 0.73772 0.54089 0.0
C734 C 0.93432 0.68437 0.50313 0.0
C735 C 0.89657 0.70304 0.5003 0.0
N736 N 0.84816 0.74196 0.51978 0.0
N737 N 0.98685 0.66453 0.53195 0.0
C738 C 0.89148 0.73372 0.51917 0.0
C739 C 0.964 0.69509 0.52544 0.0
N740 N 0.94794 0.81119 0.54385 0.0
N741 N 0.94462 0.65963 0.4843 0.0
H742 H 0.00561 0.66871 0.54875 0.0
H743 H 0.98114 0.63077 0.52193 0.0
H744 H 0.92541 0.65293 0.46747 0.0
H745 H 0.97567 0.65024 0.48483 0.0
H746 H 0.92508 0.82942 0.53925 0.0
H747 H 0.98623 0.83888 0.55082 0.0
H748 H 0.84215 0.7626 0.53406 0.0
H749 H 0.816 0.72326 0.50739 0.0
C750 C 0.18922 0.88581 0.69054 0.0
C751 C 0.19465 0.90494 0.66622 0.0
C752 C 0.24895 0.00019 0.68005 0.0
C753 C 0.24322 0.98146 0.70462 0.0
N754 N 0.21981 0.90686 0.73255 0.0
N755 N 0.24367 0.9778 0.6372 0.0
C756 C 0.21728 0.92422 0.70959 0.0
C757 C 0.22966 0.96132 0.66083 0.0
N758 N 0.15547 0.83127 0.69548 0.0
N759 N 0.26808 0.0544 0.67495 0.0
H760 H 0.22992 0.95019 0.62276 0.0
H761 H 0.2732 0.01766 0.63222 0.0
H762 H 0.28118 0.08483 0.68811 0.0
H763 H 0.26641 0.06874 0.65766 0.0
H764 H 0.14443 0.81525 0.71303 0.0
H765 H 0.13647 0.80217 0.68179 0.0
H766 H 0.2057 0.866 0.7371 0.0
H767 H 0.24075 0.93428 0.74662 0.0
C768 C 0.2419 0.24917 0.84218 0.0
C769 C 0.25261 0.24661 0.86728 0.0
C770 C 0.2977 0.19417 0.85737 0.0
C771 C 0.28486 0.19465 0.83241 0.0
N772 N 0.25383 0.23071 0.80022 0.0
N773 N 0.2992 0.22696 0.89855 0.0
C774 C 0.26032 0.22523 0.82456 0.0
C775 C 0.28357 0.22252 0.87475 0.0
N776 N 0.21073 0.27129 0.8354 0.0
N777 N 0.32149 0.16472 0.86448 0.0
H778 H 0.2894 0.24786 0.91134 0.0
H779 H 0.32502 0.21398 0.9053 0.0
H780 H 0.33427 0.14564 0.85207 0.0
H781 H 0.32695 0.15737 0.88254 0.0
H782 H 0.19437 0.26763 0.81809 0.0
H783 H 0.19882 0.29154 0.84754 0.0
H784 H 0.24234 0.25754 0.79309 0.0
H785 H 0.26335 0.21115 0.78672 0.0
C786 C 0.02727 0.20232 0.03058 0.0
C787 C 0.00818 0.23707 0.03923 0.0
C788 C 0.0553 0.29863 1.00441 0.0
C789 C 0.08052 0.26751 0.99852 0.0
N790 N 0.10239 0.19943 1.01185 0.0
N791 N 0.01367 0.32507 0.0362 0.0
C792 C 0.07113 0.22329 1.01389 0.0
C793 C 0.02527 0.28756 0.02677 0.0
N794 N 0.00017 0.1475 0.03602 0.0
N795 N 0.05674 0.33608 0.9882 0.0
H796 H -0.00679 0.31895 0.05272 0.0
H797 H 0.02913 0.36426 0.0288 0.0
H798 H 0.07585 0.34343 0.97129 0.0
H799 H 0.03458 0.3559 0.99068 0.0
H800 H 0.01022 0.12049 0.02786 0.0
H801 H 0.96314 0.12768 0.04541 0.0
H802 H 0.09823 0.16858 0.02374 0.0
H803 H 0.13575 0.21445 1.00002 0.0
C804 C 0.77715 0.05999 0.21422 0.0
C805 C 0.74224 0.00459 0.20715 0.0
C806 C 0.7527 0.03457 0.16437 0.0
C807 C 0.79572 0.08728 0.17116 0.0
N808 N 0.8479 0.15214 0.20236 0.0
N809 N 0.6981 0.93829 0.17496 0.0
C810 C 0.80698 0.10086 0.1961 0.0
C811 C 0.72916 0.99176 0.18212 0.0
N812 N 0.78163 0.0731 0.23834 0.0
N813 N 0.73502 0.02519 0.14081 0.0
H814 H 0.67912 0.9054 0.18705 0.0
H815 H 0.69388 0.92594 0.15687 0.0
H816 H 0.75204 0.05532 0.1273 0.0
H817 H 0.70025 0.98942 0.13514 0.0
H818 H 0.80299 0.11313 0.24483 0.0
H819 H 0.75955 0.04377 0.25177 0.0
H820 H 0.86292 0.16315 0.21997 0.0
H821 H 0.86845 0.18341 0.18951 0.0
C822 C 0.72606 0.72292 0.3467 0.0
C823 C 0.72466 0.73654 0.37155 0.0
C824 C 0.69599 0.80181 0.35882 0.0
C825 C 0.69916 0.78926 0.33415 0.0
N826 N 0.69947 0.72604 0.30505 0.0
N827 N 0.69472 0.77742 0.40147 0.0
C828 C 0.7078 0.74546 0.32832 0.0
C829 C 0.70476 0.77209 0.37763 0.0
N830 N 0.74941 0.69273 0.34021 0.0
N831 N 0.68693 0.8437 0.36417 0.0
H832 H 0.70034 0.75544 0.41538 0.0
H833 H 0.67638 0.79933 0.40722 0.0
H834 H 0.67814 0.86443 0.35079 0.0
H835 H 0.69041 0.85946 0.38159 0.0
H836 H 0.75849 0.68855 0.32226 0.0
H837 H 0.76378 0.67506 0.35258 0.0
H838 H 0.6998 0.69063 0.30015 0.0
H839 H 0.68669 0.7421 0.29112 0.0
C840 C 0.244 0.04555 0.52749 0.0
C841 C 0.23381 0.03498 0.50222 0.0
C842 C 0.18243 0.93573 0.51027 0.0
C843 C 0.19254 0.94635 0.53551 0.0
N844 N 0.24252 0.00904 0.56781 0.0
N845 N 0.2048 0.9712 0.46892 0.0
C846 C 0.22664 0.00065 0.54398 0.0
C847 C 0.20666 0.9803 0.49342 0.0
N848 N 0.26733 0.09818 0.53588 0.0
N849 N 0.14755 0.88338 0.50254 0.0
H850 H 0.22233 0.00308 0.45617 0.0
H851 H 0.1903 0.93257 0.46132 0.0
H852 H 0.13041 0.84955 0.51428 0.0
H853 H 0.13308 0.87373 0.48478 0.0
H854 H 0.26991 0.10805 0.55425 0.0
H855 H 0.28099 0.13221 0.52441 0.0
H856 H 0.27144 0.04703 0.57478 0.0
H857 H 0.23027 0.97676 0.58021 0.0
C858 C 0.23851 0.2707 0.68645 0.0
C859 C 0.18121 0.24435 0.68219 0.0
C860 C 0.16848 0.16459 0.70491 0.0
C861 C 0.22435 0.19256 0.71198 0.0
N862 N 0.30798 0.28081 0.715 0.0
N863 N 0.09189 0.17672 0.69744 0.0
C864 C 0.25824 0.24836 0.70449 0.0
C865 C 0.14634 0.19511 0.69502 0.0
N866 N 0.27452 0.315 0.67288 0.0
N867 N 0.13712 0.10859 0.70549 0.0
H868 H 0.07463 0.19983 0.69164 0.0
H869 H 0.06596 0.14205 0.70781 0.0
H870 H 0.15319 0.08308 0.7084 0.0
H871 H 0.09694 0.08769 0.69922 0.0
H872 H 0.31664 0.33154 0.67396 0.0
H873 H 0.26277 0.33226 0.65913 0.0
H874 H 0.33186 0.3227 0.71125 0.0
H875 H 0.32213 0.26784 0.7296 0.0
C876 C 0.00194 0.26902 0.82554 0.0
C877 C 0.94935 0.24036 0.83636 0.0
C878 C -0.00973 0.26521 0.87682 0.0
C879 C 0.04189 0.28253 0.86612 0.0
N880 N 0.09965 0.3077 0.83078 0.0
N881 N 0.89173 0.21447 0.87189 0.0
C882 C 0.04881 0.28788 0.84055 0.0
C883 C 0.94292 0.24075 0.86192 0.0
N884 N 0.00645 0.27716 0.8009 0.0
N885 N 0.98706 0.27119 0.90133 0.0
H886 H 0.85642 0.19758 0.86133 0.0
H887 H 0.884 0.20758 0.89047 0.0
H888 H 0.02175 0.28921 0.91235 0.0
H889 H 0.95143 0.26295 0.91033 0.0
H890 H 0.04338 0.30079 0.79181 0.0
H891 H 0.97231 0.26373 0.78973 0.0
H892 H 0.10717 0.30663 0.81231 0.0
H893 H 0.13466 0.32435 0.84152 0.0
C894 C 0.7641 0.04541 0.02314 0.0
C895 C 0.77371 0.03587 0.0476 0.0
C896 C 0.72461 0.93659 0.04055 0.0
C897 C 0.71869 0.9467 1.01583 0.0
N898 N 0.71548 0.00589 0.98537 0.0
N899 N 0.74948 0.97304 0.08145 0.0
C900 C 0.73205 -0.00032 1.00789 0.0
C901 C 0.74913 0.98146 0.05695 0.0
N902 N 0.78919 0.09762 1.01385 0.0
N903 N 0.71001 0.8846 0.04786 0.0
H904 H 0.76716 0.00533 0.09382 0.0
H905 H 0.72838 0.93448 0.08969 0.0
H906 H 0.68984 0.85086 0.03634 0.0
H907 H 0.71947 0.87519 0.06485 0.0
H908 H 0.78863 0.10643 0.99547 0.0
H909 H 0.81403 0.13243 0.02411 0.0
H910 H 0.71991 0.0427 0.97899 0.0
H911 H 0.69232 0.97233 0.97405 0.0
C912 C 0.72967 0.74106 0.16283 0.0
C913 C 0.76321 0.72133 0.17199 0.0
C914 C 0.73983 0.7326 0.21363 0.0
C915 C 0.71687 0.7634 0.20443 0.0
N916 N 0.68723 0.79558 0.17028 0.0
N917 N 0.79933 0.6959 0.2061 0.0
C918 C 0.70965 0.76605 0.17901 0.0
C919 C 0.76692 0.71501 0.19742 0.0
N920 N 0.71761 0.73613 0.13858 0.0
N921 N 0.73611 0.72102 0.23797 0.0
H922 H 0.81865 0.6814 0.19477 0.0
H923 H 0.80926 0.69681 0.2244 0.0
H924 H 0.71599 0.7334 0.24998 0.0
H925 H 0.74804 0.69511 0.24579 0.0
H926 H 0.68996 0.74564 0.13082 0.0
H927 H 0.73154 0.71725 0.12664 0.0
H928 H 0.68728 0.80508 0.15194 0.0
H929 H 0.67055 0.81285 0.18158 0.0
C930 C 0.96701 0.71009 0.35468 0.0
C931 C 0.93481 0.73462 0.35898 0.0
C932 C -0.00122 0.81467 0.33573 0.0
C933 C 0.02844 0.78883 0.32852 0.0
N934 N 0.02973 0.70364 0.32675 0.0
N935 N 0.90878 0.79857 0.34392 0.0
C936 C 0.0094 0.73385 0.33663 0.0
C937 C 0.94652 0.7824 0.34578 0.0
N938 N 0.95875 0.66581 0.36813 0.0
N939 N 0.02179 0.87049 0.33532 0.0
H940 H 0.86904 0.7746 0.35063 0.0
H941 H 0.91564 0.8324 0.33341 0.0
H942 H 0.06339 0.89739 0.33246 0.0
H943 H 0.00123 0.88987 0.34171 0.0
H944 H 0.98491 0.65008 0.36737 0.0
H945 H 0.92784 0.64724 0.38114 0.0
H946 H 0.01398 0.66226 0.33091 0.0
H947 H 0.05772 0.71782 0.31244 0.0
loop_
_geom_bond_atom_site_label_1
_geom_bond_atom_site_label_2
_geom_bond_distance
_geom_bond_site_symmetry_2
_ccdc_geom_bond_type
Co0 O3 1.970 . S
Co0 N17 1.989 . S
Co0 O25 1.967 . S
Co0 O32 1.920 . S
Co1 O4 1.966 . S
Co1 N10 2.022 . S
Co1 N18 1.993 . S
Co1 O26 1.941 . S
C2 O3 1.258 . S
C2 O4 1.263 . S
O3 Co0 1.970 . S
O3 C2 1.258 . S
O4 Co1 1.966 . S
O4 C2 1.263 . S
C5 O6 1.235 . S
C5 O32 1.289 . S
O6 C5 1.235 . S
C7 C9 1.400 . S
C7 N10 1.351 . S
C7 C12 1.501 . S
C8 C9 1.387 . S
C8 N11 1.341 . S
C9 C7 1.400 . S
C9 C8 1.387 . S
N10 Co1 2.022 . S
N10 C7 1.351 . S
N10 N11 1.365 . S
N11 C8 1.341 . S
N11 N10 1.365 . S
N11 H31 0.862 . S
C12 C7 1.501 . S
C12 H13 0.961 . S
C12 H14 0.961 . S
C12 H15 0.960 . S
H13 C12 0.961 . S
H14 C12 0.961 . S
H15 C12 0.960 . S
C16 N17 1.342 . S
C16 C20 1.401 . S
C16 C21 1.499 . S
N17 Co0 1.989 . S
N17 C16 1.342 . S
N17 N18 1.388 . S
N18 Co1 1.993 . S
N18 N17 1.388 . S
N18 C19 1.346 . S
C19 N18 1.346 . S
C19 C20 1.396 . S
C19 C29 1.510 . S
C20 C16 1.401 . S
C20 C19 1.396 . S
C21 C16 1.499 . S
C21 H22 0.959 . S
C21 H23 0.960 . S
C21 H24 0.961 . S
H22 C21 0.959 . S
H23 C21 0.960 . S
H24 C21 0.961 . S
O25 Co0 1.967 . S
O25 C33 1.258 . S
O26 Co1 1.941 . S
O26 C33 1.266 . S
H27 C29 0.959 . S
H28 C29 0.961 . S
C29 C19 1.510 . S
C29 H27 0.959 . S
C29 H28 0.961 . S
C29 H30 0.960 . S
H30 C29 0.960 . S
H31 N11 0.862 . S
O32 Co0 1.920 . S
O32 C5 1.289 . S
C33 O25 1.258 . S
C33 O26 1.266 . S
Co34 O37 1.970 . S
Co34 N51 1.989 . S
Co34 O59 1.967 . S
Co34 O66 1.920 . S
Co35 O38 1.966 . S
Co35 N44 2.022 . S
Co35 N52 1.993 . S
Co35 O60 1.941 . S
C36 O37 1.258 . S
C36 O38 1.263 . S
O37 Co34 1.970 . S
O37 C36 1.258 . S
O38 Co35 1.966 . S
O38 C36 1.263 . S
C39 O40 1.235 . S
C39 O66 1.289 . S
O40 C39 1.235 . S
C41 C43 1.400 . S
C41 N44 1.351 . S
C41 C46 1.501 . S
C42 C43 1.387 . S
C42 N45 1.341 . S
C43 C41 1.400 . S
C43 C42 1.387 . S
N44 Co35 2.022 . S
N44 C41 1.351 . S
N44 N45 1.365 . S
N45 C42 1.341 . S
N45 N44 1.365 . S
N45 H65 0.862 . S
C46 C41 1.501 . S
C46 H47 0.961 . S
C46 H48 0.961 . S
C46 H49 0.960 . S
H47 C46 0.961 . S
H48 C46 0.961 . S
H49 C46 0.960 . S
C50 N51 1.342 . S
C50 C54 1.401 . S
C50 C55 1.499 . S
N51 Co34 1.989 . S
N51 C50 1.342 . S
N51 N52 1.388 . S
N52 Co35 1.993 . S
N52 N51 1.388 . S
N52 C53 1.346 . S
C53 N52 1.346 . S
C53 C54 1.396 . S
C53 C63 1.510 . S
C54 C50 1.401 . S
C54 C53 1.396 . S
C55 C50 1.499 . S
C55 H56 0.959 . S
C55 H57 0.960 . S
C55 H58 0.961 . S
H56 C55 0.959 . S
H57 C55 0.960 . S
H58 C55 0.961 . S
O59 Co34 1.967 . S
O59 C67 1.258 . S
O60 Co35 1.941 . S
O60 C67 1.266 . S
H61 C63 0.959 . S
H62 C63 0.961 . S
C63 C53 1.510 . S
C63 H61 0.959 . S
C63 H62 0.961 . S
C63 H64 0.960 . S
H64 C63 0.960 . S
H65 N45 0.862 . S
O66 Co34 1.920 . S
O66 C39 1.289 . S
C67 O59 1.258 . S
C67 O60 1.266 . S
Co68 O71 1.970 . S
Co68 N85 1.989 . S
Co68 O93 1.967 . S
Co68 O100 1.920 . S
Co69 O72 1.966 . S
Co69 N78 2.022 . S
Co69 N86 1.993 . S
Co69 O94 1.941 . S
C70 O71 1.258 . S
C70 O72 1.263 . S
O71 Co68 1.970 . S
O71 C70 1.258 . S
O72 Co69 1.966 . S
O72 C70 1.263 . S
C73 O74 1.235 . S
C73 O100 1.289 . S
O74 C73 1.235 . S
C75 C77 1.400 . S
C75 N78 1.351 . S
C75 C80 1.501 . S
C76 C77 1.387 . S
C76 N79 1.341 . S
C77 C75 1.400 . S
C77 C76 1.387 . S
N78 Co69 2.022 . S
N78 C75 1.351 . S
N78 N79 1.365 . S
N79 C76 1.341 . S
N79 N78 1.365 . S
N79 H99 0.862 . S
C80 C75 1.501 . S
C80 H81 0.961 . S
C80 H82 0.961 . S
C80 H83 0.960 . S
H81 C80 0.961 . S
H82 C80 0.961 . S
H83 C80 0.960 . S
C84 N85 1.342 . S
C84 C88 1.401 . S
C84 C89 1.499 . S
N85 Co68 1.989 . S
N85 C84 1.342 . S
N85 N86 1.388 . S
N86 Co69 1.993 . S
N86 N85 1.388 . S
N86 C87 1.346 . S
C87 N86 1.346 . S
C87 C88 1.396 . S
C87 C97 1.510 . S
C88 C84 1.401 . S
C88 C87 1.396 . S
C89 C84 1.499 . S
C89 H90 0.959 . S
C89 H91 0.960 . S
C89 H92 0.961 . S
H90 C89 0.959 . S
H91 C89 0.960 . S
H92 C89 0.961 . S
O93 Co68 1.967 . S
O93 C101 1.258 . S
O94 Co69 1.941 . S
O94 C101 1.266 . S
H95 C97 0.959 . S
H96 C97 0.961 . S
C97 C87 1.510 . S
C97 H95 0.959 . S
C97 H96 0.961 . S
C97 H98 0.960 . S
H98 C97 0.960 . S
H99 N79 0.862 . S
O100 Co68 1.920 . S
O100 C73 1.289 . S
C101 O93 1.258 . S
C101 O94 1.266 . S
Co102 O105 1.970 . S
Co102 N119 1.989 . S
Co102 O127 1.967 . S
Co102 O134 1.920 . S
Co103 O106 1.966 . S
Co103 N112 2.022 . S
Co103 N120 1.993 . S
Co103 O128 1.941 . S
C104 O105 1.258 . S
C104 O106 1.263 . S
O105 Co102 1.970 . S
O105 C104 1.258 . S
O106 Co103 1.966 . S
O106 C104 1.263 . S
C107 O108 1.235 . S
C107 O134 1.289 . S
O108 C107 1.235 . S
C109 C111 1.400 . S
C109 N112 1.351 . S
C109 C114 1.501 . S
C110 C111 1.387 . S
C110 N113 1.341 . S
C111 C109 1.400 . S
C111 C110 1.387 . S
N112 Co103 2.022 . S
N112 C109 1.351 . S
N112 N113 1.365 . S
N113 C110 1.341 . S
N113 N112 1.365 . S
N113 H133 0.862 . S
C114 C109 1.501 . S
C114 H115 0.961 . S
C114 H116 0.961 . S
C114 H117 0.960 . S
H115 C114 0.961 . S
H116 C114 0.961 . S
H117 C114 0.960 . S
C118 N119 1.342 . S
C118 C122 1.401 . S
C118 C123 1.499 . S
N119 Co102 1.989 . S
N119 C118 1.342 . S
N119 N120 1.388 . S
N120 Co103 1.993 . S
N120 N119 1.388 . S
N120 C121 1.346 . S
C121 N120 1.346 . S
C121 C122 1.396 . S
C121 C131 1.510 . S
C122 C118 1.401 . S
C122 C121 1.396 . S
C123 C118 1.499 . S
C123 H124 0.959 . S
C123 H125 0.960 . S
C123 H126 0.961 . S
H124 C123 0.959 . S
H125 C123 0.960 . S
H126 C123 0.961 . S
O127 Co102 1.967 . S
O127 C135 1.258 . S
O128 Co103 1.941 . S
O128 C135 1.266 . S
H129 C131 0.959 . S
H130 C131 0.961 . S
C131 C121 1.510 . S
C131 H129 0.959 . S
C131 H130 0.961 . S
C131 H132 0.960 . S
H132 C131 0.960 . S
H133 N113 0.862 . S
O134 Co102 1.920 . S
O134 C107 1.289 . S
C135 O127 1.258 . S
C135 O128 1.266 . S
Co136 O139 1.970 . S
Co136 N153 1.989 . S
Co136 O161 1.967 . S
Co136 O168 1.920 . S
Co137 O140 1.966 . S
Co137 N146 2.022 . S
Co137 N154 1.993 . S
Co137 O162 1.941 . S
C138 O139 1.258 . S
C138 O140 1.263 . S
O139 Co136 1.970 . S
O139 C138 1.258 . S
O140 Co137 1.966 . S
O140 C138 1.263 . S
C141 O142 1.235 . S
C141 O168 1.289 . S
O142 C141 1.235 . S
C143 C145 1.400 . S
C143 N146 1.351 . S
C143 C148 1.501 . S
C144 C145 1.387 . S
C144 N147 1.341 . S
C145 C143 1.400 . S
C145 C144 1.387 . S
N146 Co137 2.022 . S
N146 C143 1.351 . S
N146 N147 1.365 . S
N147 C144 1.341 . S
N147 N146 1.365 . S
N147 H167 0.862 . S
C148 C143 1.501 . S
C148 H149 0.961 . S
C148 H150 0.961 . S
C148 H151 0.960 . S
H149 C148 0.961 . S
H150 C148 0.961 . S
H151 C148 0.960 . S
C152 N153 1.342 . S
C152 C156 1.401 . S
C152 C157 1.499 . S
N153 Co136 1.989 . S
N153 C152 1.342 . S
N153 N154 1.388 . S
N154 Co137 1.993 . S
N154 N153 1.388 . S
N154 C155 1.346 . S
C155 N154 1.346 . S
C155 C156 1.396 . S
C155 C165 1.510 . S
C156 C152 1.401 . S
C156 C155 1.396 . S
C157 C152 1.499 . S
C157 H158 0.959 . S
C157 H159 0.960 . S
C157 H160 0.961 . S
H158 C157 0.959 . S
H159 C157 0.960 . S
H160 C157 0.961 . S
O161 Co136 1.967 . S
O161 C169 1.258 . S
O162 Co137 1.941 . S
O162 C169 1.266 . S
H163 C165 0.959 . S
H164 C165 0.961 . S
C165 C155 1.510 . S
C165 H163 0.959 . S
C165 H164 0.961 . S
C165 H166 0.960 . S
H166 C165 0.960 . S
H167 N147 0.862 . S
O168 Co136 1.920 . S
O168 C141 1.289 . S
C169 O161 1.258 . S
C169 O162 1.266 . S
Co170 O173 1.970 . S
Co170 N187 1.989 . S
Co170 O195 1.967 . S
Co170 O202 1.920 . S
Co171 O174 1.966 . S
Co171 N180 2.022 . S
Co171 N188 1.993 . S
Co171 O196 1.941 . S
C172 O173 1.258 . S
C172 O174 1.263 . S
O173 Co170 1.970 . S
O173 C172 1.258 . S
O174 Co171 1.966 . S
O174 C172 1.263 . S
C175 O176 1.235 . S
C175 O202 1.289 . S
O176 C175 1.235 . S
C177 C179 1.400 . S
C177 N180 1.351 . S
C177 C182 1.501 . S
C178 C179 1.387 . S
C178 N181 1.341 . S
C179 C177 1.400 . S
C179 C178 1.387 . S
N180 Co171 2.022 . S
N180 C177 1.351 . S
N180 N181 1.365 . S
N181 C178 1.341 . S
N181 N180 1.365 . S
N181 H201 0.862 . S
C182 C177 1.501 . S
C182 H183 0.961 . S
C182 H184 0.961 . S
C182 H185 0.960 . S
H183 C182 0.961 . S
H184 C182 0.961 . S
H185 C182 0.960 . S
C186 N187 1.342 . S
C186 C190 1.401 . S
C186 C191 1.499 . S
N187 Co170 1.989 . S
N187 C186 1.342 . S
N187 N188 1.388 . S
N188 Co171 1.993 . S
N188 N187 1.388 . S
N188 C189 1.346 . S
C189 N188 1.346 . S
C189 C190 1.396 . S
C189 C199 1.510 . S
C190 C186 1.401 . S
C190 C189 1.396 . S
C191 C186 1.499 . S
C191 H192 0.959 . S
C191 H193 0.960 . S
C191 H194 0.961 . S
H192 C191 0.959 . S
H193 C191 0.960 . S
H194 C191 0.961 . S
O195 Co170 1.967 . S
O195 C203 1.258 . S
O196 Co171 1.941 . S
O196 C203 1.266 . S
H197 C199 0.959 . S
H198 C199 0.961 . S
C199 C189 1.510 . S
C199 H197 0.959 . S
C199 H198 0.961 . S
C199 H200 0.960 . S
H200 C199 0.960 . S
H201 N181 0.862 . S
O202 Co170 1.920 . S
O202 C175 1.289 . S
C203 O195 1.258 . S
C203 O196 1.266 . S
Co204 O207 1.970 . S
Co204 N221 1.989 . S
Co204 O229 1.967 . S
Co204 O236 1.920 . S
Co205 O208 1.966 . S
Co205 N214 2.022 . S
Co205 N222 1.993 . S
Co205 O230 1.941 . S
C206 O207 1.258 . S
C206 O208 1.263 . S
O207 Co204 1.970 . S
O207 C206 1.258 . S
O208 Co205 1.966 . S
O208 C206 1.263 . S
C209 O210 1.235 . S
C209 O236 1.289 . S
O210 C209 1.235 . S
C211 C213 1.400 . S
C211 N214 1.351 . S
C211 C216 1.501 . S
C212 C213 1.387 . S
C212 N215 1.341 . S
C213 C211 1.400 . S
C213 C212 1.387 . S
N214 Co205 2.022 . S
N214 C211 1.351 . S
N214 N215 1.365 . S
N215 C212 1.341 . S
N215 N214 1.365 . S
N215 H235 0.862 . S
C216 C211 1.501 . S
C216 H217 0.961 . S
C216 H218 0.961 . S
C216 H219 0.960 . S
H217 C216 0.961 . S
H218 C216 0.961 . S
H219 C216 0.960 . S
C220 N221 1.342 . S
C220 C224 1.401 . S
C220 C225 1.499 . S
N221 Co204 1.989 . S
N221 C220 1.342 . S
N221 N222 1.388 . S
N222 Co205 1.993 . S
N222 N221 1.388 . S
N222 C223 1.346 . S
C223 N222 1.346 . S
C223 C224 1.396 . S
C223 C233 1.510 . S
C224 C220 1.401 . S
C224 C223 1.396 . S
C225 C220 1.499 . S
C225 H226 0.959 . S
C225 H227 0.960 . S
C225 H228 0.961 . S
H226 C225 0.959 . S
H227 C225 0.960 . S
H228 C225 0.961 . S
O229 Co204 1.967 . S
O229 C237 1.258 . S
O230 Co205 1.941 . S
O230 C237 1.266 . S
H231 C233 0.959 . S
H232 C233 0.961 . S
C233 C223 1.510 . S
C233 H231 0.959 . S
C233 H232 0.961 . S
C233 H234 0.960 . S
H234 C233 0.960 . S
H235 N215 0.862 . S
O236 Co204 1.920 . S
O236 C209 1.289 . S
C237 O229 1.258 . S
C237 O230 1.266 . S
Co238 O241 1.970 . S
Co238 N255 1.989 . S
Co238 O263 1.967 . S
Co238 O270 1.920 . S
Co239 O242 1.966 . S
Co239 N248 2.022 . S
Co239 N256 1.993 . S
Co239 O264 1.941 . S
C240 O241 1.258 . S
C240 O242 1.263 . S
O241 Co238 1.970 . S
O241 C240 1.258 . S
O242 Co239 1.966 . S
O242 C240 1.263 . S
C243 O244 1.235 . S
C243 O270 1.289 . S
O244 C243 1.235 . S
C245 C247 1.400 . S
C245 N248 1.351 . S
C245 C250 1.501 . S
C246 C247 1.387 . S
C246 N249 1.341 . S
C247 C245 1.400 . S
C247 C246 1.387 . S
N248 Co239 2.022 . S
N248 C245 1.351 . S
N248 N249 1.365 . S
N249 C246 1.341 . S
N249 N248 1.365 . S
N249 H269 0.862 . S
C250 C245 1.501 . S
C250 H251 0.961 . S
C250 H252 0.961 . S
C250 H253 0.960 . S
H251 C250 0.961 . S
H252 C250 0.961 . S
H253 C250 0.960 . S
C254 N255 1.342 . S
C254 C258 1.401 . S
C254 C259 1.499 . S
N255 Co238 1.989 . S
N255 C254 1.342 . S
N255 N256 1.388 . S
N256 Co239 1.993 . S
N256 N255 1.388 . S
N256 C257 1.346 . S
C257 N256 1.346 . S
C257 C258 1.396 . S
C257 C267 1.510 . S
C258 C254 1.401 . S
C258 C257 1.396 . S
C259 C254 1.499 . S
C259 H260 0.959 . S
C259 H261 0.960 . S
C259 H262 0.961 . S
H260 C259 0.959 . S
H261 C259 0.960 . S
H262 C259 0.961 . S
O263 Co238 1.967 . S
O263 C271 1.258 . S
O264 Co239 1.941 . S
O264 C271 1.266 . S
H265 C267 0.959 . S
H266 C267 0.961 . S
C267 C257 1.510 . S
C267 H265 0.959 . S
C267 H266 0.961 . S
C267 H268 0.960 . S
H268 C267 0.960 . S
H269 N249 0.862 . S
O270 Co238 1.920 . S
O270 C243 1.289 . S
C271 O263 1.258 . S
C271 O264 1.266 . S
Co272 O275 1.970 . S
Co272 N289 1.989 . S
Co272 O297 1.967 . S
Co272 O304 1.920 . S
Co273 O276 1.966 . S
Co273 N282 2.022 . S
Co273 N290 1.993 . S
Co273 O298 1.941 . S
C274 O275 1.258 . S
C274 O276 1.263 . S
O275 Co272 1.970 . S
O275 C274 1.258 . S
O276 Co273 1.966 . S
O276 C274 1.263 . S
C277 O278 1.235 . S
C277 O304 1.289 . S
O278 C277 1.235 . S
C279 C281 1.400 . S
C279 N282 1.351 . S
C279 C284 1.501 . S
C280 C281 1.387 . S
C280 N283 1.341 . S
C281 C279 1.400 . S
C281 C280 1.387 . S
N282 Co273 2.022 . S
N282 C279 1.351 . S
N282 N283 1.365 . S
N283 C280 1.341 . S
N283 N282 1.365 . S
N283 H303 0.862 . S
C284 C279 1.501 . S
C284 H285 0.961 . S
C284 H286 0.961 . S
C284 H287 0.960 . S
H285 C284 0.961 . S
H286 C284 0.961 . S
H287 C284 0.960 . S
C288 N289 1.342 . S
C288 C292 1.401 . S
C288 C293 1.499 . S
N289 Co272 1.989 . S
N289 C288 1.342 . S
N289 N290 1.388 . S
N290 Co273 1.993 . S
N290 N289 1.388 . S
N290 C291 1.346 . S
C291 N290 1.346 . S
C291 C292 1.396 . S
C291 C301 1.510 . S
C292 C288 1.401 . S
C292 C291 1.396 . S
C293 C288 1.499 . S
C293 H294 0.959 . S
C293 H295 0.960 . S
C293 H296 0.961 . S
H294 C293 0.959 . S
H295 C293 0.960 . S
H296 C293 0.961 . S
O297 Co272 1.967 . S
O297 C305 1.258 . S
O298 Co273 1.941 . S
O298 C305 1.266 . S
H299 C301 0.959 . S
H300 C301 0.961 . S
C301 C291 1.510 . S
C301 H299 0.959 . S
C301 H300 0.961 . S
C301 H302 0.960 . S
H302 C301 0.960 . S
H303 N283 0.862 . S
O304 Co272 1.920 . S
O304 C277 1.289 . S
C305 O297 1.258 . S
C305 O298 1.266 . S
Co306 O309 1.970 . S
Co306 N323 1.989 . S
Co306 O331 1.967 . S
Co306 O338 1.920 . S
Co307 O310 1.966 . S
Co307 N316 2.022 . S
Co307 N324 1.993 . S
Co307 O332 1.941 . S
C308 O309 1.258 . S
C308 O310 1.263 . S
O309 Co306 1.970 . S
O309 C308 1.258 . S
O310 Co307 1.966 . S
O310 C308 1.263 . S
C311 O312 1.235 . S
C311 O338 1.289 . S
O312 C311 1.235 . S
C313 C315 1.400 . S
C313 N316 1.351 . S
C313 C318 1.501 . S
C314 C315 1.387 . S
C314 N317 1.341 . S
C315 C313 1.400 . S
C315 C314 1.387 . S
N316 Co307 2.022 . S
N316 C313 1.351 . S
N316 N317 1.365 . S
N317 C314 1.341 . S
N317 N316 1.365 . S
N317 H337 0.862 . S
C318 C313 1.501 . S
C318 H319 0.961 . S
C318 H320 0.961 . S
C318 H321 0.960 . S
H319 C318 0.961 . S
H320 C318 0.961 . S
H321 C318 0.960 . S
C322 N323 1.342 . S
C322 C326 1.401 . S
C322 C327 1.499 . S
N323 Co306 1.989 . S
N323 C322 1.342 . S
N323 N324 1.388 . S
N324 Co307 1.993 . S
N324 N323 1.388 . S
N324 C325 1.346 . S
C325 N324 1.346 . S
C325 C326 1.396 . S
C325 C335 1.510 . S
C326 C322 1.401 . S
C326 C325 1.396 . S
C327 C322 1.499 . S
C327 H328 0.959 . S
C327 H329 0.960 . S
C327 H330 0.961 . S
H328 C327 0.959 . S
H329 C327 0.960 . S
H330 C327 0.961 . S
O331 Co306 1.967 . S
O331 C339 1.258 . S
O332 Co307 1.941 . S
O332 C339 1.266 . S
H333 C335 0.959 . S
H334 C335 0.961 . S
C335 C325 1.510 . S
C335 H333 0.959 . S
C335 H334 0.961 . S
C335 H336 0.960 . S
H336 C335 0.960 . S
H337 N317 0.862 . S
O338 Co306 1.920 . S
O338 C311 1.289 . S
C339 O331 1.258 . S
C339 O332 1.266 . S
Co340 O343 1.970 . S
Co340 N357 1.989 . S
Co340 O365 1.967 . S
Co340 O372 1.920 . S
Co341 O344 1.966 . S
Co341 N350 2.022 . S
Co341 N358 1.993 . S
Co341 O366 1.941 . S
C342 O343 1.258 . S
C342 O344 1.263 . S
O343 Co340 1.970 . S
O343 C342 1.258 . S
O344 Co341 1.966 . S
O344 C342 1.263 . S
C345 O346 1.235 . S
C345 O372 1.289 . S
O346 C345 1.235 . S
C347 C349 1.400 . S
C347 N350 1.351 . S
C347 C352 1.501 . S
C348 C349 1.387 . S
C348 N351 1.341 . S
C349 C347 1.400 . S
C349 C348 1.387 . S
N350 Co341 2.022 . S
N350 C347 1.351 . S
N350 N351 1.365 . S
N351 C348 1.341 . S
N351 N350 1.365 . S
N351 H371 0.862 . S
C352 C347 1.501 . S
C352 H353 0.961 . S
C352 H354 0.961 . S
C352 H355 0.960 . S
H353 C352 0.961 . S
H354 C352 0.961 . S
H355 C352 0.960 . S
C356 N357 1.342 . S
C356 C360 1.401 . S
C356 C361 1.499 . S
N357 Co340 1.989 . S
N357 C356 1.342 . S
N357 N358 1.388 . S
N358 Co341 1.993 . S
N358 N357 1.388 . S
N358 C359 1.346 . S
C359 N358 1.346 . S
C359 C360 1.396 . S
C359 C369 1.510 . S
C360 C356 1.401 . S
C360 C359 1.396 . S
C361 C356 1.499 . S
C361 H362 0.959 . S
C361 H363 0.960 . S
C361 H364 0.961 . S
H362 C361 0.959 . S
H363 C361 0.960 . S
H364 C361 0.961 . S
O365 Co340 1.967 . S
O365 C373 1.258 . S
O366 Co341 1.941 . S
O366 C373 1.266 . S
H367 C369 0.959 . S
H368 C369 0.961 . S
C369 C359 1.510 . S
C369 H367 0.959 . S
C369 H368 0.961 . S
C369 H370 0.960 . S
H370 C369 0.960 . S
H371 N351 0.862 . S
O372 Co340 1.920 . S
O372 C345 1.289 . S
C373 O365 1.258 . S
C373 O366 1.266 . S
Co374 O377 1.970 . S
Co374 N391 1.989 . S
Co374 O399 1.967 . S
Co374 O406 1.920 . S
Co375 O378 1.966 . S
Co375 N384 2.022 . S
Co375 N392 1.993 . S
Co375 O400 1.941 . S
C376 O377 1.258 . S
C376 O378 1.263 . S
O377 Co374 1.970 . S
O377 C376 1.258 . S
O378 Co375 1.966 . S
O378 C376 1.263 . S
C379 O380 1.235 . S
C379 O406 1.289 . S
O380 C379 1.235 . S
C381 C383 1.400 . S
C381 N384 1.351 . S
C381 C386 1.501 . S
C382 C383 1.387 . S
C382 N385 1.341 . S
C383 C381 1.400 . S
C383 C382 1.387 . S
N384 Co375 2.022 . S
N384 C381 1.351 . S
N384 N385 1.365 . S
N385 C382 1.341 . S
N385 N384 1.365 . S
N385 H405 0.862 . S
C386 C381 1.501 . S
C386 H387 0.961 . S
C386 H388 0.961 . S
C386 H389 0.960 . S
H387 C386 0.961 . S
H388 C386 0.961 . S
H389 C386 0.960 . S
C390 N391 1.342 . S
C390 C394 1.401 . S
C390 C395 1.499 . S
N391 Co374 1.989 . S
N391 C390 1.342 . S
N391 N392 1.388 . S
N392 Co375 1.993 . S
N392 N391 1.388 . S
N392 C393 1.346 . S
C393 N392 1.346 . S
C393 C394 1.396 . S
C393 C403 1.510 . S
C394 C390 1.401 . S
C394 C393 1.396 . S
C395 C390 1.499 . S
C395 H396 0.959 . S
C395 H397 0.960 . S
C395 H398 0.961 . S
H396 C395 0.959 . S
H397 C395 0.960 . S
H398 C395 0.961 . S
O399 Co374 1.967 . S
O399 C407 1.258 . S
O400 Co375 1.941 . S
O400 C407 1.266 . S
H401 C403 0.959 . S
H402 C403 0.961 . S
C403 C393 1.510 . S
C403 H401 0.959 . S
C403 H402 0.961 . S
C403 H404 0.960 . S
H404 C403 0.960 . S
H405 N385 0.862 . S
O406 Co374 1.920 . S
O406 C379 1.289 . S
C407 O399 1.258 . S
C407 O400 1.266 . S
C408 C409 1.363 . S
C408 C414 1.379 1_545 S
C408 N416 1.356 . S
C409 C408 1.363 . S
C409 C415 1.363 1_545 S
C410 C411 1.363 1_455 S
C410 C415 1.379 . S
C410 N417 1.356 1_455 S
C411 C410 1.363 1_655 S
C411 C414 1.363 1_655 S
N412 C414 1.356 1_655 S
N412 H424 0.984 . S
N412 H425 0.985 . S
N413 C415 1.356 1_545 S
N413 H418 0.984 . S
N413 H419 0.985 1_545 S
C414 C408 1.379 1_565 S
C414 C411 1.363 1_455 S
C414 N412 1.356 1_455 S
C415 C409 1.363 1_565 S
C415 C410 1.379 . S
C415 N413 1.356 1_565 S
N416 C408 1.356 . S
N416 H422 0.984 . S
N416 H423 0.984 . S
N417 C410 1.356 1_655 S
N417 H420 0.984 . S
N417 H421 0.985 . S
H418 N413 0.984 . S
H419 N413 0.985 1_565 S
H420 N417 0.984 . S
H421 N417 0.985 . S
H422 N416 0.984 . S
H423 N416 0.984 . S
H424 N412 0.984 . S
H425 N412 0.985 . S
C426 C427 1.363 1_545 S
C426 C432 1.379 . S
C426 N434 1.341 1_545 S
C427 C426 1.363 1_565 S
C427 C433 1.363 . S
C428 C429 1.363 . S
C428 C433 1.379 1_545 S
C428 N435 1.356 . S
C429 C428 1.363 . S
C429 C432 1.363 . S
N430 C432 1.356 . S
N430 H442 0.984 . S
N430 H443 0.985 . S
N431 C433 1.356 . S
N431 H436 0.984 . S
N431 H437 0.985 1_455 S
C432 C426 1.379 . S
C432 C429 1.363 . S
C432 N430 1.356 . S
C433 C427 1.363 . S
C433 C428 1.379 1_565 S
C433 N431 1.356 . S
N434 C426 1.341 1_565 S
N434 H440 0.977 1_565 S
N434 H441 1.008 . S
N435 C428 1.356 . S
N435 H438 0.984 . S
N435 H439 0.985 1_455 S
H436 N431 0.984 . S
H437 N431 0.985 1_655 S
H438 N435 0.984 . S
H439 N435 0.985 1_655 S
H440 N434 0.977 1_545 S
H441 N434 1.008 . S
H442 N430 0.984 . S
H443 N430 0.985 . S
C444 C445 1.363 1_455 S
C444 C450 1.379 . S
C444 N452 1.356 1_455 S
C445 C444 1.363 1_655 S
C445 C451 1.363 . S
C446 C447 1.363 . S
C446 C451 1.379 1_455 S
C446 N453 1.356 1_545 S
C447 C446 1.363 . S
C447 C450 1.363 . S
N448 C450 1.356 . S
N448 H460 0.984 . S
N448 H461 0.985 . S
N449 C451 1.356 1_565 S
N449 H454 0.984 . S
N449 H455 0.985 . S
C450 C444 1.379 . S
C450 C447 1.363 . S
C450 N448 1.356 . S
C451 C445 1.363 . S
C451 C446 1.379 1_655 S
C451 N449 1.356 1_545 S
N452 C444 1.356 1_655 S
N452 H458 0.984 1_655 S
N452 H459 0.984 . S
N453 C446 1.356 1_565 S
N453 H456 0.984 . S
N453 H457 0.985 . S
H454 N449 0.984 . S
H455 N449 0.985 . S
H456 N453 0.984 . S
H457 N453 0.985 . S
H458 N452 0.984 1_455 S
H459 N452 0.984 . S
H460 N448 0.984 . S
H461 N448 0.985 . S
C462 C463 1.363 . S
C462 C468 1.379 1_665 S
C462 N470 1.356 . S
C463 C462 1.363 . S
C463 C469 1.363 1_565 S
C464 C465 1.363 1_655 S
C464 C469 1.379 . S
C464 N471 1.356 1_655 S
C465 C464 1.363 1_455 S
C465 C468 1.363 . S
N466 C468 1.356 . S
N466 H478 0.984 . S
N466 H479 0.985 . S
N467 C469 1.356 1_565 S
N467 H472 0.998 . S
N467 H473 0.972 1_565 S
C468 C462 1.379 1_445 S
C468 C465 1.363 . S
C468 N466 1.356 . S
C469 C463 1.363 1_545 S
C469 C464 1.379 . S
C469 N467 1.356 1_545 S
N470 C462 1.356 . S
N470 H476 0.984 . S
N470 H477 0.984 . S
N471 C464 1.356 1_455 S
N471 H474 0.984 . S
N471 H475 0.985 . S
H472 N467 0.998 . S
H473 N467 0.972 1_545 S
H474 N471 0.984 . S
H475 N471 0.985 . S
H476 N470 0.984 . S
H477 N470 0.984 . S
H478 N466 0.984 . S
H479 N466 0.985 . S
C480 C481 1.363 . S
C480 C486 1.379 1_565 S
C480 N488 1.356 1_655 S
C481 C480 1.363 . S
C481 C487 1.363 . S
C482 C483 1.363 1_565 S
C482 C487 1.379 . S
C482 N489 1.356 1_565 S
C483 C482 1.363 1_545 S
C483 C486 1.363 . S
N484 C486 1.356 1_455 S
N484 H496 0.984 . S
N484 H497 0.985 1_455 S
N485 C487 1.356 . S
N485 H490 0.984 . S
N485 H491 0.985 . S
C486 C480 1.379 1_545 S
C486 C483 1.363 . S
C486 N484 1.356 1_655 S
C487 C481 1.363 . S
C487 C482 1.379 . S
C487 N485 1.356 . S
N488 C480 1.356 1_455 S
N488 H494 0.984 . S
N488 H495 0.984 1_455 S
N489 C482 1.356 1_545 S
N489 H492 0.984 . S
N489 H493 0.985 1_545 S
H490 N485 0.984 . S
H491 N485 0.985 . S
H492 N489 0.984 . S
H493 N489 0.985 1_565 S
H494 N488 0.984 . S
H495 N488 0.984 1_655 S
H496 N484 0.984 . S
H497 N484 0.985 1_655 S
C498 C499 1.363 . S
C498 C504 1.379 1_455 S
C498 N506 1.356 1_565 S
C499 C498 1.363 . S
C499 C505 1.363 1_455 S
C500 C501 1.363 . S
C500 C505 1.379 . S
C500 N507 1.356 . S
C501 C500 1.363 . S
C501 C504 1.363 . S
N502 C504 1.356 1_545 S
N502 H514 0.984 . S
N502 H515 0.985 . S
N503 C505 1.356 1_455 S
N503 H508 0.984 . S
N503 H509 0.985 1_455 S
C504 C498 1.379 1_655 S
C504 C501 1.363 . S
C504 N502 1.356 1_565 S
C505 C499 1.363 1_655 S
C505 C500 1.379 . S
C505 N503 1.356 1_655 S
N506 C498 1.356 1_545 S
N506 H512 0.984 . S
N506 H513 0.984 . S
N507 C500 1.356 . S
N507 H510 0.984 . S
N507 H511 0.985 . S
H508 N503 0.984 . S
H509 N503 0.985 1_655 S
H510 N507 0.984 . S
H511 N507 0.985 . S
H512 N506 0.984 . S
H513 N506 0.984 . S
H514 N502 0.984 . S
H515 N502 0.985 . S
C516 C517 1.363 . S
C516 C522 1.379 . S
C516 N524 1.356 . S
C517 C516 1.363 . S
C517 C523 1.363 . S
C518 C519 1.363 . S
C518 C523 1.379 . S
C518 N525 1.356 . S
C519 C518 1.363 . S
C519 C522 1.363 . S
N520 C522 1.356 . S
N520 H532 0.984 . S
N520 H533 0.985 . S
N521 C523 1.356 . S
N521 H526 0.984 . S
N521 H527 0.985 . S
C522 C516 1.379 . S
C522 C519 1.363 . S
C522 N520 1.356 . S
C523 C517 1.363 . S
C523 C518 1.379 . S
C523 N521 1.356 . S
N524 C516 1.356 . S
N524 H530 0.984 . S
N524 H531 0.984 . S
N525 C518 1.356 . S
N525 H528 0.984 . S
N525 H529 0.985 . S
H526 N521 0.984 . S
H527 N521 0.985 . S
H528 N525 0.984 . S
H529 N525 0.985 . S
H530 N524 0.984 . S
H531 N524 0.984 . S
H532 N520 0.984 . S
H533 N520 0.985 . S
C534 C535 1.363 . S
C534 C540 1.379 . S
C534 N542 1.356 . S
C535 C534 1.363 . S
C535 C541 1.363 . S
C536 C537 1.363 . S
C536 C541 1.379 . S
C536 N543 1.356 . S
C537 C536 1.363 . S
C537 C540 1.363 . S
N538 C540 1.356 . S
N538 H550 0.984 . S
N538 H551 0.985 . S
N539 C541 1.356 . S
N539 H544 0.984 . S
N539 H545 0.985 . S
C540 C534 1.379 . S
C540 C537 1.363 . S
C540 N538 1.356 . S
C541 C535 1.363 . S
C541 C536 1.379 . S
C541 N539 1.356 . S
N542 C534 1.356 . S
N542 H548 0.984 . S
N542 H549 0.984 . S
N543 C536 1.356 . S
N543 H546 0.984 . S
N543 H547 0.985 . S
H544 N539 0.984 . S
H545 N539 0.985 . S
H546 N543 0.984 . S
H547 N543 0.985 . S
H548 N542 0.984 . S
H549 N542 0.984 . S
H550 N538 0.984 . S
H551 N538 0.985 . S
C552 C553 1.363 . S
C552 C558 1.379 . S
C552 N560 1.356 . S
C553 C552 1.363 . S
C553 C559 1.363 . S
C554 C555 1.363 . S
C554 C559 1.379 . S
C554 N561 1.356 . S
C555 C554 1.363 . S
C555 C558 1.363 . S
N556 C558 1.356 . S
N556 H568 0.984 . S
N556 H569 0.985 . S
N557 C559 1.356 . S
N557 H562 0.984 . S
N557 H563 0.985 . S
C558 C552 1.379 . S
C558 C555 1.363 . S
C558 N556 1.356 . S
C559 C553 1.363 . S
C559 C554 1.379 . S
C559 N557 1.356 . S
N560 C552 1.356 . S
N560 H566 0.984 . S
N560 H567 0.984 . S
N561 C554 1.356 . S
N561 H564 0.984 . S
N561 H565 0.985 . S
H562 N557 0.984 . S
H563 N557 0.985 . S
H564 N561 0.984 . S
H565 N561 0.985 . S
H566 N560 0.984 . S
H567 N560 0.984 . S
H568 N556 0.984 . S
H569 N556 0.985 . S
C570 C571 1.363 . S
C570 C576 1.379 . S
C570 N578 1.356 . S
C571 C570 1.363 . S
C571 C577 1.363 . S
C572 C573 1.363 . S
C572 C577 1.379 . S
C572 N579 1.356 . S
C573 C572 1.363 . S
C573 C576 1.363 . S
N574 C576 1.356 . S
N574 H586 0.984 . S
N574 H587 0.985 . S
N575 C577 1.356 . S
N575 H580 0.984 . S
N575 H581 0.985 . S
C576 C570 1.379 . S
C576 C573 1.363 . S
C576 N574 1.356 . S
C577 C571 1.363 . S
C577 C572 1.379 . S
C577 N575 1.356 . S
N578 C570 1.356 . S
N578 H584 0.984 . S
N578 H585 0.984 . S
N579 C572 1.356 . S
N579 H582 0.984 . S
N579 H583 0.985 . S
H580 N575 0.984 . S
H581 N575 0.985 . S
H582 N579 0.984 . S
H583 N579 0.985 . S
H584 N578 0.984 . S
H585 N578 0.984 . S
H586 N574 0.984 . S
H587 N574 0.985 . S
C588 C589 1.363 . S
C588 C594 1.379 . S
C588 N596 1.356 . S
C589 C588 1.363 . S
C589 C595 1.363 . S
C590 C591 1.363 . S
C590 C595 1.379 . S
C590 N597 1.356 . S
C591 C590 1.363 . S
C591 C594 1.363 . S
N592 C594 1.356 . S
N592 H604 0.984 . S
N592 H605 0.985 . S
N593 C595 1.356 . S
N593 H598 0.984 . S
N593 H599 0.985 . S
C594 C588 1.379 . S
C594 C591 1.363 . S
C594 N592 1.356 . S
C595 C589 1.363 . S
C595 C590 1.379 . S
C595 N593 1.356 . S
N596 C588 1.356 . S
N596 H602 0.984 . S
N596 H603 0.984 . S
N597 C590 1.356 . S
N597 H600 0.984 . S
N597 H601 0.985 . S
H598 N593 0.984 . S
H599 N593 0.985 . S
H600 N597 0.984 . S
H601 N597 0.985 . S
H602 N596 0.984 . S
H603 N596 0.984 . S
H604 N592 0.984 . S
H605 N592 0.985 . S
C606 C607 1.363 . S
C606 C612 1.379 . S
C606 N614 1.356 . S
C607 C606 1.363 . S
C607 C613 1.363 . S
C608 C609 1.363 . S
C608 C613 1.379 . S
C608 N615 1.356 . S
C609 C608 1.363 . S
C609 C612 1.363 . S
N610 C612 1.356 . S
N610 H622 0.984 . S
N610 H623 0.985 . S
N611 C613 1.356 . S
N611 H616 0.984 . S
N611 H617 0.985 . S
C612 C606 1.379 . S
C612 C609 1.363 . S
C612 N610 1.356 . S
C613 C607 1.363 . S
C613 C608 1.379 . S
C613 N611 1.356 . S
N614 C606 1.356 . S
N614 H620 0.984 . S
N614 H621 0.984 . S
N615 C608 1.356 . S
N615 H618 0.984 . S
N615 H619 0.985 . S
H616 N611 0.984 . S
H617 N611 0.985 . S
H618 N615 0.984 . S
H619 N615 0.985 . S
H620 N614 0.984 . S
H621 N614 0.984 . S
H622 N610 0.984 . S
H623 N610 0.985 . S
C624 C625 1.364 . S
C624 C630 1.388 . S
C624 N632 1.345 1_545 S
C625 C624 1.364 . S
C625 C631 1.363 . S
C626 C627 1.363 . S
C626 C631 1.379 . S
C626 N633 1.356 . S
C627 C626 1.363 . S
C627 C630 1.363 . S
N628 C630 1.356 . S
N628 H640 0.984 . S
N628 H641 0.985 . S
N629 C631 1.356 . S
N629 H634 0.984 . S
N629 H635 0.985 . S
C630 C624 1.388 . S
C630 C627 1.363 . S
C630 N628 1.356 . S
C631 C625 1.363 . S
C631 C626 1.379 . S
C631 N629 1.356 . S
N632 C624 1.345 1_565 S
N632 H638 0.984 . S
N632 H639 0.984 . S
N633 C626 1.356 . S
N633 H636 0.984 . S
N633 H637 0.985 . S
H634 N629 0.984 . S
H635 N629 0.985 . S
H636 N633 0.984 . S
H637 N633 0.985 . S
H638 N632 0.984 . S
H639 N632 0.984 . S
H640 N628 0.984 . S
H641 N628 0.985 . S
C642 C643 1.363 . S
C642 C648 1.379 . S
C642 N650 1.356 . S
C643 C642 1.363 . S
C643 C649 1.363 . S
C644 C645 1.363 . S
C644 C649 1.379 . S
C644 N651 1.356 . S
C645 C644 1.363 . S
C645 C648 1.363 . S
N646 C648 1.356 . S
N646 H658 0.984 . S
N646 H659 0.985 . S
N647 C649 1.356 . S
N647 H652 0.984 . S
N647 H653 0.985 . S
C648 C642 1.379 . S
C648 C645 1.363 . S
C648 N646 1.356 . S
C649 C643 1.363 . S
C649 C644 1.379 . S
C649 N647 1.356 . S
N650 C642 1.356 . S
N650 H656 0.984 . S
N650 H657 0.984 . S
N651 C644 1.356 . S
N651 H654 0.984 . S
N651 H655 0.985 . S
H652 N647 0.984 . S
H653 N647 0.985 . S
H654 N651 0.984 . S
H655 N651 0.985 . S
H656 N650 0.984 . S
H657 N650 0.984 . S
H658 N646 0.984 . S
H659 N646 0.985 . S
C660 C661 1.363 . S
C660 C666 1.379 . S
C660 N668 1.356 . S
C661 C660 1.363 . S
C661 C667 1.363 . S
C662 C663 1.363 . S
C662 C667 1.379 . S
C662 N669 1.356 . S
C663 C662 1.363 . S
C663 C666 1.363 . S
N664 C666 1.356 1_455 S
N664 H676 0.984 . S
N664 H677 0.985 . S
N665 C667 1.356 . S
N665 H670 0.984 . S
N665 H671 0.985 . S
C666 C660 1.379 . S
C666 C663 1.363 . S
C666 N664 1.356 1_655 S
C667 C661 1.363 . S
C667 C662 1.379 . S
C667 N665 1.356 . S
N668 C660 1.356 . S
N668 H674 0.984 . S
N668 H675 0.984 . S
N669 C662 1.356 . S
N669 H672 0.984 1_655 S
N669 H673 0.985 . S
H670 N665 0.984 . S
H671 N665 0.985 . S
H672 N669 0.984 1_455 S
H673 N669 0.985 . S
H674 N668 0.984 . S
H675 N668 0.984 . S
H676 N664 0.984 . S
H677 N664 0.985 . S
C678 C679 1.363 . S
C678 C684 1.379 . S
C678 N686 1.356 1_565 S
C679 C678 1.363 . S
C679 C685 1.363 . S
C680 C681 1.363 . S
C680 C685 1.379 . S
C680 N687 1.356 . S
C681 C680 1.363 . S
C681 C684 1.363 . S
N682 C684 1.356 . S
N682 H694 0.984 . S
N682 H695 0.985 . S
N683 C685 1.356 . S
N683 H688 0.984 . S
N683 H689 0.985 . S
C684 C678 1.379 . S
C684 C681 1.363 . S
C684 N682 1.356 . S
C685 C679 1.363 . S
C685 C680 1.379 . S
C685 N683 1.356 . S
N686 C678 1.356 1_545 S
N686 H692 0.984 . S
N686 H693 0.984 . S
N687 C680 1.356 . S
N687 H690 0.984 . S
N687 H691 0.985 . S
H688 N683 0.984 . S
H689 N683 0.985 . S
H690 N687 0.984 . S
H691 N687 0.985 . S
H692 N686 0.984 . S
H693 N686 0.984 . S
H694 N682 0.984 . S
H695 N682 0.985 . S
C696 C697 1.363 . S
C696 C702 1.409 . S
C696 N704 1.356 . S
C697 C696 1.363 . S
C697 C703 1.363 . S
C698 C699 1.363 . S
C698 C703 1.379 1_554 S
C698 N705 1.356 . S
C699 C698 1.363 . S
C699 C702 1.343 1_554 S
N700 C702 1.338 1_554 S
N700 H712 0.984 . S
N700 H713 0.985 . S
N701 C703 1.356 . S
N701 H706 0.984 . S
N701 H707 0.985 . S
C702 C696 1.409 . S
C702 C699 1.343 1_556 S
C702 N700 1.338 1_556 S
C703 C697 1.363 . S
C703 C698 1.379 1_556 S
C703 N701 1.356 . S
N704 C696 1.356 . S
N704 H710 0.984 . S
N704 H711 0.984 . S
N705 C698 1.356 . S
N705 H708 0.984 . S
N705 H709 0.985 . S
H706 N701 0.984 . S
H707 N701 0.985 . S
H708 N705 0.984 . S
H709 N705 0.985 . S
H710 N704 0.984 . S
H711 N704 0.984 . S
H712 N700 0.984 . S
H713 N700 0.985 . S
C714 C715 1.363 . S
C714 C720 1.379 . S
C714 N722 1.356 . S
C715 C714 1.363 . S
C715 C721 1.363 . S
C716 C717 1.363 . S
C716 C721 1.379 . S
C716 N723 1.356 . S
C717 C716 1.363 . S
C717 C720 1.363 . S
N718 C720 1.356 . S
N718 H730 0.984 . S
N718 H731 0.985 . S
N719 C721 1.356 1_655 S
N719 H724 0.984 . S
N719 H725 0.985 . S
C720 C714 1.379 . S
C720 C717 1.363 . S
C720 N718 1.356 . S
C721 C715 1.363 . S
C721 C716 1.379 . S
C721 N719 1.356 1_455 S
N722 C714 1.356 . S
N722 H728 0.984 . S
N722 H729 0.978 1_455 S
N723 C716 1.356 . S
N723 H726 0.984 . S
N723 H727 0.985 . S
H724 N719 0.984 . S
H725 N719 0.985 . S
H726 N723 0.984 . S
H727 N723 0.985 . S
H728 N722 0.984 . S
H729 N722 0.978 1_655 S
H730 N718 0.984 . S
H731 N718 0.985 . S
C732 C733 1.363 . S
C732 C738 1.379 . S
C732 N740 1.356 1_655 S
C733 C732 1.363 . S
C733 C739 1.363 . S
C734 C735 1.363 . S
C734 C739 1.379 . S
C734 N741 1.356 . S
C735 C734 1.363 . S
C735 C738 1.363 . S
N736 C738 1.356 . S
N736 H748 0.984 . S
N736 H749 0.985 . S
N737 C739 1.356 . S
N737 H742 0.984 . S
N737 H743 0.985 . S
C738 C732 1.379 . S
C738 C735 1.363 . S
C738 N736 1.356 . S
C739 C733 1.363 . S
C739 C734 1.379 . S
C739 N737 1.356 . S
N740 C732 1.356 1_455 S
N740 H746 0.984 . S
N740 H747 0.984 . S
N741 C734 1.356 . S
N741 H744 0.984 . S
N741 H745 0.985 . S
H742 N737 0.984 . S
H743 N737 0.985 . S
H744 N741 0.984 . S
H745 N741 0.985 . S
H746 N740 0.984 . S
H747 N740 0.984 . S
H748 N736 0.984 . S
H749 N736 0.985 . S
C750 C751 1.363 . S
C750 C756 1.379 . S
C750 N758 1.356 . S
C751 C750 1.363 . S
C751 C757 1.363 . S
C752 C753 1.363 . S
C752 C757 1.379 . S
C752 N759 1.356 1_565 S
C753 C752 1.363 . S
C753 C756 1.363 . S
N754 C756 1.356 . S
N754 H766 0.984 . S
N754 H767 0.985 . S
N755 C757 1.356 . S
N755 H760 0.984 . S
N755 H761 0.985 . S
C756 C750 1.379 . S
C756 C753 1.363 . S
C756 N754 1.356 . S
C757 C751 1.363 . S
C757 C752 1.379 . S
C757 N755 1.356 . S
N758 C750 1.356 . S
N758 H764 0.984 . S
N758 H765 0.984 . S
N759 C752 1.356 1_545 S
N759 H762 0.984 . S
N759 H763 0.985 . S
H760 N755 0.984 . S
H761 N755 0.985 . S
H762 N759 0.984 . S
H763 N759 0.985 . S
H764 N758 0.984 . S
H765 N758 0.984 . S
H766 N754 0.984 . S
H767 N754 0.985 . S
C768 C769 1.363 . S
C768 C774 1.379 . S
C768 N776 1.356 . S
C769 C768 1.363 . S
C769 C775 1.363 . S
C770 C771 1.363 . S
C770 C775 1.379 . S
C770 N777 1.356 . S
C771 C770 1.363 . S
C771 C774 1.363 . S
N772 C774 1.356 . S
N772 H784 0.984 . S
N772 H785 0.985 . S
N773 C775 1.356 . S
N773 H778 0.984 . S
N773 H779 0.985 . S
C774 C768 1.379 . S
C774 C771 1.363 . S
C774 N772 1.356 . S
C775 C769 1.363 . S
C775 C770 1.379 . S
C775 N773 1.356 . S
N776 C768 1.356 . S
N776 H782 0.984 . S
N776 H783 0.984 . S
N777 C770 1.356 . S
N777 H780 0.984 . S
N777 H781 0.985 . S
H778 N773 0.984 . S
H779 N773 0.985 . S
H780 N777 0.984 . S
H781 N777 0.985 . S
H782 N776 0.984 . S
H783 N776 0.984 . S
H784 N772 0.984 . S
H785 N772 0.985 . S
C786 C787 1.363 . S
C786 C792 1.380 . S
C786 N794 1.356 . S
C787 C786 1.363 . S
C787 C793 1.363 . S
C788 C789 1.363 . S
C788 C793 1.379 1_556 S
C788 N795 1.356 . S
C789 C788 1.363 . S
C789 C792 1.362 1_556 S
N790 C792 1.355 1_556 S
N790 H802 0.984 . S
N790 H803 0.985 . S
N791 C793 1.356 1_655 S
N791 H796 0.984 . S
N791 H797 0.985 . S
C792 C786 1.380 . S
C792 C789 1.362 1_554 S
C792 N790 1.355 1_554 S
C793 C787 1.363 . S
C793 C788 1.379 1_554 S
C793 N791 1.356 1_455 S
N794 C786 1.356 . S
N794 H800 0.984 . S
N794 H801 0.984 1_455 S
N795 C788 1.356 . S
N795 H798 0.984 . S
N795 H799 0.985 . S
H796 N791 0.984 . S
H797 N791 0.985 . S
H798 N795 0.984 . S
H799 N795 0.985 . S
H800 N794 0.984 . S
H801 N794 0.984 1_655 S
H802 N790 0.984 . S
H803 N790 0.985 . S
C804 C805 1.363 . S
C804 C810 1.379 . S
C804 N812 1.356 . S
C805 C804 1.363 . S
C805 C811 1.363 1_545 S
C806 C807 1.363 . S
C806 C811 1.376 1_545 S
C806 N813 1.356 . S
C807 C806 1.363 . S
C807 C810 1.363 . S
N808 C810 1.356 . S
N808 H820 0.984 . S
N808 H821 0.985 . S
N809 C811 1.359 . S
N809 H814 0.984 . S
N809 H815 0.985 . S
C810 C804 1.379 . S
C810 C807 1.363 . S
C810 N808 1.356 . S
C811 C805 1.363 1_565 S
C811 C806 1.376 1_565 S
C811 N809 1.359 . S
N812 C804 1.356 . S
N812 H818 0.984 . S
N812 H819 0.984 . S
N813 C806 1.356 . S
N813 H816 0.984 . S
N813 H817 0.985 . S
H814 N809 0.984 . S
H815 N809 0.985 . S
H816 N813 0.984 . S
H817 N813 0.985 . S
H818 N812 0.984 . S
H819 N812 0.984 . S
H820 N808 0.984 . S
H821 N808 0.985 . S
C822 C823 1.363 . S
C822 C828 1.379 . S
C822 N830 1.356 . S
C823 C822 1.363 . S
C823 C829 1.363 . S
C824 C825 1.363 . S
C824 C829 1.379 . S
C824 N831 1.356 . S
C825 C824 1.363 . S
C825 C828 1.363 . S
N826 C828 1.356 . S
N826 H838 0.984 . S
N826 H839 0.985 . S
N827 C829 1.356 . S
N827 H832 0.984 . S
N827 H833 0.985 . S
C828 C822 1.379 . S
C828 C825 1.363 . S
C828 N826 1.356 . S
C829 C823 1.363 . S
C829 C824 1.379 . S
C829 N827 1.356 . S
N830 C822 1.356 . S
N830 H836 0.984 . S
N830 H837 0.984 . S
N831 C824 1.356 . S
N831 H834 0.984 . S
N831 H835 0.985 . S
H832 N827 0.984 . S
H833 N827 0.985 . S
H834 N831 0.984 . S
H835 N831 0.985 . S
H836 N830 0.984 . S
H837 N830 0.984 . S
H838 N826 0.984 . S
H839 N826 0.985 . S
C840 C841 1.363 . S
C840 C846 1.379 1_545 S
C840 N848 1.356 . S
C841 C840 1.363 . S
C841 C847 1.363 . S
C842 C843 1.363 . S
C842 C847 1.379 1_565 S
C842 N849 1.356 . S
C843 C842 1.363 . S
C843 C846 1.363 . S
N844 C846 1.356 . S
N844 H856 0.984 1_565 S
N844 H857 0.985 . S
N845 C847 1.356 . S
N845 H850 0.984 . S
N845 H851 0.985 1_545 S
C846 C840 1.379 1_565 S
C846 C843 1.363 . S
C846 N844 1.356 . S
C847 C841 1.363 . S
C847 C842 1.379 1_545 S
C847 N845 1.356 . S
N848 C840 1.356 . S
N848 H854 0.984 . S
N848 H855 0.984 . S
N849 C842 1.356 . S
N849 H852 0.984 . S
N849 H853 0.985 . S
H850 N845 0.984 . S
H851 N845 0.985 1_565 S
H852 N849 0.984 . S
H853 N849 0.985 . S
H854 N848 0.984 . S
H855 N848 0.984 . S
H856 N844 0.984 1_545 S
H857 N844 0.985 . S
C858 C859 1.363 . S
C858 C864 1.379 . S
C858 N866 1.356 . S
C859 C858 1.363 . S
C859 C865 1.363 . S
C860 C861 1.363 . S
C860 C865 1.379 . S
C860 N867 1.356 . S
C861 C860 1.363 . S
C861 C864 1.363 . S
N862 C864 1.356 . S
N862 H874 0.984 . S
N862 H875 0.985 . S
N863 C865 1.356 . S
N863 H868 0.984 . S
N863 H869 0.985 . S
C864 C858 1.379 . S
C864 C861 1.363 . S
C864 N862 1.356 . S
C865 C859 1.363 . S
C865 C860 1.379 . S
C865 N863 1.356 . S
N866 C858 1.356 . S
N866 H872 0.984 . S
N866 H873 0.984 . S
N867 C860 1.356 . S
N867 H870 0.984 . S
N867 H871 0.985 . S
H868 N863 0.984 . S
H869 N863 0.985 . S
H870 N867 0.984 . S
H871 N867 0.985 . S
H872 N866 0.984 . S
H873 N866 0.984 . S
H874 N862 0.984 . S
H875 N862 0.985 . S
C876 C877 1.363 1_455 S
C876 C882 1.379 . S
C876 N884 1.356 . S
C877 C876 1.363 1_655 S
C877 C883 1.363 . S
C878 C879 1.363 1_655 S
C878 C883 1.379 . S
C878 N885 1.356 . S
C879 C878 1.363 1_455 S
C879 C882 1.363 . S
N880 C882 1.356 . S
N880 H892 0.984 . S
N880 H893 0.985 . S
N881 C883 1.356 . S
N881 H886 0.984 . S
N881 H887 0.985 . S
C882 C876 1.379 . S
C882 C879 1.363 . S
C882 N880 1.356 . S
C883 C877 1.363 . S
C883 C878 1.379 . S
C883 N881 1.356 . S
N884 C876 1.356 . S
N884 H890 0.982 . S
N884 H891 0.987 1_455 S
N885 C878 1.356 . S
N885 H888 0.986 1_655 S
N885 H889 0.983 . S
H886 N881 0.984 . S
H887 N881 0.985 . S
H888 N885 0.986 1_455 S
H889 N885 0.983 . S
H890 N884 0.982 . S
H891 N884 0.987 1_655 S
H892 N880 0.984 . S
H893 N880 0.985 . S
C894 C895 1.363 1_556 S
C894 C900 1.369 1_545 S
C894 N902 1.358 . S
C895 C894 1.363 1_554 S
C895 C901 1.378 . S
C896 C897 1.363 1_554 S
C896 C901 1.369 1_565 S
C896 N903 1.358 . S
C897 C896 1.363 1_556 S
C897 C900 1.377 . S
N898 C900 1.356 . S
N898 H910 0.984 1_565 S
N898 H911 0.985 . S
N899 C901 1.356 . S
N899 H904 0.984 . S
N899 H905 0.985 1_545 S
C900 C894 1.369 1_565 S
C900 C897 1.377 . S
C900 N898 1.356 . S
C901 C895 1.378 . S
C901 C896 1.369 1_545 S
C901 N899 1.356 . S
N902 C894 1.358 . S
N902 H908 0.996 . S
N902 H909 0.971 1_556 S
N903 C896 1.358 . S
N903 H906 0.971 1_554 S
N903 H907 0.997 . S
H904 N899 0.984 . S
H905 N899 0.985 1_565 S
H906 N903 0.971 1_556 S
H907 N903 0.997 . S
H908 N902 0.996 . S
H909 N902 0.971 1_554 S
H910 N898 0.984 1_545 S
H911 N898 0.985 . S
C912 C913 1.363 . S
C912 C918 1.379 . S
C912 N920 1.356 . S
C913 C912 1.363 . S
C913 C919 1.363 . S
C914 C915 1.363 . S
C914 C919 1.379 . S
C914 N921 1.356 . S
C915 C914 1.363 . S
C915 C918 1.363 . S
N916 C918 1.356 . S
N916 H928 0.984 . S
N916 H929 0.985 . S
N917 C919 1.356 . S
N917 H922 0.984 . S
N917 H923 0.985 . S
C918 C912 1.379 . S
C918 C915 1.363 . S
C918 N916 1.356 . S
C919 C913 1.363 . S
C919 C914 1.379 . S
C919 N917 1.356 . S
N920 C912 1.356 . S
N920 H926 0.984 . S
N920 H927 0.984 . S
N921 C914 1.356 . S
N921 H924 0.984 . S
N921 H925 0.985 . S
H922 N917 0.984 . S
H923 N917 0.985 . S
H924 N921 0.984 . S
H925 N921 0.985 . S
H926 N920 0.984 . S
H927 N920 0.984 . S
H928 N916 0.984 . S
H929 N916 0.985 . S
C930 C931 1.363 . S
C930 C936 1.379 1_655 S
C930 N938 1.356 . S
C931 C930 1.363 . S
C931 C937 1.363 . S
C932 C933 1.363 . S
C932 C937 1.379 1_455 S
C932 N939 1.356 . S
C933 C932 1.363 . S
C933 C936 1.363 . S
N934 C936 1.356 . S
N934 H946 0.984 . S
N934 H947 0.985 . S
N935 C937 1.356 . S
N935 H940 0.984 . S
N935 H941 0.985 . S
C936 C930 1.379 1_455 S
C936 C933 1.363 . S
C936 N934 1.356 . S
C937 C931 1.363 . S
C937 C932 1.379 1_655 S
C937 N935 1.356 . S
N938 C930 1.356 . S
N938 H944 0.984 . S
N938 H945 0.984 . S
N939 C932 1.356 . S
N939 H942 0.984 . S
N939 H943 0.985 . S
H940 N935 0.984 . S
H941 N935 0.985 . S
H942 N939 0.984 . S
H943 N939 0.985 . S
H944 N938 0.984 . S
H945 N938 0.984 . S
H946 N934 0.984 . S
H947 N934 0.985 . S
C409 C5 0.297 . S
C411 C209 0.297 . S
C427 C243 0.297 . S
C429 C39 0.297 . S
C445 C73 0.297 . S
C447 C277 0.297 . S
C463 C107 0.297 . S
C465 C311 0.297 . S
C481 C141 0.297 . S
C483 C345 0.297 . S
C499 C175 0.297 . S
C501 C379 0.297 . S
C517 C213 1.325 . S
C519 C9 1.325 . S
C535 C43 1.325 . S
C537 C247 1.325 . S
C553 C281 1.325 . S
C555 C77 1.325 . S
C571 C315 1.325 . S
C573 C111 1.325 . S
C589 C349 1.325 . S
C591 C145 1.325 . S
C607 C179 1.325 . S
C609 C383 1.325 . S
C625 C172 1.655 1_545 S
C627 C20 1.581 . S
C643 C2 1.655 . S
C645 C54 1.581 . S
C661 C88 1.581 . S
C663 C36 1.655 1_655 S
C679 C70 1.655 1_565 S
C681 C122 1.581 . S
C697 C104 1.655 . S
C699 C156 1.581 . S
C715 C138 1.655 1_455 S
C717 C190 1.581 . S
C733 C240 1.655 1_655 S
C735 C224 1.581 . S
C751 C258 1.581 . S
C753 C274 1.655 1_565 S
C769 C308 1.655 . S
C771 C292 1.581 . S
C787 C342 1.655 1_455 S
C789 C326 1.581 . S
C805 C376 1.655 1_545 S
C807 C360 1.581 . S
C823 C206 1.655 . S
C825 C394 1.581 . S
C841 C33 1.588 . S
C843 C271 1.588 . S
C859 C67 1.588 . S
C861 C305 1.588 . S
C877 C101 1.588 . S
C879 C339 1.588 . S
C895 C373 1.588 . S
C897 C135 1.588 . S
C913 C169 1.588 . S
C915 C407 1.588 . S
C931 C237 1.588 . S
C933 C203 1.588 . S
