# Generated by pormake.
# Topology tfs, (6)-cn, num edge types: 1
# Building blocks:
#     Node 0, Type 0, BuildingBlock: BETDEL_clean_sbu_0, # of connection points: 6
#     Node 1, Type 0, BuildingBlock: BETDEL_clean_sbu_0, # of connection points: 6
#     Node 2, Type 0, BuildingBlock: BETDEL_clean_sbu_0, # of connection points: 6
#     Node 3, Type 0, BuildingBlock: BETDEL_clean_sbu_0, # of connection points: 6
#     Node 4, Type 0, BuildingBlock: BETDEL_clean_sbu_0, # of connection points: 6
#     Node 5, Type 0, BuildingBlock: BETDEL_clean_sbu_0, # of connection points: 6
#     Edge 6, Type (0, 0), BuildingBlock: ZUJKAS_clean_linker_0, # of connection points: 2
#     Edge 7, Type (0, 0), BuildingBlock: ZUJKAS_clean_linker_0, # of connection points: 2
#     Edge 8, Type (0, 0), BuildingBlock: ZUJKAS_clean_linker_0, # of connection points: 2
#     Edge 9, Type (0, 0), BuildingBlock: ZUJKAS_clean_linker_0, # of connection points: 2
#     Edge 10, Type (0, 0), BuildingBlock: ZUJKAS_clean_linker_0, # of connection points: 2
#     Edge 11, Type (0, 0), BuildingBlock: ZUJKAS_clean_linker_0, # of connection points: 2
#     Edge 12, Type (0, 0), BuildingBlock: ZUJKAS_clean_linker_0, # of connection points: 2
#     Edge 13, Type (0, 0), BuildingBlock: ZUJKAS_clean_linker_0, # of connection points: 2
#     Edge 14, Type (0, 0), BuildingBlock: ZUJKAS_clean_linker_0, # of connection points: 2
#     Edge 15, Type (0, 0), BuildingBlock: ZUJKAS_clean_linker_0, # of connection points: 2
#     Edge 16, Type (0, 0), BuildingBlock: ZUJKAS_clean_linker_0, # of connection points: 2
#     Edge 17, Type (0, 0), BuildingBlock: ZUJKAS_clean_linker_0, # of connection points: 2
#     Edge 18, Type (0, 0), BuildingBlock: ZUJKAS_clean_linker_0, # of connection points: 2
#     Edge 19, Type (0, 0), BuildingBlock: ZUJKAS_clean_linker_0, # of connection points: 2
#     Edge 20, Type (0, 0), BuildingBlock: ZUJKAS_clean_linker_0, # of connection points: 2
#     Edge 21, Type (0, 0), BuildingBlock: ZUJKAS_clean_linker_0, # of connection points: 2
#     Edge 22, Type (0, 0), BuildingBlock: ZUJKAS_clean_linker_0, # of connection points: 2
#     Edge 23, Type (0, 0), BuildingBlock: ZUJKAS_clean_linker_0, # of connection points: 2
# Relax obj value: 0.417
# Max RMSD: 0.271
# Mean RMSD: 0.253
data_MOF--net-tfs--node1-BETDEL_clean_sbu_0--edge1-ZUJKAS_clean_linker_0
_symmetry_space_group_name_H-M    P1
_symmetry_Int_Tables_number       1
_symmetry_cell_setting            triclinic
loop_
_symmetry_equiv_pos_as_xyz
'x, y, z'
_cell_length_a     56.71845
_cell_length_b     56.125628
_cell_length_c     19.145682
_cell_angle_alpha  90.180278
_cell_angle_beta   91.393667
_cell_angle_gamma 121.03231
loop_
_atom_site_label
_atom_site_type_symbol
_atom_site_fract_x
_atom_site_fract_y
_atom_site_fract_z
_atom_type_partial_charge
Dy0 Dy 0.18566 0.44403 0.11191 0.0
C1 C 0.21777 0.36316 0.07167 0.0
C2 C 0.18469 0.49211 0.11655 0.0
Dy3 Dy 0.20871 0.40486 0.1035 0.0
O4 O 0.19397 0.48411 0.06623 0.0
O5 O 0.17483 0.47324 0.16476 0.0
O6 O 0.1653 0.42782 0.00765 0.0
O7 O 0.20345 0.43125 0.02826 0.0
C8 C 0.184 0.42357 0.9833 0.0
C9 C 0.20309 0.41303 0.23939 0.0
O10 O 0.24659 0.44541 0.08462 0.0
O11 O 0.22977 0.46937 0.14327 0.0
O12 O 0.23519 0.38598 0.10542 0.0
O13 O 0.19644 0.36424 0.05015 0.0
O14 O 0.21284 0.39818 0.21716 0.0
O15 O 0.19738 0.42308 0.18744 0.0
O16 O 0.14742 0.4047 0.13665 0.0
O17 O 0.16355 0.37787 0.08837 0.0
C18 C 0.25015 0.46823 0.11523 0.0
C19 C 0.14354 0.38068 0.11289 0.0
Dy20 Dy 0.76683 0.18761 0.99633 0.0
C21 C 0.87424 0.21579 0.96667 0.0
C22 C 0.71453 0.17626 0.00563 0.0
Dy23 Dy 0.82611 0.21237 0.99518 0.0
O24 O 0.72436 0.17093 0.95164 0.0
O25 O 0.73288 0.18658 0.05604 0.0
O26 O 0.76296 0.16539 0.89662 0.0
O27 O 0.79665 0.2062 0.91163 0.0
C28 C 0.78512 0.18539 0.87015 0.0
C29 C 0.81477 0.20686 0.13068 0.0
O30 O 0.82668 0.25234 0.97994 0.0
O31 O 0.78039 0.23234 0.00246 0.0
O32 O 0.85077 0.19298 0.97025 0.0
O33 O 0.87124 0.2371 0.97568 0.0
O34 O 0.83934 0.21942 0.1071 0.0
O35 O 0.79712 0.19977 0.08131 0.0
O36 O 0.76904 0.15265 0.04041 0.0
O37 O 0.80781 0.16676 0.978 0.0
C38 C 0.80484 0.25433 0.99222 0.0
C39 C 0.78748 0.14791 0.01446 0.0
Dy40 Dy 0.55677 0.76278 0.09744 0.0
C41 C 0.63935 0.87272 0.0666 0.0
C42 C 0.51204 0.7123 0.11626 0.0
Dy43 Dy 0.59704 0.82298 0.10124 0.0
O44 O 0.52608 0.71983 0.05989 0.0
O45 O 0.52317 0.73183 0.16363 0.0
O46 O 0.57146 0.76023 0.99253 0.0
O47 O 0.56902 0.79538 0.01921 0.0
C48 C 0.57596 0.78426 0.97292 0.0
C49 C 0.59249 0.80729 0.23395 0.0
O50 O 0.55855 0.82606 0.09519 0.0
O51 O 0.52791 0.77877 0.10303 0.0
O52 O 0.62159 0.86891 0.11335 0.0
O53 O 0.63293 0.84961 0.03493 0.0
O54 O 0.60773 0.8327 0.21474 0.0
O55 O 0.57984 0.79164 0.18191 0.0
O56 O 0.59328 0.75922 0.12216 0.0
O57 O 0.62344 0.80378 0.08558 0.0
C58 C 0.53297 0.80454 0.1007 0.0
C59 C 0.61808 0.77868 0.10348 0.0
Dy60 Dy 0.78317 0.54656 0.00751 0.0
C61 C 0.75149 0.62665 0.99872 0.0
C62 C 0.79166 0.50284 0.02085 0.0
Dy63 Dy 0.76001 0.58244 0.00589 0.0
O64 O 0.80242 0.522 0.97431 0.0
O65 O 0.77758 0.5085 0.06308 0.0
O66 O 0.80356 0.56334 0.90748 0.0
O67 O 0.76481 0.55886 0.92132 0.0
C68 C 0.78481 0.56739 0.88048 0.0
C69 C 0.75986 0.56221 0.13313 0.0
O70 O 0.71927 0.5417 0.9873 0.0
O71 O 0.73815 0.5145 0.00867 0.0
O72 O 0.76538 0.6227 0.04706 0.0
O73 O 0.7417 0.60604 0.95363 0.0
O74 O 0.74021 0.56513 0.10704 0.0
O75 O 0.77923 0.57093 0.09069 0.0
O76 O 0.82134 0.5856 0.0442 0.0
O77 O 0.80588 0.61223 0.99225 0.0
C78 C 0.71641 0.51683 0.99686 0.0
C79 C 0.82607 0.60986 0.0212 0.0
Dy80 Dy 0.23296 0.81425 0.1084 0.0
C81 C 0.11618 0.78174 0.06811 0.0
C82 C 0.28384 0.81902 0.13022 0.0
Dy83 Dy 0.16926 0.79342 0.09645 0.0
O84 O 0.27962 0.83724 0.09979 0.0
O85 O 0.26046 0.79911 0.15219 0.0
O86 O 0.23902 0.83322 0.00399 0.0
O87 O 0.20093 0.79799 0.02359 0.0
C88 C 0.21414 0.8169 0.97983 0.0
C89 C 0.18537 0.80049 0.23257 0.0
O90 O 0.16629 0.75196 0.09082 0.0
O91 O 0.21352 0.76821 0.10171 0.0
O92 O 0.12822 0.78615 0.12887 0.0
O93 O 0.13312 0.78318 0.02095 0.0
O94 O 0.1604 0.79076 0.20964 0.0
O95 O 0.20048 0.80455 0.18098 0.0
O96 O 0.23221 0.85157 0.1451 0.0
O97 O 0.19111 0.83963 0.08555 0.0
C98 C 0.18746 0.74799 0.09534 0.0
C99 C 0.21467 0.8582 0.11734 0.0
Dy100 Dy 0.42389 0.1865 0.00682 0.0
C101 C 0.34621 0.21801 0.05189 0.0
C102 C 0.46612 0.17768 0.99918 0.0
Dy103 Dy 0.38726 0.20994 0.01137 0.0
O104 O 0.45991 0.18662 0.05388 0.0
O105 O 0.44867 0.17263 0.94773 0.0
O106 O 0.40525 0.1631 0.1032 0.0
O107 O 0.41062 0.20294 0.09287 0.0
C108 C 0.40142 0.1818 0.13147 0.0
C109 C 0.39405 0.20403 0.87539 0.0
O110 O 0.42867 0.25038 0.02738 0.0
O111 O 0.45495 0.23159 0.99652 0.0
O112 O 0.37095 0.23788 0.03756 0.0
O113 O 0.34429 0.19412 0.04608 0.0
O114 O 0.38049 0.21513 0.89795 0.0
O115 O 0.40439 0.19808 0.92649 0.0
O116 O 0.386 0.14819 0.97198 0.0
O117 O 0.35859 0.16317 0.01848 0.0
C118 C 0.45294 0.2533 0.01312 0.0
C119 C 0.3619 0.14309 0.99304 0.0
H120 H 0.29312 0.18249 0.00901 0.0
H121 H 0.25523 0.19187 0.00744 0.0
H122 H 0.30838 0.27051 0.11327 0.0
H123 H 0.34644 0.26175 0.11243 0.0
H124 H 0.23313 0.21528 0.13257 0.0
H125 H 0.28364 0.28235 0.90529 0.0
H126 H 0.28677 0.25267 0.92603 0.0
H127 H 0.30657 0.28469 0.97504 0.0
C128 C 0.29642 0.20148 0.03326 0.0
C129 C 0.32259 0.22158 0.06065 0.0
C130 C 0.2748 0.20672 0.03245 0.0
C131 C 0.27916 0.23183 0.06031 0.0
C132 C 0.30478 0.25101 0.09157 0.0
H133 H 0.25524 0.35512 0.14099 0.0
H134 H 0.25862 0.31347 0.13955 0.0
C135 C 0.32647 0.2461 0.09089 0.0
C136 C 0.2588 0.24037 0.04953 0.0
H137 H 0.25494 0.29271 0.97176 0.0
C138 C 0.2372 0.23161 0.09607 0.0
C139 C 0.26391 0.26123 1.00088 0.0
C140 C 0.28634 0.2707 0.94845 0.0
C141 C 0.22254 0.24554 0.09996 0.0
C142 C 0.23001 0.26851 0.05657 0.0
C143 C 0.24946 0.27511 0.00516 0.0
C144 C 0.22273 0.28961 0.07158 0.0
C145 C 0.20056 0.23703 0.15307 0.0
C146 C 0.20116 0.28969 0.03453 0.0
C147 C 0.19925 0.31359 0.03506 0.0
C148 C 0.21926 0.33775 0.07131 0.0
C149 C 0.23998 0.33703 0.11108 0.0
C150 C 0.24162 0.31311 0.11141 0.0
H151 H 0.19442 0.21647 0.17563 0.0
H152 H 0.20834 0.25283 0.19602 0.0
H153 H 0.18214 0.23611 0.12866 0.0
H154 H 0.18664 0.27179 0.00289 0.0
H155 H 0.18263 0.31343 0.00552 0.0
H156 H 0.12771 0.33568 0.02938 0.0
H157 H 0.0817 0.29582 0.01061 0.0
H158 H 0.05056 0.32967 0.16023 0.0
H159 H 0.09704 0.37036 0.17943 0.0
H160 H 0.04005 0.25565 0.10865 0.0
H161 H 0.01301 0.32458 0.96328 0.0
H162 H 0.04818 0.33411 0.98211 0.0
H163 H 0.02798 0.33656 0.04944 0.0
C164 C 0.11125 0.33459 0.05941 0.0
C165 C 0.11584 0.35621 0.10579 0.0
C166 C 0.08505 0.31167 0.04873 0.0
C167 C 0.06311 0.31001 0.08428 0.0
C168 C 0.06759 0.33091 0.13259 0.0
H169 H 0.89772 0.22586 0.09439 0.0
H170 H 0.94407 0.23576 0.12448 0.0
C171 C 0.09391 0.35409 0.14307 0.0
C172 C 0.03517 0.28817 0.06411 0.0
H173 H 0.97715 0.2787 0.98231 0.0
C174 C 0.02617 0.26048 0.08087 0.0
C175 C 0.01783 0.29478 0.02586 0.0
C176 C 0.02721 0.32407 0.00344 0.0
C177 C 0.99918 0.23922 0.06372 0.0
C178 C 0.98152 0.24622 0.02885 0.0
C179 C 0.99109 0.27364 0.00898 0.0
C180 C 0.95192 0.22705 0.02023 0.0
C181 C 0.98939 0.20972 0.084 0.0
C182 C 0.94074 0.21739 0.95272 0.0
C183 C 0.91434 0.21191 0.9354 0.0
C184 C 0.89959 0.21663 0.98539 0.0
C185 C 0.90945 0.223 0.05483 0.0
C186 C 0.93551 0.22793 0.07242 0.0
H187 H 0.00666 0.20708 0.102 0.0
H188 H 0.9746 0.20375 0.12678 0.0
H189 H 0.97837 0.19537 0.03895 0.0
H190 H 0.95343 0.21698 0.91189 0.0
H191 H 0.9064 0.20616 0.88212 0.0
H192 H 0.77665 0.1196 0.13376 0.0
H193 H 0.76772 0.07235 0.14722 0.0
H194 H 0.78299 0.06903 0.92856 0.0
H195 H 0.79332 0.11692 0.91588 0.0
H196 H 0.72256 0.03581 0.05941 0.0
H197 H 0.81194 0.02173 0.02436 0.0
H198 H 0.81602 0.05422 0.05502 0.0
H199 H 0.80764 0.04405 0.96473 0.0
C200 C 0.77876 0.10891 0.08927 0.0
C201 C 0.78503 0.12115 0.02369 0.0
C202 C 0.77416 0.0823 0.09714 0.0
C203 C 0.77506 0.06757 0.039 0.0
C204 C 0.78299 0.08047 0.97424 0.0
H205 H 0.67105 0.89429 0.95308 0.0
H206 H 0.7125 0.94086 0.94744 0.0
C207 C 0.78836 0.10747 0.96683 0.0
C208 C 0.7607 0.03732 0.04218 0.0
H209 H 0.76774 0.98068 0.03148 0.0
C210 C 0.73247 0.02377 0.05383 0.0
C211 C 0.7738 0.02198 0.03283 0.0
C212 C 0.80407 0.03613 0.01883 0.0
C213 C 0.71682 0.99506 0.05789 0.0
C214 C 0.72999 0.97962 0.0512 0.0
C215 C 0.7581 0.99294 0.03759 0.0
C216 C 0.71389 0.94954 0.05817 0.0
C217 C 0.68627 0.98152 0.06945 0.0
C218 C 0.70235 0.93898 0.12285 0.0
C219 C 0.67818 0.91338 0.12539 0.0
C220 C 0.66616 0.89785 0.06367 0.0
C221 C 0.67985 0.90661 1.00062 0.0
C222 C 0.70367 0.93274 0.99766 0.0
H223 H 0.67861 0.99576 0.05749 0.0
H224 H 0.67429 0.96238 0.03664 0.0
H225 H 0.68215 0.97564 0.12506 0.0
H226 H 0.71019 0.95186 0.16986 0.0
H227 H 0.66828 0.9063 0.17503 0.0
H228 H 0.71653 0.63427 0.91297 0.0
H229 H 0.70338 0.6694 0.92616 0.0
H230 H 0.76143 0.7071 0.09943 0.0
H231 H 0.77458 0.672 0.08669 0.0
H232 H 0.68256 0.67181 0.06692 0.0
H233 H 0.7674 0.77509 0.98255 0.0
H234 H 0.76216 0.74304 0.94491 0.0
H235 H 0.77558 0.75299 0.03265 0.0
C236 C 0.72689 0.65036 0.95291 0.0
C237 C 0.74625 0.65006 0.99941 0.0
C238 C 0.71947 0.67054 0.96023 0.0
C239 C 0.7315 0.69104 0.01356 0.0
C240 C 0.7521 0.69179 0.05736 0.0
H241 H 0.6683 0.79649 0.17013 0.0
H242 H 0.69956 0.77879 0.15041 0.0
C243 C 0.75939 0.67151 0.05035 0.0
C244 C 0.71894 0.70798 0.03079 0.0
H245 H 0.72752 0.77305 0.02506 0.0
C246 C 0.69247 0.69395 0.05779 0.0
C247 C 0.73217 0.73705 0.02082 0.0
C248 C 0.7609 0.75314 0.9935 0.0
C249 C 0.67847 0.70781 0.07314 0.0
C250 C 0.69081 0.73651 0.05927 0.0
C251 C 0.71787 0.75099 0.03492 0.0
C252 C 0.67467 0.75064 0.06577 0.0
C253 C 0.65036 0.69145 0.10411 0.0
C254 C 0.65071 0.74128 0.02392 0.0
C255 C 0.63272 0.75081 0.0362 0.0
C256 C 0.63852 0.77043 0.08958 0.0
C257 C 0.66331 0.7812 0.12895 0.0
C258 C 0.68121 0.77123 0.1174 0.0
H259 H 0.64715 0.67223 0.1293 0.0
H260 H 0.64737 0.70415 0.1435 0.0
H261 H 0.63439 0.68521 0.06192 0.0
H262 H 0.64539 0.72576 0.98311 0.0
H263 H 0.61399 0.74256 0.00432 0.0
H264 H 0.08246 0.78228 0.16613 0.0
H265 H 0.03271 0.76308 0.15602 0.0
H266 H 0.03377 0.74526 0.9375 0.0
H267 H 0.08375 0.76449 0.94728 0.0
H268 H 0.99104 0.76808 0.04831 0.0
H269 H 0.99107 0.66904 0.05626 0.0
H270 H 0.01977 0.70163 0.08877 0.0
H271 H 0.01416 0.69471 0.9964 0.0
C272 C 0.07223 0.77478 0.11545 0.0
C273 C 0.08699 0.77431 0.05773 0.0
C274 C 0.04376 0.76405 0.10971 0.0
C275 C 0.02939 0.75255 0.04613 0.0
C276 C 0.04443 0.75405 0.98712 0.0
H277 H 0.86385 0.62716 0.91979 0.0
H278 H 0.91205 0.66556 0.9262 0.0
C279 C 0.07297 0.76486 0.99279 0.0
C280 C 0.99873 0.73431 0.04456 0.0
H281 H 0.94842 0.66557 0.03628 0.0
C282 C 0.98165 0.74567 0.04572 0.0
C283 C 0.98642 0.70508 0.04297 0.0
C284 C 0.00366 0.69171 0.04658 0.0
C285 C 0.95257 0.72835 0.04245 0.0
C286 C 0.94043 0.69906 0.03784 0.0
C287 C 0.95764 0.68797 0.03867 0.0
C288 C 0.91006 0.67904 0.03074 0.0
C289 C 0.93499 0.74132 0.04219 0.0
C290 C 0.89269 0.6738 0.0872 0.0
C291 C 0.86517 0.6516 0.08376 0.0
C292 C 0.85454 0.6343 0.02384 0.0
C293 C 0.87159 0.64013 0.96663 0.0
C294 C 0.89906 0.66216 0.97017 0.0
H295 H 0.94749 0.76436 0.0391 0.0
H296 H 0.91997 0.73299 0.99733 0.0
H297 H 0.9231 0.73581 0.09073 0.0
H298 H 0.9007 0.68612 0.13497 0.0
H299 H 0.85236 0.64754 0.12847 0.0
H300 H 0.26673 0.90239 0.11081 0.0
H301 H 0.28061 0.9504 0.08487 0.0
H302 H 0.19578 0.92874 0.08426 0.0
H303 H 0.18159 0.8803 0.1096 0.0
H304 H 0.25667 0.96409 0.95764 0.0
H305 H 0.24311 0.00195 0.21465 0.0
H306 H 0.24767 0.97243 0.20892 0.0
H307 H 0.21614 0.96924 0.17765 0.0
C308 C 0.25107 0.90795 0.10684 0.0
C309 C 0.22313 0.88773 0.11263 0.0
C310 C 0.259 0.93529 0.09146 0.0
C311 C 0.23919 0.94298 0.08278 0.0
C312 C 0.21131 0.92313 0.09104 0.0
H313 H 0.30625 0.12205 0.00317 0.0
H314 H 0.27011 0.07302 0.01848 0.0
C315 C 0.2033 0.89558 0.10552 0.0
C316 C 0.24821 0.97164 0.06176 0.0
H317 H 0.26794 0.03568 0.13012 0.0
C318 C 0.25857 0.97969 0.99471 0.0
C319 C 0.25019 0.99173 0.10996 0.0
C320 C 0.23876 0.98364 0.18202 0.0
C321 C 0.27282 0.00774 0.97637 0.0
C322 C 0.27716 0.02817 0.02678 0.0
C323 C 0.26471 0.01992 0.09181 0.0
C324 C 0.29817 0.05775 0.01675 0.0
C325 C 0.28447 0.01544 0.90439 0.0
C326 C 0.32575 0.06524 0.01155 0.0
C327 C 0.34616 0.09284 0.00202 0.0
C328 C 0.33952 0.11374 0.99854 0.0
C329 C 0.3119 0.10634 0.00502 0.0
C330 C 0.2913 0.07845 0.01395 0.0
H331 H 0.27273 0.99802 0.86622 0.0
H332 H 0.28432 0.03405 0.88545 0.0
H333 H 0.3061 0.02034 0.90642 0.0
H334 H 0.33154 0.04965 0.01548 0.0
H335 H 0.36728 0.09785 0.99914 0.0
H336 H 0.19459 0.72081 0.98877 0.0
H337 H 0.19722 0.67853 0.9972 0.0
H338 H 0.17766 0.67276 0.21522 0.0
H339 H 0.17409 0.71436 0.20587 0.0
H340 H 0.2316 0.66847 0.08137 0.0
H341 H 0.12217 0.59562 0.14215 0.0
H342 H 0.13415 0.62992 0.10899 0.0
H343 H 0.13922 0.62534 0.19998 0.0
C344 C 0.18981 0.70976 0.03758 0.0
C345 C 0.18287 0.71984 0.09588 0.0
C346 C 0.1918 0.68599 0.04275 0.0
C347 C 0.18722 0.67223 0.10658 0.0
C348 C 0.1805 0.68255 0.16498 0.0
H349 H 0.17986 0.51921 0.22954 0.0
H350 H 0.18559 0.56571 0.23194 0.0
C351 C 0.17818 0.70608 0.15954 0.0
C352 C 0.18931 0.64702 0.11221 0.0
H353 H 0.15211 0.57827 0.1523 0.0
C354 C 0.21424 0.6487 0.09673 0.0
C355 C 0.16667 0.6213 0.1324 0.0
C356 C 0.13897 0.61777 0.14621 0.0
C357 C 0.21706 0.62526 0.10134 0.0
C358 C 0.1943 0.59956 0.12151 0.0
C359 C 0.1696 0.59807 0.1376 0.0
C360 C 0.19465 0.57333 0.12228 0.0
C361 C 0.24437 0.62822 0.08548 0.0
C362 C 0.19781 0.56224 0.05992 0.0
C363 C 0.19448 0.53579 0.05852 0.0
C364 C 0.18754 0.51976 0.11921 0.0
C365 C 0.18474 0.53096 0.18186 0.0
C366 C 0.18829 0.55758 0.18336 0.0
H367 H 0.2614 0.65031 0.08774 0.0
H368 H 0.24931 0.61616 0.12271 0.0
H369 H 0.24331 0.61997 0.03201 0.0
H370 H 0.20196 0.57364 0.01177 0.0
H371 H 0.19686 0.52768 0.00948 0.0
H372 H 0.48471 0.16146 0.88892 0.0
H373 H 0.52954 0.16457 0.88361 0.0
H374 H 0.55045 0.20007 0.09237 0.0
H375 H 0.50588 0.19609 0.09909 0.0
H376 H 0.58431 0.21153 0.90309 0.0
H377 H 0.55755 0.13174 0.10624 0.0
H378 H 0.53204 0.1371 0.06326 0.0
H379 H 0.55353 0.16 0.13349 0.0
C380 C 0.49885 0.16957 0.9337 0.0
C381 C 0.49187 0.17803 0.9948 0.0
C382 C 0.52437 0.17159 0.9304 0.0
C383 C 0.54283 0.18216 0.98807 0.0
C384 C 0.5361 0.19136 0.04806 0.0
H385 H 0.69762 0.19849 0.10382 0.0
H386 H 0.6581 0.20484 0.09411 0.0
C387 C 0.51065 0.18898 0.05177 0.0
C388 C 0.56879 0.18259 0.98765 0.0
H389 H 0.60417 0.15742 0.07427 0.0
C390 C 0.58871 0.19959 0.93994 0.0
C391 C 0.57421 0.16707 0.03646 0.0
C392 C 0.5531 0.14776 0.08734 0.0
C393 C 0.61439 0.20167 0.94046 0.0
C394 C 0.61971 0.1862 0.98956 0.0
C395 C 0.59982 0.16935 0.03718 0.0
C396 C 0.6452 0.18575 0.99104 0.0
C397 C 0.63573 0.22058 0.8897 0.0
C398 C 0.65039 0.17256 0.93658 0.0
C399 C 0.6726 0.16859 0.94236 0.0
C400 C 0.68961 0.17764 0.00289 0.0
C401 C 0.6844 0.19092 0.05726 0.0
C402 C 0.66224 0.19494 0.05134 0.0
H403 H 0.63045 0.23525 0.86531 0.0
H404 H 0.65629 0.2327 0.91633 0.0
H405 H 0.63716 0.20782 0.84751 0.0
H406 H 0.63689 0.16475 0.89053 0.0
H407 H 0.67653 0.15859 0.89947 0.0
H408 H 0.47306 0.70416 0.20801 0.0
H409 H 0.42513 0.66539 0.20646 0.0
H410 H 0.44073 0.62964 0.0264 0.0
H411 H 0.48851 0.66817 0.02761 0.0
H412 H 0.38227 0.6417 0.08326 0.0
H413 H 0.41701 0.57336 0.19628 0.0
H414 H 0.43749 0.61084 0.20236 0.0
H415 H 0.43601 0.59311 0.12258 0.0
C416 C 0.46623 0.68779 0.16876 0.0
C417 C 0.48432 0.68844 0.11901 0.0
C418 C 0.43894 0.66609 0.16727 0.0
C419 C 0.42987 0.64501 0.11641 0.0
C420 C 0.44773 0.64598 0.06586 0.0
H421 H 0.29274 0.4826 0.02828 0.0
H422 H 0.33531 0.52821 0.02391 0.0
C423 C 0.4749 0.66766 0.0671 0.0
C424 C 0.40258 0.62034 0.11971 0.0
H425 H 0.37135 0.55111 0.14939 0.0
C426 C 0.37963 0.62185 0.09816 0.0
C427 C 0.39968 0.59489 0.14015 0.0
C428 C 0.4238 0.59287 0.1673 0.0
C429 C 0.35351 0.59777 0.09384 0.0
C430 C 0.35095 0.57213 0.11119 0.0
C431 C 0.37382 0.57092 0.1347 0.0
C432 C 0.32457 0.54611 0.10875 0.0
C433 C 0.32902 0.59967 0.06961 0.0
C434 C 0.30531 0.54145 0.159 0.0
C435 C 0.28149 0.51561 0.16231 0.0
C436 C 0.27672 0.49412 0.11546 0.0
C437 C 0.29621 0.49876 0.06546 0.0
C438 C 0.32015 0.52476 0.06221 0.0
H439 H 0.33525 0.62034 0.04763 0.0
H440 H 0.31658 0.5833 0.02949 0.0
H441 H 0.31566 0.5962 0.11453 0.0
H442 H 0.30898 0.55761 0.19649 0.0
H443 H 0.26679 0.51252 0.20162 0.0
H444 H 0.8186 0.48859 0.93012 0.0
H445 H 0.81752 0.44457 0.92148 0.0
H446 H 0.76263 0.41291 0.09404 0.0
H447 H 0.76341 0.45703 0.10246 0.0
H448 H 0.83529 0.42403 0.03118 0.0
H449 H 0.72677 0.3475 0.94987 0.0
H450 H 0.74216 0.38443 0.93698 0.0
H451 H 0.7318 0.37028 0.02233 0.0
C452 C 0.80632 0.47228 0.96632 0.0
C453 C 0.79153 0.47643 0.01788 0.0
C454 C 0.80555 0.44706 0.96095 0.0
C455 C 0.78984 0.42537 0.00668 0.0
C456 C 0.77458 0.42921 0.05751 0.0
H457 H 0.77829 0.26809 0.0832 0.0
H458 H 0.77488 0.30964 0.08523 0.0
C459 C 0.77537 0.45455 0.06297 0.0
C460 C 0.79193 0.40007 0.00518 0.0
H461 H 0.75575 0.32975 0.97608 0.0
C462 C 0.81792 0.40344 0.0187 0.0
C463 C 0.76915 0.3732 0.98966 0.0
C464 C 0.74088 0.36847 0.97337 0.0
C465 C 0.82183 0.38073 0.01753 0.0
C466 C 0.79926 0.35395 1.00087 0.0
C467 C 0.77311 0.35041 0.98802 0.0
C468 C 0.80224 0.32921 0.9997 0.0
C469 C 0.84994 0.38544 0.03613 0.0
C470 C 0.81923 0.32661 0.95161 0.0
C471 C 0.82156 0.30289 0.95092 0.0
C472 C 0.80656 0.28139 0.99764 0.0
C473 C 0.79003 0.28437 0.04637 0.0
C474 C 0.7879 0.308 0.04739 0.0
H475 H 0.86357 0.40611 0.06161 0.0
H476 H 0.84827 0.36909 0.07175 0.0
H477 H 0.85983 0.3844 0.98786 0.0
H478 H 0.83022 0.34266 0.91373 0.0
H479 H 0.83404 0.30084 0.91218 0.0
H480 H 0.33617 0.86206 0.10466 0.0
H481 H 0.37868 0.86054 0.09902 0.0
H482 H 0.3331 0.77323 0.14544 0.0
H483 H 0.29075 0.77479 0.15244 0.0
H484 H 0.40366 0.84233 0.20824 0.0
H485 H 0.37548 0.77815 0.96455 0.0
H486 H 0.35891 0.7971 0.98803 0.0
H487 H 0.35017 0.76535 0.03116 0.0
C488 C 0.33525 0.8426 0.11421 0.0
C489 C 0.31005 0.81864 0.12983 0.0
C490 C 0.35959 0.84171 0.11079 0.0
C491 C 0.35926 0.81672 0.12124 0.0
C492 C 0.33404 0.79275 0.13659 0.0
H493 H 0.4791 0.76411 0.11685 0.0
H494 H 0.43874 0.76847 0.12286 0.0
C495 C 0.30982 0.79373 0.14119 0.0
C496 C 0.38527 0.81586 0.11733 0.0
H497 H 0.41663 0.78816 0.02405 0.0
C498 C 0.40657 0.83067 0.16759 0.0
C499 C 0.38913 0.80039 0.0649 0.0
C500 C 0.36736 0.78445 0.00865 0.0
C501 C 0.43122 0.8301 0.16749 0.0
C502 C 0.43525 0.81494 0.11451 0.0
C503 C 0.41388 0.80006 0.06434 0.0
C504 C 0.46081 0.81309 0.11196 0.0
C505 C 0.45233 0.84482 0.22584 0.0
C506 C 0.48719 0.83676 0.10354 0.0
C507 C 0.51076 0.83437 0.09982 0.0
C508 C 0.50852 0.80822 0.10424 0.0
C509 C 0.48201 0.78469 0.11278 0.0
C510 C 0.45864 0.78709 0.11631 0.0
H511 H 0.44385 0.85071 0.26993 0.0
H512 H 0.46 0.83142 0.24595 0.0
H513 H 0.47011 0.86405 0.20572 0.0
H514 H 0.48954 0.85709 0.09888 0.0
H515 H 0.53066 0.85296 0.09316 0.0
H516 H 0.70583 0.46389 0.0166 0.0
H517 H 0.66191 0.42032 0.01918 0.0
H518 H 0.61929 0.46433 0.98125 0.0
H519 H 0.66366 0.50857 0.97807 0.0
H520 H 0.61875 0.40171 0.1045 0.0
H521 H 0.58313 0.40214 0.83332 0.0
H522 H 0.61846 0.42412 0.8632 0.0
H523 H 0.59353 0.43386 0.88094 0.0
C524 C 0.68724 0.4646 0.00831 0.0
C525 C 0.68867 0.4902 0.99654 0.0
C526 C 0.66192 0.43937 0.01006 0.0
C527 C 0.63693 0.43858 0.99954 0.0
C528 C 0.63814 0.46404 0.9881 0.0
H529 H 0.46147 0.30695 0.011 0.0
H530 H 0.50591 0.35136 0.00919 0.0
C531 C 0.66362 0.48949 0.98658 0.0
C532 C 0.60985 0.41124 0.0019 0.0
H533 H 0.5499 0.36861 0.9082 0.0
C534 C 0.60373 0.39459 0.0615 0.0
C535 C 0.59031 0.40111 0.9453 0.0
C536 C 0.5967 0.416 0.87669 0.0
C537 C 0.57848 0.36908 0.06706 0.0
C538 C 0.55837 0.35972 0.0118 0.0
C539 C 0.56476 0.37599 0.95158 0.0
C540 C 0.5311 0.3327 0.01446 0.0
C541 C 0.57342 0.35244 0.13258 0.0
C542 C 0.53012 0.30721 0.01762 0.0
C543 C 0.50484 0.28194 0.0183 0.0
C544 C 0.47947 0.28108 0.01587 0.0
C545 C 0.48039 0.30663 0.01335 0.0
C546 C 0.50588 0.33207 0.01202 0.0
H547 H 0.58786 0.36512 0.17612 0.0
H548 H 0.55198 0.34381 0.14966 0.0
H549 H 0.57642 0.33475 0.12177 0.0
H550 H 0.54899 0.30678 0.01846 0.0
H551 H 0.5053 0.26289 0.02045 0.0
H552 H 0.17252 0.45142 0.88717 0.0
H553 H 0.1766 0.4511 0.76065 0.0
H554 H 0.20749 0.39541 0.78013 0.0
H555 H 0.20386 0.39608 0.90839 0.0
H556 H 0.2249 0.46569 0.68044 0.0
H557 H 0.13914 0.35623 0.63949 0.0
H558 H 0.14384 0.37553 0.71947 0.0
H559 H 0.16578 0.36204 0.70236 0.0
C560 C 0.18018 0.43907 0.86459 0.0
C561 C 0.18767 0.42357 0.90728 0.0
C562 C 0.18261 0.43903 0.79234 0.0
C563 C 0.19207 0.42306 0.76099 0.0
C564 C 0.19992 0.40772 0.80343 0.0
H565 H 0.21612 0.39024 0.34462 0.0
H566 H 0.21261 0.39486 0.46922 0.0
C567 C 0.19797 0.40817 0.8764 0.0
C568 C 0.19315 0.42246 0.68373 0.0
H569 H 0.16267 0.38063 0.53967 0.0
C570 C 0.21127 0.44713 0.64952 0.0
C571 C 0.17514 0.39829 0.64372 0.0
C572 C 0.15468 0.3715 0.67777 0.0
C573 C 0.2123 0.44807 0.5762 0.0
C574 C 0.19442 0.42385 0.53628 0.0
C575 C 0.17611 0.39927 0.57052 0.0
C576 C 0.19674 0.42242 0.45965 0.0
C577 C 0.23311 0.47459 0.54185 0.0
C578 C 0.18898 0.43655 0.41242 0.0
C579 C 0.19093 0.43391 0.33993 0.0
C580 C 0.20068 0.41714 0.31452 0.0
C581 C 0.20849 0.40331 0.36235 0.0
C582 C 0.20649 0.40587 0.43382 0.0
H583 H 0.24733 0.49075 0.58055 0.0
H584 H 0.24542 0.47035 0.5051 0.0
H585 H 0.22223 0.48297 0.51109 0.0
H586 H 0.18118 0.44929 0.43154 0.0
H587 H 0.18478 0.44476 0.30411 0.0
H588 H 0.83342 0.20675 0.80067 0.0
H589 H 0.8385 0.20783 0.67266 0.0
H590 H 0.75055 0.16894 0.64306 0.0
H591 H 0.74537 0.16724 0.76954 0.0
H592 H 0.80639 0.15693 0.569 0.0
H593 H 0.78932 0.24514 0.53018 0.0
H594 H 0.80175 0.23925 0.61223 0.0
H595 H 0.76597 0.21824 0.5871 0.0
C596 C 0.81531 0.19857 0.76645 0.0
C597 C 0.78904 0.18701 0.79437 0.0
C598 C 0.81818 0.19905 0.69379 0.0
C599 C 0.79485 0.18858 0.64886 0.0
C600 C 0.76873 0.17714 0.67703 0.0
H601 H 0.76531 0.18468 0.19712 0.0
H602 H 0.75811 0.17604 0.32334 0.0
C603 C 0.76582 0.17616 0.74912 0.0
C604 C 0.79731 0.18971 0.57221 0.0
H605 H 0.78862 0.22062 0.4288 0.0
C606 C 0.80272 0.17094 0.53818 0.0
C607 C 0.79219 0.20784 0.53254 0.0
C608 C 0.78716 0.22895 0.56711 0.0
C609 C 0.80287 0.16971 0.4649 0.0
C610 C 0.79764 0.18782 0.42525 0.0
C611 C 0.79216 0.20648 0.45945 0.0
C612 C 0.80077 0.19003 0.34877 0.0
C613 C 0.80833 0.14891 0.43026 0.0
C614 C 0.82703 0.20085 0.32201 0.0
C615 C 0.83119 0.20614 0.25108 0.0
C616 C 0.80916 0.20066 0.20523 0.0
C617 C 0.78263 0.18922 0.23154 0.0
C618 C 0.77851 0.18417 0.30324 0.0
H619 H 0.80553 0.13231 0.4666 0.0
H620 H 0.79448 0.13916 0.38361 0.0
H621 H 0.82987 0.15974 0.41264 0.0
H622 H 0.84453 0.206 0.35643 0.0
H623 H 0.85185 0.21479 0.23225 0.0
H624 H 0.5591 0.81399 0.89489 0.0
H625 H 0.56337 0.82067 0.76776 0.0
H626 H 0.61322 0.7831 0.76289 0.0
H627 H 0.60805 0.77539 0.88859 0.0
H628 H 0.60664 0.8456 0.67191 0.0
H629 H 0.54659 0.73072 0.63927 0.0
H630 H 0.54965 0.74798 0.72156 0.0
H631 H 0.57706 0.74324 0.69357 0.0
C632 C 0.57135 0.80767 0.8666 0.0
C633 C 0.58283 0.79372 0.90074 0.0
C634 C 0.57377 0.81145 0.7942 0.0
C635 C 0.58794 0.80161 0.75577 0.0
C636 C 0.60152 0.79007 0.79128 0.0
H637 H 0.61611 0.78658 0.31966 0.0
H638 H 0.61467 0.7855 0.4481 0.0
C639 C 0.59866 0.7858 0.86299 0.0
C640 C 0.58668 0.80107 0.67836 0.0
H641 H 0.56645 0.75662 0.53743 0.0
C642 C 0.5977 0.82618 0.64242 0.0
C643 C 0.57482 0.77563 0.64004 0.0
C644 C 0.56111 0.74784 0.67549 0.0
C645 C 0.59787 0.82652 0.569 0.0
C646 C 0.58652 0.80108 0.53105 0.0
C647 C 0.57529 0.77604 0.56692 0.0
C648 C 0.58597 0.79995 0.45386 0.0
C649 C 0.61073 0.85403 0.53245 0.0
C650 C 0.56949 0.80734 0.41507 0.0
C651 C 0.57003 0.80756 0.34221 0.0
C652 C 0.58679 0.80008 0.30734 0.0
C653 C 0.60248 0.79166 0.34582 0.0
C654 C 0.60192 0.79139 0.41884 0.0
H655 H 0.6228 0.87189 0.56926 0.0
H656 H 0.62444 0.8548 0.49095 0.0
H657 H 0.59428 0.85643 0.50713 0.0
H658 H 0.55675 0.81358 0.44122 0.0
H659 H 0.55828 0.81472 0.31316 0.0
H660 H 0.82301 0.57484 0.7874 0.0
H661 H 0.82006 0.57613 0.66056 0.0
H662 H 0.74161 0.57061 0.67248 0.0
H663 H 0.74412 0.56874 0.80112 0.0
H664 H 0.76998 0.52949 0.57905 0.0
H665 H 0.79483 0.63791 0.53279 0.0
H666 H 0.80719 0.62871 0.60991 0.0
H667 H 0.77168 0.6186 0.60154 0.0
C668 C 0.80515 0.57413 0.76343 0.0
C669 C 0.7836 0.57136 0.80431 0.0
C670 C 0.80357 0.57491 0.69081 0.0
C671 C 0.78065 0.5734 0.65729 0.0
C672 C 0.75952 0.57184 0.69768 0.0
H673 H 0.72399 0.5562 0.23216 0.0
H674 H 0.73101 0.55887 0.35879 0.0
C675 C 0.76094 0.57075 0.77092 0.0
C676 C 0.77832 0.5715 0.57999 0.0
H677 H 0.78384 0.60848 0.43369 0.0
C678 C 0.77302 0.54673 0.54716 0.0
C679 C 0.7827 0.59419 0.53886 0.0
C680 C 0.78956 0.6215 0.57207 0.0
C681 C 0.77138 0.54387 0.47401 0.0
C682 C 0.7753 0.56639 0.43288 0.0
C683 C 0.78094 0.59129 0.46563 0.0
C684 C 0.77129 0.56367 0.35596 0.0
C685 C 0.76485 0.51665 0.44082 0.0
C686 C 0.79158 0.56512 0.31246 0.0
C687 C 0.7877 0.56376 0.23951 0.0
C688 C 0.76342 0.56079 0.2095 0.0
C689 C 0.74292 0.55851 0.2536 0.0
C690 C 0.74691 0.56012 0.326 0.0
H691 H 0.76083 0.5006 0.48024 0.0
H692 H 0.74651 0.50871 0.40511 0.0
H693 H 0.78237 0.52 0.409 0.0
H694 H 0.81055 0.56782 0.33488 0.0
H695 H 0.80385 0.56561 0.20674 0.0
H696 H 0.23219 0.80932 0.3077 0.0
H697 H 0.23876 0.81392 0.43666 0.0
H698 H 0.16127 0.81017 0.4536 0.0
H699 H 0.15461 0.80557 0.32782 0.0
H700 H 0.23437 0.85456 0.53918 0.0
H701 H 0.15425 0.74319 0.56913 0.0
H702 H 0.17231 0.75664 0.4889 0.0
H703 H 0.14512 0.76251 0.51127 0.0
C704 C 0.21685 0.80981 0.33924 0.0
C705 C 0.19271 0.8066 0.30783 0.0
C706 C 0.22053 0.81238 0.41259 0.0
C707 C 0.20014 0.81179 0.4545 0.0
C708 C 0.17696 0.81015 0.42245 0.0
H709 H 0.1682 0.80783 0.9036 0.0
H710 H 0.1635 0.80755 0.77471 0.0
C711 C 0.17326 0.8075 0.35029 0.0
C712 C 0.2018 0.81168 0.53191 0.0
H713 H 0.16912 0.77139 0.67197 0.0
C714 C 0.22039 0.83632 0.56832 0.0
C715 C 0.18295 0.78804 0.56965 0.0
C716 C 0.16261 0.76099 0.53296 0.0
C717 C 0.22059 0.8379 0.64169 0.0
C718 C 0.20201 0.81411 0.67942 0.0
C719 C 0.18321 0.78961 0.64292 0.0
C720 C 0.20377 0.81353 0.75677 0.0
C721 C 0.24033 0.86514 0.67846 0.0
C722 C 0.22744 0.81612 0.78877 0.0
C723 C 0.23006 0.81625 0.86123 0.0
C724 C 0.20891 0.81342 0.90358 0.0
C725 C 0.18464 0.80977 0.87191 0.0
C726 C 0.18207 0.80982 0.79863 0.0
H727 H 0.24843 0.88289 0.64219 0.0
H728 H 0.23017 0.86913 0.72204 0.0
H729 H 0.25805 0.86418 0.70085 0.0
H730 H 0.24408 0.81826 0.75752 0.0
H731 H 0.24889 0.81884 0.88431 0.0
H732 H 0.40115 0.16397 0.81166 0.0
H733 H 0.4012 0.15609 0.68445 0.0
H734 H 0.39199 0.2265 0.6448 0.0
H735 H 0.39155 0.2341 0.77001 0.0
H736 H 0.35758 0.14852 0.5774 0.0
H737 H 0.46036 0.24103 0.53284 0.0
H738 H 0.45007 0.22541 0.6175 0.0
H739 H 0.43873 0.24804 0.5854 0.0
C740 C 0.39956 0.17791 0.77548 0.0
C741 C 0.39667 0.19986 0.8004 0.0
C742 C 0.39937 0.17329 0.70309 0.0
C743 C 0.39688 0.19093 0.65529 0.0
C744 C 0.39423 0.21285 0.68066 0.0
H745 H 0.39778 0.22082 0.21083 0.0
H746 H 0.39321 0.22081 0.33842 0.0
C747 C 0.39398 0.21716 0.75225 0.0
C748 C 0.39667 0.18691 0.57854 0.0
H749 H 0.43061 0.22094 0.43266 0.0
C750 C 0.37369 0.16409 0.54559 0.0
C751 C 0.41759 0.20738 0.53725 0.0
C752 C 0.44322 0.23174 0.56993 0.0
C753 C 0.37065 0.16178 0.4722 0.0
C754 C 0.39134 0.1827 0.4309 0.0
C755 C 0.41454 0.20515 0.46415 0.0
C756 C 0.39032 0.18114 0.35317 0.0
C757 C 0.34489 0.1375 0.43965 0.0
C758 C 0.38981 0.15876 0.31902 0.0
C759 C 0.3922 0.15866 0.24667 0.0
C760 C 0.39566 0.1812 0.20669 0.0
C761 C 0.3953 0.20327 0.24035 0.0
C762 C 0.39269 0.20325 0.31311 0.0
H763 H 0.32791 0.12805 0.47718 0.0
H764 H 0.33781 0.14394 0.39272 0.0
H765 H 0.3493 0.12123 0.42334 0.0
H766 H 0.38872 0.14182 0.3486 0.0
H767 H 0.39239 0.14131 0.2224 0.0
loop_
_geom_bond_atom_site_label_1
_geom_bond_atom_site_label_2
_geom_bond_distance
_geom_bond_site_symmetry_2
_ccdc_geom_bond_type
Dy0 O4 2.398 . S
Dy0 O5 2.491 . S
Dy0 O6 2.403 1_554 S
Dy0 O7 2.664 . S
Dy0 O11 2.326 . S
Dy0 O15 2.310 . S
Dy0 O16 2.351 . S
C1 O12 1.185 . S
C1 O13 1.355 . S
C2 O4 1.185 . S
C2 O5 1.355 . S
Dy3 O7 2.310 . S
Dy3 O10 2.351 . S
Dy3 O12 2.398 . S
Dy3 O13 2.491 . S
Dy3 O14 2.403 . S
Dy3 O15 2.664 . S
Dy3 O17 2.326 . S
O4 Dy0 2.398 . S
O4 C2 1.185 . S
O5 Dy0 2.491 . S
O5 C2 1.355 . S
O6 Dy0 2.403 1_556 S
O6 C8 1.254 . S
O7 Dy0 2.664 . S
O7 Dy3 2.310 . S
O7 C8 1.268 1_554 S
C8 O6 1.254 . S
C8 O7 1.268 1_556 S
C9 O14 1.254 . S
C9 O15 1.268 . S
O10 Dy3 2.351 . S
O10 C18 1.249 . S
O11 Dy0 2.326 . S
O11 C18 1.267 . S
O12 C1 1.185 . S
O12 Dy3 2.398 . S
O13 C1 1.355 . S
O13 Dy3 2.491 . S
O14 Dy3 2.403 . S
O14 C9 1.254 . S
O15 Dy0 2.310 . S
O15 Dy3 2.664 . S
O15 C9 1.268 . S
O16 Dy0 2.351 . S
O16 C19 1.249 . S
O17 Dy3 2.326 . S
O17 C19 1.267 . S
C18 O10 1.249 . S
C18 O11 1.267 . S
C19 O16 1.249 . S
C19 O17 1.267 . S
Dy20 O24 2.398 . S
Dy20 O25 2.491 1_556 S
Dy20 O26 2.403 . S
Dy20 O27 2.664 . S
Dy20 O31 2.326 . S
Dy20 O35 2.310 1_556 S
Dy20 O36 2.351 . S
C21 O32 1.185 . S
C21 O33 1.355 1_554 S
C22 O24 1.185 . S
C22 O25 1.355 1_556 S
Dy23 O27 2.310 1_554 S
Dy23 O30 2.351 . S
Dy23 O32 2.398 . S
Dy23 O33 2.491 1_554 S
Dy23 O34 2.403 . S
Dy23 O35 2.664 . S
Dy23 O37 2.326 . S
O24 Dy20 2.398 . S
O24 C22 1.185 . S
O25 Dy20 2.491 1_554 S
O25 C22 1.355 1_554 S
O26 Dy20 2.403 . S
O26 C28 1.254 . S
O27 Dy20 2.664 . S
O27 Dy23 2.310 1_556 S
O27 C28 1.268 . S
C28 O26 1.254 . S
C28 O27 1.268 . S
C29 O34 1.254 . S
C29 O35 1.268 . S
O30 Dy23 2.351 . S
O30 C38 1.249 1_554 S
O31 Dy20 2.326 . S
O31 C38 1.267 . S
O32 C21 1.185 . S
O32 Dy23 2.398 . S
O33 C21 1.355 1_556 S
O33 Dy23 2.491 1_556 S
O34 Dy23 2.403 . S
O34 C29 1.254 . S
O35 Dy20 2.310 1_554 S
O35 Dy23 2.664 . S
O35 C29 1.268 . S
O36 Dy20 2.351 . S
O36 C39 1.249 1_556 S
O37 Dy23 2.326 . S
O37 C39 1.267 . S
C38 O30 1.249 1_556 S
C38 O31 1.267 . S
C39 O36 1.249 1_554 S
C39 O37 1.267 . S
Dy40 O44 2.398 . S
Dy40 O45 2.491 . S
Dy40 O46 2.403 1_554 S
Dy40 O47 2.664 . S
Dy40 O51 2.326 . S
Dy40 O55 2.310 . S
Dy40 O56 2.351 . S
C41 O52 1.185 . S
C41 O53 1.355 . S
C42 O44 1.185 . S
C42 O45 1.355 . S
Dy43 O47 2.310 . S
Dy43 O50 2.351 . S
Dy43 O52 2.398 . S
Dy43 O53 2.491 . S
Dy43 O54 2.403 . S
Dy43 O55 2.664 . S
Dy43 O57 2.326 . S
O44 Dy40 2.398 . S
O44 C42 1.185 . S
O45 Dy40 2.491 . S
O45 C42 1.355 . S
O46 Dy40 2.403 1_556 S
O46 C48 1.254 . S
O47 Dy40 2.664 . S
O47 Dy43 2.310 . S
O47 C48 1.268 1_554 S
C48 O46 1.254 . S
C48 O47 1.268 1_556 S
C49 O54 1.254 . S
C49 O55 1.268 . S
O50 Dy43 2.351 . S
O50 C58 1.249 . S
O51 Dy40 2.326 . S
O51 C58 1.267 . S
O52 C41 1.185 . S
O52 Dy43 2.398 . S
O53 C41 1.355 . S
O53 Dy43 2.491 . S
O54 Dy43 2.403 . S
O54 C49 1.254 . S
O55 Dy40 2.310 . S
O55 Dy43 2.664 . S
O55 C49 1.268 . S
O56 Dy40 2.351 . S
O56 C59 1.249 . S
O57 Dy43 2.326 . S
O57 C59 1.267 . S
C58 O50 1.249 . S
C58 O51 1.267 . S
C59 O56 1.249 . S
C59 O57 1.267 . S
Dy60 O64 2.398 . S
Dy60 O65 2.491 1_556 S
Dy60 O66 2.403 . S
Dy60 O67 2.664 . S
Dy60 O71 2.326 . S
Dy60 O75 2.310 1_556 S
Dy60 O76 2.351 1_556 S
C61 O72 1.185 . S
C61 O73 1.355 1_554 S
C62 O64 1.185 1_554 S
C62 O65 1.355 . S
Dy63 O67 2.310 1_554 S
Dy63 O70 2.351 . S
Dy63 O72 2.398 . S
Dy63 O73 2.491 1_554 S
Dy63 O74 2.403 . S
Dy63 O75 2.664 . S
Dy63 O77 2.326 . S
O64 Dy60 2.398 . S
O64 C62 1.185 1_556 S
O65 Dy60 2.491 1_554 S
O65 C62 1.355 . S
O66 Dy60 2.403 . S
O66 C68 1.254 . S
O67 Dy60 2.664 . S
O67 Dy63 2.310 1_556 S
O67 C68 1.268 . S
C68 O66 1.254 . S
C68 O67 1.268 . S
C69 O74 1.254 . S
C69 O75 1.268 . S
O70 Dy63 2.351 . S
O70 C78 1.249 1_554 S
O71 Dy60 2.326 . S
O71 C78 1.267 . S
O72 C61 1.185 . S
O72 Dy63 2.398 . S
O73 C61 1.355 1_556 S
O73 Dy63 2.491 1_556 S
O74 Dy63 2.403 . S
O74 C69 1.254 . S
O75 Dy60 2.310 1_554 S
O75 Dy63 2.664 . S
O75 C69 1.268 . S
O76 Dy60 2.351 1_554 S
O76 C79 1.249 . S
O77 Dy63 2.326 . S
O77 C79 1.267 . S
C78 O70 1.249 1_556 S
C78 O71 1.267 . S
C79 O76 1.249 . S
C79 O77 1.267 . S
Dy80 O84 2.398 . S
Dy80 O85 2.491 . S
Dy80 O86 2.403 1_554 S
Dy80 O87 2.664 . S
Dy80 O91 2.326 . S
Dy80 O95 2.310 . S
Dy80 O96 2.351 . S
C81 O92 1.185 . S
C81 O93 1.355 . S
C82 O84 1.185 . S
C82 O85 1.355 . S
Dy83 O87 2.310 . S
Dy83 O90 2.351 . S
Dy83 O92 2.398 . S
Dy83 O93 2.491 . S
Dy83 O94 2.403 . S
Dy83 O95 2.664 . S
Dy83 O97 2.326 . S
O84 Dy80 2.398 . S
O84 C82 1.185 . S
O85 Dy80 2.491 . S
O85 C82 1.355 . S
O86 Dy80 2.403 1_556 S
O86 C88 1.254 . S
O87 Dy80 2.664 . S
O87 Dy83 2.310 . S
O87 C88 1.268 1_554 S
C88 O86 1.254 . S
C88 O87 1.268 1_556 S
C89 O94 1.254 . S
C89 O95 1.268 . S
O90 Dy83 2.351 . S
O90 C98 1.249 . S
O91 Dy80 2.326 . S
O91 C98 1.267 . S
O92 C81 1.185 . S
O92 Dy83 2.398 . S
O93 C81 1.355 . S
O93 Dy83 2.491 . S
O94 Dy83 2.403 . S
O94 C89 1.254 . S
O95 Dy80 2.310 . S
O95 Dy83 2.664 . S
O95 C89 1.268 . S
O96 Dy80 2.351 . S
O96 C99 1.249 . S
O97 Dy83 2.326 . S
O97 C99 1.267 . S
C98 O90 1.249 . S
C98 O91 1.267 . S
C99 O96 1.249 . S
C99 O97 1.267 . S
Dy100 O104 2.398 . S
Dy100 O105 2.491 1_554 S
Dy100 O106 2.403 . S
Dy100 O107 2.664 . S
Dy100 O111 2.326 . S
Dy100 O115 2.310 1_554 S
Dy100 O116 2.351 . S
C101 O112 1.185 1_554 S
C101 O113 1.355 . S
C102 O104 1.185 1_556 S
C102 O105 1.355 . S
Dy103 O107 2.300 1_556 S
Dy103 O110 2.352 1_556 S
Dy103 O112 2.401 . S
Dy103 O113 2.483 1_556 S
Dy103 O114 2.417 . S
Dy103 O115 2.671 . S
Dy103 O117 2.328 . S
O104 Dy100 2.398 . S
O104 C102 1.185 1_554 S
O105 Dy100 2.491 1_556 S
O105 C102 1.355 . S
O106 Dy100 2.403 . S
O106 C108 1.254 . S
O107 Dy100 2.664 . S
O107 Dy103 2.300 1_554 S
O107 C108 1.268 . S
C108 O106 1.254 . S
C108 O107 1.268 . S
C109 O114 1.254 . S
C109 O115 1.268 . S
O110 Dy103 2.352 1_554 S
O110 C118 1.251 . S
O111 Dy100 2.326 . S
O111 C118 1.267 . S
O112 C101 1.185 1_556 S
O112 Dy103 2.401 . S
O113 C101 1.355 . S
O113 Dy103 2.483 1_554 S
O114 Dy103 2.417 . S
O114 C109 1.254 . S
O115 Dy100 2.310 1_556 S
O115 Dy103 2.671 . S
O115 C109 1.268 . S
O116 Dy100 2.351 . S
O116 C119 1.249 . S
O117 Dy103 2.328 . S
O117 C119 1.267 1_556 S
C118 O110 1.251 . S
C118 O111 1.267 . S
C119 O116 1.249 . S
C119 O117 1.267 1_554 S
H120 C128 0.929 1_556 S
H121 C130 0.930 . S
H122 C132 0.930 . S
H123 C135 0.929 . S
H124 C138 0.930 . S
H125 C140 0.960 . S
H126 C140 0.960 . S
H127 C140 0.960 . S
C128 H120 0.929 1_554 S
C128 C129 1.377 . S
C128 C130 1.384 . S
C129 C128 1.377 . S
C129 C135 1.390 . S
C130 H121 0.930 . S
C130 C128 1.384 . S
C130 C131 1.372 . S
C131 C130 1.372 . S
C131 C132 1.400 . S
C131 C136 1.490 . S
C132 H122 0.930 . S
C132 C131 1.400 . S
C132 C135 1.386 . S
H133 C149 0.930 . S
H134 C150 0.931 . S
C135 H123 0.929 . S
C135 C129 1.390 . S
C135 C132 1.386 . S
C136 C131 1.490 . S
C136 C138 1.395 . S
C136 C139 1.403 . S
H137 C143 0.930 . S
C138 H124 0.930 . S
C138 C136 1.395 . S
C138 C141 1.403 . S
C139 C136 1.403 . S
C139 C140 1.524 1_554 S
C139 C143 1.400 . S
C140 H125 0.960 . S
C140 H126 0.960 . S
C140 H127 0.960 . S
C140 C139 1.524 1_556 S
C141 C138 1.403 . S
C141 C142 1.392 . S
C141 C145 1.495 . S
C142 C141 1.392 . S
C142 C143 1.385 . S
C142 C144 1.478 . S
C143 H137 0.930 . S
C143 C139 1.400 . S
C143 C142 1.385 . S
C144 C142 1.478 . S
C144 C146 1.381 . S
C144 C150 1.383 . S
C145 C141 1.495 . S
C145 H151 0.959 . S
C145 H152 0.961 . S
C145 H153 0.960 . S
C146 C144 1.381 . S
C146 C147 1.394 . S
C146 H154 0.930 . S
C147 C146 1.394 . S
C147 C148 1.383 . S
C147 H155 0.929 . S
C148 C147 1.383 . S
C148 C149 1.377 . S
C149 H133 0.930 . S
C149 C148 1.377 . S
C149 C150 1.379 . S
C150 H134 0.931 . S
C150 C144 1.383 . S
C150 C149 1.379 . S
H151 C145 0.959 . S
H152 C145 0.961 . S
H153 C145 0.960 . S
H154 C146 0.930 . S
H155 C147 0.929 . S
H156 C164 0.929 . S
H157 C166 0.932 . S
H158 C168 0.930 . S
H159 C171 0.929 . S
H160 C174 0.930 . S
H161 C176 0.960 1_556 S
H162 C176 0.960 1_556 S
H163 C176 0.960 . S
C164 H156 0.929 . S
C164 C165 1.377 . S
C164 C166 1.384 . S
C165 C164 1.377 . S
C165 C171 1.390 . S
C166 H157 0.932 . S
C166 C164 1.384 . S
C166 C167 1.372 . S
C167 C166 1.372 . S
C167 C168 1.400 . S
C167 C172 1.490 . S
C168 H158 0.930 . S
C168 C167 1.400 . S
C168 C171 1.386 . S
H169 C185 0.930 . S
H170 C186 0.931 . S
C171 H159 0.929 . S
C171 C165 1.390 . S
C171 C168 1.386 . S
C172 C167 1.490 . S
C172 C174 1.395 . S
C172 C175 1.403 . S
H173 C179 0.930 . S
C174 H160 0.930 . S
C174 C172 1.395 . S
C174 C177 1.403 1_455 S
C175 C172 1.403 . S
C175 C176 1.524 . S
C175 C179 1.400 1_455 S
C176 H161 0.960 1_554 S
C176 H162 0.960 1_554 S
C176 H163 0.960 . S
C176 C175 1.524 . S
C177 C174 1.403 1_655 S
C177 C178 1.392 . S
C177 C181 1.495 . S
C178 C177 1.392 . S
C178 C179 1.385 . S
C178 C180 1.478 . S
C179 H173 0.930 . S
C179 C175 1.400 1_655 S
C179 C178 1.385 . S
C180 C178 1.478 . S
C180 C182 1.381 1_554 S
C180 C186 1.383 . S
C181 C177 1.495 . S
C181 H187 0.959 1_655 S
C181 H188 0.961 . S
C181 H189 0.960 . S
C182 C180 1.381 1_556 S
C182 C183 1.394 . S
C182 H190 0.930 . S
C183 C182 1.394 . S
C183 C184 1.383 1_556 S
C183 H191 0.929 . S
C184 C183 1.383 1_554 S
C184 C185 1.377 . S
C185 H169 0.930 . S
C185 C184 1.377 . S
C185 C186 1.379 . S
C186 H170 0.931 . S
C186 C180 1.383 . S
C186 C185 1.379 . S
H187 C181 0.959 1_455 S
H188 C181 0.961 . S
H189 C181 0.960 . S
H190 C182 0.930 . S
H191 C183 0.929 . S
H192 C200 0.929 . S
H193 C202 0.930 . S
H194 C204 0.930 . S
H195 C207 0.929 . S
H196 C210 0.930 . S
H197 C212 0.960 . S
H198 C212 0.960 . S
H199 C212 0.960 1_556 S
C200 H192 0.929 . S
C200 C201 1.377 . S
C200 C202 1.384 . S
C201 C200 1.377 . S
C201 C207 1.390 1_554 S
C202 H193 0.930 . S
C202 C200 1.384 . S
C202 C203 1.372 . S
C203 C202 1.372 . S
C203 C204 1.400 1_554 S
C203 C208 1.490 . S
C204 H194 0.930 . S
C204 C203 1.400 1_556 S
C204 C207 1.386 . S
H205 C221 0.930 1_556 S
H206 C222 0.931 1_556 S
C207 H195 0.929 . S
C207 C201 1.390 1_556 S
C207 C204 1.386 . S
C208 C203 1.490 . S
C208 C210 1.395 . S
C208 C211 1.403 . S
H209 C215 0.930 . S
C210 H196 0.930 . S
C210 C208 1.395 . S
C210 C213 1.374 1_545 S
C211 C208 1.403 . S
C211 C212 1.524 . S
C211 C215 1.400 1_545 S
C212 H197 0.960 . S
C212 H198 0.960 . S
C212 H199 0.960 1_554 S
C212 C211 1.524 . S
C213 C210 1.374 1_565 S
C213 C214 1.425 . S
C213 C217 1.492 . S
C214 C213 1.425 . S
C214 C215 1.385 . S
C214 C216 1.478 . S
C215 H209 0.930 . S
C215 C211 1.400 1_565 S
C215 C214 1.385 . S
C216 C214 1.478 . S
C216 C218 1.381 . S
C216 C222 1.383 . S
C217 C213 1.492 . S
C217 H223 0.936 1_565 S
C217 H224 0.961 . S
C217 H225 0.960 . S
C218 C216 1.381 . S
C218 C219 1.394 . S
C218 H226 0.930 . S
C219 C218 1.394 . S
C219 C220 1.383 . S
C219 H227 0.929 . S
C220 C219 1.383 . S
C220 C221 1.377 . S
C221 H205 0.930 1_554 S
C221 C220 1.377 . S
C221 C222 1.379 . S
C222 H206 0.931 1_554 S
C222 C216 1.383 . S
C222 C221 1.379 . S
H223 C217 0.936 1_545 S
H224 C217 0.961 . S
H225 C217 0.960 . S
H226 C218 0.930 . S
H227 C219 0.929 . S
H228 C236 0.929 . S
H229 C238 0.930 . S
H230 C240 0.930 . S
H231 C243 0.929 . S
H232 C246 0.930 . S
H233 C248 0.960 . S
H234 C248 0.960 . S
H235 C248 0.960 1_554 S
C236 H228 0.929 . S
C236 C237 1.377 1_556 S
C236 C238 1.384 . S
C237 C236 1.377 1_554 S
C237 C243 1.390 . S
C238 H229 0.930 . S
C238 C236 1.384 . S
C238 C239 1.372 1_556 S
C239 C238 1.372 1_554 S
C239 C240 1.400 . S
C239 C244 1.490 . S
C240 H230 0.930 . S
C240 C239 1.400 . S
C240 C243 1.386 . S
H241 C257 0.930 . S
H242 C258 0.931 . S
C243 H231 0.929 . S
C243 C237 1.390 . S
C243 C240 1.386 . S
C244 C239 1.490 . S
C244 C246 1.395 . S
C244 C247 1.403 . S
H245 C251 0.930 . S
C246 H232 0.930 . S
C246 C244 1.395 . S
C246 C249 1.403 . S
C247 C244 1.403 . S
C247 C248 1.524 1_554 S
C247 C251 1.400 . S
C248 H233 0.960 . S
C248 H234 0.960 . S
C248 H235 0.960 1_556 S
C248 C247 1.524 1_556 S
C249 C246 1.403 . S
C249 C250 1.392 . S
C249 C253 1.495 . S
C250 C249 1.392 . S
C250 C251 1.385 . S
C250 C252 1.478 . S
C251 H245 0.930 . S
C251 C247 1.400 . S
C251 C250 1.385 . S
C252 C250 1.478 . S
C252 C254 1.381 . S
C252 C258 1.383 . S
C253 C249 1.495 . S
C253 H259 0.959 . S
C253 H260 0.961 . S
C253 H261 0.960 . S
C254 C252 1.381 . S
C254 C255 1.394 . S
C254 H262 0.930 1_554 S
C255 C254 1.394 . S
C255 C256 1.383 . S
C255 H263 0.929 . S
C256 C255 1.383 . S
C256 C257 1.377 . S
C257 H241 0.930 . S
C257 C256 1.377 . S
C257 C258 1.379 . S
C258 H242 0.931 . S
C258 C252 1.383 . S
C258 C257 1.379 . S
H259 C253 0.959 . S
H260 C253 0.961 . S
H261 C253 0.960 . S
H262 C254 0.930 1_556 S
H263 C255 0.929 . S
H264 C272 0.929 . S
H265 C274 0.930 . S
H266 C276 0.930 1_556 S
H267 C279 0.929 1_556 S
H268 C282 0.930 . S
H269 C284 0.959 1_655 S
H270 C284 0.963 . S
H271 C284 0.964 . S
C272 H264 0.929 . S
C272 C273 1.377 . S
C272 C274 1.384 . S
C273 C272 1.377 . S
C273 C279 1.390 . S
C274 H265 0.930 . S
C274 C272 1.384 . S
C274 C275 1.372 . S
C275 C274 1.372 . S
C275 C276 1.400 . S
C275 C280 1.490 1_455 S
C276 H266 0.930 1_554 S
C276 C275 1.400 . S
C276 C279 1.386 . S
H277 C293 0.930 . S
H278 C294 0.931 . S
C279 H267 0.929 1_554 S
C279 C273 1.390 . S
C279 C276 1.386 . S
C280 C275 1.490 1_655 S
C280 C282 1.395 . S
C280 C283 1.403 . S
H281 C287 0.930 . S
C282 H268 0.930 . S
C282 C280 1.395 . S
C282 C285 1.403 . S
C283 C280 1.403 . S
C283 C284 1.518 1_655 S
C283 C287 1.400 . S
C284 H269 0.959 1_455 S
C284 H270 0.963 . S
C284 H271 0.964 . S
C284 C283 1.518 1_455 S
C285 C282 1.403 . S
C285 C286 1.392 . S
C285 C289 1.495 . S
C286 C285 1.392 . S
C286 C287 1.385 . S
C286 C288 1.478 . S
C287 H281 0.930 . S
C287 C283 1.400 . S
C287 C286 1.385 . S
C288 C286 1.478 . S
C288 C290 1.381 . S
C288 C294 1.383 1_554 S
C289 C285 1.495 . S
C289 H295 0.959 . S
C289 H296 0.961 . S
C289 H297 0.960 . S
C290 C288 1.381 . S
C290 C291 1.394 . S
C290 H298 0.930 . S
C291 C290 1.394 . S
C291 C292 1.383 . S
C291 H299 0.929 . S
C292 C291 1.383 . S
C292 C293 1.377 1_554 S
C293 H277 0.930 . S
C293 C292 1.377 1_556 S
C293 C294 1.379 . S
C294 H278 0.931 . S
C294 C288 1.383 1_556 S
C294 C293 1.379 . S
H295 C289 0.959 . S
H296 C289 0.961 . S
H297 C289 0.960 . S
H298 C290 0.930 . S
H299 C291 0.929 . S
H300 C308 0.929 . S
H301 C310 0.930 . S
H302 C312 0.930 . S
H303 C315 0.929 . S
H304 C318 0.930 . S
H305 C320 0.960 . S
H306 C320 0.960 . S
H307 C320 0.960 . S
C308 H300 0.929 . S
C308 C309 1.377 . S
C308 C310 1.384 . S
C309 C308 1.377 . S
C309 C315 1.390 . S
C310 H301 0.930 . S
C310 C308 1.384 . S
C310 C311 1.372 . S
C311 C310 1.372 . S
C311 C312 1.400 . S
C311 C316 1.490 . S
C312 H302 0.930 . S
C312 C311 1.400 . S
C312 C315 1.386 . S
H313 C329 0.930 . S
H314 C330 0.931 . S
C315 H303 0.929 . S
C315 C309 1.390 . S
C315 C312 1.386 . S
C316 C311 1.490 . S
C316 C318 1.395 1_554 S
C316 C319 1.403 . S
H317 C323 0.930 . S
C318 H304 0.930 . S
C318 C316 1.395 1_556 S
C318 C321 1.403 1_565 S
C319 C316 1.403 . S
C319 C320 1.524 . S
C319 C323 1.400 1_565 S
C320 H305 0.960 . S
C320 H306 0.960 . S
C320 H307 0.960 . S
C320 C319 1.524 . S
C321 C318 1.403 1_545 S
C321 C322 1.392 1_556 S
C321 C325 1.495 . S
C322 C321 1.392 1_554 S
C322 C323 1.385 . S
C322 C324 1.478 . S
C323 H317 0.930 . S
C323 C319 1.400 1_545 S
C323 C322 1.385 . S
C324 C322 1.478 . S
C324 C326 1.381 . S
C324 C330 1.383 . S
C325 C321 1.495 . S
C325 H331 0.959 . S
C325 H332 0.961 . S
C325 H333 0.960 . S
C326 C324 1.381 . S
C326 C327 1.394 . S
C326 H334 0.930 . S
C327 C326 1.394 . S
C327 C328 1.383 . S
C327 H335 0.929 . S
C328 C327 1.383 . S
C328 C329 1.377 . S
C329 H313 0.930 . S
C329 C328 1.377 . S
C329 C330 1.379 . S
C330 H314 0.931 . S
C330 C324 1.383 . S
C330 C329 1.379 . S
H331 C325 0.959 . S
H332 C325 0.961 . S
H333 C325 0.960 . S
H334 C326 0.930 . S
H335 C327 0.929 . S
H336 C344 0.929 . S
H337 C346 0.930 . S
H338 C348 0.930 . S
H339 C351 0.929 . S
H340 C354 0.930 . S
H341 C356 0.960 . S
H342 C356 0.960 . S
H343 C356 0.960 . S
C344 H336 0.929 . S
C344 C345 1.377 . S
C344 C346 1.384 . S
C345 C344 1.377 . S
C345 C351 1.390 . S
C346 H337 0.930 . S
C346 C344 1.384 . S
C346 C347 1.372 . S
C347 C346 1.372 . S
C347 C348 1.400 . S
C347 C352 1.490 . S
C348 H338 0.930 . S
C348 C347 1.400 . S
C348 C351 1.386 . S
H349 C365 0.930 . S
H350 C366 0.931 . S
C351 H339 0.929 . S
C351 C345 1.390 . S
C351 C348 1.386 . S
C352 C347 1.490 . S
C352 C354 1.395 . S
C352 C355 1.403 . S
H353 C359 0.930 . S
C354 H340 0.930 . S
C354 C352 1.395 . S
C354 C357 1.403 . S
C355 C352 1.403 . S
C355 C356 1.524 . S
C355 C359 1.400 . S
C356 H341 0.960 . S
C356 H342 0.960 . S
C356 H343 0.960 . S
C356 C355 1.524 . S
C357 C354 1.403 . S
C357 C358 1.392 . S
C357 C361 1.495 . S
C358 C357 1.392 . S
C358 C359 1.385 . S
C358 C360 1.478 . S
C359 H353 0.930 . S
C359 C355 1.400 . S
C359 C358 1.385 . S
C360 C358 1.478 . S
C360 C362 1.381 . S
C360 C366 1.383 . S
C361 C357 1.495 . S
C361 H367 0.959 . S
C361 H368 0.961 . S
C361 H369 0.960 . S
C362 C360 1.381 . S
C362 C363 1.394 . S
C362 H370 0.930 . S
C363 C362 1.394 . S
C363 C364 1.383 . S
C363 H371 0.929 . S
C364 C363 1.383 . S
C364 C365 1.377 . S
C365 H349 0.930 . S
C365 C364 1.377 . S
C365 C366 1.379 . S
C366 H350 0.931 . S
C366 C360 1.383 . S
C366 C365 1.379 . S
H367 C361 0.959 . S
H368 C361 0.961 . S
H369 C361 0.960 . S
H370 C362 0.930 . S
H371 C363 0.929 . S
H372 C380 0.929 . S
H373 C382 0.930 . S
H374 C384 0.930 . S
H375 C387 0.929 . S
H376 C390 0.930 . S
H377 C392 0.960 . S
H378 C392 0.960 . S
H379 C392 0.960 . S
C380 H372 0.929 . S
C380 C381 1.377 . S
C380 C382 1.384 . S
C381 C380 1.377 . S
C381 C387 1.390 1_556 S
C382 H373 0.930 . S
C382 C380 1.384 . S
C382 C383 1.372 . S
C383 C382 1.372 . S
C383 C384 1.400 1_556 S
C383 C388 1.490 . S
C384 H374 0.930 . S
C384 C383 1.400 1_554 S
C384 C387 1.386 . S
H385 C401 0.930 . S
H386 C402 0.931 . S
C387 H375 0.929 . S
C387 C381 1.390 1_554 S
C387 C384 1.386 . S
C388 C383 1.490 . S
C388 C390 1.395 . S
C388 C391 1.403 1_556 S
H389 C395 0.930 . S
C390 H376 0.930 . S
C390 C388 1.395 . S
C390 C393 1.403 . S
C391 C388 1.403 1_554 S
C391 C392 1.524 . S
C391 C395 1.400 . S
C392 H377 0.960 . S
C392 H378 0.960 . S
C392 H379 0.960 . S
C392 C391 1.524 . S
C393 C390 1.403 . S
C393 C394 1.392 . S
C393 C397 1.495 . S
C394 C393 1.392 . S
C394 C395 1.385 1_556 S
C394 C396 1.478 . S
C395 H389 0.930 . S
C395 C391 1.400 . S
C395 C394 1.385 1_554 S
C396 C394 1.478 . S
C396 C398 1.381 . S
C396 C402 1.383 1_556 S
C397 C393 1.495 . S
C397 H403 0.959 . S
C397 H404 0.961 . S
C397 H405 0.960 . S
C398 C396 1.381 . S
C398 C399 1.394 . S
C398 H406 0.930 . S
C399 C398 1.394 . S
C399 C400 1.383 . S
C399 H407 0.929 . S
C400 C399 1.383 . S
C400 C401 1.377 1_556 S
C401 H385 0.930 . S
C401 C400 1.377 1_554 S
C401 C402 1.379 . S
C402 H386 0.931 . S
C402 C396 1.383 1_554 S
C402 C401 1.379 . S
H403 C397 0.959 . S
H404 C397 0.961 . S
H405 C397 0.960 . S
H406 C398 0.930 . S
H407 C399 0.929 . S
H408 C416 0.929 . S
H409 C418 0.930 . S
H410 C420 0.930 . S
H411 C423 0.929 . S
H412 C426 0.930 . S
H413 C428 0.960 . S
H414 C428 0.960 . S
H415 C428 0.960 . S
C416 H408 0.929 . S
C416 C417 1.377 . S
C416 C418 1.384 . S
C417 C416 1.377 . S
C417 C423 1.390 . S
C418 H409 0.930 . S
C418 C416 1.384 . S
C418 C419 1.372 . S
C419 C418 1.372 . S
C419 C420 1.400 . S
C419 C424 1.490 . S
C420 H410 0.930 . S
C420 C419 1.400 . S
C420 C423 1.386 . S
H421 C437 0.930 . S
H422 C438 0.931 . S
C423 H411 0.929 . S
C423 C417 1.390 . S
C423 C420 1.386 . S
C424 C419 1.490 . S
C424 C426 1.395 . S
C424 C427 1.403 . S
H425 C431 0.930 . S
C426 H412 0.930 . S
C426 C424 1.395 . S
C426 C429 1.403 . S
C427 C424 1.403 . S
C427 C428 1.524 . S
C427 C431 1.400 . S
C428 H413 0.960 . S
C428 H414 0.960 . S
C428 H415 0.960 . S
C428 C427 1.524 . S
C429 C426 1.403 . S
C429 C430 1.392 . S
C429 C433 1.495 . S
C430 C429 1.392 . S
C430 C431 1.385 . S
C430 C432 1.478 . S
C431 H425 0.930 . S
C431 C427 1.400 . S
C431 C430 1.385 . S
C432 C430 1.478 . S
C432 C434 1.381 . S
C432 C438 1.383 . S
C433 C429 1.495 . S
C433 H439 0.959 . S
C433 H440 0.961 . S
C433 H441 0.960 . S
C434 C432 1.381 . S
C434 C435 1.394 . S
C434 H442 0.930 . S
C435 C434 1.394 . S
C435 C436 1.383 . S
C435 H443 0.929 . S
C436 C435 1.383 . S
C436 C437 1.377 . S
C437 H421 0.930 . S
C437 C436 1.377 . S
C437 C438 1.379 . S
C438 H422 0.931 . S
C438 C432 1.383 . S
C438 C437 1.379 . S
H439 C433 0.959 . S
H440 C433 0.961 . S
H441 C433 0.960 . S
H442 C434 0.930 . S
H443 C435 0.929 . S
H444 C452 0.929 . S
H445 C454 0.930 . S
H446 C456 0.930 . S
H447 C459 0.929 . S
H448 C462 0.930 . S
H449 C464 0.960 . S
H450 C464 0.960 . S
H451 C464 0.960 1_554 S
C452 H444 0.929 . S
C452 C453 1.377 1_556 S
C452 C454 1.384 . S
C453 C452 1.377 1_554 S
C453 C459 1.390 . S
C454 H445 0.930 . S
C454 C452 1.384 . S
C454 C455 1.365 1_556 S
C455 C454 1.365 1_554 S
C455 C456 1.407 . S
C455 C460 1.490 . S
C456 H446 0.930 . S
C456 C455 1.407 . S
C456 C459 1.386 . S
H457 C473 0.930 . S
H458 C474 0.931 . S
C459 H447 0.929 . S
C459 C453 1.390 . S
C459 C456 1.386 . S
C460 C455 1.490 . S
C460 C462 1.396 . S
C460 C463 1.401 1_554 S
H461 C467 0.930 . S
C462 H448 0.930 . S
C462 C460 1.396 . S
C462 C465 1.403 . S
C463 C460 1.401 1_556 S
C463 C464 1.524 . S
C463 C467 1.400 . S
C464 H449 0.960 . S
C464 H450 0.960 . S
C464 H451 0.960 1_556 S
C464 C463 1.524 . S
C465 C462 1.403 . S
C465 C466 1.392 . S
C465 C469 1.495 . S
C466 C465 1.392 . S
C466 C467 1.385 1_554 S
C466 C468 1.478 . S
C467 H461 0.930 . S
C467 C463 1.400 . S
C467 C466 1.385 1_556 S
C468 C466 1.478 . S
C468 C470 1.381 1_554 S
C468 C474 1.383 . S
C469 C465 1.495 . S
C469 H475 0.959 . S
C469 H476 0.961 . S
C469 H477 0.960 1_554 S
C470 C468 1.381 1_556 S
C470 C471 1.394 . S
C470 H478 0.930 . S
C471 C470 1.394 . S
C471 C472 1.383 1_556 S
C471 H479 0.929 . S
C472 C471 1.383 1_554 S
C472 C473 1.377 . S
C473 H457 0.930 . S
C473 C472 1.377 . S
C473 C474 1.379 . S
C474 H458 0.931 . S
C474 C468 1.383 . S
C474 C473 1.379 . S
H475 C469 0.959 . S
H476 C469 0.961 . S
H477 C469 0.960 1_556 S
H478 C470 0.930 . S
H479 C471 0.929 . S
H480 C488 0.929 . S
H481 C490 0.930 . S
H482 C492 0.930 . S
H483 C495 0.929 . S
H484 C498 0.930 . S
H485 C500 0.960 1_556 S
H486 C500 0.960 1_556 S
H487 C500 0.960 . S
C488 H480 0.929 . S
C488 C489 1.377 . S
C488 C490 1.384 . S
C489 C488 1.377 . S
C489 C495 1.390 . S
C490 H481 0.930 . S
C490 C488 1.384 . S
C490 C491 1.372 . S
C491 C490 1.372 . S
C491 C492 1.400 . S
C491 C496 1.490 . S
C492 H482 0.930 . S
C492 C491 1.400 . S
C492 C495 1.386 . S
H493 C509 0.930 . S
H494 C510 0.931 . S
C495 H483 0.929 . S
C495 C489 1.390 . S
C495 C492 1.386 . S
C496 C491 1.490 . S
C496 C498 1.395 . S
C496 C499 1.403 . S
H497 C503 0.930 . S
C498 H484 0.930 . S
C498 C496 1.395 . S
C498 C501 1.403 . S
C499 C496 1.403 . S
C499 C500 1.524 . S
C499 C503 1.400 . S
C500 H485 0.960 1_554 S
C500 H486 0.960 1_554 S
C500 H487 0.960 . S
C500 C499 1.524 . S
C501 C498 1.403 . S
C501 C502 1.392 . S
C501 C505 1.495 . S
C502 C501 1.392 . S
C502 C503 1.385 . S
C502 C504 1.478 . S
C503 H497 0.930 . S
C503 C499 1.400 . S
C503 C502 1.385 . S
C504 C502 1.478 . S
C504 C506 1.381 . S
C504 C510 1.383 . S
C505 C501 1.495 . S
C505 H511 0.959 . S
C505 H512 0.961 . S
C505 H513 0.960 . S
C506 C504 1.381 . S
C506 C507 1.394 . S
C506 H514 0.930 . S
C507 C506 1.394 . S
C507 C508 1.383 . S
C507 H515 0.929 . S
C508 C507 1.383 . S
C508 C509 1.377 . S
C509 H493 0.930 . S
C509 C508 1.377 . S
C509 C510 1.379 . S
C510 H494 0.931 . S
C510 C504 1.383 . S
C510 C509 1.379 . S
H511 C505 0.959 . S
H512 C505 0.961 . S
H513 C505 0.960 . S
H514 C506 0.930 . S
H515 C507 0.929 . S
H516 C524 0.929 . S
H517 C526 0.930 . S
H518 C528 0.930 . S
H519 C531 0.929 . S
H520 C534 0.930 . S
H521 C536 0.960 . S
H522 C536 0.960 . S
H523 C536 0.960 . S
C524 H516 0.929 . S
C524 C525 1.376 1_554 S
C524 C526 1.384 . S
C525 C524 1.376 1_556 S
C525 C531 1.391 . S
C526 H517 0.930 . S
C526 C524 1.384 . S
C526 C527 1.372 . S
C527 C526 1.372 . S
C527 C528 1.399 1_554 S
C527 C532 1.490 . S
C528 H518 0.930 . S
C528 C527 1.399 1_556 S
C528 C531 1.386 . S
H529 C545 0.930 . S
H530 C546 0.931 . S
C531 H519 0.929 . S
C531 C525 1.391 . S
C531 C528 1.386 . S
C532 C527 1.490 . S
C532 C534 1.395 . S
C532 C535 1.403 1_554 S
H533 C539 0.930 . S
C534 H520 0.930 . S
C534 C532 1.395 . S
C534 C537 1.403 . S
C535 C532 1.403 1_556 S
C535 C536 1.524 . S
C535 C539 1.400 . S
C536 H521 0.960 . S
C536 H522 0.960 . S
C536 H523 0.960 . S
C536 C535 1.524 . S
C537 C534 1.403 . S
C537 C538 1.392 . S
C537 C541 1.495 . S
C538 C537 1.392 . S
C538 C539 1.385 1_554 S
C538 C540 1.478 . S
C539 H533 0.930 . S
C539 C535 1.400 . S
C539 C538 1.385 1_556 S
C540 C538 1.478 . S
C540 C542 1.381 . S
C540 C546 1.383 . S
C541 C537 1.495 . S
C541 H547 0.959 . S
C541 H548 0.961 . S
C541 H549 0.960 . S
C542 C540 1.381 . S
C542 C543 1.394 . S
C542 H550 0.930 . S
C543 C542 1.394 . S
C543 C544 1.383 . S
C543 H551 0.929 . S
C544 C543 1.383 . S
C544 C545 1.377 . S
C545 H529 0.930 . S
C545 C544 1.377 . S
C545 C546 1.379 . S
C546 H530 0.931 . S
C546 C540 1.383 . S
C546 C545 1.379 . S
H547 C541 0.959 . S
H548 C541 0.961 . S
H549 C541 0.960 . S
H550 C542 0.930 . S
H551 C543 0.929 . S
H552 C560 0.929 . S
H553 C562 0.930 . S
H554 C564 0.930 . S
H555 C567 0.929 . S
H556 C570 0.930 . S
H557 C572 0.960 . S
H558 C572 0.960 . S
H559 C572 0.960 . S
C560 H552 0.929 . S
C560 C561 1.377 . S
C560 C562 1.384 . S
C561 C560 1.377 . S
C561 C567 1.390 . S
C562 H553 0.930 . S
C562 C560 1.384 . S
C562 C563 1.372 . S
C563 C562 1.372 . S
C563 C564 1.400 . S
C563 C568 1.490 . S
C564 H554 0.930 . S
C564 C563 1.400 . S
C564 C567 1.386 . S
H565 C581 0.930 . S
H566 C582 0.931 . S
C567 H555 0.929 . S
C567 C561 1.390 . S
C567 C564 1.386 . S
C568 C563 1.490 . S
C568 C570 1.395 . S
C568 C571 1.403 . S
H569 C575 0.930 . S
C570 H556 0.930 . S
C570 C568 1.395 . S
C570 C573 1.403 . S
C571 C568 1.403 . S
C571 C572 1.524 . S
C571 C575 1.400 . S
C572 H557 0.960 . S
C572 H558 0.960 . S
C572 H559 0.960 . S
C572 C571 1.524 . S
C573 C570 1.403 . S
C573 C574 1.392 . S
C573 C577 1.495 . S
C574 C573 1.392 . S
C574 C575 1.385 . S
C574 C576 1.478 . S
C575 H569 0.930 . S
C575 C571 1.400 . S
C575 C574 1.385 . S
C576 C574 1.478 . S
C576 C578 1.381 . S
C576 C582 1.383 . S
C577 C573 1.495 . S
C577 H583 0.959 . S
C577 H584 0.961 . S
C577 H585 0.960 . S
C578 C576 1.381 . S
C578 C579 1.394 . S
C578 H586 0.930 . S
C579 C578 1.394 . S
C579 C580 1.383 . S
C579 H587 0.929 . S
C580 C579 1.383 . S
C580 C581 1.377 . S
C581 H565 0.930 . S
C581 C580 1.377 . S
C581 C582 1.379 . S
C582 H566 0.931 . S
C582 C576 1.383 . S
C582 C581 1.379 . S
H583 C577 0.959 . S
H584 C577 0.961 . S
H585 C577 0.960 . S
H586 C578 0.930 . S
H587 C579 0.929 . S
H588 C596 0.929 . S
H589 C598 0.930 . S
H590 C600 0.930 . S
H591 C603 0.929 . S
H592 C606 0.930 . S
H593 C608 0.960 . S
H594 C608 0.960 . S
H595 C608 0.960 . S
C596 H588 0.929 . S
C596 C597 1.377 . S
C596 C598 1.384 . S
C597 C596 1.377 . S
C597 C603 1.390 . S
C598 H589 0.930 . S
C598 C596 1.384 . S
C598 C599 1.372 . S
C599 C598 1.372 . S
C599 C600 1.400 . S
C599 C604 1.490 . S
C600 H590 0.930 . S
C600 C599 1.400 . S
C600 C603 1.386 . S
H601 C617 0.930 . S
H602 C618 0.931 . S
C603 H591 0.929 . S
C603 C597 1.390 . S
C603 C600 1.386 . S
C604 C599 1.490 . S
C604 C606 1.395 . S
C604 C607 1.403 . S
H605 C611 0.930 . S
C606 H592 0.930 . S
C606 C604 1.395 . S
C606 C609 1.403 . S
C607 C604 1.403 . S
C607 C608 1.524 . S
C607 C611 1.400 . S
C608 H593 0.960 . S
C608 H594 0.960 . S
C608 H595 0.960 . S
C608 C607 1.524 . S
C609 C606 1.403 . S
C609 C610 1.392 . S
C609 C613 1.495 . S
C610 C609 1.392 . S
C610 C611 1.385 . S
C610 C612 1.478 . S
C611 H605 0.930 . S
C611 C607 1.400 . S
C611 C610 1.385 . S
C612 C610 1.478 . S
C612 C614 1.381 . S
C612 C618 1.383 . S
C613 C609 1.495 . S
C613 H619 0.959 . S
C613 H620 0.961 . S
C613 H621 0.960 . S
C614 C612 1.381 . S
C614 C615 1.394 . S
C614 H622 0.930 . S
C615 C614 1.394 . S
C615 C616 1.383 . S
C615 H623 0.929 . S
C616 C615 1.383 . S
C616 C617 1.377 . S
C617 H601 0.930 . S
C617 C616 1.377 . S
C617 C618 1.379 . S
C618 H602 0.931 . S
C618 C612 1.383 . S
C618 C617 1.379 . S
H619 C613 0.959 . S
H620 C613 0.961 . S
H621 C613 0.960 . S
H622 C614 0.930 . S
H623 C615 0.929 . S
H624 C632 0.929 . S
H625 C634 0.930 . S
H626 C636 0.930 . S
H627 C639 0.929 . S
H628 C642 0.930 . S
H629 C644 0.960 . S
H630 C644 0.960 . S
H631 C644 0.960 . S
C632 H624 0.929 . S
C632 C633 1.377 . S
C632 C634 1.384 . S
C633 C632 1.377 . S
C633 C639 1.390 . S
C634 H625 0.930 . S
C634 C632 1.384 . S
C634 C635 1.372 . S
C635 C634 1.372 . S
C635 C636 1.400 . S
C635 C640 1.490 . S
C636 H626 0.930 . S
C636 C635 1.400 . S
C636 C639 1.386 . S
H637 C653 0.930 . S
H638 C654 0.931 . S
C639 H627 0.929 . S
C639 C633 1.390 . S
C639 C636 1.386 . S
C640 C635 1.490 . S
C640 C642 1.395 . S
C640 C643 1.403 . S
H641 C647 0.930 . S
C642 H628 0.930 . S
C642 C640 1.395 . S
C642 C645 1.403 . S
C643 C640 1.403 . S
C643 C644 1.524 . S
C643 C647 1.400 . S
C644 H629 0.960 . S
C644 H630 0.960 . S
C644 H631 0.960 . S
C644 C643 1.524 . S
C645 C642 1.403 . S
C645 C646 1.392 . S
C645 C649 1.495 . S
C646 C645 1.392 . S
C646 C647 1.385 . S
C646 C648 1.478 . S
C647 H641 0.930 . S
C647 C643 1.400 . S
C647 C646 1.385 . S
C648 C646 1.478 . S
C648 C650 1.381 . S
C648 C654 1.383 . S
C649 C645 1.495 . S
C649 H655 0.959 . S
C649 H656 0.961 . S
C649 H657 0.960 . S
C650 C648 1.381 . S
C650 C651 1.394 . S
C650 H658 0.930 . S
C651 C650 1.394 . S
C651 C652 1.383 . S
C651 H659 0.929 . S
C652 C651 1.383 . S
C652 C653 1.377 . S
C653 H637 0.930 . S
C653 C652 1.377 . S
C653 C654 1.379 . S
C654 H638 0.931 . S
C654 C648 1.383 . S
C654 C653 1.379 . S
H655 C649 0.959 . S
H656 C649 0.961 . S
H657 C649 0.960 . S
H658 C650 0.930 . S
H659 C651 0.929 . S
H660 C668 0.929 . S
H661 C670 0.930 . S
H662 C672 0.930 . S
H663 C675 0.929 . S
H664 C678 0.930 . S
H665 C680 0.960 . S
H666 C680 0.960 . S
H667 C680 0.960 . S
C668 H660 0.929 . S
C668 C669 1.377 . S
C668 C670 1.384 . S
C669 C668 1.377 . S
C669 C675 1.390 . S
C670 H661 0.930 . S
C670 C668 1.384 . S
C670 C671 1.372 . S
C671 C670 1.372 . S
C671 C672 1.400 . S
C671 C676 1.490 . S
C672 H662 0.930 . S
C672 C671 1.400 . S
C672 C675 1.386 . S
H673 C689 0.930 . S
H674 C690 0.931 . S
C675 H663 0.929 . S
C675 C669 1.390 . S
C675 C672 1.386 . S
C676 C671 1.490 . S
C676 C678 1.395 . S
C676 C679 1.403 . S
H677 C683 0.930 . S
C678 H664 0.930 . S
C678 C676 1.395 . S
C678 C681 1.403 . S
C679 C676 1.403 . S
C679 C680 1.524 . S
C679 C683 1.400 . S
C680 H665 0.960 . S
C680 H666 0.960 . S
C680 H667 0.960 . S
C680 C679 1.524 . S
C681 C678 1.403 . S
C681 C682 1.392 . S
C681 C685 1.495 . S
C682 C681 1.392 . S
C682 C683 1.385 . S
C682 C684 1.478 . S
C683 H677 0.930 . S
C683 C679 1.400 . S
C683 C682 1.385 . S
C684 C682 1.478 . S
C684 C686 1.381 . S
C684 C690 1.383 . S
C685 C681 1.495 . S
C685 H691 0.959 . S
C685 H692 0.961 . S
C685 H693 0.960 . S
C686 C684 1.381 . S
C686 C687 1.394 . S
C686 H694 0.930 . S
C687 C686 1.394 . S
C687 C688 1.383 . S
C687 H695 0.929 . S
C688 C687 1.383 . S
C688 C689 1.377 . S
C689 H673 0.930 . S
C689 C688 1.377 . S
C689 C690 1.379 . S
C690 H674 0.931 . S
C690 C684 1.383 . S
C690 C689 1.379 . S
H691 C685 0.959 . S
H692 C685 0.961 . S
H693 C685 0.960 . S
H694 C686 0.930 . S
H695 C687 0.929 . S
H696 C704 0.929 . S
H697 C706 0.930 . S
H698 C708 0.930 . S
H699 C711 0.929 . S
H700 C714 0.930 . S
H701 C716 0.960 . S
H702 C716 0.960 . S
H703 C716 0.960 . S
C704 H696 0.929 . S
C704 C705 1.377 . S
C704 C706 1.384 . S
C705 C704 1.377 . S
C705 C711 1.390 . S
C706 H697 0.930 . S
C706 C704 1.384 . S
C706 C707 1.372 . S
C707 C706 1.372 . S
C707 C708 1.400 . S
C707 C712 1.490 . S
C708 H698 0.930 . S
C708 C707 1.400 . S
C708 C711 1.386 . S
H709 C725 0.930 . S
H710 C726 0.931 . S
C711 H699 0.929 . S
C711 C705 1.390 . S
C711 C708 1.386 . S
C712 C707 1.490 . S
C712 C714 1.395 . S
C712 C715 1.403 . S
H713 C719 0.930 . S
C714 H700 0.930 . S
C714 C712 1.395 . S
C714 C717 1.403 . S
C715 C712 1.403 . S
C715 C716 1.524 . S
C715 C719 1.400 . S
C716 H701 0.960 . S
C716 H702 0.960 . S
C716 H703 0.960 . S
C716 C715 1.524 . S
C717 C714 1.403 . S
C717 C718 1.392 . S
C717 C721 1.495 . S
C718 C717 1.392 . S
C718 C719 1.385 . S
C718 C720 1.478 . S
C719 H713 0.930 . S
C719 C715 1.400 . S
C719 C718 1.385 . S
C720 C718 1.478 . S
C720 C722 1.381 . S
C720 C726 1.383 . S
C721 C717 1.495 . S
C721 H727 0.959 . S
C721 H728 0.961 . S
C721 H729 0.960 . S
C722 C720 1.381 . S
C722 C723 1.394 . S
C722 H730 0.930 . S
C723 C722 1.394 . S
C723 C724 1.383 . S
C723 H731 0.929 . S
C724 C723 1.383 . S
C724 C725 1.377 . S
C725 H709 0.930 . S
C725 C724 1.377 . S
C725 C726 1.379 . S
C726 H710 0.931 . S
C726 C720 1.383 . S
C726 C725 1.379 . S
H727 C721 0.959 . S
H728 C721 0.961 . S
H729 C721 0.960 . S
H730 C722 0.930 . S
H731 C723 0.929 . S
H732 C740 0.929 . S
H733 C742 0.930 . S
H734 C744 0.930 . S
H735 C747 0.929 . S
H736 C750 0.930 . S
H737 C752 0.960 . S
H738 C752 0.960 . S
H739 C752 0.960 . S
C740 H732 0.929 . S
C740 C741 1.377 . S
C740 C742 1.384 . S
C741 C740 1.377 . S
C741 C747 1.390 . S
C742 H733 0.930 . S
C742 C740 1.384 . S
C742 C743 1.372 . S
C743 C742 1.372 . S
C743 C744 1.400 . S
C743 C748 1.490 . S
C744 H734 0.930 . S
C744 C743 1.400 . S
C744 C747 1.386 . S
H745 C761 0.930 . S
H746 C762 0.931 . S
C747 H735 0.929 . S
C747 C741 1.390 . S
C747 C744 1.386 . S
C748 C743 1.490 . S
C748 C750 1.395 . S
C748 C751 1.403 . S
H749 C755 0.930 . S
C750 H736 0.930 . S
C750 C748 1.395 . S
C750 C753 1.403 . S
C751 C748 1.403 . S
C751 C752 1.524 . S
C751 C755 1.400 . S
C752 H737 0.960 . S
C752 H738 0.960 . S
C752 H739 0.960 . S
C752 C751 1.524 . S
C753 C750 1.403 . S
C753 C754 1.392 . S
C753 C757 1.495 . S
C754 C753 1.392 . S
C754 C755 1.385 . S
C754 C756 1.478 . S
C755 H749 0.930 . S
C755 C751 1.400 . S
C755 C754 1.385 . S
C756 C754 1.478 . S
C756 C758 1.381 . S
C756 C762 1.383 . S
C757 C753 1.495 . S
C757 H763 0.959 . S
C757 H764 0.961 . S
C757 H765 0.960 . S
C758 C756 1.381 . S
C758 C759 1.394 . S
C758 H766 0.930 . S
C759 C758 1.394 . S
C759 C760 1.383 . S
C759 H767 0.929 . S
C760 C759 1.383 . S
C760 C761 1.377 . S
C761 H745 0.930 . S
C761 C760 1.377 . S
C761 C762 1.379 . S
C762 H746 0.931 . S
C762 C756 1.383 . S
C762 C761 1.379 . S
H763 C757 0.959 . S
H764 C757 0.961 . S
H765 C757 0.960 . S
H766 C758 0.930 . S
H767 C759 0.929 . S
C129 C101 1.203 . S
C148 C1 1.246 . S
C165 C19 1.063 . S
C184 C21 1.025 . S
C201 C39 0.824 . S
C220 C41 0.738 . S
C237 C61 1.569 . S
C256 C59 1.619 . S
C273 C81 1.475 . S
C292 C79 1.625 . S
C309 C99 1.146 . S
C328 C119 1.139 . S
C345 C98 1.779 . S
C364 C2 1.776 . S
C381 C102 1.362 . S
C400 C22 1.373 . S
C417 C42 1.528 . S
C436 C18 1.526 . S
C453 C62 1.819 . S
C472 C38 1.842 1_554 S
C489 C82 2.104 . S
C508 C58 2.117 . S
C525 C78 2.297 . S
C544 C118 2.280 . S
C561 C8 1.430 . S
C580 C9 1.434 . S
C597 C28 1.441 . S
C616 C29 1.428 . S
C633 C48 1.433 . S
C652 C49 1.408 . S
C669 C68 1.430 . S
C688 C69 1.448 . S
C705 C89 1.431 . S
C724 C88 1.408 . S
C741 C109 1.439 . S
C760 C108 1.430 . S
