# Generated by pormake.
# Topology afi, (4)-cn, num edge types: 1
# Building blocks:
#     Node 0, Type 0, BuildingBlock: UXUYUI_clean_sbu_0, # of connection points: 4
#     Node 1, Type 0, BuildingBlock: UXUYUI_clean_sbu_0, # of connection points: 4
#     Node 2, Type 0, BuildingBlock: UXUYUI_clean_sbu_0, # of connection points: 4
#     Node 3, Type 0, BuildingBlock: UXUYUI_clean_sbu_0, # of connection points: 4
#     Node 4, Type 0, BuildingBlock: UXUYUI_clean_sbu_0, # of connection points: 4
#     Node 5, Type 0, BuildingBlock: UXUYUI_clean_sbu_0, # of connection points: 4
#     Node 6, Type 0, BuildingBlock: UXUYUI_clean_sbu_0, # of connection points: 4
#     Node 7, Type 0, BuildingBlock: UXUYUI_clean_sbu_0, # of connection points: 4
#     Node 8, Type 0, BuildingBlock: UXUYUI_clean_sbu_0, # of connection points: 4
#     Node 9, Type 0, BuildingBlock: UXUYUI_clean_sbu_0, # of connection points: 4
#     Node 10, Type 0, BuildingBlock: UXUYUI_clean_sbu_0, # of connection points: 4
#     Node 11, Type 0, BuildingBlock: UXUYUI_clean_sbu_0, # of connection points: 4
#     Node 12, Type 0, BuildingBlock: UXUYUI_clean_sbu_0, # of connection points: 4
#     Node 13, Type 0, BuildingBlock: UXUYUI_clean_sbu_0, # of connection points: 4
#     Node 14, Type 0, BuildingBlock: UXUYUI_clean_sbu_0, # of connection points: 4
#     Node 15, Type 0, BuildingBlock: UXUYUI_clean_sbu_0, # of connection points: 4
#     Node 16, Type 0, BuildingBlock: UXUYUI_clean_sbu_0, # of connection points: 4
#     Node 17, Type 0, BuildingBlock: UXUYUI_clean_sbu_0, # of connection points: 4
#     Node 18, Type 0, BuildingBlock: UXUYUI_clean_sbu_0, # of connection points: 4
#     Node 19, Type 0, BuildingBlock: UXUYUI_clean_sbu_0, # of connection points: 4
#     Node 20, Type 0, BuildingBlock: UXUYUI_clean_sbu_0, # of connection points: 4
#     Node 21, Type 0, BuildingBlock: UXUYUI_clean_sbu_0, # of connection points: 4
#     Node 22, Type 0, BuildingBlock: UXUYUI_clean_sbu_0, # of connection points: 4
#     Node 23, Type 0, BuildingBlock: UXUYUI_clean_sbu_0, # of connection points: 4
#     Edge 24, Type (0, 0), BuildingBlock: UVAHIK_clean_linker_0, # of connection points: 2
#     Edge 25, Type (0, 0), BuildingBlock: UVAHIK_clean_linker_0, # of connection points: 2
#     Edge 26, Type (0, 0), BuildingBlock: UVAHIK_clean_linker_0, # of connection points: 2
#     Edge 27, Type (0, 0), BuildingBlock: UVAHIK_clean_linker_0, # of connection points: 2
#     Edge 28, Type (0, 0), BuildingBlock: UVAHIK_clean_linker_0, # of connection points: 2
#     Edge 29, Type (0, 0), BuildingBlock: UVAHIK_clean_linker_0, # of connection points: 2
#     Edge 30, Type (0, 0), BuildingBlock: UVAHIK_clean_linker_0, # of connection points: 2
#     Edge 31, Type (0, 0), BuildingBlock: UVAHIK_clean_linker_0, # of connection points: 2
#     Edge 32, Type (0, 0), BuildingBlock: UVAHIK_clean_linker_0, # of connection points: 2
#     Edge 33, Type (0, 0), BuildingBlock: UVAHIK_clean_linker_0, # of connection points: 2
#     Edge 34, Type (0, 0), BuildingBlock: UVAHIK_clean_linker_0, # of connection points: 2
#     Edge 35, Type (0, 0), BuildingBlock: UVAHIK_clean_linker_0, # of connection points: 2
#     Edge 36, Type (0, 0), BuildingBlock: UVAHIK_clean_linker_0, # of connection points: 2
#     Edge 37, Type (0, 0), BuildingBlock: UVAHIK_clean_linker_0, # of connection points: 2
#     Edge 38, Type (0, 0), BuildingBlock: UVAHIK_clean_linker_0, # of connection points: 2
#     Edge 39, Type (0, 0), BuildingBlock: UVAHIK_clean_linker_0, # of connection points: 2
#     Edge 40, Type (0, 0), BuildingBlock: UVAHIK_clean_linker_0, # of connection points: 2
#     Edge 41, Type (0, 0), BuildingBlock: UVAHIK_clean_linker_0, # of connection points: 2
#     Edge 42, Type (0, 0), BuildingBlock: UVAHIK_clean_linker_0, # of connection points: 2
#     Edge 43, Type (0, 0), BuildingBlock: UVAHIK_clean_linker_0, # of connection points: 2
#     Edge 44, Type (0, 0), BuildingBlock: UVAHIK_clean_linker_0, # of connection points: 2
#     Edge 45, Type (0, 0), BuildingBlock: UVAHIK_clean_linker_0, # of connection points: 2
#     Edge 46, Type (0, 0), BuildingBlock: UVAHIK_clean_linker_0, # of connection points: 2
#     Edge 47, Type (0, 0), BuildingBlock: UVAHIK_clean_linker_0, # of connection points: 2
#     Edge 48, Type (0, 0), BuildingBlock: UVAHIK_clean_linker_0, # of connection points: 2
#     Edge 49, Type (0, 0), BuildingBlock: UVAHIK_clean_linker_0, # of connection points: 2
#     Edge 50, Type (0, 0), BuildingBlock: UVAHIK_clean_linker_0, # of connection points: 2
#     Edge 51, Type (0, 0), BuildingBlock: UVAHIK_clean_linker_0, # of connection points: 2
#     Edge 52, Type (0, 0), BuildingBlock: UVAHIK_clean_linker_0, # of connection points: 2
#     Edge 53, Type (0, 0), BuildingBlock: UVAHIK_clean_linker_0, # of connection points: 2
#     Edge 54, Type (0, 0), BuildingBlock: UVAHIK_clean_linker_0, # of connection points: 2
#     Edge 55, Type (0, 0), BuildingBlock: UVAHIK_clean_linker_0, # of connection points: 2
#     Edge 56, Type (0, 0), BuildingBlock: UVAHIK_clean_linker_0, # of connection points: 2
#     Edge 57, Type (0, 0), BuildingBlock: UVAHIK_clean_linker_0, # of connection points: 2
#     Edge 58, Type (0, 0), BuildingBlock: UVAHIK_clean_linker_0, # of connection points: 2
#     Edge 59, Type (0, 0), BuildingBlock: UVAHIK_clean_linker_0, # of connection points: 2
#     Edge 60, Type (0, 0), BuildingBlock: UVAHIK_clean_linker_0, # of connection points: 2
#     Edge 61, Type (0, 0), BuildingBlock: UVAHIK_clean_linker_0, # of connection points: 2
#     Edge 62, Type (0, 0), BuildingBlock: UVAHIK_clean_linker_0, # of connection points: 2
#     Edge 63, Type (0, 0), BuildingBlock: UVAHIK_clean_linker_0, # of connection points: 2
#     Edge 64, Type (0, 0), BuildingBlock: UVAHIK_clean_linker_0, # of connection points: 2
#     Edge 65, Type (0, 0), BuildingBlock: UVAHIK_clean_linker_0, # of connection points: 2
#     Edge 66, Type (0, 0), BuildingBlock: UVAHIK_clean_linker_0, # of connection points: 2
#     Edge 67, Type (0, 0), BuildingBlock: UVAHIK_clean_linker_0, # of connection points: 2
#     Edge 68, Type (0, 0), BuildingBlock: UVAHIK_clean_linker_0, # of connection points: 2
#     Edge 69, Type (0, 0), BuildingBlock: UVAHIK_clean_linker_0, # of connection points: 2
#     Edge 70, Type (0, 0), BuildingBlock: UVAHIK_clean_linker_0, # of connection points: 2
#     Edge 71, Type (0, 0), BuildingBlock: UVAHIK_clean_linker_0, # of connection points: 2
# Relax obj value: 0.134
# Max RMSD: 0.127
# Mean RMSD: 0.126
data_MOF--net-afi--node1-UXUYUI_clean_sbu_0--edge1-UVAHIK_clean_linker_0
_symmetry_space_group_name_H-M    P1
_symmetry_Int_Tables_number       1
_symmetry_cell_setting            triclinic
loop_
_symmetry_equiv_pos_as_xyz
'x, y, z'
_cell_length_a     115.97148
_cell_length_b     115.96729
_cell_length_c     72.281435
_cell_angle_alpha  90.001021
_cell_angle_beta   89.991477
_cell_angle_gamma 120.00076
loop_
_atom_site_label
_atom_site_type_symbol
_atom_site_fract_x
_atom_site_fract_y
_atom_site_fract_z
_atom_type_partial_charge
Li0 Li 0.46011 0.1149 0.19219 0.0
Li1 Li 0.4347 0.10078 0.18919 0.0
Li2 Li 0.4487 0.11535 0.16425 0.0
Li3 Li 0.44586 0.12473 0.19169 0.0
C4 C 0.45204 0.09499 0.15974 0.0
N5 N 0.4579 0.08627 0.12743 0.0
C6 C 0.44184 0.08484 0.14939 0.0
C7 C 0.46522 0.10067 0.15373 0.0
C8 C 0.44501 0.08058 0.13307 0.0
C9 C 0.46798 0.09613 0.13733 0.0
C10 C 0.44517 0.11731 0.22676 0.0
C11 C 0.43282 0.12231 0.24907 0.0
N12 N 0.44394 0.12874 0.25971 0.0
C13 C 0.45643 0.12383 0.23801 0.0
C14 C 0.43322 0.11642 0.23241 0.0
C15 C 0.45563 0.12958 0.25459 0.0
C16 C 0.48557 0.12733 0.20843 0.0
N17 N 0.47557 0.1156 0.20183 0.0
C18 C 0.48802 0.10475 0.2082 0.0
C19 C 0.47653 0.10439 0.20165 0.0
C20 C 0.4985 0.11671 0.21519 0.0
C21 C 0.49716 0.1281 0.21537 0.0
H22 H 0.48451 0.13609 0.20828 0.0
H23 H 0.46839 0.0952 0.19629 0.0
C24 C 0.41067 0.07675 0.18249 0.0
N25 N 0.41966 0.08439 0.19561 0.0
C26 C 0.39972 0.06447 0.18728 0.0
C27 C 0.40735 0.06841 0.21903 0.0
C28 C 0.41818 0.08054 0.21361 0.0
C29 C 0.39802 0.06015 0.20576 0.0
H30 H 0.41205 0.08019 0.16832 0.0
H31 H 0.42551 0.08684 0.22371 0.0
C32 C 0.46697 0.14246 0.16946 0.0
N33 N 0.47539 0.16658 0.15204 0.0
C34 C 0.4578 0.14493 0.16034 0.0
C35 C 0.48042 0.15226 0.16976 0.0
C36 C 0.46225 0.15718 0.15161 0.0
C37 C 0.48448 0.16439 0.16085 0.0
C38 C 0.42023 0.11309 0.17205 0.0
C39 C 0.41802 0.11894 0.15654 0.0
C40 C 0.41034 0.1072 0.18559 0.0
C41 C 0.40601 0.11893 0.15496 0.0
C42 C 0.39847 0.1074 0.18348 0.0
N43 N 0.39657 0.11322 0.16835 0.0
C44 C 0.4387 0.10992 0.12816 0.0
C45 C 0.4621 0.12418 0.12975 0.0
C46 C 0.43904 0.11073 0.10891 0.0
N47 N 0.4501 0.1167 0.13811 0.0
C48 C 0.46291 0.12525 0.1105 0.0
C49 C 0.45126 0.11855 0.09984 0.0
H50 H 0.42934 0.10387 0.13522 0.0
H51 H 0.47103 0.12934 0.13803 0.0
C52 C 0.4558 0.14819 0.21203 0.0
N53 N 0.44511 0.13961 0.20171 0.0
C54 C 0.45642 0.1595 0.21975 0.0
C55 C 0.43528 0.15332 0.20542 0.0
C56 C 0.43494 0.14198 0.19828 0.0
C57 C 0.44609 0.16218 0.21634 0.0
H58 H 0.46392 0.14626 0.21414 0.0
H59 H 0.42663 0.13526 0.18988 0.0
O60 O 0.44912 0.09961 0.17543 0.0
O61 O 0.44584 0.11183 0.21031 0.0
O62 O 0.46287 0.13058 0.17824 0.0
O63 O 0.43192 0.11295 0.17374 0.0
H64 H 0.43159 0.08039 0.15383 0.0
H65 H 0.47322 0.10865 0.16147 0.0
H66 H 0.43721 0.07278 0.12487 0.0
H67 H 0.47813 0.10049 0.13244 0.0
H68 H 0.42367 0.12179 0.25353 0.0
H69 H 0.46572 0.12451 0.23396 0.0
H70 H 0.42439 0.11133 0.22398 0.0
H71 H 0.4643 0.13474 0.26337 0.0
H72 H 0.48866 0.09574 0.20798 0.0
H73 H 0.50509 0.13752 0.22051 0.0
H74 H 0.39269 0.05842 0.17668 0.0
H75 H 0.4065 0.06536 0.23336 0.0
H76 H 0.44737 0.1375 0.16005 0.0
H77 H 0.48764 0.1505 0.1768 0.0
H78 H 0.45525 0.15922 0.14451 0.0
H79 H 0.49487 0.17207 0.16095 0.0
H80 H 0.42551 0.12348 0.14586 0.0
H81 H 0.41178 0.10252 0.19758 0.0
H82 H 0.4042 0.12347 0.14307 0.0
H83 H 0.39075 0.10291 0.19388 0.0
H84 H 0.42986 0.1052 0.1012 0.0
H85 H 0.47252 0.13142 0.10405 0.0
H86 H 0.465 0.16624 0.22793 0.0
H87 H 0.42714 0.15511 0.20253 0.0
Li88 Li 0.34325 0.46526 0.18834 0.0
Li89 Li 0.33453 0.44138 0.19085 0.0
Li90 Li 0.33009 0.45057 0.16243 0.0
Li91 Li 0.31869 0.44885 0.19162 0.0
C92 C 0.35871 0.46099 0.16182 0.0
N93 N 0.38113 0.47528 0.14019 0.0
C94 C 0.3695 0.45884 0.16344 0.0
C95 C 0.35927 0.47028 0.14902 0.0
C96 C 0.38077 0.46621 0.15244 0.0
C97 C 0.37069 0.47743 0.13825 0.0
C98 C 0.33662 0.44923 0.2252 0.0
C99 C 0.33071 0.43342 0.25011 0.0
N100 N 0.34345 0.44027 0.25645 0.0
C101 C 0.34962 0.45618 0.23204 0.0
C102 C 0.32705 0.43782 0.23438 0.0
C103 C 0.35289 0.45147 0.24784 0.0
C104 C 0.35419 0.49164 0.20099 0.0
N105 N 0.35725 0.48227 0.19556 0.0
C106 C 0.38023 0.49684 0.20244 0.0
C107 C 0.36995 0.4846 0.19625 0.0
C108 C 0.3774 0.50674 0.20813 0.0
C109 C 0.36417 0.50404 0.20729 0.0
H110 H 0.34395 0.48942 0.20057 0.0
H111 H 0.37206 0.47683 0.19249 0.0
C112 C 0.33007 0.41584 0.2023 0.0
N113 N 0.33917 0.42897 0.20016 0.0
C114 C 0.33399 0.40711 0.2094 0.0
C115 C 0.35652 0.42561 0.21176 0.0
C116 C 0.35215 0.43395 0.20477 0.0
C117 C 0.3474 0.41199 0.21407 0.0
H118 H 0.31982 0.41213 0.19846 0.0
H119 H 0.3591 0.44448 0.20315 0.0
C120 C 0.3266 0.47385 0.16502 0.0
N121 N 0.32389 0.49276 0.14518 0.0
C122 C 0.31396 0.47201 0.1613 0.0
C123 C 0.33788 0.48548 0.15894 0.0
C124 C 0.31279 0.48163 0.15116 0.0
C125 C 0.3363 0.49487 0.14886 0.0
C126 C 0.30468 0.42482 0.17556 0.0
C127 C 0.29765 0.42257 0.15899 0.0
C128 C 0.29808 0.41751 0.19133 0.0
C129 C 0.28408 0.41315 0.15854 0.0
C130 C 0.2845 0.40819 0.19032 0.0
N131 N 0.27784 0.40623 0.17409 0.0
C132 C 0.3352 0.44403 0.12718 0.0
C133 C 0.32036 0.45249 0.12702 0.0
C134 C 0.33456 0.44291 0.10794 0.0
N135 N 0.32833 0.44896 0.13625 0.0
C136 C 0.31939 0.45151 0.10778 0.0
C137 C 0.32664 0.44676 0.09797 0.0
H138 H 0.3413 0.44109 0.1349 0.0
H139 H 0.31464 0.45593 0.13455 0.0
C140 C 0.30271 0.4491 0.22066 0.0
N141 N 0.30269 0.44649 0.20233 0.0
C142 C 0.29132 0.44792 0.22902 0.0
C143 C 0.28009 0.44133 0.19948 0.0
C144 C 0.2917 0.44268 0.1917 0.0
C145 C 0.27983 0.44404 0.21837 0.0
H146 H 0.31163 0.45223 0.22876 0.0
H147 H 0.29198 0.44086 0.1771 0.0
O148 O 0.34762 0.45389 0.17258 0.0
O149 O 0.33331 0.45349 0.20949 0.0
O150 O 0.32792 0.46458 0.17518 0.0
O151 O 0.31796 0.43405 0.17627 0.0
H152 H 0.36921 0.45158 0.1731 0.0
H153 H 0.35089 0.47178 0.14716 0.0
H154 H 0.38921 0.46469 0.15363 0.0
H155 H 0.37123 0.48464 0.12828 0.0
H156 H 0.32343 0.42455 0.25728 0.0
H157 H 0.35714 0.46503 0.22513 0.0
H158 H 0.31693 0.43237 0.22932 0.0
H159 H 0.36294 0.4567 0.25321 0.0
H160 H 0.39023 0.49838 0.20327 0.0
H161 H 0.36156 0.51141 0.21146 0.0
H162 H 0.3267 0.39665 0.21089 0.0
H163 H 0.3669 0.42979 0.21548 0.0
H164 H 0.30512 0.46319 0.16601 0.0
H165 H 0.34777 0.48735 0.16211 0.0
H166 H 0.30305 0.48024 0.14806 0.0
H167 H 0.34494 0.50388 0.14403 0.0
H168 H 0.30261 0.42806 0.14662 0.0
H169 H 0.30335 0.41912 0.20426 0.0
H170 H 0.27851 0.41135 0.14583 0.0
H171 H 0.27925 0.40254 0.20246 0.0
H172 H 0.34038 0.43928 0.10095 0.0
H173 H 0.31293 0.4543 0.10069 0.0
H174 H 0.29151 0.45001 0.24366 0.0
H175 H 0.27152 0.43853 0.19071 0.0
Li176 Li 0.87984 0.34349 0.19137 0.0
Li177 Li 0.89239 0.33168 0.1896 0.0
Li178 Li 0.87845 0.33113 0.16389 0.0
Li179 Li 0.86871 0.31919 0.19278 0.0
C180 C 0.90219 0.36008 0.17418 0.0
N181 N 0.91748 0.38749 0.17576 0.0
C182 C 0.9139 0.3661 0.18462 0.0
C183 C 0.8983 0.36798 0.16442 0.0
C184 C 0.92149 0.37999 0.18525 0.0
C185 C 0.90615 0.38183 0.16545 0.0
C186 C 0.87629 0.32738 0.22721 0.0
C187 C 0.86988 0.31078 0.25113 0.0
N188 N 0.86409 0.31666 0.26066 0.0
C189 C 0.87034 0.33331 0.23728 0.0
C190 C 0.87614 0.31607 0.23422 0.0
C191 C 0.86421 0.32773 0.25415 0.0
C192 C 0.86913 0.36032 0.19676 0.0
N193 N 0.87967 0.35869 0.2008 0.0
C194 C 0.88973 0.37864 0.21879 0.0
C195 C 0.8898 0.36746 0.21177 0.0
C196 C 0.87899 0.3806 0.21479 0.0
C197 C 0.86857 0.37125 0.20368 0.0
H198 H 0.86111 0.35307 0.18828 0.0
H199 H 0.89789 0.36573 0.21513 0.0
C200 C 0.91776 0.33525 0.18197 0.0
N201 N 0.90878 0.33272 0.19566 0.0
C202 C 0.93019 0.33675 0.18611 0.0
C203 C 0.92386 0.33301 0.21838 0.0
C204 C 0.91153 0.33151 0.21359 0.0
C205 C 0.93345 0.33581 0.20457 0.0
H206 H 0.91534 0.33633 0.16786 0.0
H207 H 0.90429 0.32973 0.22423 0.0
C208 C 0.85426 0.32833 0.16544 0.0
N209 N 0.83578 0.32376 0.13815 0.0
C210 C 0.84295 0.31575 0.1636 0.0
C211 C 0.85613 0.33862 0.15352 0.0
C212 C 0.83372 0.31364 0.14969 0.0
C213 C 0.84669 0.33609 0.13977 0.0
C214 C 0.88677 0.31003 0.17106 0.0
C215 C 0.8928 0.31168 0.15377 0.0
C216 C 0.88859 0.30255 0.18471 0.0
C217 C 0.90067 0.3059 0.15047 0.0
C218 C 0.89655 0.29695 0.18088 0.0
N219 N 0.90238 0.29873 0.16398 0.0
C220 C 0.88668 0.34052 0.1277 0.0
C221 C 0.86653 0.31982 0.12946 0.0
C222 C 0.88612 0.34018 0.10842 0.0
N223 N 0.87693 0.33047 0.13775 0.0
C224 C 0.86543 0.31921 0.11021 0.0
C225 C 0.87536 0.32945 0.09952 0.0
H226 H 0.89496 0.34872 0.13466 0.0
H227 H 0.85915 0.31177 0.13779 0.0
C228 C 0.84549 0.30521 0.21425 0.0
N229 N 0.8541 0.3038 0.203 0.0
C230 C 0.8347 0.29404 0.22208 0.0
C231 C 0.84146 0.28014 0.20581 0.0
C232 C 0.85227 0.29161 0.19858 0.0
C233 C 0.8326 0.28133 0.2178 0.0
H234 H 0.84701 0.31503 0.2171 0.0
H235 H 0.85915 0.29079 0.18934 0.0
O236 O 0.89452 0.34651 0.17359 0.0
O237 O 0.88221 0.33261 0.21056 0.0
O238 O 0.86347 0.33057 0.17885 0.0
O239 O 0.87922 0.3158 0.17467 0.0
H240 H 0.91703 0.36013 0.1923 0.0
H241 H 0.88926 0.36346 0.15629 0.0
H242 H 0.93054 0.38479 0.19335 0.0
H243 H 0.90322 0.38807 0.15808 0.0
H244 H 0.86959 0.30196 0.25665 0.0
H245 H 0.87035 0.34206 0.23206 0.0
H246 H 0.88065 0.31132 0.22657 0.0
H247 H 0.8595 0.33218 0.26205 0.0
H248 H 0.89786 0.38554 0.22753 0.0
H249 H 0.86014 0.37245 0.20025 0.0
H250 H 0.93722 0.33879 0.175 0.0
H251 H 0.92601 0.33248 0.23282 0.0
H252 H 0.84134 0.30768 0.1727 0.0
H253 H 0.86484 0.3484 0.15475 0.0
H254 H 0.82495 0.30394 0.14804 0.0
H255 H 0.84805 0.34393 0.13036 0.0
H256 H 0.89151 0.31746 0.14306 0.0
H257 H 0.88401 0.3012 0.19817 0.0
H258 H 0.90545 0.30715 0.13718 0.0
H259 H 0.89812 0.29121 0.19134 0.0
H260 H 0.89396 0.34823 0.10055 0.0
H261 H 0.85709 0.3107 0.10374 0.0
H262 H 0.82793 0.29528 0.23108 0.0
H263 H 0.84009 0.27047 0.20221 0.0
Li264 Li 0.55855 0.89488 0.1886 0.0
Li265 Li 0.53431 0.87973 0.18886 0.0
Li266 Li 0.54869 0.87049 0.19201 0.0
Li267 Li 0.54712 0.87981 0.1636 0.0
C268 C 0.54132 0.88563 0.22347 0.0
N269 N 0.528 0.89039 0.25145 0.0
C270 C 0.54049 0.89725 0.22336 0.0
C271 C 0.53547 0.87649 0.2379 0.0
C272 C 0.53369 0.89946 0.2376 0.0
C273 C 0.52876 0.87907 0.25191 0.0
C274 C 0.54204 0.89876 0.15602 0.0
C275 C 0.52659 0.89532 0.13141 0.0
N276 N 0.53643 0.90585 0.12213 0.0
C277 C 0.55197 0.9096 0.1463 0.0
C278 C 0.52922 0.89159 0.14857 0.0
C279 C 0.54895 0.91301 0.12916 0.0
C280 C 0.58176 0.91931 0.18192 0.0
N281 N 0.57311 0.91165 0.19534 0.0
C282 C 0.5855 0.92806 0.21825 0.0
C283 C 0.57495 0.91561 0.21331 0.0
C284 C 0.59435 0.93645 0.20459 0.0
C285 C 0.5925 0.93183 0.18624 0.0
H286 H 0.5803 0.91568 0.16785 0.0
H287 H 0.56819 0.90914 0.22382 0.0
C288 C 0.5091 0.86678 0.2061 0.0
N289 N 0.51787 0.87792 0.19675 0.0
C290 C 0.49721 0.86551 0.21278 0.0
C291 C 0.50357 0.8871 0.19975 0.0
C292 C 0.51538 0.88801 0.19353 0.0
C293 C 0.49434 0.87576 0.20957 0.0
H294 H 0.51143 0.85896 0.20856 0.0
H295 H 0.52266 0.89686 0.18636 0.0
C296 C 0.57583 0.88561 0.1821 0.0
N297 N 0.60039 0.89095 0.19525 0.0
C298 C 0.58567 0.88681 0.16981 0.0
C299 C 0.5785 0.88718 0.20109 0.0
C300 C 0.59802 0.88949 0.17673 0.0
C301 C 0.59097 0.88986 0.20746 0.0
C302 C 0.53048 0.85253 0.16777 0.0
C303 C 0.54104 0.85163 0.15996 0.0
C304 C 0.51761 0.84155 0.16707 0.0
C305 C 0.53852 0.83974 0.15156 0.0
C306 C 0.51549 0.82984 0.15854 0.0
N307 N 0.5259 0.82918 0.15103 0.0
C308 C 0.54005 0.84819 0.21469 0.0
C309 C 0.56 0.85386 0.19865 0.0
C310 C 0.53999 0.83723 0.22278 0.0
N311 N 0.55005 0.85633 0.20308 0.0
C312 C 0.56041 0.8431 0.20654 0.0
C313 C 0.5503 0.83459 0.21877 0.0
H314 H 0.53196 0.85007 0.21734 0.0
H315 H 0.56754 0.86004 0.18876 0.0
C316 C 0.55908 0.88594 0.12844 0.0
N317 N 0.54736 0.8784 0.13743 0.0
C318 C 0.55958 0.88566 0.10916 0.0
C319 C 0.53598 0.86973 0.10884 0.0
C320 C 0.53592 0.87035 0.1281 0.0
C321 C 0.5479 0.87752 0.0991 0.0
H322 H 0.56797 0.89235 0.13627 0.0
H323 H 0.52671 0.86457 0.13561 0.0
O324 O 0.54759 0.88311 0.20931 0.0
O325 O 0.54488 0.89504 0.17258 0.0
O326 O 0.56378 0.88317 0.17539 0.0
O327 O 0.53263 0.86399 0.17626 0.0
H328 H 0.54487 0.90438 0.21219 0.0
H329 H 0.5361 0.8675 0.23832 0.0
H330 H 0.53288 0.90836 0.2376 0.0
H331 H 0.52414 0.87206 0.26313 0.0
H332 H 0.51675 0.88979 0.12541 0.0
H333 H 0.56193 0.91528 0.15186 0.0
H334 H 0.52145 0.88307 0.1558 0.0
H335 H 0.55656 0.92133 0.12144 0.0
H336 H 0.58647 0.93122 0.23254 0.0
H337 H 0.59923 0.93784 0.17534 0.0
H338 H 0.49031 0.85659 0.22024 0.0
H339 H 0.50181 0.8953 0.19725 0.0
H340 H 0.58378 0.88568 0.15507 0.0
H341 H 0.57105 0.8863 0.21085 0.0
H342 H 0.60572 0.89043 0.16737 0.0
H343 H 0.59316 0.89108 0.22211 0.0
H344 H 0.55108 0.85998 0.16035 0.0
H345 H 0.50934 0.84208 0.1731 0.0
H346 H 0.54659 0.83891 0.14548 0.0
H347 H 0.50557 0.82126 0.1579 0.0
H348 H 0.5318 0.83075 0.23174 0.0
H349 H 0.56859 0.84151 0.20307 0.0
H350 H 0.56895 0.89198 0.10222 0.0
H351 H 0.52678 0.8632 0.10167 0.0
Li352 Li 0.65294 0.53663 0.19303 0.0
Li353 Li 0.66374 0.56102 0.19201 0.0
Li354 Li 0.66384 0.5478 0.16478 0.0
Li355 Li 0.67797 0.55074 0.19153 0.0
C356 C 0.63502 0.54189 0.17699 0.0
N357 N 0.60757 0.52962 0.17776 0.0
C358 C 0.62879 0.5479 0.18621 0.0
C359 C 0.62729 0.52972 0.16799 0.0
C360 C 0.6149 0.54152 0.18647 0.0
C361 C 0.61343 0.52365 0.1686 0.0
C362 C 0.66813 0.55383 0.22909 0.0
C363 C 0.68359 0.56711 0.25303 0.0
N364 N 0.6735 0.56191 0.26558 0.0
C365 C 0.65795 0.54849 0.24227 0.0
C366 C 0.68109 0.56311 0.23454 0.0
C367 C 0.66085 0.55276 0.26063 0.0
C368 C 0.6386 0.50935 0.20217 0.0
N369 N 0.63864 0.52104 0.2037 0.0
C370 C 0.61807 0.51035 0.22028 0.0
C371 C 0.62878 0.52178 0.2128 0.0
C372 C 0.61766 0.49805 0.21888 0.0
C373 C 0.62822 0.4977 0.20978 0.0
H374 H 0.64669 0.50909 0.19513 0.0
H375 H 0.62918 0.53125 0.21417 0.0
C376 C 0.66551 0.5858 0.18678 0.0
N377 N 0.66234 0.57596 0.19939 0.0
C378 C 0.6637 0.59654 0.191 0.0
C379 C 0.65552 0.58686 0.22116 0.0
C380 C 0.65746 0.57631 0.21634 0.0
C381 C 0.6585 0.59708 0.20832 0.0
H382 H 0.66919 0.58516 0.1733 0.0
H383 H 0.65462 0.56819 0.22589 0.0
C384 C 0.66723 0.52676 0.16442 0.0
N385 N 0.6702 0.5127 0.13577 0.0
C386 C 0.67986 0.52889 0.15985 0.0
C387 C 0.6561 0.51738 0.15459 0.0
C388 C 0.68115 0.5217 0.14528 0.0
C389 C 0.65781 0.51041 0.1401 0.0
C390 C 0.68992 0.57682 0.17438 0.0
C391 C 0.69722 0.58146 0.15799 0.0
C392 C 0.69418 0.58477 0.19023 0.0
C393 C 0.70878 0.59394 0.15781 0.0
C394 C 0.70578 0.5972 0.18949 0.0
N395 N 0.71279 0.60148 0.17344 0.0
C396 C 0.65248 0.54525 0.12937 0.0
C397 C 0.6744 0.54863 0.12947 0.0
C398 C 0.6522 0.54493 0.11007 0.0
N399 N 0.66345 0.54702 0.1386 0.0
C400 C 0.67451 0.54825 0.11019 0.0
C401 C 0.66332 0.54643 0.1002 0.0
H402 H 0.64402 0.54427 0.13697 0.0
H403 H 0.68307 0.55025 0.13718 0.0
C404 C 0.69274 0.54259 0.21234 0.0
N405 N 0.69401 0.55186 0.19976 0.0
C406 C 0.70399 0.54241 0.21878 0.0
C407 C 0.71763 0.56142 0.19935 0.0
C408 C 0.70611 0.56112 0.19309 0.0
C409 C 0.71662 0.55194 0.21229 0.0
H410 H 0.68296 0.5353 0.21727 0.0
H411 H 0.70688 0.56817 0.18276 0.0
O412 O 0.64861 0.54795 0.1767 0.0
O413 O 0.66547 0.54965 0.21109 0.0
O414 O 0.66579 0.53383 0.17848 0.0
O415 O 0.6786 0.56461 0.17475 0.0
H416 H 0.63462 0.55735 0.19315 0.0
H417 H 0.63196 0.52497 0.16074 0.0
H418 H 0.60994 0.54602 0.19362 0.0
H419 H 0.60733 0.51418 0.1618 0.0
H420 H 0.69357 0.57431 0.25741 0.0
H421 H 0.6479 0.5412 0.23836 0.0
H422 H 0.68918 0.56709 0.22468 0.0
H423 H 0.65304 0.54878 0.27094 0.0
H424 H 0.61014 0.51119 0.22688 0.0
H425 H 0.62857 0.48857 0.20868 0.0
H426 H 0.66616 0.60423 0.18073 0.0
H427 H 0.6512 0.58672 0.2345 0.0
H428 H 0.68858 0.5361 0.16736 0.0
H429 H 0.64625 0.51555 0.15807 0.0
H430 H 0.69087 0.5233 0.14151 0.0
H431 H 0.64929 0.50317 0.13229 0.0
H432 H 0.69402 0.57546 0.14556 0.0
H433 H 0.68852 0.58147 0.20291 0.0
H434 H 0.71456 0.59763 0.14525 0.0
H435 H 0.70919 0.60346 0.20166 0.0
H436 H 0.64346 0.54379 0.10299 0.0
H437 H 0.68325 0.54931 0.10322 0.0
H438 H 0.70285 0.53498 0.22883 0.0
H439 H 0.72721 0.56881 0.19385 0.0
Li440 Li 0.11726 0.66623 0.16348 0.0
Li441 Li 0.12618 0.67687 0.19194 0.0
Li442 Li 0.11646 0.65269 0.19097 0.0
Li443 Li 0.10288 0.66388 0.18969 0.0
C444 C 0.14551 0.67414 0.17656 0.0
N445 N 0.17282 0.69071 0.17687 0.0
C446 C 0.15186 0.68284 0.16181 0.0
C447 C 0.15306 0.67381 0.19141 0.0
C448 C 0.16568 0.69114 0.16222 0.0
C449 C 0.16685 0.6823 0.19134 0.0
C450 C 0.12011 0.69339 0.17463 0.0
C451 C 0.12556 0.71417 0.18938 0.0
N452 N 0.13202 0.72083 0.17378 0.0
C453 C 0.12677 0.70044 0.15873 0.0
C454 C 0.11944 0.7003 0.19007 0.0
C455 C 0.13274 0.7143 0.15858 0.0
C456 C 0.11083 0.67095 0.12795 0.0
N457 N 0.11825 0.66681 0.13734 0.0
C458 C 0.12621 0.66264 0.1091 0.0
C459 C 0.1258 0.66262 0.1284 0.0
C460 C 0.1187 0.66695 0.09898 0.0
C461 C 0.11091 0.67111 0.10866 0.0
H462 H 0.10475 0.67402 0.13549 0.0
H463 H 0.13145 0.65921 0.13628 0.0
C464 C 0.14186 0.69214 0.22197 0.0
N465 N 0.14053 0.69229 0.2033 0.0
C466 C 0.15231 0.70297 0.23097 0.0
C467 C 0.15984 0.71391 0.20137 0.0
C468 C 0.14932 0.70285 0.19295 0.0
C469 C 0.16143 0.71405 0.22062 0.0
H470 H 0.13486 0.68356 0.22988 0.0
H471 H 0.14826 0.70266 0.17811 0.0
C472 C 0.09496 0.64365 0.15797 0.0
N473 N 0.08207 0.63301 0.12487 0.0
C474 C 0.08475 0.64586 0.15204 0.0
C475 C 0.09862 0.63604 0.14706 0.0
C476 C 0.07834 0.64037 0.13528 0.0
C477 C 0.09199 0.63076 0.13037 0.0
C478 C 0.10592 0.66056 0.22474 0.0
C479 C 0.09827 0.64733 0.23052 0.0
C480 C 0.10451 0.67049 0.23362 0.0
C481 C 0.08922 0.64424 0.24502 0.0
C482 C 0.09534 0.66699 0.24804 0.0
N483 N 0.08794 0.65405 0.25339 0.0
C484 C 0.12527 0.63916 0.21413 0.0
C485 C 0.10866 0.62541 0.19255 0.0
C486 C 0.12557 0.62817 0.22143 0.0
N487 N 0.11697 0.63759 0.19988 0.0
C488 C 0.10862 0.61414 0.19942 0.0
C489 C 0.11716 0.61544 0.21407 0.0
H490 H 0.13148 0.64893 0.22004 0.0
H491 H 0.10194 0.6244 0.18151 0.0
C492 C 0.08363 0.67159 0.1982 0.0
N493 N 0.086 0.66127 0.19677 0.0
C494 C 0.07116 0.66931 0.20393 0.0
C495 C 0.06379 0.64582 0.20616 0.0
C496 C 0.07639 0.64856 0.20048 0.0
C497 C 0.06106 0.65628 0.20799 0.0
H498 H 0.0914 0.68157 0.19494 0.0
H499 H 0.07858 0.64056 0.19915 0.0
O500 O 0.13198 0.66605 0.1765 0.0
O501 O 0.11417 0.67981 0.175 0.0
O502 O 0.10164 0.64929 0.17405 0.0
O503 O 0.11456 0.66374 0.21023 0.0
H504 H 0.14618 0.68336 0.15031 0.0
H505 H 0.14831 0.6672 0.20297 0.0
H506 H 0.17071 0.69798 0.15096 0.0
H507 H 0.1728 0.68222 0.20281 0.0
H508 H 0.1252 0.71965 0.20128 0.0
H509 H 0.12748 0.69528 0.14669 0.0
H510 H 0.11444 0.69504 0.20255 0.0
H511 H 0.13798 0.71988 0.14639 0.0
H512 H 0.13242 0.65945 0.1022 0.0
H513 H 0.10479 0.67427 0.10142 0.0
H514 H 0.15319 0.70273 0.24587 0.0
H515 H 0.1668 0.72216 0.19285 0.0
H516 H 0.08191 0.65188 0.16015 0.0
H517 H 0.10669 0.63448 0.15124 0.0
H518 H 0.07045 0.64203 0.13049 0.0
H519 H 0.09479 0.62494 0.12172 0.0
H520 H 0.09917 0.6395 0.22373 0.0
H521 H 0.11037 0.68077 0.22932 0.0
H522 H 0.08317 0.63404 0.24957 0.0
H523 H 0.09408 0.67456 0.25496 0.0
H524 H 0.13211 0.62959 0.23296 0.0
H525 H 0.10203 0.60453 0.19325 0.0
H526 H 0.0694 0.67762 0.205 0.0
H527 H 0.05635 0.63565 0.2094 0.0
Li528 Li 0.86832 0.54848 0.30542 0.0
Li529 Li 0.87812 0.54705 0.33472 0.0
Li530 Li 0.89204 0.55857 0.3074 0.0
Li531 Li 0.87929 0.53439 0.30782 0.0
C532 C 0.87577 0.57179 0.32345 0.0
N533 N 0.86553 0.58872 0.32627 0.0
C534 C 0.87067 0.57317 0.3403 0.0
C535 C 0.87576 0.5791 0.30807 0.0
C536 C 0.86552 0.58177 0.34144 0.0
C537 C 0.8705 0.58757 0.30976 0.0
C538 C 0.85259 0.52198 0.32902 0.0
C539 C 0.84177 0.49974 0.34172 0.0
N540 N 0.83071 0.50063 0.3452 0.0
C541 C 0.84105 0.52257 0.33252 0.0
C542 C 0.8529 0.51039 0.33348 0.0
C543 C 0.83013 0.51172 0.3408 0.0
C544 C 0.85118 0.54657 0.27647 0.0
N545 N 0.85376 0.5493 0.29478 0.0
C546 C 0.83554 0.55328 0.29777 0.0
C547 C 0.8461 0.55245 0.30551 0.0
C548 C 0.83267 0.55056 0.2789 0.0
C549 C 0.84056 0.54706 0.26819 0.0
H550 H 0.85737 0.54397 0.2683 0.0
H551 H 0.84815 0.55428 0.32012 0.0
C552 C 0.88861 0.5538 0.37048 0.0
N553 N 0.87699 0.54744 0.3609 0.0
C554 C 0.88849 0.55432 0.38975 0.0
C555 C 0.86443 0.54207 0.38892 0.0
C556 C 0.86502 0.54177 0.36966 0.0
C557 C 0.87628 0.54835 0.39922 0.0
H558 H 0.89799 0.55839 0.36313 0.0
H559 H 0.85593 0.53713 0.36174 0.0
C560 C 0.88812 0.55201 0.27251 0.0
N561 N 0.90488 0.56384 0.24272 0.0
C562 C 0.8962 0.54707 0.26615 0.0
C563 C 0.88845 0.56286 0.26361 0.0
C564 C 0.90463 0.55321 0.25109 0.0
C565 C 0.89703 0.56874 0.24861 0.0
C566 C 0.89847 0.53993 0.33597 0.0
C567 C 0.91206 0.54415 0.33659 0.0
C568 C 0.88959 0.52924 0.34695 0.0
C569 C 0.91651 0.53745 0.34801 0.0
C570 C 0.89442 0.5228 0.35821 0.0
N571 N 0.90767 0.527 0.35849 0.0
C572 C 0.91092 0.58544 0.2975 0.0
C573 C 0.91826 0.56972 0.29568 0.0
C574 C 0.92326 0.59555 0.2912 0.0
N575 N 0.90868 0.57283 0.2995 0.0
C576 C 0.93073 0.57949 0.28946 0.0
C577 C 0.93336 0.59261 0.28715 0.0
H578 H 0.90315 0.58766 0.30075 0.0
H579 H 0.91613 0.55956 0.29725 0.0
C580 C 0.8672 0.50913 0.29126 0.0
N581 N 0.87859 0.51852 0.29952 0.0
C582 C 0.86628 0.4974 0.28455 0.0
C583 C 0.88883 0.50528 0.2949 0.0
C584 C 0.88937 0.5169 0.30122 0.0
C585 C 0.87718 0.49537 0.28642 0.0
H586 H 0.85885 0.51077 0.2899 0.0
H587 H 0.89846 0.52469 0.30723 0.0
O588 O 0.8808 0.56338 0.3221 0.0
O589 O 0.86331 0.53246 0.32064 0.0
O590 O 0.88008 0.54637 0.28755 0.0
O591 O 0.89397 0.54638 0.32481 0.0
H592 H 0.87065 0.56765 0.35237 0.0
H593 H 0.87958 0.57808 0.2949 0.0
H594 H 0.86149 0.5829 0.35437 0.0
H595 H 0.87034 0.5932 0.29794 0.0
H596 H 0.84191 0.49075 0.34528 0.0
H597 H 0.84055 0.53138 0.3291 0.0
H598 H 0.86157 0.50954 0.33051 0.0
H599 H 0.82118 0.51212 0.34371 0.0
H600 H 0.82953 0.5558 0.30651 0.0
H601 H 0.83861 0.5449 0.25358 0.0
H602 H 0.89787 0.55919 0.39715 0.0
H603 H 0.8548 0.53757 0.39564 0.0
H604 H 0.89607 0.53868 0.27292 0.0
H605 H 0.88222 0.56677 0.26833 0.0
H606 H 0.911 0.54956 0.2461 0.0
H607 H 0.89746 0.57721 0.24166 0.0
H608 H 0.9191 0.55249 0.32832 0.0
H609 H 0.87913 0.52608 0.347 0.0
H610 H 0.92699 0.54057 0.34857 0.0
H611 H 0.88765 0.51452 0.36679 0.0
H612 H 0.92493 0.60557 0.28971 0.0
H613 H 0.93817 0.57676 0.28619 0.0
H614 H 0.85712 0.48996 0.27811 0.0
H615 H 0.89754 0.50419 0.29626 0.0
Li616 Li 0.33156 0.88112 0.33085 0.0
Li617 Li 0.31787 0.8679 0.30507 0.0
Li618 Li 0.34213 0.87872 0.3037 0.0
Li619 Li 0.33067 0.89153 0.30193 0.0
C620 C 0.32877 0.85733 0.33594 0.0
N621 N 0.32614 0.84352 0.36828 0.0
C622 C 0.31629 0.84694 0.34134 0.0
C623 C 0.33992 0.86064 0.34693 0.0
C624 C 0.31517 0.84008 0.35774 0.0
C625 C 0.33837 0.85356 0.36326 0.0
C626 C 0.31097 0.88947 0.32165 0.0
C627 C 0.29848 0.89935 0.30966 0.0
N628 N 0.30186 0.90731 0.32485 0.0
C629 C 0.3143 0.89774 0.33715 0.0
C630 C 0.30297 0.89024 0.3078 0.0
C631 C 0.30959 0.90669 0.33851 0.0
C632 C 0.34333 0.89134 0.36596 0.0
N633 N 0.3321 0.88237 0.357 0.0
C634 C 0.32085 0.87367 0.38566 0.0
C635 C 0.32089 0.87382 0.36639 0.0
C636 C 0.33238 0.88264 0.39541 0.0
C637 C 0.34369 0.89168 0.38527 0.0
H638 H 0.35202 0.8982 0.35813 0.0
H639 H 0.31204 0.86692 0.35884 0.0
C640 C 0.30235 0.84131 0.29339 0.0
N641 N 0.30183 0.85227 0.29878 0.0
C642 C 0.29072 0.8297 0.28842 0.0
C643 C 0.27825 0.84086 0.29482 0.0
C644 C 0.29011 0.85223 0.29975 0.0
C645 C 0.27848 0.82942 0.28903 0.0
H646 H 0.31184 0.84165 0.29289 0.0
H647 H 0.28998 0.86101 0.30436 0.0
C648 C 0.35988 0.90278 0.31478 0.0
N649 N 0.38706 0.91699 0.30895 0.0
C650 C 0.36524 0.91279 0.30136 0.0
C651 C 0.36834 0.90004 0.32531 0.0
C652 C 0.37901 0.91987 0.29862 0.0
C653 C 0.38205 0.90732 0.32212 0.0
C654 C 0.32353 0.86976 0.26997 0.0
C655 C 0.32832 0.86166 0.26319 0.0
C656 C 0.31189 0.86867 0.26253 0.0
C657 C 0.32135 0.85255 0.24911 0.0
C658 C 0.30519 0.85941 0.2485 0.0
N659 N 0.31002 0.85162 0.24213 0.0
C660 C 0.35967 0.86836 0.30157 0.0
C661 C 0.36399 0.88561 0.2803 0.0
C662 C 0.37047 0.86745 0.29479 0.0
N663 N 0.35675 0.87742 0.29438 0.0
C664 C 0.37493 0.88513 0.2732 0.0
C665 C 0.37831 0.87596 0.28045 0.0
H666 H 0.35357 0.86176 0.31248 0.0
H667 H 0.36129 0.89257 0.27465 0.0
C668 C 0.33599 0.91799 0.30215 0.0
N669 N 0.33145 0.90691 0.29148 0.0
C670 C 0.33715 0.92964 0.29478 0.0
C671 C 0.32878 0.9182 0.26566 0.0
C672 C 0.32783 0.90678 0.27358 0.0
C673 C 0.33363 0.92988 0.27624 0.0
H674 H 0.33894 0.91781 0.3163 0.0
H675 H 0.32436 0.89787 0.26538 0.0
O676 O 0.33003 0.86433 0.3201 0.0
O677 O 0.31572 0.88084 0.31987 0.0
O678 O 0.3464 0.89559 0.31746 0.0
O679 O 0.33005 0.87854 0.28403 0.0
H680 H 0.30754 0.8443 0.33309 0.0
H681 H 0.34963 0.86871 0.34304 0.0
H682 H 0.30557 0.83206 0.36214 0.0
H683 H 0.3469 0.85609 0.37197 0.0
H684 H 0.29237 0.90013 0.29898 0.0
H685 H 0.32055 0.89735 0.34795 0.0
H686 H 0.30046 0.88407 0.29557 0.0
H687 H 0.31213 0.91318 0.3504 0.0
H688 H 0.31194 0.86641 0.3928 0.0
H689 H 0.35271 0.89897 0.39215 0.0
H690 H 0.29133 0.82112 0.28388 0.0
H691 H 0.26899 0.84097 0.29573 0.0
H692 H 0.35885 0.91499 0.29299 0.0
H693 H 0.36435 0.89228 0.33566 0.0
H694 H 0.3833 0.9276 0.28823 0.0
H695 H 0.38871 0.90524 0.33007 0.0
H696 H 0.33725 0.8623 0.26885 0.0
H697 H 0.30792 0.87471 0.26781 0.0
H698 H 0.32492 0.84619 0.24377 0.0
H699 H 0.29611 0.85838 0.24273 0.0
H700 H 0.37252 0.86004 0.30055 0.0
H701 H 0.38075 0.89199 0.2623 0.0
H702 H 0.34116 0.93846 0.30336 0.0
H703 H 0.32584 0.9179 0.25137 0.0
Li704 Li 0.44025 0.33119 0.30971 0.0
Li705 Li 0.46459 0.34262 0.31018 0.0
Li706 Li 0.45109 0.31828 0.3086 0.0
Li707 Li 0.45219 0.33021 0.33694 0.0
C708 C 0.45384 0.32664 0.27397 0.0
N709 N 0.4572 0.31598 0.24161 0.0
C710 C 0.4662 0.33271 0.26508 0.0
C711 C 0.44316 0.3152 0.26633 0.0
C712 C 0.4677 0.32716 0.24874 0.0
C713 C 0.44507 0.30994 0.24999 0.0
C714 C 0.4586 0.35943 0.32668 0.0
C715 C 0.4765 0.38067 0.33699 0.0
N716 N 0.47148 0.38693 0.32663 0.0
C717 C 0.45358 0.36607 0.31619 0.0
C718 C 0.47011 0.36678 0.33724 0.0
C719 C 0.46024 0.37998 0.31634 0.0
C720 C 0.41944 0.33713 0.31303 0.0
N721 N 0.42571 0.33293 0.30122 0.0
C722 C 0.41347 0.33428 0.27561 0.0
C723 C 0.42273 0.3312 0.28291 0.0
C724 C 0.40735 0.33934 0.28725 0.0
C725 C 0.41013 0.34038 0.3063 0.0
H726 H 0.42217 0.33859 0.3275 0.0
H727 H 0.42794 0.32798 0.27381 0.0
C728 C 0.49245 0.35929 0.30589 0.0
N729 N 0.48036 0.3578 0.30162 0.0
C730 C 0.50409 0.37044 0.29966 0.0
C731 C 0.49058 0.37829 0.28486 0.0
C732 C 0.47922 0.36685 0.29101 0.0
C733 C 0.50318 0.38014 0.28919 0.0
H734 H 0.49305 0.3518 0.31407 0.0
H735 H 0.46947 0.3652 0.28735 0.0
C736 C 0.423 0.31014 0.3273 0.0
N737 N 0.39603 0.30053 0.33141 0.0
C738 C 0.41813 0.31278 0.34347 0.0
C739 C 0.41417 0.30256 0.31325 0.0
C740 C 0.40446 0.30784 0.34528 0.0
C741 C 0.40056 0.29781 0.31558 0.0
C742 C 0.47335 0.32706 0.33802 0.0
C743 C 0.47119 0.31422 0.341 0.0
C744 C 0.48182 0.33741 0.34981 0.0
C745 C 0.47745 0.31192 0.35591 0.0
C746 C 0.48786 0.33469 0.36459 0.0
N747 N 0.48556 0.32211 0.36732 0.0
C748 C 0.46101 0.30391 0.28945 0.0
C749 C 0.43984 0.29065 0.30339 0.0
C750 C 0.4608 0.2926 0.2825 0.0
N751 N 0.45053 0.30274 0.29941 0.0
C752 C 0.43934 0.27905 0.29704 0.0
C753 C 0.44988 0.27999 0.28635 0.0
H754 H 0.46952 0.31366 0.28693 0.0
H755 H 0.43176 0.29002 0.31162 0.0
C756 C 0.4537 0.33957 0.37357 0.0
N757 N 0.45201 0.3291 0.36311 0.0
C758 C 0.45374 0.3388 0.39284 0.0
C759 C 0.45022 0.31648 0.39014 0.0
C760 C 0.45004 0.3176 0.37095 0.0
C761 C 0.4521 0.32718 0.40131 0.0
H762 H 0.45498 0.34849 0.36697 0.0
H763 H 0.44839 0.30933 0.36226 0.0
O764 O 0.45221 0.33185 0.29009 0.0
O765 O 0.45232 0.34582 0.32653 0.0
O766 O 0.43637 0.31513 0.32509 0.0
O767 O 0.46714 0.32947 0.32369 0.0
H768 H 0.47458 0.34156 0.27078 0.0
H769 H 0.43356 0.31031 0.27312 0.0
H770 H 0.47722 0.33172 0.24174 0.0
H771 H 0.43693 0.30104 0.24401 0.0
H772 H 0.48547 0.38648 0.345 0.0
H773 H 0.44475 0.36058 0.30782 0.0
H774 H 0.47415 0.36181 0.34539 0.0
H775 H 0.45652 0.38525 0.30821 0.0
H776 H 0.4115 0.33318 0.26088 0.0
H777 H 0.40576 0.34439 0.31573 0.0
H778 H 0.51368 0.37157 0.30318 0.0
H779 H 0.48955 0.38551 0.27658 0.0
H780 H 0.42485 0.31869 0.35444 0.0
H781 H 0.4178 0.30049 0.30061 0.0
H782 H 0.40054 0.30985 0.35769 0.0
H783 H 0.39361 0.292 0.30478 0.0
H784 H 0.46466 0.30608 0.33203 0.0
H785 H 0.48361 0.3474 0.34767 0.0
H786 H 0.47581 0.30202 0.35846 0.0
H787 H 0.49436 0.34259 0.37391 0.0
H788 H 0.46918 0.29366 0.27449 0.0
H789 H 0.43077 0.26945 0.30025 0.0
H790 H 0.45522 0.34726 0.40102 0.0
H791 H 0.44872 0.30728 0.3962 0.0
Li792 Li 0.11517 0.45988 0.30485 0.0
Li793 Li 0.10231 0.43568 0.3023 0.0
Li794 Li 0.11302 0.44648 0.33133 0.0
Li795 Li 0.12598 0.44642 0.30493 0.0
C796 C 0.09129 0.45346 0.31635 0.0
N797 N 0.07733 0.46675 0.3111 0.0
C798 C 0.08142 0.44918 0.30276 0.0
C799 C 0.09401 0.46446 0.32735 0.0
C800 C 0.07448 0.45604 0.30032 0.0
C801 C 0.08687 0.47107 0.32444 0.0
C802 C 0.12367 0.45071 0.27008 0.0
C803 C 0.13354 0.44291 0.24754 0.0
N804 N 0.14128 0.4556 0.24138 0.0
C805 C 0.13171 0.46368 0.26352 0.0
C806 C 0.12455 0.44023 0.26201 0.0
C807 C 0.14054 0.46594 0.24898 0.0
C808 C 0.12442 0.4877 0.30469 0.0
N809 N 0.11621 0.47588 0.29633 0.0
C810 C 0.10845 0.48639 0.27532 0.0
C811 C 0.10842 0.47504 0.28176 0.0
C812 C 0.11668 0.49874 0.28384 0.0
C813 C 0.12481 0.49932 0.29865 0.0
H814 H 0.13062 0.4881 0.3161 0.0
H815 H 0.10214 0.46552 0.27522 0.0
C816 C 0.07588 0.41425 0.30236 0.0
N817 N 0.08683 0.42132 0.29162 0.0
C818 C 0.0642 0.404 0.29467 0.0
C819 C 0.07535 0.40847 0.26507 0.0
C820 C 0.0868 0.41863 0.27333 0.0
C821 C 0.06379 0.40109 0.27572 0.0
H822 H 0.07617 0.41676 0.31683 0.0
H823 H 0.09559 0.4245 0.26508 0.0
C824 C 0.13694 0.46722 0.33651 0.0
N825 N 0.15114 0.47748 0.36886 0.0
C826 C 0.14745 0.46507 0.34096 0.0
C827 C 0.13372 0.47467 0.34846 0.0
C828 C 0.1545 0.47034 0.35739 0.0
C829 C 0.14099 0.47974 0.36478 0.0
C830 C 0.10455 0.41768 0.32089 0.0
C831 C 0.09652 0.41243 0.33655 0.0
C832 C 0.10361 0.40917 0.30652 0.0
C833 C 0.08762 0.39874 0.33756 0.0
C834 C 0.09457 0.39555 0.30803 0.0
N835 N 0.08683 0.39066 0.32339 0.0
C836 C 0.10311 0.44749 0.36689 0.0
C837 C 0.12063 0.44253 0.36641 0.0
C838 C 0.10297 0.4473 0.38621 0.0
N839 N 0.11199 0.44531 0.35748 0.0
C840 C 0.12096 0.44243 0.38568 0.0
C841 C 0.11212 0.44494 0.39579 0.0
H842 H 0.09624 0.4495 0.35942 0.0
H843 H 0.1274 0.4406 0.3585 0.0
C844 C 0.15228 0.45728 0.29181 0.0
N845 N 0.14143 0.44592 0.29777 0.0
C846 C 0.16364 0.45706 0.286 0.0
C847 C 0.1525 0.43351 0.2929 0.0
C848 C 0.14137 0.43419 0.2986 0.0
C849 C 0.1638 0.44503 0.28641 0.0
H850 H 0.15204 0.46649 0.29146 0.0
H851 H 0.13269 0.42537 0.30369 0.0
O852 O 0.09841 0.44708 0.31868 0.0
O853 O 0.11514 0.44833 0.28454 0.0
O854 O 0.12975 0.46193 0.32066 0.0
O855 O 0.11314 0.43109 0.31948 0.0
H856 H 0.07925 0.44076 0.29402 0.0
H857 H 0.1017 0.46798 0.33781 0.0
H858 H 0.06686 0.45288 0.2898 0.0
H859 H 0.08894 0.47965 0.33275 0.0
H860 H 0.13441 0.4349 0.24127 0.0
H861 H 0.13125 0.47194 0.26967 0.0
H862 H 0.11856 0.43016 0.2671 0.0
H863 H 0.14686 0.47594 0.2438 0.0
H864 H 0.1022 0.48553 0.26367 0.0
H865 H 0.13124 0.50862 0.30568 0.0
H866 H 0.05546 0.39873 0.30333 0.0
H867 H 0.0755 0.40649 0.25045 0.0
H868 H 0.15004 0.45927 0.33196 0.0
H869 H 0.12553 0.47631 0.34535 0.0
H870 H 0.16261 0.46869 0.36105 0.0
H871 H 0.13852 0.48541 0.37423 0.0
H872 H 0.09704 0.41886 0.34776 0.0
H873 H 0.10961 0.41308 0.29418 0.0
H874 H 0.08131 0.39455 0.34957 0.0
H875 H 0.09366 0.38887 0.29696 0.0
H876 H 0.09601 0.44929 0.39357 0.0
H877 H 0.12803 0.44038 0.3926 0.0
H878 H 0.1721 0.46615 0.28095 0.0
H879 H 0.1523 0.42409 0.29373 0.0
Li880 Li 0.6638 0.11555 0.33439 0.0
Li881 Li 0.67753 0.12882 0.30863 0.0
Li882 Li 0.65322 0.11758 0.30705 0.0
Li883 Li 0.66502 0.10507 0.30582 0.0
C884 C 0.66687 0.13917 0.33943 0.0
N885 N 0.67047 0.15269 0.37233 0.0
C886 C 0.67969 0.14848 0.34533 0.0
C887 C 0.65588 0.13678 0.35019 0.0
C888 C 0.6813 0.15521 0.36201 0.0
C889 C 0.65791 0.14369 0.36681 0.0
C890 C 0.6849 0.10772 0.32512 0.0
C891 C 0.6987 0.09926 0.31337 0.0
N892 N 0.69453 0.09027 0.32744 0.0
C893 C 0.68075 0.0984 0.33947 0.0
C894 C 0.69396 0.10818 0.31197 0.0
C895 C 0.68575 0.08967 0.3404 0.0
C896 C 0.65174 0.10781 0.37002 0.0
N897 N 0.66341 0.11456 0.36061 0.0
C898 C 0.67571 0.12145 0.38885 0.0
C899 C 0.67527 0.12122 0.36957 0.0
C900 C 0.66381 0.1148 0.39896 0.0
C901 C 0.6517 0.10787 0.38933 0.0
H902 H 0.64247 0.10248 0.36257 0.0
H903 H 0.68439 0.1265 0.36168 0.0
C904 C 0.69233 0.15436 0.29328 0.0
N905 N 0.69338 0.14458 0.30214 0.0
C906 C 0.70372 0.1657 0.28704 0.0
C907 C 0.71709 0.15717 0.30044 0.0
C908 C 0.70541 0.14585 0.3061 0.0
C909 C 0.71626 0.16712 0.2905 0.0
H910 H 0.68261 0.15317 0.2907 0.0
H911 H 0.70593 0.13801 0.31347 0.0
C912 C 0.63557 0.09367 0.31867 0.0
N913 N 0.60832 0.07947 0.31335 0.0
C914 C 0.62997 0.08294 0.30635 0.0
C915 C 0.6273 0.09716 0.32828 0.0
C916 C 0.61617 0.07588 0.30387 0.0
C917 C 0.61356 0.08987 0.32538 0.0
C918 C 0.67164 0.12599 0.27289 0.0
C919 C 0.66581 0.13259 0.26418 0.0
C920 C 0.68382 0.12784 0.26643 0.0
C921 C 0.67231 0.14098 0.24921 0.0
C922 C 0.69002 0.13635 0.25146 0.0
N923 N 0.68419 0.14268 0.24323 0.0
C924 C 0.63587 0.12808 0.30368 0.0
C925 C 0.63096 0.10983 0.28404 0.0
C926 C 0.62494 0.12871 0.29685 0.0
N927 N 0.63855 0.11864 0.29734 0.0
C928 C 0.61984 0.10998 0.277 0.0
C929 C 0.61666 0.1195 0.28342 0.0
H930 H 0.64224 0.13514 0.31399 0.0
H931 H 0.63348 0.10257 0.27904 0.0
C932 C 0.659 0.07826 0.30507 0.0
N933 N 0.66469 0.08986 0.29542 0.0
C934 C 0.65748 0.06666 0.29693 0.0
C935 C 0.6684 0.07939 0.2695 0.0
C936 C 0.66954 0.09067 0.27808 0.0
C937 C 0.66196 0.06707 0.27873 0.0
H938 H 0.65518 0.07792 0.31884 0.0
H939 H 0.67399 0.1 0.2707 0.0
O940 O 0.66511 0.13218 0.32342 0.0
O941 O 0.67985 0.11611 0.32368 0.0
O942 O 0.64908 0.10082 0.32112 0.0
O943 O 0.66549 0.11783 0.2877 0.0
H944 H 0.68832 0.15039 0.33725 0.0
H945 H 0.6459 0.12952 0.34591 0.0
H946 H 0.69117 0.1624 0.36681 0.0
H947 H 0.6495 0.14187 0.37535 0.0
H948 H 0.70566 0.09945 0.30324 0.0
H949 H 0.67363 0.0978 0.34964 0.0
H950 H 0.69714 0.11522 0.30065 0.0
H951 H 0.68259 0.08238 0.35139 0.0
H952 H 0.68524 0.127 0.39577 0.0
H953 H 0.64233 0.10248 0.39665 0.0
H954 H 0.70276 0.17329 0.2796 0.0
H955 H 0.72664 0.15799 0.30335 0.0
H956 H 0.63619 0.08018 0.29859 0.0
H957 H 0.63146 0.1056 0.33757 0.0
H958 H 0.61171 0.06758 0.29434 0.0
H959 H 0.60706 0.09254 0.33262 0.0
H960 H 0.65642 0.13133 0.26898 0.0
H961 H 0.68861 0.12303 0.27319 0.0
H962 H 0.66793 0.14618 0.24239 0.0
H963 H 0.69951 0.13797 0.24646 0.0
H964 H 0.62308 0.13642 0.30193 0.0
H965 H 0.61371 0.10256 0.26685 0.0
H966 H 0.6523 0.05739 0.30452 0.0
H967 H 0.67222 0.08025 0.25559 0.0
Li968 Li 0.54697 0.67863 0.30895 0.0
Li969 Li 0.54628 0.66576 0.33618 0.0
Li970 Li 0.55641 0.66439 0.30611 0.0
Li971 Li 0.53223 0.65374 0.30922 0.0
C972 C 0.57073 0.69312 0.32518 0.0
N973 N 0.58744 0.72023 0.32926 0.0
C974 C 0.57182 0.69917 0.34231 0.0
C975 C 0.57826 0.70082 0.31019 0.0
C976 C 0.5803 0.7129 0.34408 0.0
C977 C 0.58661 0.71452 0.31251 0.0
C978 C 0.52115 0.66566 0.3359 0.0
C979 C 0.50148 0.65144 0.35372 0.0
N980 N 0.50009 0.66213 0.3578 0.0
C981 C 0.51943 0.67647 0.34008 0.0
C982 C 0.51203 0.65302 0.34262 0.0
C983 C 0.50876 0.6745 0.35125 0.0
C984 C 0.54668 0.69656 0.28307 0.0
N985 N 0.54806 0.69476 0.30132 0.0
C986 C 0.55085 0.71609 0.30863 0.0
C987 C 0.54998 0.70415 0.31411 0.0
C988 C 0.54953 0.71829 0.28982 0.0
C989 C 0.54737 0.7083 0.27698 0.0
H990 H 0.5449 0.68882 0.27325 0.0
H991 H 0.55081 0.70235 0.32858 0.0
C992 C 0.55422 0.66046 0.37054 0.0
N993 N 0.54771 0.66612 0.36235 0.0
C994 C 0.55554 0.66073 0.38977 0.0
C995 C 0.54349 0.67271 0.39169 0.0
C996 C 0.54253 0.67232 0.37247 0.0
C997 C 0.5501 0.6669 0.40064 0.0
H998 H 0.55843 0.65578 0.36209 0.0
H999 H 0.53776 0.67709 0.36564 0.0
C1000 C 0.5475 0.66418 0.2718 0.0
N1001 N 0.55581 0.66109 0.23725 0.0
C1002 C 0.54007 0.65231 0.26198 0.0
C1003 C 0.55906 0.67454 0.26393 0.0
C1004 C 0.54446 0.65093 0.24456 0.0
C1005 C 0.56313 0.67277 0.24649 0.0
C1006 C 0.5393 0.63726 0.3304 0.0
C1007 C 0.54256 0.6282 0.3227 0.0
C1008 C 0.53082 0.6335 0.34571 0.0
C1009 C 0.53702 0.61541 0.33018 0.0
C1010 C 0.5255 0.62063 0.35281 0.0
N1011 N 0.52866 0.61191 0.34494 0.0
C1012 C 0.58307 0.67133 0.29772 0.0
C1013 C 0.56621 0.65149 0.28384 0.0
C1014 C 0.59296 0.66982 0.28889 0.0
N1015 N 0.57001 0.66225 0.29493 0.0
C1016 C 0.57572 0.64971 0.27453 0.0
C1017 C 0.58928 0.65897 0.27698 0.0
H1018 H 0.5858 0.67973 0.30675 0.0
H1019 H 0.55575 0.64433 0.28212 0.0
C1020 C 0.50542 0.64186 0.29847 0.0
N1021 N 0.51561 0.63944 0.30121 0.0
C1022 C 0.49315 0.6318 0.29193 0.0
C1023 C 0.50217 0.61699 0.2909 0.0
C1024 C 0.51425 0.62734 0.29745 0.0
C1025 C 0.49142 0.61916 0.28803 0.0
H1026 H 0.50686 0.65166 0.30124 0.0
H1027 H 0.52263 0.6258 0.29907 0.0
O1028 O 0.56238 0.67971 0.32313 0.0
O1029 O 0.53156 0.66745 0.32496 0.0
O1030 O 0.54347 0.66563 0.28899 0.0
O1031 O 0.54469 0.64984 0.32324 0.0
H1032 H 0.56614 0.69336 0.35408 0.0
H1033 H 0.57762 0.69628 0.29689 0.0
H1034 H 0.58119 0.71773 0.35723 0.0
H1035 H 0.59242 0.72061 0.301 0.0
H1036 H 0.49436 0.64171 0.35902 0.0
H1037 H 0.52629 0.6863 0.33485 0.0
H1038 H 0.51294 0.64446 0.33909 0.0
H1039 H 0.50736 0.6828 0.35469 0.0
H1040 H 0.55265 0.72354 0.319 0.0
H1041 H 0.546 0.70942 0.26241 0.0
H1042 H 0.56091 0.65632 0.396 0.0
H1043 H 0.539 0.67745 0.39943 0.0
H1044 H 0.53105 0.64422 0.2678 0.0
H1045 H 0.56487 0.68382 0.27126 0.0
H1046 H 0.53885 0.64177 0.23686 0.0
H1047 H 0.57211 0.68067 0.2403 0.0
H1048 H 0.54924 0.63098 0.311 0.0
H1049 H 0.52851 0.64047 0.35222 0.0
H1050 H 0.53938 0.60827 0.32426 0.0
H1051 H 0.5189 0.61759 0.36464 0.0
H1052 H 0.60334 0.67712 0.29113 0.0
H1053 H 0.57251 0.64109 0.2657 0.0
H1054 H 0.48511 0.63389 0.29 0.0
H1055 H 0.50137 0.6075 0.28766 0.0
Li1056 Li 0.55908 0.89389 0.80841 0.0
Li1057 Li 0.54711 0.88086 0.83556 0.0
Li1058 Li 0.54809 0.87007 0.80715 0.0
Li1059 Li 0.5347 0.88094 0.80909 0.0
C1060 C 0.5763 0.88922 0.82595 0.0
N1061 N 0.60348 0.90499 0.8306 0.0
C1062 C 0.58148 0.89543 0.84293 0.0
C1063 C 0.58494 0.89097 0.81136 0.0
C1064 C 0.59525 0.90337 0.845 0.0
C1065 C 0.59866 0.89901 0.81398 0.0
C1066 C 0.541 0.90399 0.82441 0.0
C1067 C 0.52308 0.90783 0.83287 0.0
N1068 N 0.52858 0.91899 0.82221 0.0
C1069 C 0.54651 0.91552 0.81359 0.0
C1070 C 0.52923 0.90014 0.83422 0.0
C1071 C 0.54007 0.92296 0.81265 0.0
C1072 C 0.57545 0.91232 0.78152 0.0
N1073 N 0.57379 0.91006 0.80002 0.0
C1074 C 0.59239 0.93157 0.80633 0.0
C1075 C 0.58194 0.91938 0.81244 0.0
C1076 C 0.59425 0.93431 0.78726 0.0
C1077 C 0.58564 0.92442 0.77481 0.0
H1078 H 0.56863 0.90485 0.77197 0.0
H1079 H 0.5802 0.91742 0.82709 0.0
C1080 C 0.55041 0.87141 0.86992 0.0
N1081 N 0.54744 0.88015 0.86174 0.0
C1082 C 0.55069 0.87065 0.88916 0.0
C1083 C 0.54516 0.88815 0.89115 0.0
C1084 C 0.54491 0.8885 0.87188 0.0
C1085 C 0.54806 0.87912 0.90002 0.0
H1086 H 0.55261 0.86506 0.86145 0.0
H1087 H 0.54274 0.89547 0.865 0.0
C1088 C 0.5456 0.87595 0.77273 0.0
N1089 N 0.54266 0.86203 0.7404 0.0
C1090 C 0.53309 0.86871 0.76442 0.0
C1091 C 0.55664 0.87619 0.76453 0.0
C1092 C 0.53181 0.86173 0.74808 0.0
C1093 C 0.55494 0.86906 0.74822 0.0
C1094 C 0.52639 0.85679 0.83719 0.0
C1095 C 0.52894 0.84638 0.84033 0.0
C1096 C 0.51812 0.85873 0.84932 0.0
C1097 C 0.52325 0.83813 0.85569 0.0
C1098 C 0.51264 0.85028 0.86455 0.0
N1099 N 0.5153 0.84025 0.86739 0.0
C1100 C 0.55989 0.85445 0.79894 0.0
C1101 C 0.53765 0.84559 0.78859 0.0
C1102 C 0.56045 0.84366 0.79145 0.0
N1103 N 0.54865 0.85525 0.79724 0.0
C1104 C 0.5378 0.83468 0.78074 0.0
C1105 C 0.54932 0.83361 0.7821 0.0
H1106 H 0.5684 0.86216 0.80621 0.0
H1107 H 0.52879 0.84642 0.78769 0.0
C1108 C 0.52017 0.88999 0.78858 0.0
N1109 N 0.51897 0.88034 0.80041 0.0
C1110 C 0.50884 0.88985 0.7818 0.0
C1111 C 0.49525 0.86959 0.79897 0.0
C1112 C 0.50685 0.87021 0.80561 0.0
C1113 C 0.49613 0.87952 0.7869 0.0
H1114 H 0.52995 0.8978 0.78444 0.0
H1115 H 0.5062 0.86253 0.81474 0.0
O1116 O 0.56283 0.88151 0.82359 0.0
O1117 O 0.54705 0.89646 0.82532 0.0
O1118 O 0.54702 0.88266 0.7889 0.0
O1119 O 0.53207 0.86513 0.82244 0.0
H1120 H 0.57494 0.89423 0.85435 0.0
H1121 H 0.5811 0.8863 0.7981 0.0
H1122 H 0.5994 0.90827 0.85804 0.0
H1123 H 0.60546 0.90052 0.80278 0.0
H1124 H 0.51392 0.90492 0.84027 0.0
H1125 H 0.55559 0.91864 0.80589 0.0
H1126 H 0.52479 0.89119 0.84256 0.0
H1127 H 0.54419 0.93188 0.80427 0.0
H1128 H 0.59882 0.93882 0.81647 0.0
H1129 H 0.58643 0.92615 0.76002 0.0
H1130 H 0.55315 0.86368 0.89547 0.0
H1131 H 0.54299 0.89478 0.89903 0.0
H1132 H 0.52443 0.86838 0.7706 0.0
H1133 H 0.56638 0.88171 0.77082 0.0
H1134 H 0.52217 0.85604 0.74154 0.0
H1135 H 0.56337 0.86908 0.74179 0.0
H1136 H 0.53536 0.84477 0.83112 0.0
H1137 H 0.5161 0.86678 0.84713 0.0
H1138 H 0.52519 0.83008 0.85835 0.0
H1139 H 0.50631 0.85173 0.87413 0.0
H1140 H 0.56944 0.84312 0.79318 0.0
H1141 H 0.52903 0.82726 0.77351 0.0
H1142 H 0.51007 0.89783 0.77275 0.0
H1143 H 0.4857 0.86128 0.803 0.0
Li1144 Li 0.66183 0.54759 0.83645 0.0
Li1145 Li 0.66242 0.55836 0.80713 0.0
Li1146 Li 0.651 0.53343 0.8091 0.0
Li1147 Li 0.67527 0.54745 0.80939 0.0
C1148 C 0.63502 0.54235 0.83137 0.0
N1149 N 0.61174 0.53511 0.85052 0.0
C1150 C 0.63065 0.5515 0.83384 0.0
C1151 C 0.62745 0.52946 0.83843 0.0
C1152 C 0.61889 0.54767 0.84363 0.0
C1153 C 0.61574 0.526 0.84812 0.0
C1154 C 0.68328 0.57625 0.82588 0.0
C1155 C 0.69705 0.59828 0.81335 0.0
N1156 N 0.69459 0.60355 0.82863 0.0
C1157 C 0.68096 0.58189 0.84152 0.0
C1158 C 0.69147 0.5845 0.81174 0.0
C1159 C 0.68674 0.59572 0.84263 0.0
C1160 C 0.67084 0.54639 0.87152 0.0
N1161 N 0.66169 0.54844 0.86265 0.0
C1162 C 0.6531 0.55093 0.89148 0.0
C1163 C 0.65302 0.55087 0.87217 0.0
C1164 C 0.66234 0.54867 0.901 0.0
C1165 C 0.67137 0.54649 0.8908 0.0
H1166 H 0.67765 0.54454 0.86355 0.0
H1167 H 0.64606 0.55281 0.86488 0.0
C1168 C 0.66215 0.57397 0.77755 0.0
N1169 N 0.66138 0.57273 0.79626 0.0
C1170 C 0.66076 0.58396 0.76893 0.0
C1171 C 0.65798 0.59135 0.79902 0.0
C1172 C 0.65942 0.58119 0.80706 0.0
C1173 C 0.65846 0.5927 0.77968 0.0
H1174 H 0.66357 0.56704 0.76927 0.0
H1175 H 0.6587 0.5799 0.8219 0.0
C1176 C 0.66033 0.52088 0.83483 0.0
N1177 N 0.65331 0.49696 0.85203 0.0
C1178 C 0.66622 0.51344 0.8294 0.0
C1179 C 0.65105 0.51625 0.84925 0.0
C1180 C 0.66248 0.50134 0.83819 0.0
C1181 C 0.64759 0.50412 0.85771 0.0
C1182 C 0.66864 0.5444 0.77366 0.0
C1183 C 0.66329 0.53222 0.76439 0.0
C1184 C 0.68019 0.55542 0.76691 0.0
C1185 C 0.66973 0.53122 0.74864 0.0
C1186 C 0.68634 0.55401 0.75114 0.0
N1187 N 0.68103 0.54204 0.74241 0.0
C1188 C 0.62502 0.51701 0.79581 0.0
C1189 C 0.63757 0.5061 0.79893 0.0
C1190 C 0.61402 0.50529 0.78955 0.0
N1191 N 0.63642 0.51715 0.80058 0.0
C1192 C 0.62684 0.49416 0.79267 0.0
C1193 C 0.61483 0.49364 0.78797 0.0
H1194 H 0.62448 0.52604 0.79687 0.0
H1195 H 0.64686 0.50656 0.80228 0.0
C1196 C 0.70314 0.55853 0.80699 0.0
N1197 N 0.6912 0.54789 0.80232 0.0
C1198 C 0.71495 0.55917 0.80133 0.0
C1199 C 0.70191 0.53787 0.78623 0.0
C1200 C 0.69039 0.53757 0.79239 0.0
C1201 C 0.71444 0.54879 0.79065 0.0
H1202 H 0.70348 0.56653 0.8151 0.0
H1203 H 0.68075 0.52919 0.789 0.0
O1204 O 0.64654 0.54598 0.82183 0.0
O1205 O 0.67758 0.56274 0.82445 0.0
O1206 O 0.66396 0.53279 0.82641 0.0
O1207 O 0.66255 0.54552 0.78922 0.0
H1208 H 0.63629 0.56148 0.82832 0.0
H1209 H 0.63045 0.52213 0.83624 0.0
H1210 H 0.61543 0.55468 0.84572 0.0
H1211 H 0.6098 0.51606 0.85366 0.0
H1212 H 0.70334 0.60478 0.80246 0.0
H1213 H 0.67466 0.57565 0.85261 0.0
H1214 H 0.69342 0.5803 0.79959 0.0
H1215 H 0.68497 0.60022 0.8546 0.0
H1216 H 0.64612 0.55286 0.89889 0.0
H1217 H 0.67859 0.54463 0.89765 0.0
H1218 H 0.66131 0.58472 0.75398 0.0
H1219 H 0.65602 0.59775 0.80781 0.0
H1220 H 0.67354 0.51692 0.81846 0.0
H1221 H 0.64667 0.52202 0.85406 0.0
H1222 H 0.6669 0.49544 0.83402 0.0
H1223 H 0.6404 0.50042 0.86885 0.0
H1224 H 0.65432 0.52361 0.76934 0.0
H1225 H 0.68444 0.56492 0.77389 0.0
H1226 H 0.66574 0.52183 0.74138 0.0
H1227 H 0.69535 0.56243 0.74585 0.0
H1228 H 0.60504 0.5054 0.78573 0.0
H1229 H 0.62789 0.48541 0.79169 0.0
H1230 H 0.72436 0.56767 0.80537 0.0
H1231 H 0.70097 0.52972 0.7778 0.0
Li1232 Li 0.10502 0.66335 0.80821 0.0
Li1233 Li 0.11872 0.66571 0.83504 0.0
Li1234 Li 0.12942 0.67749 0.80568 0.0
Li1235 Li 0.11992 0.65337 0.80916 0.0
C1236 C 0.11391 0.68982 0.81981 0.0
N1237 N 0.10784 0.70984 0.81506 0.0
C1238 C 0.10896 0.69383 0.83461 0.0
C1239 C 0.11593 0.69613 0.80268 0.0
C1240 C 0.10591 0.70393 0.83191 0.0
C1241 C 0.11276 0.7062 0.80053 0.0
C1242 C 0.09674 0.64262 0.83961 0.0
C1243 C 0.09346 0.62956 0.86712 0.0
N1244 N 0.08239 0.6303 0.87115 0.0
C1245 C 0.08528 0.64316 0.84394 0.0
C1246 C 0.10083 0.63568 0.85119 0.0
C1247 C 0.07817 0.63689 0.85998 0.0
C1248 C 0.08264 0.64977 0.78694 0.0
N1249 N 0.08827 0.65996 0.79926 0.0
C1250 C 0.06939 0.66303 0.79761 0.0
C1251 C 0.08194 0.66659 0.80475 0.0
C1252 C 0.06331 0.65247 0.78493 0.0
C1253 C 0.07014 0.64587 0.77953 0.0
H1254 H 0.08789 0.64465 0.78294 0.0
H1255 H 0.08648 0.67446 0.81485 0.0
C1256 C 0.12932 0.66663 0.87054 0.0
N1257 N 0.11932 0.66697 0.86123 0.0
C1258 C 0.1296 0.66695 0.88983 0.0
C1259 C 0.10941 0.66822 0.88957 0.0
C1260 C 0.10953 0.66788 0.87029 0.0
C1261 C 0.11951 0.66768 0.89961 0.0
H1262 H 0.13703 0.66601 0.86301 0.0
H1263 H 0.10172 0.66817 0.86251 0.0
C1264 C 0.1173 0.66561 0.77039 0.0
N1265 N 0.11748 0.67031 0.73285 0.0
C1266 C 0.1233 0.6609 0.75807 0.0
C1267 C 0.11116 0.67248 0.76353 0.0
C1268 C 0.12337 0.66345 0.73917 0.0
C1269 C 0.11142 0.67481 0.74454 0.0
C1270 C 0.14438 0.66398 0.82309 0.0
C1271 C 0.15605 0.67094 0.81272 0.0
C1272 C 0.14223 0.6529 0.83347 0.0
C1273 C 0.16532 0.66659 0.81272 0.0
C1274 C 0.15173 0.64886 0.83309 0.0
N1275 N 0.16298 0.65572 0.8228 0.0
C1276 C 0.14823 0.70486 0.80428 0.0
C1277 C 0.14907 0.69239 0.77886 0.0
C1278 C 0.15874 0.71655 0.79697 0.0
N1279 N 0.14357 0.69314 0.79508 0.0
C1280 C 0.1596 0.70381 0.77107 0.0
C1281 C 0.16457 0.7161 0.78015 0.0
H1282 H 0.14383 0.70511 0.81735 0.0
H1283 H 0.14545 0.68291 0.7721 0.0
C1284 C 0.11114 0.62609 0.80551 0.0
N1285 N 0.12124 0.63845 0.80117 0.0
C1286 C 0.11141 0.61482 0.79938 0.0
C1287 C 0.13253 0.6292 0.78457 0.0
C1288 C 0.1318 0.64019 0.79086 0.0
C1289 C 0.12219 0.61627 0.7887 0.0
H1290 H 0.10276 0.62499 0.81348 0.0
H1291 H 0.13962 0.65013 0.7874 0.0
O1292 O 0.11691 0.67991 0.82226 0.0
O1293 O 0.10397 0.64892 0.82417 0.0
O1294 O 0.11705 0.66307 0.78894 0.0
O1295 O 0.13515 0.66805 0.82316 0.0
H1296 H 0.10746 0.68917 0.84802 0.0
H1297 H 0.12006 0.69342 0.79122 0.0
H1298 H 0.10201 0.70708 0.84321 0.0
H1299 H 0.11427 0.71114 0.78733 0.0
H1300 H 0.09656 0.62425 0.87628 0.0
H1301 H 0.08198 0.64849 0.83513 0.0
H1302 H 0.10964 0.63512 0.84799 0.0
H1303 H 0.06933 0.6373 0.86357 0.0
H1304 H 0.06438 0.66826 0.80227 0.0
H1305 H 0.06587 0.63778 0.76962 0.0
H1306 H 0.13749 0.66637 0.897 0.0
H1307 H 0.10155 0.66897 0.89653 0.0
H1308 H 0.12796 0.65543 0.76305 0.0
H1309 H 0.10609 0.67585 0.77269 0.0
H1310 H 0.12808 0.65996 0.72952 0.0
H1311 H 0.10673 0.68015 0.73907 0.0
H1312 H 0.15794 0.67959 0.80474 0.0
H1313 H 0.13326 0.6474 0.84157 0.0
H1314 H 0.17438 0.67185 0.8047 0.0
H1315 H 0.15014 0.64024 0.84094 0.0
H1316 H 0.16242 0.72577 0.80459 0.0
H1317 H 0.16376 0.70302 0.75803 0.0
H1318 H 0.10309 0.60507 0.80262 0.0
H1319 H 0.14112 0.63084 0.77658 0.0
Li1320 Li 0.43931 0.10461 0.80695 0.0
Li1321 Li 0.44976 0.11635 0.83589 0.0
Li1322 Li 0.44808 0.12766 0.80908 0.0
Li1323 Li 0.46333 0.11884 0.8087 0.0
C1324 C 0.42467 0.11872 0.82392 0.0
N1325 N 0.40816 0.12955 0.82324 0.0
C1326 C 0.42346 0.12513 0.83954 0.0
C1327 C 0.41728 0.11761 0.80807 0.0
C1328 C 0.41511 0.13059 0.83891 0.0
C1329 C 0.40905 0.1232 0.80795 0.0
C1330 C 0.4458 0.09034 0.83168 0.0
C1331 C 0.44558 0.0707 0.84314 0.0
N1332 N 0.43292 0.06593 0.84932 0.0
C1333 C 0.43277 0.08524 0.83817 0.0
C1334 C 0.45225 0.08301 0.83418 0.0
C1335 C 0.42644 0.07288 0.84704 0.0
C1336 C 0.43069 0.08096 0.78776 0.0
N1337 N 0.4261 0.08821 0.79661 0.0
C1338 C 0.40363 0.07209 0.78913 0.0
C1339 C 0.41286 0.08393 0.79778 0.0
C1340 C 0.40816 0.06471 0.77921 0.0
C1341 C 0.42186 0.06919 0.77877 0.0
H1342 H 0.44126 0.08448 0.78746 0.0
H1343 H 0.40947 0.08972 0.80532 0.0
C1344 C 0.45084 0.12749 0.87062 0.0
N1345 N 0.45029 0.11668 0.86239 0.0
C1346 C 0.45131 0.12866 0.88986 0.0
C1347 C 0.45131 0.10787 0.89185 0.0
C1348 C 0.45086 0.10712 0.8726 0.0
C1349 C 0.45139 0.11867 0.90074 0.0
H1350 H 0.45097 0.13525 0.86217 0.0
H1351 H 0.45117 0.09898 0.86596 0.0
C1352 C 0.44795 0.11154 0.77232 0.0
N1353 N 0.44084 0.09734 0.73952 0.0
C1354 C 0.45664 0.10811 0.76379 0.0
C1355 C 0.43573 0.10793 0.76395 0.0
C1356 C 0.45285 0.1009 0.74726 0.0
C1357 C 0.43228 0.10069 0.74744 0.0
C1358 C 0.47511 0.1381 0.8358 0.0
C1359 C 0.48242 0.15174 0.83949 0.0
C1360 C 0.47919 0.12961 0.84335 0.0
C1361 C 0.49375 0.15669 0.85066 0.0
C1362 C 0.49056 0.13494 0.85445 0.0
N1363 N 0.49755 0.14826 0.85784 0.0
C1364 C 0.44933 0.15249 0.81319 0.0
C1365 C 0.44116 0.14188 0.78427 0.0
C1366 C 0.44762 0.16311 0.8078 0.0
N1367 N 0.44608 0.14218 0.80141 0.0
C1368 C 0.43909 0.15215 0.77843 0.0
C1369 C 0.44241 0.16303 0.79019 0.0
H1370 H 0.45324 0.15243 0.82676 0.0
H1371 H 0.43865 0.13356 0.77522 0.0
C1372 C 0.48122 0.1102 0.79993 0.0
N1373 N 0.48 0.12122 0.80105 0.0
C1374 C 0.49324 0.11127 0.79444 0.0
C1375 C 0.50253 0.13506 0.7913 0.0
C1376 C 0.4903 0.13351 0.79687 0.0
C1377 C 0.50411 0.12382 0.79006 0.0
H1378 H 0.47277 0.10054 0.80302 0.0
H1379 H 0.489 0.14211 0.7979 0.0
O1380 O 0.43303 0.11356 0.82413 0.0
O1381 O 0.45216 0.10233 0.82267 0.0
O1382 O 0.45144 0.11848 0.78867 0.0
O1383 O 0.46396 0.13315 0.82496 0.0
H1384 H 0.42884 0.12586 0.85207 0.0
H1385 H 0.41804 0.11266 0.79587 0.0
H1386 H 0.41415 0.13565 0.85088 0.0
H1387 H 0.4034 0.12254 0.79569 0.0
H1388 H 0.45048 0.06494 0.84519 0.0
H1389 H 0.42758 0.09073 0.83646 0.0
H1390 H 0.46234 0.0868 0.82935 0.0
H1391 H 0.41637 0.06883 0.85212 0.0
H1392 H 0.39312 0.06887 0.78986 0.0
H1393 H 0.42571 0.06362 0.77161 0.0
H1394 H 0.45142 0.1372 0.89614 0.0
H1395 H 0.45178 0.10016 0.89969 0.0
H1396 H 0.46621 0.11097 0.7698 0.0
H1397 H 0.42883 0.11043 0.77026 0.0
H1398 H 0.45946 0.09813 0.74059 0.0
H1399 H 0.42278 0.0977 0.74097 0.0
H1400 H 0.47937 0.15843 0.83378 0.0
H1401 H 0.47365 0.11902 0.84071 0.0
H1402 H 0.49951 0.16723 0.85363 0.0
H1403 H 0.49383 0.1285 0.86037 0.0
H1404 H 0.45052 0.17135 0.81726 0.0
H1405 H 0.43479 0.15146 0.76489 0.0
H1406 H 0.49392 0.10231 0.79332 0.0
H1407 H 0.51069 0.14492 0.78818 0.0
Li1408 Li 0.33016 0.44884 0.83439 0.0
Li1409 Li 0.33086 0.43868 0.80552 0.0
Li1410 Li 0.34234 0.46309 0.80766 0.0
Li1411 Li 0.31838 0.4498 0.80655 0.0
C1412 C 0.35739 0.45758 0.83205 0.0
N1413 N 0.38035 0.47206 0.85253 0.0
C1414 C 0.36753 0.45441 0.83132 0.0
C1415 C 0.35893 0.46812 0.84318 0.0
C1416 C 0.37907 0.46185 0.84179 0.0
C1417 C 0.37061 0.47532 0.85343 0.0
C1418 C 0.30949 0.42055 0.82168 0.0
C1419 C 0.295 0.39891 0.8085 0.0
N1420 N 0.29877 0.39325 0.82194 0.0
C1421 C 0.31313 0.41453 0.83545 0.0
C1422 C 0.30028 0.41269 0.80817 0.0
C1423 C 0.30763 0.40071 0.83531 0.0
C1424 C 0.32104 0.45048 0.86942 0.0
N1425 N 0.32935 0.44728 0.86048 0.0
C1426 C 0.33612 0.44221 0.88911 0.0
C1427 C 0.33672 0.44304 0.86983 0.0
C1428 C 0.3278 0.44572 0.89878 0.0
C1429 C 0.32013 0.44981 0.88867 0.0
H1430 H 0.31508 0.45351 0.86155 0.0
H1431 H 0.34311 0.44036 0.86233 0.0
C1432 C 0.32969 0.42054 0.77799 0.0
N1433 N 0.33272 0.42449 0.79589 0.0
C1434 C 0.33254 0.41111 0.77065 0.0
C1435 C 0.34124 0.40974 0.80046 0.0
C1436 C 0.33825 0.41921 0.8072 0.0
C1437 C 0.33865 0.40579 0.78183 0.0
H1438 H 0.32555 0.42506 0.76919 0.0
H1439 H 0.34066 0.42264 0.82134 0.0
C1440 C 0.32795 0.47535 0.8218 0.0
N1441 N 0.32506 0.49742 0.81695 0.0
C1442 C 0.33079 0.48182 0.8047 0.0
C1443 C 0.32372 0.48017 0.83648 0.0
C1444 C 0.32924 0.49293 0.8025 0.0
C1445 C 0.3223 0.49132 0.83375 0.0
C1446 C 0.32579 0.45186 0.7707 0.0
C1447 C 0.33184 0.46331 0.7597 0.0
C1448 C 0.31397 0.44079 0.76474 0.0
C1449 C 0.32587 0.46353 0.74301 0.0
C1450 C 0.3083 0.4414 0.74798 0.0
N1451 N 0.31432 0.45267 0.73756 0.0
C1452 C 0.36434 0.4781 0.78512 0.0
C1453 C 0.36251 0.49052 0.80984 0.0
C1454 C 0.37574 0.48933 0.77861 0.0
N1455 N 0.35791 0.47893 0.80032 0.0
C1456 C 0.3739 0.50202 0.80383 0.0
C1457 C 0.38063 0.50152 0.78795 0.0
H1458 H 0.36048 0.4687 0.77793 0.0
H1459 H 0.35732 0.49086 0.82208 0.0
C1460 C 0.2909 0.44014 0.80721 0.0
N1461 N 0.30239 0.44934 0.79896 0.0
C1462 C 0.27878 0.43912 0.8023 0.0
C1463 C 0.29056 0.45712 0.78057 0.0
C1464 C 0.30243 0.45785 0.78599 0.0
C1465 C 0.2785 0.44766 0.78875 0.0
H1466 H 0.29115 0.4336 0.81767 0.0
H1467 H 0.31163 0.46512 0.77962 0.0
O1468 O 0.34609 0.45041 0.82177 0.0
O1469 O 0.31501 0.43409 0.82134 0.0
O1470 O 0.32954 0.46453 0.82433 0.0
O1471 O 0.33147 0.45149 0.78713 0.0
H1472 H 0.36649 0.44629 0.82275 0.0
H1473 H 0.35119 0.47071 0.84394 0.0
H1474 H 0.387 0.45951 0.84137 0.0
H1475 H 0.37193 0.48349 0.8621 0.0
H1476 H 0.28791 0.3927 0.79807 0.0
H1477 H 0.32026 0.42047 0.84599 0.0
H1478 H 0.29724 0.41717 0.79754 0.0
H1479 H 0.31043 0.39592 0.8458 0.0
H1480 H 0.34225 0.43907 0.89637 0.0
H1481 H 0.3134 0.45235 0.89555 0.0
H1482 H 0.33057 0.40851 0.75615 0.0
H1483 H 0.34583 0.40579 0.8096 0.0
H1484 H 0.33417 0.4783 0.79324 0.0
H1485 H 0.32162 0.4754 0.84989 0.0
H1486 H 0.33138 0.498 0.78931 0.0
H1487 H 0.31903 0.49515 0.845 0.0
H1488 H 0.34101 0.47197 0.76401 0.0
H1489 H 0.30911 0.43188 0.77309 0.0
H1490 H 0.33042 0.47235 0.73442 0.0
H1491 H 0.2991 0.43294 0.74329 0.0
H1492 H 0.38053 0.48852 0.76621 0.0
H1493 H 0.37745 0.51116 0.81161 0.0
H1494 H 0.26977 0.43182 0.80919 0.0
H1495 H 0.29082 0.46378 0.76987 0.0
Li1496 Li 0.89154 0.33294 0.80885 0.0
Li1497 Li 0.87907 0.33215 0.83675 0.0
Li1498 Li 0.86713 0.31954 0.80792 0.0
Li1499 Li 0.87747 0.34379 0.80979 0.0
C1500 C 0.88435 0.30863 0.82689 0.0
N1501 N 0.89388 0.2913 0.83244 0.0
C1502 C 0.89091 0.30909 0.84334 0.0
C1503 C 0.88248 0.29922 0.81337 0.0
C1504 C 0.89569 0.30028 0.84586 0.0
C1505 C 0.88742 0.29059 0.81641 0.0
C1506 C 0.90246 0.35642 0.83712 0.0
C1507 C 0.9083 0.37267 0.86141 0.0
N1508 N 0.92023 0.37321 0.86339 0.0
C1509 C 0.91481 0.35721 0.83929 0.0
C1510 C 0.89921 0.36428 0.84815 0.0
C1511 C 0.92365 0.36574 0.85268 0.0
C1512 C 0.91181 0.34243 0.78313 0.0
N1513 N 0.90754 0.33488 0.7987 0.0
C1514 C 0.92618 0.3314 0.79779 0.0
C1515 C 0.91451 0.32947 0.80622 0.0
C1516 C 0.93076 0.33906 0.78156 0.0
C1517 C 0.92341 0.34464 0.77429 0.0
H1518 H 0.90621 0.34683 0.77766 0.0
H1519 H 0.91117 0.32381 0.81885 0.0
C1520 C 0.86622 0.32595 0.87104 0.0
N1521 N 0.87846 0.33142 0.86306 0.0
C1522 C 0.86494 0.32515 0.89027 0.0
C1523 C 0.88889 0.33565 0.89273 0.0
C1524 C 0.88968 0.33602 0.87346 0.0
C1525 C 0.87639 0.33017 0.9013 0.0
H1526 H 0.85744 0.32219 0.86245 0.0
H1527 H 0.89925 0.33986 0.86687 0.0
C1528 C 0.8773 0.32807 0.77236 0.0
N1529 N 0.87342 0.31791 0.7369 0.0
C1530 C 0.87196 0.33259 0.75873 0.0
C1531 C 0.88081 0.31851 0.76791 0.0
C1532 C 0.87003 0.32729 0.7409 0.0
C1533 C 0.87874 0.31346 0.74991 0.0
C1534 C 0.85412 0.3349 0.82737 0.0
C1535 C 0.84225 0.32949 0.81731 0.0
C1536 C 0.85725 0.34527 0.83983 0.0
C1537 C 0.8338 0.33472 0.81967 0.0
C1538 C 0.84854 0.35023 0.84179 0.0
N1539 N 0.8371 0.3449 0.83173 0.0
C1540 C 0.84899 0.292 0.8067 0.0
C1541 C 0.84592 0.3046 0.78339 0.0
C1542 C 0.83855 0.28021 0.79956 0.0
N1543 N 0.85255 0.30383 0.79841 0.0
C1544 C 0.83549 0.29306 0.7757 0.0
C1545 C 0.83175 0.28066 0.78376 0.0
H1546 H 0.85432 0.29172 0.81882 0.0
H1547 H 0.8487 0.31418 0.77742 0.0
C1548 C 0.88645 0.37104 0.8045 0.0
N1549 N 0.87619 0.35857 0.80119 0.0
C1550 C 0.886 0.38212 0.79792 0.0
C1551 C 0.86442 0.3673 0.78462 0.0
C1552 C 0.86536 0.35651 0.7913 0.0
C1553 C 0.87486 0.38035 0.78784 0.0
H1554 H 0.89511 0.3724 0.81197 0.0
H1555 H 0.85748 0.34647 0.78848 0.0
O1556 O 0.87954 0.31713 0.82425 0.0
O1557 O 0.8937 0.34813 0.82406 0.0
O1558 O 0.87916 0.33309 0.78992 0.0
O1559 O 0.86258 0.33001 0.82511 0.0
H1560 H 0.89236 0.31623 0.854 0.0
H1561 H 0.8772 0.29852 0.80072 0.0
H1562 H 0.90085 0.30059 0.85848 0.0
H1563 H 0.88608 0.2833 0.80604 0.0
H1564 H 0.90589 0.37875 0.87011 0.0
H1565 H 0.91752 0.35125 0.83081 0.0
H1566 H 0.88975 0.36389 0.84651 0.0
H1567 H 0.93322 0.3664 0.85458 0.0
H1568 H 0.93153 0.32691 0.80388 0.0
H1569 H 0.92672 0.35089 0.76209 0.0
H1570 H 0.85514 0.32084 0.89646 0.0
H1571 H 0.89791 0.33941 0.90085 0.0
H1572 H 0.86926 0.34005 0.76193 0.0
H1573 H 0.88517 0.31508 0.77819 0.0
H1574 H 0.86583 0.33064 0.73023 0.0
H1575 H 0.88139 0.30603 0.74629 0.0
H1576 H 0.83965 0.3214 0.80769 0.0
H1577 H 0.86631 0.34943 0.84789 0.0
H1578 H 0.82462 0.33069 0.81188 0.0
H1579 H 0.85087 0.3583 0.85131 0.0
H1580 H 0.83597 0.27083 0.80615 0.0
H1581 H 0.83031 0.29384 0.76373 0.0
H1582 H 0.89443 0.39195 0.80038 0.0
H1583 H 0.85558 0.36542 0.77705 0.0
Li1584 Li 0.12663 0.44721 0.68828 0.0
Li1585 Li 0.11702 0.46168 0.68788 0.0
Li1586 Li 0.10281 0.43663 0.68709 0.0
Li1587 Li 0.1155 0.44889 0.65961 0.0
C1588 C 0.12037 0.44843 0.72339 0.0
N1589 N 0.13265 0.44871 0.75626 0.0
C1590 C 0.12791 0.46037 0.73298 0.0
C1591 C 0.11893 0.4366 0.73062 0.0
C1592 C 0.13407 0.46031 0.74956 0.0
C1593 C 0.12527 0.43696 0.74722 0.0
C1594 C 0.13992 0.47482 0.66377 0.0
C1595 C 0.14339 0.49189 0.64175 0.0
N1596 N 0.15649 0.49879 0.64648 0.0
C1597 C 0.15345 0.48201 0.66829 0.0
C1598 C 0.13487 0.47974 0.6503 0.0
C1599 C 0.16165 0.49414 0.65945 0.0
C1600 C 0.14227 0.43508 0.69535 0.0
N1601 N 0.14128 0.44617 0.6978 0.0
C1602 C 0.16128 0.45646 0.71558 0.0
C1603 C 0.15058 0.45681 0.70745 0.0
C1604 C 0.16258 0.44511 0.71345 0.0
C1605 C 0.15292 0.43435 0.70306 0.0
H1606 H 0.1348 0.42682 0.68741 0.0
H1607 H 0.14955 0.46553 0.70905 0.0
C1608 C 0.10685 0.4764 0.70474 0.0
N1609 N 0.11815 0.47745 0.69749 0.0
C1610 C 0.10701 0.48752 0.71243 0.0
C1611 C 0.13045 0.50058 0.7051 0.0
C1612 C 0.12986 0.48918 0.6977 0.0
C1613 C 0.11892 0.49982 0.71261 0.0
H1614 H 0.09771 0.46689 0.70456 0.0
H1615 H 0.13879 0.4897 0.69237 0.0
C1616 C 0.10771 0.41949 0.66806 0.0
N1617 N 0.0934 0.39236 0.6619 0.0
C1618 C 0.10239 0.41457 0.65056 0.0
C1619 C 0.10588 0.41062 0.68237 0.0
C1620 C 0.09516 0.40081 0.64774 0.0
C1621 C 0.09857 0.39694 0.67899 0.0
C1622 C 0.0928 0.4538 0.6645 0.0
C1623 C 0.07946 0.44427 0.66138 0.0
C1624 C 0.09742 0.46707 0.65961 0.0
C1625 C 0.07102 0.44814 0.65317 0.0
C1626 C 0.08866 0.47055 0.65145 0.0
N1627 N 0.07576 0.46109 0.6484 0.0
C1628 C 0.08291 0.4214 0.71304 0.0
C1629 C 0.07783 0.41321 0.68234 0.0
C1630 C 0.07042 0.41146 0.71911 0.0
N1631 N 0.0863 0.42214 0.69492 0.0
C1632 C 0.06535 0.40298 0.68783 0.0
C1633 C 0.06137 0.40213 0.7064 0.0
H1634 H 0.08975 0.42877 0.72268 0.0
H1635 H 0.08063 0.41422 0.66793 0.0
C1636 C 0.12678 0.45104 0.62445 0.0
N1637 N 0.11557 0.44893 0.63338 0.0
C1638 C 0.12709 0.45077 0.60514 0.0
C1639 C 0.10437 0.44627 0.60465 0.0
C1640 C 0.10446 0.4465 0.62392 0.0
C1641 C 0.11575 0.44834 0.59496 0.0
H1642 H 0.13542 0.45281 0.63238 0.0
H1643 H 0.0956 0.44461 0.63129 0.0
O1644 O 0.11445 0.44832 0.70699 0.0
O1645 O 0.13179 0.46294 0.67233 0.0
O1646 O 0.11477 0.43292 0.6711 0.0
O1647 O 0.10117 0.45016 0.6726 0.0
H1648 H 0.12909 0.46961 0.72758 0.0
H1649 H 0.11304 0.42726 0.72343 0.0
H1650 H 0.14001 0.4695 0.75707 0.0
H1651 H 0.12432 0.4279 0.75292 0.0
H1652 H 0.13959 0.49581 0.63131 0.0
H1653 H 0.15756 0.4783 0.67857 0.0
H1654 H 0.12452 0.47418 0.64632 0.0
H1655 H 0.17212 0.49984 0.66288 0.0
H1656 H 0.16833 0.46492 0.72368 0.0
H1657 H 0.15364 0.4255 0.70075 0.0
H1658 H 0.09789 0.48655 0.718 0.0
H1659 H 0.13988 0.50982 0.70527 0.0
H1660 H 0.10376 0.42129 0.63931 0.0
H1661 H 0.10998 0.41427 0.69596 0.0
H1662 H 0.09093 0.39686 0.6343 0.0
H1663 H 0.09701 0.38996 0.68996 0.0
H1664 H 0.07568 0.43398 0.66517 0.0
H1665 H 0.1076 0.47466 0.66226 0.0
H1666 H 0.0607 0.44085 0.6506 0.0
H1667 H 0.09211 0.48078 0.6476 0.0
H1668 H 0.06775 0.41143 0.73346 0.0
H1669 H 0.05882 0.39596 0.67755 0.0
H1670 H 0.13603 0.45222 0.59832 0.0
H1671 H 0.09546 0.44455 0.59745 0.0
Li1672 Li 0.67758 0.12884 0.68936 0.0
Li1673 Li 0.65395 0.1195 0.69015 0.0
Li1674 Li 0.66347 0.1051 0.6892 0.0
Li1675 Li 0.66434 0.11777 0.66247 0.0
C1676 C 0.66595 0.12481 0.72441 0.0
N1677 N 0.66736 0.13939 0.75542 0.0
C1678 C 0.66898 0.13804 0.72264 0.0
C1679 C 0.66365 0.119 0.74195 0.0
C1680 C 0.66964 0.14524 0.73849 0.0
C1681 C 0.6644 0.12653 0.75746 0.0
C1682 C 0.66054 0.13937 0.66385 0.0
C1683 C 0.64123 0.13635 0.64711 0.0
N1684 N 0.6478 0.14952 0.64274 0.0
C1685 C 0.6671 0.15287 0.65921 0.0
C1686 C 0.64749 0.13103 0.65778 0.0
C1687 C 0.66049 0.15781 0.64852 0.0
C1688 C 0.70035 0.15424 0.68715 0.0
N1689 N 0.6941 0.14306 0.69767 0.0
C1690 C 0.71124 0.1526 0.72049 0.0
C1691 C 0.69929 0.14204 0.71403 0.0
C1692 C 0.71786 0.16439 0.71009 0.0
C1693 C 0.71229 0.1651 0.69314 0.0
H1694 H 0.69594 0.15475 0.6742 0.0
H1695 H 0.69409 0.13306 0.72219 0.0
C1696 C 0.62875 0.10989 0.70585 0.0
N1697 N 0.63981 0.12123 0.70036 0.0
C1698 C 0.6181 0.11048 0.71382 0.0
C1699 C 0.63042 0.13442 0.7103 0.0
C1700 C 0.64085 0.13337 0.70245 0.0
C1701 C 0.61886 0.12288 0.71614 0.0
H1702 H 0.62825 0.10039 0.70407 0.0
H1703 H 0.64981 0.14226 0.69814 0.0
C1704 C 0.68999 0.11501 0.67802 0.0
N1705 N 0.7121 0.11334 0.68809 0.0
C1706 C 0.6994 0.11653 0.66471 0.0
C1707 C 0.69183 0.11263 0.69644 0.0
C1708 C 0.71051 0.11565 0.67008 0.0
C1709 C 0.70307 0.11182 0.70126 0.0
C1710 C 0.64278 0.09185 0.66474 0.0
C1711 C 0.65101 0.08843 0.65487 0.0
C1712 C 0.629 0.08337 0.6644 0.0
C1713 C 0.64529 0.07656 0.6448 0.0
C1714 C 0.62365 0.07159 0.65416 0.0
N1715 N 0.63184 0.06845 0.64466 0.0
C1716 C 0.65261 0.08321 0.71256 0.0
C1717 C 0.66692 0.08229 0.68993 0.0
C1718 C 0.65004 0.07103 0.7199 0.0
N1719 N 0.66095 0.08857 0.69791 0.0
C1720 C 0.66476 0.07015 0.69696 0.0
C1721 C 0.6562 0.06435 0.71217 0.0
H1722 H 0.64787 0.08838 0.71843 0.0
H1723 H 0.67339 0.08669 0.67812 0.0
C1724 C 0.67595 0.1245 0.62729 0.0
N1725 N 0.66407 0.11807 0.63623 0.0
C1726 C 0.67639 0.12481 0.60798 0.0
C1727 C 0.65233 0.11194 0.60752 0.0
C1728 C 0.65236 0.11197 0.6268 0.0
C1729 C 0.66446 0.11837 0.59788 0.0
H1730 H 0.68509 0.12932 0.63519 0.0
H1731 H 0.64303 0.10708 0.63424 0.0
O1732 O 0.66519 0.11749 0.70914 0.0
O1733 O 0.66696 0.13445 0.67429 0.0
O1734 O 0.67912 0.11592 0.6729 0.0
O1735 O 0.6481 0.10338 0.67479 0.0
H1736 H 0.67081 0.14272 0.7092 0.0
H1737 H 0.6613 0.10877 0.74354 0.0
H1738 H 0.67197 0.15548 0.73731 0.0
H1739 H 0.66264 0.12216 0.77112 0.0
H1740 H 0.63113 0.13001 0.64233 0.0
H1741 H 0.67719 0.15947 0.66382 0.0
H1742 H 0.6422 0.12057 0.66129 0.0
H1743 H 0.66546 0.16825 0.64481 0.0
H1744 H 0.71524 0.15151 0.73348 0.0
H1745 H 0.71695 0.17404 0.68478 0.0
H1746 H 0.60931 0.10132 0.71795 0.0
H1747 H 0.63148 0.14418 0.71205 0.0
H1748 H 0.69812 0.11837 0.65039 0.0
H1749 H 0.68465 0.11137 0.70693 0.0
H1750 H 0.71787 0.11682 0.65992 0.0
H1751 H 0.70461 0.10998 0.71547 0.0
H1752 H 0.6617 0.09486 0.6549 0.0
H1753 H 0.62249 0.08588 0.67197 0.0
H1754 H 0.65154 0.0738 0.6371 0.0
H1755 H 0.61299 0.06493 0.65377 0.0
H1756 H 0.64312 0.06683 0.73133 0.0
H1757 H 0.66981 0.06544 0.69063 0.0
H1758 H 0.68594 0.12981 0.60105 0.0
H1759 H 0.64291 0.10702 0.60021 0.0
Li1760 Li 0.54712 0.67811 0.69172 0.0
Li1761 Li 0.53383 0.65477 0.69112 0.0
Li1762 Li 0.5588 0.66563 0.6924 0.0
Li1763 Li 0.54647 0.66615 0.66422 0.0
C1764 C 0.54893 0.67284 0.72714 0.0
N1765 N 0.55436 0.68757 0.7593 0.0
C1766 C 0.53953 0.67577 0.73445 0.0
C1767 C 0.56107 0.67733 0.73628 0.0
C1768 C 0.54247 0.68326 0.75068 0.0
C1769 C 0.56363 0.68478 0.7525 0.0
C1770 C 0.51811 0.6609 0.67573 0.0
C1771 C 0.49696 0.64382 0.66383 0.0
N1772 N 0.49062 0.6465 0.67755 0.0
C1773 C 0.51137 0.66349 0.68971 0.0
C1774 C 0.51084 0.65099 0.66267 0.0
C1775 C 0.49748 0.65611 0.69038 0.0
C1776 C 0.5395 0.69763 0.69312 0.0
N1777 N 0.54859 0.69453 0.69969 0.0
C1778 C 0.55949 0.71486 0.71684 0.0
C1779 C 0.55864 0.70297 0.71106 0.0
C1780 C 0.54993 0.71806 0.71079 0.0
C1781 C 0.53991 0.70934 0.69865 0.0
H1782 H 0.53195 0.69104 0.68349 0.0
H1783 H 0.56596 0.70047 0.71571 0.0
C1784 C 0.51292 0.6278 0.69067 0.0
N1785 N 0.51805 0.63951 0.70003 0.0
C1786 C 0.50148 0.61654 0.69711 0.0
C1787 C 0.50084 0.62956 0.72277 0.0
C1788 C 0.51231 0.64054 0.71586 0.0
C1789 C 0.4953 0.61734 0.71338 0.0
H1790 H 0.51771 0.62717 0.67824 0.0
H1791 H 0.51664 0.6499 0.72315 0.0
C1792 C 0.56871 0.69395 0.67202 0.0
N1793 N 0.58054 0.72085 0.6644 0.0
C1794 C 0.56307 0.69855 0.65895 0.0
C1795 C 0.58036 0.70303 0.68122 0.0
C1796 C 0.5692 0.71218 0.65529 0.0
C1797 C 0.58619 0.71659 0.67716 0.0
C1798 C 0.54737 0.64362 0.66246 0.0
C1799 C 0.55924 0.64335 0.66073 0.0
C1800 C 0.53729 0.63707 0.64932 0.0
C1801 C 0.56085 0.63659 0.64584 0.0
C1802 C 0.5393 0.63045 0.63462 0.0
N1803 N 0.55094 0.63035 0.6332 0.0
C1804 C 0.56945 0.65223 0.71066 0.0
C1805 C 0.58593 0.6725 0.6972 0.0
C1806 C 0.57913 0.64921 0.71627 0.0
N1807 N 0.57299 0.66361 0.70113 0.0
C1808 C 0.59599 0.66998 0.70282 0.0
C1809 C 0.59256 0.65809 0.71219 0.0
H1810 H 0.55905 0.64534 0.71343 0.0
H1811 H 0.5884 0.68134 0.68928 0.0
C1812 C 0.53834 0.66801 0.62792 0.0
N1813 N 0.5476 0.66684 0.63798 0.0
C1814 C 0.53904 0.66844 0.60864 0.0
C1815 C 0.55893 0.66668 0.61047 0.0
C1816 C 0.55796 0.66651 0.62971 0.0
C1817 C 0.54936 0.66762 0.59973 0.0
H1818 H 0.53045 0.6687 0.63486 0.0
H1819 H 0.56544 0.66604 0.63808 0.0
O1820 O 0.54626 0.6655 0.71126 0.0
O1821 O 0.53175 0.66777 0.67515 0.0
O1822 O 0.56264 0.68067 0.67614 0.0
O1823 O 0.54565 0.6503 0.67686 0.0
H1824 H 0.53017 0.67258 0.72746 0.0
H1825 H 0.56847 0.67515 0.73089 0.0
H1826 H 0.53533 0.68571 0.75638 0.0
H1827 H 0.57299 0.68835 0.75968 0.0
H1828 H 0.49123 0.63608 0.65386 0.0
H1829 H 0.5168 0.67096 0.70013 0.0
H1830 H 0.51585 0.64873 0.65187 0.0
H1831 H 0.49216 0.65796 0.70119 0.0
H1832 H 0.56738 0.72134 0.72621 0.0
H1833 H 0.53254 0.71162 0.69335 0.0
H1834 H 0.49748 0.60733 0.68937 0.0
H1835 H 0.49651 0.63057 0.73551 0.0
H1836 H 0.55394 0.6917 0.65192 0.0
H1837 H 0.58474 0.69968 0.69162 0.0
H1838 H 0.56491 0.71589 0.64528 0.0
H1839 H 0.59517 0.72373 0.68425 0.0
H1840 H 0.56719 0.64837 0.67065 0.0
H1841 H 0.52811 0.6373 0.65025 0.0
H1842 H 0.57001 0.63635 0.64432 0.0
H1843 H 0.53162 0.62545 0.62429 0.0
H1844 H 0.57615 0.63998 0.72356 0.0
H1845 H 0.60625 0.67697 0.69932 0.0
H1846 H 0.53151 0.66922 0.60078 0.0
H1847 H 0.56716 0.66627 0.60406 0.0
Li1848 Li 0.87696 0.53435 0.69049 0.0
Li1849 Li 0.86683 0.54847 0.69217 0.0
Li1850 Li 0.87795 0.5475 0.66294 0.0
Li1851 Li 0.89068 0.55943 0.6903 0.0
C1852 C 0.85318 0.52085 0.6685 0.0
N1853 N 0.83537 0.49611 0.65422 0.0
C1854 C 0.84009 0.51392 0.67506 0.0
C1855 C 0.85715 0.51527 0.6545 0.0
C1856 C 0.83125 0.5014 0.66771 0.0
C1857 C 0.84802 0.50273 0.6475 0.0
C1858 C 0.87373 0.54663 0.72708 0.0
C1859 C 0.86878 0.55711 0.75226 0.0
N1860 N 0.86223 0.54518 0.76112 0.0
C1861 C 0.86707 0.5345 0.7365 0.0
C1862 C 0.87472 0.55806 0.73509 0.0
C1863 C 0.86128 0.53396 0.75367 0.0
C1864 C 0.88788 0.51937 0.70434 0.0
N1865 N 0.87621 0.51853 0.69923 0.0
C1866 C 0.8641 0.49554 0.70763 0.0
C1867 C 0.86442 0.50697 0.70091 0.0
C1868 C 0.876 0.49609 0.71298 0.0
C1869 C 0.88801 0.50821 0.71132 0.0
H1870 H 0.89709 0.52874 0.70304 0.0
H1871 H 0.85523 0.50664 0.69737 0.0
C1872 C 0.85022 0.55953 0.69759 0.0
N1873 N 0.85207 0.54918 0.70197 0.0
C1874 C 0.83931 0.56009 0.7047 0.0
C1875 C 0.83252 0.53936 0.72073 0.0
C1876 C 0.84343 0.53913 0.71312 0.0
C1877 C 0.83029 0.54992 0.71649 0.0
H1878 H 0.85712 0.56728 0.68843 0.0
H1879 H 0.84503 0.5309 0.71609 0.0
C1880 C 0.90014 0.54298 0.66408 0.0
N1881 N 0.91543 0.53629 0.64211 0.0
C1882 C 0.91297 0.55271 0.65879 0.0
C1883 C 0.8952 0.5298 0.65849 0.0
C1884 C 0.92051 0.54915 0.64759 0.0
C1885 C 0.90305 0.52662 0.64732 0.0
C1886 C 0.8852 0.57667 0.67336 0.0
C1887 C 0.89086 0.58254 0.65638 0.0
C1888 C 0.88641 0.58472 0.68847 0.0
C1889 C 0.89785 0.59641 0.65489 0.0
C1890 C 0.89349 0.59855 0.68643 0.0
N1891 N 0.89903 0.60406 0.66982 0.0
C1892 C 0.86547 0.54223 0.62808 0.0
C1893 C 0.88905 0.55377 0.62702 0.0
C1894 C 0.86479 0.54232 0.60881 0.0
N1895 N 0.87747 0.54775 0.63673 0.0
C1896 C 0.88885 0.55413 0.60775 0.0
C1897 C 0.8766 0.54831 0.59839 0.0
H1898 H 0.85641 0.53781 0.63617 0.0
H1899 H 0.89845 0.55848 0.63423 0.0
C1900 C 0.91038 0.57482 0.71638 0.0
N1901 N 0.9071 0.57401 0.69821 0.0
C1902 C 0.92289 0.58466 0.72248 0.0
C1903 C 0.92824 0.59291 0.69112 0.0
C1904 C 0.91567 0.58283 0.68561 0.0
C1905 C 0.93211 0.59376 0.70973 0.0
H1906 H 0.90345 0.56754 0.72605 0.0
H1907 H 0.91291 0.5818 0.67118 0.0
O1908 O 0.86195 0.5331 0.67562 0.0
O1909 O 0.87935 0.54733 0.71018 0.0
O1910 O 0.89268 0.54631 0.67516 0.0
O1911 O 0.87841 0.56311 0.67512 0.0
H1912 H 0.8368 0.51814 0.68576 0.0
H1913 H 0.8671 0.52062 0.6489 0.0
H1914 H 0.82112 0.4959 0.67274 0.0
H1915 H 0.85097 0.4983 0.63667 0.0
H1916 H 0.86939 0.56586 0.75856 0.0
H1917 H 0.86627 0.52557 0.73057 0.0
H1918 H 0.87997 0.56755 0.72809 0.0
H1919 H 0.85601 0.52462 0.76106 0.0
H1920 H 0.85461 0.48643 0.70902 0.0
H1921 H 0.8974 0.50901 0.71525 0.0
H1922 H 0.83787 0.56828 0.70072 0.0
H1923 H 0.82597 0.53139 0.72993 0.0
H1924 H 0.91704 0.56293 0.66317 0.0
H1925 H 0.88549 0.52205 0.6629 0.0
H1926 H 0.93041 0.55661 0.64327 0.0
H1927 H 0.89932 0.51646 0.64286 0.0
H1928 H 0.88992 0.57646 0.64451 0.0
H1929 H 0.88198 0.58034 0.70164 0.0
H1930 H 0.90235 0.60109 0.64186 0.0
H1931 H 0.89458 0.6049 0.69804 0.0
H1932 H 0.85514 0.53794 0.60216 0.0
H1933 H 0.89819 0.55882 0.60026 0.0
H1934 H 0.9255 0.58473 0.73688 0.0
H1935 H 0.93494 0.59977 0.68082 0.0
Li1936 Li 0.3432 0.87892 0.68816 0.0
Li1937 Li 0.31912 0.86892 0.68739 0.0
Li1938 Li 0.33251 0.87996 0.65898 0.0
Li1939 Li 0.332 0.89271 0.6858 0.0
C1940 C 0.33491 0.85574 0.66643 0.0
N1941 N 0.34405 0.83911 0.65434 0.0
C1942 C 0.33002 0.84313 0.67431 0.0
C1943 C 0.34425 0.85976 0.65213 0.0
C1944 C 0.33482 0.8349 0.66809 0.0
C1945 C 0.3488 0.85125 0.64628 0.0
C1946 C 0.32525 0.87559 0.72254 0.0
C1947 C 0.30769 0.87067 0.74445 0.0
N1948 N 0.3118 0.8636 0.7548 0.0
C1949 C 0.32938 0.86839 0.73348 0.0
C1950 C 0.3144 0.87685 0.72814 0.0
C1951 C 0.32243 0.86237 0.74972 0.0
C1952 C 0.36957 0.8897 0.70059 0.0
N1953 N 0.35785 0.87811 0.69859 0.0
C1954 C 0.36728 0.86579 0.71179 0.0
C1955 C 0.35646 0.8663 0.70425 0.0
C1956 C 0.37962 0.87755 0.71342 0.0
C1957 C 0.38069 0.88963 0.70779 0.0
H1958 H 0.3703 0.89902 0.69658 0.0
H1959 H 0.34693 0.8573 0.7031 0.0
C1960 C 0.29121 0.85308 0.69174 0.0
N1961 N 0.30312 0.85422 0.69617 0.0
C1962 C 0.27939 0.84226 0.69814 0.0
C1963 C 0.29235 0.83398 0.71344 0.0
C1964 C 0.3039 0.84495 0.70676 0.0
C1965 C 0.27988 0.8325 0.70909 0.0
H1966 H 0.29088 0.86053 0.68313 0.0
H1967 H 0.31351 0.84613 0.71009 0.0
C1968 C 0.35928 0.90246 0.66277 0.0
N1969 N 0.38259 0.91833 0.64357 0.0
C1970 C 0.36327 0.91578 0.6591 0.0
C1971 C 0.36727 0.89729 0.6569 0.0
C1972 C 0.37505 0.92362 0.6493 0.0
C1973 C 0.37898 0.90544 0.64716 0.0
C1974 C 0.31072 0.88764 0.66527 0.0
C1975 C 0.31196 0.89307 0.64762 0.0
C1976 C 0.30306 0.88944 0.67865 0.0
C1977 C 0.30568 0.9004 0.64375 0.0
C1978 C 0.29695 0.89685 0.67425 0.0
N1979 N 0.29838 0.90214 0.65704 0.0
C1980 C 0.32469 0.86775 0.62415 0.0
C1981 C 0.34107 0.89065 0.62291 0.0
C1982 C 0.32446 0.86693 0.60486 0.0
N1983 N 0.33296 0.87947 0.63273 0.0
C1984 C 0.34132 0.89023 0.60365 0.0
C1985 C 0.33293 0.87826 0.59443 0.0
H1986 H 0.31824 0.85906 0.63233 0.0
H1987 H 0.3472 0.89995 0.62993 0.0
C1988 C 0.33481 0.91247 0.711 0.0
N1989 N 0.33349 0.90917 0.69279 0.0
C1990 C 0.33726 0.92504 0.71644 0.0
C1991 C 0.33649 0.93039 0.6843 0.0
C1992 C 0.33417 0.91776 0.67949 0.0
C1993 C 0.33838 0.93429 0.70296 0.0
H1994 H 0.33446 0.90552 0.72126 0.0
H1995 H 0.33334 0.91498 0.66508 0.0
O1996 O 0.33026 0.86388 0.67234 0.0
O1997 O 0.3318 0.88137 0.70644 0.0
O1998 O 0.34772 0.89465 0.6723 0.0
O1999 O 0.31686 0.88049 0.66934 0.0
H2000 H 0.32264 0.83973 0.68518 0.0
H2001 H 0.34785 0.86927 0.64544 0.0
H2002 H 0.33119 0.82517 0.67418 0.0
H2003 H 0.35606 0.85428 0.63527 0.0
H2004 H 0.29921 0.87149 0.74887 0.0
H2005 H 0.3378 0.86738 0.72942 0.0
H2006 H 0.31115 0.88249 0.71992 0.0
H2007 H 0.32546 0.85669 0.75826 0.0
H2008 H 0.36607 0.85629 0.71608 0.0
H2009 H 0.38999 0.89894 0.70917 0.0
H2010 H 0.26997 0.8414 0.69427 0.0
H2011 H 0.29318 0.82678 0.72205 0.0
H2012 H 0.35732 0.92002 0.66368 0.0
H2013 H 0.3646 0.88716 0.66009 0.0
H2014 H 0.3782 0.93391 0.64627 0.0
H2015 H 0.38524 0.90155 0.64254 0.0
H2016 H 0.31777 0.89171 0.63704 0.0
H2017 H 0.30191 0.88523 0.69233 0.0
H2018 H 0.30662 0.90472 0.63018 0.0
H2019 H 0.29107 0.89839 0.68452 0.0
H2020 H 0.31785 0.85753 0.59818 0.0
H2021 H 0.34779 0.89923 0.59603 0.0
H2022 H 0.33889 0.92768 0.73095 0.0
H2023 H 0.33715 0.93714 0.67346 0.0
Li2024 Li 0.44597 0.3163 0.69339 0.0
Li2025 Li 0.46165 0.34027 0.69263 0.0
Li2026 Li 0.4371 0.33085 0.68911 0.0
Li2027 Li 0.45003 0.3291 0.66365 0.0
C2028 C 0.44623 0.32498 0.72797 0.0
N2029 N 0.44441 0.31407 0.76258 0.0
C2030 C 0.45735 0.3302 0.73958 0.0
C2031 C 0.43414 0.3143 0.73404 0.0
C2032 C 0.45624 0.32453 0.75701 0.0
C2033 C 0.43344 0.30889 0.75156 0.0
C2034 C 0.47473 0.32769 0.67392 0.0
C2035 C 0.49394 0.33696 0.65388 0.0
N2036 N 0.49917 0.33082 0.66405 0.0
C2037 C 0.48022 0.32131 0.68401 0.0
C2038 C 0.48158 0.33545 0.65859 0.0
C2039 C 0.49261 0.32308 0.67888 0.0
C2040 C 0.43267 0.28836 0.69764 0.0
N2041 N 0.44301 0.30004 0.70382 0.0
C2042 C 0.44912 0.28855 0.72561 0.0
C2043 C 0.45129 0.30033 0.71736 0.0
C2044 C 0.43851 0.27636 0.71954 0.0
C2045 C 0.43027 0.2763 0.70529 0.0
H2046 H 0.42631 0.28842 0.68674 0.0
H2047 H 0.45957 0.30973 0.72178 0.0
C2048 C 0.47747 0.36611 0.70615 0.0
N2049 N 0.47744 0.35456 0.70288 0.0
C2050 C 0.4887 0.37705 0.71364 0.0
C2051 C 0.49957 0.3639 0.71468 0.0
C2052 C 0.48812 0.35322 0.70715 0.0
C2053 C 0.49997 0.37604 0.71797 0.0
H2054 H 0.46875 0.36684 0.70286 0.0
H2055 H 0.48773 0.34383 0.70497 0.0
C2056 C 0.41986 0.30989 0.67025 0.0
N2057 N 0.39334 0.30061 0.66245 0.0
C2058 C 0.41611 0.3122 0.65289 0.0
C2059 C 0.41013 0.30274 0.68358 0.0
C2060 C 0.40264 0.30745 0.64923 0.0
C2061 C 0.39677 0.29817 0.67939 0.0
C2062 C 0.45824 0.35713 0.66531 0.0
C2063 C 0.45152 0.36386 0.66035 0.0
C2064 C 0.47162 0.36248 0.66048 0.0
C2065 C 0.45826 0.37574 0.65038 0.0
C2066 C 0.47802 0.3744 0.65054 0.0
N2067 N 0.47126 0.38072 0.64571 0.0
C2068 C 0.41908 0.33353 0.71236 0.0
C2069 C 0.41707 0.33708 0.68051 0.0
C2070 C 0.40919 0.33655 0.71683 0.0
N2071 N 0.42286 0.33393 0.69448 0.0
C2072 C 0.40712 0.34016 0.68435 0.0
C2073 C 0.40319 0.34009 0.70276 0.0
H2074 H 0.424 0.33123 0.72322 0.0
H2075 H 0.42037 0.33743 0.66643 0.0
C2076 C 0.45316 0.31849 0.63044 0.0
N2077 N 0.45149 0.3284 0.63758 0.0
C2078 C 0.45407 0.31737 0.61132 0.0
C2079 C 0.45157 0.33671 0.60734 0.0
C2080 C 0.45054 0.33735 0.62648 0.0
C2081 C 0.45334 0.32662 0.59956 0.0
H2082 H 0.45376 0.31144 0.63963 0.0
H2083 H 0.44879 0.34487 0.63239 0.0
O2084 O 0.44717 0.33034 0.7108 0.0
O2085 O 0.46253 0.32594 0.67869 0.0
O2086 O 0.43301 0.31465 0.6742 0.0
O2087 O 0.45174 0.34546 0.67504 0.0
H2088 H 0.46677 0.3385 0.73514 0.0
H2089 H 0.42544 0.31015 0.72524 0.0
H2090 H 0.46478 0.32842 0.7661 0.0
H2091 H 0.42418 0.30057 0.75637 0.0
H2092 H 0.49935 0.34297 0.64207 0.0
H2093 H 0.47501 0.31513 0.69577 0.0
H2094 H 0.47736 0.34014 0.65024 0.0
H2095 H 0.49701 0.31828 0.68667 0.0
H2096 H 0.45581 0.28895 0.73638 0.0
H2097 H 0.422 0.26705 0.70026 0.0
H2098 H 0.4886 0.38624 0.71579 0.0
H2099 H 0.50794 0.36261 0.71815 0.0
H2100 H 0.42351 0.31771 0.64242 0.0
H2101 H 0.41288 0.30082 0.69705 0.0
H2102 H 0.39959 0.30923 0.63589 0.0
H2103 H 0.38914 0.2927 0.68961 0.0
H2104 H 0.44119 0.35993 0.6641 0.0
H2105 H 0.47708 0.35762 0.66461 0.0
H2106 H 0.45316 0.38102 0.64638 0.0
H2107 H 0.48838 0.37865 0.64673 0.0
H2108 H 0.40667 0.33663 0.73124 0.0
H2109 H 0.4027 0.34275 0.67307 0.0
H2110 H 0.45544 0.30945 0.6058 0.0
H2111 H 0.45071 0.34387 0.59867 0.0
C2112 C 0.38429 0.03558 0.20048 0.0
C2113 C 0.38705 0.0468 0.21112 0.0
C2114 C 0.37514 0.02281 0.20671 0.0
C2115 C 0.36124 0.00511 0.25036 0.0
H2116 H 0.34008 0.97531 0.21776 0.0
C2117 C 0.33335 0.9514 0.27782 0.0
C2118 C 0.33579 0.94247 0.26772 0.0
C2119 C 0.33663 0.9638 0.27041 0.0
C2120 C 0.34592 0.98355 0.22703 0.0
H2121 H 0.38172 0.05356 0.23593 0.0
H2122 H 0.36557 0.03126 0.24672 0.0
H2123 H 0.35107 0.99797 0.20546 0.0
H2124 H 0.34323 0.93945 0.24169 0.0
H2125 H 0.34886 0.96099 0.22878 0.0
H2126 H 0.35641 0.99071 0.2718 0.0
C2127 C 0.37072 0.03229 0.23378 0.0
C2128 C 0.35223 0.99651 0.21999 0.0
C2129 C 0.37994 0.04506 0.22761 0.0
C2130 C 0.34105 0.94599 0.24975 0.0
C2131 C 0.34427 0.95836 0.24233 0.0
C2132 C 0.3549 0.99217 0.2574 0.0
C2133 C 0.36848 0.021 0.22366 0.0
C2134 C 0.36024 0.00742 0.23148 0.0
C2135 C 0.34236 0.9675 0.25272 0.0
C2136 C 0.34744 0.98123 0.24572 0.0
H2137 H 0.38971 0.03662 0.1878 0.0
H2138 H 0.3738 0.01435 0.19867 0.0
H2139 H 0.36749 0.01323 0.25956 0.0
H2140 H 0.32908 0.94889 0.29157 0.0
H2141 H 0.33489 0.97059 0.27864 0.0
C2142 C 0.40386 0.3528 0.2633 0.0
C2143 C 0.39934 0.34487 0.27929 0.0
C2144 C 0.39715 0.35905 0.2565 0.0
C2145 C 0.36551 0.35893 0.25658 0.0
H2146 H 0.38803 0.39624 0.24417 0.0
C2147 C 0.345 0.39369 0.23515 0.0
C2148 C 0.35202 0.403 0.22114 0.0
C2149 C 0.34995 0.38586 0.24254 0.0
C2150 C 0.3816 0.38579 0.24734 0.0
H2151 H 0.38396 0.33691 0.30034 0.0
H2152 H 0.37216 0.34796 0.28835 0.0
H2153 H 0.398 0.38373 0.25646 0.0
H2154 H 0.36927 0.41092 0.20317 0.0
H2155 H 0.37779 0.39719 0.21579 0.0
H2156 H 0.3491 0.361 0.24719 0.0
C2157 C 0.38092 0.34926 0.28114 0.0
C2158 C 0.38732 0.37864 0.25443 0.0
C2159 C 0.38771 0.34303 0.28805 0.0
C2160 C 0.3638 0.40402 0.21422 0.0
C2161 C 0.36869 0.39617 0.22149 0.0
C2162 C 0.35976 0.36609 0.24935 0.0
C2163 C 0.38574 0.35754 0.26549 0.0
C2164 C 0.37937 0.3651 0.25889 0.0
C2165 C 0.36196 0.38718 0.23597 0.0
C2166 C 0.36779 0.37956 0.24442 0.0
H2167 H 0.41289 0.35458 0.25636 0.0
H2168 H 0.401 0.36525 0.24428 0.0
H2169 H 0.35917 0.34848 0.25987 0.0
H2170 H 0.33592 0.39276 0.24079 0.0
H2171 H 0.34458 0.37909 0.25376 0.0
C2172 C 0.95824 0.34915 0.20097 0.0
C2173 C 0.94704 0.33867 0.20962 0.0
C2174 C 0.97106 0.35276 0.20688 0.0
C2175 C 0.98864 0.35261 0.24852 0.0
H2176 H 0.01883 0.3656 0.21523 0.0
C2177 C 0.04252 0.37902 0.27597 0.0
C2178 C 0.05117 0.39103 0.26691 0.0
C2179 C 0.03018 0.37007 0.26821 0.0
C2180 C 0.0105 0.36201 0.2247 0.0
H2181 H 0.94059 0.3233 0.23063 0.0
H2182 H 0.96305 0.32977 0.24113 0.0
H2183 H 0.99626 0.35424 0.20268 0.0
H2184 H 0.05371 0.40295 0.24249 0.0
H2185 H 0.03226 0.38742 0.22904 0.0
H2186 H 0.00283 0.36085 0.27048 0.0
C2187 C 0.96184 0.33524 0.22987 0.0
C2188 C 0.99759 0.35549 0.21752 0.0
C2189 C 0.949 0.33157 0.22389 0.0
C2190 C 0.04738 0.3937 0.24969 0.0
C2191 C 0.03508 0.38477 0.24195 0.0
C2192 C 0.00155 0.35916 0.2557 0.0
C2193 C 0.973 0.34603 0.22164 0.0
C2194 C 0.98654 0.35105 0.22932 0.0
C2195 C 0.02624 0.37294 0.25124 0.0
C2196 C 0.01262 0.36426 0.24383 0.0
H2197 H 0.95712 0.35498 0.19015 0.0
H2198 H 0.97944 0.36126 0.20045 0.0
H2199 H 0.98034 0.34943 0.25796 0.0
H2200 H 0.04524 0.3766 0.28914 0.0
H2201 H 0.02365 0.36096 0.27559 0.0
C2202 C 0.60755 0.96086 0.19757 0.0
C2203 C 0.60492 0.95018 0.20936 0.0
C2204 C 0.6163 0.97394 0.20298 0.0
C2205 C 0.64203 0.99501 0.23748 0.0
H2206 H 0.62753 0.01838 0.2298 0.0
C2207 C 0.65886 0.04396 0.27822 0.0
C2208 C 0.65886 0.0546 0.26887 0.0
C2209 C 0.65442 0.03173 0.26936 0.0
C2210 C 0.63189 0.0121 0.23178 0.0
H2211 H 0.61016 0.94485 0.23554 0.0
H2212 H 0.62515 0.96774 0.24522 0.0
H2213 H 0.61612 0.99611 0.21689 0.0
H2214 H 0.65465 0.06079 0.24256 0.0
H2215 H 0.64742 0.03973 0.22705 0.0
H2216 H 0.65766 0.01104 0.2528 0.0
C2217 C 0.62051 0.96598 0.23173 0.0
C2218 C 0.62533 -0.00069 0.22435 0.0
C2219 C 0.61179 0.95287 0.22628 0.0
C2220 C 0.65494 0.05291 0.25019 0.0
C2221 C 0.6506 0.04074 0.24134 0.0
C2222 C 0.64863 0.00788 0.24493 0.0
C2223 C 0.62257 0.97667 0.22035 0.0
C2224 C 0.63025 0.99057 0.22721 0.0
C2225 C 0.64993 0.0299 0.25095 0.0
C2226 C 0.64356 0.01652 0.24225 0.0
H2227 H 0.60239 0.95917 0.18449 0.0
H2228 H 0.61785 0.98197 0.19378 0.0
H2229 H 0.64611 0.98853 0.23979 0.0
H2230 H 0.66201 0.04498 0.29252 0.0
H2231 H 0.65399 0.02355 0.27719 0.0
C2232 C 0.60994 0.65724 0.27738 0.0
C2233 C 0.59942 0.65698 0.26742 0.0
C2234 C 0.61855 0.65374 0.26876 0.0
C2235 C 0.61861 0.63357 0.22947 0.0
H2236 H 0.65555 0.64754 0.2433 0.0
C2237 C 0.64876 0.61127 0.19927 0.0
C2238 C 0.65519 0.60761 0.21256 0.0
C2239 C 0.64405 0.61986 0.20394 0.0
C2240 C 0.64524 0.64357 0.2393 0.0
H2241 H 0.59019 0.65384 0.24045 0.0
H2242 H 0.60541 0.64809 0.22524 0.0
H2243 H 0.6434 0.65822 0.25504 0.0
H2244 H 0.66251 0.61077 0.24076 0.0
H2245 H 0.6541 0.62563 0.249 0.0
H2246 H 0.62033 0.61881 0.21404 0.0
C2247 C 0.60679 0.65057 0.23982 0.0
C2248 C 0.63828 0.64965 0.24605 0.0
C2249 C 0.59811 0.6539 0.24849 0.0
C2250 C 0.65744 0.61328 0.23031 0.0
C2251 C 0.65275 0.6219 0.23496 0.0
C2252 C 0.62558 0.62758 0.22265 0.0
C2253 C 0.61687 0.65005 0.24998 0.0
C2254 C 0.6248 0.64458 0.24145 0.0
C2255 C 0.64568 0.62498 0.22197 0.0
C2256 C 0.6389 0.63236 0.22772 0.0
H2257 H 0.6111 0.65951 0.29203 0.0
H2258 H 0.6261 0.65332 0.27707 0.0
H2259 H 0.60818 0.6292 0.22593 0.0
H2260 H 0.6468 0.60701 0.18551 0.0
H2261 H 0.63876 0.62217 0.19358 0.0
C2262 C 0.03621 0.64236 0.20778 0.0
C2263 C 0.04779 0.65352 0.21444 0.0
C2264 C 0.02376 0.63904 0.21498 0.0
C2265 C 0.00874 0.64237 0.25753 0.0
H2266 H 0.97648 0.6254 0.22809 0.0
C2267 C 0.94753 0.61194 0.26636 0.0
C2268 C 0.94653 0.60304 0.2803 0.0
C2269 C 0.95993 0.62098 0.25882 0.0
C2270 C 0.98538 0.63033 0.23651 0.0
H2271 H 0.05538 0.67023 0.2334 0.0
H2272 H 0.03356 0.66447 0.2459 0.0
H2273 H -0.00191 0.63639 0.21274 0.0
H2274 H 0.95775 0.5971 0.29798 0.0
H2275 H 0.97931 0.61266 0.28468 0.0
H2276 H 0.99604 0.63609 0.2813 0.0
C2277 C 0.03415 0.65825 0.2352 0.0
C2278 C 0.99776 0.6365 0.22772 0.0
C2279 C 0.04662 0.6616 0.22794 0.0
C2280 C 0.9582 0.60372 0.28708 0.0
C2281 C 0.97057 0.61276 0.27961 0.0
C2282 C 0.99636 0.6362 0.26632 0.0
C2283 C 0.02261 0.64679 0.22902 0.0
C2284 C 0.00957 0.64222 0.23814 0.0
C2285 C 0.97156 0.62133 0.26517 0.0
C2286 C 0.98456 0.62975 0.25592 0.0
H2287 H 0.03678 0.63605 0.1972 0.0
H2288 H 0.01511 0.63006 0.21005 0.0
H2289 H 0.01764 0.64663 0.26598 0.0
H2290 H 0.93869 0.6116 0.26082 0.0
H2291 H 0.9604 0.62753 0.2478 0.0
C2292 C 0.6071 0.95924 0.79008 0.0
C2293 C 0.60448 0.94765 0.78038 0.0
C2294 C 0.6157 0.97182 0.78274 0.0
C2295 C 0.62625 0.98827 0.73857 0.0
H2296 H 0.65216 0.01839 0.76725 0.0
C2297 C 0.65226 0.04111 0.70791 0.0
C2298 C 0.65346 0.05129 0.71974 0.0
C2299 C 0.64884 0.02858 0.71496 0.0
C2300 C 0.6449 0.01011 0.75907 0.0
H2301 H 0.60952 0.94031 0.75581 0.0
H2302 H 0.62418 0.96233 0.74274 0.0
H2303 H 0.64152 0.99608 0.78067 0.0
H2304 H 0.65264 0.05639 0.74842 0.0
H2305 H 0.64602 0.03444 0.76053 0.0
H2306 H 0.62894 0.00221 0.71738 0.0
C2307 C 0.61953 0.96158 0.75602 0.0
C2308 C 0.63888 0.99734 0.76674 0.0
C2309 C 0.61107 0.94899 0.76347 0.0
C2310 C 0.65154 0.04872 0.73884 0.0
C2311 C 0.64797 0.03616 0.74584 0.0
C2312 C 0.63211 0.00104 0.73099 0.0
C2313 C 0.62174 0.97309 0.76545 0.0
C2314 C 0.62934 0.98635 0.75666 0.0
C2315 C 0.64638 0.02586 0.73397 0.0
C2316 C 0.64133 0.01216 0.74128 0.0
H2317 H 0.60208 0.95864 0.80296 0.0
H2318 H 0.6171 0.98054 0.79018 0.0
H2319 H 0.61879 0.97997 0.73059 0.0
H2320 H 0.65356 0.04267 0.69312 0.0
H2321 H 0.64792 0.02096 0.70543 0.0
C2322 C 0.66071 0.61541 0.77794 0.0
C2323 C 0.65561 0.60251 0.7707 0.0
C2324 C 0.65721 0.62426 0.77007 0.0
C2325 C 0.64141 0.62935 0.72833 0.0
H2326 H 0.63015 0.64762 0.76246 0.0
C2327 C 0.60092 0.64207 0.71167 0.0
C2328 C 0.60278 0.65453 0.71693 0.0
C2329 C 0.61018 0.63832 0.71669 0.0
C2330 C 0.6335 0.6428 0.75274 0.0
H2331 H 0.64288 0.5888 0.74952 0.0
H2332 H 0.6367 0.60408 0.73596 0.0
H2333 H 0.64152 0.63622 0.77426 0.0
H2334 H 0.61578 0.67296 0.73125 0.0
H2335 H 0.63195 0.66621 0.7405 0.0
H2336 H 0.63268 0.63531 0.70698 0.0
C2337 C 0.64366 0.60754 0.74741 0.0
C2338 C 0.64003 0.63628 0.75948 0.0
C2339 C 0.64718 0.59875 0.75522 0.0
C2340 C 0.61418 0.6633 0.72704 0.0
C2341 C 0.62337 0.65944 0.73235 0.0
C2342 C 0.63478 0.63576 0.72165 0.0
C2343 C 0.64851 0.62036 0.75484 0.0
C2344 C 0.64367 0.62912 0.74741 0.0
C2345 C 0.6214 0.64688 0.72727 0.0
C2346 C 0.63041 0.64219 0.73386 0.0
H2347 H 0.66735 0.61864 0.78975 0.0
H2348 H 0.66123 0.6341 0.776 0.0
H2349 H 0.64437 0.6242 0.71862 0.0
H2350 H 0.59225 0.63519 0.70374 0.0
H2351 H 0.60833 0.62852 0.71278 0.0
C2352 C 0.94875 0.60914 0.73318 0.0
C2353 C 0.94601 0.60323 0.71554 0.0
C2354 C 0.96186 0.61658 0.73951 0.0
C2355 C 0.9942 0.61881 0.73198 0.0
H2356 H 0.00731 0.649 0.76529 0.0
C2357 C 0.0405 0.63447 0.77617 0.0
C2358 C 0.04983 0.64811 0.77754 0.0
C2359 C 0.02804 0.63019 0.76831 0.0
C2360 C 0.00383 0.64066 0.75586 0.0
H2361 H 0.95505 0.60113 0.69038 0.0
H2362 H 0.97782 0.61447 0.70114 0.0
H2363 H 0.9854 0.64026 0.75091 0.0
H2364 H 0.05332 0.66799 0.77218 0.0
H2365 H 0.03145 0.66048 0.75828 0.0
H2366 H 0.01255 0.6192 0.73674 0.0
C2367 C 0.96982 0.6131 0.71025 0.0
C2368 C 0.99125 0.63558 0.74776 0.0
C2369 C 0.95673 0.60559 0.70399 0.0
C2370 C 0.04629 0.65741 0.77137 0.0
C2371 C 0.03378 0.65312 0.76343 0.0
C2372 C 0.00672 0.62387 0.74003 0.0
C2373 C 0.97252 0.61833 0.72829 0.0
C2374 C 0.98624 0.6245 0.73588 0.0
C2375 C 0.02461 0.63945 0.76157 0.0
C2376 C 0.0116 0.63471 0.75228 0.0
H2377 H 0.94074 0.60772 0.74232 0.0
H2378 H 0.96358 0.62043 0.7535 0.0
H2379 H 0.9906 0.61016 0.72311 0.0
H2380 H 0.04284 0.62707 0.78118 0.0
H2381 H 0.02107 0.6196 0.7675 0.0
C2382 C 0.38727 0.04244 0.77815 0.0
C2383 C 0.39877 0.05236 0.76934 0.0
C2384 C 0.37916 0.03027 0.76933 0.0
C2385 C 0.38159 0.00901 0.73372 0.0
H2386 H 0.34313 0.98845 0.73806 0.0
C2387 C 0.35217 0.95883 0.69735 0.0
C2388 C 0.34273 0.94826 0.70823 0.0
C2389 C 0.35753 0.97197 0.70327 0.0
C2390 C 0.35387 0.99408 0.73681 0.0
H2391 H 0.41032 0.05777 0.74402 0.0
H2392 H 0.39609 0.03665 0.72853 0.0
H2393 H 0.35527 0.01088 0.75127 0.0
H2394 H 0.33095 0.94329 0.73334 0.0
H2395 H 0.3406 0.96629 0.74392 0.0
H2396 H 0.38031 0.99225 0.71961 0.0
C2397 C 0.39352 0.03808 0.74241 0.0
C2398 C 0.36082 0.00689 0.74437 0.0
C2399 C 0.40165 0.05017 0.75125 0.0
C2400 C 0.33834 0.9512 0.72477 0.0
C2401 C 0.34376 0.96437 0.73073 0.0
C2402 C 0.37468 0.99627 0.72617 0.0
C2403 C 0.38238 0.02786 0.75152 0.0
C2404 C 0.37476 0.01448 0.74294 0.0
C2405 C 0.35367 0.97486 0.72026 0.0
C2406 C 0.36075 0.98864 0.72765 0.0
H2407 H 0.38487 0.04388 0.79213 0.0
H2408 H 0.3707 0.02256 0.77677 0.0
H2409 H 0.39235 0.01443 0.73275 0.0
H2410 H 0.35589 0.95696 0.68462 0.0
H2411 H 0.365 0.97985 0.69475 0.0
C2412 C 0.35607 0.39927 0.77819 0.0
C2413 C 0.34336 0.39714 0.77369 0.0
C2414 C 0.36112 0.39202 0.76943 0.0
C2415 C 0.35212 0.36171 0.74273 0.0
H2416 H 0.38884 0.38212 0.72639 0.0
C2417 C 0.3843 0.3385 0.72176 0.0
C2418 C 0.39368 0.34468 0.70751 0.0
C2419 C 0.37657 0.34391 0.72782 0.0
C2420 C 0.37852 0.37628 0.73063 0.0
H2421 H 0.32578 0.38536 0.75694 0.0
H2422 H 0.3347 0.3727 0.74145 0.0
H2423 H 0.3785 0.39342 0.74141 0.0
H2424 H 0.40183 0.36103 0.68788 0.0
H2425 H 0.38816 0.37028 0.69821 0.0
H2426 H 0.35223 0.34454 0.73191 0.0
C2427 C 0.34071 0.37999 0.75183 0.0
C2428 C 0.37266 0.38274 0.73946 0.0
C2429 C 0.33566 0.3873 0.76058 0.0
C2430 C 0.39465 0.35597 0.69881 0.0
C2431 C 0.38692 0.36136 0.70486 0.0
C2432 C 0.35803 0.35521 0.73392 0.0
C2433 C 0.35359 0.38247 0.75594 0.0
C2434 C 0.35946 0.37552 0.74582 0.0
C2435 C 0.37807 0.35561 0.71977 0.0
C2436 C 0.37133 0.36243 0.72791 0.0
H2437 H 0.36234 0.40688 0.78805 0.0
H2438 H 0.37101 0.39401 0.77308 0.0
H2439 H 0.34194 0.3559 0.74752 0.0
H2440 H 0.38319 0.32968 0.72856 0.0
H2441 H 0.36987 0.33927 0.73939 0.0
C2442 C 0.03678 0.38885 0.70032 0.0
C2443 C 0.0476 0.39222 0.71223 0.0
C2444 C 0.02374 0.38052 0.7063 0.0
C2445 C 0.00326 0.35756 0.74426 0.0
H2446 H 0.97844 0.36907 0.72959 0.0
C2447 C 0.9546 0.34453 0.78329 0.0
C2448 C 0.94337 0.34172 0.77259 0.0
C2449 C 0.96683 0.34837 0.77481 0.0
C2450 C 0.98518 0.3656 0.73359 0.0
H2451 H 0.0531 0.38877 0.73952 0.0
H2452 H 0.03036 0.37481 0.75026 0.0
H2453 H 0.00076 0.38015 0.71678 0.0
H2454 H 0.93596 0.33984 0.74453 0.0
H2455 H 0.95736 0.34678 0.72978 0.0
H2456 H 0.98767 0.34338 0.76179 0.0
C2457 C 0.03196 0.37842 0.73615 0.0
C2458 C -0.00201 0.37192 0.7262 0.0
C2459 C 0.04503 0.38662 0.73007 0.0
C2460 C 0.94449 0.34224 0.75319 0.0
C2461 C 0.95672 0.34615 0.74474 0.0
C2462 C 0.99044 0.35132 0.75183 0.0
C2463 C 0.02114 0.37549 0.72445 0.0
C2464 C 0.00724 0.36806 0.73152 0.0
C2465 C 0.96806 0.34953 0.75547 0.0
C2466 C 0.98132 0.35535 0.74664 0.0
H2467 H 0.03829 0.39304 0.68655 0.0
H2468 H 0.01568 0.37826 0.69677 0.0
H2469 H 0.01006 0.35421 0.74847 0.0
H2470 H 0.95412 0.34436 0.79826 0.0
H2471 H 0.97545 0.35104 0.78342 0.0
C2472 C 0.44516 0.18304 0.21197 0.0
C2473 C 0.44671 0.17432 0.22381 0.0
C2474 C 0.44582 0.19457 0.21897 0.0
C2475 C 0.44001 0.20864 0.26006 0.0
H2476 H 0.46434 0.24296 0.23834 0.0
C2477 C 0.44719 0.25749 0.2915 0.0
C2478 C 0.44955 0.26788 0.27936 0.0
C2479 C 0.44709 0.24611 0.28494 0.0
C2480 C 0.45732 0.23346 0.24439 0.0
H2481 H 0.45003 0.17061 0.25214 0.0
H2482 H 0.45085 0.19071 0.26451 0.0
H2483 H 0.46351 0.22293 0.22627 0.0
H2484 H 0.45337 0.27454 0.2509 0.0
H2485 H 0.45263 0.25446 0.2392 0.0
H2486 H 0.43339 0.21895 0.2777 0.0
C2487 C 0.44926 0.18866 0.24982 0.0
C2488 C 0.45693 0.22201 0.23753 0.0
C2489 C 0.44885 0.17724 0.24277 0.0
C2490 C 0.45166 0.26668 0.26053 0.0
C2491 C 0.45132 0.25521 0.2539 0.0
C2492 C 0.44021 0.22005 0.26671 0.0
C2493 C 0.44781 0.19743 0.23795 0.0
C2494 C 0.4483 0.20953 0.24534 0.0
C2495 C 0.44911 0.24479 0.26603 0.0
C2496 C 0.44889 0.23262 0.25898 0.0
H2497 H 0.44357 0.181 0.19728 0.0
H2498 H 0.44461 0.20118 0.20959 0.0
H2499 H 0.43317 0.19908 0.26615 0.0
H2500 H 0.44567 0.25828 0.30613 0.0
H2501 H 0.44562 0.23845 0.29478 0.0
C2502 C 0.18853 0.45458 0.28484 0.0
C2503 C 0.17565 0.44447 0.28003 0.0
C2504 C 0.19968 0.45402 0.2788 0.0
C2505 C 0.21064 0.43923 0.24278 0.0
H2506 H 0.24019 0.44839 0.27614 0.0
C2507 C 0.25504 0.43276 0.22209 0.0
C2508 C 0.26778 0.44324 0.22671 0.0
C2509 C 0.24367 0.43236 0.22929 0.0
C2510 C 0.23206 0.44591 0.26662 0.0
H2511 H 0.16437 0.42593 0.26498 0.0
H2512 H 0.18384 0.42488 0.25464 0.0
H2513 H 0.22056 0.44886 0.28728 0.0
H2514 H 0.27858 0.46149 0.24252 0.0
H2515 H 0.25874 0.46081 0.25505 0.0
H2516 H 0.22216 0.4364 0.22206 0.0
C2517 C 0.18531 0.43327 0.26298 0.0
C2518 C 0.22084 0.44619 0.273 0.0
C2519 C 0.17416 0.4338 0.26906 0.0
C2520 C 0.26891 0.45319 0.23891 0.0
C2521 C 0.25754 0.4528 0.24609 0.0
C2522 C 0.22187 0.43897 0.2364 0.0
C2523 C 0.19819 0.44338 0.26778 0.0
C2524 C 0.21003 0.44289 0.26112 0.0
C2525 C 0.2448 0.44244 0.24124 0.0
C2526 C 0.23272 0.44235 0.24822 0.0
H2527 H 0.18999 0.46286 0.29342 0.0
H2528 H 0.20949 0.46203 0.28257 0.0
H2529 H 0.20255 0.43682 0.23323 0.0
H2530 H 0.25386 0.42485 0.21294 0.0
H2531 H 0.234 0.42413 0.22554 0.0
C2532 C 0.72933 0.18209 0.26451 0.0
C2533 C 0.7284 0.17878 0.28332 0.0
C2534 C 0.74081 0.19304 0.25757 0.0
C2535 C 0.77634 0.21659 0.26909 0.0
H2536 H 0.77295 0.23729 0.22951 0.0
C2537 C 0.81859 0.26827 0.24466 0.0
C2538 C 0.82103 0.26936 0.22554 0.0
C2539 C 0.80752 0.25702 0.25192 0.0
C2540 C 0.77402 0.23153 0.2405 0.0
H2541 H 0.73853 0.18426 0.30972 0.0
H2542 H 0.75843 0.20377 0.29785 0.0
H2543 H 0.75305 0.21826 0.24212 0.0
H2544 H 0.81392 0.25975 0.19897 0.0
H2545 H 0.79431 0.24017 0.21167 0.0
H2546 H 0.79736 0.23031 0.26776 0.0
C2547 C 0.75051 0.19772 0.28826 0.0
C2548 C 0.76264 0.22058 0.24768 0.0
C2549 C 0.7391 0.1866 0.29513 0.0
C2550 C 0.81225 0.25907 0.21378 0.0
C2551 C 0.80104 0.24795 0.221 0.0
C2552 C 0.7877 0.2277 0.26211 0.0
C2553 C 0.75152 0.20107 0.26937 0.0
C2554 C 0.76365 0.2129 0.26198 0.0
C2555 C 0.7986 0.24684 0.24012 0.0
C2556 C 0.78662 0.23519 0.24769 0.0
H2557 H 0.72124 0.17606 0.25511 0.0
H2558 H 0.74132 0.19509 0.24289 0.0
H2559 H 0.77757 0.2108 0.27986 0.0
H2560 H 0.82529 0.27608 0.25397 0.0
H2561 H 0.80577 0.25639 0.26671 0.0
C2562 C 0.55468 0.81552 0.21645 0.0
C2563 C 0.5504 0.82289 0.22696 0.0
C2564 C 0.55496 0.80463 0.22417 0.0
C2565 C 0.54002 0.77938 0.26023 0.0
H2566 H 0.57124 0.77577 0.25341 0.0
C2567 C 0.54454 0.73684 0.29432 0.0
C2568 C 0.55024 0.73084 0.28363 0.0
C2569 C 0.54499 0.7485 0.28829 0.0
C2570 C 0.56238 0.77654 0.25526 0.0
H2571 H 0.5431 0.82458 0.25391 0.0
H2572 H 0.54331 0.80533 0.26722 0.0
H2573 H 0.57103 0.79522 0.24103 0.0
H2574 H 0.56112 0.73259 0.25838 0.0
H2575 H 0.56144 0.75257 0.24753 0.0
H2576 H 0.53119 0.76057 0.27401 0.0
C2577 C 0.54643 0.80803 0.25299 0.0
C2578 C 0.56229 0.7877 0.24822 0.0
C2579 C 0.54627 0.81901 0.24533 0.0
C2580 C 0.55647 0.73683 0.26684 0.0
C2581 C 0.55683 0.74842 0.26074 0.0
C2582 C 0.54004 0.76815 0.26713 0.0
C2583 C 0.55084 0.80079 0.2425 0.0
C2584 C 0.55108 0.78919 0.25055 0.0
C2585 C 0.55106 0.75439 0.27137 0.0
C2586 C 0.5512 0.76656 0.26463 0.0
H2587 H 0.55765 0.81802 0.20214 0.0
H2588 H 0.5582 0.79908 0.21568 0.0
H2589 H 0.5312 0.78023 0.26204 0.0
H2590 H 0.53953 0.73243 0.30722 0.0
H2591 H 0.5406 0.75292 0.29693 0.0
C2592 C 0.7398 0.56379 0.22488 0.0
C2593 C 0.7287 0.55194 0.2188 0.0
C2594 C 0.75123 0.5638 0.23099 0.0
C2595 C 0.76969 0.54616 0.22654 0.0
H2596 H 0.7851 0.56209 0.27391 0.0
C2597 C 0.8118 0.54054 0.26007 0.0
C2598 C 0.82137 0.5512 0.2706 0.0
C2599 C 0.80069 0.54083 0.25317 0.0
C2600 C 0.78109 0.55781 0.2605 0.0
H2601 H 0.72082 0.53086 0.21406 0.0
H2602 H 0.74093 0.53091 0.22454 0.0
H2603 H 0.76537 0.56233 0.26292 0.0
H2604 H 0.8272 0.57072 0.28163 0.0
H2605 H 0.8081 0.5715 0.26906 0.0
H2606 H 0.78553 0.54189 0.22382 0.0
C2607 C 0.74074 0.54015 0.22465 0.0
C2608 C 0.76975 0.55789 0.25428 0.0
C2609 C 0.72923 0.5401 0.21881 0.0
C2610 C 0.81985 0.56231 0.27372 0.0
C2611 C 0.80886 0.5627 0.26661 0.0
C2612 C 0.78116 0.54624 0.23263 0.0
C2613 C 0.75181 0.55199 0.23086 0.0
C2614 C 0.76392 0.55202 0.23729 0.0
C2615 C 0.79904 0.55188 0.25646 0.0
C2616 C 0.78698 0.55202 0.24973 0.0
H2617 H 0.73959 0.57303 0.22508 0.0
H2618 H 0.75967 0.57307 0.23563 0.0
H2619 H 0.76544 0.54169 0.21329 0.0
H2620 H 0.8127 0.5318 0.25764 0.0
H2621 H 0.79325 0.53223 0.24568 0.0
C2622 C 0.17606 0.73865 0.22467 0.0
C2623 C 0.17269 0.72564 0.22974 0.0
C2624 C 0.18699 0.7496 0.23272 0.0
C2625 C 0.21884 0.75934 0.25513 0.0
H2626 H 0.21719 0.79062 0.26996 0.0
C2627 C 0.26338 0.80466 0.28942 0.0
C2628 C 0.26601 0.81729 0.28353 0.0
C2629 C 0.25164 0.79323 0.28414 0.0
C2630 C 0.21784 0.78201 0.26572 0.0
H2631 H 0.17803 0.71387 0.24728 0.0
H2632 H 0.19714 0.73305 0.26143 0.0
H2633 H 0.19717 0.77105 0.25854 0.0
H2634 H 0.25853 0.82787 0.26731 0.0
H2635 H 0.23812 0.80795 0.25789 0.0
H2636 H 0.23955 0.77035 0.2619 0.0
C2637 C 0.19134 0.73475 0.25118 0.0
C2638 C 0.20638 0.7708 0.25923 0.0
C2639 C 0.18035 0.72379 0.24321 0.0
C2640 C 0.25667 0.81828 0.27228 0.0
C2641 C 0.24497 0.80686 0.26693 0.0
C2642 C 0.23033 0.77057 0.26153 0.0
C2643 C 0.19481 0.74776 0.24593 0.0
C2644 C 0.20679 0.75939 0.25373 0.0
C2645 C 0.24232 0.79421 0.27278 0.0
C2646 C 0.22998 0.78207 0.26675 0.0
H2647 H 0.17025 0.74037 0.21445 0.0
H2648 H 0.18949 0.75951 0.22829 0.0
H2649 H 0.21949 0.75075 0.25075 0.0
H2650 H 0.27033 0.80362 0.29831 0.0
H2651 H 0.24981 0.78365 0.2891 0.0
C2652 C 0.5385 0.72984 0.72324 0.0
C2653 C 0.55026 0.73032 0.7173 0.0
C2654 C 0.53873 0.74133 0.72953 0.0
C2655 C 0.5615 0.77511 0.74766 0.0
H2656 H 0.53194 0.78065 0.73623 0.0
C2657 C 0.56133 0.82367 0.76545 0.0
C2658 C 0.54969 0.82203 0.77395 0.0
C2659 C 0.56169 0.81276 0.75793 0.0
C2660 C 0.54022 0.77918 0.73961 0.0
H2661 H 0.57145 0.74319 0.71303 0.0
H2662 H 0.57185 0.76336 0.72373 0.0
H2663 H 0.53215 0.76119 0.7239 0.0
H2664 H 0.52935 0.80754 0.7814 0.0
H2665 H 0.52993 0.78857 0.76795 0.0
H2666 H 0.5696 0.79322 0.76323 0.0
C2667 C 0.56249 0.75406 0.72389 0.0
C2668 C 0.54034 0.76802 0.7326 0.0
C2669 C 0.56226 0.74252 0.71772 0.0
C2670 C 0.5384 0.80922 0.77466 0.0
C2671 C 0.53873 0.79834 0.767 0.0
C2672 C 0.56143 0.78633 0.75454 0.0
C2673 C 0.55072 0.75359 0.72989 0.0
C2674 C 0.55091 0.76577 0.7367 0.0
C2675 C 0.55038 0.8 0.75861 0.0
C2676 C 0.55073 0.7884 0.75072 0.0
H2677 H 0.52914 0.72052 0.72332 0.0
H2678 H 0.52953 0.74054 0.73441 0.0
H2679 H 0.5697 0.77359 0.75131 0.0
H2680 H 0.57014 0.83343 0.76437 0.0
H2681 H 0.57076 0.81433 0.75136 0.0
C2682 C 0.72766 0.5377 0.78262 0.0
C2683 C 0.72684 0.54937 0.78392 0.0
C2684 C 0.73904 0.53812 0.77547 0.0
C2685 C 0.77458 0.55969 0.76806 0.0
H2686 H 0.76998 0.535 0.72871 0.0
C2687 C 0.81938 0.5623 0.72929 0.0
C2688 C 0.81853 0.5502 0.72414 0.0
C2689 C 0.8083 0.56252 0.73642 0.0
C2690 C 0.77146 0.54183 0.73988 0.0
H2691 H 0.7375 0.57069 0.77883 0.0
H2692 H 0.75754 0.57143 0.76689 0.0
H2693 H 0.75054 0.53467 0.74211 0.0
H2694 H 0.8052 0.52884 0.72231 0.0
H2695 H 0.78616 0.52914 0.73558 0.0
H2696 H 0.79544 0.56662 0.76629 0.0
C2697 C 0.7493 0.56198 0.77139 0.0
C2698 C 0.76031 0.54166 0.74747 0.0
C2699 C 0.73784 0.56154 0.77831 0.0
C2700 C 0.80632 0.53833 0.72638 0.0
C2701 C 0.7953 0.53853 0.73372 0.0
C2702 C 0.78574 0.55973 0.76065 0.0
C2703 C 0.74992 0.55025 0.76971 0.0
C2704 C 0.76178 0.55057 0.76164 0.0
C2705 C 0.79612 0.55063 0.73878 0.0
C2706 C 0.78431 0.55078 0.74649 0.0
H2707 H 0.71953 0.5282 0.78719 0.0
H2708 H 0.73937 0.52897 0.77453 0.0
H2709 H 0.77594 0.56658 0.77908 0.0
H2710 H 0.82866 0.57163 0.72798 0.0
H2711 H 0.80927 0.57204 0.73994 0.0
C2712 C 0.25686 0.82212 0.72255 0.0
C2713 C 0.26747 0.82074 0.71573 0.0
C2714 C 0.24524 0.81101 0.72893 0.0
C2715 C 0.22619 0.77434 0.7259 0.0
H2716 H 0.21027 0.77662 0.77194 0.0
C2717 C 0.18677 0.72785 0.76436 0.0
C2718 C 0.17594 0.72831 0.77228 0.0
C2719 C 0.19749 0.7393 0.75695 0.0
C2720 C 0.21449 0.77587 0.75894 0.0
H2721 H 0.27409 0.80662 0.70994 0.0
H2722 H 0.25392 0.78731 0.72134 0.0
H2723 H 0.22979 0.79637 0.7598 0.0
H2724 H 0.16782 0.74114 0.77848 0.0
H2725 H 0.18661 0.7612 0.76555 0.0
H2726 H 0.21097 0.75384 0.7251 0.0
C2727 C 0.25454 0.79694 0.72163 0.0
C2728 C 0.22567 0.78718 0.75199 0.0
C2729 C 0.26616 0.80803 0.71531 0.0
C2730 C 0.17609 0.74051 0.77268 0.0
C2731 C 0.18684 0.75198 0.76527 0.0
C2732 C 0.21502 0.76305 0.73284 0.0
C2733 C 0.24396 0.7983 0.72854 0.0
C2734 C 0.23171 0.78649 0.73549 0.0
C2735 C 0.19765 0.7515 0.75731 0.0
C2736 C 0.20913 0.76366 0.74953 0.0
H2737 H 0.25762 0.8318 0.72318 0.0
H2738 H 0.23721 0.81235 0.73404 0.0
H2739 H 0.23048 0.77355 0.71298 0.0
H2740 H 0.18706 0.71866 0.76414 0.0
H2741 H 0.20578 0.73865 0.75122 0.0
C2742 C 0.43518 0.25344 0.71634 0.0
C2743 C 0.43637 0.26377 0.72774 0.0
C2744 C 0.43418 0.24195 0.72408 0.0
C2745 C 0.44149 0.22985 0.76756 0.0
H2746 H 0.42211 0.19566 0.74289 0.0
C2747 C 0.43664 0.18092 0.79655 0.0
C2748 C 0.44052 0.17421 0.78399 0.0
C2749 C 0.43493 0.19145 0.7906 0.0
C2750 C 0.42754 0.20516 0.74991 0.0
H2751 H 0.43687 0.27003 0.75609 0.0
H2752 H 0.43463 0.24976 0.76971 0.0
H2753 H 0.42067 0.21459 0.73105 0.0
H2754 H 0.44586 0.17357 0.75533 0.0
H2755 H 0.4424 0.19157 0.74496 0.0
H2756 H 0.44819 0.22024 0.78654 0.0
C2757 C 0.4349 0.25066 0.75479 0.0
C2758 C 0.4268 0.21603 0.74309 0.0
C2759 C 0.43611 0.26224 0.74702 0.0
C2760 C 0.44257 0.17825 0.76534 0.0
C2761 C 0.44065 0.18861 0.75937 0.0
C2762 C 0.44205 0.21891 0.77454 0.0
C2763 C 0.43415 0.24045 0.74342 0.0
C2764 C 0.43397 0.22859 0.75161 0.0
C2765 C 0.43686 0.19531 0.77195 0.0
C2766 C 0.43528 0.20655 0.76557 0.0
H2767 H 0.43549 0.25447 0.70142 0.0
H2768 H 0.43387 0.23445 0.71485 0.0
H2769 H 0.44733 0.23938 0.77433 0.0
H2770 H 0.43475 0.17796 0.81093 0.0
H2771 H 0.43194 0.19646 0.80053 0.0
C2772 C 0.1866 0.45607 0.72292 0.0
C2773 C 0.17395 0.44457 0.72203 0.0
C2774 C 0.1972 0.45572 0.73145 0.0
C2775 C 0.20993 0.4337 0.74349 0.0
H2776 H 0.23181 0.46143 0.77854 0.0
C2777 C 0.2541 0.43425 0.78124 0.0
C2778 C 0.26575 0.44671 0.78305 0.0
C2779 C 0.24223 0.43339 0.77524 0.0
C2780 C 0.22589 0.45369 0.76864 0.0
H2781 H 0.16261 0.42364 0.72945 0.0
H2782 H 0.18131 0.42297 0.74387 0.0
H2783 H 0.21242 0.46107 0.76485 0.0
H2784 H 0.27392 0.46805 0.78047 0.0
H2785 H 0.25346 0.46652 0.76935 0.0
H2786 H 0.22361 0.42655 0.74674 0.0
C2787 C 0.18292 0.43225 0.73797 0.0
C2788 C 0.21477 0.45347 0.76087 0.0
C2789 C 0.17224 0.43264 0.72963 0.0
C2790 C 0.2652 0.45828 0.77897 0.0
C2791 C 0.25339 0.45741 0.77285 0.0
C2792 C 0.22115 0.434 0.75111 0.0
C2793 C 0.19546 0.44382 0.73908 0.0
C2794 C 0.20678 0.44356 0.74808 0.0
C2795 C 0.24177 0.44495 0.77082 0.0
C2796 C 0.22936 0.4441 0.76362 0.0
H2797 H 0.18838 0.46536 0.71687 0.0
H2798 H 0.20684 0.46473 0.73186 0.0
H2799 H 0.20397 0.42601 0.73354 0.0
H2800 H 0.25419 0.42513 0.7841 0.0
H2801 H 0.23343 0.42364 0.77406 0.0
C2802 C 0.81097 0.25854 0.78722 0.0
C2803 C 0.82076 0.26829 0.77574 0.0
C2804 C 0.80046 0.24699 0.77961 0.0
C2805 C 0.78215 0.23354 0.7358 0.0
H2806 H 0.76825 0.1997 0.7612 0.0
C2807 C 0.74078 0.18398 0.705 0.0
C2808 C 0.7303 0.17595 0.71712 0.0
C2809 C 0.75237 0.19499 0.71167 0.0
C2810 C 0.772 0.20911 0.75402 0.0
H2811 H 0.82745 0.27347 0.74738 0.0
H2812 H 0.8092 0.25321 0.73408 0.0
H2813 H 0.78763 0.21939 0.7737 0.0
H2814 H 0.72377 0.17334 0.74574 0.0
H2815 H 0.74406 0.19239 0.75736 0.0
H2816 H 0.76651 0.2232 0.71609 0.0
C2817 C 0.80947 0.25461 0.74893 0.0
C2818 C 0.78307 0.22039 0.76119 0.0
C2819 C 0.81993 0.2662 0.75653 0.0
C2820 C 0.73173 0.17914 0.73607 0.0
C2821 C 0.74334 0.19007 0.74274 0.0
C2822 C 0.77114 0.22224 0.72857 0.0
C2823 C 0.79956 0.2449 0.76037 0.0
C2824 C 0.78819 0.23277 0.75228 0.0
C2825 C 0.75375 0.19813 0.73061 0.0
C2826 C 0.76587 0.20994 0.73771 0.0
H2827 H 0.81129 0.25997 0.80206 0.0
H2828 H 0.79288 0.23984 0.78881 0.0
H2829 H 0.78571 0.24296 0.72873 0.0
H2830 H 0.74009 0.1817 0.69038 0.0
H2831 H 0.7603 0.20097 0.70205 0.0
C2832 C 0.44207 0.1212 0.06979 0.0
C2833 C 0.45177 0.11969 0.07939 0.0
C2834 C 0.44231 0.12193 0.05051 0.0
C2835 C 0.46407 0.12855 0.00983 0.0
H2836 H 0.43054 0.10849 0.98375 0.0
C2837 C 0.45954 0.13154 0.93044 0.0
C2838 C 0.45151 0.11942 0.92124 0.0
C2839 C 0.45969 0.13213 0.94976 0.0
C2840 C 0.43999 0.11409 0.99082 0.0
H2841 H 0.46937 0.11783 0.07631 0.0
H2842 H 0.46977 0.11906 0.04259 0.0
H2843 H 0.43078 0.10846 0.01743 0.0
H2844 H 0.43719 0.09846 0.9251 0.0
H2845 H 0.43763 0.09944 0.95874 0.0
H2846 H 0.47331 0.13389 0.98315 0.0
C2847 C 0.46208 0.11986 0.05 0.0
C2848 C 0.44012 0.1142 0.01013 0.0
C2849 C 0.46185 0.11914 0.0693 0.0
C2850 C 0.4436 0.10793 0.93177 0.0
C2851 C 0.44373 0.10852 0.95105 0.0
C2852 C 0.46395 0.12845 0.99049 0.0
C2853 C 0.45226 0.12117 0.04038 0.0
C2854 C 0.45216 0.12138 0.01985 0.0
C2855 C 0.45177 0.12062 0.96027 0.0
C2856 C 0.45191 0.12114 0.98078 0.0
H2857 H 0.43432 0.1219 0.07719 0.0
H2858 H 0.43474 0.12317 0.04353 0.0
H2859 H 0.47349 0.13428 0.01692 0.0
H2860 H 0.46584 0.14055 0.92271 0.0
H2861 H 0.46591 0.14162 0.95647 0.0
C2862 C 0.32693 0.45546 0.92933 0.0
C2863 C 0.3272 0.44523 0.91929 0.0
C2864 C 0.32638 0.45507 0.94862 0.0
C2865 C 0.33336 0.44014 0.98904 0.0
H2866 H 0.31095 0.45098 0.0147 0.0
C2867 C 0.32557 0.43507 0.06821 0.0
C2868 C 0.32604 0.44597 0.07747 0.0
C2869 C 0.32524 0.43447 0.0489 0.0
C2870 C 0.31734 0.44803 0.00773 0.0
H2871 H 0.32696 0.42647 0.92161 0.0
H2872 H 0.32599 0.42576 0.95535 0.0
H2873 H 0.31124 0.45082 0.98098 0.0
H2874 H 0.32669 0.46484 0.07366 0.0
H2875 H 0.32607 0.46376 0.03999 0.0
H2876 H 0.3395 0.4374 0.01582 0.0
C2877 C 0.32638 0.43418 0.94829 0.0
C2878 C 0.31751 0.44795 0.98842 0.0
C2879 C 0.32694 0.43459 0.92897 0.0
C2880 C 0.32611 0.4562 0.06697 0.0
C2881 C 0.32576 0.45559 0.04768 0.0
C2882 C 0.33317 0.44021 0.00836 0.0
C2883 C 0.32609 0.44442 0.95833 0.0
C2884 C 0.32559 0.44409 0.97885 0.0
C2885 C 0.32536 0.44474 0.03843 0.0
C2886 C 0.32523 0.44424 0.01792 0.0
H2887 H 0.32735 0.46391 0.92229 0.0
H2888 H 0.32642 0.46323 0.95595 0.0
H2889 H 0.33983 0.43729 0.98208 0.0
H2890 H 0.3253 0.42693 0.0759 0.0
H2891 H 0.32475 0.42589 0.04217 0.0
C2892 C 0.88286 0.34126 0.93218 0.0
C2893 C 0.87534 0.32967 0.92167 0.0
C2894 C 0.88194 0.3408 0.95145 0.0
C2895 C 0.87562 0.31914 0.99053 0.0
H2896 H 0.86813 0.34353 0.01768 0.0
C2897 C 0.88545 0.33015 0.06875 0.0
C2898 C 0.87464 0.32885 0.07913 0.0
C2899 C 0.88481 0.32959 0.04946 0.0
C2900 C 0.87018 0.33664 0.01023 0.0
H2901 H 0.86108 0.30855 0.92286 0.0
H2902 H 0.85975 0.30768 0.95675 0.0
H2903 H 0.86836 0.34393 0.98375 0.0
H2904 H 0.85476 0.32609 0.07771 0.0
H2905 H 0.85378 0.3255 0.04377 0.0
H2906 H 0.87784 0.31213 0.01701 0.0
C2907 C 0.8662 0.3171 0.95002 0.0
C2908 C 0.87037 0.33692 0.99091 0.0
C2909 C 0.86692 0.31761 0.93071 0.0
C2910 C 0.86319 0.32706 0.06994 0.0
C2911 C 0.86265 0.32677 0.05062 0.0
C2912 C 0.87569 0.31905 0.00985 0.0
C2913 C 0.87369 0.3287 0.96052 0.0
C2914 C 0.87311 0.32817 0.98092 0.0
C2915 C 0.87345 0.328 0.04025 0.0
C2916 C 0.87298 0.32781 0.01984 0.0
H2917 H 0.88937 0.35067 0.92546 0.0
H2918 H 0.88786 0.34985 0.9593 0.0
H2919 H 0.87783 0.31236 0.98309 0.0
H2920 H 0.89435 0.33147 0.07558 0.0
H2921 H 0.89328 0.33063 0.04171 0.0
C2922 C 0.55881 0.87755 0.06905 0.0
C2923 C 0.5481 0.87728 0.07857 0.0
C2924 C 0.55899 0.87741 0.04972 0.0
C2925 C 0.53712 0.86834 0.00899 0.0
H2926 H 0.56959 0.89251 0.98288 0.0
C2927 C 0.54248 0.86632 0.92978 0.0
C2928 C 0.54842 0.87861 0.92049 0.0
C2929 C 0.54266 0.86587 0.94909 0.0
C2930 C 0.56044 0.88574 0.98999 0.0
H2931 H 0.52932 0.8769 0.07522 0.0
H2932 H 0.5296 0.87652 0.04152 0.0
H2933 H 0.56938 0.89231 0.01667 0.0
H2934 H 0.55941 0.90004 0.92409 0.0
H2935 H 0.55963 0.89925 0.95781 0.0
H2936 H 0.52812 0.86191 0.98232 0.0
C2937 C 0.53775 0.87666 0.04902 0.0
C2938 C 0.56036 0.88553 0.00931 0.0
C2939 C 0.53759 0.87686 0.06833 0.0
C2940 C 0.55464 0.89043 0.93088 0.0
C2941 C 0.55489 0.88997 0.95017 0.0
C2942 C 0.53722 0.86848 0.98967 0.0
C2943 C 0.54846 0.87695 0.03952 0.0
C2944 C 0.54867 0.87689 0.01901 0.0
C2945 C 0.54885 0.87769 0.95948 0.0
C2946 C 0.54886 0.87725 0.97997 0.0
H2947 H 0.56697 0.87769 0.07652 0.0
H2948 H 0.5673 0.87748 0.04276 0.0
H2949 H 0.52799 0.86148 0.01609 0.0
H2950 H 0.53753 0.85705 0.92213 0.0
H2951 H 0.53802 0.85626 0.95589 0.0
C2952 C 0.65172 0.53783 0.06971 0.0
C2953 C 0.66334 0.54638 0.07963 0.0
C2954 C 0.65167 0.53801 0.05039 0.0
C2955 C 0.67038 0.55907 0.01035 0.0
H2956 H 0.65009 0.52619 0.9829 0.0
C2957 C 0.67457 0.55539 0.93117 0.0
C2958 C 0.6625 0.5485 0.92146 0.0
C2959 C 0.67471 0.55516 0.95048 0.0
C2960 C 0.65572 0.53546 0.99041 0.0
H2961 H 0.68404 0.56184 0.07689 0.0
H2962 H 0.68411 0.56174 0.04328 0.0
H2963 H 0.65044 0.5256 0.01662 0.0
H2964 H 0.64113 0.53584 0.92427 0.0
H2965 H 0.64138 0.53538 0.95809 0.0
H2966 H 0.67584 0.56886 0.98404 0.0
C2967 C 0.67493 0.55509 0.05042 0.0
C2968 C 0.65589 0.53514 0.00972 0.0
C2969 C 0.67495 0.555 0.06974 0.0
C2970 C 0.65057 0.54132 0.93142 0.0
C2971 C 0.65072 0.54097 0.95073 0.0
C2972 C 0.67031 0.55937 0.99104 0.0
C2973 C 0.66328 0.54665 0.0405 0.0
C2974 C 0.6632 0.54695 0.01994 0.0
C2975 C 0.66279 0.5479 0.96044 0.0
C2976 C 0.66295 0.54757 0.9809 0.0
H2977 H 0.64264 0.53094 0.07686 0.0
H2978 H 0.64247 0.53148 0.04323 0.0
H2979 H 0.67591 0.56839 0.01775 0.0
H2980 H 0.6839 0.56107 0.92381 0.0
H2981 H 0.68416 0.56052 0.95763 0.0
C2982 C 0.1314 0.67507 0.93006 0.0
C2983 C 0.11946 0.66776 0.92014 0.0
C2984 C 0.13138 0.675 0.94938 0.0
C2985 C 0.11136 0.65567 0.98953 0.0
H2986 H 0.1338 0.68837 0.01634 0.0
C2987 C 0.11882 0.65657 0.06855 0.0
C2988 C 0.11895 0.66706 0.07845 0.0
C2989 C 0.11898 0.65666 0.04923 0.0
C2990 C 0.1274 0.67917 0.00906 0.0
H2991 H 0.09814 0.65456 0.92276 0.0
H2992 H 0.09806 0.65471 0.95647 0.0
H2993 H 0.13362 0.6886 0.98264 0.0
H2994 H 0.1195 0.68597 0.0758 0.0
H2995 H 0.11946 0.68598 0.04211 0.0
H2996 H 0.1049 0.64631 0.01596 0.0
C2997 C 0.10747 0.66037 0.9493 0.0
C2998 C 0.12742 0.67928 0.98975 0.0
C2999 C 0.10749 0.66042 0.92998 0.0
C3000 C 0.11925 0.67766 0.06859 0.0
C3001 C 0.11939 0.67775 0.04928 0.0
C3002 C 0.11133 0.65558 0.00885 0.0
C3003 C 0.11941 0.66764 0.95922 0.0
C3004 C 0.11939 0.66753 0.97976 0.0
C3005 C 0.11925 0.66725 0.03938 0.0
C3006 C 0.11934 0.66733 0.01884 0.0
H3007 H 0.14077 0.68093 0.92289 0.0
H3008 H 0.14077 0.6806 0.9566 0.0
H3009 H 0.10517 0.64642 0.98225 0.0
H3010 H 0.11844 0.64819 0.07573 0.0
H3011 H 0.119 0.64849 0.04202 0.0
C3012 C 0.88509 0.56008 0.56809 0.0
C3013 C 0.87616 0.54857 0.5779 0.0
C3014 C 0.88484 0.56027 0.54879 0.0
C3015 C 0.86352 0.54313 0.50851 0.0
H3016 H 0.89704 0.55954 0.48188 0.0
C3017 C 0.86677 0.5373 0.42968 0.0
C3018 C 0.87591 0.54863 0.41972 0.0
C3019 C 0.86658 0.53748 0.44899 0.0
C3020 C 0.8876 0.55506 0.48911 0.0
H3021 H 0.86002 0.5282 0.57515 0.0
H3022 H 0.8596 0.52851 0.54142 0.0
H3023 H 0.8971 0.5595 0.51559 0.0
H3024 H 0.89181 0.56915 0.42222 0.0
H3025 H 0.89149 0.56946 0.45595 0.0
H3026 H 0.85403 0.53864 0.482 0.0
C3027 C 0.86666 0.53746 0.54868 0.0
C3028 C 0.88763 0.55504 0.50843 0.0
C3029 C 0.86691 0.53728 0.56799 0.0
C3030 C 0.88479 0.56018 0.4295 0.0
C3031 C 0.88461 0.56036 0.44881 0.0
C3032 C 0.86349 0.54315 0.48919 0.0
C3033 C 0.87566 0.54894 0.53887 0.0
C3034 C 0.8756 0.54906 0.51834 0.0
C3035 C 0.87553 0.549 0.45877 0.0
C3036 C 0.87553 0.5491 0.47928 0.0
H3037 H 0.89219 0.56902 0.57534 0.0
H3038 H 0.89175 0.56934 0.54164 0.0
H3039 H 0.85408 0.53861 0.51576 0.0
H3040 H 0.85993 0.52818 0.42255 0.0
H3041 H 0.8596 0.52851 0.45627 0.0
C3042 C 0.32083 0.87241 0.56419 0.0
C3043 C 0.33286 0.87778 0.57399 0.0
C3044 C 0.32084 0.87267 0.54486 0.0
C3045 C 0.34317 0.88986 0.505 0.0
H3046 H 0.31476 0.86125 0.47696 0.0
C3047 C 0.34421 0.88474 0.42547 0.0
C3048 C 0.33264 0.88241 0.41598 0.0
C3049 C 0.34435 0.88422 0.44477 0.0
C3050 C 0.32271 0.86934 0.48466 0.0
H3051 H 0.35429 0.88719 0.57144 0.0
H3052 H 0.35435 0.88724 0.53772 0.0
H3053 H 0.31488 0.85978 0.51062 0.0
H3054 H 0.31223 0.87799 0.41955 0.0
H3055 H 0.3124 0.87667 0.4532 0.0
H3056 H 0.35112 0.89921 0.47888 0.0
C3057 C 0.3449 0.88322 0.54485 0.0
C3058 C 0.32276 0.86854 0.50394 0.0
C3059 C 0.34489 0.88312 0.56417 0.0
C3060 C 0.32123 0.87957 0.42632 0.0
C3061 C 0.32132 0.87887 0.4456 0.0
C3062 C 0.3432 0.89056 0.48572 0.0
C3063 C 0.33289 0.87815 0.53494 0.0
C3064 C 0.33296 0.87882 0.51438 0.0
C3065 C 0.33288 0.88117 0.45498 0.0
C3066 C 0.33293 0.88034 0.47539 0.0
H3067 H 0.31144 0.86837 0.57148 0.0
H3068 H 0.31142 0.86888 0.53775 0.0
H3069 H 0.35104 0.8981 0.51256 0.0
H3070 H 0.35311 0.88672 0.418 0.0
H3071 H 0.35335 0.88591 0.4517 0.0
C3072 C 0.4624 0.33701 0.56874 0.0
C3073 C 0.45411 0.32563 0.57925 0.0
C3074 C 0.46263 0.33625 0.54948 0.0
C3075 C 0.4418 0.31773 0.51057 0.0
H3076 H 0.47479 0.33418 0.48262 0.0
C3077 C 0.44473 0.32992 0.43272 0.0
C3078 C 0.45231 0.32621 0.42169 0.0
C3079 C 0.44492 0.329 0.45197 0.0
C3080 C 0.46551 0.32948 0.49027 0.0
H3081 H 0.43966 0.30456 0.57797 0.0
H3082 H 0.43994 0.30327 0.54416 0.0
H3083 H 0.47549 0.33399 0.51648 0.0
H3084 H 0.46612 0.31875 0.42204 0.0
H3085 H 0.4666 0.31732 0.45581 0.0
H3086 H 0.43183 0.31346 0.48439 0.0
C3087 C 0.44629 0.31274 0.55088 0.0
C3088 C 0.46591 0.32944 0.50959 0.0
C3089 C 0.44619 0.31345 0.57017 0.0
C3090 C 0.46012 0.3216 0.43025 0.0
C3091 C 0.46046 0.32086 0.44952 0.0
C3092 C 0.4414 0.31793 0.49127 0.0
C3093 C 0.45445 0.32415 0.54036 0.0
C3094 C 0.45406 0.32362 0.5199 0.0
C3095 C 0.45284 0.32452 0.46054 0.0
C3096 C 0.45325 0.32387 0.48095 0.0
H3097 H 0.46865 0.3465 0.57543 0.0
H3098 H 0.46894 0.34522 0.54168 0.0
H3099 H 0.43252 0.31327 0.51821 0.0
H3100 H 0.43856 0.33343 0.42644 0.0
H3101 H 0.43904 0.33199 0.46017 0.0
C3102 C 0.12712 0.45653 0.56418 0.0
C3103 C 0.1157 0.44783 0.5744 0.0
C3104 C 0.12694 0.45616 0.54485 0.0
C3105 C 0.10435 0.44694 0.50544 0.0
H3106 H 0.13251 0.44588 0.47794 0.0
C3107 C 0.10084 0.43836 0.42664 0.0
C3108 C 0.11258 0.44526 0.41624 0.0
C3109 C 0.10133 0.43864 0.44595 0.0
C3110 C 0.12466 0.44638 0.48537 0.0
H3111 H 0.09526 0.43165 0.57218 0.0
H3112 H 0.09489 0.43129 0.5385 0.0
H3113 H 0.13335 0.44667 0.51167 0.0
H3114 H 0.13399 0.45805 0.41775 0.0
H3115 H 0.13484 0.45886 0.45145 0.0
H3116 H 0.09577 0.44695 0.47929 0.0
C3117 C 0.10392 0.43845 0.5455 0.0
C3118 C 0.12514 0.44678 0.50469 0.0
C3119 C 0.10415 0.4387 0.5648 0.0
C3120 C 0.12481 0.45251 0.42548 0.0
C3121 C 0.12528 0.45292 0.44478 0.0
C3122 C 0.10394 0.4467 0.48613 0.0
C3123 C 0.1153 0.44719 0.53535 0.0
C3124 C 0.11495 0.44699 0.51489 0.0
C3125 C 0.11355 0.44595 0.45528 0.0
C3126 C 0.11406 0.44635 0.47584 0.0
H3127 H 0.13614 0.46382 0.57108 0.0
H3128 H 0.13581 0.46308 0.53732 0.0
H3129 H 0.09645 0.44727 0.51299 0.0
H3130 H 0.09131 0.43258 0.41983 0.0
H3131 H 0.09212 0.43296 0.45355 0.0
C3132 C 0.65502 0.11772 0.42919 0.0
C3133 C 0.66401 0.1152 0.41944 0.0
C3134 C 0.65533 0.11828 0.44849 0.0
C3135 C 0.6656 0.10684 0.48919 0.0
H3136 H 0.66376 0.13537 0.51453 0.0
C3137 C 0.65654 0.1063 0.56773 0.0
C3138 C 0.66464 0.11818 0.5774 0.0
C3139 C 0.65672 0.10607 0.54843 0.0
C3140 C 0.66435 0.12739 0.50763 0.0
H3141 H 0.68026 0.11114 0.42219 0.0
H3142 H 0.68078 0.11209 0.45598 0.0
H3143 H 0.66367 0.13476 0.48072 0.0
H3144 H 0.67919 0.13914 0.57447 0.0
H3145 H 0.67949 0.13873 0.54065 0.0
H3146 H 0.66629 0.09946 0.51608 0.0
C3147 C 0.6735 0.11362 0.44867 0.0
C3148 C 0.66418 0.12697 0.48831 0.0
C3149 C 0.67327 0.11319 0.42936 0.0
C3150 C 0.67291 0.12983 0.56737 0.0
C3151 C 0.673 0.12962 0.54805 0.0
C3152 C 0.66565 0.10718 0.5085 0.0
C3153 C 0.66455 0.11621 0.45842 0.0
C3154 C 0.6648 0.1167 0.47891 0.0
C3155 C 0.66493 0.11773 0.53839 0.0
C3156 C 0.66503 0.11746 0.51791 0.0
H3157 H 0.64786 0.11943 0.42187 0.0
H3158 H 0.64825 0.12019 0.45567 0.0
H3159 H 0.666 0.09875 0.48229 0.0
H3160 H 0.65015 0.09715 0.57511 0.0
H3161 H 0.65032 0.09679 0.54134 0.0
C3162 C 0.55025 0.65638 0.43104 0.0
C3163 C 0.55124 0.66729 0.42115 0.0
C3164 C 0.55076 0.65659 0.45037 0.0
C3165 C 0.5436 0.67118 0.49013 0.0
H3166 H 0.56639 0.66171 0.51755 0.0
C3167 C 0.54898 0.67744 0.56911 0.0
C3168 C 0.55016 0.66779 0.57931 0.0
C3169 C 0.5496 0.67754 0.54982 0.0
C3170 C 0.55982 0.66419 0.51013 0.0
H3171 H 0.55411 0.68722 0.42395 0.0
H3172 H 0.55458 0.68735 0.45763 0.0
H3173 H 0.56655 0.66136 0.48377 0.0
H3174 H 0.55279 0.65061 0.57747 0.0
H3175 H 0.55345 0.65047 0.54374 0.0
H3176 H 0.53653 0.67365 0.51626 0.0
C3177 C 0.55333 0.67863 0.45037 0.0
C3178 C 0.55996 0.66404 0.4908 0.0
C3179 C 0.55299 0.6785 0.43107 0.0
C3180 C 0.55199 0.65824 0.56989 0.0
C3181 C 0.55242 0.65821 0.55058 0.0
C3182 C 0.54331 0.67115 0.50942 0.0
C3183 C 0.55212 0.66764 0.46019 0.0
C3184 C 0.55191 0.66762 0.48064 0.0
C3185 C 0.55121 0.66786 0.54028 0.0
C3186 C 0.55147 0.66774 0.5197 0.0
H3187 H 0.54872 0.64751 0.4239 0.0
H3188 H 0.54971 0.64795 0.45765 0.0
H3189 H 0.53715 0.67379 0.4826 0.0
H3190 H 0.54774 0.68503 0.57607 0.0
H3191 H 0.54892 0.68529 0.5424 0.0
C3192 C 0.51627 0.1233 0.23922 0.0
C3193 C 0.5108 0.11732 0.22213 0.0
C3194 C 0.52778 0.1237 0.24586 0.0
C3195 C 0.54868 0.10798 0.23915 0.0
H3196 H 0.57467 0.13863 0.26695 0.0
C3197 C 0.60086 0.11663 0.25762 0.0
C3198 C 0.60475 0.11975 0.27624 0.0
C3199 C 0.58948 0.1165 0.25101 0.0
C3200 C 0.56745 0.12998 0.2593 0.0
H3201 H 0.51322 0.10737 0.19834 0.0
H3202 H 0.53352 0.1084 0.20958 0.0
H3203 H 0.55475 0.13819 0.25517 0.0
H3204 H 0.59959 0.12517 0.30245 0.0
H3205 H 0.57997 0.12532 0.29068 0.0
H3206 H 0.56162 0.09996 0.24295 0.0
C3207 C 0.52874 0.11243 0.21819 0.0
C3208 C 0.55599 0.12968 0.25261 0.0
C3209 C 0.51714 0.11188 0.21169 0.0
C3210 C 0.59707 0.12294 0.28797 0.0
C3211 C 0.58578 0.12298 0.28128 0.0
C3212 C 0.56021 0.10837 0.24563 0.0
C3213 C 0.53418 0.11828 0.23542 0.0
C3214 C 0.54644 0.11866 0.24248 0.0
C3215 C 0.58184 0.11966 0.26278 0.0
C3216 C 0.56968 0.11935 0.2558 0.0
H3217 H 0.51149 0.12744 0.24763 0.0
H3218 H 0.53152 0.12807 0.25932 0.0
H3219 H 0.54144 0.09921 0.23175 0.0
H3220 H 0.60666 0.11439 0.24806 0.0
H3221 H 0.58674 0.11407 0.23661 0.0
C3222 C 0.47338 0.5952 0.28667 0.0
C3223 C 0.47862 0.60839 0.28054 0.0
C3224 C 0.46162 0.58497 0.2791 0.0
C3225 C 0.44082 0.57631 0.23732 0.0
H3226 H 0.41499 0.54747 0.26793 0.0
C3227 C 0.40082 0.52596 0.20734 0.0
C3228 C 0.38814 0.51959 0.21556 0.0
C3229 C 0.41117 0.5376 0.21501 0.0
C3230 C 0.42201 0.55552 0.25921 0.0
H3231 H 0.47555 0.62119 0.26172 0.0
H3232 H 0.45488 0.60334 0.24872 0.0
H3233 H 0.43411 0.56634 0.28235 0.0
H3234 H 0.37633 0.52058 0.23812 0.0
H3235 H 0.39435 0.54104 0.25133 0.0
H3236 H 0.4287 0.56551 0.21419 0.0
C3237 C 0.45995 0.60091 0.25927 0.0
C3238 C 0.43306 0.56626 0.26745 0.0
C3239 C 0.47171 0.61115 0.26687 0.0
C3240 C 0.38595 0.5253 0.23136 0.0
C3241 C 0.39632 0.53694 0.23905 0.0
C3242 C 0.42979 0.56557 0.22908 0.0
C3243 C 0.45482 0.58769 0.26521 0.0
C3244 C 0.44267 0.5767 0.25659 0.0
C3245 C 0.40908 0.54313 0.23109 0.0
C3246 C 0.42034 0.55498 0.23991 0.0
H3247 H 0.47839 0.59277 0.29732 0.0
H3248 H 0.45801 0.57488 0.28384 0.0
H3249 H 0.4481 0.58414 0.22854 0.0
H3250 H 0.40278 0.52189 0.19503 0.0
H3251 H 0.42092 0.54205 0.20862 0.0
C3252 C 0.87165 0.4784 0.26145 0.0
C3253 C 0.87656 0.48309 0.2793 0.0
C3254 C 0.87155 0.46711 0.25448 0.0
C3255 C 0.87162 0.43678 0.26842 0.0
H3256 H 0.88595 0.43837 0.21938 0.0
C3257 C 0.86688 0.39067 0.23054 0.0
C3258 C 0.87856 0.39227 0.2223 0.0
C3259 C 0.86646 0.40167 0.23761 0.0
C3260 C 0.88196 0.43781 0.23311 0.0
H3261 H 0.8849 0.47952 0.304 0.0
H3262 H 0.88462 0.4597 0.29185 0.0
H3263 H 0.88532 0.45771 0.23162 0.0
H3264 H 0.8989 0.40657 0.21479 0.0
H3265 H 0.89814 0.42584 0.22706 0.0
H3266 H 0.86826 0.41687 0.26991 0.0
C3267 C 0.8809 0.46478 0.28326 0.0
C3268 C 0.88149 0.44881 0.24004 0.0
C3269 C 0.88115 0.47616 0.29015 0.0
C3270 C 0.8898 0.40506 0.22119 0.0
C3271 C 0.88933 0.41608 0.22806 0.0
C3272 C 0.87193 0.42571 0.26141 0.0
C3273 C 0.8762 0.46022 0.2653 0.0
C3274 C 0.87638 0.44842 0.25779 0.0
C3275 C 0.87766 0.41448 0.23637 0.0
C3276 C 0.87717 0.42615 0.24372 0.0
H3277 H 0.86814 0.48361 0.25275 0.0
H3278 H 0.86779 0.46374 0.24064 0.0
H3279 H 0.86755 0.43619 0.28211 0.0
H3280 H 0.85811 0.3809 0.23169 0.0
H3281 H 0.85732 0.40017 0.24385 0.0
C3282 C 0.47769 0.87073 0.23486 0.0
C3283 C 0.48188 0.87477 0.21659 0.0
C3284 C 0.46624 0.87037 0.24169 0.0
C3285 C 0.4439 0.884 0.23245 0.0
H3286 H 0.42031 0.8564 0.26653 0.0
C3287 C 0.39292 0.87701 0.25405 0.0
C3288 C 0.38992 0.87527 0.27306 0.0
C3289 C 0.40397 0.87662 0.24715 0.0
C3290 C 0.42687 0.86422 0.25712 0.0
H3291 H 0.47717 0.88118 0.19094 0.0
H3292 H 0.45703 0.88028 0.20267 0.0
H3293 H 0.43978 0.8561 0.25428 0.0
H3294 H 0.39628 0.87178 0.29969 0.0
H3295 H 0.41543 0.87086 0.28753 0.0
H3296 H 0.43087 0.892 0.23513 0.0
C3297 C 0.46276 0.87773 0.21193 0.0
C3298 C 0.43804 0.86408 0.25013 0.0
C3299 C 0.47426 0.8782 0.20517 0.0
C3300 C 0.39816 0.87295 0.28495 0.0
C3301 C 0.40915 0.87245 0.278 0.0
C3302 C 0.43268 0.88407 0.23931 0.0
C3303 C 0.45867 0.87395 0.23034 0.0
C3304 C 0.44671 0.87398 0.23771 0.0
C3305 C 0.41221 0.87436 0.25905 0.0
C3306 C 0.42406 0.8742 0.25173 0.0
H3307 H 0.48347 0.86817 0.24403 0.0
H3308 H 0.46351 0.8676 0.25601 0.0
H3309 H 0.45048 0.89195 0.22322 0.0
H3310 H 0.38666 0.87854 0.24443 0.0
H3311 H 0.40599 0.87794 0.23243 0.0
C3312 C 0.60176 0.47327 0.2182 0.0
C3313 C 0.6063 0.48571 0.22679 0.0
C3314 C 0.59098 0.46176 0.22548 0.0
C3315 C 0.5605 0.45015 0.25094 0.0
H3316 H 0.56347 0.41931 0.26397 0.0
C3317 C 0.51734 0.40484 0.28692 0.0
C3318 C 0.51531 0.39215 0.28273 0.0
C3319 C 0.52872 0.41623 0.28062 0.0
C3320 C 0.56236 0.42773 0.26012 0.0
H3321 H 0.6031 0.49556 0.25021 0.0
H3322 H 0.5839 0.47554 0.26226 0.0
H3323 H 0.58276 0.43912 0.25148 0.0
H3324 H 0.52336 0.38129 0.2686 0.0
H3325 H 0.54294 0.40111 0.25678 0.0
H3326 H 0.54005 0.43877 0.25869 0.0
C3327 C 0.58881 0.47481 0.24993 0.0
C3328 C 0.57345 0.43909 0.25308 0.0
C3329 C 0.59975 0.48628 0.2429 0.0
C3330 C 0.52481 0.39101 0.27212 0.0
C3331 C 0.53606 0.40239 0.26547 0.0
C3332 C 0.54933 0.43872 0.25759 0.0
C3333 C 0.58434 0.46247 0.24128 0.0
C3334 C 0.57262 0.4504 0.24855 0.0
C3335 C 0.53819 0.41518 0.26963 0.0
C3336 C 0.55011 0.42735 0.26239 0.0
H3337 H 0.60633 0.47241 0.20561 0.0
H3338 H 0.58761 0.45233 0.2185 0.0
H3339 H 0.55961 0.45874 0.24733 0.0
H3340 H 0.51018 0.40593 0.29526 0.0
H3341 H 0.5301 0.42585 0.28453 0.0
C3342 C 0.10513 0.59153 0.2242 0.0
C3343 C 0.11716 0.60356 0.22175 0.0
C3344 C 0.10512 0.58032 0.23126 0.0
C3345 C 0.12543 0.56989 0.25812 0.0
H3346 H 0.1023 0.5355 0.23568 0.0
C3347 C 0.1288 0.52302 0.27558 0.0
C3348 C 0.11677 0.51091 0.27728 0.0
C3349 C 0.12888 0.53442 0.26912 0.0
C3350 C 0.1087 0.545 0.24225 0.0
H3351 H 0.13861 0.6132 0.22471 0.0
H3352 H 0.13859 0.59361 0.23706 0.0
H3353 H 0.10238 0.55521 0.22384 0.0
H3354 H 0.09535 0.50135 0.27402 0.0
H3355 H 0.09547 0.52123 0.26281 0.0
H3356 H 0.13174 0.55967 0.27653 0.0
C3357 C 0.12915 0.59291 0.23373 0.0
C3358 C 0.10875 0.5563 0.23546 0.0
C3359 C 0.12917 0.60413 0.22665 0.0
C3360 C 0.1048 0.51047 0.27256 0.0
C3361 C 0.10488 0.52187 0.26613 0.0
C3362 C 0.12537 0.55858 0.26493 0.0
C3363 C 0.11713 0.58086 0.23606 0.0
C3364 C 0.11711 0.56887 0.24332 0.0
C3365 C 0.11692 0.53396 0.26425 0.0
C3366 C 0.11699 0.546 0.25708 0.0
H3367 H 0.09569 0.59082 0.22087 0.0
H3368 H 0.09568 0.57125 0.23318 0.0
H3369 H 0.13185 0.57941 0.26464 0.0
H3370 H 0.1382 0.52364 0.27888 0.0
H3371 H 0.13834 0.54353 0.2676 0.0
C3372 C 0.47243 0.87441 0.79054 0.0
C3373 C 0.48391 0.87903 0.77951 0.0
C3374 C 0.46098 0.87396 0.78355 0.0
C3375 C 0.44986 0.88927 0.74908 0.0
H3376 H 0.41539 0.85728 0.7539 0.0
C3377 C 0.40366 0.88404 0.71183 0.0
C3378 C 0.39135 0.87729 0.72099 0.0
C3379 C 0.4148 0.88399 0.71903 0.0
C3380 C 0.42489 0.86637 0.75267 0.0
H3381 H 0.49215 0.88655 0.75225 0.0
H3382 H 0.4723 0.88614 0.74034 0.0
H3383 H 0.43512 0.85781 0.76672 0.0
H3384 H 0.38102 0.86528 0.74488 0.0
H3385 H 0.40056 0.86549 0.75782 0.0
H3386 H 0.43974 0.898 0.73548 0.0
C3387 C 0.47224 0.88292 0.75442 0.0
C3388 C 0.43619 0.86664 0.75996 0.0
C3389 C 0.48363 0.8832 0.76131 0.0
C3390 C 0.39038 0.87045 0.73746 0.0
C3391 C 0.40157 0.87054 0.74482 0.0
C3392 C 0.43857 0.88907 0.74201 0.0
C3393 C 0.46081 0.87829 0.76547 0.0
C3394 C 0.44878 0.87806 0.75812 0.0
C3395 C 0.41395 0.87734 0.73571 0.0
C3396 C 0.42594 0.87759 0.74358 0.0
H3397 H 0.47234 0.87132 0.80471 0.0
H3398 H 0.45233 0.87047 0.79241 0.0
H3399 H 0.45944 0.89827 0.7477 0.0
H3400 H 0.40462 0.88923 0.69896 0.0
H3401 H 0.42406 0.88907 0.71139 0.0
C3402 C 0.60504 0.47283 0.76875 0.0
C3403 C 0.60326 0.48107 0.78131 0.0
C3404 C 0.59411 0.46108 0.76233 0.0
C3405 C 0.55914 0.43652 0.77328 0.0
H3406 H 0.55689 0.428 0.72105 0.0
C3407 C 0.51089 0.3957 0.73931 0.0
C3408 C 0.51204 0.38758 0.72587 0.0
C3409 C 0.52223 0.40672 0.74648 0.0
C3410 C 0.55745 0.43014 0.73571 0.0
H3411 H 0.58864 0.4833 0.79723 0.0
H3412 H 0.56955 0.46291 0.78578 0.0
H3413 H 0.57633 0.44795 0.73283 0.0
H3414 H 0.52602 0.38466 0.70942 0.0
H3415 H 0.54584 0.40377 0.72217 0.0
H3416 H 0.54023 0.41875 0.77614 0.0
C3417 C 0.5794 0.46548 0.78101 0.0
C3418 C 0.56858 0.44157 0.74246 0.0
C3419 C 0.59032 0.47724 0.7874 0.0
C3420 C 0.5248 0.39065 0.71988 0.0
C3421 C 0.53615 0.40169 0.72703 0.0
C3422 C 0.54801 0.42508 0.76653 0.0
C3423 C 0.58117 0.45729 0.76836 0.0
C3424 C 0.56952 0.44493 0.7613 0.0
C3425 C 0.53499 0.40988 0.74036 0.0
C3426 C 0.547 0.4218 0.74765 0.0
H3427 H 0.61486 0.47556 0.76367 0.0
H3428 H 0.5958 0.45492 0.75271 0.0
H3429 H 0.55966 0.43872 0.78791 0.0
H3430 H 0.50122 0.39352 0.74438 0.0
H3431 H 0.52098 0.4129 0.7566 0.0
C3432 C 0.12734 0.60448 0.76367 0.0
C3433 C 0.12247 0.60439 0.78152 0.0
C3434 C 0.12732 0.59323 0.75673 0.0
C3435 C 0.11043 0.557 0.76165 0.0
H3436 H 0.14135 0.56027 0.73613 0.0
C3437 C 0.11326 0.51097 0.73785 0.0
C3438 C 0.11938 0.51176 0.72076 0.0
C3439 C 0.11383 0.52227 0.74563 0.0
C3440 C 0.13256 0.55919 0.743 0.0
H3441 H 0.114 0.59242 0.80621 0.0
H3442 H 0.11373 0.57269 0.79391 0.0
H3443 H 0.14206 0.58005 0.74903 0.0
H3444 H 0.13068 0.52492 0.69824 0.0
H3445 H 0.13146 0.5446 0.7116 0.0
H3446 H 0.1008 0.53622 0.75534 0.0
C3447 C 0.11749 0.58148 0.78528 0.0
C3448 C 0.133 0.57052 0.75044 0.0
C3449 C 0.11762 0.59278 0.79229 0.0
C3450 C 0.12602 0.52406 0.71155 0.0
C3451 C 0.1265 0.53534 0.71925 0.0
C3452 C 0.10995 0.54568 0.75408 0.0
C3453 C 0.12231 0.58159 0.76742 0.0
C3454 C 0.12194 0.56954 0.75982 0.0
C3455 C 0.12045 0.5346 0.73642 0.0
C3456 C 0.121 0.54663 0.74463 0.0
H3457 H 0.13093 0.61315 0.75484 0.0
H3458 H 0.13094 0.59353 0.74282 0.0
H3459 H 0.10169 0.55598 0.7686 0.0
H3460 H 0.10822 0.50165 0.74537 0.0
H3461 H 0.10925 0.52137 0.75901 0.0
C3462 C 0.60096 0.11593 0.74012 0.0
C3463 C 0.60767 0.12374 0.72464 0.0
C3464 C 0.5903 0.11659 0.74797 0.0
C3465 C 0.57454 0.13752 0.75038 0.0
H3466 H 0.54344 0.10448 0.76536 0.0
C3467 C 0.52404 0.1334 0.76907 0.0
C3468 C 0.51689 0.12505 0.78393 0.0
C3469 C 0.53564 0.1339 0.7626 0.0
C3470 C 0.55211 0.11382 0.76147 0.0
H3471 H 0.60842 0.13836 0.70521 0.0
H3472 H 0.58975 0.13945 0.71884 0.0
H3473 H 0.56263 0.10404 0.75254 0.0
H3474 H 0.51667 0.11116 0.80422 0.0
H3475 H 0.53688 0.11201 0.79294 0.0
H3476 H 0.56391 0.14725 0.75918 0.0
C3477 C 0.59287 0.13296 0.7251 0.0
C3478 C 0.56312 0.11357 0.75413 0.0
C3479 C 0.60356 0.13233 0.71727 0.0
C3480 C 0.5218 0.11749 0.79251 0.0
C3481 C 0.53338 0.11798 0.78605 0.0
C3482 C 0.56351 0.13776 0.75772 0.0
C3483 C 0.58607 0.12505 0.74048 0.0
C3484 C 0.57446 0.12541 0.74849 0.0
C3485 C 0.54033 0.12605 0.77087 0.0
C3486 C 0.55217 0.12591 0.76334 0.0
H3487 H 0.60404 0.10939 0.74631 0.0
H3488 H 0.58543 0.11053 0.76001 0.0
H3489 H 0.58319 0.14683 0.7464 0.0
H3490 H 0.52044 0.13924 0.76204 0.0
H3491 H 0.54071 0.14011 0.75076 0.0
C3492 C 0.39305 0.52599 0.78083 0.0
C3493 C 0.3926 0.51365 0.781 0.0
C3494 C 0.40416 0.53732 0.77381 0.0
C3495 C 0.43977 0.55108 0.76265 0.0
H3496 H 0.43449 0.5752 0.73132 0.0
C3497 C 0.48256 0.59297 0.72088 0.0
C3498 C 0.48332 0.60545 0.72076 0.0
C3499 C 0.47144 0.58183 0.72827 0.0
C3500 C 0.43613 0.56864 0.7402 0.0
H3501 H 0.4036 0.50361 0.77427 0.0
H3502 H 0.42287 0.52331 0.76169 0.0
H3503 H 0.41524 0.5557 0.74445 0.0
H3504 H 0.47288 0.61598 0.72796 0.0
H3505 H 0.45352 0.59655 0.74107 0.0
H3506 H 0.46066 0.56399 0.75833 0.0
C3507 C 0.41468 0.52426 0.76714 0.0
C3508 C 0.42511 0.55747 0.74774 0.0
C3509 C 0.40357 0.51293 0.77415 0.0
C3510 C 0.47265 0.60652 0.72803 0.0
C3511 C 0.4615 0.59537 0.73536 0.0
C3512 C 0.45079 0.56223 0.75509 0.0
C3513 C 0.41508 0.53657 0.76681 0.0
C3514 C 0.4268 0.54855 0.75903 0.0
C3515 C 0.46081 0.58292 0.73565 0.0
C3516 C 0.44909 0.57112 0.74375 0.0
H3517 H 0.38471 0.52686 0.78584 0.0
H3518 H 0.40423 0.5467 0.77394 0.0
H3519 H 0.44143 0.54452 0.77152 0.0
H3520 H 0.49067 0.59184 0.71555 0.0
H3521 H 0.47114 0.57235 0.7281 0.0
C3522 C 0.87958 0.40394 0.79056 0.0
C3523 C 0.87431 0.39203 0.78039 0.0
C3524 C 0.87947 0.41505 0.78331 0.0
C3525 C 0.87642 0.42935 0.7389 0.0
H3526 H 0.87073 0.45281 0.77108 0.0
C3527 C 0.86841 0.47174 0.71173 0.0
C3528 C 0.87583 0.48413 0.72052 0.0
C3529 C 0.86814 0.46043 0.71895 0.0
C3530 C 0.87243 0.44639 0.76197 0.0
H3531 H 0.86473 0.38251 0.75456 0.0
H3532 H 0.86403 0.40167 0.74228 0.0
H3533 H 0.86999 0.433 0.78393 0.0
H3534 H 0.88865 0.49442 0.74382 0.0
H3535 H 0.88811 0.47461 0.75652 0.0
H3536 H 0.87861 0.44267 0.71689 0.0
C3537 C 0.86852 0.40253 0.75572 0.0
C3538 C 0.87205 0.43506 0.76932 0.0
C3539 C 0.86874 0.39145 0.7629 0.0
C3540 C 0.88294 0.48501 0.73669 0.0
C3541 C 0.88253 0.47367 0.74404 0.0
C3542 C 0.87666 0.4406 0.73153 0.0
C3543 C 0.87398 0.4145 0.76577 0.0
C3544 C 0.8741 0.42642 0.75789 0.0
C3545 C 0.87514 0.46127 0.73523 0.0
C3546 C 0.87473 0.44926 0.74301 0.0
H3547 H 0.88378 0.4047 0.80419 0.0
H3548 H 0.8839 0.42413 0.79137 0.0
H3549 H 0.87829 0.42308 0.72974 0.0
H3550 H 0.8629 0.47081 0.69918 0.0
H3551 H 0.86229 0.45098 0.71195 0.0
loop_
_geom_bond_atom_site_label_1
_geom_bond_atom_site_label_2
_geom_bond_distance
_geom_bond_site_symmetry_2
_ccdc_geom_bond_type
Li0 N17 1.990 . S
Li0 O60 1.956 . S
Li0 O61 1.970 . S
Li0 O62 1.961 . S
Li1 N25 1.990 . S
Li1 O60 1.970 . S
Li1 O61 1.956 . S
Li1 O63 1.961 . S
Li2 N47 1.990 . S
Li2 O60 1.961 . S
Li2 O62 1.956 . S
Li2 O63 1.970 . S
Li3 N53 1.990 . S
Li3 O61 1.961 . S
Li3 O62 1.970 . S
Li3 O63 1.956 . S
C4 C6 1.348 . S
C4 C7 1.356 . S
C4 O60 1.325 . S
N5 C8 1.314 . S
N5 C9 1.279 . S
C6 C4 1.348 . S
C6 C8 1.353 . S
C6 H64 0.929 . S
C7 C4 1.356 . S
C7 C9 1.358 . S
C7 H65 0.930 . S
C8 N5 1.314 . S
C8 C6 1.353 . S
C8 H66 0.930 . S
C9 N5 1.279 . S
C9 C7 1.358 . S
C9 H67 0.930 . S
C10 C13 1.348 . S
C10 C14 1.356 . S
C10 O61 1.325 . S
C11 N12 1.279 . S
C11 C14 1.358 . S
C11 H68 0.930 . S
N12 C11 1.279 . S
N12 C15 1.314 . S
C13 C10 1.348 . S
C13 C15 1.353 . S
C13 H69 0.929 . S
C14 C10 1.356 . S
C14 C11 1.358 . S
C14 H70 0.930 . S
C15 N12 1.314 . S
C15 C13 1.353 . S
C15 H71 0.930 . S
C16 N17 1.314 . S
C16 C21 1.353 . S
C16 H22 0.930 . S
N17 Li0 1.990 . S
N17 C16 1.314 . S
N17 C19 1.279 . S
C18 C19 1.358 . S
C18 C20 1.356 . S
C18 H72 0.930 . S
C19 N17 1.279 . S
C19 C18 1.358 . S
C19 H23 0.930 . S
C20 C18 1.356 . S
C20 C21 1.348 . S
C21 C16 1.353 . S
C21 C20 1.348 . S
C21 H73 0.929 . S
H22 C16 0.930 . S
H23 C19 0.930 . S
C24 N25 1.314 . S
C24 C26 1.353 . S
C24 H30 0.930 . S
N25 Li1 1.990 . S
N25 C24 1.314 . S
N25 C28 1.279 . S
C26 C24 1.353 . S
C26 C29 1.348 . S
C26 H74 0.929 . S
C27 C28 1.358 . S
C27 C29 1.356 . S
C27 H75 0.930 . S
C28 N25 1.279 . S
C28 C27 1.358 . S
C28 H31 0.930 . S
C29 C26 1.348 . S
C29 C27 1.356 . S
H30 C24 0.930 . S
H31 C28 0.930 . S
C32 C34 1.348 . S
C32 C35 1.356 . S
C32 O62 1.325 . S
N33 C36 1.314 . S
N33 C37 1.279 . S
C34 C32 1.348 . S
C34 C36 1.353 . S
C34 H76 0.929 . S
C35 C32 1.356 . S
C35 C37 1.358 . S
C35 H77 0.930 . S
C36 N33 1.314 . S
C36 C34 1.353 . S
C36 H78 0.930 . S
C37 N33 1.279 . S
C37 C35 1.358 . S
C37 H79 0.930 . S
C38 C39 1.348 . S
C38 C40 1.356 . S
C38 O63 1.325 . S
C39 C38 1.348 . S
C39 C41 1.353 . S
C39 H80 0.929 . S
C40 C38 1.356 . S
C40 C42 1.358 . S
C40 H81 0.930 . S
C41 C39 1.353 . S
C41 N43 1.314 . S
C41 H82 0.930 . S
C42 C40 1.358 . S
C42 N43 1.279 . S
C42 H83 0.930 . S
N43 C41 1.314 . S
N43 C42 1.279 . S
C44 C46 1.353 . S
C44 N47 1.314 . S
C44 H50 0.930 . S
C45 N47 1.279 . S
C45 C48 1.358 . S
C45 H51 0.930 . S
C46 C44 1.353 . S
C46 C49 1.348 . S
C46 H84 0.929 . S
N47 Li2 1.990 . S
N47 C44 1.314 . S
N47 C45 1.279 . S
C48 C45 1.358 . S
C48 C49 1.356 . S
C48 H85 0.930 . S
C49 C46 1.348 . S
C49 C48 1.356 . S
H50 C44 0.930 . S
H51 C45 0.930 . S
C52 N53 1.314 . S
C52 C54 1.353 . S
C52 H58 0.930 . S
N53 Li3 1.990 . S
N53 C52 1.314 . S
N53 C56 1.279 . S
C54 C52 1.353 . S
C54 C57 1.348 . S
C54 H86 0.929 . S
C55 C56 1.358 . S
C55 C57 1.356 . S
C55 H87 0.930 . S
C56 N53 1.279 . S
C56 C55 1.358 . S
C56 H59 0.930 . S
C57 C54 1.348 . S
C57 C55 1.356 . S
H58 C52 0.930 . S
H59 C56 0.930 . S
O60 Li0 1.956 . S
O60 Li1 1.970 . S
O60 Li2 1.961 . S
O60 C4 1.325 . S
O61 Li0 1.970 . S
O61 Li1 1.956 . S
O61 Li3 1.961 . S
O61 C10 1.325 . S
O62 Li0 1.961 . S
O62 Li2 1.956 . S
O62 Li3 1.970 . S
O62 C32 1.325 . S
O63 Li1 1.961 . S
O63 Li2 1.970 . S
O63 Li3 1.956 . S
O63 C38 1.325 . S
H64 C6 0.929 . S
H65 C7 0.930 . S
H66 C8 0.930 . S
H67 C9 0.930 . S
H68 C11 0.930 . S
H69 C13 0.929 . S
H70 C14 0.930 . S
H71 C15 0.930 . S
H72 C18 0.930 . S
H73 C21 0.929 . S
H74 C26 0.929 . S
H75 C27 0.930 . S
H76 C34 0.929 . S
H77 C35 0.930 . S
H78 C36 0.930 . S
H79 C37 0.930 . S
H80 C39 0.929 . S
H81 C40 0.930 . S
H82 C41 0.930 . S
H83 C42 0.930 . S
H84 C46 0.929 . S
H85 C48 0.930 . S
H86 C54 0.929 . S
H87 C55 0.930 . S
Li88 N105 1.990 . S
Li88 O148 1.956 . S
Li88 O149 1.970 . S
Li88 O150 1.961 . S
Li89 N113 1.990 . S
Li89 O148 1.970 . S
Li89 O149 1.956 . S
Li89 O151 1.961 . S
Li90 N135 1.990 . S
Li90 O148 1.961 . S
Li90 O150 1.956 . S
Li90 O151 1.970 . S
Li91 N141 1.990 . S
Li91 O149 1.961 . S
Li91 O150 1.970 . S
Li91 O151 1.956 . S
C92 C94 1.348 . S
C92 C95 1.356 . S
C92 O148 1.325 . S
N93 C96 1.314 . S
N93 C97 1.279 . S
C94 C92 1.348 . S
C94 C96 1.353 . S
C94 H152 0.929 . S
C95 C92 1.356 . S
C95 C97 1.358 . S
C95 H153 0.930 . S
C96 N93 1.314 . S
C96 C94 1.353 . S
C96 H154 0.930 . S
C97 N93 1.279 . S
C97 C95 1.358 . S
C97 H155 0.930 . S
C98 C101 1.348 . S
C98 C102 1.356 . S
C98 O149 1.325 . S
C99 N100 1.279 . S
C99 C102 1.358 . S
C99 H156 0.930 . S
N100 C99 1.279 . S
N100 C103 1.314 . S
C101 C98 1.348 . S
C101 C103 1.353 . S
C101 H157 0.929 . S
C102 C98 1.356 . S
C102 C99 1.358 . S
C102 H158 0.930 . S
C103 N100 1.314 . S
C103 C101 1.353 . S
C103 H159 0.930 . S
C104 N105 1.314 . S
C104 C109 1.353 . S
C104 H110 0.930 . S
N105 Li88 1.990 . S
N105 C104 1.314 . S
N105 C107 1.279 . S
C106 C107 1.358 . S
C106 C108 1.356 . S
C106 H160 0.930 . S
C107 N105 1.279 . S
C107 C106 1.358 . S
C107 H111 0.930 . S
C108 C106 1.356 . S
C108 C109 1.348 . S
C109 C104 1.353 . S
C109 C108 1.348 . S
C109 H161 0.929 . S
H110 C104 0.930 . S
H111 C107 0.930 . S
C112 N113 1.314 . S
C112 C114 1.353 . S
C112 H118 0.930 . S
N113 Li89 1.990 . S
N113 C112 1.314 . S
N113 C116 1.279 . S
C114 C112 1.353 . S
C114 C117 1.348 . S
C114 H162 0.929 . S
C115 C116 1.358 . S
C115 C117 1.356 . S
C115 H163 0.930 . S
C116 N113 1.279 . S
C116 C115 1.358 . S
C116 H119 0.930 . S
C117 C114 1.348 . S
C117 C115 1.356 . S
H118 C112 0.930 . S
H119 C116 0.930 . S
C120 C122 1.348 . S
C120 C123 1.356 . S
C120 O150 1.325 . S
N121 C124 1.314 . S
N121 C125 1.279 . S
C122 C120 1.348 . S
C122 C124 1.353 . S
C122 H164 0.929 . S
C123 C120 1.356 . S
C123 C125 1.358 . S
C123 H165 0.930 . S
C124 N121 1.314 . S
C124 C122 1.353 . S
C124 H166 0.930 . S
C125 N121 1.279 . S
C125 C123 1.358 . S
C125 H167 0.930 . S
C126 C127 1.348 . S
C126 C128 1.356 . S
C126 O151 1.325 . S
C127 C126 1.348 . S
C127 C129 1.353 . S
C127 H168 0.929 . S
C128 C126 1.356 . S
C128 C130 1.358 . S
C128 H169 0.930 . S
C129 C127 1.353 . S
C129 N131 1.314 . S
C129 H170 0.930 . S
C130 C128 1.358 . S
C130 N131 1.279 . S
C130 H171 0.930 . S
N131 C129 1.314 . S
N131 C130 1.279 . S
C132 C134 1.353 . S
C132 N135 1.314 . S
C132 H138 0.930 . S
C133 N135 1.279 . S
C133 C136 1.358 . S
C133 H139 0.930 . S
C134 C132 1.353 . S
C134 C137 1.348 . S
C134 H172 0.929 . S
N135 Li90 1.990 . S
N135 C132 1.314 . S
N135 C133 1.279 . S
C136 C133 1.358 . S
C136 C137 1.356 . S
C136 H173 0.930 . S
C137 C134 1.348 . S
C137 C136 1.356 . S
H138 C132 0.930 . S
H139 C133 0.930 . S
C140 N141 1.314 . S
C140 C142 1.353 . S
C140 H146 0.930 . S
N141 Li91 1.990 . S
N141 C140 1.314 . S
N141 C144 1.279 . S
C142 C140 1.353 . S
C142 C145 1.348 . S
C142 H174 0.929 . S
C143 C144 1.358 . S
C143 C145 1.356 . S
C143 H175 0.930 . S
C144 N141 1.279 . S
C144 C143 1.358 . S
C144 H147 0.930 . S
C145 C142 1.348 . S
C145 C143 1.356 . S
H146 C140 0.930 . S
H147 C144 0.930 . S
O148 Li88 1.956 . S
O148 Li89 1.970 . S
O148 Li90 1.961 . S
O148 C92 1.325 . S
O149 Li88 1.970 . S
O149 Li89 1.956 . S
O149 Li91 1.961 . S
O149 C98 1.325 . S
O150 Li88 1.961 . S
O150 Li90 1.956 . S
O150 Li91 1.970 . S
O150 C120 1.325 . S
O151 Li89 1.961 . S
O151 Li90 1.970 . S
O151 Li91 1.956 . S
O151 C126 1.325 . S
H152 C94 0.929 . S
H153 C95 0.930 . S
H154 C96 0.930 . S
H155 C97 0.930 . S
H156 C99 0.930 . S
H157 C101 0.929 . S
H158 C102 0.930 . S
H159 C103 0.930 . S
H160 C106 0.930 . S
H161 C109 0.929 . S
H162 C114 0.929 . S
H163 C115 0.930 . S
H164 C122 0.929 . S
H165 C123 0.930 . S
H166 C124 0.930 . S
H167 C125 0.930 . S
H168 C127 0.929 . S
H169 C128 0.930 . S
H170 C129 0.930 . S
H171 C130 0.930 . S
H172 C134 0.929 . S
H173 C136 0.930 . S
H174 C142 0.929 . S
H175 C143 0.930 . S
Li176 N193 1.990 . S
Li176 O236 1.956 . S
Li176 O237 1.970 . S
Li176 O238 1.961 . S
Li177 N201 1.990 . S
Li177 O236 1.970 . S
Li177 O237 1.956 . S
Li177 O239 1.961 . S
Li178 N223 1.990 . S
Li178 O236 1.961 . S
Li178 O238 1.956 . S
Li178 O239 1.970 . S
Li179 N229 1.990 . S
Li179 O237 1.961 . S
Li179 O238 1.970 . S
Li179 O239 1.956 . S
C180 C182 1.348 . S
C180 C183 1.356 . S
C180 O236 1.325 . S
N181 C184 1.314 . S
N181 C185 1.279 . S
C182 C180 1.348 . S
C182 C184 1.353 . S
C182 H240 0.929 . S
C183 C180 1.356 . S
C183 C185 1.358 . S
C183 H241 0.930 . S
C184 N181 1.314 . S
C184 C182 1.353 . S
C184 H242 0.930 . S
C185 N181 1.279 . S
C185 C183 1.358 . S
C185 H243 0.930 . S
C186 C189 1.348 . S
C186 C190 1.356 . S
C186 O237 1.325 . S
C187 N188 1.279 . S
C187 C190 1.358 . S
C187 H244 0.930 . S
N188 C187 1.279 . S
N188 C191 1.314 . S
C189 C186 1.348 . S
C189 C191 1.353 . S
C189 H245 0.929 . S
C190 C186 1.356 . S
C190 C187 1.358 . S
C190 H246 0.930 . S
C191 N188 1.314 . S
C191 C189 1.353 . S
C191 H247 0.930 . S
C192 N193 1.314 . S
C192 C197 1.353 . S
C192 H198 0.930 . S
N193 Li176 1.990 . S
N193 C192 1.314 . S
N193 C195 1.279 . S
C194 C195 1.358 . S
C194 C196 1.356 . S
C194 H248 0.930 . S
C195 N193 1.279 . S
C195 C194 1.358 . S
C195 H199 0.930 . S
C196 C194 1.356 . S
C196 C197 1.348 . S
C197 C192 1.353 . S
C197 C196 1.348 . S
C197 H249 0.929 . S
H198 C192 0.930 . S
H199 C195 0.930 . S
C200 N201 1.314 . S
C200 C202 1.353 . S
C200 H206 0.930 . S
N201 Li177 1.990 . S
N201 C200 1.314 . S
N201 C204 1.279 . S
C202 C200 1.353 . S
C202 C205 1.348 . S
C202 H250 0.929 . S
C203 C204 1.358 . S
C203 C205 1.356 . S
C203 H251 0.930 . S
C204 N201 1.279 . S
C204 C203 1.358 . S
C204 H207 0.930 . S
C205 C202 1.348 . S
C205 C203 1.356 . S
H206 C200 0.930 . S
H207 C204 0.930 . S
C208 C210 1.348 . S
C208 C211 1.356 . S
C208 O238 1.325 . S
N209 C212 1.314 . S
N209 C213 1.279 . S
C210 C208 1.348 . S
C210 C212 1.353 . S
C210 H252 0.929 . S
C211 C208 1.356 . S
C211 C213 1.358 . S
C211 H253 0.930 . S
C212 N209 1.314 . S
C212 C210 1.353 . S
C212 H254 0.930 . S
C213 N209 1.279 . S
C213 C211 1.358 . S
C213 H255 0.930 . S
C214 C215 1.348 . S
C214 C216 1.356 . S
C214 O239 1.325 . S
C215 C214 1.348 . S
C215 C217 1.353 . S
C215 H256 0.929 . S
C216 C214 1.356 . S
C216 C218 1.358 . S
C216 H257 0.930 . S
C217 C215 1.353 . S
C217 N219 1.314 . S
C217 H258 0.930 . S
C218 C216 1.358 . S
C218 N219 1.279 . S
C218 H259 0.930 . S
N219 C217 1.314 . S
N219 C218 1.279 . S
C220 C222 1.353 . S
C220 N223 1.314 . S
C220 H226 0.930 . S
C221 N223 1.279 . S
C221 C224 1.358 . S
C221 H227 0.930 . S
C222 C220 1.353 . S
C222 C225 1.348 . S
C222 H260 0.929 . S
N223 Li178 1.990 . S
N223 C220 1.314 . S
N223 C221 1.279 . S
C224 C221 1.358 . S
C224 C225 1.356 . S
C224 H261 0.930 . S
C225 C222 1.348 . S
C225 C224 1.356 . S
H226 C220 0.930 . S
H227 C221 0.930 . S
C228 N229 1.314 . S
C228 C230 1.353 . S
C228 H234 0.930 . S
N229 Li179 1.990 . S
N229 C228 1.314 . S
N229 C232 1.279 . S
C230 C228 1.353 . S
C230 C233 1.348 . S
C230 H262 0.929 . S
C231 C232 1.358 . S
C231 C233 1.356 . S
C231 H263 0.930 . S
C232 N229 1.279 . S
C232 C231 1.358 . S
C232 H235 0.930 . S
C233 C230 1.348 . S
C233 C231 1.356 . S
H234 C228 0.930 . S
H235 C232 0.930 . S
O236 Li176 1.956 . S
O236 Li177 1.970 . S
O236 Li178 1.961 . S
O236 C180 1.325 . S
O237 Li176 1.970 . S
O237 Li177 1.956 . S
O237 Li179 1.961 . S
O237 C186 1.325 . S
O238 Li176 1.961 . S
O238 Li178 1.956 . S
O238 Li179 1.970 . S
O238 C208 1.325 . S
O239 Li177 1.961 . S
O239 Li178 1.970 . S
O239 Li179 1.956 . S
O239 C214 1.325 . S
H240 C182 0.929 . S
H241 C183 0.930 . S
H242 C184 0.930 . S
H243 C185 0.930 . S
H244 C187 0.930 . S
H245 C189 0.929 . S
H246 C190 0.930 . S
H247 C191 0.930 . S
H248 C194 0.930 . S
H249 C197 0.929 . S
H250 C202 0.929 . S
H251 C203 0.930 . S
H252 C210 0.929 . S
H253 C211 0.930 . S
H254 C212 0.930 . S
H255 C213 0.930 . S
H256 C215 0.929 . S
H257 C216 0.930 . S
H258 C217 0.930 . S
H259 C218 0.930 . S
H260 C222 0.929 . S
H261 C224 0.930 . S
H262 C230 0.929 . S
H263 C231 0.930 . S
Li264 N281 1.990 . S
Li264 O324 1.956 . S
Li264 O325 1.970 . S
Li264 O326 1.961 . S
Li265 N289 1.990 . S
Li265 O324 1.970 . S
Li265 O325 1.956 . S
Li265 O327 1.961 . S
Li266 N311 1.990 . S
Li266 O324 1.961 . S
Li266 O326 1.956 . S
Li266 O327 1.970 . S
Li267 N317 1.990 . S
Li267 O325 1.961 . S
Li267 O326 1.970 . S
Li267 O327 1.956 . S
C268 C270 1.348 . S
C268 C271 1.356 . S
C268 O324 1.325 . S
N269 C272 1.314 . S
N269 C273 1.279 . S
C270 C268 1.348 . S
C270 C272 1.353 . S
C270 H328 0.929 . S
C271 C268 1.356 . S
C271 C273 1.358 . S
C271 H329 0.930 . S
C272 N269 1.314 . S
C272 C270 1.353 . S
C272 H330 0.930 . S
C273 N269 1.279 . S
C273 C271 1.358 . S
C273 H331 0.930 . S
C274 C277 1.348 . S
C274 C278 1.356 . S
C274 O325 1.325 . S
C275 N276 1.279 . S
C275 C278 1.358 . S
C275 H332 0.930 . S
N276 C275 1.279 . S
N276 C279 1.314 . S
C277 C274 1.348 . S
C277 C279 1.353 . S
C277 H333 0.929 . S
C278 C274 1.356 . S
C278 C275 1.358 . S
C278 H334 0.930 . S
C279 N276 1.314 . S
C279 C277 1.353 . S
C279 H335 0.930 . S
C280 N281 1.314 . S
C280 C285 1.353 . S
C280 H286 0.930 . S
N281 Li264 1.990 . S
N281 C280 1.314 . S
N281 C283 1.279 . S
C282 C283 1.358 . S
C282 C284 1.356 . S
C282 H336 0.930 . S
C283 N281 1.279 . S
C283 C282 1.358 . S
C283 H287 0.930 . S
C284 C282 1.356 . S
C284 C285 1.348 . S
C285 C280 1.353 . S
C285 C284 1.348 . S
C285 H337 0.929 . S
H286 C280 0.930 . S
H287 C283 0.930 . S
C288 N289 1.314 . S
C288 C290 1.353 . S
C288 H294 0.930 . S
N289 Li265 1.990 . S
N289 C288 1.314 . S
N289 C292 1.279 . S
C290 C288 1.353 . S
C290 C293 1.348 . S
C290 H338 0.929 . S
C291 C292 1.358 . S
C291 C293 1.356 . S
C291 H339 0.930 . S
C292 N289 1.279 . S
C292 C291 1.358 . S
C292 H295 0.930 . S
C293 C290 1.348 . S
C293 C291 1.356 . S
H294 C288 0.930 . S
H295 C292 0.930 . S
C296 C298 1.348 . S
C296 C299 1.356 . S
C296 O326 1.325 . S
N297 C300 1.314 . S
N297 C301 1.279 . S
C298 C296 1.348 . S
C298 C300 1.353 . S
C298 H340 0.929 . S
C299 C296 1.356 . S
C299 C301 1.358 . S
C299 H341 0.930 . S
C300 N297 1.314 . S
C300 C298 1.353 . S
C300 H342 0.930 . S
C301 N297 1.279 . S
C301 C299 1.358 . S
C301 H343 0.930 . S
C302 C303 1.348 . S
C302 C304 1.356 . S
C302 O327 1.325 . S
C303 C302 1.348 . S
C303 C305 1.353 . S
C303 H344 0.929 . S
C304 C302 1.356 . S
C304 C306 1.358 . S
C304 H345 0.930 . S
C305 C303 1.353 . S
C305 N307 1.314 . S
C305 H346 0.930 . S
C306 C304 1.358 . S
C306 N307 1.279 . S
C306 H347 0.930 . S
N307 C305 1.314 . S
N307 C306 1.279 . S
C308 C310 1.353 . S
C308 N311 1.314 . S
C308 H314 0.930 . S
C309 N311 1.279 . S
C309 C312 1.358 . S
C309 H315 0.930 . S
C310 C308 1.353 . S
C310 C313 1.348 . S
C310 H348 0.929 . S
N311 Li266 1.990 . S
N311 C308 1.314 . S
N311 C309 1.279 . S
C312 C309 1.358 . S
C312 C313 1.356 . S
C312 H349 0.930 . S
C313 C310 1.348 . S
C313 C312 1.356 . S
H314 C308 0.930 . S
H315 C309 0.930 . S
C316 N317 1.314 . S
C316 C318 1.353 . S
C316 H322 0.930 . S
N317 Li267 1.990 . S
N317 C316 1.314 . S
N317 C320 1.279 . S
C318 C316 1.353 . S
C318 C321 1.348 . S
C318 H350 0.929 . S
C319 C320 1.358 . S
C319 C321 1.356 . S
C319 H351 0.930 . S
C320 N317 1.279 . S
C320 C319 1.358 . S
C320 H323 0.930 . S
C321 C318 1.348 . S
C321 C319 1.356 . S
H322 C316 0.930 . S
H323 C320 0.930 . S
O324 Li264 1.956 . S
O324 Li265 1.970 . S
O324 Li266 1.961 . S
O324 C268 1.325 . S
O325 Li264 1.970 . S
O325 Li265 1.956 . S
O325 Li267 1.961 . S
O325 C274 1.325 . S
O326 Li264 1.961 . S
O326 Li266 1.956 . S
O326 Li267 1.970 . S
O326 C296 1.325 . S
O327 Li265 1.961 . S
O327 Li266 1.970 . S
O327 Li267 1.956 . S
O327 C302 1.325 . S
H328 C270 0.929 . S
H329 C271 0.930 . S
H330 C272 0.930 . S
H331 C273 0.930 . S
H332 C275 0.930 . S
H333 C277 0.929 . S
H334 C278 0.930 . S
H335 C279 0.930 . S
H336 C282 0.930 . S
H337 C285 0.929 . S
H338 C290 0.929 . S
H339 C291 0.930 . S
H340 C298 0.929 . S
H341 C299 0.930 . S
H342 C300 0.930 . S
H343 C301 0.930 . S
H344 C303 0.929 . S
H345 C304 0.930 . S
H346 C305 0.930 . S
H347 C306 0.930 . S
H348 C310 0.929 . S
H349 C312 0.930 . S
H350 C318 0.929 . S
H351 C319 0.930 . S
Li352 N369 1.990 . S
Li352 O412 1.956 . S
Li352 O413 1.970 . S
Li352 O414 1.961 . S
Li353 N377 1.990 . S
Li353 O412 1.970 . S
Li353 O413 1.956 . S
Li353 O415 1.961 . S
Li354 N399 1.990 . S
Li354 O412 1.961 . S
Li354 O414 1.956 . S
Li354 O415 1.970 . S
Li355 N405 1.990 . S
Li355 O413 1.961 . S
Li355 O414 1.970 . S
Li355 O415 1.956 . S
C356 C358 1.348 . S
C356 C359 1.356 . S
C356 O412 1.325 . S
N357 C360 1.314 . S
N357 C361 1.279 . S
C358 C356 1.348 . S
C358 C360 1.353 . S
C358 H416 0.929 . S
C359 C356 1.356 . S
C359 C361 1.358 . S
C359 H417 0.930 . S
C360 N357 1.314 . S
C360 C358 1.353 . S
C360 H418 0.930 . S
C361 N357 1.279 . S
C361 C359 1.358 . S
C361 H419 0.930 . S
C362 C365 1.348 . S
C362 C366 1.356 . S
C362 O413 1.325 . S
C363 N364 1.279 . S
C363 C366 1.358 . S
C363 H420 0.930 . S
N364 C363 1.279 . S
N364 C367 1.314 . S
C365 C362 1.348 . S
C365 C367 1.353 . S
C365 H421 0.929 . S
C366 C362 1.356 . S
C366 C363 1.358 . S
C366 H422 0.930 . S
C367 N364 1.314 . S
C367 C365 1.353 . S
C367 H423 0.930 . S
C368 N369 1.314 . S
C368 C373 1.353 . S
C368 H374 0.930 . S
N369 Li352 1.990 . S
N369 C368 1.314 . S
N369 C371 1.279 . S
C370 C371 1.358 . S
C370 C372 1.356 . S
C370 H424 0.930 . S
C371 N369 1.279 . S
C371 C370 1.358 . S
C371 H375 0.930 . S
C372 C370 1.356 . S
C372 C373 1.348 . S
C373 C368 1.353 . S
C373 C372 1.348 . S
C373 H425 0.929 . S
H374 C368 0.930 . S
H375 C371 0.930 . S
C376 N377 1.314 . S
C376 C378 1.353 . S
C376 H382 0.930 . S
N377 Li353 1.990 . S
N377 C376 1.314 . S
N377 C380 1.279 . S
C378 C376 1.353 . S
C378 C381 1.348 . S
C378 H426 0.929 . S
C379 C380 1.358 . S
C379 C381 1.356 . S
C379 H427 0.930 . S
C380 N377 1.279 . S
C380 C379 1.358 . S
C380 H383 0.930 . S
C381 C378 1.348 . S
C381 C379 1.356 . S
H382 C376 0.930 . S
H383 C380 0.930 . S
C384 C386 1.348 . S
C384 C387 1.356 . S
C384 O414 1.325 . S
N385 C388 1.314 . S
N385 C389 1.279 . S
C386 C384 1.348 . S
C386 C388 1.353 . S
C386 H428 0.929 . S
C387 C384 1.356 . S
C387 C389 1.358 . S
C387 H429 0.930 . S
C388 N385 1.314 . S
C388 C386 1.353 . S
C388 H430 0.930 . S
C389 N385 1.279 . S
C389 C387 1.358 . S
C389 H431 0.930 . S
C390 C391 1.348 . S
C390 C392 1.356 . S
C390 O415 1.325 . S
C391 C390 1.348 . S
C391 C393 1.353 . S
C391 H432 0.929 . S
C392 C390 1.356 . S
C392 C394 1.358 . S
C392 H433 0.930 . S
C393 C391 1.353 . S
C393 N395 1.314 . S
C393 H434 0.930 . S
C394 C392 1.358 . S
C394 N395 1.279 . S
C394 H435 0.930 . S
N395 C393 1.314 . S
N395 C394 1.279 . S
C396 C398 1.353 . S
C396 N399 1.314 . S
C396 H402 0.930 . S
C397 N399 1.279 . S
C397 C400 1.358 . S
C397 H403 0.930 . S
C398 C396 1.353 . S
C398 C401 1.348 . S
C398 H436 0.929 . S
N399 Li354 1.990 . S
N399 C396 1.314 . S
N399 C397 1.279 . S
C400 C397 1.358 . S
C400 C401 1.356 . S
C400 H437 0.930 . S
C401 C398 1.348 . S
C401 C400 1.356 . S
H402 C396 0.930 . S
H403 C397 0.930 . S
C404 N405 1.314 . S
C404 C406 1.353 . S
C404 H410 0.930 . S
N405 Li355 1.990 . S
N405 C404 1.314 . S
N405 C408 1.279 . S
C406 C404 1.353 . S
C406 C409 1.348 . S
C406 H438 0.929 . S
C407 C408 1.358 . S
C407 C409 1.356 . S
C407 H439 0.930 . S
C408 N405 1.279 . S
C408 C407 1.358 . S
C408 H411 0.930 . S
C409 C406 1.348 . S
C409 C407 1.356 . S
H410 C404 0.930 . S
H411 C408 0.930 . S
O412 Li352 1.956 . S
O412 Li353 1.970 . S
O412 Li354 1.961 . S
O412 C356 1.325 . S
O413 Li352 1.970 . S
O413 Li353 1.956 . S
O413 Li355 1.961 . S
O413 C362 1.325 . S
O414 Li352 1.961 . S
O414 Li354 1.956 . S
O414 Li355 1.970 . S
O414 C384 1.325 . S
O415 Li353 1.961 . S
O415 Li354 1.970 . S
O415 Li355 1.956 . S
O415 C390 1.325 . S
H416 C358 0.929 . S
H417 C359 0.930 . S
H418 C360 0.930 . S
H419 C361 0.930 . S
H420 C363 0.930 . S
H421 C365 0.929 . S
H422 C366 0.930 . S
H423 C367 0.930 . S
H424 C370 0.930 . S
H425 C373 0.929 . S
H426 C378 0.929 . S
H427 C379 0.930 . S
H428 C386 0.929 . S
H429 C387 0.930 . S
H430 C388 0.930 . S
H431 C389 0.930 . S
H432 C391 0.929 . S
H433 C392 0.930 . S
H434 C393 0.930 . S
H435 C394 0.930 . S
H436 C398 0.929 . S
H437 C400 0.930 . S
H438 C406 0.929 . S
H439 C407 0.930 . S
Li440 N457 1.990 . S
Li440 O500 1.956 . S
Li440 O501 1.970 . S
Li440 O502 1.961 . S
Li441 N465 1.990 . S
Li441 O500 1.970 . S
Li441 O501 1.956 . S
Li441 O503 1.961 . S
Li442 N487 1.990 . S
Li442 O500 1.961 . S
Li442 O502 1.956 . S
Li442 O503 1.970 . S
Li443 N493 1.990 . S
Li443 O501 1.961 . S
Li443 O502 1.970 . S
Li443 O503 1.956 . S
C444 C446 1.348 . S
C444 C447 1.356 . S
C444 O500 1.325 . S
N445 C448 1.314 . S
N445 C449 1.279 . S
C446 C444 1.348 . S
C446 C448 1.353 . S
C446 H504 0.929 . S
C447 C444 1.356 . S
C447 C449 1.358 . S
C447 H505 0.930 . S
C448 N445 1.314 . S
C448 C446 1.353 . S
C448 H506 0.930 . S
C449 N445 1.279 . S
C449 C447 1.358 . S
C449 H507 0.930 . S
C450 C453 1.348 . S
C450 C454 1.356 . S
C450 O501 1.325 . S
C451 N452 1.279 . S
C451 C454 1.358 . S
C451 H508 0.930 . S
N452 C451 1.279 . S
N452 C455 1.314 . S
C453 C450 1.348 . S
C453 C455 1.353 . S
C453 H509 0.929 . S
C454 C450 1.356 . S
C454 C451 1.358 . S
C454 H510 0.930 . S
C455 N452 1.314 . S
C455 C453 1.353 . S
C455 H511 0.930 . S
C456 N457 1.314 . S
C456 C461 1.353 . S
C456 H462 0.930 . S
N457 Li440 1.990 . S
N457 C456 1.314 . S
N457 C459 1.279 . S
C458 C459 1.358 . S
C458 C460 1.356 . S
C458 H512 0.930 . S
C459 N457 1.279 . S
C459 C458 1.358 . S
C459 H463 0.930 . S
C460 C458 1.356 . S
C460 C461 1.348 . S
C461 C456 1.353 . S
C461 C460 1.348 . S
C461 H513 0.929 . S
H462 C456 0.930 . S
H463 C459 0.930 . S
C464 N465 1.314 . S
C464 C466 1.353 . S
C464 H470 0.930 . S
N465 Li441 1.990 . S
N465 C464 1.314 . S
N465 C468 1.279 . S
C466 C464 1.353 . S
C466 C469 1.348 . S
C466 H514 0.929 . S
C467 C468 1.358 . S
C467 C469 1.356 . S
C467 H515 0.930 . S
C468 N465 1.279 . S
C468 C467 1.358 . S
C468 H471 0.930 . S
C469 C466 1.348 . S
C469 C467 1.356 . S
H470 C464 0.930 . S
H471 C468 0.930 . S
C472 C474 1.348 . S
C472 C475 1.356 . S
C472 O502 1.325 . S
N473 C476 1.314 . S
N473 C477 1.279 . S
C474 C472 1.348 . S
C474 C476 1.353 . S
C474 H516 0.929 . S
C475 C472 1.356 . S
C475 C477 1.358 . S
C475 H517 0.930 . S
C476 N473 1.314 . S
C476 C474 1.353 . S
C476 H518 0.930 . S
C477 N473 1.279 . S
C477 C475 1.358 . S
C477 H519 0.930 . S
C478 C479 1.348 . S
C478 C480 1.356 . S
C478 O503 1.325 . S
C479 C478 1.348 . S
C479 C481 1.353 . S
C479 H520 0.929 . S
C480 C478 1.356 . S
C480 C482 1.358 . S
C480 H521 0.930 . S
C481 C479 1.353 . S
C481 N483 1.314 . S
C481 H522 0.930 . S
C482 C480 1.358 . S
C482 N483 1.279 . S
C482 H523 0.930 . S
N483 C481 1.314 . S
N483 C482 1.279 . S
C484 C486 1.353 . S
C484 N487 1.314 . S
C484 H490 0.930 . S
C485 N487 1.279 . S
C485 C488 1.358 . S
C485 H491 0.930 . S
C486 C484 1.353 . S
C486 C489 1.348 . S
C486 H524 0.929 . S
N487 Li442 1.990 . S
N487 C484 1.314 . S
N487 C485 1.279 . S
C488 C485 1.358 . S
C488 C489 1.356 . S
C488 H525 0.930 . S
C489 C486 1.348 . S
C489 C488 1.356 . S
H490 C484 0.930 . S
H491 C485 0.930 . S
C492 N493 1.314 . S
C492 C494 1.353 . S
C492 H498 0.930 . S
N493 Li443 1.990 . S
N493 C492 1.314 . S
N493 C496 1.279 . S
C494 C492 1.353 . S
C494 C497 1.348 . S
C494 H526 0.929 . S
C495 C496 1.358 . S
C495 C497 1.356 . S
C495 H527 0.930 . S
C496 N493 1.279 . S
C496 C495 1.358 . S
C496 H499 0.930 . S
C497 C494 1.348 . S
C497 C495 1.356 . S
H498 C492 0.930 . S
H499 C496 0.930 . S
O500 Li440 1.956 . S
O500 Li441 1.970 . S
O500 Li442 1.961 . S
O500 C444 1.325 . S
O501 Li440 1.970 . S
O501 Li441 1.956 . S
O501 Li443 1.961 . S
O501 C450 1.325 . S
O502 Li440 1.961 . S
O502 Li442 1.956 . S
O502 Li443 1.970 . S
O502 C472 1.325 . S
O503 Li441 1.961 . S
O503 Li442 1.970 . S
O503 Li443 1.956 . S
O503 C478 1.325 . S
H504 C446 0.929 . S
H505 C447 0.930 . S
H506 C448 0.930 . S
H507 C449 0.930 . S
H508 C451 0.930 . S
H509 C453 0.929 . S
H510 C454 0.930 . S
H511 C455 0.930 . S
H512 C458 0.930 . S
H513 C461 0.929 . S
H514 C466 0.929 . S
H515 C467 0.930 . S
H516 C474 0.929 . S
H517 C475 0.930 . S
H518 C476 0.930 . S
H519 C477 0.930 . S
H520 C479 0.929 . S
H521 C480 0.930 . S
H522 C481 0.930 . S
H523 C482 0.930 . S
H524 C486 0.929 . S
H525 C488 0.930 . S
H526 C494 0.929 . S
H527 C495 0.930 . S
Li528 N545 1.990 . S
Li528 O588 1.956 . S
Li528 O589 1.970 . S
Li528 O590 1.961 . S
Li529 N553 1.990 . S
Li529 O588 1.970 . S
Li529 O589 1.956 . S
Li529 O591 1.961 . S
Li530 N575 1.990 . S
Li530 O588 1.961 . S
Li530 O590 1.956 . S
Li530 O591 1.970 . S
Li531 N581 1.990 . S
Li531 O589 1.961 . S
Li531 O590 1.970 . S
Li531 O591 1.956 . S
C532 C534 1.348 . S
C532 C535 1.356 . S
C532 O588 1.325 . S
N533 C536 1.314 . S
N533 C537 1.279 . S
C534 C532 1.348 . S
C534 C536 1.353 . S
C534 H592 0.929 . S
C535 C532 1.356 . S
C535 C537 1.358 . S
C535 H593 0.930 . S
C536 N533 1.314 . S
C536 C534 1.353 . S
C536 H594 0.930 . S
C537 N533 1.279 . S
C537 C535 1.358 . S
C537 H595 0.930 . S
C538 C541 1.348 . S
C538 C542 1.356 . S
C538 O589 1.325 . S
C539 N540 1.279 . S
C539 C542 1.358 . S
C539 H596 0.930 . S
N540 C539 1.279 . S
N540 C543 1.314 . S
C541 C538 1.348 . S
C541 C543 1.353 . S
C541 H597 0.929 . S
C542 C538 1.356 . S
C542 C539 1.358 . S
C542 H598 0.930 . S
C543 N540 1.314 . S
C543 C541 1.353 . S
C543 H599 0.930 . S
C544 N545 1.314 . S
C544 C549 1.353 . S
C544 H550 0.930 . S
N545 Li528 1.990 . S
N545 C544 1.314 . S
N545 C547 1.279 . S
C546 C547 1.358 . S
C546 C548 1.356 . S
C546 H600 0.930 . S
C547 N545 1.279 . S
C547 C546 1.358 . S
C547 H551 0.930 . S
C548 C546 1.356 . S
C548 C549 1.348 . S
C549 C544 1.353 . S
C549 C548 1.348 . S
C549 H601 0.929 . S
H550 C544 0.930 . S
H551 C547 0.930 . S
C552 N553 1.314 . S
C552 C554 1.353 . S
C552 H558 0.930 . S
N553 Li529 1.990 . S
N553 C552 1.314 . S
N553 C556 1.279 . S
C554 C552 1.353 . S
C554 C557 1.348 . S
C554 H602 0.929 . S
C555 C556 1.358 . S
C555 C557 1.356 . S
C555 H603 0.930 . S
C556 N553 1.279 . S
C556 C555 1.358 . S
C556 H559 0.930 . S
C557 C554 1.348 . S
C557 C555 1.356 . S
H558 C552 0.930 . S
H559 C556 0.930 . S
C560 C562 1.348 . S
C560 C563 1.356 . S
C560 O590 1.325 . S
N561 C564 1.314 . S
N561 C565 1.279 . S
C562 C560 1.348 . S
C562 C564 1.353 . S
C562 H604 0.929 . S
C563 C560 1.356 . S
C563 C565 1.358 . S
C563 H605 0.930 . S
C564 N561 1.314 . S
C564 C562 1.353 . S
C564 H606 0.930 . S
C565 N561 1.279 . S
C565 C563 1.358 . S
C565 H607 0.930 . S
C566 C567 1.348 . S
C566 C568 1.356 . S
C566 O591 1.325 . S
C567 C566 1.348 . S
C567 C569 1.353 . S
C567 H608 0.929 . S
C568 C566 1.356 . S
C568 C570 1.358 . S
C568 H609 0.930 . S
C569 C567 1.353 . S
C569 N571 1.314 . S
C569 H610 0.930 . S
C570 C568 1.358 . S
C570 N571 1.279 . S
C570 H611 0.930 . S
N571 C569 1.314 . S
N571 C570 1.279 . S
C572 C574 1.353 . S
C572 N575 1.314 . S
C572 H578 0.930 . S
C573 N575 1.279 . S
C573 C576 1.358 . S
C573 H579 0.930 . S
C574 C572 1.353 . S
C574 C577 1.348 . S
C574 H612 0.929 . S
N575 Li530 1.990 . S
N575 C572 1.314 . S
N575 C573 1.279 . S
C576 C573 1.358 . S
C576 C577 1.356 . S
C576 H613 0.930 . S
C577 C574 1.348 . S
C577 C576 1.356 . S
H578 C572 0.930 . S
H579 C573 0.930 . S
C580 N581 1.314 . S
C580 C582 1.353 . S
C580 H586 0.930 . S
N581 Li531 1.990 . S
N581 C580 1.314 . S
N581 C584 1.279 . S
C582 C580 1.353 . S
C582 C585 1.348 . S
C582 H614 0.929 . S
C583 C584 1.358 . S
C583 C585 1.356 . S
C583 H615 0.930 . S
C584 N581 1.279 . S
C584 C583 1.358 . S
C584 H587 0.930 . S
C585 C582 1.348 . S
C585 C583 1.356 . S
H586 C580 0.930 . S
H587 C584 0.930 . S
O588 Li528 1.956 . S
O588 Li529 1.970 . S
O588 Li530 1.961 . S
O588 C532 1.325 . S
O589 Li528 1.970 . S
O589 Li529 1.956 . S
O589 Li531 1.961 . S
O589 C538 1.325 . S
O590 Li528 1.961 . S
O590 Li530 1.956 . S
O590 Li531 1.970 . S
O590 C560 1.325 . S
O591 Li529 1.961 . S
O591 Li530 1.970 . S
O591 Li531 1.956 . S
O591 C566 1.325 . S
H592 C534 0.929 . S
H593 C535 0.930 . S
H594 C536 0.930 . S
H595 C537 0.930 . S
H596 C539 0.930 . S
H597 C541 0.929 . S
H598 C542 0.930 . S
H599 C543 0.930 . S
H600 C546 0.930 . S
H601 C549 0.929 . S
H602 C554 0.929 . S
H603 C555 0.930 . S
H604 C562 0.929 . S
H605 C563 0.930 . S
H606 C564 0.930 . S
H607 C565 0.930 . S
H608 C567 0.929 . S
H609 C568 0.930 . S
H610 C569 0.930 . S
H611 C570 0.930 . S
H612 C574 0.929 . S
H613 C576 0.930 . S
H614 C582 0.929 . S
H615 C583 0.930 . S
Li616 N633 1.990 . S
Li616 O676 1.956 . S
Li616 O677 1.970 . S
Li616 O678 1.961 . S
Li617 N641 1.990 . S
Li617 O676 1.970 . S
Li617 O677 1.956 . S
Li617 O679 1.961 . S
Li618 N663 1.990 . S
Li618 O676 1.961 . S
Li618 O678 1.956 . S
Li618 O679 1.970 . S
Li619 N669 1.990 . S
Li619 O677 1.961 . S
Li619 O678 1.970 . S
Li619 O679 1.956 . S
C620 C622 1.348 . S
C620 C623 1.356 . S
C620 O676 1.325 . S
N621 C624 1.314 . S
N621 C625 1.279 . S
C622 C620 1.348 . S
C622 C624 1.353 . S
C622 H680 0.929 . S
C623 C620 1.356 . S
C623 C625 1.358 . S
C623 H681 0.930 . S
C624 N621 1.314 . S
C624 C622 1.353 . S
C624 H682 0.930 . S
C625 N621 1.279 . S
C625 C623 1.358 . S
C625 H683 0.930 . S
C626 C629 1.348 . S
C626 C630 1.356 . S
C626 O677 1.325 . S
C627 N628 1.279 . S
C627 C630 1.358 . S
C627 H684 0.930 . S
N628 C627 1.279 . S
N628 C631 1.314 . S
C629 C626 1.348 . S
C629 C631 1.353 . S
C629 H685 0.929 . S
C630 C626 1.356 . S
C630 C627 1.358 . S
C630 H686 0.930 . S
C631 N628 1.314 . S
C631 C629 1.353 . S
C631 H687 0.930 . S
C632 N633 1.314 . S
C632 C637 1.353 . S
C632 H638 0.930 . S
N633 Li616 1.990 . S
N633 C632 1.314 . S
N633 C635 1.279 . S
C634 C635 1.358 . S
C634 C636 1.356 . S
C634 H688 0.930 . S
C635 N633 1.279 . S
C635 C634 1.358 . S
C635 H639 0.930 . S
C636 C634 1.356 . S
C636 C637 1.348 . S
C637 C632 1.353 . S
C637 C636 1.348 . S
C637 H689 0.929 . S
H638 C632 0.930 . S
H639 C635 0.930 . S
C640 N641 1.314 . S
C640 C642 1.353 . S
C640 H646 0.930 . S
N641 Li617 1.990 . S
N641 C640 1.314 . S
N641 C644 1.279 . S
C642 C640 1.353 . S
C642 C645 1.348 . S
C642 H690 0.929 . S
C643 C644 1.358 . S
C643 C645 1.356 . S
C643 H691 0.930 . S
C644 N641 1.279 . S
C644 C643 1.358 . S
C644 H647 0.930 . S
C645 C642 1.348 . S
C645 C643 1.356 . S
H646 C640 0.930 . S
H647 C644 0.930 . S
C648 C650 1.348 . S
C648 C651 1.356 . S
C648 O678 1.325 . S
N649 C652 1.314 . S
N649 C653 1.279 . S
C650 C648 1.348 . S
C650 C652 1.353 . S
C650 H692 0.929 . S
C651 C648 1.356 . S
C651 C653 1.358 . S
C651 H693 0.930 . S
C652 N649 1.314 . S
C652 C650 1.353 . S
C652 H694 0.930 . S
C653 N649 1.279 . S
C653 C651 1.358 . S
C653 H695 0.930 . S
C654 C655 1.348 . S
C654 C656 1.356 . S
C654 O679 1.325 . S
C655 C654 1.348 . S
C655 C657 1.353 . S
C655 H696 0.929 . S
C656 C654 1.356 . S
C656 C658 1.358 . S
C656 H697 0.930 . S
C657 C655 1.353 . S
C657 N659 1.314 . S
C657 H698 0.930 . S
C658 C656 1.358 . S
C658 N659 1.279 . S
C658 H699 0.930 . S
N659 C657 1.314 . S
N659 C658 1.279 . S
C660 C662 1.353 . S
C660 N663 1.314 . S
C660 H666 0.930 . S
C661 N663 1.279 . S
C661 C664 1.358 . S
C661 H667 0.930 . S
C662 C660 1.353 . S
C662 C665 1.348 . S
C662 H700 0.929 . S
N663 Li618 1.990 . S
N663 C660 1.314 . S
N663 C661 1.279 . S
C664 C661 1.358 . S
C664 C665 1.356 . S
C664 H701 0.930 . S
C665 C662 1.348 . S
C665 C664 1.356 . S
H666 C660 0.930 . S
H667 C661 0.930 . S
C668 N669 1.314 . S
C668 C670 1.353 . S
C668 H674 0.930 . S
N669 Li619 1.990 . S
N669 C668 1.314 . S
N669 C672 1.279 . S
C670 C668 1.353 . S
C670 C673 1.348 . S
C670 H702 0.929 . S
C671 C672 1.358 . S
C671 C673 1.356 . S
C671 H703 0.930 . S
C672 N669 1.279 . S
C672 C671 1.358 . S
C672 H675 0.930 . S
C673 C670 1.348 . S
C673 C671 1.356 . S
H674 C668 0.930 . S
H675 C672 0.930 . S
O676 Li616 1.956 . S
O676 Li617 1.970 . S
O676 Li618 1.961 . S
O676 C620 1.325 . S
O677 Li616 1.970 . S
O677 Li617 1.956 . S
O677 Li619 1.961 . S
O677 C626 1.325 . S
O678 Li616 1.961 . S
O678 Li618 1.956 . S
O678 Li619 1.970 . S
O678 C648 1.325 . S
O679 Li617 1.961 . S
O679 Li618 1.970 . S
O679 Li619 1.956 . S
O679 C654 1.325 . S
H680 C622 0.929 . S
H681 C623 0.930 . S
H682 C624 0.930 . S
H683 C625 0.930 . S
H684 C627 0.930 . S
H685 C629 0.929 . S
H686 C630 0.930 . S
H687 C631 0.930 . S
H688 C634 0.930 . S
H689 C637 0.929 . S
H690 C642 0.929 . S
H691 C643 0.930 . S
H692 C650 0.929 . S
H693 C651 0.930 . S
H694 C652 0.930 . S
H695 C653 0.930 . S
H696 C655 0.929 . S
H697 C656 0.930 . S
H698 C657 0.930 . S
H699 C658 0.930 . S
H700 C662 0.929 . S
H701 C664 0.930 . S
H702 C670 0.929 . S
H703 C671 0.930 . S
Li704 N721 1.990 . S
Li704 O764 1.956 . S
Li704 O765 1.970 . S
Li704 O766 1.961 . S
Li705 N729 1.990 . S
Li705 O764 1.970 . S
Li705 O765 1.956 . S
Li705 O767 1.961 . S
Li706 N751 1.990 . S
Li706 O764 1.961 . S
Li706 O766 1.956 . S
Li706 O767 1.970 . S
Li707 N757 1.990 . S
Li707 O765 1.961 . S
Li707 O766 1.970 . S
Li707 O767 1.956 . S
C708 C710 1.348 . S
C708 C711 1.356 . S
C708 O764 1.325 . S
N709 C712 1.314 . S
N709 C713 1.279 . S
C710 C708 1.348 . S
C710 C712 1.353 . S
C710 H768 0.929 . S
C711 C708 1.356 . S
C711 C713 1.358 . S
C711 H769 0.930 . S
C712 N709 1.314 . S
C712 C710 1.353 . S
C712 H770 0.930 . S
C713 N709 1.279 . S
C713 C711 1.358 . S
C713 H771 0.930 . S
C714 C717 1.348 . S
C714 C718 1.356 . S
C714 O765 1.325 . S
C715 N716 1.279 . S
C715 C718 1.358 . S
C715 H772 0.930 . S
N716 C715 1.279 . S
N716 C719 1.314 . S
C717 C714 1.348 . S
C717 C719 1.353 . S
C717 H773 0.929 . S
C718 C714 1.356 . S
C718 C715 1.358 . S
C718 H774 0.930 . S
C719 N716 1.314 . S
C719 C717 1.353 . S
C719 H775 0.930 . S
C720 N721 1.314 . S
C720 C725 1.353 . S
C720 H726 0.930 . S
N721 Li704 1.990 . S
N721 C720 1.314 . S
N721 C723 1.279 . S
C722 C723 1.358 . S
C722 C724 1.356 . S
C722 H776 0.930 . S
C723 N721 1.279 . S
C723 C722 1.358 . S
C723 H727 0.930 . S
C724 C722 1.356 . S
C724 C725 1.348 . S
C725 C720 1.353 . S
C725 C724 1.348 . S
C725 H777 0.929 . S
H726 C720 0.930 . S
H727 C723 0.930 . S
C728 N729 1.314 . S
C728 C730 1.353 . S
C728 H734 0.930 . S
N729 Li705 1.990 . S
N729 C728 1.314 . S
N729 C732 1.279 . S
C730 C728 1.353 . S
C730 C733 1.348 . S
C730 H778 0.929 . S
C731 C732 1.358 . S
C731 C733 1.356 . S
C731 H779 0.930 . S
C732 N729 1.279 . S
C732 C731 1.358 . S
C732 H735 0.930 . S
C733 C730 1.348 . S
C733 C731 1.356 . S
H734 C728 0.930 . S
H735 C732 0.930 . S
C736 C738 1.348 . S
C736 C739 1.356 . S
C736 O766 1.325 . S
N737 C740 1.314 . S
N737 C741 1.279 . S
C738 C736 1.348 . S
C738 C740 1.353 . S
C738 H780 0.929 . S
C739 C736 1.356 . S
C739 C741 1.358 . S
C739 H781 0.930 . S
C740 N737 1.314 . S
C740 C738 1.353 . S
C740 H782 0.930 . S
C741 N737 1.279 . S
C741 C739 1.358 . S
C741 H783 0.930 . S
C742 C743 1.348 . S
C742 C744 1.356 . S
C742 O767 1.325 . S
C743 C742 1.348 . S
C743 C745 1.353 . S
C743 H784 0.929 . S
C744 C742 1.356 . S
C744 C746 1.358 . S
C744 H785 0.930 . S
C745 C743 1.353 . S
C745 N747 1.314 . S
C745 H786 0.930 . S
C746 C744 1.358 . S
C746 N747 1.279 . S
C746 H787 0.930 . S
N747 C745 1.314 . S
N747 C746 1.279 . S
C748 C750 1.353 . S
C748 N751 1.314 . S
C748 H754 0.930 . S
C749 N751 1.279 . S
C749 C752 1.358 . S
C749 H755 0.930 . S
C750 C748 1.353 . S
C750 C753 1.348 . S
C750 H788 0.929 . S
N751 Li706 1.990 . S
N751 C748 1.314 . S
N751 C749 1.279 . S
C752 C749 1.358 . S
C752 C753 1.356 . S
C752 H789 0.930 . S
C753 C750 1.348 . S
C753 C752 1.356 . S
H754 C748 0.930 . S
H755 C749 0.930 . S
C756 N757 1.314 . S
C756 C758 1.353 . S
C756 H762 0.930 . S
N757 Li707 1.990 . S
N757 C756 1.314 . S
N757 C760 1.279 . S
C758 C756 1.353 . S
C758 C761 1.348 . S
C758 H790 0.929 . S
C759 C760 1.358 . S
C759 C761 1.356 . S
C759 H791 0.930 . S
C760 N757 1.279 . S
C760 C759 1.358 . S
C760 H763 0.930 . S
C761 C758 1.348 . S
C761 C759 1.356 . S
H762 C756 0.930 . S
H763 C760 0.930 . S
O764 Li704 1.956 . S
O764 Li705 1.970 . S
O764 Li706 1.961 . S
O764 C708 1.325 . S
O765 Li704 1.970 . S
O765 Li705 1.956 . S
O765 Li707 1.961 . S
O765 C714 1.325 . S
O766 Li704 1.961 . S
O766 Li706 1.956 . S
O766 Li707 1.970 . S
O766 C736 1.325 . S
O767 Li705 1.961 . S
O767 Li706 1.970 . S
O767 Li707 1.956 . S
O767 C742 1.325 . S
H768 C710 0.929 . S
H769 C711 0.930 . S
H770 C712 0.930 . S
H771 C713 0.930 . S
H772 C715 0.930 . S
H773 C717 0.929 . S
H774 C718 0.930 . S
H775 C719 0.930 . S
H776 C722 0.930 . S
H777 C725 0.929 . S
H778 C730 0.929 . S
H779 C731 0.930 . S
H780 C738 0.929 . S
H781 C739 0.930 . S
H782 C740 0.930 . S
H783 C741 0.930 . S
H784 C743 0.929 . S
H785 C744 0.930 . S
H786 C745 0.930 . S
H787 C746 0.930 . S
H788 C750 0.929 . S
H789 C752 0.930 . S
H790 C758 0.929 . S
H791 C759 0.930 . S
Li792 N809 1.990 . S
Li792 O852 1.956 . S
Li792 O853 1.970 . S
Li792 O854 1.961 . S
Li793 N817 1.990 . S
Li793 O852 1.970 . S
Li793 O853 1.956 . S
Li793 O855 1.961 . S
Li794 N839 1.990 . S
Li794 O852 1.961 . S
Li794 O854 1.956 . S
Li794 O855 1.970 . S
Li795 N845 1.990 . S
Li795 O853 1.961 . S
Li795 O854 1.970 . S
Li795 O855 1.956 . S
C796 C798 1.348 . S
C796 C799 1.356 . S
C796 O852 1.325 . S
N797 C800 1.314 . S
N797 C801 1.279 . S
C798 C796 1.348 . S
C798 C800 1.353 . S
C798 H856 0.929 . S
C799 C796 1.356 . S
C799 C801 1.358 . S
C799 H857 0.930 . S
C800 N797 1.314 . S
C800 C798 1.353 . S
C800 H858 0.930 . S
C801 N797 1.279 . S
C801 C799 1.358 . S
C801 H859 0.930 . S
C802 C805 1.348 . S
C802 C806 1.356 . S
C802 O853 1.325 . S
C803 N804 1.279 . S
C803 C806 1.358 . S
C803 H860 0.930 . S
N804 C803 1.279 . S
N804 C807 1.314 . S
C805 C802 1.348 . S
C805 C807 1.353 . S
C805 H861 0.929 . S
C806 C802 1.356 . S
C806 C803 1.358 . S
C806 H862 0.930 . S
C807 N804 1.314 . S
C807 C805 1.353 . S
C807 H863 0.930 . S
C808 N809 1.314 . S
C808 C813 1.353 . S
C808 H814 0.930 . S
N809 Li792 1.990 . S
N809 C808 1.314 . S
N809 C811 1.279 . S
C810 C811 1.358 . S
C810 C812 1.356 . S
C810 H864 0.930 . S
C811 N809 1.279 . S
C811 C810 1.358 . S
C811 H815 0.930 . S
C812 C810 1.356 . S
C812 C813 1.348 . S
C813 C808 1.353 . S
C813 C812 1.348 . S
C813 H865 0.929 . S
H814 C808 0.930 . S
H815 C811 0.930 . S
C816 N817 1.314 . S
C816 C818 1.353 . S
C816 H822 0.930 . S
N817 Li793 1.990 . S
N817 C816 1.314 . S
N817 C820 1.279 . S
C818 C816 1.353 . S
C818 C821 1.348 . S
C818 H866 0.929 . S
C819 C820 1.358 . S
C819 C821 1.356 . S
C819 H867 0.930 . S
C820 N817 1.279 . S
C820 C819 1.358 . S
C820 H823 0.930 . S
C821 C818 1.348 . S
C821 C819 1.356 . S
H822 C816 0.930 . S
H823 C820 0.930 . S
C824 C826 1.348 . S
C824 C827 1.356 . S
C824 O854 1.325 . S
N825 C828 1.314 . S
N825 C829 1.279 . S
C826 C824 1.348 . S
C826 C828 1.353 . S
C826 H868 0.929 . S
C827 C824 1.356 . S
C827 C829 1.358 . S
C827 H869 0.930 . S
C828 N825 1.314 . S
C828 C826 1.353 . S
C828 H870 0.930 . S
C829 N825 1.279 . S
C829 C827 1.358 . S
C829 H871 0.930 . S
C830 C831 1.348 . S
C830 C832 1.356 . S
C830 O855 1.325 . S
C831 C830 1.348 . S
C831 C833 1.353 . S
C831 H872 0.929 . S
C832 C830 1.356 . S
C832 C834 1.358 . S
C832 H873 0.930 . S
C833 C831 1.353 . S
C833 N835 1.314 . S
C833 H874 0.930 . S
C834 C832 1.358 . S
C834 N835 1.279 . S
C834 H875 0.930 . S
N835 C833 1.314 . S
N835 C834 1.279 . S
C836 C838 1.353 . S
C836 N839 1.314 . S
C836 H842 0.930 . S
C837 N839 1.279 . S
C837 C840 1.358 . S
C837 H843 0.930 . S
C838 C836 1.353 . S
C838 C841 1.348 . S
C838 H876 0.929 . S
N839 Li794 1.990 . S
N839 C836 1.314 . S
N839 C837 1.279 . S
C840 C837 1.358 . S
C840 C841 1.356 . S
C840 H877 0.930 . S
C841 C838 1.348 . S
C841 C840 1.356 . S
H842 C836 0.930 . S
H843 C837 0.930 . S
C844 N845 1.314 . S
C844 C846 1.353 . S
C844 H850 0.930 . S
N845 Li795 1.990 . S
N845 C844 1.314 . S
N845 C848 1.279 . S
C846 C844 1.353 . S
C846 C849 1.348 . S
C846 H878 0.929 . S
C847 C848 1.358 . S
C847 C849 1.356 . S
C847 H879 0.930 . S
C848 N845 1.279 . S
C848 C847 1.358 . S
C848 H851 0.930 . S
C849 C846 1.348 . S
C849 C847 1.356 . S
H850 C844 0.930 . S
H851 C848 0.930 . S
O852 Li792 1.956 . S
O852 Li793 1.970 . S
O852 Li794 1.961 . S
O852 C796 1.325 . S
O853 Li792 1.970 . S
O853 Li793 1.956 . S
O853 Li795 1.961 . S
O853 C802 1.325 . S
O854 Li792 1.961 . S
O854 Li794 1.956 . S
O854 Li795 1.970 . S
O854 C824 1.325 . S
O855 Li793 1.961 . S
O855 Li794 1.970 . S
O855 Li795 1.956 . S
O855 C830 1.325 . S
H856 C798 0.929 . S
H857 C799 0.930 . S
H858 C800 0.930 . S
H859 C801 0.930 . S
H860 C803 0.930 . S
H861 C805 0.929 . S
H862 C806 0.930 . S
H863 C807 0.930 . S
H864 C810 0.930 . S
H865 C813 0.929 . S
H866 C818 0.929 . S
H867 C819 0.930 . S
H868 C826 0.929 . S
H869 C827 0.930 . S
H870 C828 0.930 . S
H871 C829 0.930 . S
H872 C831 0.929 . S
H873 C832 0.930 . S
H874 C833 0.930 . S
H875 C834 0.930 . S
H876 C838 0.929 . S
H877 C840 0.930 . S
H878 C846 0.929 . S
H879 C847 0.930 . S
Li880 N897 1.990 . S
Li880 O940 1.956 . S
Li880 O941 1.970 . S
Li880 O942 1.961 . S
Li881 N905 1.990 . S
Li881 O940 1.970 . S
Li881 O941 1.956 . S
Li881 O943 1.961 . S
Li882 N927 1.990 . S
Li882 O940 1.961 . S
Li882 O942 1.956 . S
Li882 O943 1.970 . S
Li883 N933 1.990 . S
Li883 O941 1.961 . S
Li883 O942 1.970 . S
Li883 O943 1.956 . S
C884 C886 1.348 . S
C884 C887 1.356 . S
C884 O940 1.325 . S
N885 C888 1.314 . S
N885 C889 1.279 . S
C886 C884 1.348 . S
C886 C888 1.353 . S
C886 H944 0.929 . S
C887 C884 1.356 . S
C887 C889 1.358 . S
C887 H945 0.930 . S
C888 N885 1.314 . S
C888 C886 1.353 . S
C888 H946 0.930 . S
C889 N885 1.279 . S
C889 C887 1.358 . S
C889 H947 0.930 . S
C890 C893 1.348 . S
C890 C894 1.356 . S
C890 O941 1.325 . S
C891 N892 1.279 . S
C891 C894 1.358 . S
C891 H948 0.930 . S
N892 C891 1.279 . S
N892 C895 1.314 . S
C893 C890 1.348 . S
C893 C895 1.353 . S
C893 H949 0.929 . S
C894 C890 1.356 . S
C894 C891 1.358 . S
C894 H950 0.930 . S
C895 N892 1.314 . S
C895 C893 1.353 . S
C895 H951 0.930 . S
C896 N897 1.314 . S
C896 C901 1.353 . S
C896 H902 0.930 . S
N897 Li880 1.990 . S
N897 C896 1.314 . S
N897 C899 1.279 . S
C898 C899 1.358 . S
C898 C900 1.356 . S
C898 H952 0.930 . S
C899 N897 1.279 . S
C899 C898 1.358 . S
C899 H903 0.930 . S
C900 C898 1.356 . S
C900 C901 1.348 . S
C901 C896 1.353 . S
C901 C900 1.348 . S
C901 H953 0.929 . S
H902 C896 0.930 . S
H903 C899 0.930 . S
C904 N905 1.314 . S
C904 C906 1.353 . S
C904 H910 0.930 . S
N905 Li881 1.990 . S
N905 C904 1.314 . S
N905 C908 1.279 . S
C906 C904 1.353 . S
C906 C909 1.348 . S
C906 H954 0.929 . S
C907 C908 1.358 . S
C907 C909 1.356 . S
C907 H955 0.930 . S
C908 N905 1.279 . S
C908 C907 1.358 . S
C908 H911 0.930 . S
C909 C906 1.348 . S
C909 C907 1.356 . S
H910 C904 0.930 . S
H911 C908 0.930 . S
C912 C914 1.348 . S
C912 C915 1.356 . S
C912 O942 1.325 . S
N913 C916 1.314 . S
N913 C917 1.279 . S
C914 C912 1.348 . S
C914 C916 1.353 . S
C914 H956 0.929 . S
C915 C912 1.356 . S
C915 C917 1.358 . S
C915 H957 0.930 . S
C916 N913 1.314 . S
C916 C914 1.353 . S
C916 H958 0.930 . S
C917 N913 1.279 . S
C917 C915 1.358 . S
C917 H959 0.930 . S
C918 C919 1.348 . S
C918 C920 1.356 . S
C918 O943 1.325 . S
C919 C918 1.348 . S
C919 C921 1.353 . S
C919 H960 0.929 . S
C920 C918 1.356 . S
C920 C922 1.358 . S
C920 H961 0.930 . S
C921 C919 1.353 . S
C921 N923 1.314 . S
C921 H962 0.930 . S
C922 C920 1.358 . S
C922 N923 1.279 . S
C922 H963 0.930 . S
N923 C921 1.314 . S
N923 C922 1.279 . S
C924 C926 1.353 . S
C924 N927 1.314 . S
C924 H930 0.930 . S
C925 N927 1.279 . S
C925 C928 1.358 . S
C925 H931 0.930 . S
C926 C924 1.353 . S
C926 C929 1.348 . S
C926 H964 0.929 . S
N927 Li882 1.990 . S
N927 C924 1.314 . S
N927 C925 1.279 . S
C928 C925 1.358 . S
C928 C929 1.356 . S
C928 H965 0.930 . S
C929 C926 1.348 . S
C929 C928 1.356 . S
H930 C924 0.930 . S
H931 C925 0.930 . S
C932 N933 1.314 . S
C932 C934 1.353 . S
C932 H938 0.930 . S
N933 Li883 1.990 . S
N933 C932 1.314 . S
N933 C936 1.279 . S
C934 C932 1.353 . S
C934 C937 1.348 . S
C934 H966 0.929 . S
C935 C936 1.358 . S
C935 C937 1.356 . S
C935 H967 0.930 . S
C936 N933 1.279 . S
C936 C935 1.358 . S
C936 H939 0.930 . S
C937 C934 1.348 . S
C937 C935 1.356 . S
H938 C932 0.930 . S
H939 C936 0.930 . S
O940 Li880 1.956 . S
O940 Li881 1.970 . S
O940 Li882 1.961 . S
O940 C884 1.325 . S
O941 Li880 1.970 . S
O941 Li881 1.956 . S
O941 Li883 1.961 . S
O941 C890 1.325 . S
O942 Li880 1.961 . S
O942 Li882 1.956 . S
O942 Li883 1.970 . S
O942 C912 1.325 . S
O943 Li881 1.961 . S
O943 Li882 1.970 . S
O943 Li883 1.956 . S
O943 C918 1.325 . S
H944 C886 0.929 . S
H945 C887 0.930 . S
H946 C888 0.930 . S
H947 C889 0.930 . S
H948 C891 0.930 . S
H949 C893 0.929 . S
H950 C894 0.930 . S
H951 C895 0.930 . S
H952 C898 0.930 . S
H953 C901 0.929 . S
H954 C906 0.929 . S
H955 C907 0.930 . S
H956 C914 0.929 . S
H957 C915 0.930 . S
H958 C916 0.930 . S
H959 C917 0.930 . S
H960 C919 0.929 . S
H961 C920 0.930 . S
H962 C921 0.930 . S
H963 C922 0.930 . S
H964 C926 0.929 . S
H965 C928 0.930 . S
H966 C934 0.929 . S
H967 C935 0.930 . S
Li968 N985 1.990 . S
Li968 O1028 1.956 . S
Li968 O1029 1.970 . S
Li968 O1030 1.961 . S
Li969 N993 1.990 . S
Li969 O1028 1.970 . S
Li969 O1029 1.956 . S
Li969 O1031 1.961 . S
Li970 N1015 1.990 . S
Li970 O1028 1.961 . S
Li970 O1030 1.956 . S
Li970 O1031 1.970 . S
Li971 N1021 1.990 . S
Li971 O1029 1.961 . S
Li971 O1030 1.970 . S
Li971 O1031 1.956 . S
C972 C974 1.348 . S
C972 C975 1.356 . S
C972 O1028 1.325 . S
N973 C976 1.314 . S
N973 C977 1.279 . S
C974 C972 1.348 . S
C974 C976 1.353 . S
C974 H1032 0.929 . S
C975 C972 1.356 . S
C975 C977 1.358 . S
C975 H1033 0.930 . S
C976 N973 1.314 . S
C976 C974 1.353 . S
C976 H1034 0.930 . S
C977 N973 1.279 . S
C977 C975 1.358 . S
C977 H1035 0.930 . S
C978 C981 1.348 . S
C978 C982 1.356 . S
C978 O1029 1.325 . S
C979 N980 1.279 . S
C979 C982 1.358 . S
C979 H1036 0.930 . S
N980 C979 1.279 . S
N980 C983 1.314 . S
C981 C978 1.348 . S
C981 C983 1.353 . S
C981 H1037 0.929 . S
C982 C978 1.356 . S
C982 C979 1.358 . S
C982 H1038 0.930 . S
C983 N980 1.314 . S
C983 C981 1.353 . S
C983 H1039 0.930 . S
C984 N985 1.314 . S
C984 C989 1.353 . S
C984 H990 0.930 . S
N985 Li968 1.990 . S
N985 C984 1.314 . S
N985 C987 1.279 . S
C986 C987 1.358 . S
C986 C988 1.356 . S
C986 H1040 0.930 . S
C987 N985 1.279 . S
C987 C986 1.358 . S
C987 H991 0.930 . S
C988 C986 1.356 . S
C988 C989 1.348 . S
C989 C984 1.353 . S
C989 C988 1.348 . S
C989 H1041 0.929 . S
H990 C984 0.930 . S
H991 C987 0.930 . S
C992 N993 1.314 . S
C992 C994 1.353 . S
C992 H998 0.930 . S
N993 Li969 1.990 . S
N993 C992 1.314 . S
N993 C996 1.279 . S
C994 C992 1.353 . S
C994 C997 1.348 . S
C994 H1042 0.929 . S
C995 C996 1.358 . S
C995 C997 1.356 . S
C995 H1043 0.930 . S
C996 N993 1.279 . S
C996 C995 1.358 . S
C996 H999 0.930 . S
C997 C994 1.348 . S
C997 C995 1.356 . S
H998 C992 0.930 . S
H999 C996 0.930 . S
C1000 C1002 1.348 . S
C1000 C1003 1.356 . S
C1000 O1030 1.325 . S
N1001 C1004 1.314 . S
N1001 C1005 1.279 . S
C1002 C1000 1.348 . S
C1002 C1004 1.353 . S
C1002 H1044 0.929 . S
C1003 C1000 1.356 . S
C1003 C1005 1.358 . S
C1003 H1045 0.930 . S
C1004 N1001 1.314 . S
C1004 C1002 1.353 . S
C1004 H1046 0.930 . S
C1005 N1001 1.279 . S
C1005 C1003 1.358 . S
C1005 H1047 0.930 . S
C1006 C1007 1.348 . S
C1006 C1008 1.356 . S
C1006 O1031 1.325 . S
C1007 C1006 1.348 . S
C1007 C1009 1.353 . S
C1007 H1048 0.929 . S
C1008 C1006 1.356 . S
C1008 C1010 1.358 . S
C1008 H1049 0.930 . S
C1009 C1007 1.353 . S
C1009 N1011 1.314 . S
C1009 H1050 0.930 . S
C1010 C1008 1.358 . S
C1010 N1011 1.279 . S
C1010 H1051 0.930 . S
N1011 C1009 1.314 . S
N1011 C1010 1.279 . S
C1012 C1014 1.353 . S
C1012 N1015 1.314 . S
C1012 H1018 0.930 . S
C1013 N1015 1.279 . S
C1013 C1016 1.358 . S
C1013 H1019 0.930 . S
C1014 C1012 1.353 . S
C1014 C1017 1.348 . S
C1014 H1052 0.929 . S
N1015 Li970 1.990 . S
N1015 C1012 1.314 . S
N1015 C1013 1.279 . S
C1016 C1013 1.358 . S
C1016 C1017 1.356 . S
C1016 H1053 0.930 . S
C1017 C1014 1.348 . S
C1017 C1016 1.356 . S
H1018 C1012 0.930 . S
H1019 C1013 0.930 . S
C1020 N1021 1.314 . S
C1020 C1022 1.353 . S
C1020 H1026 0.930 . S
N1021 Li971 1.990 . S
N1021 C1020 1.314 . S
N1021 C1024 1.279 . S
C1022 C1020 1.353 . S
C1022 C1025 1.348 . S
C1022 H1054 0.929 . S
C1023 C1024 1.358 . S
C1023 C1025 1.356 . S
C1023 H1055 0.930 . S
C1024 N1021 1.279 . S
C1024 C1023 1.358 . S
C1024 H1027 0.930 . S
C1025 C1022 1.348 . S
C1025 C1023 1.356 . S
H1026 C1020 0.930 . S
H1027 C1024 0.930 . S
O1028 Li968 1.956 . S
O1028 Li969 1.970 . S
O1028 Li970 1.961 . S
O1028 C972 1.325 . S
O1029 Li968 1.970 . S
O1029 Li969 1.956 . S
O1029 Li971 1.961 . S
O1029 C978 1.325 . S
O1030 Li968 1.961 . S
O1030 Li970 1.956 . S
O1030 Li971 1.970 . S
O1030 C1000 1.325 . S
O1031 Li969 1.961 . S
O1031 Li970 1.970 . S
O1031 Li971 1.956 . S
O1031 C1006 1.325 . S
H1032 C974 0.929 . S
H1033 C975 0.930 . S
H1034 C976 0.930 . S
H1035 C977 0.930 . S
H1036 C979 0.930 . S
H1037 C981 0.929 . S
H1038 C982 0.930 . S
H1039 C983 0.930 . S
H1040 C986 0.930 . S
H1041 C989 0.929 . S
H1042 C994 0.929 . S
H1043 C995 0.930 . S
H1044 C1002 0.929 . S
H1045 C1003 0.930 . S
H1046 C1004 0.930 . S
H1047 C1005 0.930 . S
H1048 C1007 0.929 . S
H1049 C1008 0.930 . S
H1050 C1009 0.930 . S
H1051 C1010 0.930 . S
H1052 C1014 0.929 . S
H1053 C1016 0.930 . S
H1054 C1022 0.929 . S
H1055 C1023 0.930 . S
Li1056 N1073 1.990 . S
Li1056 O1116 1.956 . S
Li1056 O1117 1.970 . S
Li1056 O1118 1.961 . S
Li1057 N1081 1.990 . S
Li1057 O1116 1.970 . S
Li1057 O1117 1.956 . S
Li1057 O1119 1.961 . S
Li1058 N1103 1.990 . S
Li1058 O1116 1.961 . S
Li1058 O1118 1.956 . S
Li1058 O1119 1.970 . S
Li1059 N1109 1.990 . S
Li1059 O1117 1.961 . S
Li1059 O1118 1.970 . S
Li1059 O1119 1.956 . S
C1060 C1062 1.348 . S
C1060 C1063 1.356 . S
C1060 O1116 1.325 . S
N1061 C1064 1.314 . S
N1061 C1065 1.279 . S
C1062 C1060 1.348 . S
C1062 C1064 1.353 . S
C1062 H1120 0.929 . S
C1063 C1060 1.356 . S
C1063 C1065 1.358 . S
C1063 H1121 0.930 . S
C1064 N1061 1.314 . S
C1064 C1062 1.353 . S
C1064 H1122 0.930 . S
C1065 N1061 1.279 . S
C1065 C1063 1.358 . S
C1065 H1123 0.930 . S
C1066 C1069 1.348 . S
C1066 C1070 1.356 . S
C1066 O1117 1.325 . S
C1067 N1068 1.279 . S
C1067 C1070 1.358 . S
C1067 H1124 0.930 . S
N1068 C1067 1.279 . S
N1068 C1071 1.314 . S
C1069 C1066 1.348 . S
C1069 C1071 1.353 . S
C1069 H1125 0.929 . S
C1070 C1066 1.356 . S
C1070 C1067 1.358 . S
C1070 H1126 0.930 . S
C1071 N1068 1.314 . S
C1071 C1069 1.353 . S
C1071 H1127 0.930 . S
C1072 N1073 1.314 . S
C1072 C1077 1.353 . S
C1072 H1078 0.930 . S
N1073 Li1056 1.990 . S
N1073 C1072 1.314 . S
N1073 C1075 1.279 . S
C1074 C1075 1.358 . S
C1074 C1076 1.356 . S
C1074 H1128 0.930 . S
C1075 N1073 1.279 . S
C1075 C1074 1.358 . S
C1075 H1079 0.930 . S
C1076 C1074 1.356 . S
C1076 C1077 1.348 . S
C1077 C1072 1.353 . S
C1077 C1076 1.348 . S
C1077 H1129 0.929 . S
H1078 C1072 0.930 . S
H1079 C1075 0.930 . S
C1080 N1081 1.314 . S
C1080 C1082 1.353 . S
C1080 H1086 0.930 . S
N1081 Li1057 1.990 . S
N1081 C1080 1.314 . S
N1081 C1084 1.279 . S
C1082 C1080 1.353 . S
C1082 C1085 1.348 . S
C1082 H1130 0.929 . S
C1083 C1084 1.358 . S
C1083 C1085 1.356 . S
C1083 H1131 0.930 . S
C1084 N1081 1.279 . S
C1084 C1083 1.358 . S
C1084 H1087 0.930 . S
C1085 C1082 1.348 . S
C1085 C1083 1.356 . S
H1086 C1080 0.930 . S
H1087 C1084 0.930 . S
C1088 C1090 1.348 . S
C1088 C1091 1.356 . S
C1088 O1118 1.325 . S
N1089 C1092 1.314 . S
N1089 C1093 1.279 . S
C1090 C1088 1.348 . S
C1090 C1092 1.353 . S
C1090 H1132 0.929 . S
C1091 C1088 1.356 . S
C1091 C1093 1.358 . S
C1091 H1133 0.930 . S
C1092 N1089 1.314 . S
C1092 C1090 1.353 . S
C1092 H1134 0.930 . S
C1093 N1089 1.279 . S
C1093 C1091 1.358 . S
C1093 H1135 0.930 . S
C1094 C1095 1.348 . S
C1094 C1096 1.356 . S
C1094 O1119 1.325 . S
C1095 C1094 1.348 . S
C1095 C1097 1.353 . S
C1095 H1136 0.929 . S
C1096 C1094 1.356 . S
C1096 C1098 1.358 . S
C1096 H1137 0.930 . S
C1097 C1095 1.353 . S
C1097 N1099 1.314 . S
C1097 H1138 0.930 . S
C1098 C1096 1.358 . S
C1098 N1099 1.279 . S
C1098 H1139 0.930 . S
N1099 C1097 1.314 . S
N1099 C1098 1.279 . S
C1100 C1102 1.353 . S
C1100 N1103 1.314 . S
C1100 H1106 0.930 . S
C1101 N1103 1.279 . S
C1101 C1104 1.358 . S
C1101 H1107 0.930 . S
C1102 C1100 1.353 . S
C1102 C1105 1.348 . S
C1102 H1140 0.929 . S
N1103 Li1058 1.990 . S
N1103 C1100 1.314 . S
N1103 C1101 1.279 . S
C1104 C1101 1.358 . S
C1104 C1105 1.356 . S
C1104 H1141 0.930 . S
C1105 C1102 1.348 . S
C1105 C1104 1.356 . S
H1106 C1100 0.930 . S
H1107 C1101 0.930 . S
C1108 N1109 1.314 . S
C1108 C1110 1.353 . S
C1108 H1114 0.930 . S
N1109 Li1059 1.990 . S
N1109 C1108 1.314 . S
N1109 C1112 1.279 . S
C1110 C1108 1.353 . S
C1110 C1113 1.348 . S
C1110 H1142 0.929 . S
C1111 C1112 1.358 . S
C1111 C1113 1.356 . S
C1111 H1143 0.930 . S
C1112 N1109 1.279 . S
C1112 C1111 1.358 . S
C1112 H1115 0.930 . S
C1113 C1110 1.348 . S
C1113 C1111 1.356 . S
H1114 C1108 0.930 . S
H1115 C1112 0.930 . S
O1116 Li1056 1.956 . S
O1116 Li1057 1.970 . S
O1116 Li1058 1.961 . S
O1116 C1060 1.325 . S
O1117 Li1056 1.970 . S
O1117 Li1057 1.956 . S
O1117 Li1059 1.961 . S
O1117 C1066 1.325 . S
O1118 Li1056 1.961 . S
O1118 Li1058 1.956 . S
O1118 Li1059 1.970 . S
O1118 C1088 1.325 . S
O1119 Li1057 1.961 . S
O1119 Li1058 1.970 . S
O1119 Li1059 1.956 . S
O1119 C1094 1.325 . S
H1120 C1062 0.929 . S
H1121 C1063 0.930 . S
H1122 C1064 0.930 . S
H1123 C1065 0.930 . S
H1124 C1067 0.930 . S
H1125 C1069 0.929 . S
H1126 C1070 0.930 . S
H1127 C1071 0.930 . S
H1128 C1074 0.930 . S
H1129 C1077 0.929 . S
H1130 C1082 0.929 . S
H1131 C1083 0.930 . S
H1132 C1090 0.929 . S
H1133 C1091 0.930 . S
H1134 C1092 0.930 . S
H1135 C1093 0.930 . S
H1136 C1095 0.929 . S
H1137 C1096 0.930 . S
H1138 C1097 0.930 . S
H1139 C1098 0.930 . S
H1140 C1102 0.929 . S
H1141 C1104 0.930 . S
H1142 C1110 0.929 . S
H1143 C1111 0.930 . S
Li1144 N1161 1.990 . S
Li1144 O1204 1.956 . S
Li1144 O1205 1.970 . S
Li1144 O1206 1.961 . S
Li1145 N1169 1.990 . S
Li1145 O1204 1.970 . S
Li1145 O1205 1.956 . S
Li1145 O1207 1.961 . S
Li1146 N1191 1.990 . S
Li1146 O1204 1.961 . S
Li1146 O1206 1.956 . S
Li1146 O1207 1.970 . S
Li1147 N1197 1.990 . S
Li1147 O1205 1.961 . S
Li1147 O1206 1.970 . S
Li1147 O1207 1.956 . S
C1148 C1150 1.348 . S
C1148 C1151 1.356 . S
C1148 O1204 1.325 . S
N1149 C1152 1.314 . S
N1149 C1153 1.279 . S
C1150 C1148 1.348 . S
C1150 C1152 1.353 . S
C1150 H1208 0.929 . S
C1151 C1148 1.356 . S
C1151 C1153 1.358 . S
C1151 H1209 0.930 . S
C1152 N1149 1.314 . S
C1152 C1150 1.353 . S
C1152 H1210 0.930 . S
C1153 N1149 1.279 . S
C1153 C1151 1.358 . S
C1153 H1211 0.930 . S
C1154 C1157 1.348 . S
C1154 C1158 1.356 . S
C1154 O1205 1.325 . S
C1155 N1156 1.279 . S
C1155 C1158 1.358 . S
C1155 H1212 0.930 . S
N1156 C1155 1.279 . S
N1156 C1159 1.314 . S
C1157 C1154 1.348 . S
C1157 C1159 1.353 . S
C1157 H1213 0.929 . S
C1158 C1154 1.356 . S
C1158 C1155 1.358 . S
C1158 H1214 0.930 . S
C1159 N1156 1.314 . S
C1159 C1157 1.353 . S
C1159 H1215 0.930 . S
C1160 N1161 1.314 . S
C1160 C1165 1.353 . S
C1160 H1166 0.930 . S
N1161 Li1144 1.990 . S
N1161 C1160 1.314 . S
N1161 C1163 1.279 . S
C1162 C1163 1.358 . S
C1162 C1164 1.356 . S
C1162 H1216 0.930 . S
C1163 N1161 1.279 . S
C1163 C1162 1.358 . S
C1163 H1167 0.930 . S
C1164 C1162 1.356 . S
C1164 C1165 1.348 . S
C1165 C1160 1.353 . S
C1165 C1164 1.348 . S
C1165 H1217 0.929 . S
H1166 C1160 0.930 . S
H1167 C1163 0.930 . S
C1168 N1169 1.314 . S
C1168 C1170 1.353 . S
C1168 H1174 0.930 . S
N1169 Li1145 1.990 . S
N1169 C1168 1.314 . S
N1169 C1172 1.279 . S
C1170 C1168 1.353 . S
C1170 C1173 1.348 . S
C1170 H1218 0.929 . S
C1171 C1172 1.358 . S
C1171 C1173 1.356 . S
C1171 H1219 0.930 . S
C1172 N1169 1.279 . S
C1172 C1171 1.358 . S
C1172 H1175 0.930 . S
C1173 C1170 1.348 . S
C1173 C1171 1.356 . S
H1174 C1168 0.930 . S
H1175 C1172 0.930 . S
C1176 C1178 1.348 . S
C1176 C1179 1.356 . S
C1176 O1206 1.325 . S
N1177 C1180 1.314 . S
N1177 C1181 1.279 . S
C1178 C1176 1.348 . S
C1178 C1180 1.353 . S
C1178 H1220 0.929 . S
C1179 C1176 1.356 . S
C1179 C1181 1.358 . S
C1179 H1221 0.930 . S
C1180 N1177 1.314 . S
C1180 C1178 1.353 . S
C1180 H1222 0.930 . S
C1181 N1177 1.279 . S
C1181 C1179 1.358 . S
C1181 H1223 0.930 . S
C1182 C1183 1.348 . S
C1182 C1184 1.356 . S
C1182 O1207 1.325 . S
C1183 C1182 1.348 . S
C1183 C1185 1.353 . S
C1183 H1224 0.929 . S
C1184 C1182 1.356 . S
C1184 C1186 1.358 . S
C1184 H1225 0.930 . S
C1185 C1183 1.353 . S
C1185 N1187 1.314 . S
C1185 H1226 0.930 . S
C1186 C1184 1.358 . S
C1186 N1187 1.279 . S
C1186 H1227 0.930 . S
N1187 C1185 1.314 . S
N1187 C1186 1.279 . S
C1188 C1190 1.353 . S
C1188 N1191 1.314 . S
C1188 H1194 0.930 . S
C1189 N1191 1.279 . S
C1189 C1192 1.358 . S
C1189 H1195 0.930 . S
C1190 C1188 1.353 . S
C1190 C1193 1.348 . S
C1190 H1228 0.929 . S
N1191 Li1146 1.990 . S
N1191 C1188 1.314 . S
N1191 C1189 1.279 . S
C1192 C1189 1.358 . S
C1192 C1193 1.356 . S
C1192 H1229 0.930 . S
C1193 C1190 1.348 . S
C1193 C1192 1.356 . S
H1194 C1188 0.930 . S
H1195 C1189 0.930 . S
C1196 N1197 1.314 . S
C1196 C1198 1.353 . S
C1196 H1202 0.930 . S
N1197 Li1147 1.990 . S
N1197 C1196 1.314 . S
N1197 C1200 1.279 . S
C1198 C1196 1.353 . S
C1198 C1201 1.348 . S
C1198 H1230 0.929 . S
C1199 C1200 1.358 . S
C1199 C1201 1.356 . S
C1199 H1231 0.930 . S
C1200 N1197 1.279 . S
C1200 C1199 1.358 . S
C1200 H1203 0.930 . S
C1201 C1198 1.348 . S
C1201 C1199 1.356 . S
H1202 C1196 0.930 . S
H1203 C1200 0.930 . S
O1204 Li1144 1.956 . S
O1204 Li1145 1.970 . S
O1204 Li1146 1.961 . S
O1204 C1148 1.325 . S
O1205 Li1144 1.970 . S
O1205 Li1145 1.956 . S
O1205 Li1147 1.961 . S
O1205 C1154 1.325 . S
O1206 Li1144 1.961 . S
O1206 Li1146 1.956 . S
O1206 Li1147 1.970 . S
O1206 C1176 1.325 . S
O1207 Li1145 1.961 . S
O1207 Li1146 1.970 . S
O1207 Li1147 1.956 . S
O1207 C1182 1.325 . S
H1208 C1150 0.929 . S
H1209 C1151 0.930 . S
H1210 C1152 0.930 . S
H1211 C1153 0.930 . S
H1212 C1155 0.930 . S
H1213 C1157 0.929 . S
H1214 C1158 0.930 . S
H1215 C1159 0.930 . S
H1216 C1162 0.930 . S
H1217 C1165 0.929 . S
H1218 C1170 0.929 . S
H1219 C1171 0.930 . S
H1220 C1178 0.929 . S
H1221 C1179 0.930 . S
H1222 C1180 0.930 . S
H1223 C1181 0.930 . S
H1224 C1183 0.929 . S
H1225 C1184 0.930 . S
H1226 C1185 0.930 . S
H1227 C1186 0.930 . S
H1228 C1190 0.929 . S
H1229 C1192 0.930 . S
H1230 C1198 0.929 . S
H1231 C1199 0.930 . S
Li1232 N1249 1.990 . S
Li1232 O1292 1.956 . S
Li1232 O1293 1.970 . S
Li1232 O1294 1.961 . S
Li1233 N1257 1.990 . S
Li1233 O1292 1.970 . S
Li1233 O1293 1.956 . S
Li1233 O1295 1.961 . S
Li1234 N1279 1.990 . S
Li1234 O1292 1.961 . S
Li1234 O1294 1.956 . S
Li1234 O1295 1.970 . S
Li1235 N1285 1.990 . S
Li1235 O1293 1.961 . S
Li1235 O1294 1.970 . S
Li1235 O1295 1.956 . S
C1236 C1238 1.348 . S
C1236 C1239 1.356 . S
C1236 O1292 1.325 . S
N1237 C1240 1.314 . S
N1237 C1241 1.279 . S
C1238 C1236 1.348 . S
C1238 C1240 1.353 . S
C1238 H1296 0.929 . S
C1239 C1236 1.356 . S
C1239 C1241 1.358 . S
C1239 H1297 0.930 . S
C1240 N1237 1.314 . S
C1240 C1238 1.353 . S
C1240 H1298 0.930 . S
C1241 N1237 1.279 . S
C1241 C1239 1.358 . S
C1241 H1299 0.930 . S
C1242 C1245 1.348 . S
C1242 C1246 1.356 . S
C1242 O1293 1.325 . S
C1243 N1244 1.279 . S
C1243 C1246 1.358 . S
C1243 H1300 0.930 . S
N1244 C1243 1.279 . S
N1244 C1247 1.314 . S
C1245 C1242 1.348 . S
C1245 C1247 1.353 . S
C1245 H1301 0.929 . S
C1246 C1242 1.356 . S
C1246 C1243 1.358 . S
C1246 H1302 0.930 . S
C1247 N1244 1.314 . S
C1247 C1245 1.353 . S
C1247 H1303 0.930 . S
C1248 N1249 1.314 . S
C1248 C1253 1.353 . S
C1248 H1254 0.930 . S
N1249 Li1232 1.990 . S
N1249 C1248 1.314 . S
N1249 C1251 1.279 . S
C1250 C1251 1.358 . S
C1250 C1252 1.356 . S
C1250 H1304 0.930 . S
C1251 N1249 1.279 . S
C1251 C1250 1.358 . S
C1251 H1255 0.930 . S
C1252 C1250 1.356 . S
C1252 C1253 1.348 . S
C1253 C1248 1.353 . S
C1253 C1252 1.348 . S
C1253 H1305 0.929 . S
H1254 C1248 0.930 . S
H1255 C1251 0.930 . S
C1256 N1257 1.314 . S
C1256 C1258 1.353 . S
C1256 H1262 0.930 . S
N1257 Li1233 1.990 . S
N1257 C1256 1.314 . S
N1257 C1260 1.279 . S
C1258 C1256 1.353 . S
C1258 C1261 1.348 . S
C1258 H1306 0.929 . S
C1259 C1260 1.358 . S
C1259 C1261 1.356 . S
C1259 H1307 0.930 . S
C1260 N1257 1.279 . S
C1260 C1259 1.358 . S
C1260 H1263 0.930 . S
C1261 C1258 1.348 . S
C1261 C1259 1.356 . S
H1262 C1256 0.930 . S
H1263 C1260 0.930 . S
C1264 C1266 1.348 . S
C1264 C1267 1.356 . S
C1264 O1294 1.325 . S
N1265 C1268 1.314 . S
N1265 C1269 1.279 . S
C1266 C1264 1.348 . S
C1266 C1268 1.353 . S
C1266 H1308 0.929 . S
C1267 C1264 1.356 . S
C1267 C1269 1.358 . S
C1267 H1309 0.930 . S
C1268 N1265 1.314 . S
C1268 C1266 1.353 . S
C1268 H1310 0.930 . S
C1269 N1265 1.279 . S
C1269 C1267 1.358 . S
C1269 H1311 0.930 . S
C1270 C1271 1.348 . S
C1270 C1272 1.356 . S
C1270 O1295 1.325 . S
C1271 C1270 1.348 . S
C1271 C1273 1.353 . S
C1271 H1312 0.929 . S
C1272 C1270 1.356 . S
C1272 C1274 1.358 . S
C1272 H1313 0.930 . S
C1273 C1271 1.353 . S
C1273 N1275 1.314 . S
C1273 H1314 0.930 . S
C1274 C1272 1.358 . S
C1274 N1275 1.279 . S
C1274 H1315 0.930 . S
N1275 C1273 1.314 . S
N1275 C1274 1.279 . S
C1276 C1278 1.353 . S
C1276 N1279 1.314 . S
C1276 H1282 0.930 . S
C1277 N1279 1.279 . S
C1277 C1280 1.358 . S
C1277 H1283 0.930 . S
C1278 C1276 1.353 . S
C1278 C1281 1.348 . S
C1278 H1316 0.929 . S
N1279 Li1234 1.990 . S
N1279 C1276 1.314 . S
N1279 C1277 1.279 . S
C1280 C1277 1.358 . S
C1280 C1281 1.356 . S
C1280 H1317 0.930 . S
C1281 C1278 1.348 . S
C1281 C1280 1.356 . S
H1282 C1276 0.930 . S
H1283 C1277 0.930 . S
C1284 N1285 1.314 . S
C1284 C1286 1.353 . S
C1284 H1290 0.930 . S
N1285 Li1235 1.990 . S
N1285 C1284 1.314 . S
N1285 C1288 1.279 . S
C1286 C1284 1.353 . S
C1286 C1289 1.348 . S
C1286 H1318 0.929 . S
C1287 C1288 1.358 . S
C1287 C1289 1.356 . S
C1287 H1319 0.930 . S
C1288 N1285 1.279 . S
C1288 C1287 1.358 . S
C1288 H1291 0.930 . S
C1289 C1286 1.348 . S
C1289 C1287 1.356 . S
H1290 C1284 0.930 . S
H1291 C1288 0.930 . S
O1292 Li1232 1.956 . S
O1292 Li1233 1.970 . S
O1292 Li1234 1.961 . S
O1292 C1236 1.325 . S
O1293 Li1232 1.970 . S
O1293 Li1233 1.956 . S
O1293 Li1235 1.961 . S
O1293 C1242 1.325 . S
O1294 Li1232 1.961 . S
O1294 Li1234 1.956 . S
O1294 Li1235 1.970 . S
O1294 C1264 1.325 . S
O1295 Li1233 1.961 . S
O1295 Li1234 1.970 . S
O1295 Li1235 1.956 . S
O1295 C1270 1.325 . S
H1296 C1238 0.929 . S
H1297 C1239 0.930 . S
H1298 C1240 0.930 . S
H1299 C1241 0.930 . S
H1300 C1243 0.930 . S
H1301 C1245 0.929 . S
H1302 C1246 0.930 . S
H1303 C1247 0.930 . S
H1304 C1250 0.930 . S
H1305 C1253 0.929 . S
H1306 C1258 0.929 . S
H1307 C1259 0.930 . S
H1308 C1266 0.929 . S
H1309 C1267 0.930 . S
H1310 C1268 0.930 . S
H1311 C1269 0.930 . S
H1312 C1271 0.929 . S
H1313 C1272 0.930 . S
H1314 C1273 0.930 . S
H1315 C1274 0.930 . S
H1316 C1278 0.929 . S
H1317 C1280 0.930 . S
H1318 C1286 0.929 . S
H1319 C1287 0.930 . S
Li1320 N1337 1.990 . S
Li1320 O1380 1.956 . S
Li1320 O1381 1.970 . S
Li1320 O1382 1.961 . S
Li1321 N1345 1.990 . S
Li1321 O1380 1.970 . S
Li1321 O1381 1.956 . S
Li1321 O1383 1.961 . S
Li1322 N1367 1.990 . S
Li1322 O1380 1.961 . S
Li1322 O1382 1.956 . S
Li1322 O1383 1.970 . S
Li1323 N1373 1.990 . S
Li1323 O1381 1.961 . S
Li1323 O1382 1.970 . S
Li1323 O1383 1.956 . S
C1324 C1326 1.348 . S
C1324 C1327 1.356 . S
C1324 O1380 1.325 . S
N1325 C1328 1.314 . S
N1325 C1329 1.279 . S
C1326 C1324 1.348 . S
C1326 C1328 1.353 . S
C1326 H1384 0.929 . S
C1327 C1324 1.356 . S
C1327 C1329 1.358 . S
C1327 H1385 0.930 . S
C1328 N1325 1.314 . S
C1328 C1326 1.353 . S
C1328 H1386 0.930 . S
C1329 N1325 1.279 . S
C1329 C1327 1.358 . S
C1329 H1387 0.930 . S
C1330 C1333 1.348 . S
C1330 C1334 1.356 . S
C1330 O1381 1.325 . S
C1331 N1332 1.279 . S
C1331 C1334 1.358 . S
C1331 H1388 0.930 . S
N1332 C1331 1.279 . S
N1332 C1335 1.314 . S
C1333 C1330 1.348 . S
C1333 C1335 1.353 . S
C1333 H1389 0.929 . S
C1334 C1330 1.356 . S
C1334 C1331 1.358 . S
C1334 H1390 0.930 . S
C1335 N1332 1.314 . S
C1335 C1333 1.353 . S
C1335 H1391 0.930 . S
C1336 N1337 1.314 . S
C1336 C1341 1.353 . S
C1336 H1342 0.930 . S
N1337 Li1320 1.990 . S
N1337 C1336 1.314 . S
N1337 C1339 1.279 . S
C1338 C1339 1.358 . S
C1338 C1340 1.356 . S
C1338 H1392 0.930 . S
C1339 N1337 1.279 . S
C1339 C1338 1.358 . S
C1339 H1343 0.930 . S
C1340 C1338 1.356 . S
C1340 C1341 1.348 . S
C1341 C1336 1.353 . S
C1341 C1340 1.348 . S
C1341 H1393 0.929 . S
H1342 C1336 0.930 . S
H1343 C1339 0.930 . S
C1344 N1345 1.314 . S
C1344 C1346 1.353 . S
C1344 H1350 0.930 . S
N1345 Li1321 1.990 . S
N1345 C1344 1.314 . S
N1345 C1348 1.279 . S
C1346 C1344 1.353 . S
C1346 C1349 1.348 . S
C1346 H1394 0.929 . S
C1347 C1348 1.358 . S
C1347 C1349 1.356 . S
C1347 H1395 0.930 . S
C1348 N1345 1.279 . S
C1348 C1347 1.358 . S
C1348 H1351 0.930 . S
C1349 C1346 1.348 . S
C1349 C1347 1.356 . S
H1350 C1344 0.930 . S
H1351 C1348 0.930 . S
C1352 C1354 1.348 . S
C1352 C1355 1.356 . S
C1352 O1382 1.325 . S
N1353 C1356 1.314 . S
N1353 C1357 1.279 . S
C1354 C1352 1.348 . S
C1354 C1356 1.353 . S
C1354 H1396 0.929 . S
C1355 C1352 1.356 . S
C1355 C1357 1.358 . S
C1355 H1397 0.930 . S
C1356 N1353 1.314 . S
C1356 C1354 1.353 . S
C1356 H1398 0.930 . S
C1357 N1353 1.279 . S
C1357 C1355 1.358 . S
C1357 H1399 0.930 . S
C1358 C1359 1.348 . S
C1358 C1360 1.356 . S
C1358 O1383 1.325 . S
C1359 C1358 1.348 . S
C1359 C1361 1.353 . S
C1359 H1400 0.929 . S
C1360 C1358 1.356 . S
C1360 C1362 1.358 . S
C1360 H1401 0.930 . S
C1361 C1359 1.353 . S
C1361 N1363 1.314 . S
C1361 H1402 0.930 . S
C1362 C1360 1.358 . S
C1362 N1363 1.279 . S
C1362 H1403 0.930 . S
N1363 C1361 1.314 . S
N1363 C1362 1.279 . S
C1364 C1366 1.353 . S
C1364 N1367 1.314 . S
C1364 H1370 0.930 . S
C1365 N1367 1.279 . S
C1365 C1368 1.358 . S
C1365 H1371 0.930 . S
C1366 C1364 1.353 . S
C1366 C1369 1.348 . S
C1366 H1404 0.929 . S
N1367 Li1322 1.990 . S
N1367 C1364 1.314 . S
N1367 C1365 1.279 . S
C1368 C1365 1.358 . S
C1368 C1369 1.356 . S
C1368 H1405 0.930 . S
C1369 C1366 1.348 . S
C1369 C1368 1.356 . S
H1370 C1364 0.930 . S
H1371 C1365 0.930 . S
C1372 N1373 1.314 . S
C1372 C1374 1.353 . S
C1372 H1378 0.930 . S
N1373 Li1323 1.990 . S
N1373 C1372 1.314 . S
N1373 C1376 1.279 . S
C1374 C1372 1.353 . S
C1374 C1377 1.348 . S
C1374 H1406 0.929 . S
C1375 C1376 1.358 . S
C1375 C1377 1.356 . S
C1375 H1407 0.930 . S
C1376 N1373 1.279 . S
C1376 C1375 1.358 . S
C1376 H1379 0.930 . S
C1377 C1374 1.348 . S
C1377 C1375 1.356 . S
H1378 C1372 0.930 . S
H1379 C1376 0.930 . S
O1380 Li1320 1.956 . S
O1380 Li1321 1.970 . S
O1380 Li1322 1.961 . S
O1380 C1324 1.325 . S
O1381 Li1320 1.970 . S
O1381 Li1321 1.956 . S
O1381 Li1323 1.961 . S
O1381 C1330 1.325 . S
O1382 Li1320 1.961 . S
O1382 Li1322 1.956 . S
O1382 Li1323 1.970 . S
O1382 C1352 1.325 . S
O1383 Li1321 1.961 . S
O1383 Li1322 1.970 . S
O1383 Li1323 1.956 . S
O1383 C1358 1.325 . S
H1384 C1326 0.929 . S
H1385 C1327 0.930 . S
H1386 C1328 0.930 . S
H1387 C1329 0.930 . S
H1388 C1331 0.930 . S
H1389 C1333 0.929 . S
H1390 C1334 0.930 . S
H1391 C1335 0.930 . S
H1392 C1338 0.930 . S
H1393 C1341 0.929 . S
H1394 C1346 0.929 . S
H1395 C1347 0.930 . S
H1396 C1354 0.929 . S
H1397 C1355 0.930 . S
H1398 C1356 0.930 . S
H1399 C1357 0.930 . S
H1400 C1359 0.929 . S
H1401 C1360 0.930 . S
H1402 C1361 0.930 . S
H1403 C1362 0.930 . S
H1404 C1366 0.929 . S
H1405 C1368 0.930 . S
H1406 C1374 0.929 . S
H1407 C1375 0.930 . S
Li1408 N1425 1.990 . S
Li1408 O1468 1.956 . S
Li1408 O1469 1.970 . S
Li1408 O1470 1.961 . S
Li1409 N1433 1.990 . S
Li1409 O1468 1.970 . S
Li1409 O1469 1.956 . S
Li1409 O1471 1.961 . S
Li1410 N1455 1.990 . S
Li1410 O1468 1.961 . S
Li1410 O1470 1.956 . S
Li1410 O1471 1.970 . S
Li1411 N1461 1.990 . S
Li1411 O1469 1.961 . S
Li1411 O1470 1.970 . S
Li1411 O1471 1.956 . S
C1412 C1414 1.348 . S
C1412 C1415 1.356 . S
C1412 O1468 1.325 . S
N1413 C1416 1.314 . S
N1413 C1417 1.279 . S
C1414 C1412 1.348 . S
C1414 C1416 1.353 . S
C1414 H1472 0.929 . S
C1415 C1412 1.356 . S
C1415 C1417 1.358 . S
C1415 H1473 0.930 . S
C1416 N1413 1.314 . S
C1416 C1414 1.353 . S
C1416 H1474 0.930 . S
C1417 N1413 1.279 . S
C1417 C1415 1.358 . S
C1417 H1475 0.930 . S
C1418 C1421 1.348 . S
C1418 C1422 1.356 . S
C1418 O1469 1.325 . S
C1419 N1420 1.279 . S
C1419 C1422 1.358 . S
C1419 H1476 0.930 . S
N1420 C1419 1.279 . S
N1420 C1423 1.314 . S
C1421 C1418 1.348 . S
C1421 C1423 1.353 . S
C1421 H1477 0.929 . S
C1422 C1418 1.356 . S
C1422 C1419 1.358 . S
C1422 H1478 0.930 . S
C1423 N1420 1.314 . S
C1423 C1421 1.353 . S
C1423 H1479 0.930 . S
C1424 N1425 1.314 . S
C1424 C1429 1.353 . S
C1424 H1430 0.930 . S
N1425 Li1408 1.990 . S
N1425 C1424 1.314 . S
N1425 C1427 1.279 . S
C1426 C1427 1.358 . S
C1426 C1428 1.356 . S
C1426 H1480 0.930 . S
C1427 N1425 1.279 . S
C1427 C1426 1.358 . S
C1427 H1431 0.930 . S
C1428 C1426 1.356 . S
C1428 C1429 1.348 . S
C1429 C1424 1.353 . S
C1429 C1428 1.348 . S
C1429 H1481 0.929 . S
H1430 C1424 0.930 . S
H1431 C1427 0.930 . S
C1432 N1433 1.314 . S
C1432 C1434 1.353 . S
C1432 H1438 0.930 . S
N1433 Li1409 1.990 . S
N1433 C1432 1.314 . S
N1433 C1436 1.279 . S
C1434 C1432 1.353 . S
C1434 C1437 1.348 . S
C1434 H1482 0.929 . S
C1435 C1436 1.358 . S
C1435 C1437 1.356 . S
C1435 H1483 0.930 . S
C1436 N1433 1.279 . S
C1436 C1435 1.358 . S
C1436 H1439 0.930 . S
C1437 C1434 1.348 . S
C1437 C1435 1.356 . S
H1438 C1432 0.930 . S
H1439 C1436 0.930 . S
C1440 C1442 1.348 . S
C1440 C1443 1.356 . S
C1440 O1470 1.325 . S
N1441 C1444 1.314 . S
N1441 C1445 1.279 . S
C1442 C1440 1.348 . S
C1442 C1444 1.353 . S
C1442 H1484 0.929 . S
C1443 C1440 1.356 . S
C1443 C1445 1.358 . S
C1443 H1485 0.930 . S
C1444 N1441 1.314 . S
C1444 C1442 1.353 . S
C1444 H1486 0.930 . S
C1445 N1441 1.279 . S
C1445 C1443 1.358 . S
C1445 H1487 0.930 . S
C1446 C1447 1.348 . S
C1446 C1448 1.356 . S
C1446 O1471 1.325 . S
C1447 C1446 1.348 . S
C1447 C1449 1.353 . S
C1447 H1488 0.929 . S
C1448 C1446 1.356 . S
C1448 C1450 1.358 . S
C1448 H1489 0.930 . S
C1449 C1447 1.353 . S
C1449 N1451 1.314 . S
C1449 H1490 0.930 . S
C1450 C1448 1.358 . S
C1450 N1451 1.279 . S
C1450 H1491 0.930 . S
N1451 C1449 1.314 . S
N1451 C1450 1.279 . S
C1452 C1454 1.353 . S
C1452 N1455 1.314 . S
C1452 H1458 0.930 . S
C1453 N1455 1.279 . S
C1453 C1456 1.358 . S
C1453 H1459 0.930 . S
C1454 C1452 1.353 . S
C1454 C1457 1.348 . S
C1454 H1492 0.929 . S
N1455 Li1410 1.990 . S
N1455 C1452 1.314 . S
N1455 C1453 1.279 . S
C1456 C1453 1.358 . S
C1456 C1457 1.356 . S
C1456 H1493 0.930 . S
C1457 C1454 1.348 . S
C1457 C1456 1.356 . S
H1458 C1452 0.930 . S
H1459 C1453 0.930 . S
C1460 N1461 1.314 . S
C1460 C1462 1.353 . S
C1460 H1466 0.930 . S
N1461 Li1411 1.990 . S
N1461 C1460 1.314 . S
N1461 C1464 1.279 . S
C1462 C1460 1.353 . S
C1462 C1465 1.348 . S
C1462 H1494 0.929 . S
C1463 C1464 1.358 . S
C1463 C1465 1.356 . S
C1463 H1495 0.930 . S
C1464 N1461 1.279 . S
C1464 C1463 1.358 . S
C1464 H1467 0.930 . S
C1465 C1462 1.348 . S
C1465 C1463 1.356 . S
H1466 C1460 0.930 . S
H1467 C1464 0.930 . S
O1468 Li1408 1.956 . S
O1468 Li1409 1.970 . S
O1468 Li1410 1.961 . S
O1468 C1412 1.325 . S
O1469 Li1408 1.970 . S
O1469 Li1409 1.956 . S
O1469 Li1411 1.961 . S
O1469 C1418 1.325 . S
O1470 Li1408 1.961 . S
O1470 Li1410 1.956 . S
O1470 Li1411 1.970 . S
O1470 C1440 1.325 . S
O1471 Li1409 1.961 . S
O1471 Li1410 1.970 . S
O1471 Li1411 1.956 . S
O1471 C1446 1.325 . S
H1472 C1414 0.929 . S
H1473 C1415 0.930 . S
H1474 C1416 0.930 . S
H1475 C1417 0.930 . S
H1476 C1419 0.930 . S
H1477 C1421 0.929 . S
H1478 C1422 0.930 . S
H1479 C1423 0.930 . S
H1480 C1426 0.930 . S
H1481 C1429 0.929 . S
H1482 C1434 0.929 . S
H1483 C1435 0.930 . S
H1484 C1442 0.929 . S
H1485 C1443 0.930 . S
H1486 C1444 0.930 . S
H1487 C1445 0.930 . S
H1488 C1447 0.929 . S
H1489 C1448 0.930 . S
H1490 C1449 0.930 . S
H1491 C1450 0.930 . S
H1492 C1454 0.929 . S
H1493 C1456 0.930 . S
H1494 C1462 0.929 . S
H1495 C1463 0.930 . S
Li1496 N1513 1.990 . S
Li1496 O1556 1.956 . S
Li1496 O1557 1.970 . S
Li1496 O1558 1.961 . S
Li1497 N1521 1.990 . S
Li1497 O1556 1.970 . S
Li1497 O1557 1.956 . S
Li1497 O1559 1.961 . S
Li1498 N1543 1.990 . S
Li1498 O1556 1.961 . S
Li1498 O1558 1.956 . S
Li1498 O1559 1.970 . S
Li1499 N1549 1.990 . S
Li1499 O1557 1.961 . S
Li1499 O1558 1.970 . S
Li1499 O1559 1.956 . S
C1500 C1502 1.348 . S
C1500 C1503 1.356 . S
C1500 O1556 1.325 . S
N1501 C1504 1.314 . S
N1501 C1505 1.279 . S
C1502 C1500 1.348 . S
C1502 C1504 1.353 . S
C1502 H1560 0.929 . S
C1503 C1500 1.356 . S
C1503 C1505 1.358 . S
C1503 H1561 0.930 . S
C1504 N1501 1.314 . S
C1504 C1502 1.353 . S
C1504 H1562 0.930 . S
C1505 N1501 1.279 . S
C1505 C1503 1.358 . S
C1505 H1563 0.930 . S
C1506 C1509 1.348 . S
C1506 C1510 1.356 . S
C1506 O1557 1.325 . S
C1507 N1508 1.279 . S
C1507 C1510 1.358 . S
C1507 H1564 0.930 . S
N1508 C1507 1.279 . S
N1508 C1511 1.314 . S
C1509 C1506 1.348 . S
C1509 C1511 1.353 . S
C1509 H1565 0.929 . S
C1510 C1506 1.356 . S
C1510 C1507 1.358 . S
C1510 H1566 0.930 . S
C1511 N1508 1.314 . S
C1511 C1509 1.353 . S
C1511 H1567 0.930 . S
C1512 N1513 1.314 . S
C1512 C1517 1.353 . S
C1512 H1518 0.930 . S
N1513 Li1496 1.990 . S
N1513 C1512 1.314 . S
N1513 C1515 1.279 . S
C1514 C1515 1.358 . S
C1514 C1516 1.356 . S
C1514 H1568 0.930 . S
C1515 N1513 1.279 . S
C1515 C1514 1.358 . S
C1515 H1519 0.930 . S
C1516 C1514 1.356 . S
C1516 C1517 1.348 . S
C1517 C1512 1.353 . S
C1517 C1516 1.348 . S
C1517 H1569 0.929 . S
H1518 C1512 0.930 . S
H1519 C1515 0.930 . S
C1520 N1521 1.314 . S
C1520 C1522 1.353 . S
C1520 H1526 0.930 . S
N1521 Li1497 1.990 . S
N1521 C1520 1.314 . S
N1521 C1524 1.279 . S
C1522 C1520 1.353 . S
C1522 C1525 1.348 . S
C1522 H1570 0.929 . S
C1523 C1524 1.358 . S
C1523 C1525 1.356 . S
C1523 H1571 0.930 . S
C1524 N1521 1.279 . S
C1524 C1523 1.358 . S
C1524 H1527 0.930 . S
C1525 C1522 1.348 . S
C1525 C1523 1.356 . S
H1526 C1520 0.930 . S
H1527 C1524 0.930 . S
C1528 C1530 1.348 . S
C1528 C1531 1.356 . S
C1528 O1558 1.325 . S
N1529 C1532 1.314 . S
N1529 C1533 1.279 . S
C1530 C1528 1.348 . S
C1530 C1532 1.353 . S
C1530 H1572 0.929 . S
C1531 C1528 1.356 . S
C1531 C1533 1.358 . S
C1531 H1573 0.930 . S
C1532 N1529 1.314 . S
C1532 C1530 1.353 . S
C1532 H1574 0.930 . S
C1533 N1529 1.279 . S
C1533 C1531 1.358 . S
C1533 H1575 0.930 . S
C1534 C1535 1.348 . S
C1534 C1536 1.356 . S
C1534 O1559 1.325 . S
C1535 C1534 1.348 . S
C1535 C1537 1.353 . S
C1535 H1576 0.929 . S
C1536 C1534 1.356 . S
C1536 C1538 1.358 . S
C1536 H1577 0.930 . S
C1537 C1535 1.353 . S
C1537 N1539 1.314 . S
C1537 H1578 0.930 . S
C1538 C1536 1.358 . S
C1538 N1539 1.279 . S
C1538 H1579 0.930 . S
N1539 C1537 1.314 . S
N1539 C1538 1.279 . S
C1540 C1542 1.353 . S
C1540 N1543 1.314 . S
C1540 H1546 0.930 . S
C1541 N1543 1.279 . S
C1541 C1544 1.358 . S
C1541 H1547 0.930 . S
C1542 C1540 1.353 . S
C1542 C1545 1.348 . S
C1542 H1580 0.929 . S
N1543 Li1498 1.990 . S
N1543 C1540 1.314 . S
N1543 C1541 1.279 . S
C1544 C1541 1.358 . S
C1544 C1545 1.356 . S
C1544 H1581 0.930 . S
C1545 C1542 1.348 . S
C1545 C1544 1.356 . S
H1546 C1540 0.930 . S
H1547 C1541 0.930 . S
C1548 N1549 1.314 . S
C1548 C1550 1.353 . S
C1548 H1554 0.930 . S
N1549 Li1499 1.990 . S
N1549 C1548 1.314 . S
N1549 C1552 1.279 . S
C1550 C1548 1.353 . S
C1550 C1553 1.348 . S
C1550 H1582 0.929 . S
C1551 C1552 1.358 . S
C1551 C1553 1.356 . S
C1551 H1583 0.930 . S
C1552 N1549 1.279 . S
C1552 C1551 1.358 . S
C1552 H1555 0.930 . S
C1553 C1550 1.348 . S
C1553 C1551 1.356 . S
H1554 C1548 0.930 . S
H1555 C1552 0.930 . S
O1556 Li1496 1.956 . S
O1556 Li1497 1.970 . S
O1556 Li1498 1.961 . S
O1556 C1500 1.325 . S
O1557 Li1496 1.970 . S
O1557 Li1497 1.956 . S
O1557 Li1499 1.961 . S
O1557 C1506 1.325 . S
O1558 Li1496 1.961 . S
O1558 Li1498 1.956 . S
O1558 Li1499 1.970 . S
O1558 C1528 1.325 . S
O1559 Li1497 1.961 . S
O1559 Li1498 1.970 . S
O1559 Li1499 1.956 . S
O1559 C1534 1.325 . S
H1560 C1502 0.929 . S
H1561 C1503 0.930 . S
H1562 C1504 0.930 . S
H1563 C1505 0.930 . S
H1564 C1507 0.930 . S
H1565 C1509 0.929 . S
H1566 C1510 0.930 . S
H1567 C1511 0.930 . S
H1568 C1514 0.930 . S
H1569 C1517 0.929 . S
H1570 C1522 0.929 . S
H1571 C1523 0.930 . S
H1572 C1530 0.929 . S
H1573 C1531 0.930 . S
H1574 C1532 0.930 . S
H1575 C1533 0.930 . S
H1576 C1535 0.929 . S
H1577 C1536 0.930 . S
H1578 C1537 0.930 . S
H1579 C1538 0.930 . S
H1580 C1542 0.929 . S
H1581 C1544 0.930 . S
H1582 C1550 0.929 . S
H1583 C1551 0.930 . S
Li1584 N1601 1.990 . S
Li1584 O1644 1.956 . S
Li1584 O1645 1.970 . S
Li1584 O1646 1.961 . S
Li1585 N1609 1.990 . S
Li1585 O1644 1.970 . S
Li1585 O1645 1.956 . S
Li1585 O1647 1.961 . S
Li1586 N1631 1.990 . S
Li1586 O1644 1.961 . S
Li1586 O1646 1.956 . S
Li1586 O1647 1.970 . S
Li1587 N1637 1.990 . S
Li1587 O1645 1.961 . S
Li1587 O1646 1.970 . S
Li1587 O1647 1.956 . S
C1588 C1590 1.348 . S
C1588 C1591 1.356 . S
C1588 O1644 1.325 . S
N1589 C1592 1.314 . S
N1589 C1593 1.279 . S
C1590 C1588 1.348 . S
C1590 C1592 1.353 . S
C1590 H1648 0.929 . S
C1591 C1588 1.356 . S
C1591 C1593 1.358 . S
C1591 H1649 0.930 . S
C1592 N1589 1.314 . S
C1592 C1590 1.353 . S
C1592 H1650 0.930 . S
C1593 N1589 1.279 . S
C1593 C1591 1.358 . S
C1593 H1651 0.930 . S
C1594 C1597 1.348 . S
C1594 C1598 1.356 . S
C1594 O1645 1.325 . S
C1595 N1596 1.279 . S
C1595 C1598 1.358 . S
C1595 H1652 0.930 . S
N1596 C1595 1.279 . S
N1596 C1599 1.314 . S
C1597 C1594 1.348 . S
C1597 C1599 1.353 . S
C1597 H1653 0.929 . S
C1598 C1594 1.356 . S
C1598 C1595 1.358 . S
C1598 H1654 0.930 . S
C1599 N1596 1.314 . S
C1599 C1597 1.353 . S
C1599 H1655 0.930 . S
C1600 N1601 1.314 . S
C1600 C1605 1.353 . S
C1600 H1606 0.930 . S
N1601 Li1584 1.990 . S
N1601 C1600 1.314 . S
N1601 C1603 1.279 . S
C1602 C1603 1.358 . S
C1602 C1604 1.356 . S
C1602 H1656 0.930 . S
C1603 N1601 1.279 . S
C1603 C1602 1.358 . S
C1603 H1607 0.930 . S
C1604 C1602 1.356 . S
C1604 C1605 1.348 . S
C1605 C1600 1.353 . S
C1605 C1604 1.348 . S
C1605 H1657 0.929 . S
H1606 C1600 0.930 . S
H1607 C1603 0.930 . S
C1608 N1609 1.314 . S
C1608 C1610 1.353 . S
C1608 H1614 0.930 . S
N1609 Li1585 1.990 . S
N1609 C1608 1.314 . S
N1609 C1612 1.279 . S
C1610 C1608 1.353 . S
C1610 C1613 1.348 . S
C1610 H1658 0.929 . S
C1611 C1612 1.358 . S
C1611 C1613 1.356 . S
C1611 H1659 0.930 . S
C1612 N1609 1.279 . S
C1612 C1611 1.358 . S
C1612 H1615 0.930 . S
C1613 C1610 1.348 . S
C1613 C1611 1.356 . S
H1614 C1608 0.930 . S
H1615 C1612 0.930 . S
C1616 C1618 1.348 . S
C1616 C1619 1.356 . S
C1616 O1646 1.325 . S
N1617 C1620 1.314 . S
N1617 C1621 1.279 . S
C1618 C1616 1.348 . S
C1618 C1620 1.353 . S
C1618 H1660 0.929 . S
C1619 C1616 1.356 . S
C1619 C1621 1.358 . S
C1619 H1661 0.930 . S
C1620 N1617 1.314 . S
C1620 C1618 1.353 . S
C1620 H1662 0.930 . S
C1621 N1617 1.279 . S
C1621 C1619 1.358 . S
C1621 H1663 0.930 . S
C1622 C1623 1.348 . S
C1622 C1624 1.356 . S
C1622 O1647 1.325 . S
C1623 C1622 1.348 . S
C1623 C1625 1.353 . S
C1623 H1664 0.929 . S
C1624 C1622 1.356 . S
C1624 C1626 1.358 . S
C1624 H1665 0.930 . S
C1625 C1623 1.353 . S
C1625 N1627 1.314 . S
C1625 H1666 0.930 . S
C1626 C1624 1.358 . S
C1626 N1627 1.279 . S
C1626 H1667 0.930 . S
N1627 C1625 1.314 . S
N1627 C1626 1.279 . S
C1628 C1630 1.353 . S
C1628 N1631 1.314 . S
C1628 H1634 0.930 . S
C1629 N1631 1.279 . S
C1629 C1632 1.358 . S
C1629 H1635 0.930 . S
C1630 C1628 1.353 . S
C1630 C1633 1.348 . S
C1630 H1668 0.929 . S
N1631 Li1586 1.990 . S
N1631 C1628 1.314 . S
N1631 C1629 1.279 . S
C1632 C1629 1.358 . S
C1632 C1633 1.356 . S
C1632 H1669 0.930 . S
C1633 C1630 1.348 . S
C1633 C1632 1.356 . S
H1634 C1628 0.930 . S
H1635 C1629 0.930 . S
C1636 N1637 1.314 . S
C1636 C1638 1.353 . S
C1636 H1642 0.930 . S
N1637 Li1587 1.990 . S
N1637 C1636 1.314 . S
N1637 C1640 1.279 . S
C1638 C1636 1.353 . S
C1638 C1641 1.348 . S
C1638 H1670 0.929 . S
C1639 C1640 1.358 . S
C1639 C1641 1.356 . S
C1639 H1671 0.930 . S
C1640 N1637 1.279 . S
C1640 C1639 1.358 . S
C1640 H1643 0.930 . S
C1641 C1638 1.348 . S
C1641 C1639 1.356 . S
H1642 C1636 0.930 . S
H1643 C1640 0.930 . S
O1644 Li1584 1.956 . S
O1644 Li1585 1.970 . S
O1644 Li1586 1.961 . S
O1644 C1588 1.325 . S
O1645 Li1584 1.970 . S
O1645 Li1585 1.956 . S
O1645 Li1587 1.961 . S
O1645 C1594 1.325 . S
O1646 Li1584 1.961 . S
O1646 Li1586 1.956 . S
O1646 Li1587 1.970 . S
O1646 C1616 1.325 . S
O1647 Li1585 1.961 . S
O1647 Li1586 1.970 . S
O1647 Li1587 1.956 . S
O1647 C1622 1.325 . S
H1648 C1590 0.929 . S
H1649 C1591 0.930 . S
H1650 C1592 0.930 . S
H1651 C1593 0.930 . S
H1652 C1595 0.930 . S
H1653 C1597 0.929 . S
H1654 C1598 0.930 . S
H1655 C1599 0.930 . S
H1656 C1602 0.930 . S
H1657 C1605 0.929 . S
H1658 C1610 0.929 . S
H1659 C1611 0.930 . S
H1660 C1618 0.929 . S
H1661 C1619 0.930 . S
H1662 C1620 0.930 . S
H1663 C1621 0.930 . S
H1664 C1623 0.929 . S
H1665 C1624 0.930 . S
H1666 C1625 0.930 . S
H1667 C1626 0.930 . S
H1668 C1630 0.929 . S
H1669 C1632 0.930 . S
H1670 C1638 0.929 . S
H1671 C1639 0.930 . S
Li1672 N1689 1.990 . S
Li1672 O1732 1.956 . S
Li1672 O1733 1.970 . S
Li1672 O1734 1.961 . S
Li1673 N1697 1.990 . S
Li1673 O1732 1.970 . S
Li1673 O1733 1.956 . S
Li1673 O1735 1.961 . S
Li1674 N1719 1.990 . S
Li1674 O1732 1.961 . S
Li1674 O1734 1.956 . S
Li1674 O1735 1.970 . S
Li1675 N1725 1.990 . S
Li1675 O1733 1.961 . S
Li1675 O1734 1.970 . S
Li1675 O1735 1.956 . S
C1676 C1678 1.348 . S
C1676 C1679 1.356 . S
C1676 O1732 1.325 . S
N1677 C1680 1.314 . S
N1677 C1681 1.279 . S
C1678 C1676 1.348 . S
C1678 C1680 1.353 . S
C1678 H1736 0.929 . S
C1679 C1676 1.356 . S
C1679 C1681 1.358 . S
C1679 H1737 0.930 . S
C1680 N1677 1.314 . S
C1680 C1678 1.353 . S
C1680 H1738 0.930 . S
C1681 N1677 1.279 . S
C1681 C1679 1.358 . S
C1681 H1739 0.930 . S
C1682 C1685 1.348 . S
C1682 C1686 1.356 . S
C1682 O1733 1.325 . S
C1683 N1684 1.279 . S
C1683 C1686 1.358 . S
C1683 H1740 0.930 . S
N1684 C1683 1.279 . S
N1684 C1687 1.314 . S
C1685 C1682 1.348 . S
C1685 C1687 1.353 . S
C1685 H1741 0.929 . S
C1686 C1682 1.356 . S
C1686 C1683 1.358 . S
C1686 H1742 0.930 . S
C1687 N1684 1.314 . S
C1687 C1685 1.353 . S
C1687 H1743 0.930 . S
C1688 N1689 1.314 . S
C1688 C1693 1.353 . S
C1688 H1694 0.930 . S
N1689 Li1672 1.990 . S
N1689 C1688 1.314 . S
N1689 C1691 1.279 . S
C1690 C1691 1.358 . S
C1690 C1692 1.356 . S
C1690 H1744 0.930 . S
C1691 N1689 1.279 . S
C1691 C1690 1.358 . S
C1691 H1695 0.930 . S
C1692 C1690 1.356 . S
C1692 C1693 1.348 . S
C1693 C1688 1.353 . S
C1693 C1692 1.348 . S
C1693 H1745 0.929 . S
H1694 C1688 0.930 . S
H1695 C1691 0.930 . S
C1696 N1697 1.314 . S
C1696 C1698 1.353 . S
C1696 H1702 0.930 . S
N1697 Li1673 1.990 . S
N1697 C1696 1.314 . S
N1697 C1700 1.279 . S
C1698 C1696 1.353 . S
C1698 C1701 1.348 . S
C1698 H1746 0.929 . S
C1699 C1700 1.358 . S
C1699 C1701 1.356 . S
C1699 H1747 0.930 . S
C1700 N1697 1.279 . S
C1700 C1699 1.358 . S
C1700 H1703 0.930 . S
C1701 C1698 1.348 . S
C1701 C1699 1.356 . S
H1702 C1696 0.930 . S
H1703 C1700 0.930 . S
C1704 C1706 1.348 . S
C1704 C1707 1.356 . S
C1704 O1734 1.325 . S
N1705 C1708 1.314 . S
N1705 C1709 1.279 . S
C1706 C1704 1.348 . S
C1706 C1708 1.353 . S
C1706 H1748 0.929 . S
C1707 C1704 1.356 . S
C1707 C1709 1.358 . S
C1707 H1749 0.930 . S
C1708 N1705 1.314 . S
C1708 C1706 1.353 . S
C1708 H1750 0.930 . S
C1709 N1705 1.279 . S
C1709 C1707 1.358 . S
C1709 H1751 0.930 . S
C1710 C1711 1.348 . S
C1710 C1712 1.356 . S
C1710 O1735 1.325 . S
C1711 C1710 1.348 . S
C1711 C1713 1.353 . S
C1711 H1752 0.929 . S
C1712 C1710 1.356 . S
C1712 C1714 1.358 . S
C1712 H1753 0.930 . S
C1713 C1711 1.353 . S
C1713 N1715 1.314 . S
C1713 H1754 0.930 . S
C1714 C1712 1.358 . S
C1714 N1715 1.279 . S
C1714 H1755 0.930 . S
N1715 C1713 1.314 . S
N1715 C1714 1.279 . S
C1716 C1718 1.353 . S
C1716 N1719 1.314 . S
C1716 H1722 0.930 . S
C1717 N1719 1.279 . S
C1717 C1720 1.358 . S
C1717 H1723 0.930 . S
C1718 C1716 1.353 . S
C1718 C1721 1.348 . S
C1718 H1756 0.929 . S
N1719 Li1674 1.990 . S
N1719 C1716 1.314 . S
N1719 C1717 1.279 . S
C1720 C1717 1.358 . S
C1720 C1721 1.356 . S
C1720 H1757 0.930 . S
C1721 C1718 1.348 . S
C1721 C1720 1.356 . S
H1722 C1716 0.930 . S
H1723 C1717 0.930 . S
C1724 N1725 1.314 . S
C1724 C1726 1.353 . S
C1724 H1730 0.930 . S
N1725 Li1675 1.990 . S
N1725 C1724 1.314 . S
N1725 C1728 1.279 . S
C1726 C1724 1.353 . S
C1726 C1729 1.348 . S
C1726 H1758 0.929 . S
C1727 C1728 1.358 . S
C1727 C1729 1.356 . S
C1727 H1759 0.930 . S
C1728 N1725 1.279 . S
C1728 C1727 1.358 . S
C1728 H1731 0.930 . S
C1729 C1726 1.348 . S
C1729 C1727 1.356 . S
H1730 C1724 0.930 . S
H1731 C1728 0.930 . S
O1732 Li1672 1.956 . S
O1732 Li1673 1.970 . S
O1732 Li1674 1.961 . S
O1732 C1676 1.325 . S
O1733 Li1672 1.970 . S
O1733 Li1673 1.956 . S
O1733 Li1675 1.961 . S
O1733 C1682 1.325 . S
O1734 Li1672 1.961 . S
O1734 Li1674 1.956 . S
O1734 Li1675 1.970 . S
O1734 C1704 1.325 . S
O1735 Li1673 1.961 . S
O1735 Li1674 1.970 . S
O1735 Li1675 1.956 . S
O1735 C1710 1.325 . S
H1736 C1678 0.929 . S
H1737 C1679 0.930 . S
H1738 C1680 0.930 . S
H1739 C1681 0.930 . S
H1740 C1683 0.930 . S
H1741 C1685 0.929 . S
H1742 C1686 0.930 . S
H1743 C1687 0.930 . S
H1744 C1690 0.930 . S
H1745 C1693 0.929 . S
H1746 C1698 0.929 . S
H1747 C1699 0.930 . S
H1748 C1706 0.929 . S
H1749 C1707 0.930 . S
H1750 C1708 0.930 . S
H1751 C1709 0.930 . S
H1752 C1711 0.929 . S
H1753 C1712 0.930 . S
H1754 C1713 0.930 . S
H1755 C1714 0.930 . S
H1756 C1718 0.929 . S
H1757 C1720 0.930 . S
H1758 C1726 0.929 . S
H1759 C1727 0.930 . S
Li1760 N1777 1.990 . S
Li1760 O1820 1.956 . S
Li1760 O1821 1.970 . S
Li1760 O1822 1.961 . S
Li1761 N1785 1.990 . S
Li1761 O1820 1.970 . S
Li1761 O1821 1.956 . S
Li1761 O1823 1.961 . S
Li1762 N1807 1.990 . S
Li1762 O1820 1.961 . S
Li1762 O1822 1.956 . S
Li1762 O1823 1.970 . S
Li1763 N1813 1.990 . S
Li1763 O1821 1.961 . S
Li1763 O1822 1.970 . S
Li1763 O1823 1.956 . S
C1764 C1766 1.348 . S
C1764 C1767 1.356 . S
C1764 O1820 1.325 . S
N1765 C1768 1.314 . S
N1765 C1769 1.279 . S
C1766 C1764 1.348 . S
C1766 C1768 1.353 . S
C1766 H1824 0.929 . S
C1767 C1764 1.356 . S
C1767 C1769 1.358 . S
C1767 H1825 0.930 . S
C1768 N1765 1.314 . S
C1768 C1766 1.353 . S
C1768 H1826 0.930 . S
C1769 N1765 1.279 . S
C1769 C1767 1.358 . S
C1769 H1827 0.930 . S
C1770 C1773 1.348 . S
C1770 C1774 1.356 . S
C1770 O1821 1.325 . S
C1771 N1772 1.279 . S
C1771 C1774 1.358 . S
C1771 H1828 0.930 . S
N1772 C1771 1.279 . S
N1772 C1775 1.314 . S
C1773 C1770 1.348 . S
C1773 C1775 1.353 . S
C1773 H1829 0.929 . S
C1774 C1770 1.356 . S
C1774 C1771 1.358 . S
C1774 H1830 0.930 . S
C1775 N1772 1.314 . S
C1775 C1773 1.353 . S
C1775 H1831 0.930 . S
C1776 N1777 1.314 . S
C1776 C1781 1.353 . S
C1776 H1782 0.930 . S
N1777 Li1760 1.990 . S
N1777 C1776 1.314 . S
N1777 C1779 1.279 . S
C1778 C1779 1.358 . S
C1778 C1780 1.356 . S
C1778 H1832 0.930 . S
C1779 N1777 1.279 . S
C1779 C1778 1.358 . S
C1779 H1783 0.930 . S
C1780 C1778 1.356 . S
C1780 C1781 1.348 . S
C1781 C1776 1.353 . S
C1781 C1780 1.348 . S
C1781 H1833 0.929 . S
H1782 C1776 0.930 . S
H1783 C1779 0.930 . S
C1784 N1785 1.314 . S
C1784 C1786 1.353 . S
C1784 H1790 0.930 . S
N1785 Li1761 1.990 . S
N1785 C1784 1.314 . S
N1785 C1788 1.279 . S
C1786 C1784 1.353 . S
C1786 C1789 1.348 . S
C1786 H1834 0.929 . S
C1787 C1788 1.358 . S
C1787 C1789 1.356 . S
C1787 H1835 0.930 . S
C1788 N1785 1.279 . S
C1788 C1787 1.358 . S
C1788 H1791 0.930 . S
C1789 C1786 1.348 . S
C1789 C1787 1.356 . S
H1790 C1784 0.930 . S
H1791 C1788 0.930 . S
C1792 C1794 1.348 . S
C1792 C1795 1.356 . S
C1792 O1822 1.325 . S
N1793 C1796 1.314 . S
N1793 C1797 1.279 . S
C1794 C1792 1.348 . S
C1794 C1796 1.353 . S
C1794 H1836 0.929 . S
C1795 C1792 1.356 . S
C1795 C1797 1.358 . S
C1795 H1837 0.930 . S
C1796 N1793 1.314 . S
C1796 C1794 1.353 . S
C1796 H1838 0.930 . S
C1797 N1793 1.279 . S
C1797 C1795 1.358 . S
C1797 H1839 0.930 . S
C1798 C1799 1.348 . S
C1798 C1800 1.356 . S
C1798 O1823 1.325 . S
C1799 C1798 1.348 . S
C1799 C1801 1.353 . S
C1799 H1840 0.929 . S
C1800 C1798 1.356 . S
C1800 C1802 1.358 . S
C1800 H1841 0.930 . S
C1801 C1799 1.353 . S
C1801 N1803 1.314 . S
C1801 H1842 0.930 . S
C1802 C1800 1.358 . S
C1802 N1803 1.279 . S
C1802 H1843 0.930 . S
N1803 C1801 1.314 . S
N1803 C1802 1.279 . S
C1804 C1806 1.353 . S
C1804 N1807 1.314 . S
C1804 H1810 0.930 . S
C1805 N1807 1.279 . S
C1805 C1808 1.358 . S
C1805 H1811 0.930 . S
C1806 C1804 1.353 . S
C1806 C1809 1.348 . S
C1806 H1844 0.929 . S
N1807 Li1762 1.990 . S
N1807 C1804 1.314 . S
N1807 C1805 1.279 . S
C1808 C1805 1.358 . S
C1808 C1809 1.356 . S
C1808 H1845 0.930 . S
C1809 C1806 1.348 . S
C1809 C1808 1.356 . S
H1810 C1804 0.930 . S
H1811 C1805 0.930 . S
C1812 N1813 1.314 . S
C1812 C1814 1.353 . S
C1812 H1818 0.930 . S
N1813 Li1763 1.990 . S
N1813 C1812 1.314 . S
N1813 C1816 1.279 . S
C1814 C1812 1.353 . S
C1814 C1817 1.348 . S
C1814 H1846 0.929 . S
C1815 C1816 1.358 . S
C1815 C1817 1.356 . S
C1815 H1847 0.930 . S
C1816 N1813 1.279 . S
C1816 C1815 1.358 . S
C1816 H1819 0.930 . S
C1817 C1814 1.348 . S
C1817 C1815 1.356 . S
H1818 C1812 0.930 . S
H1819 C1816 0.930 . S
O1820 Li1760 1.956 . S
O1820 Li1761 1.970 . S
O1820 Li1762 1.961 . S
O1820 C1764 1.325 . S
O1821 Li1760 1.970 . S
O1821 Li1761 1.956 . S
O1821 Li1763 1.961 . S
O1821 C1770 1.325 . S
O1822 Li1760 1.961 . S
O1822 Li1762 1.956 . S
O1822 Li1763 1.970 . S
O1822 C1792 1.325 . S
O1823 Li1761 1.961 . S
O1823 Li1762 1.970 . S
O1823 Li1763 1.956 . S
O1823 C1798 1.325 . S
H1824 C1766 0.929 . S
H1825 C1767 0.930 . S
H1826 C1768 0.930 . S
H1827 C1769 0.930 . S
H1828 C1771 0.930 . S
H1829 C1773 0.929 . S
H1830 C1774 0.930 . S
H1831 C1775 0.930 . S
H1832 C1778 0.930 . S
H1833 C1781 0.929 . S
H1834 C1786 0.929 . S
H1835 C1787 0.930 . S
H1836 C1794 0.929 . S
H1837 C1795 0.930 . S
H1838 C1796 0.930 . S
H1839 C1797 0.930 . S
H1840 C1799 0.929 . S
H1841 C1800 0.930 . S
H1842 C1801 0.930 . S
H1843 C1802 0.930 . S
H1844 C1806 0.929 . S
H1845 C1808 0.930 . S
H1846 C1814 0.929 . S
H1847 C1815 0.930 . S
Li1848 N1865 1.990 . S
Li1848 O1908 1.956 . S
Li1848 O1909 1.970 . S
Li1848 O1910 1.961 . S
Li1849 N1873 1.990 . S
Li1849 O1908 1.970 . S
Li1849 O1909 1.956 . S
Li1849 O1911 1.961 . S
Li1850 N1895 1.990 . S
Li1850 O1908 1.961 . S
Li1850 O1910 1.956 . S
Li1850 O1911 1.970 . S
Li1851 N1901 1.990 . S
Li1851 O1909 1.961 . S
Li1851 O1910 1.970 . S
Li1851 O1911 1.956 . S
C1852 C1854 1.348 . S
C1852 C1855 1.356 . S
C1852 O1908 1.325 . S
N1853 C1856 1.314 . S
N1853 C1857 1.279 . S
C1854 C1852 1.348 . S
C1854 C1856 1.353 . S
C1854 H1912 0.929 . S
C1855 C1852 1.356 . S
C1855 C1857 1.358 . S
C1855 H1913 0.930 . S
C1856 N1853 1.314 . S
C1856 C1854 1.353 . S
C1856 H1914 0.930 . S
C1857 N1853 1.279 . S
C1857 C1855 1.358 . S
C1857 H1915 0.930 . S
C1858 C1861 1.348 . S
C1858 C1862 1.356 . S
C1858 O1909 1.325 . S
C1859 N1860 1.279 . S
C1859 C1862 1.358 . S
C1859 H1916 0.930 . S
N1860 C1859 1.279 . S
N1860 C1863 1.314 . S
C1861 C1858 1.348 . S
C1861 C1863 1.353 . S
C1861 H1917 0.929 . S
C1862 C1858 1.356 . S
C1862 C1859 1.358 . S
C1862 H1918 0.930 . S
C1863 N1860 1.314 . S
C1863 C1861 1.353 . S
C1863 H1919 0.930 . S
C1864 N1865 1.314 . S
C1864 C1869 1.353 . S
C1864 H1870 0.930 . S
N1865 Li1848 1.990 . S
N1865 C1864 1.314 . S
N1865 C1867 1.279 . S
C1866 C1867 1.358 . S
C1866 C1868 1.356 . S
C1866 H1920 0.930 . S
C1867 N1865 1.279 . S
C1867 C1866 1.358 . S
C1867 H1871 0.930 . S
C1868 C1866 1.356 . S
C1868 C1869 1.348 . S
C1869 C1864 1.353 . S
C1869 C1868 1.348 . S
C1869 H1921 0.929 . S
H1870 C1864 0.930 . S
H1871 C1867 0.930 . S
C1872 N1873 1.314 . S
C1872 C1874 1.353 . S
C1872 H1878 0.930 . S
N1873 Li1849 1.990 . S
N1873 C1872 1.314 . S
N1873 C1876 1.279 . S
C1874 C1872 1.353 . S
C1874 C1877 1.348 . S
C1874 H1922 0.929 . S
C1875 C1876 1.358 . S
C1875 C1877 1.356 . S
C1875 H1923 0.930 . S
C1876 N1873 1.279 . S
C1876 C1875 1.358 . S
C1876 H1879 0.930 . S
C1877 C1874 1.348 . S
C1877 C1875 1.356 . S
H1878 C1872 0.930 . S
H1879 C1876 0.930 . S
C1880 C1882 1.348 . S
C1880 C1883 1.356 . S
C1880 O1910 1.325 . S
N1881 C1884 1.314 . S
N1881 C1885 1.279 . S
C1882 C1880 1.348 . S
C1882 C1884 1.353 . S
C1882 H1924 0.929 . S
C1883 C1880 1.356 . S
C1883 C1885 1.358 . S
C1883 H1925 0.930 . S
C1884 N1881 1.314 . S
C1884 C1882 1.353 . S
C1884 H1926 0.930 . S
C1885 N1881 1.279 . S
C1885 C1883 1.358 . S
C1885 H1927 0.930 . S
C1886 C1887 1.348 . S
C1886 C1888 1.356 . S
C1886 O1911 1.325 . S
C1887 C1886 1.348 . S
C1887 C1889 1.353 . S
C1887 H1928 0.929 . S
C1888 C1886 1.356 . S
C1888 C1890 1.358 . S
C1888 H1929 0.930 . S
C1889 C1887 1.353 . S
C1889 N1891 1.314 . S
C1889 H1930 0.930 . S
C1890 C1888 1.358 . S
C1890 N1891 1.279 . S
C1890 H1931 0.930 . S
N1891 C1889 1.314 . S
N1891 C1890 1.279 . S
C1892 C1894 1.353 . S
C1892 N1895 1.314 . S
C1892 H1898 0.930 . S
C1893 N1895 1.279 . S
C1893 C1896 1.358 . S
C1893 H1899 0.930 . S
C1894 C1892 1.353 . S
C1894 C1897 1.348 . S
C1894 H1932 0.929 . S
N1895 Li1850 1.990 . S
N1895 C1892 1.314 . S
N1895 C1893 1.279 . S
C1896 C1893 1.358 . S
C1896 C1897 1.356 . S
C1896 H1933 0.930 . S
C1897 C1894 1.348 . S
C1897 C1896 1.356 . S
H1898 C1892 0.930 . S
H1899 C1893 0.930 . S
C1900 N1901 1.314 . S
C1900 C1902 1.353 . S
C1900 H1906 0.930 . S
N1901 Li1851 1.990 . S
N1901 C1900 1.314 . S
N1901 C1904 1.279 . S
C1902 C1900 1.353 . S
C1902 C1905 1.348 . S
C1902 H1934 0.929 . S
C1903 C1904 1.358 . S
C1903 C1905 1.356 . S
C1903 H1935 0.930 . S
C1904 N1901 1.279 . S
C1904 C1903 1.358 . S
C1904 H1907 0.930 . S
C1905 C1902 1.348 . S
C1905 C1903 1.356 . S
H1906 C1900 0.930 . S
H1907 C1904 0.930 . S
O1908 Li1848 1.956 . S
O1908 Li1849 1.970 . S
O1908 Li1850 1.961 . S
O1908 C1852 1.325 . S
O1909 Li1848 1.970 . S
O1909 Li1849 1.956 . S
O1909 Li1851 1.961 . S
O1909 C1858 1.325 . S
O1910 Li1848 1.961 . S
O1910 Li1850 1.956 . S
O1910 Li1851 1.970 . S
O1910 C1880 1.325 . S
O1911 Li1849 1.961 . S
O1911 Li1850 1.970 . S
O1911 Li1851 1.956 . S
O1911 C1886 1.325 . S
H1912 C1854 0.929 . S
H1913 C1855 0.930 . S
H1914 C1856 0.930 . S
H1915 C1857 0.930 . S
H1916 C1859 0.930 . S
H1917 C1861 0.929 . S
H1918 C1862 0.930 . S
H1919 C1863 0.930 . S
H1920 C1866 0.930 . S
H1921 C1869 0.929 . S
H1922 C1874 0.929 . S
H1923 C1875 0.930 . S
H1924 C1882 0.929 . S
H1925 C1883 0.930 . S
H1926 C1884 0.930 . S
H1927 C1885 0.930 . S
H1928 C1887 0.929 . S
H1929 C1888 0.930 . S
H1930 C1889 0.930 . S
H1931 C1890 0.930 . S
H1932 C1894 0.929 . S
H1933 C1896 0.930 . S
H1934 C1902 0.929 . S
H1935 C1903 0.930 . S
Li1936 N1953 1.990 . S
Li1936 O1996 1.956 . S
Li1936 O1997 1.970 . S
Li1936 O1998 1.961 . S
Li1937 N1961 1.990 . S
Li1937 O1996 1.970 . S
Li1937 O1997 1.956 . S
Li1937 O1999 1.961 . S
Li1938 N1983 1.990 . S
Li1938 O1996 1.961 . S
Li1938 O1998 1.956 . S
Li1938 O1999 1.970 . S
Li1939 N1989 1.990 . S
Li1939 O1997 1.961 . S
Li1939 O1998 1.970 . S
Li1939 O1999 1.956 . S
C1940 C1942 1.348 . S
C1940 C1943 1.356 . S
C1940 O1996 1.325 . S
N1941 C1944 1.314 . S
N1941 C1945 1.279 . S
C1942 C1940 1.348 . S
C1942 C1944 1.353 . S
C1942 H2000 0.929 . S
C1943 C1940 1.356 . S
C1943 C1945 1.358 . S
C1943 H2001 0.930 . S
C1944 N1941 1.314 . S
C1944 C1942 1.353 . S
C1944 H2002 0.930 . S
C1945 N1941 1.279 . S
C1945 C1943 1.358 . S
C1945 H2003 0.930 . S
C1946 C1949 1.348 . S
C1946 C1950 1.356 . S
C1946 O1997 1.325 . S
C1947 N1948 1.279 . S
C1947 C1950 1.358 . S
C1947 H2004 0.930 . S
N1948 C1947 1.279 . S
N1948 C1951 1.314 . S
C1949 C1946 1.348 . S
C1949 C1951 1.353 . S
C1949 H2005 0.929 . S
C1950 C1946 1.356 . S
C1950 C1947 1.358 . S
C1950 H2006 0.930 . S
C1951 N1948 1.314 . S
C1951 C1949 1.353 . S
C1951 H2007 0.930 . S
C1952 N1953 1.314 . S
C1952 C1957 1.353 . S
C1952 H1958 0.930 . S
N1953 Li1936 1.990 . S
N1953 C1952 1.314 . S
N1953 C1955 1.279 . S
C1954 C1955 1.358 . S
C1954 C1956 1.356 . S
C1954 H2008 0.930 . S
C1955 N1953 1.279 . S
C1955 C1954 1.358 . S
C1955 H1959 0.930 . S
C1956 C1954 1.356 . S
C1956 C1957 1.348 . S
C1957 C1952 1.353 . S
C1957 C1956 1.348 . S
C1957 H2009 0.929 . S
H1958 C1952 0.930 . S
H1959 C1955 0.930 . S
C1960 N1961 1.314 . S
C1960 C1962 1.353 . S
C1960 H1966 0.930 . S
N1961 Li1937 1.990 . S
N1961 C1960 1.314 . S
N1961 C1964 1.279 . S
C1962 C1960 1.353 . S
C1962 C1965 1.348 . S
C1962 H2010 0.929 . S
C1963 C1964 1.358 . S
C1963 C1965 1.356 . S
C1963 H2011 0.930 . S
C1964 N1961 1.279 . S
C1964 C1963 1.358 . S
C1964 H1967 0.930 . S
C1965 C1962 1.348 . S
C1965 C1963 1.356 . S
H1966 C1960 0.930 . S
H1967 C1964 0.930 . S
C1968 C1970 1.348 . S
C1968 C1971 1.356 . S
C1968 O1998 1.325 . S
N1969 C1972 1.314 . S
N1969 C1973 1.279 . S
C1970 C1968 1.348 . S
C1970 C1972 1.353 . S
C1970 H2012 0.929 . S
C1971 C1968 1.356 . S
C1971 C1973 1.358 . S
C1971 H2013 0.930 . S
C1972 N1969 1.314 . S
C1972 C1970 1.353 . S
C1972 H2014 0.930 . S
C1973 N1969 1.279 . S
C1973 C1971 1.358 . S
C1973 H2015 0.930 . S
C1974 C1975 1.348 . S
C1974 C1976 1.356 . S
C1974 O1999 1.325 . S
C1975 C1974 1.348 . S
C1975 C1977 1.353 . S
C1975 H2016 0.929 . S
C1976 C1974 1.356 . S
C1976 C1978 1.358 . S
C1976 H2017 0.930 . S
C1977 C1975 1.353 . S
C1977 N1979 1.314 . S
C1977 H2018 0.930 . S
C1978 C1976 1.358 . S
C1978 N1979 1.279 . S
C1978 H2019 0.930 . S
N1979 C1977 1.314 . S
N1979 C1978 1.279 . S
C1980 C1982 1.353 . S
C1980 N1983 1.314 . S
C1980 H1986 0.930 . S
C1981 N1983 1.279 . S
C1981 C1984 1.358 . S
C1981 H1987 0.930 . S
C1982 C1980 1.353 . S
C1982 C1985 1.348 . S
C1982 H2020 0.929 . S
N1983 Li1938 1.990 . S
N1983 C1980 1.314 . S
N1983 C1981 1.279 . S
C1984 C1981 1.358 . S
C1984 C1985 1.356 . S
C1984 H2021 0.930 . S
C1985 C1982 1.348 . S
C1985 C1984 1.356 . S
H1986 C1980 0.930 . S
H1987 C1981 0.930 . S
C1988 N1989 1.314 . S
C1988 C1990 1.353 . S
C1988 H1994 0.930 . S
N1989 Li1939 1.990 . S
N1989 C1988 1.314 . S
N1989 C1992 1.279 . S
C1990 C1988 1.353 . S
C1990 C1993 1.348 . S
C1990 H2022 0.929 . S
C1991 C1992 1.358 . S
C1991 C1993 1.356 . S
C1991 H2023 0.930 . S
C1992 N1989 1.279 . S
C1992 C1991 1.358 . S
C1992 H1995 0.930 . S
C1993 C1990 1.348 . S
C1993 C1991 1.356 . S
H1994 C1988 0.930 . S
H1995 C1992 0.930 . S
O1996 Li1936 1.956 . S
O1996 Li1937 1.970 . S
O1996 Li1938 1.961 . S
O1996 C1940 1.325 . S
O1997 Li1936 1.970 . S
O1997 Li1937 1.956 . S
O1997 Li1939 1.961 . S
O1997 C1946 1.325 . S
O1998 Li1936 1.961 . S
O1998 Li1938 1.956 . S
O1998 Li1939 1.970 . S
O1998 C1968 1.325 . S
O1999 Li1937 1.961 . S
O1999 Li1938 1.970 . S
O1999 Li1939 1.956 . S
O1999 C1974 1.325 . S
H2000 C1942 0.929 . S
H2001 C1943 0.930 . S
H2002 C1944 0.930 . S
H2003 C1945 0.930 . S
H2004 C1947 0.930 . S
H2005 C1949 0.929 . S
H2006 C1950 0.930 . S
H2007 C1951 0.930 . S
H2008 C1954 0.930 . S
H2009 C1957 0.929 . S
H2010 C1962 0.929 . S
H2011 C1963 0.930 . S
H2012 C1970 0.929 . S
H2013 C1971 0.930 . S
H2014 C1972 0.930 . S
H2015 C1973 0.930 . S
H2016 C1975 0.929 . S
H2017 C1976 0.930 . S
H2018 C1977 0.930 . S
H2019 C1978 0.930 . S
H2020 C1982 0.929 . S
H2021 C1984 0.930 . S
H2022 C1990 0.929 . S
H2023 C1991 0.930 . S
Li2024 N2041 1.990 . S
Li2024 O2084 1.956 . S
Li2024 O2085 1.970 . S
Li2024 O2086 1.961 . S
Li2025 N2049 1.990 . S
Li2025 O2084 1.970 . S
Li2025 O2085 1.956 . S
Li2025 O2087 1.961 . S
Li2026 N2071 1.990 . S
Li2026 O2084 1.961 . S
Li2026 O2086 1.956 . S
Li2026 O2087 1.970 . S
Li2027 N2077 1.990 . S
Li2027 O2085 1.961 . S
Li2027 O2086 1.970 . S
Li2027 O2087 1.956 . S
C2028 C2030 1.348 . S
C2028 C2031 1.356 . S
C2028 O2084 1.325 . S
N2029 C2032 1.314 . S
N2029 C2033 1.279 . S
C2030 C2028 1.348 . S
C2030 C2032 1.353 . S
C2030 H2088 0.929 . S
C2031 C2028 1.356 . S
C2031 C2033 1.358 . S
C2031 H2089 0.930 . S
C2032 N2029 1.314 . S
C2032 C2030 1.353 . S
C2032 H2090 0.930 . S
C2033 N2029 1.279 . S
C2033 C2031 1.358 . S
C2033 H2091 0.930 . S
C2034 C2037 1.348 . S
C2034 C2038 1.356 . S
C2034 O2085 1.325 . S
C2035 N2036 1.279 . S
C2035 C2038 1.358 . S
C2035 H2092 0.930 . S
N2036 C2035 1.279 . S
N2036 C2039 1.314 . S
C2037 C2034 1.348 . S
C2037 C2039 1.353 . S
C2037 H2093 0.929 . S
C2038 C2034 1.356 . S
C2038 C2035 1.358 . S
C2038 H2094 0.930 . S
C2039 N2036 1.314 . S
C2039 C2037 1.353 . S
C2039 H2095 0.930 . S
C2040 N2041 1.314 . S
C2040 C2045 1.353 . S
C2040 H2046 0.930 . S
N2041 Li2024 1.990 . S
N2041 C2040 1.314 . S
N2041 C2043 1.279 . S
C2042 C2043 1.358 . S
C2042 C2044 1.356 . S
C2042 H2096 0.930 . S
C2043 N2041 1.279 . S
C2043 C2042 1.358 . S
C2043 H2047 0.930 . S
C2044 C2042 1.356 . S
C2044 C2045 1.348 . S
C2045 C2040 1.353 . S
C2045 C2044 1.348 . S
C2045 H2097 0.929 . S
H2046 C2040 0.930 . S
H2047 C2043 0.930 . S
C2048 N2049 1.314 . S
C2048 C2050 1.353 . S
C2048 H2054 0.930 . S
N2049 Li2025 1.990 . S
N2049 C2048 1.314 . S
N2049 C2052 1.279 . S
C2050 C2048 1.353 . S
C2050 C2053 1.348 . S
C2050 H2098 0.929 . S
C2051 C2052 1.358 . S
C2051 C2053 1.356 . S
C2051 H2099 0.930 . S
C2052 N2049 1.279 . S
C2052 C2051 1.358 . S
C2052 H2055 0.930 . S
C2053 C2050 1.348 . S
C2053 C2051 1.356 . S
H2054 C2048 0.930 . S
H2055 C2052 0.930 . S
C2056 C2058 1.348 . S
C2056 C2059 1.356 . S
C2056 O2086 1.325 . S
N2057 C2060 1.314 . S
N2057 C2061 1.279 . S
C2058 C2056 1.348 . S
C2058 C2060 1.353 . S
C2058 H2100 0.929 . S
C2059 C2056 1.356 . S
C2059 C2061 1.358 . S
C2059 H2101 0.930 . S
C2060 N2057 1.314 . S
C2060 C2058 1.353 . S
C2060 H2102 0.930 . S
C2061 N2057 1.279 . S
C2061 C2059 1.358 . S
C2061 H2103 0.930 . S
C2062 C2063 1.348 . S
C2062 C2064 1.356 . S
C2062 O2087 1.325 . S
C2063 C2062 1.348 . S
C2063 C2065 1.353 . S
C2063 H2104 0.929 . S
C2064 C2062 1.356 . S
C2064 C2066 1.358 . S
C2064 H2105 0.930 . S
C2065 C2063 1.353 . S
C2065 N2067 1.314 . S
C2065 H2106 0.930 . S
C2066 C2064 1.358 . S
C2066 N2067 1.279 . S
C2066 H2107 0.930 . S
N2067 C2065 1.314 . S
N2067 C2066 1.279 . S
C2068 C2070 1.353 . S
C2068 N2071 1.314 . S
C2068 H2074 0.930 . S
C2069 N2071 1.279 . S
C2069 C2072 1.358 . S
C2069 H2075 0.930 . S
C2070 C2068 1.353 . S
C2070 C2073 1.348 . S
C2070 H2108 0.929 . S
N2071 Li2026 1.990 . S
N2071 C2068 1.314 . S
N2071 C2069 1.279 . S
C2072 C2069 1.358 . S
C2072 C2073 1.356 . S
C2072 H2109 0.930 . S
C2073 C2070 1.348 . S
C2073 C2072 1.356 . S
H2074 C2068 0.930 . S
H2075 C2069 0.930 . S
C2076 N2077 1.314 . S
C2076 C2078 1.353 . S
C2076 H2082 0.930 . S
N2077 Li2027 1.990 . S
N2077 C2076 1.314 . S
N2077 C2080 1.279 . S
C2078 C2076 1.353 . S
C2078 C2081 1.348 . S
C2078 H2110 0.929 . S
C2079 C2080 1.358 . S
C2079 C2081 1.356 . S
C2079 H2111 0.930 . S
C2080 N2077 1.279 . S
C2080 C2079 1.358 . S
C2080 H2083 0.930 . S
C2081 C2078 1.348 . S
C2081 C2079 1.356 . S
H2082 C2076 0.930 . S
H2083 C2080 0.930 . S
O2084 Li2024 1.956 . S
O2084 Li2025 1.970 . S
O2084 Li2026 1.961 . S
O2084 C2028 1.325 . S
O2085 Li2024 1.970 . S
O2085 Li2025 1.956 . S
O2085 Li2027 1.961 . S
O2085 C2034 1.325 . S
O2086 Li2024 1.961 . S
O2086 Li2026 1.956 . S
O2086 Li2027 1.970 . S
O2086 C2056 1.325 . S
O2087 Li2025 1.961 . S
O2087 Li2026 1.970 . S
O2087 Li2027 1.956 . S
O2087 C2062 1.325 . S
H2088 C2030 0.929 . S
H2089 C2031 0.930 . S
H2090 C2032 0.930 . S
H2091 C2033 0.930 . S
H2092 C2035 0.930 . S
H2093 C2037 0.929 . S
H2094 C2038 0.930 . S
H2095 C2039 0.930 . S
H2096 C2042 0.930 . S
H2097 C2045 0.929 . S
H2098 C2050 0.929 . S
H2099 C2051 0.930 . S
H2100 C2058 0.929 . S
H2101 C2059 0.930 . S
H2102 C2060 0.930 . S
H2103 C2061 0.930 . S
H2104 C2063 0.929 . S
H2105 C2064 0.930 . S
H2106 C2065 0.930 . S
H2107 C2066 0.930 . S
H2108 C2070 0.929 . S
H2109 C2072 0.930 . S
H2110 C2078 0.929 . S
H2111 C2079 0.930 . S
C2112 C2113 1.349 . S
C2112 C2114 1.327 . S
C2112 H2137 0.950 . S
C2113 C2112 1.349 . S
C2113 C2129 1.349 . S
C2114 C2112 1.327 . S
C2114 C2133 1.429 . S
C2114 H2138 0.950 . S
C2115 C2132 1.574 1_545 S
C2115 C2134 1.368 . S
C2115 H2139 0.949 . S
H2116 C2120 0.949 . S
C2117 C2118 1.349 . S
C2117 C2119 1.327 . S
C2117 H2140 0.950 . S
C2118 C2117 1.349 . S
C2118 C2130 1.349 . S
C2119 C2117 1.327 . S
C2119 C2135 1.429 . S
C2119 H2141 0.950 . S
C2120 H2116 0.949 . S
C2120 C2128 1.574 1_565 S
C2120 C2136 1.368 . S
H2121 C2129 0.950 . S
H2122 C2127 0.950 . S
H2123 C2128 0.949 . S
H2124 C2130 0.950 . S
H2125 C2131 0.950 . S
H2126 C2132 0.949 . S
C2127 H2122 0.950 . S
C2127 C2129 1.327 . S
C2127 C2133 1.429 . S
C2128 C2120 1.574 1_545 S
C2128 H2123 0.949 . S
C2128 C2134 1.368 . S
C2129 C2113 1.349 . S
C2129 H2121 0.950 . S
C2129 C2127 1.327 . S
C2130 C2118 1.349 . S
C2130 H2124 0.950 . S
C2130 C2131 1.327 . S
C2131 H2125 0.950 . S
C2131 C2130 1.327 . S
C2131 C2135 1.429 . S
C2132 C2115 1.574 1_565 S
C2132 H2126 0.949 . S
C2132 C2136 1.368 . S
C2133 C2114 1.429 . S
C2133 C2127 1.429 . S
C2133 C2134 1.523 . S
C2134 C2115 1.368 . S
C2134 C2128 1.368 . S
C2134 C2133 1.523 . S
C2135 C2119 1.429 . S
C2135 C2131 1.429 . S
C2135 C2136 1.523 . S
C2136 C2120 1.368 . S
C2136 C2132 1.368 . S
C2136 C2135 1.523 . S
H2137 C2112 0.950 . S
H2138 C2114 0.950 . S
H2139 C2115 0.949 . S
H2140 C2117 0.950 . S
H2141 C2119 0.950 . S
C2142 C2143 1.349 . S
C2142 C2144 1.327 . S
C2142 H2167 0.950 . S
C2143 C2142 1.349 . S
C2143 C2159 1.349 . S
C2144 C2142 1.327 . S
C2144 C2163 1.429 . S
C2144 H2168 0.950 . S
C2145 C2162 1.574 . S
C2145 C2164 1.368 . S
C2145 H2169 0.949 . S
H2146 C2150 0.949 . S
C2147 C2148 1.349 . S
C2147 C2149 1.327 . S
C2147 H2170 0.950 . S
C2148 C2147 1.349 . S
C2148 C2160 1.349 . S
C2149 C2147 1.327 . S
C2149 C2165 1.429 . S
C2149 H2171 0.950 . S
C2150 H2146 0.949 . S
C2150 C2158 1.574 . S
C2150 C2166 1.368 . S
H2151 C2159 0.950 . S
H2152 C2157 0.950 . S
H2153 C2158 0.949 . S
H2154 C2160 0.950 . S
H2155 C2161 0.950 . S
H2156 C2162 0.949 . S
C2157 H2152 0.950 . S
C2157 C2159 1.327 . S
C2157 C2163 1.429 . S
C2158 C2150 1.574 . S
C2158 H2153 0.949 . S
C2158 C2164 1.368 . S
C2159 C2143 1.349 . S
C2159 H2151 0.950 . S
C2159 C2157 1.327 . S
C2160 C2148 1.349 . S
C2160 H2154 0.950 . S
C2160 C2161 1.327 . S
C2161 H2155 0.950 . S
C2161 C2160 1.327 . S
C2161 C2165 1.429 . S
C2162 C2145 1.574 . S
C2162 H2156 0.949 . S
C2162 C2166 1.368 . S
C2163 C2144 1.429 . S
C2163 C2157 1.429 . S
C2163 C2164 1.523 . S
C2164 C2145 1.368 . S
C2164 C2158 1.368 . S
C2164 C2163 1.523 . S
C2165 C2149 1.429 . S
C2165 C2161 1.429 . S
C2165 C2166 1.523 . S
C2166 C2150 1.368 . S
C2166 C2162 1.368 . S
C2166 C2165 1.523 . S
H2167 C2142 0.950 . S
H2168 C2144 0.950 . S
H2169 C2145 0.949 . S
H2170 C2147 0.950 . S
H2171 C2149 0.950 . S
C2172 C2173 1.349 . S
C2172 C2174 1.327 . S
C2172 H2197 0.950 . S
C2173 C2172 1.349 . S
C2173 C2189 1.349 . S
C2174 C2172 1.327 . S
C2174 C2193 1.429 . S
C2174 H2198 0.950 . S
C2175 C2192 1.574 1_655 S
C2175 C2194 1.368 . S
C2175 H2199 0.949 . S
H2176 C2180 0.949 . S
C2177 C2178 1.349 . S
C2177 C2179 1.327 . S
C2177 H2200 0.950 . S
C2178 C2177 1.349 . S
C2178 C2190 1.349 . S
C2179 C2177 1.327 . S
C2179 C2195 1.429 . S
C2179 H2201 0.950 . S
C2180 H2176 0.949 . S
C2180 C2188 1.574 1_455 S
C2180 C2196 1.368 . S
H2181 C2189 0.950 . S
H2182 C2187 0.950 . S
H2183 C2188 0.949 . S
H2184 C2190 0.950 . S
H2185 C2191 0.950 . S
H2186 C2192 0.949 . S
C2187 H2182 0.950 . S
C2187 C2189 1.327 . S
C2187 C2193 1.429 . S
C2188 C2180 1.574 1_655 S
C2188 H2183 0.949 . S
C2188 C2194 1.368 . S
C2189 C2173 1.349 . S
C2189 H2181 0.950 . S
C2189 C2187 1.327 . S
C2190 C2178 1.349 . S
C2190 H2184 0.950 . S
C2190 C2191 1.327 . S
C2191 H2185 0.950 . S
C2191 C2190 1.327 . S
C2191 C2195 1.429 . S
C2192 C2175 1.574 1_455 S
C2192 H2186 0.949 . S
C2192 C2196 1.368 . S
C2193 C2174 1.429 . S
C2193 C2187 1.429 . S
C2193 C2194 1.523 . S
C2194 C2175 1.368 . S
C2194 C2188 1.368 . S
C2194 C2193 1.523 . S
C2195 C2179 1.429 . S
C2195 C2191 1.429 . S
C2195 C2196 1.523 . S
C2196 C2180 1.368 . S
C2196 C2192 1.368 . S
C2196 C2195 1.523 . S
H2197 C2172 0.950 . S
H2198 C2174 0.950 . S
H2199 C2175 0.949 . S
H2200 C2177 0.950 . S
H2201 C2179 0.950 . S
C2202 C2203 1.349 . S
C2202 C2204 1.327 . S
C2202 H2227 0.950 . S
C2203 C2202 1.349 . S
C2203 C2219 1.349 . S
C2204 C2202 1.327 . S
C2204 C2223 1.429 . S
C2204 H2228 0.950 . S
C2205 C2222 1.574 1_565 S
C2205 C2224 1.368 . S
C2205 H2229 0.949 . S
H2206 C2210 0.949 . S
C2207 C2208 1.349 . S
C2207 C2209 1.327 . S
C2207 H2230 0.950 . S
C2208 C2207 1.349 . S
C2208 C2220 1.349 . S
C2209 C2207 1.327 . S
C2209 C2225 1.429 . S
C2209 H2231 0.950 . S
C2210 H2206 0.949 . S
C2210 C2218 1.574 1_545 S
C2210 C2226 1.368 . S
H2211 C2219 0.950 . S
H2212 C2217 0.950 . S
H2213 C2218 0.949 . S
H2214 C2220 0.950 . S
H2215 C2221 0.950 . S
H2216 C2222 0.949 . S
C2217 H2212 0.950 . S
C2217 C2219 1.327 . S
C2217 C2223 1.429 . S
C2218 C2210 1.574 1_565 S
C2218 H2213 0.949 . S
C2218 C2224 1.368 . S
C2219 C2203 1.349 . S
C2219 H2211 0.950 . S
C2219 C2217 1.327 . S
C2220 C2208 1.349 . S
C2220 H2214 0.950 . S
C2220 C2221 1.327 . S
C2221 H2215 0.950 . S
C2221 C2220 1.327 . S
C2221 C2225 1.429 . S
C2222 C2205 1.574 1_545 S
C2222 H2216 0.949 . S
C2222 C2226 1.368 . S
C2223 C2204 1.429 . S
C2223 C2217 1.429 . S
C2223 C2224 1.523 . S
C2224 C2205 1.368 . S
C2224 C2218 1.368 . S
C2224 C2223 1.523 . S
C2225 C2209 1.429 . S
C2225 C2221 1.429 . S
C2225 C2226 1.523 . S
C2226 C2210 1.368 . S
C2226 C2222 1.368 . S
C2226 C2225 1.523 . S
H2227 C2202 0.950 . S
H2228 C2204 0.950 . S
H2229 C2205 0.949 . S
H2230 C2207 0.950 . S
H2231 C2209 0.950 . S
C2232 C2233 1.349 . S
C2232 C2234 1.327 . S
C2232 H2257 0.950 . S
C2233 C2232 1.349 . S
C2233 C2249 1.349 . S
C2234 C2232 1.327 . S
C2234 C2253 1.429 . S
C2234 H2258 0.950 . S
C2235 C2252 1.574 . S
C2235 C2254 1.368 . S
C2235 H2259 0.949 . S
H2236 C2240 0.949 . S
C2237 C2238 1.349 . S
C2237 C2239 1.327 . S
C2237 H2260 0.950 . S
C2238 C2237 1.349 . S
C2238 C2250 1.349 . S
C2239 C2237 1.327 . S
C2239 C2255 1.429 . S
C2239 H2261 0.950 . S
C2240 H2236 0.949 . S
C2240 C2248 1.574 . S
C2240 C2256 1.368 . S
H2241 C2249 0.950 . S
H2242 C2247 0.950 . S
H2243 C2248 0.949 . S
H2244 C2250 0.950 . S
H2245 C2251 0.950 . S
H2246 C2252 0.949 . S
C2247 H2242 0.950 . S
C2247 C2249 1.327 . S
C2247 C2253 1.429 . S
C2248 C2240 1.574 . S
C2248 H2243 0.949 . S
C2248 C2254 1.368 . S
C2249 C2233 1.349 . S
C2249 H2241 0.950 . S
C2249 C2247 1.327 . S
C2250 C2238 1.349 . S
C2250 H2244 0.950 . S
C2250 C2251 1.327 . S
C2251 H2245 0.950 . S
C2251 C2250 1.327 . S
C2251 C2255 1.429 . S
C2252 C2235 1.574 . S
C2252 H2246 0.949 . S
C2252 C2256 1.368 . S
C2253 C2234 1.429 . S
C2253 C2247 1.429 . S
C2253 C2254 1.523 . S
C2254 C2235 1.368 . S
C2254 C2248 1.368 . S
C2254 C2253 1.523 . S
C2255 C2239 1.429 . S
C2255 C2251 1.429 . S
C2255 C2256 1.523 . S
C2256 C2240 1.368 . S
C2256 C2252 1.368 . S
C2256 C2255 1.523 . S
H2257 C2232 0.950 . S
H2258 C2234 0.950 . S
H2259 C2235 0.949 . S
H2260 C2237 0.950 . S
H2261 C2239 0.950 . S
C2262 C2263 1.349 . S
C2262 C2264 1.327 . S
C2262 H2287 0.950 . S
C2263 C2262 1.349 . S
C2263 C2279 1.349 . S
C2264 C2262 1.327 . S
C2264 C2283 1.429 . S
C2264 H2288 0.950 . S
C2265 C2282 1.574 1_455 S
C2265 C2284 1.368 . S
C2265 H2289 0.949 . S
H2266 C2270 0.949 . S
C2267 C2268 1.349 . S
C2267 C2269 1.327 . S
C2267 H2290 0.950 . S
C2268 C2267 1.349 . S
C2268 C2280 1.349 . S
C2269 C2267 1.327 . S
C2269 C2285 1.429 . S
C2269 H2291 0.950 . S
C2270 H2266 0.949 . S
C2270 C2278 1.574 1_655 S
C2270 C2286 1.368 . S
H2271 C2279 0.950 . S
H2272 C2277 0.950 . S
H2273 C2278 0.949 . S
H2274 C2280 0.950 . S
H2275 C2281 0.950 . S
H2276 C2282 0.949 . S
C2277 H2272 0.950 . S
C2277 C2279 1.327 . S
C2277 C2283 1.429 . S
C2278 C2270 1.574 1_455 S
C2278 H2273 0.949 . S
C2278 C2284 1.368 . S
C2279 C2263 1.349 . S
C2279 H2271 0.950 . S
C2279 C2277 1.327 . S
C2280 C2268 1.349 . S
C2280 H2274 0.950 . S
C2280 C2281 1.327 . S
C2281 H2275 0.950 . S
C2281 C2280 1.327 . S
C2281 C2285 1.429 . S
C2282 C2265 1.574 1_655 S
C2282 H2276 0.949 . S
C2282 C2286 1.368 . S
C2283 C2264 1.429 . S
C2283 C2277 1.429 . S
C2283 C2284 1.523 . S
C2284 C2265 1.368 . S
C2284 C2278 1.368 . S
C2284 C2283 1.523 . S
C2285 C2269 1.429 . S
C2285 C2281 1.429 . S
C2285 C2286 1.523 . S
C2286 C2270 1.368 . S
C2286 C2282 1.368 . S
C2286 C2285 1.523 . S
H2287 C2262 0.950 . S
H2288 C2264 0.950 . S
H2289 C2265 0.949 . S
H2290 C2267 0.950 . S
H2291 C2269 0.950 . S
C2292 C2293 1.349 . S
C2292 C2294 1.327 . S
C2292 H2317 0.950 . S
C2293 C2292 1.349 . S
C2293 C2309 1.349 . S
C2294 C2292 1.327 . S
C2294 C2313 1.429 . S
C2294 H2318 0.950 . S
C2295 C2312 1.574 1_565 S
C2295 C2314 1.368 . S
C2295 H2319 0.949 . S
H2296 C2300 0.949 . S
C2297 C2298 1.349 . S
C2297 C2299 1.327 . S
C2297 H2320 0.950 . S
C2298 C2297 1.349 . S
C2298 C2310 1.349 . S
C2299 C2297 1.327 . S
C2299 C2315 1.429 . S
C2299 H2321 0.950 . S
C2300 H2296 0.949 . S
C2300 C2308 1.574 1_545 S
C2300 C2316 1.368 . S
H2301 C2309 0.950 . S
H2302 C2307 0.950 . S
H2303 C2308 0.949 . S
H2304 C2310 0.950 . S
H2305 C2311 0.950 . S
H2306 C2312 0.949 . S
C2307 H2302 0.950 . S
C2307 C2309 1.327 . S
C2307 C2313 1.429 . S
C2308 C2300 1.574 1_565 S
C2308 H2303 0.949 . S
C2308 C2314 1.368 . S
C2309 C2293 1.349 . S
C2309 H2301 0.950 . S
C2309 C2307 1.327 . S
C2310 C2298 1.349 . S
C2310 H2304 0.950 . S
C2310 C2311 1.327 . S
C2311 H2305 0.950 . S
C2311 C2310 1.327 . S
C2311 C2315 1.429 . S
C2312 C2295 1.574 1_545 S
C2312 H2306 0.949 . S
C2312 C2316 1.368 . S
C2313 C2294 1.429 . S
C2313 C2307 1.429 . S
C2313 C2314 1.523 . S
C2314 C2295 1.368 . S
C2314 C2308 1.368 . S
C2314 C2313 1.523 . S
C2315 C2299 1.429 . S
C2315 C2311 1.429 . S
C2315 C2316 1.523 . S
C2316 C2300 1.368 . S
C2316 C2312 1.368 . S
C2316 C2315 1.523 . S
H2317 C2292 0.950 . S
H2318 C2294 0.950 . S
H2319 C2295 0.949 . S
H2320 C2297 0.950 . S
H2321 C2299 0.950 . S
C2322 C2323 1.349 . S
C2322 C2324 1.327 . S
C2322 H2347 0.950 . S
C2323 C2322 1.349 . S
C2323 C2339 1.349 . S
C2324 C2322 1.327 . S
C2324 C2343 1.429 . S
C2324 H2348 0.950 . S
C2325 C2342 1.574 . S
C2325 C2344 1.368 . S
C2325 H2349 0.949 . S
H2326 C2330 0.949 . S
C2327 C2328 1.349 . S
C2327 C2329 1.327 . S
C2327 H2350 0.950 . S
C2328 C2327 1.349 . S
C2328 C2340 1.349 . S
C2329 C2327 1.327 . S
C2329 C2345 1.429 . S
C2329 H2351 0.950 . S
C2330 H2326 0.949 . S
C2330 C2338 1.574 . S
C2330 C2346 1.368 . S
H2331 C2339 0.950 . S
H2332 C2337 0.950 . S
H2333 C2338 0.949 . S
H2334 C2340 0.950 . S
H2335 C2341 0.950 . S
H2336 C2342 0.949 . S
C2337 H2332 0.950 . S
C2337 C2339 1.327 . S
C2337 C2343 1.429 . S
C2338 C2330 1.574 . S
C2338 H2333 0.949 . S
C2338 C2344 1.368 . S
C2339 C2323 1.349 . S
C2339 H2331 0.950 . S
C2339 C2337 1.327 . S
C2340 C2328 1.349 . S
C2340 H2334 0.950 . S
C2340 C2341 1.327 . S
C2341 H2335 0.950 . S
C2341 C2340 1.327 . S
C2341 C2345 1.429 . S
C2342 C2325 1.574 . S
C2342 H2336 0.949 . S
C2342 C2346 1.368 . S
C2343 C2324 1.429 . S
C2343 C2337 1.429 . S
C2343 C2344 1.523 . S
C2344 C2325 1.368 . S
C2344 C2338 1.368 . S
C2344 C2343 1.523 . S
C2345 C2329 1.429 . S
C2345 C2341 1.429 . S
C2345 C2346 1.523 . S
C2346 C2330 1.368 . S
C2346 C2342 1.368 . S
C2346 C2345 1.523 . S
H2347 C2322 0.950 . S
H2348 C2324 0.950 . S
H2349 C2325 0.949 . S
H2350 C2327 0.950 . S
H2351 C2329 0.950 . S
C2352 C2353 1.349 . S
C2352 C2354 1.327 . S
C2352 H2377 0.950 . S
C2353 C2352 1.349 . S
C2353 C2369 1.349 . S
C2354 C2352 1.327 . S
C2354 C2373 1.429 . S
C2354 H2378 0.950 . S
C2355 C2372 1.574 1_655 S
C2355 C2374 1.368 . S
C2355 H2379 0.949 . S
H2356 C2360 0.949 . S
C2357 C2358 1.349 . S
C2357 C2359 1.327 . S
C2357 H2380 0.950 . S
C2358 C2357 1.349 . S
C2358 C2370 1.349 . S
C2359 C2357 1.327 . S
C2359 C2375 1.429 . S
C2359 H2381 0.950 . S
C2360 H2356 0.949 . S
C2360 C2368 1.574 1_455 S
C2360 C2376 1.368 . S
H2361 C2369 0.950 . S
H2362 C2367 0.950 . S
H2363 C2368 0.949 . S
H2364 C2370 0.950 . S
H2365 C2371 0.950 . S
H2366 C2372 0.949 . S
C2367 H2362 0.950 . S
C2367 C2369 1.327 . S
C2367 C2373 1.429 . S
C2368 C2360 1.574 1_655 S
C2368 H2363 0.949 . S
C2368 C2374 1.368 . S
C2369 C2353 1.349 . S
C2369 H2361 0.950 . S
C2369 C2367 1.327 . S
C2370 C2358 1.349 . S
C2370 H2364 0.950 . S
C2370 C2371 1.327 . S
C2371 H2365 0.950 . S
C2371 C2370 1.327 . S
C2371 C2375 1.429 . S
C2372 C2355 1.574 1_455 S
C2372 H2366 0.949 . S
C2372 C2376 1.368 . S
C2373 C2354 1.429 . S
C2373 C2367 1.429 . S
C2373 C2374 1.523 . S
C2374 C2355 1.368 . S
C2374 C2368 1.368 . S
C2374 C2373 1.523 . S
C2375 C2359 1.429 . S
C2375 C2371 1.429 . S
C2375 C2376 1.523 . S
C2376 C2360 1.368 . S
C2376 C2372 1.368 . S
C2376 C2375 1.523 . S
H2377 C2352 0.950 . S
H2378 C2354 0.950 . S
H2379 C2355 0.949 . S
H2380 C2357 0.950 . S
H2381 C2359 0.950 . S
C2382 C2383 1.349 . S
C2382 C2384 1.327 . S
C2382 H2407 0.950 . S
C2383 C2382 1.349 . S
C2383 C2399 1.349 . S
C2384 C2382 1.327 . S
C2384 C2403 1.429 . S
C2384 H2408 0.950 . S
C2385 C2402 1.574 1_545 S
C2385 C2404 1.368 . S
C2385 H2409 0.949 . S
H2386 C2390 0.949 . S
C2387 C2388 1.349 . S
C2387 C2389 1.327 . S
C2387 H2410 0.950 . S
C2388 C2387 1.349 . S
C2388 C2400 1.349 . S
C2389 C2387 1.327 . S
C2389 C2405 1.429 . S
C2389 H2411 0.950 . S
C2390 H2386 0.949 . S
C2390 C2398 1.574 1_565 S
C2390 C2406 1.368 . S
H2391 C2399 0.950 . S
H2392 C2397 0.950 . S
H2393 C2398 0.949 . S
H2394 C2400 0.950 . S
H2395 C2401 0.950 . S
H2396 C2402 0.949 . S
C2397 H2392 0.950 . S
C2397 C2399 1.327 . S
C2397 C2403 1.429 . S
C2398 C2390 1.574 1_545 S
C2398 H2393 0.949 . S
C2398 C2404 1.368 . S
C2399 C2383 1.349 . S
C2399 H2391 0.950 . S
C2399 C2397 1.327 . S
C2400 C2388 1.349 . S
C2400 H2394 0.950 . S
C2400 C2401 1.327 . S
C2401 H2395 0.950 . S
C2401 C2400 1.327 . S
C2401 C2405 1.429 . S
C2402 C2385 1.574 1_565 S
C2402 H2396 0.949 . S
C2402 C2406 1.368 . S
C2403 C2384 1.429 . S
C2403 C2397 1.429 . S
C2403 C2404 1.523 . S
C2404 C2385 1.368 . S
C2404 C2398 1.368 . S
C2404 C2403 1.523 . S
C2405 C2389 1.429 . S
C2405 C2401 1.429 . S
C2405 C2406 1.523 . S
C2406 C2390 1.368 . S
C2406 C2402 1.368 . S
C2406 C2405 1.523 . S
H2407 C2382 0.950 . S
H2408 C2384 0.950 . S
H2409 C2385 0.949 . S
H2410 C2387 0.950 . S
H2411 C2389 0.950 . S
C2412 C2413 1.349 . S
C2412 C2414 1.327 . S
C2412 H2437 0.950 . S
C2413 C2412 1.349 . S
C2413 C2429 1.349 . S
C2414 C2412 1.327 . S
C2414 C2433 1.429 . S
C2414 H2438 0.950 . S
C2415 C2432 1.574 . S
C2415 C2434 1.368 . S
C2415 H2439 0.949 . S
H2416 C2420 0.949 . S
C2417 C2418 1.349 . S
C2417 C2419 1.327 . S
C2417 H2440 0.950 . S
C2418 C2417 1.349 . S
C2418 C2430 1.349 . S
C2419 C2417 1.327 . S
C2419 C2435 1.429 . S
C2419 H2441 0.950 . S
C2420 H2416 0.949 . S
C2420 C2428 1.574 . S
C2420 C2436 1.368 . S
H2421 C2429 0.950 . S
H2422 C2427 0.950 . S
H2423 C2428 0.949 . S
H2424 C2430 0.950 . S
H2425 C2431 0.950 . S
H2426 C2432 0.949 . S
C2427 H2422 0.950 . S
C2427 C2429 1.327 . S
C2427 C2433 1.429 . S
C2428 C2420 1.574 . S
C2428 H2423 0.949 . S
C2428 C2434 1.368 . S
C2429 C2413 1.349 . S
C2429 H2421 0.950 . S
C2429 C2427 1.327 . S
C2430 C2418 1.349 . S
C2430 H2424 0.950 . S
C2430 C2431 1.327 . S
C2431 H2425 0.950 . S
C2431 C2430 1.327 . S
C2431 C2435 1.429 . S
C2432 C2415 1.574 . S
C2432 H2426 0.949 . S
C2432 C2436 1.368 . S
C2433 C2414 1.429 . S
C2433 C2427 1.429 . S
C2433 C2434 1.523 . S
C2434 C2415 1.368 . S
C2434 C2428 1.368 . S
C2434 C2433 1.523 . S
C2435 C2419 1.429 . S
C2435 C2431 1.429 . S
C2435 C2436 1.523 . S
C2436 C2420 1.368 . S
C2436 C2432 1.368 . S
C2436 C2435 1.523 . S
H2437 C2412 0.950 . S
H2438 C2414 0.950 . S
H2439 C2415 0.949 . S
H2440 C2417 0.950 . S
H2441 C2419 0.950 . S
C2442 C2443 1.349 . S
C2442 C2444 1.327 . S
C2442 H2467 0.950 . S
C2443 C2442 1.349 . S
C2443 C2459 1.349 . S
C2444 C2442 1.327 . S
C2444 C2463 1.429 . S
C2444 H2468 0.950 . S
C2445 C2462 1.574 1_455 S
C2445 C2464 1.368 . S
C2445 H2469 0.949 . S
H2446 C2450 0.949 . S
C2447 C2448 1.349 . S
C2447 C2449 1.327 . S
C2447 H2470 0.950 . S
C2448 C2447 1.349 . S
C2448 C2460 1.349 . S
C2449 C2447 1.327 . S
C2449 C2465 1.429 . S
C2449 H2471 0.950 . S
C2450 H2446 0.949 . S
C2450 C2458 1.574 1_655 S
C2450 C2466 1.368 . S
H2451 C2459 0.950 . S
H2452 C2457 0.950 . S
H2453 C2458 0.949 . S
H2454 C2460 0.950 . S
H2455 C2461 0.950 . S
H2456 C2462 0.949 . S
C2457 H2452 0.950 . S
C2457 C2459 1.327 . S
C2457 C2463 1.429 . S
C2458 C2450 1.574 1_455 S
C2458 H2453 0.949 . S
C2458 C2464 1.368 . S
C2459 C2443 1.349 . S
C2459 H2451 0.950 . S
C2459 C2457 1.327 . S
C2460 C2448 1.349 . S
C2460 H2454 0.950 . S
C2460 C2461 1.327 . S
C2461 H2455 0.950 . S
C2461 C2460 1.327 . S
C2461 C2465 1.429 . S
C2462 C2445 1.574 1_655 S
C2462 H2456 0.949 . S
C2462 C2466 1.368 . S
C2463 C2444 1.429 . S
C2463 C2457 1.429 . S
C2463 C2464 1.523 . S
C2464 C2445 1.368 . S
C2464 C2458 1.368 . S
C2464 C2463 1.523 . S
C2465 C2449 1.429 . S
C2465 C2461 1.429 . S
C2465 C2466 1.523 . S
C2466 C2450 1.368 . S
C2466 C2462 1.368 . S
C2466 C2465 1.523 . S
H2467 C2442 0.950 . S
H2468 C2444 0.950 . S
H2469 C2445 0.949 . S
H2470 C2447 0.950 . S
H2471 C2449 0.950 . S
C2472 C2473 1.349 . S
C2472 C2474 1.327 . S
C2472 H2497 0.950 . S
C2473 C2472 1.349 . S
C2473 C2489 1.349 . S
C2474 C2472 1.327 . S
C2474 C2493 1.429 . S
C2474 H2498 0.950 . S
C2475 C2492 1.574 . S
C2475 C2494 1.368 . S
C2475 H2499 0.949 . S
H2476 C2480 0.949 . S
C2477 C2478 1.349 . S
C2477 C2479 1.327 . S
C2477 H2500 0.950 . S
C2478 C2477 1.349 . S
C2478 C2490 1.349 . S
C2479 C2477 1.327 . S
C2479 C2495 1.429 . S
C2479 H2501 0.950 . S
C2480 H2476 0.949 . S
C2480 C2488 1.574 . S
C2480 C2496 1.368 . S
H2481 C2489 0.950 . S
H2482 C2487 0.950 . S
H2483 C2488 0.949 . S
H2484 C2490 0.950 . S
H2485 C2491 0.950 . S
H2486 C2492 0.949 . S
C2487 H2482 0.950 . S
C2487 C2489 1.327 . S
C2487 C2493 1.429 . S
C2488 C2480 1.574 . S
C2488 H2483 0.949 . S
C2488 C2494 1.368 . S
C2489 C2473 1.349 . S
C2489 H2481 0.950 . S
C2489 C2487 1.327 . S
C2490 C2478 1.349 . S
C2490 H2484 0.950 . S
C2490 C2491 1.327 . S
C2491 H2485 0.950 . S
C2491 C2490 1.327 . S
C2491 C2495 1.429 . S
C2492 C2475 1.574 . S
C2492 H2486 0.949 . S
C2492 C2496 1.368 . S
C2493 C2474 1.429 . S
C2493 C2487 1.429 . S
C2493 C2494 1.523 . S
C2494 C2475 1.368 . S
C2494 C2488 1.368 . S
C2494 C2493 1.523 . S
C2495 C2479 1.429 . S
C2495 C2491 1.429 . S
C2495 C2496 1.523 . S
C2496 C2480 1.368 . S
C2496 C2492 1.368 . S
C2496 C2495 1.523 . S
H2497 C2472 0.950 . S
H2498 C2474 0.950 . S
H2499 C2475 0.949 . S
H2500 C2477 0.950 . S
H2501 C2479 0.950 . S
C2502 C2503 1.349 . S
C2502 C2504 1.327 . S
C2502 H2527 0.950 . S
C2503 C2502 1.349 . S
C2503 C2519 1.349 . S
C2504 C2502 1.327 . S
C2504 C2523 1.429 . S
C2504 H2528 0.950 . S
C2505 C2522 1.574 . S
C2505 C2524 1.368 . S
C2505 H2529 0.949 . S
H2506 C2510 0.949 . S
C2507 C2508 1.349 . S
C2507 C2509 1.327 . S
C2507 H2530 0.950 . S
C2508 C2507 1.349 . S
C2508 C2520 1.349 . S
C2509 C2507 1.327 . S
C2509 C2525 1.429 . S
C2509 H2531 0.950 . S
C2510 H2506 0.949 . S
C2510 C2518 1.574 . S
C2510 C2526 1.368 . S
H2511 C2519 0.950 . S
H2512 C2517 0.950 . S
H2513 C2518 0.949 . S
H2514 C2520 0.950 . S
H2515 C2521 0.950 . S
H2516 C2522 0.949 . S
C2517 H2512 0.950 . S
C2517 C2519 1.327 . S
C2517 C2523 1.429 . S
C2518 C2510 1.574 . S
C2518 H2513 0.949 . S
C2518 C2524 1.368 . S
C2519 C2503 1.349 . S
C2519 H2511 0.950 . S
C2519 C2517 1.327 . S
C2520 C2508 1.349 . S
C2520 H2514 0.950 . S
C2520 C2521 1.327 . S
C2521 H2515 0.950 . S
C2521 C2520 1.327 . S
C2521 C2525 1.429 . S
C2522 C2505 1.574 . S
C2522 H2516 0.949 . S
C2522 C2526 1.368 . S
C2523 C2504 1.429 . S
C2523 C2517 1.429 . S
C2523 C2524 1.523 . S
C2524 C2505 1.368 . S
C2524 C2518 1.368 . S
C2524 C2523 1.523 . S
C2525 C2509 1.429 . S
C2525 C2521 1.429 . S
C2525 C2526 1.523 . S
C2526 C2510 1.368 . S
C2526 C2522 1.368 . S
C2526 C2525 1.523 . S
H2527 C2502 0.950 . S
H2528 C2504 0.950 . S
H2529 C2505 0.949 . S
H2530 C2507 0.950 . S
H2531 C2509 0.950 . S
C2532 C2533 1.349 . S
C2532 C2534 1.327 . S
C2532 H2557 0.950 . S
C2533 C2532 1.349 . S
C2533 C2549 1.349 . S
C2534 C2532 1.327 . S
C2534 C2553 1.429 . S
C2534 H2558 0.950 . S
C2535 C2552 1.574 . S
C2535 C2554 1.368 . S
C2535 H2559 0.949 . S
H2536 C2540 0.949 . S
C2537 C2538 1.349 . S
C2537 C2539 1.327 . S
C2537 H2560 0.950 . S
C2538 C2537 1.349 . S
C2538 C2550 1.349 . S
C2539 C2537 1.327 . S
C2539 C2555 1.429 . S
C2539 H2561 0.950 . S
C2540 H2536 0.949 . S
C2540 C2548 1.574 . S
C2540 C2556 1.368 . S
H2541 C2549 0.950 . S
H2542 C2547 0.950 . S
H2543 C2548 0.949 . S
H2544 C2550 0.950 . S
H2545 C2551 0.950 . S
H2546 C2552 0.949 . S
C2547 H2542 0.950 . S
C2547 C2549 1.327 . S
C2547 C2553 1.429 . S
C2548 C2540 1.574 . S
C2548 H2543 0.949 . S
C2548 C2554 1.368 . S
C2549 C2533 1.349 . S
C2549 H2541 0.950 . S
C2549 C2547 1.327 . S
C2550 C2538 1.349 . S
C2550 H2544 0.950 . S
C2550 C2551 1.327 . S
C2551 H2545 0.950 . S
C2551 C2550 1.327 . S
C2551 C2555 1.429 . S
C2552 C2535 1.574 . S
C2552 H2546 0.949 . S
C2552 C2556 1.368 . S
C2553 C2534 1.429 . S
C2553 C2547 1.429 . S
C2553 C2554 1.523 . S
C2554 C2535 1.368 . S
C2554 C2548 1.368 . S
C2554 C2553 1.523 . S
C2555 C2539 1.429 . S
C2555 C2551 1.429 . S
C2555 C2556 1.523 . S
C2556 C2540 1.368 . S
C2556 C2552 1.368 . S
C2556 C2555 1.523 . S
H2557 C2532 0.950 . S
H2558 C2534 0.950 . S
H2559 C2535 0.949 . S
H2560 C2537 0.950 . S
H2561 C2539 0.950 . S
C2562 C2563 1.349 . S
C2562 C2564 1.327 . S
C2562 H2587 0.950 . S
C2563 C2562 1.349 . S
C2563 C2579 1.349 . S
C2564 C2562 1.327 . S
C2564 C2583 1.429 . S
C2564 H2588 0.950 . S
C2565 C2582 1.574 . S
C2565 C2584 1.368 . S
C2565 H2589 0.949 . S
H2566 C2570 0.949 . S
C2567 C2568 1.349 . S
C2567 C2569 1.327 . S
C2567 H2590 0.950 . S
C2568 C2567 1.349 . S
C2568 C2580 1.349 . S
C2569 C2567 1.327 . S
C2569 C2585 1.429 . S
C2569 H2591 0.950 . S
C2570 H2566 0.949 . S
C2570 C2578 1.574 . S
C2570 C2586 1.368 . S
H2571 C2579 0.950 . S
H2572 C2577 0.950 . S
H2573 C2578 0.949 . S
H2574 C2580 0.950 . S
H2575 C2581 0.950 . S
H2576 C2582 0.949 . S
C2577 H2572 0.950 . S
C2577 C2579 1.327 . S
C2577 C2583 1.429 . S
C2578 C2570 1.574 . S
C2578 H2573 0.949 . S
C2578 C2584 1.368 . S
C2579 C2563 1.349 . S
C2579 H2571 0.950 . S
C2579 C2577 1.327 . S
C2580 C2568 1.349 . S
C2580 H2574 0.950 . S
C2580 C2581 1.327 . S
C2581 H2575 0.950 . S
C2581 C2580 1.327 . S
C2581 C2585 1.429 . S
C2582 C2565 1.574 . S
C2582 H2576 0.949 . S
C2582 C2586 1.368 . S
C2583 C2564 1.429 . S
C2583 C2577 1.429 . S
C2583 C2584 1.523 . S
C2584 C2565 1.368 . S
C2584 C2578 1.368 . S
C2584 C2583 1.523 . S
C2585 C2569 1.429 . S
C2585 C2581 1.429 . S
C2585 C2586 1.523 . S
C2586 C2570 1.368 . S
C2586 C2582 1.368 . S
C2586 C2585 1.523 . S
H2587 C2562 0.950 . S
H2588 C2564 0.950 . S
H2589 C2565 0.949 . S
H2590 C2567 0.950 . S
H2591 C2569 0.950 . S
C2592 C2593 1.349 . S
C2592 C2594 1.327 . S
C2592 H2617 0.950 . S
C2593 C2592 1.349 . S
C2593 C2609 1.349 . S
C2594 C2592 1.327 . S
C2594 C2613 1.429 . S
C2594 H2618 0.950 . S
C2595 C2612 1.574 . S
C2595 C2614 1.368 . S
C2595 H2619 0.949 . S
H2596 C2600 0.949 . S
C2597 C2598 1.349 . S
C2597 C2599 1.327 . S
C2597 H2620 0.950 . S
C2598 C2597 1.349 . S
C2598 C2610 1.349 . S
C2599 C2597 1.327 . S
C2599 C2615 1.429 . S
C2599 H2621 0.950 . S
C2600 H2596 0.949 . S
C2600 C2608 1.574 . S
C2600 C2616 1.368 . S
H2601 C2609 0.950 . S
H2602 C2607 0.950 . S
H2603 C2608 0.949 . S
H2604 C2610 0.950 . S
H2605 C2611 0.950 . S
H2606 C2612 0.949 . S
C2607 H2602 0.950 . S
C2607 C2609 1.327 . S
C2607 C2613 1.429 . S
C2608 C2600 1.574 . S
C2608 H2603 0.949 . S
C2608 C2614 1.368 . S
C2609 C2593 1.349 . S
C2609 H2601 0.950 . S
C2609 C2607 1.327 . S
C2610 C2598 1.349 . S
C2610 H2604 0.950 . S
C2610 C2611 1.327 . S
C2611 H2605 0.950 . S
C2611 C2610 1.327 . S
C2611 C2615 1.429 . S
C2612 C2595 1.574 . S
C2612 H2606 0.949 . S
C2612 C2616 1.368 . S
C2613 C2594 1.429 . S
C2613 C2607 1.429 . S
C2613 C2614 1.523 . S
C2614 C2595 1.368 . S
C2614 C2608 1.368 . S
C2614 C2613 1.523 . S
C2615 C2599 1.429 . S
C2615 C2611 1.429 . S
C2615 C2616 1.523 . S
C2616 C2600 1.368 . S
C2616 C2612 1.368 . S
C2616 C2615 1.523 . S
H2617 C2592 0.950 . S
H2618 C2594 0.950 . S
H2619 C2595 0.949 . S
H2620 C2597 0.950 . S
H2621 C2599 0.950 . S
C2622 C2623 1.349 . S
C2622 C2624 1.327 . S
C2622 H2647 0.950 . S
C2623 C2622 1.349 . S
C2623 C2639 1.349 . S
C2624 C2622 1.327 . S
C2624 C2643 1.429 . S
C2624 H2648 0.950 . S
C2625 C2642 1.574 . S
C2625 C2644 1.368 . S
C2625 H2649 0.949 . S
H2626 C2630 0.949 . S
C2627 C2628 1.349 . S
C2627 C2629 1.327 . S
C2627 H2650 0.950 . S
C2628 C2627 1.349 . S
C2628 C2640 1.349 . S
C2629 C2627 1.327 . S
C2629 C2645 1.429 . S
C2629 H2651 0.950 . S
C2630 H2626 0.949 . S
C2630 C2638 1.574 . S
C2630 C2646 1.368 . S
H2631 C2639 0.950 . S
H2632 C2637 0.950 . S
H2633 C2638 0.949 . S
H2634 C2640 0.950 . S
H2635 C2641 0.950 . S
H2636 C2642 0.949 . S
C2637 H2632 0.950 . S
C2637 C2639 1.327 . S
C2637 C2643 1.429 . S
C2638 C2630 1.574 . S
C2638 H2633 0.949 . S
C2638 C2644 1.368 . S
C2639 C2623 1.349 . S
C2639 H2631 0.950 . S
C2639 C2637 1.327 . S
C2640 C2628 1.349 . S
C2640 H2634 0.950 . S
C2640 C2641 1.327 . S
C2641 H2635 0.950 . S
C2641 C2640 1.327 . S
C2641 C2645 1.429 . S
C2642 C2625 1.574 . S
C2642 H2636 0.949 . S
C2642 C2646 1.368 . S
C2643 C2624 1.429 . S
C2643 C2637 1.429 . S
C2643 C2644 1.523 . S
C2644 C2625 1.368 . S
C2644 C2638 1.368 . S
C2644 C2643 1.523 . S
C2645 C2629 1.429 . S
C2645 C2641 1.429 . S
C2645 C2646 1.523 . S
C2646 C2630 1.368 . S
C2646 C2642 1.368 . S
C2646 C2645 1.523 . S
H2647 C2622 0.950 . S
H2648 C2624 0.950 . S
H2649 C2625 0.949 . S
H2650 C2627 0.950 . S
H2651 C2629 0.950 . S
C2652 C2653 1.349 . S
C2652 C2654 1.327 . S
C2652 H2677 0.950 . S
C2653 C2652 1.349 . S
C2653 C2669 1.349 . S
C2654 C2652 1.327 . S
C2654 C2673 1.429 . S
C2654 H2678 0.950 . S
C2655 C2672 1.574 . S
C2655 C2674 1.368 . S
C2655 H2679 0.949 . S
H2656 C2660 0.949 . S
C2657 C2658 1.349 . S
C2657 C2659 1.327 . S
C2657 H2680 0.950 . S
C2658 C2657 1.349 . S
C2658 C2670 1.349 . S
C2659 C2657 1.327 . S
C2659 C2675 1.429 . S
C2659 H2681 0.950 . S
C2660 H2656 0.949 . S
C2660 C2668 1.574 . S
C2660 C2676 1.368 . S
H2661 C2669 0.950 . S
H2662 C2667 0.950 . S
H2663 C2668 0.949 . S
H2664 C2670 0.950 . S
H2665 C2671 0.950 . S
H2666 C2672 0.949 . S
C2667 H2662 0.950 . S
C2667 C2669 1.327 . S
C2667 C2673 1.429 . S
C2668 C2660 1.574 . S
C2668 H2663 0.949 . S
C2668 C2674 1.368 . S
C2669 C2653 1.349 . S
C2669 H2661 0.950 . S
C2669 C2667 1.327 . S
C2670 C2658 1.349 . S
C2670 H2664 0.950 . S
C2670 C2671 1.327 . S
C2671 H2665 0.950 . S
C2671 C2670 1.327 . S
C2671 C2675 1.429 . S
C2672 C2655 1.574 . S
C2672 H2666 0.949 . S
C2672 C2676 1.368 . S
C2673 C2654 1.429 . S
C2673 C2667 1.429 . S
C2673 C2674 1.523 . S
C2674 C2655 1.368 . S
C2674 C2668 1.368 . S
C2674 C2673 1.523 . S
C2675 C2659 1.429 . S
C2675 C2671 1.429 . S
C2675 C2676 1.523 . S
C2676 C2660 1.368 . S
C2676 C2672 1.368 . S
C2676 C2675 1.523 . S
H2677 C2652 0.950 . S
H2678 C2654 0.950 . S
H2679 C2655 0.949 . S
H2680 C2657 0.950 . S
H2681 C2659 0.950 . S
C2682 C2683 1.349 . S
C2682 C2684 1.327 . S
C2682 H2707 0.950 . S
C2683 C2682 1.349 . S
C2683 C2699 1.349 . S
C2684 C2682 1.327 . S
C2684 C2703 1.429 . S
C2684 H2708 0.950 . S
C2685 C2702 1.574 . S
C2685 C2704 1.368 . S
C2685 H2709 0.949 . S
H2686 C2690 0.949 . S
C2687 C2688 1.349 . S
C2687 C2689 1.327 . S
C2687 H2710 0.950 . S
C2688 C2687 1.349 . S
C2688 C2700 1.349 . S
C2689 C2687 1.327 . S
C2689 C2705 1.429 . S
C2689 H2711 0.950 . S
C2690 H2686 0.949 . S
C2690 C2698 1.574 . S
C2690 C2706 1.368 . S
H2691 C2699 0.950 . S
H2692 C2697 0.950 . S
H2693 C2698 0.949 . S
H2694 C2700 0.950 . S
H2695 C2701 0.950 . S
H2696 C2702 0.949 . S
C2697 H2692 0.950 . S
C2697 C2699 1.327 . S
C2697 C2703 1.429 . S
C2698 C2690 1.574 . S
C2698 H2693 0.949 . S
C2698 C2704 1.368 . S
C2699 C2683 1.349 . S
C2699 H2691 0.950 . S
C2699 C2697 1.327 . S
C2700 C2688 1.349 . S
C2700 H2694 0.950 . S
C2700 C2701 1.327 . S
C2701 H2695 0.950 . S
C2701 C2700 1.327 . S
C2701 C2705 1.429 . S
C2702 C2685 1.574 . S
C2702 H2696 0.949 . S
C2702 C2706 1.368 . S
C2703 C2684 1.429 . S
C2703 C2697 1.429 . S
C2703 C2704 1.523 . S
C2704 C2685 1.368 . S
C2704 C2698 1.368 . S
C2704 C2703 1.523 . S
C2705 C2689 1.429 . S
C2705 C2701 1.429 . S
C2705 C2706 1.523 . S
C2706 C2690 1.368 . S
C2706 C2702 1.368 . S
C2706 C2705 1.523 . S
H2707 C2682 0.950 . S
H2708 C2684 0.950 . S
H2709 C2685 0.949 . S
H2710 C2687 0.950 . S
H2711 C2689 0.950 . S
C2712 C2713 1.349 . S
C2712 C2714 1.327 . S
C2712 H2737 0.950 . S
C2713 C2712 1.349 . S
C2713 C2729 1.349 . S
C2714 C2712 1.327 . S
C2714 C2733 1.429 . S
C2714 H2738 0.950 . S
C2715 C2732 1.574 . S
C2715 C2734 1.368 . S
C2715 H2739 0.949 . S
H2716 C2720 0.949 . S
C2717 C2718 1.349 . S
C2717 C2719 1.327 . S
C2717 H2740 0.950 . S
C2718 C2717 1.349 . S
C2718 C2730 1.349 . S
C2719 C2717 1.327 . S
C2719 C2735 1.429 . S
C2719 H2741 0.950 . S
C2720 H2716 0.949 . S
C2720 C2728 1.574 . S
C2720 C2736 1.368 . S
H2721 C2729 0.950 . S
H2722 C2727 0.950 . S
H2723 C2728 0.949 . S
H2724 C2730 0.950 . S
H2725 C2731 0.950 . S
H2726 C2732 0.949 . S
C2727 H2722 0.950 . S
C2727 C2729 1.327 . S
C2727 C2733 1.429 . S
C2728 C2720 1.574 . S
C2728 H2723 0.949 . S
C2728 C2734 1.368 . S
C2729 C2713 1.349 . S
C2729 H2721 0.950 . S
C2729 C2727 1.327 . S
C2730 C2718 1.349 . S
C2730 H2724 0.950 . S
C2730 C2731 1.327 . S
C2731 H2725 0.950 . S
C2731 C2730 1.327 . S
C2731 C2735 1.429 . S
C2732 C2715 1.574 . S
C2732 H2726 0.949 . S
C2732 C2736 1.368 . S
C2733 C2714 1.429 . S
C2733 C2727 1.429 . S
C2733 C2734 1.523 . S
C2734 C2715 1.368 . S
C2734 C2728 1.368 . S
C2734 C2733 1.523 . S
C2735 C2719 1.429 . S
C2735 C2731 1.429 . S
C2735 C2736 1.523 . S
C2736 C2720 1.368 . S
C2736 C2732 1.368 . S
C2736 C2735 1.523 . S
H2737 C2712 0.950 . S
H2738 C2714 0.950 . S
H2739 C2715 0.949 . S
H2740 C2717 0.950 . S
H2741 C2719 0.950 . S
C2742 C2743 1.349 . S
C2742 C2744 1.327 . S
C2742 H2767 0.950 . S
C2743 C2742 1.349 . S
C2743 C2759 1.349 . S
C2744 C2742 1.327 . S
C2744 C2763 1.429 . S
C2744 H2768 0.950 . S
C2745 C2762 1.574 . S
C2745 C2764 1.368 . S
C2745 H2769 0.949 . S
H2746 C2750 0.949 . S
C2747 C2748 1.349 . S
C2747 C2749 1.327 . S
C2747 H2770 0.950 . S
C2748 C2747 1.349 . S
C2748 C2760 1.349 . S
C2749 C2747 1.327 . S
C2749 C2765 1.429 . S
C2749 H2771 0.950 . S
C2750 H2746 0.949 . S
C2750 C2758 1.574 . S
C2750 C2766 1.368 . S
H2751 C2759 0.950 . S
H2752 C2757 0.950 . S
H2753 C2758 0.949 . S
H2754 C2760 0.950 . S
H2755 C2761 0.950 . S
H2756 C2762 0.949 . S
C2757 H2752 0.950 . S
C2757 C2759 1.327 . S
C2757 C2763 1.429 . S
C2758 C2750 1.574 . S
C2758 H2753 0.949 . S
C2758 C2764 1.368 . S
C2759 C2743 1.349 . S
C2759 H2751 0.950 . S
C2759 C2757 1.327 . S
C2760 C2748 1.349 . S
C2760 H2754 0.950 . S
C2760 C2761 1.327 . S
C2761 H2755 0.950 . S
C2761 C2760 1.327 . S
C2761 C2765 1.429 . S
C2762 C2745 1.574 . S
C2762 H2756 0.949 . S
C2762 C2766 1.368 . S
C2763 C2744 1.429 . S
C2763 C2757 1.429 . S
C2763 C2764 1.523 . S
C2764 C2745 1.368 . S
C2764 C2758 1.368 . S
C2764 C2763 1.523 . S
C2765 C2749 1.429 . S
C2765 C2761 1.429 . S
C2765 C2766 1.523 . S
C2766 C2750 1.368 . S
C2766 C2762 1.368 . S
C2766 C2765 1.523 . S
H2767 C2742 0.950 . S
H2768 C2744 0.950 . S
H2769 C2745 0.949 . S
H2770 C2747 0.950 . S
H2771 C2749 0.950 . S
C2772 C2773 1.349 . S
C2772 C2774 1.327 . S
C2772 H2797 0.950 . S
C2773 C2772 1.349 . S
C2773 C2789 1.349 . S
C2774 C2772 1.327 . S
C2774 C2793 1.429 . S
C2774 H2798 0.950 . S
C2775 C2792 1.574 . S
C2775 C2794 1.368 . S
C2775 H2799 0.949 . S
H2776 C2780 0.949 . S
C2777 C2778 1.349 . S
C2777 C2779 1.327 . S
C2777 H2800 0.950 . S
C2778 C2777 1.349 . S
C2778 C2790 1.349 . S
C2779 C2777 1.327 . S
C2779 C2795 1.429 . S
C2779 H2801 0.950 . S
C2780 H2776 0.949 . S
C2780 C2788 1.574 . S
C2780 C2796 1.368 . S
H2781 C2789 0.950 . S
H2782 C2787 0.950 . S
H2783 C2788 0.949 . S
H2784 C2790 0.950 . S
H2785 C2791 0.950 . S
H2786 C2792 0.949 . S
C2787 H2782 0.950 . S
C2787 C2789 1.327 . S
C2787 C2793 1.429 . S
C2788 C2780 1.574 . S
C2788 H2783 0.949 . S
C2788 C2794 1.368 . S
C2789 C2773 1.349 . S
C2789 H2781 0.950 . S
C2789 C2787 1.327 . S
C2790 C2778 1.349 . S
C2790 H2784 0.950 . S
C2790 C2791 1.327 . S
C2791 H2785 0.950 . S
C2791 C2790 1.327 . S
C2791 C2795 1.429 . S
C2792 C2775 1.574 . S
C2792 H2786 0.949 . S
C2792 C2796 1.368 . S
C2793 C2774 1.429 . S
C2793 C2787 1.429 . S
C2793 C2794 1.523 . S
C2794 C2775 1.368 . S
C2794 C2788 1.368 . S
C2794 C2793 1.523 . S
C2795 C2779 1.429 . S
C2795 C2791 1.429 . S
C2795 C2796 1.523 . S
C2796 C2780 1.368 . S
C2796 C2792 1.368 . S
C2796 C2795 1.523 . S
H2797 C2772 0.950 . S
H2798 C2774 0.950 . S
H2799 C2775 0.949 . S
H2800 C2777 0.950 . S
H2801 C2779 0.950 . S
C2802 C2803 1.349 . S
C2802 C2804 1.327 . S
C2802 H2827 0.950 . S
C2803 C2802 1.349 . S
C2803 C2819 1.349 . S
C2804 C2802 1.327 . S
C2804 C2823 1.429 . S
C2804 H2828 0.950 . S
C2805 C2822 1.574 . S
C2805 C2824 1.368 . S
C2805 H2829 0.949 . S
H2806 C2810 0.949 . S
C2807 C2808 1.349 . S
C2807 C2809 1.327 . S
C2807 H2830 0.950 . S
C2808 C2807 1.349 . S
C2808 C2820 1.349 . S
C2809 C2807 1.327 . S
C2809 C2825 1.429 . S
C2809 H2831 0.950 . S
C2810 H2806 0.949 . S
C2810 C2818 1.574 . S
C2810 C2826 1.368 . S
H2811 C2819 0.950 . S
H2812 C2817 0.950 . S
H2813 C2818 0.949 . S
H2814 C2820 0.950 . S
H2815 C2821 0.950 . S
H2816 C2822 0.949 . S
C2817 H2812 0.950 . S
C2817 C2819 1.327 . S
C2817 C2823 1.429 . S
C2818 C2810 1.574 . S
C2818 H2813 0.949 . S
C2818 C2824 1.368 . S
C2819 C2803 1.349 . S
C2819 H2811 0.950 . S
C2819 C2817 1.327 . S
C2820 C2808 1.349 . S
C2820 H2814 0.950 . S
C2820 C2821 1.327 . S
C2821 H2815 0.950 . S
C2821 C2820 1.327 . S
C2821 C2825 1.429 . S
C2822 C2805 1.574 . S
C2822 H2816 0.949 . S
C2822 C2826 1.368 . S
C2823 C2804 1.429 . S
C2823 C2817 1.429 . S
C2823 C2824 1.523 . S
C2824 C2805 1.368 . S
C2824 C2818 1.368 . S
C2824 C2823 1.523 . S
C2825 C2809 1.429 . S
C2825 C2821 1.429 . S
C2825 C2826 1.523 . S
C2826 C2810 1.368 . S
C2826 C2822 1.368 . S
C2826 C2825 1.523 . S
H2827 C2802 0.950 . S
H2828 C2804 0.950 . S
H2829 C2805 0.949 . S
H2830 C2807 0.950 . S
H2831 C2809 0.950 . S
C2832 C2833 1.349 . S
C2832 C2834 1.327 . S
C2832 H2857 0.950 . S
C2833 C2832 1.349 . S
C2833 C2849 1.349 . S
C2834 C2832 1.327 . S
C2834 C2853 1.429 . S
C2834 H2858 0.950 . S
C2835 C2852 1.574 1_554 S
C2835 C2854 1.368 . S
C2835 H2859 0.949 . S
H2836 C2840 0.949 . S
C2837 C2838 1.349 . S
C2837 C2839 1.327 . S
C2837 H2860 0.950 . S
C2838 C2837 1.349 . S
C2838 C2850 1.349 . S
C2839 C2837 1.327 . S
C2839 C2855 1.429 . S
C2839 H2861 0.950 . S
C2840 H2836 0.949 . S
C2840 C2848 1.574 1_556 S
C2840 C2856 1.368 . S
H2841 C2849 0.950 . S
H2842 C2847 0.950 . S
H2843 C2848 0.949 . S
H2844 C2850 0.950 . S
H2845 C2851 0.950 . S
H2846 C2852 0.949 . S
C2847 H2842 0.950 . S
C2847 C2849 1.327 . S
C2847 C2853 1.429 . S
C2848 C2840 1.574 1_554 S
C2848 H2843 0.949 . S
C2848 C2854 1.368 . S
C2849 C2833 1.349 . S
C2849 H2841 0.950 . S
C2849 C2847 1.327 . S
C2850 C2838 1.349 . S
C2850 H2844 0.950 . S
C2850 C2851 1.327 . S
C2851 H2845 0.950 . S
C2851 C2850 1.327 . S
C2851 C2855 1.429 . S
C2852 C2835 1.574 1_556 S
C2852 H2846 0.949 . S
C2852 C2856 1.368 . S
C2853 C2834 1.429 . S
C2853 C2847 1.429 . S
C2853 C2854 1.523 . S
C2854 C2835 1.368 . S
C2854 C2848 1.368 . S
C2854 C2853 1.523 . S
C2855 C2839 1.429 . S
C2855 C2851 1.429 . S
C2855 C2856 1.523 . S
C2856 C2840 1.368 . S
C2856 C2852 1.368 . S
C2856 C2855 1.523 . S
H2857 C2832 0.950 . S
H2858 C2834 0.950 . S
H2859 C2835 0.949 . S
H2860 C2837 0.950 . S
H2861 C2839 0.950 . S
C2862 C2863 1.349 . S
C2862 C2864 1.327 . S
C2862 H2887 0.950 . S
C2863 C2862 1.349 . S
C2863 C2879 1.349 . S
C2864 C2862 1.327 . S
C2864 C2883 1.429 . S
C2864 H2888 0.950 . S
C2865 C2882 1.574 1_556 S
C2865 C2884 1.368 . S
C2865 H2889 0.949 . S
H2866 C2870 0.949 . S
C2867 C2868 1.349 . S
C2867 C2869 1.327 . S
C2867 H2890 0.950 . S
C2868 C2867 1.349 . S
C2868 C2880 1.349 . S
C2869 C2867 1.327 . S
C2869 C2885 1.429 . S
C2869 H2891 0.950 . S
C2870 H2866 0.949 . S
C2870 C2878 1.574 1_554 S
C2870 C2886 1.368 . S
H2871 C2879 0.950 . S
H2872 C2877 0.950 . S
H2873 C2878 0.949 . S
H2874 C2880 0.950 . S
H2875 C2881 0.950 . S
H2876 C2882 0.949 . S
C2877 H2872 0.950 . S
C2877 C2879 1.327 . S
C2877 C2883 1.429 . S
C2878 C2870 1.574 1_556 S
C2878 H2873 0.949 . S
C2878 C2884 1.368 . S
C2879 C2863 1.349 . S
C2879 H2871 0.950 . S
C2879 C2877 1.327 . S
C2880 C2868 1.349 . S
C2880 H2874 0.950 . S
C2880 C2881 1.327 . S
C2881 H2875 0.950 . S
C2881 C2880 1.327 . S
C2881 C2885 1.429 . S
C2882 C2865 1.574 1_554 S
C2882 H2876 0.949 . S
C2882 C2886 1.368 . S
C2883 C2864 1.429 . S
C2883 C2877 1.429 . S
C2883 C2884 1.523 . S
C2884 C2865 1.368 . S
C2884 C2878 1.368 . S
C2884 C2883 1.523 . S
C2885 C2869 1.429 . S
C2885 C2881 1.429 . S
C2885 C2886 1.523 . S
C2886 C2870 1.368 . S
C2886 C2882 1.368 . S
C2886 C2885 1.523 . S
H2887 C2862 0.950 . S
H2888 C2864 0.950 . S
H2889 C2865 0.949 . S
H2890 C2867 0.950 . S
H2891 C2869 0.950 . S
C2892 C2893 1.349 . S
C2892 C2894 1.327 . S
C2892 H2917 0.950 . S
C2893 C2892 1.349 . S
C2893 C2909 1.349 . S
C2894 C2892 1.327 . S
C2894 C2913 1.429 . S
C2894 H2918 0.950 . S
C2895 C2912 1.574 1_556 S
C2895 C2914 1.368 . S
C2895 H2919 0.949 . S
H2896 C2900 0.949 . S
C2897 C2898 1.349 . S
C2897 C2899 1.327 . S
C2897 H2920 0.950 . S
C2898 C2897 1.349 . S
C2898 C2910 1.349 . S
C2899 C2897 1.327 . S
C2899 C2915 1.429 . S
C2899 H2921 0.950 . S
C2900 H2896 0.949 . S
C2900 C2908 1.574 1_554 S
C2900 C2916 1.368 . S
H2901 C2909 0.950 . S
H2902 C2907 0.950 . S
H2903 C2908 0.949 . S
H2904 C2910 0.950 . S
H2905 C2911 0.950 . S
H2906 C2912 0.949 . S
C2907 H2902 0.950 . S
C2907 C2909 1.327 . S
C2907 C2913 1.429 . S
C2908 C2900 1.574 1_556 S
C2908 H2903 0.949 . S
C2908 C2914 1.368 . S
C2909 C2893 1.349 . S
C2909 H2901 0.950 . S
C2909 C2907 1.327 . S
C2910 C2898 1.349 . S
C2910 H2904 0.950 . S
C2910 C2911 1.327 . S
C2911 H2905 0.950 . S
C2911 C2910 1.327 . S
C2911 C2915 1.429 . S
C2912 C2895 1.574 1_554 S
C2912 H2906 0.949 . S
C2912 C2916 1.368 . S
C2913 C2894 1.429 . S
C2913 C2907 1.429 . S
C2913 C2914 1.523 . S
C2914 C2895 1.368 . S
C2914 C2908 1.368 . S
C2914 C2913 1.523 . S
C2915 C2899 1.429 . S
C2915 C2911 1.429 . S
C2915 C2916 1.523 . S
C2916 C2900 1.368 . S
C2916 C2912 1.368 . S
C2916 C2915 1.523 . S
H2917 C2892 0.950 . S
H2918 C2894 0.950 . S
H2919 C2895 0.949 . S
H2920 C2897 0.950 . S
H2921 C2899 0.950 . S
C2922 C2923 1.349 . S
C2922 C2924 1.327 . S
C2922 H2947 0.950 . S
C2923 C2922 1.349 . S
C2923 C2939 1.349 . S
C2924 C2922 1.327 . S
C2924 C2943 1.429 . S
C2924 H2948 0.950 . S
C2925 C2942 1.574 1_554 S
C2925 C2944 1.368 . S
C2925 H2949 0.949 . S
H2926 C2930 0.949 . S
C2927 C2928 1.349 . S
C2927 C2929 1.327 . S
C2927 H2950 0.950 . S
C2928 C2927 1.349 . S
C2928 C2940 1.349 . S
C2929 C2927 1.327 . S
C2929 C2945 1.429 . S
C2929 H2951 0.950 . S
C2930 H2926 0.949 . S
C2930 C2938 1.574 1_556 S
C2930 C2946 1.368 . S
H2931 C2939 0.950 . S
H2932 C2937 0.950 . S
H2933 C2938 0.949 . S
H2934 C2940 0.950 . S
H2935 C2941 0.950 . S
H2936 C2942 0.949 . S
C2937 H2932 0.950 . S
C2937 C2939 1.327 . S
C2937 C2943 1.429 . S
C2938 C2930 1.574 1_554 S
C2938 H2933 0.949 . S
C2938 C2944 1.368 . S
C2939 C2923 1.349 . S
C2939 H2931 0.950 . S
C2939 C2937 1.327 . S
C2940 C2928 1.349 . S
C2940 H2934 0.950 . S
C2940 C2941 1.327 . S
C2941 H2935 0.950 . S
C2941 C2940 1.327 . S
C2941 C2945 1.429 . S
C2942 C2925 1.574 1_556 S
C2942 H2936 0.949 . S
C2942 C2946 1.368 . S
C2943 C2924 1.429 . S
C2943 C2937 1.429 . S
C2943 C2944 1.523 . S
C2944 C2925 1.368 . S
C2944 C2938 1.368 . S
C2944 C2943 1.523 . S
C2945 C2929 1.429 . S
C2945 C2941 1.429 . S
C2945 C2946 1.523 . S
C2946 C2930 1.368 . S
C2946 C2942 1.368 . S
C2946 C2945 1.523 . S
H2947 C2922 0.950 . S
H2948 C2924 0.950 . S
H2949 C2925 0.949 . S
H2950 C2927 0.950 . S
H2951 C2929 0.950 . S
C2952 C2953 1.349 . S
C2952 C2954 1.327 . S
C2952 H2977 0.950 . S
C2953 C2952 1.349 . S
C2953 C2969 1.349 . S
C2954 C2952 1.327 . S
C2954 C2973 1.429 . S
C2954 H2978 0.950 . S
C2955 C2972 1.574 1_554 S
C2955 C2974 1.368 . S
C2955 H2979 0.949 . S
H2956 C2960 0.949 . S
C2957 C2958 1.349 . S
C2957 C2959 1.327 . S
C2957 H2980 0.950 . S
C2958 C2957 1.349 . S
C2958 C2970 1.349 . S
C2959 C2957 1.327 . S
C2959 C2975 1.429 . S
C2959 H2981 0.950 . S
C2960 H2956 0.949 . S
C2960 C2968 1.574 1_556 S
C2960 C2976 1.368 . S
H2961 C2969 0.950 . S
H2962 C2967 0.950 . S
H2963 C2968 0.949 . S
H2964 C2970 0.950 . S
H2965 C2971 0.950 . S
H2966 C2972 0.949 . S
C2967 H2962 0.950 . S
C2967 C2969 1.327 . S
C2967 C2973 1.429 . S
C2968 C2960 1.574 1_554 S
C2968 H2963 0.949 . S
C2968 C2974 1.368 . S
C2969 C2953 1.349 . S
C2969 H2961 0.950 . S
C2969 C2967 1.327 . S
C2970 C2958 1.349 . S
C2970 H2964 0.950 . S
C2970 C2971 1.327 . S
C2971 H2965 0.950 . S
C2971 C2970 1.327 . S
C2971 C2975 1.429 . S
C2972 C2955 1.574 1_556 S
C2972 H2966 0.949 . S
C2972 C2976 1.368 . S
C2973 C2954 1.429 . S
C2973 C2967 1.429 . S
C2973 C2974 1.523 . S
C2974 C2955 1.368 . S
C2974 C2968 1.368 . S
C2974 C2973 1.523 . S
C2975 C2959 1.429 . S
C2975 C2971 1.429 . S
C2975 C2976 1.523 . S
C2976 C2960 1.368 . S
C2976 C2972 1.368 . S
C2976 C2975 1.523 . S
H2977 C2952 0.950 . S
H2978 C2954 0.950 . S
H2979 C2955 0.949 . S
H2980 C2957 0.950 . S
H2981 C2959 0.950 . S
C2982 C2983 1.349 . S
C2982 C2984 1.327 . S
C2982 H3007 0.950 . S
C2983 C2982 1.349 . S
C2983 C2999 1.349 . S
C2984 C2982 1.327 . S
C2984 C3003 1.429 . S
C2984 H3008 0.950 . S
C2985 C3002 1.574 1_556 S
C2985 C3004 1.368 . S
C2985 H3009 0.949 . S
H2986 C2990 0.949 . S
C2987 C2988 1.349 . S
C2987 C2989 1.327 . S
C2987 H3010 0.950 . S
C2988 C2987 1.349 . S
C2988 C3000 1.349 . S
C2989 C2987 1.327 . S
C2989 C3005 1.429 . S
C2989 H3011 0.950 . S
C2990 H2986 0.949 . S
C2990 C2998 1.574 1_554 S
C2990 C3006 1.368 . S
H2991 C2999 0.950 . S
H2992 C2997 0.950 . S
H2993 C2998 0.949 . S
H2994 C3000 0.950 . S
H2995 C3001 0.950 . S
H2996 C3002 0.949 . S
C2997 H2992 0.950 . S
C2997 C2999 1.327 . S
C2997 C3003 1.429 . S
C2998 C2990 1.574 1_556 S
C2998 H2993 0.949 . S
C2998 C3004 1.368 . S
C2999 C2983 1.349 . S
C2999 H2991 0.950 . S
C2999 C2997 1.327 . S
C3000 C2988 1.349 . S
C3000 H2994 0.950 . S
C3000 C3001 1.327 . S
C3001 H2995 0.950 . S
C3001 C3000 1.327 . S
C3001 C3005 1.429 . S
C3002 C2985 1.574 1_554 S
C3002 H2996 0.949 . S
C3002 C3006 1.368 . S
C3003 C2984 1.429 . S
C3003 C2997 1.429 . S
C3003 C3004 1.523 . S
C3004 C2985 1.368 . S
C3004 C2998 1.368 . S
C3004 C3003 1.523 . S
C3005 C2989 1.429 . S
C3005 C3001 1.429 . S
C3005 C3006 1.523 . S
C3006 C2990 1.368 . S
C3006 C3002 1.368 . S
C3006 C3005 1.523 . S
H3007 C2982 0.950 . S
H3008 C2984 0.950 . S
H3009 C2985 0.949 . S
H3010 C2987 0.950 . S
H3011 C2989 0.950 . S
C3012 C3013 1.349 . S
C3012 C3014 1.327 . S
C3012 H3037 0.950 . S
C3013 C3012 1.349 . S
C3013 C3029 1.349 . S
C3014 C3012 1.327 . S
C3014 C3033 1.429 . S
C3014 H3038 0.950 . S
C3015 C3032 1.574 . S
C3015 C3034 1.368 . S
C3015 H3039 0.949 . S
H3016 C3020 0.949 . S
C3017 C3018 1.349 . S
C3017 C3019 1.327 . S
C3017 H3040 0.950 . S
C3018 C3017 1.349 . S
C3018 C3030 1.349 . S
C3019 C3017 1.327 . S
C3019 C3035 1.429 . S
C3019 H3041 0.950 . S
C3020 H3016 0.949 . S
C3020 C3028 1.574 . S
C3020 C3036 1.368 . S
H3021 C3029 0.950 . S
H3022 C3027 0.950 . S
H3023 C3028 0.949 . S
H3024 C3030 0.950 . S
H3025 C3031 0.950 . S
H3026 C3032 0.949 . S
C3027 H3022 0.950 . S
C3027 C3029 1.327 . S
C3027 C3033 1.429 . S
C3028 C3020 1.574 . S
C3028 H3023 0.949 . S
C3028 C3034 1.368 . S
C3029 C3013 1.349 . S
C3029 H3021 0.950 . S
C3029 C3027 1.327 . S
C3030 C3018 1.349 . S
C3030 H3024 0.950 . S
C3030 C3031 1.327 . S
C3031 H3025 0.950 . S
C3031 C3030 1.327 . S
C3031 C3035 1.429 . S
C3032 C3015 1.574 . S
C3032 H3026 0.949 . S
C3032 C3036 1.368 . S
C3033 C3014 1.429 . S
C3033 C3027 1.429 . S
C3033 C3034 1.523 . S
C3034 C3015 1.368 . S
C3034 C3028 1.368 . S
C3034 C3033 1.523 . S
C3035 C3019 1.429 . S
C3035 C3031 1.429 . S
C3035 C3036 1.523 . S
C3036 C3020 1.368 . S
C3036 C3032 1.368 . S
C3036 C3035 1.523 . S
H3037 C3012 0.950 . S
H3038 C3014 0.950 . S
H3039 C3015 0.949 . S
H3040 C3017 0.950 . S
H3041 C3019 0.950 . S
C3042 C3043 1.349 . S
C3042 C3044 1.327 . S
C3042 H3067 0.950 . S
C3043 C3042 1.349 . S
C3043 C3059 1.349 . S
C3044 C3042 1.327 . S
C3044 C3063 1.429 . S
C3044 H3068 0.950 . S
C3045 C3062 1.574 . S
C3045 C3064 1.368 . S
C3045 H3069 0.949 . S
H3046 C3050 0.949 . S
C3047 C3048 1.349 . S
C3047 C3049 1.327 . S
C3047 H3070 0.950 . S
C3048 C3047 1.349 . S
C3048 C3060 1.349 . S
C3049 C3047 1.327 . S
C3049 C3065 1.429 . S
C3049 H3071 0.950 . S
C3050 H3046 0.949 . S
C3050 C3058 1.574 . S
C3050 C3066 1.368 . S
H3051 C3059 0.950 . S
H3052 C3057 0.950 . S
H3053 C3058 0.949 . S
H3054 C3060 0.950 . S
H3055 C3061 0.950 . S
H3056 C3062 0.949 . S
C3057 H3052 0.950 . S
C3057 C3059 1.327 . S
C3057 C3063 1.429 . S
C3058 C3050 1.574 . S
C3058 H3053 0.949 . S
C3058 C3064 1.368 . S
C3059 C3043 1.349 . S
C3059 H3051 0.950 . S
C3059 C3057 1.327 . S
C3060 C3048 1.349 . S
C3060 H3054 0.950 . S
C3060 C3061 1.327 . S
C3061 H3055 0.950 . S
C3061 C3060 1.327 . S
C3061 C3065 1.429 . S
C3062 C3045 1.574 . S
C3062 H3056 0.949 . S
C3062 C3066 1.368 . S
C3063 C3044 1.429 . S
C3063 C3057 1.429 . S
C3063 C3064 1.523 . S
C3064 C3045 1.368 . S
C3064 C3058 1.368 . S
C3064 C3063 1.523 . S
C3065 C3049 1.429 . S
C3065 C3061 1.429 . S
C3065 C3066 1.523 . S
C3066 C3050 1.368 . S
C3066 C3062 1.368 . S
C3066 C3065 1.523 . S
H3067 C3042 0.950 . S
H3068 C3044 0.950 . S
H3069 C3045 0.949 . S
H3070 C3047 0.950 . S
H3071 C3049 0.950 . S
C3072 C3073 1.349 . S
C3072 C3074 1.327 . S
C3072 H3097 0.950 . S
C3073 C3072 1.349 . S
C3073 C3089 1.349 . S
C3074 C3072 1.327 . S
C3074 C3093 1.429 . S
C3074 H3098 0.950 . S
C3075 C3092 1.574 . S
C3075 C3094 1.368 . S
C3075 H3099 0.949 . S
H3076 C3080 0.949 . S
C3077 C3078 1.349 . S
C3077 C3079 1.327 . S
C3077 H3100 0.950 . S
C3078 C3077 1.349 . S
C3078 C3090 1.349 . S
C3079 C3077 1.327 . S
C3079 C3095 1.429 . S
C3079 H3101 0.950 . S
C3080 H3076 0.949 . S
C3080 C3088 1.574 . S
C3080 C3096 1.368 . S
H3081 C3089 0.950 . S
H3082 C3087 0.950 . S
H3083 C3088 0.949 . S
H3084 C3090 0.950 . S
H3085 C3091 0.950 . S
H3086 C3092 0.949 . S
C3087 H3082 0.950 . S
C3087 C3089 1.327 . S
C3087 C3093 1.429 . S
C3088 C3080 1.574 . S
C3088 H3083 0.949 . S
C3088 C3094 1.368 . S
C3089 C3073 1.349 . S
C3089 H3081 0.950 . S
C3089 C3087 1.327 . S
C3090 C3078 1.349 . S
C3090 H3084 0.950 . S
C3090 C3091 1.327 . S
C3091 H3085 0.950 . S
C3091 C3090 1.327 . S
C3091 C3095 1.429 . S
C3092 C3075 1.574 . S
C3092 H3086 0.949 . S
C3092 C3096 1.368 . S
C3093 C3074 1.429 . S
C3093 C3087 1.429 . S
C3093 C3094 1.523 . S
C3094 C3075 1.368 . S
C3094 C3088 1.368 . S
C3094 C3093 1.523 . S
C3095 C3079 1.429 . S
C3095 C3091 1.429 . S
C3095 C3096 1.523 . S
C3096 C3080 1.368 . S
C3096 C3092 1.368 . S
C3096 C3095 1.523 . S
H3097 C3072 0.950 . S
H3098 C3074 0.950 . S
H3099 C3075 0.949 . S
H3100 C3077 0.950 . S
H3101 C3079 0.950 . S
C3102 C3103 1.349 . S
C3102 C3104 1.327 . S
C3102 H3127 0.950 . S
C3103 C3102 1.349 . S
C3103 C3119 1.349 . S
C3104 C3102 1.327 . S
C3104 C3123 1.429 . S
C3104 H3128 0.950 . S
C3105 C3122 1.574 . S
C3105 C3124 1.368 . S
C3105 H3129 0.949 . S
H3106 C3110 0.949 . S
C3107 C3108 1.349 . S
C3107 C3109 1.327 . S
C3107 H3130 0.950 . S
C3108 C3107 1.349 . S
C3108 C3120 1.349 . S
C3109 C3107 1.327 . S
C3109 C3125 1.429 . S
C3109 H3131 0.950 . S
C3110 H3106 0.949 . S
C3110 C3118 1.574 . S
C3110 C3126 1.368 . S
H3111 C3119 0.950 . S
H3112 C3117 0.950 . S
H3113 C3118 0.949 . S
H3114 C3120 0.950 . S
H3115 C3121 0.950 . S
H3116 C3122 0.949 . S
C3117 H3112 0.950 . S
C3117 C3119 1.327 . S
C3117 C3123 1.429 . S
C3118 C3110 1.574 . S
C3118 H3113 0.949 . S
C3118 C3124 1.368 . S
C3119 C3103 1.349 . S
C3119 H3111 0.950 . S
C3119 C3117 1.327 . S
C3120 C3108 1.349 . S
C3120 H3114 0.950 . S
C3120 C3121 1.327 . S
C3121 H3115 0.950 . S
C3121 C3120 1.327 . S
C3121 C3125 1.429 . S
C3122 C3105 1.574 . S
C3122 H3116 0.949 . S
C3122 C3126 1.368 . S
C3123 C3104 1.429 . S
C3123 C3117 1.429 . S
C3123 C3124 1.523 . S
C3124 C3105 1.368 . S
C3124 C3118 1.368 . S
C3124 C3123 1.523 . S
C3125 C3109 1.429 . S
C3125 C3121 1.429 . S
C3125 C3126 1.523 . S
C3126 C3110 1.368 . S
C3126 C3122 1.368 . S
C3126 C3125 1.523 . S
H3127 C3102 0.950 . S
H3128 C3104 0.950 . S
H3129 C3105 0.949 . S
H3130 C3107 0.950 . S
H3131 C3109 0.950 . S
C3132 C3133 1.349 . S
C3132 C3134 1.327 . S
C3132 H3157 0.950 . S
C3133 C3132 1.349 . S
C3133 C3149 1.349 . S
C3134 C3132 1.327 . S
C3134 C3153 1.429 . S
C3134 H3158 0.950 . S
C3135 C3152 1.574 . S
C3135 C3154 1.368 . S
C3135 H3159 0.949 . S
H3136 C3140 0.949 . S
C3137 C3138 1.349 . S
C3137 C3139 1.327 . S
C3137 H3160 0.950 . S
C3138 C3137 1.349 . S
C3138 C3150 1.349 . S
C3139 C3137 1.327 . S
C3139 C3155 1.429 . S
C3139 H3161 0.950 . S
C3140 H3136 0.949 . S
C3140 C3148 1.574 . S
C3140 C3156 1.368 . S
H3141 C3149 0.950 . S
H3142 C3147 0.950 . S
H3143 C3148 0.949 . S
H3144 C3150 0.950 . S
H3145 C3151 0.950 . S
H3146 C3152 0.949 . S
C3147 H3142 0.950 . S
C3147 C3149 1.327 . S
C3147 C3153 1.429 . S
C3148 C3140 1.574 . S
C3148 H3143 0.949 . S
C3148 C3154 1.368 . S
C3149 C3133 1.349 . S
C3149 H3141 0.950 . S
C3149 C3147 1.327 . S
C3150 C3138 1.349 . S
C3150 H3144 0.950 . S
C3150 C3151 1.327 . S
C3151 H3145 0.950 . S
C3151 C3150 1.327 . S
C3151 C3155 1.429 . S
C3152 C3135 1.574 . S
C3152 H3146 0.949 . S
C3152 C3156 1.368 . S
C3153 C3134 1.429 . S
C3153 C3147 1.429 . S
C3153 C3154 1.523 . S
C3154 C3135 1.368 . S
C3154 C3148 1.368 . S
C3154 C3153 1.523 . S
C3155 C3139 1.429 . S
C3155 C3151 1.429 . S
C3155 C3156 1.523 . S
C3156 C3140 1.368 . S
C3156 C3152 1.368 . S
C3156 C3155 1.523 . S
H3157 C3132 0.950 . S
H3158 C3134 0.950 . S
H3159 C3135 0.949 . S
H3160 C3137 0.950 . S
H3161 C3139 0.950 . S
C3162 C3163 1.349 . S
C3162 C3164 1.327 . S
C3162 H3187 0.950 . S
C3163 C3162 1.349 . S
C3163 C3179 1.349 . S
C3164 C3162 1.327 . S
C3164 C3183 1.429 . S
C3164 H3188 0.950 . S
C3165 C3182 1.574 . S
C3165 C3184 1.368 . S
C3165 H3189 0.949 . S
H3166 C3170 0.949 . S
C3167 C3168 1.349 . S
C3167 C3169 1.327 . S
C3167 H3190 0.950 . S
C3168 C3167 1.349 . S
C3168 C3180 1.349 . S
C3169 C3167 1.327 . S
C3169 C3185 1.429 . S
C3169 H3191 0.950 . S
C3170 H3166 0.949 . S
C3170 C3178 1.574 . S
C3170 C3186 1.368 . S
H3171 C3179 0.950 . S
H3172 C3177 0.950 . S
H3173 C3178 0.949 . S
H3174 C3180 0.950 . S
H3175 C3181 0.950 . S
H3176 C3182 0.949 . S
C3177 H3172 0.950 . S
C3177 C3179 1.327 . S
C3177 C3183 1.429 . S
C3178 C3170 1.574 . S
C3178 H3173 0.949 . S
C3178 C3184 1.368 . S
C3179 C3163 1.349 . S
C3179 H3171 0.950 . S
C3179 C3177 1.327 . S
C3180 C3168 1.349 . S
C3180 H3174 0.950 . S
C3180 C3181 1.327 . S
C3181 H3175 0.950 . S
C3181 C3180 1.327 . S
C3181 C3185 1.429 . S
C3182 C3165 1.574 . S
C3182 H3176 0.949 . S
C3182 C3186 1.368 . S
C3183 C3164 1.429 . S
C3183 C3177 1.429 . S
C3183 C3184 1.523 . S
C3184 C3165 1.368 . S
C3184 C3178 1.368 . S
C3184 C3183 1.523 . S
C3185 C3169 1.429 . S
C3185 C3181 1.429 . S
C3185 C3186 1.523 . S
C3186 C3170 1.368 . S
C3186 C3182 1.368 . S
C3186 C3185 1.523 . S
H3187 C3162 0.950 . S
H3188 C3164 0.950 . S
H3189 C3165 0.949 . S
H3190 C3167 0.950 . S
H3191 C3169 0.950 . S
C3192 C3193 1.349 . S
C3192 C3194 1.327 . S
C3192 H3217 0.950 . S
C3193 C3192 1.349 . S
C3193 C3209 1.349 . S
C3194 C3192 1.327 . S
C3194 C3213 1.429 . S
C3194 H3218 0.950 . S
C3195 C3212 1.574 . S
C3195 C3214 1.368 . S
C3195 H3219 0.949 . S
H3196 C3200 0.949 . S
C3197 C3198 1.349 . S
C3197 C3199 1.327 . S
C3197 H3220 0.950 . S
C3198 C3197 1.349 . S
C3198 C3210 1.349 . S
C3199 C3197 1.327 . S
C3199 C3215 1.429 . S
C3199 H3221 0.950 . S
C3200 H3196 0.949 . S
C3200 C3208 1.574 . S
C3200 C3216 1.368 . S
H3201 C3209 0.950 . S
H3202 C3207 0.950 . S
H3203 C3208 0.949 . S
H3204 C3210 0.950 . S
H3205 C3211 0.950 . S
H3206 C3212 0.949 . S
C3207 H3202 0.950 . S
C3207 C3209 1.327 . S
C3207 C3213 1.429 . S
C3208 C3200 1.574 . S
C3208 H3203 0.949 . S
C3208 C3214 1.368 . S
C3209 C3193 1.349 . S
C3209 H3201 0.950 . S
C3209 C3207 1.327 . S
C3210 C3198 1.349 . S
C3210 H3204 0.950 . S
C3210 C3211 1.327 . S
C3211 H3205 0.950 . S
C3211 C3210 1.327 . S
C3211 C3215 1.429 . S
C3212 C3195 1.574 . S
C3212 H3206 0.949 . S
C3212 C3216 1.368 . S
C3213 C3194 1.429 . S
C3213 C3207 1.429 . S
C3213 C3214 1.523 . S
C3214 C3195 1.368 . S
C3214 C3208 1.368 . S
C3214 C3213 1.523 . S
C3215 C3199 1.429 . S
C3215 C3211 1.429 . S
C3215 C3216 1.523 . S
C3216 C3200 1.368 . S
C3216 C3212 1.368 . S
C3216 C3215 1.523 . S
H3217 C3192 0.950 . S
H3218 C3194 0.950 . S
H3219 C3195 0.949 . S
H3220 C3197 0.950 . S
H3221 C3199 0.950 . S
C3222 C3223 1.349 . S
C3222 C3224 1.327 . S
C3222 H3247 0.950 . S
C3223 C3222 1.349 . S
C3223 C3239 1.349 . S
C3224 C3222 1.327 . S
C3224 C3243 1.429 . S
C3224 H3248 0.950 . S
C3225 C3242 1.574 . S
C3225 C3244 1.368 . S
C3225 H3249 0.949 . S
H3226 C3230 0.949 . S
C3227 C3228 1.349 . S
C3227 C3229 1.327 . S
C3227 H3250 0.950 . S
C3228 C3227 1.349 . S
C3228 C3240 1.349 . S
C3229 C3227 1.327 . S
C3229 C3245 1.429 . S
C3229 H3251 0.950 . S
C3230 H3226 0.949 . S
C3230 C3238 1.574 . S
C3230 C3246 1.368 . S
H3231 C3239 0.950 . S
H3232 C3237 0.950 . S
H3233 C3238 0.949 . S
H3234 C3240 0.950 . S
H3235 C3241 0.950 . S
H3236 C3242 0.949 . S
C3237 H3232 0.950 . S
C3237 C3239 1.327 . S
C3237 C3243 1.429 . S
C3238 C3230 1.574 . S
C3238 H3233 0.949 . S
C3238 C3244 1.368 . S
C3239 C3223 1.349 . S
C3239 H3231 0.950 . S
C3239 C3237 1.327 . S
C3240 C3228 1.349 . S
C3240 H3234 0.950 . S
C3240 C3241 1.327 . S
C3241 H3235 0.950 . S
C3241 C3240 1.327 . S
C3241 C3245 1.429 . S
C3242 C3225 1.574 . S
C3242 H3236 0.949 . S
C3242 C3246 1.368 . S
C3243 C3224 1.429 . S
C3243 C3237 1.429 . S
C3243 C3244 1.523 . S
C3244 C3225 1.368 . S
C3244 C3238 1.368 . S
C3244 C3243 1.523 . S
C3245 C3229 1.429 . S
C3245 C3241 1.429 . S
C3245 C3246 1.523 . S
C3246 C3230 1.368 . S
C3246 C3242 1.368 . S
C3246 C3245 1.523 . S
H3247 C3222 0.950 . S
H3248 C3224 0.950 . S
H3249 C3225 0.949 . S
H3250 C3227 0.950 . S
H3251 C3229 0.950 . S
C3252 C3253 1.349 . S
C3252 C3254 1.327 . S
C3252 H3277 0.950 . S
C3253 C3252 1.349 . S
C3253 C3269 1.349 . S
C3254 C3252 1.327 . S
C3254 C3273 1.429 . S
C3254 H3278 0.950 . S
C3255 C3272 1.574 . S
C3255 C3274 1.368 . S
C3255 H3279 0.949 . S
H3256 C3260 0.949 . S
C3257 C3258 1.349 . S
C3257 C3259 1.327 . S
C3257 H3280 0.950 . S
C3258 C3257 1.349 . S
C3258 C3270 1.349 . S
C3259 C3257 1.327 . S
C3259 C3275 1.429 . S
C3259 H3281 0.950 . S
C3260 H3256 0.949 . S
C3260 C3268 1.574 . S
C3260 C3276 1.368 . S
H3261 C3269 0.950 . S
H3262 C3267 0.950 . S
H3263 C3268 0.949 . S
H3264 C3270 0.950 . S
H3265 C3271 0.950 . S
H3266 C3272 0.949 . S
C3267 H3262 0.950 . S
C3267 C3269 1.327 . S
C3267 C3273 1.429 . S
C3268 C3260 1.574 . S
C3268 H3263 0.949 . S
C3268 C3274 1.368 . S
C3269 C3253 1.349 . S
C3269 H3261 0.950 . S
C3269 C3267 1.327 . S
C3270 C3258 1.349 . S
C3270 H3264 0.950 . S
C3270 C3271 1.327 . S
C3271 H3265 0.950 . S
C3271 C3270 1.327 . S
C3271 C3275 1.429 . S
C3272 C3255 1.574 . S
C3272 H3266 0.949 . S
C3272 C3276 1.368 . S
C3273 C3254 1.429 . S
C3273 C3267 1.429 . S
C3273 C3274 1.523 . S
C3274 C3255 1.368 . S
C3274 C3268 1.368 . S
C3274 C3273 1.523 . S
C3275 C3259 1.429 . S
C3275 C3271 1.429 . S
C3275 C3276 1.523 . S
C3276 C3260 1.368 . S
C3276 C3272 1.368 . S
C3276 C3275 1.523 . S
H3277 C3252 0.950 . S
H3278 C3254 0.950 . S
H3279 C3255 0.949 . S
H3280 C3257 0.950 . S
H3281 C3259 0.950 . S
C3282 C3283 1.349 . S
C3282 C3284 1.327 . S
C3282 H3307 0.950 . S
C3283 C3282 1.349 . S
C3283 C3299 1.349 . S
C3284 C3282 1.327 . S
C3284 C3303 1.429 . S
C3284 H3308 0.950 . S
C3285 C3302 1.574 . S
C3285 C3304 1.368 . S
C3285 H3309 0.949 . S
H3286 C3290 0.949 . S
C3287 C3288 1.349 . S
C3287 C3289 1.327 . S
C3287 H3310 0.950 . S
C3288 C3287 1.349 . S
C3288 C3300 1.349 . S
C3289 C3287 1.327 . S
C3289 C3305 1.429 . S
C3289 H3311 0.950 . S
C3290 H3286 0.949 . S
C3290 C3298 1.574 . S
C3290 C3306 1.368 . S
H3291 C3299 0.950 . S
H3292 C3297 0.950 . S
H3293 C3298 0.949 . S
H3294 C3300 0.950 . S
H3295 C3301 0.950 . S
H3296 C3302 0.949 . S
C3297 H3292 0.950 . S
C3297 C3299 1.327 . S
C3297 C3303 1.429 . S
C3298 C3290 1.574 . S
C3298 H3293 0.949 . S
C3298 C3304 1.368 . S
C3299 C3283 1.349 . S
C3299 H3291 0.950 . S
C3299 C3297 1.327 . S
C3300 C3288 1.349 . S
C3300 H3294 0.950 . S
C3300 C3301 1.327 . S
C3301 H3295 0.950 . S
C3301 C3300 1.327 . S
C3301 C3305 1.429 . S
C3302 C3285 1.574 . S
C3302 H3296 0.949 . S
C3302 C3306 1.368 . S
C3303 C3284 1.429 . S
C3303 C3297 1.429 . S
C3303 C3304 1.523 . S
C3304 C3285 1.368 . S
C3304 C3298 1.368 . S
C3304 C3303 1.523 . S
C3305 C3289 1.429 . S
C3305 C3301 1.429 . S
C3305 C3306 1.523 . S
C3306 C3290 1.368 . S
C3306 C3302 1.368 . S
C3306 C3305 1.523 . S
H3307 C3282 0.950 . S
H3308 C3284 0.950 . S
H3309 C3285 0.949 . S
H3310 C3287 0.950 . S
H3311 C3289 0.950 . S
C3312 C3313 1.349 . S
C3312 C3314 1.327 . S
C3312 H3337 0.950 . S
C3313 C3312 1.349 . S
C3313 C3329 1.349 . S
C3314 C3312 1.327 . S
C3314 C3333 1.429 . S
C3314 H3338 0.950 . S
C3315 C3332 1.574 . S
C3315 C3334 1.368 . S
C3315 H3339 0.949 . S
H3316 C3320 0.949 . S
C3317 C3318 1.349 . S
C3317 C3319 1.327 . S
C3317 H3340 0.950 . S
C3318 C3317 1.349 . S
C3318 C3330 1.349 . S
C3319 C3317 1.327 . S
C3319 C3335 1.429 . S
C3319 H3341 0.950 . S
C3320 H3316 0.949 . S
C3320 C3328 1.574 . S
C3320 C3336 1.368 . S
H3321 C3329 0.950 . S
H3322 C3327 0.950 . S
H3323 C3328 0.949 . S
H3324 C3330 0.950 . S
H3325 C3331 0.950 . S
H3326 C3332 0.949 . S
C3327 H3322 0.950 . S
C3327 C3329 1.327 . S
C3327 C3333 1.429 . S
C3328 C3320 1.574 . S
C3328 H3323 0.949 . S
C3328 C3334 1.368 . S
C3329 C3313 1.349 . S
C3329 H3321 0.950 . S
C3329 C3327 1.327 . S
C3330 C3318 1.349 . S
C3330 H3324 0.950 . S
C3330 C3331 1.327 . S
C3331 H3325 0.950 . S
C3331 C3330 1.327 . S
C3331 C3335 1.429 . S
C3332 C3315 1.574 . S
C3332 H3326 0.949 . S
C3332 C3336 1.368 . S
C3333 C3314 1.429 . S
C3333 C3327 1.429 . S
C3333 C3334 1.523 . S
C3334 C3315 1.368 . S
C3334 C3328 1.368 . S
C3334 C3333 1.523 . S
C3335 C3319 1.429 . S
C3335 C3331 1.429 . S
C3335 C3336 1.523 . S
C3336 C3320 1.368 . S
C3336 C3332 1.368 . S
C3336 C3335 1.523 . S
H3337 C3312 0.950 . S
H3338 C3314 0.950 . S
H3339 C3315 0.949 . S
H3340 C3317 0.950 . S
H3341 C3319 0.950 . S
C3342 C3343 1.349 . S
C3342 C3344 1.327 . S
C3342 H3367 0.950 . S
C3343 C3342 1.349 . S
C3343 C3359 1.349 . S
C3344 C3342 1.327 . S
C3344 C3363 1.429 . S
C3344 H3368 0.950 . S
C3345 C3362 1.574 . S
C3345 C3364 1.368 . S
C3345 H3369 0.949 . S
H3346 C3350 0.949 . S
C3347 C3348 1.349 . S
C3347 C3349 1.327 . S
C3347 H3370 0.950 . S
C3348 C3347 1.349 . S
C3348 C3360 1.349 . S
C3349 C3347 1.327 . S
C3349 C3365 1.429 . S
C3349 H3371 0.950 . S
C3350 H3346 0.949 . S
C3350 C3358 1.574 . S
C3350 C3366 1.368 . S
H3351 C3359 0.950 . S
H3352 C3357 0.950 . S
H3353 C3358 0.949 . S
H3354 C3360 0.950 . S
H3355 C3361 0.950 . S
H3356 C3362 0.949 . S
C3357 H3352 0.950 . S
C3357 C3359 1.327 . S
C3357 C3363 1.429 . S
C3358 C3350 1.574 . S
C3358 H3353 0.949 . S
C3358 C3364 1.368 . S
C3359 C3343 1.349 . S
C3359 H3351 0.950 . S
C3359 C3357 1.327 . S
C3360 C3348 1.349 . S
C3360 H3354 0.950 . S
C3360 C3361 1.327 . S
C3361 H3355 0.950 . S
C3361 C3360 1.327 . S
C3361 C3365 1.429 . S
C3362 C3345 1.574 . S
C3362 H3356 0.949 . S
C3362 C3366 1.368 . S
C3363 C3344 1.429 . S
C3363 C3357 1.429 . S
C3363 C3364 1.523 . S
C3364 C3345 1.368 . S
C3364 C3358 1.368 . S
C3364 C3363 1.523 . S
C3365 C3349 1.429 . S
C3365 C3361 1.429 . S
C3365 C3366 1.523 . S
C3366 C3350 1.368 . S
C3366 C3362 1.368 . S
C3366 C3365 1.523 . S
H3367 C3342 0.950 . S
H3368 C3344 0.950 . S
H3369 C3345 0.949 . S
H3370 C3347 0.950 . S
H3371 C3349 0.950 . S
C3372 C3373 1.349 . S
C3372 C3374 1.327 . S
C3372 H3397 0.950 . S
C3373 C3372 1.349 . S
C3373 C3389 1.349 . S
C3374 C3372 1.327 . S
C3374 C3393 1.429 . S
C3374 H3398 0.950 . S
C3375 C3392 1.574 . S
C3375 C3394 1.368 . S
C3375 H3399 0.949 . S
H3376 C3380 0.949 . S
C3377 C3378 1.349 . S
C3377 C3379 1.327 . S
C3377 H3400 0.950 . S
C3378 C3377 1.349 . S
C3378 C3390 1.349 . S
C3379 C3377 1.327 . S
C3379 C3395 1.429 . S
C3379 H3401 0.950 . S
C3380 H3376 0.949 . S
C3380 C3388 1.574 . S
C3380 C3396 1.368 . S
H3381 C3389 0.950 . S
H3382 C3387 0.950 . S
H3383 C3388 0.949 . S
H3384 C3390 0.950 . S
H3385 C3391 0.950 . S
H3386 C3392 0.949 . S
C3387 H3382 0.950 . S
C3387 C3389 1.327 . S
C3387 C3393 1.429 . S
C3388 C3380 1.574 . S
C3388 H3383 0.949 . S
C3388 C3394 1.368 . S
C3389 C3373 1.349 . S
C3389 H3381 0.950 . S
C3389 C3387 1.327 . S
C3390 C3378 1.349 . S
C3390 H3384 0.950 . S
C3390 C3391 1.327 . S
C3391 H3385 0.950 . S
C3391 C3390 1.327 . S
C3391 C3395 1.429 . S
C3392 C3375 1.574 . S
C3392 H3386 0.949 . S
C3392 C3396 1.368 . S
C3393 C3374 1.429 . S
C3393 C3387 1.429 . S
C3393 C3394 1.523 . S
C3394 C3375 1.368 . S
C3394 C3388 1.368 . S
C3394 C3393 1.523 . S
C3395 C3379 1.429 . S
C3395 C3391 1.429 . S
C3395 C3396 1.523 . S
C3396 C3380 1.368 . S
C3396 C3392 1.368 . S
C3396 C3395 1.523 . S
H3397 C3372 0.950 . S
H3398 C3374 0.950 . S
H3399 C3375 0.949 . S
H3400 C3377 0.950 . S
H3401 C3379 0.950 . S
C3402 C3403 1.349 . S
C3402 C3404 1.327 . S
C3402 H3427 0.950 . S
C3403 C3402 1.349 . S
C3403 C3419 1.349 . S
C3404 C3402 1.327 . S
C3404 C3423 1.429 . S
C3404 H3428 0.950 . S
C3405 C3422 1.574 . S
C3405 C3424 1.368 . S
C3405 H3429 0.949 . S
H3406 C3410 0.949 . S
C3407 C3408 1.349 . S
C3407 C3409 1.327 . S
C3407 H3430 0.950 . S
C3408 C3407 1.349 . S
C3408 C3420 1.349 . S
C3409 C3407 1.327 . S
C3409 C3425 1.429 . S
C3409 H3431 0.950 . S
C3410 H3406 0.949 . S
C3410 C3418 1.574 . S
C3410 C3426 1.368 . S
H3411 C3419 0.950 . S
H3412 C3417 0.950 . S
H3413 C3418 0.949 . S
H3414 C3420 0.950 . S
H3415 C3421 0.950 . S
H3416 C3422 0.949 . S
C3417 H3412 0.950 . S
C3417 C3419 1.327 . S
C3417 C3423 1.429 . S
C3418 C3410 1.574 . S
C3418 H3413 0.949 . S
C3418 C3424 1.368 . S
C3419 C3403 1.349 . S
C3419 H3411 0.950 . S
C3419 C3417 1.327 . S
C3420 C3408 1.349 . S
C3420 H3414 0.950 . S
C3420 C3421 1.327 . S
C3421 H3415 0.950 . S
C3421 C3420 1.327 . S
C3421 C3425 1.429 . S
C3422 C3405 1.574 . S
C3422 H3416 0.949 . S
C3422 C3426 1.368 . S
C3423 C3404 1.429 . S
C3423 C3417 1.429 . S
C3423 C3424 1.523 . S
C3424 C3405 1.368 . S
C3424 C3418 1.368 . S
C3424 C3423 1.523 . S
C3425 C3409 1.429 . S
C3425 C3421 1.429 . S
C3425 C3426 1.523 . S
C3426 C3410 1.368 . S
C3426 C3422 1.368 . S
C3426 C3425 1.523 . S
H3427 C3402 0.950 . S
H3428 C3404 0.950 . S
H3429 C3405 0.949 . S
H3430 C3407 0.950 . S
H3431 C3409 0.950 . S
C3432 C3433 1.349 . S
C3432 C3434 1.327 . S
C3432 H3457 0.950 . S
C3433 C3432 1.349 . S
C3433 C3449 1.349 . S
C3434 C3432 1.327 . S
C3434 C3453 1.429 . S
C3434 H3458 0.950 . S
C3435 C3452 1.574 . S
C3435 C3454 1.368 . S
C3435 H3459 0.949 . S
H3436 C3440 0.949 . S
C3437 C3438 1.349 . S
C3437 C3439 1.327 . S
C3437 H3460 0.950 . S
C3438 C3437 1.349 . S
C3438 C3450 1.349 . S
C3439 C3437 1.327 . S
C3439 C3455 1.429 . S
C3439 H3461 0.950 . S
C3440 H3436 0.949 . S
C3440 C3448 1.574 . S
C3440 C3456 1.368 . S
H3441 C3449 0.950 . S
H3442 C3447 0.950 . S
H3443 C3448 0.949 . S
H3444 C3450 0.950 . S
H3445 C3451 0.950 . S
H3446 C3452 0.949 . S
C3447 H3442 0.950 . S
C3447 C3449 1.327 . S
C3447 C3453 1.429 . S
C3448 C3440 1.574 . S
C3448 H3443 0.949 . S
C3448 C3454 1.368 . S
C3449 C3433 1.349 . S
C3449 H3441 0.950 . S
C3449 C3447 1.327 . S
C3450 C3438 1.349 . S
C3450 H3444 0.950 . S
C3450 C3451 1.327 . S
C3451 H3445 0.950 . S
C3451 C3450 1.327 . S
C3451 C3455 1.429 . S
C3452 C3435 1.574 . S
C3452 H3446 0.949 . S
C3452 C3456 1.368 . S
C3453 C3434 1.429 . S
C3453 C3447 1.429 . S
C3453 C3454 1.523 . S
C3454 C3435 1.368 . S
C3454 C3448 1.368 . S
C3454 C3453 1.523 . S
C3455 C3439 1.429 . S
C3455 C3451 1.429 . S
C3455 C3456 1.523 . S
C3456 C3440 1.368 . S
C3456 C3452 1.368 . S
C3456 C3455 1.523 . S
H3457 C3432 0.950 . S
H3458 C3434 0.950 . S
H3459 C3435 0.949 . S
H3460 C3437 0.950 . S
H3461 C3439 0.950 . S
C3462 C3463 1.349 . S
C3462 C3464 1.327 . S
C3462 H3487 0.950 . S
C3463 C3462 1.349 . S
C3463 C3479 1.349 . S
C3464 C3462 1.327 . S
C3464 C3483 1.429 . S
C3464 H3488 0.950 . S
C3465 C3482 1.574 . S
C3465 C3484 1.368 . S
C3465 H3489 0.949 . S
H3466 C3470 0.949 . S
C3467 C3468 1.349 . S
C3467 C3469 1.327 . S
C3467 H3490 0.950 . S
C3468 C3467 1.349 . S
C3468 C3480 1.349 . S
C3469 C3467 1.327 . S
C3469 C3485 1.429 . S
C3469 H3491 0.950 . S
C3470 H3466 0.949 . S
C3470 C3478 1.574 . S
C3470 C3486 1.368 . S
H3471 C3479 0.950 . S
H3472 C3477 0.950 . S
H3473 C3478 0.949 . S
H3474 C3480 0.950 . S
H3475 C3481 0.950 . S
H3476 C3482 0.949 . S
C3477 H3472 0.950 . S
C3477 C3479 1.327 . S
C3477 C3483 1.429 . S
C3478 C3470 1.574 . S
C3478 H3473 0.949 . S
C3478 C3484 1.368 . S
C3479 C3463 1.349 . S
C3479 H3471 0.950 . S
C3479 C3477 1.327 . S
C3480 C3468 1.349 . S
C3480 H3474 0.950 . S
C3480 C3481 1.327 . S
C3481 H3475 0.950 . S
C3481 C3480 1.327 . S
C3481 C3485 1.429 . S
C3482 C3465 1.574 . S
C3482 H3476 0.949 . S
C3482 C3486 1.368 . S
C3483 C3464 1.429 . S
C3483 C3477 1.429 . S
C3483 C3484 1.523 . S
C3484 C3465 1.368 . S
C3484 C3478 1.368 . S
C3484 C3483 1.523 . S
C3485 C3469 1.429 . S
C3485 C3481 1.429 . S
C3485 C3486 1.523 . S
C3486 C3470 1.368 . S
C3486 C3482 1.368 . S
C3486 C3485 1.523 . S
H3487 C3462 0.950 . S
H3488 C3464 0.950 . S
H3489 C3465 0.949 . S
H3490 C3467 0.950 . S
H3491 C3469 0.950 . S
C3492 C3493 1.349 . S
C3492 C3494 1.327 . S
C3492 H3517 0.950 . S
C3493 C3492 1.349 . S
C3493 C3509 1.349 . S
C3494 C3492 1.327 . S
C3494 C3513 1.429 . S
C3494 H3518 0.950 . S
C3495 C3512 1.574 . S
C3495 C3514 1.368 . S
C3495 H3519 0.949 . S
H3496 C3500 0.949 . S
C3497 C3498 1.349 . S
C3497 C3499 1.327 . S
C3497 H3520 0.950 . S
C3498 C3497 1.349 . S
C3498 C3510 1.349 . S
C3499 C3497 1.327 . S
C3499 C3515 1.429 . S
C3499 H3521 0.950 . S
C3500 H3496 0.949 . S
C3500 C3508 1.574 . S
C3500 C3516 1.368 . S
H3501 C3509 0.950 . S
H3502 C3507 0.950 . S
H3503 C3508 0.949 . S
H3504 C3510 0.950 . S
H3505 C3511 0.950 . S
H3506 C3512 0.949 . S
C3507 H3502 0.950 . S
C3507 C3509 1.327 . S
C3507 C3513 1.429 . S
C3508 C3500 1.574 . S
C3508 H3503 0.949 . S
C3508 C3514 1.368 . S
C3509 C3493 1.349 . S
C3509 H3501 0.950 . S
C3509 C3507 1.327 . S
C3510 C3498 1.349 . S
C3510 H3504 0.950 . S
C3510 C3511 1.327 . S
C3511 H3505 0.950 . S
C3511 C3510 1.327 . S
C3511 C3515 1.429 . S
C3512 C3495 1.574 . S
C3512 H3506 0.949 . S
C3512 C3516 1.368 . S
C3513 C3494 1.429 . S
C3513 C3507 1.429 . S
C3513 C3514 1.523 . S
C3514 C3495 1.368 . S
C3514 C3508 1.368 . S
C3514 C3513 1.523 . S
C3515 C3499 1.429 . S
C3515 C3511 1.429 . S
C3515 C3516 1.523 . S
C3516 C3500 1.368 . S
C3516 C3512 1.368 . S
C3516 C3515 1.523 . S
H3517 C3492 0.950 . S
H3518 C3494 0.950 . S
H3519 C3495 0.949 . S
H3520 C3497 0.950 . S
H3521 C3499 0.950 . S
C3522 C3523 1.349 . S
C3522 C3524 1.327 . S
C3522 H3547 0.950 . S
C3523 C3522 1.349 . S
C3523 C3539 1.349 . S
C3524 C3522 1.327 . S
C3524 C3543 1.429 . S
C3524 H3548 0.950 . S
C3525 C3542 1.574 . S
C3525 C3544 1.368 . S
C3525 H3549 0.949 . S
H3526 C3530 0.949 . S
C3527 C3528 1.349 . S
C3527 C3529 1.327 . S
C3527 H3550 0.950 . S
C3528 C3527 1.349 . S
C3528 C3540 1.349 . S
C3529 C3527 1.327 . S
C3529 C3545 1.429 . S
C3529 H3551 0.950 . S
C3530 H3526 0.949 . S
C3530 C3538 1.574 . S
C3530 C3546 1.368 . S
H3531 C3539 0.950 . S
H3532 C3537 0.950 . S
H3533 C3538 0.949 . S
H3534 C3540 0.950 . S
H3535 C3541 0.950 . S
H3536 C3542 0.949 . S
C3537 H3532 0.950 . S
C3537 C3539 1.327 . S
C3537 C3543 1.429 . S
C3538 C3530 1.574 . S
C3538 H3533 0.949 . S
C3538 C3544 1.368 . S
C3539 C3523 1.349 . S
C3539 H3531 0.950 . S
C3539 C3537 1.327 . S
C3540 C3528 1.349 . S
C3540 H3534 0.950 . S
C3540 C3541 1.327 . S
C3541 H3535 0.950 . S
C3541 C3540 1.327 . S
C3541 C3545 1.429 . S
C3542 C3525 1.574 . S
C3542 H3536 0.949 . S
C3542 C3546 1.368 . S
C3543 C3524 1.429 . S
C3543 C3537 1.429 . S
C3543 C3544 1.523 . S
C3544 C3525 1.368 . S
C3544 C3538 1.368 . S
C3544 C3543 1.523 . S
C3545 C3529 1.429 . S
C3545 C3541 1.429 . S
C3545 C3546 1.523 . S
C3546 C3530 1.368 . S
C3546 C3542 1.368 . S
C3546 C3545 1.523 . S
H3547 C3522 0.950 . S
H3548 C3524 0.950 . S
H3549 C3525 0.949 . S
H3550 C3527 0.950 . S
H3551 C3529 0.950 . S
C2113 C29 1.121 . S
C2118 C673 1.121 . S
C2143 C724 1.121 . S
C2148 C117 1.121 . S
C2173 C205 1.121 . S
C2178 C821 1.121 . S
C2203 C284 1.121 . S
C2208 C937 1.121 . S
C2233 C1017 1.121 . S
C2238 C381 1.121 . S
C2263 C497 1.121 . S
C2268 C577 1.121 . S
C2293 C1076 1.106 . S
C2298 C1721 1.106 . S
C2323 C1173 1.106 . S
C2328 C1809 1.106 . S
C2353 C1905 1.106 . S
C2358 C1252 1.106 . S
C2383 C1340 1.106 . S
C2388 C1993 1.106 . S
C2413 C1437 1.106 . S
C2418 C2073 1.106 . S
C2443 C1633 1.106 . S
C2448 C1516 1.106 . S
C2473 C57 0.894 . S
C2478 C753 0.894 . S
C2503 C849 0.894 . S
C2508 C145 0.894 . S
C2533 C909 0.894 . S
C2538 C233 0.894 . S
C2563 C313 0.894 . S
C2568 C988 0.894 . S
C2593 C409 0.894 . S
C2598 C548 0.894 . S
C2623 C469 0.894 . S
C2628 C645 0.894 . S
C2653 C1780 0.905 . S
C2658 C1105 0.905 . S
C2683 C1201 0.906 . S
C2688 C1877 0.906 . S
C2713 C1965 0.905 . S
C2718 C1281 0.905 . S
C2743 C2044 0.906 . S
C2748 C1369 0.906 . S
C2773 C1604 0.905 . S
C2778 C1465 0.905 . S
C2803 C1545 0.905 . S
C2808 C1692 0.905 . S
C2833 C49 1.529 . S
C2838 C1349 1.529 . S
C2863 C1428 1.529 . S
C2868 C137 1.529 . S
C2893 C1525 1.529 . S
C2898 C225 1.529 . S
C2923 C321 1.529 . S
C2928 C1085 1.529 . S
C2953 C401 1.529 . S
C2958 C1164 1.529 . S
C2983 C1261 1.529 . S
C2988 C460 1.529 . S
C3013 C1897 1.529 . S
C3018 C557 1.529 . S
C3043 C1985 1.529 . S
C3048 C636 1.529 . S
C3073 C2081 1.529 . S
C3078 C761 1.529 . S
C3103 C1641 1.529 . S
C3108 C841 1.529 . S
C3133 C900 1.529 . S
C3138 C1729 1.529 . S
C3163 C997 1.529 . S
C3168 C1817 1.529 . S
C3193 C20 1.621 . S
C3198 C929 1.621 . S
C3223 C1025 1.621 . S
C3228 C108 1.621 . S
C3253 C585 1.621 . S
C3258 C196 1.621 . S
C3283 C293 1.621 . S
C3288 C665 1.621 . S
C3313 C372 1.621 . S
C3318 C733 1.621 . S
C3343 C489 1.621 . S
C3348 C812 1.621 . S
C3373 C1113 1.622 . S
C3378 C1956 1.622 . S
C3403 C1193 1.622 . S
C3408 C2053 1.622 . S
C3433 C1289 1.622 . S
C3438 C1613 1.622 . S
C3463 C1701 1.622 . S
C3468 C1377 1.622 . S
C3493 C1457 1.622 . S
C3498 C1789 1.622 . S
C3523 C1553 1.622 . S
C3528 C1868 1.622 . S
