# Generated by pormake.
# Topology snk, (6)-cn, num edge types: 1
# Building blocks:
#     Node 0, Type 0, BuildingBlock: KUMJIN_clean_sbu_1, # of connection points: 6
#     Node 1, Type 0, BuildingBlock: KUMJIN_clean_sbu_1, # of connection points: 6
#     Node 2, Type 0, BuildingBlock: KUMJIN_clean_sbu_1, # of connection points: 6
#     Node 3, Type 0, BuildingBlock: KUMJIN_clean_sbu_1, # of connection points: 6
#     Node 4, Type 0, BuildingBlock: KUMJIN_clean_sbu_1, # of connection points: 6
#     Node 5, Type 0, BuildingBlock: KUMJIN_clean_sbu_1, # of connection points: 6
#     Node 6, Type 0, BuildingBlock: KUMJIN_clean_sbu_1, # of connection points: 6
#     Node 7, Type 0, BuildingBlock: KUMJIN_clean_sbu_1, # of connection points: 6
#     Edge 8, Type (0, 0), BuildingBlock: ZUJKAS_clean_linker_0, # of connection points: 2
#     Edge 9, Type (0, 0), BuildingBlock: ZUJKAS_clean_linker_0, # of connection points: 2
#     Edge 10, Type (0, 0), BuildingBlock: ZUJKAS_clean_linker_0, # of connection points: 2
#     Edge 11, Type (0, 0), BuildingBlock: ZUJKAS_clean_linker_0, # of connection points: 2
#     Edge 12, Type (0, 0), BuildingBlock: ZUJKAS_clean_linker_0, # of connection points: 2
#     Edge 13, Type (0, 0), BuildingBlock: ZUJKAS_clean_linker_0, # of connection points: 2
#     Edge 14, Type (0, 0), BuildingBlock: ZUJKAS_clean_linker_0, # of connection points: 2
#     Edge 15, Type (0, 0), BuildingBlock: ZUJKAS_clean_linker_0, # of connection points: 2
#     Edge 16, Type (0, 0), BuildingBlock: ZUJKAS_clean_linker_0, # of connection points: 2
#     Edge 17, Type (0, 0), BuildingBlock: ZUJKAS_clean_linker_0, # of connection points: 2
#     Edge 18, Type (0, 0), BuildingBlock: ZUJKAS_clean_linker_0, # of connection points: 2
#     Edge 19, Type (0, 0), BuildingBlock: ZUJKAS_clean_linker_0, # of connection points: 2
#     Edge 20, Type (0, 0), BuildingBlock: ZUJKAS_clean_linker_0, # of connection points: 2
#     Edge 21, Type (0, 0), BuildingBlock: ZUJKAS_clean_linker_0, # of connection points: 2
#     Edge 22, Type (0, 0), BuildingBlock: ZUJKAS_clean_linker_0, # of connection points: 2
#     Edge 23, Type (0, 0), BuildingBlock: ZUJKAS_clean_linker_0, # of connection points: 2
#     Edge 24, Type (0, 0), BuildingBlock: ZUJKAS_clean_linker_0, # of connection points: 2
#     Edge 25, Type (0, 0), BuildingBlock: ZUJKAS_clean_linker_0, # of connection points: 2
#     Edge 26, Type (0, 0), BuildingBlock: ZUJKAS_clean_linker_0, # of connection points: 2
#     Edge 27, Type (0, 0), BuildingBlock: ZUJKAS_clean_linker_0, # of connection points: 2
#     Edge 28, Type (0, 0), BuildingBlock: ZUJKAS_clean_linker_0, # of connection points: 2
#     Edge 29, Type (0, 0), BuildingBlock: ZUJKAS_clean_linker_0, # of connection points: 2
#     Edge 30, Type (0, 0), BuildingBlock: ZUJKAS_clean_linker_0, # of connection points: 2
#     Edge 31, Type (0, 0), BuildingBlock: ZUJKAS_clean_linker_0, # of connection points: 2
# Relax obj value: 0.010
# Max RMSD: 0.073
# Mean RMSD: 0.072
data_MOF--net-snk--node1-KUMJIN_clean_sbu_1--edge1-ZUJKAS_clean_linker_0
_symmetry_space_group_name_H-M    P1
_symmetry_Int_Tables_number       1
_symmetry_cell_setting            triclinic
loop_
_symmetry_equiv_pos_as_xyz
'x, y, z'
_cell_length_a     50.909806
_cell_length_b     50.809225
_cell_length_c     29.369845
_cell_angle_alpha  90.000334
_cell_angle_beta   89.917135
_cell_angle_gamma 90.107325
loop_
_atom_site_label
_atom_site_type_symbol
_atom_site_fract_x
_atom_site_fract_y
_atom_site_fract_z
_atom_type_partial_charge
Eu0 Eu 0.00353 0.01923 0.57777 0.0
C1 C 0.9785 0.92379 0.45858 0.0
N2 N 0.0017 0.93703 0.4609 0.0
C3 C 0.02486 0.8962 0.46883 0.0
C4 C 0.97754 0.89616 0.46321 0.0
C5 C 0.02482 0.92351 0.46305 0.0
C6 C 1.00108 0.88249 0.46975 0.0
C7 C 0.9317 0.92445 0.44273 0.0
C8 C 0.95582 0.93769 0.44856 0.0
C9 C 0.93053 0.89708 0.44885 0.0
C10 C 0.95336 0.88298 0.45938 0.0
Eu11 Eu 0.99914 0.9835 0.45413 0.0
N12 N 0.95747 0.96418 0.44329 0.0
C13 C 0.90959 0.9391 0.43008 0.0
C14 C 0.9364 0.9784 0.42859 0.0
C15 C 0.91204 0.96615 0.42241 0.0
H16 H 0.04333 0.93362 0.45942 0.0
H17 H 0.8952 0.97754 0.41174 0.0
H18 H 0.9799 0.07913 0.55757 0.0
H19 H 0.09884 0.99155 0.64988 0.0
H20 H 0.93838 0.99928 0.42248 0.0
H21 H 0.8907 0.92964 0.42532 0.0
H22 H 0.05199 0.98567 0.63185 0.0
H23 H 0.04326 0.88569 0.4717 0.0
H24 H 0.91215 0.88656 0.44468 0.0
H25 H 0.95223 0.8618 0.46315 0.0
H26 H 0.99619 0.12502 0.55161 0.0
H27 H 0.00118 0.86128 0.47356 0.0
H28 H 0.12048 0.03438 0.63524 0.0
N29 N 0.01744 0.06339 0.57296 0.0
C30 C 0.04302 0.06842 0.58264 0.0
C31 C 0.00959 0.10925 0.56005 0.0
C32 C 0.05324 0.09415 0.57936 0.0
C33 C 1.00043 0.08335 0.56336 0.0
C34 C 0.03619 0.11464 0.56747 0.0
N35 N 0.04781 0.02353 0.6019 0.0
C36 C 0.06149 0.00391 0.62289 0.0
C37 C 0.08529 0.05242 0.60821 0.0
C38 C 0.05879 0.04777 0.59675 0.0
C39 C 0.10006 0.03163 0.62601 0.0
C40 C 0.08794 0.00741 0.6342 0.0
H41 H 0.04327 0.1347 0.56466 0.0
H42 H 0.08824 0.1182 0.58581 0.0
H43 H 0.11632 0.08166 0.61118 0.0
O44 O 0.00539 0.02306 0.65263 0.0
O45 O 0.01864 0.0397 0.51362 0.0
O46 O 0.03619 0.00593 0.47226 0.0
O47 O 0.96841 0.02937 0.6166 0.0
O48 O 0.02103 0.97814 0.57079 0.0
O49 O 0.03592 0.97524 0.4965 0.0
O50 O 0.99561 0.00533 0.39022 0.0
O51 O 0.96616 0.98028 0.50675 0.0
O52 O 0.9883 0.97742 0.57382 0.0
O53 O 0.01114 0.96601 0.38928 0.0
O54 O 0.98077 0.024 0.45923 0.0
O55 O 0.96786 0.02999 0.53456 0.0
C56 C 0.03636 0.03066 0.48508 0.0
C57 C 0.96682 0.03415 0.69913 0.0
C58 C 0.96441 0.03248 0.78246 0.0
C59 C 0.93853 0.04198 0.78022 0.0
C60 C 0.94095 0.04374 0.6981 0.0
C61 C 0.92701 0.0477 0.73838 0.0
C62 C 0.97867 0.02889 0.74165 0.0
C63 C 0.03727 0.96861 0.5399 0.0
C64 C 0.98051 0.0286 0.65561 0.0
C65 C 0.07992 0.09862 0.58869 0.0
C66 C 0.09593 0.07779 0.60302 0.0
C67 C 0.96887 0.97011 0.54751 0.0
C68 C 0.02602 0.99527 0.33224 0.0
C69 C 0.0384 0.006 0.25368 0.0
C70 C 0.06406 0.01148 0.269 0.0
C71 C 0.05166 1.00083 0.34652 0.0
C72 C 0.01941 0.99794 0.28596 0.0
C73 C 0.07054 0.00899 0.31503 0.0
C74 C 0.96561 0.03483 0.49048 0.0
C75 C 0.00594 0.98688 0.36534 0.0
H76 H 0.92724 0.04519 0.81103 0.0
H77 H 0.93135 0.04802 0.66605 0.0
H78 H 0.90708 0.05507 0.73714 0.0
H79 H 0.99853 0.02129 0.743 0.0
H80 H 0.07934 0.01729 0.24535 0.0
H81 H 0.05704 0.99873 0.38195 0.0
H82 H 0.99941 0.99401 0.27534 0.0
H83 H 0.09034 0.01323 0.32628 0.0
Eu84 Eu 0.2298 0.75437 0.8238 0.0
C85 C 0.31634 0.70253 0.71167 0.0
N86 N 0.3134 0.72895 0.71542 0.0
C87 C 0.35921 0.73388 0.73201 0.0
C88 C 0.34081 0.69052 0.71983 0.0
C89 C 0.33449 0.74484 0.72369 0.0
C90 C 0.36232 0.70656 0.73073 0.0
C91 C 0.2976 0.66031 0.69147 0.0
C92 C 0.29499 0.6877 0.69786 0.0
C93 C 0.32154 0.64799 0.70187 0.0
C94 C 0.34314 0.66309 0.71588 0.0
Eu95 Eu 0.27086 0.74612 0.704 0.0
N96 N 0.27233 0.70035 0.68726 0.0
C97 C 0.27646 0.64635 0.67288 0.0
C98 C 0.25282 0.68726 0.66475 0.0
C99 C 0.25419 0.66001 0.6585 0.0
H100 H 0.33197 0.76592 0.7249 0.0
H101 H 0.23826 0.64964 0.64194 0.0
H102 H 0.18787 0.70266 0.82865 0.0
H103 H 0.20393 0.85695 0.85392 0.0
H104 H 0.23621 0.69779 0.65112 0.0
H105 H 0.27764 0.62529 0.66747 0.0
H106 H 0.23278 0.8176 0.85326 0.0
H107 H 0.3758 0.74648 0.73957 0.0
H108 H 0.32382 0.62692 0.69774 0.0
H109 H 0.36171 0.65344 0.72253 0.0
H110 H 0.14122 0.69339 0.81188 0.0
H111 H 0.38146 0.6981 0.73728 0.0
H112 H 0.15768 0.85304 0.8287 0.0
N113 N 0.18461 0.74369 0.81561 0.0
C114 C 0.16792 0.7642 0.80983 0.0
C115 C 0.14852 0.71339 0.81053 0.0
C116 C 0.14092 0.76003 0.80182 0.0
C117 C 0.17502 0.71867 0.81932 0.0
C118 C 0.13149 0.73414 0.80068 0.0
N119 N 0.20312 0.7923 0.82746 0.0
C120 C 0.21251 0.81589 0.84272 0.0
C121 C 0.16031 0.81112 0.81602 0.0
C122 C 0.17742 0.78936 0.81665 0.0
C123 C 0.1702 0.83582 0.8286 0.0
C124 C 0.19628 0.83809 0.84301 0.0
H125 H 0.1109 0.73006 0.79451 0.0
H126 H 0.10335 0.77901 0.79082 0.0
H127 H 0.12036 0.82383 0.80338 0.0
O128 O 0.2522 0.76075 0.88626 0.0
O129 O 0.22813 0.78676 0.76968 0.0
O130 O 0.22987 0.76315 0.70346 0.0
O131 O 0.21317 0.74494 0.8908 0.0
O132 O 0.26722 0.77855 0.81854 0.0
O133 O 0.28185 0.78324 0.74316 0.0
O134 O 0.27663 0.74071 0.63048 0.0
O135 O 0.28888 0.73647 0.77313 0.0
O136 O 0.25414 0.71801 0.8103 0.0
O137 O 0.28519 0.77818 0.6611 0.0
O138 O 0.22874 0.73126 0.70883 0.0
O139 O 0.22578 0.71645 0.78252 0.0
C140 C 0.22223 0.78389 0.72641 0.0
C141 C 0.24361 0.73211 0.94735 0.0
C142 C 0.25497 0.72165 0.02629 0.0
C143 C 0.26406 0.6969 1.0117 0.0
C144 C 0.25247 0.70722 0.93379 0.0
C145 C 0.26271 0.68976 0.96582 0.0
C146 C 0.24468 0.73922 0.99365 0.0
C147 C 0.28181 0.78988 0.78676 0.0
C148 C 0.23431 0.75113 0.91314 0.0
C149 C 0.12408 0.78178 0.79762 0.0
C150 C 0.13376 0.80731 0.80483 0.0
C151 C 0.27939 0.71915 0.80193 0.0
C152 C 0.26652 0.77859 0.58709 0.0
C153 C 0.25288 0.78227 0.50718 0.0
C154 C 0.2362 0.80318 0.51958 0.0
C155 C 0.24951 0.79938 0.59827 0.0
C156 C 0.26816 0.77012 0.5414 0.0
C157 C 0.23452 0.81155 0.5647 0.0
C158 C 0.21864 0.71532 0.73953 0.0
C159 C 0.28201 0.76536 0.62312 0.0
H160 H 0.27186 0.68287 0.03592 0.0
H161 H 0.25155 0.7014 0.89842 0.0
H162 H 0.26963 0.67061 0.95504 0.0
H163 H 0.238 0.75855 1.00408 0.0
H164 H 0.22459 0.81336 0.49425 0.0
H165 H 0.24772 0.80626 0.63302 0.0
H166 H 0.28096 0.75385 0.53277 0.0
H167 H 0.22157 0.82761 0.57369 0.0
Eu168 Eu 0.50233 0.9797 0.07401 0.0
C169 C 0.52357 0.08316 0.96415 0.0
N170 N 0.50006 0.07046 0.96646 0.0
C171 C 0.47769 0.11144 0.97686 0.0
C172 C 0.525 0.11073 0.96903 0.0
C173 C 0.47725 0.08407 0.97219 0.0
C174 C 0.50167 0.12484 0.97542 0.0
C175 C 0.57107 0.08105 0.9572 0.0
C176 C 0.54638 0.0684 0.95847 0.0
C177 C 0.57253 0.10851 0.96211 0.0
C178 C 0.54958 0.1233 0.96798 0.0
Eu179 Eu 0.50129 0.02434 0.95963 0.0
N180 N 0.54448 0.04169 0.95531 0.0
C181 C 0.59359 0.06572 0.95103 0.0
C182 C 0.56625 0.02689 0.94664 0.0
C183 C 0.59112 0.03857 0.94514 0.0
H184 H 0.45866 0.07381 0.97261 0.0
H185 H 0.60835 0.02665 0.93894 0.0
H186 H 0.55092 0.93539 0.06787 0.0
H187 H 0.39599 0.9655 0.08466 0.0
H188 H 0.56465 0.0062 0.93976 0.0
H189 H 0.6129 0.07469 0.9499 0.0
H190 H 0.43721 0.99099 0.08405 0.0
H191 H 0.45955 0.12219 0.98152 0.0
H192 H 0.59135 0.11851 0.96142 0.0
H193 H 0.55107 0.14446 0.97182 0.0
H194 H 0.55585 0.8871 0.06185 0.0
H195 H 0.50196 0.14605 0.97929 0.0
H196 H 0.39729 0.91693 0.07911 0.0
N197 N 0.50925 0.93395 0.07067 0.0
C198 C 0.48734 0.91861 0.07205 0.0
C199 C 0.53648 0.89572 0.06457 0.0
C200 C 0.48924 0.89099 0.06904 0.0
C201 C 0.53363 0.92303 0.06759 0.0
C202 C 0.51419 0.87962 0.06518 0.0
N203 N 0.46157 0.9574 0.07632 0.0
C204 C 0.43806 0.96992 0.08088 0.0
C205 C 0.43976 0.91525 0.07581 0.0
C206 C 0.46284 0.93062 0.07539 0.0
C207 C 0.41548 0.92804 0.07875 0.0
C208 C 0.41466 0.95547 0.08167 0.0
H209 H 0.51646 0.85847 0.06272 0.0
H210 H 0.46733 0.85438 0.06716 0.0
H211 H 0.42407 0.87561 0.07303 0.0
O212 O 0.4907 0.99266 0.14209 0.0
O213 O 0.48375 0.96241 1.00994 0.0
O214 O 0.46631 0.99756 0.97094 0.0
O215 O 0.52166 0.96405 0.13473 0.0
O216 O 0.48007 0.0184 0.07504 0.0
O217 O 0.46429 0.02699 1.00249 0.0
O218 O 0.51069 0.01351 0.88935 0.0
O219 O 0.51758 0.04171 0.0255 0.0
O220 O 0.53701 0.00666 0.06119 0.0
O221 O 0.48106 0.0428 0.9023 0.0
O222 O 0.52146 0.9843 0.95802 0.0
O223 O 0.53869 0.97888 0.03003 0.0
C224 C 0.46737 0.97231 0.97998 0.0
C225 C 0.52404 0.99313 0.19758 0.0
C226 C 0.53058 0.00674 0.27685 0.0
C227 C 0.55263 0.02148 0.26287 0.0
C228 C 0.54606 0.00795 0.18471 0.0
C229 C 0.56022 0.02207 0.21717 0.0
C230 C 0.51634 0.99253 0.24366 0.0
C231 C 0.46366 0.0302 0.04706 0.0
C232 C 0.50861 0.97892 0.16292 0.0
C233 C 0.46626 0.87564 0.06954 0.0
C234 C 0.44161 0.88773 0.0729 0.0
C235 C 0.53541 0.03199 0.05298 0.0
C236 C 0.47585 0.01614 0.83682 0.0
C237 C 0.46802 0.00333 0.75752 0.0
C238 C 0.44428 0.99145 0.77117 0.0
C239 C 0.45206 0.00424 0.8494 0.0
C240 C 0.48375 0.01573 0.79083 0.0
C241 C 0.43639 0.992 0.81672 0.0
C242 C 0.53773 0.9728 0.98659 0.0
C243 C 0.49273 0.02852 0.87155 0.0
H244 H 0.56429 0.0323 0.28736 0.0
H245 H 0.55226 0.00852 0.14954 0.0
H246 H 0.57723 0.03346 0.2069 0.0
H247 H 0.49907 0.98135 0.25342 0.0
H248 H 0.43152 0.9821 0.74648 0.0
H249 H 0.44559 0.00453 0.88448 0.0
H250 H 0.50225 0.02474 0.78118 0.0
H251 H 0.41797 0.98305 0.82673 0.0
Eu252 Eu 0.23158 0.24915 0.20311 0.0
C253 C 0.31821 0.29183 0.32986 0.0
N254 N 0.3123 0.26621 0.32146 0.0
C255 C 0.35777 0.25646 0.3093 0.0
C256 C 0.3443 0.301 0.32668 0.0
C257 C 0.33156 0.24835 0.31234 0.0
C258 C 0.36416 0.28294 0.31611 0.0
C259 C 0.30349 0.33563 0.35015 0.0
C260 C 0.29799 0.30889 0.34128 0.0
C261 C 0.32933 0.34506 0.3456 0.0
C262 C 0.34969 0.32777 0.33403 0.0
Eu263 Eu 0.26777 0.25402 0.32683 0.0
N264 N 0.27318 0.29916 0.34546 0.0
C265 C 0.28298 0.35194 0.36455 0.0
C266 C 0.2537 0.31448 0.36322 0.0
C267 C 0.25808 0.34118 0.37193 0.0
H268 H 0.32665 0.22787 0.30729 0.0
H269 H 0.24237 0.35334 0.38509 0.0
H270 H 0.18177 0.29359 0.2077 0.0
H271 H 0.22472 0.14493 0.16095 0.0
H272 H 0.23495 0.3061 0.37202 0.0
H273 H 0.28638 0.37258 0.37171 0.0
H274 H 0.2466 0.18834 0.16953 0.0
H275 H 0.37301 0.24232 0.3016 0.0
H276 H 0.33386 0.36559 0.35182 0.0
H277 H 0.36957 0.33526 0.33126 0.0
H278 H 0.13409 0.29361 0.22202 0.0
H279 H 0.38445 0.28921 0.3134 0.0
H280 H 0.17737 0.14033 0.17878 0.0
N281 N 0.18523 0.25188 0.21069 0.0
C282 C 0.17201 0.2286 0.20997 0.0
C283 C 0.14457 0.27516 0.21947 0.0
C284 C 0.14456 0.22766 0.21638 0.0
C285 C 0.17173 0.27506 0.21232 0.0
C286 C 0.13098 0.25132 0.22247 0.0
N287 N 0.212 0.20748 0.19257 0.0
C288 C 0.22589 0.18633 0.17699 0.0
C289 C 0.17247 0.18153 0.19569 0.0
C290 C 0.1857 0.2058 0.1997 0.0
C291 C 0.18683 0.15934 0.18227 0.0
C292 C 0.21358 0.16185 0.17219 0.0
H293 H 0.10989 0.25145 0.22754 0.0
H294 H 0.11042 0.20217 0.22029 0.0
H295 H 0.1349 0.16175 0.20225 0.0
O296 O 0.25387 0.24617 0.13946 0.0
O297 O 0.22934 0.21551 0.25461 0.0
O298 O 0.22673 0.23685 0.32267 0.0
O299 O 0.2141 0.26023 0.13789 0.0
O300 O 0.27224 0.23146 0.2094 0.0
O301 O 0.27829 0.21785 0.28445 0.0
O302 O 0.26772 0.25901 0.40081 0.0
O303 O 0.28751 0.26973 0.26242 0.0
O304 O 0.25341 0.2867 0.22112 0.0
O305 O 0.27962 0.22183 0.37185 0.0
O306 O 0.2263 0.26984 0.31992 0.0
O307 O 0.22274 0.28553 0.24631 0.0
C308 C 0.21964 0.21755 0.29581 0.0
C309 C 0.24289 0.27589 0.08078 0.0
C310 C 0.25452 0.288 1.00238 0.0
C311 C 0.25678 0.3144 0.0167 0.0
C312 C 0.24555 0.30224 0.09407 0.0
C313 C 0.25248 0.32135 0.06214 0.0
C314 C 0.24751 0.2688 0.03508 0.0
C315 C 0.28305 0.216 0.24023 0.0
C316 C 0.23521 0.25568 0.11422 0.0
C317 C 0.13145 0.20331 0.21485 0.0
C318 C 0.14537 0.18029 0.20445 0.0
C319 C 0.27809 0.28734 0.23402 0.0
C320 C 0.29657 0.23317 0.44523 0.0
C321 C 0.30742 0.23402 0.52654 0.0
C322 C 0.33329 0.2267 0.51558 0.0
C323 C 0.32255 0.22603 0.43519 0.0
C324 C 0.28918 0.23739 0.49095 0.0
C325 C 0.34078 0.22289 0.47025 0.0
C326 C 0.216 0.28591 0.28969 0.0
C327 C 0.27659 0.23554 0.40906 0.0
H328 H 0.26153 0.32987 0.9927 0.0
H329 H 0.24207 0.308 0.12906 0.0
H330 H 0.25434 0.3417 0.07258 0.0
H331 H 0.24589 0.2483 0.02531 0.0
H332 H 0.34785 0.2242 0.5421 0.0
H333 H 0.32872 0.22268 0.4004 0.0
H334 H 0.26906 0.24272 0.49885 0.0
H335 H 0.36078 0.21736 0.46228 0.0
Eu336 Eu 0.73047 0.25426 0.32297 0.0
C337 C 0.83026 0.22472 0.21235 0.0
N338 N 0.81939 0.24911 0.21455 0.0
C339 C 0.86183 0.26849 0.22538 0.0
C340 C 0.85758 0.22129 0.21738 0.0
C341 C 0.83464 0.27092 0.2203 0.0
C342 C 0.87335 0.24357 0.22411 0.0
C343 C 0.82468 0.17756 0.2033 0.0
C344 C 0.81388 0.20307 0.20579 0.0
C345 C 0.85185 0.17406 0.20887 0.0
C346 C 0.86824 0.19585 0.21589 0.0
Eu347 Eu 0.77338 0.25137 0.20709 0.0
N348 N 0.78753 0.207 0.20126 0.0
C349 C 0.80791 0.15634 0.19449 0.0
C350 C 0.77152 0.18661 0.1892 0.0
C351 C 0.78129 0.16096 0.18663 0.0
H352 H 0.82585 0.2902 0.22039 0.0
H353 H 0.76836 0.14482 0.1778 0.0
H354 H 0.68128 0.21063 0.31736 0.0
H355 H 0.72714 0.36174 0.33881 0.0
H356 H 0.7514 0.18993 0.17995 0.0
H357 H 0.81544 0.13645 0.19226 0.0
H358 H 0.74804 0.31826 0.33874 0.0
H359 H 0.87388 0.28585 0.23015 0.0
H360 H 0.86042 0.15457 0.20737 0.0
H361 H 0.88917 0.19281 0.21994 0.0
H362 H 0.63285 0.21059 0.31137 0.0
H363 H 0.89442 0.24175 0.22816 0.0
H364 H 0.679 0.36545 0.33014 0.0
N365 N 0.68428 0.25226 0.31948 0.0
C366 C 0.67136 0.27565 0.32059 0.0
C367 C 0.64345 0.22902 0.31374 0.0
C368 C 0.64374 0.27657 0.31763 0.0
C369 C 0.67085 0.22909 0.31667 0.0
C370 C 0.62982 0.25286 0.31404 0.0
N371 N 0.7126 0.29731 0.32619 0.0
C372 C 0.72726 0.31945 0.33303 0.0
C373 C 0.67301 0.32336 0.32499 0.0
C374 C 0.6859 0.29881 0.3241 0.0
C375 C 0.68815 0.34622 0.32938 0.0
C376 C 0.71535 0.34421 0.334 0.0
H377 H 0.60859 0.25275 0.31167 0.0
H378 H 0.60972 0.30212 0.3156 0.0
H379 H 0.63532 0.34303 0.32208 0.0
O380 O 0.74531 0.26266 0.39137 0.0
O381 O 0.71249 0.2705 0.25775 0.0
O382 O 0.74747 0.28708 0.21753 0.0
O383 O 0.71326 0.23529 0.38286 0.0
O384 O 0.76987 0.27573 0.32126 0.0
O385 O 0.77739 0.28927 0.247 0.0
O386 O 0.76038 0.24484 0.137 0.0
O387 O 0.79135 0.23645 0.2734 0.0
O388 O 0.75618 0.21866 0.31097 0.0
O389 O 0.79302 0.27084 0.14997 0.0
O390 O 0.7332 0.2314 0.20853 0.0
O391 O 0.72704 0.2166 0.28222 0.0
C392 C 0.72231 0.2866 0.22715 0.0
C393 C 0.71428 0.26011 0.45102 0.0
C394 C 0.71209 0.26885 0.5329 0.0
C395 C 0.68899 0.28343 0.52572 0.0
C396 C 0.69122 0.27472 0.44485 0.0
C397 C 0.67869 0.28631 0.482 0.0
C398 C 0.72465 0.25718 0.4951 0.0
C399 C 0.78168 0.291 0.29114 0.0
C400 C 0.7278 0.2481 0.41179 0.0
C401 C 0.63093 0.30102 0.31804 0.0
C402 C 0.64551 0.32433 0.32168 0.0
C403 C 0.78146 0.21967 0.3028 0.0
C404 C 0.79319 0.24725 0.08037 0.0
C405 C 0.79618 0.23819 0.99867 0.0
C406 C 0.81947 0.22405 1.00658 0.0
C407 C 0.81648 0.23311 0.08728 0.0
C408 C 0.78312 0.24979 0.036 0.0
C409 C 0.82949 0.22157 0.05057 0.0
C410 C 0.72179 0.21566 0.23835 0.0
C411 C 0.77898 0.25907 0.11905 0.0
H412 H 0.6786 0.2923 0.55401 0.0
H413 H 0.68281 0.2771 0.41145 0.0
H414 H 0.66084 0.29748 0.47692 0.0
H415 H 0.74261 0.24609 0.49982 0.0
H416 H 0.83021 0.21523 0.97864 0.0
H417 H 0.82468 0.23104 0.12093 0.0
H418 H 0.76498 0.2605 0.03071 0.0
H419 H 0.84749 0.21075 0.05622 0.0
Eu420 Eu 0.72681 0.75608 0.70377 0.0
C421 C 0.82852 0.77253 0.8172 0.0
N422 N 0.81605 0.74909 0.81122 0.0
C423 C 0.85712 0.72768 0.7972 0.0
C424 C 0.85603 0.77444 0.8127 0.0
C425 C 0.8298 0.72675 0.80185 0.0
C426 C 0.8703 0.75163 0.80253 0.0
C427 C 0.82602 0.81942 0.83241 0.0
C428 C 0.81357 0.79481 0.82669 0.0
C429 C 0.85341 0.82139 0.82773 0.0
C430 C 0.86837 0.79899 0.81789 0.0
Eu431 Eu 0.77007 0.74935 0.81922 0.0
N432 N 0.78694 0.79244 0.83017 0.0
C433 C 0.81059 0.84131 0.84316 0.0
C434 C 0.77215 0.81338 0.8438 0.0
C435 C 0.78361 0.83818 0.84954 0.0
H436 H 0.8197 0.70816 0.79847 0.0
H437 H 0.77166 0.85479 0.85963 0.0
H438 H 0.68431 0.8059 0.71643 0.0
H439 H 0.7088 0.65142 0.67356 0.0
H440 H 0.75168 0.81108 0.85177 0.0
H441 H 0.81942 0.86055 0.84779 0.0
H442 H 0.73574 0.69139 0.68264 0.0
H443 H 0.868 0.70993 0.78958 0.0
H444 H 0.86325 0.84017 0.83189 0.0
H445 H 0.88948 0.80086 0.81435 0.0
H446 H 0.63629 0.81236 0.72211 0.0
H447 H 0.89146 0.7523 0.79874 0.0
H448 H 0.66037 0.65426 0.67812 0.0
N449 N 0.6814 0.76451 0.70786 0.0
C450 C 0.6653 0.74332 0.70271 0.0
C451 C 0.6442 0.79283 0.71684 0.0
C452 C 0.63779 0.74614 0.70495 0.0
C453 C 0.67136 0.7891 0.71411 0.0
C454 C 0.62734 0.77126 0.7124 0.0
N455 N 0.70308 0.71645 0.69445 0.0
C456 C 0.71473 0.69285 0.6857 0.0
C457 C 0.66024 0.69634 0.6898 0.0
C458 C 0.67642 0.71866 0.6952 0.0
C459 C 0.67212 0.67188 0.68241 0.0
C460 C 0.69947 0.67018 0.68002 0.0
H461 H 0.6063 0.77423 0.71444 0.0
H462 H 0.60046 0.72568 0.70148 0.0
H463 H 0.62008 0.68214 0.68825 0.0
O464 O 0.74082 0.74851 0.63435 0.0
O465 O 0.70795 0.73503 0.76459 0.0
O466 O 0.74185 0.71591 0.80455 0.0
O467 O 0.71289 0.77961 0.64639 0.0
O468 O 0.76401 0.73141 0.70125 0.0
O469 O 0.77141 0.71367 0.77299 0.0
O470 O 0.75928 0.75449 0.89095 0.0
O471 O 0.78907 0.76619 0.75489 0.0
O472 O 0.75543 0.78873 0.72128 0.0
O473 O 0.78779 0.72507 0.8724 0.0
O474 O 0.73062 0.77038 0.82208 0.0
O475 O 0.72747 0.79057 0.75214 0.0
C476 C 0.71684 0.71772 0.79413 0.0
C477 C 0.71044 0.7576 0.57539 0.0
C478 C 0.70682 0.75202 0.49271 0.0
C479 C 0.6812 0.7422 0.49886 0.0
C480 C 0.68475 0.74797 0.58028 0.0
C481 C 0.67032 0.74019 0.54231 0.0
C482 C 0.72151 0.75946 0.53145 0.0
C483 C 0.77487 0.71389 0.72847 0.0
C484 C 0.72555 0.76606 0.6158 0.0
C485 C 0.62164 0.7239 0.69975 0.0
C486 C 0.63282 0.69909 0.69218 0.0
C487 C 0.78061 0.78521 0.72845 0.0
C488 C 0.79256 0.74534 0.94478 0.0
C489 C 0.79798 0.75167 0.02702 0.0
C490 C 0.82381 0.76047 0.01905 0.0
C491 C 0.81847 0.75397 0.93801 0.0
C492 C 0.78233 0.74433 0.98939 0.0
C493 C 0.8339 0.76159 0.97491 0.0
C494 C 0.7203 0.78815 0.79488 0.0
C495 C 0.77611 0.73725 0.90575 0.0
H496 H 0.66957 0.73584 0.47002 0.0
H497 H 0.67571 0.74662 0.61335 0.0
H498 H 0.65056 0.73268 0.54657 0.0
H499 H 0.74124 0.76718 0.52742 0.0
H500 H 0.8362 0.76672 0.04698 0.0
H501 H 0.82689 0.75469 0.90431 0.0
H502 H 0.76242 0.73738 0.99479 0.0
H503 H 0.85382 0.76835 0.96928 0.0
Eu504 Eu 0.50076 0.52054 0.07652 0.0
C505 C 0.45612 0.43462 0.95044 0.0
N506 N 0.48179 0.43948 0.95959 0.0
C507 C 0.48938 0.3936 0.97279 0.0
C508 C 0.44574 0.40897 0.95405 0.0
C509 C 0.4987 0.41944 0.96915 0.0
C510 C 0.4627 0.38838 0.96579 0.0
C511 C 0.41381 0.45086 0.92554 0.0
C512 C 0.44043 0.45533 0.93641 0.0
C513 C 0.40301 0.42559 0.93118 0.0
C514 C 0.41897 0.40467 0.94524 0.0
Eu515 Eu 0.49604 0.48348 0.95398 0.0
N516 N 0.45158 0.47945 0.93069 0.0
C517 C 0.3991 0.4717 0.90776 0.0
C518 C 0.43795 0.49906 0.90954 0.0
C519 C 0.41138 0.49575 0.89888 0.0
H520 H 0.51929 0.42354 0.97462 0.0
H521 H 0.40052 0.51162 0.88316 0.0
H522 H 0.45477 0.56886 0.07226 0.0
H523 H 0.60481 0.53171 0.11539 0.0
H524 H 0.44757 0.51716 0.90003 0.0
H525 H 0.37859 0.46909 0.899 0.0
H526 H 0.56219 0.50819 0.10907 0.0
H527 H 0.50271 0.37777 0.98117 0.0
H528 H 0.38253 0.42186 0.9235 0.0
H529 H 0.41054 0.38515 0.94831 0.0
H530 H 0.45287 0.61635 0.0555 0.0
H531 H 0.45549 0.36838 0.96888 0.0
H532 H 0.60764 0.57895 0.09514 0.0
N533 N 0.49641 0.56677 0.06729 0.0
C534 C 0.51917 0.5808 0.06643 0.0
C535 C 0.47168 0.60654 0.05772 0.0
C536 C 0.51909 0.6082 0.05871 0.0
C537 C 0.47281 0.57948 0.0662 0.0
C538 C 0.49494 0.62089 0.05297 0.0
N539 N 0.54172 0.54179 0.08503 0.0
C540 C 0.56342 0.52887 0.1006 0.0
C541 C 0.56624 0.58217 0.07918 0.0
C542 C 0.54246 0.56804 0.07654 0.0
C543 C 0.58897 0.56878 0.09266 0.0
C544 C 0.58746 0.5421 0.10412 0.0
H545 H 0.49401 0.6419 0.0469 0.0
H546 H 0.5433 0.64315 0.05222 0.0
H547 H 0.58463 0.62033 0.0701 0.0
O548 O 0.50485 0.4993 0.14091 0.0
O549 O 0.53376 0.5227 0.02377 0.0
O550 O 0.51158 0.52521 0.95674 0.0
O551 O 0.48935 0.53862 0.14122 0.0
O552 O 0.52 0.48035 0.07257 0.0
O553 O 0.53179 0.47278 0.99698 0.0
O554 O 0.49391 0.47913 0.87926 0.0
O555 O 0.48155 0.46356 0.01912 0.0
O556 O 0.46381 0.49746 0.06003 0.0
O557 O 0.531 0.4729 0.91502 0.0
O558 O 0.47901 0.52475 0.96033 0.0
O559 O 0.46372 0.52754 0.03422 0.0
C560 C 0.53117 0.53246 0.98271 0.0
C561 C 0.47467 0.50977 0.19899 0.0
C562 C 0.46249 0.49973 0.27789 0.0
C563 C 0.43684 0.49395 0.2629 0.0
C564 C 0.44905 0.50384 0.18498 0.0
C565 C 0.43027 0.49593 0.21683 0.0
C566 C 0.48136 0.50764 0.24532 0.0
C567 C 0.53466 0.46887 0.04124 0.0
C568 C 0.49465 0.51793 0.16554 0.0
C569 C 0.54294 0.62216 0.05872 0.0
C570 C 0.56647 0.60918 0.06903 0.0
C571 C 0.46365 0.47271 0.04724 0.0
C572 C 0.53224 0.46758 0.83258 0.0
C573 C 0.53475 0.46963 0.74935 0.0
C574 C 0.56038 0.45951 0.7514 0.0
C575 C 0.55785 0.4573 0.83349 0.0
C576 C 0.52054 0.47334 0.79014 0.0
C577 C 0.57171 0.4532 0.79316 0.0
C578 C 0.46256 0.53422 0.99087 0.0
C579 C 0.51876 0.47349 0.87612 0.0
H580 H 0.42166 0.48825 0.28683 0.0
H581 H 0.44361 0.50542 0.14948 0.0
H582 H 0.41048 0.49143 0.2058 0.0
H583 H 0.50135 0.51183 0.25575 0.0
H584 H 0.57161 0.45634 0.72052 0.0
H585 H 0.56732 0.45262 0.86549 0.0
H586 H 0.50089 0.48149 0.78884 0.0
H587 H 0.59145 0.44535 0.79429 0.0
Eu588 Eu 0.99839 0.48348 0.57215 0.0
C589 C 0.04206 0.57518 0.46075 0.0
N590 N 0.01624 0.56918 0.46619 0.0
C591 C 0.00668 0.61392 0.48566 0.0
C592 C 0.05141 0.60081 0.46942 0.0
C593 C 0.99836 0.58814 0.47703 0.0
C594 C 0.03336 0.62022 0.48232 0.0
C595 C 0.08598 0.56117 0.44028 0.0
C596 C 0.05909 0.55551 0.44663 0.0
C597 C 0.09558 0.58646 0.45029 0.0
C598 C 0.07834 0.60624 0.4648 0.0
Eu599 Eu 0.00382 0.52516 0.45306 0.0
N600 N 0.04918 0.53122 0.4372 0.0
C601 C 0.10229 0.54144 0.42284 0.0
C602 C 0.06458 0.51274 0.41657 0.0
C603 C 0.09143 0.5173 0.41012 0.0
H604 H 0.97776 0.58319 0.47973 0.0
H605 H 0.10364 0.50232 0.39469 0.0
H606 H 0.04592 0.43695 0.56772 0.0
H607 H 0.89472 0.46819 0.61007 0.0
H608 H 0.05622 0.49465 0.40406 0.0
H609 H 0.12306 0.545 0.41747 0.0
H610 H 0.93653 0.49323 0.60464 0.0
H611 H 0.99255 0.62886 0.49504 0.0
H612 H 0.11624 0.59106 0.44608 0.0
H613 H 0.08598 0.62574 0.47182 0.0
H614 H 0.0497 0.38966 0.54984 0.0
H615 H 0.03978 0.64016 0.4893 0.0
H616 H 0.89352 0.42117 0.58788 0.0
N617 N 0.00429 0.43753 0.5619 0.0
C618 C 0.98208 0.42273 0.55983 0.0
C619 C 0.03054 0.39877 0.55186 0.0
C620 C 0.98321 0.39542 0.55154 0.0
C621 C 0.02834 0.4257 0.56105 0.0
C622 C 0.00785 0.38364 0.54615 0.0
N623 N 0.95815 0.4607 0.57916 0.0
C624 C 0.936 0.47265 0.5953 0.0
C625 C 0.93502 0.4196 0.57173 0.0
C626 C 0.9583 0.43459 0.56964 0.0
C627 C 0.91182 0.43202 0.58572 0.0
C628 C 0.91242 0.45856 0.59833 0.0
H629 H 0.00959 0.36273 0.53962 0.0
H630 H 0.9603 0.35967 0.54391 0.0
H631 H 0.91806 0.38087 0.5617 0.0
O632 O 0.99175 0.50358 0.63688 0.0
O633 O 0.96566 0.48151 0.51912 0.0
O634 O 0.98784 0.48363 0.45147 0.0
O635 O 0.01129 0.46617 0.63683 0.0
O636 O 0.97832 0.52331 0.5694 0.0
O637 O 0.96659 0.53249 0.49432 0.0
O638 O 0.00965 0.53089 0.37971 0.0
O639 O 0.01656 0.5423 0.52123 0.0
O640 O 0.03511 0.50706 0.55685 0.0
O641 O 0.9719 0.53901 0.40963 0.0
O642 O 0.02037 0.48373 0.45492 0.0
O643 O 0.03526 0.47771 0.5285 0.0
C644 C 0.96828 0.47482 0.47619 0.0
C645 C 0.022 0.49619 0.69584 0.0
C646 C 0.03159 0.50808 0.775 0.0
C647 C 0.05573 0.51875 0.76053 0.0
C648 C 0.04624 0.50677 0.68242 0.0
C649 C 0.06298 0.518 0.71463 0.0
C650 C 0.01479 0.4967 0.74219 0.0
C651 C 0.9633 0.53495 0.53882 0.0
C652 C 0.00354 0.48596 0.66149 0.0
C653 C 0.95986 0.38061 0.55078 0.0
C654 C 0.93581 0.39267 0.56099 0.0
C655 C 0.03462 0.53231 0.54789 0.0
C656 C 0.97239 0.51991 0.33572 0.0
C657 C 0.96972 0.50572 0.25585 0.0
C658 C 0.94943 0.48821 0.26816 0.0
C659 C 0.95231 0.50198 0.34682 0.0
C660 C 0.98101 0.52172 0.29009 0.0
C661 C 0.94091 0.48636 0.31321 0.0
C662 C 0.036 0.47227 0.48459 0.0
C663 C 0.98503 0.53587 0.37188 0.0
H664 H 0.0692 0.52741 0.78483 0.0
H665 H 0.05207 0.50647 0.647 0.0
H666 H 0.08163 0.52623 0.70396 0.0
H667 H 0.9959 0.4888 0.75248 0.0
H668 H 0.93988 0.47603 0.24284 0.0
H669 H 0.94544 0.49993 0.38155 0.0
H670 H 0.99685 0.53513 0.28156 0.0
H671 H 0.92539 0.4727 0.32215 0.0
H672 H 0.03299 0.08421 0.47892 0.0
H673 H 0.06487 0.11469 0.44543 0.0
H674 H 0.11426 0.04937 0.40795 0.0
H675 H 0.083 0.01878 0.44338 0.0
H676 H 0.1242 0.11587 0.46949 0.0
H677 H 0.09992 0.0963 0.28768 0.0
H678 H 0.07649 0.09067 0.33296 0.0
H679 H 0.10364 0.06869 0.32565 0.0
C680 C 0.0508 0.07633 0.46422 0.0
C681 C 0.05551 0.04907 0.46413 0.0
C682 C 0.06888 0.09376 0.4447 0.0
C683 C 0.09178 0.08425 0.42391 0.0
C684 C 0.09655 0.05706 0.42345 0.0
H685 H 0.21702 0.16514 0.27513 0.0
H686 H 0.18614 0.13243 0.30561 0.0
C687 C 0.07862 0.03962 0.44356 0.0
C688 C 0.11096 0.10292 0.40372 0.0
H689 H 0.13371 0.12694 0.30239 0.0
C690 C 0.12634 0.11833 0.43297 0.0
C691 C 0.11384 0.10578 0.35612 0.0
C692 C 0.09759 0.08963 0.32349 0.0
C693 C 0.14468 0.13654 0.4159 0.0
C694 C 0.14705 0.1401 0.36817 0.0
C695 C 0.13182 0.12437 0.33891 0.0
C696 C 0.1651 0.16014 0.34812 0.0
C697 C 0.16174 0.15129 0.4493 0.0
C698 C 0.1632 0.18673 0.36084 0.0
C699 C 0.18093 0.20533 0.34376 0.0
C700 C 0.20057 0.19785 0.31275 0.0
C701 C 0.20196 0.17145 0.29878 0.0
C702 C 0.18437 0.15276 0.31626 0.0
H703 H 0.16348 0.14054 0.4821 0.0
H704 H 0.18178 0.15458 0.43541 0.0
H705 H 0.15275 0.17071 0.45662 0.0
H706 H 0.14802 0.19313 0.38419 0.0
H707 H 0.17916 0.22564 0.35455 0.0
H708 H 0.08343 0.95467 0.49785 0.0
H709 H 0.11552 0.9219 0.52347 0.0
H710 H 0.06819 0.90654 0.64251 0.0
H711 H 0.03559 0.93803 0.61604 0.0
H712 H 0.14542 0.92004 0.5975 0.0
H713 H 0.08008 0.83313 0.59865 0.0
H714 H 0.07072 0.86381 0.57242 0.0
H715 H 0.06685 0.85913 0.6329 0.0
C716 C 0.07971 0.94397 0.52911 0.0
C717 C 0.05688 0.94882 0.55473 0.0
C718 C 0.09812 0.92537 0.54385 0.0
C719 C 0.09406 0.91132 0.58452 0.0
C720 C 0.07146 0.9165 0.6104 0.0
H721 H 0.21202 0.83484 0.75098 0.0
H722 H 0.18122 0.86541 0.71538 0.0
C723 C 0.05296 0.93479 0.59545 0.0
C724 C 0.11376 0.89191 0.6009 0.0
H725 H 0.12003 0.82922 0.64141 0.0
C726 C 0.13992 0.90009 0.60666 0.0
C727 C 0.10679 0.86569 0.61206 0.0
C728 C 0.07965 0.85484 0.6032 0.0
C729 C 0.15904 0.88308 0.62464 0.0
C730 C 0.15163 0.85744 0.63863 0.0
C731 C 0.12567 0.849 0.63147 0.0
C732 C 0.17039 0.83897 0.66063 0.0
C733 C 0.18705 0.89269 0.62776 0.0
C734 C 0.17398 0.81358 0.64282 0.0
C735 C 0.19086 0.79579 0.66417 0.0
C736 C 0.20457 0.80299 0.70383 0.0
C737 C 0.20122 0.82848 0.72129 0.0
C738 C 0.18402 0.84617 0.70032 0.0
H739 H 0.19099 0.90868 0.60285 0.0
H740 H 0.19059 0.90075 0.66233 0.0
H741 H 0.20121 0.87647 0.62158 0.0
H742 H 0.1637 0.8075 0.61229 0.0
H743 H 0.19303 0.7763 0.64967 0.0
H744 H 0.32394 0.8113 0.7408 0.0
H745 H 0.3567 0.84204 0.77068 0.0
H746 H 0.31292 0.84808 0.89607 0.0
H747 H 0.28114 0.81629 0.86778 0.0
H748 H 0.35643 0.89104 0.79839 0.0
H749 H 0.38288 0.82891 0.94567 0.0
H750 H 0.36213 0.81711 0.90035 0.0
H751 H 0.34852 0.83645 0.94611 0.0
C752 C 0.32137 0.819 0.77486 0.0
C753 C 0.3002 0.81075 0.80223 0.0
C754 C 0.34009 0.83669 0.79185 0.0
C755 C 0.33778 0.84675 0.83626 0.0
C756 C 0.31576 0.83981 0.86244 0.0
H757 H 0.41865 0.98345 0.94605 0.0
H758 H 0.38806 0.95302 0.90913 0.0
C759 C 0.2974 0.82176 0.84593 0.0
C760 C 0.35829 0.86444 0.85542 0.0
H761 H 0.39721 0.87372 0.9487 0.0
C762 C 0.36551 0.88714 0.83109 0.0
C763 C 0.37069 0.85909 0.8976 0.0
C764 C 0.36587 0.83391 0.92364 0.0
C765 C 0.38415 0.90497 0.84836 0.0
C766 C 0.39516 0.90049 0.89194 0.0
C767 C 0.38847 0.87744 0.91565 0.0
C768 C 0.41383 0.91923 0.91359 0.0
C769 C 0.39227 0.92805 0.8192 0.0
C770 C 0.43812 0.91025 0.93 0.0
C771 C 0.45542 0.92752 0.95172 0.0
C772 C 0.44886 0.95418 0.95722 0.0
C773 C 0.42447 0.96313 0.9413 0.0
C774 C 0.40703 0.94578 0.91998 0.0
H775 H 0.38857 0.9242 0.78253 0.0
H776 H 0.38062 0.94558 0.82908 0.0
H777 H 0.41343 0.93269 0.82369 0.0
H778 H 0.44376 0.88984 0.92588 0.0
H779 H 0.47407 0.92003 0.9638 0.0
H780 H 0.46501 0.05164 0.13188 0.0
H781 H 0.43359 0.08174 0.16647 0.0
H782 H 0.38713 0.08051 0.04387 0.0
H783 H 0.41853 0.04994 1.00876 0.0
H784 H 0.41894 0.1324 0.13196 0.0
H785 H 0.33423 0.06378 0.14933 0.0
H786 H 0.36748 0.05244 0.14069 0.0
H787 H 0.34913 0.0656 0.09383 0.0
C788 C 0.44803 0.05755 0.11221 0.0
C789 C 0.44425 0.04836 0.06748 0.0
C790 C 0.43014 0.07483 0.13208 0.0
C791 C 0.40797 0.08311 0.10791 0.0
C792 C 0.404 0.07403 0.06327 0.0
H793 H 0.30464 0.21295 0.15547 0.0
H794 H 0.33526 0.18026 0.12648 0.0
C795 C 0.42202 0.05675 0.04317 0.0
C796 C 0.38955 0.10192 0.12929 0.0
H797 H 0.32679 0.10846 0.16889 0.0
C798 C 0.39881 0.12717 0.14014 0.0
C799 C 0.36344 0.09485 0.14038 0.0
C800 C 0.3529 0.06764 0.13086 0.0
C801 C 0.38243 0.14579 0.16097 0.0
C802 C 0.35616 0.13894 0.17107 0.0
C803 C 0.347 0.11355 0.16107 0.0
C804 C 0.33757 0.1585 0.18955 0.0
C805 C 0.39323 0.17272 0.172 0.0
C806 C 0.32863 0.15692 0.2347 0.0
C807 C 0.3111 0.17576 0.25171 0.0
C808 C 0.30207 0.1962 0.22353 0.0
C809 C 0.31108 0.19749 0.17823 0.0
C810 C 0.32866 0.17885 0.16149 0.0
H811 H 0.41502 0.17326 0.17019 0.0
H812 H 0.38539 0.1872 0.14723 0.0
H813 H 0.38694 0.17897 0.20657 0.0
H814 H 0.33534 0.14123 0.25676 0.0
H815 H 0.30447 0.17416 0.28666 0.0
H816 H 0.97687 0.93139 0.61014 0.0
H817 H 0.94488 0.89942 0.63918 0.0
H818 H 0.88494 0.93396 0.55455 0.0
H819 H 0.91698 0.96567 0.52504 0.0
H820 H 0.90003 0.90666 0.68625 0.0
H821 H 0.87652 0.85731 0.52272 0.0
H822 H 0.90516 0.87776 0.53042 0.0
H823 H 0.87355 0.89249 0.5206 0.0
C824 C 0.95688 0.93207 0.59763 0.0
C825 C 0.94947 0.9508 0.56488 0.0
C826 C 0.93862 0.91378 0.6142 0.0
C827 C 0.91256 0.9139 0.59849 0.0
C828 C 0.90507 0.9329 0.56626 0.0
H829 H 0.77099 0.83355 0.69068 0.0
H830 H 0.80311 0.86479 0.65953 0.0
C831 C 0.92337 0.95108 0.54946 0.0
C832 C 0.89311 0.89467 0.6169 0.0
H833 H 0.8492 0.8469 0.58576 0.0
C834 C 0.88901 0.89356 0.66423 0.0
C835 C 0.87886 0.87731 0.58829 0.0
C836 C 0.88384 0.87601 0.53772 0.0
C837 C 0.87076 0.87595 0.68348 0.0
C838 C 0.85614 0.85918 0.65474 0.0
C839 C 0.86026 0.86009 0.60757 0.0
C840 C 0.83678 0.84019 0.6733 0.0
C841 C 0.86713 0.87523 0.73444 0.0
C842 C 0.84513 0.81596 0.69082 0.0
C843 C 0.82684 0.79794 0.70807 0.0
C844 C 0.79987 0.804 0.70875 0.0
C845 C 0.79159 0.82827 0.69076 0.0
C846 C 0.80989 0.84617 0.67308 0.0
H847 H 0.87815 0.89119 0.75188 0.0
H848 H 0.84598 0.87693 0.7432 0.0
H849 H 0.87412 0.856 0.74762 0.0
H850 H 0.8658 0.81093 0.69093 0.0
H851 H 0.83384 0.7792 0.72057 0.0
H852 H 0.92837 0.06084 0.54147 0.0
H853 H 0.89481 0.09155 0.51409 0.0
H854 H 0.92388 0.08278 0.377 0.0
H855 H 0.95705 0.05202 0.40359 0.0
H856 H 0.90041 0.13925 0.46875 0.0
H857 H 0.84574 0.06804 0.36195 0.0
H858 H 0.86954 0.05788 0.40389 0.0
H859 H 0.88014 0.06909 0.34872 0.0
C860 C 0.92756 0.06537 0.50547 0.0
C861 C 0.94535 0.05375 0.47476 0.0
C862 C 0.90837 0.08294 0.4899 0.0
C863 C 0.90652 0.08907 0.44337 0.0
C864 C 0.92451 0.07786 0.41287 0.0
H865 H 0.83495 0.22229 0.30999 0.0
H866 H 0.86433 0.19043 0.34552 0.0
C867 C 0.94361 0.06034 0.42829 0.0
C868 C 0.88626 0.10765 0.42649 0.0
H869 H 0.83663 0.11359 0.34905 0.0
C870 C 0.88629 0.1336 0.4429 0.0
C871 C 0.86759 0.10016 0.39322 0.0
C872 C 0.86551 0.07221 0.37623 0.0
C873 C 0.86875 0.15249 0.42578 0.0
C874 C 0.85104 0.14534 0.39074 0.0
C875 C 0.85042 0.11916 0.37549 0.0
C876 C 0.83317 0.16473 0.36906 0.0
C877 C 0.86927 0.17988 0.44561 0.0
C878 C 0.8059 0.16054 0.36918 0.0
C879 C 0.78907 0.17847 0.34795 0.0
C880 C 0.79921 0.20087 0.32594 0.0
C881 C 0.82652 0.20504 0.32597 0.0
C882 C 0.84334 0.18703 0.34692 0.0
H883 H 0.87798 0.18004 0.48028 0.0
H884 H 0.8815 0.19277 0.4236 0.0
H885 H 0.84921 0.18836 0.44747 0.0
H886 H 0.79763 0.14338 0.38581 0.0
H887 H 0.76813 0.17463 0.34845 0.0
H888 H 0.7039 0.17113 0.28136 0.0
H889 H 0.67306 0.13828 0.25155 0.0
H890 H 0.66619 0.18256 0.12691 0.0
H891 H 0.69689 0.21537 0.15626 0.0
H892 H 0.62107 0.14459 0.22197 0.0
H893 H 0.68498 0.10853 0.0823 0.0
H894 H 0.6973 0.12827 0.12875 0.0
H895 H 0.68046 0.14357 0.08195 0.0
C896 C 0.69572 0.17392 0.24769 0.0
C897 C 0.70285 0.19586 0.22118 0.0
C898 C 0.67818 0.15511 0.23068 0.0
C899 C 0.66768 0.15778 0.18675 0.0
C900 C 0.6745 0.17982 0.1605 0.0
H901 H 0.53082 0.08488 0.06668 0.0
H902 H 0.56335 0.11473 0.09983 0.0
C903 C 0.69198 0.19861 0.17744 0.0
C904 C 0.64922 0.13782 0.16846 0.0
H905 H 0.64004 0.09522 0.07991 0.0
C906 C 0.62527 0.13366 0.19109 0.0
C907 C 0.65491 0.12333 0.12851 0.0
C908 C 0.68091 0.12591 0.10416 0.0
C909 C 0.60651 0.11592 0.17405 0.0
C910 C 0.61173 0.10234 0.13298 0.0
C911 C 0.63598 0.10592 0.11109 0.0
C912 C 0.59222 0.08435 0.11217 0.0
C913 C 0.58134 0.11169 0.20027 0.0
C914 C 0.59801 0.05754 0.10685 0.0
C915 C 0.57956 0.04049 0.08749 0.0
C916 C 0.55505 0.05 0.07305 0.0
C917 C 0.54951 0.07696 0.07762 0.0
C918 C 0.56797 0.094 0.0969 0.0
H919 H 0.58312 0.11839 0.23615 0.0
H920 H 0.56535 0.1231 0.18397 0.0
H921 H 0.5756 0.09059 0.20011 0.0
H922 H 0.61672 0.04977 0.11805 0.0
H923 H 0.58453 0.01988 0.08376 0.0
H924 H 0.68199 0.77686 0.85604 0.0
H925 H 0.6491 0.80693 0.88749 0.0
H926 H 0.68296 0.87081 0.81004 0.0
H927 H 0.71488 0.84038 0.77667 0.0
H928 H 0.65309 0.84737 0.93921 0.0
H929 H 0.60823 0.8809 0.77823 0.0
H930 H 0.63108 0.85388 0.78027 0.0
H931 H 0.64282 0.88737 0.77856 0.0
C932 C 0.68221 0.79732 0.84559 0.0
C933 C 0.70072 0.80638 0.81381 0.0
C934 C 0.66345 0.81447 0.86351 0.0
C935 C 0.66317 0.84109 0.85053 0.0
C936 C 0.68214 0.85023 0.81945 0.0
H937 H 0.58866 0.96431 1.01062 0.0
H938 H 0.61886 0.93181 0.97824 0.0
C939 C 0.7005 0.83292 0.80068 0.0
C940 C 0.64363 0.85938 0.87078 0.0
H941 H 0.59883 0.90682 0.84431 0.0
C942 C 0.64104 0.8602 0.9184 0.0
C943 C 0.62747 0.87576 0.84373 0.0
C944 C 0.62732 0.87423 0.79239 0.0
C945 C 0.62314 0.8772 0.93971 0.0
C946 C 0.60825 0.8948 0.91276 0.0
C947 C 0.6105 0.89365 0.86511 0.0
C948 C 0.59002 0.91441 0.93302 0.0
C949 C 0.61998 0.87555 0.99075 0.0
C950 C 0.56403 0.9162 0.91726 0.0
C951 C 0.5471 0.93531 0.93465 0.0
C952 C 0.5557 0.95268 0.96864 0.0
C953 C 0.58155 0.95085 0.98478 0.0
C954 C 0.59871 0.93214 0.96657 0.0
H955 H 0.62549 0.85577 1.00371 0.0
H956 H 0.6332 0.89012 1.00712 0.0
H957 H 0.59947 0.87974 1.00138 0.0
H958 H 0.55684 0.90282 0.8914 0.0
H959 H 0.52716 0.9363 0.9219 0.0
H960 H 0.52281 0.57228 0.92242 0.0
H961 H 0.55507 0.60388 0.89271 0.0
H962 H 0.61559 0.56738 0.9734 0.0
H963 H 0.58345 0.53554 1.00278 0.0
H964 H 0.58957 0.63959 0.94624 0.0
H965 H 0.64395 0.56783 0.83859 0.0
H966 H 0.61091 0.56176 0.85859 0.0
H967 H 0.63815 0.55858 0.89689 0.0
C968 C 0.54303 0.57094 0.93363 0.0
C969 C 0.55066 0.55152 0.96498 0.0
C970 C 0.56138 0.58906 0.91684 0.0
C971 C 0.58775 0.58783 0.93056 0.0
C972 C 0.59539 0.56852 0.96203 0.0
H973 H 0.72778 0.67376 0.8449 0.0
H974 H 0.6966 0.64303 0.87962 0.0
C975 C 0.577 0.55049 0.97904 0.0
C976 C 0.60723 0.60673 0.91175 0.0
H977 H 0.66062 0.61112 0.84156 0.0
C978 C 0.60511 0.63343 0.92331 0.0
C979 C 0.62755 0.59856 0.88211 0.0
C980 C 0.63033 0.57017 0.8679 0.0
C981 C 0.62296 0.6522 0.90634 0.0
C982 C 0.64306 0.64414 0.87595 0.0
C983 C 0.64523 0.61734 0.86472 0.0
C984 C 0.66194 0.66315 0.85521 0.0
C985 C 0.62042 0.68036 0.92204 0.0
C986 C 0.65293 0.68461 0.82949 0.0
C987 C 0.67071 0.70242 0.81012 0.0
C988 C 0.69797 0.69886 0.81504 0.0
C989 C 0.70696 0.67717 0.84037 0.0
C990 C 0.68913 0.6595 0.86016 0.0
H991 H 0.60977 0.68171 0.955 0.0
H992 H 0.63998 0.6898 0.92597 0.0
H993 H 0.60908 0.69165 0.89643 0.0
H994 H 0.6321 0.68758 0.82419 0.0
H995 H 0.663 0.71907 0.79155 0.0
H996 H 0.73524 0.3307 0.17804 0.0
H997 H 0.7052 0.3621 0.14223 0.0
H998 H 0.63895 0.31674 0.18985 0.0
H999 H 0.66873 0.28483 0.22402 0.0
H1000 H 0.63391 0.33197 0.10014 0.0
H1001 H 0.66114 0.41702 0.20922 0.0
H1002 H 0.68824 0.40179 0.18027 0.0
H1003 H 0.67037 0.38365 0.2228 0.0
C1004 C 0.71428 0.32737 0.18074 0.0
C1005 C 0.70439 0.30546 0.20453 0.0
C1006 C 0.69713 0.34545 0.16057 0.0
C1007 C 0.66981 0.34202 0.16403 0.0
C1008 C 0.65994 0.31989 0.18699 0.0
H1009 H 0.54478 0.45348 0.12869 0.0
H1010 H 0.57814 0.42287 0.15526 0.0
C1011 C 0.67703 0.30178 0.20689 0.0
C1012 C 0.65137 0.36128 0.14357 0.0
H1013 H 0.63151 0.42538 0.14901 0.0
C1014 C 0.63342 0.35243 0.11067 0.0
C1015 C 0.65056 0.38787 0.15782 0.0
C1016 C 0.66842 0.39818 0.19475 0.0
C1017 C 0.6146 0.3694 0.09174 0.0
C1018 C 0.61407 0.3961 0.10543 0.0
C1019 C 0.63211 0.40497 0.1382 0.0
C1020 C 0.59396 0.41481 0.08831 0.0
C1021 C 0.5949 0.35835 0.05845 0.0
C1022 C 0.59183 0.42069 0.04172 0.0
C1023 C 0.57255 0.43818 0.02621 0.0
C1024 C 0.55519 0.45028 0.05709 0.0
C1025 C 0.55769 0.44454 0.10379 0.0
C1026 C 0.57684 0.42705 0.11916 0.0
H1027 H 0.59391 0.33653 0.06007 0.0
H1028 H 0.57498 0.36637 0.06505 0.0
H1029 H 0.60074 0.36397 0.02336 0.0
H1030 H 0.60516 0.41189 0.01736 0.0
H1031 H 0.57136 0.44226 0.99008 0.0
H1032 H 0.97573 0.44317 0.40242 0.0
H1033 H 0.94401 0.41319 0.36725 0.0
H1034 H 0.88599 0.43545 0.46719 0.0
H1035 H 0.91729 0.4663 0.50119 0.0
H1036 H 0.91883 0.37038 0.40579 0.0
H1037 H 0.84668 0.44458 0.34711 0.0
H1038 H 0.87949 0.45324 0.365 0.0
H1039 H 0.8543 0.44702 0.40664 0.0
C1040 C 0.95615 0.4418 0.4167 0.0
C1041 C 0.94905 0.45681 0.45498 0.0
C1042 C 0.93809 0.42461 0.39667 0.0
C1043 C 0.91257 0.42226 0.41433 0.0
C1044 C 0.90544 0.43724 0.45255 0.0
H1045 H 0.80287 0.2944 0.37631 0.0
H1046 H 0.83479 0.32638 0.40429 0.0
C1047 C 0.92346 0.45454 0.47243 0.0
C1048 C 0.89364 0.40362 0.39348 0.0
H1049 H 0.83295 0.3997 0.34448 0.0
C1050 C 0.90011 0.37679 0.39215 0.0
C1051 C 0.86943 0.41209 0.37502 0.0
C1052 C 0.86211 0.44083 0.37302 0.0
C1053 C 0.88272 0.3581 0.37392 0.0
C1054 C 0.85797 0.36641 0.35745 0.0
C1055 C 0.8518 0.39333 0.35762 0.0
C1056 C 0.83811 0.34741 0.34048 0.0
C1057 C 0.89113 0.32965 0.37204 0.0
C1058 C 0.82864 0.34916 0.29571 0.0
C1059 C 0.8101 0.33103 0.27966 0.0
C1060 C 0.8007 0.31083 0.30814 0.0
C1061 C 0.8098 0.30957 0.3533 0.0
C1062 C 0.82824 0.32771 0.3693 0.0
H1063 H 0.91285 0.32771 0.37348 0.0
H1064 H 0.88278 0.31901 0.40173 0.0
H1065 H 0.88396 0.31995 0.34052 0.0
H1066 H 0.83581 0.36438 0.27303 0.0
H1067 H 0.80324 0.3328 0.24491 0.0
H1068 H 0.79236 0.66745 0.76518 0.0
H1069 H 0.82323 0.63612 0.73079 0.0
H1070 H 0.82815 0.68456 0.61062 0.0
H1071 H 0.79746 0.71589 0.64437 0.0
H1072 H 0.81818 0.61102 0.63199 0.0
H1073 H 0.90614 0.67303 0.66795 0.0
H1074 H 0.87638 0.67534 0.7013 0.0
H1075 H 0.87746 0.68894 0.64503 0.0
C1076 C 0.79997 0.67138 0.7314 0.0
C1077 C 0.79256 0.69421 0.70762 0.0
C1078 C 0.81748 0.65345 0.7118 0.0
C1079 C 0.82793 0.6582 0.66836 0.0
C1080 C 0.82028 0.68068 0.64425 0.0
H1081 H 0.92467 0.56028 0.49029 0.0
H1082 H 0.89086 0.59002 0.52023 0.0
C1083 C 0.80269 0.69849 0.66362 0.0
C1084 C 0.84744 0.64009 0.64846 0.0
H1085 H 0.91289 0.63411 0.62576 0.0
C1086 C 0.83889 0.61598 0.63052 0.0
C1087 C 0.87436 0.64677 0.64686 0.0
C1088 C 0.88435 0.67235 0.66646 0.0
C1089 C 0.85674 0.5983 0.61071 0.0
C1090 C 0.88366 0.60507 0.60879 0.0
C1091 C 0.89217 0.62914 0.62699 0.0
C1092 C 0.90358 0.58684 0.59026 0.0
C1093 C 0.84687 0.57229 0.59277 0.0
C1094 C 0.92195 0.5755 0.61972 0.0
C1095 C 0.94115 0.55857 0.6029 0.0
C1096 C 0.94256 0.55278 0.55607 0.0
C1097 C 0.92414 0.56429 0.5265 0.0
C1098 C 0.90476 0.58118 0.54352 0.0
H1099 H 0.82623 0.56835 0.60312 0.0
H1100 H 0.84784 0.5724 0.55501 0.0
H1101 H 0.85946 0.55595 0.6051 0.0
H1102 H 0.92136 0.57973 0.65587 0.0
H1103 H 0.95501 0.55018 0.62676 0.0
H1104 H 0.33169 0.28585 0.23028 0.0
H1105 H 0.36159 0.31923 0.19993 0.0
H1106 H 0.29547 0.36638 0.15878 0.0
H1107 H 0.26532 0.33353 0.19111 0.0
H1108 H 0.34025 0.35506 0.08946 0.0
H1109 H 0.37115 0.39718 0.25601 0.0
H1110 H 0.37083 0.36185 0.25103 0.0
H1111 H 0.34049 0.37966 0.24884 0.0
C1112 C 0.32347 0.30352 0.2156 0.0
C1113 C 0.29611 0.30722 0.21393 0.0
C1114 C 0.3406 0.32249 0.19792 0.0
C1115 C 0.33074 0.34536 0.17748 0.0
C1116 C 0.30345 0.34889 0.17463 0.0
H1117 H 0.41648 0.48527 0.08652 0.0
H1118 H 0.38358 0.45504 0.11832 0.0
C1119 C 0.28627 0.33005 0.19294 0.0
C1120 C 0.34905 0.36542 0.15883 0.0
H1121 H 0.39399 0.41203 0.19038 0.0
C1122 C 0.35189 0.36763 0.11144 0.0
C1123 C 0.36416 0.38178 0.18767 0.0
C1124 C 0.36152 0.38027 0.23877 0.0
C1125 C 0.36995 0.38543 0.09216 0.0
C1126 C 0.38542 0.40145 0.12102 0.0
C1127 C 0.38213 0.39967 0.16838 0.0
C1128 C 0.40549 0.41978 0.1025 0.0
C1129 C 0.3726 0.38693 0.04107 0.0
C1130 C 0.42888 0.40998 0.0838 0.0
C1131 C 0.44788 0.4272 0.06643 0.0
C1132 C 0.44372 0.45454 0.0667 0.0
C1133 C 0.42034 0.46432 0.08585 0.0
C1134 C 0.40147 0.44709 0.10385 0.0
H1135 H 0.35622 0.3767 0.02339 0.0
H1136 H 0.37323 0.40776 0.02963 0.0
H1137 H 0.39133 0.37752 0.03067 0.0
H1138 H 0.43251 0.38898 0.08297 0.0
H1139 H 0.46595 0.41907 0.05316 0.0
H1140 H 0.46572 0.56616 0.91673 0.0
H1141 H 0.43306 0.59748 0.88916 0.0
H1142 H 0.38272 0.57862 1.00277 0.0
H1143 H 0.41529 0.54673 0.03037 0.0
H1144 H 0.37791 0.58419 0.86798 0.0
H1145 H 0.38981 0.66185 1.00019 0.0
H1146 H 0.41501 0.63776 0.98852 0.0
H1147 H 0.38607 0.62838 0.0194 0.0
C1148 C 0.4477 0.56862 0.93591 0.0
C1149 C 0.44303 0.55392 0.97569 0.0
C1150 C 0.4291 0.58657 0.92014 0.0
C1151 C 0.40558 0.59044 0.94404 0.0
C1152 C 0.40091 0.57608 0.98411 0.0
H1153 H 0.26754 0.67 0.83321 0.0
H1154 H 0.29719 0.63847 0.86963 0.0
C1155 C 0.41949 0.55792 0.99981 0.0
C1156 C 0.38573 0.60894 0.92585 0.0
H1157 H 0.35769 0.66909 0.94366 0.0
C1158 C 0.37334 0.60269 0.8846 0.0
C1159 C 0.38009 0.63312 0.94748 0.0
C1160 C 0.39348 0.64093 0.99123 0.0
C1161 C 0.35545 0.62007 0.86423 0.0
C1162 C 0.34968 0.64426 0.8859 0.0
C1163 C 0.36207 0.65049 0.92724 0.0
C1164 C 0.33143 0.66366 0.8654 0.0
C1165 C 0.34337 0.61267 0.81911 0.0
C1166 C 0.34069 0.68851 0.85191 0.0
C1167 C 0.32374 0.70662 0.83149 0.0
C1168 C 0.29722 0.70021 0.82426 0.0
C1169 C 0.28789 0.67548 0.8384 0.0
C1170 C 0.30483 0.65739 0.8589 0.0
H1171 H 0.35456 0.59679 0.8018 0.0
H1172 H 0.32303 0.60552 0.82485 0.0
H1173 H 0.34242 0.62996 0.79615 0.0
H1174 H 0.36113 0.69377 0.85672 0.0
H1175 H 0.33135 0.72568 0.82152 0.0
H1176 H 0.18526 0.71969 0.66805 0.0
H1177 H 0.15401 0.68694 0.63995 0.0
H1178 H 0.17615 0.6342 0.74828 0.0
H1179 H 0.20778 0.66695 0.77647 0.0
H1180 H 0.16705 0.63424 0.61207 0.0
H1181 H 0.09402 0.63724 0.75323 0.0
H1182 H 0.11731 0.6635 0.74325 0.0
H1183 H 0.12792 0.63338 0.76916 0.0
C1184 C 0.18341 0.70115 0.68601 0.0
C1185 C 0.19886 0.69586 0.72454 0.0
C1186 C 0.16555 0.6825 0.66994 0.0
C1187 C 0.16265 0.65827 0.69223 0.0
C1188 C 0.17786 0.65296 0.73101 0.0
H1189 H 0.08394 0.52037 0.57745 0.0
H1190 H 0.11557 0.54999 0.61425 0.0
C1191 C 0.19586 0.67164 0.74707 0.0
C1192 C 0.14435 0.63835 0.67355 0.0
H1193 H 0.08646 0.60642 0.69437 0.0
C1194 C 0.1495 0.62802 0.63013 0.0
C1195 C 0.12138 0.63055 0.69709 0.0
C1196 C 0.11458 0.6418 0.74314 0.0
C1197 C 0.13222 0.6101 0.60949 0.0
C1198 C 0.10933 0.60217 0.63311 0.0
C1199 C 0.10417 0.61244 0.67658 0.0
C1200 C 0.09004 0.58397 0.61232 0.0
C1201 C 0.13811 0.60032 0.56206 0.0
C1202 C 0.06515 0.59323 0.59975 0.0
C1203 C 0.0471 0.57637 0.57891 0.0
C1204 C 0.05361 0.54997 0.57046 0.0
C1205 C 0.07842 0.54064 0.58363 0.0
C1206 C 0.09651 0.55753 0.60442 0.0
H1207 H 0.1541 0.61177 0.5455 0.0
H1208 H 0.14422 0.57939 0.5637 0.0
H1209 H 0.12027 0.60145 0.54048 0.0
H1210 H 0.05982 0.61358 0.60562 0.0
H1211 H 0.02799 0.58398 0.56963 0.0
H1212 H 0.20129 0.33338 0.25265 0.0
H1213 H 0.16993 0.36507 0.28482 0.0
H1214 H 0.15501 0.31232 0.39709 0.0
H1215 H 0.18515 0.28038 0.36435 0.0
H1216 H 0.11069 0.33294 0.36745 0.0
H1217 H 0.18412 0.41243 0.39254 0.0
H1218 H 0.18132 0.40175 0.33449 0.0
H1219 H 0.19327 0.37933 0.37706 0.0
C1220 C 0.19101 0.32849 0.28384 0.0
C1221 C 0.19581 0.30452 0.30614 0.0
C1222 C 0.17339 0.34671 0.30251 0.0
C1223 C 0.16059 0.34132 0.34397 0.0
C1224 C 0.16478 0.31702 0.36531 0.0
H1225 H 0.08292 0.45583 0.52114 0.0
H1226 H 0.11318 0.42301 0.48912 0.0
C1227 C 0.18211 0.29881 0.34657 0.0
C1228 C 0.14271 0.36071 0.36556 0.0
H1229 H 0.13959 0.42322 0.40806 0.0
C1230 C 0.11704 0.35267 0.37636 0.0
C1231 C 0.15119 0.38624 0.37818 0.0
C1232 C 0.17905 0.39542 0.37044 0.0
C1233 C 0.09952 0.36952 0.39887 0.0
C1234 C 0.1076 0.39545 0.40961 0.0
C1235 C 0.13338 0.4034 0.39947 0.0
C1236 C 0.08926 0.41484 0.42986 0.0
C1237 C 0.0727 0.35916 0.41172 0.0
C1238 C 0.06598 0.42123 0.40704 0.0
C1239 C 0.04862 0.43951 0.42551 0.0
C1240 C 0.05433 0.45216 0.46692 0.0
C1241 C 0.07782 0.44606 0.48959 0.0
C1242 C 0.09517 0.4275 0.47117 0.0
H1243 H 0.07269 0.33735 0.41469 0.0
H1244 H 0.06584 0.36763 0.4445 0.0
H1245 H 0.05842 0.36455 0.3848 0.0
H1246 H 0.06131 0.41224 0.3746 0.0
H1247 H 0.03073 0.44385 0.40706 0.0
H1248 H 0.01105 0.04973 0.81845 0.0
H1249 H 0.02672 0.04385 0.8971 0.0
H1250 H 0.959 0.99584 0.92716 0.0
H1251 H 0.94317 1.00186 0.84911 0.0
H1252 H 0.98996 0.05753 0.97962 0.0
H1253 H 0.02817 0.95501 0.975 0.0
H1254 H 0.02729 0.97573 0.92497 0.0
H1255 H 0.99751 0.96155 0.94661 0.0
C1256 C 0.99982 0.03753 0.84166 0.0
C1257 C 0.97588 0.02629 0.82775 0.0
C1258 C 0.00869 0.0343 0.88654 0.0
C1259 C 0.99404 0.01934 0.91784 0.0
C1260 C 0.97067 0.00731 0.90348 0.0
H1261 H 0.00552 0.97477 0.20236 0.0
H1262 H 0.99483 0.97901 0.12158 0.0
C1263 C 0.96163 0.01082 0.85896 0.0
C1264 C 0.00198 0.01771 0.96639 0.0
H1265 H 0.02524 0.97539 0.04713 0.0
C1266 C 0.99792 0.03968 0.99442 0.0
C1267 C 0.01191 0.99427 0.98558 0.0
C1268 C 0.01667 0.97023 0.95665 0.0
C1269 C 0.00305 0.03869 0.04144 0.0
C1270 C 0.01328 0.01529 0.06078 0.0
C1271 C 0.01747 0.99335 0.03248 0.0
C1272 C 0.01956 0.01308 0.11025 0.0
C1273 C 0.99648 0.06245 0.07012 0.0
C1274 C 0.03715 0.03069 0.13099 0.0
C1275 C 0.04294 0.02862 0.17744 0.0
C1276 C 0.03164 0.00858 0.20428 0.0
C1277 C 0.01426 0.99075 0.18321 0.0
C1278 C 0.00831 0.99299 0.13678 0.0
H1279 H 0.98171 0.0752 0.05323 0.0
H1280 H 0.98875 0.05656 0.104 0.0
H1281 H 0.01452 0.07436 0.07529 0.0
H1282 H 0.04659 0.04601 0.1112 0.0
H1283 H 0.0562 0.04291 0.19232 0.0
H1284 H 0.29625 0.76715 0.45731 0.0
H1285 H 0.29814 0.75618 0.37595 0.0
H1286 H 0.2145 0.7673 0.36545 0.0
H1287 H 0.21224 0.77759 0.44656 0.0
H1288 H 0.26755 0.71554 0.32401 0.0
H1289 H 0.2484 0.81829 0.26854 0.0
H1290 H 0.26011 0.81033 0.32491 0.0
H1291 H 0.22621 0.80523 0.31059 0.0
C1292 C 0.27819 0.76688 0.43788 0.0
C1293 C 0.25413 0.7736 0.45856 0.0
C1294 C 0.27934 0.76076 0.39131 0.0
C1295 C 0.25653 0.7614 0.36451 0.0
C1296 C 0.23242 0.7672 0.38529 0.0
H1297 H 0.21676 0.74475 0.07858 0.0
H1298 H 0.218 0.75405 0.16044 0.0
C1299 C 0.23121 0.77317 0.43172 0.0
C1300 C 0.25775 0.75631 0.31468 0.0
H1301 H 0.24827 0.78558 0.21125 0.0
C1302 C 0.26354 0.73085 0.29926 0.0
C1303 C 0.25231 0.7763 0.28253 0.0
C1304 C 0.24659 0.80416 0.29724 0.0
C1305 C 0.26334 0.72464 0.25254 0.0
C1306 C 0.25793 0.74467 0.22022 0.0
C1307 C 0.2524 0.77021 0.23582 0.0
C1308 C 0.25755 0.7395 0.17019 0.0
C1309 C 0.26801 0.69646 0.23847 0.0
C1310 C 0.27954 0.72882 0.14799 0.0
C1311 C 0.27879 0.72332 0.10129 0.0
C1312 C 0.25618 0.72882 0.07548 0.0
C1313 C 0.23451 0.74039 0.09741 0.0
C1314 C 0.23517 0.74562 0.14426 0.0
H1315 H 0.26405 0.68257 0.2669 0.0
H1316 H 0.25545 0.6909 0.20912 0.0
H1317 H 0.28887 0.69409 0.22832 0.0
H1318 H 0.29735 0.72471 0.16677 0.0
H1319 H 0.29599 0.71487 0.08527 0.0
H1320 H 0.48911 0.04356 0.70668 0.0
H1321 H 0.49953 0.04347 0.62517 0.0
H1322 H 0.47553 0.96221 0.61616 0.0
H1323 H 0.46495 0.9622 0.69738 0.0
H1324 H 0.53383 0.01392 0.57439 0.0
H1325 H 0.43182 0.99539 0.51643 0.0
H1326 H 0.4395 0.00447 0.5743 0.0
H1327 H 0.4438 0.97106 0.55547 0.0
C1328 C 0.48624 0.02561 0.68742 0.0
C1329 C 0.47594 0.00297 0.70855 0.0
C1330 C 0.49209 0.02562 0.64076 0.0
C1331 C 0.48775 0.00301 0.61419 0.0
C1332 C 0.47832 0.98013 0.63553 0.0
H1333 H 0.51287 0.96468 0.32745 0.0
H1334 H 0.50242 0.96369 0.40895 0.0
C1335 C 0.47234 0.98014 0.68207 0.0
C1336 C 0.49329 0.00331 0.56433 0.0
H1337 H 0.46519 0.99338 0.45994 0.0
C1338 C 0.51878 0.00955 0.54939 0.0
C1339 C 0.47367 0.99757 0.53157 0.0
C1340 C 0.44561 0.99199 0.54513 0.0
C1341 C 0.52527 0.0098 0.50281 0.0
C1342 C 0.50567 0.00404 0.47012 0.0
C1343 C 0.48021 0.99771 0.485 0.0
C1344 C 0.51114 0.00485 0.42032 0.0
C1345 C 0.55321 0.01576 0.489 0.0
C1346 C 0.51886 0.02845 0.39935 0.0
C1347 C 0.52466 0.02913 0.35277 0.0
C1348 C 0.52282 0.00621 0.32595 0.0
C1349 C 0.51434 0.98274 0.34687 0.0
C1350 C 0.5085 0.9821 0.39354 0.0
H1351 H 0.56709 0.01312 0.5178 0.0
H1352 H 0.55951 0.00295 0.46039 0.0
H1353 H 0.55456 0.03653 0.47753 0.0
H1354 H 0.5204 0.04641 0.41905 0.0
H1355 H 0.53054 0.04769 0.33774 0.0
H1356 H 0.29076 0.30923 0.94324 0.0
H1357 H 0.29719 0.29935 0.86289 0.0
H1358 H 0.23749 0.2392 0.87038 0.0
H1359 H 0.22962 0.25019 0.95024 0.0
H1360 H 0.31353 0.25733 0.82096 0.0
H1361 H 0.21267 0.27795 0.76039 0.0
H1362 H 0.22346 0.2864 0.81699 0.0
H1363 H 0.21353 0.25322 0.80391 0.0
C1364 C 0.27855 0.29423 0.9278 0.0
C1365 C 0.25936 0.28082 0.95354 0.0
C1366 C 0.28247 0.2884 0.88172 0.0
C1367 C 0.26749 0.26887 0.85999 0.0
C1368 C 0.24884 0.25487 0.8858 0.0
H1369 H 0.31741 0.20183 0.59903 0.0
H1370 H 0.30673 0.20922 0.67924 0.0
C1371 C 0.24467 0.2609 0.93187 0.0
C1372 C 0.27204 0.2629 0.81074 0.0
H1373 H 0.24167 0.25793 0.70719 0.0
C1374 C 0.29778 0.25753 0.79614 0.0
C1375 C 0.25163 0.26351 0.77795 0.0
C1376 C 0.22383 0.27085 0.79045 0.0
C1377 C 0.30368 0.25274 0.75008 0.0
C1378 C 0.28314 0.25238 0.71754 0.0
C1379 C 0.2574 0.25788 0.73204 0.0
C1380 C 0.28809 0.24696 0.66825 0.0
C1381 C 0.33207 0.24895 0.73673 0.0
C1382 C 0.28002 0.26499 0.63473 0.0
C1383 C 0.28569 0.26052 0.58861 0.0
C1384 C 0.2997 0.23801 0.57505 0.0
C1385 C 0.30705 0.21961 0.60847 0.0
C1386 C 0.30106 0.2239 0.65442 0.0
H1387 H 0.34561 0.25773 0.76222 0.0
H1388 H 0.33639 0.22759 0.7348 0.0
H1389 H 0.33632 0.25792 0.70303 0.0
H1390 H 0.26984 0.28285 0.64433 0.0
H1391 H 0.27979 0.27507 0.5637 0.0
H1392 H 0.77585 0.28226 0.95797 0.0
H1393 H 0.76121 0.2872 0.87907 0.0
H1394 H 0.7789 0.20557 0.85346 0.0
H1395 H 0.79351 0.20045 0.93225 0.0
H1396 H 0.79919 0.23899 0.78766 0.0
H1397 H 0.69394 0.2608 0.81904 0.0
H1398 H 0.7162 0.28188 0.84936 0.0
H1399 H 0.71513 0.24732 0.86237 0.0
C1400 C 0.77622 0.26525 0.93576 0.0
C1401 C 0.78587 0.24096 0.95146 0.0
C1402 C 0.76784 0.2681 0.89065 0.0
C1403 C 0.76869 0.24667 0.86046 0.0
C1404 C 0.77807 0.22237 0.87614 0.0
H1405 H 0.73204 0.22429 0.57268 0.0
H1406 H 0.74683 0.21876 0.65141 0.0
C1407 C 0.7865 0.21951 0.92115 0.0
C1408 C 0.76079 0.2498 0.81207 0.0
H1409 H 0.70939 0.26662 0.74338 0.0
C1410 C 0.77951 0.2449 0.77794 0.0
C1411 C 0.73513 0.25754 0.79945 0.0
C1412 C 0.71384 0.26197 0.83441 0.0
C1413 C 0.77343 0.24802 0.73159 0.0
C1414 C 0.7478 0.25585 0.71899 0.0
C1415 C 0.72906 0.26068 0.75311 0.0
C1416 C 0.73998 0.2593 0.67064 0.0
C1417 C 0.79468 0.24353 0.69658 0.0
C1418 C 0.73098 0.28384 0.65535 0.0
C1419 C 0.7225 0.28704 0.61044 0.0
C1420 C 0.72267 0.26571 0.57985 0.0
C1421 C 0.73201 0.24121 0.59512 0.0
C1422 C 0.74046 0.23801 0.64014 0.0
H1423 H 0.81459 0.24427 0.71198 0.0
H1424 H 0.792 0.22378 0.68112 0.0
H1425 H 0.79361 0.25841 0.66896 0.0
H1426 H 0.73045 0.30054 0.67827 0.0
H1427 H 0.71577 0.30626 0.59969 0.0
H1428 H 0.75603 0.73841 0.46207 0.0
H1429 H 0.77231 0.73939 0.38331 0.0
H1430 H 0.69821 0.77102 0.33845 0.0
H1431 H 0.68209 0.77065 0.41679 0.0
H1432 H 0.75033 0.71255 0.30831 0.0
H1433 H 0.75139 0.82029 0.27798 0.0
H1434 H 0.74957 0.80624 0.33437 0.0
H1435 H 0.72067 0.80803 0.2994 0.0
C1436 C 0.74341 0.74603 0.43552 0.0
C1437 C 0.71774 0.7544 0.44574 0.0
C1438 C 0.75266 0.74641 0.39051 0.0
C1439 C 0.73657 0.75551 0.35499 0.0
C1440 C 0.71114 0.7643 0.36528 0.0
H1441 H 0.74946 0.76651 0.05925 0.0
H1442 H 0.734 0.76617 0.13846 0.0
C1443 C 0.70187 0.76383 0.41009 0.0
C1444 C 0.74575 0.75465 0.30688 0.0
H1445 H 0.75641 0.7929 0.21285 0.0
C1446 C 0.75187 0.73014 0.28752 0.0
C1447 C 0.74753 0.77758 0.27965 0.0
C1448 C 0.74218 0.80457 0.29893 0.0
C1449 C 0.75924 0.72787 0.24152 0.0
C1450 C 0.76101 0.7508 0.21427 0.0
C1451 C 0.75492 0.77532 0.23365 0.0
C1452 C 0.76986 0.74988 0.16598 0.0
C1453 C 0.76448 0.70087 0.22221 0.0
C1454 C 0.79513 0.74085 0.15508 0.0
C1455 C 0.80394 0.74092 0.10997 0.0
C1456 C 0.78776 0.7502 0.07461 0.0
C1457 C 0.76232 0.75898 0.08552 0.0
C1458 C 0.75353 0.75897 0.13081 0.0
H1459 H 0.75535 0.68516 0.2433 0.0
H1460 H 0.75693 0.69918 0.18687 0.0
H1461 H 0.78599 0.69738 0.22145 0.0
H1462 H 0.80826 0.73414 0.18163 0.0
H1463 H 0.82355 0.73378 0.10279 0.0
H1464 H 0.5552 0.50337 0.68693 0.0
H1465 H 0.54027 0.51103 0.6089 0.0
H1466 H 0.4755 0.45755 0.63073 0.0
H1467 H 0.4899 0.45079 0.70961 0.0
H1468 H 0.53847 0.47692 0.54287 0.0
H1469 H 0.43766 0.51525 0.56691 0.0
H1470 H 0.46058 0.51237 0.61342 0.0
H1471 H 0.44238 0.48405 0.59417 0.0
C1472 C 0.53744 0.49371 0.67527 0.0
C1473 C 0.52359 0.47661 0.70427 0.0
C1474 C 0.52896 0.49801 0.63064 0.0
C1475 C 0.50657 0.48509 0.61374 0.0
C1476 C 0.4924 0.46834 0.64307 0.0
H1477 H 0.4456 0.46277 0.33985 0.0
H1478 H 0.45599 0.45993 0.42095 0.0
C1479 C 0.50067 0.46437 0.68812 0.0
C1480 C 0.49949 0.4877 0.56461 0.0
H1481 H 0.44925 0.50207 0.49142 0.0
C1482 C 0.519 0.48265 0.53178 0.0
C1483 C 0.47406 0.49511 0.5498 0.0
C1484 C 0.45255 0.50226 0.58293 0.0
C1485 C 0.51376 0.4845 0.48492 0.0
C1486 C 0.48832 0.49159 0.47024 0.0
C1487 C 0.46874 0.49657 0.50282 0.0
C1488 C 0.48173 0.4938 0.4211 0.0
C1489 C 0.53536 0.47842 0.45131 0.0
C1490 C 0.49262 0.51393 0.39428 0.0
C1491 C 0.4865 0.51582 0.34789 0.0
C1492 C 0.46937 0.49758 0.32727 0.0
C1493 C 0.45853 0.47743 0.35448 0.0
C1494 C 0.46453 0.47567 0.40089 0.0
H1495 H 0.55238 0.46864 0.46778 0.0
H1496 H 0.52791 0.46556 0.4236 0.0
H1497 H 0.54235 0.49703 0.43562 0.0
H1498 H 0.50572 0.52831 0.40934 0.0
H1499 H 0.49488 0.53186 0.3284 0.0
H1500 H 0.01037 0.46862 0.82736 0.0
H1501 H 1.00043 0.46963 0.90919 0.0
H1502 H 0.02644 0.5503 0.91586 0.0
H1503 H 0.03633 0.54949 0.83421 0.0
H1504 H 0.03905 0.48344 0.98203 0.0
H1505 H 0.95173 0.54905 0.97801 0.0
H1506 H 0.96269 0.53088 0.92865 0.0
H1507 H 0.98016 0.55977 0.94653 0.0
C1508 C 0.01366 0.48667 0.84614 0.0
C1509 C 0.02417 0.50896 0.8242 0.0
C1510 C 0.00811 0.48717 0.89293 0.0
C1511 C 0.01254 0.51009 0.91859 0.0
C1512 C 0.02266 0.53248 0.8967 0.0
H1513 H 0.9836 0.5493 0.20515 0.0
H1514 H 0.99603 0.55086 0.12446 0.0
C1515 C 0.02846 0.53191 0.85007 0.0
C1516 C 0.00744 0.51034 0.96852 0.0
H1517 H 0.96763 0.53679 0.05039 0.0
C1518 C 0.0234 0.49504 0.99702 0.0
C1519 C 0.98724 0.52575 0.98806 0.0
C1520 C 0.96928 0.54221 0.95889 0.0
C1521 C 0.01982 0.49484 0.04455 0.0
C1522 C 0.9992 0.50979 0.06415 0.0
C1523 C 0.98343 0.52533 0.03556 0.0
C1524 C 0.99304 0.50881 0.11387 0.0
C1525 C 0.03858 0.47902 0.07332 0.0
C1526 C 0.98721 0.48471 0.135 0.0
C1527 C 0.98042 0.48373 0.18114 0.0
C1528 C 0.97883 0.50689 0.20739 0.0
C1529 C 0.98489 0.53104 0.18627 0.0
C1530 C 0.9918 0.53198 0.13998 0.0
H1531 H 0.05769 0.47614 0.05572 0.0
H1532 H 0.04227 0.4887 0.1066 0.0
H1533 H 0.02999 0.45928 0.07978 0.0
H1534 H 0.98745 0.46659 0.1156 0.0
H1535 H 0.97624 0.46472 0.1962 0.0
loop_
_geom_bond_atom_site_label_1
_geom_bond_atom_site_label_2
_geom_bond_distance
_geom_bond_site_symmetry_2
_ccdc_geom_bond_type
Eu0 N29 2.601 . S
Eu0 N35 2.548 1_655 S
Eu0 O44 2.459 1_655 S
Eu0 O45 2.364 1_655 S
Eu0 O47 2.441 . S
Eu0 O48 2.280 1_645 S
Eu0 O52 2.346 1_545 S
Eu0 O55 2.385 . S
Eu0 C64 2.790 . S
C1 N2 1.365 1_655 S
C1 C4 1.405 . S
C1 C8 1.448 . S
N2 C1 1.365 1_455 S
N2 C5 1.319 . S
N2 Eu11 2.601 . S
C3 C5 1.397 . S
C3 C6 1.367 . S
C3 H23 0.931 . S
C4 C1 1.405 . S
C4 C6 1.403 1_655 S
C4 C10 1.439 . S
C5 N2 1.319 . S
C5 C3 1.397 . S
C5 H16 0.930 . S
C6 C3 1.367 . S
C6 C4 1.403 1_455 S
C6 H27 0.929 . S
C7 C8 1.430 . S
C7 C9 1.387 . S
C7 C13 1.404 . S
C8 C1 1.448 . S
C8 C7 1.430 . S
C8 N12 1.351 . S
C9 C7 1.387 . S
C9 C10 1.374 . S
C9 H24 0.931 . S
C10 C4 1.439 . S
C10 C9 1.374 . S
C10 H25 0.931 . S
Eu11 N2 2.601 . S
Eu11 N12 2.539 1_455 S
Eu11 O46 2.352 1_565 S
Eu11 O49 2.392 . S
Eu11 O50 2.457 1_455 S
Eu11 O51 2.359 1_455 S
Eu11 O53 2.446 . S
Eu11 O54 2.274 1_465 S
Eu11 C75 2.792 . S
N12 C8 1.351 . S
N12 Eu11 2.539 1_655 S
N12 C14 1.325 . S
C13 C7 1.404 . S
C13 C15 1.366 . S
C13 H21 0.930 . S
C14 N12 1.325 . S
C14 C15 1.416 . S
C14 H20 0.929 . S
C15 C13 1.366 . S
C15 C14 1.416 . S
C15 H17 0.930 . S
H16 C5 0.930 . S
H17 C15 0.930 . S
H18 C33 0.930 . S
H19 C40 0.930 . S
H20 C14 0.929 . S
H21 C13 0.930 . S
H22 C36 0.929 . S
H23 C3 0.931 . S
H24 C9 0.931 . S
H25 C10 0.931 . S
H26 C31 0.931 . S
H27 C6 0.929 . S
H28 C39 0.930 . S
N29 Eu0 2.601 . S
N29 C30 1.365 1_655 S
N29 C33 1.319 . S
C30 N29 1.365 1_455 S
C30 C32 1.405 . S
C30 C38 1.448 . S
C31 H26 0.931 . S
C31 C33 1.397 . S
C31 C34 1.367 . S
C32 C30 1.405 . S
C32 C34 1.403 1_455 S
C32 C65 1.439 . S
C33 H18 0.930 . S
C33 N29 1.319 . S
C33 C31 1.397 . S
C34 C31 1.367 . S
C34 C32 1.403 1_655 S
C34 H41 0.929 . S
N35 Eu0 2.548 1_455 S
N35 C36 1.325 . S
N35 C38 1.351 . S
C36 H22 0.929 . S
C36 N35 1.325 . S
C36 C40 1.416 . S
C37 C38 1.430 . S
C37 C39 1.404 . S
C37 C66 1.387 . S
C38 C30 1.448 . S
C38 N35 1.351 . S
C38 C37 1.430 . S
C39 H28 0.930 . S
C39 C37 1.404 . S
C39 C40 1.366 . S
C40 H19 0.930 . S
C40 C36 1.416 . S
C40 C39 1.366 . S
H41 C34 0.929 . S
H42 C65 0.931 . S
H43 C66 0.931 . S
O44 Eu0 2.459 1_455 S
O44 C64 1.252 1_455 S
O45 Eu0 2.364 1_455 S
O45 C56 1.249 . S
O46 Eu11 2.352 1_545 S
O46 C56 1.264 . S
O47 Eu0 2.441 . S
O47 C64 1.268 . S
O48 Eu0 2.280 1_465 S
O48 C63 1.255 . S
O49 Eu11 2.392 . S
O49 C63 1.257 . S
O50 Eu11 2.457 1_655 S
O50 C75 1.252 1_655 S
O51 Eu11 2.359 1_655 S
O51 C67 1.249 . S
O52 Eu0 2.346 1_565 S
O52 C67 1.264 . S
O53 Eu11 2.446 . S
O53 C75 1.268 . S
O54 Eu11 2.274 1_645 S
O54 C74 1.255 . S
O55 Eu0 2.385 . S
O55 C74 1.257 . S
C56 O45 1.249 . S
C56 O46 1.264 . S
C57 C60 1.382 . S
C57 C62 1.392 1_545 S
C57 C64 1.506 . S
C58 C59 1.384 1_565 S
C58 C62 1.391 . S
C59 C58 1.384 1_545 S
C59 C61 1.372 . S
C59 H76 0.931 . S
C60 C57 1.382 . S
C60 C61 1.390 . S
C60 H77 0.931 . S
C61 C59 1.372 . S
C61 C60 1.390 . S
C61 H78 0.929 . S
C62 C57 1.392 1_565 S
C62 C58 1.391 . S
C62 H79 0.928 1_655 S
C63 O48 1.255 . S
C63 O49 1.257 . S
C64 Eu0 2.790 . S
C64 O44 1.252 1_655 S
C64 O47 1.268 . S
C64 C57 1.506 . S
C65 C32 1.439 . S
C65 H42 0.931 . S
C65 C66 1.374 . S
C66 C37 1.387 . S
C66 H43 0.931 . S
C66 C65 1.374 . S
C67 O51 1.249 . S
C67 O52 1.264 . S
C68 C71 1.382 . S
C68 C72 1.385 1_565 S
C68 C75 1.506 . S
C69 C70 1.378 1_545 S
C69 C72 1.391 . S
C70 C69 1.378 1_565 S
C70 C73 1.372 . S
C70 H80 0.931 . S
C71 C68 1.382 . S
C71 C73 1.390 . S
C71 H81 0.931 . S
C72 C68 1.385 1_545 S
C72 C69 1.391 . S
C72 H82 0.934 1_455 S
C73 C70 1.372 . S
C73 C71 1.390 . S
C73 H83 0.929 . S
C74 O54 1.255 . S
C74 O55 1.257 . S
C75 Eu11 2.792 . S
C75 O50 1.252 1_455 S
C75 O53 1.268 . S
C75 C68 1.506 . S
H76 C59 0.931 . S
H77 C60 0.931 . S
H78 C61 0.929 . S
H79 C62 0.928 1_455 S
H80 C70 0.931 . S
H81 C71 0.931 . S
H82 C72 0.934 1_655 S
H83 C73 0.929 . S
Eu84 N113 2.600 . S
Eu84 N119 2.562 . S
Eu84 O128 2.462 . S
Eu84 O129 2.373 . S
Eu84 O131 2.432 . S
Eu84 O132 2.291 . S
Eu84 O136 2.335 . S
Eu84 O139 2.372 . S
Eu84 C148 2.787 . S
C85 N86 1.365 . S
C85 C88 1.405 . S
C85 C92 1.448 . S
N86 C85 1.365 . S
N86 C89 1.319 . S
N86 Eu95 2.600 . S
C87 C89 1.397 . S
C87 C90 1.367 . S
C87 H107 0.931 . S
C88 C85 1.405 . S
C88 C90 1.403 . S
C88 C94 1.439 . S
C89 N86 1.319 . S
C89 C87 1.397 . S
C89 H100 0.930 . S
C90 C87 1.367 . S
C90 C88 1.403 . S
C90 H111 0.929 . S
C91 C92 1.430 . S
C91 C93 1.387 . S
C91 C97 1.404 . S
C92 C85 1.448 . S
C92 C91 1.430 . S
C92 N96 1.351 . S
C93 C91 1.387 . S
C93 C94 1.374 . S
C93 H108 0.931 . S
C94 C88 1.439 . S
C94 C93 1.374 . S
C94 H109 0.931 . S
Eu95 N86 2.600 . S
Eu95 N96 2.562 . S
Eu95 O130 2.335 . S
Eu95 O133 2.372 . S
Eu95 O134 2.462 . S
Eu95 O135 2.373 . S
Eu95 O137 2.432 . S
Eu95 O138 2.291 . S
Eu95 C159 2.787 . S
N96 C92 1.351 . S
N96 Eu95 2.562 . S
N96 C98 1.325 . S
C97 C91 1.404 . S
C97 C99 1.366 . S
C97 H105 0.930 . S
C98 N96 1.325 . S
C98 C99 1.416 . S
C98 H104 0.929 . S
C99 C97 1.366 . S
C99 C98 1.416 . S
C99 H101 0.930 . S
H100 C89 0.930 . S
H101 C99 0.930 . S
H102 C117 0.930 . S
H103 C124 0.930 . S
H104 C98 0.929 . S
H105 C97 0.930 . S
H106 C120 0.929 . S
H107 C87 0.931 . S
H108 C93 0.931 . S
H109 C94 0.931 . S
H110 C115 0.931 . S
H111 C90 0.929 . S
H112 C123 0.930 . S
N113 Eu84 2.600 . S
N113 C114 1.365 . S
N113 C117 1.319 . S
C114 N113 1.365 . S
C114 C116 1.405 . S
C114 C122 1.448 . S
C115 H110 0.931 . S
C115 C117 1.397 . S
C115 C118 1.367 . S
C116 C114 1.405 . S
C116 C118 1.403 . S
C116 C149 1.439 . S
C117 H102 0.930 . S
C117 N113 1.319 . S
C117 C115 1.397 . S
C118 C115 1.367 . S
C118 C116 1.403 . S
C118 H125 0.929 . S
N119 Eu84 2.562 . S
N119 C120 1.325 . S
N119 C122 1.351 . S
C120 H106 0.929 . S
C120 N119 1.325 . S
C120 C124 1.416 . S
C121 C122 1.430 . S
C121 C123 1.404 . S
C121 C150 1.387 . S
C122 C114 1.448 . S
C122 N119 1.351 . S
C122 C121 1.430 . S
C123 H112 0.930 . S
C123 C121 1.404 . S
C123 C124 1.366 . S
C124 H103 0.930 . S
C124 C120 1.416 . S
C124 C123 1.366 . S
H125 C118 0.929 . S
H126 C149 0.931 . S
H127 C150 0.931 . S
O128 Eu84 2.462 . S
O128 C148 1.252 . S
O129 Eu84 2.373 . S
O129 C140 1.249 . S
O130 Eu95 2.335 . S
O130 C140 1.264 . S
O131 Eu84 2.432 . S
O131 C148 1.268 . S
O132 Eu84 2.291 . S
O132 C147 1.255 . S
O133 Eu95 2.372 . S
O133 C147 1.257 . S
O134 Eu95 2.462 . S
O134 C159 1.252 . S
O135 Eu95 2.373 . S
O135 C151 1.249 . S
O136 Eu84 2.335 . S
O136 C151 1.264 . S
O137 Eu95 2.432 . S
O137 C159 1.268 . S
O138 Eu95 2.291 . S
O138 C158 1.255 . S
O139 Eu84 2.372 . S
O139 C158 1.257 . S
C140 O129 1.249 . S
C140 O130 1.264 . S
C141 C144 1.382 . S
C141 C146 1.390 . S
C141 C148 1.506 . S
C142 C143 1.398 . S
C142 C146 1.392 1_554 S
C143 C142 1.398 . S
C143 C145 1.372 . S
C143 H160 0.931 . S
C144 C141 1.382 . S
C144 C145 1.390 1_556 S
C144 H161 0.931 . S
C145 C143 1.372 . S
C145 C144 1.390 1_554 S
C145 H162 0.929 . S
C146 C141 1.390 . S
C146 C142 1.392 1_556 S
C146 H163 0.930 . S
C147 O132 1.255 . S
C147 O133 1.257 . S
C148 Eu84 2.787 . S
C148 O128 1.252 . S
C148 O131 1.268 . S
C148 C141 1.506 . S
C149 C116 1.439 . S
C149 H126 0.931 . S
C149 C150 1.374 . S
C150 C121 1.387 . S
C150 H127 0.931 . S
C150 C149 1.374 . S
C151 O135 1.249 . S
C151 O136 1.264 . S
C152 C155 1.382 . S
C152 C156 1.390 . S
C152 C159 1.506 . S
C153 C154 1.398 . S
C153 C156 1.392 . S
C154 C153 1.398 . S
C154 C157 1.372 . S
C154 H164 0.931 . S
C155 C152 1.382 . S
C155 C157 1.390 . S
C155 H165 0.931 . S
C156 C152 1.390 . S
C156 C153 1.392 . S
C156 H166 0.930 . S
C157 C154 1.372 . S
C157 C155 1.390 . S
C157 H167 0.929 . S
C158 O138 1.255 . S
C158 O139 1.257 . S
C159 Eu95 2.787 . S
C159 O134 1.252 . S
C159 O137 1.268 . S
C159 C152 1.506 . S
H160 C143 0.931 . S
H161 C144 0.931 . S
H162 C145 0.929 . S
H163 C146 0.930 . S
H164 C154 0.931 . S
H165 C155 0.931 . S
H166 C156 0.930 . S
H167 C157 0.929 . S
Eu168 N197 2.600 . S
Eu168 N203 2.562 . S
Eu168 O212 2.462 . S
Eu168 O213 2.373 1_554 S
Eu168 O215 2.432 . S
Eu168 O216 2.291 1_565 S
Eu168 O220 2.335 1_565 S
Eu168 O223 2.372 . S
Eu168 C232 2.787 . S
C169 N170 1.365 . S
C169 C172 1.405 . S
C169 C176 1.448 . S
N170 C169 1.365 . S
N170 C173 1.319 . S
N170 Eu179 2.600 . S
C171 C173 1.397 . S
C171 C174 1.367 . S
C171 H191 0.931 . S
C172 C169 1.405 . S
C172 C174 1.403 . S
C172 C178 1.439 . S
C173 N170 1.319 . S
C173 C171 1.397 . S
C173 H184 0.930 . S
C174 C171 1.367 . S
C174 C172 1.403 . S
C174 H195 0.929 . S
C175 C176 1.430 . S
C175 C177 1.387 . S
C175 C181 1.404 . S
C176 C169 1.448 . S
C176 C175 1.430 . S
C176 N180 1.351 . S
C177 C175 1.387 . S
C177 C178 1.374 . S
C177 H192 0.931 . S
C178 C172 1.439 . S
C178 C177 1.374 . S
C178 H193 0.931 . S
Eu179 N170 2.600 . S
Eu179 N180 2.562 . S
Eu179 O214 2.335 1_545 S
Eu179 O217 2.372 . S
Eu179 O218 2.462 . S
Eu179 O219 2.373 1_556 S
Eu179 O221 2.432 . S
Eu179 O222 2.291 1_545 S
Eu179 C243 2.787 . S
N180 C176 1.351 . S
N180 Eu179 2.562 . S
N180 C182 1.325 . S
C181 C175 1.404 . S
C181 C183 1.366 . S
C181 H189 0.930 . S
C182 N180 1.325 . S
C182 C183 1.416 . S
C182 H188 0.929 . S
C183 C181 1.366 . S
C183 C182 1.416 . S
C183 H185 0.930 . S
H184 C173 0.930 . S
H185 C183 0.930 . S
H186 C201 0.930 . S
H187 C208 0.930 . S
H188 C182 0.929 . S
H189 C181 0.930 . S
H190 C204 0.929 . S
H191 C171 0.931 . S
H192 C177 0.931 . S
H193 C178 0.931 . S
H194 C199 0.931 . S
H195 C174 0.929 . S
H196 C207 0.930 . S
N197 Eu168 2.600 . S
N197 C198 1.365 . S
N197 C201 1.319 . S
C198 N197 1.365 . S
C198 C200 1.405 . S
C198 C206 1.448 . S
C199 H194 0.931 . S
C199 C201 1.397 . S
C199 C202 1.367 . S
C200 C198 1.405 . S
C200 C202 1.403 . S
C200 C233 1.439 . S
C201 H186 0.930 . S
C201 N197 1.319 . S
C201 C199 1.397 . S
C202 C199 1.367 . S
C202 C200 1.403 . S
C202 H209 0.929 . S
N203 Eu168 2.562 . S
N203 C204 1.325 . S
N203 C206 1.351 . S
C204 H190 0.929 . S
C204 N203 1.325 . S
C204 C208 1.416 . S
C205 C206 1.430 . S
C205 C207 1.404 . S
C205 C234 1.387 . S
C206 C198 1.448 . S
C206 N203 1.351 . S
C206 C205 1.430 . S
C207 H196 0.930 . S
C207 C205 1.404 . S
C207 C208 1.366 . S
C208 H187 0.930 . S
C208 C204 1.416 . S
C208 C207 1.366 . S
H209 C202 0.929 . S
H210 C233 0.931 . S
H211 C234 0.931 . S
O212 Eu168 2.462 . S
O212 C232 1.252 . S
O213 Eu168 2.373 1_556 S
O213 C224 1.249 . S
O214 Eu179 2.335 1_565 S
O214 C224 1.264 . S
O215 Eu168 2.432 . S
O215 C232 1.268 . S
O216 Eu168 2.291 1_545 S
O216 C231 1.255 . S
O217 Eu179 2.372 . S
O217 C231 1.257 1_556 S
O218 Eu179 2.462 . S
O218 C243 1.252 . S
O219 Eu179 2.373 1_554 S
O219 C235 1.249 . S
O220 Eu168 2.335 1_545 S
O220 C235 1.264 . S
O221 Eu179 2.432 . S
O221 C243 1.268 . S
O222 Eu179 2.291 1_565 S
O222 C242 1.255 . S
O223 Eu168 2.372 . S
O223 C242 1.257 1_554 S
C224 O213 1.249 . S
C224 O214 1.264 . S
C225 C228 1.382 . S
C225 C230 1.390 1_565 S
C225 C232 1.506 . S
C226 C227 1.398 1_545 S
C226 C230 1.392 . S
C227 C226 1.398 1_565 S
C227 C229 1.372 . S
C227 H244 0.931 . S
C228 C225 1.382 . S
C228 C229 1.390 . S
C228 H245 0.931 . S
C229 C227 1.372 . S
C229 C228 1.390 . S
C229 H246 0.929 . S
C230 C225 1.390 1_545 S
C230 C226 1.392 . S
C230 H247 0.930 . S
C231 O216 1.255 . S
C231 O217 1.257 1_554 S
C232 Eu168 2.787 . S
C232 O212 1.252 . S
C232 O215 1.268 . S
C232 C225 1.506 . S
C233 C200 1.439 . S
C233 H210 0.931 . S
C233 C234 1.374 . S
C234 C205 1.387 . S
C234 H211 0.931 . S
C234 C233 1.374 . S
C235 O219 1.249 . S
C235 O220 1.264 . S
C236 C239 1.382 . S
C236 C240 1.390 1_545 S
C236 C243 1.506 . S
C237 C238 1.398 1_565 S
C237 C240 1.392 . S
C238 C237 1.398 1_545 S
C238 C241 1.372 . S
C238 H248 0.931 . S
C239 C236 1.382 . S
C239 C241 1.390 . S
C239 H249 0.931 . S
C240 C236 1.390 1_565 S
C240 C237 1.392 . S
C240 H250 0.930 . S
C241 C238 1.372 . S
C241 C239 1.390 . S
C241 H251 0.929 . S
C242 O222 1.255 . S
C242 O223 1.257 1_556 S
C243 Eu179 2.787 . S
C243 O218 1.252 . S
C243 O221 1.268 . S
C243 C236 1.506 . S
H244 C227 0.931 . S
H245 C228 0.931 . S
H246 C229 0.929 . S
H247 C230 0.930 . S
H248 C238 0.931 . S
H249 C239 0.931 . S
H250 C240 0.930 . S
H251 C241 0.929 . S
Eu252 N281 2.600 . S
Eu252 N287 2.562 . S
Eu252 O296 2.462 . S
Eu252 O297 2.373 . S
Eu252 O299 2.432 . S
Eu252 O300 2.291 . S
Eu252 O304 2.335 . S
Eu252 O307 2.372 . S
Eu252 C316 2.787 . S
C253 N254 1.365 . S
C253 C256 1.405 . S
C253 C260 1.448 . S
N254 C253 1.365 . S
N254 C257 1.319 . S
N254 Eu263 2.600 . S
C255 C257 1.397 . S
C255 C258 1.367 . S
C255 H275 0.931 . S
C256 C253 1.405 . S
C256 C258 1.403 . S
C256 C262 1.439 . S
C257 N254 1.319 . S
C257 C255 1.397 . S
C257 H268 0.930 . S
C258 C255 1.367 . S
C258 C256 1.403 . S
C258 H279 0.929 . S
C259 C260 1.430 . S
C259 C261 1.387 . S
C259 C265 1.404 . S
C260 C253 1.448 . S
C260 C259 1.430 . S
C260 N264 1.351 . S
C261 C259 1.387 . S
C261 C262 1.374 . S
C261 H276 0.931 . S
C262 C256 1.439 . S
C262 C261 1.374 . S
C262 H277 0.931 . S
Eu263 N254 2.600 . S
Eu263 N264 2.562 . S
Eu263 O298 2.335 . S
Eu263 O301 2.372 . S
Eu263 O302 2.462 . S
Eu263 O303 2.373 . S
Eu263 O305 2.432 . S
Eu263 O306 2.291 . S
Eu263 C327 2.787 . S
N264 C260 1.351 . S
N264 Eu263 2.562 . S
N264 C266 1.325 . S
C265 C259 1.404 . S
C265 C267 1.366 . S
C265 H273 0.930 . S
C266 N264 1.325 . S
C266 C267 1.416 . S
C266 H272 0.929 . S
C267 C265 1.366 . S
C267 C266 1.416 . S
C267 H269 0.930 . S
H268 C257 0.930 . S
H269 C267 0.930 . S
H270 C285 0.930 . S
H271 C292 0.930 . S
H272 C266 0.929 . S
H273 C265 0.930 . S
H274 C288 0.929 . S
H275 C255 0.931 . S
H276 C261 0.931 . S
H277 C262 0.931 . S
H278 C283 0.931 . S
H279 C258 0.929 . S
H280 C291 0.930 . S
N281 Eu252 2.600 . S
N281 C282 1.365 . S
N281 C285 1.319 . S
C282 N281 1.365 . S
C282 C284 1.405 . S
C282 C290 1.448 . S
C283 H278 0.931 . S
C283 C285 1.397 . S
C283 C286 1.367 . S
C284 C282 1.405 . S
C284 C286 1.403 . S
C284 C317 1.439 . S
C285 H270 0.930 . S
C285 N281 1.319 . S
C285 C283 1.397 . S
C286 C283 1.367 . S
C286 C284 1.403 . S
C286 H293 0.929 . S
N287 Eu252 2.562 . S
N287 C288 1.325 . S
N287 C290 1.351 . S
C288 H274 0.929 . S
C288 N287 1.325 . S
C288 C292 1.416 . S
C289 C290 1.430 . S
C289 C291 1.404 . S
C289 C318 1.387 . S
C290 C282 1.448 . S
C290 N287 1.351 . S
C290 C289 1.430 . S
C291 H280 0.930 . S
C291 C289 1.404 . S
C291 C292 1.366 . S
C292 H271 0.930 . S
C292 C288 1.416 . S
C292 C291 1.366 . S
H293 C286 0.929 . S
H294 C317 0.931 . S
H295 C318 0.931 . S
O296 Eu252 2.462 . S
O296 C316 1.252 . S
O297 Eu252 2.373 . S
O297 C308 1.249 . S
O298 Eu263 2.335 . S
O298 C308 1.264 . S
O299 Eu252 2.432 . S
O299 C316 1.268 . S
O300 Eu252 2.291 . S
O300 C315 1.255 . S
O301 Eu263 2.372 . S
O301 C315 1.257 . S
O302 Eu263 2.462 . S
O302 C327 1.252 . S
O303 Eu263 2.373 . S
O303 C319 1.249 . S
O304 Eu252 2.335 . S
O304 C319 1.264 . S
O305 Eu263 2.432 . S
O305 C327 1.268 . S
O306 Eu263 2.291 . S
O306 C326 1.255 . S
O307 Eu252 2.372 . S
O307 C326 1.257 . S
C308 O297 1.249 . S
C308 O298 1.264 . S
C309 C312 1.382 . S
C309 C314 1.390 . S
C309 C316 1.506 . S
C310 C311 1.398 . S
C310 C314 1.392 1_556 S
C311 C310 1.398 . S
C311 C313 1.372 . S
C311 H328 0.931 . S
C312 C309 1.382 . S
C312 C313 1.390 1_554 S
C312 H329 0.931 . S
C313 C311 1.372 . S
C313 C312 1.390 1_556 S
C313 H330 0.929 . S
C314 C309 1.390 . S
C314 C310 1.392 1_554 S
C314 H331 0.930 . S
C315 O300 1.255 . S
C315 O301 1.257 . S
C316 Eu252 2.787 . S
C316 O296 1.252 . S
C316 O299 1.268 . S
C316 C309 1.506 . S
C317 C284 1.439 . S
C317 H294 0.931 . S
C317 C318 1.374 . S
C318 C289 1.387 . S
C318 H295 0.931 . S
C318 C317 1.374 . S
C319 O303 1.249 . S
C319 O304 1.264 . S
C320 C323 1.382 . S
C320 C324 1.390 . S
C320 C327 1.506 . S
C321 C322 1.398 . S
C321 C324 1.392 . S
C322 C321 1.398 . S
C322 C325 1.372 . S
C322 H332 0.931 . S
C323 C320 1.382 . S
C323 C325 1.390 . S
C323 H333 0.931 . S
C324 C320 1.390 . S
C324 C321 1.392 . S
C324 H334 0.930 . S
C325 C322 1.372 . S
C325 C323 1.390 . S
C325 H335 0.929 . S
C326 O306 1.255 . S
C326 O307 1.257 . S
C327 Eu263 2.787 . S
C327 O302 1.252 . S
C327 O305 1.268 . S
C327 C320 1.506 . S
H328 C311 0.931 . S
H329 C312 0.931 . S
H330 C313 0.929 . S
H331 C314 0.930 . S
H332 C322 0.931 . S
H333 C323 0.931 . S
H334 C324 0.930 . S
H335 C325 0.929 . S
Eu336 N365 2.600 . S
Eu336 N371 2.562 . S
Eu336 O380 2.462 . S
Eu336 O381 2.373 . S
Eu336 O383 2.432 . S
Eu336 O384 2.291 . S
Eu336 O388 2.335 . S
Eu336 O391 2.372 . S
Eu336 C400 2.787 . S
C337 N338 1.365 . S
C337 C340 1.405 . S
C337 C344 1.448 . S
N338 C337 1.365 . S
N338 C341 1.319 . S
N338 Eu347 2.600 . S
C339 C341 1.397 . S
C339 C342 1.367 . S
C339 H359 0.931 . S
C340 C337 1.405 . S
C340 C342 1.403 . S
C340 C346 1.439 . S
C341 N338 1.319 . S
C341 C339 1.397 . S
C341 H352 0.930 . S
C342 C339 1.367 . S
C342 C340 1.403 . S
C342 H363 0.929 . S
C343 C344 1.430 . S
C343 C345 1.387 . S
C343 C349 1.404 . S
C344 C337 1.448 . S
C344 C343 1.430 . S
C344 N348 1.351 . S
C345 C343 1.387 . S
C345 C346 1.374 . S
C345 H360 0.931 . S
C346 C340 1.439 . S
C346 C345 1.374 . S
C346 H361 0.931 . S
Eu347 N338 2.600 . S
Eu347 N348 2.562 . S
Eu347 O382 2.335 . S
Eu347 O385 2.372 . S
Eu347 O386 2.462 . S
Eu347 O387 2.373 . S
Eu347 O389 2.432 . S
Eu347 O390 2.291 . S
Eu347 C411 2.787 . S
N348 C344 1.351 . S
N348 Eu347 2.562 . S
N348 C350 1.325 . S
C349 C343 1.404 . S
C349 C351 1.366 . S
C349 H357 0.930 . S
C350 N348 1.325 . S
C350 C351 1.416 . S
C350 H356 0.929 . S
C351 C349 1.366 . S
C351 C350 1.416 . S
C351 H353 0.930 . S
H352 C341 0.930 . S
H353 C351 0.930 . S
H354 C369 0.930 . S
H355 C376 0.930 . S
H356 C350 0.929 . S
H357 C349 0.930 . S
H358 C372 0.929 . S
H359 C339 0.931 . S
H360 C345 0.931 . S
H361 C346 0.931 . S
H362 C367 0.931 . S
H363 C342 0.929 . S
H364 C375 0.930 . S
N365 Eu336 2.600 . S
N365 C366 1.365 . S
N365 C369 1.319 . S
C366 N365 1.365 . S
C366 C368 1.405 . S
C366 C374 1.448 . S
C367 H362 0.931 . S
C367 C369 1.397 . S
C367 C370 1.367 . S
C368 C366 1.405 . S
C368 C370 1.403 . S
C368 C401 1.439 . S
C369 H354 0.930 . S
C369 N365 1.319 . S
C369 C367 1.397 . S
C370 C367 1.367 . S
C370 C368 1.403 . S
C370 H377 0.929 . S
N371 Eu336 2.562 . S
N371 C372 1.325 . S
N371 C374 1.351 . S
C372 H358 0.929 . S
C372 N371 1.325 . S
C372 C376 1.416 . S
C373 C374 1.430 . S
C373 C375 1.404 . S
C373 C402 1.387 . S
C374 C366 1.448 . S
C374 N371 1.351 . S
C374 C373 1.430 . S
C375 H364 0.930 . S
C375 C373 1.404 . S
C375 C376 1.366 . S
C376 H355 0.930 . S
C376 C372 1.416 . S
C376 C375 1.366 . S
H377 C370 0.929 . S
H378 C401 0.931 . S
H379 C402 0.931 . S
O380 Eu336 2.462 . S
O380 C400 1.252 . S
O381 Eu336 2.373 . S
O381 C392 1.249 . S
O382 Eu347 2.335 . S
O382 C392 1.264 . S
O383 Eu336 2.432 . S
O383 C400 1.268 . S
O384 Eu336 2.291 . S
O384 C399 1.255 . S
O385 Eu347 2.372 . S
O385 C399 1.257 . S
O386 Eu347 2.462 . S
O386 C411 1.252 . S
O387 Eu347 2.373 . S
O387 C403 1.249 . S
O388 Eu336 2.335 . S
O388 C403 1.264 . S
O389 Eu347 2.432 . S
O389 C411 1.268 . S
O390 Eu347 2.291 . S
O390 C410 1.255 . S
O391 Eu336 2.372 . S
O391 C410 1.257 . S
C392 O381 1.249 . S
C392 O382 1.264 . S
C393 C396 1.382 . S
C393 C398 1.390 . S
C393 C400 1.506 . S
C394 C395 1.398 . S
C394 C398 1.392 . S
C395 C394 1.398 . S
C395 C397 1.372 . S
C395 H412 0.931 . S
C396 C393 1.382 . S
C396 C397 1.390 . S
C396 H413 0.931 . S
C397 C395 1.372 . S
C397 C396 1.390 . S
C397 H414 0.929 . S
C398 C393 1.390 . S
C398 C394 1.392 . S
C398 H415 0.930 . S
C399 O384 1.255 . S
C399 O385 1.257 . S
C400 Eu336 2.787 . S
C400 O380 1.252 . S
C400 O383 1.268 . S
C400 C393 1.506 . S
C401 C368 1.439 . S
C401 H378 0.931 . S
C401 C402 1.374 . S
C402 C373 1.387 . S
C402 H379 0.931 . S
C402 C401 1.374 . S
C403 O387 1.249 . S
C403 O388 1.264 . S
C404 C407 1.382 . S
C404 C408 1.390 . S
C404 C411 1.506 . S
C405 C406 1.398 . S
C405 C408 1.392 1_556 S
C406 C405 1.398 . S
C406 C409 1.372 . S
C406 H416 0.931 . S
C407 C404 1.382 . S
C407 C409 1.390 1_554 S
C407 H417 0.931 . S
C408 C404 1.390 . S
C408 C405 1.392 1_554 S
C408 H418 0.930 . S
C409 C406 1.372 . S
C409 C407 1.390 1_556 S
C409 H419 0.929 . S
C410 O390 1.255 . S
C410 O391 1.257 . S
C411 Eu347 2.787 . S
C411 O386 1.252 . S
C411 O389 1.268 . S
C411 C404 1.506 . S
H412 C395 0.931 . S
H413 C396 0.931 . S
H414 C397 0.929 . S
H415 C398 0.930 . S
H416 C406 0.931 . S
H417 C407 0.931 . S
H418 C408 0.930 . S
H419 C409 0.929 . S
Eu420 N449 2.600 . S
Eu420 N455 2.562 . S
Eu420 O464 2.462 . S
Eu420 O465 2.373 . S
Eu420 O467 2.432 . S
Eu420 O468 2.291 . S
Eu420 O472 2.335 . S
Eu420 O475 2.372 . S
Eu420 C484 2.787 . S
C421 N422 1.365 . S
C421 C424 1.405 . S
C421 C428 1.448 . S
N422 C421 1.365 . S
N422 C425 1.319 . S
N422 Eu431 2.600 . S
C423 C425 1.397 . S
C423 C426 1.367 . S
C423 H443 0.931 . S
C424 C421 1.405 . S
C424 C426 1.403 . S
C424 C430 1.439 . S
C425 N422 1.319 . S
C425 C423 1.397 . S
C425 H436 0.930 . S
C426 C423 1.367 . S
C426 C424 1.403 . S
C426 H447 0.929 . S
C427 C428 1.430 . S
C427 C429 1.387 . S
C427 C433 1.404 . S
C428 C421 1.448 . S
C428 C427 1.430 . S
C428 N432 1.351 . S
C429 C427 1.387 . S
C429 C430 1.374 . S
C429 H444 0.931 . S
C430 C424 1.439 . S
C430 C429 1.374 . S
C430 H445 0.931 . S
Eu431 N422 2.600 . S
Eu431 N432 2.562 . S
Eu431 O466 2.335 . S
Eu431 O469 2.372 . S
Eu431 O470 2.462 . S
Eu431 O471 2.373 . S
Eu431 O473 2.432 . S
Eu431 O474 2.291 . S
Eu431 C495 2.787 . S
N432 C428 1.351 . S
N432 Eu431 2.562 . S
N432 C434 1.325 . S
C433 C427 1.404 . S
C433 C435 1.366 . S
C433 H441 0.930 . S
C434 N432 1.325 . S
C434 C435 1.416 . S
C434 H440 0.929 . S
C435 C433 1.366 . S
C435 C434 1.416 . S
C435 H437 0.930 . S
H436 C425 0.930 . S
H437 C435 0.930 . S
H438 C453 0.930 . S
H439 C460 0.930 . S
H440 C434 0.929 . S
H441 C433 0.930 . S
H442 C456 0.929 . S
H443 C423 0.931 . S
H444 C429 0.931 . S
H445 C430 0.931 . S
H446 C451 0.931 . S
H447 C426 0.929 . S
H448 C459 0.930 . S
N449 Eu420 2.600 . S
N449 C450 1.365 . S
N449 C453 1.319 . S
C450 N449 1.365 . S
C450 C452 1.405 . S
C450 C458 1.448 . S
C451 H446 0.931 . S
C451 C453 1.397 . S
C451 C454 1.367 . S
C452 C450 1.405 . S
C452 C454 1.403 . S
C452 C485 1.439 . S
C453 H438 0.930 . S
C453 N449 1.319 . S
C453 C451 1.397 . S
C454 C451 1.367 . S
C454 C452 1.403 . S
C454 H461 0.929 . S
N455 Eu420 2.562 . S
N455 C456 1.325 . S
N455 C458 1.351 . S
C456 H442 0.929 . S
C456 N455 1.325 . S
C456 C460 1.416 . S
C457 C458 1.430 . S
C457 C459 1.404 . S
C457 C486 1.387 . S
C458 C450 1.448 . S
C458 N455 1.351 . S
C458 C457 1.430 . S
C459 H448 0.930 . S
C459 C457 1.404 . S
C459 C460 1.366 . S
C460 H439 0.930 . S
C460 C456 1.416 . S
C460 C459 1.366 . S
H461 C454 0.929 . S
H462 C485 0.931 . S
H463 C486 0.931 . S
O464 Eu420 2.462 . S
O464 C484 1.252 . S
O465 Eu420 2.373 . S
O465 C476 1.249 . S
O466 Eu431 2.335 . S
O466 C476 1.264 . S
O467 Eu420 2.432 . S
O467 C484 1.268 . S
O468 Eu420 2.291 . S
O468 C483 1.255 . S
O469 Eu431 2.372 . S
O469 C483 1.257 . S
O470 Eu431 2.462 . S
O470 C495 1.252 . S
O471 Eu431 2.373 . S
O471 C487 1.249 . S
O472 Eu420 2.335 . S
O472 C487 1.264 . S
O473 Eu431 2.432 . S
O473 C495 1.268 . S
O474 Eu431 2.291 . S
O474 C494 1.255 . S
O475 Eu420 2.372 . S
O475 C494 1.257 . S
C476 O465 1.249 . S
C476 O466 1.264 . S
C477 C480 1.382 . S
C477 C482 1.390 . S
C477 C484 1.506 . S
C478 C479 1.398 . S
C478 C482 1.392 . S
C479 C478 1.398 . S
C479 C481 1.372 . S
C479 H496 0.931 . S
C480 C477 1.382 . S
C480 C481 1.390 . S
C480 H497 0.931 . S
C481 C479 1.372 . S
C481 C480 1.390 . S
C481 H498 0.929 . S
C482 C477 1.390 . S
C482 C478 1.392 . S
C482 H499 0.930 . S
C483 O468 1.255 . S
C483 O469 1.257 . S
C484 Eu420 2.787 . S
C484 O464 1.252 . S
C484 O467 1.268 . S
C484 C477 1.506 . S
C485 C452 1.439 . S
C485 H462 0.931 . S
C485 C486 1.374 . S
C486 C457 1.387 . S
C486 H463 0.931 . S
C486 C485 1.374 . S
C487 O471 1.249 . S
C487 O472 1.264 . S
C488 C491 1.382 . S
C488 C492 1.390 . S
C488 C495 1.506 . S
C489 C490 1.398 . S
C489 C492 1.392 1_554 S
C490 C489 1.398 . S
C490 C493 1.372 . S
C490 H500 0.931 . S
C491 C488 1.382 . S
C491 C493 1.390 1_556 S
C491 H501 0.931 . S
C492 C488 1.390 . S
C492 C489 1.392 1_556 S
C492 H502 0.930 . S
C493 C490 1.372 . S
C493 C491 1.390 1_554 S
C493 H503 0.929 . S
C494 O474 1.255 . S
C494 O475 1.257 . S
C495 Eu431 2.787 . S
C495 O470 1.252 . S
C495 O473 1.268 . S
C495 C488 1.506 . S
H496 C479 0.931 . S
H497 C480 0.931 . S
H498 C481 0.929 . S
H499 C482 0.930 . S
H500 C490 0.931 . S
H501 C491 0.931 . S
H502 C492 0.930 . S
H503 C493 0.929 . S
Eu504 N533 2.600 . S
Eu504 N539 2.562 . S
Eu504 O548 2.462 . S
Eu504 O549 2.373 1_554 S
Eu504 O551 2.432 . S
Eu504 O552 2.291 . S
Eu504 O556 2.335 . S
Eu504 O559 2.372 . S
Eu504 C568 2.787 . S
C505 N506 1.365 . S
C505 C508 1.405 . S
C505 C512 1.448 . S
N506 C505 1.365 . S
N506 C509 1.319 . S
N506 Eu515 2.600 . S
C507 C509 1.397 . S
C507 C510 1.367 . S
C507 H527 0.931 . S
C508 C505 1.405 . S
C508 C510 1.403 . S
C508 C514 1.439 . S
C509 N506 1.319 . S
C509 C507 1.397 . S
C509 H520 0.930 . S
C510 C507 1.367 . S
C510 C508 1.403 . S
C510 H531 0.929 . S
C511 C512 1.430 . S
C511 C513 1.387 . S
C511 C517 1.404 . S
C512 C505 1.448 . S
C512 C511 1.430 . S
C512 N516 1.351 . S
C513 C511 1.387 . S
C513 C514 1.374 . S
C513 H528 0.931 . S
C514 C508 1.439 . S
C514 C513 1.374 . S
C514 H529 0.931 . S
Eu515 N506 2.600 . S
Eu515 N516 2.562 . S
Eu515 O550 2.335 . S
Eu515 O553 2.372 . S
Eu515 O554 2.462 . S
Eu515 O555 2.373 1_556 S
Eu515 O557 2.432 . S
Eu515 O558 2.291 . S
Eu515 C579 2.787 . S
N516 C512 1.351 . S
N516 Eu515 2.562 . S
N516 C518 1.325 . S
C517 C511 1.404 . S
C517 C519 1.366 . S
C517 H525 0.930 . S
C518 N516 1.325 . S
C518 C519 1.416 . S
C518 H524 0.929 . S
C519 C517 1.366 . S
C519 C518 1.416 . S
C519 H521 0.930 . S
H520 C509 0.930 . S
H521 C519 0.930 . S
H522 C537 0.930 . S
H523 C544 0.930 . S
H524 C518 0.929 . S
H525 C517 0.930 . S
H526 C540 0.929 . S
H527 C507 0.931 . S
H528 C513 0.931 . S
H529 C514 0.931 . S
H530 C535 0.931 . S
H531 C510 0.929 . S
H532 C543 0.930 . S
N533 Eu504 2.600 . S
N533 C534 1.365 . S
N533 C537 1.319 . S
C534 N533 1.365 . S
C534 C536 1.405 . S
C534 C542 1.448 . S
C535 H530 0.931 . S
C535 C537 1.397 . S
C535 C538 1.367 . S
C536 C534 1.405 . S
C536 C538 1.403 . S
C536 C569 1.439 . S
C537 H522 0.930 . S
C537 N533 1.319 . S
C537 C535 1.397 . S
C538 C535 1.367 . S
C538 C536 1.403 . S
C538 H545 0.929 . S
N539 Eu504 2.562 . S
N539 C540 1.325 . S
N539 C542 1.351 . S
C540 H526 0.929 . S
C540 N539 1.325 . S
C540 C544 1.416 . S
C541 C542 1.430 . S
C541 C543 1.404 . S
C541 C570 1.387 . S
C542 C534 1.448 . S
C542 N539 1.351 . S
C542 C541 1.430 . S
C543 H532 0.930 . S
C543 C541 1.404 . S
C543 C544 1.366 . S
C544 H523 0.930 . S
C544 C540 1.416 . S
C544 C543 1.366 . S
H545 C538 0.929 . S
H546 C569 0.931 . S
H547 C570 0.931 . S
O548 Eu504 2.462 . S
O548 C568 1.252 . S
O549 Eu504 2.373 1_556 S
O549 C560 1.249 . S
O550 Eu515 2.335 . S
O550 C560 1.264 . S
O551 Eu504 2.432 . S
O551 C568 1.268 . S
O552 Eu504 2.291 . S
O552 C567 1.255 . S
O553 Eu515 2.372 . S
O553 C567 1.257 1_556 S
O554 Eu515 2.462 . S
O554 C579 1.252 . S
O555 Eu515 2.373 1_554 S
O555 C571 1.249 . S
O556 Eu504 2.335 . S
O556 C571 1.264 . S
O557 Eu515 2.432 . S
O557 C579 1.268 . S
O558 Eu515 2.291 . S
O558 C578 1.255 . S
O559 Eu504 2.372 . S
O559 C578 1.257 1_554 S
C560 O549 1.249 . S
C560 O550 1.264 . S
C561 C564 1.382 . S
C561 C566 1.390 . S
C561 C568 1.506 . S
C562 C563 1.398 . S
C562 C566 1.392 . S
C563 C562 1.398 . S
C563 C565 1.372 . S
C563 H580 0.931 . S
C564 C561 1.382 . S
C564 C565 1.390 . S
C564 H581 0.931 . S
C565 C563 1.372 . S
C565 C564 1.390 . S
C565 H582 0.929 . S
C566 C561 1.390 . S
C566 C562 1.392 . S
C566 H583 0.930 . S
C567 O552 1.255 . S
C567 O553 1.257 1_554 S
C568 Eu504 2.787 . S
C568 O548 1.252 . S
C568 O551 1.268 . S
C568 C561 1.506 . S
C569 C536 1.439 . S
C569 H546 0.931 . S
C569 C570 1.374 . S
C570 C541 1.387 . S
C570 H547 0.931 . S
C570 C569 1.374 . S
C571 O555 1.249 . S
C571 O556 1.264 . S
C572 C575 1.382 . S
C572 C576 1.390 . S
C572 C579 1.506 . S
C573 C574 1.398 . S
C573 C576 1.392 . S
C574 C573 1.398 . S
C574 C577 1.372 . S
C574 H584 0.931 . S
C575 C572 1.382 . S
C575 C577 1.390 . S
C575 H585 0.931 . S
C576 C572 1.390 . S
C576 C573 1.392 . S
C576 H586 0.930 . S
C577 C574 1.372 . S
C577 C575 1.390 . S
C577 H587 0.929 . S
C578 O558 1.255 . S
C578 O559 1.257 1_556 S
C579 Eu515 2.787 . S
C579 O554 1.252 . S
C579 O557 1.268 . S
C579 C572 1.506 . S
H580 C563 0.931 . S
H581 C564 0.931 . S
H582 C565 0.929 . S
H583 C566 0.930 . S
H584 C574 0.931 . S
H585 C575 0.931 . S
H586 C576 0.930 . S
H587 C577 0.929 . S
Eu588 N617 2.601 . S
Eu588 N623 2.539 1_455 S
Eu588 O632 2.457 1_455 S
Eu588 O633 2.359 1_455 S
Eu588 O635 2.446 . S
Eu588 O636 2.274 1_455 S
Eu588 O640 2.352 . S
Eu588 O643 2.392 . S
Eu588 C652 2.792 . S
C589 N590 1.365 1_455 S
C589 C592 1.405 . S
C589 C596 1.448 . S
N590 C589 1.365 1_655 S
N590 C593 1.319 . S
N590 Eu599 2.601 . S
C591 C593 1.397 . S
C591 C594 1.367 . S
C591 H611 0.931 . S
C592 C589 1.405 . S
C592 C594 1.403 1_455 S
C592 C598 1.439 . S
C593 N590 1.319 . S
C593 C591 1.397 . S
C593 H604 0.930 . S
C594 C591 1.367 . S
C594 C592 1.403 1_655 S
C594 H615 0.929 . S
C595 C596 1.430 . S
C595 C597 1.387 . S
C595 C601 1.404 . S
C596 C589 1.448 . S
C596 C595 1.430 . S
C596 N600 1.351 . S
C597 C595 1.387 . S
C597 C598 1.374 . S
C597 H612 0.931 . S
C598 C592 1.439 . S
C598 C597 1.374 . S
C598 H613 0.931 . S
Eu599 N590 2.601 . S
Eu599 N600 2.548 1_655 S
Eu599 O634 2.346 . S
Eu599 O637 2.385 . S
Eu599 O638 2.459 1_655 S
Eu599 O639 2.364 1_655 S
Eu599 O641 2.441 . S
Eu599 O642 2.280 1_655 S
Eu599 C663 2.790 . S
N600 C596 1.351 . S
N600 Eu599 2.548 1_455 S
N600 C602 1.325 . S
C601 C595 1.404 . S
C601 C603 1.366 . S
C601 H609 0.930 . S
C602 N600 1.325 . S
C602 C603 1.416 . S
C602 H608 0.929 . S
C603 C601 1.366 . S
C603 C602 1.416 . S
C603 H605 0.930 . S
H604 C593 0.930 . S
H605 C603 0.930 . S
H606 C621 0.930 . S
H607 C628 0.930 . S
H608 C602 0.929 . S
H609 C601 0.930 . S
H610 C624 0.929 . S
H611 C591 0.931 . S
H612 C597 0.931 . S
H613 C598 0.931 . S
H614 C619 0.931 . S
H615 C594 0.929 . S
H616 C627 0.930 . S
N617 Eu588 2.601 . S
N617 C618 1.365 1_455 S
N617 C621 1.319 . S
C618 N617 1.365 1_655 S
C618 C620 1.405 . S
C618 C626 1.448 . S
C619 H614 0.931 . S
C619 C621 1.397 . S
C619 C622 1.367 . S
C620 C618 1.405 . S
C620 C622 1.403 1_655 S
C620 C653 1.439 . S
C621 H606 0.930 . S
C621 N617 1.319 . S
C621 C619 1.397 . S
C622 C619 1.367 . S
C622 C620 1.403 1_455 S
C622 H629 0.929 . S
N623 Eu588 2.539 1_655 S
N623 C624 1.325 . S
N623 C626 1.351 . S
C624 H610 0.929 . S
C624 N623 1.325 . S
C624 C628 1.416 . S
C625 C626 1.430 . S
C625 C627 1.404 . S
C625 C654 1.387 . S
C626 C618 1.448 . S
C626 N623 1.351 . S
C626 C625 1.430 . S
C627 H616 0.930 . S
C627 C625 1.404 . S
C627 C628 1.366 . S
C628 H607 0.930 . S
C628 C624 1.416 . S
C628 C627 1.366 . S
H629 C622 0.929 . S
H630 C653 0.931 . S
H631 C654 0.931 . S
O632 Eu588 2.457 1_655 S
O632 C652 1.252 1_655 S
O633 Eu588 2.359 1_655 S
O633 C644 1.249 . S
O634 Eu599 2.346 . S
O634 C644 1.264 . S
O635 Eu588 2.446 . S
O635 C652 1.268 . S
O636 Eu588 2.274 1_655 S
O636 C651 1.255 . S
O637 Eu599 2.385 . S
O637 C651 1.257 . S
O638 Eu599 2.459 1_455 S
O638 C663 1.252 1_455 S
O639 Eu599 2.364 1_455 S
O639 C655 1.249 . S
O640 Eu588 2.352 . S
O640 C655 1.264 . S
O641 Eu599 2.441 . S
O641 C663 1.268 . S
O642 Eu599 2.280 1_455 S
O642 C662 1.255 . S
O643 Eu588 2.392 . S
O643 C662 1.257 . S
C644 O633 1.249 . S
C644 O634 1.264 . S
C645 C648 1.382 . S
C645 C650 1.390 . S
C645 C652 1.506 . S
C646 C647 1.398 . S
C646 C650 1.392 . S
C647 C646 1.398 . S
C647 C649 1.372 . S
C647 H664 0.931 . S
C648 C645 1.382 . S
C648 C649 1.390 . S
C648 H665 0.931 . S
C649 C647 1.372 . S
C649 C648 1.390 . S
C649 H666 0.929 . S
C650 C645 1.390 . S
C650 C646 1.392 . S
C650 H667 0.930 1_455 S
C651 O636 1.255 . S
C651 O637 1.257 . S
C652 Eu588 2.792 . S
C652 O632 1.252 1_455 S
C652 O635 1.268 . S
C652 C645 1.506 . S
C653 C620 1.439 . S
C653 H630 0.931 . S
C653 C654 1.374 . S
C654 C625 1.387 . S
C654 H631 0.931 . S
C654 C653 1.374 . S
C655 O639 1.249 . S
C655 O640 1.264 . S
C656 C659 1.382 . S
C656 C660 1.390 . S
C656 C663 1.506 . S
C657 C658 1.398 . S
C657 C660 1.392 . S
C658 C657 1.398 . S
C658 C661 1.372 . S
C658 H668 0.931 . S
C659 C656 1.382 . S
C659 C661 1.390 . S
C659 H669 0.931 . S
C660 C656 1.390 . S
C660 C657 1.392 . S
C660 H670 0.930 1_655 S
C661 C658 1.372 . S
C661 C659 1.390 . S
C661 H671 0.929 . S
C662 O642 1.255 . S
C662 O643 1.257 . S
C663 Eu599 2.790 . S
C663 O638 1.252 1_655 S
C663 O641 1.268 . S
C663 C656 1.506 . S
H664 C647 0.931 . S
H665 C648 0.931 . S
H666 C649 0.929 . S
H667 C650 0.930 1_655 S
H668 C658 0.931 . S
H669 C659 0.931 . S
H670 C660 0.930 1_455 S
H671 C661 0.929 . S
H672 C680 0.929 . S
H673 C682 0.930 . S
H674 C684 0.930 . S
H675 C687 0.929 . S
H676 C690 0.930 . S
H677 C692 0.960 . S
H678 C692 0.960 . S
H679 C692 0.960 . S
C680 H672 0.929 . S
C680 C681 1.377 . S
C680 C682 1.384 . S
C681 C680 1.377 . S
C681 C687 1.390 . S
C682 H673 0.930 . S
C682 C680 1.384 . S
C682 C683 1.372 . S
C683 C682 1.372 . S
C683 C684 1.400 . S
C683 C688 1.490 . S
C684 H674 0.930 . S
C684 C683 1.400 . S
C684 C687 1.386 . S
H685 C701 0.930 . S
H686 C702 0.931 . S
C687 H675 0.929 . S
C687 C681 1.390 . S
C687 C684 1.386 . S
C688 C683 1.490 . S
C688 C690 1.395 . S
C688 C691 1.403 . S
H689 C695 0.930 . S
C690 H676 0.930 . S
C690 C688 1.395 . S
C690 C693 1.403 . S
C691 C688 1.403 . S
C691 C692 1.524 . S
C691 C695 1.400 . S
C692 H677 0.960 . S
C692 H678 0.960 . S
C692 H679 0.960 . S
C692 C691 1.524 . S
C693 C690 1.403 . S
C693 C694 1.392 . S
C693 C697 1.495 . S
C694 C693 1.392 . S
C694 C695 1.385 . S
C694 C696 1.478 . S
C695 H689 0.930 . S
C695 C691 1.400 . S
C695 C694 1.385 . S
C696 C694 1.478 . S
C696 C698 1.381 . S
C696 C702 1.383 . S
C697 C693 1.495 . S
C697 H703 0.959 . S
C697 H704 0.961 . S
C697 H705 0.960 . S
C698 C696 1.381 . S
C698 C699 1.394 . S
C698 H706 0.930 . S
C699 C698 1.394 . S
C699 C700 1.383 . S
C699 H707 0.929 . S
C700 C699 1.383 . S
C700 C701 1.377 . S
C701 H685 0.930 . S
C701 C700 1.377 . S
C701 C702 1.379 . S
C702 H686 0.931 . S
C702 C696 1.383 . S
C702 C701 1.379 . S
H703 C697 0.959 . S
H704 C697 0.961 . S
H705 C697 0.960 . S
H706 C698 0.930 . S
H707 C699 0.929 . S
H708 C716 0.929 . S
H709 C718 0.930 . S
H710 C720 0.930 . S
H711 C723 0.929 . S
H712 C726 0.930 . S
H713 C728 0.960 . S
H714 C728 0.960 . S
H715 C728 0.960 . S
C716 H708 0.929 . S
C716 C717 1.377 . S
C716 C718 1.384 . S
C717 C716 1.377 . S
C717 C723 1.390 . S
C718 H709 0.930 . S
C718 C716 1.384 . S
C718 C719 1.372 . S
C719 C718 1.372 . S
C719 C720 1.400 . S
C719 C724 1.490 . S
C720 H710 0.930 . S
C720 C719 1.400 . S
C720 C723 1.386 . S
H721 C737 0.930 . S
H722 C738 0.931 . S
C723 H711 0.929 . S
C723 C717 1.390 . S
C723 C720 1.386 . S
C724 C719 1.490 . S
C724 C726 1.395 . S
C724 C727 1.403 . S
H725 C731 0.930 . S
C726 H712 0.930 . S
C726 C724 1.395 . S
C726 C729 1.403 . S
C727 C724 1.403 . S
C727 C728 1.524 . S
C727 C731 1.400 . S
C728 H713 0.960 . S
C728 H714 0.960 . S
C728 H715 0.960 . S
C728 C727 1.524 . S
C729 C726 1.403 . S
C729 C730 1.392 . S
C729 C733 1.495 . S
C730 C729 1.392 . S
C730 C731 1.385 . S
C730 C732 1.478 . S
C731 H725 0.930 . S
C731 C727 1.400 . S
C731 C730 1.385 . S
C732 C730 1.478 . S
C732 C734 1.381 . S
C732 C738 1.383 . S
C733 C729 1.495 . S
C733 H739 0.959 . S
C733 H740 0.961 . S
C733 H741 0.960 . S
C734 C732 1.381 . S
C734 C735 1.394 . S
C734 H742 0.930 . S
C735 C734 1.394 . S
C735 C736 1.383 . S
C735 H743 0.929 . S
C736 C735 1.383 . S
C736 C737 1.377 . S
C737 H721 0.930 . S
C737 C736 1.377 . S
C737 C738 1.379 . S
C738 H722 0.931 . S
C738 C732 1.383 . S
C738 C737 1.379 . S
H739 C733 0.959 . S
H740 C733 0.961 . S
H741 C733 0.960 . S
H742 C734 0.930 . S
H743 C735 0.929 . S
H744 C752 0.929 . S
H745 C754 0.930 . S
H746 C756 0.930 . S
H747 C759 0.929 . S
H748 C762 0.930 . S
H749 C764 0.960 . S
H750 C764 0.960 . S
H751 C764 0.960 . S
C752 H744 0.929 . S
C752 C753 1.377 . S
C752 C754 1.384 . S
C753 C752 1.377 . S
C753 C759 1.390 . S
C754 H745 0.930 . S
C754 C752 1.384 . S
C754 C755 1.372 . S
C755 C754 1.372 . S
C755 C756 1.400 . S
C755 C760 1.490 . S
C756 H746 0.930 . S
C756 C755 1.400 . S
C756 C759 1.386 . S
H757 C773 0.930 . S
H758 C774 0.931 . S
C759 H747 0.929 . S
C759 C753 1.390 . S
C759 C756 1.386 . S
C760 C755 1.490 . S
C760 C762 1.395 . S
C760 C763 1.403 . S
H761 C767 0.930 . S
C762 H748 0.930 . S
C762 C760 1.395 . S
C762 C765 1.403 . S
C763 C760 1.403 . S
C763 C764 1.524 . S
C763 C767 1.400 . S
C764 H749 0.960 . S
C764 H750 0.960 . S
C764 H751 0.960 . S
C764 C763 1.524 . S
C765 C762 1.403 . S
C765 C766 1.392 . S
C765 C769 1.495 . S
C766 C765 1.392 . S
C766 C767 1.385 . S
C766 C768 1.478 . S
C767 H761 0.930 . S
C767 C763 1.400 . S
C767 C766 1.385 . S
C768 C766 1.478 . S
C768 C770 1.381 . S
C768 C774 1.383 . S
C769 C765 1.495 . S
C769 H775 0.959 . S
C769 H776 0.961 . S
C769 H777 0.960 . S
C770 C768 1.381 . S
C770 C771 1.394 . S
C770 H778 0.930 . S
C771 C770 1.394 . S
C771 C772 1.383 . S
C771 H779 0.929 . S
C772 C771 1.383 . S
C772 C773 1.377 . S
C773 H757 0.930 . S
C773 C772 1.377 . S
C773 C774 1.379 . S
C774 H758 0.931 . S
C774 C768 1.383 . S
C774 C773 1.379 . S
H775 C769 0.959 . S
H776 C769 0.961 . S
H777 C769 0.960 . S
H778 C770 0.930 . S
H779 C771 0.929 . S
H780 C788 0.929 . S
H781 C790 0.930 . S
H782 C792 0.930 . S
H783 C795 0.927 . S
H784 C798 0.930 . S
H785 C800 0.960 . S
H786 C800 0.960 . S
H787 C800 0.960 . S
C788 H780 0.929 . S
C788 C789 1.377 . S
C788 C790 1.384 . S
C789 C788 1.377 . S
C789 C795 1.390 . S
C790 H781 0.930 . S
C790 C788 1.384 . S
C790 C791 1.372 . S
C791 C790 1.372 . S
C791 C792 1.400 . S
C791 C796 1.490 . S
C792 H782 0.930 . S
C792 C791 1.400 . S
C792 C795 1.386 . S
H793 C809 0.930 . S
H794 C810 0.931 . S
C795 H783 0.927 . S
C795 C789 1.390 . S
C795 C792 1.386 . S
C796 C791 1.490 . S
C796 C798 1.395 . S
C796 C799 1.403 . S
H797 C803 0.930 . S
C798 H784 0.930 . S
C798 C796 1.395 . S
C798 C801 1.403 . S
C799 C796 1.403 . S
C799 C800 1.524 . S
C799 C803 1.400 . S
C800 H785 0.960 . S
C800 H786 0.960 . S
C800 H787 0.960 . S
C800 C799 1.524 . S
C801 C798 1.403 . S
C801 C802 1.392 . S
C801 C805 1.495 . S
C802 C801 1.392 . S
C802 C803 1.385 . S
C802 C804 1.478 . S
C803 H797 0.930 . S
C803 C799 1.400 . S
C803 C802 1.385 . S
C804 C802 1.478 . S
C804 C806 1.381 . S
C804 C810 1.383 . S
C805 C801 1.495 . S
C805 H811 0.959 . S
C805 H812 0.961 . S
C805 H813 0.960 . S
C806 C804 1.381 . S
C806 C807 1.394 . S
C806 H814 0.930 . S
C807 C806 1.394 . S
C807 C808 1.383 . S
C807 H815 0.929 . S
C808 C807 1.383 . S
C808 C809 1.377 . S
C809 H793 0.930 . S
C809 C808 1.377 . S
C809 C810 1.379 . S
C810 H794 0.931 . S
C810 C804 1.383 . S
C810 C809 1.379 . S
H811 C805 0.959 . S
H812 C805 0.961 . S
H813 C805 0.960 . S
H814 C806 0.930 . S
H815 C807 0.929 . S
H816 C824 0.929 . S
H817 C826 0.930 . S
H818 C828 0.930 . S
H819 C831 0.929 . S
H820 C834 0.930 . S
H821 C836 0.960 . S
H822 C836 0.960 . S
H823 C836 0.960 . S
C824 H816 0.929 . S
C824 C825 1.377 . S
C824 C826 1.384 . S
C825 C824 1.377 . S
C825 C831 1.390 . S
C826 H817 0.930 . S
C826 C824 1.384 . S
C826 C827 1.372 . S
C827 C826 1.372 . S
C827 C828 1.400 . S
C827 C832 1.490 . S
C828 H818 0.930 . S
C828 C827 1.400 . S
C828 C831 1.386 . S
H829 C845 0.930 . S
H830 C846 0.931 . S
C831 H819 0.929 . S
C831 C825 1.390 . S
C831 C828 1.386 . S
C832 C827 1.490 . S
C832 C834 1.395 . S
C832 C835 1.403 . S
H833 C839 0.930 . S
C834 H820 0.930 . S
C834 C832 1.395 . S
C834 C837 1.403 . S
C835 C832 1.403 . S
C835 C836 1.524 . S
C835 C839 1.400 . S
C836 H821 0.960 . S
C836 H822 0.960 . S
C836 H823 0.960 . S
C836 C835 1.524 . S
C837 C834 1.403 . S
C837 C838 1.392 . S
C837 C841 1.495 . S
C838 C837 1.392 . S
C838 C839 1.385 . S
C838 C840 1.478 . S
C839 H833 0.930 . S
C839 C835 1.400 . S
C839 C838 1.385 . S
C840 C838 1.478 . S
C840 C842 1.381 . S
C840 C846 1.383 . S
C841 C837 1.495 . S
C841 H847 0.959 . S
C841 H848 0.961 . S
C841 H849 0.960 . S
C842 C840 1.381 . S
C842 C843 1.394 . S
C842 H850 0.930 . S
C843 C842 1.394 . S
C843 C844 1.383 . S
C843 H851 0.929 . S
C844 C843 1.383 . S
C844 C845 1.377 . S
C845 H829 0.930 . S
C845 C844 1.377 . S
C845 C846 1.379 . S
C846 H830 0.931 . S
C846 C840 1.383 . S
C846 C845 1.379 . S
H847 C841 0.959 . S
H848 C841 0.961 . S
H849 C841 0.960 . S
H850 C842 0.930 . S
H851 C843 0.929 . S
H852 C860 0.929 . S
H853 C862 0.930 . S
H854 C864 0.930 . S
H855 C867 0.929 . S
H856 C870 0.930 . S
H857 C872 0.960 . S
H858 C872 0.960 . S
H859 C872 0.960 . S
C860 H852 0.929 . S
C860 C861 1.377 . S
C860 C862 1.384 . S
C861 C860 1.377 . S
C861 C867 1.390 . S
C862 H853 0.930 . S
C862 C860 1.384 . S
C862 C863 1.372 . S
C863 C862 1.372 . S
C863 C864 1.400 . S
C863 C868 1.490 . S
C864 H854 0.930 . S
C864 C863 1.400 . S
C864 C867 1.386 . S
H865 C881 0.930 . S
H866 C882 0.931 . S
C867 H855 0.929 . S
C867 C861 1.390 . S
C867 C864 1.386 . S
C868 C863 1.490 . S
C868 C870 1.395 . S
C868 C871 1.403 . S
H869 C875 0.930 . S
C870 H856 0.930 . S
C870 C868 1.395 . S
C870 C873 1.403 . S
C871 C868 1.403 . S
C871 C872 1.524 . S
C871 C875 1.400 . S
C872 H857 0.960 . S
C872 H858 0.960 . S
C872 H859 0.960 . S
C872 C871 1.524 . S
C873 C870 1.403 . S
C873 C874 1.392 . S
C873 C877 1.495 . S
C874 C873 1.392 . S
C874 C875 1.385 . S
C874 C876 1.478 . S
C875 H869 0.930 . S
C875 C871 1.400 . S
C875 C874 1.385 . S
C876 C874 1.478 . S
C876 C878 1.381 . S
C876 C882 1.383 . S
C877 C873 1.495 . S
C877 H883 0.959 . S
C877 H884 0.961 . S
C877 H885 0.960 . S
C878 C876 1.381 . S
C878 C879 1.394 . S
C878 H886 0.930 . S
C879 C878 1.394 . S
C879 C880 1.383 . S
C879 H887 0.929 . S
C880 C879 1.383 . S
C880 C881 1.377 . S
C881 H865 0.930 . S
C881 C880 1.377 . S
C881 C882 1.379 . S
C882 H866 0.931 . S
C882 C876 1.383 . S
C882 C881 1.379 . S
H883 C877 0.959 . S
H884 C877 0.961 . S
H885 C877 0.960 . S
H886 C878 0.930 . S
H887 C879 0.929 . S
H888 C896 0.929 . S
H889 C898 0.930 . S
H890 C900 0.930 . S
H891 C903 0.929 . S
H892 C906 0.930 . S
H893 C908 0.960 . S
H894 C908 0.960 . S
H895 C908 0.960 . S
C896 H888 0.929 . S
C896 C897 1.377 . S
C896 C898 1.384 . S
C897 C896 1.377 . S
C897 C903 1.390 . S
C898 H889 0.930 . S
C898 C896 1.384 . S
C898 C899 1.372 . S
C899 C898 1.372 . S
C899 C900 1.400 . S
C899 C904 1.490 . S
C900 H890 0.930 . S
C900 C899 1.400 . S
C900 C903 1.386 . S
H901 C917 0.930 . S
H902 C918 0.931 . S
C903 H891 0.929 . S
C903 C897 1.390 . S
C903 C900 1.386 . S
C904 C899 1.490 . S
C904 C906 1.395 . S
C904 C907 1.403 . S
H905 C911 0.930 . S
C906 H892 0.930 . S
C906 C904 1.395 . S
C906 C909 1.403 . S
C907 C904 1.403 . S
C907 C908 1.524 . S
C907 C911 1.400 . S
C908 H893 0.960 . S
C908 H894 0.960 . S
C908 H895 0.960 . S
C908 C907 1.524 . S
C909 C906 1.403 . S
C909 C910 1.392 . S
C909 C913 1.495 . S
C910 C909 1.392 . S
C910 C911 1.385 . S
C910 C912 1.478 . S
C911 H905 0.930 . S
C911 C907 1.400 . S
C911 C910 1.385 . S
C912 C910 1.478 . S
C912 C914 1.381 . S
C912 C918 1.383 . S
C913 C909 1.495 . S
C913 H919 0.959 . S
C913 H920 0.961 . S
C913 H921 0.960 . S
C914 C912 1.381 . S
C914 C915 1.394 . S
C914 H922 0.930 . S
C915 C914 1.394 . S
C915 C916 1.383 . S
C915 H923 0.929 . S
C916 C915 1.383 . S
C916 C917 1.377 . S
C917 H901 0.930 . S
C917 C916 1.377 . S
C917 C918 1.379 . S
C918 H902 0.931 . S
C918 C912 1.383 . S
C918 C917 1.379 . S
H919 C913 0.959 . S
H920 C913 0.961 . S
H921 C913 0.960 . S
H922 C914 0.930 . S
H923 C915 0.929 . S
H924 C932 0.929 . S
H925 C934 0.930 . S
H926 C936 0.930 . S
H927 C939 0.929 . S
H928 C942 0.930 . S
H929 C944 0.960 . S
H930 C944 0.960 . S
H931 C944 0.960 . S
C932 H924 0.929 . S
C932 C933 1.377 . S
C932 C934 1.384 . S
C933 C932 1.377 . S
C933 C939 1.390 . S
C934 H925 0.930 . S
C934 C932 1.384 . S
C934 C935 1.372 . S
C935 C934 1.372 . S
C935 C936 1.400 . S
C935 C940 1.490 . S
C936 H926 0.930 . S
C936 C935 1.400 . S
C936 C939 1.386 . S
H937 C953 0.930 . S
H938 C954 0.931 . S
C939 H927 0.929 . S
C939 C933 1.390 . S
C939 C936 1.386 . S
C940 C935 1.490 . S
C940 C942 1.395 . S
C940 C943 1.403 . S
H941 C947 0.930 . S
C942 H928 0.930 . S
C942 C940 1.395 . S
C942 C945 1.403 . S
C943 C940 1.403 . S
C943 C944 1.524 . S
C943 C947 1.400 . S
C944 H929 0.960 . S
C944 H930 0.960 . S
C944 H931 0.960 . S
C944 C943 1.524 . S
C945 C942 1.403 . S
C945 C946 1.392 . S
C945 C949 1.495 . S
C946 C945 1.392 . S
C946 C947 1.385 . S
C946 C948 1.478 . S
C947 H941 0.930 . S
C947 C943 1.400 . S
C947 C946 1.385 . S
C948 C946 1.478 . S
C948 C950 1.381 . S
C948 C954 1.383 . S
C949 C945 1.495 . S
C949 H955 0.959 . S
C949 H956 0.961 . S
C949 H957 0.960 . S
C950 C948 1.381 . S
C950 C951 1.394 . S
C950 H958 0.930 . S
C951 C950 1.394 . S
C951 C952 1.383 . S
C951 H959 0.929 . S
C952 C951 1.383 . S
C952 C953 1.377 . S
C953 H937 0.930 . S
C953 C952 1.377 . S
C953 C954 1.379 . S
C954 H938 0.931 . S
C954 C948 1.383 . S
C954 C953 1.379 . S
H955 C949 0.959 . S
H956 C949 0.961 . S
H957 C949 0.960 . S
H958 C950 0.930 . S
H959 C951 0.929 . S
H960 C968 0.929 . S
H961 C970 0.930 . S
H962 C972 0.930 . S
H963 C975 0.929 . S
H964 C978 0.930 . S
H965 C980 0.960 . S
H966 C980 0.960 . S
H967 C980 0.960 . S
C968 H960 0.929 . S
C968 C969 1.377 . S
C968 C970 1.384 . S
C969 C968 1.377 . S
C969 C975 1.390 . S
C970 H961 0.930 . S
C970 C968 1.384 . S
C970 C971 1.372 . S
C971 C970 1.372 . S
C971 C972 1.400 . S
C971 C976 1.490 . S
C972 H962 0.930 . S
C972 C971 1.400 . S
C972 C975 1.386 . S
H973 C989 0.930 . S
H974 C990 0.931 . S
C975 H963 0.929 . S
C975 C969 1.390 . S
C975 C972 1.386 . S
C976 C971 1.490 . S
C976 C978 1.395 . S
C976 C979 1.403 . S
H977 C983 0.930 . S
C978 H964 0.930 . S
C978 C976 1.395 . S
C978 C981 1.403 . S
C979 C976 1.403 . S
C979 C980 1.524 . S
C979 C983 1.400 . S
C980 H965 0.960 . S
C980 H966 0.960 . S
C980 H967 0.960 . S
C980 C979 1.524 . S
C981 C978 1.403 . S
C981 C982 1.392 . S
C981 C985 1.495 . S
C982 C981 1.392 . S
C982 C983 1.385 . S
C982 C984 1.478 . S
C983 H977 0.930 . S
C983 C979 1.400 . S
C983 C982 1.385 . S
C984 C982 1.478 . S
C984 C986 1.381 . S
C984 C990 1.383 . S
C985 C981 1.495 . S
C985 H991 0.959 . S
C985 H992 0.961 . S
C985 H993 0.960 . S
C986 C984 1.381 . S
C986 C987 1.394 . S
C986 H994 0.930 . S
C987 C986 1.394 . S
C987 C988 1.383 . S
C987 H995 0.929 . S
C988 C987 1.383 . S
C988 C989 1.377 . S
C989 H973 0.930 . S
C989 C988 1.377 . S
C989 C990 1.379 . S
C990 H974 0.931 . S
C990 C984 1.383 . S
C990 C989 1.379 . S
H991 C985 0.959 . S
H992 C985 0.961 . S
H993 C985 0.960 . S
H994 C986 0.930 . S
H995 C987 0.929 . S
H996 C1004 0.929 . S
H997 C1006 0.930 . S
H998 C1008 0.930 . S
H999 C1011 0.929 . S
H1000 C1014 0.930 . S
H1001 C1016 0.960 . S
H1002 C1016 0.960 . S
H1003 C1016 0.960 . S
C1004 H996 0.929 . S
C1004 C1005 1.377 . S
C1004 C1006 1.384 . S
C1005 C1004 1.377 . S
C1005 C1011 1.390 . S
C1006 H997 0.930 . S
C1006 C1004 1.384 . S
C1006 C1007 1.372 . S
C1007 C1006 1.372 . S
C1007 C1008 1.400 . S
C1007 C1012 1.490 . S
C1008 H998 0.930 . S
C1008 C1007 1.400 . S
C1008 C1011 1.386 . S
H1009 C1025 0.930 . S
H1010 C1026 0.931 . S
C1011 H999 0.929 . S
C1011 C1005 1.390 . S
C1011 C1008 1.386 . S
C1012 C1007 1.490 . S
C1012 C1014 1.395 . S
C1012 C1015 1.403 . S
H1013 C1019 0.930 . S
C1014 H1000 0.930 . S
C1014 C1012 1.395 . S
C1014 C1017 1.403 . S
C1015 C1012 1.403 . S
C1015 C1016 1.524 . S
C1015 C1019 1.400 . S
C1016 H1001 0.960 . S
C1016 H1002 0.960 . S
C1016 H1003 0.960 . S
C1016 C1015 1.524 . S
C1017 C1014 1.403 . S
C1017 C1018 1.392 . S
C1017 C1021 1.495 . S
C1018 C1017 1.392 . S
C1018 C1019 1.385 . S
C1018 C1020 1.478 . S
C1019 H1013 0.930 . S
C1019 C1015 1.400 . S
C1019 C1018 1.385 . S
C1020 C1018 1.478 . S
C1020 C1022 1.381 . S
C1020 C1026 1.383 . S
C1021 C1017 1.495 . S
C1021 H1027 0.959 . S
C1021 H1028 0.961 . S
C1021 H1029 0.960 . S
C1022 C1020 1.381 . S
C1022 C1023 1.394 . S
C1022 H1030 0.930 . S
C1023 C1022 1.394 . S
C1023 C1024 1.383 . S
C1023 H1031 0.929 1_554 S
C1024 C1023 1.383 . S
C1024 C1025 1.377 . S
C1025 H1009 0.930 . S
C1025 C1024 1.377 . S
C1025 C1026 1.379 . S
C1026 H1010 0.931 . S
C1026 C1020 1.383 . S
C1026 C1025 1.379 . S
H1027 C1021 0.959 . S
H1028 C1021 0.961 . S
H1029 C1021 0.960 . S
H1030 C1022 0.930 . S
H1031 C1023 0.929 1_556 S
H1032 C1040 0.929 . S
H1033 C1042 0.930 . S
H1034 C1044 0.930 . S
H1035 C1047 0.929 . S
H1036 C1050 0.930 . S
H1037 C1052 0.960 . S
H1038 C1052 0.960 . S
H1039 C1052 0.960 . S
C1040 H1032 0.929 . S
C1040 C1041 1.377 . S
C1040 C1042 1.384 . S
C1041 C1040 1.377 . S
C1041 C1047 1.390 . S
C1042 H1033 0.930 . S
C1042 C1040 1.384 . S
C1042 C1043 1.372 . S
C1043 C1042 1.372 . S
C1043 C1044 1.400 . S
C1043 C1048 1.490 . S
C1044 H1034 0.930 . S
C1044 C1043 1.400 . S
C1044 C1047 1.386 . S
H1045 C1061 0.930 . S
H1046 C1062 0.931 . S
C1047 H1035 0.929 . S
C1047 C1041 1.390 . S
C1047 C1044 1.386 . S
C1048 C1043 1.490 . S
C1048 C1050 1.395 . S
C1048 C1051 1.403 . S
H1049 C1055 0.930 . S
C1050 H1036 0.930 . S
C1050 C1048 1.395 . S
C1050 C1053 1.403 . S
C1051 C1048 1.403 . S
C1051 C1052 1.524 . S
C1051 C1055 1.400 . S
C1052 H1037 0.960 . S
C1052 H1038 0.960 . S
C1052 H1039 0.960 . S
C1052 C1051 1.524 . S
C1053 C1050 1.403 . S
C1053 C1054 1.392 . S
C1053 C1057 1.495 . S
C1054 C1053 1.392 . S
C1054 C1055 1.385 . S
C1054 C1056 1.478 . S
C1055 H1049 0.930 . S
C1055 C1051 1.400 . S
C1055 C1054 1.385 . S
C1056 C1054 1.478 . S
C1056 C1058 1.381 . S
C1056 C1062 1.383 . S
C1057 C1053 1.495 . S
C1057 H1063 0.959 . S
C1057 H1064 0.961 . S
C1057 H1065 0.960 . S
C1058 C1056 1.381 . S
C1058 C1059 1.394 . S
C1058 H1066 0.930 . S
C1059 C1058 1.394 . S
C1059 C1060 1.383 . S
C1059 H1067 0.929 . S
C1060 C1059 1.383 . S
C1060 C1061 1.377 . S
C1061 H1045 0.930 . S
C1061 C1060 1.377 . S
C1061 C1062 1.379 . S
C1062 H1046 0.931 . S
C1062 C1056 1.383 . S
C1062 C1061 1.379 . S
H1063 C1057 0.959 . S
H1064 C1057 0.961 . S
H1065 C1057 0.960 . S
H1066 C1058 0.930 . S
H1067 C1059 0.929 . S
H1068 C1076 0.929 . S
H1069 C1078 0.930 . S
H1070 C1080 0.930 . S
H1071 C1083 0.929 . S
H1072 C1086 0.930 . S
H1073 C1088 0.960 . S
H1074 C1088 0.960 . S
H1075 C1088 0.960 . S
C1076 H1068 0.929 . S
C1076 C1077 1.377 . S
C1076 C1078 1.384 . S
C1077 C1076 1.377 . S
C1077 C1083 1.390 . S
C1078 H1069 0.930 . S
C1078 C1076 1.384 . S
C1078 C1079 1.372 . S
C1079 C1078 1.372 . S
C1079 C1080 1.400 . S
C1079 C1084 1.490 . S
C1080 H1070 0.930 . S
C1080 C1079 1.400 . S
C1080 C1083 1.386 . S
H1081 C1097 0.930 . S
H1082 C1098 0.931 . S
C1083 H1071 0.929 . S
C1083 C1077 1.390 . S
C1083 C1080 1.386 . S
C1084 C1079 1.490 . S
C1084 C1086 1.395 . S
C1084 C1087 1.403 . S
H1085 C1091 0.930 . S
C1086 H1072 0.930 . S
C1086 C1084 1.395 . S
C1086 C1089 1.403 . S
C1087 C1084 1.403 . S
C1087 C1088 1.524 . S
C1087 C1091 1.400 . S
C1088 H1073 0.960 . S
C1088 H1074 0.960 . S
C1088 H1075 0.960 . S
C1088 C1087 1.524 . S
C1089 C1086 1.403 . S
C1089 C1090 1.392 . S
C1089 C1093 1.495 . S
C1090 C1089 1.392 . S
C1090 C1091 1.385 . S
C1090 C1092 1.478 . S
C1091 H1085 0.930 . S
C1091 C1087 1.400 . S
C1091 C1090 1.385 . S
C1092 C1090 1.478 . S
C1092 C1094 1.381 . S
C1092 C1098 1.383 . S
C1093 C1089 1.495 . S
C1093 H1099 0.959 . S
C1093 H1100 0.961 . S
C1093 H1101 0.960 . S
C1094 C1092 1.381 . S
C1094 C1095 1.394 . S
C1094 H1102 0.930 . S
C1095 C1094 1.394 . S
C1095 C1096 1.383 . S
C1095 H1103 0.929 . S
C1096 C1095 1.383 . S
C1096 C1097 1.377 . S
C1097 H1081 0.930 . S
C1097 C1096 1.377 . S
C1097 C1098 1.379 . S
C1098 H1082 0.931 . S
C1098 C1092 1.383 . S
C1098 C1097 1.379 . S
H1099 C1093 0.959 . S
H1100 C1093 0.961 . S
H1101 C1093 0.960 . S
H1102 C1094 0.930 . S
H1103 C1095 0.929 . S
H1104 C1112 0.929 . S
H1105 C1114 0.930 . S
H1106 C1116 0.930 . S
H1107 C1119 0.929 . S
H1108 C1122 0.930 . S
H1109 C1124 0.960 . S
H1110 C1124 0.960 . S
H1111 C1124 0.960 . S
C1112 H1104 0.929 . S
C1112 C1113 1.377 . S
C1112 C1114 1.384 . S
C1113 C1112 1.377 . S
C1113 C1119 1.390 . S
C1114 H1105 0.930 . S
C1114 C1112 1.384 . S
C1114 C1115 1.372 . S
C1115 C1114 1.372 . S
C1115 C1116 1.400 . S
C1115 C1120 1.490 . S
C1116 H1106 0.930 . S
C1116 C1115 1.400 . S
C1116 C1119 1.386 . S
H1117 C1133 0.930 . S
H1118 C1134 0.931 . S
C1119 H1107 0.929 . S
C1119 C1113 1.390 . S
C1119 C1116 1.386 . S
C1120 C1115 1.490 . S
C1120 C1122 1.395 . S
C1120 C1123 1.403 . S
H1121 C1127 0.930 . S
C1122 H1108 0.930 . S
C1122 C1120 1.395 . S
C1122 C1125 1.403 . S
C1123 C1120 1.403 . S
C1123 C1124 1.524 . S
C1123 C1127 1.400 . S
C1124 H1109 0.960 . S
C1124 H1110 0.960 . S
C1124 H1111 0.960 . S
C1124 C1123 1.524 . S
C1125 C1122 1.403 . S
C1125 C1126 1.392 . S
C1125 C1129 1.495 . S
C1126 C1125 1.392 . S
C1126 C1127 1.385 . S
C1126 C1128 1.478 . S
C1127 H1121 0.930 . S
C1127 C1123 1.400 . S
C1127 C1126 1.385 . S
C1128 C1126 1.478 . S
C1128 C1130 1.381 . S
C1128 C1134 1.383 . S
C1129 C1125 1.495 . S
C1129 H1135 0.959 . S
C1129 H1136 0.961 . S
C1129 H1137 0.960 . S
C1130 C1128 1.381 . S
C1130 C1131 1.394 . S
C1130 H1138 0.930 . S
C1131 C1130 1.394 . S
C1131 C1132 1.383 . S
C1131 H1139 0.929 . S
C1132 C1131 1.383 . S
C1132 C1133 1.377 . S
C1133 H1117 0.930 . S
C1133 C1132 1.377 . S
C1133 C1134 1.379 . S
C1134 H1118 0.931 . S
C1134 C1128 1.383 . S
C1134 C1133 1.379 . S
H1135 C1129 0.959 . S
H1136 C1129 0.961 . S
H1137 C1129 0.960 . S
H1138 C1130 0.930 . S
H1139 C1131 0.929 . S
H1140 C1148 0.929 . S
H1141 C1150 0.930 . S
H1142 C1152 0.930 . S
H1143 C1155 0.929 1_554 S
H1144 C1158 0.930 . S
H1145 C1160 0.960 . S
H1146 C1160 0.960 . S
H1147 C1160 0.960 . S
C1148 H1140 0.929 . S
C1148 C1149 1.377 . S
C1148 C1150 1.384 . S
C1149 C1148 1.377 . S
C1149 C1155 1.390 . S
C1150 H1141 0.930 . S
C1150 C1148 1.384 . S
C1150 C1151 1.372 . S
C1151 C1150 1.372 . S
C1151 C1152 1.400 . S
C1151 C1156 1.490 . S
C1152 H1142 0.930 . S
C1152 C1151 1.400 . S
C1152 C1155 1.386 . S
H1153 C1169 0.930 . S
H1154 C1170 0.931 . S
C1155 H1143 0.929 1_556 S
C1155 C1149 1.390 . S
C1155 C1152 1.386 . S
C1156 C1151 1.490 . S
C1156 C1158 1.395 . S
C1156 C1159 1.403 . S
H1157 C1163 0.930 . S
C1158 H1144 0.930 . S
C1158 C1156 1.395 . S
C1158 C1161 1.403 . S
C1159 C1156 1.403 . S
C1159 C1160 1.524 . S
C1159 C1163 1.400 . S
C1160 H1145 0.960 . S
C1160 H1146 0.960 . S
C1160 H1147 0.960 . S
C1160 C1159 1.524 . S
C1161 C1158 1.403 . S
C1161 C1162 1.392 . S
C1161 C1165 1.495 . S
C1162 C1161 1.392 . S
C1162 C1163 1.385 . S
C1162 C1164 1.478 . S
C1163 H1157 0.930 . S
C1163 C1159 1.400 . S
C1163 C1162 1.385 . S
C1164 C1162 1.478 . S
C1164 C1166 1.381 . S
C1164 C1170 1.383 . S
C1165 C1161 1.495 . S
C1165 H1171 0.959 . S
C1165 H1172 0.961 . S
C1165 H1173 0.960 . S
C1166 C1164 1.381 . S
C1166 C1167 1.394 . S
C1166 H1174 0.930 . S
C1167 C1166 1.394 . S
C1167 C1168 1.383 . S
C1167 H1175 0.929 . S
C1168 C1167 1.383 . S
C1168 C1169 1.377 . S
C1169 H1153 0.930 . S
C1169 C1168 1.377 . S
C1169 C1170 1.379 . S
C1170 H1154 0.931 . S
C1170 C1164 1.383 . S
C1170 C1169 1.379 . S
H1171 C1165 0.959 . S
H1172 C1165 0.961 . S
H1173 C1165 0.960 . S
H1174 C1166 0.930 . S
H1175 C1167 0.929 . S
H1176 C1184 0.929 . S
H1177 C1186 0.930 . S
H1178 C1188 0.930 . S
H1179 C1191 0.929 . S
H1180 C1194 0.930 . S
H1181 C1196 0.960 . S
H1182 C1196 0.960 . S
H1183 C1196 0.960 . S
C1184 H1176 0.929 . S
C1184 C1185 1.377 . S
C1184 C1186 1.384 . S
C1185 C1184 1.377 . S
C1185 C1191 1.390 . S
C1186 H1177 0.930 . S
C1186 C1184 1.384 . S
C1186 C1187 1.372 . S
C1187 C1186 1.372 . S
C1187 C1188 1.400 . S
C1187 C1192 1.490 . S
C1188 H1178 0.930 . S
C1188 C1187 1.400 . S
C1188 C1191 1.386 . S
H1189 C1205 0.930 . S
H1190 C1206 0.931 . S
C1191 H1179 0.929 . S
C1191 C1185 1.390 . S
C1191 C1188 1.386 . S
C1192 C1187 1.490 . S
C1192 C1194 1.395 . S
C1192 C1195 1.403 . S
H1193 C1199 0.930 . S
C1194 H1180 0.930 . S
C1194 C1192 1.395 . S
C1194 C1197 1.403 . S
C1195 C1192 1.403 . S
C1195 C1196 1.524 . S
C1195 C1199 1.400 . S
C1196 H1181 0.960 . S
C1196 H1182 0.960 . S
C1196 H1183 0.960 . S
C1196 C1195 1.524 . S
C1197 C1194 1.403 . S
C1197 C1198 1.392 . S
C1197 C1201 1.495 . S
C1198 C1197 1.392 . S
C1198 C1199 1.385 . S
C1198 C1200 1.478 . S
C1199 H1193 0.930 . S
C1199 C1195 1.400 . S
C1199 C1198 1.385 . S
C1200 C1198 1.478 . S
C1200 C1202 1.381 . S
C1200 C1206 1.383 . S
C1201 C1197 1.495 . S
C1201 H1207 0.959 . S
C1201 H1208 0.961 . S
C1201 H1209 0.960 . S
C1202 C1200 1.381 . S
C1202 C1203 1.394 . S
C1202 H1210 0.930 . S
C1203 C1202 1.394 . S
C1203 C1204 1.383 . S
C1203 H1211 0.929 . S
C1204 C1203 1.383 . S
C1204 C1205 1.377 . S
C1205 H1189 0.930 . S
C1205 C1204 1.377 . S
C1205 C1206 1.379 . S
C1206 H1190 0.931 . S
C1206 C1200 1.383 . S
C1206 C1205 1.379 . S
H1207 C1201 0.959 . S
H1208 C1201 0.961 . S
H1209 C1201 0.960 . S
H1210 C1202 0.930 . S
H1211 C1203 0.929 . S
H1212 C1220 0.929 . S
H1213 C1222 0.930 . S
H1214 C1224 0.930 . S
H1215 C1227 0.929 . S
H1216 C1230 0.930 . S
H1217 C1232 0.960 . S
H1218 C1232 0.960 . S
H1219 C1232 0.960 . S
C1220 H1212 0.929 . S
C1220 C1221 1.377 . S
C1220 C1222 1.384 . S
C1221 C1220 1.377 . S
C1221 C1227 1.390 . S
C1222 H1213 0.930 . S
C1222 C1220 1.384 . S
C1222 C1223 1.372 . S
C1223 C1222 1.372 . S
C1223 C1224 1.400 . S
C1223 C1228 1.490 . S
C1224 H1214 0.930 . S
C1224 C1223 1.400 . S
C1224 C1227 1.386 . S
H1225 C1241 0.930 . S
H1226 C1242 0.931 . S
C1227 H1215 0.929 . S
C1227 C1221 1.390 . S
C1227 C1224 1.386 . S
C1228 C1223 1.490 . S
C1228 C1230 1.395 . S
C1228 C1231 1.403 . S
H1229 C1235 0.930 . S
C1230 H1216 0.930 . S
C1230 C1228 1.395 . S
C1230 C1233 1.403 . S
C1231 C1228 1.403 . S
C1231 C1232 1.524 . S
C1231 C1235 1.400 . S
C1232 H1217 0.960 . S
C1232 H1218 0.960 . S
C1232 H1219 0.960 . S
C1232 C1231 1.524 . S
C1233 C1230 1.403 . S
C1233 C1234 1.392 . S
C1233 C1237 1.495 . S
C1234 C1233 1.392 . S
C1234 C1235 1.385 . S
C1234 C1236 1.478 . S
C1235 H1229 0.930 . S
C1235 C1231 1.400 . S
C1235 C1234 1.385 . S
C1236 C1234 1.478 . S
C1236 C1238 1.381 . S
C1236 C1242 1.383 . S
C1237 C1233 1.495 . S
C1237 H1243 0.959 . S
C1237 H1244 0.961 . S
C1237 H1245 0.960 . S
C1238 C1236 1.381 . S
C1238 C1239 1.394 . S
C1238 H1246 0.930 . S
C1239 C1238 1.394 . S
C1239 C1240 1.383 . S
C1239 H1247 0.929 . S
C1240 C1239 1.383 . S
C1240 C1241 1.377 . S
C1241 H1225 0.930 . S
C1241 C1240 1.377 . S
C1241 C1242 1.379 . S
C1242 H1226 0.931 . S
C1242 C1236 1.383 . S
C1242 C1241 1.379 . S
H1243 C1237 0.959 . S
H1244 C1237 0.961 . S
H1245 C1237 0.960 . S
H1246 C1238 0.930 . S
H1247 C1239 0.929 . S
H1248 C1256 0.929 . S
H1249 C1258 0.930 . S
H1250 C1260 0.930 . S
H1251 C1263 0.929 . S
H1252 C1266 0.933 . S
H1253 C1268 0.960 . S
H1254 C1268 0.960 . S
H1255 C1268 0.960 1_655 S
C1256 H1248 0.929 . S
C1256 C1257 1.353 1_445 S
C1256 C1258 1.384 . S
C1257 C1256 1.353 1_665 S
C1257 C1263 1.414 . S
C1258 H1249 0.930 . S
C1258 C1256 1.384 . S
C1258 C1259 1.397 1_545 S
C1259 C1258 1.397 1_565 S
C1259 C1260 1.374 1_455 S
C1259 C1264 1.492 . S
C1260 H1250 0.930 . S
C1260 C1259 1.374 1_655 S
C1260 C1263 1.386 . S
H1261 C1277 0.942 . S
H1262 C1278 0.949 . S
C1263 H1251 0.929 . S
C1263 C1257 1.414 . S
C1263 C1260 1.386 . S
C1264 C1259 1.492 . S
C1264 C1266 1.379 1_465 S
C1264 C1267 1.414 . S
H1265 C1271 0.930 . S
C1266 H1252 0.933 . S
C1266 C1264 1.379 1_645 S
C1266 C1269 1.404 1_556 S
C1267 C1264 1.414 . S
C1267 C1268 1.524 . S
C1267 C1271 1.400 1_556 S
C1268 H1253 0.960 . S
C1268 H1254 0.960 . S
C1268 H1255 0.960 1_455 S
C1268 C1267 1.524 . S
C1269 C1266 1.404 1_554 S
C1269 C1270 1.391 1_655 S
C1269 C1273 1.495 . S
C1270 C1269 1.391 1_455 S
C1270 C1271 1.388 1_545 S
C1270 C1272 1.477 . S
C1271 H1265 0.930 . S
C1271 C1267 1.400 1_554 S
C1271 C1270 1.388 1_565 S
C1272 C1270 1.477 . S
C1272 C1274 1.390 . S
C1272 C1278 1.358 1_445 S
C1273 C1269 1.495 . S
C1273 H1279 0.959 . S
C1273 H1280 0.961 . S
C1273 H1281 0.960 1_655 S
C1274 C1272 1.390 . S
C1274 C1275 1.394 . S
C1274 H1282 0.930 . S
C1275 C1274 1.394 . S
C1275 C1276 1.418 . S
C1275 H1283 0.929 . S
C1276 C1275 1.418 . S
C1276 C1277 1.330 1_445 S
C1277 H1261 0.942 . S
C1277 C1276 1.330 1_665 S
C1277 C1278 1.380 . S
C1278 H1262 0.949 . S
C1278 C1272 1.358 1_665 S
C1278 C1277 1.380 . S
H1279 C1273 0.959 . S
H1280 C1273 0.961 . S
H1281 C1273 0.960 1_455 S
H1282 C1274 0.930 . S
H1283 C1275 0.929 . S
H1284 C1292 0.929 . S
H1285 C1294 0.930 . S
H1286 C1296 0.930 . S
H1287 C1299 0.929 . S
H1288 C1302 0.930 . S
H1289 C1304 0.960 . S
H1290 C1304 0.960 . S
H1291 C1304 0.960 . S
C1292 H1284 0.929 . S
C1292 C1293 1.377 . S
C1292 C1294 1.384 . S
C1293 C1292 1.377 . S
C1293 C1299 1.390 . S
C1294 H1285 0.930 . S
C1294 C1292 1.384 . S
C1294 C1295 1.372 . S
C1295 C1294 1.372 . S
C1295 C1296 1.400 . S
C1295 C1300 1.490 . S
C1296 H1286 0.930 . S
C1296 C1295 1.400 . S
C1296 C1299 1.386 . S
H1297 C1313 0.930 . S
H1298 C1314 0.931 . S
C1299 H1287 0.929 . S
C1299 C1293 1.390 . S
C1299 C1296 1.386 . S
C1300 C1295 1.490 . S
C1300 C1302 1.395 . S
C1300 C1303 1.403 . S
H1301 C1307 0.930 . S
C1302 H1288 0.930 . S
C1302 C1300 1.395 . S
C1302 C1305 1.403 . S
C1303 C1300 1.403 . S
C1303 C1304 1.524 . S
C1303 C1307 1.400 . S
C1304 H1289 0.960 . S
C1304 H1290 0.960 . S
C1304 H1291 0.960 . S
C1304 C1303 1.524 . S
C1305 C1302 1.403 . S
C1305 C1306 1.392 . S
C1305 C1309 1.495 . S
C1306 C1305 1.392 . S
C1306 C1307 1.385 . S
C1306 C1308 1.478 . S
C1307 H1301 0.930 . S
C1307 C1303 1.400 . S
C1307 C1306 1.385 . S
C1308 C1306 1.478 . S
C1308 C1310 1.381 . S
C1308 C1314 1.383 . S
C1309 C1305 1.495 . S
C1309 H1315 0.959 . S
C1309 H1316 0.961 . S
C1309 H1317 0.960 . S
C1310 C1308 1.381 . S
C1310 C1311 1.394 . S
C1310 H1318 0.930 . S
C1311 C1310 1.394 . S
C1311 C1312 1.383 . S
C1311 H1319 0.929 . S
C1312 C1311 1.383 . S
C1312 C1313 1.377 . S
C1313 H1297 0.930 . S
C1313 C1312 1.377 . S
C1313 C1314 1.379 . S
C1314 H1298 0.931 . S
C1314 C1308 1.383 . S
C1314 C1313 1.379 . S
H1315 C1309 0.959 . S
H1316 C1309 0.961 . S
H1317 C1309 0.960 . S
H1318 C1310 0.930 . S
H1319 C1311 0.929 . S
H1320 C1328 0.929 . S
H1321 C1330 0.930 . S
H1322 C1332 0.930 . S
H1323 C1335 0.929 . S
H1324 C1338 0.930 . S
H1325 C1340 0.960 . S
H1326 C1340 0.934 1_545 S
H1327 C1340 0.988 . S
C1328 H1320 0.929 . S
C1328 C1329 1.377 1_545 S
C1328 C1330 1.384 . S
C1329 C1328 1.377 1_565 S
C1329 C1335 1.390 . S
C1330 H1321 0.930 . S
C1330 C1328 1.384 . S
C1330 C1331 1.372 1_545 S
C1331 C1330 1.372 1_565 S
C1331 C1332 1.400 . S
C1331 C1336 1.493 . S
C1332 H1322 0.930 . S
C1332 C1331 1.400 . S
C1332 C1335 1.386 . S
H1333 C1349 0.930 . S
H1334 C1350 0.931 . S
C1335 H1323 0.929 . S
C1335 C1329 1.390 . S
C1335 C1332 1.386 . S
C1336 C1331 1.493 . S
C1336 C1338 1.392 1_565 S
C1336 C1339 1.402 . S
H1337 C1343 0.930 . S
C1338 H1324 0.930 . S
C1338 C1336 1.392 1_545 S
C1338 C1341 1.403 . S
C1339 C1336 1.402 . S
C1339 C1340 1.523 . S
C1339 C1343 1.400 1_565 S
C1340 H1325 0.960 . S
C1340 H1326 0.934 1_565 S
C1340 H1327 0.988 . S
C1340 C1339 1.523 . S
C1341 C1338 1.403 . S
C1341 C1342 1.392 . S
C1341 C1345 1.495 . S
C1342 C1341 1.392 . S
C1342 C1343 1.385 . S
C1342 C1344 1.478 . S
C1343 H1337 0.930 . S
C1343 C1339 1.400 1_545 S
C1343 C1342 1.385 . S
C1344 C1342 1.478 . S
C1344 C1346 1.381 . S
C1344 C1350 1.383 1_545 S
C1345 C1341 1.495 . S
C1345 H1351 0.959 . S
C1345 H1352 0.961 1_545 S
C1345 H1353 0.960 . S
C1346 C1344 1.381 . S
C1346 C1347 1.394 . S
C1346 H1354 0.930 . S
C1347 C1346 1.394 . S
C1347 C1348 1.383 . S
C1347 H1355 0.929 . S
C1348 C1347 1.383 . S
C1348 C1349 1.377 1_545 S
C1349 H1333 0.930 . S
C1349 C1348 1.377 1_565 S
C1349 C1350 1.379 . S
C1350 H1334 0.931 . S
C1350 C1344 1.383 1_565 S
C1350 C1349 1.379 . S
H1351 C1345 0.959 . S
H1352 C1345 0.961 1_565 S
H1353 C1345 0.960 . S
H1354 C1346 0.930 . S
H1355 C1347 0.929 . S
H1356 C1364 0.929 . S
H1357 C1366 0.930 . S
H1358 C1368 0.930 . S
H1359 C1371 0.929 . S
H1360 C1374 0.930 . S
H1361 C1376 0.960 . S
H1362 C1376 0.960 . S
H1363 C1376 0.960 . S
C1364 H1356 0.929 . S
C1364 C1365 1.377 . S
C1364 C1366 1.384 . S
C1365 C1364 1.377 . S
C1365 C1371 1.390 . S
C1366 H1357 0.930 . S
C1366 C1364 1.384 . S
C1366 C1367 1.372 . S
C1367 C1366 1.372 . S
C1367 C1368 1.400 . S
C1367 C1372 1.490 . S
C1368 H1358 0.930 . S
C1368 C1367 1.400 . S
C1368 C1371 1.386 . S
H1369 C1385 0.930 . S
H1370 C1386 0.931 . S
C1371 H1359 0.929 . S
C1371 C1365 1.390 . S
C1371 C1368 1.386 . S
C1372 C1367 1.490 . S
C1372 C1374 1.395 . S
C1372 C1375 1.403 . S
H1373 C1379 0.930 . S
C1374 H1360 0.930 . S
C1374 C1372 1.395 . S
C1374 C1377 1.403 . S
C1375 C1372 1.403 . S
C1375 C1376 1.524 . S
C1375 C1379 1.400 . S
C1376 H1361 0.960 . S
C1376 H1362 0.960 . S
C1376 H1363 0.960 . S
C1376 C1375 1.524 . S
C1377 C1374 1.403 . S
C1377 C1378 1.392 . S
C1377 C1381 1.495 . S
C1378 C1377 1.392 . S
C1378 C1379 1.385 . S
C1378 C1380 1.478 . S
C1379 H1373 0.930 . S
C1379 C1375 1.400 . S
C1379 C1378 1.385 . S
C1380 C1378 1.478 . S
C1380 C1382 1.381 . S
C1380 C1386 1.383 . S
C1381 C1377 1.495 . S
C1381 H1387 0.959 . S
C1381 H1388 0.961 . S
C1381 H1389 0.960 . S
C1382 C1380 1.381 . S
C1382 C1383 1.394 . S
C1382 H1390 0.930 . S
C1383 C1382 1.394 . S
C1383 C1384 1.383 . S
C1383 H1391 0.929 . S
C1384 C1383 1.383 . S
C1384 C1385 1.377 . S
C1385 H1369 0.930 . S
C1385 C1384 1.377 . S
C1385 C1386 1.379 . S
C1386 H1370 0.931 . S
C1386 C1380 1.383 . S
C1386 C1385 1.379 . S
H1387 C1381 0.959 . S
H1388 C1381 0.961 . S
H1389 C1381 0.960 . S
H1390 C1382 0.930 . S
H1391 C1383 0.929 . S
H1392 C1400 0.929 . S
H1393 C1402 0.930 . S
H1394 C1404 0.930 . S
H1395 C1407 0.929 . S
H1396 C1410 0.930 . S
H1397 C1412 0.960 . S
H1398 C1412 0.960 . S
H1399 C1412 0.960 . S
C1400 H1392 0.929 . S
C1400 C1401 1.377 . S
C1400 C1402 1.384 . S
C1401 C1400 1.377 . S
C1401 C1407 1.390 . S
C1402 H1393 0.930 . S
C1402 C1400 1.384 . S
C1402 C1403 1.372 . S
C1403 C1402 1.372 . S
C1403 C1404 1.400 . S
C1403 C1408 1.490 . S
C1404 H1394 0.930 . S
C1404 C1403 1.400 . S
C1404 C1407 1.386 . S
H1405 C1421 0.930 . S
H1406 C1422 0.931 . S
C1407 H1395 0.929 . S
C1407 C1401 1.390 . S
C1407 C1404 1.386 . S
C1408 C1403 1.490 . S
C1408 C1410 1.395 . S
C1408 C1411 1.403 . S
H1409 C1415 0.930 . S
C1410 H1396 0.930 . S
C1410 C1408 1.395 . S
C1410 C1413 1.403 . S
C1411 C1408 1.403 . S
C1411 C1412 1.524 . S
C1411 C1415 1.400 . S
C1412 H1397 0.960 . S
C1412 H1398 0.960 . S
C1412 H1399 0.960 . S
C1412 C1411 1.524 . S
C1413 C1410 1.403 . S
C1413 C1414 1.392 . S
C1413 C1417 1.495 . S
C1414 C1413 1.392 . S
C1414 C1415 1.385 . S
C1414 C1416 1.478 . S
C1415 H1409 0.930 . S
C1415 C1411 1.400 . S
C1415 C1414 1.385 . S
C1416 C1414 1.478 . S
C1416 C1418 1.381 . S
C1416 C1422 1.383 . S
C1417 C1413 1.495 . S
C1417 H1423 0.959 . S
C1417 H1424 0.961 . S
C1417 H1425 0.960 . S
C1418 C1416 1.381 . S
C1418 C1419 1.394 . S
C1418 H1426 0.930 . S
C1419 C1418 1.394 . S
C1419 C1420 1.383 . S
C1419 H1427 0.929 . S
C1420 C1419 1.383 . S
C1420 C1421 1.377 . S
C1421 H1405 0.930 . S
C1421 C1420 1.377 . S
C1421 C1422 1.379 . S
C1422 H1406 0.931 . S
C1422 C1416 1.383 . S
C1422 C1421 1.379 . S
H1423 C1417 0.959 . S
H1424 C1417 0.961 . S
H1425 C1417 0.960 . S
H1426 C1418 0.930 . S
H1427 C1419 0.929 . S
H1428 C1436 0.929 . S
H1429 C1438 0.930 . S
H1430 C1440 0.930 . S
H1431 C1443 0.929 . S
H1432 C1446 0.930 . S
H1433 C1448 0.960 . S
H1434 C1448 0.960 . S
H1435 C1448 0.960 . S
C1436 H1428 0.929 . S
C1436 C1437 1.377 . S
C1436 C1438 1.384 . S
C1437 C1436 1.377 . S
C1437 C1443 1.390 . S
C1438 H1429 0.930 . S
C1438 C1436 1.384 . S
C1438 C1439 1.372 . S
C1439 C1438 1.372 . S
C1439 C1440 1.400 . S
C1439 C1444 1.490 . S
C1440 H1430 0.930 . S
C1440 C1439 1.400 . S
C1440 C1443 1.386 . S
H1441 C1457 0.930 . S
H1442 C1458 0.931 . S
C1443 H1431 0.929 . S
C1443 C1437 1.390 . S
C1443 C1440 1.386 . S
C1444 C1439 1.490 . S
C1444 C1446 1.395 . S
C1444 C1447 1.403 . S
H1445 C1451 0.930 . S
C1446 H1432 0.930 . S
C1446 C1444 1.395 . S
C1446 C1449 1.403 . S
C1447 C1444 1.403 . S
C1447 C1448 1.524 . S
C1447 C1451 1.400 . S
C1448 H1433 0.960 . S
C1448 H1434 0.960 . S
C1448 H1435 0.960 . S
C1448 C1447 1.524 . S
C1449 C1446 1.403 . S
C1449 C1450 1.392 . S
C1449 C1453 1.495 . S
C1450 C1449 1.392 . S
C1450 C1451 1.385 . S
C1450 C1452 1.478 . S
C1451 H1445 0.930 . S
C1451 C1447 1.400 . S
C1451 C1450 1.385 . S
C1452 C1450 1.478 . S
C1452 C1454 1.381 . S
C1452 C1458 1.383 . S
C1453 C1449 1.495 . S
C1453 H1459 0.959 . S
C1453 H1460 0.961 . S
C1453 H1461 0.960 . S
C1454 C1452 1.381 . S
C1454 C1455 1.394 . S
C1454 H1462 0.930 . S
C1455 C1454 1.394 . S
C1455 C1456 1.383 . S
C1455 H1463 0.929 . S
C1456 C1455 1.383 . S
C1456 C1457 1.377 . S
C1457 H1441 0.930 . S
C1457 C1456 1.377 . S
C1457 C1458 1.379 . S
C1458 H1442 0.931 . S
C1458 C1452 1.383 . S
C1458 C1457 1.379 . S
H1459 C1453 0.959 . S
H1460 C1453 0.961 . S
H1461 C1453 0.960 . S
H1462 C1454 0.930 . S
H1463 C1455 0.929 . S
H1464 C1472 0.929 . S
H1465 C1474 0.930 . S
H1466 C1476 0.930 . S
H1467 C1479 0.929 . S
H1468 C1482 0.930 . S
H1469 C1484 0.960 . S
H1470 C1484 0.960 . S
H1471 C1484 0.960 . S
C1472 H1464 0.929 . S
C1472 C1473 1.377 . S
C1472 C1474 1.384 . S
C1473 C1472 1.377 . S
C1473 C1479 1.390 . S
C1474 H1465 0.930 . S
C1474 C1472 1.384 . S
C1474 C1475 1.372 . S
C1475 C1474 1.372 . S
C1475 C1476 1.400 . S
C1475 C1480 1.490 . S
C1476 H1466 0.930 . S
C1476 C1475 1.400 . S
C1476 C1479 1.386 . S
H1477 C1493 0.930 . S
H1478 C1494 0.931 . S
C1479 H1467 0.929 . S
C1479 C1473 1.390 . S
C1479 C1476 1.386 . S
C1480 C1475 1.490 . S
C1480 C1482 1.395 . S
C1480 C1483 1.403 . S
H1481 C1487 0.930 . S
C1482 H1468 0.930 . S
C1482 C1480 1.395 . S
C1482 C1485 1.403 . S
C1483 C1480 1.403 . S
C1483 C1484 1.524 . S
C1483 C1487 1.400 . S
C1484 H1469 0.960 . S
C1484 H1470 0.960 . S
C1484 H1471 0.960 . S
C1484 C1483 1.524 . S
C1485 C1482 1.403 . S
C1485 C1486 1.392 . S
C1485 C1489 1.495 . S
C1486 C1485 1.392 . S
C1486 C1487 1.385 . S
C1486 C1488 1.478 . S
C1487 H1481 0.930 . S
C1487 C1483 1.400 . S
C1487 C1486 1.385 . S
C1488 C1486 1.478 . S
C1488 C1490 1.381 . S
C1488 C1494 1.383 . S
C1489 C1485 1.495 . S
C1489 H1495 0.959 . S
C1489 H1496 0.961 . S
C1489 H1497 0.960 . S
C1490 C1488 1.381 . S
C1490 C1491 1.394 . S
C1490 H1498 0.930 . S
C1491 C1490 1.394 . S
C1491 C1492 1.383 . S
C1491 H1499 0.929 . S
C1492 C1491 1.383 . S
C1492 C1493 1.377 . S
C1493 H1477 0.930 . S
C1493 C1492 1.377 . S
C1493 C1494 1.379 . S
C1494 H1478 0.931 . S
C1494 C1488 1.383 . S
C1494 C1493 1.379 . S
H1495 C1489 0.959 . S
H1496 C1489 0.961 . S
H1497 C1489 0.960 . S
H1498 C1490 0.930 . S
H1499 C1491 0.929 . S
H1500 C1508 0.929 . S
H1501 C1510 0.930 . S
H1502 C1512 0.930 . S
H1503 C1515 0.929 . S
H1504 C1518 0.930 . S
H1505 C1520 0.960 . S
H1506 C1520 0.960 . S
H1507 C1520 0.960 . S
C1508 H1500 0.929 . S
C1508 C1509 1.377 1_655 S
C1508 C1510 1.384 . S
C1509 C1508 1.377 1_455 S
C1509 C1515 1.390 . S
C1510 H1501 0.930 . S
C1510 C1508 1.384 . S
C1510 C1511 1.371 1_655 S
C1511 C1510 1.371 1_455 S
C1511 C1512 1.401 . S
C1511 C1516 1.490 . S
C1512 H1502 0.930 . S
C1512 C1511 1.401 . S
C1512 C1515 1.386 . S
H1513 C1529 0.930 . S
H1514 C1530 0.931 . S
C1515 H1503 0.929 . S
C1515 C1509 1.390 . S
C1515 C1512 1.386 . S
C1516 C1511 1.490 . S
C1516 C1518 1.420 . S
C1516 C1519 1.379 1_455 S
H1517 C1523 0.930 . S
C1518 H1504 0.930 . S
C1518 C1516 1.420 . S
C1518 C1521 1.403 1_556 S
C1519 C1516 1.379 1_655 S
C1519 C1520 1.524 . S
C1519 C1523 1.400 1_556 S
C1520 H1505 0.960 . S
C1520 H1506 0.960 . S
C1520 H1507 0.960 . S
C1520 C1519 1.524 . S
C1521 C1518 1.403 1_554 S
C1521 C1522 1.392 . S
C1521 C1525 1.495 . S
C1522 C1521 1.392 . S
C1522 C1523 1.385 1_455 S
C1522 C1524 1.478 . S
C1523 H1517 0.930 . S
C1523 C1519 1.400 1_554 S
C1523 C1522 1.385 1_655 S
C1524 C1522 1.478 . S
C1524 C1526 1.381 1_455 S
C1524 C1530 1.383 . S
C1525 C1521 1.495 . S
C1525 H1531 0.959 . S
C1525 H1532 0.961 . S
C1525 H1533 0.960 . S
C1526 C1524 1.381 1_655 S
C1526 C1527 1.394 . S
C1526 H1534 0.930 . S
C1527 C1526 1.394 . S
C1527 C1528 1.380 1_655 S
C1527 H1535 0.929 . S
C1528 C1527 1.380 1_455 S
C1528 C1529 1.382 . S
C1529 H1513 0.930 . S
C1529 C1528 1.382 . S
C1529 C1530 1.379 . S
C1530 H1514 0.931 . S
C1530 C1524 1.383 . S
C1530 C1529 1.379 . S
H1531 C1525 0.959 . S
H1532 C1525 0.961 . S
H1533 C1525 0.960 . S
H1534 C1526 0.930 . S
H1535 C1527 0.929 . S
C681 C56 1.495 . S
C700 C308 1.494 . S
C717 C63 1.489 . S
C736 C140 1.503 . S
C753 C147 1.494 . S
C772 C224 1.508 . S
C789 C231 1.496 . S
C808 C315 1.488 . S
C825 C67 1.495 . S
C844 C487 1.510 . S
C861 C74 1.490 . S
C880 C403 1.491 . S
C897 C410 1.494 . S
C916 C235 1.490 . S
C933 C494 1.491 . S
C952 C242 1.484 . S
C969 C560 1.498 . S
C988 C476 1.484 . S
C1005 C392 1.498 . S
C1024 C567 1.483 . S
C1041 C644 1.503 . S
C1060 C399 1.499 . S
C1077 C483 1.491 . S
C1096 C651 1.484 . S
C1113 C319 1.495 . S
C1132 C571 1.498 . S
C1149 C578 1.491 . S
C1168 C151 1.505 . S
C1185 C158 1.493 . S
C1204 C655 1.499 . S
C1221 C326 1.491 . S
C1240 C662 1.494 . S
C1257 C58 1.482 . S
C1276 C69 1.517 . S
C1293 C153 1.447 . S
C1312 C142 1.443 . S
C1329 C237 1.452 . S
C1348 C226 1.430 . S
C1365 C310 1.448 . S
C1384 C321 1.439 . S
C1401 C405 1.452 . S
C1420 C394 1.481 . S
C1437 C478 1.465 . S
C1456 C489 1.455 . S
C1473 C573 1.467 . S
C1492 C562 1.471 . S
C1509 C646 1.462 . S
C1528 C657 1.490 1_455 S
