# Generated by pormake.
# Topology uoz, (4)-cn, num edge types: 1
# Building blocks:
#     Node 0, Type 0, BuildingBlock: QUQFOY_clean_sbu_1, # of connection points: 4
#     Node 1, Type 0, BuildingBlock: QUQFOY_clean_sbu_1, # of connection points: 4
#     Node 2, Type 0, BuildingBlock: QUQFOY_clean_sbu_1, # of connection points: 4
#     Node 3, Type 0, BuildingBlock: QUQFOY_clean_sbu_1, # of connection points: 4
#     Node 4, Type 0, BuildingBlock: QUQFOY_clean_sbu_1, # of connection points: 4
#     Node 5, Type 0, BuildingBlock: QUQFOY_clean_sbu_1, # of connection points: 4
#     Node 6, Type 0, BuildingBlock: QUQFOY_clean_sbu_1, # of connection points: 4
#     Node 7, Type 0, BuildingBlock: QUQFOY_clean_sbu_1, # of connection points: 4
#     Node 8, Type 0, BuildingBlock: QUQFOY_clean_sbu_1, # of connection points: 4
#     Node 9, Type 0, BuildingBlock: QUQFOY_clean_sbu_1, # of connection points: 4
#     Node 10, Type 0, BuildingBlock: QUQFOY_clean_sbu_1, # of connection points: 4
#     Node 11, Type 0, BuildingBlock: QUQFOY_clean_sbu_1, # of connection points: 4
#     Node 12, Type 0, BuildingBlock: QUQFOY_clean_sbu_1, # of connection points: 4
#     Node 13, Type 0, BuildingBlock: QUQFOY_clean_sbu_1, # of connection points: 4
#     Node 14, Type 0, BuildingBlock: QUQFOY_clean_sbu_1, # of connection points: 4
#     Node 15, Type 0, BuildingBlock: QUQFOY_clean_sbu_1, # of connection points: 4
#     Edge 16, Type (0, 0), BuildingBlock: EZIPEK_clean_linker_0, # of connection points: 2
#     Edge 17, Type (0, 0), BuildingBlock: EZIPEK_clean_linker_0, # of connection points: 2
#     Edge 18, Type (0, 0), BuildingBlock: EZIPEK_clean_linker_0, # of connection points: 2
#     Edge 19, Type (0, 0), BuildingBlock: EZIPEK_clean_linker_0, # of connection points: 2
#     Edge 20, Type (0, 0), BuildingBlock: EZIPEK_clean_linker_0, # of connection points: 2
#     Edge 21, Type (0, 0), BuildingBlock: EZIPEK_clean_linker_0, # of connection points: 2
#     Edge 22, Type (0, 0), BuildingBlock: EZIPEK_clean_linker_0, # of connection points: 2
#     Edge 23, Type (0, 0), BuildingBlock: EZIPEK_clean_linker_0, # of connection points: 2
#     Edge 24, Type (0, 0), BuildingBlock: EZIPEK_clean_linker_0, # of connection points: 2
#     Edge 25, Type (0, 0), BuildingBlock: EZIPEK_clean_linker_0, # of connection points: 2
#     Edge 26, Type (0, 0), BuildingBlock: EZIPEK_clean_linker_0, # of connection points: 2
#     Edge 27, Type (0, 0), BuildingBlock: EZIPEK_clean_linker_0, # of connection points: 2
#     Edge 28, Type (0, 0), BuildingBlock: EZIPEK_clean_linker_0, # of connection points: 2
#     Edge 29, Type (0, 0), BuildingBlock: EZIPEK_clean_linker_0, # of connection points: 2
#     Edge 30, Type (0, 0), BuildingBlock: EZIPEK_clean_linker_0, # of connection points: 2
#     Edge 31, Type (0, 0), BuildingBlock: EZIPEK_clean_linker_0, # of connection points: 2
#     Edge 32, Type (0, 0), BuildingBlock: EZIPEK_clean_linker_0, # of connection points: 2
#     Edge 33, Type (0, 0), BuildingBlock: EZIPEK_clean_linker_0, # of connection points: 2
#     Edge 34, Type (0, 0), BuildingBlock: EZIPEK_clean_linker_0, # of connection points: 2
#     Edge 35, Type (0, 0), BuildingBlock: EZIPEK_clean_linker_0, # of connection points: 2
#     Edge 36, Type (0, 0), BuildingBlock: EZIPEK_clean_linker_0, # of connection points: 2
#     Edge 37, Type (0, 0), BuildingBlock: EZIPEK_clean_linker_0, # of connection points: 2
#     Edge 38, Type (0, 0), BuildingBlock: EZIPEK_clean_linker_0, # of connection points: 2
#     Edge 39, Type (0, 0), BuildingBlock: EZIPEK_clean_linker_0, # of connection points: 2
#     Edge 40, Type (0, 0), BuildingBlock: EZIPEK_clean_linker_0, # of connection points: 2
#     Edge 41, Type (0, 0), BuildingBlock: EZIPEK_clean_linker_0, # of connection points: 2
#     Edge 42, Type (0, 0), BuildingBlock: EZIPEK_clean_linker_0, # of connection points: 2
#     Edge 43, Type (0, 0), BuildingBlock: EZIPEK_clean_linker_0, # of connection points: 2
#     Edge 44, Type (0, 0), BuildingBlock: EZIPEK_clean_linker_0, # of connection points: 2
#     Edge 45, Type (0, 0), BuildingBlock: EZIPEK_clean_linker_0, # of connection points: 2
#     Edge 46, Type (0, 0), BuildingBlock: EZIPEK_clean_linker_0, # of connection points: 2
#     Edge 47, Type (0, 0), BuildingBlock: EZIPEK_clean_linker_0, # of connection points: 2
# Relax obj value: 0.155
# Max RMSD: 0.204
# Mean RMSD: 0.204
data_MOF--net-uoz--node1-QUQFOY_clean_sbu_1--edge1-EZIPEK_clean_linker_0
_symmetry_space_group_name_H-M    P1
_symmetry_Int_Tables_number       1
_symmetry_cell_setting            triclinic
loop_
_symmetry_equiv_pos_as_xyz
'x, y, z'
_cell_length_a     48.351041
_cell_length_b     48.308992
_cell_length_c     17.023335
_cell_angle_alpha  90.092814
_cell_angle_beta   90.141445
_cell_angle_gamma 89.996679
loop_
_atom_site_label
_atom_site_type_symbol
_atom_site_fract_x
_atom_site_fract_y
_atom_site_fract_z
_atom_type_partial_charge
O0 O 0.07727 0.53949 0.28498 0.0
Cd1 Cd 0.07914 0.56624 0.37793 0.0
Cd2 Cd 0.03696 0.5888 0.2917 0.0
O3 O 0.03411 0.54898 0.25282 0.0
O4 O 0.09878 0.5446 0.46008 0.0
O5 O 0.05496 0.55789 0.47078 0.0
C6 C 0.07569 0.54389 0.49778 0.0
C7 C -0.00289 0.61554 0.28245 0.0
C8 C 0.05552 0.53405 0.24639 0.0
C9 C 0.09399 0.61531 0.29158 0.0
O10 O 0.07118 0.61084 0.25687 0.0
O11 O 0.10032 0.60221 0.35385 0.0
O12 O 0.00964 0.6067 0.221 0.0
O13 O 0.00638 0.60826 0.35049 0.0
O14 O 0.74883 0.78442 0.49638 0.0
Cd15 Cd 0.72426 0.78881 0.59283 0.0
Cd16 Cd 0.6919 0.7501 0.50542 0.0
O17 O 0.72939 0.74604 0.45204 0.0
O18 O 0.7498 0.80352 0.67448 0.0
O19 O 0.73014 0.76204 0.68165 0.0
C20 C 0.74742 0.78 0.70952 0.0
C21 C 0.6632 0.71197 0.48514 0.0
C22 C 0.74854 0.7639 0.44998 0.0
C23 C 0.67276 0.81034 0.52685 0.0
O24 O 0.67124 0.78697 0.49295 0.0
O25 O 0.69138 0.81532 0.57779 0.0
O26 O 0.66974 0.72827 0.42881 0.0
O27 O 0.67304 0.71699 0.5542 0.0
O28 O 0.51893 0.45074 0.73376 0.0
Cd29 Cd 0.50605 0.42832 0.82902 0.0
Cd30 Cd 0.54652 0.3914 0.75064 0.0
O31 O 0.55852 0.42924 0.71137 0.0
O32 O 0.4872 0.45647 0.89605 0.0
O33 O 0.52578 0.43497 0.93147 0.0
C34 C 0.50721 0.45356 0.94558 0.0
C35 C 0.57976 0.35755 0.7268 0.0
C36 C 0.54216 0.44923 0.69959 0.0
C37 C 0.48393 0.3788 0.75247 0.0
O38 O 0.50795 0.37659 0.72332 0.0
O39 O 0.47883 0.39636 0.80625 0.0
O40 O 0.56659 0.36927 0.67057 0.0
O41 O 0.57454 0.36514 0.79789 0.0
O42 O 0.83269 0.22795 0.95172 0.0
Cd43 Cd 0.85709 0.21694 0.04513 0.0
Cd44 Cd 0.88902 0.25729 0.96558 0.0
O45 O 0.8513 0.26838 0.92275 0.0
O46 O 0.83103 0.19451 0.10974 0.0
O47 O 0.84893 0.23423 0.15042 0.0
C48 C 0.83224 0.21376 0.16207 0.0
C49 C 0.92191 0.2923 0.97131 0.0
C50 C 0.83234 0.25058 0.91412 0.0
C51 C 0.9054 0.19657 0.95976 0.0
O52 O 0.90534 0.22026 0.92764 0.0
O53 O 0.89008 0.19156 0.01867 0.0
O54 O 0.91308 0.28285 0.90536 0.0
O55 O 0.9116 0.28246 0.03529 0.0
O56 O 0.08369 0.45559 0.95449 0.0
Cd57 Cd 0.08905 0.43415 0.85274 0.0
Cd58 Cd 0.05093 0.39756 0.93342 0.0
O59 O 0.04749 0.43254 -0.00045 0.0
O60 O 0.10602 0.46204 0.78166 0.0
O61 O 0.06385 0.44511 0.76409 0.0
C62 C 0.08288 0.46248 0.74383 0.0
C63 C 0.01241 0.36879 0.94126 0.0
C64 C 0.0642 0.45266 0.00331 0.0
C65 C 0.11079 0.3798 0.9028 0.0
O66 O 0.08766 0.37642 0.93652 0.0
O67 O 0.11534 0.40067 0.8593 0.0
O68 O 0.02866 0.37234 0.00011 0.0
O69 O 0.01776 0.38171 0.87679 0.0
O70 O 0.83481 0.77318 0.16554 0.0
Cd71 Cd 0.85791 0.77257 0.06541 0.0
Cd72 Cd 0.88668 0.73382 0.16847 0.0
O73 O 0.84768 0.73257 0.21289 0.0
O74 O 0.83413 0.79434 0.99235 0.0
O75 O 0.84243 0.74964 0.97655 0.0
C76 C 0.82921 0.77163 0.95512 0.0
C77 C 0.91465 0.69643 0.20285 0.0
C78 C 0.83158 0.75324 0.21279 0.0
C79 C 0.9106 0.79085 0.13132 0.0
O80 O 0.90821 0.77034 0.17722 0.0
O81 O 0.89489 0.79358 0.07182 0.0
O82 O 0.90612 0.71383 0.25437 0.0
O83 O 0.90662 0.69947 0.13108 0.0
O84 O 0.52599 0.53057 0.42281 0.0
Cd85 Cd 0.51471 0.55404 0.32779 0.0
Cd86 Cd 0.55374 0.58869 0.41252 0.0
O87 O 0.5651 0.55124 0.45593 0.0
O88 O 0.49342 0.52675 0.26339 0.0
O89 O 0.53247 0.54597 0.22313 0.0
C90 C 0.51263 0.52852 0.21139 0.0
C91 C 0.58795 0.62247 0.42129 0.0
C92 C 0.54814 0.53148 0.46277 0.0
C93 C 0.49216 0.60257 0.40928 0.0
O94 O 0.51549 0.60371 0.44342 0.0
O95 O 0.4882 0.58645 0.35118 0.0
O96 O 0.57634 0.61257 0.48278 0.0
O97 O 0.58063 0.61295 0.35352 0.0
O98 O 0.75493 0.2179 0.63916 0.0
Cd99 Cd 0.73353 0.20245 0.54521 0.0
Cd100 Cd 0.69081 0.23857 0.6225 0.0
O101 O 0.72627 0.25104 0.67677 0.0
O102 O 0.76345 0.18609 0.47936 0.0
O103 O 0.73793 0.22179 0.44133 0.0
C104 C 0.75836 0.20514 0.42842 0.0
C105 C 0.65657 0.27187 0.64112 0.0
C106 C 0.7492 0.2386 0.68197 0.0
C107 C 0.68432 0.17488 0.61324 0.0
O108 O 0.6772 0.19863 0.63801 0.0
O109 O 0.70541 0.17157 0.56973 0.0
O110 O 0.66504 0.25654 0.69763 0.0
O111 O 0.66682 0.26794 0.57213 0.0
O112 O 0.33785 0.27179 0.61541 0.0
Cd113 Cd 0.36385 0.2779 0.52215 0.0
Cd114 Cd 0.39218 0.24021 0.612 0.0
O115 O 0.35197 0.22889 0.62975 0.0
O116 O 0.3399 0.29203 0.43628 0.0
O117 O 0.36059 0.25092 0.43275 0.0
C118 C 0.34362 0.26852 0.40176 0.0
C119 C 0.42486 0.2064 0.64174 0.0
C120 C 0.33448 0.24776 0.6435 0.0
C121 C 0.4088 0.30067 0.61017 0.0
O122 O 0.40576 0.27847 0.64899 0.0
O123 O 0.39686 0.30373 0.54414 0.0
O124 O 0.42074 0.21368 0.56976 0.0
O125 O 0.40998 0.21754 0.69546 0.0
O126 O 0.2437 0.70496 0.14058 0.0
Cd127 Cd 0.2176 0.70455 0.04608 0.0
Cd128 Cd 0.19488 0.74638 0.13854 0.0
O129 O 0.23468 0.74777 0.17786 0.0
O130 O 0.23943 0.68455 0.96486 0.0
O131 O 0.22747 0.72876 0.9542 0.0
C132 C 0.24113 0.70772 0.92772 0.0
C133 C 0.16848 0.78623 0.1567 0.0
C134 C 0.24925 0.72603 0.18205 0.0
C135 C 0.16796 0.6894 0.12961 0.0
O136 O 0.17255 0.71165 0.16709 0.0
O137 O 0.18113 0.68381 0.06693 0.0
O138 O 0.17763 0.77219 0.21517 0.0
O139 O 0.17529 0.77851 0.0868 0.0
O140 O 0.25714 0.25552 0.93562 0.0
Cd141 Cd 0.23655 0.26354 0.03723 0.0
Cd142 Cd 0.19566 0.2301 0.94616 0.0
O143 O 0.23019 0.22395 0.87994 0.0
O144 O 0.26572 0.2823 0.1011 0.0
O145 O 0.24816 0.24166 0.1328 0.0
C146 C 0.26585 0.26109 0.14674 0.0
C147 C 0.16237 0.19556 0.93018 0.0
C148 C 0.25216 0.2382 0.88145 0.0
C149 C 0.1853 0.29156 0.98249 0.0
O150 O 0.17926 0.26931 0.94657 0.0
O151 O 0.20612 0.2931 0.02797 0.0
O152 O 0.16837 0.21239 0.87457 0.0
O153 O 0.17534 0.19802 -0.00388 0.0
O154 O 0.33035 0.69678 0.47267 0.0
Cd155 Cd 0.35216 0.69447 0.57559 0.0
Cd156 Cd 0.38463 0.73367 0.48878 0.0
O157 O 0.34799 0.73638 0.43107 0.0
O158 O 0.32557 0.67689 0.64954 0.0
O159 O 0.33952 0.72044 0.6606 0.0
C160 C 0.32355 0.70062 0.6839 0.0
C161 C 0.41301 0.77222 0.47474 0.0
C162 C 0.33016 0.71729 0.42636 0.0
C163 C 0.4063 0.6754 0.52081 0.0
O164 O 0.40626 0.69741 0.4803 0.0
O165 O 0.3881 0.67127 0.57334 0.0
O166 O 0.40757 0.75626 0.41645 0.0
O167 O 0.402 0.76679 0.54192 0.0
O168 O 0.56238 0.02936 0.72312 0.0
Cd169 Cd 0.5786 0.05115 0.815 0.0
Cd170 Cd 0.54234 0.09319 0.7413 0.0
O171 O 0.5272 0.05698 0.69643 0.0
O172 O 0.59496 0.02185 0.88293 0.0
O173 O 0.5594 0.04784 0.91915 0.0
C174 C 0.57598 0.02746 0.93355 0.0
C175 C 0.50937 0.12783 0.72521 0.0
C176 C 0.54003 0.03443 0.68688 0.0
C177 C 0.60606 0.09888 0.74053 0.0
O178 O 0.58217 0.1058 0.71626 0.0
O179 O 0.60945 0.07867 0.78727 0.0
O180 O 0.52244 0.11762 0.66652 0.0
O181 O 0.51541 0.1191 0.79472 0.0
O182 O 0.00818 0.94957 0.19285 0.0
Cd183 Cd 0.00797 0.92645 0.29318 0.0
Cd184 Cd 0.04668 0.89768 0.20085 0.0
O185 O 0.04732 0.93424 0.14181 0.0
O186 O 0.98739 0.95101 0.36674 0.0
O187 O 0.03172 0.94075 0.38183 0.0
C188 C 0.01036 0.95485 0.40372 0.0
C189 C 0.08666 0.87108 0.20045 0.0
C190 C 0.02732 0.95116 0.1424 0.0
C191 C 0.99018 0.87275 0.23078 0.0
O192 O 0.01164 0.8742 0.18836 0.0
O193 O 0.98615 0.88983 0.28653 0.0
O194 O 0.07259 0.87504 0.13739 0.0
O195 O 0.07882 0.88321 0.26423 0.0
O196 O 0.54991 0.9546 0.41525 0.0
Cd197 Cd 0.56458 0.93175 0.32377 0.0
Cd198 Cd 0.52644 0.89239 0.40438 0.0
O199 O 0.51482 0.92889 0.4553 0.0
O200 O 0.58494 0.9602 0.26184 0.0
O201 O 0.54853 0.93764 0.2156 0.0
C202 C 0.56722 0.95645 0.20629 0.0
C203 C 0.49257 0.85829 0.41669 0.0
C204 C 0.52908 0.95082 0.459 0.0
C205 C 0.5897 0.88315 0.40193 0.0
O206 O 0.56561 0.8774 0.42672 0.0
O207 O 0.59381 0.90294 0.35431 0.0
O208 O 0.50608 0.86732 0.47634 0.0
O209 O 0.4981 0.86853 0.3486 0.0
O210 O -0.00205 0.03693 0.86129 0.0
Cd211 Cd -0.00336 0.06145 0.76339 0.0
Cd212 Cd 0.03621 0.08977 0.85225 0.0
O213 O 0.03912 0.05126 0.9 0.0
O214 O 0.98106 0.03698 0.6804 0.0
O215 O 0.02413 0.053 0.6783 0.0
C216 C 0.00521 0.03723 0.64839 0.0
C217 C 0.0755 0.11709 0.86742 0.0
C218 C 0.01919 0.03434 0.90437 0.0
C219 C 0.97821 0.11357 0.83051 0.0
O220 O 0.00046 0.11192 0.86991 0.0
O221 O 0.97352 0.09713 0.77363 0.0
O222 O 0.06058 0.11026 0.92647 0.0
O223 O 0.06863 0.10805 0.79875 0.0
C224 C 0.15834 0.64298 0.18999 0.0
C225 C 0.1486 0.66926 0.16487 0.0
C226 C 0.10518 0.66174 0.23557 0.0
C227 C 0.1138 0.63442 0.25386 0.0
N228 N 0.14614 0.59693 0.23308 0.0
N229 N 0.11098 0.70165 0.15118 0.0
C230 C 0.13972 0.62441 0.22689 0.0
C231 C 0.12145 0.67805 0.18403 0.0
N232 N 0.18565 0.63616 0.18233 0.0
N233 N 0.08187 0.67238 0.26949 0.0
H234 H 0.12215 0.71372 0.11158 0.0
H235 H 0.09043 0.70779 0.15703 0.0
H236 H 0.06983 0.66121 0.30913 0.0
H237 H 0.07598 0.69304 0.26447 0.0
H238 H 0.19433 0.61861 0.20796 0.0
H239 H 0.20026 0.64916 0.15668 0.0
H240 H 0.16338 0.58812 0.20628 0.0
H241 H 0.13303 0.58237 0.25853 0.0
C242 C 0.63189 0.85345 0.38343 0.0
C243 C 0.61338 0.86744 0.43423 0.0
C244 C 0.63532 0.84575 0.54879 0.0
C245 C 0.6544 0.83259 0.49803 0.0
N246 N 0.67607 0.8304 0.37054 0.0
N247 N 0.60251 0.88314 0.56545 0.0
C248 C 0.65434 0.83855 0.41636 0.0
C249 C 0.61665 0.86552 0.51712 0.0
N250 N 0.62725 0.85303 0.30418 0.0
N251 N 0.63407 0.83847 0.62623 0.0
H252 H 0.58935 0.89856 0.54435 0.0
H253 H 0.60603 0.88439 0.62574 0.0
H254 H 0.64746 0.82412 0.65169 0.0
H255 H 0.6184 0.84508 0.66375 0.0
H256 H 0.6384 0.84056 0.26561 0.0
H257 H 0.61068 0.86315 0.27751 0.0
H258 H 0.67836 0.83642 0.31218 0.0
H259 H 0.69332 0.82013 0.39316 0.0
C260 C 0.46977 0.33092 0.71805 0.0
C261 C 0.46259 0.35931 0.7234 0.0
C262 C 0.41859 0.34941 0.65692 0.0
C263 C 0.42772 0.32191 0.64256 0.0
N264 N 0.46523 0.28888 0.64258 0.0
N265 N 0.43207 0.39666 0.68557 0.0
C266 C 0.45428 0.31336 0.66826 0.0
C267 C 0.43745 0.36894 0.68972 0.0
N268 N 0.49105 0.32055 0.76213 0.0
N269 N 0.39177 0.35667 0.64218 0.0
H270 H 0.44536 0.4117 0.70807 0.0
H271 H 0.4155 0.40481 0.6539 0.0
H272 H 0.37725 0.34296 0.61893 0.0
H273 H 0.38336 0.37558 0.65945 0.0
H274 H 0.49553 0.29947 0.76539 0.0
H275 H 0.50216 0.3326 0.80218 0.0
H276 H 0.48558 0.28297 0.65399 0.0
H277 H 0.45506 0.27595 0.60274 0.0
C278 C 0.95161 0.18114 0.91033 0.0
C279 C 0.92351 0.17482 0.92624 0.0
C280 C 0.93066 0.12769 0.87657 0.0
C281 C 0.95794 0.13502 0.85386 0.0
N282 N 0.99158 0.17088 0.83038 0.0
N283 N 0.88457 0.14417 0.90591 0.0
C284 C 0.96751 0.16247 0.86486 0.0
C285 C 0.91247 0.14869 0.90403 0.0
N286 N 0.96355 0.20433 0.94164 0.0
N287 N 0.92242 0.10063 0.87587 0.0
H288 H 0.87035 0.15921 0.92311 0.0
H289 H 0.87536 0.12644 0.88271 0.0
H290 H 0.93507 0.08443 0.85745 0.0
H291 H 0.90381 0.09401 0.90024 0.0
H292 H 0.98465 0.20849 0.9377 0.0
H293 H 0.95304 0.21781 0.97899 0.0
H294 H -0.00169 0.19137 0.83086 0.0
H295 H 0.00314 0.15797 0.79384 0.0
C296 C 0.13986 0.35548 0.00212 0.0
C297 C 0.13321 0.36014 0.92184 0.0
C298 C 0.16659 0.32472 0.8834 0.0
C299 C 0.16922 0.31669 0.9634 0.0
N300 N 0.15618 0.32272 0.09913 0.0
N301 N 0.1382 0.34736 0.78547 0.0
C302 C 0.1555 0.33176 0.0231 0.0
C303 C 0.14621 0.34447 0.86206 0.0
N304 N 0.13174 0.37411 0.05806 0.0
N305 N 0.1841 0.31402 0.82817 0.0
H306 H 0.12321 0.3615 0.76731 0.0
H307 H 0.14478 0.33415 0.74083 0.0
H308 H 0.19999 0.30024 0.84204 0.0
H309 H 0.1848 0.32106 0.77039 0.0
H310 H 0.1382 0.37311 0.11642 0.0
H311 H 0.12099 0.39222 0.04451 0.0
H312 H 0.14395 0.33121 0.14336 0.0
H313 H 0.16715 0.30524 0.1169 0.0
C314 C 0.97703 0.82369 0.20328 0.0
C315 C 0.96907 0.85185 0.20995 0.0
C316 C 0.92214 0.83995 0.16727 0.0
C317 C 0.93101 0.81244 0.15209 0.0
N318 N 0.96821 0.77936 0.14163 0.0
N319 N 0.93571 0.88784 0.18161 0.0
C320 C 0.95888 0.80465 0.16611 0.0
C321 C 0.94207 0.86034 0.18745 0.0
N322 N 0.0016 0.81499 0.23461 0.0
N323 N 0.89462 0.84646 0.16622 0.0
H324 H 0.94974 0.90362 0.19416 0.0
H325 H 0.91729 0.89498 0.15703 0.0
H326 H 0.87912 0.83215 0.15348 0.0
H327 H 0.887 0.86547 0.18545 0.0
H328 H 0.00729 0.79424 0.23827 0.0
H329 H 0.01509 0.82828 0.2642 0.0
H330 H 0.98895 0.77356 0.14361 0.0
H331 H 0.95567 0.76517 0.11205 0.0
C332 C 0.42169 0.62735 0.48151 0.0
C333 C 0.42828 0.6549 0.50408 0.0
C334 C 0.47532 0.64882 0.45493 0.0
C335 C 0.46965 0.62053 0.43913 0.0
N336 N 0.43928 0.58125 0.45718 0.0
N337 N 0.46338 0.68896 0.53259 0.0
C338 C 0.44336 0.60924 0.45819 0.0
C339 C 0.4558 0.66466 0.49739 0.0
N340 N 0.39479 0.61875 0.4782 0.0
N341 N 0.49869 0.66103 0.42605 0.0
H342 H 0.44975 0.70057 0.56683 0.0
H343 H 0.48379 0.69586 0.53511 0.0
H344 H 0.51275 0.65065 0.39019 0.0
H345 H 0.50245 0.68223 0.43013 0.0
H346 H 0.38889 0.59988 0.45361 0.0
H347 H 0.37813 0.63129 0.49353 0.0
H348 H 0.4213 0.57198 0.47817 0.0
H349 H 0.4548 0.56712 0.44321 0.0
C350 C 0.66854 0.14639 0.726 0.0
C351 C 0.66892 0.15077 0.64358 0.0
C352 C 0.6342 0.11449 0.62622 0.0
C353 C 0.63019 0.11396 0.70887 0.0
N354 N 0.64242 0.13041 0.83832 0.0
N355 N 0.65172 0.13992 0.51418 0.0
C356 C 0.64736 0.12982 0.75929 0.0
C357 C 0.65197 0.13477 0.59309 0.0
N358 N 0.68864 0.15798 0.77216 0.0
N359 N 0.62129 0.09531 0.57974 0.0
H360 H 0.66484 0.15427 0.48775 0.0
H361 H 0.63737 0.13128 0.4756 0.0
H362 H 0.60853 0.07987 0.60248 0.0
H363 H 0.62532 0.09298 0.52003 0.0
H364 H 0.69104 0.15351 0.83161 0.0
H365 H 0.70465 0.16998 0.7492 0.0
H366 H 0.65213 0.14415 0.87668 0.0
H367 H 0.62712 0.11856 0.86515 0.0
C368 C 0.96137 0.35934 0.94033 0.0
C369 C 0.98888 0.3495 0.94812 0.0
C370 C 0.97177 0.30387 0.98738 0.0
C371 C 0.9444 0.31286 0.97187 0.0
N372 N 0.91272 0.34799 0.92678 0.0
N373 N 0.02063 0.31142 0.9653 0.0
C374 C 0.93907 0.34028 0.94622 0.0
C375 C -0.00579 0.32151 0.96834 0.0
N376 N 0.95651 0.38703 0.93083 0.0
N377 N 0.97632 0.27844 0.02012 0.0
H378 H 0.03759 0.32348 0.94924 0.0
H379 H 0.0255 0.29053 0.97113 0.0
H380 H 0.96043 0.26465 0.03332 0.0
H381 H -0.00443 0.27192 0.04047 0.0
H382 H 0.9369 0.39586 0.93339 0.0
H383 H 0.97231 0.40164 0.92661 0.0
H384 H 0.90795 0.3665 0.89858 0.0
H385 H 0.89564 0.33512 0.93508 0.0
C386 C 0.46261 0.13837 0.67214 0.0
C387 C 0.48687 0.14775 0.71095 0.0
C388 C 0.46966 0.19537 0.70858 0.0
C389 C 0.44653 0.18631 0.66357 0.0
N390 N 0.42156 0.14994 0.5969 0.0
N391 N 0.51542 0.18489 0.75953 0.0
C392 C 0.44321 0.15801 0.64349 0.0
C393 C 0.49085 0.17616 0.72805 0.0
N394 N 0.45775 0.11055 0.66533 0.0
N395 N 0.47135 0.22235 0.73271 0.0
H396 H 0.53113 0.17129 0.77615 0.0
H397 H 0.52107 0.2056 0.76468 0.0
H398 H 0.45726 0.23752 0.71557 0.0
H399 H 0.48581 0.22952 0.7733 0.0
H400 H 0.43924 0.10217 0.64496 0.0
H401 H 0.47141 0.09558 0.6865 0.0
H402 H 0.41977 0.13027 0.57237 0.0
H403 H 0.406 0.16342 0.57851 0.0
C404 C 0.63467 0.63899 0.46335 0.0
C405 C 0.6084 0.64487 0.42993 0.0
C406 C 0.61715 0.69458 0.44136 0.0
C407 C 0.64412 0.68874 0.46993 0.0
N408 N 0.68052 0.65586 0.49612 0.0
N409 N 0.57597 0.67763 0.37563 0.0
C410 C 0.65345 0.66105 0.47795 0.0
C411 C 0.60013 0.6725 0.41492 0.0
N412 N 0.64151 0.61231 0.48184 0.0
N413 N 0.60731 0.72114 0.44325 0.0
H414 H 0.56254 0.66201 0.3573 0.0
H415 H 0.57025 0.69715 0.35546 0.0
H416 H 0.61891 0.73782 0.4641 0.0
H417 H 0.58686 0.72639 0.43121 0.0
H418 H 0.6588 0.60699 0.51514 0.0
H419 H 0.62904 0.59542 0.46733 0.0
H420 H 0.68935 0.63622 0.49428 0.0
H421 H 0.69489 0.67149 0.50725 0.0
C422 C 0.12298 0.80225 0.20795 0.0
C423 C 0.14836 0.80869 0.17033 0.0
C424 C 0.13421 0.85719 0.15804 0.0
C425 C 0.10956 0.85095 0.19946 0.0
N426 N 0.08245 0.81902 0.27633 0.0
N427 N 0.18048 0.84261 0.12125 0.0
C428 C 0.10471 0.82398 0.22896 0.0
C429 C 0.15467 0.83628 0.1485 0.0
N430 N 0.11553 0.77521 0.2192 0.0
N431 N 0.13781 0.88301 0.1269 0.0
H432 H 0.19591 0.82776 0.11361 0.0
H433 H 0.18736 0.86275 0.11192 0.0
H434 H 0.12403 0.89925 0.13699 0.0
H435 H 0.15365 0.888 0.08812 0.0
H436 H 0.09598 0.7691 0.23797 0.0
H437 H 0.12788 0.75852 0.20259 0.0
H438 H 0.07957 0.80055 0.30669 0.0
H439 H 0.06794 0.83411 0.29088 0.0
C440 C 0.94889 0.62667 0.23941 0.0
C441 C 0.97427 0.63548 0.27323 0.0
C442 C 0.96111 0.68394 0.25546 0.0
C443 C 0.93511 0.67521 0.22547 0.0
N444 N 0.90209 0.63884 0.20064 0.0
N445 N 0.00292 0.67195 0.3262 0.0
C446 C 0.92836 0.6467 0.22059 0.0
C447 C 0.97975 0.66396 0.28588 0.0
N448 N 0.94467 0.59919 0.22428 0.0
N449 N 0.96867 0.71119 0.25055 0.0
H450 H 0.01767 0.65804 0.34702 0.0
H451 H 0.00646 0.69219 0.34483 0.0
H452 H 0.95594 0.72647 0.22681 0.0
H453 H 0.9885 0.71838 0.26303 0.0
H454 H 0.92817 0.59169 0.1911 0.0
H455 H 0.95853 0.58383 0.24194 0.0
H456 H 0.895 0.61853 0.20394 0.0
H457 H 0.8866 0.653 0.18631 0.0
C458 C 0.12444 0.12693 0.9067 0.0
C459 C 0.09855 0.13662 0.87877 0.0
C460 C 0.1134 0.18456 0.89725 0.0
C461 C 0.14017 0.175 0.91818 0.0
N462 N 0.17268 0.13743 0.93237 0.0
N463 N 0.06924 0.17415 0.83656 0.0
C464 C 0.14613 0.14624 0.92052 0.0
C465 C 0.09333 0.16531 0.8705 0.0
N466 N 0.12814 0.09933 0.92097 0.0
N467 N 0.1068 0.21192 0.90642 0.0
H468 H 0.05382 0.16061 0.81747 0.0
H469 H 0.06547 0.19467 0.82126 0.0
H470 H 0.12073 0.22656 0.92817 0.0
H471 H 0.08684 0.21969 0.89998 0.0
H472 H 0.14535 0.09133 0.94997 0.0
H473 H 0.11311 0.08449 0.90806 0.0
H474 H 0.17887 0.1169 0.92611 0.0
H475 H 0.18911 0.15094 0.94272 0.0
C476 C 0.64475 0.32209 0.65333 0.0
C477 C 0.63638 0.29398 0.65747 0.0
C478 C 0.59244 0.30762 0.7177 0.0
C479 C 0.60005 0.33577 0.70854 0.0
N480 N 0.63143 0.37042 0.65923 0.0
N481 N 0.60111 0.25981 0.68136 0.0
C482 C 0.62559 0.34319 0.67358 0.0
C483 C 0.60989 0.28668 0.6865 0.0
N484 N 0.67143 0.32857 0.63408 0.0
N485 N 0.56858 0.30097 0.75632 0.0
H486 H 0.61324 0.24405 0.65749 0.0
H487 H 0.58106 0.25344 0.69415 0.0
H488 H 0.55482 0.3158 0.77763 0.0
H489 H 0.56326 0.28088 0.7723 0.0
H490 H 0.67969 0.34839 0.63918 0.0
H491 H 0.68613 0.31377 0.6185 0.0
H492 H 0.64802 0.37693 0.62501 0.0
H493 H 0.61874 0.38662 0.67775 0.0
C494 C 0.46075 0.79105 0.48522 0.0
C495 C 0.43267 0.79516 0.4643 0.0
C496 C 0.4436 0.84112 0.4121 0.0
C497 C 0.472 0.83607 0.42749 0.0
N498 N 0.50843 0.80455 0.46472 0.0
N499 N 0.39738 0.82204 0.39943 0.0
C500 C 0.48082 0.81058 0.46047 0.0
C501 C 0.4241 0.81959 0.42504 0.0
N502 N 0.4682 0.7685 0.52893 0.0
N503 N 0.43511 0.86683 0.38871 0.0
H504 H 0.38218 0.80733 0.41156 0.0
H505 H 0.39064 0.83777 0.36229 0.0
H506 H 0.44877 0.88313 0.37853 0.0
H507 H 0.41443 0.87269 0.38507 0.0
H508 H 0.4878 0.76589 0.55328 0.0
H509 H 0.45416 0.75333 0.54636 0.0
H510 H 0.51615 0.78522 0.48053 0.0
H511 H 0.52377 0.81806 0.44513 0.0
C512 C 0.05378 0.52103 0.10522 0.0
C513 C 0.05657 0.51284 0.1849 0.0
C514 C 0.06628 0.4653 0.14474 0.0
C515 C 0.06096 0.47308 0.06592 0.0
N516 N 0.04489 0.50663 0.97138 0.0
N517 N 0.06186 0.47705 0.28239 0.0
C518 C 0.05328 0.50046 0.04615 0.0
C519 C 0.0618 0.4849 0.20531 0.0
N520 N 0.05317 0.54848 0.08555 0.0
N521 N 0.07669 0.43962 0.16127 0.0
H522 H 0.05906 0.49105 0.32824 0.0
H523 H 0.06251 0.45651 0.30069 0.0
H524 H 0.08029 0.42464 0.11827 0.0
H525 H 0.08388 0.43386 0.21657 0.0
H526 H 0.05426 0.55554 0.02786 0.0
H527 H 0.0543 0.56445 0.12674 0.0
H528 H 0.03621 0.52558 0.95578 0.0
H529 H 0.04429 0.49202 0.92621 0.0
C530 C 0.78215 0.75529 0.25155 0.0
C531 C 0.81038 0.75538 0.27348 0.0
C532 C 0.79809 0.75916 0.41195 0.0
C533 C 0.76993 0.76145 0.38955 0.0
N534 N 0.73547 0.7677 0.28794 0.0
N535 N 0.84586 0.76267 0.37158 0.0
C536 C 0.76198 0.76115 0.30925 0.0
C537 C 0.8186 0.75875 0.3529 0.0
N538 N 0.77463 0.74885 0.17622 0.0
N539 N 0.80516 0.75643 0.48934 0.0
H540 H 0.86163 0.7627 0.32988 0.0
H541 H 0.85263 0.76834 0.42747 0.0
H542 H 0.79069 0.75678 0.53448 0.0
H543 H 0.82505 0.75151 0.50835 0.0
H544 H 0.7542 0.7457 0.15883 0.0
H545 H 0.78898 0.7442 0.13246 0.0
H546 H 0.72932 0.77058 0.22985 0.0
H547 H 0.72017 0.77295 0.3284 0.0
C548 C 0.55118 0.51858 0.6043 0.0
C549 C 0.55247 0.51066 0.52399 0.0
C550 C 0.54988 0.4619 0.55949 0.0
C551 C 0.54907 0.46983 0.6398 0.0
N552 N 0.55638 0.50432 0.73991 0.0
N553 N 0.56024 0.4756 0.42586 0.0
C554 C 0.55222 0.49778 0.66262 0.0
C555 C 0.55426 0.4825 0.50186 0.0
N556 N 0.54708 0.54567 0.62485 0.0
N557 N 0.54477 0.43509 0.53788 0.0
H558 H 0.56375 0.49045 0.38252 0.0
H559 H 0.56433 0.45543 0.40754 0.0
H560 H 0.54119 0.41924 0.57806 0.0
H561 H 0.54191 0.42889 0.47981 0.0
H562 H 0.5427 0.552 0.68199 0.0
H563 H 0.54584 0.56174 0.58426 0.0
H564 H 0.56138 0.52416 0.75931 0.0
H565 H 0.5575 0.48931 0.78385 0.0
C566 C 0.78278 0.2529 0.87888 0.0
C567 C 0.81068 0.25471 0.85487 0.0
C568 C 0.79626 0.25491 0.71736 0.0
C569 C 0.76928 0.24753 0.7415 0.0
N570 N 0.73691 0.23695 0.8456 0.0
N571 N 0.84479 0.25523 0.75083 0.0
C572 C 0.76231 0.24629 0.8224 0.0
C573 C 0.81773 0.25565 0.77397 0.0
N574 N 0.77602 0.25741 0.95575 0.0
N575 N 0.80126 0.26128 0.64048 0.0
H576 H 0.8614 0.25548 0.78989 0.0
H577 H 0.85084 0.25246 0.69266 0.0
H578 H 0.78574 0.26119 0.59773 0.0
H579 H 0.82 0.2693 0.6208 0.0
H580 H 0.7557 0.25876 0.97564 0.0
H581 H 0.79078 0.26262 -0.00187 0.0
H582 H 0.73202 0.23271 0.9039 0.0
H583 H 0.72135 0.23112 0.80647 0.0
C584 C 0.29908 0.22776 0.83285 0.0
C585 C 0.27175 0.23628 0.8164 0.0
C586 C 0.28463 0.24804 0.68189 0.0
C587 C 0.31266 0.24289 0.70172 0.0
N588 N 0.3473 0.23351 0.8013 0.0
N589 N 0.23846 0.25755 0.72918 0.0
C590 C 0.32015 0.23399 0.77839 0.0
C591 C 0.26434 0.24694 0.74167 0.0
N592 N 0.30482 0.2137 0.90061 0.0
N593 N 0.27738 0.25372 0.60598 0.0
H594 H 0.2228 0.25701 0.77111 0.0
H595 H 0.23302 0.26873 0.67921 0.0
H596 H 0.29183 0.25585 0.5612 0.0
H597 H 0.25698 0.25435 0.58628 0.0
H598 H 0.32393 0.2046 0.91212 0.0
H599 H 0.28963 0.20879 0.94178 0.0
H600 H 0.35356 0.22991 0.85897 0.0
H601 H 0.36351 0.23972 0.76519 0.0
C602 C 0.31756 0.71443 0.28526 0.0
C603 C 0.30937 0.71874 0.3642 0.0
C604 C 0.26143 0.72493 0.32379 0.0
C605 C 0.27008 0.72367 0.24422 0.0
N606 N 0.30629 0.72013 0.14757 0.0
N607 N 0.27491 0.73201 0.45931 0.0
C608 C 0.29814 0.71913 0.22435 0.0
C609 C 0.28168 0.72506 0.38383 0.0
N610 N 0.34363 0.70505 0.2689 0.0
N611 N 0.23389 0.72469 0.34209 0.0
H612 H 0.28925 0.73218 0.50519 0.0
H613 H 0.25564 0.73981 0.47528 0.0
H614 H 0.21823 0.72393 0.29989 0.0
H615 H 0.22651 0.72256 0.39919 0.0
H616 H 0.34989 0.6987 0.21326 0.0
H617 H 0.35846 0.70141 0.31229 0.0
H618 H 0.32689 0.72003 0.12993 0.0
H619 H 0.29246 0.72319 0.10139 0.0
C620 C 0.52074 -0.00038 0.49521 0.0
C621 C 0.52316 0.97173 0.51928 0.0
C622 C 0.52544 0.9865 0.65626 0.0
C623 C 0.52953 0.01398 0.63041 0.0
N624 N 0.53273 0.04706 0.5239 0.0
N625 N 0.5297 0.93812 0.62347 0.0
C626 C 0.52702 0.02088 0.54964 0.0
C627 C 0.52537 0.96486 0.60019 0.0
N628 N 0.51288 0.0056 0.41996 0.0
N629 N 0.52182 0.98118 0.73438 0.0
H630 H 0.5303 0.92137 0.585 0.0
H631 H 0.53487 0.93275 0.68091 0.0
H632 H 0.52144 -0.00313 0.77661 0.0
H633 H 0.51635 0.96177 0.75597 0.0
H634 H 0.50849 0.02559 0.40072 0.0
H635 H 0.50803 0.99017 0.37917 0.0
H636 H 0.53433 0.05217 0.46466 0.0
H637 H 0.53812 0.06334 0.56108 0.0
C638 C 0.02269 0.02092 0.04476 0.0
C639 C 0.02003 0.01282 0.96495 0.0
C640 C 0.0196 0.96411 0.00285 0.0
C641 C 0.02543 0.97225 0.0812 0.0
N642 N 0.03658 0.00768 0.1761 0.0
N643 N 0.019 0.97707 0.86567 0.0
C644 C 0.02809 0.00048 0.10212 0.0
C645 C 0.01921 0.9845 0.94319 0.0
N646 N 0.01888 0.04797 0.06607 0.0
N647 N 0.01345 0.93709 0.98604 0.0
H648 H 0.01805 0.99143 0.82019 0.0
H649 H 0.02176 0.95682 0.84619 0.0
H650 H 0.01357 0.92147 0.02827 0.0
H651 H 0.006 0.93051 0.93171 0.0
H652 H 0.01776 0.05455 0.12426 0.0
H653 H 0.01405 0.06353 0.02589 0.0
H654 H 0.0417 0.02785 0.19224 0.0
H655 H 0.04087 -0.00686 0.21973 0.0
C656 C 0.08394 0.5122 0.70089 0.0
C657 C 0.0778 0.48403 0.6832 0.0
C658 C 0.0617 0.49811 0.55267 0.0
C659 C 0.07272 0.52495 0.56552 0.0
N660 N 0.09576 0.55757 0.65028 0.0
N661 N 0.06388 0.44964 0.58777 0.0
C662 C 0.08425 0.53203 0.63928 0.0
C663 C 0.06717 0.47682 0.60814 0.0
N664 N 0.08817 0.52027 0.777 0.0
N665 N 0.04598 0.49296 0.48752 0.0
H666 H 0.06863 0.43331 0.62538 0.0
H667 H 0.05903 0.4432 0.53095 0.0
H668 H 0.04118 0.50826 0.44659 0.0
H669 H 0.03536 0.47446 0.47851 0.0
H670 H 0.0902 0.5409 0.79395 0.0
H671 H 0.08657 0.50672 0.82442 0.0
H672 H 0.10739 0.56278 0.69974 0.0
H673 H 0.09498 0.57306 0.60766 0.0
C674 C 0.81203 0.75889 0.81936 0.0
C675 C 0.80704 0.77066 0.89445 0.0
C676 C 0.76109 0.78607 0.85064 0.0
C677 C 0.76577 0.77348 0.77678 0.0
N678 N 0.7922 0.7416 0.69792 0.0
N679 N 0.77367 0.78792 0.98818 0.0
C680 C 0.79008 0.75771 0.76364 0.0
C681 C 0.78062 0.78207 0.91212 0.0
N682 N 0.83804 0.75039 0.79932 0.0
N683 N 0.73816 0.80211 0.86186 0.0
H684 H 0.78683 0.78411 0.03554 0.0
H685 H 0.75383 0.79371 0.00531 0.0
H686 H 0.72263 0.80417 0.81956 0.0
H687 H 0.73534 0.81457 0.9112 0.0
H688 H 0.84347 0.74446 0.74257 0.0
H689 H 0.85492 0.75172 0.83733 0.0
H690 H 0.80837 0.72775 0.68852 0.0
H691 H 0.77632 0.73995 0.65669 0.0
C692 C 0.51078 0.52014 0.06549 0.0
C693 C 0.51266 0.5095 0.14284 0.0
C694 C 0.50974 0.46202 0.09141 0.0
C695 C 0.50971 0.4726 0.01379 0.0
N696 N 0.51613 0.51137 0.92622 0.0
N697 N 0.51987 0.47046 0.22886 0.0
C698 C 0.5119 0.50159 0.00058 0.0
C699 C 0.51383 0.48045 0.15567 0.0
N700 N 0.50681 0.54786 0.05399 0.0
N701 N 0.50471 0.43454 0.10405 0.0
H702 H 0.52345 0.48325 0.27725 0.0
H703 H 0.52394 0.44967 0.24015 0.0
H704 H 0.50143 0.42042 0.05856 0.0
H705 H 0.50138 0.42617 0.15958 0.0
H706 H 0.50212 0.55644 -0.00053 0.0
H707 H 0.50589 0.56211 0.1 0.0
H708 H 0.52092 0.53193 0.91401 0.0
H709 H 0.51746 0.49851 0.87712 0.0
C710 C 0.7843 0.21186 0.21785 0.0
C711 C 0.81335 0.21312 0.23068 0.0
C712 C 0.80556 0.21385 0.37288 0.0
C713 C 0.77693 0.20885 0.35994 0.0
N714 N 0.73944 0.19937 0.27017 0.0
N715 N 0.85203 0.21152 0.32028 0.0
C716 C 0.76635 0.20696 0.28241 0.0
C717 C 0.82412 0.21322 0.3082 0.0
N718 N 0.77375 0.21642 0.14439 0.0
N719 N 0.8149 0.22024 0.44661 0.0
H720 H 0.86631 0.2108 0.27451 0.0
H721 H 0.86089 0.20839 0.37539 0.0
H722 H 0.80192 0.22153 0.49531 0.0
H723 H 0.83498 0.22693 0.45816 0.0
H724 H 0.75269 0.21867 0.13306 0.0
H725 H 0.78611 0.22071 0.0958 0.0
H726 H 0.73143 0.19461 0.21492 0.0
H727 H 0.72567 0.19545 0.31588 0.0
C728 C 0.3004 0.24846 0.34579 0.0
C729 C 0.32636 0.26119 0.33293 0.0
C730 C 0.31494 0.26599 0.1937 0.0
C731 C 0.28696 0.25886 0.21024 0.0
N732 N 0.25238 0.24652 0.3067 0.0
N733 N 0.35852 0.28315 0.24525 0.0
C734 C 0.27949 0.25058 0.28736 0.0
C735 C 0.33375 0.27023 0.25691 0.0
N736 N 0.29578 0.23423 0.4137 0.0
N737 N 0.32386 0.26751 0.11769 0.0
H738 H 0.37327 0.28532 0.2897 0.0
H739 H 0.36366 0.29302 0.19291 0.0
H740 H 0.31121 0.26272 0.06983 0.0
H741 H 0.34453 0.27032 0.10254 0.0
H742 H 0.27798 0.22258 0.42354 0.0
H743 H 0.31112 0.23157 0.4562 0.0
H744 H 0.24581 0.24323 0.36419 0.0
H745 H 0.23612 0.24923 0.26724 0.0
C746 C 0.2739 0.69798 0.72648 0.0
C747 C 0.30176 0.70535 0.744 0.0
C748 C 0.28703 0.72196 0.87354 0.0
C749 C 0.26046 0.71028 0.86066 0.0
N750 N 0.22868 0.68565 0.7769 0.0
N751 N 0.33554 0.72138 0.8383 0.0
C752 C 0.25391 0.69786 0.78762 0.0
C753 C 0.30851 0.71687 0.81835 0.0
N754 N 0.26624 0.69233 0.65075 0.0
N755 N 0.29179 0.73787 0.93861 0.0
H756 H 0.35198 0.71716 0.80064 0.0
H757 H 0.3419 0.72684 0.89473 0.0
H758 H 0.27655 0.74206 0.98016 0.0
H759 H 0.30993 0.74909 0.94745 0.0
H760 H 0.24576 0.68953 0.63334 0.0
H761 H 0.27993 0.69332 0.60362 0.0
H762 H 0.22391 0.6733 0.7285 0.0
H763 H 0.21299 0.68659 0.8188 0.0
C764 C 0.56979 0.9628 0.05964 0.0
C765 C 0.56769 0.97449 0.13583 0.0
C766 C 0.57221 0.02111 0.08004 0.0
C767 C 0.57225 0.00953 0.00347 0.0
N768 N 0.56401 0.96986 0.91988 0.0
N769 N 0.55995 0.01488 0.21668 0.0
C770 C 0.56899 0.9805 0.99306 0.0
C771 C 0.56687 0.00371 0.14554 0.0
N772 N 0.57377 0.93496 0.05069 0.0
N773 N 0.57845 0.04845 0.09079 0.0
H774 H 0.55495 0.00288 0.26551 0.0
H775 H 0.55632 0.03594 0.22505 0.0
H776 H 0.58297 0.06181 0.04452 0.0
H777 H 0.58165 0.05726 0.14596 0.0
H778 H 0.57849 0.9258 -0.00307 0.0
H779 H 0.5749 0.92129 0.09792 0.0
H780 H 0.55862 0.94926 0.9101 0.0
H781 H 0.56238 0.98213 0.86974 0.0
C782 C -0.00031 0.02386 0.50687 0.0
C783 C 0.0111 0.01834 0.58185 0.0
C784 C 0.02315 0.9712 0.54023 0.0
C785 C 0.01242 0.97695 0.46433 0.0
N786 N -0.0018 0.01128 0.36925 0.0
N787 N 0.04007 0.98973 0.66378 0.0
C788 C 0.00294 0.00406 0.44577 0.0
C789 C 0.02505 -0.007 0.59636 0.0
N790 N 0.98545 0.04789 0.49425 0.0
N791 N 0.02998 0.94469 0.56043 0.0
H792 H 0.04208 0.00535 0.70572 0.0
H793 H 0.05273 0.9727 0.67441 0.0
H794 H 0.02826 0.92802 0.52179 0.0
H795 H 0.03497 0.93877 0.61753 0.0
H796 H 0.97374 0.05156 0.44388 0.0
H797 H 0.98408 0.06358 0.53627 0.0
H798 H -0.00612 0.03144 0.35151 0.0
H799 H 0.00149 -0.00221 0.32231 0.0
loop_
_geom_bond_atom_site_label_1
_geom_bond_atom_site_label_2
_geom_bond_distance
_geom_bond_site_symmetry_2
_ccdc_geom_bond_type
O0 Cd1 2.223 . S
O0 C8 1.315 . S
Cd1 O0 2.223 . S
Cd1 O4 2.297 . S
Cd1 O5 2.439 . S
Cd1 O11 2.240 . S
Cd2 O3 2.240 . S
Cd2 O10 2.223 . S
Cd2 O12 2.297 . S
Cd2 O13 2.439 . S
O3 Cd2 2.240 . S
O3 C8 1.279 . S
O4 Cd1 2.297 . S
O4 C6 1.247 . S
O5 Cd1 2.439 . S
O5 C6 1.208 . S
C6 O4 1.247 . S
C6 O5 1.208 . S
C7 O12 1.247 . S
C7 O13 1.208 . S
C8 O0 1.315 . S
C8 O3 1.279 . S
C9 O10 1.315 . S
C9 O11 1.279 . S
O10 Cd2 2.223 . S
O10 C9 1.315 . S
O11 Cd1 2.240 . S
O11 C9 1.279 . S
O12 Cd2 2.297 . S
O12 C7 1.247 . S
O13 Cd2 2.439 . S
O13 C7 1.208 . S
O14 Cd15 2.223 . S
O14 C22 1.315 . S
Cd15 O14 2.223 . S
Cd15 O18 2.297 . S
Cd15 O19 2.439 . S
Cd15 O25 2.240 . S
Cd16 O17 2.240 . S
Cd16 O24 2.223 . S
Cd16 O26 2.297 . S
Cd16 O27 2.439 . S
O17 Cd16 2.240 . S
O17 C22 1.279 . S
O18 Cd15 2.297 . S
O18 C20 1.247 . S
O19 Cd15 2.439 . S
O19 C20 1.208 . S
C20 O18 1.247 . S
C20 O19 1.208 . S
C21 O26 1.247 . S
C21 O27 1.208 . S
C22 O14 1.315 . S
C22 O17 1.279 . S
C23 O24 1.315 . S
C23 O25 1.279 . S
O24 Cd16 2.223 . S
O24 C23 1.315 . S
O25 Cd15 2.240 . S
O25 C23 1.279 . S
O26 Cd16 2.297 . S
O26 C21 1.247 . S
O27 Cd16 2.439 . S
O27 C21 1.208 . S
O28 Cd29 2.223 . S
O28 C36 1.315 . S
Cd29 O28 2.223 . S
Cd29 O32 2.297 . S
Cd29 O33 2.439 . S
Cd29 O39 2.240 . S
Cd30 O31 2.240 . S
Cd30 O38 2.223 . S
Cd30 O40 2.297 . S
Cd30 O41 2.439 . S
O31 Cd30 2.240 . S
O31 C36 1.279 . S
O32 Cd29 2.297 . S
O32 C34 1.247 . S
O33 Cd29 2.439 . S
O33 C34 1.208 . S
C34 O32 1.247 . S
C34 O33 1.208 . S
C35 O40 1.247 . S
C35 O41 1.208 . S
C36 O28 1.315 . S
C36 O31 1.279 . S
C37 O38 1.315 . S
C37 O39 1.279 . S
O38 Cd30 2.223 . S
O38 C37 1.315 . S
O39 Cd29 2.240 . S
O39 C37 1.279 . S
O40 Cd30 2.297 . S
O40 C35 1.247 . S
O41 Cd30 2.439 . S
O41 C35 1.208 . S
O42 Cd43 2.223 1_556 S
O42 C50 1.315 . S
Cd43 O42 2.223 1_554 S
Cd43 O46 2.297 . S
Cd43 O47 2.439 . S
Cd43 O53 2.240 . S
Cd44 O45 2.240 . S
Cd44 O52 2.223 . S
Cd44 O54 2.297 . S
Cd44 O55 2.439 1_556 S
O45 Cd44 2.240 . S
O45 C50 1.279 . S
O46 Cd43 2.297 . S
O46 C48 1.247 . S
O47 Cd43 2.439 . S
O47 C48 1.208 . S
C48 O46 1.247 . S
C48 O47 1.208 . S
C49 O54 1.247 1_554 S
C49 O55 1.208 . S
C50 O42 1.315 . S
C50 O45 1.279 . S
C51 O52 1.315 . S
C51 O53 1.279 1_556 S
O52 Cd44 2.223 . S
O52 C51 1.315 . S
O53 Cd43 2.240 . S
O53 C51 1.279 1_554 S
O54 Cd44 2.297 . S
O54 C49 1.247 1_556 S
O55 Cd44 2.439 1_554 S
O55 C49 1.208 . S
O56 Cd57 2.223 . S
O56 C64 1.315 . S
Cd57 O56 2.223 . S
Cd57 O60 2.297 . S
Cd57 O61 2.439 . S
Cd57 O67 2.240 . S
Cd58 O59 2.240 . S
Cd58 O66 2.223 1_556 S
Cd58 O68 2.297 . S
Cd58 O69 2.439 . S
O59 Cd58 2.240 . S
O59 C64 1.279 . S
O60 Cd57 2.297 . S
O60 C62 1.247 . S
O61 Cd57 2.439 . S
O61 C62 1.208 . S
C62 O60 1.247 . S
C62 O61 1.208 . S
C63 O68 1.247 . S
C63 O69 1.208 . S
C64 O56 1.315 . S
C64 O59 1.279 . S
C65 O66 1.315 1_556 S
C65 O67 1.279 . S
O66 Cd58 2.223 1_554 S
O66 C65 1.315 1_554 S
O67 Cd57 2.240 . S
O67 C65 1.279 . S
O68 Cd58 2.297 . S
O68 C63 1.247 . S
O69 Cd58 2.439 . S
O69 C63 1.208 . S
O70 Cd71 2.223 . S
O70 C78 1.315 . S
Cd71 O70 2.223 . S
Cd71 O74 2.297 1_554 S
Cd71 O75 2.439 1_554 S
Cd71 O81 2.240 . S
Cd72 O73 2.240 . S
Cd72 O80 2.223 . S
Cd72 O82 2.297 . S
Cd72 O83 2.439 . S
O73 Cd72 2.240 . S
O73 C78 1.279 . S
O74 Cd71 2.297 1_556 S
O74 C76 1.247 . S
O75 Cd71 2.439 1_556 S
O75 C76 1.208 . S
C76 O74 1.247 . S
C76 O75 1.208 . S
C77 O82 1.247 . S
C77 O83 1.208 . S
C78 O70 1.315 . S
C78 O73 1.279 . S
C79 O80 1.315 . S
C79 O81 1.279 . S
O80 Cd72 2.223 . S
O80 C79 1.315 . S
O81 Cd71 2.240 . S
O81 C79 1.279 . S
O82 Cd72 2.297 . S
O82 C77 1.247 . S
O83 Cd72 2.439 . S
O83 C77 1.208 . S
O84 Cd85 2.223 . S
O84 C92 1.315 . S
Cd85 O84 2.223 . S
Cd85 O88 2.297 . S
Cd85 O89 2.439 . S
Cd85 O95 2.240 . S
Cd86 O87 2.240 . S
Cd86 O94 2.223 . S
Cd86 O96 2.297 . S
Cd86 O97 2.439 . S
O87 Cd86 2.240 . S
O87 C92 1.279 . S
O88 Cd85 2.297 . S
O88 C90 1.247 . S
O89 Cd85 2.439 . S
O89 C90 1.208 . S
C90 O88 1.247 . S
C90 O89 1.208 . S
C91 O96 1.247 . S
C91 O97 1.208 . S
C92 O84 1.315 . S
C92 O87 1.279 . S
C93 O94 1.315 . S
C93 O95 1.279 . S
O94 Cd86 2.223 . S
O94 C93 1.315 . S
O95 Cd85 2.240 . S
O95 C93 1.279 . S
O96 Cd86 2.297 . S
O96 C91 1.247 . S
O97 Cd86 2.439 . S
O97 C91 1.208 . S
O98 Cd99 2.223 . S
O98 C106 1.315 . S
Cd99 O98 2.223 . S
Cd99 O102 2.297 . S
Cd99 O103 2.439 . S
Cd99 O109 2.240 . S
Cd100 O101 2.240 . S
Cd100 O108 2.223 . S
Cd100 O110 2.297 . S
Cd100 O111 2.439 . S
O101 Cd100 2.240 . S
O101 C106 1.279 . S
O102 Cd99 2.297 . S
O102 C104 1.247 . S
O103 Cd99 2.439 . S
O103 C104 1.208 . S
C104 O102 1.247 . S
C104 O103 1.208 . S
C105 O110 1.247 . S
C105 O111 1.208 . S
C106 O98 1.315 . S
C106 O101 1.279 . S
C107 O108 1.315 . S
C107 O109 1.279 . S
O108 Cd100 2.223 . S
O108 C107 1.315 . S
O109 Cd99 2.240 . S
O109 C107 1.279 . S
O110 Cd100 2.297 . S
O110 C105 1.247 . S
O111 Cd100 2.439 . S
O111 C105 1.208 . S
O112 Cd113 2.223 . S
O112 C120 1.315 . S
Cd113 O112 2.223 . S
Cd113 O116 2.297 . S
Cd113 O117 2.439 . S
Cd113 O123 2.240 . S
Cd114 O115 2.240 . S
Cd114 O122 2.223 . S
Cd114 O124 2.297 . S
Cd114 O125 2.439 . S
O115 Cd114 2.240 . S
O115 C120 1.279 . S
O116 Cd113 2.297 . S
O116 C118 1.247 . S
O117 Cd113 2.439 . S
O117 C118 1.208 . S
C118 O116 1.247 . S
C118 O117 1.208 . S
C119 O124 1.247 . S
C119 O125 1.208 . S
C120 O112 1.315 . S
C120 O115 1.279 . S
C121 O122 1.315 . S
C121 O123 1.279 . S
O122 Cd114 2.223 . S
O122 C121 1.315 . S
O123 Cd113 2.240 . S
O123 C121 1.279 . S
O124 Cd114 2.297 . S
O124 C119 1.247 . S
O125 Cd114 2.439 . S
O125 C119 1.208 . S
O126 Cd127 2.223 . S
O126 C134 1.315 . S
Cd127 O126 2.223 . S
Cd127 O130 2.297 1_554 S
Cd127 O131 2.439 1_554 S
Cd127 O137 2.240 . S
Cd128 O129 2.240 . S
Cd128 O136 2.223 . S
Cd128 O138 2.297 . S
Cd128 O139 2.439 . S
O129 Cd128 2.240 . S
O129 C134 1.279 . S
O130 Cd127 2.297 1_556 S
O130 C132 1.247 . S
O131 Cd127 2.439 1_556 S
O131 C132 1.208 . S
C132 O130 1.247 . S
C132 O131 1.208 . S
C133 O138 1.247 . S
C133 O139 1.208 . S
C134 O126 1.315 . S
C134 O129 1.279 . S
C135 O136 1.315 . S
C135 O137 1.279 . S
O136 Cd128 2.223 . S
O136 C135 1.315 . S
O137 Cd127 2.240 . S
O137 C135 1.279 . S
O138 Cd128 2.297 . S
O138 C133 1.247 . S
O139 Cd128 2.439 . S
O139 C133 1.208 . S
O140 Cd141 2.223 1_556 S
O140 C148 1.315 . S
Cd141 O140 2.223 1_554 S
Cd141 O144 2.297 . S
Cd141 O145 2.439 . S
Cd141 O151 2.240 . S
Cd142 O143 2.240 . S
Cd142 O150 2.223 . S
Cd142 O152 2.297 . S
Cd142 O153 2.439 1_556 S
O143 Cd142 2.240 . S
O143 C148 1.279 . S
O144 Cd141 2.297 . S
O144 C146 1.247 . S
O145 Cd141 2.439 . S
O145 C146 1.208 . S
C146 O144 1.247 . S
C146 O145 1.208 . S
C147 O152 1.247 1_554 S
C147 O153 1.208 . S
C148 O140 1.315 . S
C148 O143 1.279 . S
C149 O150 1.315 . S
C149 O151 1.279 1_556 S
O150 Cd142 2.223 . S
O150 C149 1.315 . S
O151 Cd141 2.240 . S
O151 C149 1.279 1_554 S
O152 Cd142 2.297 . S
O152 C147 1.247 1_556 S
O153 Cd142 2.439 1_554 S
O153 C147 1.208 . S
O154 Cd155 2.223 . S
O154 C162 1.315 . S
Cd155 O154 2.223 . S
Cd155 O158 2.297 . S
Cd155 O159 2.439 . S
Cd155 O165 2.240 . S
Cd156 O157 2.240 . S
Cd156 O164 2.223 . S
Cd156 O166 2.297 . S
Cd156 O167 2.439 . S
O157 Cd156 2.240 . S
O157 C162 1.279 . S
O158 Cd155 2.297 . S
O158 C160 1.247 . S
O159 Cd155 2.439 . S
O159 C160 1.208 . S
C160 O158 1.247 . S
C160 O159 1.208 . S
C161 O166 1.247 . S
C161 O167 1.208 . S
C162 O154 1.315 . S
C162 O157 1.279 . S
C163 O164 1.315 . S
C163 O165 1.279 . S
O164 Cd156 2.223 . S
O164 C163 1.315 . S
O165 Cd155 2.240 . S
O165 C163 1.279 . S
O166 Cd156 2.297 . S
O166 C161 1.247 . S
O167 Cd156 2.439 . S
O167 C161 1.208 . S
O168 Cd169 2.223 . S
O168 C176 1.315 . S
Cd169 O168 2.223 . S
Cd169 O172 2.297 . S
Cd169 O173 2.439 . S
Cd169 O179 2.240 . S
Cd170 O171 2.240 . S
Cd170 O178 2.223 . S
Cd170 O180 2.297 . S
Cd170 O181 2.439 . S
O171 Cd170 2.240 . S
O171 C176 1.279 . S
O172 Cd169 2.297 . S
O172 C174 1.247 . S
O173 Cd169 2.439 . S
O173 C174 1.208 . S
C174 O172 1.247 . S
C174 O173 1.208 . S
C175 O180 1.247 . S
C175 O181 1.208 . S
C176 O168 1.315 . S
C176 O171 1.279 . S
C177 O178 1.315 . S
C177 O179 1.279 . S
O178 Cd170 2.223 . S
O178 C177 1.315 . S
O179 Cd169 2.240 . S
O179 C177 1.279 . S
O180 Cd170 2.297 . S
O180 C175 1.247 . S
O181 Cd170 2.439 . S
O181 C175 1.208 . S
O182 Cd183 2.222 1_655 S
O182 C190 1.315 1_655 S
Cd183 O182 2.222 1_455 S
Cd183 O186 2.299 . S
Cd183 O187 2.445 . S
Cd183 O193 2.241 . S
Cd184 O185 2.240 . S
Cd184 O192 2.223 . S
Cd184 O194 2.297 . S
Cd184 O195 2.439 . S
O185 Cd184 2.240 . S
O185 C190 1.279 . S
O186 Cd183 2.299 . S
O186 C188 1.247 . S
O187 Cd183 2.445 . S
O187 C188 1.208 . S
C188 O186 1.247 . S
C188 O187 1.208 . S
C189 O194 1.247 . S
C189 O195 1.208 . S
C190 O182 1.315 1_455 S
C190 O185 1.279 . S
C191 O192 1.315 1_655 S
C191 O193 1.279 1_655 S
O192 Cd184 2.223 . S
O192 C191 1.315 1_455 S
O193 Cd183 2.241 . S
O193 C191 1.279 1_455 S
O194 Cd184 2.297 . S
O194 C189 1.247 . S
O195 Cd184 2.439 . S
O195 C189 1.208 . S
O196 Cd197 2.223 . S
O196 C204 1.315 . S
Cd197 O196 2.223 . S
Cd197 O200 2.297 . S
Cd197 O201 2.439 . S
Cd197 O207 2.240 . S
Cd198 O199 2.240 . S
Cd198 O206 2.223 . S
Cd198 O208 2.297 . S
Cd198 O209 2.439 . S
O199 Cd198 2.240 . S
O199 C204 1.279 . S
O200 Cd197 2.297 . S
O200 C202 1.247 . S
O201 Cd197 2.439 . S
O201 C202 1.208 . S
C202 O200 1.247 . S
C202 O201 1.208 . S
C203 O208 1.247 . S
C203 O209 1.208 . S
C204 O196 1.315 . S
C204 O199 1.279 . S
C205 O206 1.315 . S
C205 O207 1.279 . S
O206 Cd198 2.223 . S
O206 C205 1.315 . S
O207 Cd197 2.240 . S
O207 C205 1.279 . S
O208 Cd198 2.297 . S
O208 C203 1.247 . S
O209 Cd198 2.439 . S
O209 C203 1.208 . S
O210 Cd211 2.222 1_655 S
O210 C218 1.315 1_655 S
Cd211 O210 2.222 1_455 S
Cd211 O214 2.299 . S
Cd211 O215 2.444 . S
Cd211 O221 2.241 . S
Cd212 O213 2.240 . S
Cd212 O220 2.223 1_556 S
Cd212 O222 2.297 . S
Cd212 O223 2.439 . S
O213 Cd212 2.240 . S
O213 C218 1.279 . S
O214 Cd211 2.299 . S
O214 C216 1.247 . S
O215 Cd211 2.444 . S
O215 C216 1.208 . S
C216 O214 1.247 . S
C216 O215 1.208 . S
C217 O222 1.247 . S
C217 O223 1.208 . S
C218 O210 1.315 1_455 S
C218 O213 1.279 . S
C219 O220 1.315 1_656 S
C219 O221 1.279 1_655 S
O220 Cd212 2.223 1_554 S
O220 C219 1.315 1_454 S
O221 Cd211 2.241 . S
O221 C219 1.279 1_455 S
O222 Cd212 2.297 . S
O222 C217 1.247 . S
O223 Cd212 2.439 . S
O223 C217 1.208 . S
C224 C225 1.363 . S
C224 C230 1.379 . S
C224 N232 1.356 . S
C225 C224 1.363 . S
C225 C231 1.363 . S
C226 C227 1.363 . S
C226 C231 1.379 . S
C226 N233 1.356 . S
C227 C226 1.363 . S
C227 C230 1.363 . S
N228 C230 1.356 . S
N228 H240 0.984 . S
N228 H241 0.985 . S
N229 C231 1.356 . S
N229 H234 0.984 . S
N229 H235 0.985 . S
C230 C224 1.379 . S
C230 C227 1.363 . S
C230 N228 1.356 . S
C231 C225 1.363 . S
C231 C226 1.379 . S
C231 N229 1.356 . S
N232 C224 1.356 . S
N232 H238 0.984 . S
N232 H239 0.984 . S
N233 C226 1.356 . S
N233 H236 0.984 . S
N233 H237 0.985 . S
H234 N229 0.984 . S
H235 N229 0.985 . S
H236 N233 0.984 . S
H237 N233 0.985 . S
H238 N232 0.984 . S
H239 N232 0.984 . S
H240 N228 0.984 . S
H241 N228 0.985 . S
C242 C243 1.363 . S
C242 C248 1.379 . S
C242 N250 1.356 . S
C243 C242 1.363 . S
C243 C249 1.363 . S
C244 C245 1.363 . S
C244 C249 1.379 . S
C244 N251 1.356 . S
C245 C244 1.363 . S
C245 C248 1.363 . S
N246 C248 1.356 . S
N246 H258 0.984 . S
N246 H259 0.985 . S
N247 C249 1.356 . S
N247 H252 0.984 . S
N247 H253 0.985 . S
C248 C242 1.379 . S
C248 C245 1.363 . S
C248 N246 1.356 . S
C249 C243 1.363 . S
C249 C244 1.379 . S
C249 N247 1.356 . S
N250 C242 1.356 . S
N250 H256 0.984 . S
N250 H257 0.984 . S
N251 C244 1.356 . S
N251 H254 0.984 . S
N251 H255 0.985 . S
H252 N247 0.984 . S
H253 N247 0.985 . S
H254 N251 0.984 . S
H255 N251 0.985 . S
H256 N250 0.984 . S
H257 N250 0.984 . S
H258 N246 0.984 . S
H259 N246 0.985 . S
C260 C261 1.363 . S
C260 C266 1.379 . S
C260 N268 1.356 . S
C261 C260 1.363 . S
C261 C267 1.363 . S
C262 C263 1.363 . S
C262 C267 1.379 . S
C262 N269 1.356 . S
C263 C262 1.363 . S
C263 C266 1.363 . S
N264 C266 1.356 . S
N264 H276 0.984 . S
N264 H277 0.985 . S
N265 C267 1.356 . S
N265 H270 0.984 . S
N265 H271 0.985 . S
C266 C260 1.379 . S
C266 C263 1.363 . S
C266 N264 1.356 . S
C267 C261 1.363 . S
C267 C262 1.379 . S
C267 N265 1.356 . S
N268 C260 1.356 . S
N268 H274 0.984 . S
N268 H275 0.984 . S
N269 C262 1.356 . S
N269 H272 0.984 . S
N269 H273 0.985 . S
H270 N265 0.984 . S
H271 N265 0.985 . S
H272 N269 0.984 . S
H273 N269 0.985 . S
H274 N268 0.984 . S
H275 N268 0.984 . S
H276 N264 0.984 . S
H277 N264 0.985 . S
C278 C279 1.363 . S
C278 C284 1.379 . S
C278 N286 1.356 . S
C279 C278 1.363 . S
C279 C285 1.363 . S
C280 C281 1.363 . S
C280 C285 1.379 . S
C280 N287 1.356 1_556 S
C281 C280 1.363 . S
C281 C284 1.363 . S
N282 C284 1.356 1_455 S
N282 H294 0.984 . S
N282 H295 0.985 . S
N283 C285 1.356 1_554 S
N283 H288 0.984 1_554 S
N283 H289 0.985 . S
C284 C278 1.379 . S
C284 C281 1.363 . S
C284 N282 1.356 1_655 S
C285 C279 1.363 . S
C285 C280 1.379 . S
C285 N283 1.356 1_556 S
N286 C278 1.356 . S
N286 H292 0.984 . S
N286 H293 0.984 . S
N287 C280 1.356 1_554 S
N287 H290 0.984 . S
N287 H291 0.985 . S
H288 N283 0.984 1_556 S
H289 N283 0.985 . S
H290 N287 0.984 . S
H291 N287 0.985 . S
H292 N286 0.984 . S
H293 N286 0.984 . S
H294 N282 0.984 . S
H295 N282 0.985 . S
C296 C297 1.363 1_554 S
C296 C302 1.379 . S
C296 N304 1.356 . S
C297 C296 1.363 1_556 S
C297 C303 1.363 . S
C298 C299 1.363 . S
C298 C303 1.379 . S
C298 N305 1.356 . S
C299 C298 1.363 . S
C299 C302 1.363 1_556 S
N300 C302 1.356 . S
N300 H312 0.984 . S
N300 H313 0.985 . S
N301 C303 1.356 . S
N301 H306 0.984 . S
N301 H307 0.985 . S
C302 C296 1.379 . S
C302 C299 1.363 1_554 S
C302 N300 1.356 . S
C303 C297 1.363 . S
C303 C298 1.379 . S
C303 N301 1.356 . S
N304 C296 1.356 . S
N304 H310 0.984 . S
N304 H311 0.984 . S
N305 C298 1.356 . S
N305 H308 0.984 . S
N305 H309 0.985 . S
H306 N301 0.984 . S
H307 N301 0.985 . S
H308 N305 0.984 . S
H309 N305 0.985 . S
H310 N304 0.984 . S
H311 N304 0.984 . S
H312 N300 0.984 . S
H313 N300 0.985 . S
C314 C315 1.363 . S
C314 C320 1.379 . S
C314 N322 1.356 . S
C315 C314 1.363 . S
C315 C321 1.363 . S
C316 C317 1.363 . S
C316 C321 1.379 . S
C316 N323 1.356 . S
C317 C316 1.363 . S
C317 C320 1.363 . S
N318 C320 1.356 . S
N318 H330 0.984 . S
N318 H331 0.985 . S
N319 C321 1.356 . S
N319 H324 0.984 . S
N319 H325 0.985 . S
C320 C314 1.379 . S
C320 C317 1.363 . S
C320 N318 1.356 . S
C321 C315 1.363 . S
C321 C316 1.379 . S
C321 N319 1.356 . S
N322 C314 1.356 . S
N322 H328 0.984 1_655 S
N322 H329 0.984 1_655 S
N323 C316 1.356 . S
N323 H326 0.984 . S
N323 H327 0.985 . S
H324 N319 0.984 . S
H325 N319 0.985 . S
H326 N323 0.984 . S
H327 N323 0.985 . S
H328 N322 0.984 1_455 S
H329 N322 0.984 1_455 S
H330 N318 0.984 . S
H331 N318 0.985 . S
C332 C333 1.363 . S
C332 C338 1.379 . S
C332 N340 1.356 . S
C333 C332 1.363 . S
C333 C339 1.363 . S
C334 C335 1.363 . S
C334 C339 1.379 . S
C334 N341 1.356 . S
C335 C334 1.363 . S
C335 C338 1.363 . S
N336 C338 1.356 . S
N336 H348 0.984 . S
N336 H349 0.985 . S
N337 C339 1.356 . S
N337 H342 0.984 . S
N337 H343 0.985 . S
C338 C332 1.379 . S
C338 C335 1.363 . S
C338 N336 1.356 . S
C339 C333 1.363 . S
C339 C334 1.379 . S
C339 N337 1.356 . S
N340 C332 1.356 . S
N340 H346 0.984 . S
N340 H347 0.984 . S
N341 C334 1.356 . S
N341 H344 0.984 . S
N341 H345 0.985 . S
H342 N337 0.984 . S
H343 N337 0.985 . S
H344 N341 0.984 . S
H345 N341 0.985 . S
H346 N340 0.984 . S
H347 N340 0.984 . S
H348 N336 0.984 . S
H349 N336 0.985 . S
C350 C351 1.363 . S
C350 C356 1.379 . S
C350 N358 1.356 . S
C351 C350 1.363 . S
C351 C357 1.363 . S
C352 C353 1.363 . S
C352 C357 1.379 . S
C352 N359 1.356 . S
C353 C352 1.363 . S
C353 C356 1.363 . S
N354 C356 1.356 . S
N354 H366 0.984 . S
N354 H367 0.985 . S
N355 C357 1.356 . S
N355 H360 0.984 . S
N355 H361 0.985 . S
C356 C350 1.379 . S
C356 C353 1.363 . S
C356 N354 1.356 . S
C357 C351 1.363 . S
C357 C352 1.379 . S
C357 N355 1.356 . S
N358 C350 1.356 . S
N358 H364 0.984 . S
N358 H365 0.984 . S
N359 C352 1.356 . S
N359 H362 0.984 . S
N359 H363 0.985 . S
H360 N355 0.984 . S
H361 N355 0.985 . S
H362 N359 0.984 . S
H363 N359 0.985 . S
H364 N358 0.984 . S
H365 N358 0.984 . S
H366 N354 0.984 . S
H367 N354 0.985 . S
C368 C369 1.363 . S
C368 C374 1.379 . S
C368 N376 1.356 . S
C369 C368 1.363 . S
C369 C375 1.363 1_655 S
C370 C371 1.365 . S
C370 C375 1.385 1_655 S
C370 N377 1.348 1_556 S
C371 C370 1.365 . S
C371 C374 1.363 . S
N372 C374 1.356 . S
N372 H384 0.984 . S
N372 H385 0.985 . S
N373 C375 1.356 . S
N373 H378 0.984 . S
N373 H379 0.985 . S
C374 C368 1.379 . S
C374 C371 1.363 . S
C374 N372 1.356 . S
C375 C369 1.363 1_455 S
C375 C370 1.385 1_455 S
C375 N373 1.356 . S
N376 C368 1.356 . S
N376 H382 0.984 . S
N376 H383 0.984 . S
N377 C370 1.348 1_554 S
N377 H380 0.984 . S
N377 H381 0.985 1_655 S
H378 N373 0.984 . S
H379 N373 0.985 . S
H380 N377 0.984 . S
H381 N377 0.985 1_455 S
H382 N376 0.984 . S
H383 N376 0.984 . S
H384 N372 0.984 . S
H385 N372 0.985 . S
C386 C387 1.363 . S
C386 C392 1.379 . S
C386 N394 1.356 . S
C387 C386 1.363 . S
C387 C393 1.363 . S
C388 C389 1.363 . S
C388 C393 1.379 . S
C388 N395 1.356 . S
C389 C388 1.363 . S
C389 C392 1.363 . S
N390 C392 1.356 . S
N390 H402 0.984 . S
N390 H403 0.985 . S
N391 C393 1.356 . S
N391 H396 0.984 . S
N391 H397 0.985 . S
C392 C386 1.379 . S
C392 C389 1.363 . S
C392 N390 1.356 . S
C393 C387 1.363 . S
C393 C388 1.379 . S
C393 N391 1.356 . S
N394 C386 1.356 . S
N394 H400 0.984 . S
N394 H401 0.984 . S
N395 C388 1.356 . S
N395 H398 0.984 . S
N395 H399 0.985 . S
H396 N391 0.984 . S
H397 N391 0.985 . S
H398 N395 0.984 . S
H399 N395 0.985 . S
H400 N394 0.984 . S
H401 N394 0.984 . S
H402 N390 0.984 . S
H403 N390 0.985 . S
C404 C405 1.363 . S
C404 C410 1.379 . S
C404 N412 1.356 . S
C405 C404 1.363 . S
C405 C411 1.363 . S
C406 C407 1.363 . S
C406 C411 1.379 . S
C406 N413 1.356 . S
C407 C406 1.363 . S
C407 C410 1.363 . S
N408 C410 1.356 . S
N408 H420 0.984 . S
N408 H421 0.985 . S
N409 C411 1.356 . S
N409 H414 0.984 . S
N409 H415 0.985 . S
C410 C404 1.379 . S
C410 C407 1.363 . S
C410 N408 1.356 . S
C411 C405 1.363 . S
C411 C406 1.379 . S
C411 N409 1.356 . S
N412 C404 1.356 . S
N412 H418 0.984 . S
N412 H419 0.984 . S
N413 C406 1.356 . S
N413 H416 0.984 . S
N413 H417 0.985 . S
H414 N409 0.984 . S
H415 N409 0.985 . S
H416 N413 0.984 . S
H417 N413 0.985 . S
H418 N412 0.984 . S
H419 N412 0.984 . S
H420 N408 0.984 . S
H421 N408 0.985 . S
C422 C423 1.363 . S
C422 C428 1.379 . S
C422 N430 1.356 . S
C423 C422 1.363 . S
C423 C429 1.363 . S
C424 C425 1.363 . S
C424 C429 1.379 . S
C424 N431 1.356 . S
C425 C424 1.363 . S
C425 C428 1.363 . S
N426 C428 1.356 . S
N426 H438 0.984 . S
N426 H439 0.985 . S
N427 C429 1.356 . S
N427 H432 0.984 . S
N427 H433 0.985 . S
C428 C422 1.379 . S
C428 C425 1.363 . S
C428 N426 1.356 . S
C429 C423 1.363 . S
C429 C424 1.379 . S
C429 N427 1.356 . S
N430 C422 1.356 . S
N430 H436 0.984 . S
N430 H437 0.984 . S
N431 C424 1.356 . S
N431 H434 0.984 . S
N431 H435 0.985 . S
H432 N427 0.984 . S
H433 N427 0.985 . S
H434 N431 0.984 . S
H435 N431 0.985 . S
H436 N430 0.984 . S
H437 N430 0.984 . S
H438 N426 0.984 . S
H439 N426 0.985 . S
C440 C441 1.363 . S
C440 C446 1.379 . S
C440 N448 1.356 . S
C441 C440 1.363 . S
C441 C447 1.363 . S
C442 C443 1.363 . S
C442 C447 1.378 . S
C442 N449 1.356 . S
C443 C442 1.363 . S
C443 C446 1.363 . S
N444 C446 1.356 . S
N444 H456 0.984 . S
N444 H457 0.985 . S
N445 C447 1.357 1_455 S
N445 H450 0.984 . S
N445 H451 0.985 . S
C446 C440 1.379 . S
C446 C443 1.363 . S
C446 N444 1.356 . S
C447 C441 1.363 . S
C447 C442 1.378 . S
C447 N445 1.357 1_655 S
N448 C440 1.356 . S
N448 H454 0.984 . S
N448 H455 0.984 . S
N449 C442 1.356 . S
N449 H452 0.984 . S
N449 H453 0.991 . S
H450 N445 0.984 . S
H451 N445 0.985 . S
H452 N449 0.984 . S
H453 N449 0.991 . S
H454 N448 0.984 . S
H455 N448 0.984 . S
H456 N444 0.984 . S
H457 N444 0.985 . S
C458 C459 1.363 . S
C458 C464 1.379 1_556 S
C458 N466 1.356 . S
C459 C458 1.363 . S
C459 C465 1.363 . S
C460 C461 1.363 . S
C460 C465 1.379 . S
C460 N467 1.356 . S
C461 C460 1.363 . S
C461 C464 1.363 1_556 S
N462 C464 1.356 . S
N462 H474 0.984 . S
N462 H475 0.985 . S
N463 C465 1.356 . S
N463 H468 0.984 . S
N463 H469 0.985 . S
C464 C458 1.379 1_554 S
C464 C461 1.363 1_554 S
C464 N462 1.356 . S
C465 C459 1.363 . S
C465 C460 1.379 . S
C465 N463 1.356 . S
N466 C458 1.356 . S
N466 H472 0.984 1_556 S
N466 H473 0.984 . S
N467 C460 1.356 . S
N467 H470 0.984 . S
N467 H471 0.985 . S
H468 N463 0.984 . S
H469 N463 0.985 . S
H470 N467 0.984 . S
H471 N467 0.985 . S
H472 N466 0.984 1_554 S
H473 N466 0.984 . S
H474 N462 0.984 . S
H475 N462 0.985 . S
C476 C477 1.363 . S
C476 C482 1.379 . S
C476 N484 1.356 . S
C477 C476 1.363 . S
C477 C483 1.363 . S
C478 C479 1.363 . S
C478 C483 1.379 . S
C478 N485 1.356 . S
C479 C478 1.363 . S
C479 C482 1.363 . S
N480 C482 1.356 . S
N480 H492 0.984 . S
N480 H493 0.985 . S
N481 C483 1.356 . S
N481 H486 0.984 . S
N481 H487 0.985 . S
C482 C476 1.379 . S
C482 C479 1.363 . S
C482 N480 1.356 . S
C483 C477 1.363 . S
C483 C478 1.379 . S
C483 N481 1.356 . S
N484 C476 1.356 . S
N484 H490 0.984 . S
N484 H491 0.984 . S
N485 C478 1.356 . S
N485 H488 0.984 . S
N485 H489 0.985 . S
H486 N481 0.984 . S
H487 N481 0.985 . S
H488 N485 0.984 . S
H489 N485 0.985 . S
H490 N484 0.984 . S
H491 N484 0.984 . S
H492 N480 0.984 . S
H493 N480 0.985 . S
C494 C495 1.363 . S
C494 C500 1.379 . S
C494 N502 1.356 . S
C495 C494 1.363 . S
C495 C501 1.363 . S
C496 C497 1.363 . S
C496 C501 1.379 . S
C496 N503 1.356 . S
C497 C496 1.363 . S
C497 C500 1.363 . S
N498 C500 1.356 . S
N498 H510 0.984 . S
N498 H511 0.985 . S
N499 C501 1.356 . S
N499 H504 0.984 . S
N499 H505 0.985 . S
C500 C494 1.379 . S
C500 C497 1.363 . S
C500 N498 1.356 . S
C501 C495 1.363 . S
C501 C496 1.379 . S
C501 N499 1.356 . S
N502 C494 1.356 . S
N502 H508 0.984 . S
N502 H509 0.984 . S
N503 C496 1.356 . S
N503 H506 0.984 . S
N503 H507 0.985 . S
H504 N499 0.984 . S
H505 N499 0.985 . S
H506 N503 0.984 . S
H507 N503 0.985 . S
H508 N502 0.984 . S
H509 N502 0.984 . S
H510 N498 0.984 . S
H511 N498 0.985 . S
C512 C513 1.363 . S
C512 C518 1.379 . S
C512 N520 1.356 . S
C513 C512 1.363 . S
C513 C519 1.363 . S
C514 C515 1.363 . S
C514 C519 1.379 . S
C514 N521 1.356 . S
C515 C514 1.363 . S
C515 C518 1.363 . S
N516 C518 1.356 1_556 S
N516 H528 0.984 . S
N516 H529 0.985 . S
N517 C519 1.356 . S
N517 H522 0.984 . S
N517 H523 0.985 . S
C518 C512 1.379 . S
C518 C515 1.363 . S
C518 N516 1.356 1_554 S
C519 C513 1.363 . S
C519 C514 1.379 . S
C519 N517 1.356 . S
N520 C512 1.356 . S
N520 H526 0.984 . S
N520 H527 0.984 . S
N521 C514 1.356 . S
N521 H524 0.984 . S
N521 H525 0.985 . S
H522 N517 0.984 . S
H523 N517 0.985 . S
H524 N521 0.984 . S
H525 N521 0.985 . S
H526 N520 0.984 . S
H527 N520 0.984 . S
H528 N516 0.984 . S
H529 N516 0.985 . S
C530 C531 1.363 . S
C530 C536 1.379 . S
C530 N538 1.356 . S
C531 C530 1.363 . S
C531 C537 1.363 . S
C532 C533 1.363 . S
C532 C537 1.379 . S
C532 N539 1.356 . S
C533 C532 1.363 . S
C533 C536 1.363 . S
N534 C536 1.356 . S
N534 H546 0.984 . S
N534 H547 0.985 . S
N535 C537 1.356 . S
N535 H540 0.984 . S
N535 H541 0.985 . S
C536 C530 1.379 . S
C536 C533 1.363 . S
C536 N534 1.356 . S
C537 C531 1.363 . S
C537 C532 1.379 . S
C537 N535 1.356 . S
N538 C530 1.356 . S
N538 H544 0.984 . S
N538 H545 0.984 . S
N539 C532 1.356 . S
N539 H542 0.984 . S
N539 H543 0.985 . S
H540 N535 0.984 . S
H541 N535 0.985 . S
H542 N539 0.984 . S
H543 N539 0.985 . S
H544 N538 0.984 . S
H545 N538 0.984 . S
H546 N534 0.984 . S
H547 N534 0.985 . S
C548 C549 1.363 . S
C548 C554 1.379 . S
C548 N556 1.356 . S
C549 C548 1.363 . S
C549 C555 1.363 . S
C550 C551 1.363 . S
C550 C555 1.379 . S
C550 N557 1.356 . S
C551 C550 1.363 . S
C551 C554 1.363 . S
N552 C554 1.356 . S
N552 H564 0.984 . S
N552 H565 0.985 . S
N553 C555 1.356 . S
N553 H558 0.984 . S
N553 H559 0.985 . S
C554 C548 1.379 . S
C554 C551 1.363 . S
C554 N552 1.356 . S
C555 C549 1.363 . S
C555 C550 1.379 . S
C555 N553 1.356 . S
N556 C548 1.356 . S
N556 H562 0.984 . S
N556 H563 0.984 . S
N557 C550 1.356 . S
N557 H560 0.984 . S
N557 H561 0.985 . S
H558 N553 0.984 . S
H559 N553 0.985 . S
H560 N557 0.984 . S
H561 N557 0.985 . S
H562 N556 0.984 . S
H563 N556 0.984 . S
H564 N552 0.984 . S
H565 N552 0.985 . S
C566 C567 1.363 . S
C566 C572 1.379 . S
C566 N574 1.356 . S
C567 C566 1.363 . S
C567 C573 1.363 . S
C568 C569 1.363 . S
C568 C573 1.379 . S
C568 N575 1.356 . S
C569 C568 1.363 . S
C569 C572 1.363 . S
N570 C572 1.356 . S
N570 H582 0.984 . S
N570 H583 0.985 . S
N571 C573 1.356 . S
N571 H576 0.984 . S
N571 H577 0.985 . S
C572 C566 1.379 . S
C572 C569 1.363 . S
C572 N570 1.356 . S
C573 C567 1.363 . S
C573 C568 1.379 . S
C573 N571 1.356 . S
N574 C566 1.356 . S
N574 H580 0.984 . S
N574 H581 0.984 . S
N575 C568 1.356 . S
N575 H578 0.984 . S
N575 H579 0.985 . S
H576 N571 0.984 . S
H577 N571 0.985 . S
H578 N575 0.984 . S
H579 N575 0.985 . S
H580 N574 0.984 . S
H581 N574 0.984 . S
H582 N570 0.984 . S
H583 N570 0.985 . S
C584 C585 1.363 . S
C584 C590 1.379 . S
C584 N592 1.356 . S
C585 C584 1.363 . S
C585 C591 1.363 . S
C586 C587 1.363 . S
C586 C591 1.379 . S
C586 N593 1.356 . S
C587 C586 1.363 . S
C587 C590 1.363 . S
N588 C590 1.356 . S
N588 H600 0.984 . S
N588 H601 0.985 . S
N589 C591 1.356 . S
N589 H594 0.984 . S
N589 H595 0.985 . S
C590 C584 1.379 . S
C590 C587 1.363 . S
C590 N588 1.356 . S
C591 C585 1.363 . S
C591 C586 1.379 . S
C591 N589 1.356 . S
N592 C584 1.356 . S
N592 H598 0.984 . S
N592 H599 0.984 . S
N593 C586 1.356 . S
N593 H596 0.984 . S
N593 H597 0.985 . S
H594 N589 0.984 . S
H595 N589 0.985 . S
H596 N593 0.984 . S
H597 N593 0.985 . S
H598 N592 0.984 . S
H599 N592 0.984 . S
H600 N588 0.984 . S
H601 N588 0.985 . S
C602 C603 1.363 . S
C602 C608 1.379 . S
C602 N610 1.356 . S
C603 C602 1.363 . S
C603 C609 1.363 . S
C604 C605 1.363 . S
C604 C609 1.379 . S
C604 N611 1.356 . S
C605 C604 1.363 . S
C605 C608 1.363 . S
N606 C608 1.356 . S
N606 H618 0.984 . S
N606 H619 0.985 . S
N607 C609 1.356 . S
N607 H612 0.984 . S
N607 H613 0.985 . S
C608 C602 1.379 . S
C608 C605 1.363 . S
C608 N606 1.356 . S
C609 C603 1.363 . S
C609 C604 1.379 . S
C609 N607 1.356 . S
N610 C602 1.356 . S
N610 H616 0.984 . S
N610 H617 0.984 . S
N611 C604 1.356 . S
N611 H614 0.984 . S
N611 H615 0.985 . S
H612 N607 0.984 . S
H613 N607 0.985 . S
H614 N611 0.984 . S
H615 N611 0.985 . S
H616 N610 0.984 . S
H617 N610 0.984 . S
H618 N606 0.984 . S
H619 N606 0.985 . S
C620 C621 1.363 . S
C620 C626 1.379 1_565 S
C620 N628 1.356 . S
C621 C620 1.363 . S
C621 C627 1.363 . S
C622 C623 1.363 . S
C622 C627 1.379 1_545 S
C622 N629 1.356 . S
C623 C622 1.363 . S
C623 C626 1.363 . S
N624 C626 1.356 . S
N624 H636 0.984 . S
N624 H637 0.985 . S
N625 C627 1.356 . S
N625 H630 0.984 . S
N625 H631 0.985 . S
C626 C620 1.379 1_545 S
C626 C623 1.363 . S
C626 N624 1.356 . S
C627 C621 1.363 . S
C627 C622 1.379 1_565 S
C627 N625 1.356 . S
N628 C620 1.356 . S
N628 H634 0.984 . S
N628 H635 0.984 . S
N629 C622 1.356 . S
N629 H632 0.984 . S
N629 H633 0.985 . S
H630 N625 0.984 . S
H631 N625 0.985 . S
H632 N629 0.984 . S
H633 N629 0.985 . S
H634 N628 0.984 . S
H635 N628 0.984 . S
H636 N624 0.984 . S
H637 N624 0.985 . S
C638 C639 1.363 . S
C638 C644 1.358 1_545 S
C638 N646 1.356 . S
C639 C638 1.363 . S
C639 C645 1.384 1_455 S
C640 C641 1.363 1_655 S
C640 C645 1.358 1_565 S
C640 N647 1.356 . S
C641 C640 1.363 1_455 S
C641 C644 1.383 . S
N642 C644 1.364 . S
N642 H654 0.984 1_565 S
N642 H655 0.985 . S
N643 C645 1.364 1_556 S
N643 H648 0.984 . S
N643 H649 0.985 1_545 S
C644 C638 1.358 1_565 S
C644 C641 1.383 . S
C644 N642 1.364 . S
C645 C639 1.384 1_655 S
C645 C640 1.358 1_545 S
C645 N643 1.364 1_554 S
N646 C638 1.356 . S
N646 H652 0.984 . S
N646 H653 0.984 . S
N647 C640 1.356 . S
N647 H650 0.984 . S
N647 H651 0.985 . S
H648 N643 0.984 . S
H649 N643 0.985 1_565 S
H650 N647 0.984 . S
H651 N647 0.985 . S
H652 N646 0.984 . S
H653 N646 0.984 . S
H654 N642 0.984 1_545 S
H655 N642 0.985 . S
C656 C657 1.363 . S
C656 C662 1.379 . S
C656 N664 1.356 . S
C657 C656 1.363 . S
C657 C663 1.363 . S
C658 C659 1.363 . S
C658 C663 1.379 . S
C658 N665 1.356 . S
C659 C658 1.363 . S
C659 C662 1.363 . S
N660 C662 1.356 . S
N660 H672 0.984 . S
N660 H673 0.985 . S
N661 C663 1.356 . S
N661 H666 0.984 . S
N661 H667 0.985 . S
C662 C656 1.379 . S
C662 C659 1.363 . S
C662 N660 1.356 . S
C663 C657 1.363 . S
C663 C658 1.379 . S
C663 N661 1.356 . S
N664 C656 1.356 . S
N664 H670 0.984 . S
N664 H671 0.984 . S
N665 C658 1.356 . S
N665 H668 0.984 . S
N665 H669 0.985 . S
H666 N661 0.984 . S
H667 N661 0.985 . S
H668 N665 0.984 . S
H669 N665 0.985 . S
H670 N664 0.984 . S
H671 N664 0.984 . S
H672 N660 0.984 . S
H673 N660 0.985 . S
C674 C675 1.363 . S
C674 C680 1.379 . S
C674 N682 1.356 . S
C675 C674 1.363 . S
C675 C681 1.363 . S
C676 C677 1.363 . S
C676 C681 1.379 . S
C676 N683 1.356 . S
C677 C676 1.363 . S
C677 C680 1.363 . S
N678 C680 1.356 . S
N678 H690 0.984 . S
N678 H691 0.985 . S
N679 C681 1.356 . S
N679 H684 0.984 . S
N679 H685 0.985 . S
C680 C674 1.379 . S
C680 C677 1.363 . S
C680 N678 1.356 . S
C681 C675 1.363 . S
C681 C676 1.379 . S
C681 N679 1.356 . S
N682 C674 1.356 . S
N682 H688 0.984 . S
N682 H689 0.984 . S
N683 C676 1.356 . S
N683 H686 0.984 . S
N683 H687 0.985 . S
H684 N679 0.984 . S
H685 N679 0.985 . S
H686 N683 0.984 . S
H687 N683 0.985 . S
H688 N682 0.984 . S
H689 N682 0.984 . S
H690 N678 0.984 . S
H691 N678 0.985 . S
C692 C693 1.363 . S
C692 C698 1.379 . S
C692 N700 1.356 . S
C693 C692 1.363 . S
C693 C699 1.363 . S
C694 C695 1.363 . S
C694 C699 1.379 . S
C694 N701 1.356 . S
C695 C694 1.363 . S
C695 C698 1.363 . S
N696 C698 1.356 1_556 S
N696 H708 0.984 . S
N696 H709 0.985 . S
N697 C699 1.356 . S
N697 H702 0.984 . S
N697 H703 0.985 . S
C698 C692 1.379 . S
C698 C695 1.363 . S
C698 N696 1.356 1_554 S
C699 C693 1.363 . S
C699 C694 1.379 . S
C699 N697 1.356 . S
N700 C692 1.356 . S
N700 H706 0.984 . S
N700 H707 0.984 . S
N701 C694 1.356 . S
N701 H704 0.975 1_554 S
N701 H705 0.985 . S
H702 N697 0.984 . S
H703 N697 0.985 . S
H704 N701 0.975 1_556 S
H705 N701 0.985 . S
H706 N700 0.984 . S
H707 N700 0.984 . S
H708 N696 0.984 . S
H709 N696 0.985 . S
C710 C711 1.363 . S
C710 C716 1.379 . S
C710 N718 1.356 . S
C711 C710 1.363 . S
C711 C717 1.363 . S
C712 C713 1.363 . S
C712 C717 1.379 . S
C712 N719 1.356 . S
C713 C712 1.363 . S
C713 C716 1.363 . S
N714 C716 1.356 . S
N714 H726 0.984 . S
N714 H727 0.985 . S
N715 C717 1.356 . S
N715 H720 0.984 . S
N715 H721 0.985 . S
C716 C710 1.379 . S
C716 C713 1.363 . S
C716 N714 1.356 . S
C717 C711 1.363 . S
C717 C712 1.379 . S
C717 N715 1.356 . S
N718 C710 1.356 . S
N718 H724 0.984 . S
N718 H725 0.984 . S
N719 C712 1.356 . S
N719 H722 0.984 . S
N719 H723 0.985 . S
H720 N715 0.984 . S
H721 N715 0.985 . S
H722 N719 0.984 . S
H723 N719 0.985 . S
H724 N718 0.984 . S
H725 N718 0.984 . S
H726 N714 0.984 . S
H727 N714 0.985 . S
C728 C729 1.363 . S
C728 C734 1.379 . S
C728 N736 1.356 . S
C729 C728 1.363 . S
C729 C735 1.363 . S
C730 C731 1.363 . S
C730 C735 1.379 . S
C730 N737 1.356 . S
C731 C730 1.363 . S
C731 C734 1.363 . S
N732 C734 1.356 . S
N732 H744 0.984 . S
N732 H745 0.985 . S
N733 C735 1.356 . S
N733 H738 0.984 . S
N733 H739 0.985 . S
C734 C728 1.379 . S
C734 C731 1.363 . S
C734 N732 1.356 . S
C735 C729 1.363 . S
C735 C730 1.379 . S
C735 N733 1.356 . S
N736 C728 1.356 . S
N736 H742 0.984 . S
N736 H743 0.984 . S
N737 C730 1.356 . S
N737 H740 0.984 . S
N737 H741 0.985 . S
H738 N733 0.984 . S
H739 N733 0.985 . S
H740 N737 0.984 . S
H741 N737 0.985 . S
H742 N736 0.984 . S
H743 N736 0.984 . S
H744 N732 0.984 . S
H745 N732 0.985 . S
C746 C747 1.363 . S
C746 C752 1.379 . S
C746 N754 1.356 . S
C747 C746 1.363 . S
C747 C753 1.363 . S
C748 C749 1.363 . S
C748 C753 1.379 . S
C748 N755 1.356 . S
C749 C748 1.363 . S
C749 C752 1.363 . S
N750 C752 1.356 . S
N750 H762 0.984 . S
N750 H763 0.985 . S
N751 C753 1.356 . S
N751 H756 0.984 . S
N751 H757 0.985 . S
C752 C746 1.379 . S
C752 C749 1.363 . S
C752 N750 1.356 . S
C753 C747 1.363 . S
C753 C748 1.379 . S
C753 N751 1.356 . S
N754 C746 1.356 . S
N754 H760 0.984 . S
N754 H761 0.984 . S
N755 C748 1.356 . S
N755 H758 0.984 . S
N755 H759 0.985 . S
H756 N751 0.984 . S
H757 N751 0.985 . S
H758 N755 0.984 . S
H759 N755 0.985 . S
H760 N754 0.984 . S
H761 N754 0.984 . S
H762 N750 0.984 . S
H763 N750 0.985 . S
C764 C765 1.363 . S
C764 C770 1.379 1_554 S
C764 N772 1.356 . S
C765 C764 1.363 . S
C765 C771 1.363 1_565 S
C766 C767 1.363 . S
C766 C771 1.379 . S
C766 N773 1.356 . S
C767 C766 1.363 . S
C767 C770 1.363 1_544 S
N768 C770 1.356 . S
N768 H780 0.984 . S
N768 H781 0.985 1_565 S
N769 C771 1.356 . S
N769 H774 0.984 1_545 S
N769 H775 0.985 . S
C770 C764 1.379 1_556 S
C770 C767 1.363 1_566 S
C770 N768 1.356 . S
C771 C765 1.363 1_545 S
C771 C766 1.379 . S
C771 N769 1.356 . S
N772 C764 1.356 . S
N772 H778 0.984 . S
N772 H779 0.984 . S
N773 C766 1.356 . S
N773 H776 0.984 . S
N773 H777 0.985 . S
H774 N769 0.984 1_565 S
H775 N769 0.985 . S
H776 N773 0.984 . S
H777 N773 0.985 . S
H778 N772 0.984 . S
H779 N772 0.984 . S
H780 N768 0.984 . S
H781 N768 0.985 1_545 S
C782 C783 1.363 . S
C782 C788 1.378 1_545 S
C782 N790 1.356 . S
C783 C782 1.363 . S
C783 C789 1.364 . S
C784 C785 1.363 . S
C784 C789 1.378 1_565 S
C784 N791 1.356 . S
C785 C784 1.363 . S
C785 C788 1.364 . S
N786 C788 1.357 . S
N786 H798 0.984 1_465 S
N786 H799 0.985 . S
N787 C789 1.357 . S
N787 H792 0.984 . S
N787 H793 0.985 1_545 S
C788 C782 1.378 1_565 S
C788 C785 1.364 . S
C788 N786 1.357 . S
C789 C783 1.364 . S
C789 C784 1.378 1_545 S
C789 N787 1.357 . S
N790 C782 1.356 . S
N790 H796 0.984 1_455 S
N790 H797 0.984 . S
N791 C784 1.356 . S
N791 H794 0.984 . S
N791 H795 0.985 . S
H792 N787 0.984 . S
H793 N787 0.985 1_565 S
H794 N791 0.984 . S
H795 N791 0.985 . S
H796 N790 0.984 1_655 S
H797 N790 0.984 . S
H798 N786 0.984 1_645 S
H799 N786 0.985 . S
C225 C135 1.450 . S
C227 C9 1.450 . S
C243 C205 1.450 . S
C245 C23 1.450 . S
C261 C37 1.450 . S
C263 C121 1.450 . S
C279 C51 1.450 . S
C281 C219 1.450 . S
C297 C65 1.450 . S
C299 C149 1.450 . S
C315 C191 1.450 . S
C317 C79 1.450 . S
C333 C163 1.450 . S
C335 C93 1.450 . S
C351 C107 1.450 . S
C353 C177 1.450 . S
C369 C63 1.599 1_655 S
C371 C49 1.599 1_556 S
C387 C175 1.599 . S
C389 C119 1.599 . S
C405 C91 1.599 . S
C407 C21 1.599 . S
C423 C133 1.599 . S
C425 C189 1.599 . S
C441 C7 1.599 1_655 S
C443 C77 1.599 . S
C459 C217 1.599 . S
C461 C147 1.599 1_556 S
C477 C105 1.599 . S
C479 C35 1.599 . S
C495 C161 1.599 . S
C497 C203 1.599 . S
C513 C8 1.396 . S
C515 C64 1.396 1_554 S
C531 C78 1.396 . S
C533 C22 1.396 . S
C549 C92 1.396 . S
C551 C36 1.396 . S
C567 C50 1.396 . S
C569 C106 1.396 . S
C585 C148 1.396 . S
C587 C120 1.396 . S
C603 C162 1.396 . S
C605 C134 1.396 . S
C621 C204 1.396 . S
C623 C176 1.396 . S
C639 C218 1.396 1_554 S
C641 C190 1.396 . S
C657 C62 1.516 . S
C659 C6 1.516 . S
C675 C76 1.516 . S
C677 C20 1.516 . S
C693 C90 1.516 . S
C695 C34 1.516 1_554 S
C711 C48 1.516 . S
C713 C104 1.516 . S
C729 C118 1.516 . S
C731 C146 1.516 . S
C747 C160 1.516 . S
C749 C132 1.516 . S
C765 C202 1.516 . S
C767 C174 1.516 1_554 S
C783 C216 1.516 . S
C785 C188 1.516 . S
