# Generated by pormake.
# Topology uoh, (4)-cn, num edge types: 1
# Building blocks:
#     Node 0, Type 0, BuildingBlock: QUQFOY_clean_sbu_1, # of connection points: 4
#     Node 1, Type 0, BuildingBlock: QUQFOY_clean_sbu_1, # of connection points: 4
#     Node 2, Type 0, BuildingBlock: QUQFOY_clean_sbu_1, # of connection points: 4
#     Node 3, Type 0, BuildingBlock: QUQFOY_clean_sbu_1, # of connection points: 4
#     Node 4, Type 0, BuildingBlock: QUQFOY_clean_sbu_1, # of connection points: 4
#     Node 5, Type 0, BuildingBlock: QUQFOY_clean_sbu_1, # of connection points: 4
#     Node 6, Type 0, BuildingBlock: QUQFOY_clean_sbu_1, # of connection points: 4
#     Node 7, Type 0, BuildingBlock: QUQFOY_clean_sbu_1, # of connection points: 4
#     Node 8, Type 0, BuildingBlock: QUQFOY_clean_sbu_1, # of connection points: 4
#     Node 9, Type 0, BuildingBlock: QUQFOY_clean_sbu_1, # of connection points: 4
#     Node 10, Type 0, BuildingBlock: QUQFOY_clean_sbu_1, # of connection points: 4
#     Node 11, Type 0, BuildingBlock: QUQFOY_clean_sbu_1, # of connection points: 4
#     Node 12, Type 0, BuildingBlock: QUQFOY_clean_sbu_1, # of connection points: 4
#     Node 13, Type 0, BuildingBlock: QUQFOY_clean_sbu_1, # of connection points: 4
#     Node 14, Type 0, BuildingBlock: QUQFOY_clean_sbu_1, # of connection points: 4
#     Node 15, Type 0, BuildingBlock: QUQFOY_clean_sbu_1, # of connection points: 4
#     Node 16, Type 0, BuildingBlock: QUQFOY_clean_sbu_1, # of connection points: 4
#     Node 17, Type 0, BuildingBlock: QUQFOY_clean_sbu_1, # of connection points: 4
#     Node 18, Type 0, BuildingBlock: QUQFOY_clean_sbu_1, # of connection points: 4
#     Node 19, Type 0, BuildingBlock: QUQFOY_clean_sbu_1, # of connection points: 4
#     Node 20, Type 0, BuildingBlock: QUQFOY_clean_sbu_1, # of connection points: 4
#     Node 21, Type 0, BuildingBlock: QUQFOY_clean_sbu_1, # of connection points: 4
#     Node 22, Type 0, BuildingBlock: QUQFOY_clean_sbu_1, # of connection points: 4
#     Node 23, Type 0, BuildingBlock: QUQFOY_clean_sbu_1, # of connection points: 4
#     Node 24, Type 0, BuildingBlock: QUQFOY_clean_sbu_1, # of connection points: 4
#     Node 25, Type 0, BuildingBlock: QUQFOY_clean_sbu_1, # of connection points: 4
#     Node 26, Type 0, BuildingBlock: QUQFOY_clean_sbu_1, # of connection points: 4
#     Node 27, Type 0, BuildingBlock: QUQFOY_clean_sbu_1, # of connection points: 4
#     Node 28, Type 0, BuildingBlock: QUQFOY_clean_sbu_1, # of connection points: 4
#     Node 29, Type 0, BuildingBlock: QUQFOY_clean_sbu_1, # of connection points: 4
#     Node 30, Type 0, BuildingBlock: QUQFOY_clean_sbu_1, # of connection points: 4
#     Node 31, Type 0, BuildingBlock: QUQFOY_clean_sbu_1, # of connection points: 4
#     Node 32, Type 0, BuildingBlock: QUQFOY_clean_sbu_1, # of connection points: 4
#     Node 33, Type 0, BuildingBlock: QUQFOY_clean_sbu_1, # of connection points: 4
#     Node 34, Type 0, BuildingBlock: QUQFOY_clean_sbu_1, # of connection points: 4
#     Node 35, Type 0, BuildingBlock: QUQFOY_clean_sbu_1, # of connection points: 4
#     Edge 36, Type (0, 0), BuildingBlock: OJICUG_clean_linker_0, # of connection points: 2
#     Edge 37, Type (0, 0), BuildingBlock: OJICUG_clean_linker_0, # of connection points: 2
#     Edge 38, Type (0, 0), BuildingBlock: OJICUG_clean_linker_0, # of connection points: 2
#     Edge 39, Type (0, 0), BuildingBlock: OJICUG_clean_linker_0, # of connection points: 2
#     Edge 40, Type (0, 0), BuildingBlock: OJICUG_clean_linker_0, # of connection points: 2
#     Edge 41, Type (0, 0), BuildingBlock: OJICUG_clean_linker_0, # of connection points: 2
#     Edge 42, Type (0, 0), BuildingBlock: OJICUG_clean_linker_0, # of connection points: 2
#     Edge 43, Type (0, 0), BuildingBlock: OJICUG_clean_linker_0, # of connection points: 2
#     Edge 44, Type (0, 0), BuildingBlock: OJICUG_clean_linker_0, # of connection points: 2
#     Edge 45, Type (0, 0), BuildingBlock: OJICUG_clean_linker_0, # of connection points: 2
#     Edge 46, Type (0, 0), BuildingBlock: OJICUG_clean_linker_0, # of connection points: 2
#     Edge 47, Type (0, 0), BuildingBlock: OJICUG_clean_linker_0, # of connection points: 2
#     Edge 48, Type (0, 0), BuildingBlock: OJICUG_clean_linker_0, # of connection points: 2
#     Edge 49, Type (0, 0), BuildingBlock: OJICUG_clean_linker_0, # of connection points: 2
#     Edge 50, Type (0, 0), BuildingBlock: OJICUG_clean_linker_0, # of connection points: 2
#     Edge 51, Type (0, 0), BuildingBlock: OJICUG_clean_linker_0, # of connection points: 2
#     Edge 52, Type (0, 0), BuildingBlock: OJICUG_clean_linker_0, # of connection points: 2
#     Edge 53, Type (0, 0), BuildingBlock: OJICUG_clean_linker_0, # of connection points: 2
#     Edge 54, Type (0, 0), BuildingBlock: OJICUG_clean_linker_0, # of connection points: 2
#     Edge 55, Type (0, 0), BuildingBlock: OJICUG_clean_linker_0, # of connection points: 2
#     Edge 56, Type (0, 0), BuildingBlock: OJICUG_clean_linker_0, # of connection points: 2
#     Edge 57, Type (0, 0), BuildingBlock: OJICUG_clean_linker_0, # of connection points: 2
#     Edge 58, Type (0, 0), BuildingBlock: OJICUG_clean_linker_0, # of connection points: 2
#     Edge 59, Type (0, 0), BuildingBlock: OJICUG_clean_linker_0, # of connection points: 2
#     Edge 60, Type (0, 0), BuildingBlock: OJICUG_clean_linker_0, # of connection points: 2
#     Edge 61, Type (0, 0), BuildingBlock: OJICUG_clean_linker_0, # of connection points: 2
#     Edge 62, Type (0, 0), BuildingBlock: OJICUG_clean_linker_0, # of connection points: 2
#     Edge 63, Type (0, 0), BuildingBlock: OJICUG_clean_linker_0, # of connection points: 2
#     Edge 64, Type (0, 0), BuildingBlock: OJICUG_clean_linker_0, # of connection points: 2
#     Edge 65, Type (0, 0), BuildingBlock: OJICUG_clean_linker_0, # of connection points: 2
#     Edge 66, Type (0, 0), BuildingBlock: OJICUG_clean_linker_0, # of connection points: 2
#     Edge 67, Type (0, 0), BuildingBlock: OJICUG_clean_linker_0, # of connection points: 2
#     Edge 68, Type (0, 0), BuildingBlock: OJICUG_clean_linker_0, # of connection points: 2
#     Edge 69, Type (0, 0), BuildingBlock: OJICUG_clean_linker_0, # of connection points: 2
#     Edge 70, Type (0, 0), BuildingBlock: OJICUG_clean_linker_0, # of connection points: 2
#     Edge 71, Type (0, 0), BuildingBlock: OJICUG_clean_linker_0, # of connection points: 2
#     Edge 72, Type (0, 0), BuildingBlock: OJICUG_clean_linker_0, # of connection points: 2
#     Edge 73, Type (0, 0), BuildingBlock: OJICUG_clean_linker_0, # of connection points: 2
#     Edge 74, Type (0, 0), BuildingBlock: OJICUG_clean_linker_0, # of connection points: 2
#     Edge 75, Type (0, 0), BuildingBlock: OJICUG_clean_linker_0, # of connection points: 2
#     Edge 76, Type (0, 0), BuildingBlock: OJICUG_clean_linker_0, # of connection points: 2
#     Edge 77, Type (0, 0), BuildingBlock: OJICUG_clean_linker_0, # of connection points: 2
#     Edge 78, Type (0, 0), BuildingBlock: OJICUG_clean_linker_0, # of connection points: 2
#     Edge 79, Type (0, 0), BuildingBlock: OJICUG_clean_linker_0, # of connection points: 2
#     Edge 80, Type (0, 0), BuildingBlock: OJICUG_clean_linker_0, # of connection points: 2
#     Edge 81, Type (0, 0), BuildingBlock: OJICUG_clean_linker_0, # of connection points: 2
#     Edge 82, Type (0, 0), BuildingBlock: OJICUG_clean_linker_0, # of connection points: 2
#     Edge 83, Type (0, 0), BuildingBlock: OJICUG_clean_linker_0, # of connection points: 2
#     Edge 84, Type (0, 0), BuildingBlock: OJICUG_clean_linker_0, # of connection points: 2
#     Edge 85, Type (0, 0), BuildingBlock: OJICUG_clean_linker_0, # of connection points: 2
#     Edge 86, Type (0, 0), BuildingBlock: OJICUG_clean_linker_0, # of connection points: 2
#     Edge 87, Type (0, 0), BuildingBlock: OJICUG_clean_linker_0, # of connection points: 2
#     Edge 88, Type (0, 0), BuildingBlock: OJICUG_clean_linker_0, # of connection points: 2
#     Edge 89, Type (0, 0), BuildingBlock: OJICUG_clean_linker_0, # of connection points: 2
#     Edge 90, Type (0, 0), BuildingBlock: OJICUG_clean_linker_0, # of connection points: 2
#     Edge 91, Type (0, 0), BuildingBlock: OJICUG_clean_linker_0, # of connection points: 2
#     Edge 92, Type (0, 0), BuildingBlock: OJICUG_clean_linker_0, # of connection points: 2
#     Edge 93, Type (0, 0), BuildingBlock: OJICUG_clean_linker_0, # of connection points: 2
#     Edge 94, Type (0, 0), BuildingBlock: OJICUG_clean_linker_0, # of connection points: 2
#     Edge 95, Type (0, 0), BuildingBlock: OJICUG_clean_linker_0, # of connection points: 2
#     Edge 96, Type (0, 0), BuildingBlock: OJICUG_clean_linker_0, # of connection points: 2
#     Edge 97, Type (0, 0), BuildingBlock: OJICUG_clean_linker_0, # of connection points: 2
#     Edge 98, Type (0, 0), BuildingBlock: OJICUG_clean_linker_0, # of connection points: 2
#     Edge 99, Type (0, 0), BuildingBlock: OJICUG_clean_linker_0, # of connection points: 2
#     Edge 100, Type (0, 0), BuildingBlock: OJICUG_clean_linker_0, # of connection points: 2
#     Edge 101, Type (0, 0), BuildingBlock: OJICUG_clean_linker_0, # of connection points: 2
#     Edge 102, Type (0, 0), BuildingBlock: OJICUG_clean_linker_0, # of connection points: 2
#     Edge 103, Type (0, 0), BuildingBlock: OJICUG_clean_linker_0, # of connection points: 2
#     Edge 104, Type (0, 0), BuildingBlock: OJICUG_clean_linker_0, # of connection points: 2
#     Edge 105, Type (0, 0), BuildingBlock: OJICUG_clean_linker_0, # of connection points: 2
#     Edge 106, Type (0, 0), BuildingBlock: OJICUG_clean_linker_0, # of connection points: 2
#     Edge 107, Type (0, 0), BuildingBlock: OJICUG_clean_linker_0, # of connection points: 2
# Relax obj value: 0.083
# Max RMSD: 0.129
# Mean RMSD: 0.129
data_MOF--net-uoh--node1-QUQFOY_clean_sbu_1--edge1-OJICUG_clean_linker_0
_symmetry_space_group_name_H-M    P1
_symmetry_Int_Tables_number       1
_symmetry_cell_setting            triclinic
loop_
_symmetry_equiv_pos_as_xyz
'x, y, z'
_cell_length_a     68.623233
_cell_length_b     68.578732
_cell_length_c     20.776987
_cell_angle_alpha  90.12422
_cell_angle_beta   89.993421
_cell_angle_gamma 120.03578
loop_
_atom_site_label
_atom_site_type_symbol
_atom_site_fract_x
_atom_site_fract_y
_atom_site_fract_z
_atom_type_partial_charge
O0 O 0.25249 0.16329 0.08442 0.0
Cd1 Cd 0.26827 0.18036 0.16827 0.0
Cd2 Cd 0.25608 0.13776 0.20281 0.0
O3 O 0.23929 0.12815 0.11566 0.0
O4 O 0.26734 0.20929 0.16382 0.0
O5 O 0.2505 0.18401 0.24045 0.0
C6 C 0.2547 0.20279 0.21428 0.0
C7 C 0.24077 0.12261 0.30333 0.0
C8 C 0.24161 0.14226 0.07237 0.0
C9 C 0.30586 0.17046 0.18883 0.0
O10 O 0.29021 0.15022 0.19657 0.0
O11 O 0.30108 0.18607 0.18087 0.0
O12 O 0.24499 0.11127 0.26152 0.0
O13 O 0.24375 0.14201 0.28613 0.0
O14 O 0.86569 0.09576 0.08321 0.0
Cd15 Cd 0.85021 0.09438 0.16997 0.0
Cd16 Cd 0.89293 0.12442 0.20264 0.0
O17 O 0.90111 0.11604 0.11489 0.0
O18 O 0.82057 0.06508 0.17483 0.0
O19 O 0.84999 0.07265 0.23554 0.0
C20 C 0.82965 0.05855 0.21778 0.0
C21 C 0.90776 0.12348 0.30326 0.0
C22 C 0.88668 0.10507 0.07116 0.0
C23 C 0.86104 0.14224 0.19191 0.0
O24 O 0.88137 0.14684 0.19618 0.0
O25 O 0.84526 0.12177 0.18723 0.0
O26 O 0.91961 0.13889 0.26167 0.0
O27 O 0.88802 0.10772 0.28583 0.0
O28 O 0.93562 0.77903 0.09217 0.0
Cd29 Cd 0.93682 0.76288 0.17493 0.0
Cd30 Cd 0.9066 0.77503 0.21138 0.0
O31 O 0.91351 0.79189 0.12452 0.0
O32 O 0.96671 0.76391 0.16985 0.0
O33 O 0.95815 0.78032 0.24771 0.0
C34 C 0.97279 0.77633 0.2209 0.0
C35 C 0.90768 0.79066 0.31247 0.0
C36 C 0.92534 0.7898 0.08084 0.0
C37 C 0.88921 0.72522 0.19429 0.0
O38 O 0.88475 0.74087 0.20422 0.0
O39 O 0.90957 0.73 0.18551 0.0
O40 O 0.89185 0.78646 0.27171 0.0
O41 O 0.92376 0.7873 0.29408 0.0
O42 O 0.16906 0.24605 0.43841 0.0
Cd43 Cd 0.18641 0.26223 0.35566 0.0
Cd44 Cd 0.14403 0.25005 0.31928 0.0
O45 O 0.13407 0.23317 0.40613 0.0
O46 O 0.2153 0.26125 0.36077 0.0
O47 O 0.19035 0.24483 0.28287 0.0
C48 C 0.20898 0.24884 0.30971 0.0
C49 C 0.12951 0.23441 0.21818 0.0
C50 C 0.14801 0.23526 0.44977 0.0
C51 C 0.17642 0.29986 0.33643 0.0
O52 O 0.15631 0.2842 0.32649 0.0
O53 O 0.19201 0.2951 0.34516 0.0
O54 O 0.11785 0.23859 0.25892 0.0
O55 O 0.14895 0.23781 0.2366 0.0
O56 O 0.78258 0.92947 0.44693 0.0
Cd57 Cd 0.76845 0.93084 0.36022 0.0
Cd58 Cd 0.7811 0.90079 0.32746 0.0
O59 O 0.79768 0.90916 0.41519 0.0
O60 O 0.76813 0.96015 0.35543 0.0
O61 O 0.78995 0.95257 0.29459 0.0
C62 C 0.78373 0.96668 0.31241 0.0
C63 C 0.79686 0.90172 0.22682 0.0
C64 C 0.79423 0.92013 0.45894 0.0
C65 C 0.73138 0.88299 0.33835 0.0
O66 O 0.74711 0.87839 0.33397 0.0
O67 O 0.7361 0.90347 0.34307 0.0
O68 O 0.79328 0.88631 0.26841 0.0
O69 O 0.7929 0.91749 0.24426 0.0
O70 O 0.10182 0.86195 0.44642 0.0
Cd71 Cd 0.10054 0.84489 0.36257 0.0
Cd72 Cd 0.13095 0.8875 0.32804 0.0
O73 O 0.12376 0.8971 0.41521 0.0
O74 O 0.07068 0.81595 0.36698 0.0
O75 O 0.07913 0.84123 0.29035 0.0
C76 C 0.06455 0.82245 0.31651 0.0
C77 C 0.13079 0.90264 0.22753 0.0
C78 C 0.11197 0.88298 0.45849 0.0
C79 C 0.14805 0.85483 0.34205 0.0
O80 O 0.15263 0.87506 0.33429 0.0
O81 O 0.12766 0.83921 0.35 0.0
O82 O 0.14635 0.914 0.26933 0.0
O83 O 0.11436 0.88323 0.24474 0.0
O84 O 0.78473 0.86206 0.94601 0.0
Cd85 Cd 0.76897 0.84501 0.86213 0.0
Cd86 Cd 0.7812 0.88763 0.82768 0.0
O87 O 0.79798 0.89721 0.91485 0.0
O88 O 0.76986 0.81607 0.86654 0.0
O89 O 0.78675 0.84137 0.78997 0.0
C90 C 0.78252 0.82258 0.81611 0.0
C91 C 0.79652 0.90275 0.72717 0.0
C92 C 0.79564 0.88308 0.95811 0.0
C93 C 0.73141 0.85497 0.84156 0.0
O94 O 0.74708 0.8752 0.8339 0.0
O95 O 0.73617 0.83934 0.84947 0.0
O96 O 0.79233 0.91412 0.76895 0.0
O97 O 0.79352 0.88333 0.7444 0.0
O98 O 0.17148 0.92948 0.94732 0.0
Cd99 Cd 0.187 0.93086 0.86059 0.0
Cd100 Cd 0.14429 0.90082 0.82781 0.0
O101 O 0.13608 0.90918 0.91555 0.0
O102 O 0.21663 0.96018 0.85576 0.0
O103 O 0.18723 0.95259 0.79496 0.0
C104 C 0.20756 0.9667 0.81275 0.0
C105 C 0.12944 0.90171 0.72717 0.0
C106 C 0.1505 0.92014 0.95932 0.0
C107 C 0.17619 0.88301 0.83876 0.0
O108 O 0.15586 0.87841 0.83436 0.0
O109 O 0.19196 0.90348 0.84347 0.0
O110 O 0.11761 0.88631 0.7688 0.0
O111 O 0.14918 0.91749 0.74456 0.0
O112 O 0.10149 0.24587 0.93843 0.0
Cd113 Cd 0.10027 0.26203 0.85572 0.0
Cd114 Cd 0.1306 0.25004 0.81929 0.0
O115 O 0.12373 0.23316 0.90613 0.0
O116 O 0.07036 0.26097 0.8609 0.0
O117 O 0.07894 0.24462 0.7829 0.0
C118 C 0.0643 0.24858 0.80978 0.0
C119 C 0.12955 0.23443 0.71819 0.0
C120 C 0.11184 0.23517 0.94978 0.0
C121 C 0.14783 0.2998 0.83647 0.0
O122 O 0.15237 0.28422 0.82647 0.0
O123 O 0.12745 0.29495 0.84526 0.0
O124 O 0.1454 0.23868 0.75891 0.0
O125 O 0.11344 0.23774 0.73662 0.0
O126 O 0.86812 0.77916 0.59217 0.0
Cd127 Cd 0.85071 0.76301 0.67488 0.0
Cd128 Cd 0.89304 0.77502 0.71137 0.0
O129 O 0.90307 0.79189 0.62452 0.0
O130 O 0.82188 0.76409 0.66965 0.0
O131 O 0.8468 0.78045 0.74765 0.0
C132 C 0.82821 0.77649 0.72074 0.0
C133 C 0.90762 0.79062 0.81246 0.0
C134 C 0.88917 0.78986 0.58085 0.0
C135 C 0.86049 0.72525 0.69422 0.0
O136 O 0.88062 0.74084 0.70419 0.0
O137 O 0.84496 0.73009 0.68543 0.0
O138 O 0.91922 0.78637 0.77169 0.0
O139 O 0.88821 0.78733 0.79408 0.0
O140 O 0.25466 0.0958 0.58352 0.0
Cd141 Cd 0.26878 0.09441 0.67025 0.0
Cd142 Cd 0.2561 0.12443 0.70305 0.0
O143 O 0.23953 0.11606 0.6153 0.0
O144 O 0.2691 0.0651 0.67507 0.0
O145 O 0.24727 0.07267 0.73586 0.0
C146 C 0.2535 0.05857 0.71807 0.0
C147 C 0.24035 0.12353 0.80369 0.0
C148 C 0.243 0.10512 0.57153 0.0
C149 C 0.30582 0.14227 0.69213 0.0
O150 O 0.29008 0.14685 0.69652 0.0
O151 O 0.30113 0.1218 0.68741 0.0
O152 O 0.24391 0.13892 0.76206 0.0
O153 O 0.24431 0.10775 0.78629 0.0
O154 O 0.93528 0.16313 0.58412 0.0
Cd155 Cd 0.93657 0.18016 0.66803 0.0
Cd156 Cd 0.90614 0.13755 0.70241 0.0
O157 O 0.91334 0.12798 0.61523 0.0
O158 O 0.96643 0.20909 0.66369 0.0
O159 O 0.95796 0.18376 0.7402 0.0
C160 C 0.97255 0.20256 0.71411 0.0
C161 C 0.90633 0.12243 0.80291 0.0
C162 C 0.92514 0.14211 0.57199 0.0
C163 C 0.88907 0.17025 0.68865 0.0
O164 O 0.88447 0.15 0.69626 0.0
O165 O 0.90946 0.18586 0.68074 0.0
O166 O 0.89075 0.11106 0.76114 0.0
O167 O 0.92275 0.14183 0.78566 0.0
O168 O 0.91873 0.49636 0.41823 0.0
Cd169 Cd 0.93449 0.5134 0.50211 0.0
Cd170 Cd 0.92226 0.47079 0.53653 0.0
O171 O 0.90548 0.46121 0.44937 0.0
O172 O 0.9336 0.54235 0.49765 0.0
O173 O 0.9167 0.51706 0.57424 0.0
C174 C 0.92094 0.53584 0.54806 0.0
C175 C 0.90694 0.45568 0.63705 0.0
C176 C 0.90783 0.47534 0.40612 0.0
C177 C 0.97205 0.50346 0.52272 0.0
O178 O 0.95639 0.48322 0.53034 0.0
O179 O 0.96729 0.51908 0.51481 0.0
O180 O 0.91114 0.4443 0.59528 0.0
O181 O 0.90994 0.47509 0.61979 0.0
O182 O 0.53223 0.42923 0.41654 0.0
Cd183 Cd 0.51673 0.42783 0.5033 0.0
Cd184 Cd 0.55944 0.45789 0.53602 0.0
O185 O 0.56765 0.44953 0.44827 0.0
O186 O 0.48711 0.3985 0.50814 0.0
O187 O 0.51654 0.40611 0.56887 0.0
C188 C 0.49621 0.39198 0.55109 0.0
C189 C 0.57429 0.45699 0.63665 0.0
C190 C 0.55322 0.43856 0.40451 0.0
C191 C 0.52752 0.47567 0.52521 0.0
O192 O 0.54786 0.48028 0.52952 0.0
O193 O 0.51175 0.4552 0.52052 0.0
O194 O 0.58612 0.47239 0.59503 0.0
O195 O 0.55456 0.4412 0.61924 0.0
O196 O 0.60234 0.11263 0.42547 0.0
Cd197 Cd 0.60354 0.09647 0.50821 0.0
Cd198 Cd 0.57327 0.10855 0.54462 0.0
O199 O 0.58017 0.12542 0.45777 0.0
O200 O 0.63342 0.09749 0.50306 0.0
O201 O 0.62487 0.11388 0.581 0.0
C202 C 0.6395 0.10989 0.55415 0.0
C203 C 0.57436 0.12418 0.6457 0.0
C204 C 0.59204 0.12337 0.41412 0.0
C205 C 0.55595 0.05876 0.52755 0.0
O206 O 0.55145 0.07438 0.53749 0.0
O207 O 0.57632 0.06358 0.51876 0.0
O208 O 0.55851 0.11997 0.60499 0.0
O209 O 0.59044 0.12084 0.62727 0.0
O210 O 0.83534 0.57928 0.77183 0.0
Cd211 Cd 0.85273 0.59543 0.6891 0.0
Cd212 Cd 0.81039 0.58341 0.65269 0.0
O213 O 0.80038 0.56654 0.73953 0.0
O214 O 0.88157 0.59436 0.69435 0.0
O215 O 0.85665 0.57799 0.61636 0.0
C216 C 0.87525 0.58196 0.64328 0.0
C217 C 0.79584 0.56781 0.55159 0.0
C218 C 0.81429 0.56857 0.78318 0.0
C219 C 0.84294 0.63318 0.66979 0.0
O220 O 0.82281 0.61759 0.65985 0.0
O221 O 0.85847 0.62834 0.67855 0.0
O222 O 0.78422 0.57205 0.59233 0.0
O223 O 0.81525 0.57111 0.57 0.0
O224 O 0.44929 0.26291 0.78016 0.0
Cd225 Cd 0.43514 0.26427 0.69345 0.0
Cd226 Cd 0.44784 0.23426 0.66068 0.0
O227 O 0.46443 0.24264 0.74841 0.0
O228 O 0.43477 0.29355 0.68866 0.0
O229 O 0.45662 0.28602 0.62782 0.0
C230 C 0.45038 0.3001 0.64565 0.0
C231 C 0.46362 0.23521 0.56004 0.0
C232 C 0.46096 0.2536 0.79216 0.0
C233 C 0.39812 0.21639 0.67161 0.0
O234 O 0.41387 0.21181 0.66722 0.0
O235 O 0.40281 0.23686 0.67632 0.0
O236 O 0.46006 0.21981 0.60163 0.0
O237 O 0.45963 0.25096 0.57747 0.0
O238 O 0.76851 0.19534 0.77977 0.0
Cd239 Cd 0.76724 0.17831 0.69586 0.0
Cd240 Cd 0.79766 0.22092 0.66148 0.0
O241 O 0.79046 0.23049 0.74866 0.0
O242 O 0.73738 0.14937 0.7002 0.0
O243 O 0.74584 0.1747 0.62369 0.0
C244 C 0.73126 0.1559 0.64978 0.0
C245 C 0.79746 0.23604 0.56099 0.0
C246 C 0.77866 0.21636 0.7919 0.0
C247 C 0.81474 0.18823 0.67524 0.0
O248 O 0.81934 0.20847 0.66763 0.0
O249 O 0.79434 0.17261 0.68315 0.0
O250 O 0.81304 0.24741 0.60275 0.0
O251 O 0.78104 0.21663 0.57824 0.0
O252 O 0.45152 0.19554 0.27924 0.0
Cd253 Cd 0.43574 0.17848 0.19539 0.0
Cd254 Cd 0.44794 0.22109 0.16091 0.0
O255 O 0.46472 0.23069 0.24807 0.0
O256 O 0.43664 0.14955 0.19986 0.0
O257 O 0.45351 0.17482 0.12322 0.0
C258 C 0.44929 0.15604 0.14941 0.0
C259 C 0.46325 0.23621 0.06039 0.0
C260 C 0.4624 0.21657 0.29133 0.0
C261 C 0.39816 0.1884 0.17485 0.0
O262 O 0.41381 0.20864 0.16715 0.0
O263 O 0.40293 0.17279 0.18277 0.0
O264 O 0.45904 0.24758 0.10217 0.0
O265 O 0.46026 0.21681 0.07763 0.0
O266 O 0.83808 0.26273 0.2807 0.0
Cd267 Cd 0.85357 0.26413 0.19393 0.0
Cd268 Cd 0.81086 0.23409 0.16124 0.0
O269 O 0.80267 0.24246 0.249 0.0
O270 O 0.8832 0.29345 0.18908 0.0
O271 O 0.85376 0.28586 0.1284 0.0
C272 C 0.87409 0.29998 0.14616 0.0
C273 C 0.79602 0.23501 0.06062 0.0
C274 C 0.8171 0.25342 0.29274 0.0
C275 C 0.84276 0.21628 0.17196 0.0
O276 O 0.82243 0.21168 0.1677 0.0
O277 O 0.85854 0.23676 0.17663 0.0
O278 O 0.78418 0.2196 0.10222 0.0
O279 O 0.81576 0.25078 0.07805 0.0
O280 O 0.76795 0.57946 0.27183 0.0
Cd281 Cd 0.76679 0.59564 0.18908 0.0
Cd282 Cd 0.797 0.58347 0.15268 0.0
O283 O 0.79007 0.56659 0.23953 0.0
O284 O 0.73692 0.59465 0.19414 0.0
O285 O 0.74546 0.57823 0.11627 0.0
C286 C 0.73084 0.58224 0.14308 0.0
C287 C 0.79587 0.56782 0.05159 0.0
C288 C 0.77822 0.56868 0.28318 0.0
C289 C 0.81442 0.63328 0.16977 0.0
O290 O 0.81887 0.61763 0.15983 0.0
O291 O 0.79406 0.62851 0.17853 0.0
O292 O 0.81171 0.57201 0.09231 0.0
O293 O 0.77982 0.57121 0.07002 0.0
O294 O 0.53488 0.11264 0.92549 0.0
Cd295 Cd 0.51751 0.0965 1.00825 0.0
Cd296 Cd 0.55988 0.1086 0.04462 0.0
O297 O 0.56985 0.12548 0.95777 0.0
O298 O 0.48865 0.09752 1.00307 0.0
O299 O 0.51359 0.11393 0.08098 0.0
C300 C 0.49498 0.10994 0.05412 0.0
C301 C 0.57442 0.12423 0.14571 0.0
C302 C 0.55592 0.1234 0.91412 0.0
C303 C 0.5274 0.05881 0.02759 0.0
O304 O 0.54753 0.07444 0.03748 0.0
O305 O 0.51184 0.06361 0.01885 0.0
O306 O 0.58605 0.12002 0.10497 0.0
O307 O 0.55499 0.12088 0.1273 0.0
O308 O 0.92097 0.42906 0.9173 0.0
Cd309 Cd 0.93511 0.42771 1.00401 0.0
Cd310 Cd 0.92242 0.45772 0.03676 0.0
O311 O 0.90584 0.44934 0.94904 0.0
O312 O 0.9355 0.39844 1.00874 0.0
O313 O 0.91364 0.40595 0.06961 0.0
C314 C 0.9199 0.39187 0.05176 0.0
C315 C 0.90663 0.45675 0.13739 0.0
C316 C 0.90929 0.43837 0.90529 0.0
C317 C 0.97214 0.47558 0.0259 0.0
O318 O 0.9564 0.48017 0.03026 0.0
O319 O 0.96745 0.45511 0.02118 0.0
O320 O 0.91019 0.47216 0.09582 0.0
O321 O 0.91063 0.441 0.11993 0.0
O322 O 0.60183 0.49672 0.91745 0.0
Cd323 Cd 0.6031 0.51376 1.00133 0.0
Cd324 Cd 0.5727 0.47114 0.03579 0.0
O325 O 0.5799 0.46157 0.94861 0.0
O326 O 0.63296 0.5427 0.99698 0.0
O327 O 0.6245 0.51739 0.07354 0.0
C328 C 0.63908 0.53619 0.04742 0.0
C329 C 0.57289 0.45601 0.13628 0.0
C330 C 0.5917 0.47569 0.90535 0.0
C331 C 0.55558 0.5038 0.02191 0.0
O332 O 0.551 0.48357 0.02959 0.0
O333 O 0.57598 0.51943 1.01398 0.0
O334 O 0.55732 0.44465 0.0945 0.0
O335 O 0.5893 0.47542 0.11906 0.0
O336 O 0.5858 0.83004 0.75103 0.0
Cd337 Cd 0.60159 0.84708 0.8349 0.0
Cd338 Cd 0.58935 0.80447 0.86936 0.0
O339 O 0.57256 0.79489 0.7822 0.0
O340 O 0.60071 0.87604 0.83053 0.0
O341 O 0.58384 0.85074 0.90712 0.0
C342 C 0.58808 0.86953 0.88099 0.0
C343 C 0.57402 0.78934 0.96987 0.0
C344 C 0.5749 0.80901 0.73894 0.0
C345 C 0.63914 0.83711 0.85543 0.0
O346 O 0.62347 0.81688 0.86314 0.0
O347 O 0.63439 0.85274 0.84749 0.0
O348 O 0.57821 0.77797 0.92809 0.0
O349 O 0.57703 0.80876 0.95264 0.0
O350 O 0.19907 0.76243 0.75092 0.0
Cd351 Cd 0.18356 0.76107 0.83764 0.0
Cd352 Cd 0.22627 0.7911 0.8704 0.0
O353 O 0.23448 0.78272 0.78266 0.0
O354 O 0.1539 0.73177 0.84242 0.0
O355 O 0.18328 0.73932 0.90327 0.0
C356 C 0.16295 0.72523 0.88543 0.0
C357 C 0.2411 0.79016 0.97103 0.0
C358 C 0.22005 0.77176 0.73891 0.0
C359 C 0.1944 0.80894 0.85946 0.0
O360 O 0.21472 0.81352 0.86386 0.0
O361 O 0.17862 0.78846 0.85475 0.0
O362 O 0.25294 0.80557 0.92943 0.0
O363 O 0.22135 0.7744 0.95361 0.0
O364 O 0.26861 0.44581 0.75912 0.0
Cd365 Cd 0.26988 0.42967 0.84182 0.0
Cd366 Cd 0.23954 0.44164 0.87834 0.0
O367 O 0.24638 0.45852 0.7915 0.0
O368 O 0.2998 0.43077 0.83653 0.0
O369 O 0.29123 0.44711 0.91457 0.0
C370 C 0.30588 0.44316 0.88763 0.0
C371 C 0.24055 0.45722 0.97945 0.0
C372 C 0.25826 0.4565 0.74782 0.0
C373 C 0.22234 0.39188 0.86114 0.0
O374 O 0.21779 0.40746 0.87114 0.0
O375 O 0.24272 0.39674 0.85233 0.0
O376 O 0.2247 0.45296 0.93869 0.0
O377 O 0.25667 0.45395 0.96106 0.0
O378 O 0.50259 0.91297 0.10542 0.0
Cd379 Cd 0.51996 0.92912 0.02266 0.0
Cd380 Cd 0.4776 0.91702 0.98624 0.0
O381 O 0.46762 0.90015 0.0731 0.0
O382 O 0.54882 0.92808 0.02773 0.0
O383 O 0.52385 0.91169 0.94986 0.0
C384 C 0.54246 0.91567 0.97667 0.0
C385 C 0.46304 0.90138 0.88517 0.0
C386 C 0.48155 0.90222 0.11676 0.0
C387 C 0.51008 0.96681 1.00329 0.0
O388 O 0.48995 0.95118 0.99337 0.0
O389 O 0.52564 0.96201 1.01207 0.0
O390 O 0.45141 0.9056 0.92592 0.0
O391 O 0.48247 0.90473 0.90355 0.0
O392 O 0.11563 0.59606 0.11444 0.0
Cd393 Cd 0.10154 0.59749 0.0277 0.0
Cd394 Cd 0.11418 0.56744 0.99489 0.0
O395 O 0.13075 0.57578 0.08265 0.0
O396 O 0.10126 0.62682 0.02291 0.0
O397 O 0.12308 0.61922 0.96215 0.0
C398 C 0.11688 0.63334 0.97995 0.0
C399 C 0.12993 0.56831 0.89425 0.0
C400 C 0.12728 0.58673 0.12644 0.0
C401 C 0.06447 0.54965 1.00572 0.0
O402 O 0.0802 0.54505 1.00139 0.0
O403 O 0.06918 0.57013 1.01044 0.0
O404 O 0.12634 0.55292 0.93589 0.0
O405 O 0.126 0.58411 0.91164 0.0
O406 O 0.43497 0.52879 0.11271 0.0
Cd407 Cd 0.43368 0.51174 0.02884 0.0
Cd408 Cd 0.46409 0.55435 0.99437 0.0
O409 O 0.45689 0.56394 0.08154 0.0
O410 O 0.40384 0.4828 0.0333 0.0
O411 O 0.41225 0.50809 0.95671 0.0
C412 C 0.39769 0.4893 0.98288 0.0
C413 C 0.46389 0.56947 0.89386 0.0
C414 C 0.4451 0.54981 0.12481 0.0
C415 C 0.4812 0.52169 1.00822 0.0
O416 O 0.48578 0.54192 1.00056 0.0
O417 O 0.4608 0.50606 0.01615 0.0
O418 O 0.47946 0.58084 0.93563 0.0
O419 O 0.44747 0.55006 0.9111 0.0
O420 O 0.11769 0.52849 0.61351 0.0
Cd421 Cd 0.10191 0.51143 0.52966 0.0
Cd422 Cd 0.11412 0.55403 0.49512 0.0
O423 O 0.13091 0.56363 0.58228 0.0
O424 O 0.10281 0.48248 0.53407 0.0
O425 O 0.11967 0.50777 0.45746 0.0
C426 C 0.11544 0.48898 0.48361 0.0
C427 C 0.12945 0.56919 0.39462 0.0
C428 C 0.12858 0.54952 0.62557 0.0
C429 C 0.06434 0.52136 0.50905 0.0
O430 O 0.08 0.5416 0.50132 0.0
O431 O 0.0691 0.50574 0.51703 0.0
O432 O 0.12523 0.58054 0.43644 0.0
O433 O 0.12646 0.54978 0.41181 0.0
O434 O 0.50456 0.59619 0.6136 0.0
Cd435 Cd 0.52006 0.59757 0.52687 0.0
Cd436 Cd 0.47735 0.56752 0.49413 0.0
O437 O 0.46914 0.57589 0.58187 0.0
O438 O 0.54971 0.62687 0.52208 0.0
O439 O 0.52031 0.61931 0.46128 0.0
C440 C 0.54064 0.63341 0.4791 0.0
C441 C 0.46252 0.56846 0.39351 0.0
C442 C 0.48357 0.58686 0.62562 0.0
C443 C 0.50924 0.54971 0.50496 0.0
O444 O 0.48891 0.54511 0.50062 0.0
O445 O 0.52502 0.57018 0.50967 0.0
O446 O 0.45068 0.55305 0.4351 0.0
O447 O 0.48226 0.58423 0.41094 0.0
O448 O 0.435 0.91287 0.60546 0.0
Cd449 Cd 0.43375 0.929 0.52272 0.0
Cd450 Cd 0.46404 0.91695 0.48625 0.0
O451 O 0.45717 0.90008 0.57311 0.0
O452 O 0.40385 0.92794 0.52793 0.0
O453 O 0.4124 0.91155 0.45 0.0
C454 C 0.39776 0.91552 0.47688 0.0
C455 C 0.463 0.90135 0.38516 0.0
C456 C 0.44531 0.90214 0.61679 0.0
C457 C 0.48132 0.96673 0.50331 0.0
O458 O 0.48583 0.95112 0.49339 0.0
O459 O 0.46095 0.96191 0.51209 0.0
O460 O 0.47884 0.90558 0.42591 0.0
O461 O 0.44689 0.90465 0.40355 0.0
O462 O 0.20094 0.44558 0.25918 0.0
Cd463 Cd 0.18358 0.42942 0.34194 0.0
Cd464 Cd 0.22595 0.44158 0.37837 0.0
O465 O 0.23592 0.45846 0.29151 0.0
O466 O 0.15471 0.43043 0.3369 0.0
O467 O 0.17968 0.44684 0.41475 0.0
C468 C 0.16106 0.44285 0.38796 0.0
C469 C 0.2405 0.45722 0.47946 0.0
C470 C 0.22199 0.45636 0.24784 0.0
C471 C 0.19354 0.39177 0.36123 0.0
O472 O 0.21365 0.40743 0.37119 0.0
O473 O 0.17796 0.39654 0.35247 0.0
O474 O 0.25214 0.45303 0.4387 0.0
O475 O 0.22106 0.45384 0.46108 0.0
O476 O 0.58784 0.76254 0.2501 0.0
Cd477 Cd 0.60195 0.76114 0.33683 0.0
Cd478 Cd 0.58932 0.7912 0.36959 0.0
O479 O 0.57275 0.78285 0.28185 0.0
O480 O 0.60225 0.73182 0.3416 0.0
O481 O 0.58043 0.73941 0.40242 0.0
C482 C 0.58664 0.7253 0.38459 0.0
C483 C 0.57358 0.79031 0.47024 0.0
C484 C 0.5762 0.77188 0.23809 0.0
C485 C 0.63903 0.80898 0.35872 0.0
O486 O 0.62331 0.81359 0.36307 0.0
O487 O 0.63431 0.7885 0.35402 0.0
O488 O 0.57716 0.80571 0.42863 0.0
O489 O 0.57752 0.77452 0.45281 0.0
O490 O 0.26868 0.82984 0.2518 0.0
Cd491 Cd 0.26996 0.8469 0.33565 0.0
Cd492 Cd 0.23955 0.8043 0.37016 0.0
O493 O 0.24674 0.7947 0.283 0.0
O494 O 0.2998 0.87585 0.33117 0.0
O495 O 0.29139 0.85058 0.40781 0.0
C496 C 0.30595 0.86936 0.38162 0.0
C497 C 0.23974 0.78918 0.47068 0.0
C498 C 0.25854 0.80882 0.23972 0.0
C499 C 0.22244 0.83696 0.35619 0.0
O500 O 0.21786 0.81673 0.36392 0.0
O501 O 0.24283 0.85258 0.34824 0.0
O502 O 0.22417 0.77781 0.4289 0.0
O503 O 0.25616 0.80859 0.45344 0.0
C504 C 0.23545 0.1454 0.89265 0.0
C505 C 0.23496 0.12566 0.87165 0.0
H506 H 0.23759 0.16601 0.97289 0.0
C507 C 0.2325 0.10959 0.91776 0.0
H508 H 0.23717 0.15808 0.85849 0.0
C509 C 0.23253 0.11406 0.98362 0.0
C510 C 0.23526 0.1348 1.00464 0.0
H511 H 0.23191 0.09413 0.9032 0.0
H512 H 0.23212 0.10199 0.01789 0.0
C513 C 0.23569 0.14996 0.95838 0.0
C514 C 0.88343 0.09612 0.89118 0.0
C515 C 0.90371 0.11484 0.87081 0.0
H516 H 0.86222 0.07817 0.97073 0.0
C517 C 0.91992 0.12794 0.9174 0.0
H518 H 0.87061 0.08556 0.85663 0.0
C519 C 0.91516 0.12353 0.9831 0.0
C520 C 0.89401 0.1061 1.00343 0.0
H521 H 0.93577 0.14241 0.90334 0.0
H522 H 0.92745 0.13481 0.01779 0.0
C523 C 0.87859 0.09187 0.95672 0.0
C524 C 0.939 0.79612 0.96696 0.0
C525 C 0.9241 0.79618 1.01334 0.0
H526 H 0.94572 0.79478 0.86706 0.0
C527 C 0.90579 0.79839 0.99254 0.0
H528 H 0.95338 0.79463 0.98132 0.0
C529 C 0.90126 0.79827 0.9267 0.0
C530 C 0.91506 0.79613 0.88046 0.0
H531 H 0.89397 0.79847 0.02695 0.0
H532 H 0.88617 0.79843 0.91227 0.0
C533 C 0.93458 0.79619 0.90131 0.0
C534 C 0.11989 0.22666 0.53814 0.0
C535 C 0.14041 0.22887 0.51726 0.0
H536 H 0.10025 0.22662 0.61848 0.0
C537 C 0.15537 0.22892 0.56359 0.0
H538 H 0.10798 0.22658 0.50377 0.0
C539 C 0.1509 0.22885 0.62926 0.0
C540 C 0.13145 0.22891 0.65017 0.0
H541 H 0.17123 0.23041 0.54918 0.0
H542 H 0.16346 0.23026 0.66347 0.0
C543 C 0.1155 0.22678 0.604 0.0
C544 C 0.80422 0.90164 0.54696 0.0
C545 C 0.80053 0.91909 0.52666 0.0
H546 H 0.80592 0.88275 0.62668 0.0
C547 C 0.79937 0.93333 0.57339 0.0
H548 H 0.80521 0.89036 0.51224 0.0
C549 C 0.79996 0.92907 0.63893 0.0
C550 C 0.80148 0.91033 0.65926 0.0
H551 H 0.79673 0.94704 0.55941 0.0
H552 H 0.79773 0.93964 0.6735 0.0
C553 C 0.80457 0.89723 0.61264 0.0
C554 C 0.10266 0.87983 0.63822 0.0
C555 C 0.12192 0.89957 0.65922 0.0
H556 H 0.08419 0.85922 0.55798 0.0
C557 C 0.13552 0.91565 0.61311 0.0
H558 H 0.09171 0.86714 0.67237 0.0
C559 C 0.13107 0.91118 0.54725 0.0
C560 C 0.11306 0.89043 0.52623 0.0
H561 H 0.1504 0.93112 0.62767 0.0
H562 H 0.14275 0.92326 0.51297 0.0
C563 C 0.09834 0.87527 0.57248 0.0
C564 C 0.80177 0.87987 0.1378 0.0
C565 C 0.80226 0.89961 0.15887 0.0
H566 H 0.79964 0.85929 0.0575 0.0
C567 C 0.80475 0.9157 0.1128 0.0
H568 H 0.80004 0.86718 0.17192 0.0
C569 C 0.80473 0.91125 0.04693 0.0
C570 C 0.80199 0.89051 0.02585 0.0
H571 H 0.80533 0.93116 0.12741 0.0
H572 H 0.80514 0.92334 1.01269 0.0
C573 C 0.80154 0.87534 0.07206 0.0
C574 C 0.11723 0.89717 0.113 0.0
C575 C 0.13343 0.91025 0.15965 0.0
H576 H 0.10972 0.89034 1.0126 0.0
C577 C 0.1537 0.929 0.13935 0.0
H578 H 0.10139 0.88268 0.12702 0.0
C579 C 0.15855 0.93328 0.07382 0.0
C580 C 0.14315 0.91907 0.02706 0.0
H581 H 0.1665 0.93955 0.17394 0.0
H582 H 0.17492 0.947 0.05986 0.0
C583 C 0.12199 0.90161 0.04732 0.0
C584 C 0.09812 0.22876 0.06359 0.0
C585 C 0.11308 0.2288 0.01726 0.0
H586 H 0.09135 0.23006 0.16348 0.0
C587 C 0.13144 0.22668 0.03812 0.0
H588 H 0.08371 0.23018 0.04919 0.0
C589 C 0.13596 0.22682 0.10398 0.0
C590 C 0.1221 0.22888 0.15017 0.0
H591 H 0.1433 0.22667 1.00375 0.0
H592 H 0.15108 0.22674 0.11845 0.0
C593 C 0.10253 0.22872 0.12926 0.0
C594 C 0.9217 0.79825 0.4267 0.0
C595 C 0.90579 0.79618 0.38048 0.0
H596 H 0.92917 0.7984 0.52693 0.0
C597 C 0.88636 0.79632 0.40134 0.0
H598 H 0.93692 0.79835 0.41225 0.0
C599 C 0.88189 0.79626 0.46701 0.0
C600 C 0.8968 0.79624 0.51337 0.0
H601 H 0.87384 0.79496 0.36711 0.0
H602 H 0.86604 0.79483 0.48137 0.0
C603 C 0.9173 0.79838 0.49255 0.0
C604 C 0.23793 0.09198 0.45702 0.0
C605 C 0.23673 0.10619 0.5038 0.0
H606 H 0.23961 0.08573 0.3569 0.0
C607 C 0.23302 0.12363 0.48355 0.0
H608 H 0.24058 0.07828 0.47097 0.0
C609 C 0.23269 0.12807 0.41787 0.0
C610 C 0.23581 0.115 0.37121 0.0
H611 H 0.23201 0.13489 0.51829 0.0
H612 H 0.23132 0.14255 0.40387 0.0
C613 C 0.23735 0.09627 0.39149 0.0
C614 C 0.93881 0.14986 0.45805 0.0
C615 C 0.92407 0.13468 0.50424 0.0
H616 H 0.94548 0.15802 0.35819 0.0
C617 C 0.90606 0.11394 0.48315 0.0
H618 H 0.95295 0.1659 0.47262 0.0
C619 C 0.90164 0.10949 0.41727 0.0
C620 C 0.91526 0.12559 0.37122 0.0
H621 H 0.89438 0.10185 0.51737 0.0
H622 H 0.88677 0.09403 0.40265 0.0
C623 C 0.93452 0.14533 0.3923 0.0
C624 C 0.89876 0.44275 0.25138 0.0
C625 C 0.90122 0.45884 0.20535 0.0
H626 H 0.89837 0.4351 0.35148 0.0
C627 C 0.90168 0.47856 0.22644 0.0
H628 H 0.89819 0.4273 0.23675 0.0
C629 C 0.90191 0.48308 0.29219 0.0
C630 C 0.90148 0.46791 0.33837 0.0
H631 H 0.9034 0.49125 0.19234 0.0
H632 H 0.90379 0.49911 0.30678 0.0
C633 C 0.89877 0.44718 0.31726 0.0
C634 C 0.54999 0.42967 0.2245 0.0
C635 C 0.57026 0.44841 0.20417 0.0
H636 H 0.52879 0.41168 0.30402 0.0
C637 C 0.58647 0.46151 0.25079 0.0
H638 H 0.53719 0.41911 0.18993 0.0
C639 C 0.58171 0.45708 0.31648 0.0
C640 C 0.56056 0.43962 0.33678 0.0
H641 H 0.6023 0.47599 0.23675 0.0
H642 H 0.59398 0.46836 0.35119 0.0
C643 C 0.54515 0.4254 0.29004 0.0
C644 C 0.60575 0.12976 0.30031 0.0
C645 C 0.59082 0.12976 0.34664 0.0
H646 H 0.61253 0.12846 0.20043 0.0
C647 C 0.57249 0.13194 0.32578 0.0
H648 H 0.62014 0.1283 0.31471 0.0
C649 C 0.56799 0.13183 0.25992 0.0
C650 C 0.58183 0.12974 0.21374 0.0
H651 H 0.56065 0.13199 0.36015 0.0
H652 H 0.55289 0.13196 0.24545 0.0
C653 C 0.60136 0.12984 0.23464 0.0
C654 C 0.7862 0.56008 0.87154 0.0
C655 C 0.80667 0.5622 0.85067 0.0
H656 H 0.76661 0.56014 0.95189 0.0
C657 C 0.8216 0.56217 0.89699 0.0
H658 H 0.77432 0.56006 0.83718 0.0
C659 C 0.81714 0.56212 0.96266 0.0
C660 C 0.79774 0.56228 0.98358 0.0
H661 H 0.83743 0.56358 0.88258 0.0
H662 H 0.82967 0.56347 0.99687 0.0
C663 C 0.78181 0.56022 0.9374 0.0
C664 C 0.47097 0.23513 0.88018 0.0
C665 C 0.46726 0.25257 0.85989 0.0
H666 H 0.47268 0.21624 0.9599 0.0
C667 C 0.46608 0.26679 0.90662 0.0
H668 H 0.47197 0.22385 0.84547 0.0
C669 C 0.46667 0.26253 0.97216 0.0
C670 C 0.46821 0.2438 0.99249 0.0
H671 H 0.46342 0.28049 0.89264 0.0
H672 H 0.46442 0.27309 1.00672 0.0
C673 C 0.47132 0.23071 0.94587 0.0
C674 C 0.76499 0.20861 0.90584 0.0
C675 C 0.77973 0.22379 0.85964 0.0
H676 H 0.75831 0.20045 1.00569 0.0
C677 C 0.79772 0.24454 0.88073 0.0
H678 H 0.75085 0.19256 0.89127 0.0
C679 C 0.80214 0.24899 0.94661 0.0
C680 C 0.78852 0.23289 0.99266 0.0
H681 H 0.8094 0.25663 0.8465 0.0
H682 H 0.81701 0.26446 0.96122 0.0
C683 C 0.76927 0.21315 0.97158 0.0
C684 C 0.47148 0.24919 0.44602 0.0
C685 C 0.46902 0.2331 0.49208 0.0
H686 H 0.47186 0.25682 0.34591 0.0
C687 C 0.46856 0.21338 0.47102 0.0
H688 H 0.47204 0.26464 0.46063 0.0
C689 C 0.46833 0.20884 0.40528 0.0
C690 C 0.46875 0.22401 0.35907 0.0
H691 H 0.46684 0.2007 0.50514 0.0
H692 H 0.46645 0.19281 0.39072 0.0
C693 C 0.47147 0.24474 0.38014 0.0
C694 C 0.82035 0.26236 0.47272 0.0
C695 C 0.80008 0.24363 0.49309 0.0
H696 H 0.84155 0.28032 0.39317 0.0
C697 C 0.78387 0.23053 0.4465 0.0
H698 H 0.83316 0.27292 0.50727 0.0
C699 C 0.78862 0.23494 0.3808 0.0
C700 C 0.80977 0.25238 0.36047 0.0
H701 H 0.76802 0.21605 0.46056 0.0
H702 H 0.77634 0.22366 0.34611 0.0
C703 C 0.82519 0.26661 0.40718 0.0
C704 C 0.80223 0.56017 0.43738 0.0
C705 C 0.78842 0.5623 0.48357 0.0
H706 H 0.80956 0.55999 0.33715 0.0
C707 C 0.76891 0.56226 0.46267 0.0
H708 H 0.81731 0.56001 0.45185 0.0
C709 C 0.76451 0.56233 0.397 0.0
C710 C 0.77943 0.56229 0.35067 0.0
H711 H 0.75776 0.56366 0.49689 0.0
H712 H 0.75014 0.56383 0.38261 0.0
C713 C 0.79773 0.56006 0.37152 0.0
C714 C 0.55305 0.12982 0.73463 0.0
C715 C 0.57248 0.12972 0.71372 0.0
H716 H 0.53274 0.12831 0.81472 0.0
C717 C 0.58842 0.13182 0.75989 0.0
H718 H 0.5405 0.12844 0.70043 0.0
C719 C 0.58403 0.13195 0.82575 0.0
C720 C 0.56353 0.12978 0.84663 0.0
H721 H 0.60365 0.13195 0.7454 0.0
H722 H 0.59593 0.132 0.86011 0.0
C723 C 0.54859 0.12976 0.80031 0.0
C724 C 0.90353 0.42938 0.72533 0.0
C725 C 0.90199 0.44811 0.70496 0.0
H726 H 0.9068 0.41144 0.80487 0.0
C727 C 0.8989 0.46122 0.75156 0.0
H728 H 0.90577 0.41881 0.69077 0.0
C729 C 0.89926 0.45682 0.81726 0.0
C730 C 0.90298 0.43939 0.83758 0.0
H731 H 0.89753 0.47569 0.7375 0.0
H732 H 0.89828 0.46811 0.85195 0.0
C733 C 0.90414 0.42515 0.79087 0.0
C734 C 0.5682 0.44303 0.75069 0.0
C735 C 0.5818 0.45913 0.70461 0.0
H736 H 0.56095 0.43541 0.85081 0.0
C737 C 0.60104 0.47888 0.72565 0.0
H738 H 0.55333 0.42756 0.7361 0.0
C739 C 0.60534 0.48343 0.79139 0.0
C740 C 0.59062 0.46825 0.83761 0.0
H741 H 0.612 0.49157 0.69151 0.0
H742 H 0.61948 0.49948 0.80592 0.0
C743 C 0.57263 0.4475 0.81656 0.0
C744 C 0.56899 0.81675 0.62499 0.0
C745 C 0.56853 0.80157 0.67121 0.0
H746 H 0.57047 0.82489 0.52512 0.0
C747 C 0.56576 0.78082 0.65015 0.0
H748 H 0.57091 0.8328 0.63953 0.0
C749 C 0.56572 0.77635 0.58428 0.0
C750 C 0.56821 0.79244 0.5382 0.0
H751 H 0.56534 0.76873 0.6844 0.0
H752 H 0.56511 0.76088 0.56969 0.0
C753 C 0.56873 0.81219 0.55925 0.0
C754 C 0.21684 0.76284 0.55891 0.0
C755 C 0.23711 0.78159 0.53858 0.0
H756 H 0.19563 0.74486 0.63843 0.0
C757 C 0.25331 0.79469 0.5852 0.0
H758 H 0.20403 0.75228 0.52434 0.0
C759 C 0.24855 0.79026 0.65089 0.0
C760 C 0.22739 0.77281 0.67118 0.0
H761 H 0.26915 0.80917 0.57116 0.0
H762 H 0.26082 0.80154 0.6856 0.0
C763 C 0.21199 0.75858 0.62445 0.0
C764 C 0.23408 0.46482 0.59369 0.0
C765 C 0.24793 0.46277 0.54746 0.0
H766 H 0.22676 0.46498 0.69393 0.0
C767 C 0.2675 0.46294 0.56831 0.0
H768 H 0.21895 0.46489 0.57925 0.0
C769 C 0.27193 0.4629 0.63396 0.0
C770 C 0.25699 0.46287 0.68034 0.0
H771 H 0.27868 0.4616 0.53406 0.0
H772 H 0.28636 0.4615 0.64832 0.0
C773 C 0.23862 0.46497 0.65953 0.0
C774 C 0.48887 0.89586 0.2306 0.0
C775 C 0.47392 0.89583 0.18424 0.0
H776 H 0.49692 0.89718 0.3305 0.0
C777 C 0.4534 0.89362 0.20507 0.0
H778 H 0.50473 0.89735 0.21623 0.0
C779 C 0.44899 0.89373 0.27092 0.0
C780 C 0.46492 0.89584 0.31714 0.0
H781 H 0.44151 0.89356 0.17068 0.0
H782 H 0.43374 0.89357 0.28537 0.0
C783 C 0.48438 0.89578 0.29627 0.0
C784 C 0.13235 0.59985 0.24095 0.0
C785 C 0.13354 0.58564 0.19417 0.0
H786 H 0.13066 0.6061 0.34107 0.0
C787 C 0.13723 0.56818 0.21441 0.0
H788 H 0.12971 0.61357 0.22701 0.0
C789 C 0.13754 0.56373 0.28009 0.0
C790 C 0.13443 0.57681 0.32675 0.0
H791 H 0.13823 0.55692 0.17966 0.0
H792 H 0.13889 0.54924 0.29408 0.0
C793 C 0.13291 0.59556 0.30648 0.0
C794 C 0.4642 0.57799 0.21362 0.0
C795 C 0.44619 0.55725 0.19255 0.0
H796 H 0.48351 0.59789 0.29409 0.0
C797 C 0.43145 0.54208 0.23876 0.0
H798 H 0.47588 0.59007 0.17937 0.0
C799 C 0.43575 0.54662 0.3045 0.0
C800 C 0.45501 0.56635 0.32556 0.0
H801 H 0.4173 0.52604 0.22421 0.0
H802 H 0.42478 0.53393 0.33862 0.0
C803 C 0.46863 0.58244 0.27949 0.0
C804 C 0.13476 0.54639 0.80529 0.0
C805 C 0.13529 0.56615 0.82628 0.0
H806 H 0.13256 0.52576 0.72507 0.0
C807 C 0.13777 0.58223 0.78016 0.0
H808 H 0.13302 0.53371 0.83946 0.0
C809 C 0.13772 0.57774 0.7143 0.0
C810 C 0.13495 0.55698 0.6933 0.0
H811 H 0.13838 0.5977 0.7947 0.0
H812 H 0.13814 0.58982 0.68002 0.0
C813 C 0.13449 0.54182 0.73957 0.0
C814 C 0.45032 0.56395 0.77935 0.0
C815 C 0.46652 0.57706 0.82596 0.0
H816 H 0.4428 0.55708 0.67896 0.0
C817 C 0.48679 0.59579 0.80561 0.0
H818 H 0.43448 0.54948 0.7934 0.0
C819 C 0.49164 0.60005 0.74007 0.0
C820 C 0.47623 0.58582 0.69335 0.0
H821 H 0.4996 0.60636 0.84017 0.0
H822 H 0.508 0.61376 0.72608 0.0
C823 C 0.45508 0.56837 0.71366 0.0
C824 C 0.43606 0.89573 0.7963 0.0
C825 C 0.45561 0.89585 0.81716 0.0
H826 H 0.41724 0.89722 0.71628 0.0
C827 C 0.46944 0.89375 0.77094 0.0
H828 H 0.4249 0.8971 0.83055 0.0
C829 C 0.46491 0.89362 0.7051 0.0
C830 C 0.44656 0.89577 0.68428 0.0
H831 H 0.48455 0.89364 0.78538 0.0
H832 H 0.47675 0.89358 0.6707 0.0
C833 C 0.43164 0.89578 0.73065 0.0
C834 C 0.25014 0.46497 0.15954 0.0
C835 C 0.2296 0.46274 0.18035 0.0
H836 H 0.26981 0.46504 0.07926 0.0
C837 C 0.21465 0.46269 0.13398 0.0
H838 H 0.26204 0.46506 0.19394 0.0
C839 C 0.21914 0.46276 0.06832 0.0
C840 C 0.23861 0.46272 0.04747 0.0
H841 H 0.19878 0.46118 0.14834 0.0
H842 H 0.20659 0.46135 0.03408 0.0
C843 C 0.25455 0.46486 0.0937 0.0
C844 C 0.56594 0.79485 0.08438 0.0
C845 C 0.56903 0.78174 0.03776 0.0
H846 H 0.56527 0.8017 0.18478 0.0
C847 C 0.57053 0.76299 0.05808 0.0
H848 H 0.56461 0.80934 0.07034 0.0
C849 C 0.57109 0.75872 0.12362 0.0
C850 C 0.56993 0.77295 0.17036 0.0
H851 H 0.57277 0.75243 0.02351 0.0
H852 H 0.57372 0.74499 0.1376 0.0
C853 C 0.56626 0.79041 0.15006 0.0
C854 C 0.23942 0.78064 0.15093 0.0
C855 C 0.25745 0.80137 0.17199 0.0
H856 H 0.2201 0.76074 0.07047 0.0
C857 C 0.27219 0.81654 0.12576 0.0
H858 H 0.22774 0.76856 0.18518 0.0
C859 C 0.26788 0.812 0.06002 0.0
C860 C 0.24861 0.79227 0.03898 0.0
H861 H 0.28634 0.83258 0.14031 0.0
H862 H 0.27885 0.82468 0.0259 0.0
C863 C 0.23499 0.77619 0.08506 0.0
C864 C 0.23122 0.22941 0.32823 0.0
C865 C 0.22192 0.23835 0.28512 0.0
H866 H 0.24832 0.21055 0.33962 0.0
C867 C 0.22418 0.23616 0.21871 0.0
H868 H 0.22955 0.23068 0.37969 0.0
C869 C 0.23564 0.22538 0.19587 0.0
C870 C 0.24426 0.21577 0.23896 0.0
H871 H 0.21713 0.24284 0.18444 0.0
H872 H 0.23708 0.22388 0.1444 0.0
C873 C 0.24188 0.21783 0.30537 0.0
C874 C 0.78321 1.0015 0.27674 0.0
C875 C 0.79514 0.99005 0.28721 0.0
H876 H 0.7847 0.03205 0.2448 0.0
C877 C 0.81842 1.00139 0.27542 0.0
H878 H 0.76526 0.99316 0.28556 0.0
C879 C 0.82964 0.02383 0.25465 0.0
C880 C 0.8177 0.03517 0.24297 0.0
H881 H 0.82807 0.99306 0.28357 0.0
H882 H 0.84763 0.03217 0.24641 0.0
C883 C 0.79432 0.02372 0.25353 0.0
C884 C 1.01447 0.7958 0.20246 0.0
C885 C 0.99621 0.78683 0.24553 0.0
H886 H 0.05045 0.81469 0.19114 0.0
C887 C 1.00065 0.78902 0.31196 0.0
H888 H 1.01154 0.79452 0.15099 0.0
C889 C 0.02289 0.79982 0.33483 0.0
C890 C 0.04114 0.80945 0.29178 0.0
H891 H 0.98691 0.78233 0.34619 0.0
H892 H 0.02581 0.80132 0.3863 0.0
C893 C 0.03671 0.80739 0.22535 0.0
C894 C 0.813 0.78917 0.81172 0.0
C895 C 0.81529 0.787 0.74531 0.0
H896 H 0.80008 0.80144 0.886 0.0
C897 C 0.80603 0.79598 0.70219 0.0
H898 H 0.82002 0.78246 0.84599 0.0
C899 C 0.79537 0.80756 0.72503 0.0
C900 C 0.79295 0.8096 0.79144 0.0
H901 H 0.80772 0.79472 0.65073 0.0
H902 H 0.78896 0.81487 0.69078 0.0
C903 C 0.80155 0.79996 0.83454 0.0
C904 C 0.21879 0.02385 0.75501 0.0
C905 C 0.24208 0.0352 0.74327 0.0
H906 H 0.18958 0.99307 0.78398 0.0
C907 C 0.254 0.02375 0.75381 0.0
H908 H 0.20914 0.03218 0.7468 0.0
C909 C 0.24289 1.00153 0.77702 0.0
C910 C 0.21951 0.99007 0.78754 0.0
H911 H 0.27196 0.03209 0.74503 0.0
H912 H 0.25251 0.9932 0.78581 0.0
C913 C 0.20757 1.00141 0.77578 0.0
C914 C 1.01422 0.22517 0.69582 0.0
C915 C 0.99596 0.21552 0.73886 0.0
H916 H 0.0502 0.24266 0.68449 0.0
C917 C 1.00038 0.21754 0.80528 0.0
H918 H 1.01129 0.22371 0.64435 0.0
C919 C 0.02262 0.2291 0.8282 0.0
C920 C 0.04088 0.23809 0.78514 0.0
H921 H 0.98664 0.21023 0.83949 0.0
H922 H 0.02554 0.23034 0.87967 0.0
C923 C 0.03645 0.23594 0.71871 0.0
C924 C 0.89046 0.56926 0.55234 0.0
C925 C 0.88817 0.57144 0.61875 0.0
H926 H 0.90338 0.55697 0.4781 0.0
C927 C 0.89742 0.56247 0.6619 0.0
H928 H 0.88344 0.57596 0.51805 0.0
C929 C 0.90808 0.55088 0.6391 0.0
C930 C 0.9105 0.54883 0.57269 0.0
H931 H 0.89573 0.56374 0.71335 0.0
H932 H 0.91449 0.54358 0.67337 0.0
C933 C 0.90191 0.55847 0.52957 0.0
C934 C 0.48505 0.33485 0.60869 0.0
C935 C 0.46176 0.32347 0.62046 0.0
H936 H 0.51423 0.36565 0.57972 0.0
C937 C 0.44982 0.3349 0.61 0.0
H938 H 0.49472 0.32653 0.61684 0.0
C939 C 0.4609 0.35712 0.58682 0.0
C940 C 0.48428 0.36861 0.57627 0.0
H941 H 0.43186 0.32654 0.61881 0.0
H942 H 0.45126 0.36544 0.57809 0.0
C943 C 0.49624 0.35729 0.58795 0.0
C944 C 0.68118 0.12935 0.53571 0.0
C945 C 0.66292 0.12037 0.57878 0.0
H946 H 0.71716 0.14821 0.52441 0.0
C947 C 0.66735 0.12253 0.64521 0.0
H948 H 0.67825 0.1281 0.48425 0.0
C949 C 0.68959 0.1333 0.66809 0.0
C950 C 0.70784 0.14294 0.62504 0.0
H951 H 0.65361 0.11583 0.67944 0.0
H952 H 0.69252 0.13478 0.71956 0.0
C953 C 0.70342 0.14091 0.55862 0.0
C954 C 0.46212 0.14099 0.05835 0.0
C955 C 0.45972 0.14305 0.12476 0.0
H956 H 0.47445 0.12812 0.98407 0.0
C957 C 0.46833 0.13343 0.16787 0.0
H958 H 0.45569 0.14828 0.02409 0.0
C959 C 0.47978 0.12264 0.14508 0.0
C960 C 0.48205 0.12044 0.07867 0.0
H961 H 0.46688 0.13494 0.21934 0.0
H962 H 0.48682 0.11595 0.17936 0.0
C963 C 0.47277 0.1294 0.03553 0.0
C964 C 0.92047 0.35707 0.08732 0.0
C965 C 0.90852 0.3685 0.07691 0.0
H966 H 0.91904 0.32653 0.11916 0.0
C967 C 0.88523 0.35711 0.08869 0.0
H968 H 0.93843 0.36544 0.07851 0.0
C969 C 0.87405 0.33467 0.1094 0.0
C970 C 0.88602 0.32335 0.12103 0.0
H971 H 0.87556 0.36543 0.08057 0.0
H972 H 0.85606 0.3263 0.11763 0.0
C973 C 0.9094 0.33485 0.11047 0.0
C974 C 0.68915 0.5628 0.1615 0.0
C975 C 0.70741 0.57176 0.11844 0.0
H976 H 0.65318 0.54392 0.1728 0.0
C977 C 0.70299 0.56958 0.05201 0.0
H978 H 0.69208 0.56406 0.21297 0.0
C979 C 0.68075 0.5588 0.02912 0.0
C980 C 0.66249 0.54917 0.07216 0.0
H981 H 0.71673 0.57628 0.01778 0.0
H982 H 0.67783 0.55731 0.97765 0.0
C983 C 0.66692 0.55122 0.13859 0.0
C984 C 0.56466 0.89618 0.99508 0.0
C985 C 0.55538 0.90516 0.95202 0.0
H986 H 0.58172 0.87728 1.00637 0.0
C987 C 0.55763 0.90298 0.88559 0.0
H988 H 0.56299 0.89745 0.04655 0.0
C989 C 0.56906 0.89218 0.8627 0.0
C990 C 0.57767 0.88253 0.90574 0.0
H991 H 0.55059 0.90968 0.85137 0.0
H992 H 0.57049 0.89068 0.81122 0.0
C993 C 0.57529 0.88459 0.97217 0.0
C994 C 0.15162 0.66804 0.94312 0.0
C995 C 0.12833 0.65671 0.95479 0.0
H996 H 0.18087 0.69881 0.91424 0.0
C997 C 0.11644 0.66819 0.94424 0.0
H998 H 0.16125 0.65969 0.95134 0.0
C999 C 0.12758 0.69041 0.92107 0.0
C1000 C 0.15096 0.70185 0.91062 0.0
H1001 H 0.09848 0.65987 0.95297 0.0
H1002 H 0.11798 0.69877 0.91227 0.0
C1003 C 0.16287 0.69049 0.92239 0.0
C1004 C 0.33378 0.45586 0.97857 0.0
C1005 C 0.32932 0.45369 0.91216 0.0
H1006 H 0.35898 0.46814 0.05282 0.0
C1007 C 0.34755 0.46268 0.86902 0.0
H1008 H 0.32005 0.44915 1.01286 0.0
C1009 C 0.3698 0.47427 0.89183 0.0
C1010 C 0.37426 0.47631 0.95824 0.0
H1011 H 0.3446 0.46141 0.81757 0.0
H1012 H 0.38352 0.48158 0.85757 0.0
C1013 C 0.35603 0.46666 1.00136 0.0
C1014 C 0.13447 0.46635 0.50191 0.0
C1015 C 0.12585 0.47598 0.45887 0.0
H1016 H 0.15294 0.44885 0.51326 0.0
C1017 C 0.12822 0.47392 0.39244 0.0
H1018 H 0.13305 0.46785 0.55339 0.0
C1019 C 0.13885 0.46232 0.36954 0.0
C1020 C 0.14814 0.45335 0.4126 0.0
H1021 H 0.12178 0.48121 0.35823 0.0
H1022 H 0.14051 0.46105 0.31807 0.0
C1023 C 0.1459 0.45555 0.47903 0.0
C1024 C 0.57599 0.66823 0.44343 0.0
C1025 C 0.55261 0.65678 0.45393 0.0
H1026 H 0.60507 0.69878 0.41149 0.0
C1027 C 0.54069 0.66814 0.44222 0.0
H1028 H 0.5856 0.65989 0.45219 0.0
C1029 C 0.55192 0.69058 0.42149 0.0
C1030 C 0.57521 0.70192 0.40976 0.0
H1031 H 0.5227 0.65981 0.4504 0.0
H1032 H 0.54228 0.69893 0.4133 0.0
C1033 C 0.58712 0.69045 0.42026 0.0
C1034 C 0.35608 0.89602 0.49548 0.0
C1035 C 0.37432 0.90499 0.45234 0.0
H1036 H 0.32012 0.87713 0.50693 0.0
C1037 C 0.36986 0.9028 0.38593 0.0
H1038 H 0.35904 0.8973 0.54694 0.0
C1039 C 0.34761 0.89199 0.36314 0.0
C1040 C 0.32938 0.88236 0.40626 0.0
H1041 H 0.38358 0.9095 0.35165 0.0
H1042 H 0.34466 0.89049 0.31168 0.0
C1043 C 0.33384 0.88442 0.47267 0.0
C1044 C 0.34745 0.19702 0.17341 0.0
C1045 C 0.32958 0.17528 0.18637 0.0
H1046 H 0.38288 0.21814 0.15905 0.0
C1047 C 0.33445 0.15775 0.19473 0.0
H1048 H 0.34437 0.2109 0.16638 0.0
C1049 C 0.35657 0.16184 0.19025 0.0
C1050 C 0.37444 0.18359 0.17729 0.0
H1051 H 0.32114 0.14072 0.20462 0.0
H1052 H 0.35965 0.14797 0.19729 0.0
C1053 C 0.36956 0.20112 0.16893 0.0
C1054 C 0.82998 0.17487 0.17171 0.0
C1055 C 0.84763 0.19742 0.17546 0.0
H1056 H 0.82021 0.13988 0.1745 0.0
C1057 C 0.86961 0.20156 0.18577 0.0
H1058 H 0.81278 0.17097 0.16409 0.0
C1059 C 0.87383 0.18366 0.19214 0.0
C1060 C 0.85617 0.1611 0.18839 0.0
H1061 H 0.8836 0.21864 0.18935 0.0
H1062 H 0.89102 0.18756 0.19976 0.0
C1063 C 0.83419 0.15697 0.17808 0.0
C1064 C 0.82969 0.67468 0.19096 0.0
C1065 C 0.83343 0.65694 0.17464 0.0
H1066 H 0.84419 0.70988 0.21062 0.0
C1067 C 0.85583 0.66183 0.16582 0.0
H1068 H 0.81276 0.67158 0.19853 0.0
C1069 C 0.87395 0.68382 0.17311 0.0
C1070 C 0.8702 0.70156 0.18943 0.0
H1071 H 0.85944 0.64862 0.15345 0.0
H1072 H 0.89088 0.68692 0.16554 0.0
C1073 C 0.84781 0.69667 0.19825 0.0
C1074 C 0.20641 0.36324 0.3651 0.0
C1075 C 0.1889 0.36812 0.35631 0.0
H1076 H 0.21638 0.33817 0.36528 0.0
C1077 C 0.16742 0.35038 0.33994 0.0
H1078 H 0.22324 0.37645 0.37751 0.0
C1079 C 0.16355 0.32839 0.33257 0.0
C1080 C 0.18106 0.32351 0.34136 0.0
H1081 H 0.15358 0.35346 0.33239 0.0
H1082 H 0.14672 0.31518 0.32017 0.0
C1083 C 0.20254 0.34125 0.35773 0.0
C1084 C 0.6677 0.85039 0.35889 0.0
C1085 C 0.66277 0.82783 0.35511 0.0
H1086 H 0.69294 0.88537 0.35601 0.0
C1087 C 0.6806 0.82368 0.34467 0.0
H1088 H 0.65441 0.8543 0.36661 0.0
C1089 C 0.70273 0.84158 0.33819 0.0
C1090 C 0.70765 0.86414 0.34196 0.0
H1091 H 0.67748 0.8066 0.34106 0.0
H1092 H 0.71601 0.83767 0.33047 0.0
C1093 C 0.68982 0.86829 0.3524 0.0
C1094 C 0.2074 0.8635 0.3407 0.0
C1095 C 0.20353 0.84176 0.35371 0.0
H1096 H 0.19308 0.88459 0.32626 0.0
C1097 C 0.18112 0.82422 0.36207 0.0
H1098 H 0.22436 0.87738 0.33366 0.0
C1099 C 0.16309 0.82829 0.35754 0.0
C1100 C 0.16696 0.85003 0.34454 0.0
H1101 H 0.17741 0.8072 0.37199 0.0
H1102 H 0.14614 0.81441 0.36458 0.0
C1103 C 0.18937 0.86757 0.33618 0.0
C1104 C 0.68981 0.82843 0.85688 0.0
C1105 C 0.7077 0.85017 0.84398 0.0
H1106 H 0.65438 0.80734 0.87118 0.0
C1107 C 0.70285 0.86772 0.83564 0.0
H1108 H 0.69287 0.81454 0.8639 0.0
C1109 C 0.68074 0.86365 0.84009 0.0
C1110 C 0.66285 0.8419 0.853 0.0
H1111 H 0.71617 0.88474 0.82579 0.0
H1112 H 0.67768 0.87753 0.83307 0.0
C1113 C 0.6677 0.82436 0.86134 0.0
C1114 C 0.16758 0.82368 0.84525 0.0
C1115 C 0.18955 0.8278 0.85577 0.0
H1116 H 0.1462 0.83769 0.8309 0.0
C1117 C 0.2072 0.85036 0.85954 0.0
H1118 H 0.15359 0.8066 0.84164 0.0
C1119 C 0.20301 0.86827 0.85297 0.0
C1120 C 0.18104 0.86414 0.84245 0.0
H1121 H 0.22439 0.85425 0.86732 0.0
H1122 H 0.217 0.88535 0.85658 0.0
C1123 C 0.16339 0.84159 0.83868 0.0
C1124 C 0.20725 0.35051 0.83986 0.0
C1125 C 0.2034 0.36818 0.85624 0.0
H1126 H 0.19289 0.31533 0.8201 0.0
C1127 C 0.18098 0.36319 0.86509 0.0
H1128 H 0.22421 0.35369 0.83226 0.0
C1129 C 0.16293 0.34116 0.85776 0.0
C1130 C 0.16677 0.32349 0.84137 0.0
H1131 H 0.17729 0.37635 0.87751 0.0
H1132 H 0.14597 0.33799 0.86536 0.0
C1133 C 0.18919 0.32849 0.83253 0.0
C1134 C 0.83422 0.68387 0.67306 0.0
C1135 C 0.85574 0.70156 0.68938 0.0
H1136 H 0.81339 0.64868 0.65343 0.0
C1137 C 0.87318 0.69658 0.69821 0.0
H1138 H 0.82043 0.68703 0.66548 0.0
C1139 C 0.86921 0.67456 0.69094 0.0
C1140 C 0.84769 0.65687 0.67463 0.0
H1141 H 0.89004 0.70975 0.71058 0.0
H1142 H 0.883 0.6714 0.69852 0.0
C1143 C 0.83025 0.66185 0.66579 0.0
C1144 C 0.33444 0.18369 0.69227 0.0
C1145 C 0.32955 0.16115 0.68849 0.0
H1146 H 0.35963 0.21869 0.68936 0.0
C1147 C 0.3474 0.15704 0.678 0.0
H1148 H 0.32114 0.18758 0.70003 0.0
C1149 C 0.36951 0.17496 0.67148 0.0
C1150 C 0.3744 0.19751 0.67526 0.0
H1151 H 0.34431 0.13996 0.67438 0.0
H1152 H 0.38281 0.17108 0.66372 0.0
C1153 C 0.35655 0.20162 0.68574 0.0
C1154 C 0.84775 0.15754 0.69466 0.0
C1155 C 0.87017 0.17507 0.68633 0.0
H1156 H 0.81278 0.14777 0.69734 0.0
C1157 C 0.87407 0.19683 0.67356 0.0
H1158 H 0.84403 0.14051 0.70441 0.0
C1159 C 0.85605 0.20094 0.66923 0.0
C1160 C 0.83363 0.18341 0.67756 0.0
H1161 H 0.89103 0.21071 0.66655 0.0
H1162 H 0.85978 0.21797 0.65948 0.0
C1163 C 0.82974 0.16165 0.69033 0.0
C1164 C 0.02274 0.49481 0.52432 0.0
C1165 C 0.04062 0.51656 0.51144 0.0
H1166 H 0.9873 0.4737 0.53855 0.0
C1167 C 0.03576 0.5341 0.50307 0.0
H1168 H 0.02581 0.48093 0.53136 0.0
C1169 C 1.01365 0.53001 0.50747 0.0
C1170 C 0.99576 0.50826 0.52035 0.0
H1171 H 0.04908 0.55112 0.49325 0.0
H1172 H 1.01058 0.54389 0.50044 0.0
C1173 C 1.00063 0.49072 0.52872 0.0
C1174 C 0.53609 0.53499 0.51895 0.0
C1175 C 0.51411 0.53085 0.50854 0.0
H1176 H 0.55749 0.52099 0.53309 0.0
C1177 C 0.49646 0.50829 0.50478 0.0
H1178 H 0.55007 0.55207 0.52255 0.0
C1179 C 0.50067 0.49039 0.51123 0.0
C1180 C 0.52265 0.49453 0.52163 0.0
H1181 H 0.47927 0.50439 0.49709 0.0
H1182 H 0.48669 0.47331 0.50763 0.0
C1183 C 0.5403 0.51709 0.5254 0.0
C1184 C 0.51457 0.03014 0.53159 0.0
C1185 C 0.53698 0.03508 0.52275 0.0
H1186 H 0.47954 1.00498 0.53196 0.0
C1187 C 0.54078 0.01738 0.50648 0.0
H1188 H 0.51091 0.04332 0.54393 0.0
C1189 C 0.5227 0.99536 0.49926 0.0
C1190 C 0.50029 0.99041 0.5081 0.0
H1191 H 0.55772 0.02051 0.4989 0.0
H1192 H 0.52636 0.98218 0.48692 0.0
C1193 C 0.49649 1.00812 0.52437 0.0
C1194 C 0.50121 0.01741 1.00652 0.0
C1195 C 0.52271 0.03514 0.02278 0.0
H1196 H 0.48044 0.98221 0.98696 0.0
C1197 C 0.54019 0.03021 0.03159 0.0
H1198 H 0.48739 0.02053 0.99896 0.0
C1199 C 0.53627 1.00821 0.02436 0.0
C1200 C 0.51477 0.99048 1.0081 0.0
H1201 H 0.55704 0.04341 0.04392 0.0
H1202 H 0.55009 1.00509 0.03192 0.0
C1203 C 0.49729 0.99541 0.99929 0.0
C1204 C 1.01371 0.49033 1.01192 0.0
C1205 C 0.99587 0.49446 0.02233 0.0
H1206 H 0.04912 0.50434 0.99778 0.0
C1207 C 1.00077 0.51701 0.02612 0.0
H1208 H 1.01061 0.47325 1.0083 0.0
C1209 C 0.02289 0.53492 0.01969 0.0
C1210 C 0.04074 0.53079 1.00928 0.0
H1211 H 0.98748 0.5209 0.03382 0.0
H1212 H 0.026 0.552 0.02331 0.0
C1213 C 0.03583 0.50824 1.00548 0.0
C1214 C 0.54054 0.53035 1.00665 0.0
C1215 C 0.53667 0.5086 0.01952 0.0
H1216 H 0.52622 0.55145 0.99241 0.0
C1217 C 0.51426 0.49106 0.02788 0.0
H1218 H 0.5575 0.54423 0.99962 0.0
C1219 C 0.49623 0.49514 0.02347 0.0
C1220 C 0.5001 0.51689 1.01059 0.0
H1221 H 0.51056 0.47404 0.0377 0.0
H1222 H 0.47928 0.48126 0.03049 0.0
C1223 C 0.52252 0.53443 1.00224 0.0
loop_
_geom_bond_atom_site_label_1
_geom_bond_atom_site_label_2
_geom_bond_distance
_geom_bond_site_symmetry_2
_ccdc_geom_bond_type
O0 Cd1 2.223 . S
O0 C8 1.315 . S
Cd1 O0 2.223 . S
Cd1 O4 2.297 . S
Cd1 O5 2.439 . S
Cd1 O11 2.240 . S
Cd2 O3 2.240 . S
Cd2 O10 2.223 . S
Cd2 O12 2.297 . S
Cd2 O13 2.439 . S
O3 Cd2 2.240 . S
O3 C8 1.279 . S
O4 Cd1 2.297 . S
O4 C6 1.247 . S
O5 Cd1 2.439 . S
O5 C6 1.208 . S
C6 O4 1.247 . S
C6 O5 1.208 . S
C7 O12 1.247 . S
C7 O13 1.208 . S
C8 O0 1.315 . S
C8 O3 1.279 . S
C9 O10 1.315 . S
C9 O11 1.279 . S
O10 Cd2 2.223 . S
O10 C9 1.315 . S
O11 Cd1 2.240 . S
O11 C9 1.279 . S
O12 Cd2 2.297 . S
O12 C7 1.247 . S
O13 Cd2 2.439 . S
O13 C7 1.208 . S
O14 Cd15 2.223 . S
O14 C22 1.315 . S
Cd15 O14 2.223 . S
Cd15 O18 2.297 . S
Cd15 O19 2.439 . S
Cd15 O25 2.240 . S
Cd16 O17 2.240 . S
Cd16 O24 2.223 . S
Cd16 O26 2.297 . S
Cd16 O27 2.439 . S
O17 Cd16 2.240 . S
O17 C22 1.279 . S
O18 Cd15 2.297 . S
O18 C20 1.247 . S
O19 Cd15 2.439 . S
O19 C20 1.208 . S
C20 O18 1.247 . S
C20 O19 1.208 . S
C21 O26 1.247 . S
C21 O27 1.208 . S
C22 O14 1.315 . S
C22 O17 1.279 . S
C23 O24 1.315 . S
C23 O25 1.279 . S
O24 Cd16 2.223 . S
O24 C23 1.315 . S
O25 Cd15 2.240 . S
O25 C23 1.279 . S
O26 Cd16 2.297 . S
O26 C21 1.247 . S
O27 Cd16 2.439 . S
O27 C21 1.208 . S
O28 Cd29 2.223 . S
O28 C36 1.315 . S
Cd29 O28 2.223 . S
Cd29 O32 2.297 . S
Cd29 O33 2.439 . S
Cd29 O39 2.240 . S
Cd30 O31 2.240 . S
Cd30 O38 2.223 . S
Cd30 O40 2.297 . S
Cd30 O41 2.439 . S
O31 Cd30 2.240 . S
O31 C36 1.279 . S
O32 Cd29 2.297 . S
O32 C34 1.247 . S
O33 Cd29 2.439 . S
O33 C34 1.208 . S
C34 O32 1.247 . S
C34 O33 1.208 . S
C35 O40 1.247 . S
C35 O41 1.208 . S
C36 O28 1.315 . S
C36 O31 1.279 . S
C37 O38 1.315 . S
C37 O39 1.279 . S
O38 Cd30 2.223 . S
O38 C37 1.315 . S
O39 Cd29 2.240 . S
O39 C37 1.279 . S
O40 Cd30 2.297 . S
O40 C35 1.247 . S
O41 Cd30 2.439 . S
O41 C35 1.208 . S
O42 Cd43 2.223 . S
O42 C50 1.315 . S
Cd43 O42 2.223 . S
Cd43 O46 2.297 . S
Cd43 O47 2.439 . S
Cd43 O53 2.240 . S
Cd44 O45 2.240 . S
Cd44 O52 2.223 . S
Cd44 O54 2.297 . S
Cd44 O55 2.439 . S
O45 Cd44 2.240 . S
O45 C50 1.279 . S
O46 Cd43 2.297 . S
O46 C48 1.247 . S
O47 Cd43 2.439 . S
O47 C48 1.208 . S
C48 O46 1.247 . S
C48 O47 1.208 . S
C49 O54 1.247 . S
C49 O55 1.208 . S
C50 O42 1.315 . S
C50 O45 1.279 . S
C51 O52 1.315 . S
C51 O53 1.279 . S
O52 Cd44 2.223 . S
O52 C51 1.315 . S
O53 Cd43 2.240 . S
O53 C51 1.279 . S
O54 Cd44 2.297 . S
O54 C49 1.247 . S
O55 Cd44 2.439 . S
O55 C49 1.208 . S
O56 Cd57 2.223 . S
O56 C64 1.315 . S
Cd57 O56 2.223 . S
Cd57 O60 2.297 . S
Cd57 O61 2.439 . S
Cd57 O67 2.240 . S
Cd58 O59 2.240 . S
Cd58 O66 2.223 . S
Cd58 O68 2.297 . S
Cd58 O69 2.439 . S
O59 Cd58 2.240 . S
O59 C64 1.279 . S
O60 Cd57 2.297 . S
O60 C62 1.247 . S
O61 Cd57 2.439 . S
O61 C62 1.208 . S
C62 O60 1.247 . S
C62 O61 1.208 . S
C63 O68 1.247 . S
C63 O69 1.208 . S
C64 O56 1.315 . S
C64 O59 1.279 . S
C65 O66 1.315 . S
C65 O67 1.279 . S
O66 Cd58 2.223 . S
O66 C65 1.315 . S
O67 Cd57 2.240 . S
O67 C65 1.279 . S
O68 Cd58 2.297 . S
O68 C63 1.247 . S
O69 Cd58 2.439 . S
O69 C63 1.208 . S
O70 Cd71 2.223 . S
O70 C78 1.315 . S
Cd71 O70 2.223 . S
Cd71 O74 2.297 . S
Cd71 O75 2.439 . S
Cd71 O81 2.240 . S
Cd72 O73 2.240 . S
Cd72 O80 2.223 . S
Cd72 O82 2.297 . S
Cd72 O83 2.439 . S
O73 Cd72 2.240 . S
O73 C78 1.279 . S
O74 Cd71 2.297 . S
O74 C76 1.247 . S
O75 Cd71 2.439 . S
O75 C76 1.208 . S
C76 O74 1.247 . S
C76 O75 1.208 . S
C77 O82 1.247 . S
C77 O83 1.208 . S
C78 O70 1.315 . S
C78 O73 1.279 . S
C79 O80 1.315 . S
C79 O81 1.279 . S
O80 Cd72 2.223 . S
O80 C79 1.315 . S
O81 Cd71 2.240 . S
O81 C79 1.279 . S
O82 Cd72 2.297 . S
O82 C77 1.247 . S
O83 Cd72 2.439 . S
O83 C77 1.208 . S
O84 Cd85 2.223 . S
O84 C92 1.315 . S
Cd85 O84 2.223 . S
Cd85 O88 2.297 . S
Cd85 O89 2.439 . S
Cd85 O95 2.240 . S
Cd86 O87 2.240 . S
Cd86 O94 2.223 . S
Cd86 O96 2.297 . S
Cd86 O97 2.439 . S
O87 Cd86 2.240 . S
O87 C92 1.279 . S
O88 Cd85 2.297 . S
O88 C90 1.247 . S
O89 Cd85 2.439 . S
O89 C90 1.208 . S
C90 O88 1.247 . S
C90 O89 1.208 . S
C91 O96 1.247 . S
C91 O97 1.208 . S
C92 O84 1.315 . S
C92 O87 1.279 . S
C93 O94 1.315 . S
C93 O95 1.279 . S
O94 Cd86 2.223 . S
O94 C93 1.315 . S
O95 Cd85 2.240 . S
O95 C93 1.279 . S
O96 Cd86 2.297 . S
O96 C91 1.247 . S
O97 Cd86 2.439 . S
O97 C91 1.208 . S
O98 Cd99 2.223 . S
O98 C106 1.315 . S
Cd99 O98 2.223 . S
Cd99 O102 2.297 . S
Cd99 O103 2.439 . S
Cd99 O109 2.240 . S
Cd100 O101 2.240 . S
Cd100 O108 2.223 . S
Cd100 O110 2.297 . S
Cd100 O111 2.439 . S
O101 Cd100 2.240 . S
O101 C106 1.279 . S
O102 Cd99 2.297 . S
O102 C104 1.247 . S
O103 Cd99 2.439 . S
O103 C104 1.208 . S
C104 O102 1.247 . S
C104 O103 1.208 . S
C105 O110 1.247 . S
C105 O111 1.208 . S
C106 O98 1.315 . S
C106 O101 1.279 . S
C107 O108 1.315 . S
C107 O109 1.279 . S
O108 Cd100 2.223 . S
O108 C107 1.315 . S
O109 Cd99 2.240 . S
O109 C107 1.279 . S
O110 Cd100 2.297 . S
O110 C105 1.247 . S
O111 Cd100 2.439 . S
O111 C105 1.208 . S
O112 Cd113 2.223 . S
O112 C120 1.315 . S
Cd113 O112 2.223 . S
Cd113 O116 2.297 . S
Cd113 O117 2.439 . S
Cd113 O123 2.240 . S
Cd114 O115 2.240 . S
Cd114 O122 2.223 . S
Cd114 O124 2.297 . S
Cd114 O125 2.439 . S
O115 Cd114 2.240 . S
O115 C120 1.279 . S
O116 Cd113 2.297 . S
O116 C118 1.247 . S
O117 Cd113 2.439 . S
O117 C118 1.208 . S
C118 O116 1.247 . S
C118 O117 1.208 . S
C119 O124 1.247 . S
C119 O125 1.208 . S
C120 O112 1.315 . S
C120 O115 1.279 . S
C121 O122 1.315 . S
C121 O123 1.279 . S
O122 Cd114 2.223 . S
O122 C121 1.315 . S
O123 Cd113 2.240 . S
O123 C121 1.279 . S
O124 Cd114 2.297 . S
O124 C119 1.247 . S
O125 Cd114 2.439 . S
O125 C119 1.208 . S
O126 Cd127 2.223 . S
O126 C134 1.315 . S
Cd127 O126 2.223 . S
Cd127 O130 2.297 . S
Cd127 O131 2.439 . S
Cd127 O137 2.240 . S
Cd128 O129 2.240 . S
Cd128 O136 2.223 . S
Cd128 O138 2.297 . S
Cd128 O139 2.439 . S
O129 Cd128 2.240 . S
O129 C134 1.279 . S
O130 Cd127 2.297 . S
O130 C132 1.247 . S
O131 Cd127 2.439 . S
O131 C132 1.208 . S
C132 O130 1.247 . S
C132 O131 1.208 . S
C133 O138 1.247 . S
C133 O139 1.208 . S
C134 O126 1.315 . S
C134 O129 1.279 . S
C135 O136 1.315 . S
C135 O137 1.279 . S
O136 Cd128 2.223 . S
O136 C135 1.315 . S
O137 Cd127 2.240 . S
O137 C135 1.279 . S
O138 Cd128 2.297 . S
O138 C133 1.247 . S
O139 Cd128 2.439 . S
O139 C133 1.208 . S
O140 Cd141 2.223 . S
O140 C148 1.315 . S
Cd141 O140 2.223 . S
Cd141 O144 2.297 . S
Cd141 O145 2.439 . S
Cd141 O151 2.240 . S
Cd142 O143 2.240 . S
Cd142 O150 2.223 . S
Cd142 O152 2.297 . S
Cd142 O153 2.439 . S
O143 Cd142 2.240 . S
O143 C148 1.279 . S
O144 Cd141 2.297 . S
O144 C146 1.247 . S
O145 Cd141 2.439 . S
O145 C146 1.208 . S
C146 O144 1.247 . S
C146 O145 1.208 . S
C147 O152 1.247 . S
C147 O153 1.208 . S
C148 O140 1.315 . S
C148 O143 1.279 . S
C149 O150 1.315 . S
C149 O151 1.279 . S
O150 Cd142 2.223 . S
O150 C149 1.315 . S
O151 Cd141 2.240 . S
O151 C149 1.279 . S
O152 Cd142 2.297 . S
O152 C147 1.247 . S
O153 Cd142 2.439 . S
O153 C147 1.208 . S
O154 Cd155 2.223 . S
O154 C162 1.315 . S
Cd155 O154 2.223 . S
Cd155 O158 2.297 . S
Cd155 O159 2.439 . S
Cd155 O165 2.240 . S
Cd156 O157 2.240 . S
Cd156 O164 2.223 . S
Cd156 O166 2.297 . S
Cd156 O167 2.439 . S
O157 Cd156 2.240 . S
O157 C162 1.279 . S
O158 Cd155 2.297 . S
O158 C160 1.247 . S
O159 Cd155 2.439 . S
O159 C160 1.208 . S
C160 O158 1.247 . S
C160 O159 1.208 . S
C161 O166 1.247 . S
C161 O167 1.208 . S
C162 O154 1.315 . S
C162 O157 1.279 . S
C163 O164 1.315 . S
C163 O165 1.279 . S
O164 Cd156 2.223 . S
O164 C163 1.315 . S
O165 Cd155 2.240 . S
O165 C163 1.279 . S
O166 Cd156 2.297 . S
O166 C161 1.247 . S
O167 Cd156 2.439 . S
O167 C161 1.208 . S
O168 Cd169 2.223 . S
O168 C176 1.315 . S
Cd169 O168 2.223 . S
Cd169 O172 2.297 . S
Cd169 O173 2.439 . S
Cd169 O179 2.240 . S
Cd170 O171 2.240 . S
Cd170 O178 2.223 . S
Cd170 O180 2.297 . S
Cd170 O181 2.439 . S
O171 Cd170 2.240 . S
O171 C176 1.279 . S
O172 Cd169 2.297 . S
O172 C174 1.247 . S
O173 Cd169 2.439 . S
O173 C174 1.208 . S
C174 O172 1.247 . S
C174 O173 1.208 . S
C175 O180 1.247 . S
C175 O181 1.208 . S
C176 O168 1.315 . S
C176 O171 1.279 . S
C177 O178 1.315 . S
C177 O179 1.279 . S
O178 Cd170 2.223 . S
O178 C177 1.315 . S
O179 Cd169 2.240 . S
O179 C177 1.279 . S
O180 Cd170 2.297 . S
O180 C175 1.247 . S
O181 Cd170 2.439 . S
O181 C175 1.208 . S
O182 Cd183 2.223 . S
O182 C190 1.315 . S
Cd183 O182 2.223 . S
Cd183 O186 2.297 . S
Cd183 O187 2.439 . S
Cd183 O193 2.240 . S
Cd184 O185 2.240 . S
Cd184 O192 2.223 . S
Cd184 O194 2.297 . S
Cd184 O195 2.439 . S
O185 Cd184 2.240 . S
O185 C190 1.279 . S
O186 Cd183 2.297 . S
O186 C188 1.247 . S
O187 Cd183 2.439 . S
O187 C188 1.208 . S
C188 O186 1.247 . S
C188 O187 1.208 . S
C189 O194 1.247 . S
C189 O195 1.208 . S
C190 O182 1.315 . S
C190 O185 1.279 . S
C191 O192 1.315 . S
C191 O193 1.279 . S
O192 Cd184 2.223 . S
O192 C191 1.315 . S
O193 Cd183 2.240 . S
O193 C191 1.279 . S
O194 Cd184 2.297 . S
O194 C189 1.247 . S
O195 Cd184 2.439 . S
O195 C189 1.208 . S
O196 Cd197 2.223 . S
O196 C204 1.315 . S
Cd197 O196 2.223 . S
Cd197 O200 2.297 . S
Cd197 O201 2.439 . S
Cd197 O207 2.240 . S
Cd198 O199 2.240 . S
Cd198 O206 2.223 . S
Cd198 O208 2.297 . S
Cd198 O209 2.439 . S
O199 Cd198 2.240 . S
O199 C204 1.279 . S
O200 Cd197 2.297 . S
O200 C202 1.247 . S
O201 Cd197 2.439 . S
O201 C202 1.208 . S
C202 O200 1.247 . S
C202 O201 1.208 . S
C203 O208 1.247 . S
C203 O209 1.208 . S
C204 O196 1.315 . S
C204 O199 1.279 . S
C205 O206 1.315 . S
C205 O207 1.279 . S
O206 Cd198 2.223 . S
O206 C205 1.315 . S
O207 Cd197 2.240 . S
O207 C205 1.279 . S
O208 Cd198 2.297 . S
O208 C203 1.247 . S
O209 Cd198 2.439 . S
O209 C203 1.208 . S
O210 Cd211 2.223 . S
O210 C218 1.315 . S
Cd211 O210 2.223 . S
Cd211 O214 2.297 . S
Cd211 O215 2.439 . S
Cd211 O221 2.240 . S
Cd212 O213 2.240 . S
Cd212 O220 2.223 . S
Cd212 O222 2.297 . S
Cd212 O223 2.439 . S
O213 Cd212 2.240 . S
O213 C218 1.279 . S
O214 Cd211 2.297 . S
O214 C216 1.247 . S
O215 Cd211 2.439 . S
O215 C216 1.208 . S
C216 O214 1.247 . S
C216 O215 1.208 . S
C217 O222 1.247 . S
C217 O223 1.208 . S
C218 O210 1.315 . S
C218 O213 1.279 . S
C219 O220 1.315 . S
C219 O221 1.279 . S
O220 Cd212 2.223 . S
O220 C219 1.315 . S
O221 Cd211 2.240 . S
O221 C219 1.279 . S
O222 Cd212 2.297 . S
O222 C217 1.247 . S
O223 Cd212 2.439 . S
O223 C217 1.208 . S
O224 Cd225 2.223 . S
O224 C232 1.315 . S
Cd225 O224 2.223 . S
Cd225 O228 2.297 . S
Cd225 O229 2.439 . S
Cd225 O235 2.240 . S
Cd226 O227 2.240 . S
Cd226 O234 2.223 . S
Cd226 O236 2.297 . S
Cd226 O237 2.439 . S
O227 Cd226 2.240 . S
O227 C232 1.279 . S
O228 Cd225 2.297 . S
O228 C230 1.247 . S
O229 Cd225 2.439 . S
O229 C230 1.208 . S
C230 O228 1.247 . S
C230 O229 1.208 . S
C231 O236 1.247 . S
C231 O237 1.208 . S
C232 O224 1.315 . S
C232 O227 1.279 . S
C233 O234 1.315 . S
C233 O235 1.279 . S
O234 Cd226 2.223 . S
O234 C233 1.315 . S
O235 Cd225 2.240 . S
O235 C233 1.279 . S
O236 Cd226 2.297 . S
O236 C231 1.247 . S
O237 Cd226 2.439 . S
O237 C231 1.208 . S
O238 Cd239 2.223 . S
O238 C246 1.315 . S
Cd239 O238 2.223 . S
Cd239 O242 2.297 . S
Cd239 O243 2.439 . S
Cd239 O249 2.240 . S
Cd240 O241 2.240 . S
Cd240 O248 2.223 . S
Cd240 O250 2.297 . S
Cd240 O251 2.439 . S
O241 Cd240 2.240 . S
O241 C246 1.279 . S
O242 Cd239 2.297 . S
O242 C244 1.247 . S
O243 Cd239 2.439 . S
O243 C244 1.208 . S
C244 O242 1.247 . S
C244 O243 1.208 . S
C245 O250 1.247 . S
C245 O251 1.208 . S
C246 O238 1.315 . S
C246 O241 1.279 . S
C247 O248 1.315 . S
C247 O249 1.279 . S
O248 Cd240 2.223 . S
O248 C247 1.315 . S
O249 Cd239 2.240 . S
O249 C247 1.279 . S
O250 Cd240 2.297 . S
O250 C245 1.247 . S
O251 Cd240 2.439 . S
O251 C245 1.208 . S
O252 Cd253 2.223 . S
O252 C260 1.315 . S
Cd253 O252 2.223 . S
Cd253 O256 2.297 . S
Cd253 O257 2.439 . S
Cd253 O263 2.240 . S
Cd254 O255 2.240 . S
Cd254 O262 2.223 . S
Cd254 O264 2.297 1_554 S
Cd254 O265 2.439 1_554 S
O255 Cd254 2.240 . S
O255 C260 1.279 . S
O256 Cd253 2.297 . S
O256 C258 1.247 . S
O257 Cd253 2.439 . S
O257 C258 1.208 . S
C258 O256 1.247 . S
C258 O257 1.208 . S
C259 O264 1.247 . S
C259 O265 1.208 . S
C260 O252 1.315 . S
C260 O255 1.279 . S
C261 O262 1.315 . S
C261 O263 1.279 . S
O262 Cd254 2.223 . S
O262 C261 1.315 . S
O263 Cd253 2.240 . S
O263 C261 1.279 . S
O264 Cd254 2.297 1_556 S
O264 C259 1.247 . S
O265 Cd254 2.439 1_556 S
O265 C259 1.208 . S
O266 Cd267 2.223 . S
O266 C274 1.315 . S
Cd267 O266 2.223 . S
Cd267 O270 2.297 . S
Cd267 O271 2.439 . S
Cd267 O277 2.240 . S
Cd268 O269 2.240 . S
Cd268 O276 2.223 . S
Cd268 O278 2.297 1_554 S
Cd268 O279 2.439 1_554 S
O269 Cd268 2.240 . S
O269 C274 1.279 . S
O270 Cd267 2.297 . S
O270 C272 1.247 . S
O271 Cd267 2.439 . S
O271 C272 1.208 . S
C272 O270 1.247 . S
C272 O271 1.208 . S
C273 O278 1.247 . S
C273 O279 1.208 . S
C274 O266 1.315 . S
C274 O269 1.279 . S
C275 O276 1.315 . S
C275 O277 1.279 . S
O276 Cd268 2.223 . S
O276 C275 1.315 . S
O277 Cd267 2.240 . S
O277 C275 1.279 . S
O278 Cd268 2.297 1_556 S
O278 C273 1.247 . S
O279 Cd268 2.439 1_556 S
O279 C273 1.208 . S
O280 Cd281 2.223 . S
O280 C288 1.315 . S
Cd281 O280 2.223 . S
Cd281 O284 2.297 . S
Cd281 O285 2.439 . S
Cd281 O291 2.240 . S
Cd282 O283 2.240 . S
Cd282 O290 2.223 . S
Cd282 O292 2.297 1_554 S
Cd282 O293 2.439 1_554 S
O283 Cd282 2.240 . S
O283 C288 1.279 . S
O284 Cd281 2.297 . S
O284 C286 1.247 . S
O285 Cd281 2.439 . S
O285 C286 1.208 . S
C286 O284 1.247 . S
C286 O285 1.208 . S
C287 O292 1.247 . S
C287 O293 1.208 . S
C288 O280 1.315 . S
C288 O283 1.279 . S
C289 O290 1.315 . S
C289 O291 1.279 . S
O290 Cd282 2.223 . S
O290 C289 1.315 . S
O291 Cd281 2.240 . S
O291 C289 1.279 . S
O292 Cd282 2.297 1_556 S
O292 C287 1.247 . S
O293 Cd282 2.439 1_556 S
O293 C287 1.208 . S
O294 Cd295 2.223 1_556 S
O294 C302 1.315 . S
Cd295 O294 2.223 1_554 S
Cd295 O298 2.297 . S
Cd295 O299 2.439 . S
Cd295 O305 2.240 . S
Cd296 O297 2.240 . S
Cd296 O304 2.223 . S
Cd296 O306 2.297 . S
Cd296 O307 2.439 . S
O297 Cd296 2.240 . S
O297 C302 1.279 1_554 S
O298 Cd295 2.297 . S
O298 C300 1.247 . S
O299 Cd295 2.439 . S
O299 C300 1.208 . S
C300 O298 1.247 . S
C300 O299 1.208 . S
C301 O306 1.247 . S
C301 O307 1.208 . S
C302 O294 1.315 . S
C302 O297 1.279 1_556 S
C303 O304 1.315 . S
C303 O305 1.279 . S
O304 Cd296 2.223 . S
O304 C303 1.315 . S
O305 Cd295 2.240 . S
O305 C303 1.279 . S
O306 Cd296 2.297 . S
O306 C301 1.247 . S
O307 Cd296 2.439 . S
O307 C301 1.208 . S
O308 Cd309 2.223 1_556 S
O308 C316 1.315 . S
Cd309 O308 2.223 1_554 S
Cd309 O312 2.297 . S
Cd309 O313 2.439 . S
Cd309 O319 2.240 . S
Cd310 O311 2.240 . S
Cd310 O318 2.223 . S
Cd310 O320 2.297 . S
Cd310 O321 2.439 . S
O311 Cd310 2.240 . S
O311 C316 1.279 1_554 S
O312 Cd309 2.297 . S
O312 C314 1.247 . S
O313 Cd309 2.439 . S
O313 C314 1.208 . S
C314 O312 1.247 . S
C314 O313 1.208 . S
C315 O320 1.247 . S
C315 O321 1.208 . S
C316 O308 1.315 . S
C316 O311 1.279 1_556 S
C317 O318 1.315 . S
C317 O319 1.279 . S
O318 Cd310 2.223 . S
O318 C317 1.315 . S
O319 Cd309 2.240 . S
O319 C317 1.279 . S
O320 Cd310 2.297 . S
O320 C315 1.247 . S
O321 Cd310 2.439 . S
O321 C315 1.208 . S
O322 Cd323 2.223 1_556 S
O322 C330 1.315 . S
Cd323 O322 2.223 1_554 S
Cd323 O326 2.297 . S
Cd323 O327 2.439 . S
Cd323 O333 2.240 . S
Cd324 O325 2.240 . S
Cd324 O332 2.223 . S
Cd324 O334 2.297 . S
Cd324 O335 2.439 . S
O325 Cd324 2.240 . S
O325 C330 1.279 1_554 S
O326 Cd323 2.297 . S
O326 C328 1.247 . S
O327 Cd323 2.439 . S
O327 C328 1.208 . S
C328 O326 1.247 . S
C328 O327 1.208 . S
C329 O334 1.247 . S
C329 O335 1.208 . S
C330 O322 1.315 . S
C330 O325 1.279 1_556 S
C331 O332 1.315 . S
C331 O333 1.279 . S
O332 Cd324 2.223 . S
O332 C331 1.315 . S
O333 Cd323 2.240 . S
O333 C331 1.279 . S
O334 Cd324 2.297 . S
O334 C329 1.247 . S
O335 Cd324 2.439 . S
O335 C329 1.208 . S
O336 Cd337 2.223 . S
O336 C344 1.315 . S
Cd337 O336 2.223 . S
Cd337 O340 2.297 . S
Cd337 O341 2.439 . S
Cd337 O347 2.240 . S
Cd338 O339 2.240 . S
Cd338 O346 2.223 . S
Cd338 O348 2.297 1_556 S
Cd338 O349 2.439 1_556 S
O339 Cd338 2.240 . S
O339 C344 1.279 . S
O340 Cd337 2.297 . S
O340 C342 1.247 . S
O341 Cd337 2.439 . S
O341 C342 1.208 . S
C342 O340 1.247 . S
C342 O341 1.208 . S
C343 O348 1.247 . S
C343 O349 1.208 . S
C344 O336 1.315 . S
C344 O339 1.279 . S
C345 O346 1.315 . S
C345 O347 1.279 . S
O346 Cd338 2.223 . S
O346 C345 1.315 . S
O347 Cd337 2.240 . S
O347 C345 1.279 . S
O348 Cd338 2.297 1_554 S
O348 C343 1.247 . S
O349 Cd338 2.439 1_554 S
O349 C343 1.208 . S
O350 Cd351 2.223 . S
O350 C358 1.315 . S
Cd351 O350 2.223 . S
Cd351 O354 2.297 . S
Cd351 O355 2.439 . S
Cd351 O361 2.240 . S
Cd352 O353 2.240 . S
Cd352 O360 2.223 . S
Cd352 O362 2.297 1_556 S
Cd352 O363 2.439 1_556 S
O353 Cd352 2.240 . S
O353 C358 1.279 . S
O354 Cd351 2.297 . S
O354 C356 1.247 . S
O355 Cd351 2.439 . S
O355 C356 1.208 . S
C356 O354 1.247 . S
C356 O355 1.208 . S
C357 O362 1.247 . S
C357 O363 1.208 . S
C358 O350 1.315 . S
C358 O353 1.279 . S
C359 O360 1.315 . S
C359 O361 1.279 . S
O360 Cd352 2.223 . S
O360 C359 1.315 . S
O361 Cd351 2.240 . S
O361 C359 1.279 . S
O362 Cd352 2.297 1_554 S
O362 C357 1.247 . S
O363 Cd352 2.439 1_554 S
O363 C357 1.208 . S
O364 Cd365 2.223 . S
O364 C372 1.315 . S
Cd365 O364 2.223 . S
Cd365 O368 2.297 . S
Cd365 O369 2.439 . S
Cd365 O375 2.240 . S
Cd366 O367 2.240 . S
Cd366 O374 2.223 . S
Cd366 O376 2.297 1_556 S
Cd366 O377 2.439 1_556 S
O367 Cd366 2.240 . S
O367 C372 1.279 . S
O368 Cd365 2.297 . S
O368 C370 1.247 . S
O369 Cd365 2.439 . S
O369 C370 1.208 . S
C370 O368 1.247 . S
C370 O369 1.208 . S
C371 O376 1.247 . S
C371 O377 1.208 . S
C372 O364 1.315 . S
C372 O367 1.279 . S
C373 O374 1.315 . S
C373 O375 1.279 . S
O374 Cd366 2.223 . S
O374 C373 1.315 . S
O375 Cd365 2.240 . S
O375 C373 1.279 . S
O376 Cd366 2.297 1_554 S
O376 C371 1.247 . S
O377 Cd366 2.439 1_554 S
O377 C371 1.208 . S
O378 Cd379 2.223 1_554 S
O378 C386 1.315 . S
Cd379 O378 2.223 1_556 S
Cd379 O382 2.297 . S
Cd379 O383 2.439 . S
Cd379 O389 2.240 . S
Cd380 O381 2.240 . S
Cd380 O388 2.223 . S
Cd380 O390 2.297 . S
Cd380 O391 2.439 . S
O381 Cd380 2.240 . S
O381 C386 1.279 1_556 S
O382 Cd379 2.297 . S
O382 C384 1.247 . S
O383 Cd379 2.439 . S
O383 C384 1.208 . S
C384 O382 1.247 . S
C384 O383 1.208 . S
C385 O390 1.247 . S
C385 O391 1.208 . S
C386 O378 1.315 . S
C386 O381 1.279 1_554 S
C387 O388 1.315 . S
C387 O389 1.279 . S
O388 Cd380 2.223 . S
O388 C387 1.315 . S
O389 Cd379 2.240 . S
O389 C387 1.279 . S
O390 Cd380 2.297 . S
O390 C385 1.247 . S
O391 Cd380 2.439 . S
O391 C385 1.208 . S
O392 Cd393 2.223 1_554 S
O392 C400 1.315 . S
Cd393 O392 2.223 1_556 S
Cd393 O396 2.297 . S
Cd393 O397 2.439 . S
Cd393 O403 2.240 . S
Cd394 O395 2.240 . S
Cd394 O402 2.223 . S
Cd394 O404 2.297 . S
Cd394 O405 2.439 . S
O395 Cd394 2.240 . S
O395 C400 1.279 1_556 S
O396 Cd393 2.297 . S
O396 C398 1.247 . S
O397 Cd393 2.439 . S
O397 C398 1.208 . S
C398 O396 1.247 . S
C398 O397 1.208 . S
C399 O404 1.247 . S
C399 O405 1.208 . S
C400 O392 1.315 . S
C400 O395 1.279 1_554 S
C401 O402 1.315 . S
C401 O403 1.279 . S
O402 Cd394 2.223 . S
O402 C401 1.315 . S
O403 Cd393 2.240 . S
O403 C401 1.279 . S
O404 Cd394 2.297 . S
O404 C399 1.247 . S
O405 Cd394 2.439 . S
O405 C399 1.208 . S
O406 Cd407 2.223 1_554 S
O406 C414 1.315 . S
Cd407 O406 2.223 1_556 S
Cd407 O410 2.297 . S
Cd407 O411 2.439 . S
Cd407 O417 2.240 . S
Cd408 O409 2.240 . S
Cd408 O416 2.223 . S
Cd408 O418 2.297 . S
Cd408 O419 2.439 . S
O409 Cd408 2.240 . S
O409 C414 1.279 1_556 S
O410 Cd407 2.297 . S
O410 C412 1.247 . S
O411 Cd407 2.439 . S
O411 C412 1.208 . S
C412 O410 1.247 . S
C412 O411 1.208 . S
C413 O418 1.247 . S
C413 O419 1.208 . S
C414 O406 1.315 . S
C414 O409 1.279 1_554 S
C415 O416 1.315 . S
C415 O417 1.279 . S
O416 Cd408 2.223 . S
O416 C415 1.315 . S
O417 Cd407 2.240 . S
O417 C415 1.279 . S
O418 Cd408 2.297 . S
O418 C413 1.247 . S
O419 Cd408 2.439 . S
O419 C413 1.208 . S
O420 Cd421 2.223 . S
O420 C428 1.315 . S
Cd421 O420 2.223 . S
Cd421 O424 2.297 . S
Cd421 O425 2.439 . S
Cd421 O431 2.240 . S
Cd422 O423 2.240 . S
Cd422 O430 2.223 . S
Cd422 O432 2.297 . S
Cd422 O433 2.439 . S
O423 Cd422 2.240 . S
O423 C428 1.279 . S
O424 Cd421 2.297 . S
O424 C426 1.247 . S
O425 Cd421 2.439 . S
O425 C426 1.208 . S
C426 O424 1.247 . S
C426 O425 1.208 . S
C427 O432 1.247 . S
C427 O433 1.208 . S
C428 O420 1.315 . S
C428 O423 1.279 . S
C429 O430 1.315 . S
C429 O431 1.279 . S
O430 Cd422 2.223 . S
O430 C429 1.315 . S
O431 Cd421 2.240 . S
O431 C429 1.279 . S
O432 Cd422 2.297 . S
O432 C427 1.247 . S
O433 Cd422 2.439 . S
O433 C427 1.208 . S
O434 Cd435 2.223 . S
O434 C442 1.315 . S
Cd435 O434 2.223 . S
Cd435 O438 2.297 . S
Cd435 O439 2.439 . S
Cd435 O445 2.240 . S
Cd436 O437 2.240 . S
Cd436 O444 2.223 . S
Cd436 O446 2.297 . S
Cd436 O447 2.439 . S
O437 Cd436 2.240 . S
O437 C442 1.279 . S
O438 Cd435 2.297 . S
O438 C440 1.247 . S
O439 Cd435 2.439 . S
O439 C440 1.208 . S
C440 O438 1.247 . S
C440 O439 1.208 . S
C441 O446 1.247 . S
C441 O447 1.208 . S
C442 O434 1.315 . S
C442 O437 1.279 . S
C443 O444 1.315 . S
C443 O445 1.279 . S
O444 Cd436 2.223 . S
O444 C443 1.315 . S
O445 Cd435 2.240 . S
O445 C443 1.279 . S
O446 Cd436 2.297 . S
O446 C441 1.247 . S
O447 Cd436 2.439 . S
O447 C441 1.208 . S
O448 Cd449 2.223 . S
O448 C456 1.315 . S
Cd449 O448 2.223 . S
Cd449 O452 2.297 . S
Cd449 O453 2.439 . S
Cd449 O459 2.240 . S
Cd450 O451 2.240 . S
Cd450 O458 2.223 . S
Cd450 O460 2.297 . S
Cd450 O461 2.439 . S
O451 Cd450 2.240 . S
O451 C456 1.279 . S
O452 Cd449 2.297 . S
O452 C454 1.247 . S
O453 Cd449 2.439 . S
O453 C454 1.208 . S
C454 O452 1.247 . S
C454 O453 1.208 . S
C455 O460 1.247 . S
C455 O461 1.208 . S
C456 O448 1.315 . S
C456 O451 1.279 . S
C457 O458 1.315 . S
C457 O459 1.279 . S
O458 Cd450 2.223 . S
O458 C457 1.315 . S
O459 Cd449 2.240 . S
O459 C457 1.279 . S
O460 Cd450 2.297 . S
O460 C455 1.247 . S
O461 Cd450 2.439 . S
O461 C455 1.208 . S
O462 Cd463 2.223 . S
O462 C470 1.315 . S
Cd463 O462 2.223 . S
Cd463 O466 2.297 . S
Cd463 O467 2.439 . S
Cd463 O473 2.240 . S
Cd464 O465 2.240 . S
Cd464 O472 2.223 . S
Cd464 O474 2.297 . S
Cd464 O475 2.439 . S
O465 Cd464 2.240 . S
O465 C470 1.279 . S
O466 Cd463 2.297 . S
O466 C468 1.247 . S
O467 Cd463 2.439 . S
O467 C468 1.208 . S
C468 O466 1.247 . S
C468 O467 1.208 . S
C469 O474 1.247 . S
C469 O475 1.208 . S
C470 O462 1.315 . S
C470 O465 1.279 . S
C471 O472 1.315 . S
C471 O473 1.279 . S
O472 Cd464 2.223 . S
O472 C471 1.315 . S
O473 Cd463 2.240 . S
O473 C471 1.279 . S
O474 Cd464 2.297 . S
O474 C469 1.247 . S
O475 Cd464 2.439 . S
O475 C469 1.208 . S
O476 Cd477 2.223 . S
O476 C484 1.315 . S
Cd477 O476 2.223 . S
Cd477 O480 2.297 . S
Cd477 O481 2.439 . S
Cd477 O487 2.240 . S
Cd478 O479 2.240 . S
Cd478 O486 2.223 . S
Cd478 O488 2.297 . S
Cd478 O489 2.439 . S
O479 Cd478 2.240 . S
O479 C484 1.279 . S
O480 Cd477 2.297 . S
O480 C482 1.247 . S
O481 Cd477 2.439 . S
O481 C482 1.208 . S
C482 O480 1.247 . S
C482 O481 1.208 . S
C483 O488 1.247 . S
C483 O489 1.208 . S
C484 O476 1.315 . S
C484 O479 1.279 . S
C485 O486 1.315 . S
C485 O487 1.279 . S
O486 Cd478 2.223 . S
O486 C485 1.315 . S
O487 Cd477 2.240 . S
O487 C485 1.279 . S
O488 Cd478 2.297 . S
O488 C483 1.247 . S
O489 Cd478 2.439 . S
O489 C483 1.208 . S
O490 Cd491 2.223 . S
O490 C498 1.315 . S
Cd491 O490 2.223 . S
Cd491 O494 2.297 . S
Cd491 O495 2.439 . S
Cd491 O501 2.240 . S
Cd492 O493 2.240 . S
Cd492 O500 2.223 . S
Cd492 O502 2.297 . S
Cd492 O503 2.439 . S
O493 Cd492 2.240 . S
O493 C498 1.279 . S
O494 Cd491 2.297 . S
O494 C496 1.247 . S
O495 Cd491 2.439 . S
O495 C496 1.208 . S
C496 O494 1.247 . S
C496 O495 1.208 . S
C497 O502 1.247 . S
C497 O503 1.208 . S
C498 O490 1.315 . S
C498 O493 1.279 . S
C499 O500 1.315 . S
C499 O501 1.279 . S
O500 Cd492 2.223 . S
O500 C499 1.315 . S
O501 Cd491 2.240 . S
O501 C499 1.279 . S
O502 Cd492 2.297 . S
O502 C497 1.247 . S
O503 Cd492 2.439 . S
O503 C497 1.208 . S
C504 C505 1.387 . S
C504 H508 0.950 . S
C504 C513 1.390 1_556 S
C505 C504 1.387 . S
C505 C507 1.387 . S
H506 C513 0.950 . S
C507 C505 1.387 . S
C507 C509 1.390 1_556 S
C507 H511 0.950 . S
H508 C504 0.950 . S
C509 C507 1.390 1_554 S
C509 C510 1.387 . S
C509 H512 0.950 . S
C510 C509 1.387 . S
C510 C513 1.387 . S
H511 C507 0.950 . S
H512 C509 0.950 . S
C513 C504 1.390 1_554 S
C513 H506 0.950 . S
C513 C510 1.387 . S
C514 C515 1.387 . S
C514 H518 0.950 . S
C514 C523 1.390 1_556 S
C515 C514 1.387 . S
C515 C517 1.387 . S
H516 C523 0.950 . S
C517 C515 1.387 . S
C517 C519 1.390 1_556 S
C517 H521 0.950 . S
H518 C514 0.950 . S
C519 C517 1.390 1_554 S
C519 C520 1.387 . S
C519 H522 0.950 . S
C520 C519 1.387 . S
C520 C523 1.387 . S
H521 C517 0.950 . S
H522 C519 0.950 . S
C523 C514 1.390 1_554 S
C523 H516 0.950 . S
C523 C520 1.387 . S
C524 C525 1.387 . S
C524 H528 0.950 . S
C524 C533 1.390 1_554 S
C525 C524 1.387 . S
C525 C527 1.387 . S
H526 C533 0.950 . S
C527 C525 1.387 . S
C527 C529 1.390 1_554 S
C527 H531 0.950 . S
H528 C524 0.950 . S
C529 C527 1.390 1_556 S
C529 C530 1.387 . S
C529 H532 0.950 . S
C530 C529 1.387 . S
C530 C533 1.387 . S
H531 C527 0.950 . S
H532 C529 0.950 . S
C533 C524 1.390 1_556 S
C533 H526 0.950 . S
C533 C530 1.387 . S
C534 C535 1.387 . S
C534 H538 0.950 . S
C534 C543 1.390 . S
C535 C534 1.387 . S
C535 C537 1.387 . S
H536 C543 0.950 . S
C537 C535 1.387 . S
C537 C539 1.390 . S
C537 H541 0.950 . S
H538 C534 0.950 . S
C539 C537 1.390 . S
C539 C540 1.387 . S
C539 H542 0.950 . S
C540 C539 1.387 . S
C540 C543 1.387 . S
H541 C537 0.950 . S
H542 C539 0.950 . S
C543 C534 1.390 . S
C543 H536 0.950 . S
C543 C540 1.387 . S
C544 C545 1.387 . S
C544 H548 0.950 . S
C544 C553 1.390 . S
C545 C544 1.387 . S
C545 C547 1.387 . S
H546 C553 0.950 . S
C547 C545 1.387 . S
C547 C549 1.390 . S
C547 H551 0.950 . S
H548 C544 0.950 . S
C549 C547 1.390 . S
C549 C550 1.387 . S
C549 H552 0.950 . S
C550 C549 1.387 . S
C550 C553 1.387 . S
H551 C547 0.950 . S
H552 C549 0.950 . S
C553 C544 1.390 . S
C553 H546 0.950 . S
C553 C550 1.387 . S
C554 C555 1.387 . S
C554 H558 0.950 . S
C554 C563 1.390 . S
C555 C554 1.387 . S
C555 C557 1.387 . S
H556 C563 0.950 . S
C557 C555 1.387 . S
C557 C559 1.390 . S
C557 H561 0.950 . S
H558 C554 0.950 . S
C559 C557 1.390 . S
C559 C560 1.387 . S
C559 H562 0.950 . S
C560 C559 1.387 . S
C560 C563 1.387 . S
H561 C557 0.950 . S
H562 C559 0.950 . S
C563 C554 1.390 . S
C563 H556 0.950 . S
C563 C560 1.387 . S
C564 C565 1.387 . S
C564 H568 0.950 . S
C564 C573 1.390 1_554 S
C565 C564 1.387 . S
C565 C567 1.387 . S
H566 C573 0.950 . S
C567 C565 1.387 . S
C567 C569 1.390 1_554 S
C567 H571 0.950 . S
H568 C564 0.950 . S
C569 C567 1.390 1_556 S
C569 C570 1.387 . S
C569 H572 0.950 . S
C570 C569 1.387 . S
C570 C573 1.387 . S
H571 C567 0.950 . S
H572 C569 0.950 . S
C573 C564 1.390 1_556 S
C573 H566 0.950 . S
C573 C570 1.387 . S
C574 C575 1.387 . S
C574 H578 0.950 . S
C574 C583 1.390 1_554 S
C575 C574 1.387 . S
C575 C577 1.387 . S
H576 C583 0.950 . S
C577 C575 1.387 . S
C577 C579 1.390 1_554 S
C577 H581 0.950 . S
H578 C574 0.950 . S
C579 C577 1.390 1_556 S
C579 C580 1.387 . S
C579 H582 0.950 . S
C580 C579 1.387 . S
C580 C583 1.387 . S
H581 C577 0.950 . S
H582 C579 0.950 . S
C583 C574 1.390 1_556 S
C583 H576 0.950 . S
C583 C580 1.387 . S
C584 C585 1.387 . S
C584 H588 0.950 . S
C584 C593 1.390 1_556 S
C585 C584 1.387 . S
C585 C587 1.387 . S
H586 C593 0.950 . S
C587 C585 1.387 . S
C587 C589 1.390 1_556 S
C587 H591 0.950 . S
H588 C584 0.950 . S
C589 C587 1.390 1_554 S
C589 C590 1.387 . S
C589 H592 0.950 . S
C590 C589 1.387 . S
C590 C593 1.387 . S
H591 C587 0.950 . S
H592 C589 0.950 . S
C593 C584 1.390 1_554 S
C593 H586 0.950 . S
C593 C590 1.387 . S
C594 C595 1.387 . S
C594 H598 0.950 . S
C594 C603 1.390 . S
C595 C594 1.387 . S
C595 C597 1.387 . S
H596 C603 0.950 . S
C597 C595 1.387 . S
C597 C599 1.390 . S
C597 H601 0.950 . S
H598 C594 0.950 . S
C599 C597 1.390 . S
C599 C600 1.387 . S
C599 H602 0.950 . S
C600 C599 1.387 . S
C600 C603 1.387 . S
H601 C597 0.950 . S
H602 C599 0.950 . S
C603 C594 1.390 . S
C603 H596 0.950 . S
C603 C600 1.387 . S
C604 C605 1.387 . S
C604 H608 0.950 . S
C604 C613 1.390 . S
C605 C604 1.387 . S
C605 C607 1.387 . S
H606 C613 0.950 . S
C607 C605 1.387 . S
C607 C609 1.390 . S
C607 H611 0.950 . S
H608 C604 0.950 . S
C609 C607 1.390 . S
C609 C610 1.387 . S
C609 H612 0.950 . S
C610 C609 1.387 . S
C610 C613 1.387 . S
H611 C607 0.950 . S
H612 C609 0.950 . S
C613 C604 1.390 . S
C613 H606 0.950 . S
C613 C610 1.387 . S
C614 C615 1.387 . S
C614 H618 0.950 . S
C614 C623 1.390 . S
C615 C614 1.387 . S
C615 C617 1.387 . S
H616 C623 0.950 . S
C617 C615 1.387 . S
C617 C619 1.390 . S
C617 H621 0.950 . S
H618 C614 0.950 . S
C619 C617 1.390 . S
C619 C620 1.387 . S
C619 H622 0.950 . S
C620 C619 1.387 . S
C620 C623 1.387 . S
H621 C617 0.950 . S
H622 C619 0.950 . S
C623 C614 1.390 . S
C623 H616 0.950 . S
C623 C620 1.387 . S
C624 C625 1.387 . S
C624 H628 0.950 . S
C624 C633 1.390 . S
C625 C624 1.387 . S
C625 C627 1.387 . S
H626 C633 0.950 . S
C627 C625 1.387 . S
C627 C629 1.390 . S
C627 H631 0.950 . S
H628 C624 0.950 . S
C629 C627 1.390 . S
C629 C630 1.387 . S
C629 H632 0.950 . S
C630 C629 1.387 . S
C630 C633 1.387 . S
H631 C627 0.950 . S
H632 C629 0.950 . S
C633 C624 1.390 . S
C633 H626 0.950 . S
C633 C630 1.387 . S
C634 C635 1.387 . S
C634 H638 0.950 . S
C634 C643 1.390 . S
C635 C634 1.387 . S
C635 C637 1.387 . S
H636 C643 0.950 . S
C637 C635 1.387 . S
C637 C639 1.390 . S
C637 H641 0.950 . S
H638 C634 0.950 . S
C639 C637 1.390 . S
C639 C640 1.387 . S
C639 H642 0.950 . S
C640 C639 1.387 . S
C640 C643 1.387 . S
H641 C637 0.950 . S
H642 C639 0.950 . S
C643 C634 1.390 . S
C643 H636 0.950 . S
C643 C640 1.387 . S
C644 C645 1.387 . S
C644 H648 0.950 . S
C644 C653 1.390 . S
C645 C644 1.387 . S
C645 C647 1.387 . S
H646 C653 0.950 . S
C647 C645 1.387 . S
C647 C649 1.390 . S
C647 H651 0.950 . S
H648 C644 0.950 . S
C649 C647 1.390 . S
C649 C650 1.387 . S
C649 H652 0.950 . S
C650 C649 1.387 . S
C650 C653 1.387 . S
H651 C647 0.950 . S
H652 C649 0.950 . S
C653 C644 1.390 . S
C653 H646 0.950 . S
C653 C650 1.387 . S
C654 C655 1.387 . S
C654 H658 0.950 . S
C654 C663 1.390 . S
C655 C654 1.387 . S
C655 C657 1.387 . S
H656 C663 0.950 . S
C657 C655 1.387 . S
C657 C659 1.390 . S
C657 H661 0.950 . S
H658 C654 0.950 . S
C659 C657 1.390 . S
C659 C660 1.387 . S
C659 H662 0.950 . S
C660 C659 1.387 . S
C660 C663 1.387 . S
H661 C657 0.950 . S
H662 C659 0.950 . S
C663 C654 1.390 . S
C663 H656 0.950 . S
C663 C660 1.387 . S
C664 C665 1.387 . S
C664 H668 0.950 . S
C664 C673 1.390 . S
C665 C664 1.387 . S
C665 C667 1.387 . S
H666 C673 0.950 . S
C667 C665 1.387 . S
C667 C669 1.390 . S
C667 H671 0.950 . S
H668 C664 0.950 . S
C669 C667 1.390 . S
C669 C670 1.387 . S
C669 H672 0.950 . S
C670 C669 1.387 . S
C670 C673 1.387 . S
H671 C667 0.950 . S
H672 C669 0.950 . S
C673 C664 1.390 . S
C673 H666 0.950 . S
C673 C670 1.387 . S
C674 C675 1.387 . S
C674 H678 0.950 . S
C674 C683 1.390 . S
C675 C674 1.387 . S
C675 C677 1.387 . S
H676 C683 0.950 . S
C677 C675 1.387 . S
C677 C679 1.390 . S
C677 H681 0.950 . S
H678 C674 0.950 . S
C679 C677 1.390 . S
C679 C680 1.387 . S
C679 H682 0.950 . S
C680 C679 1.387 . S
C680 C683 1.387 . S
H681 C677 0.950 . S
H682 C679 0.950 . S
C683 C674 1.390 . S
C683 H676 0.950 . S
C683 C680 1.387 . S
C684 C685 1.387 . S
C684 H688 0.950 . S
C684 C693 1.390 . S
C685 C684 1.387 . S
C685 C687 1.387 . S
H686 C693 0.950 . S
C687 C685 1.387 . S
C687 C689 1.390 . S
C687 H691 0.950 . S
H688 C684 0.950 . S
C689 C687 1.390 . S
C689 C690 1.387 . S
C689 H692 0.950 . S
C690 C689 1.387 . S
C690 C693 1.387 . S
H691 C687 0.950 . S
H692 C689 0.950 . S
C693 C684 1.390 . S
C693 H686 0.950 . S
C693 C690 1.387 . S
C694 C695 1.387 . S
C694 H698 0.950 . S
C694 C703 1.390 . S
C695 C694 1.387 . S
C695 C697 1.387 . S
H696 C703 0.950 . S
C697 C695 1.387 . S
C697 C699 1.390 . S
C697 H701 0.950 . S
H698 C694 0.950 . S
C699 C697 1.390 . S
C699 C700 1.387 . S
C699 H702 0.950 . S
C700 C699 1.387 . S
C700 C703 1.387 . S
H701 C697 0.950 . S
H702 C699 0.950 . S
C703 C694 1.390 . S
C703 H696 0.950 . S
C703 C700 1.387 . S
C704 C705 1.387 . S
C704 H708 0.950 . S
C704 C713 1.390 . S
C705 C704 1.387 . S
C705 C707 1.387 . S
H706 C713 0.950 . S
C707 C705 1.387 . S
C707 C709 1.390 . S
C707 H711 0.950 . S
H708 C704 0.950 . S
C709 C707 1.390 . S
C709 C710 1.387 . S
C709 H712 0.950 . S
C710 C709 1.387 . S
C710 C713 1.387 . S
H711 C707 0.950 . S
H712 C709 0.950 . S
C713 C704 1.390 . S
C713 H706 0.950 . S
C713 C710 1.387 . S
C714 C715 1.387 . S
C714 H718 0.950 . S
C714 C723 1.390 . S
C715 C714 1.387 . S
C715 C717 1.387 . S
H716 C723 0.950 . S
C717 C715 1.387 . S
C717 C719 1.390 . S
C717 H721 0.950 . S
H718 C714 0.950 . S
C719 C717 1.390 . S
C719 C720 1.387 . S
C719 H722 0.950 . S
C720 C719 1.387 . S
C720 C723 1.387 . S
H721 C717 0.950 . S
H722 C719 0.950 . S
C723 C714 1.390 . S
C723 H716 0.950 . S
C723 C720 1.387 . S
C724 C725 1.387 . S
C724 H728 0.950 . S
C724 C733 1.390 . S
C725 C724 1.387 . S
C725 C727 1.387 . S
H726 C733 0.950 . S
C727 C725 1.387 . S
C727 C729 1.390 . S
C727 H731 0.950 . S
H728 C724 0.950 . S
C729 C727 1.390 . S
C729 C730 1.387 . S
C729 H732 0.950 . S
C730 C729 1.387 . S
C730 C733 1.387 . S
H731 C727 0.950 . S
H732 C729 0.950 . S
C733 C724 1.390 . S
C733 H726 0.950 . S
C733 C730 1.387 . S
C734 C735 1.387 . S
C734 H738 0.950 . S
C734 C743 1.390 . S
C735 C734 1.387 . S
C735 C737 1.387 . S
H736 C743 0.950 . S
C737 C735 1.387 . S
C737 C739 1.390 . S
C737 H741 0.950 . S
H738 C734 0.950 . S
C739 C737 1.390 . S
C739 C740 1.387 . S
C739 H742 0.950 . S
C740 C739 1.387 . S
C740 C743 1.387 . S
H741 C737 0.950 . S
H742 C739 0.950 . S
C743 C734 1.390 . S
C743 H736 0.950 . S
C743 C740 1.387 . S
C744 C745 1.387 . S
C744 H748 0.950 . S
C744 C753 1.390 . S
C745 C744 1.387 . S
C745 C747 1.387 . S
H746 C753 0.950 . S
C747 C745 1.387 . S
C747 C749 1.390 . S
C747 H751 0.950 . S
H748 C744 0.950 . S
C749 C747 1.390 . S
C749 C750 1.387 . S
C749 H752 0.950 . S
C750 C749 1.387 . S
C750 C753 1.387 . S
H751 C747 0.950 . S
H752 C749 0.950 . S
C753 C744 1.390 . S
C753 H746 0.950 . S
C753 C750 1.387 . S
C754 C755 1.387 . S
C754 H758 0.950 . S
C754 C763 1.390 . S
C755 C754 1.387 . S
C755 C757 1.387 . S
H756 C763 0.950 . S
C757 C755 1.387 . S
C757 C759 1.390 . S
C757 H761 0.950 . S
H758 C754 0.950 . S
C759 C757 1.390 . S
C759 C760 1.387 . S
C759 H762 0.950 . S
C760 C759 1.387 . S
C760 C763 1.387 . S
H761 C757 0.950 . S
H762 C759 0.950 . S
C763 C754 1.390 . S
C763 H756 0.950 . S
C763 C760 1.387 . S
C764 C765 1.387 . S
C764 H768 0.950 . S
C764 C773 1.390 . S
C765 C764 1.387 . S
C765 C767 1.387 . S
H766 C773 0.950 . S
C767 C765 1.387 . S
C767 C769 1.390 . S
C767 H771 0.950 . S
H768 C764 0.950 . S
C769 C767 1.390 . S
C769 C770 1.387 . S
C769 H772 0.950 . S
C770 C769 1.387 . S
C770 C773 1.387 . S
H771 C767 0.950 . S
H772 C769 0.950 . S
C773 C764 1.390 . S
C773 H766 0.950 . S
C773 C770 1.387 . S
C774 C775 1.387 . S
C774 H778 0.950 . S
C774 C783 1.390 . S
C775 C774 1.387 . S
C775 C777 1.387 . S
H776 C783 0.950 . S
C777 C775 1.387 . S
C777 C779 1.390 . S
C777 H781 0.950 . S
H778 C774 0.950 . S
C779 C777 1.390 . S
C779 C780 1.387 . S
C779 H782 0.950 . S
C780 C779 1.387 . S
C780 C783 1.387 . S
H781 C777 0.950 . S
H782 C779 0.950 . S
C783 C774 1.390 . S
C783 H776 0.950 . S
C783 C780 1.387 . S
C784 C785 1.387 . S
C784 H788 0.950 . S
C784 C793 1.390 . S
C785 C784 1.387 . S
C785 C787 1.387 . S
H786 C793 0.950 . S
C787 C785 1.387 . S
C787 C789 1.390 . S
C787 H791 0.950 . S
H788 C784 0.950 . S
C789 C787 1.390 . S
C789 C790 1.387 . S
C789 H792 0.950 . S
C790 C789 1.387 . S
C790 C793 1.387 . S
H791 C787 0.950 . S
H792 C789 0.950 . S
C793 C784 1.390 . S
C793 H786 0.950 . S
C793 C790 1.387 . S
C794 C795 1.387 . S
C794 H798 0.950 . S
C794 C803 1.390 . S
C795 C794 1.387 . S
C795 C797 1.387 . S
H796 C803 0.950 . S
C797 C795 1.387 . S
C797 C799 1.390 . S
C797 H801 0.950 . S
H798 C794 0.950 . S
C799 C797 1.390 . S
C799 C800 1.387 . S
C799 H802 0.950 . S
C800 C799 1.387 . S
C800 C803 1.387 . S
H801 C797 0.950 . S
H802 C799 0.950 . S
C803 C794 1.390 . S
C803 H796 0.950 . S
C803 C800 1.387 . S
C804 C805 1.387 . S
C804 H808 0.950 . S
C804 C813 1.390 . S
C805 C804 1.387 . S
C805 C807 1.387 . S
H806 C813 0.950 . S
C807 C805 1.387 . S
C807 C809 1.390 . S
C807 H811 0.950 . S
H808 C804 0.950 . S
C809 C807 1.390 . S
C809 C810 1.387 . S
C809 H812 0.950 . S
C810 C809 1.387 . S
C810 C813 1.387 . S
H811 C807 0.950 . S
H812 C809 0.950 . S
C813 C804 1.390 . S
C813 H806 0.950 . S
C813 C810 1.387 . S
C814 C815 1.387 . S
C814 H818 0.950 . S
C814 C823 1.390 . S
C815 C814 1.387 . S
C815 C817 1.387 . S
H816 C823 0.950 . S
C817 C815 1.387 . S
C817 C819 1.390 . S
C817 H821 0.950 . S
H818 C814 0.950 . S
C819 C817 1.390 . S
C819 C820 1.387 . S
C819 H822 0.950 . S
C820 C819 1.387 . S
C820 C823 1.387 . S
H821 C817 0.950 . S
H822 C819 0.950 . S
C823 C814 1.390 . S
C823 H816 0.950 . S
C823 C820 1.387 . S
C824 C825 1.387 . S
C824 H828 0.950 . S
C824 C833 1.390 . S
C825 C824 1.387 . S
C825 C827 1.387 . S
H826 C833 0.950 . S
C827 C825 1.387 . S
C827 C829 1.390 . S
C827 H831 0.950 . S
H828 C824 0.950 . S
C829 C827 1.390 . S
C829 C830 1.387 . S
C829 H832 0.950 . S
C830 C829 1.387 . S
C830 C833 1.387 . S
H831 C827 0.950 . S
H832 C829 0.950 . S
C833 C824 1.390 . S
C833 H826 0.950 . S
C833 C830 1.387 . S
C834 C835 1.387 . S
C834 H838 0.950 . S
C834 C843 1.390 . S
C835 C834 1.387 . S
C835 C837 1.387 . S
H836 C843 0.950 . S
C837 C835 1.387 . S
C837 C839 1.390 . S
C837 H841 0.950 . S
H838 C834 0.950 . S
C839 C837 1.390 . S
C839 C840 1.387 . S
C839 H842 0.950 . S
C840 C839 1.387 . S
C840 C843 1.387 . S
H841 C837 0.950 . S
H842 C839 0.950 . S
C843 C834 1.390 . S
C843 H836 0.950 . S
C843 C840 1.387 . S
C844 C845 1.387 . S
C844 H848 0.950 . S
C844 C853 1.390 . S
C845 C844 1.387 . S
C845 C847 1.387 . S
H846 C853 0.950 . S
C847 C845 1.387 . S
C847 C849 1.390 . S
C847 H851 0.950 . S
H848 C844 0.950 . S
C849 C847 1.390 . S
C849 C850 1.387 . S
C849 H852 0.950 . S
C850 C849 1.387 . S
C850 C853 1.387 . S
H851 C847 0.950 . S
H852 C849 0.950 . S
C853 C844 1.390 . S
C853 H846 0.950 . S
C853 C850 1.387 . S
C854 C855 1.387 . S
C854 H858 0.950 . S
C854 C863 1.390 . S
C855 C854 1.387 . S
C855 C857 1.387 . S
H856 C863 0.950 . S
C857 C855 1.387 . S
C857 C859 1.390 . S
C857 H861 0.950 . S
H858 C854 0.950 . S
C859 C857 1.390 . S
C859 C860 1.387 . S
C859 H862 0.950 . S
C860 C859 1.387 . S
C860 C863 1.387 . S
H861 C857 0.950 . S
H862 C859 0.950 . S
C863 C854 1.390 . S
C863 H856 0.950 . S
C863 C860 1.387 . S
C864 C865 1.387 . S
C864 H868 0.950 . S
C864 C873 1.390 . S
C865 C864 1.387 . S
C865 C867 1.387 . S
H866 C873 0.950 . S
C867 C865 1.387 . S
C867 C869 1.390 . S
C867 H871 0.950 . S
H868 C864 0.950 . S
C869 C867 1.390 . S
C869 C870 1.387 . S
C869 H872 0.950 . S
C870 C869 1.387 . S
C870 C873 1.387 . S
H871 C867 0.950 . S
H872 C869 0.950 . S
C873 C864 1.390 . S
C873 H866 0.950 . S
C873 C870 1.387 . S
C874 C875 1.387 . S
C874 H878 0.950 . S
C874 C883 1.390 1_565 S
C875 C874 1.387 . S
C875 C877 1.387 . S
H876 C883 0.950 . S
C877 C875 1.387 . S
C877 C879 1.390 1_565 S
C877 H881 0.950 . S
H878 C874 0.950 . S
C879 C877 1.390 1_545 S
C879 C880 1.387 . S
C879 H882 0.950 . S
C880 C879 1.387 . S
C880 C883 1.387 . S
H881 C877 0.950 . S
H882 C879 0.950 . S
C883 C874 1.390 1_545 S
C883 H876 0.950 . S
C883 C880 1.387 . S
C884 C885 1.387 . S
C884 H888 0.950 . S
C884 C893 1.390 1_655 S
C885 C884 1.387 . S
C885 C887 1.387 . S
H886 C893 0.950 . S
C887 C885 1.387 . S
C887 C889 1.390 1_655 S
C887 H891 0.950 . S
H888 C884 0.950 . S
C889 C887 1.390 1_455 S
C889 C890 1.387 . S
C889 H892 0.950 . S
C890 C889 1.387 . S
C890 C893 1.387 . S
H891 C887 0.950 . S
H892 C889 0.950 . S
C893 C884 1.390 1_455 S
C893 H886 0.950 . S
C893 C890 1.387 . S
C894 C895 1.387 . S
C894 H898 0.950 . S
C894 C903 1.390 . S
C895 C894 1.387 . S
C895 C897 1.387 . S
H896 C903 0.950 . S
C897 C895 1.387 . S
C897 C899 1.390 . S
C897 H901 0.950 . S
H898 C894 0.950 . S
C899 C897 1.390 . S
C899 C900 1.387 . S
C899 H902 0.950 . S
C900 C899 1.387 . S
C900 C903 1.387 . S
H901 C897 0.950 . S
H902 C899 0.950 . S
C903 C894 1.390 . S
C903 H896 0.950 . S
C903 C900 1.387 . S
C904 C905 1.387 . S
C904 H908 0.950 . S
C904 C913 1.390 1_545 S
C905 C904 1.387 . S
C905 C907 1.387 . S
H906 C913 0.950 . S
C907 C905 1.387 . S
C907 C909 1.390 1_545 S
C907 H911 0.950 . S
H908 C904 0.950 . S
C909 C907 1.390 1_565 S
C909 C910 1.387 . S
C909 H912 0.950 . S
C910 C909 1.387 . S
C910 C913 1.387 . S
H911 C907 0.950 . S
H912 C909 0.950 . S
C913 C904 1.390 1_565 S
C913 H906 0.950 . S
C913 C910 1.387 . S
C914 C915 1.387 . S
C914 H918 0.950 . S
C914 C923 1.390 1_655 S
C915 C914 1.387 . S
C915 C917 1.387 . S
H916 C923 0.950 . S
C917 C915 1.387 . S
C917 C919 1.390 1_655 S
C917 H921 0.950 . S
H918 C914 0.950 . S
C919 C917 1.390 1_455 S
C919 C920 1.387 . S
C919 H922 0.950 . S
C920 C919 1.387 . S
C920 C923 1.387 . S
H921 C917 0.950 . S
H922 C919 0.950 . S
C923 C914 1.390 1_455 S
C923 H916 0.950 . S
C923 C920 1.387 . S
C924 C925 1.387 . S
C924 H928 0.950 . S
C924 C933 1.390 . S
C925 C924 1.387 . S
C925 C927 1.387 . S
H926 C933 0.950 . S
C927 C925 1.387 . S
C927 C929 1.390 . S
C927 H931 0.950 . S
H928 C924 0.950 . S
C929 C927 1.390 . S
C929 C930 1.387 . S
C929 H932 0.950 . S
C930 C929 1.387 . S
C930 C933 1.387 . S
H931 C927 0.950 . S
H932 C929 0.950 . S
C933 C924 1.390 . S
C933 H926 0.950 . S
C933 C930 1.387 . S
C934 C935 1.387 . S
C934 H938 0.950 . S
C934 C943 1.390 . S
C935 C934 1.387 . S
C935 C937 1.387 . S
H936 C943 0.950 . S
C937 C935 1.387 . S
C937 C939 1.390 . S
C937 H941 0.950 . S
H938 C934 0.950 . S
C939 C937 1.390 . S
C939 C940 1.387 . S
C939 H942 0.950 . S
C940 C939 1.387 . S
C940 C943 1.387 . S
H941 C937 0.950 . S
H942 C939 0.950 . S
C943 C934 1.390 . S
C943 H936 0.950 . S
C943 C940 1.387 . S
C944 C945 1.387 . S
C944 H948 0.950 . S
C944 C953 1.390 . S
C945 C944 1.387 . S
C945 C947 1.387 . S
H946 C953 0.950 . S
C947 C945 1.387 . S
C947 C949 1.390 . S
C947 H951 0.950 . S
H948 C944 0.950 . S
C949 C947 1.390 . S
C949 C950 1.387 . S
C949 H952 0.950 . S
C950 C949 1.387 . S
C950 C953 1.387 . S
H951 C947 0.950 . S
H952 C949 0.950 . S
C953 C944 1.390 . S
C953 H946 0.950 . S
C953 C950 1.387 . S
C954 C955 1.387 . S
C954 H958 0.950 . S
C954 C963 1.390 . S
C955 C954 1.387 . S
C955 C957 1.387 . S
H956 C963 0.950 1_556 S
C957 C955 1.387 . S
C957 C959 1.390 . S
C957 H961 0.950 . S
H958 C954 0.950 . S
C959 C957 1.390 . S
C959 C960 1.387 . S
C959 H962 0.950 . S
C960 C959 1.387 . S
C960 C963 1.387 . S
H961 C957 0.950 . S
H962 C959 0.950 . S
C963 C954 1.390 . S
C963 H956 0.950 1_554 S
C963 C960 1.387 . S
C964 C965 1.387 . S
C964 H968 0.950 . S
C964 C973 1.390 . S
C965 C964 1.387 . S
C965 C967 1.387 . S
H966 C973 0.950 . S
C967 C965 1.387 . S
C967 C969 1.390 . S
C967 H971 0.950 . S
H968 C964 0.950 . S
C969 C967 1.390 . S
C969 C970 1.387 . S
C969 H972 0.950 . S
C970 C969 1.387 . S
C970 C973 1.387 . S
H971 C967 0.950 . S
H972 C969 0.950 . S
C973 C964 1.390 . S
C973 H966 0.950 . S
C973 C970 1.387 . S
C974 C975 1.387 . S
C974 H978 0.950 . S
C974 C983 1.390 . S
C975 C974 1.387 . S
C975 C977 1.387 . S
H976 C983 0.950 . S
C977 C975 1.387 . S
C977 C979 1.390 . S
C977 H981 0.950 . S
H978 C974 0.950 . S
C979 C977 1.390 . S
C979 C980 1.387 . S
C979 H982 0.950 1_554 S
C980 C979 1.387 . S
C980 C983 1.387 . S
H981 C977 0.950 . S
H982 C979 0.950 1_556 S
C983 C974 1.390 . S
C983 H976 0.950 . S
C983 C980 1.387 . S
C984 C985 1.387 . S
C984 H988 0.950 1_556 S
C984 C993 1.390 . S
C985 C984 1.387 . S
C985 C987 1.387 . S
H986 C993 0.950 . S
C987 C985 1.387 . S
C987 C989 1.390 . S
C987 H991 0.950 . S
H988 C984 0.950 1_554 S
C989 C987 1.390 . S
C989 C990 1.387 . S
C989 H992 0.950 . S
C990 C989 1.387 . S
C990 C993 1.387 . S
H991 C987 0.950 . S
H992 C989 0.950 . S
C993 C984 1.390 . S
C993 H986 0.950 . S
C993 C990 1.387 . S
C994 C995 1.387 . S
C994 H998 0.950 . S
C994 C1003 1.390 . S
C995 C994 1.387 . S
C995 C997 1.387 . S
H996 C1003 0.950 . S
C997 C995 1.387 . S
C997 C999 1.390 . S
C997 H1001 0.950 . S
H998 C994 0.950 . S
C999 C997 1.390 . S
C999 C1000 1.387 . S
C999 H1002 0.950 . S
C1000 C999 1.387 . S
C1000 C1003 1.387 . S
H1001 C997 0.950 . S
H1002 C999 0.950 . S
C1003 C994 1.390 . S
C1003 H996 0.950 . S
C1003 C1000 1.387 . S
C1004 C1005 1.387 . S
C1004 H1008 0.950 . S
C1004 C1013 1.390 . S
C1005 C1004 1.387 . S
C1005 C1007 1.387 . S
H1006 C1013 0.950 . S
C1007 C1005 1.387 . S
C1007 C1009 1.390 . S
C1007 H1011 0.950 . S
H1008 C1004 0.950 . S
C1009 C1007 1.390 . S
C1009 C1010 1.387 . S
C1009 H1012 0.950 . S
C1010 C1009 1.387 . S
C1010 C1013 1.387 . S
H1011 C1007 0.950 . S
H1012 C1009 0.950 . S
C1013 C1004 1.390 . S
C1013 H1006 0.950 . S
C1013 C1010 1.387 . S
C1014 C1015 1.387 . S
C1014 H1018 0.950 . S
C1014 C1023 1.390 . S
C1015 C1014 1.387 . S
C1015 C1017 1.387 . S
H1016 C1023 0.950 . S
C1017 C1015 1.387 . S
C1017 C1019 1.390 . S
C1017 H1021 0.950 . S
H1018 C1014 0.950 . S
C1019 C1017 1.390 . S
C1019 C1020 1.387 . S
C1019 H1022 0.950 . S
C1020 C1019 1.387 . S
C1020 C1023 1.387 . S
H1021 C1017 0.950 . S
H1022 C1019 0.950 . S
C1023 C1014 1.390 . S
C1023 H1016 0.950 . S
C1023 C1020 1.387 . S
C1024 C1025 1.387 . S
C1024 H1028 0.950 . S
C1024 C1033 1.390 . S
C1025 C1024 1.387 . S
C1025 C1027 1.387 . S
H1026 C1033 0.950 . S
C1027 C1025 1.387 . S
C1027 C1029 1.390 . S
C1027 H1031 0.950 . S
H1028 C1024 0.950 . S
C1029 C1027 1.390 . S
C1029 C1030 1.387 . S
C1029 H1032 0.950 . S
C1030 C1029 1.387 . S
C1030 C1033 1.387 . S
H1031 C1027 0.950 . S
H1032 C1029 0.950 . S
C1033 C1024 1.390 . S
C1033 H1026 0.950 . S
C1033 C1030 1.387 . S
C1034 C1035 1.387 . S
C1034 H1038 0.950 . S
C1034 C1043 1.390 . S
C1035 C1034 1.387 . S
C1035 C1037 1.387 . S
H1036 C1043 0.950 . S
C1037 C1035 1.387 . S
C1037 C1039 1.390 . S
C1037 H1041 0.950 . S
H1038 C1034 0.950 . S
C1039 C1037 1.390 . S
C1039 C1040 1.387 . S
C1039 H1042 0.950 . S
C1040 C1039 1.387 . S
C1040 C1043 1.387 . S
H1041 C1037 0.950 . S
H1042 C1039 0.950 . S
C1043 C1034 1.390 . S
C1043 H1036 0.950 . S
C1043 C1040 1.387 . S
C1044 C1045 1.387 . S
C1044 H1048 0.950 . S
C1044 C1053 1.390 . S
C1045 C1044 1.387 . S
C1045 C1047 1.387 . S
H1046 C1053 0.950 . S
C1047 C1045 1.387 . S
C1047 C1049 1.390 . S
C1047 H1051 0.950 . S
H1048 C1044 0.950 . S
C1049 C1047 1.390 . S
C1049 C1050 1.387 . S
C1049 H1052 0.950 . S
C1050 C1049 1.387 . S
C1050 C1053 1.387 . S
H1051 C1047 0.950 . S
H1052 C1049 0.950 . S
C1053 C1044 1.390 . S
C1053 H1046 0.950 . S
C1053 C1050 1.387 . S
C1054 C1055 1.387 . S
C1054 H1058 0.950 . S
C1054 C1063 1.390 . S
C1055 C1054 1.387 . S
C1055 C1057 1.387 . S
H1056 C1063 0.950 . S
C1057 C1055 1.387 . S
C1057 C1059 1.390 . S
C1057 H1061 0.950 . S
H1058 C1054 0.950 . S
C1059 C1057 1.390 . S
C1059 C1060 1.387 . S
C1059 H1062 0.950 . S
C1060 C1059 1.387 . S
C1060 C1063 1.387 . S
H1061 C1057 0.950 . S
H1062 C1059 0.950 . S
C1063 C1054 1.390 . S
C1063 H1056 0.950 . S
C1063 C1060 1.387 . S
C1064 C1065 1.387 . S
C1064 H1068 0.950 . S
C1064 C1073 1.390 . S
C1065 C1064 1.387 . S
C1065 C1067 1.387 . S
H1066 C1073 0.950 . S
C1067 C1065 1.387 . S
C1067 C1069 1.390 . S
C1067 H1071 0.950 . S
H1068 C1064 0.950 . S
C1069 C1067 1.390 . S
C1069 C1070 1.387 . S
C1069 H1072 0.950 . S
C1070 C1069 1.387 . S
C1070 C1073 1.387 . S
H1071 C1067 0.950 . S
H1072 C1069 0.950 . S
C1073 C1064 1.390 . S
C1073 H1066 0.950 . S
C1073 C1070 1.387 . S
C1074 C1075 1.387 . S
C1074 H1078 0.950 . S
C1074 C1083 1.390 . S
C1075 C1074 1.387 . S
C1075 C1077 1.387 . S
H1076 C1083 0.950 . S
C1077 C1075 1.387 . S
C1077 C1079 1.390 . S
C1077 H1081 0.950 . S
H1078 C1074 0.950 . S
C1079 C1077 1.390 . S
C1079 C1080 1.387 . S
C1079 H1082 0.950 . S
C1080 C1079 1.387 . S
C1080 C1083 1.387 . S
H1081 C1077 0.950 . S
H1082 C1079 0.950 . S
C1083 C1074 1.390 . S
C1083 H1076 0.950 . S
C1083 C1080 1.387 . S
C1084 C1085 1.387 . S
C1084 H1088 0.950 . S
C1084 C1093 1.390 . S
C1085 C1084 1.387 . S
C1085 C1087 1.387 . S
H1086 C1093 0.950 . S
C1087 C1085 1.387 . S
C1087 C1089 1.390 . S
C1087 H1091 0.950 . S
H1088 C1084 0.950 . S
C1089 C1087 1.390 . S
C1089 C1090 1.387 . S
C1089 H1092 0.950 . S
C1090 C1089 1.387 . S
C1090 C1093 1.387 . S
H1091 C1087 0.950 . S
H1092 C1089 0.950 . S
C1093 C1084 1.390 . S
C1093 H1086 0.950 . S
C1093 C1090 1.387 . S
C1094 C1095 1.387 . S
C1094 H1098 0.950 . S
C1094 C1103 1.390 . S
C1095 C1094 1.387 . S
C1095 C1097 1.387 . S
H1096 C1103 0.950 . S
C1097 C1095 1.387 . S
C1097 C1099 1.390 . S
C1097 H1101 0.950 . S
H1098 C1094 0.950 . S
C1099 C1097 1.390 . S
C1099 C1100 1.387 . S
C1099 H1102 0.950 . S
C1100 C1099 1.387 . S
C1100 C1103 1.387 . S
H1101 C1097 0.950 . S
H1102 C1099 0.950 . S
C1103 C1094 1.390 . S
C1103 H1096 0.950 . S
C1103 C1100 1.387 . S
C1104 C1105 1.387 . S
C1104 H1108 0.950 . S
C1104 C1113 1.390 . S
C1105 C1104 1.387 . S
C1105 C1107 1.387 . S
H1106 C1113 0.950 . S
C1107 C1105 1.387 . S
C1107 C1109 1.390 . S
C1107 H1111 0.950 . S
H1108 C1104 0.950 . S
C1109 C1107 1.390 . S
C1109 C1110 1.387 . S
C1109 H1112 0.950 . S
C1110 C1109 1.387 . S
C1110 C1113 1.387 . S
H1111 C1107 0.950 . S
H1112 C1109 0.950 . S
C1113 C1104 1.390 . S
C1113 H1106 0.950 . S
C1113 C1110 1.387 . S
C1114 C1115 1.387 . S
C1114 H1118 0.950 . S
C1114 C1123 1.390 . S
C1115 C1114 1.387 . S
C1115 C1117 1.387 . S
H1116 C1123 0.950 . S
C1117 C1115 1.387 . S
C1117 C1119 1.390 . S
C1117 H1121 0.950 . S
H1118 C1114 0.950 . S
C1119 C1117 1.390 . S
C1119 C1120 1.387 . S
C1119 H1122 0.950 . S
C1120 C1119 1.387 . S
C1120 C1123 1.387 . S
H1121 C1117 0.950 . S
H1122 C1119 0.950 . S
C1123 C1114 1.390 . S
C1123 H1116 0.950 . S
C1123 C1120 1.387 . S
C1124 C1125 1.387 . S
C1124 H1128 0.950 . S
C1124 C1133 1.390 . S
C1125 C1124 1.387 . S
C1125 C1127 1.387 . S
H1126 C1133 0.950 . S
C1127 C1125 1.387 . S
C1127 C1129 1.390 . S
C1127 H1131 0.950 . S
H1128 C1124 0.950 . S
C1129 C1127 1.390 . S
C1129 C1130 1.387 . S
C1129 H1132 0.950 . S
C1130 C1129 1.387 . S
C1130 C1133 1.387 . S
H1131 C1127 0.950 . S
H1132 C1129 0.950 . S
C1133 C1124 1.390 . S
C1133 H1126 0.950 . S
C1133 C1130 1.387 . S
C1134 C1135 1.387 . S
C1134 H1138 0.950 . S
C1134 C1143 1.390 . S
C1135 C1134 1.387 . S
C1135 C1137 1.387 . S
H1136 C1143 0.950 . S
C1137 C1135 1.387 . S
C1137 C1139 1.390 . S
C1137 H1141 0.950 . S
H1138 C1134 0.950 . S
C1139 C1137 1.390 . S
C1139 C1140 1.387 . S
C1139 H1142 0.950 . S
C1140 C1139 1.387 . S
C1140 C1143 1.387 . S
H1141 C1137 0.950 . S
H1142 C1139 0.950 . S
C1143 C1134 1.390 . S
C1143 H1136 0.950 . S
C1143 C1140 1.387 . S
C1144 C1145 1.387 . S
C1144 H1148 0.950 . S
C1144 C1153 1.390 . S
C1145 C1144 1.387 . S
C1145 C1147 1.387 . S
H1146 C1153 0.950 . S
C1147 C1145 1.387 . S
C1147 C1149 1.390 . S
C1147 H1151 0.950 . S
H1148 C1144 0.950 . S
C1149 C1147 1.390 . S
C1149 C1150 1.387 . S
C1149 H1152 0.950 . S
C1150 C1149 1.387 . S
C1150 C1153 1.387 . S
H1151 C1147 0.950 . S
H1152 C1149 0.950 . S
C1153 C1144 1.390 . S
C1153 H1146 0.950 . S
C1153 C1150 1.387 . S
C1154 C1155 1.387 . S
C1154 H1158 0.950 . S
C1154 C1163 1.390 . S
C1155 C1154 1.387 . S
C1155 C1157 1.387 . S
H1156 C1163 0.950 . S
C1157 C1155 1.387 . S
C1157 C1159 1.390 . S
C1157 H1161 0.950 . S
H1158 C1154 0.950 . S
C1159 C1157 1.390 . S
C1159 C1160 1.387 . S
C1159 H1162 0.950 . S
C1160 C1159 1.387 . S
C1160 C1163 1.387 . S
H1161 C1157 0.950 . S
H1162 C1159 0.950 . S
C1163 C1154 1.390 . S
C1163 H1156 0.950 . S
C1163 C1160 1.387 . S
C1164 C1165 1.391 1_655 S
C1164 H1168 0.950 . S
C1164 C1173 1.384 . S
C1165 C1164 1.391 1_455 S
C1165 C1167 1.387 . S
H1166 C1173 0.950 . S
C1167 C1165 1.387 . S
C1167 C1169 1.384 . S
C1167 H1171 0.950 . S
H1168 C1164 0.950 . S
C1169 C1167 1.384 . S
C1169 C1170 1.391 1_455 S
C1169 H1172 0.950 . S
C1170 C1169 1.391 1_655 S
C1170 C1173 1.387 . S
H1171 C1167 0.950 . S
H1172 C1169 0.950 . S
C1173 C1164 1.384 . S
C1173 H1166 0.950 . S
C1173 C1170 1.387 . S
C1174 C1175 1.387 . S
C1174 H1178 0.950 . S
C1174 C1183 1.390 . S
C1175 C1174 1.387 . S
C1175 C1177 1.387 . S
H1176 C1183 0.950 . S
C1177 C1175 1.387 . S
C1177 C1179 1.390 . S
C1177 H1181 0.950 . S
H1178 C1174 0.950 . S
C1179 C1177 1.390 . S
C1179 C1180 1.387 . S
C1179 H1182 0.950 . S
C1180 C1179 1.387 . S
C1180 C1183 1.387 . S
H1181 C1177 0.950 . S
H1182 C1179 0.950 . S
C1183 C1174 1.390 . S
C1183 H1176 0.950 . S
C1183 C1180 1.387 . S
C1184 C1185 1.387 . S
C1184 H1188 0.950 . S
C1184 C1193 1.407 . S
C1185 C1184 1.387 . S
C1185 C1187 1.368 1_545 S
H1186 C1193 0.947 . S
C1187 C1185 1.368 1_565 S
C1187 C1189 1.407 . S
C1187 H1191 0.947 . S
H1188 C1184 0.950 . S
C1189 C1187 1.407 . S
C1189 C1190 1.387 . S
C1189 H1192 0.950 . S
C1190 C1189 1.387 . S
C1190 C1193 1.368 1_565 S
H1191 C1187 0.947 . S
H1192 C1189 0.950 . S
C1193 C1184 1.407 . S
C1193 H1186 0.947 . S
C1193 C1190 1.368 1_545 S
C1194 C1195 1.387 1_565 S
C1194 H1198 0.950 . S
C1194 C1203 1.390 . S
C1195 C1194 1.387 1_545 S
C1195 C1197 1.387 1_554 S
H1196 C1203 0.950 . S
C1197 C1195 1.387 1_556 S
C1197 C1199 1.390 . S
C1197 H1201 0.950 . S
H1198 C1194 0.950 . S
C1199 C1197 1.390 . S
C1199 C1200 1.387 1_545 S
C1199 H1202 0.950 . S
C1200 C1199 1.387 1_565 S
C1200 C1203 1.387 1_556 S
H1201 C1197 0.950 . S
H1202 C1199 0.950 . S
C1203 C1194 1.390 . S
C1203 H1196 0.950 . S
C1203 C1200 1.387 1_554 S
C1204 C1205 1.387 1_556 S
C1204 H1208 0.950 . S
C1204 C1213 1.390 1_655 S
C1205 C1204 1.387 1_554 S
C1205 C1207 1.387 . S
H1206 C1213 0.950 . S
C1207 C1205 1.387 . S
C1207 C1209 1.390 1_655 S
C1207 H1211 0.950 . S
H1208 C1204 0.950 . S
C1209 C1207 1.390 1_455 S
C1209 C1210 1.387 1_554 S
C1209 H1212 0.950 . S
C1210 C1209 1.387 1_556 S
C1210 C1213 1.387 . S
H1211 C1207 0.950 . S
H1212 C1209 0.950 . S
C1213 C1204 1.390 1_455 S
C1213 H1206 0.950 . S
C1213 C1210 1.387 . S
C1214 C1215 1.387 . S
C1214 H1218 0.950 . S
C1214 C1223 1.390 1_554 S
C1215 C1214 1.387 . S
C1215 C1217 1.387 . S
H1216 C1223 0.950 . S
C1217 C1215 1.387 . S
C1217 C1219 1.390 1_554 S
C1217 H1221 0.950 . S
H1218 C1214 0.950 . S
C1219 C1217 1.390 1_556 S
C1219 C1220 1.387 . S
C1219 H1222 0.950 . S
C1220 C1219 1.387 . S
C1220 C1223 1.387 . S
H1221 C1217 0.950 . S
H1222 C1219 0.950 . S
C1223 C1214 1.390 1_556 S
C1223 H1216 0.950 . S
C1223 C1220 1.387 . S
C505 C147 1.341 . S
C510 C8 1.275 . S
C515 C161 1.341 . S
C520 C22 1.276 . S
C525 C36 1.274 . S
C530 C133 1.341 . S
C535 C50 1.273 . S
C540 C119 1.340 . S
C545 C64 1.276 . S
C550 C91 1.340 . S
C555 C105 1.341 . S
C560 C78 1.274 . S
C565 C63 1.340 . S
C570 C92 1.275 . S
C575 C77 1.340 . S
C580 C106 1.277 . S
C585 C120 1.273 . S
C590 C49 1.341 . S
C595 C35 1.341 . S
C600 C134 1.274 . S
C605 C148 1.277 . S
C610 C7 1.340 . S
C615 C162 1.275 . S
C620 C21 1.340 . S
C625 C315 1.340 . S
C630 C176 1.275 . S
C635 C329 1.341 . S
C640 C190 1.275 . S
C645 C204 1.274 . S
C650 C301 1.341 . S
C655 C218 1.273 . S
C660 C287 1.341 . S
C665 C232 1.274 . S
C670 C259 1.340 . S
C675 C246 1.275 . S
C680 C273 1.341 . S
C685 C231 1.341 . S
C690 C260 1.275 . S
C695 C245 1.340 . S
C700 C274 1.276 . S
C705 C217 1.341 . S
C710 C288 1.274 . S
C715 C203 1.340 . S
C720 C302 1.273 . S
C725 C175 1.340 . S
C730 C316 1.274 . S
C735 C189 1.341 . S
C740 C330 1.277 . S
C745 C344 1.275 . S
C750 C483 1.341 . S
C755 C497 1.341 . S
C760 C358 1.274 . S
C765 C469 1.340 . S
C770 C372 1.273 . S
C775 C386 1.273 . S
C780 C455 1.341 . S
C785 C400 1.274 . S
C790 C427 1.341 . S
C795 C414 1.275 . S
C800 C441 1.340 . S
C805 C399 1.340 . S
C810 C428 1.275 . S
C815 C413 1.341 . S
C820 C442 1.275 . S
C825 C385 1.341 . S
C830 C456 1.273 . S
C835 C470 1.273 . S
C840 C371 1.341 . S
C845 C343 1.340 . S
C850 C484 1.277 . S
C855 C498 1.274 . S
C860 C357 1.341 . S
C865 C48 1.537 . S
C870 C6 1.538 . S
C875 C62 1.537 . S
C880 C20 1.537 . S
C885 C34 1.536 . S
C890 C76 1.538 . S
C895 C132 1.537 . S
C900 C90 1.538 . S
C905 C146 1.537 . S
C910 C104 1.537 . S
C915 C160 1.538 . S
C920 C118 1.536 . S
C925 C216 1.538 . S
C930 C174 1.537 . S
C935 C230 1.537 . S
C940 C188 1.537 . S
C945 C202 1.536 . S
C950 C244 1.538 . S
C955 C258 1.536 . S
C960 C300 1.538 . S
C965 C314 1.537 . S
C970 C272 1.537 . S
C975 C286 1.538 . S
C980 C328 1.536 . S
C985 C384 1.537 . S
C990 C342 1.538 . S
C995 C398 1.537 . S
C1000 C356 1.537 . S
C1005 C370 1.537 . S
C1010 C412 1.536 . S
C1015 C426 1.538 . S
C1020 C468 1.537 . S
C1025 C440 1.537 . S
C1030 C482 1.537 . S
C1035 C454 1.538 . S
C1040 C496 1.536 . S
C1045 C9 1.538 . S
C1050 C261 1.538 . S
C1055 C275 1.537 . S
C1060 C23 1.537 . S
C1065 C289 1.537 . S
C1070 C37 1.537 . S
C1075 C471 1.537 . S
C1080 C51 1.537 . S
C1085 C485 1.536 . S
C1090 C65 1.536 . S
C1095 C499 1.538 . S
C1100 C79 1.538 . S
C1105 C93 1.539 . S
C1110 C345 1.539 . S
C1115 C359 1.537 . S
C1120 C107 1.537 . S
C1125 C373 1.537 . S
C1130 C121 1.537 . S
C1135 C135 1.539 . S
C1140 C219 1.539 . S
C1145 C149 1.536 . S
C1150 C233 1.536 . S
C1155 C163 1.537 . S
C1160 C247 1.537 . S
C1165 C429 1.538 . S
C1170 C177 1.538 . S
C1175 C443 1.539 . S
C1180 C191 1.539 . S
C1185 C205 1.537 . S
C1190 C457 1.537 . S
C1195 C303 1.537 . S
C1200 C387 1.537 . S
C1205 C317 1.539 . S
C1210 C401 1.539 . S
C1215 C331 1.538 . S
C1220 C415 1.538 . S
