# Generated by pormake.
# Topology yfh, (5)-cn, num edge types: 1
# Building blocks:
#     Node 0, Type 0, BuildingBlock: BEQFEK_clean_sbu_0, # of connection points: 5
#     Node 1, Type 0, BuildingBlock: BEQFEK_clean_sbu_0, # of connection points: 5
#     Node 2, Type 0, BuildingBlock: BEQFEK_clean_sbu_0, # of connection points: 5
#     Node 3, Type 0, BuildingBlock: BEQFEK_clean_sbu_0, # of connection points: 5
#     Node 4, Type 0, BuildingBlock: BEQFEK_clean_sbu_0, # of connection points: 5
#     Node 5, Type 0, BuildingBlock: BEQFEK_clean_sbu_0, # of connection points: 5
#     Node 6, Type 0, BuildingBlock: BEQFEK_clean_sbu_0, # of connection points: 5
#     Node 7, Type 0, BuildingBlock: BEQFEK_clean_sbu_0, # of connection points: 5
#     Edge 8, Type (0, 0), BuildingBlock: OJICUG_clean_linker_0, # of connection points: 2
#     Edge 9, Type (0, 0), BuildingBlock: OJICUG_clean_linker_0, # of connection points: 2
#     Edge 10, Type (0, 0), BuildingBlock: OJICUG_clean_linker_0, # of connection points: 2
#     Edge 11, Type (0, 0), BuildingBlock: OJICUG_clean_linker_0, # of connection points: 2
#     Edge 12, Type (0, 0), BuildingBlock: OJICUG_clean_linker_0, # of connection points: 2
#     Edge 13, Type (0, 0), BuildingBlock: OJICUG_clean_linker_0, # of connection points: 2
#     Edge 14, Type (0, 0), BuildingBlock: OJICUG_clean_linker_0, # of connection points: 2
#     Edge 15, Type (0, 0), BuildingBlock: OJICUG_clean_linker_0, # of connection points: 2
#     Edge 16, Type (0, 0), BuildingBlock: OJICUG_clean_linker_0, # of connection points: 2
#     Edge 17, Type (0, 0), BuildingBlock: OJICUG_clean_linker_0, # of connection points: 2
#     Edge 18, Type (0, 0), BuildingBlock: OJICUG_clean_linker_0, # of connection points: 2
#     Edge 19, Type (0, 0), BuildingBlock: OJICUG_clean_linker_0, # of connection points: 2
#     Edge 20, Type (0, 0), BuildingBlock: OJICUG_clean_linker_0, # of connection points: 2
#     Edge 21, Type (0, 0), BuildingBlock: OJICUG_clean_linker_0, # of connection points: 2
#     Edge 22, Type (0, 0), BuildingBlock: OJICUG_clean_linker_0, # of connection points: 2
#     Edge 23, Type (0, 0), BuildingBlock: OJICUG_clean_linker_0, # of connection points: 2
#     Edge 24, Type (0, 0), BuildingBlock: OJICUG_clean_linker_0, # of connection points: 2
#     Edge 25, Type (0, 0), BuildingBlock: OJICUG_clean_linker_0, # of connection points: 2
#     Edge 26, Type (0, 0), BuildingBlock: OJICUG_clean_linker_0, # of connection points: 2
#     Edge 27, Type (0, 0), BuildingBlock: OJICUG_clean_linker_0, # of connection points: 2
# Relax obj value: 0.490
# Max RMSD: 0.268
# Mean RMSD: 0.268
data_MOF--net-yfh--node1-BEQFEK_clean_sbu_0--edge1-OJICUG_clean_linker_0
_symmetry_space_group_name_H-M    P1
_symmetry_Int_Tables_number       1
_symmetry_cell_setting            triclinic
loop_
_symmetry_equiv_pos_as_xyz
'x, y, z'
_cell_length_a     21.990449
_cell_length_b     21.987774
_cell_length_c     44.844541
_cell_angle_alpha  89.78183
_cell_angle_beta   90.145553
_cell_angle_gamma 90.003114
loop_
_atom_site_label
_atom_site_type_symbol
_atom_site_fract_x
_atom_site_fract_y
_atom_site_fract_z
_atom_type_partial_charge
Co0 Co 0.24075 0.96388 0.0532 0.0
Co1 Co 0.36915 0.96122 0.08339 0.0
C2 C 0.28409 0.06811 0.08964 0.0
O3 O 0.24354 0.04392 0.07325 0.0
O4 O 0.33371 0.04076 0.09548 0.0
C5 C 0.11428 0.9849 0.04051 0.0
O6 O 0.11455 0.01227 0.06651 0.0
C7 C 0.43919 0.95379 0.13771 0.0
C8 C 0.52936 0.92223 0.12277 0.0
C9 C 0.49582 0.93587 0.14805 0.0
N10 N 0.43915 0.9509 0.10783 0.0
N11 N 0.49356 0.93325 0.0989 0.0
C12 C 0.38342 0.96566 0.15589 0.0
H13 H 0.34186 0.96293 0.1419 0.0
H14 H 0.38018 0.93249 0.17454 0.0
H15 H 0.38638 0.01195 0.16555 0.0
C16 C 0.22721 0.84842 0.08715 0.0
N17 N 0.25825 0.89895 0.07958 0.0
N18 N 0.31387 0.89534 0.09032 0.0
C19 C 0.32068 0.84125 0.10422 0.0
C20 C 0.26578 0.80977 0.10303 0.0
C21 C 0.16192 0.83807 0.07924 0.0
H22 H 0.13684 0.88178 0.07967 0.0
H23 H 0.14021 0.80562 0.09495 0.0
H24 H 0.15911 0.81951 0.0563 0.0
O25 O 0.30067 0.96281 0.02058 0.0
O26 O 0.39309 0.96378 0.04065 0.0
H27 H 0.38141 0.76642 0.11424 0.0
H28 H 0.38875 0.83176 0.13808 0.0
C29 C 0.38059 0.81684 0.11482 0.0
H30 H 0.41778 0.83416 0.10052 0.0
H31 H 0.50525 0.92578 0.07668 0.0
O32 O 0.16155 0.95629 0.03234 0.0
C33 C 0.35826 0.96306 0.0179 0.0
Co34 Co 0.52976 0.74171 0.30712 0.0
Co35 Co 0.53316 0.87265 0.33411 0.0
C36 C 0.42686 0.78747 0.34341 0.0
O37 O 0.4523 0.74424 0.32939 0.0
O38 O 0.45259 0.83898 0.34609 0.0
C39 C 0.50537 0.6155 0.29487 0.0
O40 O 0.47711 0.61666 0.32064 0.0
C41 C 0.53944 0.94463 0.38738 0.0
C42 C 0.57174 0.03423 0.3717 0.0
C43 C 0.55722 0.0015 0.39723 0.0
N44 N 0.54316 0.94367 0.35754 0.0
N45 N 0.56123 0.99774 0.34814 0.0
C46 C 0.52713 0.88936 0.40605 0.0
H47 H 0.53001 0.84742 0.39248 0.0
H48 H 0.55997 0.88652 0.42484 0.0
H49 H 0.48068 0.89267 0.41551 0.0
C50 C 0.64653 0.73091 0.34007 0.0
N51 N 0.59589 0.76137 0.33215 0.0
N52 N 0.59916 0.81749 0.34213 0.0
C53 C 0.65319 0.82504 0.35599 0.0
C54 C 0.68494 0.77027 0.35547 0.0
C55 C 0.65716 0.66533 0.33302 0.0
H56 H 0.61345 0.64019 0.33342 0.0
H57 H 0.68926 0.64432 0.34917 0.0
H58 H 0.67642 0.66174 0.31024 0.0
O59 O 0.52794 0.80023 0.27341 0.0
O60 O 0.53126 0.89422 0.29128 0.0
H61 H 0.72764 0.88614 0.36592 0.0
H62 H 0.66149 0.8942 0.38915 0.0
C63 C 0.6772 0.88531 0.3661 0.0
H64 H 0.66032 0.92201 0.35127 0.0
H65 H 0.56938 0.0087 0.32584 0.0
O66 O 0.53627 0.66165 0.28693 0.0
C67 C 0.52928 0.85758 0.26938 0.0
Co68 Co 0.75163 0.02889 0.55588 0.0
Co69 Co 0.62084 0.03018 0.58321 0.0
C70 C 0.70629 0.92362 0.59079 0.0
O71 O 0.74935 0.95006 0.57703 0.0
O72 O 0.65478 0.94904 0.59399 0.0
C73 C 0.87843 0.00732 0.54515 0.0
O74 O 0.8766 0.98064 0.5714 0.0
C75 C 0.54945 0.03461 0.63688 0.0
C76 C 0.45896 0.06468 0.62136 0.0
C77 C 0.49225 0.05111 0.64688 0.0
N78 N 0.55 0.03836 0.60701 0.0
N79 N 0.49541 0.05503 0.59773 0.0
C80 C 0.60517 0.02335 0.65537 0.0
H81 H 0.64678 0.02552 0.64149 0.0
H82 H 0.60836 0.05719 0.67361 0.0
H83 H 0.60219 0.97742 0.66559 0.0
C84 C 0.76224 0.14353 0.58992 0.0
N85 N 0.73199 0.09305 0.58178 0.0
N86 N 0.67587 0.09573 0.59182 0.0
C87 C 0.66804 0.14931 0.60588 0.0
C88 C 0.72268 0.18126 0.60544 0.0
C89 C 0.82769 0.1548 0.58275 0.0
H90 H 0.85332 0.11141 0.58361 0.0
H91 H 0.84834 0.18752 0.5986 0.0
H92 H 0.83114 0.1734 0.55978 0.0
O93 O 0.69305 0.02948 0.52226 0.0
O94 O 0.59917 0.03131 0.54042 0.0
H95 H 0.57098 0.15563 0.6012 0.0
H96 H 0.60643 0.2234 0.61541 0.0
C97 C 0.60759 0.17297 0.61589 0.0
H98 H 0.59885 0.15751 0.63905 0.0
H99 H 0.48401 0.06285 0.57544 0.0
O100 O 0.83197 0.03652 0.53613 0.0
C101 C 0.63567 0.03107 0.51841 0.0
Co102 Co 0.46175 0.25253 0.80192 0.0
Co103 Co 0.46157 0.12436 0.83247 0.0
C104 C 0.56735 0.2111 0.8381 0.0
O105 O 0.54228 0.25116 0.82166 0.0
O106 O 0.54079 0.16117 0.84413 0.0
C107 C 0.47982 0.37931 0.79007 0.0
O108 O 0.50559 0.37891 0.81655 0.0
C109 C 0.45606 0.0547 0.88709 0.0
C110 C 0.42802 0.96329 0.87224 0.0
C111 C 0.44027 0.99745 0.89751 0.0
N112 N 0.45322 0.05443 0.85719 0.0
N113 N 0.43768 -0.00068 0.84833 0.0
C114 C 0.4661 0.11099 0.90514 0.0
H115 H 0.46282 0.15228 0.89095 0.0
H116 H 0.43233 0.11369 0.92345 0.0
H117 H 0.51216 0.1093 0.91526 0.0
C118 C 0.34716 0.2648 0.83613 0.0
N119 N 0.39795 0.2344 0.8286 0.0
N120 N 0.39522 0.17877 0.83942 0.0
C121 C 0.34141 0.17125 0.85329 0.0
C122 C 0.30923 0.22573 0.85201 0.0
C123 C 0.33592 0.32998 0.82819 0.0
H124 H 0.37922 0.3557 0.82893 0.0
H125 H 0.30301 0.35119 0.84372 0.0
H126 H 0.31765 0.33265 0.80513 0.0
O127 O 0.46032 0.19237 0.76946 0.0
O128 O 0.4629 0.10012 0.7898 0.0
H129 H 0.33612 0.07394 0.84984 0.0
H130 H 0.26754 0.10932 0.86301 0.0
C131 C 0.31793 0.11099 0.8639 0.0
H132 H 0.33264 0.10331 0.88729 0.0
H133 H 0.43083 0.98717 0.8261 0.0
O134 O 0.45281 0.33165 0.78115 0.0
C135 C 0.46098 0.13474 0.76695 0.0
Co136 Co 0.73124 0.529 0.68826 0.0
Co137 Co 0.85419 0.52872 0.65268 0.0
C138 C 0.76813 0.42377 0.64964 0.0
O139 O 0.73101 0.44893 0.66752 0.0
O140 O 0.8172 0.44993 0.64187 0.0
C141 C 0.60449 0.5123 0.70121 0.0
O142 O 0.60173 0.49134 0.67383 0.0
C143 C 0.93511 0.52149 0.60065 0.0
C144 C 0.00097 0.59431 0.61062 0.0
C145 C 0.98248 0.55498 0.58823 0.0
N146 N 0.92441 0.54235 0.62832 0.0
N147 N 0.96535 0.58442 0.63451 0.0
C148 C 0.90103 0.46971 0.58697 0.0
H149 H 0.89799 0.43203 0.60337 0.0
H150 H 0.85418 0.48459 0.58127 0.0
H151 H 0.92427 0.45208 0.56686 0.0
C152 C 0.7165 0.64697 0.65684 0.0
N153 N 0.74634 0.59445 0.66202 0.0
N154 N 0.79659 0.59337 0.64612 0.0
C155 C 0.79869 0.6442 0.62919 0.0
C156 C 0.74879 0.68056 0.63584 0.0
C157 C 0.66153 0.66655 0.67392 0.0
H158 H 0.62041 0.64666 0.66339 0.0
H159 H 0.65703 0.71679 0.67418 0.0
H160 H 0.66433 0.6496 0.6972 0.0
O161 O 0.79357 0.529 0.71916 0.0
O162 O 0.882 0.52625 0.69545 0.0
H163 H 0.82921 0.69058 0.58926 0.0
H164 H 0.85479 0.61359 0.59332 0.0
C165 C 0.84524 0.65606 0.60558 0.0
H166 H 0.88773 0.6726 0.61613 0.0
H167 H 0.96629 0.60931 0.65427 0.0
O168 O 0.6539 0.53569 0.71034 0.0
C169 C 0.85127 0.52765 0.71953 0.0
Co170 Co 0.96281 0.22992 0.93439 0.0
Co171 Co 0.96269 0.35704 0.90263 0.0
C172 C 0.06695 0.26892 0.89689 0.0
O173 O 0.04227 0.22976 0.91392 0.0
O174 O 0.0406 0.31881 0.89054 0.0
C175 C 0.98309 0.10445 0.9487 0.0
O176 O 0.00905 0.10314 0.92235 0.0
C177 C 0.9558 0.42681 0.84777 0.0
C178 C 0.93378 0.51939 0.86322 0.0
C179 C 0.94263 0.48508 0.83767 0.0
N180 N 0.95461 0.42679 0.8777 0.0
N181 N 0.94263 0.48251 0.88689 0.0
C182 C 0.96277 0.37036 0.82951 0.0
H183 H 0.95841 0.32912 0.84366 0.0
H184 H 0.92817 0.36923 0.81146 0.0
H185 H 0.00846 0.37023 0.81909 0.0
C186 C 0.84699 0.2173 0.90076 0.0
N187 N 0.89786 0.2479 0.90811 0.0
N188 N 0.89522 0.30314 0.89678 0.0
C189 C 0.84133 0.31025 0.88278 0.0
C190 C 0.80902 0.25582 0.88444 0.0
C191 C 0.83605 0.15223 0.90899 0.0
H192 H 0.87971 0.12706 0.90942 0.0
H193 H 0.80463 0.13014 0.89294 0.0
H194 H 0.81591 0.15008 0.93163 0.0
O195 O 0.96454 0.29131 0.96626 0.0
O196 O 0.96761 0.38268 0.94506 0.0
H197 H 0.83745 0.40785 0.8847 0.0
H198 H 0.76784 0.37233 0.87265 0.0
C199 C 0.81818 0.37009 0.8714 0.0
H200 H 0.83192 0.37604 0.8478 0.0
H201 H 0.93809 0.49477 0.90923 0.0
O202 O 0.95438 0.152 0.95636 0.0
C203 C 0.9668 0.34897 0.96822 0.0
Co204 Co 0.25945 0.46275 0.18688 0.0
Co205 Co 0.13509 0.46119 0.15254 0.0
C206 C 0.22104 0.56682 0.148 0.0
O207 O 0.25857 0.5428 0.16621 0.0
O208 O 0.17254 0.53946 0.14035 0.0
C209 C 0.3838 0.4868 0.20262 0.0
O210 O 0.38558 0.51292 0.17623 0.0
C211 C 0.06659 0.452 0.09737 0.0
C212 C 0.97507 0.42513 0.11269 0.0
C213 C 0.00925 0.43568 0.08723 0.0
N214 N 0.06628 0.45089 0.1273 0.0
N215 N 0.01113 0.43604 0.1364 0.0
C216 C 0.12283 0.46149 0.07918 0.0
H217 H 0.1641 0.45829 0.09338 0.0
H218 H 0.12534 0.42741 0.06102 0.0
H219 H 0.1213 0.50741 0.06888 0.0
C220 C 0.27634 0.34709 0.15341 0.0
N221 N 0.24466 0.39758 0.16028 0.0
N222 N 0.19037 0.3945 0.14794 0.0
C223 C 0.1849 0.34076 0.13381 0.0
C224 C 0.23954 0.30906 0.13631 0.0
C225 C 0.34071 0.33642 0.16292 0.0
H226 H 0.34099 0.31496 0.18536 0.0
H227 H 0.36532 0.38031 0.16438 0.0
H228 H 0.36455 0.3061 0.14705 0.0
O229 O 0.19596 0.46196 0.21798 0.0
O230 O 0.10699 0.46697 0.19439 0.0
H231 H 0.08737 0.33471 0.13474 0.0
H232 H 0.12471 0.26641 0.12263 0.0
C233 C 0.12606 0.31682 0.12168 0.0
H234 H 0.12085 0.33132 0.09811 0.0
H235 H -0.0011 0.43072 0.15872 0.0
O236 O 0.33664 0.45683 0.2099 0.0
C237 C 0.1382 0.46463 0.21829 0.0
Co238 Co 0.03203 0.75736 0.44126 0.0
Co239 Co 0.03303 0.63831 0.40271 0.0
C240 C 0.92768 0.72294 0.40032 0.0
O241 O 0.952 0.75785 0.41961 0.0
O242 O 0.95466 0.6753 0.39131 0.0
C243 C 0.01191 0.8828 0.45615 0.0
O244 O 0.9913 0.88671 0.42868 0.0
C245 C 0.02845 0.55799 0.35032 0.0
C246 C 0.10395 0.49506 0.3604 0.0
C247 C 0.06379 0.51204 0.33795 0.0
N248 N 0.04911 0.56943 0.37801 0.0
N249 N 0.0928 0.53018 0.38425 0.0
C250 C 0.97489 0.58971 0.33674 0.0
H251 H 0.93813 0.59299 0.3535 0.0
H252 H 0.98813 0.6365 0.33002 0.0
H253 H 0.95674 0.56454 0.31727 0.0
C254 C 0.15117 0.77537 0.411 0.0
N255 N 0.09846 0.7452 0.41522 0.0
N256 N 0.09747 0.69668 0.39809 0.0
C257 C 0.14835 0.69622 0.38136 0.0
C258 C 0.18492 0.74508 0.38944 0.0
C259 C 0.17056 0.82889 0.4292 0.0
H260 H 0.15232 0.871 0.4188 0.0
H261 H 0.22084 0.8323 0.43041 0.0
H262 H 0.1519 0.8252 0.45208 0.0
O263 O 0.03248 0.69248 0.47119 0.0
O264 O 0.02809 0.60736 0.4447 0.0
H265 H 0.17808 0.60954 0.36561 0.0
H266 H 0.19314 0.67143 0.34026 0.0
C267 C 0.15985 0.6527 0.35641 0.0
H268 H 0.11694 0.6435 0.34431 0.0
H269 H 0.11778 0.53013 0.40407 0.0
O270 O 0.03652 0.83345 0.46472 0.0
C271 C 0.03014 0.63491 0.46961 0.0
C272 C 0.07597 0.98447 0.98788 0.0
C273 C 0.06787 0.00132 0.01785 0.0
H274 H 0.0545 0.00349 0.94224 0.0
C275 C 0.02129 0.04255 0.02488 0.0
H276 H 0.11078 0.95208 0.98168 0.0
C277 C 0.9887 0.07182 0.0022 0.0
C278 C 0.00236 0.06062 0.97207 0.0
H279 H 0.01316 0.05582 0.04776 0.0
H280 H 0.95645 0.10682 0.00833 0.0
C281 C 0.04361 0.01397 0.96519 0.0
C282 C 0.41517 0.49271 0.25633 0.0
C283 C 0.42703 0.5062 0.22619 0.0
H284 H 0.43143 0.51633 0.30191 0.0
C285 C 0.47438 0.54684 0.21937 0.0
H286 H 0.37953 0.46106 0.26243 0.0
C287 C 0.50443 0.57835 0.24209 0.0
C288 C 0.48745 0.57011 0.27207 0.0
H289 H 0.48533 0.55766 0.19642 0.0
H290 H 0.53759 0.61255 0.2359 0.0
C291 C 0.44498 0.52448 0.27904 0.0
C292 C 0.00338 0.91625 0.50931 0.0
C293 C 0.99156 0.92709 0.47889 0.0
H294 H 0.97733 0.93407 0.55436 0.0
C295 C 0.95163 0.97443 0.471 0.0
H296 H 0.03463 0.88078 0.51621 0.0
C297 C 0.91885 0.00521 0.49296 0.0
C298 C 0.92529 0.98909 0.52321 0.0
H299 H 0.9421 0.98462 0.44781 0.0
H300 H 0.88507 0.0382 0.48598 0.0
C301 C 0.97049 0.9469 0.53125 0.0
C302 C 0.51275 0.45175 0.71565 0.0
C303 C 0.55894 0.49281 0.72357 0.0
H304 H 0.45011 0.38404 0.73075 0.0
C305 C 0.56805 0.50608 0.75393 0.0
H306 H 0.50386 0.44117 0.69248 0.0
C307 C 0.53737 0.47311 0.77593 0.0
C308 C 0.49691 0.42646 0.76795 0.0
H309 H 0.6025 0.53835 0.76081 0.0
H310 H 0.54914 0.4809 0.79907 0.0
C311 C 0.48192 0.4189 0.73766 0.0
C312 C 0.36864 0.95216 0.93411 0.0
C313 C 0.42436 0.98085 0.92844 0.0
H314 H 0.30403 0.92438 0.96692 0.0
C315 C 0.46143 0.99812 0.95254 0.0
H316 H 0.33922 0.93842 0.91593 0.0
C317 C 0.44151 0.98968 0.9819 0.0
C318 C 0.38388 0.96459 0.98748 0.0
H319 H 0.50511 0.01941 0.94868 0.0
H320 H 0.46994 0.00524 9e-05 0.0
C321 C 0.34837 0.94456 0.96332 0.0
C322 C 0.54374 0.84305 0.21472 0.0
C323 C 0.52712 0.88106 0.23849 0.0
H324 H 0.54787 0.83147 0.1674 0.0
C325 C 0.50563 0.93993 0.23224 0.0
H326 H 0.56108 0.79766 0.21883 0.0
C327 C 0.49764 0.95902 0.20269 0.0
C328 C 0.5119 0.91988 0.17903 0.0
H329 H 0.49273 0.97028 0.25011 0.0
H330 H 0.47913 0.00382 0.19833 0.0
C331 C 0.5367 0.86251 0.18527 0.0
C332 C 0.63061 0.04179 0.43439 0.0
C333 C 0.5729 0.01798 0.42812 0.0
H334 H 0.69587 0.06413 0.46797 0.0
C335 C 0.53342 0.00404 0.45175 0.0
H336 H 0.6619 0.0527 0.41652 0.0
C337 C 0.55264 0.01084 0.4813 0.0
C338 C 0.61195 0.03093 0.48757 0.0
H339 H 0.48835 0.98629 0.44736 0.0
H340 H 0.52209 0.99789 0.49914 0.0
C341 C 0.65016 0.04777 0.46383 0.0
C342 C 0.48481 0.05044 0.7312 0.0
C343 C 0.46141 0.1088 0.73661 0.0
H344 H 0.51231 0.98574 0.69817 0.0
C345 C 0.44181 0.14452 0.71234 0.0
H346 H 0.49989 0.02176 0.74946 0.0
C347 C 0.44846 0.12379 0.68321 0.0
C348 C 0.47567 0.06732 0.6777 0.0
H349 H 0.42282 0.1894 0.71581 0.0
H350 H 0.43533 0.15344 0.66494 0.0
C351 C 0.4922 0.02999 0.7019 0.0
C352 C 0.87369 0.53909 0.80255 0.0
C353 C 0.92598 0.50371 0.80701 0.0
H354 H 0.80932 0.57438 0.77126 0.0
C355 C 0.95838 0.48277 0.78206 0.0
H356 H 0.84795 0.55609 0.82132 0.0
C357 C 0.93642 0.49368 0.75316 0.0
C358 C 0.88148 0.52514 0.74894 0.0
H359 H -0.00027 0.45667 0.78489 0.0
H360 H 0.96059 0.47481 0.73432 0.0
C361 C 0.85144 0.54929 0.77386 0.0
C362 C -0.00115 0.43264 0.00285 0.0
C363 C 0.97096 0.37593 -0.00173 0.0
H364 H 0.03267 0.49658 0.03491 0.0
C365 C 0.95077 0.34239 0.02309 0.0
H366 H 0.01467 0.45953 0.98412 0.0
C367 C 0.96065 0.36368 0.05192 0.0
C368 C 0.99186 0.41843 0.05659 0.0
H369 H 0.92854 0.2988 0.02027 0.0
H370 H 0.94641 0.33576 0.0706 0.0
C371 C 0.00958 0.45356 0.03185 0.0
C372 C 0.07584 0.52384 0.25371 0.0
C373 C 0.10815 0.47072 0.24725 0.0
H374 H 0.03985 0.5808 0.28743 0.0
C375 C 0.11957 0.42829 0.26998 0.0
H376 H 0.06817 0.55786 0.23656 0.0
C377 C 0.10043 0.43979 0.29911 0.0
C378 C 0.07118 0.49477 0.30618 0.0
H379 H 0.14518 0.38729 0.26539 0.0
H380 H 0.11146 0.40704 0.3164 0.0
C381 C 0.05866 0.53642 0.283 0.0
C382 C 0.96905 0.57215 0.50427 0.0
C383 C 0.02411 0.601 0.49765 0.0
H384 H 0.91087 0.53821 0.53819 0.0
C385 C 0.06816 0.6076 0.52005 0.0
H386 H 0.93379 0.56848 0.48744 0.0
C387 C 0.05631 0.58761 0.54908 0.0
C388 C -0.00046 0.56221 0.55639 0.0
H389 H 0.11059 0.63079 0.5154 0.0
H390 H 0.09026 0.59533 0.5662 0.0
C391 C 0.95635 0.55398 0.53348 0.0
C392 C 0.20929 0.64681 0.1085 0.0
C393 C 0.23285 0.6286 0.13628 0.0
H394 H 0.20319 0.71751 0.07566 0.0
C395 C 0.26655 0.67048 0.15316 0.0
H396 H 0.18341 0.61532 0.09495 0.0
C397 C 0.27591 0.72961 0.1426 0.0
C398 C 0.25323 0.74766 0.11461 0.0
H399 H 0.28463 0.65792 0.17482 0.0
H400 H 0.30079 0.76133 0.15645 0.0
C401 C 0.22006 0.70553 0.0976 0.0
C402 C 0.82451 0.77041 0.40554 0.0
C403 C 0.8662 0.73676 0.38859 0.0
H404 H 0.73378 0.80538 0.4088 0.0
C405 C 0.84796 0.71461 0.36059 0.0
H406 H 0.83709 0.78769 0.42729 0.0
C407 C 0.78932 0.72573 0.34979 0.0
C408 C 0.74724 0.75835 0.36695 0.0
H409 H 0.87928 0.6893 0.3468 0.0
H410 H 0.77725 0.70939 0.32782 0.0
C411 C 0.76544 0.78058 0.39494 0.0
C412 C 0.76627 0.28591 0.59942 0.0
C413 C 0.7341 0.24352 0.61676 0.0
H414 H 0.80195 0.37618 0.5962 0.0
C415 C 0.71183 0.26134 0.64474 0.0
H416 H 0.78248 0.27412 0.57742 0.0
C417 C 0.72161 0.32041 0.65519 0.0
C418 C 0.75495 0.36233 0.63809 0.0
H419 H 0.6873 0.22942 0.65869 0.0
H420 H 0.70433 0.33282 0.67694 0.0
C421 C 0.77708 0.34451 0.6101 0.0
C422 C 0.20464 0.27055 0.84645 0.0
C423 C 0.24712 0.23754 0.86348 0.0
H424 H 0.1143 0.30702 0.84388 0.0
C425 C 0.22953 0.21454 0.89144 0.0
H426 H 0.21625 0.28755 0.82452 0.0
C427 C 0.17052 0.22357 0.90197 0.0
C428 C 0.12842 0.25734 0.88513 0.0
H429 H 0.26153 0.18978 0.90529 0.0
H430 H 0.15825 0.20532 0.92361 0.0
C431 C 0.1461 0.28114 0.85737 0.0
C432 C 0.78499 0.78518 0.6228 0.0
C433 C 0.73688 0.74337 0.62512 0.0
H434 H 0.81318 0.87451 0.60968 0.0
C435 C 0.67805 0.76193 0.61691 0.0
H436 H 0.83055 0.77279 0.62973 0.0
C437 C 0.66772 0.82102 0.60633 0.0
C438 C 0.71632 0.86207 0.60314 0.0
H439 H 0.64021 0.73051 0.61822 0.0
H440 H 0.622 0.83407 0.59992 0.0
C441 C 0.77501 0.84358 0.61152 0.0
C442 C 0.6711 0.25634 0.83345 0.0
C443 C 0.62898 0.22225 0.85001 0.0
H444 H 0.76185 0.29091 0.8307 0.0
C445 C 0.64647 0.19852 0.87785 0.0
H446 H 0.65898 0.27458 0.81175 0.0
C447 C 0.70472 0.2097 0.88918 0.0
C448 C 0.7472 0.24327 0.8725 0.0
H449 H 0.61464 0.17244 0.89116 0.0
H450 H 0.71603 0.19285 0.91121 0.0
C451 C 0.72987 0.26594 0.84438 0.0
C452 C 0.23233 0.23153 0.09564 0.0
C453 C 0.25346 0.24782 0.12413 0.0
H454 H 0.22419 0.16155 0.06276 0.0
C455 C 0.28593 0.20461 0.14101 0.0
H456 H 0.20843 0.26414 0.08177 0.0
C457 C 0.29688 0.14642 0.12962 0.0
C458 C 0.27399 0.12982 0.10153 0.0
H459 H 0.30178 0.21518 0.16325 0.0
H460 H 0.32183 0.11388 0.14311 0.0
C461 C 0.24157 0.1729 0.08467 0.0
C462 C 0.34698 0.71876 0.36421 0.0
C463 C 0.36601 0.77769 0.35657 0.0
H464 H 0.2761 0.66295 0.3819 0.0
C465 C 0.32599 0.8267 0.36115 0.0
H466 H 0.37708 0.68021 0.36138 0.0
C467 C 0.26723 0.81652 0.37212 0.0
C468 C 0.24795 0.75733 0.37923 0.0
H469 H 0.33945 0.87267 0.35542 0.0
H470 H 0.2365 0.85469 0.37437 0.0
C471 C 0.28897 0.70885 0.37579 0.0
loop_
_geom_bond_atom_site_label_1
_geom_bond_atom_site_label_2
_geom_bond_distance
_geom_bond_site_symmetry_2
_ccdc_geom_bond_type
Co0 O3 1.970 . S
Co0 N17 1.989 1_545 S
Co0 O25 1.967 . S
Co0 O32 1.920 . S
Co1 O4 1.966 . S
Co1 N10 2.022 . S
Co1 N18 1.993 1_545 S
Co1 O26 1.941 . S
C2 O3 1.258 . S
C2 O4 1.263 . S
O3 Co0 1.970 . S
O3 C2 1.258 . S
O4 Co1 1.966 . S
O4 C2 1.263 . S
C5 O6 1.235 . S
C5 O32 1.289 . S
O6 C5 1.235 . S
C7 C9 1.400 1_545 S
C7 N10 1.351 . S
C7 C12 1.501 . S
C8 C9 1.387 . S
C8 N11 1.341 . S
C9 C7 1.400 1_565 S
C9 C8 1.387 . S
N10 Co1 2.022 . S
N10 C7 1.351 . S
N10 N11 1.365 1_545 S
N11 C8 1.341 . S
N11 N10 1.365 1_565 S
N11 H31 0.862 . S
C12 C7 1.501 . S
C12 H13 0.961 . S
C12 H14 0.961 . S
C12 H15 0.960 . S
H13 C12 0.961 . S
H14 C12 0.961 . S
H15 C12 0.960 . S
C16 N17 1.342 . S
C16 C20 1.401 . S
C16 C21 1.499 . S
N17 Co0 1.989 1_565 S
N17 C16 1.342 . S
N17 N18 1.388 . S
N18 Co1 1.993 1_565 S
N18 N17 1.388 . S
N18 C19 1.346 . S
C19 N18 1.346 . S
C19 C20 1.396 . S
C19 C29 1.510 . S
C20 C16 1.401 . S
C20 C19 1.396 . S
C21 C16 1.499 . S
C21 H22 0.959 . S
C21 H23 0.960 . S
C21 H24 0.961 . S
H22 C21 0.959 . S
H23 C21 0.960 . S
H24 C21 0.961 . S
O25 Co0 1.967 . S
O25 C33 1.258 . S
O26 Co1 1.941 . S
O26 C33 1.266 . S
H27 C29 0.959 . S
H28 C29 0.961 . S
C29 C19 1.510 . S
C29 H27 0.959 . S
C29 H28 0.961 . S
C29 H30 0.960 . S
H30 C29 0.960 . S
H31 N11 0.862 . S
O32 Co0 1.920 . S
O32 C5 1.289 . S
C33 O25 1.258 . S
C33 O26 1.266 . S
Co34 O37 1.970 . S
Co34 N51 1.989 . S
Co34 O59 1.967 . S
Co34 O66 1.920 . S
Co35 O38 1.966 . S
Co35 N44 2.022 . S
Co35 N52 1.993 . S
Co35 O60 1.941 . S
C36 O37 1.258 . S
C36 O38 1.263 . S
O37 Co34 1.970 . S
O37 C36 1.258 . S
O38 Co35 1.966 . S
O38 C36 1.263 . S
C39 O40 1.235 . S
C39 O66 1.289 . S
O40 C39 1.235 . S
C41 C43 1.400 . S
C41 N44 1.351 . S
C41 C46 1.501 . S
C42 C43 1.387 . S
C42 N45 1.341 . S
C43 C41 1.400 . S
C43 C42 1.387 . S
N44 Co35 2.022 . S
N44 C41 1.351 . S
N44 N45 1.365 . S
N45 C42 1.341 . S
N45 N44 1.365 . S
N45 H65 0.862 . S
C46 C41 1.501 . S
C46 H47 0.961 . S
C46 H48 0.961 . S
C46 H49 0.960 . S
H47 C46 0.961 . S
H48 C46 0.961 . S
H49 C46 0.960 . S
C50 N51 1.342 . S
C50 C54 1.401 . S
C50 C55 1.499 . S
N51 Co34 1.989 . S
N51 C50 1.342 . S
N51 N52 1.388 . S
N52 Co35 1.993 . S
N52 N51 1.388 . S
N52 C53 1.346 . S
C53 N52 1.346 . S
C53 C54 1.396 . S
C53 C63 1.510 . S
C54 C50 1.401 . S
C54 C53 1.396 . S
C55 C50 1.499 . S
C55 H56 0.959 . S
C55 H57 0.960 . S
C55 H58 0.961 . S
H56 C55 0.959 . S
H57 C55 0.960 . S
H58 C55 0.961 . S
O59 Co34 1.967 . S
O59 C67 1.258 . S
O60 Co35 1.941 . S
O60 C67 1.266 . S
H61 C63 0.959 . S
H62 C63 0.961 . S
C63 C53 1.510 . S
C63 H61 0.959 . S
C63 H62 0.961 . S
C63 H64 0.960 . S
H64 C63 0.960 . S
H65 N45 0.862 . S
O66 Co34 1.920 . S
O66 C39 1.289 . S
C67 O59 1.258 . S
C67 O60 1.266 . S
Co68 O71 1.970 . S
Co68 N85 1.989 . S
Co68 O93 1.967 . S
Co68 O100 1.920 . S
Co69 O72 1.966 . S
Co69 N78 2.022 . S
Co69 N86 1.993 1_565 S
Co69 O94 1.941 . S
C70 O71 1.258 . S
C70 O72 1.263 . S
O71 Co68 1.970 . S
O71 C70 1.258 . S
O72 Co69 1.966 . S
O72 C70 1.263 . S
C73 O74 1.235 . S
C73 O100 1.289 . S
O74 C73 1.235 . S
C75 C77 1.400 1_565 S
C75 N78 1.351 . S
C75 C80 1.501 . S
C76 C77 1.387 . S
C76 N79 1.341 . S
C77 C75 1.400 1_545 S
C77 C76 1.387 . S
N78 Co69 2.022 . S
N78 C75 1.351 . S
N78 N79 1.365 1_565 S
N79 C76 1.341 . S
N79 N78 1.365 1_545 S
N79 H99 0.862 . S
C80 C75 1.501 . S
C80 H81 0.961 . S
C80 H82 0.961 . S
C80 H83 0.960 . S
H81 C80 0.961 . S
H82 C80 0.961 . S
H83 C80 0.960 . S
C84 N85 1.342 1_545 S
C84 C88 1.401 . S
C84 C89 1.499 . S
N85 Co68 1.989 . S
N85 C84 1.342 1_565 S
N85 N86 1.388 1_565 S
N86 Co69 1.993 1_545 S
N86 N85 1.388 1_545 S
N86 C87 1.346 . S
C87 N86 1.346 . S
C87 C88 1.396 . S
C87 C97 1.510 . S
C88 C84 1.401 . S
C88 C87 1.396 . S
C89 C84 1.499 . S
C89 H90 0.959 . S
C89 H91 0.960 . S
C89 H92 0.961 . S
H90 C89 0.959 . S
H91 C89 0.960 . S
H92 C89 0.961 . S
O93 Co68 1.967 . S
O93 C101 1.258 . S
O94 Co69 1.941 . S
O94 C101 1.266 . S
H95 C97 0.959 . S
H96 C97 0.961 . S
C97 C87 1.510 . S
C97 H95 0.959 . S
C97 H96 0.961 . S
C97 H98 0.960 . S
H98 C97 0.960 . S
H99 N79 0.862 . S
O100 Co68 1.920 . S
O100 C73 1.289 . S
C101 O93 1.258 . S
C101 O94 1.266 . S
Co102 O105 1.970 . S
Co102 N119 1.989 . S
Co102 O127 1.967 . S
Co102 O134 1.920 . S
Co103 O106 1.966 . S
Co103 N112 2.022 . S
Co103 N120 1.993 . S
Co103 O128 1.941 . S
C104 O105 1.258 . S
C104 O106 1.263 . S
O105 Co102 1.970 . S
O105 C104 1.258 . S
O106 Co103 1.966 . S
O106 C104 1.263 . S
C107 O108 1.235 . S
C107 O134 1.289 . S
O108 C107 1.235 . S
C109 C111 1.400 . S
C109 N112 1.351 . S
C109 C114 1.501 . S
C110 C111 1.387 . S
C110 N113 1.341 . S
C111 C109 1.400 . S
C111 C110 1.387 . S
N112 Co103 2.022 . S
N112 C109 1.351 . S
N112 N113 1.365 . S
N113 C110 1.341 . S
N113 N112 1.365 . S
N113 H133 0.862 . S
C114 C109 1.501 . S
C114 H115 0.961 . S
C114 H116 0.961 . S
C114 H117 0.960 . S
H115 C114 0.961 . S
H116 C114 0.961 . S
H117 C114 0.960 . S
C118 N119 1.342 . S
C118 C122 1.401 . S
C118 C123 1.499 . S
N119 Co102 1.989 . S
N119 C118 1.342 . S
N119 N120 1.388 . S
N120 Co103 1.993 . S
N120 N119 1.388 . S
N120 C121 1.346 . S
C121 N120 1.346 . S
C121 C122 1.396 . S
C121 C131 1.510 . S
C122 C118 1.401 . S
C122 C121 1.396 . S
C123 C118 1.499 . S
C123 H124 0.959 . S
C123 H125 0.960 . S
C123 H126 0.961 . S
H124 C123 0.959 . S
H125 C123 0.960 . S
H126 C123 0.961 . S
O127 Co102 1.967 . S
O127 C135 1.258 . S
O128 Co103 1.941 . S
O128 C135 1.266 . S
H129 C131 0.959 . S
H130 C131 0.961 . S
C131 C121 1.510 . S
C131 H129 0.959 . S
C131 H130 0.961 . S
C131 H132 0.960 . S
H132 C131 0.960 . S
H133 N113 0.862 . S
O134 Co102 1.920 . S
O134 C107 1.289 . S
C135 O127 1.258 . S
C135 O128 1.266 . S
Co136 O139 1.970 . S
Co136 N153 1.989 . S
Co136 O161 1.967 . S
Co136 O168 1.920 . S
Co137 O140 1.966 . S
Co137 N146 2.022 . S
Co137 N154 1.993 . S
Co137 O162 1.941 . S
C138 O139 1.258 . S
C138 O140 1.263 . S
O139 Co136 1.970 . S
O139 C138 1.258 . S
O140 Co137 1.966 . S
O140 C138 1.263 . S
C141 O142 1.235 . S
C141 O168 1.289 . S
O142 C141 1.235 . S
C143 C145 1.400 . S
C143 N146 1.351 . S
C143 C148 1.501 . S
C144 C145 1.387 . S
C144 N147 1.341 . S
C145 C143 1.400 . S
C145 C144 1.387 . S
N146 Co137 2.022 . S
N146 C143 1.351 . S
N146 N147 1.365 . S
N147 C144 1.341 . S
N147 N146 1.365 . S
N147 H167 0.862 . S
C148 C143 1.501 . S
C148 H149 0.961 . S
C148 H150 0.961 . S
C148 H151 0.960 . S
H149 C148 0.961 . S
H150 C148 0.961 . S
H151 C148 0.960 . S
C152 N153 1.342 . S
C152 C156 1.401 . S
C152 C157 1.499 . S
N153 Co136 1.989 . S
N153 C152 1.342 . S
N153 N154 1.388 . S
N154 Co137 1.993 . S
N154 N153 1.388 . S
N154 C155 1.346 . S
C155 N154 1.346 . S
C155 C156 1.396 . S
C155 C165 1.510 . S
C156 C152 1.401 . S
C156 C155 1.396 . S
C157 C152 1.499 . S
C157 H158 0.959 . S
C157 H159 0.960 . S
C157 H160 0.961 . S
H158 C157 0.959 . S
H159 C157 0.960 . S
H160 C157 0.961 . S
O161 Co136 1.967 . S
O161 C169 1.258 . S
O162 Co137 1.941 . S
O162 C169 1.266 . S
H163 C165 0.959 . S
H164 C165 0.961 . S
C165 C155 1.510 . S
C165 H163 0.959 . S
C165 H164 0.961 . S
C165 H166 0.960 . S
H166 C165 0.960 . S
H167 N147 0.862 . S
O168 Co136 1.920 . S
O168 C141 1.289 . S
C169 O161 1.258 . S
C169 O162 1.266 . S
Co170 O173 1.970 . S
Co170 N187 1.989 1_455 S
Co170 O195 1.967 . S
Co170 O202 1.920 . S
Co171 O174 1.966 . S
Co171 N180 2.022 . S
Co171 N188 1.993 1_455 S
Co171 O196 1.941 . S
C172 O173 1.258 . S
C172 O174 1.263 . S
O173 Co170 1.970 . S
O173 C172 1.258 . S
O174 Co171 1.966 . S
O174 C172 1.263 . S
C175 O176 1.235 . S
C175 O202 1.289 . S
O176 C175 1.235 . S
C177 C179 1.400 1_455 S
C177 N180 1.351 . S
C177 C182 1.501 . S
C178 C179 1.387 . S
C178 N181 1.341 . S
C179 C177 1.400 1_655 S
C179 C178 1.387 . S
N180 Co171 2.022 . S
N180 C177 1.351 . S
N180 N181 1.365 1_455 S
N181 C178 1.341 . S
N181 N180 1.365 1_655 S
N181 H201 0.862 . S
C182 C177 1.501 . S
C182 H183 0.961 . S
C182 H184 0.961 . S
C182 H185 0.960 . S
H183 C182 0.961 . S
H184 C182 0.961 . S
H185 C182 0.960 . S
C186 N187 1.342 . S
C186 C190 1.401 . S
C186 C191 1.499 . S
N187 Co170 1.989 1_655 S
N187 C186 1.342 . S
N187 N188 1.388 . S
N188 Co171 1.993 1_655 S
N188 N187 1.388 . S
N188 C189 1.346 . S
C189 N188 1.346 . S
C189 C190 1.396 . S
C189 C199 1.510 . S
C190 C186 1.401 . S
C190 C189 1.396 . S
C191 C186 1.499 . S
C191 H192 0.959 . S
C191 H193 0.960 . S
C191 H194 0.961 . S
H192 C191 0.959 . S
H193 C191 0.960 . S
H194 C191 0.961 . S
O195 Co170 1.967 . S
O195 C203 1.258 . S
O196 Co171 1.941 . S
O196 C203 1.266 . S
H197 C199 0.959 . S
H198 C199 0.961 . S
C199 C189 1.510 . S
C199 H197 0.959 . S
C199 H198 0.961 . S
C199 H200 0.960 . S
H200 C199 0.960 . S
H201 N181 0.862 . S
O202 Co170 1.920 . S
O202 C175 1.289 . S
C203 O195 1.258 . S
C203 O196 1.266 . S
Co204 O207 1.970 . S
Co204 N221 1.989 . S
Co204 O229 1.967 . S
Co204 O236 1.920 . S
Co205 O208 1.966 . S
Co205 N214 2.022 . S
Co205 N222 1.993 . S
Co205 O230 1.941 . S
C206 O207 1.258 . S
C206 O208 1.263 . S
O207 Co204 1.970 . S
O207 C206 1.258 . S
O208 Co205 1.966 . S
O208 C206 1.263 . S
C209 O210 1.235 . S
C209 O236 1.289 . S
O210 C209 1.235 . S
C211 C213 1.400 . S
C211 N214 1.351 . S
C211 C216 1.501 . S
C212 C213 1.387 . S
C212 N215 1.341 . S
C213 C211 1.400 . S
C213 C212 1.387 . S
N214 Co205 2.022 . S
N214 C211 1.351 . S
N214 N215 1.365 . S
N215 C212 1.341 . S
N215 N214 1.365 . S
N215 H235 0.862 . S
C216 C211 1.501 . S
C216 H217 0.961 . S
C216 H218 0.961 . S
C216 H219 0.960 . S
H217 C216 0.961 . S
H218 C216 0.961 . S
H219 C216 0.960 . S
C220 N221 1.342 . S
C220 C224 1.401 . S
C220 C225 1.499 . S
N221 Co204 1.989 . S
N221 C220 1.342 . S
N221 N222 1.388 . S
N222 Co205 1.993 . S
N222 N221 1.388 . S
N222 C223 1.346 . S
C223 N222 1.346 . S
C223 C224 1.396 . S
C223 C233 1.510 . S
C224 C220 1.401 . S
C224 C223 1.396 . S
C225 C220 1.499 . S
C225 H226 0.959 . S
C225 H227 0.960 . S
C225 H228 0.961 . S
H226 C225 0.959 . S
H227 C225 0.960 . S
H228 C225 0.961 . S
O229 Co204 1.967 . S
O229 C237 1.258 . S
O230 Co205 1.941 . S
O230 C237 1.266 . S
H231 C233 0.959 . S
H232 C233 0.961 . S
C233 C223 1.510 . S
C233 H231 0.959 . S
C233 H232 0.961 . S
C233 H234 0.960 . S
H234 C233 0.960 . S
H235 N215 0.862 . S
O236 Co204 1.920 . S
O236 C209 1.289 . S
C237 O229 1.258 . S
C237 O230 1.266 . S
Co238 O241 1.970 . S
Co238 N255 1.989 . S
Co238 O263 1.967 . S
Co238 O270 1.920 . S
Co239 O242 1.966 . S
Co239 N248 2.022 . S
Co239 N256 1.993 1_655 S
Co239 O264 1.941 . S
C240 O241 1.258 . S
C240 O242 1.263 . S
O241 Co238 1.970 . S
O241 C240 1.258 . S
O242 Co239 1.966 . S
O242 C240 1.263 . S
C243 O244 1.235 . S
C243 O270 1.289 . S
O244 C243 1.235 . S
C245 C247 1.400 1_655 S
C245 N248 1.351 . S
C245 C250 1.501 . S
C246 C247 1.387 . S
C246 N249 1.341 . S
C247 C245 1.400 1_455 S
C247 C246 1.387 . S
N248 Co239 2.022 . S
N248 C245 1.351 . S
N248 N249 1.365 1_655 S
N249 C246 1.341 . S
N249 N248 1.365 1_455 S
N249 H269 0.862 . S
C250 C245 1.501 . S
C250 H251 0.961 . S
C250 H252 0.961 . S
C250 H253 0.960 . S
H251 C250 0.961 . S
H252 C250 0.961 . S
H253 C250 0.960 . S
C254 N255 1.342 1_455 S
C254 C258 1.401 . S
C254 C259 1.499 . S
N255 Co238 1.989 . S
N255 C254 1.342 1_655 S
N255 N256 1.388 1_655 S
N256 Co239 1.993 1_455 S
N256 N255 1.388 1_455 S
N256 C257 1.346 . S
C257 N256 1.346 . S
C257 C258 1.396 . S
C257 C267 1.510 . S
C258 C254 1.401 . S
C258 C257 1.396 . S
C259 C254 1.499 . S
C259 H260 0.959 . S
C259 H261 0.960 . S
C259 H262 0.961 . S
H260 C259 0.959 . S
H261 C259 0.960 . S
H262 C259 0.961 . S
O263 Co238 1.967 . S
O263 C271 1.258 . S
O264 Co239 1.941 . S
O264 C271 1.266 . S
H265 C267 0.959 . S
H266 C267 0.961 . S
C267 C257 1.510 . S
C267 H265 0.959 . S
C267 H266 0.961 . S
C267 H268 0.960 . S
H268 C267 0.960 . S
H269 N249 0.862 . S
O270 Co238 1.920 . S
O270 C243 1.289 . S
C271 O263 1.258 . S
C271 O264 1.266 . S
C272 C273 1.387 1_556 S
C272 H276 0.950 . S
C272 C281 1.390 . S
C273 C272 1.387 1_554 S
C273 C275 1.387 . S
H274 C281 0.950 . S
C275 C273 1.387 . S
C275 C277 1.390 . S
C275 H279 0.950 . S
H276 C272 0.950 . S
C277 C275 1.390 . S
C277 C278 1.387 1_554 S
C277 H280 0.950 . S
C278 C277 1.387 1_556 S
C278 C281 1.387 . S
H279 C275 0.950 . S
H280 C277 0.950 . S
C281 C272 1.390 . S
C281 H274 0.950 . S
C281 C278 1.387 . S
C282 C283 1.387 . S
C282 H286 0.950 . S
C282 C291 1.390 . S
C283 C282 1.387 . S
C283 C285 1.387 . S
H284 C291 0.950 . S
C285 C283 1.387 . S
C285 C287 1.390 . S
C285 H289 0.950 . S
H286 C282 0.950 . S
C287 C285 1.390 . S
C287 C288 1.387 . S
C287 H290 0.950 . S
C288 C287 1.387 . S
C288 C291 1.387 . S
H289 C285 0.950 . S
H290 C287 0.950 . S
C291 C282 1.390 . S
C291 H284 0.950 . S
C291 C288 1.387 . S
C292 C293 1.387 . S
C292 H296 0.950 . S
C292 C301 1.390 . S
C293 C292 1.387 . S
C293 C295 1.387 . S
H294 C301 0.950 . S
C295 C293 1.387 . S
C295 C297 1.390 . S
C295 H299 0.950 . S
H296 C292 0.950 . S
C297 C295 1.390 . S
C297 C298 1.387 . S
C297 H300 0.950 . S
C298 C297 1.387 . S
C298 C301 1.387 . S
H299 C295 0.950 . S
H300 C297 0.950 . S
C301 C292 1.390 . S
C301 H294 0.950 . S
C301 C298 1.387 . S
C302 C303 1.387 . S
C302 H306 0.950 . S
C302 C311 1.390 . S
C303 C302 1.387 . S
C303 C305 1.387 . S
H304 C311 0.950 . S
C305 C303 1.387 . S
C305 C307 1.390 . S
C305 H309 0.950 . S
H306 C302 0.950 . S
C307 C305 1.390 . S
C307 C308 1.387 . S
C307 H310 0.950 . S
C308 C307 1.387 . S
C308 C311 1.387 . S
H309 C305 0.950 . S
H310 C307 0.950 . S
C311 C302 1.390 . S
C311 H304 0.950 . S
C311 C308 1.387 . S
C312 C313 1.387 1_554 S
C312 H316 0.950 1_554 S
C312 C321 1.390 . S
C313 C312 1.387 1_556 S
C313 C315 1.387 1_556 S
H314 C321 0.950 . S
C315 C313 1.387 1_554 S
C315 C317 1.390 . S
C315 H319 0.950 1_545 S
H316 C312 0.950 1_556 S
C317 C315 1.390 . S
C317 C318 1.387 . S
C317 H320 0.950 1_545 S
C318 C317 1.387 . S
C318 C321 1.387 . S
H319 C315 0.950 1_565 S
H320 C317 0.950 1_565 S
C321 C312 1.390 . S
C321 H314 0.950 . S
C321 C318 1.387 . S
C322 C323 1.387 . S
C322 H326 0.950 . S
C322 C331 1.390 . S
C323 C322 1.387 . S
C323 C325 1.387 1_565 S
H324 C331 0.950 . S
C325 C323 1.387 1_545 S
C325 C327 1.390 . S
C325 H329 0.950 . S
H326 C322 0.950 . S
C327 C325 1.390 . S
C327 C328 1.387 1_545 S
C327 H330 0.950 . S
C328 C327 1.387 1_565 S
C328 C331 1.387 . S
H329 C325 0.950 . S
H330 C327 0.950 . S
C331 C322 1.390 . S
C331 H324 0.950 . S
C331 C328 1.387 . S
C332 C333 1.387 . S
C332 H336 0.950 . S
C332 C341 1.390 . S
C333 C332 1.387 . S
C333 C335 1.387 . S
H334 C341 0.950 . S
C335 C333 1.387 . S
C335 C337 1.390 . S
C335 H339 0.950 . S
H336 C332 0.950 . S
C337 C335 1.390 . S
C337 C338 1.387 . S
C337 H340 0.950 . S
C338 C337 1.387 . S
C338 C341 1.387 . S
H339 C335 0.950 . S
H340 C337 0.950 . S
C341 C332 1.390 . S
C341 H334 0.950 . S
C341 C338 1.387 . S
C342 C343 1.387 . S
C342 H346 0.950 . S
C342 C351 1.390 . S
C343 C342 1.387 . S
C343 C345 1.387 . S
H344 C351 0.950 . S
C345 C343 1.387 . S
C345 C347 1.390 1_545 S
C345 H349 0.950 1_545 S
H346 C342 0.950 . S
C347 C345 1.390 1_565 S
C347 C348 1.387 1_565 S
C347 H350 0.950 . S
C348 C347 1.387 1_545 S
C348 C351 1.387 . S
H349 C345 0.950 1_565 S
H350 C347 0.950 . S
C351 C342 1.390 . S
C351 H344 0.950 . S
C351 C348 1.387 . S
C352 C353 1.387 . S
C352 H356 0.950 1_655 S
C352 C361 1.390 . S
C353 C352 1.387 . S
C353 C355 1.387 . S
H354 C361 0.950 . S
C355 C353 1.387 . S
C355 C357 1.390 . S
C355 H359 0.950 . S
H356 C352 0.950 1_455 S
C357 C355 1.390 . S
C357 C358 1.387 . S
C357 H360 0.950 . S
C358 C357 1.387 . S
C358 C361 1.387 . S
H359 C355 0.950 . S
H360 C357 0.950 . S
C361 C352 1.390 . S
C361 H354 0.950 . S
C361 C358 1.387 . S
C362 C363 1.387 . S
C362 H366 0.950 1_455 S
C362 C371 1.390 . S
C363 C362 1.387 . S
C363 C365 1.387 . S
H364 C371 0.950 1_655 S
C365 C363 1.387 . S
C365 C367 1.390 . S
C365 H369 0.950 . S
H366 C362 0.950 1_655 S
C367 C365 1.390 . S
C367 C368 1.387 1_556 S
C367 H370 0.950 1_556 S
C368 C367 1.387 1_554 S
C368 C371 1.387 1_554 S
H369 C365 0.950 . S
H370 C367 0.950 1_554 S
C371 C362 1.390 . S
C371 H364 0.950 1_455 S
C371 C368 1.387 1_556 S
C372 C373 1.387 . S
C372 H376 0.950 . S
C372 C381 1.390 . S
C373 C372 1.387 . S
C373 C375 1.387 . S
H374 C381 0.950 . S
C375 C373 1.387 . S
C375 C377 1.390 . S
C375 H379 0.950 . S
H376 C372 0.950 . S
C377 C375 1.390 . S
C377 C378 1.387 . S
C377 H380 0.950 . S
C378 C377 1.387 . S
C378 C381 1.387 . S
H379 C375 0.950 . S
H380 C377 0.950 . S
C381 C372 1.390 . S
C381 H374 0.950 . S
C381 C378 1.387 . S
C382 C383 1.387 . S
C382 H386 0.950 . S
C382 C391 1.390 . S
C383 C382 1.387 . S
C383 C385 1.387 . S
H384 C391 0.950 . S
C385 C383 1.387 . S
C385 C387 1.390 . S
C385 H389 0.950 . S
H386 C382 0.950 . S
C387 C385 1.390 . S
C387 C388 1.387 . S
C387 H390 0.950 . S
C388 C387 1.387 . S
C388 C391 1.387 . S
H389 C385 0.950 . S
H390 C387 0.950 . S
C391 C382 1.390 . S
C391 H384 0.950 . S
C391 C388 1.387 . S
C392 C393 1.387 . S
C392 H396 0.950 . S
C392 C401 1.390 . S
C393 C392 1.387 . S
C393 C395 1.387 . S
H394 C401 0.950 . S
C395 C393 1.387 . S
C395 C397 1.390 . S
C395 H399 0.950 . S
H396 C392 0.950 . S
C397 C395 1.390 . S
C397 C398 1.387 . S
C397 H400 0.950 . S
C398 C397 1.387 . S
C398 C401 1.387 . S
H399 C395 0.950 . S
H400 C397 0.950 . S
C401 C392 1.390 . S
C401 H394 0.950 . S
C401 C398 1.387 . S
C402 C403 1.387 . S
C402 H406 0.950 . S
C402 C411 1.390 . S
C403 C402 1.387 . S
C403 C405 1.387 . S
H404 C411 0.950 . S
C405 C403 1.387 . S
C405 C407 1.390 . S
C405 H409 0.950 . S
H406 C402 0.950 . S
C407 C405 1.390 . S
C407 C408 1.387 . S
C407 H410 0.950 . S
C408 C407 1.387 . S
C408 C411 1.387 . S
H409 C405 0.950 . S
H410 C407 0.950 . S
C411 C402 1.390 . S
C411 H404 0.950 . S
C411 C408 1.387 . S
C412 C413 1.387 . S
C412 H416 0.950 . S
C412 C421 1.390 . S
C413 C412 1.387 . S
C413 C415 1.387 . S
H414 C421 0.950 . S
C415 C413 1.387 . S
C415 C417 1.390 . S
C415 H419 0.950 . S
H416 C412 0.950 . S
C417 C415 1.390 . S
C417 C418 1.387 . S
C417 H420 0.950 . S
C418 C417 1.387 . S
C418 C421 1.387 . S
H419 C415 0.950 . S
H420 C417 0.950 . S
C421 C412 1.390 . S
C421 H414 0.950 . S
C421 C418 1.387 . S
C422 C423 1.387 . S
C422 H426 0.950 . S
C422 C431 1.390 . S
C423 C422 1.387 . S
C423 C425 1.387 . S
H424 C431 0.950 . S
C425 C423 1.387 . S
C425 C427 1.390 . S
C425 H429 0.950 . S
H426 C422 0.950 . S
C427 C425 1.390 . S
C427 C428 1.387 . S
C427 H430 0.950 . S
C428 C427 1.387 . S
C428 C431 1.387 . S
H429 C425 0.950 . S
H430 C427 0.950 . S
C431 C422 1.390 . S
C431 H424 0.950 . S
C431 C428 1.387 . S
C432 C433 1.387 . S
C432 H436 0.950 . S
C432 C441 1.390 . S
C433 C432 1.387 . S
C433 C435 1.387 . S
H434 C441 0.950 . S
C435 C433 1.387 . S
C435 C437 1.390 . S
C435 H439 0.950 . S
H436 C432 0.950 . S
C437 C435 1.390 . S
C437 C438 1.387 . S
C437 H440 0.950 . S
C438 C437 1.387 . S
C438 C441 1.387 . S
H439 C435 0.950 . S
H440 C437 0.950 . S
C441 C432 1.390 . S
C441 H434 0.950 . S
C441 C438 1.387 . S
C442 C443 1.387 . S
C442 H446 0.950 . S
C442 C451 1.390 . S
C443 C442 1.387 . S
C443 C445 1.387 . S
H444 C451 0.950 . S
C445 C443 1.387 . S
C445 C447 1.390 . S
C445 H449 0.950 . S
H446 C442 0.950 . S
C447 C445 1.390 . S
C447 C448 1.387 . S
C447 H450 0.950 . S
C448 C447 1.387 . S
C448 C451 1.387 . S
H449 C445 0.950 . S
H450 C447 0.950 . S
C451 C442 1.390 . S
C451 H444 0.950 . S
C451 C448 1.387 . S
C452 C453 1.387 . S
C452 H456 0.950 . S
C452 C461 1.390 . S
C453 C452 1.387 . S
C453 C455 1.387 . S
H454 C461 0.950 . S
C455 C453 1.387 . S
C455 C457 1.390 . S
C455 H459 0.950 . S
H456 C452 0.950 . S
C457 C455 1.390 . S
C457 C458 1.387 . S
C457 H460 0.950 . S
C458 C457 1.387 . S
C458 C461 1.387 . S
H459 C455 0.950 . S
H460 C457 0.950 . S
C461 C452 1.390 . S
C461 H454 0.950 . S
C461 C458 1.387 . S
C462 C463 1.387 . S
C462 H466 0.950 . S
C462 C471 1.390 . S
C463 C462 1.387 . S
C463 C465 1.387 . S
H464 C471 0.950 . S
C465 C463 1.387 . S
C465 C467 1.390 . S
C465 H469 0.950 . S
H466 C462 0.950 . S
C467 C465 1.390 . S
C467 C468 1.387 . S
C467 H470 0.950 . S
C468 C467 1.387 . S
C468 C471 1.387 . S
H469 C465 0.950 . S
H470 C467 0.950 . S
C471 C462 1.390 . S
C471 H464 0.950 . S
C471 C468 1.387 . S
C273 C5 0.924 . S
C278 C175 0.926 . S
C283 C209 0.924 . S
C288 C39 0.926 . S
C293 C243 0.924 . S
C298 C73 0.926 . S
C303 C141 0.926 . S
C308 C107 0.924 . S
C313 C111 1.214 . S
C318 C33 1.161 . S
C323 C67 1.162 . S
C328 C9 1.212 . S
C333 C43 1.213 . S
C338 C101 1.161 . S
C343 C135 1.164 . S
C348 C77 1.212 . S
C353 C179 1.214 . S
C358 C169 1.161 . S
C363 C203 1.165 . S
C368 C213 1.213 . S
C373 C237 1.160 . S
C378 C247 1.214 . S
C383 C271 1.160 . S
C388 C145 1.213 . S
C393 C206 1.352 . S
C398 C20 1.385 . S
C403 C240 1.353 . S
C408 C54 1.385 . S
C413 C88 1.385 . S
C418 C138 1.352 . S
C423 C122 1.385 . S
C428 C172 1.352 . S
C433 C156 1.385 . S
C438 C70 1.352 . S
C443 C104 1.353 . S
C448 C190 1.385 . S
C453 C224 1.385 . S
C458 C2 1.353 . S
C463 C36 1.352 . S
C468 C258 1.385 . S
