# Generated by pormake.
# Topology why, (6)-cn, num edge types: 1
# Building blocks:
#     Node 0, Type 0, BuildingBlock: MIFKUJ_clean_sbu_0, # of connection points: 6
#     Node 1, Type 0, BuildingBlock: MIFKUJ_clean_sbu_0, # of connection points: 6
#     Node 2, Type 0, BuildingBlock: MIFKUJ_clean_sbu_0, # of connection points: 6
#     Node 3, Type 0, BuildingBlock: MIFKUJ_clean_sbu_0, # of connection points: 6
#     Node 4, Type 0, BuildingBlock: MIFKUJ_clean_sbu_0, # of connection points: 6
#     Node 5, Type 0, BuildingBlock: MIFKUJ_clean_sbu_0, # of connection points: 6
#     Node 6, Type 0, BuildingBlock: MIFKUJ_clean_sbu_0, # of connection points: 6
#     Node 7, Type 0, BuildingBlock: MIFKUJ_clean_sbu_0, # of connection points: 6
#     Node 8, Type 0, BuildingBlock: MIFKUJ_clean_sbu_0, # of connection points: 6
#     Node 9, Type 0, BuildingBlock: MIFKUJ_clean_sbu_0, # of connection points: 6
#     Node 10, Type 0, BuildingBlock: MIFKUJ_clean_sbu_0, # of connection points: 6
#     Node 11, Type 0, BuildingBlock: MIFKUJ_clean_sbu_0, # of connection points: 6
#     Node 12, Type 0, BuildingBlock: MIFKUJ_clean_sbu_0, # of connection points: 6
#     Node 13, Type 0, BuildingBlock: MIFKUJ_clean_sbu_0, # of connection points: 6
#     Node 14, Type 0, BuildingBlock: MIFKUJ_clean_sbu_0, # of connection points: 6
#     Node 15, Type 0, BuildingBlock: MIFKUJ_clean_sbu_0, # of connection points: 6
#     Edge 16, Type (0, 0), BuildingBlock: OJICUG_clean_linker_0, # of connection points: 2
#     Edge 17, Type (0, 0), BuildingBlock: OJICUG_clean_linker_0, # of connection points: 2
#     Edge 18, Type (0, 0), BuildingBlock: OJICUG_clean_linker_0, # of connection points: 2
#     Edge 19, Type (0, 0), BuildingBlock: OJICUG_clean_linker_0, # of connection points: 2
#     Edge 20, Type (0, 0), BuildingBlock: OJICUG_clean_linker_0, # of connection points: 2
#     Edge 21, Type (0, 0), BuildingBlock: OJICUG_clean_linker_0, # of connection points: 2
#     Edge 22, Type (0, 0), BuildingBlock: OJICUG_clean_linker_0, # of connection points: 2
#     Edge 23, Type (0, 0), BuildingBlock: OJICUG_clean_linker_0, # of connection points: 2
#     Edge 24, Type (0, 0), BuildingBlock: OJICUG_clean_linker_0, # of connection points: 2
#     Edge 25, Type (0, 0), BuildingBlock: OJICUG_clean_linker_0, # of connection points: 2
#     Edge 26, Type (0, 0), BuildingBlock: OJICUG_clean_linker_0, # of connection points: 2
#     Edge 27, Type (0, 0), BuildingBlock: OJICUG_clean_linker_0, # of connection points: 2
#     Edge 28, Type (0, 0), BuildingBlock: OJICUG_clean_linker_0, # of connection points: 2
#     Edge 29, Type (0, 0), BuildingBlock: OJICUG_clean_linker_0, # of connection points: 2
#     Edge 30, Type (0, 0), BuildingBlock: OJICUG_clean_linker_0, # of connection points: 2
#     Edge 31, Type (0, 0), BuildingBlock: OJICUG_clean_linker_0, # of connection points: 2
#     Edge 32, Type (0, 0), BuildingBlock: OJICUG_clean_linker_0, # of connection points: 2
#     Edge 33, Type (0, 0), BuildingBlock: OJICUG_clean_linker_0, # of connection points: 2
#     Edge 34, Type (0, 0), BuildingBlock: OJICUG_clean_linker_0, # of connection points: 2
#     Edge 35, Type (0, 0), BuildingBlock: OJICUG_clean_linker_0, # of connection points: 2
#     Edge 36, Type (0, 0), BuildingBlock: OJICUG_clean_linker_0, # of connection points: 2
#     Edge 37, Type (0, 0), BuildingBlock: OJICUG_clean_linker_0, # of connection points: 2
#     Edge 38, Type (0, 0), BuildingBlock: OJICUG_clean_linker_0, # of connection points: 2
#     Edge 39, Type (0, 0), BuildingBlock: OJICUG_clean_linker_0, # of connection points: 2
#     Edge 40, Type (0, 0), BuildingBlock: OJICUG_clean_linker_0, # of connection points: 2
#     Edge 41, Type (0, 0), BuildingBlock: OJICUG_clean_linker_0, # of connection points: 2
#     Edge 42, Type (0, 0), BuildingBlock: OJICUG_clean_linker_0, # of connection points: 2
#     Edge 43, Type (0, 0), BuildingBlock: OJICUG_clean_linker_0, # of connection points: 2
#     Edge 44, Type (0, 0), BuildingBlock: OJICUG_clean_linker_0, # of connection points: 2
#     Edge 45, Type (0, 0), BuildingBlock: OJICUG_clean_linker_0, # of connection points: 2
#     Edge 46, Type (0, 0), BuildingBlock: OJICUG_clean_linker_0, # of connection points: 2
#     Edge 47, Type (0, 0), BuildingBlock: OJICUG_clean_linker_0, # of connection points: 2
#     Edge 48, Type (0, 0), BuildingBlock: OJICUG_clean_linker_0, # of connection points: 2
#     Edge 49, Type (0, 0), BuildingBlock: OJICUG_clean_linker_0, # of connection points: 2
#     Edge 50, Type (0, 0), BuildingBlock: OJICUG_clean_linker_0, # of connection points: 2
#     Edge 51, Type (0, 0), BuildingBlock: OJICUG_clean_linker_0, # of connection points: 2
#     Edge 52, Type (0, 0), BuildingBlock: OJICUG_clean_linker_0, # of connection points: 2
#     Edge 53, Type (0, 0), BuildingBlock: OJICUG_clean_linker_0, # of connection points: 2
#     Edge 54, Type (0, 0), BuildingBlock: OJICUG_clean_linker_0, # of connection points: 2
#     Edge 55, Type (0, 0), BuildingBlock: OJICUG_clean_linker_0, # of connection points: 2
#     Edge 56, Type (0, 0), BuildingBlock: OJICUG_clean_linker_0, # of connection points: 2
#     Edge 57, Type (0, 0), BuildingBlock: OJICUG_clean_linker_0, # of connection points: 2
#     Edge 58, Type (0, 0), BuildingBlock: OJICUG_clean_linker_0, # of connection points: 2
#     Edge 59, Type (0, 0), BuildingBlock: OJICUG_clean_linker_0, # of connection points: 2
#     Edge 60, Type (0, 0), BuildingBlock: OJICUG_clean_linker_0, # of connection points: 2
#     Edge 61, Type (0, 0), BuildingBlock: OJICUG_clean_linker_0, # of connection points: 2
#     Edge 62, Type (0, 0), BuildingBlock: OJICUG_clean_linker_0, # of connection points: 2
#     Edge 63, Type (0, 0), BuildingBlock: OJICUG_clean_linker_0, # of connection points: 2
# Relax obj value: 0.205
# Max RMSD: 0.177
# Mean RMSD: 0.177
data_MOF--net-why--node1-MIFKUJ_clean_sbu_0--edge1-OJICUG_clean_linker_0
_symmetry_space_group_name_H-M    P1
_symmetry_Int_Tables_number       1
_symmetry_cell_setting            triclinic
loop_
_symmetry_equiv_pos_as_xyz
'x, y, z'
_cell_length_a     37.890101
_cell_length_b     37.81466
_cell_length_c     23.472312
_cell_angle_alpha  89.904451
_cell_angle_beta   89.844443
_cell_angle_gamma 90.46396
loop_
_atom_site_label
_atom_site_type_symbol
_atom_site_fract_x
_atom_site_fract_y
_atom_site_fract_z
_atom_type_partial_charge
Zn0 Zn 0.32928 0.18004 0.08291 0.0
Zn1 Zn 0.41532 0.15697 0.00322 0.0
C2 C 0.27308 0.18226 0.00115 0.0
O3 O 0.28375 0.21538 -0.0011 0.0
C4 C 0.44748 0.21809 0.07014 0.0
O5 O 0.41947 0.21917 0.10316 0.0
O6 O 0.31065 0.20693 0.15078 0.0
O7 O 0.35789 0.13872 0.11168 0.0
O8 O 0.40643 0.12113 0.06611 0.0
C9 C 0.27856 0.2156 0.15755 0.0
O10 O 0.25479 0.2044 0.12107 0.0
O11 O 0.2886 0.16117 0.03492 0.0
C12 C 0.45783 0.15793 0.90503 0.0
O13 O 0.45392 0.1918 0.91539 0.0
O14 O 0.4418 0.13545 0.93649 0.0
O15 O 0.37128 0.17901 0.97282 0.0
O16 O 0.35531 0.21696 0.03792 0.0
O17 O 0.44932 0.19504 0.03095 0.0
C18 C 0.38387 0.11775 0.1063 0.0
C19 C 0.3679 0.21072 0.98903 0.0
Zn20 Zn 0.59477 0.58169 0.32551 0.0
Zn21 Zn 0.61157 0.66089 0.24502 0.0
C22 C 0.62513 0.5167 0.28073 0.0
O23 O 0.6368 0.51242 0.33293 0.0
C24 C 0.57745 0.71905 0.30315 0.0
O25 O 0.60986 0.72787 0.3173 0.0
O26 O 0.57279 0.55656 0.3923 0.0
O27 O 0.63827 0.6069 0.35558 0.0
O28 O 0.64896 0.6551 0.3041 0.0
C29 C 0.54272 0.5417 0.38807 0.0
O30 O 0.52598 0.54286 0.33916 0.0
O31 O 0.60808 0.54444 0.26835 0.0
C32 C 0.62275 0.69188 0.1313 0.0
O33 O 0.59912 0.66892 0.11329 0.0
O34 O 0.63237 0.69132 0.18311 0.0
O35 O 0.58996 0.61655 0.21307 0.0
O36 O 0.5563 0.61005 0.28811 0.0
O37 O 0.57208 0.69063 0.27556 0.0
C38 C 0.65688 0.63422 0.34444 0.0
C39 C 0.55932 0.61338 0.23449 0.0
Zn40 Zn 0.19782 0.84962 0.56968 0.0
Zn41 Zn 0.10492 0.86007 0.50453 0.0
C42 C 0.2521 0.8485 0.48573 0.0
O43 O 0.24286 0.81497 0.48695 0.0
C44 C 0.04903 0.82158 0.55929 0.0
O45 O 0.03888 0.85375 0.57214 0.0
O46 O 0.22234 0.82679 0.6363 0.0
O47 O 0.16733 0.88929 0.60359 0.0
O48 O 0.11341 0.89459 0.56691 0.0
C49 C 0.23118 0.79442 0.63552 0.0
O50 O 0.22455 0.77536 0.59001 0.0
O51 O 0.23614 0.87007 0.51822 0.0
C52 C 0.07686 0.88335 0.39472 0.0
O53 O 0.1071 0.87297 0.37329 0.0
O54 O 0.07178 0.88163 0.44816 0.0
O55 O 0.149 0.84538 0.46586 0.0
O56 O 0.17377 0.80963 0.52655 0.0
O57 O 0.07831 0.81742 0.53368 0.0
C58 C 0.13725 0.90427 0.60172 0.0
C59 C 0.1578 0.81438 0.47986 0.0
Zn60 Zn 0.91804 0.4419 0.83505 0.0
Zn61 Zn 0.902 0.36023 0.75381 0.0
C62 C 0.9207 0.49749 0.75534 0.0
O63 O 0.95431 0.4926 0.7663 0.0
C64 C 0.96119 0.32702 0.81955 0.0
O65 O 0.95823 0.35155 0.85878 0.0
O66 O 0.94225 0.47084 0.89596 0.0
O67 O 0.87857 0.41277 0.87226 0.0
O68 O 0.86852 0.36506 0.81928 0.0
C69 C 0.9727 0.46312 0.91473 0.0
O70 O 0.98808 0.43418 0.89678 0.0
O71 O 0.8979 0.478 0.78036 0.0
C72 C 0.89299 0.32798 0.64476 0.0
O73 O 0.92138 0.34675 0.63282 0.0
O74 O 0.87809 0.33171 0.69292 0.0
O75 O 0.92224 0.40504 0.72077 0.0
O76 O 0.95693 0.41641 0.79276 0.0
O77 O 0.9413 0.32754 0.77611 0.0
C78 C 0.86139 0.38435 0.86204 0.0
C79 C 0.95305 0.41007 0.7401 0.0
Zn80 Zn 0.61672 0.86165 0.97974 0.0
Zn81 Zn 0.69821 0.84584 0.89614 0.0
C82 C 0.58014 0.80175 0.91917 0.0
O83 O 0.60478 0.80268 0.87971 0.0
C84 C 0.75407 0.844 0.9747 0.0
O85 O 0.74952 0.81025 0.96341 0.0
O86 O 0.59145 0.88739 0.04203 0.0
O87 O 0.66149 0.84039 0.00897 0.0
O88 O 0.67256 0.8059 0.93672 0.0
C89 C 0.58773 0.8737 0.09118 0.0
O90 O 0.60487 0.84468 0.10372 0.0
O91 O 0.58161 0.82306 0.96088 0.0
C92 C 0.71668 0.79445 0.81072 0.0
O93 O 0.68599 0.78062 0.825 0.0
O94 O 0.72679 0.82302 0.83421 0.0
O95 O 0.66938 0.88516 0.86032 0.0
O96 O 0.62167 0.89474 0.91337 0.0
O97 O 0.73408 0.86637 0.9507 0.0
C98 C 0.66502 0.80951 0.98901 0.0
C99 C 0.64113 0.90207 0.87063 0.0
Zn100 Zn 0.40818 0.36175 0.73182 0.0
Zn101 Zn 0.42318 0.44215 0.65235 0.0
C102 C 0.44327 0.30444 0.67812 0.0
O103 O 0.41037 0.29421 0.67076 0.0
C104 C 0.427 0.50012 0.73079 0.0
O105 O 0.46067 0.49246 0.72711 0.0
O106 O 0.38992 0.32864 0.79173 0.0
O107 O 0.42568 0.40644 0.76874 0.0
O108 O 0.4613 0.41673 0.69732 0.0
C109 C 0.40313 0.32743 0.84135 0.0
O110 O 0.4271 0.35085 0.85634 0.0
O111 O 0.44935 0.33462 0.70004 0.0
C112 C 0.4796 0.47298 0.58408 0.0
O113 O 0.49874 0.46636 0.62936 0.0
O114 O 0.44698 0.4648 0.58431 0.0
O115 O 0.38121 0.41436 0.62084 0.0
O116 O 0.37049 0.36648 0.67306 0.0
O117 O 0.40489 0.48204 0.70205 0.0
C118 C 0.45665 0.41236 0.75048 0.0
C119 C 0.36285 0.38681 0.63184 0.0
Zn120 Zn 0.91003 0.15507 0.49393 0.0
Zn121 Zn 0.83114 0.17341 0.40481 0.0
C122 C 0.94505 0.21327 0.42361 0.0
O123 O 0.92026 0.21076 0.3848 0.0
C124 C 0.77157 0.17875 0.47864 0.0
O125 O 0.77956 0.21237 0.47169 0.0
O126 O 0.9361 0.13394 0.56096 0.0
O127 O 0.86545 0.17723 0.5231 0.0
O128 O 0.85648 0.21138 0.44937 0.0
C129 C 0.95086 0.15654 0.59344 0.0
O130 O 0.94514 0.19033 0.5846 0.0
O131 O 0.94408 0.19332 0.46719 0.0
C132 C 0.78024 0.20021 0.32064 0.0
O133 O 0.75721 0.17908 0.34553 0.0
O134 O 0.81211 0.20036 0.3374 0.0
O135 O 0.85924 0.13153 0.37568 0.0
O136 O 0.90465 0.11867 0.43196 0.0
O137 O 0.79011 0.15571 0.4532 0.0
C138 C 0.86182 0.20791 0.50233 0.0
C139 C 0.88552 0.11228 0.38857 0.0
Zn140 Zn 0.11485 0.65947 0.2346 0.0
Zn141 Zn 0.09881 0.57948 0.14959 0.0
C142 C 0.05718 0.69532 0.16557 0.0
O143 O 0.0583 0.67035 0.12681 0.0
C144 C 0.09476 0.52357 0.2295 0.0
O145 O 0.06123 0.52815 0.21759 0.0
O146 O 0.13594 0.6852 0.30204 0.0
O147 O 0.09179 0.61482 0.26325 0.0
O148 O 0.05885 0.60502 0.1886 0.0
C149 C 0.11337 0.69987 0.33439 0.0
O150 O 0.07962 0.69412 0.32521 0.0
O151 O 0.07754 0.694 0.20841 0.0
C152 C 0.04668 0.55918 0.06552 0.0
O153 O 0.03153 0.58854 0.08214 0.0
O154 O 0.07635 0.55078 0.08663 0.0
O155 O 0.13946 0.60851 0.11662 0.0
O156 O 0.1513 0.6546 0.17256 0.0
O157 O 0.11765 0.54333 0.20531 0.0
C158 C 0.06146 0.61089 0.24153 0.0
C159 C 0.15809 0.63562 0.12917 0.0
Zn160 Zn 0.82814 0.66826 0.57201 0.0
Zn161 Zn 0.91032 0.65104 0.49386 0.0
C162 C 0.77396 0.6716 0.49057 0.0
O163 O 0.77998 0.70531 0.50045 0.0
C164 C 0.94427 0.71009 0.5604 0.0
O165 O 0.91894 0.70768 0.59854 0.0
O166 O 0.79941 0.69194 0.63293 0.0
O167 O 0.85515 0.62821 0.60898 0.0
O168 O 0.90356 0.61687 0.55869 0.0
C169 C 0.80929 0.72084 0.65564 0.0
O170 O 0.83992 0.73472 0.64118 0.0
O171 O 0.79232 0.6487 0.51661 0.0
C172 C 0.94115 0.64052 0.38338 0.0
O173 O 0.92174 0.66791 0.37004 0.0
O174 O 0.93834 0.62696 0.43279 0.0
O175 O 0.86688 0.67275 0.45988 0.0
O176 O 0.8552 0.70734 0.53185 0.0
O177 O 0.94409 0.68978 0.51735 0.0
C178 C 0.88291 0.61022 0.60024 0.0
C179 C 0.86264 0.70361 0.47953 0.0
Zn180 Zn 0.1021 0.07589 0.82926 0.0
Zn181 Zn 0.10974 0.1685 0.76197 0.0
C182 C 0.10103 0.018 0.75593 0.0
O183 O 0.06764 0.02199 0.76959 0.0
C184 C 0.07124 0.22266 0.81836 0.0
O185 O 0.1034 0.23308 0.83132 0.0
O186 O 0.07958 0.04797 0.89329 0.0
O187 O 0.14082 0.1082 0.86385 0.0
O188 O 0.14467 0.16151 0.82356 0.0
C189 C 0.0501 0.05696 0.91463 0.0
O190 O 0.03517 0.08623 0.89705 0.0
O191 O 0.12369 0.03922 0.77706 0.0
C192 C 0.13146 0.19796 0.6518 0.0
O193 O 0.12161 0.16733 0.63054 0.0
O194 O 0.13009 0.20277 0.70528 0.0
O195 O 0.09629 0.12353 0.72416 0.0
O196 O 0.06123 0.09737 0.78511 0.0
O197 O 0.06697 0.19357 0.79207 0.0
C198 C 0.15502 0.13891 0.85985 0.0
C199 C 0.06559 0.11333 0.73807 0.0
Zn200 Zn 0.68563 0.34023 0.08072 0.0
Zn201 Zn 0.6076 0.36978 0.00848 0.0
C202 C 0.74575 0.33778 0.00685 0.0
O203 O 0.73663 0.30417 0.00715 0.0
C204 C 0.55098 0.33114 0.06255 0.0
O205 O 0.54062 0.36335 0.07465 0.0
O206 O 0.70289 0.30595 0.1405 0.0
O207 O 0.66238 0.38149 0.1206 0.0
O208 O 0.61742 0.4039 0.07211 0.0
C209 C 0.73445 0.30591 0.15876 0.0
O210 O 0.75682 0.33003 0.14013 0.0
O211 O 0.72793 0.35935 0.03663 0.0
C212 C 0.57141 0.3794 0.90228 0.0
O213 O 0.59264 0.35379 0.88722 0.0
O214 O 0.57363 0.39203 0.95241 0.0
O215 O 0.6501 0.35364 0.96427 0.0
O216 O 0.65794 0.31056 0.02509 0.0
O217 O 0.5804 0.327 0.03725 0.0
C218 C 0.63844 0.40462 0.11431 0.0
C219 C 0.65737 0.32154 0.97401 0.0
Zn220 Zn 0.43114 0.94213 0.32006 0.0
Zn221 Zn 0.41383 0.86209 0.23901 0.0
C222 C 0.39918 1.00534 0.27231 0.0
O223 O 0.38587 1.00886 0.32372 0.0
C224 C 0.46959 0.8255 0.30855 0.0
O225 O 0.46735 0.85007 0.34783 0.0
O226 O 0.45232 0.96812 0.38619 0.0
O227 O 0.38794 0.91665 0.35159 0.0
O228 O 0.37776 0.86846 0.30029 0.0
C229 C 0.48277 0.98232 0.38294 0.0
O230 O 0.50052 0.98038 0.3349 0.0
O231 O 0.41793 0.97853 0.26116 0.0
C232 C 0.40446 0.83023 0.12793 0.0
O233 O 0.43406 0.84685 0.11538 0.0
O234 O 0.39001 0.83529 0.1761 0.0
O235 O 0.43828 0.9057 0.20873 0.0
O236 O 0.4705 0.91391 0.28483 0.0
O237 O 0.45039 0.82711 0.26435 0.0
C238 C 0.3697 0.88907 0.34088 0.0
C239 C 0.46843 0.90917 0.23145 0.0
Zn240 Zn 0.10402 0.36555 0.48398 0.0
Zn241 Zn 0.18835 0.35107 0.40687 0.0
C242 C 0.0483 0.32638 0.42799 0.0
O243 O 0.0384 0.3582 0.41251 0.0
C244 C 0.24452 0.34709 0.48867 0.0
O245 O 0.23459 0.31373 0.48767 0.0
O246 O 0.0711 0.3865 0.54217 0.0
O247 O 0.14808 0.3487 0.52241 0.0
O248 O 0.16195 0.31376 0.4518 0.0
C249 C 0.0711 0.37725 0.59427 0.0
O250 O 0.09527 0.35533 0.61255 0.0
O251 O 0.07686 0.32291 0.45571 0.0
C252 C 0.24006 0.31566 0.33278 0.0
O253 O 0.26404 0.32823 0.36775 0.0
O254 O 0.20781 0.32345 0.3404 0.0
O255 O 0.16094 0.39251 0.37422 0.0
O256 O 0.11075 0.40111 0.42142 0.0
O257 O 0.2288 0.36906 0.45652 0.0
C258 C 0.15525 0.31805 0.50428 0.0
C259 C 0.13243 0.4095 0.3821 0.0
Zn260 Zn 0.91093 0.85746 0.22801 0.0
Zn261 Zn 0.92325 0.94394 0.15495 0.0
C262 C 0.94874 0.80173 0.17208 0.0
O263 O 0.91669 0.79274 0.15615 0.0
C264 C 0.92551 0.99825 0.23778 0.0
O265 O 0.95931 0.99271 0.22938 0.0
O266 O 0.88896 0.82445 0.28576 0.0
O267 O 0.92759 0.90202 0.26611 0.0
O268 O 0.96228 0.91834 0.1961 0.0
C269 C 0.89957 0.82284 0.33703 0.0
O270 O 0.92353 0.8455 0.35483 0.0
O271 O 0.9532 0.83007 0.20038 0.0
C272 C 0.97677 0.96413 0.07246 0.0
O273 O 0.99148 0.93458 0.08931 0.0
O274 O 0.94706 0.97284 0.09323 0.0
O275 O 0.88372 0.91496 0.11877 0.0
O276 O 0.8763 0.86388 0.16465 0.0
O277 O 0.90313 0.97981 0.21013 0.0
C278 C 0.95815 0.91012 0.2481 0.0
C279 C 0.86772 0.88546 0.12555 0.0
Zn280 Zn 0.41082 0.6602 0.97955 0.0
Zn281 Zn 0.3294 0.67484 0.89791 0.0
C282 C 0.47081 0.69454 0.92692 0.0
O283 O 0.47879 0.66189 0.91316 0.0
C284 C 0.27397 0.67861 0.98205 0.0
O285 O 0.28221 0.71235 0.97892 0.0
O286 O 0.4398 0.63804 0.04111 0.0
O287 O 0.36632 0.68052 0.01177 0.0
O288 O 0.35683 0.71386 0.93742 0.0
C289 C 0.44216 0.65082 0.09099 0.0
O290 O 0.42214 0.67755 0.10549 0.0
O291 O 0.44185 0.70044 0.95256 0.0
C292 C 0.2975 0.73042 0.83129 0.0
O293 O 0.30512 0.74967 0.87619 0.0
O294 O 0.30524 0.69776 0.83113 0.0
O295 O 0.35702 0.63348 0.86573 0.0
O296 O 0.40524 0.62446 0.91727 0.0
O297 O 0.29083 0.65672 0.95132 0.0
C298 C 0.36273 0.71105 0.99036 0.0
C299 C 0.38501 0.61622 0.87617 0.0
Zn300 Zn 0.61475 0.16716 0.73257 0.0
Zn301 Zn 0.59907 0.07801 0.65294 0.0
C302 C 0.55105 0.19754 0.67413 0.0
O303 O 0.54903 0.16922 0.64195 0.0
C304 C 0.59762 0.01879 0.7276 0.0
O305 O 0.56394 0.02659 0.72544 0.0
O306 O 0.63868 0.19221 0.79669 0.0
O307 O 0.59775 0.12047 0.7599 0.0
O308 O 0.55934 0.09912 0.70022 0.0
C309 C 0.64766 0.22409 0.78691 0.0
O310 O 0.64435 0.23661 0.73495 0.0
O311 O 0.57518 0.20008 0.71139 0.0
C312 C 0.54414 0.04769 0.58227 0.0
O313 O 0.5247 0.05264 0.62792 0.0
O314 O 0.57658 0.05653 0.58309 0.0
O315 O 0.63899 0.111 0.6236 0.0
O316 O 0.6482 0.16244 0.66781 0.0
O317 O 0.61946 0.03756 0.69914 0.0
C318 C 0.56597 0.11382 0.74745 0.0
C319 C 0.65571 0.14033 0.62893 0.0
C320 C 0.50775 0.24111 0.04516 0.0
C321 C 0.4755 0.24559 0.07402 0.0
H322 H 0.55709 0.26423 0.01979 0.0
C323 C 0.46957 0.27746 0.10308 0.0
H324 H 0.51323 0.21683 0.02249 0.0
C325 C 0.49468 0.30483 0.10113 0.0
C326 C 0.52641 0.30077 0.07061 0.0
H327 H 0.44498 0.28179 0.12554 0.0
H328 H 0.48881 0.32952 0.12234 0.0
C329 C 0.533 0.26828 0.04378 0.0
C330 C 0.55284 0.77517 0.34375 0.0
C331 C 0.54829 0.74442 0.31082 0.0
H332 H 0.53117 0.82496 0.36953 0.0
C333 C 0.5165 0.73951 0.28106 0.0
H334 H 0.57703 0.77968 0.3672 0.0
C335 C 0.49062 0.76552 0.28181 0.0
C336 C 0.49564 0.7968 0.31306 0.0
H337 H 0.51209 0.7162 0.2552 0.0
H338 H 0.4669 0.76139 0.25692 0.0
C339 C 0.52659 0.80104 0.34521 0.0
C340 C 0.99297 0.79485 0.59781 0.0
C341 C 0.02413 0.79145 0.56558 0.0
H342 H 0.94331 0.77154 0.62203 0.0
C343 C 0.02972 0.76007 0.53502 0.0
H344 H 0.98791 0.81874 0.62179 0.0
C345 C 1.00404 0.7334 0.53452 0.0
C346 C 0.97241 0.73723 0.56529 0.0
H347 H 0.05334 0.75662 0.50957 0.0
H348 H 1.00874 0.70998 0.50918 0.0
C349 C 0.96745 0.76785 0.59802 0.0
C350 C 0.98406 0.26762 0.79274 0.0
C351 C 0.98798 0.29898 0.82427 0.0
H352 H 1.00682 0.21858 0.76726 0.0
C353 C 0.01825 0.30368 0.85789 0.0
H354 H 0.96087 0.26311 0.76676 0.0
C355 C 0.04487 0.27819 0.85777 0.0
C356 C 0.04139 0.24733 0.82476 0.0
H357 H 0.02197 0.32759 0.88256 0.0
H358 H 0.06854 0.28306 0.88241 0.0
C359 C 1.01031 0.24196 0.79334 0.0
C360 C 0.52016 0.78077 0.94876 0.0
C361 C 0.55113 0.77538 0.91694 0.0
H362 H 0.47029 0.75989 0.97592 0.0
C363 C 0.55448 0.74412 0.88521 0.0
H364 H 0.51669 0.80471 0.9734 0.0
C365 C 0.52792 0.71816 0.8871 0.0
C366 C 0.4973 0.72325 0.92003 0.0
H367 H 0.5781 0.73921 0.86044 0.0
H368 H 0.53166 0.69386 0.86358 0.0
C369 C 0.49344 0.75515 0.94995 0.0
C370 C 0.50543 0.28528 0.69513 0.0
C371 C 0.47226 0.27884 0.67044 0.0
H372 H 0.55614 0.26457 0.71592 0.0
C373 C 0.4661 0.24625 0.64321 0.0
H374 H 0.51104 0.31003 0.71659 0.0
C375 C 0.49213 0.22018 0.64248 0.0
C376 C 0.52464 0.22604 0.66961 0.0
H377 H 0.44082 0.24051 0.62373 0.0
H378 H 0.4863 0.19501 0.62247 0.0
C379 C 0.53122 0.25909 0.69504 0.0
C380 C 1.0039 0.23761 0.45225 0.0
C381 C 0.97305 0.24071 0.4195 0.0
H382 H 0.05217 0.26177 0.47958 0.0
C383 C 0.96851 0.27107 0.38584 0.0
H384 H 1.00827 0.21444 0.47844 0.0
C385 C 0.99358 0.29851 0.387 0.0
C386 C 0.02391 0.29584 0.42117 0.0
H387 H 0.94497 0.27426 0.36032 0.0
H388 H 0.98879 0.32214 0.36216 0.0
C389 C 0.02917 0.26471 0.45271 0.0
C390 C 0.0353 0.75469 0.19554 0.0
C391 C 0.03097 0.72409 0.16219 0.0
H392 H 0.0132 0.80351 0.22384 0.0
C393 C 1.00057 0.72061 0.12848 0.0
H394 H 0.05853 0.75828 0.2218 0.0
C395 C 0.97432 0.74647 0.1301 0.0
C396 C 0.9782 0.77655 0.16485 0.0
H397 H 0.99645 0.69731 0.10247 0.0
H398 H 0.95062 0.74249 0.10515 0.0
C399 C 1.00937 0.78074 0.19652 0.0
C400 C 0.19819 0.18409 0.89516 0.0
C401 C 0.18484 0.14927 0.89752 0.0
H402 H 0.23608 0.22153 0.92543 0.0
C403 C 0.20073 0.1251 0.93499 0.0
H404 H 0.1867 0.2036 0.86707 0.0
C405 C 0.22948 0.13558 0.96884 0.0
C406 C 0.24278 0.17042 0.96592 0.0
H407 H 0.19118 0.09808 0.93787 0.0
H408 H 0.24129 0.1164 -0.00284 0.0
C409 C 0.22666 0.19448 0.9288 0.0
C410 C 0.65429 0.43219 0.20826 0.0
C411 C 0.63543 0.43348 0.15673 0.0
H412 H 0.66581 0.45736 0.28785 0.0
C413 C 0.6138 0.46276 0.14599 0.0
H414 H 0.67121 0.41003 0.21794 0.0
C415 C 0.61101 0.49003 0.18581 0.0
C416 C 0.62951 0.48851 0.23761 0.0
H417 H 0.59903 0.46474 0.10668 0.0
H418 H 0.59394 0.51209 0.17623 0.0
C419 C 0.65122 0.45932 0.24837 0.0
C420 C 0.3221 0.84674 0.37081 0.0
C421 C 0.33882 0.87982 0.37716 0.0
H422 H 0.28191 0.81114 0.3998 0.0
C423 C 0.32599 0.90327 0.41875 0.0
H424 H 0.33115 0.82796 0.33929 0.0
C425 C 0.29731 0.89359 0.45351 0.0
C426 C 0.28119 0.86017 0.44767 0.0
H427 H 0.33818 0.92901 0.42464 0.0
H428 H 0.28819 0.912 0.48553 0.0
C429 C 0.29381 0.83702 0.4057 0.0
C430 C 0.92636 0.56739 0.64017 0.0
C431 C 0.89194 0.58097 0.63966 0.0
H432 H 0.96229 0.53066 0.67707 0.0
C433 C 0.8666 0.5663 0.67697 0.0
H434 H 0.94657 0.57806 0.61214 0.0
C435 C 0.87558 0.53864 0.71392 0.0
C436 C 0.9102 0.52556 0.71489 0.0
H437 H 0.83981 0.57606 0.67743 0.0
H438 H 0.8556 0.52792 0.74233 0.0
C439 C 0.93542 0.54022 0.67756 0.0
C440 C 0.79394 0.89076 0.01633 0.0
C441 C 0.78252 0.85531 0.0139 0.0
H442 H 0.83018 0.92814 0.05303 0.0
C443 C 0.79918 0.83017 0.04851 0.0
H444 H 0.78168 0.91071 0.98999 0.0
C445 C 0.82661 0.84013 0.08476 0.0
C446 C 0.83842 0.87545 0.0869 0.0
H447 H 0.79098 0.80267 0.04778 0.0
H448 H 0.83881 0.81995 0.11073 0.0
C449 C 0.82182 0.90069 0.05221 0.0
C450 C 0.37118 0.57153 0.79961 0.0
C451 C 0.39505 0.58615 0.83909 0.0
H452 H 0.36234 0.53254 0.73468 0.0
C453 C 0.42912 0.57187 0.84285 0.0
H454 H 0.3447 0.58183 0.79574 0.0
C455 C 0.43923 0.54398 0.80773 0.0
C456 C 0.41548 0.52935 0.76825 0.0
H457 H 0.44826 0.58247 0.8726 0.0
H458 H 0.46577 0.53384 0.81173 0.0
C459 C 0.38123 0.54323 0.76477 0.0
C460 C 0.69797 0.18449 0.58728 0.0
C461 C 0.68487 0.14958 0.58904 0.0
H462 H 0.73519 0.22089 0.55126 0.0
C463 C 0.70036 0.12412 0.55341 0.0
H464 H 0.68667 0.20489 0.61386 0.0
C465 C 0.72865 0.13337 0.5175 0.0
C466 C 0.74167 0.16833 0.51608 0.0
H467 H 0.69096 0.097 0.55381 0.0
H468 H 0.74025 0.1132 0.49081 0.0
C469 C 0.72584 0.19374 0.55117 0.0
C470 C 0.08879 0.45219 0.34226 0.0
C471 C 0.12351 0.43936 0.34381 0.0
H472 H 0.05263 0.48857 0.30501 0.0
C473 C 0.14912 0.45514 0.30822 0.0
H474 H 0.06834 0.44065 0.36893 0.0
C475 C 0.14011 0.48306 0.27181 0.0
C476 C 0.10521 0.49533 0.26968 0.0
H477 H 0.17613 0.44598 0.30855 0.0
H478 H 0.16031 0.49458 0.24464 0.0
C479 C 0.07973 0.47964 0.30542 0.0
C480 C 0.70289 0.67696 0.37836 0.0
C481 C 0.68788 0.64285 0.38033 0.0
H482 H 0.74165 0.71265 0.41162 0.0
C483 C 0.70236 0.61766 0.41754 0.0
H484 H 0.6924 0.69705 0.35029 0.0
C485 C 0.73102 0.62658 0.45242 0.0
C486 C 0.74533 0.66099 0.45133 0.0
H487 H 0.69151 0.59111 0.41986 0.0
H488 H 0.74141 0.6068 0.48112 0.0
C489 C 0.7311 0.68596 0.41367 0.0
C490 C 0.08494 0.97125 0.68582 0.0
C491 C 0.11126 0.98931 0.71642 0.0
H492 H 0.07245 0.93069 0.62609 0.0
C493 C 0.14666 0.97923 0.70922 0.0
H494 H 0.05742 0.97832 0.69018 0.0
C495 C 0.15539 0.95137 0.6724 0.0
C496 C 0.1289 0.93348 0.64162 0.0
H497 H 0.16752 0.99261 0.73238 0.0
H498 H 0.18282 0.94407 0.66771 0.0
C499 C 0.09363 0.94389 0.6488 0.0
C500 C 0.78954 0.3846 0.9759 0.0
C501 C 0.77575 0.35006 0.97109 0.0
H502 H 0.82769 0.42257 0.94567 0.0
C503 C 0.79072 0.32705 0.93103 0.0
H504 H 0.77861 0.40295 0.00649 0.0
C505 C 0.81848 0.33829 0.89611 0.0
C506 C 0.83232 0.37281 0.90057 0.0
H507 H 0.78074 0.30031 0.92605 0.0
H508 H 0.82912 0.31975 0.86555 0.0
C509 C 0.81771 0.3958 0.94119 0.0
C510 C 0.41462 0.03345 0.17846 0.0
C511 C 0.39445 0.03338 0.22889 0.0
H512 H 0.42741 0.06021 0.10047 0.0
C513 C 0.37058 0.06098 0.23826 0.0
H514 H 0.43337 0.01262 0.17002 0.0
C515 C 0.36702 0.08813 0.19825 0.0
C516 C 0.38751 0.08853 0.14813 0.0
H517 H 0.35465 0.06172 0.27662 0.0
H518 H 0.34842 0.10905 0.20704 0.0
C519 C 0.41133 0.06083 0.13867 0.0
C520 C 0.2872 0.33468 0.56689 0.0
C521 C 0.27424 0.35818 0.52568 0.0
H522 H 0.32489 0.32524 0.63247 0.0
C523 C 0.29035 0.39165 0.51996 0.0
H524 H 0.27537 0.30874 0.57264 0.0
C525 C 0.31915 0.40113 0.55429 0.0
C526 C 0.33215 0.37746 0.59542 0.0
H527 H 0.281 0.41033 0.48852 0.0
H528 H 0.33118 0.42698 0.54864 0.0
C529 C 0.31564 0.34422 0.6014 0.0
C530 C 0.9286 0.06702 0.35459 0.0
C531 C 0.89488 0.08212 0.35122 0.0
H532 H 0.9646 0.02895 0.32136 0.0
C533 C 0.87071 0.06852 0.31127 0.0
H534 H 0.94791 0.07684 0.38474 0.0
C535 C 0.8802 0.04061 0.27526 0.0
C536 C 0.91423 0.0262 0.27785 0.0
H537 H 0.84447 0.07945 0.30776 0.0
H538 H 0.86117 0.03087 0.24458 0.0
C539 C 0.93822 0.0396 0.31809 0.0
C540 C 0.20403 0.67953 0.09755 0.0
C541 C 0.18823 0.64594 0.09193 0.0
H542 H 0.24318 0.71606 0.06738 0.0
C543 C 0.20144 0.62271 0.05035 0.0
H544 H 0.19457 0.69816 0.12899 0.0
C545 C 0.22972 0.63293 0.01519 0.0
C546 C 0.24504 0.66676 0.02039 0.0
H547 H 0.18999 0.59659 0.04501 0.0
H548 H 0.2392 0.61456 0.9834 0.0
C549 C 0.23191 0.68986 0.06206 0.0
C550 C 0.58561 0.97313 0.80209 0.0
C551 C 0.60936 0.98882 0.76337 0.0
H552 H 0.57694 0.93375 0.86593 0.0
C553 C 0.6438 0.97543 0.75936 0.0
H554 H 0.55889 0.98277 0.80638 0.0
C555 C 0.65415 0.94684 0.79343 0.0
C556 C 0.63038 0.93145 0.83263 0.0
H557 H 0.66267 0.9869 0.72976 0.0
H558 H 0.68087 0.93713 0.78961 0.0
C559 C 0.59601 0.94497 0.83641 0.0
C560 C 0.47943 0.11666 0.8289 0.0
C561 C 0.48445 0.14679 0.86288 0.0
H562 H 0.50111 0.08325 0.7638 0.0
C563 C 0.51582 0.16654 0.85722 0.0
H564 H 0.45541 0.10109 0.83249 0.0
C565 C 0.5422 0.15582 0.8196 0.0
C566 C 0.53723 0.1259 0.78517 0.0
H567 H 0.52044 0.18977 0.88322 0.0
H568 H 0.56651 0.17101 0.81754 0.0
C569 C 0.50541 0.10664 0.78953 0.0
C570 C 0.64997 0.75163 0.11793 0.0
C571 C 0.63516 0.72093 0.09383 0.0
H572 H 0.67062 0.80371 0.10351 0.0
C573 C 0.63098 0.71916 0.03441 0.0
H574 H 0.65336 0.75396 0.16359 0.0
C575 C 0.64139 0.74765 -0.00015 0.0
C576 C 0.6553 0.77864 0.02437 0.0
H577 H 0.6196 0.69586 0.01466 0.0
H578 H 0.63778 0.74574 0.95419 0.0
C579 C 0.65965 0.78026 0.08362 0.0
C580 C 0.02281 0.9 0.26194 0.0
C581 C 0.98902 0.90505 0.28524 0.0
H582 H 0.07724 0.88911 0.27834 0.0
C583 C 0.98482 0.90505 0.34463 0.0
H584 H 0.02682 0.90002 0.21623 0.0
C585 C 0.01362 0.89908 0.38012 0.0
C586 C 0.04726 0.89287 0.35695 0.0
H587 H 0.95921 0.90957 0.36376 0.0
H588 H 1.00929 0.89866 0.42576 0.0
C589 C 0.05166 0.89378 0.29749 0.0
C590 C 0.8599 0.23858 0.5961 0.0
C591 C 0.86855 0.23925 0.53797 0.0
H592 H 0.85986 0.26666 0.67514 0.0
C593 C 0.88366 0.27003 0.51437 0.0
H594 H 0.84803 0.21521 0.61515 0.0
C595 C 0.89103 0.29928 0.54886 0.0
C596 C 0.88244 0.29857 0.6071 0.0
H597 H 0.89066 0.27116 0.46961 0.0
H598 H 0.90364 0.32234 0.53008 0.0
C599 C 0.86636 0.26813 0.63022 0.0
C600 C 0.55887 0.87727 0.1872 0.0
C601 C 0.55918 0.88602 0.12898 0.0
H602 H 0.52994 0.87842 0.26593 0.0
C603 C 0.53016 0.90383 0.1057 0.0
H604 H 0.58083 0.86339 0.20614 0.0
C605 C 0.50082 0.91147 0.13936 0.0
C606 C 0.50026 0.90228 0.19726 0.0
H607 H 0.52945 0.91061 0.06086 0.0
H608 H 0.47842 0.92439 0.11997 0.0
C609 C 0.52981 0.88581 0.22132 0.0
C610 C 0.38334 0.26514 0.85649 0.0
C611 C 0.39419 0.29773 0.87949 0.0
H612 H 0.3674 0.21168 0.87341 0.0
C613 C 0.39749 0.3012 0.93876 0.0
H614 H 0.38109 0.26162 0.81084 0.0
C615 C 0.38906 0.27278 0.97455 0.0
C616 C 0.37819 0.24022 0.95147 0.0
H617 H 0.40604 0.32599 0.95744 0.0
H618 H 0.39124 0.27621 0.02023 0.0
C619 C 0.37583 0.2365 0.89217 0.0
C620 C 0.03542 0.15821 0.67776 0.0
C621 C 0.0349 0.125 0.70451 0.0
H622 H 1.00875 0.19446 0.62321 0.0
C623 C 1.0056 0.10251 0.69663 0.0
H624 H 0.05756 0.17611 0.68313 0.0
C625 C 0.9779 0.11262 0.66073 0.0
C626 C 0.97862 0.14586 0.63388 0.0
H627 H 1.00473 0.07667 0.7166 0.0
H628 H 0.95604 0.09451 0.65385 0.0
C629 C 1.00734 0.16876 0.64363 0.0
C630 C 0.11294 0.78485 0.41815 0.0
C631 C 0.14568 0.78389 0.44583 0.0
H632 H 0.07674 0.75844 0.36266 0.0
C633 C 0.16735 0.75422 0.43874 0.0
H634 H 0.09568 0.80731 0.423 0.0
C635 C 0.15695 0.72653 0.40271 0.0
C636 C 0.12419 0.72765 0.37495 0.0
H637 H 0.19282 0.753 0.4595 0.0
H638 H 0.17446 0.70437 0.39648 0.0
C639 C 0.10205 0.75676 0.38385 0.0
C640 C 1.00074 0.61447 0.36888 0.0
C641 C 0.9704 0.62993 0.34561 0.0
H642 H 0.05361 0.59705 0.3541 0.0
C643 C 0.96974 0.63798 0.28715 0.0
H644 H 1.00219 0.60831 0.4139 0.0
C645 C 0.99905 0.63094 0.25272 0.0
C646 C 0.02977 0.61667 0.2766 0.0
H647 H 0.94675 0.65007 0.26821 0.0
H648 H 0.99807 0.63767 0.20787 0.0
C649 C 0.03029 0.60831 0.33483 0.0
C650 C 0.14003 0.22394 0.55443 0.0
C651 C 0.14001 0.2281 0.61388 0.0
H652 H 0.14483 0.2492 0.47306 0.0
C653 C 0.1462 0.2619 0.63691 0.0
H654 H 0.13532 0.19828 0.53536 0.0
C655 C 0.15143 0.29105 0.60125 0.0
C656 C 0.15063 0.28703 0.54187 0.0
H657 H 0.14644 0.26604 0.68256 0.0
H658 H 0.15609 0.31674 0.62023 0.0
C659 C 0.14544 0.25312 0.51875 0.0
C660 C 0.51841 0.39186 0.76729 0.0
C661 C 0.48695 0.40618 0.78856 0.0
H662 H 0.56969 0.37185 0.78686 0.0
C663 C 0.48426 0.41365 0.84703 0.0
H664 H 0.52117 0.38579 0.72242 0.0
C665 C 0.51228 0.40631 0.8838 0.0
C666 C 0.54325 0.39073 0.86289 0.0
H667 H 0.46035 0.42495 0.86438 0.0
H668 H 0.5092 0.41173 0.92883 0.0
C669 C 0.54613 0.38383 0.80421 0.0
C670 C 0.36365 0.74337 0.08249 0.0
C671 C 0.37206 0.74246 0.02432 0.0
H672 H 0.36643 0.77235 0.16045 0.0
C673 C 0.38965 0.7715 -0.00057 0.0
H674 H 0.34989 0.72137 0.10249 0.0
C675 C 0.39981 0.80046 0.03283 0.0
C676 C 0.39151 0.80127 0.09118 0.0
H677 H 0.3965 0.77133 0.95459 0.0
H678 H 0.41432 0.82207 0.01314 0.0
C679 C 0.37287 0.77267 0.11546 0.0
C680 C 1.01033 0.40084 0.60913 0.0
C681 C 0.04186 0.38784 0.63224 0.0
H682 H 0.95742 0.41769 0.62532 0.0
C683 C 0.04433 0.38319 0.69153 0.0
H684 H 1.0075 0.40453 0.56359 0.0
C685 C 0.01572 0.39111 0.72693 0.0
C686 C 0.98391 0.40312 0.7035 0.0
H687 H 0.06828 0.37317 0.71056 0.0
H688 H 0.0182 0.38697 0.77242 0.0
C689 C 0.98156 0.40814 0.64437 0.0
C690 C 0.87402 0.76221 0.35018 0.0
C691 C 0.88813 0.79327 0.37416 0.0
H692 H 0.85536 0.70934 0.36488 0.0
C693 C 0.89306 0.79492 0.43343 0.0
H694 H 0.87015 0.76002 0.3046 0.0
C695 C 0.88414 0.76601 0.468 0.0
C696 C 0.87092 0.73468 0.4437 0.0
H697 H 0.90396 0.81848 0.45308 0.0
H698 H 0.88838 0.76788 0.51353 0.0
C699 C 0.8658 0.7331 0.38457 0.0
C700 C 0.46985 0.64647 0.18765 0.0
C701 C 0.47074 0.63901 0.12904 0.0
H702 H 0.49711 0.64361 0.26751 0.0
C703 C 0.50042 0.62207 0.10606 0.0
H704 H 0.44735 0.65961 0.20644 0.0
C705 C 0.52906 0.61369 0.14061 0.0
C706 C 0.52834 0.62139 0.19903 0.0
H707 H 0.50204 0.61623 0.06097 0.0
H708 H 0.55186 0.60122 0.12154 0.0
C709 C 0.49825 0.6373 0.22254 0.0
C710 C 0.65647 0.25966 0.93655 0.0
C711 C 0.65905 0.29621 0.92632 0.0
H712 H 0.65112 0.20803 0.90038 0.0
C713 C 0.66191 0.30839 0.86993 0.0
H714 H 0.65461 0.24942 0.97959 0.0
C715 C 0.66006 0.28467 0.82453 0.0
C716 C 0.65535 0.24829 0.83466 0.0
H717 H 0.66463 0.33636 0.86076 0.0
H718 H 0.66101 0.29504 0.78151 0.0
C719 C 0.65456 0.23592 0.89115 0.0
C720 C 0.29438 0.25472 0.23992 0.0
C721 C 0.26861 0.24052 0.20331 0.0
H722 H 0.30567 0.28977 0.3091 0.0
C723 C 0.23346 0.25151 0.20932 0.0
H724 H 0.32174 0.24693 0.2363 0.0
C725 C 0.22428 0.27619 0.25091 0.0
C726 C 0.25005 0.29047 0.28742 0.0
H727 H 0.21298 0.2412 0.18169 0.0
H728 H 0.19692 0.284 0.25446 0.0
C729 C 0.28519 0.27944 0.28149 0.0
C730 C 0.54586 0.51977 0.48862 0.0
C731 C 0.52665 0.52371 0.43789 0.0
H732 H 0.54614 0.50057 0.57437 0.0
C733 C 0.4919 0.51055 0.43544 0.0
H734 H 0.57272 0.52956 0.4919 0.0
C735 C 0.47658 0.49405 0.48288 0.0
C736 C 0.49579 0.49017 0.53363 0.0
H737 H 0.47638 0.51318 0.397 0.0
H738 H 0.44969 0.48431 0.4797 0.0
C739 C 0.53063 0.50309 0.5359 0.0
C740 C 0.25536 0.79823 0.73458 0.0
C741 C 0.24828 0.77815 0.68555 0.0
H742 H 0.2764 0.79892 0.81903 0.0
C743 C 0.25748 0.74221 0.68487 0.0
H744 H 0.24857 0.82597 0.73649 0.0
C745 C 0.27338 0.72668 0.73221 0.0
C746 C 0.28047 0.74675 0.78124 0.0
H747 H 0.25238 0.72598 0.64777 0.0
H748 H 0.28016 0.69893 0.73029 0.0
C749 C 0.2713 0.7827 0.78191 0.0
C750 C 0.0435 0.50275 0.00962 0.0
C751 C 0.02817 0.53494 0.02588 0.0
H752 H 0.03796 0.45477 0.96214 0.0
C753 C 0.99436 0.5432 0.00552 0.0
H754 H 0.06946 0.49551 0.02468 0.0
C755 C 0.97622 0.51976 0.9699 0.0
C756 C 0.9915 0.48753 0.95373 0.0
H757 H 0.98173 0.56772 0.01734 0.0
H758 H 0.95024 0.52699 0.95491 0.0
C759 C 0.02537 0.47932 0.97391 0.0
C760 C 0.7297 0.74352 0.74616 0.0
C761 C 0.74012 0.77594 0.77028 0.0
H762 H 0.7434 0.70061 0.69135 0.0
C763 C 0.77357 0.78997 0.75664 0.0
H764 H 0.70415 0.73193 0.75589 0.0
C765 C 0.79613 0.77195 0.71976 0.0
C766 C 0.78573 0.73951 0.69573 0.0
H767 H 0.78244 0.81485 0.77462 0.0
H768 H 0.82169 0.78353 0.71006 0.0
C769 C 0.75227 0.7255 0.70929 0.0
C770 C 0.7817 0.27666 0.21599 0.0
C771 C 0.74616 0.27839 0.19936 0.0
H772 H 0.82038 0.25049 0.26665 0.0
C773 C 0.72208 0.25338 0.2215 0.0
H774 H 0.80099 0.29536 0.19952 0.0
C775 C 0.73322 0.22754 0.26006 0.0
C776 C 0.7687 0.22609 0.27717 0.0
H777 H 0.69452 0.2539 0.20942 0.0
H778 H 0.71392 0.20897 0.27688 0.0
C779 C 0.79285 0.25079 0.25435 0.0
C780 C 0.04676 1.00137 0.97287 0.0
C781 C 0.03172 0.03358 0.95599 0.0
H782 H 0.04118 0.95415 0.02252 0.0
C783 C 0.99838 0.0427 0.9776 0.0
H784 H 0.07236 0.99348 0.95691 0.0
C785 C 0.98042 0.02007 0.0151 0.0
C786 C 0.99541 0.98781 0.03183 0.0
H787 H 0.98598 0.06727 0.96536 0.0
H788 H 0.95479 0.02793 0.03098 0.0
C789 C 0.02881 0.97875 0.01036 0.0
C790 C 0.49338 0.01912 0.53183 0.0
C791 C 0.52841 0.03159 0.53079 0.0
H792 H 0.45154 0.99383 0.48611 0.0
C793 C 0.54818 0.02828 0.48034 0.0
H794 H 0.47741 0.02125 0.56999 0.0
C795 C 0.53326 0.01264 0.43204 0.0
C796 C 0.49834 0.99984 0.43334 0.0
H797 H 0.57522 0.03771 0.47812 0.0
H798 H 0.54922 1.01031 0.39391 0.0
C799 C 0.47854 1.00336 0.48369 0.0
loop_
_geom_bond_atom_site_label_1
_geom_bond_atom_site_label_2
_geom_bond_distance
_geom_bond_site_symmetry_2
_ccdc_geom_bond_type
Zn0 O6 1.969 . S
Zn0 O7 1.965 . S
Zn0 O11 2.024 . S
Zn0 O16 1.969 . S
Zn1 O8 1.969 . S
Zn1 O14 1.969 1_554 S
Zn1 O15 1.965 1_554 S
Zn1 O17 2.024 . S
C2 O3 1.229 . S
C2 O11 1.058 . S
O3 C2 1.229 . S
C4 O5 1.229 . S
C4 O17 1.058 . S
O5 C4 1.229 . S
O6 Zn0 1.969 . S
O6 C9 1.267 . S
O7 Zn0 1.965 . S
O7 C18 1.260 . S
O8 Zn1 1.969 . S
O8 C18 1.258 . S
C9 O6 1.267 . S
C9 O10 1.228 . S
O10 C9 1.228 . S
O11 Zn0 2.024 . S
O11 C2 1.058 . S
C12 O13 1.228 . S
C12 O14 1.267 . S
O13 C12 1.228 . S
O14 Zn1 1.969 1_556 S
O14 C12 1.267 . S
O15 Zn1 1.965 1_556 S
O15 C19 1.260 . S
O16 Zn0 1.969 . S
O16 C19 1.258 1_554 S
O17 Zn1 2.024 . S
O17 C4 1.058 . S
C18 O7 1.260 . S
C18 O8 1.258 . S
C19 O15 1.260 . S
C19 O16 1.258 1_556 S
Zn20 O26 1.969 . S
Zn20 O27 1.965 . S
Zn20 O31 2.024 . S
Zn20 O36 1.969 . S
Zn21 O28 1.969 . S
Zn21 O34 1.969 . S
Zn21 O35 1.965 . S
Zn21 O37 2.024 . S
C22 O23 1.229 . S
C22 O31 1.058 . S
O23 C22 1.229 . S
C24 O25 1.229 . S
C24 O37 1.058 . S
O25 C24 1.229 . S
O26 Zn20 1.969 . S
O26 C29 1.267 . S
O27 Zn20 1.965 . S
O27 C38 1.260 . S
O28 Zn21 1.969 . S
O28 C38 1.258 . S
C29 O26 1.267 . S
C29 O30 1.228 . S
O30 C29 1.228 . S
O31 Zn20 2.024 . S
O31 C22 1.058 . S
C32 O33 1.228 . S
C32 O34 1.267 . S
O33 C32 1.228 . S
O34 Zn21 1.969 . S
O34 C32 1.267 . S
O35 Zn21 1.965 . S
O35 C39 1.260 . S
O36 Zn20 1.969 . S
O36 C39 1.258 . S
O37 Zn21 2.024 . S
O37 C24 1.058 . S
C38 O27 1.260 . S
C38 O28 1.258 . S
C39 O35 1.260 . S
C39 O36 1.258 . S
Zn40 O46 1.969 . S
Zn40 O47 1.965 . S
Zn40 O51 2.024 . S
Zn40 O56 1.969 . S
Zn41 O48 1.969 . S
Zn41 O54 1.969 . S
Zn41 O55 1.965 . S
Zn41 O57 2.024 . S
C42 O43 1.229 . S
C42 O51 1.058 . S
O43 C42 1.229 . S
C44 O45 1.229 . S
C44 O57 1.058 . S
O45 C44 1.229 . S
O46 Zn40 1.969 . S
O46 C49 1.267 . S
O47 Zn40 1.965 . S
O47 C58 1.260 . S
O48 Zn41 1.969 . S
O48 C58 1.258 . S
C49 O46 1.267 . S
C49 O50 1.228 . S
O50 C49 1.228 . S
O51 Zn40 2.024 . S
O51 C42 1.058 . S
C52 O53 1.228 . S
C52 O54 1.267 . S
O53 C52 1.228 . S
O54 Zn41 1.969 . S
O54 C52 1.267 . S
O55 Zn41 1.965 . S
O55 C59 1.260 . S
O56 Zn40 1.969 . S
O56 C59 1.258 . S
O57 Zn41 2.024 . S
O57 C44 1.058 . S
C58 O47 1.260 . S
C58 O48 1.258 . S
C59 O55 1.260 . S
C59 O56 1.258 . S
Zn60 O66 1.969 . S
Zn60 O67 1.965 . S
Zn60 O71 2.024 . S
Zn60 O76 1.969 . S
Zn61 O68 1.969 . S
Zn61 O74 1.969 . S
Zn61 O75 1.965 . S
Zn61 O77 2.024 . S
C62 O63 1.229 . S
C62 O71 1.058 . S
O63 C62 1.229 . S
C64 O65 1.229 . S
C64 O77 1.058 . S
O65 C64 1.229 . S
O66 Zn60 1.969 . S
O66 C69 1.267 . S
O67 Zn60 1.965 . S
O67 C78 1.260 . S
O68 Zn61 1.969 . S
O68 C78 1.258 . S
C69 O66 1.267 . S
C69 O70 1.228 . S
O70 C69 1.228 . S
O71 Zn60 2.024 . S
O71 C62 1.058 . S
C72 O73 1.228 . S
C72 O74 1.267 . S
O73 C72 1.228 . S
O74 Zn61 1.969 . S
O74 C72 1.267 . S
O75 Zn61 1.965 . S
O75 C79 1.260 . S
O76 Zn60 1.969 . S
O76 C79 1.258 . S
O77 Zn61 2.024 . S
O77 C64 1.058 . S
C78 O67 1.260 . S
C78 O68 1.258 . S
C79 O75 1.260 . S
C79 O76 1.258 . S
Zn80 O86 1.969 1_556 S
Zn80 O87 1.965 1_556 S
Zn80 O91 2.024 . S
Zn80 O96 1.969 . S
Zn81 O88 1.969 . S
Zn81 O94 1.969 . S
Zn81 O95 1.965 . S
Zn81 O97 2.024 . S
C82 O83 1.229 . S
C82 O91 1.058 . S
O83 C82 1.229 . S
C84 O85 1.229 . S
C84 O97 1.058 . S
O85 C84 1.229 . S
O86 Zn80 1.969 1_554 S
O86 C89 1.267 . S
O87 Zn80 1.965 1_554 S
O87 C98 1.260 . S
O88 Zn81 1.969 . S
O88 C98 1.258 1_556 S
C89 O86 1.267 . S
C89 O90 1.228 . S
O90 C89 1.228 . S
O91 Zn80 2.024 . S
O91 C82 1.058 . S
C92 O93 1.228 . S
C92 O94 1.267 . S
O93 C92 1.228 . S
O94 Zn81 1.969 . S
O94 C92 1.267 . S
O95 Zn81 1.965 . S
O95 C99 1.260 . S
O96 Zn80 1.969 . S
O96 C99 1.258 . S
O97 Zn81 2.024 . S
O97 C84 1.058 . S
C98 O87 1.260 . S
C98 O88 1.258 1_554 S
C99 O95 1.260 . S
C99 O96 1.258 . S
Zn100 O106 1.969 . S
Zn100 O107 1.965 . S
Zn100 O111 2.024 . S
Zn100 O116 1.969 . S
Zn101 O108 1.969 . S
Zn101 O114 1.969 . S
Zn101 O115 1.965 . S
Zn101 O117 2.024 . S
C102 O103 1.229 . S
C102 O111 1.058 . S
O103 C102 1.229 . S
C104 O105 1.229 . S
C104 O117 1.058 . S
O105 C104 1.229 . S
O106 Zn100 1.969 . S
O106 C109 1.267 . S
O107 Zn100 1.965 . S
O107 C118 1.260 . S
O108 Zn101 1.969 . S
O108 C118 1.258 . S
C109 O106 1.267 . S
C109 O110 1.228 . S
O110 C109 1.228 . S
O111 Zn100 2.024 . S
O111 C102 1.058 . S
C112 O113 1.228 . S
C112 O114 1.267 . S
O113 C112 1.228 . S
O114 Zn101 1.969 . S
O114 C112 1.267 . S
O115 Zn101 1.965 . S
O115 C119 1.260 . S
O116 Zn100 1.969 . S
O116 C119 1.258 . S
O117 Zn101 2.024 . S
O117 C104 1.058 . S
C118 O107 1.260 . S
C118 O108 1.258 . S
C119 O115 1.260 . S
C119 O116 1.258 . S
Zn120 O126 1.969 . S
Zn120 O127 1.965 . S
Zn120 O131 2.024 . S
Zn120 O136 1.969 . S
Zn121 O128 1.969 . S
Zn121 O134 1.969 . S
Zn121 O135 1.965 . S
Zn121 O137 2.024 . S
C122 O123 1.229 . S
C122 O131 1.058 . S
O123 C122 1.229 . S
C124 O125 1.229 . S
C124 O137 1.058 . S
O125 C124 1.229 . S
O126 Zn120 1.969 . S
O126 C129 1.267 . S
O127 Zn120 1.965 . S
O127 C138 1.260 . S
O128 Zn121 1.969 . S
O128 C138 1.258 . S
C129 O126 1.267 . S
C129 O130 1.228 . S
O130 C129 1.228 . S
O131 Zn120 2.024 . S
O131 C122 1.058 . S
C132 O133 1.228 . S
C132 O134 1.267 . S
O133 C132 1.228 . S
O134 Zn121 1.969 . S
O134 C132 1.267 . S
O135 Zn121 1.965 . S
O135 C139 1.260 . S
O136 Zn120 1.969 . S
O136 C139 1.258 . S
O137 Zn121 2.024 . S
O137 C124 1.058 . S
C138 O127 1.260 . S
C138 O128 1.258 . S
C139 O135 1.260 . S
C139 O136 1.258 . S
Zn140 O146 1.969 . S
Zn140 O147 1.965 . S
Zn140 O151 2.024 . S
Zn140 O156 1.969 . S
Zn141 O148 1.969 . S
Zn141 O154 1.969 . S
Zn141 O155 1.965 . S
Zn141 O157 2.024 . S
C142 O143 1.229 . S
C142 O151 1.058 . S
O143 C142 1.229 . S
C144 O145 1.229 . S
C144 O157 1.058 . S
O145 C144 1.229 . S
O146 Zn140 1.969 . S
O146 C149 1.267 . S
O147 Zn140 1.965 . S
O147 C158 1.260 . S
O148 Zn141 1.969 . S
O148 C158 1.258 . S
C149 O146 1.267 . S
C149 O150 1.228 . S
O150 C149 1.228 . S
O151 Zn140 2.024 . S
O151 C142 1.058 . S
C152 O153 1.228 . S
C152 O154 1.267 . S
O153 C152 1.228 . S
O154 Zn141 1.969 . S
O154 C152 1.267 . S
O155 Zn141 1.965 . S
O155 C159 1.260 . S
O156 Zn140 1.969 . S
O156 C159 1.258 . S
O157 Zn141 2.024 . S
O157 C144 1.058 . S
C158 O147 1.260 . S
C158 O148 1.258 . S
C159 O155 1.260 . S
C159 O156 1.258 . S
Zn160 O166 1.969 . S
Zn160 O167 1.965 . S
Zn160 O171 2.024 . S
Zn160 O176 1.969 . S
Zn161 O168 1.969 . S
Zn161 O174 1.969 . S
Zn161 O175 1.965 . S
Zn161 O177 2.024 . S
C162 O163 1.229 . S
C162 O171 1.058 . S
O163 C162 1.229 . S
C164 O165 1.229 . S
C164 O177 1.058 . S
O165 C164 1.229 . S
O166 Zn160 1.969 . S
O166 C169 1.267 . S
O167 Zn160 1.965 . S
O167 C178 1.260 . S
O168 Zn161 1.969 . S
O168 C178 1.258 . S
C169 O166 1.267 . S
C169 O170 1.228 . S
O170 C169 1.228 . S
O171 Zn160 2.024 . S
O171 C162 1.058 . S
C172 O173 1.228 . S
C172 O174 1.267 . S
O173 C172 1.228 . S
O174 Zn161 1.969 . S
O174 C172 1.267 . S
O175 Zn161 1.965 . S
O175 C179 1.260 . S
O176 Zn160 1.969 . S
O176 C179 1.258 . S
O177 Zn161 2.024 . S
O177 C164 1.058 . S
C178 O167 1.260 . S
C178 O168 1.258 . S
C179 O175 1.260 . S
C179 O176 1.258 . S
Zn180 O186 1.969 . S
Zn180 O187 1.965 . S
Zn180 O191 2.024 . S
Zn180 O196 1.969 . S
Zn181 O188 1.969 . S
Zn181 O194 1.969 . S
Zn181 O195 1.965 . S
Zn181 O197 2.024 . S
C182 O183 1.224 1_545 S
C182 O191 1.058 . S
O183 C182 1.224 1_565 S
C184 O185 1.229 . S
C184 O197 1.058 . S
O185 C184 1.229 . S
O186 Zn180 1.969 . S
O186 C189 1.267 . S
O187 Zn180 1.965 . S
O187 C198 1.260 . S
O188 Zn181 1.969 . S
O188 C198 1.258 . S
C189 O186 1.267 . S
C189 O190 1.228 . S
O190 C189 1.228 . S
O191 Zn180 2.024 . S
O191 C182 1.058 . S
C192 O193 1.228 . S
C192 O194 1.267 . S
O193 C192 1.228 . S
O194 Zn181 1.969 . S
O194 C192 1.267 . S
O195 Zn181 1.965 . S
O195 C199 1.260 . S
O196 Zn180 1.969 . S
O196 C199 1.258 . S
O197 Zn181 2.024 . S
O197 C184 1.058 . S
C198 O187 1.260 . S
C198 O188 1.258 . S
C199 O195 1.260 . S
C199 O196 1.258 . S
Zn200 O206 1.969 . S
Zn200 O207 1.965 . S
Zn200 O211 2.024 . S
Zn200 O216 1.969 . S
Zn201 O208 1.969 . S
Zn201 O214 1.969 1_554 S
Zn201 O215 1.965 1_554 S
Zn201 O217 2.024 . S
C202 O203 1.229 . S
C202 O211 1.058 . S
O203 C202 1.229 . S
C204 O205 1.229 . S
C204 O217 1.058 . S
O205 C204 1.229 . S
O206 Zn200 1.969 . S
O206 C209 1.267 . S
O207 Zn200 1.965 . S
O207 C218 1.260 . S
O208 Zn201 1.969 . S
O208 C218 1.258 . S
C209 O206 1.267 . S
C209 O210 1.228 . S
O210 C209 1.228 . S
O211 Zn200 2.024 . S
O211 C202 1.058 . S
C212 O213 1.228 . S
C212 O214 1.267 . S
O213 C212 1.228 . S
O214 Zn201 1.969 1_556 S
O214 C212 1.267 . S
O215 Zn201 1.965 1_556 S
O215 C219 1.260 . S
O216 Zn200 1.969 . S
O216 C219 1.258 1_554 S
O217 Zn201 2.024 . S
O217 C204 1.058 . S
C218 O207 1.260 . S
C218 O208 1.258 . S
C219 O215 1.260 . S
C219 O216 1.258 1_556 S
Zn220 O226 1.969 . S
Zn220 O227 1.965 . S
Zn220 O231 2.024 . S
Zn220 O236 1.969 . S
Zn221 O228 1.969 . S
Zn221 O234 1.969 . S
Zn221 O235 1.965 . S
Zn221 O237 2.024 . S
C222 O223 1.224 1_565 S
C222 O231 1.058 . S
O223 C222 1.224 1_545 S
C224 O225 1.229 . S
C224 O237 1.058 . S
O225 C224 1.229 . S
O226 Zn220 1.969 . S
O226 C229 1.267 . S
O227 Zn220 1.965 . S
O227 C238 1.260 . S
O228 Zn221 1.969 . S
O228 C238 1.258 . S
C229 O226 1.267 . S
C229 O230 1.228 . S
O230 C229 1.228 . S
O231 Zn220 2.024 . S
O231 C222 1.058 . S
C232 O233 1.228 . S
C232 O234 1.267 . S
O233 C232 1.228 . S
O234 Zn221 1.969 . S
O234 C232 1.267 . S
O235 Zn221 1.965 . S
O235 C239 1.260 . S
O236 Zn220 1.969 . S
O236 C239 1.258 . S
O237 Zn221 2.024 . S
O237 C224 1.058 . S
C238 O227 1.260 . S
C238 O228 1.258 . S
C239 O235 1.260 . S
C239 O236 1.258 . S
Zn240 O246 1.969 . S
Zn240 O247 1.965 . S
Zn240 O251 2.024 . S
Zn240 O256 1.969 . S
Zn241 O248 1.969 . S
Zn241 O254 1.969 . S
Zn241 O255 1.965 . S
Zn241 O257 2.024 . S
C242 O243 1.229 . S
C242 O251 1.058 . S
O243 C242 1.229 . S
C244 O245 1.229 . S
C244 O257 1.058 . S
O245 C244 1.229 . S
O246 Zn240 1.969 . S
O246 C249 1.267 . S
O247 Zn240 1.965 . S
O247 C258 1.260 . S
O248 Zn241 1.969 . S
O248 C258 1.258 . S
C249 O246 1.267 . S
C249 O250 1.228 . S
O250 C249 1.228 . S
O251 Zn240 2.024 . S
O251 C242 1.058 . S
C252 O253 1.228 . S
C252 O254 1.267 . S
O253 C252 1.228 . S
O254 Zn241 1.969 . S
O254 C252 1.267 . S
O255 Zn241 1.965 . S
O255 C259 1.260 . S
O256 Zn240 1.969 . S
O256 C259 1.258 . S
O257 Zn241 2.024 . S
O257 C244 1.058 . S
C258 O247 1.260 . S
C258 O248 1.258 . S
C259 O255 1.260 . S
C259 O256 1.258 . S
Zn260 O266 1.969 . S
Zn260 O267 1.965 . S
Zn260 O271 2.024 . S
Zn260 O276 1.969 . S
Zn261 O268 1.969 . S
Zn261 O274 1.969 . S
Zn261 O275 1.965 . S
Zn261 O277 2.024 . S
C262 O263 1.229 . S
C262 O271 1.058 . S
O263 C262 1.229 . S
C264 O265 1.224 1_565 S
C264 O277 1.058 . S
O265 C264 1.224 1_545 S
O266 Zn260 1.969 . S
O266 C269 1.267 . S
O267 Zn260 1.965 . S
O267 C278 1.260 . S
O268 Zn261 1.969 . S
O268 C278 1.258 . S
C269 O266 1.267 . S
C269 O270 1.228 . S
O270 C269 1.228 . S
O271 Zn260 2.024 . S
O271 C262 1.058 . S
C272 O273 1.228 . S
C272 O274 1.267 . S
O273 C272 1.228 . S
O274 Zn261 1.969 . S
O274 C272 1.267 . S
O275 Zn261 1.965 . S
O275 C279 1.260 . S
O276 Zn260 1.969 . S
O276 C279 1.258 . S
O277 Zn261 2.024 . S
O277 C264 1.058 . S
C278 O267 1.260 . S
C278 O268 1.258 . S
C279 O275 1.260 . S
C279 O276 1.258 . S
Zn280 O286 1.969 1_556 S
Zn280 O287 1.965 1_556 S
Zn280 O291 2.024 . S
Zn280 O296 1.969 . S
Zn281 O288 1.969 . S
Zn281 O294 1.969 . S
Zn281 O295 1.965 . S
Zn281 O297 2.024 . S
C282 O283 1.229 . S
C282 O291 1.058 . S
O283 C282 1.229 . S
C284 O285 1.229 . S
C284 O297 1.058 . S
O285 C284 1.229 . S
O286 Zn280 1.969 1_554 S
O286 C289 1.267 . S
O287 Zn280 1.965 1_554 S
O287 C298 1.260 . S
O288 Zn281 1.969 . S
O288 C298 1.258 1_556 S
C289 O286 1.267 . S
C289 O290 1.228 . S
O290 C289 1.228 . S
O291 Zn280 2.024 . S
O291 C282 1.058 . S
C292 O293 1.228 . S
C292 O294 1.267 . S
O293 C292 1.228 . S
O294 Zn281 1.969 . S
O294 C292 1.267 . S
O295 Zn281 1.965 . S
O295 C299 1.260 . S
O296 Zn280 1.969 . S
O296 C299 1.258 . S
O297 Zn281 2.024 . S
O297 C284 1.058 . S
C298 O287 1.260 . S
C298 O288 1.258 1_554 S
C299 O295 1.260 . S
C299 O296 1.258 . S
Zn300 O306 1.969 . S
Zn300 O307 1.965 . S
Zn300 O311 2.024 . S
Zn300 O316 1.969 . S
Zn301 O308 1.969 . S
Zn301 O314 1.969 . S
Zn301 O315 1.965 . S
Zn301 O317 2.024 . S
C302 O303 1.229 . S
C302 O311 1.058 . S
O303 C302 1.229 . S
C304 O305 1.224 1_545 S
C304 O317 1.058 . S
O305 C304 1.224 1_565 S
O306 Zn300 1.969 . S
O306 C309 1.267 . S
O307 Zn300 1.965 . S
O307 C318 1.260 . S
O308 Zn301 1.969 . S
O308 C318 1.258 . S
C309 O306 1.267 . S
C309 O310 1.228 . S
O310 C309 1.228 . S
O311 Zn300 2.024 . S
O311 C302 1.058 . S
C312 O313 1.228 . S
C312 O314 1.267 . S
O313 C312 1.228 . S
O314 Zn301 1.969 . S
O314 C312 1.267 . S
O315 Zn301 1.965 . S
O315 C319 1.260 . S
O316 Zn300 1.969 . S
O316 C319 1.258 . S
O317 Zn301 2.024 . S
O317 C304 1.058 . S
C318 O307 1.260 . S
C318 O308 1.258 . S
C319 O315 1.260 . S
C319 O316 1.258 . S
C320 C321 1.387 . S
C320 H324 0.964 . S
C320 C329 1.390 . S
C321 C320 1.387 . S
C321 C323 1.387 . S
H322 C329 0.964 . S
C323 C321 1.387 . S
C323 C325 1.390 . S
C323 H327 0.950 . S
H324 C320 0.964 . S
C325 C323 1.390 . S
C325 C326 1.387 . S
C325 H328 0.950 . S
C326 C325 1.387 . S
C326 C329 1.387 . S
H327 C323 0.950 . S
H328 C325 0.950 . S
C329 C320 1.390 . S
C329 H322 0.964 . S
C329 C326 1.387 . S
C330 C331 1.387 . S
C330 H334 0.950 . S
C330 C339 1.390 . S
C331 C330 1.387 . S
C331 C333 1.387 . S
H332 C339 0.950 . S
C333 C331 1.387 . S
C333 C335 1.390 . S
C333 H337 0.950 . S
H334 C330 0.950 . S
C335 C333 1.390 . S
C335 C336 1.387 . S
C335 H338 0.950 . S
C336 C335 1.387 . S
C336 C339 1.387 . S
H337 C333 0.950 . S
H338 C335 0.950 . S
C339 C330 1.390 . S
C339 H332 0.950 . S
C339 C336 1.387 . S
C340 C341 1.387 . S
C340 H344 0.950 . S
C340 C349 1.390 1_455 S
C341 C340 1.387 . S
C341 C343 1.387 . S
H342 C349 0.950 . S
C343 C341 1.387 . S
C343 C345 1.390 1_455 S
C343 H347 0.950 . S
H344 C340 0.950 . S
C345 C343 1.390 1_655 S
C345 C346 1.387 . S
C345 H348 0.950 . S
C346 C345 1.387 . S
C346 C349 1.387 . S
H347 C343 0.950 . S
H348 C345 0.950 . S
C349 C340 1.390 1_655 S
C349 H342 0.950 . S
C349 C346 1.387 . S
C350 C351 1.387 . S
C350 H354 0.950 . S
C350 C359 1.390 1_655 S
C351 C350 1.387 . S
C351 C353 1.387 . S
H352 C359 0.950 . S
C353 C351 1.387 . S
C353 C355 1.390 1_655 S
C353 H357 0.950 . S
H354 C350 0.950 . S
C355 C353 1.390 1_455 S
C355 C356 1.387 . S
C355 H358 0.950 . S
C356 C355 1.387 . S
C356 C359 1.387 . S
H357 C353 0.950 . S
H358 C355 0.950 . S
C359 C350 1.390 1_455 S
C359 H352 0.950 . S
C359 C356 1.387 . S
C360 C361 1.387 . S
C360 H364 0.964 . S
C360 C369 1.390 . S
C361 C360 1.387 . S
C361 C363 1.387 . S
H362 C369 0.964 . S
C363 C361 1.387 . S
C363 C365 1.390 . S
C363 H367 0.950 . S
H364 C360 0.964 . S
C365 C363 1.390 . S
C365 C366 1.387 . S
C365 H368 0.950 . S
C366 C365 1.387 . S
C366 C369 1.387 . S
H367 C363 0.950 . S
H368 C365 0.950 . S
C369 C360 1.390 . S
C369 H362 0.964 . S
C369 C366 1.387 . S
C370 C371 1.387 . S
C370 H374 0.950 . S
C370 C379 1.390 . S
C371 C370 1.387 . S
C371 C373 1.387 . S
H372 C379 0.950 . S
C373 C371 1.387 . S
C373 C375 1.390 . S
C373 H377 0.950 . S
H374 C370 0.950 . S
C375 C373 1.390 . S
C375 C376 1.387 . S
C375 H378 0.950 . S
C376 C375 1.387 . S
C376 C379 1.387 . S
H377 C373 0.950 . S
H378 C375 0.950 . S
C379 C370 1.390 . S
C379 H372 0.950 . S
C379 C376 1.387 . S
C380 C381 1.387 . S
C380 H384 0.950 . S
C380 C389 1.390 1_655 S
C381 C380 1.387 . S
C381 C383 1.387 . S
H382 C389 0.950 . S
C383 C381 1.387 . S
C383 C385 1.390 1_655 S
C383 H387 0.950 . S
H384 C380 0.950 . S
C385 C383 1.390 1_455 S
C385 C386 1.387 . S
C385 H388 0.950 . S
C386 C385 1.387 . S
C386 C389 1.387 . S
H387 C383 0.950 . S
H388 C385 0.950 . S
C389 C380 1.390 1_455 S
C389 H382 0.950 . S
C389 C386 1.387 . S
C390 C391 1.387 . S
C390 H394 0.950 . S
C390 C399 1.390 1_455 S
C391 C390 1.387 . S
C391 C393 1.387 . S
H392 C399 0.950 . S
C393 C391 1.387 . S
C393 C395 1.390 1_455 S
C393 H397 0.950 . S
H394 C390 0.950 . S
C395 C393 1.390 1_655 S
C395 C396 1.387 . S
C395 H398 0.950 . S
C396 C395 1.387 . S
C396 C399 1.387 . S
H397 C393 0.950 . S
H398 C395 0.950 . S
C399 C390 1.390 1_655 S
C399 H392 0.950 . S
C399 C396 1.387 . S
C400 C401 1.387 . S
C400 H404 0.950 . S
C400 C409 1.390 . S
C401 C400 1.387 . S
C401 C403 1.387 . S
H402 C409 0.950 . S
C403 C401 1.387 . S
C403 C405 1.390 . S
C403 H407 0.950 . S
H404 C400 0.950 . S
C405 C403 1.390 . S
C405 C406 1.387 . S
C405 H408 0.950 . S
C406 C405 1.387 . S
C406 C409 1.387 . S
H407 C403 0.950 . S
H408 C405 0.950 . S
C409 C400 1.390 . S
C409 H402 0.950 . S
C409 C406 1.387 . S
C410 C411 1.387 . S
C410 H414 0.950 . S
C410 C419 1.390 . S
C411 C410 1.387 . S
C411 C413 1.387 . S
H412 C419 0.950 . S
C413 C411 1.387 . S
C413 C415 1.390 . S
C413 H417 0.950 . S
H414 C410 0.950 . S
C415 C413 1.390 . S
C415 C416 1.387 . S
C415 H418 0.950 . S
C416 C415 1.387 . S
C416 C419 1.387 . S
H417 C413 0.950 . S
H418 C415 0.950 . S
C419 C410 1.390 . S
C419 H412 0.950 . S
C419 C416 1.387 . S
C420 C421 1.387 . S
C420 H424 0.950 . S
C420 C429 1.390 . S
C421 C420 1.387 . S
C421 C423 1.387 . S
H422 C429 0.950 . S
C423 C421 1.387 . S
C423 C425 1.390 . S
C423 H427 0.950 . S
H424 C420 0.950 . S
C425 C423 1.390 . S
C425 C426 1.387 . S
C425 H428 0.950 . S
C426 C425 1.387 . S
C426 C429 1.387 . S
H427 C423 0.950 . S
H428 C425 0.950 . S
C429 C420 1.390 . S
C429 H422 0.950 . S
C429 C426 1.387 . S
C430 C431 1.387 . S
C430 H434 0.950 . S
C430 C439 1.390 . S
C431 C430 1.387 . S
C431 C433 1.387 . S
H432 C439 0.950 . S
C433 C431 1.387 . S
C433 C435 1.390 . S
C433 H437 0.950 . S
H434 C430 0.950 . S
C435 C433 1.390 . S
C435 C436 1.387 . S
C435 H438 0.950 . S
C436 C435 1.387 . S
C436 C439 1.387 . S
H437 C433 0.950 . S
H438 C435 0.950 . S
C439 C430 1.390 . S
C439 H432 0.950 . S
C439 C436 1.387 . S
C440 C441 1.387 . S
C440 H444 0.950 . S
C440 C449 1.390 . S
C441 C440 1.387 . S
C441 C443 1.387 . S
H442 C449 0.950 . S
C443 C441 1.387 . S
C443 C445 1.390 . S
C443 H447 0.950 . S
H444 C440 0.950 . S
C445 C443 1.390 . S
C445 C446 1.387 . S
C445 H448 0.950 . S
C446 C445 1.387 . S
C446 C449 1.387 . S
H447 C443 0.950 . S
H448 C445 0.950 . S
C449 C440 1.390 . S
C449 H442 0.950 . S
C449 C446 1.387 . S
C450 C451 1.387 . S
C450 H454 0.950 . S
C450 C459 1.390 . S
C451 C450 1.387 . S
C451 C453 1.387 . S
H452 C459 0.950 . S
C453 C451 1.387 . S
C453 C455 1.390 . S
C453 H457 0.950 . S
H454 C450 0.950 . S
C455 C453 1.390 . S
C455 C456 1.387 . S
C455 H458 0.950 . S
C456 C455 1.387 . S
C456 C459 1.387 . S
H457 C453 0.950 . S
H458 C455 0.950 . S
C459 C450 1.390 . S
C459 H452 0.950 . S
C459 C456 1.387 . S
C460 C461 1.387 . S
C460 H464 0.950 . S
C460 C469 1.390 . S
C461 C460 1.387 . S
C461 C463 1.387 . S
H462 C469 0.950 . S
C463 C461 1.387 . S
C463 C465 1.390 . S
C463 H467 0.950 . S
H464 C460 0.950 . S
C465 C463 1.390 . S
C465 C466 1.387 . S
C465 H468 0.950 . S
C466 C465 1.387 . S
C466 C469 1.387 . S
H467 C463 0.950 . S
H468 C465 0.950 . S
C469 C460 1.390 . S
C469 H462 0.950 . S
C469 C466 1.387 . S
C470 C471 1.387 . S
C470 H474 0.950 . S
C470 C479 1.390 . S
C471 C470 1.387 . S
C471 C473 1.387 . S
H472 C479 0.950 . S
C473 C471 1.387 . S
C473 C475 1.390 . S
C473 H477 0.950 . S
H474 C470 0.950 . S
C475 C473 1.390 . S
C475 C476 1.387 . S
C475 H478 0.950 . S
C476 C475 1.387 . S
C476 C479 1.387 . S
H477 C473 0.950 . S
H478 C475 0.950 . S
C479 C470 1.390 . S
C479 H472 0.950 . S
C479 C476 1.387 . S
C480 C481 1.387 . S
C480 H484 0.950 . S
C480 C489 1.390 . S
C481 C480 1.387 . S
C481 C483 1.387 . S
H482 C489 0.950 . S
C483 C481 1.387 . S
C483 C485 1.390 . S
C483 H487 0.950 . S
H484 C480 0.950 . S
C485 C483 1.390 . S
C485 C486 1.387 . S
C485 H488 0.950 . S
C486 C485 1.387 . S
C486 C489 1.387 . S
H487 C483 0.950 . S
H488 C485 0.950 . S
C489 C480 1.390 . S
C489 H482 0.950 . S
C489 C486 1.387 . S
C490 C491 1.387 . S
C490 H494 0.950 . S
C490 C499 1.390 . S
C491 C490 1.387 . S
C491 C493 1.387 . S
H492 C499 0.950 . S
C493 C491 1.387 . S
C493 C495 1.390 . S
C493 H497 0.950 . S
H494 C490 0.950 . S
C495 C493 1.390 . S
C495 C496 1.387 . S
C495 H498 0.950 . S
C496 C495 1.387 . S
C496 C499 1.387 . S
H497 C493 0.950 . S
H498 C495 0.950 . S
C499 C490 1.390 . S
C499 H492 0.950 . S
C499 C496 1.387 . S
C500 C501 1.387 . S
C500 H504 0.950 1_556 S
C500 C509 1.390 . S
C501 C500 1.387 . S
C501 C503 1.387 . S
H502 C509 0.950 . S
C503 C501 1.387 . S
C503 C505 1.390 . S
C503 H507 0.950 . S
H504 C500 0.950 1_554 S
C505 C503 1.390 . S
C505 C506 1.387 . S
C505 H508 0.950 . S
C506 C505 1.387 . S
C506 C509 1.387 . S
H507 C503 0.950 . S
H508 C505 0.950 . S
C509 C500 1.390 . S
C509 H502 0.950 . S
C509 C506 1.387 . S
C510 C511 1.387 . S
C510 H514 0.950 . S
C510 C519 1.390 . S
C511 C510 1.387 . S
C511 C513 1.387 . S
H512 C519 0.950 . S
C513 C511 1.387 . S
C513 C515 1.390 . S
C513 H517 0.950 . S
H514 C510 0.950 . S
C515 C513 1.390 . S
C515 C516 1.387 . S
C515 H518 0.950 . S
C516 C515 1.387 . S
C516 C519 1.387 . S
H517 C513 0.950 . S
H518 C515 0.950 . S
C519 C510 1.390 . S
C519 H512 0.950 . S
C519 C516 1.387 . S
C520 C521 1.387 . S
C520 H524 0.950 . S
C520 C529 1.390 . S
C521 C520 1.387 . S
C521 C523 1.387 . S
H522 C529 0.950 . S
C523 C521 1.387 . S
C523 C525 1.390 . S
C523 H527 0.950 . S
H524 C520 0.950 . S
C525 C523 1.390 . S
C525 C526 1.387 . S
C525 H528 0.950 . S
C526 C525 1.387 . S
C526 C529 1.387 . S
H527 C523 0.950 . S
H528 C525 0.950 . S
C529 C520 1.390 . S
C529 H522 0.950 . S
C529 C526 1.387 . S
C530 C531 1.387 . S
C530 H534 0.950 . S
C530 C539 1.390 . S
C531 C530 1.387 . S
C531 C533 1.387 . S
H532 C539 0.950 . S
C533 C531 1.387 . S
C533 C535 1.390 . S
C533 H537 0.950 . S
H534 C530 0.950 . S
C535 C533 1.390 . S
C535 C536 1.387 . S
C535 H538 0.950 . S
C536 C535 1.387 . S
C536 C539 1.387 . S
H537 C533 0.950 . S
H538 C535 0.950 . S
C539 C530 1.390 . S
C539 H532 0.950 . S
C539 C536 1.387 . S
C540 C541 1.387 . S
C540 H544 0.950 . S
C540 C549 1.390 . S
C541 C540 1.387 . S
C541 C543 1.387 . S
H542 C549 0.950 . S
C543 C541 1.387 . S
C543 C545 1.390 . S
C543 H547 0.950 . S
H544 C540 0.950 . S
C545 C543 1.390 . S
C545 C546 1.387 . S
C545 H548 0.950 . S
C546 C545 1.387 . S
C546 C549 1.387 . S
H547 C543 0.950 . S
H548 C545 0.950 . S
C549 C540 1.390 . S
C549 H542 0.950 . S
C549 C546 1.387 . S
C550 C551 1.387 . S
C550 H554 0.950 . S
C550 C559 1.390 . S
C551 C550 1.387 . S
C551 C553 1.387 . S
H552 C559 0.950 . S
C553 C551 1.387 . S
C553 C555 1.390 . S
C553 H557 0.950 . S
H554 C550 0.950 . S
C555 C553 1.390 . S
C555 C556 1.387 . S
C555 H558 0.950 . S
C556 C555 1.387 . S
C556 C559 1.387 . S
H557 C553 0.950 . S
H558 C555 0.950 . S
C559 C550 1.390 . S
C559 H552 0.950 . S
C559 C556 1.387 . S
C560 C561 1.387 . S
C560 H564 0.950 . S
C560 C569 1.390 . S
C561 C560 1.387 . S
C561 C563 1.387 . S
H562 C569 0.950 . S
C563 C561 1.387 . S
C563 C565 1.390 . S
C563 H567 0.950 . S
H564 C560 0.950 . S
C565 C563 1.390 . S
C565 C566 1.387 . S
C565 H568 0.950 . S
C566 C565 1.387 . S
C566 C569 1.387 . S
H567 C563 0.950 . S
H568 C565 0.950 . S
C569 C560 1.390 . S
C569 H562 0.950 . S
C569 C566 1.387 . S
C570 C571 1.387 . S
C570 H574 0.950 . S
C570 C579 1.390 . S
C571 C570 1.387 . S
C571 C573 1.387 . S
H572 C579 0.950 . S
C573 C571 1.387 . S
C573 C575 1.390 . S
C573 H577 0.950 . S
H574 C570 0.950 . S
C575 C573 1.390 . S
C575 C576 1.387 . S
C575 H578 0.950 . S
C576 C575 1.387 . S
C576 C579 1.387 . S
H577 C573 0.950 . S
H578 C575 0.950 . S
C579 C570 1.390 . S
C579 H572 0.950 . S
C579 C576 1.387 . S
C580 C581 1.387 1_455 S
C580 H584 0.950 . S
C580 C589 1.390 . S
C581 C580 1.387 1_655 S
C581 C583 1.387 . S
H582 C589 0.950 . S
C583 C581 1.387 . S
C583 C585 1.390 1_655 S
C583 H587 0.950 . S
H584 C580 0.950 . S
C585 C583 1.390 1_455 S
C585 C586 1.387 . S
C585 H588 0.950 . S
C586 C585 1.387 . S
C586 C589 1.387 . S
H587 C583 0.950 . S
H588 C585 0.950 . S
C589 C580 1.390 . S
C589 H582 0.950 . S
C589 C586 1.387 . S
C590 C591 1.387 . S
C590 H594 0.950 . S
C590 C599 1.390 . S
C591 C590 1.387 . S
C591 C593 1.387 . S
H592 C599 0.950 . S
C593 C591 1.387 . S
C593 C595 1.390 . S
C593 H597 0.950 . S
H594 C590 0.950 . S
C595 C593 1.390 . S
C595 C596 1.387 . S
C595 H598 0.950 . S
C596 C595 1.387 . S
C596 C599 1.387 . S
H597 C593 0.950 . S
H598 C595 0.950 . S
C599 C590 1.390 . S
C599 H592 0.950 . S
C599 C596 1.387 . S
C600 C601 1.387 . S
C600 H604 0.950 . S
C600 C609 1.390 . S
C601 C600 1.387 . S
C601 C603 1.387 . S
H602 C609 0.950 . S
C603 C601 1.387 . S
C603 C605 1.390 . S
C603 H607 0.950 . S
H604 C600 0.950 . S
C605 C603 1.390 . S
C605 C606 1.387 . S
C605 H608 0.950 . S
C606 C605 1.387 . S
C606 C609 1.387 . S
H607 C603 0.950 . S
H608 C605 0.950 . S
C609 C600 1.390 . S
C609 H602 0.950 . S
C609 C606 1.387 . S
C610 C611 1.387 . S
C610 H614 0.950 . S
C610 C619 1.390 . S
C611 C610 1.387 . S
C611 C613 1.387 . S
H612 C619 0.950 . S
C613 C611 1.387 . S
C613 C615 1.390 . S
C613 H617 0.950 . S
H614 C610 0.950 . S
C615 C613 1.390 . S
C615 C616 1.387 . S
C615 H618 0.950 1_556 S
C616 C615 1.387 . S
C616 C619 1.387 . S
H617 C613 0.950 . S
H618 C615 0.950 1_554 S
C619 C610 1.390 . S
C619 H612 0.950 . S
C619 C616 1.387 . S
C620 C621 1.387 . S
C620 H624 0.950 . S
C620 C629 1.390 1_455 S
C621 C620 1.387 . S
C621 C623 1.387 1_455 S
H622 C629 0.950 . S
C623 C621 1.387 1_655 S
C623 C625 1.390 . S
C623 H627 0.950 . S
H624 C620 0.950 . S
C625 C623 1.390 . S
C625 C626 1.387 . S
C625 H628 0.950 . S
C626 C625 1.387 . S
C626 C629 1.387 . S
H627 C623 0.950 . S
H628 C625 0.950 . S
C629 C620 1.390 1_655 S
C629 H622 0.950 . S
C629 C626 1.387 . S
C630 C631 1.387 . S
C630 H634 0.950 . S
C630 C639 1.390 . S
C631 C630 1.387 . S
C631 C633 1.387 . S
H632 C639 0.950 . S
C633 C631 1.387 . S
C633 C635 1.390 . S
C633 H637 0.950 . S
H634 C630 0.950 . S
C635 C633 1.390 . S
C635 C636 1.387 . S
C635 H638 0.950 . S
C636 C635 1.387 . S
C636 C639 1.387 . S
H637 C633 0.950 . S
H638 C635 0.950 . S
C639 C630 1.390 . S
C639 H632 0.950 . S
C639 C636 1.387 . S
C640 C641 1.387 . S
C640 H644 0.950 . S
C640 C649 1.397 . S
C641 C640 1.387 . S
C641 C643 1.387 . S
H642 C649 0.947 1_455 S
C643 C641 1.387 . S
C643 C645 1.390 1_655 S
C643 H647 0.950 . S
H644 C640 0.950 . S
C645 C643 1.390 1_455 S
C645 C646 1.387 . S
C645 H648 0.950 . S
C646 C645 1.387 . S
C646 C649 1.384 1_455 S
H647 C643 0.950 . S
H648 C645 0.950 . S
C649 C640 1.397 . S
C649 H642 0.947 1_655 S
C649 C646 1.384 1_655 S
C650 C651 1.387 . S
C650 H654 0.950 . S
C650 C659 1.390 . S
C651 C650 1.387 . S
C651 C653 1.387 . S
H652 C659 0.950 . S
C653 C651 1.387 . S
C653 C655 1.390 . S
C653 H657 0.950 . S
H654 C650 0.950 . S
C655 C653 1.390 . S
C655 C656 1.387 . S
C655 H658 0.950 . S
C656 C655 1.387 . S
C656 C659 1.387 . S
H657 C653 0.950 . S
H658 C655 0.950 . S
C659 C650 1.390 . S
C659 H652 0.950 . S
C659 C656 1.387 . S
C660 C661 1.387 . S
C660 H664 0.950 . S
C660 C669 1.390 . S
C661 C660 1.387 . S
C661 C663 1.387 . S
H662 C669 0.950 . S
C663 C661 1.387 . S
C663 C665 1.390 . S
C663 H667 0.950 . S
H664 C660 0.950 . S
C665 C663 1.390 . S
C665 C666 1.387 . S
C665 H668 0.950 . S
C666 C665 1.387 . S
C666 C669 1.387 . S
H667 C663 0.950 . S
H668 C665 0.950 . S
C669 C660 1.390 . S
C669 H662 0.950 . S
C669 C666 1.387 . S
C670 C671 1.387 . S
C670 H674 0.950 . S
C670 C679 1.390 . S
C671 C670 1.387 . S
C671 C673 1.387 . S
H672 C679 0.950 . S
C673 C671 1.387 . S
C673 C675 1.390 . S
C673 H677 0.950 . S
H674 C670 0.950 . S
C675 C673 1.390 . S
C675 C676 1.387 . S
C675 H678 0.950 . S
C676 C675 1.387 . S
C676 C679 1.387 . S
H677 C673 0.950 . S
H678 C675 0.950 . S
C679 C670 1.390 . S
C679 H672 0.950 . S
C679 C676 1.387 . S
C680 C681 1.387 . S
C680 H684 0.950 . S
C680 C689 1.390 1_455 S
C681 C680 1.387 . S
C681 C683 1.387 . S
H682 C689 0.950 . S
C683 C681 1.387 . S
C683 C685 1.390 . S
C683 H687 0.950 . S
H684 C680 0.950 . S
C685 C683 1.390 . S
C685 C686 1.387 1_455 S
C685 H688 0.943 1_455 S
C686 C685 1.387 1_655 S
C686 C689 1.387 . S
H687 C683 0.950 . S
H688 C685 0.943 1_655 S
C689 C680 1.390 1_655 S
C689 H682 0.950 . S
C689 C686 1.387 . S
C690 C691 1.387 . S
C690 H694 0.950 . S
C690 C699 1.390 . S
C691 C690 1.387 . S
C691 C693 1.387 . S
H692 C699 0.950 . S
C693 C691 1.387 . S
C693 C695 1.390 . S
C693 H697 0.950 . S
H694 C690 0.950 . S
C695 C693 1.390 . S
C695 C696 1.387 . S
C695 H698 0.950 . S
C696 C695 1.387 . S
C696 C699 1.387 . S
H697 C693 0.950 . S
H698 C695 0.950 . S
C699 C690 1.390 . S
C699 H692 0.950 . S
C699 C696 1.387 . S
C700 C701 1.387 . S
C700 H704 0.950 . S
C700 C709 1.390 . S
C701 C700 1.387 . S
C701 C703 1.387 . S
H702 C709 0.950 . S
C703 C701 1.387 . S
C703 C705 1.390 . S
C703 H707 0.950 . S
H704 C700 0.950 . S
C705 C703 1.390 . S
C705 C706 1.387 . S
C705 H708 0.950 . S
C706 C705 1.387 . S
C706 C709 1.387 . S
H707 C703 0.950 . S
H708 C705 0.950 . S
C709 C700 1.390 . S
C709 H702 0.950 . S
C709 C706 1.387 . S
C710 C711 1.387 . S
C710 H714 0.950 . S
C710 C719 1.390 . S
C711 C710 1.387 . S
C711 C713 1.387 . S
H712 C719 0.950 . S
C713 C711 1.387 . S
C713 C715 1.390 . S
C713 H717 0.950 . S
H714 C710 0.950 . S
C715 C713 1.390 . S
C715 C716 1.387 . S
C715 H718 0.950 . S
C716 C715 1.387 . S
C716 C719 1.387 . S
H717 C713 0.950 . S
H718 C715 0.950 . S
C719 C710 1.390 . S
C719 H712 0.950 . S
C719 C716 1.387 . S
C720 C721 1.387 . S
C720 H724 0.950 . S
C720 C729 1.390 . S
C721 C720 1.387 . S
C721 C723 1.387 . S
H722 C729 0.950 . S
C723 C721 1.387 . S
C723 C725 1.390 . S
C723 H727 0.950 . S
H724 C720 0.950 . S
C725 C723 1.390 . S
C725 C726 1.387 . S
C725 H728 0.950 . S
C726 C725 1.387 . S
C726 C729 1.387 . S
H727 C723 0.950 . S
H728 C725 0.950 . S
C729 C720 1.390 . S
C729 H722 0.950 . S
C729 C726 1.387 . S
C730 C731 1.387 . S
C730 H734 0.950 . S
C730 C739 1.390 . S
C731 C730 1.387 . S
C731 C733 1.387 . S
H732 C739 0.950 . S
C733 C731 1.387 . S
C733 C735 1.390 . S
C733 H737 0.950 . S
H734 C730 0.950 . S
C735 C733 1.390 . S
C735 C736 1.387 . S
C735 H738 0.950 . S
C736 C735 1.387 . S
C736 C739 1.387 . S
H737 C733 0.950 . S
H738 C735 0.950 . S
C739 C730 1.390 . S
C739 H732 0.950 . S
C739 C736 1.387 . S
C740 C741 1.387 . S
C740 H744 0.950 . S
C740 C749 1.390 . S
C741 C740 1.387 . S
C741 C743 1.387 . S
H742 C749 0.950 . S
C743 C741 1.387 . S
C743 C745 1.390 . S
C743 H747 0.950 . S
H744 C740 0.950 . S
C745 C743 1.390 . S
C745 C746 1.387 . S
C745 H748 0.950 . S
C746 C745 1.387 . S
C746 C749 1.387 . S
H747 C743 0.950 . S
H748 C745 0.950 . S
C749 C740 1.390 . S
C749 H742 0.950 . S
C749 C746 1.387 . S
C750 C751 1.387 1_655 S
C750 H754 0.950 . S
C750 C759 1.390 . S
C751 C750 1.387 1_455 S
C751 C753 1.387 1_554 S
H752 C759 0.950 . S
C753 C751 1.387 1_556 S
C753 C755 1.390 . S
C753 H757 0.950 . S
H754 C750 0.950 . S
C755 C753 1.390 . S
C755 C756 1.387 1_455 S
C755 H758 0.950 . S
C756 C755 1.387 1_655 S
C756 C759 1.387 1_556 S
H757 C753 0.950 . S
H758 C755 0.950 . S
C759 C750 1.390 . S
C759 H752 0.950 . S
C759 C756 1.387 1_554 S
C760 C761 1.387 . S
C760 H764 0.950 . S
C760 C769 1.390 . S
C761 C760 1.387 . S
C761 C763 1.387 . S
H762 C769 0.950 . S
C763 C761 1.387 . S
C763 C765 1.390 . S
C763 H767 0.950 . S
H764 C760 0.950 . S
C765 C763 1.390 . S
C765 C766 1.387 . S
C765 H768 0.950 . S
C766 C765 1.387 . S
C766 C769 1.387 . S
H767 C763 0.950 . S
H768 C765 0.950 . S
C769 C760 1.390 . S
C769 H762 0.950 . S
C769 C766 1.387 . S
C770 C771 1.387 . S
C770 H774 0.950 . S
C770 C779 1.390 . S
C771 C770 1.387 . S
C771 C773 1.387 . S
H772 C779 0.950 . S
C773 C771 1.387 . S
C773 C775 1.390 . S
C773 H777 0.950 . S
H774 C770 0.950 . S
C775 C773 1.390 . S
C775 C776 1.387 . S
C775 H778 0.950 . S
C776 C775 1.387 . S
C776 C779 1.387 . S
H777 C773 0.950 . S
H778 C775 0.950 . S
C779 C770 1.390 . S
C779 H772 0.950 . S
C779 C776 1.387 . S
C780 C781 1.387 1_565 S
C780 H784 0.950 . S
C780 C789 1.390 1_455 S
C781 C780 1.387 1_545 S
C781 C783 1.387 1_556 S
H782 C789 0.950 . S
C783 C781 1.387 1_554 S
C783 C785 1.390 1_455 S
C783 H787 0.950 . S
H784 C780 0.950 . S
C785 C783 1.390 1_655 S
C785 C786 1.387 1_545 S
C785 H788 0.950 . S
C786 C785 1.387 1_565 S
C786 C789 1.387 1_554 S
H787 C783 0.950 . S
H788 C785 0.950 . S
C789 C780 1.390 1_655 S
C789 H782 0.950 . S
C789 C786 1.387 1_556 S
C790 C791 1.393 . S
C790 H794 0.950 . S
C790 C799 1.385 1_545 S
C791 C790 1.393 . S
C791 C793 1.387 . S
H792 C799 0.950 . S
C793 C791 1.387 . S
C793 C795 1.385 1_545 S
C793 H797 0.950 . S
H794 C790 0.950 . S
C795 C793 1.385 1_565 S
C795 C796 1.393 . S
C795 H798 0.950 . S
C796 C795 1.393 . S
C796 C799 1.387 . S
H797 C793 0.950 . S
H798 C795 0.950 . S
C799 C790 1.385 1_565 S
C799 H792 0.950 . S
C799 C796 1.387 . S
C321 C4 1.389 . S
C326 C204 1.389 . S
C331 C24 1.388 . S
C336 C224 1.388 . S
C341 C44 1.388 . S
C346 C164 1.388 . S
C351 C64 1.389 . S
C356 C184 1.389 . S
C361 C82 1.388 . S
C366 C282 1.388 . S
C371 C102 1.388 . S
C376 C302 1.388 . S
C381 C122 1.388 . S
C386 C242 1.388 . S
C391 C142 1.388 . S
C396 C262 1.388 . S
C401 C198 2.060 . S
C406 C2 2.033 1_556 S
C411 C218 2.059 . S
C416 C22 2.035 . S
C421 C238 2.060 . S
C426 C42 2.033 . S
C431 C178 2.060 . S
C436 C62 2.033 . S
C441 C84 2.033 1_554 S
C446 C279 2.060 . S
C451 C299 2.060 . S
C456 C104 2.033 . S
C461 C319 2.059 . S
C466 C124 2.035 . S
C471 C259 2.060 . S
C476 C144 2.034 . S
C481 C38 2.059 . S
C486 C162 2.034 . S
C491 C182 2.034 1_565 S
C496 C58 2.059 . S
C501 C202 2.035 1_556 S
C506 C78 2.059 . S
C511 C222 2.033 1_545 S
C516 C18 2.061 . S
C521 C244 2.034 . S
C526 C119 2.060 . S
C531 C139 2.060 . S
C536 C264 2.034 1_545 S
C541 C159 2.059 . S
C546 C284 2.035 1_554 S
C551 C304 2.035 1_565 S
C556 C99 2.060 . S
C561 C12 1.187 . S
C566 C318 1.211 . S
C571 C32 1.185 . S
C576 C98 1.212 . S
C581 C278 1.211 . S
C586 C52 1.188 . S
C591 C138 1.212 . S
C596 C72 1.185 . S
C601 C89 1.186 . S
C606 C239 1.212 . S
C611 C109 1.188 . S
C616 C19 1.211 . S
C621 C199 1.212 . S
C626 C129 1.186 . S
C631 C59 1.212 . S
C636 C149 1.186 . S
C641 C172 1.185 . S
C646 C158 1.212 . S
C651 C192 1.188 . S
C656 C258 1.211 . S
C661 C118 1.210 . S
C666 C212 1.189 . S
C671 C298 1.211 . S
C676 C232 1.187 . S
C681 C249 1.188 . S
C686 C79 1.210 . S
C691 C269 1.188 . S
C696 C179 1.211 . S
C701 C289 1.185 . S
C706 C39 1.212 . S
C711 C219 1.211 . S
C716 C309 1.186 . S
C721 C9 1.696 . S
C726 C252 1.696 . S
C731 C29 1.696 . S
C736 C112 1.696 . S
C741 C49 1.696 . S
C746 C292 1.696 . S
C751 C152 1.696 . S
C756 C69 1.696 . S
C761 C92 1.696 . S
C766 C169 1.696 . S
C771 C209 1.695 . S
C776 C132 1.695 . S
C781 C189 1.696 . S
C786 C272 1.696 . S
C791 C312 1.696 . S
C796 C229 1.696 . S
