# Generated by pormake.
# Topology irl, (4)-cn, num edge types: 1
# Building blocks:
#     Node 0, Type 0, BuildingBlock: TATPOV_clean_sbu_0, # of connection points: 4
#     Node 1, Type 0, BuildingBlock: TATPOV_clean_sbu_0, # of connection points: 4
#     Node 2, Type 0, BuildingBlock: TATPOV_clean_sbu_0, # of connection points: 4
#     Node 3, Type 0, BuildingBlock: TATPOV_clean_sbu_0, # of connection points: 4
#     Node 4, Type 0, BuildingBlock: TATPOV_clean_sbu_0, # of connection points: 4
#     Node 5, Type 0, BuildingBlock: TATPOV_clean_sbu_0, # of connection points: 4
#     Node 6, Type 0, BuildingBlock: TATPOV_clean_sbu_0, # of connection points: 4
#     Node 7, Type 0, BuildingBlock: TATPOV_clean_sbu_0, # of connection points: 4
#     Edge 8, Type (0, 0), BuildingBlock: AJUNOK_clean_linker_0, # of connection points: 2
#     Edge 9, Type (0, 0), BuildingBlock: AJUNOK_clean_linker_0, # of connection points: 2
#     Edge 10, Type (0, 0), BuildingBlock: AJUNOK_clean_linker_0, # of connection points: 2
#     Edge 11, Type (0, 0), BuildingBlock: AJUNOK_clean_linker_0, # of connection points: 2
#     Edge 12, Type (0, 0), BuildingBlock: AJUNOK_clean_linker_0, # of connection points: 2
#     Edge 13, Type (0, 0), BuildingBlock: AJUNOK_clean_linker_0, # of connection points: 2
#     Edge 14, Type (0, 0), BuildingBlock: AJUNOK_clean_linker_0, # of connection points: 2
#     Edge 15, Type (0, 0), BuildingBlock: AJUNOK_clean_linker_0, # of connection points: 2
#     Edge 16, Type (0, 0), BuildingBlock: AJUNOK_clean_linker_0, # of connection points: 2
#     Edge 17, Type (0, 0), BuildingBlock: AJUNOK_clean_linker_0, # of connection points: 2
#     Edge 18, Type (0, 0), BuildingBlock: AJUNOK_clean_linker_0, # of connection points: 2
#     Edge 19, Type (0, 0), BuildingBlock: AJUNOK_clean_linker_0, # of connection points: 2
#     Edge 20, Type (0, 0), BuildingBlock: AJUNOK_clean_linker_0, # of connection points: 2
#     Edge 21, Type (0, 0), BuildingBlock: AJUNOK_clean_linker_0, # of connection points: 2
#     Edge 22, Type (0, 0), BuildingBlock: AJUNOK_clean_linker_0, # of connection points: 2
#     Edge 23, Type (0, 0), BuildingBlock: AJUNOK_clean_linker_0, # of connection points: 2
# Relax obj value: 0.139
# Max RMSD: 0.159
# Mean RMSD: 0.159
data_MOF--net-irl--node1-TATPOV_clean_sbu_0--edge1-AJUNOK_clean_linker_0
_symmetry_space_group_name_H-M    P1
_symmetry_Int_Tables_number       1
_symmetry_cell_setting            triclinic
loop_
_symmetry_equiv_pos_as_xyz
'x, y, z'
_cell_length_a     28.845284
_cell_length_b     21.707424
_cell_length_c     20.861679
_cell_angle_alpha  89.998964
_cell_angle_beta   90.203419
_cell_angle_gamma 89.594539
loop_
_atom_site_label
_atom_site_type_symbol
_atom_site_fract_x
_atom_site_fract_y
_atom_site_fract_z
_atom_type_partial_charge
Zn0 Zn 0.99261 0.25879 0.00865 0.0
Zn1 Zn 0.08663 0.25968 0.00996 0.0
O2 O 0.06808 0.30131 0.92498 0.0
O3 O 0.99193 0.30422 0.92386 0.0
O4 O 0.15685 0.26445 0.01125 0.0
O5 O 0.99125 0.30288 0.09418 0.0
O6 O 0.06743 0.29982 0.09527 0.0
C7 C 1.0302 0.31548 0.89681 0.0
C8 C 0.03581 0.13675 0.00853 0.0
O9 O 0.07335 0.16734 0.00919 0.0
O10 O 0.9971 0.16488 0.00809 0.0
C11 C 0.18078 0.2536 0.96133 0.0
O12 O 0.15924 0.239 0.90792 0.0
C13 C 1.02925 0.31361 0.12255 0.0
Zn14 Zn 0.07168 0.74213 0.01397 0.0
Zn15 Zn 0.97764 0.74917 0.01462 0.0
O16 O 0.9945 0.70479 0.93077 0.0
O17 O 0.07037 0.69561 0.92986 0.0
O18 O 0.90724 0.74994 0.01331 0.0
O19 O 0.07066 0.69893 0.09994 0.0
O20 O 0.99466 0.70779 0.10044 0.0
C21 C 1.0315 0.68702 0.90299 0.0
C22 C 0.03437 0.86753 0.01183 0.0
O23 O 0.99534 0.84033 0.01282 0.0
O24 O 0.07158 0.83609 0.012 0.0
C25 C 0.88574 0.76273 0.96156 0.0
O26 O 0.90994 0.77681 0.91046 0.0
C27 C 1.03226 0.69109 0.12796 0.0
Zn28 Zn 0.99024 0.73934 0.51584 0.0
Zn29 Zn 0.08372 0.74326 0.51777 0.0
O30 O 0.06443 0.70131 0.60189 0.0
O31 O 0.98856 0.69407 0.60048 0.0
O32 O 0.15395 0.73839 0.52259 0.0
O33 O 0.99153 0.69538 0.43047 0.0
O34 O 0.06747 0.70283 0.43125 0.0
C35 C 1.02686 0.68506 0.62889 0.0
C36 C 1.02889 0.86369 0.51694 0.0
O37 O 0.06781 0.83545 0.51765 0.0
O38 O 0.99155 0.8332 0.51628 0.0
C39 C 0.18059 0.77478 0.49259 0.0
O40 O 0.16203 0.81757 0.4559 0.0
C41 C 1.03011 0.6871 0.4029 0.0
Zn42 Zn 0.06833 0.25475 0.51035 0.0
Zn43 Zn 0.97392 0.2559 0.51073 0.0
O44 O 0.99306 0.29775 0.59523 0.0
O45 O 0.06917 0.30068 0.59487 0.0
O46 O 0.90341 0.25795 0.51198 0.0
O47 O 0.06737 0.29887 0.42481 0.0
O48 O 0.99118 0.29698 0.42515 0.0
C49 C 1.03108 0.3122 0.62254 0.0
C50 C 1.02699 0.13295 0.51203 0.0
O51 O 0.98926 0.16382 0.51149 0.0
O52 O 0.06551 0.16078 0.51166 0.0
C53 C 0.88093 0.30226 0.53736 0.0
O54 O 0.90411 0.34854 0.56187 0.0
C55 C 1.02908 0.31052 0.39732 0.0
Zn56 Zn 0.49594 0.76986 0.00536 0.0
Zn57 Zn 0.59027 0.76881 0.00584 0.0
O58 O 0.57193 0.80935 0.92026 0.0
O59 O 0.49578 0.81313 0.91929 0.0
O60 O 0.66055 0.7709 0.00611 0.0
O61 O 0.4964 0.81661 0.08951 0.0
O62 O 0.57256 0.81229 0.08972 0.0
C63 C 0.5341 0.82351 0.89197 0.0
C64 C 0.53747 0.64706 0.00813 0.0
O65 O 0.57531 0.67697 0.0077 0.0
O66 O 0.49904 0.67584 0.00725 0.0
C67 C 0.68323 0.75673 0.95599 0.0
O68 O 0.6603 0.74009 0.90438 0.0
C69 C 0.53472 0.82781 0.11686 0.0
Zn70 Zn 0.57181 0.25231 0.00692 0.0
Zn71 Zn 0.4781 0.25955 0.00641 0.0
O72 O 0.49512 0.2184 0.92059 0.0
O73 O 0.57105 0.20939 0.92082 0.0
O74 O 0.40773 0.25892 0.00798 0.0
O75 O 0.57143 0.20594 0.09106 0.0
O76 O 0.49565 0.2165 0.09108 0.0
C77 C 0.53248 0.20194 0.89275 0.0
C78 C 0.5343 0.3779 0.00877 0.0
O79 O 0.49519 0.3509 0.0075 0.0
O80 O 0.57144 0.34627 0.00898 0.0
C81 C 0.38306 0.26823 0.9582 0.0
O82 O 0.4038 0.27922 0.90345 0.0
C83 C 0.53287 0.19846 0.11868 0.0
Zn84 Zn 0.49182 0.2614 0.50393 0.0
Zn85 Zn 0.58629 0.25975 0.50435 0.0
O86 O 0.56855 0.21942 0.58999 0.0
O87 O 0.49236 0.21793 0.58993 0.0
O88 O 0.65668 0.25887 0.50481 0.0
O89 O 0.49255 0.21491 0.41963 0.0
O90 O 0.56877 0.21617 0.42031 0.0
C91 C 0.53054 0.20633 0.61774 0.0
C92 C 0.53284 0.38284 0.5014 0.0
O93 O 0.57037 0.35161 0.50196 0.0
O94 O 0.49418 0.35538 0.50216 0.0
C95 C 0.6782 0.29444 0.54301 0.0
O96 O 0.65389 0.32923 0.58214 0.0
C97 C 0.53076 0.2022 0.39272 0.0
Zn98 Zn 0.57345 0.77576 0.50249 0.0
Zn99 Zn 0.48008 0.77358 0.50184 0.0
O100 O 0.49734 0.81271 0.58875 0.0
O101 O 0.57337 0.81843 0.58853 0.0
O102 O 0.41002 0.78124 0.49682 0.0
O103 O 0.57549 0.82231 0.41865 0.0
O104 O 0.49962 0.81564 0.41793 0.0
C105 C 0.53512 0.82724 0.61677 0.0
C106 C 0.53322 0.65211 0.50009 0.0
O107 O 0.49456 0.681 0.50064 0.0
O108 O 0.57086 0.68197 0.50043 0.0
C109 C 0.38137 0.74517 0.52344 0.0
O110 O 0.39735 0.69908 0.55808 0.0
C111 C 0.5371 0.83186 0.39071 0.0
C112 C 0.99468 0.97061 0.00917 0.0
C113 C 0.03615 0.93605 0.01058 0.0
C114 C 0.99506 0.03514 0.0083 0.0
C115 C 0.03692 0.06819 0.00879 0.0
H116 H 0.96142 0.94777 0.00881 0.0
H117 H 0.96204 0.0592 0.00735 0.0
S118 S 0.15543 0.99997 0.01205 0.0
N119 N 0.12055 0.94005 0.01217 0.0
N120 N 0.12119 0.06116 0.0105 0.0
C121 C 0.07875 0.0343 0.00999 0.0
C122 C 0.07838 0.96843 0.01088 0.0
C123 C 0.06858 0.9661 0.51326 0.0
C124 C 1.0272 0.93225 0.51622 0.0
C125 C 0.06808 0.03067 0.51188 0.0
C126 C 1.02618 0.06439 0.51341 0.0
H127 H 0.10184 0.94265 0.51177 0.0
H128 H 0.10101 0.05423 0.5095 0.0
S129 S 0.90791 0.99813 0.52201 0.0
N130 N 0.94288 0.93768 0.52119 0.0
N131 N 0.942 0.05872 0.51857 0.0
C132 C 0.98446 0.03118 0.51655 0.0
C133 C 0.98495 0.96534 0.51797 0.0
C134 C 0.49608 0.54595 0.00385 0.0
C135 C 0.53799 0.5785 0.00916 0.0
C136 C 0.49529 0.4814 0.00402 0.0
C137 C 0.53637 0.4464 0.00954 0.0
H138 H 0.46338 0.57041 -0.00087 0.0
H139 H 0.46204 0.4589 -0.00057 0.0
S140 S 0.65546 0.50899 0.02671 0.0
N141 N 0.62179 0.57055 0.0214 0.0
N142 N 0.62036 0.44947 0.0218 0.0
C143 C 0.57861 0.47831 0.01542 0.0
C144 C 0.5794 0.54416 0.01521 0.0
C145 C 0.49252 0.48568 0.50094 0.0
C146 C 0.53417 0.45137 0.50032 0.0
C147 C 0.4926 0.55027 0.5006 0.0
C148 C 0.53431 0.58352 0.49961 0.0
H149 H 0.45938 0.46257 0.50191 0.0
H150 H 0.45952 0.5742 0.50135 0.0
S151 S 0.65316 0.51588 0.49704 0.0
N152 N 0.61848 0.45582 0.49818 0.0
N153 N 0.61868 0.57685 0.49751 0.0
C154 C 0.57631 0.54982 0.49867 0.0
C155 C 0.57622 0.48397 0.49903 0.0
C156 C 0.98708 0.32712 0.22626 0.0
C157 C 1.0288 0.33087 0.19156 0.0
C158 C 0.98701 0.32626 0.29342 0.0
C159 C 1.02863 0.32925 0.32868 0.0
H160 H 0.95442 0.32016 0.20163 0.0
H161 H 0.95432 0.3187 0.31748 0.0
S162 S 0.1458 0.35609 0.26106 0.0
N163 N 0.11175 0.34966 0.19768 0.0
N164 N 0.11167 0.3484 0.32387 0.0
C165 C 0.06991 0.34048 0.29473 0.0
C166 C 0.06998 0.34119 0.22621 0.0
C167 C 0.073 0.67463 0.29963 0.0
C168 C 1.03112 0.67035 0.33373 0.0
C169 C 0.07345 0.67575 0.23249 0.0
C170 C 1.03202 0.67289 0.19666 0.0
H171 H 0.10548 0.68152 0.32474 0.0
H172 H 0.1063 0.68345 0.20891 0.0
S173 S 0.91452 0.64556 0.26224 0.0
N174 N 0.94812 0.65131 0.32614 0.0
N175 N 0.94906 0.654 0.19999 0.0
C176 C 0.99058 0.66164 0.22987 0.0
C177 C 0.99011 0.66016 0.29837 0.0
C178 C 0.06995 0.66691 0.73143 0.0
C179 C 1.02761 0.66682 0.69764 0.0
C180 C 0.07109 0.66726 0.79854 0.0
C181 C 1.02993 0.66772 0.83464 0.0
H182 H 0.10249 0.67127 0.70613 0.0
H183 H 0.10447 0.67203 0.8219 0.0
S184 S 0.91067 0.65083 0.76973 0.0
N185 N 0.94391 0.65463 0.70562 0.0
N186 N 0.94615 0.65546 0.83177 0.0
C187 C 0.9877 0.65996 0.80165 0.0
C188 C 0.98652 0.65944 0.73315 0.0
C189 C 0.98882 0.33188 0.79257 0.0
C190 C 1.03046 0.33351 0.82801 0.0
C191 C 0.98903 0.33092 0.72544 0.0
C192 C 1.03089 0.33161 0.69095 0.0
H193 H 0.95586 0.32657 0.8166 0.0
H194 H 0.95624 0.325 0.7008 0.0
S195 S 0.14845 0.35289 0.76065 0.0
N196 N 0.11392 0.34847 0.82338 0.0
N197 N 0.11441 0.34666 0.69723 0.0
C198 C 0.0723 0.34102 0.7256 0.0
C199 C 0.07206 0.34196 0.79411 0.0
C200 C 0.49356 0.84579 0.22048 0.0
C201 C 0.53498 0.84783 0.18501 0.0
C202 C 0.49413 0.84686 0.28759 0.0
C203 C 0.53613 0.85013 0.32199 0.0
H204 H 0.46062 0.83845 0.19668 0.0
H205 H 0.46161 0.84033 0.31241 0.0
S206 S 0.65269 0.87436 0.25156 0.0
N207 N 0.61804 0.86637 0.18901 0.0
N208 N 0.61915 0.86863 0.31521 0.0
C209 C 0.5771 0.86026 0.28705 0.0
C210 C 0.57652 0.85901 0.21854 0.0
C211 C 0.48932 0.18627 0.28864 0.0
C212 C 0.53073 0.18237 0.32447 0.0
C213 C 0.4898 0.18534 0.22152 0.0
C214 C 0.53169 0.18029 0.18744 0.0
H215 H 0.45651 0.19495 0.31218 0.0
H216 H 0.45736 0.19331 0.19645 0.0
S217 S 0.648 0.15106 0.25881 0.0
N218 N 0.61352 0.16043 0.32109 0.0
N219 N 0.61447 0.15827 0.1949 0.0
C220 C 0.57256 0.16838 0.22272 0.0
C221 C 0.57207 0.16956 0.29124 0.0
C222 C 0.57329 0.18718 0.78823 0.0
C223 C 0.53179 0.1854 0.82357 0.0
C224 C 0.57284 0.18847 0.72109 0.0
C225 C 0.53087 0.18784 0.68645 0.0
H226 H 0.60636 0.1922 0.81237 0.0
H227 H 0.60555 0.19431 0.69656 0.0
S228 S 0.41347 0.16738 0.75588 0.0
N229 N 0.44826 0.17133 0.8187 0.0
N230 N 0.44728 0.17356 0.69255 0.0
C231 C 0.48953 0.17883 0.72102 0.0
C232 C 0.49002 0.17766 0.78953 0.0
C233 C 0.49281 0.84035 0.78767 0.0
C234 C 0.53442 0.84161 0.8232 0.0
C235 C 0.49302 0.84126 0.72051 0.0
C236 C 0.53484 0.84365 0.68605 0.0
H237 H 0.45987 0.83423 0.81152 0.0
H238 H 0.46027 0.83582 0.69565 0.0
S239 S 0.65244 0.86279 0.75654 0.0
N240 N 0.61789 0.85651 0.81905 0.0
N241 N 0.61839 0.8585 0.69296 0.0
C242 C 0.57626 0.85198 0.72107 0.0
C243 C 0.57603 0.85087 0.78958 0.0
C244 C 0.30562 0.26201 0.90388 0.0
C245 C 0.33155 0.26517 0.96107 0.0
C246 C 0.2571 0.25816 0.90465 0.0
C247 C 0.23226 0.25787 0.96263 0.0
H248 H 0.32288 0.26192 0.85784 0.0
H249 H 0.23898 0.25571 0.85916 0.0
S250 S 0.28343 0.26609 0.12605 0.0
N251 N 0.32853 0.26816 0.07762 0.0
N252 N 0.23745 0.26138 0.07904 0.0
C253 C 0.25768 0.26145 0.02029 0.0
C254 C 0.30721 0.26491 0.01952 0.0
C255 C 0.75945 0.76044 0.01436 0.0
C256 C 0.73479 0.75853 0.95601 0.0
C257 C 0.80812 0.76141 0.01572 0.0
C258 C 0.83419 0.7614 0.95878 0.0
H259 H 0.74107 0.76058 0.05956 0.0
H260 H 0.82539 0.76264 0.0619 0.0
S261 S 0.78646 0.75738 0.79315 0.0
N262 N 0.74031 0.7569 0.83966 0.0
N263 N 0.83145 0.7594 0.84216 0.0
C264 C 0.80995 0.75991 0.90005 0.0
C265 C 0.76041 0.75825 0.89868 0.0
C266 C 0.25106 0.72087 0.53691 0.0
C267 C 0.23191 0.76876 0.49945 0.0
C268 C 0.29918 0.71383 0.54439 0.0
C269 C 0.33043 0.75439 0.51485 0.0
H270 H 0.22875 0.6882 0.56075 0.0
H271 H 0.31186 0.67605 0.57365 0.0
S272 S 0.29845 0.88806 0.412 0.0
N273 N 0.24833 0.85786 0.43263 0.0
N274 N 0.33852 0.84471 0.44666 0.0
C275 C 0.31182 0.80268 0.47733 0.0
C276 C 0.26273 0.80982 0.46965 0.0
C277 C 0.75579 0.25533 0.5056 0.0
C278 C 0.72982 0.29729 0.54271 0.0
C279 C 0.80444 0.25716 0.50433 0.0
C280 C 0.8293 0.30134 0.53971 0.0
H281 H 0.73847 0.22049 0.4773 0.0
H282 H 0.82264 0.22375 0.47497 0.0
S283 S 0.77803 0.42181 0.64493 0.0
N284 N 0.73294 0.38446 0.61602 0.0
N285 N 0.82401 0.38796 0.61348 0.0
C286 C 0.80379 0.34366 0.57701 0.0
C287 C 0.75424 0.3416 0.57857 0.0
loop_
_geom_bond_atom_site_label_1
_geom_bond_atom_site_label_2
_geom_bond_distance
_geom_bond_site_symmetry_2
_ccdc_geom_bond_type
Zn0 O3 2.031 1_554 S
Zn0 O5 2.049 . S
Zn0 O10 2.067 . S
Zn1 O2 1.962 1_554 S
Zn1 O4 1.986 . S
Zn1 O6 1.996 . S
Zn1 O9 1.943 . S
O2 Zn1 1.962 1_556 S
O2 C7 1.254 . S
O3 Zn0 2.031 1_556 S
O3 C7 1.269 1_655 S
O4 Zn1 1.986 . S
O4 C11 1.262 . S
O5 Zn0 2.049 . S
O5 C13 1.260 1_655 S
O6 Zn1 1.996 . S
O6 C13 1.257 . S
C7 O2 1.254 . S
C7 O3 1.269 1_455 S
C8 O9 1.249 . S
C8 O10 1.270 1_455 S
O9 Zn1 1.943 . S
O9 C8 1.249 . S
O10 Zn0 2.067 . S
O10 C8 1.270 1_655 S
C11 O4 1.262 . S
C11 O12 1.232 1_554 S
O12 C11 1.232 1_556 S
C13 O5 1.260 1_455 S
C13 O6 1.257 . S
Zn14 O17 2.031 1_554 S
Zn14 O19 2.049 . S
Zn14 O24 2.067 . S
Zn15 O16 1.962 1_554 S
Zn15 O18 1.986 . S
Zn15 O20 1.996 . S
Zn15 O23 1.943 . S
O16 Zn15 1.962 1_556 S
O16 C21 1.254 . S
O17 Zn14 2.031 1_556 S
O17 C21 1.269 1_455 S
O18 Zn15 1.986 . S
O18 C25 1.262 . S
O19 Zn14 2.049 . S
O19 C27 1.260 1_455 S
O20 Zn15 1.996 . S
O20 C27 1.257 . S
C21 O16 1.254 . S
C21 O17 1.269 1_655 S
C22 O23 1.249 . S
C22 O24 1.270 1_655 S
O23 Zn15 1.943 . S
O23 C22 1.249 . S
O24 Zn14 2.067 . S
O24 C22 1.270 1_455 S
C25 O18 1.262 . S
C25 O26 1.232 1_554 S
O26 C25 1.232 1_556 S
C27 O19 1.260 1_655 S
C27 O20 1.257 . S
Zn28 O31 2.031 . S
Zn28 O33 2.049 . S
Zn28 O38 2.067 . S
Zn29 O30 1.962 . S
Zn29 O32 1.986 . S
Zn29 O34 1.996 . S
Zn29 O37 1.943 . S
O30 Zn29 1.962 . S
O30 C35 1.254 . S
O31 Zn28 2.031 . S
O31 C35 1.269 1_655 S
O32 Zn29 1.986 . S
O32 C39 1.262 . S
O33 Zn28 2.049 . S
O33 C41 1.260 1_655 S
O34 Zn29 1.996 . S
O34 C41 1.257 . S
C35 O30 1.254 . S
C35 O31 1.269 1_455 S
C36 O37 1.249 . S
C36 O38 1.270 1_455 S
O37 Zn29 1.943 . S
O37 C36 1.249 . S
O38 Zn28 2.067 . S
O38 C36 1.270 1_655 S
C39 O32 1.262 . S
C39 O40 1.232 . S
O40 C39 1.232 . S
C41 O33 1.260 1_455 S
C41 O34 1.257 . S
Zn42 O45 2.031 . S
Zn42 O47 2.049 . S
Zn42 O52 2.067 . S
Zn43 O44 1.962 . S
Zn43 O46 1.986 . S
Zn43 O48 1.996 . S
Zn43 O51 1.943 . S
O44 Zn43 1.962 . S
O44 C49 1.254 . S
O45 Zn42 2.031 . S
O45 C49 1.269 1_455 S
O46 Zn43 1.986 . S
O46 C53 1.262 . S
O47 Zn42 2.049 . S
O47 C55 1.260 1_455 S
O48 Zn43 1.996 . S
O48 C55 1.257 . S
C49 O44 1.254 . S
C49 O45 1.269 1_655 S
C50 O51 1.249 . S
C50 O52 1.270 1_655 S
O51 Zn43 1.943 . S
O51 C50 1.249 . S
O52 Zn42 2.067 . S
O52 C50 1.270 1_455 S
C53 O46 1.262 . S
C53 O54 1.232 . S
O54 C53 1.232 . S
C55 O47 1.260 1_655 S
C55 O48 1.257 . S
Zn56 O59 2.031 1_554 S
Zn56 O61 2.049 . S
Zn56 O66 2.067 . S
Zn57 O58 1.962 1_554 S
Zn57 O60 1.986 . S
Zn57 O62 1.996 . S
Zn57 O65 1.943 . S
O58 Zn57 1.962 1_556 S
O58 C63 1.254 . S
O59 Zn56 2.031 1_556 S
O59 C63 1.269 . S
O60 Zn57 1.986 . S
O60 C67 1.262 . S
O61 Zn56 2.049 . S
O61 C69 1.260 . S
O62 Zn57 1.996 . S
O62 C69 1.257 . S
C63 O58 1.254 . S
C63 O59 1.269 . S
C64 O65 1.249 . S
C64 O66 1.270 . S
O65 Zn57 1.943 . S
O65 C64 1.249 . S
O66 Zn56 2.067 . S
O66 C64 1.270 . S
C67 O60 1.262 . S
C67 O68 1.232 1_554 S
O68 C67 1.232 1_556 S
C69 O61 1.260 . S
C69 O62 1.257 . S
Zn70 O73 2.031 1_554 S
Zn70 O75 2.049 . S
Zn70 O80 2.067 . S
Zn71 O72 1.962 1_554 S
Zn71 O74 1.986 . S
Zn71 O76 1.996 . S
Zn71 O79 1.943 . S
O72 Zn71 1.962 1_556 S
O72 C77 1.254 . S
O73 Zn70 2.031 1_556 S
O73 C77 1.269 . S
O74 Zn71 1.986 . S
O74 C81 1.262 . S
O75 Zn70 2.049 . S
O75 C83 1.260 . S
O76 Zn71 1.996 . S
O76 C83 1.257 . S
C77 O72 1.254 . S
C77 O73 1.269 . S
C78 O79 1.249 . S
C78 O80 1.270 . S
O79 Zn71 1.943 . S
O79 C78 1.249 . S
O80 Zn70 2.067 . S
O80 C78 1.270 . S
C81 O74 1.262 . S
C81 O82 1.232 1_554 S
O82 C81 1.232 1_556 S
C83 O75 1.260 . S
C83 O76 1.257 . S
Zn84 O87 2.031 . S
Zn84 O89 2.049 . S
Zn84 O94 2.067 . S
Zn85 O86 1.962 . S
Zn85 O88 1.986 . S
Zn85 O90 1.996 . S
Zn85 O93 1.943 . S
O86 Zn85 1.962 . S
O86 C91 1.254 . S
O87 Zn84 2.031 . S
O87 C91 1.269 . S
O88 Zn85 1.986 . S
O88 C95 1.262 . S
O89 Zn84 2.049 . S
O89 C97 1.260 . S
O90 Zn85 1.996 . S
O90 C97 1.257 . S
C91 O86 1.254 . S
C91 O87 1.269 . S
C92 O93 1.249 . S
C92 O94 1.270 . S
O93 Zn85 1.943 . S
O93 C92 1.249 . S
O94 Zn84 2.067 . S
O94 C92 1.270 . S
C95 O88 1.262 . S
C95 O96 1.232 . S
O96 C95 1.232 . S
C97 O89 1.260 . S
C97 O90 1.257 . S
Zn98 O101 2.031 . S
Zn98 O103 2.049 . S
Zn98 O108 2.067 . S
Zn99 O100 1.962 . S
Zn99 O102 1.986 . S
Zn99 O104 1.996 . S
Zn99 O107 1.943 . S
O100 Zn99 1.962 . S
O100 C105 1.254 . S
O101 Zn98 2.031 . S
O101 C105 1.269 . S
O102 Zn99 1.986 . S
O102 C109 1.262 . S
O103 Zn98 2.049 . S
O103 C111 1.260 . S
O104 Zn99 1.996 . S
O104 C111 1.257 . S
C105 O100 1.254 . S
C105 O101 1.269 . S
C106 O107 1.249 . S
C106 O108 1.270 . S
O107 Zn99 1.943 . S
O107 C106 1.249 . S
O108 Zn98 2.067 . S
O108 C106 1.270 . S
C109 O102 1.262 . S
C109 O110 1.232 . S
O110 C109 1.232 . S
C111 O103 1.260 . S
C111 O104 1.257 . S
C112 C113 1.369 1_556 S
C112 C114 1.419 1_665 S
C112 H116 0.930 . S
C113 C112 1.369 1_554 S
C113 C122 1.429 . S
C114 C112 1.419 1_445 S
C114 C115 1.363 1_556 S
C114 H117 0.929 . S
C115 C114 1.363 1_554 S
C115 C121 1.428 . S
H116 C112 0.930 . S
H117 C114 0.929 . S
S118 N119 1.613 1_455 S
S118 N120 1.610 1_565 S
N119 S118 1.613 1_655 S
N119 C122 1.350 . S
N120 S118 1.610 1_545 S
N120 C121 1.351 . S
C121 C115 1.428 . S
C121 N120 1.351 . S
C121 C122 1.434 1_445 S
C122 C113 1.429 . S
C122 N119 1.350 . S
C122 C121 1.434 1_665 S
C123 C124 1.369 . S
C123 C125 1.419 1_465 S
C123 H127 0.930 . S
C124 C123 1.369 . S
C124 C133 1.429 . S
C125 C123 1.419 1_645 S
C125 C126 1.363 . S
C125 H128 0.929 . S
C126 C125 1.363 . S
C126 C132 1.428 . S
H127 C123 0.930 . S
H128 C125 0.929 . S
S129 N130 1.613 1_655 S
S129 N131 1.610 1_565 S
N130 S129 1.613 1_455 S
N130 C133 1.350 . S
N131 S129 1.610 1_545 S
N131 C132 1.351 . S
C132 C126 1.428 . S
C132 N131 1.351 . S
C132 C133 1.434 1_645 S
C133 C124 1.429 . S
C133 N130 1.350 . S
C133 C132 1.434 1_465 S
C134 C135 1.369 1_556 S
C134 C136 1.419 . S
C134 H138 0.930 . S
C135 C134 1.369 1_554 S
C135 C144 1.429 . S
C136 C134 1.419 . S
C136 C137 1.363 1_556 S
C136 H139 0.929 . S
C137 C136 1.363 1_554 S
C137 C143 1.428 . S
H138 C134 0.930 . S
H139 C136 0.929 . S
S140 N141 1.613 . S
S140 N142 1.610 . S
N141 S140 1.613 . S
N141 C144 1.350 . S
N142 S140 1.610 . S
N142 C143 1.351 . S
C143 C137 1.428 . S
C143 N142 1.351 . S
C143 C144 1.434 . S
C144 C135 1.429 . S
C144 N141 1.350 . S
C144 C143 1.434 . S
C145 C146 1.369 . S
C145 C147 1.419 . S
C145 H149 0.930 . S
C146 C145 1.369 . S
C146 C155 1.429 . S
C147 C145 1.419 . S
C147 C148 1.363 . S
C147 H150 0.929 . S
C148 C147 1.363 . S
C148 C154 1.428 . S
H149 C145 0.930 . S
H150 C147 0.929 . S
S151 N152 1.613 . S
S151 N153 1.610 . S
N152 S151 1.613 . S
N152 C155 1.350 . S
N153 S151 1.610 . S
N153 C154 1.351 . S
C154 C148 1.428 . S
C154 N153 1.351 . S
C154 C155 1.434 . S
C155 C146 1.429 . S
C155 N152 1.350 . S
C155 C154 1.434 . S
C156 C157 1.369 1_655 S
C156 C158 1.419 . S
C156 H160 0.930 . S
C157 C156 1.369 1_455 S
C157 C166 1.429 . S
C158 C156 1.419 . S
C158 C159 1.363 . S
C158 H161 0.929 . S
C159 C158 1.363 . S
C159 C165 1.428 1_655 S
H160 C156 0.930 . S
H161 C158 0.929 . S
S162 N163 1.613 . S
S162 N164 1.610 . S
N163 S162 1.613 . S
N163 C166 1.350 . S
N164 S162 1.610 . S
N164 C165 1.351 . S
C165 C159 1.428 1_455 S
C165 N164 1.351 . S
C165 C166 1.434 . S
C166 C157 1.429 . S
C166 N163 1.350 . S
C166 C165 1.434 . S
C167 C168 1.369 . S
C167 C169 1.419 . S
C167 H171 0.930 . S
C168 C167 1.369 . S
C168 C177 1.429 1_455 S
C169 C167 1.419 . S
C169 C170 1.363 1_455 S
C169 H172 0.929 . S
C170 C169 1.363 1_655 S
C170 C176 1.428 . S
H171 C167 0.930 . S
H172 C169 0.929 . S
S173 N174 1.613 . S
S173 N175 1.610 . S
N174 S173 1.613 . S
N174 C177 1.350 . S
N175 S173 1.610 . S
N175 C176 1.351 . S
C176 C170 1.428 . S
C176 N175 1.351 . S
C176 C177 1.434 . S
C177 C168 1.429 1_655 S
C177 N174 1.350 . S
C177 C176 1.434 . S
C178 C179 1.369 . S
C178 C180 1.419 . S
C178 H182 0.930 . S
C179 C178 1.369 . S
C179 C188 1.429 1_455 S
C180 C178 1.419 . S
C180 C181 1.363 1_455 S
C180 H183 0.929 . S
C181 C180 1.363 1_655 S
C181 C187 1.428 . S
H182 C178 0.930 . S
H183 C180 0.929 . S
S184 N185 1.613 . S
S184 N186 1.610 . S
N185 S184 1.613 . S
N185 C188 1.350 . S
N186 S184 1.610 . S
N186 C187 1.351 . S
C187 C181 1.428 . S
C187 N186 1.351 . S
C187 C188 1.434 . S
C188 C179 1.429 1_655 S
C188 N185 1.350 . S
C188 C187 1.434 . S
C189 C190 1.369 1_655 S
C189 C191 1.419 . S
C189 H193 0.930 . S
C190 C189 1.369 1_455 S
C190 C199 1.429 . S
C191 C189 1.419 . S
C191 C192 1.363 . S
C191 H194 0.929 . S
C192 C191 1.363 . S
C192 C198 1.428 1_655 S
H193 C189 0.930 . S
H194 C191 0.929 . S
S195 N196 1.613 . S
S195 N197 1.610 . S
N196 S195 1.613 . S
N196 C199 1.350 . S
N197 S195 1.610 . S
N197 C198 1.351 . S
C198 C192 1.428 1_455 S
C198 N197 1.351 . S
C198 C199 1.434 . S
C199 C190 1.429 . S
C199 N196 1.350 . S
C199 C198 1.434 . S
C200 C201 1.369 . S
C200 C202 1.419 . S
C200 H204 0.930 . S
C201 C200 1.369 . S
C201 C210 1.429 . S
C202 C200 1.419 . S
C202 C203 1.363 . S
C202 H205 0.929 . S
C203 C202 1.363 . S
C203 C209 1.428 . S
H204 C200 0.930 . S
H205 C202 0.929 . S
S206 N207 1.613 . S
S206 N208 1.610 . S
N207 S206 1.613 . S
N207 C210 1.350 . S
N208 S206 1.610 . S
N208 C209 1.351 . S
C209 C203 1.428 . S
C209 N208 1.351 . S
C209 C210 1.434 . S
C210 C201 1.429 . S
C210 N207 1.350 . S
C210 C209 1.434 . S
C211 C212 1.369 . S
C211 C213 1.419 . S
C211 H215 0.930 . S
C212 C211 1.369 . S
C212 C221 1.429 . S
C213 C211 1.419 . S
C213 C214 1.363 . S
C213 H216 0.929 . S
C214 C213 1.363 . S
C214 C220 1.428 . S
H215 C211 0.930 . S
H216 C213 0.929 . S
S217 N218 1.613 . S
S217 N219 1.610 . S
N218 S217 1.613 . S
N218 C221 1.350 . S
N219 S217 1.610 . S
N219 C220 1.351 . S
C220 C214 1.428 . S
C220 N219 1.351 . S
C220 C221 1.434 . S
C221 C212 1.429 . S
C221 N218 1.350 . S
C221 C220 1.434 . S
C222 C223 1.369 . S
C222 C224 1.419 . S
C222 H226 0.930 . S
C223 C222 1.369 . S
C223 C232 1.429 . S
C224 C222 1.419 . S
C224 C225 1.363 . S
C224 H227 0.929 . S
C225 C224 1.363 . S
C225 C231 1.428 . S
H226 C222 0.930 . S
H227 C224 0.929 . S
S228 N229 1.613 . S
S228 N230 1.610 . S
N229 S228 1.613 . S
N229 C232 1.350 . S
N230 S228 1.610 . S
N230 C231 1.351 . S
C231 C225 1.428 . S
C231 N230 1.351 . S
C231 C232 1.434 . S
C232 C223 1.429 . S
C232 N229 1.350 . S
C232 C231 1.434 . S
C233 C234 1.369 . S
C233 C235 1.419 . S
C233 H237 0.930 . S
C234 C233 1.369 . S
C234 C243 1.429 . S
C235 C233 1.419 . S
C235 C236 1.363 . S
C235 H238 0.929 . S
C236 C235 1.363 . S
C236 C242 1.428 . S
H237 C233 0.930 . S
H238 C235 0.929 . S
S239 N240 1.613 . S
S239 N241 1.610 . S
N240 S239 1.613 . S
N240 C243 1.350 . S
N241 S239 1.610 . S
N241 C242 1.351 . S
C242 C236 1.428 . S
C242 N241 1.351 . S
C242 C243 1.434 . S
C243 C234 1.429 . S
C243 N240 1.350 . S
C243 C242 1.434 . S
C244 C245 1.369 1_556 S
C244 C246 1.419 . S
C244 H248 0.930 . S
C245 C244 1.369 1_554 S
C245 C254 1.429 . S
C246 C244 1.419 . S
C246 C247 1.363 1_556 S
C246 H249 0.929 . S
C247 C246 1.363 1_554 S
C247 C253 1.428 . S
H248 C244 0.930 . S
H249 C246 0.929 . S
S250 N251 1.613 . S
S250 N252 1.610 . S
N251 S250 1.613 . S
N251 C254 1.350 . S
N252 S250 1.610 . S
N252 C253 1.351 . S
C253 C247 1.428 . S
C253 N252 1.351 . S
C253 C254 1.434 . S
C254 C245 1.429 . S
C254 N251 1.350 . S
C254 C253 1.434 . S
C255 C256 1.369 . S
C255 C257 1.419 . S
C255 H259 0.930 . S
C256 C255 1.369 . S
C256 C265 1.429 1_554 S
C257 C255 1.419 . S
C257 C258 1.363 . S
C257 H260 0.929 . S
C258 C257 1.363 . S
C258 C264 1.428 1_554 S
H259 C255 0.930 . S
H260 C257 0.929 . S
S261 N262 1.613 . S
S261 N263 1.610 . S
N262 S261 1.613 . S
N262 C265 1.350 . S
N263 S261 1.610 . S
N263 C264 1.351 . S
C264 C258 1.428 1_556 S
C264 N263 1.351 . S
C264 C265 1.434 . S
C265 C256 1.429 1_556 S
C265 N262 1.350 . S
C265 C264 1.434 . S
C266 C267 1.369 . S
C266 C268 1.419 . S
C266 H270 0.930 . S
C267 C266 1.369 . S
C267 C276 1.429 . S
C268 C266 1.419 . S
C268 C269 1.363 . S
C268 H271 0.929 . S
C269 C268 1.363 . S
C269 C275 1.428 . S
H270 C266 0.930 . S
H271 C268 0.929 . S
S272 N273 1.613 . S
S272 N274 1.610 . S
N273 S272 1.613 . S
N273 C276 1.350 . S
N274 S272 1.610 . S
N274 C275 1.351 . S
C275 C269 1.428 . S
C275 N274 1.351 . S
C275 C276 1.434 . S
C276 C267 1.429 . S
C276 N273 1.350 . S
C276 C275 1.434 . S
C277 C278 1.369 . S
C277 C279 1.419 . S
C277 H281 0.930 . S
C278 C277 1.369 . S
C278 C287 1.429 . S
C279 C277 1.419 . S
C279 C280 1.363 . S
C279 H282 0.929 . S
C280 C279 1.363 . S
C280 C286 1.428 . S
H281 C277 0.930 . S
H282 C279 0.929 . S
S283 N284 1.613 . S
S283 N285 1.610 . S
N284 S283 1.613 . S
N284 C287 1.350 . S
N285 S283 1.610 . S
N285 C286 1.351 . S
C286 C280 1.428 . S
C286 N285 1.351 . S
C286 C287 1.434 . S
C287 C278 1.429 . S
C287 N284 1.350 . S
C287 C286 1.434 . S
C113 C22 1.452 . S
C115 C8 1.451 . S
C124 C36 1.454 . S
C126 C50 1.457 . S
C135 C64 1.456 . S
C137 C78 1.449 . S
C146 C92 1.455 . S
C148 C106 1.456 . S
C157 C13 1.351 . S
C159 C55 1.349 . S
C168 C41 1.352 . S
C170 C27 1.357 . S
C179 C35 1.351 . S
C181 C21 1.351 . S
C190 C7 1.356 . S
C192 C49 1.355 . S
C201 C69 1.358 . S
C203 C111 1.354 . S
C212 C97 1.352 . S
C214 C83 1.349 . S
C223 C77 1.356 . S
C225 C91 1.355 . S
C234 C63 1.350 . S
C236 C105 1.351 . S
C245 C81 1.545 . S
C247 C11 1.544 . S
C256 C67 1.542 . S
C258 C25 1.543 . S
C267 C39 1.544 . S
C269 C109 1.545 . S
C278 C95 1.542 . S
C280 C53 1.544 . S
