# Generated by pormake.
# Topology uov, (4)-cn, num edge types: 1
# Building blocks:
#     Node 0, Type 0, BuildingBlock: GALJAG_clean_sbu_0, # of connection points: 4
#     Node 1, Type 0, BuildingBlock: GALJAG_clean_sbu_0, # of connection points: 4
#     Node 2, Type 0, BuildingBlock: GALJAG_clean_sbu_0, # of connection points: 4
#     Node 3, Type 0, BuildingBlock: GALJAG_clean_sbu_0, # of connection points: 4
#     Node 4, Type 0, BuildingBlock: GALJAG_clean_sbu_0, # of connection points: 4
#     Node 5, Type 0, BuildingBlock: GALJAG_clean_sbu_0, # of connection points: 4
#     Node 6, Type 0, BuildingBlock: GALJAG_clean_sbu_0, # of connection points: 4
#     Node 7, Type 0, BuildingBlock: GALJAG_clean_sbu_0, # of connection points: 4
#     Edge 8, Type (0, 0), BuildingBlock: ZUJKAS_clean_linker_0, # of connection points: 2
#     Edge 9, Type (0, 0), BuildingBlock: ZUJKAS_clean_linker_0, # of connection points: 2
#     Edge 10, Type (0, 0), BuildingBlock: ZUJKAS_clean_linker_0, # of connection points: 2
#     Edge 11, Type (0, 0), BuildingBlock: ZUJKAS_clean_linker_0, # of connection points: 2
#     Edge 12, Type (0, 0), BuildingBlock: ZUJKAS_clean_linker_0, # of connection points: 2
#     Edge 13, Type (0, 0), BuildingBlock: ZUJKAS_clean_linker_0, # of connection points: 2
#     Edge 14, Type (0, 0), BuildingBlock: ZUJKAS_clean_linker_0, # of connection points: 2
#     Edge 15, Type (0, 0), BuildingBlock: ZUJKAS_clean_linker_0, # of connection points: 2
#     Edge 16, Type (0, 0), BuildingBlock: ZUJKAS_clean_linker_0, # of connection points: 2
#     Edge 17, Type (0, 0), BuildingBlock: ZUJKAS_clean_linker_0, # of connection points: 2
#     Edge 18, Type (0, 0), BuildingBlock: ZUJKAS_clean_linker_0, # of connection points: 2
#     Edge 19, Type (0, 0), BuildingBlock: ZUJKAS_clean_linker_0, # of connection points: 2
#     Edge 20, Type (0, 0), BuildingBlock: ZUJKAS_clean_linker_0, # of connection points: 2
#     Edge 21, Type (0, 0), BuildingBlock: ZUJKAS_clean_linker_0, # of connection points: 2
#     Edge 22, Type (0, 0), BuildingBlock: ZUJKAS_clean_linker_0, # of connection points: 2
#     Edge 23, Type (0, 0), BuildingBlock: ZUJKAS_clean_linker_0, # of connection points: 2
# Relax obj value: 0.177
# Max RMSD: 0.147
# Mean RMSD: 0.147
data_MOF--net-uov--node1-GALJAG_clean_sbu_0--edge1-ZUJKAS_clean_linker_0
_symmetry_space_group_name_H-M    P1
_symmetry_Int_Tables_number       1
_symmetry_cell_setting            triclinic
loop_
_symmetry_equiv_pos_as_xyz
'x, y, z'
_cell_length_a     37.318739
_cell_length_b     37.30052
_cell_length_c     60.419682
_cell_angle_alpha  90.001209
_cell_angle_beta   90.014008
_cell_angle_gamma 90.020492
loop_
_atom_site_label
_atom_site_type_symbol
_atom_site_fract_x
_atom_site_fract_y
_atom_site_fract_z
_atom_type_partial_charge
In0 In 0.0759 0.25227 0.60329 0.0
O1 O 0.09006 0.31154 0.6009 0.0
O2 O 0.04858 0.29572 0.62311 0.0
C3 C 0.12165 0.22739 0.57237 0.0
C4 C 0.09931 0.22759 0.6424 0.0
C5 C 0.01356 0.23458 0.5834 0.0
O6 O 0.11126 0.25956 0.57263 0.0
O7 O 0.10985 0.20837 0.58798 0.0
O8 O 0.02903 0.21376 0.5968 0.0
O9 O 0.02924 0.26403 0.58042 0.0
C10 C 0.06646 0.32101 0.61472 0.0
O11 O 0.06817 0.22113 0.6352 0.0
O12 O 0.11866 0.24648 0.6298 0.0
In13 In 0.24558 0.9144 0.39277 0.0
O14 O 0.30615 0.90697 0.39542 0.0
O15 O 0.28626 0.94996 0.37582 0.0
C16 C 0.22212 0.86345 0.42067 0.0
C17 C 0.22193 0.88966 0.35369 0.0
C18 C 0.22512 0.97328 0.41532 0.0
O19 O 0.25476 0.87226 0.41957 0.0
O20 O 0.20174 0.87959 0.40731 0.0
O21 O 0.21636 0.96845 0.39535 0.0
O22 O 0.24337 0.94837 0.42371 0.0
C23 C 0.31321 0.93381 0.38344 0.0
O24 O 0.2076 0.91601 0.36341 0.0
O25 O 0.24806 0.87568 0.36379 0.0
In26 In 0.91592 0.74494 0.60206 0.0
O27 O 0.90436 0.68544 0.59691 0.0
O28 O 0.94093 0.70056 0.6223 0.0
C29 C 0.86917 0.77594 0.57418 0.0
C30 C 0.89452 0.77323 0.64071 0.0
C31 C 0.97764 0.75428 0.57973 0.0
O32 O 0.86698 0.74314 0.57927 0.0
O33 O 0.89413 0.79288 0.58362 0.0
O34 O 0.97358 0.76586 0.59922 0.0
O35 O 0.95076 0.73844 0.57176 0.0
C36 C 0.92556 0.6755 0.61201 0.0
O37 O 0.92282 0.7833 0.63104 0.0
O38 O 0.87693 0.74927 0.63071 0.0
In39 In 0.73941 0.06296 0.38858 0.0
O40 O 0.68332 0.08118 0.39825 0.0
O41 O 0.69035 0.05545 0.36708 0.0
C42 C 0.77522 0.09777 0.42071 0.0
C43 C 0.76851 0.08649 0.35054 0.0
C44 C 0.74338 0.99549 0.40447 0.0
O45 O 0.7444 0.10759 0.4145 0.0
O46 O 0.78771 0.07109 0.41051 0.0
O47 O 0.76721 0.0085 0.39199 0.0
O48 O 0.71741 0.01609 0.40831 0.0
C49 C 0.66894 0.06931 0.38079 0.0
O50 O 0.76235 0.05371 0.35411 0.0
O51 O 0.76014 0.10728 0.36618 0.0
In52 In 0.9249 0.25076 0.10573 0.0
O53 O 0.93358 0.22385 0.13904 0.0
O54 O 0.87992 0.23517 0.12924 0.0
C55 C 0.9903 0.2418 0.08749 0.0
C56 C 0.9253 0.32031 0.11692 0.0
C57 C 0.88553 0.22019 0.07354 0.0
O58 O 0.97661 0.21882 0.10028 0.0
O59 O 0.9714 0.26926 0.08439 0.0
O60 O 0.88447 0.25351 0.07725 0.0
O61 O 0.90558 0.20264 0.08637 0.0
C62 C 0.90065 0.22245 0.14377 0.0
O63 O 0.90705 0.30865 0.10082 0.0
O64 O 0.94234 0.29673 0.12757 0.0
In65 In 0.25144 0.07223 0.89 0.0
O66 O 0.3104 0.08533 0.8957 0.0
O67 O 0.2968 0.04955 0.86955 0.0
C68 C 0.21839 0.11428 0.9198 0.0
C69 C 0.22462 0.09734 0.85178 0.0
C70 C 0.24146 0.00851 0.90998 0.0
O71 O 0.25115 0.11825 0.91508 0.0
O72 O 0.20259 0.08985 0.90916 0.0
O73 O 0.22516 0.01685 0.89237 0.0
O74 O 0.26266 0.0321 0.91716 0.0
C75 C 0.32122 0.06513 0.8803 0.0
O76 O 0.21906 0.06569 0.85837 0.0
O77 O 0.24358 0.1163 0.86453 0.0
In78 In 0.06835 0.74592 0.10405 0.0
O79 O 0.07864 0.68583 0.10058 0.0
O80 O 0.03934 0.70337 0.1237 0.0
C81 C 0.11344 0.77494 0.07435 0.0
C82 C 0.09529 0.77025 0.14242 0.0
C83 C 0.00607 0.76162 0.08374 0.0
O84 O 0.1104 0.7414 0.07663 0.0
O85 O 0.09452 0.79339 0.08737 0.0
O86 O 0.01494 0.77605 0.10185 0.0
O87 O 0.02852 0.73965 0.07611 0.0
C88 C 0.05522 0.67733 0.11475 0.0
O89 O 0.06485 0.77956 0.1353 0.0
O90 O 0.11224 0.74882 0.13007 0.0
In91 In 0.74866 0.92404 0.89059 0.0
O92 O 0.78892 0.92684 0.8623 0.0
O93 O 0.75213 0.88324 0.86276 0.0
C94 C 0.77423 0.98806 0.90427 0.0
C95 C 0.67875 0.9318 0.88111 0.0
C96 C 0.76178 0.88102 0.92561 0.0
O97 O 0.79336 0.96021 0.90375 0.0
O98 O 0.74285 0.98385 0.89707 0.0
O99 O 0.7424 0.90859 0.92687 0.0
O100 O 0.77364 0.87444 0.9065 0.0
C101 C 0.77767 0.89871 0.85296 0.0
O102 O 0.68951 0.91317 0.89724 0.0
O103 O 0.70327 0.94548 0.86951 0.0
H104 H 0.96039 0.64766 0.64758 0.0
H105 H 0.98353 0.5867 0.65166 0.0
H106 H 0.93674 0.55778 0.58883 0.0
H107 H 0.91246 0.61843 0.58501 0.0
H108 H 0.9299 0.50473 0.61892 0.0
H109 H 0.07029 0.55369 0.61728 0.0
H110 H 0.04415 0.5727 0.63926 0.0
H111 H 0.03265 0.5822 0.61093 0.0
C112 C 0.95462 0.62813 0.6348 0.0
C113 C 0.93497 0.63774 0.61588 0.0
C114 C 0.96809 0.59346 0.63706 0.0
C115 C 0.96272 0.56811 0.62024 0.0
C116 C 0.94145 0.5771 0.6019 0.0
H117 H 0.08617 0.37928 0.59038 0.0
H118 H 0.0618 0.43999 0.59334 0.0
C119 C 0.92754 0.61167 0.59976 0.0
C120 C 0.98024 0.53263 0.62136 0.0
H121 H 0.06194 0.49182 0.62458 0.0
C122 C 0.95876 0.50185 0.62019 0.0
C123 C 0.01797 0.52907 0.6226 0.0
C124 C 0.04266 0.56115 0.62236 0.0
C125 C 0.97394 0.4675 0.62027 0.0
C126 C 0.01158 0.46393 0.62229 0.0
C127 C 0.03308 0.4947 0.62339 0.0
C128 C 0.02922 0.42846 0.62213 0.0
C129 C 0.94959 0.43548 0.61747 0.0
C130 C 0.02015 0.40242 0.6379 0.0
C131 C 0.0337 0.3677 0.6361 0.0
C132 C 0.05708 0.35875 0.61875 0.0
C133 C 0.06817 0.38551 0.60392 0.0
C134 C 0.05422 0.42012 0.60556 0.0
H135 H 0.92333 0.44317 0.61022 0.0
H136 H 0.96208 0.41489 0.60667 0.0
H137 H 0.94443 0.42324 0.6339 0.0
H138 H 0.00172 0.40865 0.65121 0.0
H139 H 0.02503 0.34762 0.64789 0.0
H140 H 0.6176 0.07878 0.41233 0.0
H141 H 0.55487 0.06011 0.40989 0.0
H142 H 0.56935 0.03414 0.34089 0.0
H143 H 0.63234 0.05182 0.34336 0.0
H144 H 0.49565 0.077 0.38429 0.0
H145 H 0.54242 0.93798 0.36852 0.0
H146 H 0.5723 0.97338 0.37705 0.0
H147 H 0.55809 0.97018 0.34867 0.0
C148 C 0.6072 0.06984 0.39652 0.0
C149 C 0.62988 0.06617 0.37811 0.0
C150 C 0.57141 0.05914 0.39517 0.0
C151 C 0.55788 0.04486 0.37537 0.0
C152 C 0.57964 0.04422 0.35646 0.0
H153 H 0.33452 0.98615 0.35501 0.0
H154 H 0.39407 0.01299 0.35198 0.0
C155 C 0.6155 0.05454 0.35786 0.0
C156 C 0.52209 0.02797 0.37506 0.0
H157 H 0.47991 0.94775 0.36732 0.0
C158 C 0.4921 0.04879 0.38051 0.0
C159 C 0.51781 0.99095 0.37061 0.0
C160 C 0.54936 0.96668 0.36609 0.0
C161 C 0.45775 0.0336 0.38147 0.0
C162 C 0.45336 -0.00316 0.37633 0.0
C163 C 0.48338 0.97601 0.371 0.0
C164 C 0.41795 0.97914 0.37706 0.0
C165 C 0.4267 0.05681 0.38861 0.0
C166 C 0.41219 0.95004 0.39136 0.0
C167 C 0.37836 0.93424 0.39286 0.0
C168 C 0.34982 0.94742 0.38009 0.0
C169 C 0.356 0.97567 0.36518 0.0
C170 C 0.38989 0.99123 0.36357 0.0
H171 H 0.43592 0.08114 0.39758 0.0
H172 H 0.41166 0.06571 0.37375 0.0
H173 H 0.40804 0.04173 0.39948 0.0
H174 H 0.43366 0.94016 0.40178 0.0
H175 H 0.37429 0.91252 0.40449 0.0
H176 H 0.95522 0.35071 0.15338 0.0
H177 H 0.97319 0.41327 0.15795 0.0
H178 H 0.92711 0.43871 0.09435 0.0
H179 H 0.90812 0.37638 0.09 0.0
H180 H 0.0206 0.44537 0.13154 0.0
H181 H 0.89416 0.52287 0.13075 0.0
H182 H 0.89512 0.47494 0.13484 0.0
H183 H 0.89779 0.49347 0.10737 0.0
C184 C 0.94811 0.36986 0.14065 0.0
C185 C 0.93037 0.35878 0.12132 0.0
C186 C 0.95844 0.40554 0.14326 0.0
C187 C 0.95132 0.43067 0.12656 0.0
C188 C 0.9322 0.41996 0.10766 0.0
H189 H 0.07432 0.61734 0.09173 0.0
H190 H 0.05046 0.55673 0.09658 0.0
C191 C 0.92149 0.38431 0.10515 0.0
C192 C 0.96732 0.46689 0.12779 0.0
H193 H 0.94807 0.55592 0.12335 0.0
C194 C 0.00469 0.46959 0.13004 0.0
C195 C 0.94652 0.49841 0.12601 0.0
C196 C 0.90615 0.49734 0.12484 0.0
C197 C 0.02195 0.50294 0.12996 0.0
C198 C 0.00133 0.53433 0.127 0.0
C199 C 0.96387 0.53174 0.12539 0.0
C200 C 0.01799 0.57016 0.12511 0.0
C201 C 0.06204 0.5042 0.13314 0.0
C202 C 0.00745 0.59777 0.13943 0.0
C203 C 0.02068 0.63242 0.13653 0.0
C204 C 0.0447 0.64 0.11924 0.0
C205 C 0.05609 0.61213 0.10531 0.0
C206 C 0.04259 0.5775 0.10812 0.0
H207 H 0.07198 0.47991 0.14184 0.0
H208 H 0.07527 0.50529 0.11671 0.0
H209 H 0.07021 0.52825 0.14272 0.0
H210 H 0.98845 0.59265 0.15262 0.0
H211 H 0.01146 0.65342 0.14751 0.0
H212 H 0.35044 0.02838 0.84588 0.0
H213 H 0.41201 0.00658 0.84278 0.0
H214 H 0.43912 0.05978 0.90394 0.0
H215 H 0.37774 0.08243 0.90688 0.0
H216 H 0.49235 0.06511 0.8724 0.0
H217 H 0.44636 0.92434 0.88187 0.0
H218 H 0.42615 0.94762 0.85905 0.0
H219 H 0.41746 0.96223 0.8869 0.0
C220 C 0.36968 0.03587 0.85849 0.0
C221 C 0.35931 0.05676 0.87675 0.0
C222 C 0.40471 0.0232 0.85677 0.0
C223 C 0.42973 0.03081 0.87343 0.0
C224 C 0.42003 0.05339 0.89102 0.0
H225 H 0.62249 0.91731 0.90847 0.0
H226 H 0.56135 0.94047 0.90527 0.0
C227 C 0.38503 0.06634 0.89265 0.0
C228 C 0.46555 0.01402 0.87306 0.0
H229 H 0.50799 0.933 0.8742 0.0
C230 C 0.49584 0.03624 0.87274 0.0
C231 C 0.46987 0.97634 0.87393 0.0
C232 C 0.43827 0.9512 0.87568 0.0
C233 C 0.53049 0.02177 0.87312 0.0
C234 C 0.53479 0.98407 0.87329 0.0
C235 C 0.5045 0.96186 0.87376 0.0
C236 C 0.57059 0.96725 0.874 0.0
C237 C 0.56211 0.04699 0.87399 0.0
C238 C 0.59546 0.9735 0.85704 0.0
C239 C 0.63038 0.96051 0.85889 0.0
C240 C 0.64076 0.94069 0.8776 0.0
C241 C 0.61519 0.93256 0.89389 0.0
C242 C 0.58033 0.94581 0.89211 0.0
H243 H 0.55412 0.07429 0.87943 0.0
H244 H 0.58308 0.0368 0.88541 0.0
H245 H 0.574 0.04929 0.85722 0.0
H246 H 0.58813 0.98921 0.84266 0.0
H247 H 0.6495 0.96689 0.84599 0.0
H248 H 0.23227 0.98317 0.4595 0.0
H249 H 0.21982 0.03722 0.48078 0.0
H250 H 0.18694 0.09169 0.42113 0.0
H251 H 0.19847 0.03694 0.39969 0.0
H252 H 0.24995 0.10389 0.47705 0.0
H253 H 0.10269 0.10971 0.46216 0.0
H254 H 0.129 0.07063 0.45546 0.0
H255 H 0.13068 0.10953 0.43797 0.0
C256 C 0.22215 0.00655 0.4509 0.0
C257 C 0.21612 0.00583 0.42797 0.0
C258 C 0.2152 0.03747 0.46307 0.0
C259 C 0.20226 0.0684 0.45257 0.0
C260 C 0.19634 0.06792 0.42961 0.0
H261 H 0.13061 0.25437 0.5307 0.0
H262 H 0.15587 0.22272 0.49864 0.0
C263 C 0.20298 0.03671 0.4174 0.0
C264 C 0.19507 0.10072 0.46607 0.0
H265 H 0.12703 0.15192 0.48665 0.0
C266 C 0.22317 0.11478 0.4789 0.0
C267 C 0.16016 0.11503 0.46833 0.0
C268 C 0.12877 0.1004 0.45541 0.0
C269 C 0.21689 0.1414 0.4948 0.0
C270 C 0.18168 0.15419 0.49791 0.0
C271 C 0.15404 0.14198 0.4841 0.0
C272 C 0.17186 0.17598 0.51737 0.0
C273 C 0.24764 0.15468 0.50877 0.0
C274 C 0.17306 0.16027 0.53844 0.0
C275 C 0.15835 0.17797 0.55661 0.0
C276 C 0.14242 0.21179 0.55402 0.0
C277 C 0.14298 0.2284 0.53314 0.0
C278 C 0.15728 0.21039 0.51485 0.0
H279 H 0.27383 0.15007 0.50051 0.0
H280 H 0.24477 0.18372 0.51242 0.0
H281 H 0.24779 0.13996 0.52474 0.0
H282 H 0.18371 0.13348 0.54063 0.0
H283 H 0.15823 0.16457 0.57252 0.0
H284 H 0.25352 0.84555 0.45994 0.0
H285 H 0.2245 0.81602 0.49153 0.0
H286 H 0.12951 0.79915 0.45224 0.0
H287 H 0.15796 0.82912 0.42085 0.0
H288 H 0.15466 0.84723 0.50708 0.0
H289 H 0.1477 0.70208 0.48744 0.0
H290 H 0.18203 0.73133 0.47642 0.0
H291 H 0.13776 0.73171 0.46476 0.0
C292 C 0.22682 0.83463 0.45789 0.0
C293 C 0.20784 0.83971 0.43803 0.0
C294 C 0.21033 0.81786 0.47592 0.0
C295 C 0.17506 0.80524 0.47408 0.0
C296 C 0.15696 0.8083 0.45383 0.0
H297 H 0.98623 0.74353 0.53572 0.0
H298 H 0.0398 0.75354 0.51358 0.0
C299 C 0.17315 0.82555 0.43597 0.0
C300 C 0.15494 0.79372 0.49385 0.0
H301 H 0.10549 0.72421 0.51396 0.0
C302 C 0.14449 0.82016 0.50902 0.0
C303 C 0.1418 0.75847 0.49609 0.0
C304 C 0.15307 0.72909 0.48043 0.0
C305 C 0.11886 0.81296 0.52541 0.0
C306 C 0.10423 0.77801 0.52699 0.0
C307 C 0.11666 0.75098 0.51271 0.0
C308 C 0.07285 0.77014 0.54121 0.0
C309 C 0.10578 0.8435 0.53968 0.0
C310 C 0.07367 0.77578 0.5642 0.0
C311 C 0.04269 0.77071 0.5769 0.0
C312 C 0.01076 0.75923 0.56681 0.0
C313 C 0.01043 0.75246 0.54395 0.0
C314 C 0.0411 0.75801 0.53128 0.0
H315 H 0.11447 0.87 0.53323 0.0
H316 H 0.07608 0.84339 0.54082 0.0
H317 H 0.11679 0.84046 0.55663 0.0
H318 H 0.0981 0.78436 0.57228 0.0
H319 H 0.04373 0.77569 0.59455 0.0
H320 H 0.69197 0.95727 0.42606 0.0
H321 H 0.70161 0.90828 0.45235 0.0
H322 H 0.81461 0.90941 0.4373 0.0
H323 H 0.80492 0.95742 0.41041 0.0
H324 H 0.78997 0.84143 0.44599 0.0
H325 H 0.74537 0.93741 0.51094 0.0
H326 H 0.71261 0.92719 0.49013 0.0
H327 H 0.75278 0.95093 0.48268 0.0
C328 C 0.71871 0.94641 0.42797 0.0
C329 C 0.74782 0.96141 0.41648 0.0
C330 C 0.7242 0.9186 0.44307 0.0
C331 C 0.75896 0.90598 0.44723 0.0
C332 C 0.78758 0.91894 0.43444 0.0
H333 H 0.87164 0.84507 0.56036 0.0
H334 H 0.83897 0.87218 0.52976 0.0
C335 C 0.78203 0.94637 0.41908 0.0
C336 C 0.76644 0.88241 0.4664 0.0
H337 H 0.76694 0.88188 0.5229 0.0
C338 C 0.78451 0.84993 0.46283 0.0
C339 C 0.75952 0.89386 0.48835 0.0
C340 C 0.74179 0.92935 0.49337 0.0
C341 C 0.79723 0.82931 0.48062 0.0
C342 C 0.791 0.84123 0.50251 0.0
C343 C 0.77142 0.87278 0.50607 0.0
C344 C 0.8087 0.82437 0.5218 0.0
C345 C 0.81905 0.79615 0.47583 0.0
C346 C 0.80195 0.78863 0.5278 0.0
C347 C 0.82082 0.77292 0.54533 0.0
C348 C 0.84647 0.79287 0.55714 0.0
C349 C 0.8521 0.82897 0.55157 0.0
C350 C 0.83343 0.84453 0.53408 0.0
H351 H 0.82649 0.79409 0.45807 0.0
H352 H 0.84395 0.79597 0.4859 0.0
H353 H 0.80321 0.77203 0.48028 0.0
H354 H 0.78246 0.77283 0.51878 0.0
H355 H 0.81588 0.74505 0.54933 0.0
H356 H 0.84092 0.07954 0.43619 0.0
H357 H 0.8746 0.10763 0.46609 0.0
H358 H 0.78922 0.18391 0.47587 0.0
H359 H 0.75489 0.15553 0.44588 0.0
H360 H 0.89689 0.17977 0.4678 0.0
H361 H 0.80909 0.14278 0.53873 0.0
H362 H 0.80631 0.12065 0.51219 0.0
H363 H 0.78796 0.16475 0.51565 0.0
C364 C 0.82919 0.10224 0.4447 0.0
C365 C 0.79527 0.11537 0.43872 0.0
C366 C 0.84847 0.11822 0.46179 0.0
C367 C 0.83422 0.14755 0.47329 0.0
C368 C 0.80039 0.16091 0.46738 0.0
H369 H 0.97392 0.27751 0.55654 0.0
H370 H 0.92613 0.25929 0.53126 0.0
C371 C 0.78096 0.14486 0.4502 0.0
C372 C 0.85578 0.16452 0.49092 0.0
H373 H 0.86113 0.17629 0.54688 0.0
C374 C 0.88897 0.17935 0.48508 0.0
C375 C 0.84537 0.1635 0.51341 0.0
C376 C 0.81037 0.14687 0.52053 0.0
C377 C 0.91248 0.19261 0.50118 0.0
C378 C 0.90215 0.19157 0.52369 0.0
C379 C 0.86872 0.17723 0.52956 0.0
C380 C 0.92679 0.20365 0.54131 0.0
C381 C 0.94872 0.20642 0.49403 0.0
C382 C 0.94169 0.17865 0.55602 0.0
C383 C 0.96889 0.189 0.57061 0.0
C384 C 0.98149 0.22449 0.57059 0.0
C385 C 0.96498 0.24987 0.55674 0.0
C386 C 0.93774 0.23955 0.54228 0.0
H387 H 0.95533 0.19838 0.4768 0.0
H388 H 0.94879 0.23614 0.49482 0.0
H389 H 0.97012 0.19639 0.50521 0.0
H390 H 0.93344 0.15081 0.55551 0.0
H391 H 0.98109 0.16893 0.58115 0.0
H392 H 0.83782 0.00112 0.92503 0.0
H393 H 0.85168 0.05154 0.94948 0.0
H394 H 0.75019 0.1003 0.93344 0.0
H395 H 0.73595 0.04983 0.90907 0.0
H396 H 0.85281 0.12933 0.94433 0.0
H397 H 0.74634 0.07929 0.00118 0.0
H398 H 0.76372 0.05249 0.97876 0.0
H399 H 0.7333 0.0886 0.97311 0.0
C400 C 0.81881 0.02295 0.92632 0.0
C401 C 0.78564 0.02137 0.91538 0.0
C402 C 0.82676 0.05172 0.94027 0.0
C403 C 0.80167 0.07924 0.94348 0.0
C404 C 0.76965 0.07902 0.93136 0.0
H405 H 0.85185 0.25258 0.03854 0.0
H406 H 0.82692 0.22299 0.00558 0.0
C407 C 0.76165 0.05025 0.91741 0.0
C408 C 0.80771 0.10593 0.96116 0.0
H409 H 0.78137 0.12742 0.0136 0.0
C410 C 0.83687 0.12946 0.95934 0.0
C411 C 0.78693 0.10561 0.98075 0.0
C412 C 0.75594 0.08005 0.98378 0.0
C413 C 0.84654 0.15199 0.97697 0.0
C414 C 0.82638 0.1509 0.99676 0.0
C415 C 0.79648 0.1283 -0.00173 0.0
C416 C 0.83869 0.16931 0.017 0.0
C417 C 0.87934 0.17539 0.97482 0.0
C418 C 0.85256 0.14877 0.03443 0.0
C419 C 0.86674 0.16544 0.0531 0.0
C420 C 0.86706 0.20299 0.05477 0.0
C421 C 0.85189 0.22357 0.03767 0.0
C422 C 0.83786 0.20679 0.01883 0.0
H423 H 0.89406 0.17047 0.95913 0.0
H424 H 0.87122 0.204 0.9753 0.0
H425 H 0.89782 0.17062 0.98893 0.0
H426 H 0.85331 0.11978 0.03329 0.0
H427 H 0.87814 0.14889 0.06605 0.0
H428 H 0.24604 0.1675 0.94612 0.0
H429 H 0.21546 0.19883 0.9765 0.0
H430 H 0.11944 0.13795 0.96345 0.0
H431 H 0.14934 0.10728 0.93304 0.0
H432 H 0.10661 0.20998 0.96957 0.0
H433 H 0.19183 0.15425 0.03694 0.0
H434 H 0.21469 0.17778 0.01514 0.0
H435 H 0.19226 0.1363 0.0092 0.0
C436 C 0.21835 0.16104 0.9497 0.0
C437 C 0.20008 0.1349 0.93728 0.0
C438 C 0.20104 0.17873 0.96712 0.0
C439 C 0.16538 0.17029 0.97239 0.0
C440 C 0.147 0.14478 0.95967 0.0
H441 H 0.02599 0.1786 0.0821 0.0
H442 H 0.07395 0.16633 0.05554 0.0
C443 C 0.16414 0.12727 0.9423 0.0
C444 C 0.14661 0.18755 0.99113 0.0
H445 H 0.14326 0.19052 0.04758 0.0
C446 C 0.11482 0.2062 0.98664 0.0
C447 C 0.15738 0.1822 0.01334 0.0
C448 C 0.19075 0.16135 0.01909 0.0
C449 C 0.09261 0.21837 0.00374 0.0
C450 C 0.10307 0.21259 0.02598 0.0
C451 C 0.13554 0.19511 0.03051 0.0
C452 C 0.07882 0.22138 0.04458 0.0
C453 C 0.05719 0.23543 -0.00222 0.0
C454 C 0.06688 0.25662 0.04789 0.0
C455 C 0.0392 0.26358 0.06282 0.0
C456 C 0.02353 0.23549 0.07493 0.0
C457 C 0.03755 0.20072 0.07293 0.0
C458 C 0.06494 0.1937 0.05779 0.0
H459 H 0.04991 0.23076 0.98018 0.0
H460 H 0.0353 0.22484 0.00837 0.0
H461 H 0.05895 0.26482 0.00042 0.0
H462 H 0.07784 0.27846 0.03821 0.0
H463 H 0.02915 0.29073 0.06424 0.0
H464 H 0.14365 0.74265 0.03814 0.0
H465 H 0.17079 0.77273 0.0061 0.0
H466 H 0.15769 0.87495 0.03848 0.0
H467 H 0.13017 0.84534 0.07019 0.0
H468 H 0.12704 0.87068 0.99612 0.0
H469 H 0.26859 0.82348 0.99662 0.0
H470 H 0.23411 0.78985 -0.00165 0.0
H471 H 0.2402 0.82078 0.02077 0.0
C472 C 0.14726 0.77146 0.03856 0.0
C473 C 0.13465 0.79173 0.05656 0.0
C474 C 0.16282 0.78855 0.02029 0.0
C475 C 0.16626 0.82602 0.01998 0.0
C476 C 0.15517 0.846 0.03841 0.0
H477 H 0.27047 0.9886 0.9493 0.0
H478 H 0.25309 0.93804 0.97249 0.0
C479 C 0.1395 0.82905 0.05651 0.0
C480 C 0.17838 0.8452 -7e-05 0.0
H481 H 0.25196 0.8639 0.96845 0.0
C482 C 0.15423 0.86894 0.98986 0.0
C483 C 0.21384 0.8427 0.9919 0.0
C484 C 0.2409 0.81803 0.00247 0.0
C485 C 0.16498 0.8916 0.97262 0.0
C486 C 0.2007 0.88977 0.96486 0.0
C487 C 0.22452 0.86494 0.97433 0.0
C488 C 0.2148 0.9166 0.94906 0.0
C489 C 0.13855 0.91876 0.96382 0.0
C490 C 0.19989 0.92061 0.92786 0.0
C491 C 0.20948 0.94987 0.91463 0.0
C492 C 0.2344 0.97518 0.92236 0.0
C493 C 0.25099 0.96969 0.94297 0.0
C494 C 0.24122 0.94069 0.9562 0.0
H495 H 0.11447 0.92114 0.97453 0.0
H496 H 0.1512 0.94562 0.96242 0.0
H497 H 0.12954 0.91045 0.94709 0.0
H498 H 0.17992 0.90189 0.9219 0.0
H499 H 0.19656 0.95327 0.8987 0.0
H500 H 0.80489 0.82207 0.92711 0.0
H501 H 0.83347 0.79645 0.95986 0.0
H502 H 0.77485 0.86977 0.0015 0.0
H503 H 0.74624 0.89571 0.96877 0.0
H504 H 0.84887 0.8741 0.00586 0.0
H505 H 0.80422 0.73296 0.01229 0.0
H506 H 0.81824 0.74503 0.98486 0.0
H507 H 0.77962 0.76637 0.99684 0.0
C508 C 0.79735 0.83207 0.94328 0.0
C509 C 0.77356 0.86104 0.94539 0.0
C510 C 0.81351 0.81724 0.962 0.0
C511 C 0.80603 0.83103 0.98311 0.0
C512 C 0.78076 0.85862 0.98535 0.0
H513 H 0.9509 0.80471 0.09744 0.0
H514 H 0.89694 0.82075 0.07641 0.0
C515 C 0.76448 0.87339 0.96664 0.0
C516 C 0.82855 0.82042 0.00215 0.0
H517 H 0.86003 0.74763 0.03022 0.0
C518 C 0.85082 0.8466 0.01158 0.0
C519 C 0.83104 0.78453 0.00943 0.0
C520 C 0.80675 0.75565 0.00048 0.0
C521 C 0.8772 0.83748 0.0271 0.0
C522 C 0.88075 0.80127 0.03373 0.0
C523 C 0.85724 0.77537 0.0251 0.0
C524 C 0.9111 0.78923 0.04762 0.0
C525 C 0.9025 0.86628 0.03514 0.0
C526 C 0.93614 0.76523 0.03872 0.0
C527 C 0.9666 0.7558 0.05071 0.0
C528 C 0.97266 0.77028 0.07185 0.0
C529 C 0.94704 0.79345 0.08109 0.0
C530 C 0.91632 0.8027 0.06909 0.0
H531 H 0.9006 0.89111 0.02505 0.0
H532 H 0.8958 0.87328 0.0525 0.0
H533 H 0.93066 0.85669 0.03474 0.0
H534 H 0.93262 0.75454 0.02218 0.0
H535 H 0.9858 0.73775 0.04319 0.0
H536 H 0.16593 0.23536 0.66039 0.0
H537 H 0.18692 0.21294 0.69622 0.0
H538 H 0.08273 0.16725 0.70881 0.0
H539 H 0.06145 0.18966 0.67306 0.0
H540 H 0.11298 0.20885 0.74457 0.0
H541 H 0.20651 0.10579 0.71163 0.0
H542 H 0.2118 0.15016 0.70045 0.0
H543 H 0.1714 0.12551 0.69504 0.0
C544 C 0.14752 0.22046 0.67078 0.0
C545 C 0.11209 0.21411 0.66394 0.0
C546 C 0.1596 0.20759 0.69116 0.0
C547 C 0.13645 0.18816 0.70496 0.0
C548 C 0.10098 0.1821 0.69829 0.0
H549 H 0.18733 0.06036 0.82037 0.0
H550 H 0.16497 0.083 0.78491 0.0
C551 C 0.08891 0.19484 0.67788 0.0
C552 C 0.14904 0.17456 0.72654 0.0
H553 H 0.20746 0.11571 0.75035 0.0
C554 C 0.1336 0.18847 0.74588 0.0
C555 C 0.17569 0.14777 0.72807 0.0
C556 C 0.1922 0.13113 0.70772 0.0
C557 C 0.14449 0.17654 0.76684 0.0
C558 C 0.17164 0.15026 0.76837 0.0
C559 C 0.18677 0.13603 0.74903 0.0
C560 C 0.1846 0.13697 0.78995 0.0
C561 C 0.12661 0.19175 0.78717 0.0
C562 C 0.20319 0.15985 0.80434 0.0
C563 C 0.21605 0.147 0.82454 0.0
C564 C 0.21053 0.11105 0.83061 0.0
C565 C 0.19188 0.0882 0.81614 0.0
C566 C 0.17916 0.10105 0.79591 0.0
H567 H 0.10121 0.20579 0.78307 0.0
H568 H 0.12081 0.17023 0.79936 0.0
H569 H 0.14491 0.21133 0.79515 0.0
H570 H 0.20807 0.18753 0.79984 0.0
H571 H 0.23045 0.16518 0.83535 0.0
H572 H 0.061 0.81055 0.1735 0.0
H573 H 0.08444 0.83043 0.20932 0.0
H574 H 0.1851 0.77838 0.19543 0.0
H575 H 0.16188 0.75826 0.15957 0.0
H576 H 0.11416 0.78248 0.24406 0.0
H577 H 0.20981 0.88539 0.21283 0.0
H578 H 0.17236 0.86955 0.19657 0.0
H579 H 0.21132 0.84193 0.19991 0.0
C580 C 0.08818 0.80348 0.17803 0.0
C581 C 0.10967 0.78293 0.16376 0.0
C582 C 0.10146 0.81478 0.19847 0.0
C583 C 0.1365 0.80604 0.20484 0.0
C584 C 0.15809 0.78565 0.19063 0.0
H585 H 0.24627 0.83157 0.33072 0.0
H586 H 0.22565 0.8102 0.2945 0.0
C587 C 0.14476 0.77412 0.17023 0.0
C588 C 0.15013 0.81767 0.2266 0.0
H589 H 0.20954 0.87453 0.25139 0.0
C590 C 0.13504 0.80255 0.24571 0.0
C591 C 0.17729 0.84389 0.22854 0.0
C592 C 0.19361 0.86143 0.20843 0.0
C593 C 0.1466 0.81298 0.26683 0.0
C594 C 0.17367 0.8392 0.26874 0.0
C595 C 0.18882 0.85431 0.24969 0.0
C596 C 0.18593 0.85187 0.29053 0.0
C597 C 0.12984 0.79624 0.28705 0.0
C598 C 0.17024 0.88227 0.30007 0.0
C599 C 0.1818 0.89446 0.32072 0.0
C600 C 0.20935 0.87646 0.33204 0.0
C601 C 0.22501 0.84596 0.32237 0.0
C602 C 0.21333 0.83374 0.30174 0.0
H603 H 0.10867 0.77649 0.28274 0.0
H604 H 0.15081 0.78254 0.29696 0.0
H605 H 0.11794 0.81747 0.29763 0.0
H606 H 0.14903 0.8965 0.29153 0.0
H607 H 0.16929 0.91805 0.32776 0.0
H608 H 0.92667 0.82609 0.6649 0.0
H609 H 0.90912 0.84787 0.70162 0.0
H610 H 0.81998 0.77428 0.70213 0.0
H611 H 0.83731 0.7523 0.66553 0.0
H612 H 0.84028 0.87767 0.71475 0.0
H613 H 0.87568 0.75337 0.76051 0.0
H614 H 0.89256 0.76304 0.73313 0.0
H615 H 0.84754 0.74699 0.73668 0.0
C616 C 0.90331 0.8146 0.67284 0.0
C617 C 0.88342 0.78741 0.66242 0.0
C618 C 0.89336 0.82705 0.69377 0.0
C619 C 0.86362 0.81226 0.70462 0.0
C620 C 0.84339 0.78556 0.69412 0.0
H621 H 0.75414 0.842 0.82855 0.0
H622 H 0.77648 0.82196 0.79258 0.0
C623 C 0.85321 0.77319 0.67318 0.0
C624 C 0.85337 0.82503 0.72686 0.0
H625 H 0.84385 0.79791 0.78045 0.0
C626 C 0.84127 0.86041 0.72919 0.0
C627 C 0.8547 0.80228 0.74554 0.0
C628 C 0.86859 0.76437 0.74399 0.0
C629 C 0.82942 0.87341 0.7497 0.0
C630 C 0.83054 0.85058 0.76839 0.0
C631 C 0.84306 0.81531 0.76608 0.0
C632 C 0.81789 0.86244 0.79039 0.0
C633 C 0.81473 0.91105 0.75102 0.0
C634 C 0.83424 0.89142 0.80123 0.0
C635 C 0.82143 0.90304 0.82174 0.0
C636 C 0.7923 0.88559 0.8318 0.0
C637 C 0.7766 0.856 0.82117 0.0
C638 C 0.78931 0.84452 0.80064 0.0
H639 H 0.80741 0.92162 0.73443 0.0
H640 H 0.7907 0.91212 0.76184 0.0
H641 H 0.83543 0.929 0.75816 0.0
H642 H 0.85685 0.90509 0.79381 0.0
H643 H 0.8342 0.92576 0.82964 0.0
H644 H 0.77496 0.05011 0.31161 0.0
H645 H 0.79809 0.07294 0.27645 0.0
H646 H 0.82 0.17512 0.30713 0.0
H647 H 0.7956 0.15286 0.34209 0.0
H648 H 0.78842 0.18408 0.26839 0.0
H649 H 0.90024 0.08788 0.25833 0.0
H650 H 0.85776 0.06588 0.26117 0.0
H651 H 0.87538 0.0919 0.2838 0.0
C652 C 0.78493 0.07736 0.31086 0.0
C653 C 0.78365 0.0997 0.32956 0.0
C654 C 0.79835 0.0903 0.29082 0.0
C655 C 0.81143 0.12551 0.28927 0.0
C656 C 0.81019 0.14781 0.30797 0.0
H657 H 0.93966 0.20707 0.18065 0.0
H658 H 0.91751 0.18458 0.21613 0.0
C659 C 0.7963 0.13506 0.32792 0.0
C660 C 0.82525 0.13961 0.268 0.0
H661 H 0.88576 0.12359 0.22685 0.0
C662 C 0.80986 0.17097 0.25937 0.0
C663 C 0.85356 0.12278 0.2564 0.0
C664 C 0.87295 0.09047 0.26551 0.0
C665 C 0.82172 0.18578 0.23934 0.0
C666 C 0.84892 0.16804 0.22725 0.0
C667 C 0.8646 0.13691 0.236 0.0
C668 C 0.86206 0.18166 0.20569 0.0
C669 C 0.80553 0.22072 0.23165 0.0
C670 C 0.83833 0.18703 0.18796 0.0
C671 C 0.85086 0.20037 0.1678 0.0
C672 C 0.88745 0.20781 0.1649 0.0
C673 C 0.91132 0.20155 0.18245 0.0
C674 C 0.8987 0.1887 0.2027 0.0
H675 H 0.79368 0.23597 0.24565 0.0
H676 H 0.82582 0.23791 0.2234 0.0
H677 H 0.78375 0.21503 0.21965 0.0
H678 H 0.81013 0.18078 0.18968 0.0
H679 H 0.83195 0.20461 0.15445 0.0
loop_
_geom_bond_atom_site_label_1
_geom_bond_atom_site_label_2
_geom_bond_distance
_geom_bond_site_symmetry_2
_ccdc_geom_bond_type
In0 O1 2.294 . S
In0 O2 2.326 . S
In0 O6 2.266 . S
In0 O7 2.326 . S
In0 O8 2.266 . S
In0 O9 2.326 . S
In0 O11 2.294 . S
In0 O12 2.326 . S
O1 In0 2.294 . S
O1 C10 1.240 . S
O2 In0 2.326 . S
O2 C10 1.252 . S
C3 O6 1.252 . S
C3 O7 1.260 . S
C4 O11 1.240 . S
C4 O12 1.252 . S
C5 O8 1.252 . S
C5 O9 1.260 . S
O6 In0 2.266 . S
O6 C3 1.252 . S
O7 In0 2.326 . S
O7 C3 1.260 . S
O8 In0 2.266 . S
O8 C5 1.252 . S
O9 In0 2.326 . S
O9 C5 1.260 . S
C10 O1 1.240 . S
C10 O2 1.252 . S
O11 In0 2.294 . S
O11 C4 1.240 . S
O12 In0 2.326 . S
O12 C4 1.252 . S
In13 O14 2.294 . S
In13 O15 2.326 . S
In13 O19 2.266 . S
In13 O20 2.326 . S
In13 O21 2.266 . S
In13 O22 2.326 . S
In13 O24 2.294 . S
In13 O25 2.326 . S
O14 In13 2.294 . S
O14 C23 1.240 . S
O15 In13 2.326 . S
O15 C23 1.252 . S
C16 O19 1.252 . S
C16 O20 1.260 . S
C17 O24 1.240 . S
C17 O25 1.252 . S
C18 O21 1.252 . S
C18 O22 1.260 . S
O19 In13 2.266 . S
O19 C16 1.252 . S
O20 In13 2.326 . S
O20 C16 1.260 . S
O21 In13 2.266 . S
O21 C18 1.252 . S
O22 In13 2.326 . S
O22 C18 1.260 . S
C23 O14 1.240 . S
C23 O15 1.252 . S
O24 In13 2.294 . S
O24 C17 1.240 . S
O25 In13 2.326 . S
O25 C17 1.252 . S
In26 O27 2.294 . S
In26 O28 2.326 . S
In26 O32 2.266 . S
In26 O33 2.326 . S
In26 O34 2.266 . S
In26 O35 2.326 . S
In26 O37 2.294 . S
In26 O38 2.326 . S
O27 In26 2.294 . S
O27 C36 1.240 . S
O28 In26 2.326 . S
O28 C36 1.252 . S
C29 O32 1.252 . S
C29 O33 1.260 . S
C30 O37 1.240 . S
C30 O38 1.252 . S
C31 O34 1.252 . S
C31 O35 1.260 . S
O32 In26 2.266 . S
O32 C29 1.252 . S
O33 In26 2.326 . S
O33 C29 1.260 . S
O34 In26 2.266 . S
O34 C31 1.252 . S
O35 In26 2.326 . S
O35 C31 1.260 . S
C36 O27 1.240 . S
C36 O28 1.252 . S
O37 In26 2.294 . S
O37 C30 1.240 . S
O38 In26 2.326 . S
O38 C30 1.252 . S
In39 O40 2.294 . S
In39 O41 2.326 . S
In39 O45 2.266 . S
In39 O46 2.326 . S
In39 O47 2.266 . S
In39 O48 2.326 . S
In39 O50 2.294 . S
In39 O51 2.326 . S
O40 In39 2.294 . S
O40 C49 1.240 . S
O41 In39 2.326 . S
O41 C49 1.252 . S
C42 O45 1.252 . S
C42 O46 1.260 . S
C43 O50 1.240 . S
C43 O51 1.252 . S
C44 O47 1.252 . S
C44 O48 1.260 . S
O45 In39 2.266 . S
O45 C42 1.252 . S
O46 In39 2.326 . S
O46 C42 1.260 . S
O47 In39 2.266 . S
O47 C44 1.252 . S
O48 In39 2.326 . S
O48 C44 1.260 . S
C49 O40 1.240 . S
C49 O41 1.252 . S
O50 In39 2.294 . S
O50 C43 1.240 . S
O51 In39 2.326 . S
O51 C43 1.252 . S
In52 O53 2.294 . S
In52 O54 2.326 . S
In52 O58 2.266 . S
In52 O59 2.326 . S
In52 O60 2.266 . S
In52 O61 2.326 . S
In52 O63 2.294 . S
In52 O64 2.326 . S
O53 In52 2.294 . S
O53 C62 1.240 . S
O54 In52 2.326 . S
O54 C62 1.252 . S
C55 O58 1.252 . S
C55 O59 1.260 . S
C56 O63 1.240 . S
C56 O64 1.252 . S
C57 O60 1.252 . S
C57 O61 1.260 . S
O58 In52 2.266 . S
O58 C55 1.252 . S
O59 In52 2.326 . S
O59 C55 1.260 . S
O60 In52 2.266 . S
O60 C57 1.252 . S
O61 In52 2.326 . S
O61 C57 1.260 . S
C62 O53 1.240 . S
C62 O54 1.252 . S
O63 In52 2.294 . S
O63 C56 1.240 . S
O64 In52 2.326 . S
O64 C56 1.252 . S
In65 O66 2.294 . S
In65 O67 2.326 . S
In65 O71 2.266 . S
In65 O72 2.326 . S
In65 O73 2.266 . S
In65 O74 2.326 . S
In65 O76 2.294 . S
In65 O77 2.326 . S
O66 In65 2.294 . S
O66 C75 1.240 . S
O67 In65 2.326 . S
O67 C75 1.252 . S
C68 O71 1.252 . S
C68 O72 1.260 . S
C69 O76 1.240 . S
C69 O77 1.252 . S
C70 O73 1.252 . S
C70 O74 1.260 . S
O71 In65 2.266 . S
O71 C68 1.252 . S
O72 In65 2.326 . S
O72 C68 1.260 . S
O73 In65 2.266 . S
O73 C70 1.252 . S
O74 In65 2.326 . S
O74 C70 1.260 . S
C75 O66 1.240 . S
C75 O67 1.252 . S
O76 In65 2.294 . S
O76 C69 1.240 . S
O77 In65 2.326 . S
O77 C69 1.252 . S
In78 O79 2.294 . S
In78 O80 2.326 . S
In78 O84 2.266 . S
In78 O85 2.326 . S
In78 O86 2.266 . S
In78 O87 2.326 . S
In78 O89 2.294 . S
In78 O90 2.326 . S
O79 In78 2.294 . S
O79 C88 1.240 . S
O80 In78 2.326 . S
O80 C88 1.252 . S
C81 O84 1.252 . S
C81 O85 1.260 . S
C82 O89 1.240 . S
C82 O90 1.252 . S
C83 O86 1.252 . S
C83 O87 1.260 . S
O84 In78 2.266 . S
O84 C81 1.252 . S
O85 In78 2.326 . S
O85 C81 1.260 . S
O86 In78 2.266 . S
O86 C83 1.252 . S
O87 In78 2.326 . S
O87 C83 1.260 . S
C88 O79 1.240 . S
C88 O80 1.252 . S
O89 In78 2.294 . S
O89 C82 1.240 . S
O90 In78 2.326 . S
O90 C82 1.252 . S
In91 O92 2.294 . S
In91 O93 2.326 . S
In91 O97 2.266 . S
In91 O98 2.326 . S
In91 O99 2.266 . S
In91 O100 2.326 . S
In91 O102 2.294 . S
In91 O103 2.326 . S
O92 In91 2.294 . S
O92 C101 1.240 . S
O93 In91 2.326 . S
O93 C101 1.252 . S
C94 O97 1.252 . S
C94 O98 1.260 . S
C95 O102 1.240 . S
C95 O103 1.252 . S
C96 O99 1.252 . S
C96 O100 1.260 . S
O97 In91 2.266 . S
O97 C94 1.252 . S
O98 In91 2.326 . S
O98 C94 1.260 . S
O99 In91 2.266 . S
O99 C96 1.252 . S
O100 In91 2.326 . S
O100 C96 1.260 . S
C101 O92 1.240 . S
C101 O93 1.252 . S
O102 In91 2.294 . S
O102 C95 1.240 . S
O103 In91 2.326 . S
O103 C95 1.252 . S
H104 C112 0.929 . S
H105 C114 0.930 . S
H106 C116 0.930 . S
H107 C119 0.929 . S
H108 C122 0.930 . S
H109 C124 0.960 . S
H110 C124 0.960 . S
H111 C124 0.960 . S
C112 H104 0.929 . S
C112 C113 1.377 . S
C112 C114 1.384 . S
C113 C112 1.377 . S
C113 C119 1.390 . S
C114 H105 0.930 . S
C114 C112 1.384 . S
C114 C115 1.372 . S
C115 C114 1.372 . S
C115 C116 1.400 . S
C115 C120 1.490 . S
C116 H106 0.930 . S
C116 C115 1.400 . S
C116 C119 1.386 . S
H117 C133 0.930 . S
H118 C134 0.931 . S
C119 H107 0.929 . S
C119 C113 1.390 . S
C119 C116 1.386 . S
C120 C115 1.490 . S
C120 C122 1.395 . S
C120 C123 1.403 1_655 S
H121 C127 0.930 . S
C122 H108 0.930 . S
C122 C120 1.395 . S
C122 C125 1.403 . S
C123 C120 1.403 1_455 S
C123 C124 1.524 . S
C123 C127 1.400 . S
C124 H109 0.960 . S
C124 H110 0.960 . S
C124 H111 0.960 . S
C124 C123 1.524 . S
C125 C122 1.403 . S
C125 C126 1.392 1_655 S
C125 C129 1.495 . S
C126 C125 1.392 1_455 S
C126 C127 1.385 . S
C126 C128 1.478 . S
C127 H121 0.930 . S
C127 C123 1.400 . S
C127 C126 1.385 . S
C128 C126 1.478 . S
C128 C130 1.381 . S
C128 C134 1.383 . S
C129 C125 1.495 . S
C129 H135 0.959 . S
C129 H136 0.961 . S
C129 H137 0.960 . S
C130 C128 1.381 . S
C130 C131 1.394 . S
C130 H138 0.930 . S
C131 C130 1.394 . S
C131 C132 1.383 . S
C131 H139 0.929 . S
C132 C131 1.383 . S
C132 C133 1.377 . S
C133 H117 0.930 . S
C133 C132 1.377 . S
C133 C134 1.379 . S
C134 H118 0.931 . S
C134 C128 1.383 . S
C134 C133 1.379 . S
H135 C129 0.959 . S
H136 C129 0.961 . S
H137 C129 0.960 . S
H138 C130 0.930 . S
H139 C131 0.929 . S
H140 C148 0.929 . S
H141 C150 0.930 . S
H142 C152 0.930 . S
H143 C155 0.929 . S
H144 C158 0.930 . S
H145 C160 0.960 . S
H146 C160 0.960 . S
H147 C160 0.960 . S
C148 H140 0.929 . S
C148 C149 1.377 . S
C148 C150 1.384 . S
C149 C148 1.377 . S
C149 C155 1.390 . S
C150 H141 0.930 . S
C150 C148 1.384 . S
C150 C151 1.372 . S
C151 C150 1.372 . S
C151 C152 1.400 . S
C151 C156 1.490 . S
C152 H142 0.930 . S
C152 C151 1.400 . S
C152 C155 1.386 . S
H153 C169 0.930 . S
H154 C170 0.931 . S
C155 H143 0.929 . S
C155 C149 1.390 . S
C155 C152 1.386 . S
C156 C151 1.490 . S
C156 C158 1.395 . S
C156 C159 1.403 1_545 S
H157 C163 0.930 . S
C158 H144 0.930 . S
C158 C156 1.395 . S
C158 C161 1.403 . S
C159 C156 1.403 1_565 S
C159 C160 1.524 . S
C159 C163 1.400 . S
C160 H145 0.960 . S
C160 H146 0.960 . S
C160 H147 0.960 . S
C160 C159 1.524 . S
C161 C158 1.403 . S
C161 C162 1.392 1_545 S
C161 C165 1.495 . S
C162 C161 1.392 1_565 S
C162 C163 1.385 . S
C162 C164 1.478 . S
C163 H157 0.930 . S
C163 C159 1.400 . S
C163 C162 1.385 . S
C164 C162 1.478 . S
C164 C166 1.381 . S
C164 C170 1.383 . S
C165 C161 1.495 . S
C165 H171 0.959 . S
C165 H172 0.961 . S
C165 H173 0.960 . S
C166 C164 1.381 . S
C166 C167 1.394 . S
C166 H174 0.930 . S
C167 C166 1.394 . S
C167 C168 1.383 . S
C167 H175 0.929 . S
C168 C167 1.383 . S
C168 C169 1.377 . S
C169 H153 0.930 . S
C169 C168 1.377 . S
C169 C170 1.379 . S
C170 H154 0.931 . S
C170 C164 1.383 . S
C170 C169 1.379 . S
H171 C165 0.959 . S
H172 C165 0.961 . S
H173 C165 0.960 . S
H174 C166 0.930 . S
H175 C167 0.929 . S
H176 C184 0.929 . S
H177 C186 0.930 . S
H178 C188 0.930 . S
H179 C191 0.929 . S
H180 C194 0.930 . S
H181 C196 0.960 . S
H182 C196 0.960 . S
H183 C196 0.960 . S
C184 H176 0.929 . S
C184 C185 1.377 . S
C184 C186 1.384 . S
C185 C184 1.377 . S
C185 C191 1.390 . S
C186 H177 0.930 . S
C186 C184 1.384 . S
C186 C187 1.372 . S
C187 C186 1.372 . S
C187 C188 1.400 . S
C187 C192 1.490 . S
C188 H178 0.930 . S
C188 C187 1.400 . S
C188 C191 1.386 . S
H189 C205 0.930 . S
H190 C206 0.931 . S
C191 H179 0.929 . S
C191 C185 1.390 . S
C191 C188 1.386 . S
C192 C187 1.490 . S
C192 C194 1.395 1_655 S
C192 C195 1.403 . S
H193 C199 0.930 . S
C194 H180 0.930 . S
C194 C192 1.395 1_455 S
C194 C197 1.403 . S
C195 C192 1.403 . S
C195 C196 1.524 . S
C195 C199 1.400 . S
C196 H181 0.960 . S
C196 H182 0.960 . S
C196 H183 0.960 . S
C196 C195 1.524 . S
C197 C194 1.403 . S
C197 C198 1.392 . S
C197 C201 1.495 . S
C198 C197 1.392 . S
C198 C199 1.385 1_455 S
C198 C200 1.478 . S
C199 H193 0.930 . S
C199 C195 1.400 . S
C199 C198 1.385 1_655 S
C200 C198 1.478 . S
C200 C202 1.381 . S
C200 C206 1.383 . S
C201 C197 1.495 . S
C201 H207 0.959 . S
C201 H208 0.961 . S
C201 H209 0.960 . S
C202 C200 1.381 . S
C202 C203 1.394 . S
C202 H210 0.930 . S
C203 C202 1.394 . S
C203 C204 1.383 . S
C203 H211 0.929 . S
C204 C203 1.383 . S
C204 C205 1.377 . S
C205 H189 0.930 . S
C205 C204 1.377 . S
C205 C206 1.379 . S
C206 H190 0.931 . S
C206 C200 1.383 . S
C206 C205 1.379 . S
H207 C201 0.959 . S
H208 C201 0.961 . S
H209 C201 0.960 . S
H210 C202 0.930 . S
H211 C203 0.929 . S
H212 C220 0.929 . S
H213 C222 0.930 . S
H214 C224 0.930 . S
H215 C227 0.929 . S
H216 C230 0.930 . S
H217 C232 0.960 . S
H218 C232 0.960 . S
H219 C232 0.960 . S
C220 H212 0.929 . S
C220 C221 1.377 . S
C220 C222 1.384 . S
C221 C220 1.377 . S
C221 C227 1.390 . S
C222 H213 0.930 . S
C222 C220 1.384 . S
C222 C223 1.372 . S
C223 C222 1.372 . S
C223 C224 1.400 . S
C223 C228 1.490 . S
C224 H214 0.930 . S
C224 C223 1.400 . S
C224 C227 1.386 . S
H225 C241 0.930 . S
H226 C242 0.931 . S
C227 H215 0.929 . S
C227 C221 1.390 . S
C227 C224 1.386 . S
C228 C223 1.490 . S
C228 C230 1.395 . S
C228 C231 1.403 1_545 S
H229 C235 0.930 . S
C230 H216 0.930 . S
C230 C228 1.395 . S
C230 C233 1.403 . S
C231 C228 1.403 1_565 S
C231 C232 1.524 . S
C231 C235 1.400 . S
C232 H217 0.960 . S
C232 H218 0.960 . S
C232 H219 0.960 . S
C232 C231 1.524 . S
C233 C230 1.403 . S
C233 C234 1.392 1_545 S
C233 C237 1.495 . S
C234 C233 1.392 1_565 S
C234 C235 1.385 . S
C234 C236 1.478 . S
C235 H229 0.930 . S
C235 C231 1.400 . S
C235 C234 1.385 . S
C236 C234 1.478 . S
C236 C238 1.381 . S
C236 C242 1.383 . S
C237 C233 1.495 . S
C237 H243 0.959 . S
C237 H244 0.961 . S
C237 H245 0.960 . S
C238 C236 1.381 . S
C238 C239 1.394 . S
C238 H246 0.930 . S
C239 C238 1.394 . S
C239 C240 1.383 . S
C239 H247 0.929 . S
C240 C239 1.383 . S
C240 C241 1.377 . S
C241 H225 0.930 . S
C241 C240 1.377 . S
C241 C242 1.379 . S
C242 H226 0.931 . S
C242 C236 1.383 . S
C242 C241 1.379 . S
H243 C237 0.959 . S
H244 C237 0.961 . S
H245 C237 0.960 . S
H246 C238 0.930 . S
H247 C239 0.929 . S
H248 C256 0.929 . S
H249 C258 0.930 1_565 S
H250 C260 0.930 . S
H251 C263 0.929 . S
H252 C266 0.930 . S
H253 C268 0.960 . S
H254 C268 0.960 . S
H255 C268 0.960 . S
C256 H248 0.929 . S
C256 C257 1.377 . S
C256 C258 1.384 1_565 S
C257 C256 1.377 . S
C257 C263 1.390 1_565 S
C258 H249 0.930 1_545 S
C258 C256 1.384 1_545 S
C258 C259 1.372 . S
C259 C258 1.372 . S
C259 C260 1.400 . S
C259 C264 1.490 . S
C260 H250 0.930 . S
C260 C259 1.400 . S
C260 C263 1.386 . S
H261 C277 0.930 . S
H262 C278 0.931 . S
C263 H251 0.929 . S
C263 C257 1.390 1_545 S
C263 C260 1.386 . S
C264 C259 1.490 . S
C264 C266 1.395 . S
C264 C267 1.403 . S
H265 C271 0.930 . S
C266 H252 0.930 . S
C266 C264 1.395 . S
C266 C269 1.403 . S
C267 C264 1.403 . S
C267 C268 1.524 . S
C267 C271 1.400 . S
C268 H253 0.960 . S
C268 H254 0.960 . S
C268 H255 0.960 . S
C268 C267 1.524 . S
C269 C266 1.403 . S
C269 C270 1.392 . S
C269 C273 1.495 . S
C270 C269 1.392 . S
C270 C271 1.385 . S
C270 C272 1.478 . S
C271 H265 0.930 . S
C271 C267 1.400 . S
C271 C270 1.385 . S
C272 C270 1.478 . S
C272 C274 1.381 . S
C272 C278 1.383 . S
C273 C269 1.495 . S
C273 H279 0.959 . S
C273 H280 0.961 . S
C273 H281 0.960 . S
C274 C272 1.381 . S
C274 C275 1.394 . S
C274 H282 0.930 . S
C275 C274 1.394 . S
C275 C276 1.383 . S
C275 H283 0.929 . S
C276 C275 1.383 . S
C276 C277 1.377 . S
C277 H261 0.930 . S
C277 C276 1.377 . S
C277 C278 1.379 . S
C278 H262 0.931 . S
C278 C272 1.383 . S
C278 C277 1.379 . S
H279 C273 0.959 . S
H280 C273 0.961 . S
H281 C273 0.960 . S
H282 C274 0.930 . S
H283 C275 0.929 . S
H284 C292 0.929 . S
H285 C294 0.930 . S
H286 C296 0.930 . S
H287 C299 0.929 . S
H288 C302 0.930 . S
H289 C304 0.960 . S
H290 C304 0.960 . S
H291 C304 0.960 . S
C292 H284 0.929 . S
C292 C293 1.377 . S
C292 C294 1.384 . S
C293 C292 1.377 . S
C293 C299 1.390 . S
C294 H285 0.930 . S
C294 C292 1.384 . S
C294 C295 1.372 . S
C295 C294 1.372 . S
C295 C296 1.400 . S
C295 C300 1.490 . S
C296 H286 0.930 . S
C296 C295 1.400 . S
C296 C299 1.386 . S
H297 C313 0.930 . S
H298 C314 0.931 . S
C299 H287 0.929 . S
C299 C293 1.390 . S
C299 C296 1.386 . S
C300 C295 1.490 . S
C300 C302 1.395 . S
C300 C303 1.403 . S
H301 C307 0.930 . S
C302 H288 0.930 . S
C302 C300 1.395 . S
C302 C305 1.403 . S
C303 C300 1.403 . S
C303 C304 1.524 . S
C303 C307 1.400 . S
C304 H289 0.960 . S
C304 H290 0.960 . S
C304 H291 0.960 . S
C304 C303 1.524 . S
C305 C302 1.403 . S
C305 C306 1.392 . S
C305 C309 1.495 . S
C306 C305 1.392 . S
C306 C307 1.385 . S
C306 C308 1.478 . S
C307 H301 0.930 . S
C307 C303 1.400 . S
C307 C306 1.385 . S
C308 C306 1.478 . S
C308 C310 1.381 . S
C308 C314 1.383 . S
C309 C305 1.495 . S
C309 H315 0.959 . S
C309 H316 0.961 . S
C309 H317 0.960 . S
C310 C308 1.381 . S
C310 C311 1.394 . S
C310 H318 0.930 . S
C311 C310 1.394 . S
C311 C312 1.383 1_455 S
C311 H319 0.929 . S
C312 C311 1.383 1_655 S
C312 C313 1.377 . S
C313 H297 0.930 . S
C313 C312 1.377 . S
C313 C314 1.379 1_655 S
C314 H298 0.931 . S
C314 C308 1.383 . S
C314 C313 1.379 1_455 S
H315 C309 0.959 . S
H316 C309 0.961 . S
H317 C309 0.960 . S
H318 C310 0.930 . S
H319 C311 0.929 . S
H320 C328 0.929 . S
H321 C330 0.930 . S
H322 C332 0.930 . S
H323 C335 0.929 . S
H324 C338 0.930 . S
H325 C340 0.960 . S
H326 C340 0.960 . S
H327 C340 0.960 . S
C328 H320 0.929 . S
C328 C329 1.377 1_565 S
C328 C330 1.384 . S
C329 C328 1.377 1_545 S
C329 C335 1.390 . S
C330 H321 0.930 . S
C330 C328 1.384 . S
C330 C331 1.372 . S
C331 C330 1.372 . S
C331 C332 1.400 . S
C331 C336 1.490 . S
C332 H322 0.930 . S
C332 C331 1.400 . S
C332 C335 1.386 1_565 S
H333 C349 0.930 . S
H334 C350 0.931 . S
C335 H323 0.929 . S
C335 C329 1.390 . S
C335 C332 1.386 1_545 S
C336 C331 1.490 . S
C336 C338 1.395 . S
C336 C339 1.403 . S
H337 C343 0.930 . S
C338 H324 0.930 . S
C338 C336 1.395 . S
C338 C341 1.403 . S
C339 C336 1.403 . S
C339 C340 1.524 . S
C339 C343 1.400 . S
C340 H325 0.960 . S
C340 H326 0.960 . S
C340 H327 0.960 . S
C340 C339 1.524 . S
C341 C338 1.403 . S
C341 C342 1.392 . S
C341 C345 1.495 . S
C342 C341 1.392 . S
C342 C343 1.385 . S
C342 C344 1.478 . S
C343 H337 0.930 . S
C343 C339 1.400 . S
C343 C342 1.385 . S
C344 C342 1.478 . S
C344 C346 1.381 . S
C344 C350 1.383 . S
C345 C341 1.495 . S
C345 H351 0.959 . S
C345 H352 0.961 . S
C345 H353 0.960 . S
C346 C344 1.381 . S
C346 C347 1.394 . S
C346 H354 0.930 . S
C347 C346 1.394 . S
C347 C348 1.383 . S
C347 H355 0.929 . S
C348 C347 1.383 . S
C348 C349 1.377 . S
C349 H333 0.930 . S
C349 C348 1.377 . S
C349 C350 1.379 . S
C350 H334 0.931 . S
C350 C344 1.383 . S
C350 C349 1.379 . S
H351 C345 0.959 . S
H352 C345 0.961 . S
H353 C345 0.960 . S
H354 C346 0.930 . S
H355 C347 0.929 . S
H356 C364 0.929 . S
H357 C366 0.930 . S
H358 C368 0.930 . S
H359 C371 0.929 . S
H360 C374 0.930 . S
H361 C376 0.960 . S
H362 C376 0.960 . S
H363 C376 0.960 . S
C364 H356 0.929 . S
C364 C365 1.377 . S
C364 C366 1.384 . S
C365 C364 1.377 . S
C365 C371 1.390 . S
C366 H357 0.930 . S
C366 C364 1.384 . S
C366 C367 1.372 . S
C367 C366 1.372 . S
C367 C368 1.400 . S
C367 C372 1.490 . S
C368 H358 0.930 . S
C368 C367 1.400 . S
C368 C371 1.386 . S
H369 C385 0.930 . S
H370 C386 0.931 . S
C371 H359 0.929 . S
C371 C365 1.390 . S
C371 C368 1.386 . S
C372 C367 1.490 . S
C372 C374 1.395 . S
C372 C375 1.403 . S
H373 C379 0.930 . S
C374 H360 0.930 . S
C374 C372 1.395 . S
C374 C377 1.403 . S
C375 C372 1.403 . S
C375 C376 1.524 . S
C375 C379 1.400 . S
C376 H361 0.960 . S
C376 H362 0.960 . S
C376 H363 0.960 . S
C376 C375 1.524 . S
C377 C374 1.403 . S
C377 C378 1.392 . S
C377 C381 1.495 . S
C378 C377 1.392 . S
C378 C379 1.385 . S
C378 C380 1.478 . S
C379 H373 0.930 . S
C379 C375 1.400 . S
C379 C378 1.385 . S
C380 C378 1.478 . S
C380 C382 1.381 . S
C380 C386 1.383 . S
C381 C377 1.495 . S
C381 H387 0.959 . S
C381 H388 0.961 . S
C381 H389 0.960 1_655 S
C382 C380 1.381 . S
C382 C383 1.394 1_655 S
C382 H390 0.930 . S
C383 C382 1.394 1_455 S
C383 C384 1.383 . S
C383 H391 0.929 . S
C384 C383 1.383 . S
C384 C385 1.377 1_455 S
C385 H369 0.930 . S
C385 C384 1.377 1_655 S
C385 C386 1.379 . S
C386 H370 0.931 . S
C386 C380 1.383 . S
C386 C385 1.379 . S
H387 C381 0.959 . S
H388 C381 0.961 . S
H389 C381 0.960 1_455 S
H390 C382 0.930 . S
H391 C383 0.929 . S
H392 C400 0.929 . S
H393 C402 0.930 . S
H394 C404 0.930 . S
H395 C407 0.929 . S
H396 C410 0.930 . S
H397 C412 0.960 . S
H398 C412 0.960 . S
H399 C412 0.960 1_556 S
C400 H392 0.929 . S
C400 C401 1.377 . S
C400 C402 1.384 1_565 S
C401 C400 1.377 . S
C401 C407 1.390 1_565 S
C402 H393 0.930 . S
C402 C400 1.384 1_545 S
C402 C403 1.372 . S
C403 C402 1.372 . S
C403 C404 1.400 . S
C403 C408 1.490 . S
C404 H394 0.930 . S
C404 C403 1.400 . S
C404 C407 1.386 . S
H405 C421 0.930 . S
H406 C422 0.931 . S
C407 H395 0.929 . S
C407 C401 1.390 1_545 S
C407 C404 1.386 . S
C408 C403 1.490 . S
C408 C410 1.395 . S
C408 C411 1.403 1_556 S
H409 C415 0.930 . S
C410 H396 0.930 . S
C410 C408 1.395 . S
C410 C413 1.403 . S
C411 C408 1.403 1_554 S
C411 C412 1.524 . S
C411 C415 1.400 . S
C412 H397 0.960 . S
C412 H398 0.960 . S
C412 H399 0.960 1_554 S
C412 C411 1.524 . S
C413 C410 1.403 . S
C413 C414 1.392 1_556 S
C413 C417 1.495 . S
C414 C413 1.392 1_554 S
C414 C415 1.385 . S
C414 C416 1.478 . S
C415 H409 0.930 . S
C415 C411 1.400 . S
C415 C414 1.385 . S
C416 C414 1.478 . S
C416 C418 1.381 . S
C416 C422 1.383 . S
C417 C413 1.495 . S
C417 H423 0.959 . S
C417 H424 0.961 . S
C417 H425 0.960 1_556 S
C418 C416 1.381 . S
C418 C419 1.394 . S
C418 H426 0.930 . S
C419 C418 1.394 . S
C419 C420 1.383 . S
C419 H427 0.929 . S
C420 C419 1.383 . S
C420 C421 1.377 . S
C421 H405 0.930 . S
C421 C420 1.377 . S
C421 C422 1.379 . S
C422 H406 0.931 . S
C422 C416 1.383 . S
C422 C421 1.379 . S
H423 C417 0.959 . S
H424 C417 0.961 . S
H425 C417 0.960 1_554 S
H426 C418 0.930 . S
H427 C419 0.929 . S
H428 C436 0.929 . S
H429 C438 0.930 . S
H430 C440 0.930 . S
H431 C443 0.929 . S
H432 C446 0.930 . S
H433 C448 0.960 . S
H434 C448 0.960 . S
H435 C448 0.960 . S
C436 H428 0.929 . S
C436 C437 1.377 . S
C436 C438 1.384 . S
C437 C436 1.377 . S
C437 C443 1.390 . S
C438 H429 0.930 . S
C438 C436 1.384 . S
C438 C439 1.372 . S
C439 C438 1.372 . S
C439 C440 1.400 . S
C439 C444 1.490 . S
C440 H430 0.930 . S
C440 C439 1.400 . S
C440 C443 1.386 . S
H441 C457 0.930 . S
H442 C458 0.931 . S
C443 H431 0.929 . S
C443 C437 1.390 . S
C443 C440 1.386 . S
C444 C439 1.490 . S
C444 C446 1.395 . S
C444 C447 1.403 1_556 S
H445 C451 0.930 . S
C446 H432 0.930 . S
C446 C444 1.395 . S
C446 C449 1.403 . S
C447 C444 1.403 1_554 S
C447 C448 1.524 . S
C447 C451 1.400 . S
C448 H433 0.960 . S
C448 H434 0.960 . S
C448 H435 0.960 . S
C448 C447 1.524 . S
C449 C446 1.403 . S
C449 C450 1.392 1_556 S
C449 C453 1.495 . S
C450 C449 1.392 1_554 S
C450 C451 1.385 . S
C450 C452 1.478 . S
C451 H445 0.930 . S
C451 C447 1.400 . S
C451 C450 1.385 . S
C452 C450 1.478 . S
C452 C454 1.381 . S
C452 C458 1.383 . S
C453 C449 1.495 . S
C453 H459 0.959 . S
C453 H460 0.977 . S
C453 H461 0.960 . S
C454 C452 1.381 . S
C454 C455 1.394 1_455 S
C454 H462 0.930 . S
C455 C454 1.394 1_655 S
C455 C456 1.383 . S
C455 H463 0.929 . S
C456 C455 1.383 . S
C456 C457 1.377 . S
C457 H441 0.930 . S
C457 C456 1.377 . S
C457 C458 1.379 1_655 S
C458 H442 0.931 . S
C458 C452 1.383 . S
C458 C457 1.379 1_455 S
H459 C453 0.959 . S
H460 C453 0.977 . S
H461 C453 0.960 . S
H462 C454 0.930 . S
H463 C455 0.929 . S
H464 C472 0.929 . S
H465 C474 0.930 . S
H466 C476 0.930 . S
H467 C479 0.929 . S
H468 C482 0.930 . S
H469 C484 0.960 . S
H470 C484 0.960 . S
H471 C484 0.960 . S
C472 H464 0.929 . S
C472 C473 1.377 . S
C472 C474 1.384 . S
C473 C472 1.377 . S
C473 C479 1.390 . S
C474 H465 0.930 . S
C474 C472 1.384 . S
C474 C475 1.372 . S
C475 C474 1.372 . S
C475 C476 1.400 . S
C475 C480 1.490 . S
C476 H466 0.930 . S
C476 C475 1.400 . S
C476 C479 1.386 . S
H477 C493 0.930 . S
H478 C494 0.931 . S
C479 H467 0.929 . S
C479 C473 1.390 . S
C479 C476 1.386 . S
C480 C475 1.490 . S
C480 C482 1.395 . S
C480 C483 1.403 . S
H481 C487 0.930 . S
C482 H468 0.930 . S
C482 C480 1.395 . S
C482 C485 1.403 1_554 S
C483 C480 1.403 . S
C483 C484 1.524 . S
C483 C487 1.400 1_554 S
C484 H469 0.960 . S
C484 H470 0.960 . S
C484 H471 0.960 . S
C484 C483 1.524 . S
C485 C482 1.403 1_556 S
C485 C486 1.392 . S
C485 C489 1.495 . S
C486 C485 1.392 . S
C486 C487 1.385 . S
C486 C488 1.478 . S
C487 H481 0.930 . S
C487 C483 1.400 1_556 S
C487 C486 1.385 . S
C488 C486 1.478 . S
C488 C490 1.381 . S
C488 C494 1.383 . S
C489 C485 1.495 . S
C489 H495 0.959 . S
C489 H496 0.961 . S
C489 H497 0.960 . S
C490 C488 1.381 . S
C490 C491 1.394 . S
C490 H498 0.930 . S
C491 C490 1.394 . S
C491 C492 1.383 1_565 S
C491 H499 0.929 . S
C492 C491 1.383 1_545 S
C492 C493 1.377 . S
C493 H477 0.930 . S
C493 C492 1.377 . S
C493 C494 1.379 1_545 S
C494 H478 0.931 . S
C494 C488 1.383 . S
C494 C493 1.379 1_565 S
H495 C489 0.959 . S
H496 C489 0.961 . S
H497 C489 0.960 . S
H498 C490 0.930 . S
H499 C491 0.929 . S
H500 C508 0.929 . S
H501 C510 0.930 . S
H502 C512 0.930 . S
H503 C515 0.929 . S
H504 C518 0.930 . S
H505 C520 0.960 . S
H506 C520 0.960 . S
H507 C520 0.960 . S
C508 H500 0.929 . S
C508 C509 1.377 . S
C508 C510 1.384 . S
C509 C508 1.377 . S
C509 C515 1.390 . S
C510 H501 0.930 . S
C510 C508 1.384 . S
C510 C511 1.372 . S
C511 C510 1.372 . S
C511 C512 1.400 . S
C511 C516 1.490 . S
C512 H502 0.930 . S
C512 C511 1.400 . S
C512 C515 1.386 . S
H513 C529 0.930 . S
H514 C530 0.931 . S
C515 H503 0.929 . S
C515 C509 1.390 . S
C515 C512 1.386 . S
C516 C511 1.490 . S
C516 C518 1.395 . S
C516 C519 1.403 . S
H517 C523 0.930 . S
C518 H504 0.930 . S
C518 C516 1.395 . S
C518 C521 1.403 1_556 S
C519 C516 1.403 . S
C519 C520 1.524 . S
C519 C523 1.400 1_556 S
C520 H505 0.960 . S
C520 H506 0.960 . S
C520 H507 0.960 . S
C520 C519 1.524 . S
C521 C518 1.403 1_554 S
C521 C522 1.392 . S
C521 C525 1.495 . S
C522 C521 1.392 . S
C522 C523 1.385 . S
C522 C524 1.478 . S
C523 H517 0.930 . S
C523 C519 1.400 1_554 S
C523 C522 1.385 . S
C524 C522 1.478 . S
C524 C526 1.380 1_655 S
C524 C530 1.383 . S
C525 C521 1.495 . S
C525 H531 0.959 . S
C525 H532 0.961 . S
C525 H533 0.960 . S
C526 C524 1.380 1_455 S
C526 C527 1.395 . S
C526 H534 0.931 . S
C527 C526 1.395 . S
C527 C528 1.383 . S
C527 H535 0.929 . S
C528 C527 1.383 . S
C528 C529 1.377 1_455 S
C529 H513 0.930 . S
C529 C528 1.377 1_655 S
C529 C530 1.379 . S
C530 H514 0.931 . S
C530 C524 1.383 . S
C530 C529 1.379 . S
H531 C525 0.959 . S
H532 C525 0.961 . S
H533 C525 0.960 . S
H534 C526 0.931 . S
H535 C527 0.929 . S
H536 C544 0.929 . S
H537 C546 0.930 . S
H538 C548 0.930 . S
H539 C551 0.929 . S
H540 C554 0.930 . S
H541 C556 0.960 . S
H542 C556 0.960 . S
H543 C556 0.960 . S
C544 H536 0.929 . S
C544 C545 1.377 . S
C544 C546 1.384 . S
C545 C544 1.377 . S
C545 C551 1.390 . S
C546 H537 0.930 . S
C546 C544 1.384 . S
C546 C547 1.372 . S
C547 C546 1.372 . S
C547 C548 1.400 . S
C547 C552 1.490 . S
C548 H538 0.930 . S
C548 C547 1.400 . S
C548 C551 1.386 . S
H549 C565 0.930 . S
H550 C566 0.931 . S
C551 H539 0.929 . S
C551 C545 1.390 . S
C551 C548 1.386 . S
C552 C547 1.490 . S
C552 C554 1.395 . S
C552 C555 1.403 . S
H553 C559 0.930 . S
C554 H540 0.930 . S
C554 C552 1.395 . S
C554 C557 1.403 . S
C555 C552 1.403 . S
C555 C556 1.524 . S
C555 C559 1.400 . S
C556 H541 0.960 . S
C556 H542 0.960 . S
C556 H543 0.960 . S
C556 C555 1.524 . S
C557 C554 1.403 . S
C557 C558 1.392 . S
C557 C561 1.495 . S
C558 C557 1.392 . S
C558 C559 1.385 . S
C558 C560 1.478 . S
C559 H553 0.930 . S
C559 C555 1.400 . S
C559 C558 1.385 . S
C560 C558 1.478 . S
C560 C562 1.381 . S
C560 C566 1.383 . S
C561 C557 1.495 . S
C561 H567 0.959 . S
C561 H568 0.961 . S
C561 H569 0.960 . S
C562 C560 1.381 . S
C562 C563 1.394 . S
C562 H570 0.930 . S
C563 C562 1.394 . S
C563 C564 1.383 . S
C563 H571 0.929 . S
C564 C563 1.383 . S
C564 C565 1.377 . S
C565 H549 0.930 . S
C565 C564 1.377 . S
C565 C566 1.379 . S
C566 H550 0.931 . S
C566 C560 1.383 . S
C566 C565 1.379 . S
H567 C561 0.959 . S
H568 C561 0.961 . S
H569 C561 0.960 . S
H570 C562 0.930 . S
H571 C563 0.929 . S
H572 C580 0.929 . S
H573 C582 0.930 . S
H574 C584 0.930 . S
H575 C587 0.929 . S
H576 C590 0.930 . S
H577 C592 0.960 . S
H578 C592 0.960 . S
H579 C592 0.960 . S
C580 H572 0.929 . S
C580 C581 1.377 . S
C580 C582 1.384 . S
C581 C580 1.377 . S
C581 C587 1.390 . S
C582 H573 0.930 . S
C582 C580 1.384 . S
C582 C583 1.372 . S
C583 C582 1.372 . S
C583 C584 1.400 . S
C583 C588 1.490 . S
C584 H574 0.930 . S
C584 C583 1.400 . S
C584 C587 1.386 . S
H585 C601 0.930 . S
H586 C602 0.931 . S
C587 H575 0.929 . S
C587 C581 1.390 . S
C587 C584 1.386 . S
C588 C583 1.490 . S
C588 C590 1.395 . S
C588 C591 1.403 . S
H589 C595 0.930 . S
C590 H576 0.930 . S
C590 C588 1.395 . S
C590 C593 1.403 . S
C591 C588 1.403 . S
C591 C592 1.524 . S
C591 C595 1.400 . S
C592 H577 0.960 . S
C592 H578 0.960 . S
C592 H579 0.960 . S
C592 C591 1.524 . S
C593 C590 1.403 . S
C593 C594 1.392 . S
C593 C597 1.495 . S
C594 C593 1.392 . S
C594 C595 1.385 . S
C594 C596 1.478 . S
C595 H589 0.930 . S
C595 C591 1.400 . S
C595 C594 1.385 . S
C596 C594 1.478 . S
C596 C598 1.381 . S
C596 C602 1.383 . S
C597 C593 1.495 . S
C597 H603 0.959 . S
C597 H604 0.961 . S
C597 H605 0.960 . S
C598 C596 1.381 . S
C598 C599 1.394 . S
C598 H606 0.930 . S
C599 C598 1.394 . S
C599 C600 1.383 . S
C599 H607 0.929 . S
C600 C599 1.383 . S
C600 C601 1.377 . S
C601 H585 0.930 . S
C601 C600 1.377 . S
C601 C602 1.379 . S
C602 H586 0.931 . S
C602 C596 1.383 . S
C602 C601 1.379 . S
H603 C597 0.959 . S
H604 C597 0.961 . S
H605 C597 0.960 . S
H606 C598 0.930 . S
H607 C599 0.929 . S
H608 C616 0.929 . S
H609 C618 0.930 . S
H610 C620 0.930 . S
H611 C623 0.929 . S
H612 C626 0.930 . S
H613 C628 0.960 . S
H614 C628 0.960 . S
H615 C628 0.960 . S
C616 H608 0.929 . S
C616 C617 1.377 . S
C616 C618 1.384 . S
C617 C616 1.377 . S
C617 C623 1.390 . S
C618 H609 0.930 . S
C618 C616 1.384 . S
C618 C619 1.372 . S
C619 C618 1.372 . S
C619 C620 1.400 . S
C619 C624 1.490 . S
C620 H610 0.930 . S
C620 C619 1.400 . S
C620 C623 1.386 . S
H621 C637 0.930 . S
H622 C638 0.931 . S
C623 H611 0.929 . S
C623 C617 1.390 . S
C623 C620 1.386 . S
C624 C619 1.490 . S
C624 C626 1.395 . S
C624 C627 1.403 . S
H625 C631 0.930 . S
C626 H612 0.930 . S
C626 C624 1.395 . S
C626 C629 1.403 . S
C627 C624 1.403 . S
C627 C628 1.524 . S
C627 C631 1.400 . S
C628 H613 0.960 . S
C628 H614 0.960 . S
C628 H615 0.960 . S
C628 C627 1.524 . S
C629 C626 1.403 . S
C629 C630 1.392 . S
C629 C633 1.495 . S
C630 C629 1.392 . S
C630 C631 1.385 . S
C630 C632 1.478 . S
C631 H625 0.930 . S
C631 C627 1.400 . S
C631 C630 1.385 . S
C632 C630 1.478 . S
C632 C634 1.381 . S
C632 C638 1.383 . S
C633 C629 1.495 . S
C633 H639 0.959 . S
C633 H640 0.961 . S
C633 H641 0.960 . S
C634 C632 1.381 . S
C634 C635 1.394 . S
C634 H642 0.930 . S
C635 C634 1.394 . S
C635 C636 1.383 . S
C635 H643 0.929 . S
C636 C635 1.383 . S
C636 C637 1.377 . S
C637 H621 0.930 . S
C637 C636 1.377 . S
C637 C638 1.379 . S
C638 H622 0.931 . S
C638 C632 1.383 . S
C638 C637 1.379 . S
H639 C633 0.959 . S
H640 C633 0.961 . S
H641 C633 0.960 . S
H642 C634 0.930 . S
H643 C635 0.929 . S
H644 C652 0.929 . S
H645 C654 0.930 . S
H646 C656 0.930 . S
H647 C659 0.929 . S
H648 C662 0.930 . S
H649 C664 0.960 . S
H650 C664 0.960 . S
H651 C664 0.960 . S
C652 H644 0.929 . S
C652 C653 1.377 . S
C652 C654 1.384 . S
C653 C652 1.377 . S
C653 C659 1.390 . S
C654 H645 0.930 . S
C654 C652 1.384 . S
C654 C655 1.372 . S
C655 C654 1.372 . S
C655 C656 1.400 . S
C655 C660 1.490 . S
C656 H646 0.930 . S
C656 C655 1.400 . S
C656 C659 1.386 . S
H657 C673 0.930 . S
H658 C674 0.931 . S
C659 H647 0.929 . S
C659 C653 1.390 . S
C659 C656 1.386 . S
C660 C655 1.490 . S
C660 C662 1.395 . S
C660 C663 1.403 . S
H661 C667 0.930 . S
C662 H648 0.930 . S
C662 C660 1.395 . S
C662 C665 1.403 . S
C663 C660 1.403 . S
C663 C664 1.524 . S
C663 C667 1.400 . S
C664 H649 0.960 . S
C664 H650 0.960 . S
C664 H651 0.960 . S
C664 C663 1.524 . S
C665 C662 1.403 . S
C665 C666 1.392 . S
C665 C669 1.495 . S
C666 C665 1.392 . S
C666 C667 1.385 . S
C666 C668 1.478 . S
C667 H661 0.930 . S
C667 C663 1.400 . S
C667 C666 1.385 . S
C668 C666 1.478 . S
C668 C670 1.381 . S
C668 C674 1.383 . S
C669 C665 1.495 . S
C669 H675 0.959 . S
C669 H676 0.961 . S
C669 H677 0.960 . S
C670 C668 1.381 . S
C670 C671 1.394 . S
C670 H678 0.930 . S
C671 C670 1.394 . S
C671 C672 1.383 . S
C671 H679 0.929 . S
C672 C671 1.383 . S
C672 C673 1.377 . S
C673 H657 0.930 . S
C673 C672 1.377 . S
C673 C674 1.379 . S
C674 H658 0.931 . S
C674 C668 1.383 . S
C674 C673 1.379 . S
H675 C669 0.959 . S
H676 C669 0.961 . S
H677 C669 0.960 . S
H678 C670 0.930 . S
H679 C671 0.929 . S
C113 C36 1.552 . S
C132 C10 1.541 . S
C149 C49 1.551 . S
C168 C23 1.534 . S
C185 C56 1.557 . S
C204 C88 1.567 . S
C221 C75 1.553 . S
C240 C95 1.536 . S
C257 C18 0.974 . S
C276 C3 0.992 . S
C293 C16 0.972 . S
C312 C31 0.989 . S
C329 C44 0.974 . S
C348 C29 0.966 . S
C365 C42 0.960 . S
C384 C5 0.958 . S
C401 C94 0.973 . S
C420 C57 0.942 . S
C437 C68 0.971 . S
C456 C55 0.958 . S
C473 C81 0.968 . S
C492 C70 0.975 . S
C509 C96 0.969 . S
C528 C83 0.976 . S
C545 C4 1.752 . S
C564 C69 1.739 . S
C581 C82 1.750 . S
C600 C17 1.741 . S
C617 C30 1.753 . S
C636 C101 1.745 . S
C653 C43 1.752 . S
C672 C62 1.752 . S
