# Generated by pormake.
# Topology fni, (5)-cn, num edge types: 1
# Building blocks:
#     Node 0, Type 0, BuildingBlock: XOMCOT_clean_sbu_0, # of connection points: 5
#     Node 1, Type 0, BuildingBlock: XOMCOT_clean_sbu_0, # of connection points: 5
#     Node 2, Type 0, BuildingBlock: XOMCOT_clean_sbu_0, # of connection points: 5
#     Node 3, Type 0, BuildingBlock: XOMCOT_clean_sbu_0, # of connection points: 5
#     Node 4, Type 0, BuildingBlock: XOMCOT_clean_sbu_0, # of connection points: 5
#     Node 5, Type 0, BuildingBlock: XOMCOT_clean_sbu_0, # of connection points: 5
#     Node 6, Type 0, BuildingBlock: XOMCOT_clean_sbu_0, # of connection points: 5
#     Node 7, Type 0, BuildingBlock: XOMCOT_clean_sbu_0, # of connection points: 5
#     Edge 8, Type (0, 0), BuildingBlock: XIVTED_clean_linker_0, # of connection points: 2
#     Edge 9, Type (0, 0), BuildingBlock: XIVTED_clean_linker_0, # of connection points: 2
#     Edge 10, Type (0, 0), BuildingBlock: XIVTED_clean_linker_0, # of connection points: 2
#     Edge 11, Type (0, 0), BuildingBlock: XIVTED_clean_linker_0, # of connection points: 2
#     Edge 12, Type (0, 0), BuildingBlock: XIVTED_clean_linker_0, # of connection points: 2
#     Edge 13, Type (0, 0), BuildingBlock: XIVTED_clean_linker_0, # of connection points: 2
#     Edge 14, Type (0, 0), BuildingBlock: XIVTED_clean_linker_0, # of connection points: 2
#     Edge 15, Type (0, 0), BuildingBlock: XIVTED_clean_linker_0, # of connection points: 2
#     Edge 16, Type (0, 0), BuildingBlock: XIVTED_clean_linker_0, # of connection points: 2
#     Edge 17, Type (0, 0), BuildingBlock: XIVTED_clean_linker_0, # of connection points: 2
#     Edge 18, Type (0, 0), BuildingBlock: XIVTED_clean_linker_0, # of connection points: 2
#     Edge 19, Type (0, 0), BuildingBlock: XIVTED_clean_linker_0, # of connection points: 2
#     Edge 20, Type (0, 0), BuildingBlock: XIVTED_clean_linker_0, # of connection points: 2
#     Edge 21, Type (0, 0), BuildingBlock: XIVTED_clean_linker_0, # of connection points: 2
#     Edge 22, Type (0, 0), BuildingBlock: XIVTED_clean_linker_0, # of connection points: 2
#     Edge 23, Type (0, 0), BuildingBlock: XIVTED_clean_linker_0, # of connection points: 2
#     Edge 24, Type (0, 0), BuildingBlock: XIVTED_clean_linker_0, # of connection points: 2
#     Edge 25, Type (0, 0), BuildingBlock: XIVTED_clean_linker_0, # of connection points: 2
#     Edge 26, Type (0, 0), BuildingBlock: XIVTED_clean_linker_0, # of connection points: 2
#     Edge 27, Type (0, 0), BuildingBlock: XIVTED_clean_linker_0, # of connection points: 2
# Relax obj value: 0.071
# Max RMSD: 0.155
# Mean RMSD: 0.154
data_MOF--net-fni--node1-XOMCOT_clean_sbu_0--edge1-XIVTED_clean_linker_0
_symmetry_space_group_name_H-M    P1
_symmetry_Int_Tables_number       1
_symmetry_cell_setting            triclinic
loop_
_symmetry_equiv_pos_as_xyz
'x, y, z'
_cell_length_a     54.396617
_cell_length_b     54.793497
_cell_length_c     17.762769
_cell_angle_alpha  89.420218
_cell_angle_beta   90.382979
_cell_angle_gamma 89.974728
loop_
_atom_site_label
_atom_site_type_symbol
_atom_site_fract_x
_atom_site_fract_y
_atom_site_fract_z
_atom_type_partial_charge
Co0 Co 0.39839 0.35807 0.02276 0.0
C1 C 0.39607 0.35963 0.18881 0.0
C2 C 0.36017 0.35942 0.13779 0.0
C3 C 0.35749 0.35946 0.21469 0.0
N4 N 0.38431 0.35968 0.12177 0.0
N5 N 0.38005 0.35956 0.24675 0.0
H6 H 0.41587 0.35948 0.19484 0.0
H7 H 0.3455 0.35861 0.09655 0.0
C8 C 0.36538 0.39396 0.9328 0.0
O9 O 0.38336 0.40398 0.89438 0.0
N10 N 0.41227 0.35607 0.92275 0.0
C11 C 0.43625 0.35459 0.9045 0.0
C12 C 0.43821 0.35267 0.82773 0.0
C13 C 0.39998 0.3541 0.8568 0.0
N14 N 0.41539 0.3525 0.79768 0.0
C15 C 0.4432 0.38226 0.06293 0.0
C16 C 0.42576 0.42957 0.05848 0.0
C17 C 0.45112 0.42573 0.06863 0.0
C18 C 0.45955 0.40158 0.07336 0.0
C19 C 0.40997 0.40959 0.04865 0.0
N20 N 0.41901 0.38634 0.04596 0.0
H21 H 0.45024 0.36391 0.06746 0.0
H22 H 0.39056 0.41307 0.04347 0.0
H23 H 0.45147 0.35441 0.9436 0.0
H24 H 0.38015 0.35355 0.85228 0.0
O25 O 0.41991 0.33158 0.05678 0.0
O26 O 0.38266 0.32703 1.00832 0.0
O27 O 0.36975 0.37804 0.98415 0.0
C28 C 0.40214 0.31693 0.0375 0.0
H29 H 0.34023 0.35865 0.24459 0.0
H30 H 0.45519 0.35181 0.79651 0.0
H31 H 0.41817 0.44782 0.05642 0.0
H32 H 0.4787 0.39753 0.0849 0.0
Co33 Co 0.64331 0.89463 0.25231 0.0
C34 C 0.64388 0.89219 0.41893 0.0
C35 C 0.64902 0.85705 0.36904 0.0
C36 C 0.64993 0.8543 0.44601 0.0
N37 N 0.64506 0.88074 0.35225 0.0
N38 N 0.64669 0.87639 0.47737 0.0
H39 H 0.64104 0.91163 0.42444 0.0
H40 H 0.65155 0.84281 0.32814 0.0
C41 C 0.61005 0.85823 0.16837 0.0
O42 O 0.59896 0.87469 0.12594 0.0
N43 N 0.64195 0.90835 0.15147 0.0
C44 C 0.6386 0.93194 0.13165 0.0
C45 C 0.64012 0.93412 0.05472 0.0
C46 C 0.64623 0.89665 0.08634 0.0
N47 N 0.64482 0.91191 0.0262 0.0
C48 C 0.61705 0.93663 0.30117 0.0
C49 C 0.57006 0.91785 0.293 0.0
C50 C 0.57313 0.94283 0.30732 0.0
C51 C 0.59707 0.95188 0.31394 0.0
C52 C 0.59073 0.9031 0.28053 0.0
N53 N 0.61386 0.9129 0.28035 0.0
H54 H 0.63519 0.94439 0.30545 0.0
H55 H 0.58785 0.88397 0.27085 0.0
H56 H 0.63573 0.94682 0.16978 0.0
H57 H 0.65053 0.8774 0.08324 0.0
O58 O 0.66856 0.9182 0.27924 0.0
O59 O 0.67546 0.88169 0.23198 0.0
O60 O 0.62505 0.86446 0.22027 0.0
C61 C 0.68439 0.90192 0.25793 0.0
H62 H 0.65336 0.83741 0.47638 0.0
H63 H 0.63765 0.95079 0.02234 0.0
H64 H 0.55188 0.90989 0.28928 0.0
H65 H 0.60043 0.97079 0.32794 0.0
Co66 Co 0.10478 0.14905 0.47948 0.0
C67 C 0.10848 0.14601 0.6479 0.0
C68 C 0.14359 0.14953 0.59525 0.0
C69 C 0.14701 0.14979 0.67209 0.0
N70 N 0.11947 0.14656 0.57975 0.0
N71 N 0.12489 0.14765 0.7052 0.0
H72 H 0.08894 0.14535 0.65617 0.0
H73 H 0.15771 0.15222 0.5534 0.0
C74 C 0.14447 0.11112 0.46388 0.0
O75 O 0.13746 0.10065 0.52707 0.0
N76 N 0.09066 0.15213 0.37985 0.0
C77 C 0.06658 0.15334 0.36248 0.0
C78 C 0.06409 0.1544 0.2853 0.0
C79 C 0.10254 0.15257 0.31341 0.0
N80 N 0.08672 0.15387 0.25437 0.0
C81 C 0.06484 0.1218 0.54454 0.0
C82 C 0.07146 0.0799 0.46209 0.0
C83 C 0.05263 0.08034 0.51574 0.0
C84 C 0.0493 0.10186 0.55664 0.0
C85 C 0.08675 0.10016 0.45255 0.0
N86 N 0.08418 0.12038 0.49624 0.0
H87 H 0.06079 0.13864 0.57265 0.0
H88 H 0.10012 0.09975 0.40802 0.0
H89 H 0.05185 0.15304 0.40309 0.0
H90 H 0.12233 0.15201 0.30857 0.0
O91 O 0.08298 0.17457 0.51502 0.0
O92 O 0.12016 0.18033 0.46771 0.0
O93 O 0.13257 0.12932 0.43676 0.0
C94 C 0.10055 0.18969 0.4972 0.0
H95 H 0.16433 0.1525 0.70115 0.0
H96 H 0.04687 0.15487 0.25452 0.0
H97 H 0.07402 0.0643 0.42607 0.0
H98 H 0.03477 0.10346 0.59761 0.0
Co99 Co 0.86881 0.612 0.75166 0.0
C100 C 0.86681 0.61351 0.58428 0.0
C101 C 0.83091 0.61127 0.63281 0.0
C102 C 0.82835 0.61298 0.55591 0.0
N103 N 0.85502 0.61141 0.65074 0.0
N104 N 0.85093 0.61443 0.52537 0.0
H105 H 0.8865 0.61528 0.57912 0.0
H106 H 0.81603 0.61052 0.67262 0.0
C107 C 0.83034 0.58269 0.84484 0.0
O108 O 0.84543 0.57462 0.89749 0.0
N109 N 0.88294 0.61302 0.85203 0.0
C110 C 0.90694 0.6098 0.86826 0.0
C111 C 0.91043 0.61202 0.94437 0.0
C112 C 0.87227 0.61817 0.91852 0.0
N113 N 0.88858 0.61692 0.97648 0.0
C114 C 0.90976 0.5856 0.69533 0.0
C115 C 0.89971 0.5411 0.76256 0.0
C116 C 0.92327 0.54531 0.73361 0.0
C117 C 0.9277 0.56746 0.69636 0.0
C118 C 0.88215 0.55992 0.76046 0.0
N119 N 0.88783 0.5824 0.73129 0.0
H120 H 0.91452 0.60294 0.67044 0.0
H121 H 0.86456 0.55639 0.78499 0.0
H122 H 0.92115 0.6063 0.82763 0.0
H123 H 0.85288 0.62204 0.92441 0.0
O124 O 0.89258 0.63642 0.71999 0.0
O125 O 0.85553 0.64437 0.76397 0.0
O126 O 0.83826 0.59429 0.78705 0.0
C127 C 0.87605 0.65259 0.7366 0.0
H128 H 0.81114 0.61313 0.525 0.0
H129 H 0.92787 0.61021 0.97347 0.0
H130 H 0.89534 0.52399 0.79045 0.0
H131 H 0.94542 0.57123 0.67128 0.0
Co132 Co 0.35874 0.10731 0.28002 0.0
C133 C 0.36094 0.1099 0.4458 0.0
C134 C 0.36001 0.14553 0.39439 0.0
C135 C 0.36024 0.14817 0.47135 0.0
N136 N 0.36058 0.12156 0.37863 0.0
N137 N 0.36074 0.12576 0.50363 0.0
H138 H 0.36112 0.09023 0.45197 0.0
H139 H 0.35886 0.16009 0.35295 0.0
C140 C 0.39382 0.14073 0.19135 0.0
O141 O 0.40575 0.12266 0.16 0.0
N142 N 0.35647 0.09326 0.1801 0.0
C143 C 0.35381 0.06953 0.16219 0.0
C144 C 0.35209 0.06754 0.08528 0.0
C145 C 0.35524 0.1054 0.11358 0.0
N146 N 0.35314 0.09011 0.05464 0.0
C147 C 0.38632 0.0641 0.31379 0.0
C148 C 0.43225 0.08525 0.32248 0.0
C149 C 0.43042 0.05968 0.32644 0.0
C150 C 0.40691 0.04927 0.32417 0.0
C151 C 0.41101 0.09945 0.31216 0.0
N152 N 0.38857 0.08867 0.30258 0.0
H153 H 0.36849 0.0556 0.3145 0.0
H154 H 0.41273 0.11905 0.31217 0.0
H155 H 0.35247 0.05451 0.20151 0.0
H156 H 0.35529 0.12507 0.10838 0.0
O157 O 0.33423 0.08439 0.31673 0.0
O158 O 0.32627 0.12073 0.26657 0.0
O159 O 0.37681 0.13662 0.239 0.0
C160 C 0.31799 0.10075 0.29715 0.0
H161 H 0.35922 0.16527 0.50113 0.0
H162 H 0.3504 0.05068 0.05447 0.0
H163 H 0.4499 0.09423 0.32756 0.0
H164 H 0.40433 0.02972 0.32835 0.0
Co165 Co 0.88756 0.86679 0.53778 0.0
C166 C 0.88471 0.86998 0.70384 0.0
C167 C 0.84924 0.87411 0.65151 0.0
C168 C 0.84635 0.87436 0.72845 0.0
N169 N 0.87328 0.87142 0.63616 0.0
N170 N 0.86864 0.87161 0.76153 0.0
H171 H 0.90424 0.86681 0.71044 0.0
H172 H 0.83468 0.87511 0.60987 0.0
C173 C 0.85731 0.90251 0.44082 0.0
O174 O 0.87662 0.91309 0.41076 0.0
N175 N 0.90179 0.86165 0.43839 0.0
C176 C 0.92544 0.85646 0.42269 0.0
C177 C 0.92811 0.85463 0.34603 0.0
C178 C 0.89022 0.86161 0.37059 0.0
N179 N 0.90599 0.85814 0.313 0.0
C180 C 0.93284 0.89216 0.56449 0.0
C181 C 0.9135 0.93875 0.56506 0.0
C182 C 0.93918 0.93593 0.56714 0.0
C183 C 0.94865 0.91211 0.57014 0.0
C184 C 0.89834 0.91818 0.56079 0.0
N185 N 0.90818 0.89537 0.55418 0.0
H186 H 0.94053 0.87408 0.56873 0.0
H187 H 0.87869 0.92074 0.56195 0.0
H188 H 0.93989 0.85355 0.46357 0.0
H189 H 0.87068 0.86416 0.36323 0.0
O190 O 0.90862 0.8413 0.58007 0.0
O191 O 0.87144 0.83578 0.53142 0.0
O192 O 0.85966 0.88602 0.49162 0.0
C193 C 0.8906 0.82643 0.56478 0.0
H194 H 0.82905 0.87616 0.75753 0.0
H195 H 0.94507 0.85067 0.31709 0.0
H196 H 0.90507 0.95664 0.56484 0.0
H197 H 0.96817 0.90878 0.57673 0.0
Co198 Co 0.14795 0.39591 0.75245 0.0
C199 C 0.14516 0.39346 0.91808 0.0
C200 C 0.14585 0.35774 0.86945 0.0
C201 C 0.14534 0.35522 0.9466 0.0
N202 N 0.1456 0.38169 0.85184 0.0
N203 N 0.14499 0.37768 0.9771 0.0
H204 H 0.14516 0.41313 0.92274 0.0
H205 H 0.14698 0.34312 0.82919 0.0
C206 C 0.11231 0.36284 0.66623 0.0
O207 O 0.09969 0.38109 0.63696 0.0
N208 N 0.1509 0.40996 0.65174 0.0
C209 C 0.15648 0.43325 0.63323 0.0
C210 C 0.158 0.4354 0.55626 0.0
C211 C 0.1504 0.39808 0.58541 0.0
N212 N 0.15404 0.41327 0.5261 0.0
C213 C 0.1179 0.43874 0.77057 0.0
C214 C 0.07406 0.41455 0.79474 0.0
C215 C 0.0737 0.44007 0.78755 0.0
C216 C 0.0962 0.45217 0.77739 0.0
C217 C 0.09626 0.40185 0.78763 0.0
N218 N 0.11755 0.41386 0.77047 0.0
H219 H 0.13499 0.44846 0.76588 0.0
H220 H 0.09622 0.38229 0.79548 0.0
H221 H 0.16027 0.4477 0.67235 0.0
H222 H 0.14844 0.37856 0.58049 0.0
O223 O 0.17243 0.41897 0.79002 0.0
O224 O 0.18029 0.38247 0.74337 0.0
O225 O 0.13019 0.36664 0.71151 0.0
C226 C 0.18864 0.40229 0.77361 0.0
H227 H 0.14608 0.33816 0.97779 0.0
H228 H 0.16179 0.45204 0.5252 0.0
H229 H 0.05737 0.40444 0.80616 0.0
H230 H 0.09711 0.47187 0.77321 0.0
Co231 Co 0.61681 0.63929 0.02666 0.0
C232 C 0.61953 0.63619 0.19321 0.0
C233 C 0.65519 0.63466 0.14235 0.0
C234 C 0.65812 0.6337 0.21917 0.0
N235 N 0.63103 0.63608 0.12615 0.0
N236 N 0.63572 0.6348 0.2514 0.0
H237 H 0.59983 0.6379 0.19892 0.0
H238 H 0.66978 0.6347 0.10132 0.0
C239 C 0.65058 0.60058 0.95356 0.0
O240 O 0.63296 0.58544 0.93437 0.0
N241 N 0.60291 0.64305 0.92549 0.0
C242 C 0.5813 0.65377 0.90678 0.0
C243 C 0.57861 0.65404 0.82984 0.0
C244 C 0.61343 0.63785 0.85872 0.0
N245 N 0.59882 0.64401 0.79966 0.0
C246 C 0.57202 0.6121 0.03741 0.0
C247 C 0.59225 0.56814 0.08344 0.0
C248 C 0.56676 0.56947 0.07076 0.0
C249 C 0.55671 0.592 0.04877 0.0
C250 C 0.60694 0.5889 0.07195 0.0
N251 N 0.59692 0.6102 0.04522 0.0
H252 H 0.56365 0.62932 0.02324 0.0
H253 H 0.6264 0.58778 0.08411 0.0
H254 H 0.56847 0.66166 0.94582 0.0
H255 H 0.63157 0.63026 0.85266 0.0
O256 O 0.5944 0.66409 0.06379 0.0
O257 O 0.63147 0.67111 0.01735 0.0
O258 O 0.64587 0.62065 0.98644 0.0
C259 C 0.61153 0.6798 0.04678 0.0
H260 H 0.67553 0.63235 0.24866 0.0
H261 H 0.56335 0.66186 0.79847 0.0
H262 H 0.60074 0.55133 0.10286 0.0
H263 H 0.53714 0.59411 0.03925 0.0
H264 H 0.52087 0.56679 0.13414 0.0
H265 H 0.49772 0.42853 0.01072 0.0
H266 H 0.57554 0.52243 0.02588 0.0
H267 H 0.44508 0.47062 0.13589 0.0
H268 H 0.52653 0.4625 0.01751 0.0
H269 H 0.49312 0.53173 0.13705 0.0
C270 C 0.52707 0.54966 0.11105 0.0
C271 C 0.55057 0.54766 0.07918 0.0
C272 C 0.50872 0.4643 0.04378 0.0
C273 C 0.51877 0.50729 0.08254 0.0
C274 C 0.49224 0.44481 0.04034 0.0
C275 C 0.46883 0.44653 0.07309 0.0
C276 C 0.50187 0.4859 0.07994 0.0
C277 C 0.46273 0.46844 0.10905 0.0
C278 C 0.51122 0.5296 0.113 0.0
C279 C 0.5577 0.52483 0.05142 0.0
N280 N 0.47911 0.48723 0.11142 0.0
N281 N 0.54182 0.50563 0.05325 0.0
H282 H 0.4745 0.066 0.25455 0.0
H283 H 0.52891 0.93559 0.37949 0.0
H284 H 0.43707 0.01676 0.40648 0.0
H285 H 0.56875 0.98875 0.24742 0.0
H286 H 0.49466 0.96455 0.38865 0.0
H287 H 0.50934 0.03794 0.25259 0.0
C288 C 0.47369 0.04946 0.28832 0.0
C289 C 0.45266 0.04377 0.33041 0.0
C290 C 0.51096 0.96988 0.3579 0.0
C291 C 0.49245 0.01116 0.32716 0.0
C292 C 0.53043 0.95328 0.35224 0.0
C293 C 0.55182 0.95977 0.31305 0.0
C294 C 0.5128 0.99306 0.32358 0.0
C295 C 0.55282 0.98307 0.27931 0.0
C296 C 0.49355 0.0333 0.28665 0.0
C297 C 0.45264 0.02177 0.37204 0.0
N298 N 0.53364 0.99879 0.28527 0.0
N299 N 0.47213 0.00624 0.36904 0.0
H300 H 0.93247 0.9819 0.62718 0.0
H301 H 0.06448 0.03163 0.5074 0.0
H302 H 0.98447 0.93941 0.50032 0.0
H303 H 0.00317 0.07961 0.55022 0.0
H304 H 0.03714 0.99667 0.52228 0.0
H305 H 0.95996 0.01706 0.61675 0.0
C306 C 0.94955 0.97986 0.59698 0.0
C307 C 0.95602 0.95745 0.5646 0.0
C308 C 0.02972 0.01488 0.52846 0.0
C309 C 0.98781 0.99764 0.55408 0.0
C310 C 0.04529 0.03492 0.51953 0.0
C311 C 0.03622 0.0588 0.52703 0.0
C312 C 0.00489 0.01858 0.546 0.0
C313 C 0.01121 0.06166 0.54488 0.0
C314 C 0.96529 0.99997 0.59144 0.0
C315 C 0.97876 0.95602 0.5276 0.0
N316 N 0.99646 0.04181 0.55383 0.0
N317 N 0.9938 0.97577 0.52355 0.0
H318 H 0.06495 0.4846 0.85216 0.0
H319 H 0.92457 0.49534 0.71409 0.0
H320 H 0.02859 0.42757 0.72781 0.0
H321 H 0.96892 0.55608 0.7864 0.0
H322 H 0.96016 0.46815 0.73446 0.0
H323 H 0.02746 0.5089 0.8447 0.0
C324 C 0.04911 0.47715 0.82316 0.0
C325 C 0.05016 0.45407 0.78962 0.0
C326 C 0.96201 0.48743 0.74591 0.0
C327 C 0.00684 0.48186 0.78168 0.0
C328 C 0.94173 0.5029 0.73454 0.0
C329 C 0.94392 0.52803 0.74755 0.0
C330 C 0.98444 0.49718 0.77164 0.0
C331 C 0.96655 0.5369 0.77422 0.0
C332 C 0.02763 0.49103 0.8192 0.0
C333 C 0.02868 0.4452 0.75476 0.0
N334 N 0.98584 0.52154 0.78531 0.0
N335 N 0.00796 0.45915 0.75129 0.0
H336 H 0.42109 0.34109 0.31458 0.0
H337 H 0.37407 0.37054 0.73042 0.0
H338 H 0.35157 0.37559 0.36102 0.0
H339 H 0.44249 0.33391 0.68384 0.0
H340 H 0.36512 0.37196 0.59548 0.0
H341 H 0.4294 0.33858 0.44973 0.0
C342 C 0.40765 0.3483 0.35307 0.0
C343 C 0.38558 0.35854 0.32623 0.0
C344 C 0.38207 0.36355 0.61482 0.0
C345 C 0.39482 0.35546 0.48133 0.0
C346 C 0.3871 0.36256 0.692 0.0
C347 C 0.40912 0.35215 0.71869 0.0
C348 C 0.39917 0.35407 0.56385 0.0
C349 C 0.42548 0.34245 0.66592 0.0
C350 C 0.41231 0.3467 0.43035 0.0
C351 C 0.36867 0.36725 0.37905 0.0
N352 N 0.4202 0.34369 0.59114 0.0
N353 N 0.37365 0.36553 0.45396 0.0
H354 H 0.63521 0.86822 0.96113 0.0
H355 H 0.6583 0.91948 0.54351 0.0
H356 H 0.65866 0.94183 0.91135 0.0
H357 H 0.63544 0.84565 0.59295 0.0
H358 H 0.65885 0.92792 0.67823 0.0
H359 H 0.63636 0.85918 0.82674 0.0
C360 C 0.64084 0.88241 0.92211 0.0
C361 C 0.64675 0.90586 0.94767 0.0
C362 C 0.65374 0.90985 0.65959 0.0
C363 C 0.64777 0.89575 0.79354 0.0
C364 C 0.65325 0.90507 0.58254 0.0
C365 C 0.64683 0.8818 0.55665 0.0
C366 C 0.64769 0.89126 0.71129 0.0
C367 C 0.64083 0.86375 0.6102 0.0
C368 C 0.64132 0.8773 0.84527 0.0
C369 C 0.65358 0.92363 0.89423 0.0
N370 N 0.64138 0.86887 0.68486 0.0
N371 N 0.65384 0.91822 0.8198 0.0
H372 H 0.15527 0.13442 0.82068 0.0
H373 H 0.05828 0.17062 0.13826 0.0
H374 H 0.08288 0.16305 0.77266 0.0
H375 H 0.12842 0.13702 0.18783 0.0
H376 H 0.06762 0.16907 1.00444 0.0
H377 H 0.14651 0.1365 0.95533 0.0
C378 C 0.13757 0.14123 0.83833 0.0
C379 C 0.1198 0.14853 0.78491 0.0
C380 C 0.08099 0.16204 0.04455 0.0
C381 C 0.10957 0.15085 0.93939 0.0
C382 C 0.07562 0.16281 0.12124 0.0
C383 C 0.0925 0.15383 0.17498 0.0
C384 C 0.10347 0.15224 0.02083 0.0
C385 C 0.1149 0.14438 0.14893 0.0
C386 C 0.13253 0.1423 0.91531 0.0
C387 C 0.09704 0.15689 0.81138 0.0
N388 N 0.11969 0.1438 0.07383 0.0
N389 N 0.09263 0.15786 0.88657 0.0
H390 H 0.91723 0.5994 0.09116 0.0
H391 H 0.82211 0.63368 0.41391 0.0
H392 H 0.8487 0.63684 0.04607 0.0
H393 H 0.89285 0.60036 0.45568 0.0
H394 H 0.83144 0.6356 0.27967 0.0
H395 H 0.90868 0.60059 0.22463 0.0
C396 C 0.90048 0.60818 0.10893 0.0
C397 C 0.88376 0.6182 0.05635 0.0
C398 C 0.84495 0.62795 0.31823 0.0
C399 C 0.87359 0.61912 0.21096 0.0
C400 C 0.83958 0.6267 0.39496 0.0
C401 C 0.85666 0.61668 0.44638 0.0
C402 C 0.86754 0.61904 0.29244 0.0
C403 C 0.87921 0.60839 0.41843 0.0
C404 C 0.89553 0.60867 0.18571 0.0
C405 C 0.86208 0.62872 0.08398 0.0
N406 N 0.88392 0.60965 0.34344 0.0
N407 N 0.85761 0.62886 0.15934 0.0
H408 H 0.3724 0.1307 0.98811 0.0
H409 H 0.34254 0.0848 0.57057 0.0
H410 H 0.33418 0.0636 0.9394 0.0
H411 H 0.37667 0.15403 0.61878 0.0
H412 H 0.34014 0.07634 0.70556 0.0
H413 H 0.37413 0.13967 0.85328 0.0
C414 C 0.36415 0.11795 0.94928 0.0
C415 C 0.35317 0.0963 0.97546 0.0
C416 C 0.34816 0.09339 0.68663 0.0
C417 C 0.35544 0.1063 0.8206 0.0
C418 C 0.34971 0.09815 0.60943 0.0
C419 C 0.35982 0.12018 0.5831 0.0
C420 C 0.35686 0.11074 0.7381 0.0
C421 C 0.36845 0.13696 0.63641 0.0
C422 C 0.3653 0.12301 0.87214 0.0
C423 C 0.34315 0.08031 0.92205 0.0
N424 N 0.3668 0.13188 0.71126 0.0
N425 N 0.34458 0.08561 0.84732 0.0
H426 H 0.93811 0.86865 0.20043 0.0
H427 H 0.83687 0.85851 0.87302 0.0
H428 H 0.86197 0.85111 0.24137 0.0
H429 H 0.91226 0.87945 0.83404 0.0
H430 H 0.84581 0.85511 1.00729 0.0
H431 H 0.92916 0.87154 0.06614 0.0
C432 C 0.91953 0.86515 0.1814 0.0
C433 C 0.90082 0.85946 0.23296 0.0
C434 C 0.86041 0.86047 0.96941 0.0
C435 C 0.89034 0.86314 0.07806 0.0
C436 C 0.85529 0.86258 0.89242 0.0
C437 C 0.87379 0.86942 0.84143 0.0
C438 C 0.88425 0.86517 0.99625 0.0
C439 C 0.89742 0.87392 0.87065 0.0
C440 C 0.91439 0.86701 0.1044 0.0
C441 C 0.87698 0.85571 0.20426 0.0
N442 N 0.90194 0.87174 0.94592 0.0
N443 N 0.87246 0.85758 0.12889 0.0
H444 H 0.13132 0.37451 0.4608 0.0
H445 H 0.16406 0.41829 0.04189 0.0
H446 H 0.17476 0.43845 0.40979 0.0
H447 H 0.12802 0.35006 0.09334 0.0
H448 H 0.16643 0.42691 0.17637 0.0
H449 H 0.12898 0.36569 0.32656 0.0
C450 C 0.14057 0.3866 0.42167 0.0
C451 C 0.15327 0.4073 0.44711 0.0
C452 C 0.15799 0.41004 0.15826 0.0
C453 C 0.15026 0.39749 0.29274 0.0
C454 C 0.15646 0.4052 0.08136 0.0
C455 C 0.14583 0.38339 0.05615 0.0
C456 C 0.14873 0.39302 0.21053 0.0
C457 C 0.13663 0.36695 0.11019 0.0
C458 C 0.13907 0.38163 0.34482 0.0
C459 C 0.16448 0.42249 0.39315 0.0
N460 N 0.13827 0.3721 0.18474 0.0
N461 N 0.16267 0.4173 0.31868 0.0
H462 H 0.56579 0.63786 0.68646 0.0
H463 H 0.66751 0.64574 0.36548 0.0
H464 H 0.64351 0.64425 0.73195 0.0
H465 H 0.59207 0.6255 0.3212 0.0
H466 H 0.65865 0.64662 0.49914 0.0
H467 H 0.57461 0.6349 0.55208 0.0
C468 C 0.58471 0.6387 0.66817 0.0
C469 C 0.60393 0.64142 0.7206 0.0
C470 C 0.64404 0.6419 0.46023 0.0
C471 C 0.61417 0.63794 0.56679 0.0
C472 C 0.6491 0.64126 0.38346 0.0
C473 C 0.63056 0.63542 0.33113 0.0
C474 C 0.62019 0.63686 0.48548 0.0
C475 C 0.60693 0.63035 0.35884 0.0
C476 C 0.58974 0.63686 0.59148 0.0
C477 C 0.62813 0.64198 0.69376 0.0
N478 N 0.60243 0.63124 0.43403 0.0
N479 N 0.63255 0.6404 0.61872 0.0
H480 H 0.21591 0.44336 0.81045 0.0
H481 H 0.32639 0.36529 0.96754 0.0
H482 H 0.22155 0.36541 0.78222 0.0
H483 H 0.34462 0.43204 0.8492 0.0
H484 H 0.2839 0.36999 0.92788 0.0
H485 H 0.25983 0.44415 0.84825 0.0
C486 C 0.22634 0.42652 0.81188 0.0
C487 C 0.21506 0.40428 0.79327 0.0
C488 C 0.29715 0.38372 0.91098 0.0
C489 C 0.26459 0.40506 0.83733 0.0
C490 C 0.32147 0.38118 0.93397 0.0
C491 C 0.33926 0.39831 0.9117 0.0
C492 C 0.29017 0.4037 0.86604 0.0
C493 C 0.33153 0.41836 0.86735 0.0
C494 C 0.2513 0.42702 0.83301 0.0
C495 C 0.2294 0.38299 0.79587 0.0
N496 N 0.30743 0.42059 0.84597 0.0
N497 N 0.25322 0.38388 0.81836 0.0
H498 H 0.64321 0.82301 0.20404 0.0
H499 H 0.56945 0.70675 0.07069 0.0
H500 H 0.57302 0.83317 0.09321 0.0
H501 H 0.64838 0.71291 0.05797 0.0
H502 H 0.56714 0.75078 0.09845 0.0
H503 H 0.64192 0.77998 0.17344 0.0
C504 C 0.62731 0.81617 0.17396 0.0
C505 C 0.6081 0.83182 0.15152 0.0
C506 C 0.58487 0.74238 0.0891 0.0
C507 C 0.60666 0.78215 0.11595 0.0
C508 C 0.58623 0.71733 0.07373 0.0
C509 C 0.60915 0.70619 0.06217 0.0
C510 C 0.60663 0.75604 0.09473 0.0
C511 C 0.63032 0.72072 0.06631 0.0
C512 C 0.62673 0.79156 0.15596 0.0
C513 C 0.58821 0.82175 0.1115 0.0
N514 N 0.62856 0.74476 0.08301 0.0
N515 N 0.5879 0.79742 0.09527 0.0
H516 H 0.29581 0.06756 0.39152 0.0
H517 H 0.16268 0.12708 0.3292 0.0
H518 H 0.27998 0.12716 0.23816 0.0
H519 H 0.18023 0.07983 0.51803 0.0
H520 H 0.20388 0.12077 0.28041 0.0
H521 H 0.25204 0.06584 0.42444 0.0
C522 C 0.28308 0.08005 0.36408 0.0
C523 C 0.29152 0.09765 0.31244 0.0
C524 C 0.19869 0.11159 0.33221 0.0
C525 C 0.24162 0.09574 0.34954 0.0
C526 C 0.1751 0.11514 0.36011 0.0
C527 C 0.16804 0.10424 0.4285 0.0
C528 C 0.2155 0.09706 0.37284 0.0
C529 C 0.18491 0.08872 0.46537 0.0
C530 C 0.25816 0.07911 0.38308 0.0
C531 C 0.2743 0.11344 0.27873 0.0
N532 N 0.20798 0.08579 0.43748 0.0
N533 N 0.25023 0.11216 0.29803 0.0
H534 H 0.84138 0.68839 0.73835 0.0
H535 H 0.92919 0.79838 0.61837 0.0
H536 H 0.91834 0.6763 0.69427 0.0
H537 H 0.8514 0.79595 0.56955 0.0
H538 H 0.9269 0.75592 0.66516 0.0
H539 H 0.84612 0.73086 0.69856 0.0
C540 C 0.85936 0.69474 0.72104 0.0
C541 C 0.87948 0.67878 0.71926 0.0
C542 C 0.91043 0.76479 0.64385 0.0
C543 C 0.885 0.72741 0.67351 0.0
C544 C 0.91172 0.78892 0.61723 0.0
C545 C 0.89048 0.80064 0.58979 0.0
C546 C 0.88767 0.75267 0.64433 0.0
C547 C 0.86828 0.78762 0.58974 0.0
C548 C 0.86201 0.71895 0.69789 0.0
C549 C 0.90234 0.68802 0.69612 0.0
N550 N 0.86743 0.76445 0.61706 0.0
N551 N 0.90452 0.7118 0.67408 0.0
H552 H 0.83568 0.94369 0.37729 0.0
H553 H 0.72007 0.86848 0.23141 0.0
H554 H 0.82334 0.86723 0.42371 0.0
H555 H 0.70966 0.94197 0.31065 0.0
H556 H 0.76338 0.87099 0.26612 0.0
H557 H 0.7939 0.94619 0.32124 0.0
C558 C 0.82427 0.92752 0.37542 0.0
C559 C 0.83278 0.9053 0.40583 0.0
C560 C 0.75166 0.88667 0.27507 0.0
C561 C 0.78595 0.90785 0.34063 0.0
C562 C 0.72695 0.88531 0.25513 0.0
C563 C 0.71115 0.90493 0.26917 0.0
C564 C 0.76081 0.90788 0.30875 0.0
C565 C 0.72121 0.92634 0.29961 0.0
C566 C 0.80057 0.92896 0.34377 0.0
C567 C 0.8174 0.88481 0.40194 0.0
N568 N 0.74549 0.92723 0.31902 0.0
N569 N 0.79487 0.88655 0.36957 0.0
H570 H 0.06091 0.2172 0.54344 0.0
H571 H 0.1452 0.32576 0.67331 0.0
H572 H 0.1382 0.222 0.49173 0.0
H573 H 0.07121 0.34224 0.59909 0.0
H574 H 0.14042 0.28443 0.62787 0.0
H575 H 0.06175 0.26045 0.5812 0.0
C576 C 0.07794 0.22735 0.53948 0.0
C577 C 0.09955 0.21598 0.51474 0.0
C578 C 0.1252 0.29705 0.62144 0.0
C579 C 0.10065 0.26484 0.55865 0.0
C580 C 0.12781 0.32066 0.64783 0.0
C581 C 0.10855 0.33756 0.63995 0.0
C582 C 0.10302 0.28991 0.58781 0.0
C583 C 0.08654 0.32979 0.60591 0.0
C584 C 0.07836 0.25194 0.56072 0.0
C585 C 0.12111 0.22994 0.51051 0.0
N586 N 0.08425 0.30635 0.58139 0.0
N587 N 0.12116 0.25348 0.53313 0.0
H588 H 0.68455 0.63429 0.91421 0.0
H589 H 0.80255 0.54987 0.92853 0.0
H590 H 0.6755 0.55665 0.94515 0.0
H591 H 0.79664 0.61482 0.79021 0.0
H592 H 0.75777 0.552 0.95101 0.0
H593 H 0.72772 0.62784 0.88518 0.0
C594 C 0.69168 0.61582 0.91474 0.0
C595 C 0.6764 0.59596 0.93191 0.0
C596 C 0.76639 0.56549 0.91488 0.0
C597 C 0.72614 0.58846 0.89964 0.0
C598 C 0.79187 0.56435 0.90228 0.0
C599 C 0.80334 0.58198 0.85647 0.0
C600 C 0.75261 0.58476 0.88306 0.0
C601 C 0.78864 0.60047 0.82434 0.0
C602 C 0.71633 0.61214 0.89791 0.0
C603 C 0.68667 0.57241 0.93154 0.0
N604 N 0.76423 0.60148 0.83883 0.0
N605 N 0.71106 0.56928 0.91644 0.0
H606 H 0.36391 0.2853 0.03012 0.0
H607 H 0.43467 0.16195 0.12488 0.0
H608 H 0.44163 0.28791 0.07987 0.0
H609 H 0.36102 0.1778 0.19915 0.0
H610 H 0.4387 0.20495 0.08291 0.0
H611 H 0.36364 0.24211 0.0635 0.0
C612 C 0.38102 0.27675 0.04741 0.0
C613 C 0.40281 0.29031 0.05269 0.0
C614 C 0.42178 0.19883 0.1087 0.0
C615 C 0.40258 0.24063 0.09072 0.0
C616 C 0.41943 0.17439 0.13232 0.0
C617 C 0.39753 0.1663 0.1659 0.0
C618 C 0.40183 0.21488 0.11695 0.0
C619 C 0.37833 0.18318 0.17422 0.0
C620 C 0.38081 0.25209 0.06676 0.0
C621 C 0.42441 0.27813 0.07552 0.0
N622 N 0.38086 0.20649 0.14939 0.0
N623 N 0.42379 0.25386 0.09373 0.0
loop_
_geom_bond_atom_site_label_1
_geom_bond_atom_site_label_2
_geom_bond_distance
_geom_bond_site_symmetry_2
_ccdc_geom_bond_type
Co0 N4 2.148 . S
Co0 N10 2.128 1_554 S
Co0 N20 2.194 . S
Co0 O25 2.351 . S
Co0 O26 2.155 . S
Co0 O27 2.096 1_554 S
C1 N4 1.301 . S
C1 N5 1.328 . S
C1 H6 0.930 . S
C2 C3 1.333 . S
C2 N4 1.317 . S
C2 H7 0.930 . S
C3 C2 1.333 . S
C3 N5 1.350 . S
C3 H29 0.931 . S
N4 Co0 2.148 . S
N4 C1 1.301 . S
N4 C2 1.317 . S
N5 C1 1.328 . S
N5 C3 1.350 . S
H6 C1 0.930 . S
H7 C2 0.930 . S
C8 O9 1.224 . S
C8 O27 1.247 . S
O9 C8 1.224 . S
N10 Co0 2.128 1_556 S
N10 C11 1.355 . S
N10 C13 1.311 . S
C11 N10 1.355 . S
C11 C12 1.363 . S
C11 H23 0.929 . S
C12 C11 1.363 . S
C12 N14 1.375 . S
C12 H30 0.931 . S
C13 N10 1.311 . S
C13 N14 1.347 . S
C13 H24 0.929 . S
N14 C12 1.375 . S
N14 C13 1.347 . S
C15 C18 1.365 . S
C15 N20 1.328 . S
C15 H21 0.929 . S
C16 C17 1.362 1_556 S
C16 C19 1.378 . S
C16 H31 0.929 . S
C17 C16 1.362 1_554 S
C17 C18 1.366 . S
C18 C15 1.365 . S
C18 C17 1.366 . S
C18 H32 0.930 . S
C19 C16 1.378 . S
C19 N20 1.315 1_556 S
C19 H22 0.930 . S
N20 Co0 2.194 . S
N20 C15 1.328 . S
N20 C19 1.315 1_554 S
H21 C15 0.929 . S
H22 C19 0.930 . S
H23 C11 0.929 . S
H24 C13 0.929 . S
O25 Co0 2.351 . S
O25 C28 1.244 . S
O26 Co0 2.155 . S
O26 C28 1.240 . S
O27 Co0 2.096 1_556 S
O27 C8 1.247 . S
C28 O25 1.244 . S
C28 O26 1.240 . S
H29 C3 0.931 . S
H30 C12 0.931 . S
H31 C16 0.929 . S
H32 C18 0.930 . S
Co33 N37 2.148 . S
Co33 N43 2.128 . S
Co33 N53 2.194 . S
Co33 O58 2.351 . S
Co33 O59 2.155 . S
Co33 O60 2.096 . S
C34 N37 1.301 . S
C34 N38 1.328 . S
C34 H39 0.930 . S
C35 C36 1.333 . S
C35 N37 1.317 . S
C35 H40 0.930 . S
C36 C35 1.333 . S
C36 N38 1.350 . S
C36 H62 0.931 . S
N37 Co33 2.148 . S
N37 C34 1.301 . S
N37 C35 1.317 . S
N38 C34 1.328 . S
N38 C36 1.350 . S
H39 C34 0.930 . S
H40 C35 0.930 . S
C41 O42 1.224 . S
C41 O60 1.247 . S
O42 C41 1.224 . S
N43 Co33 2.128 . S
N43 C44 1.355 . S
N43 C46 1.311 . S
C44 N43 1.355 . S
C44 C45 1.363 . S
C44 H56 0.929 . S
C45 C44 1.363 . S
C45 N47 1.375 . S
C45 H63 0.931 . S
C46 N43 1.311 . S
C46 N47 1.347 . S
C46 H57 0.929 . S
N47 C45 1.375 . S
N47 C46 1.347 . S
C48 C51 1.365 . S
C48 N53 1.328 . S
C48 H54 0.929 . S
C49 C50 1.362 . S
C49 C52 1.378 . S
C49 H64 0.929 . S
C50 C49 1.362 . S
C50 C51 1.366 . S
C51 C48 1.365 . S
C51 C50 1.366 . S
C51 H65 0.930 . S
C52 C49 1.378 . S
C52 N53 1.315 . S
C52 H55 0.930 . S
N53 Co33 2.194 . S
N53 C48 1.328 . S
N53 C52 1.315 . S
H54 C48 0.929 . S
H55 C52 0.930 . S
H56 C44 0.929 . S
H57 C46 0.929 . S
O58 Co33 2.351 . S
O58 C61 1.244 . S
O59 Co33 2.155 . S
O59 C61 1.240 . S
O60 Co33 2.096 . S
O60 C41 1.247 . S
C61 O58 1.244 . S
C61 O59 1.240 . S
H62 C36 0.931 . S
H63 C45 0.931 . S
H64 C49 0.929 . S
H65 C51 0.930 . S
Co66 N70 2.148 . S
Co66 N76 2.128 . S
Co66 N86 2.194 . S
Co66 O91 2.351 . S
Co66 O92 2.155 . S
Co66 O93 2.096 . S
C67 N70 1.301 . S
C67 N71 1.328 . S
C67 H72 0.930 . S
C68 C69 1.333 . S
C68 N70 1.317 . S
C68 H73 0.930 . S
C69 C68 1.333 . S
C69 N71 1.350 . S
C69 H95 0.931 . S
N70 Co66 2.148 . S
N70 C67 1.301 . S
N70 C68 1.317 . S
N71 C67 1.328 . S
N71 C69 1.350 . S
H72 C67 0.930 . S
H73 C68 0.930 . S
C74 O75 1.224 . S
C74 O93 1.247 . S
O75 C74 1.224 . S
N76 Co66 2.128 . S
N76 C77 1.355 . S
N76 C79 1.311 . S
C77 N76 1.355 . S
C77 C78 1.363 . S
C77 H89 0.929 . S
C78 C77 1.363 . S
C78 N80 1.375 . S
C78 H96 0.931 . S
C79 N76 1.311 . S
C79 N80 1.347 . S
C79 H90 0.929 . S
N80 C78 1.375 . S
N80 C79 1.347 . S
C81 C84 1.365 . S
C81 N86 1.328 . S
C81 H87 0.929 . S
C82 C83 1.362 . S
C82 C85 1.378 . S
C82 H97 0.929 . S
C83 C82 1.362 . S
C83 C84 1.366 . S
C84 C81 1.365 . S
C84 C83 1.366 . S
C84 H98 0.930 . S
C85 C82 1.378 . S
C85 N86 1.315 . S
C85 H88 0.930 . S
N86 Co66 2.194 . S
N86 C81 1.328 . S
N86 C85 1.315 . S
H87 C81 0.929 . S
H88 C85 0.930 . S
H89 C77 0.929 . S
H90 C79 0.929 . S
O91 Co66 2.351 . S
O91 C94 1.244 . S
O92 Co66 2.155 . S
O92 C94 1.240 . S
O93 Co66 2.096 . S
O93 C74 1.247 . S
C94 O91 1.244 . S
C94 O92 1.240 . S
H95 C69 0.931 . S
H96 C78 0.931 . S
H97 C82 0.929 . S
H98 C84 0.930 . S
Co99 N103 2.148 . S
Co99 N109 2.128 . S
Co99 N119 2.194 . S
Co99 O124 2.351 . S
Co99 O125 2.155 . S
Co99 O126 2.096 . S
C100 N103 1.301 . S
C100 N104 1.328 . S
C100 H105 0.930 . S
C101 C102 1.333 . S
C101 N103 1.317 . S
C101 H106 0.930 . S
C102 C101 1.333 . S
C102 N104 1.350 . S
C102 H128 0.931 . S
N103 Co99 2.148 . S
N103 C100 1.301 . S
N103 C101 1.317 . S
N104 C100 1.328 . S
N104 C102 1.350 . S
H105 C100 0.930 . S
H106 C101 0.930 . S
C107 O108 1.224 . S
C107 O126 1.247 . S
O108 C107 1.224 . S
N109 Co99 2.128 . S
N109 C110 1.355 . S
N109 C112 1.311 . S
C110 N109 1.355 . S
C110 C111 1.363 . S
C110 H122 0.929 . S
C111 C110 1.363 . S
C111 N113 1.375 . S
C111 H129 0.931 . S
C112 N109 1.311 . S
C112 N113 1.347 . S
C112 H123 0.929 . S
N113 C111 1.375 . S
N113 C112 1.347 . S
C114 C117 1.365 . S
C114 N119 1.328 . S
C114 H120 0.929 . S
C115 C116 1.362 . S
C115 C118 1.378 . S
C115 H130 0.929 . S
C116 C115 1.362 . S
C116 C117 1.366 . S
C117 C114 1.365 . S
C117 C116 1.366 . S
C117 H131 0.930 . S
C118 C115 1.378 . S
C118 N119 1.315 . S
C118 H121 0.930 . S
N119 Co99 2.194 . S
N119 C114 1.328 . S
N119 C118 1.315 . S
H120 C114 0.929 . S
H121 C118 0.930 . S
H122 C110 0.929 . S
H123 C112 0.929 . S
O124 Co99 2.351 . S
O124 C127 1.244 . S
O125 Co99 2.155 . S
O125 C127 1.240 . S
O126 Co99 2.096 . S
O126 C107 1.247 . S
C127 O124 1.244 . S
C127 O125 1.240 . S
H128 C102 0.931 . S
H129 C111 0.931 . S
H130 C115 0.929 . S
H131 C117 0.930 . S
Co132 N136 2.148 . S
Co132 N142 2.128 . S
Co132 N152 2.194 . S
Co132 O157 2.351 . S
Co132 O158 2.155 . S
Co132 O159 2.096 . S
C133 N136 1.301 . S
C133 N137 1.328 . S
C133 H138 0.930 . S
C134 C135 1.333 . S
C134 N136 1.317 . S
C134 H139 0.930 . S
C135 C134 1.333 . S
C135 N137 1.350 . S
C135 H161 0.931 . S
N136 Co132 2.148 . S
N136 C133 1.301 . S
N136 C134 1.317 . S
N137 C133 1.328 . S
N137 C135 1.350 . S
H138 C133 0.930 . S
H139 C134 0.930 . S
C140 O141 1.224 . S
C140 O159 1.247 . S
O141 C140 1.224 . S
N142 Co132 2.128 . S
N142 C143 1.355 . S
N142 C145 1.311 . S
C143 N142 1.355 . S
C143 C144 1.363 . S
C143 H155 0.929 . S
C144 C143 1.363 . S
C144 N146 1.375 . S
C144 H162 0.931 . S
C145 N142 1.311 . S
C145 N146 1.347 . S
C145 H156 0.929 . S
N146 C144 1.375 . S
N146 C145 1.347 . S
C147 C150 1.365 . S
C147 N152 1.328 . S
C147 H153 0.929 . S
C148 C149 1.362 . S
C148 C151 1.378 . S
C148 H163 0.929 . S
C149 C148 1.362 . S
C149 C150 1.366 . S
C150 C147 1.365 . S
C150 C149 1.366 . S
C150 H164 0.930 . S
C151 C148 1.378 . S
C151 N152 1.315 . S
C151 H154 0.930 . S
N152 Co132 2.194 . S
N152 C147 1.328 . S
N152 C151 1.315 . S
H153 C147 0.929 . S
H154 C151 0.930 . S
H155 C143 0.929 . S
H156 C145 0.929 . S
O157 Co132 2.351 . S
O157 C160 1.244 . S
O158 Co132 2.155 . S
O158 C160 1.240 . S
O159 Co132 2.096 . S
O159 C140 1.247 . S
C160 O157 1.244 . S
C160 O158 1.240 . S
H161 C135 0.931 . S
H162 C144 0.931 . S
H163 C148 0.929 . S
H164 C150 0.930 . S
Co165 N169 2.148 . S
Co165 N175 2.128 . S
Co165 N185 2.194 . S
Co165 O190 2.351 . S
Co165 O191 2.155 . S
Co165 O192 2.096 . S
C166 N169 1.301 . S
C166 N170 1.328 . S
C166 H171 0.930 . S
C167 C168 1.333 . S
C167 N169 1.317 . S
C167 H172 0.930 . S
C168 C167 1.333 . S
C168 N170 1.350 . S
C168 H194 0.931 . S
N169 Co165 2.148 . S
N169 C166 1.301 . S
N169 C167 1.317 . S
N170 C166 1.328 . S
N170 C168 1.350 . S
H171 C166 0.930 . S
H172 C167 0.930 . S
C173 O174 1.224 . S
C173 O192 1.247 . S
O174 C173 1.224 . S
N175 Co165 2.128 . S
N175 C176 1.355 . S
N175 C178 1.311 . S
C176 N175 1.355 . S
C176 C177 1.363 . S
C176 H188 0.929 . S
C177 C176 1.363 . S
C177 N179 1.375 . S
C177 H195 0.931 . S
C178 N175 1.311 . S
C178 N179 1.347 . S
C178 H189 0.929 . S
N179 C177 1.375 . S
N179 C178 1.347 . S
C180 C183 1.365 . S
C180 N185 1.328 . S
C180 H186 0.929 . S
C181 C182 1.362 . S
C181 C184 1.378 . S
C181 H196 0.929 . S
C182 C181 1.362 . S
C182 C183 1.366 . S
C183 C180 1.365 . S
C183 C182 1.366 . S
C183 H197 0.930 . S
C184 C181 1.378 . S
C184 N185 1.315 . S
C184 H187 0.930 . S
N185 Co165 2.194 . S
N185 C180 1.328 . S
N185 C184 1.315 . S
H186 C180 0.929 . S
H187 C184 0.930 . S
H188 C176 0.929 . S
H189 C178 0.929 . S
O190 Co165 2.351 . S
O190 C193 1.244 . S
O191 Co165 2.155 . S
O191 C193 1.240 . S
O192 Co165 2.096 . S
O192 C173 1.247 . S
C193 O190 1.244 . S
C193 O191 1.240 . S
H194 C168 0.931 . S
H195 C177 0.931 . S
H196 C181 0.929 . S
H197 C183 0.930 . S
Co198 N202 2.148 . S
Co198 N208 2.128 . S
Co198 N218 2.194 . S
Co198 O223 2.351 . S
Co198 O224 2.155 . S
Co198 O225 2.096 . S
C199 N202 1.301 . S
C199 N203 1.328 . S
C199 H204 0.930 . S
C200 C201 1.333 . S
C200 N202 1.317 . S
C200 H205 0.930 . S
C201 C200 1.333 . S
C201 N203 1.350 . S
C201 H227 0.931 . S
N202 Co198 2.148 . S
N202 C199 1.301 . S
N202 C200 1.317 . S
N203 C199 1.328 . S
N203 C201 1.350 . S
H204 C199 0.930 . S
H205 C200 0.930 . S
C206 O207 1.224 . S
C206 O225 1.247 . S
O207 C206 1.224 . S
N208 Co198 2.128 . S
N208 C209 1.355 . S
N208 C211 1.311 . S
C209 N208 1.355 . S
C209 C210 1.363 . S
C209 H221 0.929 . S
C210 C209 1.363 . S
C210 N212 1.375 . S
C210 H228 0.931 . S
C211 N208 1.311 . S
C211 N212 1.347 . S
C211 H222 0.929 . S
N212 C210 1.375 . S
N212 C211 1.347 . S
C213 C216 1.365 . S
C213 N218 1.328 . S
C213 H219 0.929 . S
C214 C215 1.362 . S
C214 C217 1.378 . S
C214 H229 0.929 . S
C215 C214 1.362 . S
C215 C216 1.366 . S
C216 C213 1.365 . S
C216 C215 1.366 . S
C216 H230 0.930 . S
C217 C214 1.378 . S
C217 N218 1.315 . S
C217 H220 0.930 . S
N218 Co198 2.194 . S
N218 C213 1.328 . S
N218 C217 1.315 . S
H219 C213 0.929 . S
H220 C217 0.930 . S
H221 C209 0.929 . S
H222 C211 0.929 . S
O223 Co198 2.351 . S
O223 C226 1.244 . S
O224 Co198 2.155 . S
O224 C226 1.240 . S
O225 Co198 2.096 . S
O225 C206 1.247 . S
C226 O223 1.244 . S
C226 O224 1.240 . S
H227 C201 0.931 . S
H228 C210 0.931 . S
H229 C214 0.929 . S
H230 C216 0.930 . S
Co231 N235 2.148 . S
Co231 N241 2.128 1_554 S
Co231 N251 2.194 . S
Co231 O256 2.351 . S
Co231 O257 2.155 . S
Co231 O258 2.096 1_554 S
C232 N235 1.301 . S
C232 N236 1.328 . S
C232 H237 0.930 . S
C233 C234 1.333 . S
C233 N235 1.317 . S
C233 H238 0.930 . S
C234 C233 1.333 . S
C234 N236 1.350 . S
C234 H260 0.931 . S
N235 Co231 2.148 . S
N235 C232 1.301 . S
N235 C233 1.317 . S
N236 C232 1.328 . S
N236 C234 1.350 . S
H237 C232 0.930 . S
H238 C233 0.930 . S
C239 O240 1.224 . S
C239 O258 1.247 . S
O240 C239 1.224 . S
N241 Co231 2.128 1_556 S
N241 C242 1.355 . S
N241 C244 1.311 . S
C242 N241 1.355 . S
C242 C243 1.363 . S
C242 H254 0.929 . S
C243 C242 1.363 . S
C243 N245 1.375 . S
C243 H261 0.931 . S
C244 N241 1.311 . S
C244 N245 1.347 . S
C244 H255 0.929 . S
N245 C243 1.375 . S
N245 C244 1.347 . S
C246 C249 1.365 . S
C246 N251 1.328 . S
C246 H252 0.929 . S
C247 C248 1.362 1_556 S
C247 C250 1.378 . S
C247 H262 0.929 . S
C248 C247 1.362 1_554 S
C248 C249 1.366 . S
C249 C246 1.365 . S
C249 C248 1.366 . S
C249 H263 0.930 . S
C250 C247 1.378 . S
C250 N251 1.311 1_556 S
C250 H253 0.934 . S
N251 Co231 2.194 . S
N251 C246 1.328 . S
N251 C250 1.311 1_554 S
H252 C246 0.929 . S
H253 C250 0.934 . S
H254 C242 0.929 . S
H255 C244 0.929 . S
O256 Co231 2.351 . S
O256 C259 1.244 . S
O257 Co231 2.155 . S
O257 C259 1.240 . S
O258 Co231 2.096 1_556 S
O258 C239 1.247 . S
C259 O256 1.244 . S
C259 O257 1.240 . S
H260 C234 0.931 . S
H261 C243 0.931 . S
H262 C247 0.929 . S
H263 C249 0.930 . S
H264 C270 0.930 . S
H265 C274 0.930 . S
H266 C279 0.929 . S
H267 C277 0.929 . S
H268 C272 0.929 . S
H269 C278 0.929 . S
C270 H264 0.930 . S
C270 C271 1.367 . S
C270 C278 1.378 . S
C271 C270 1.367 . S
C271 C279 1.433 1_554 S
C272 H268 0.929 . S
C272 C274 1.378 . S
C272 C276 1.350 1_556 S
C273 C276 1.463 . S
C273 C278 1.350 . S
C273 N281 1.427 1_554 S
C274 H265 0.930 . S
C274 C272 1.378 . S
C274 C275 1.367 1_556 S
C275 C274 1.367 1_554 S
C275 C277 1.433 . S
C276 C272 1.350 1_554 S
C276 C273 1.463 . S
C276 N280 1.427 . S
C277 H267 0.929 . S
C277 C275 1.433 . S
C277 N280 1.384 . S
C278 H269 0.929 . S
C278 C270 1.378 . S
C278 C273 1.350 . S
C279 H266 0.929 . S
C279 C271 1.433 1_556 S
C279 N281 1.384 . S
N280 C276 1.427 . S
N280 C277 1.384 . S
N281 C273 1.427 1_556 S
N281 C279 1.384 . S
H282 C288 0.930 . S
H283 C292 0.930 . S
H284 C297 0.929 . S
H285 C295 0.929 . S
H286 C290 0.929 . S
H287 C296 0.929 . S
C288 H282 0.930 . S
C288 C289 1.367 . S
C288 C296 1.378 . S
C289 C288 1.367 . S
C289 C297 1.433 . S
C290 H286 0.929 . S
C290 C292 1.378 . S
C290 C294 1.350 . S
C291 C294 1.463 1_545 S
C291 C296 1.350 . S
C291 N299 1.427 . S
C292 H283 0.930 . S
C292 C290 1.378 . S
C292 C293 1.367 . S
C293 C292 1.367 . S
C293 C295 1.433 . S
C294 C290 1.350 . S
C294 C291 1.463 1_565 S
C294 N298 1.427 . S
C295 H285 0.929 . S
C295 C293 1.433 . S
C295 N298 1.384 . S
C296 H287 0.929 . S
C296 C288 1.378 . S
C296 C291 1.350 . S
C297 H284 0.929 . S
C297 C289 1.433 . S
C297 N299 1.384 . S
N298 C294 1.427 . S
N298 C295 1.384 . S
N299 C291 1.427 . S
N299 C297 1.384 . S
H300 C306 0.930 . S
H301 C310 0.930 . S
H302 C315 0.929 . S
H303 C313 0.929 . S
H304 C308 0.929 1_565 S
H305 C314 0.903 1_545 S
C306 H300 0.930 . S
C306 C307 1.367 . S
C306 C314 1.397 . S
C307 C306 1.367 . S
C307 C315 1.433 . S
C308 H304 0.929 1_545 S
C308 C310 1.378 . S
C308 C312 1.350 . S
C309 C312 1.463 1_665 S
C309 C314 1.357 . S
C309 N317 1.427 . S
C310 H301 0.930 . S
C310 C308 1.378 . S
C310 C311 1.367 . S
C311 C310 1.367 . S
C311 C313 1.433 . S
C312 C308 1.350 . S
C312 C309 1.463 1_445 S
C312 N316 1.428 1_455 S
C313 H303 0.929 . S
C313 C311 1.433 . S
C313 N316 1.384 1_455 S
C314 H305 0.903 1_565 S
C314 C306 1.397 . S
C314 C309 1.357 . S
C315 H302 0.929 . S
C315 C307 1.433 . S
C315 N317 1.384 . S
N316 C312 1.428 1_655 S
N316 C313 1.384 1_655 S
N317 C309 1.427 . S
N317 C315 1.384 . S
H318 C324 0.930 . S
H319 C328 0.930 . S
H320 C333 0.929 . S
H321 C331 0.929 . S
H322 C326 0.929 . S
H323 C332 0.929 . S
C324 H318 0.930 . S
C324 C325 1.367 . S
C324 C332 1.378 . S
C325 C324 1.367 . S
C325 C333 1.433 . S
C326 H322 0.929 . S
C326 C328 1.378 . S
C326 C330 1.350 . S
C327 C330 1.463 1_455 S
C327 C332 1.350 . S
C327 N335 1.427 . S
C328 H319 0.930 . S
C328 C326 1.378 . S
C328 C329 1.367 . S
C329 C328 1.367 . S
C329 C331 1.433 . S
C330 C326 1.350 . S
C330 C327 1.463 1_655 S
C330 N334 1.427 . S
C331 H321 0.929 . S
C331 C329 1.433 . S
C331 N334 1.384 . S
C332 H323 0.929 . S
C332 C324 1.378 . S
C332 C327 1.350 . S
C333 H320 0.929 . S
C333 C325 1.433 . S
C333 N335 1.384 . S
N334 C330 1.427 . S
N334 C331 1.384 . S
N335 C327 1.427 . S
N335 C333 1.384 . S
H336 C342 0.930 . S
H337 C346 0.930 . S
H338 C351 0.929 . S
H339 C349 0.929 . S
H340 C344 0.929 . S
H341 C350 0.929 . S
C342 H336 0.930 . S
C342 C343 1.367 . S
C342 C350 1.378 . S
C343 C342 1.367 . S
C343 C351 1.433 . S
C344 H340 0.929 . S
C344 C346 1.378 . S
C344 C348 1.350 . S
C345 C348 1.463 . S
C345 C350 1.350 . S
C345 N353 1.427 . S
C346 H337 0.930 . S
C346 C344 1.378 . S
C346 C347 1.367 . S
C347 C346 1.367 . S
C347 C349 1.433 . S
C348 C344 1.350 . S
C348 C345 1.463 . S
C348 N352 1.427 . S
C349 H339 0.929 . S
C349 C347 1.433 . S
C349 N352 1.384 . S
C350 H341 0.929 . S
C350 C342 1.378 . S
C350 C345 1.350 . S
C351 H338 0.929 . S
C351 C343 1.433 . S
C351 N353 1.384 . S
N352 C348 1.427 . S
N352 C349 1.384 . S
N353 C345 1.427 . S
N353 C351 1.384 . S
H354 C360 0.930 . S
H355 C364 0.930 . S
H356 C369 0.929 . S
H357 C367 0.929 . S
H358 C362 0.929 . S
H359 C368 0.929 . S
C360 H354 0.930 . S
C360 C361 1.367 . S
C360 C368 1.378 . S
C361 C360 1.367 . S
C361 C369 1.433 . S
C362 H358 0.929 . S
C362 C364 1.378 . S
C362 C366 1.350 . S
C363 C366 1.463 . S
C363 C368 1.350 . S
C363 N371 1.427 . S
C364 H355 0.930 . S
C364 C362 1.378 . S
C364 C365 1.367 . S
C365 C364 1.367 . S
C365 C367 1.433 . S
C366 C362 1.350 . S
C366 C363 1.463 . S
C366 N370 1.427 . S
C367 H357 0.929 . S
C367 C365 1.433 . S
C367 N370 1.384 . S
C368 H359 0.929 . S
C368 C360 1.378 . S
C368 C363 1.350 . S
C369 H356 0.929 . S
C369 C361 1.433 . S
C369 N371 1.384 . S
N370 C366 1.427 . S
N370 C367 1.384 . S
N371 C363 1.427 . S
N371 C369 1.384 . S
H372 C378 0.930 . S
H373 C382 0.930 . S
H374 C387 0.929 . S
H375 C385 0.929 . S
H376 C380 0.929 . S
H377 C386 0.929 . S
C378 H372 0.930 . S
C378 C379 1.367 . S
C378 C386 1.378 . S
C379 C378 1.367 . S
C379 C387 1.433 . S
C380 H376 0.929 . S
C380 C382 1.378 . S
C380 C384 1.350 . S
C381 C384 1.463 1_556 S
C381 C386 1.350 . S
C381 N389 1.427 . S
C382 H373 0.930 . S
C382 C380 1.378 . S
C382 C383 1.367 . S
C383 C382 1.367 . S
C383 C385 1.433 . S
C384 C380 1.350 . S
C384 C381 1.463 1_554 S
C384 N388 1.427 . S
C385 H375 0.929 . S
C385 C383 1.433 . S
C385 N388 1.384 . S
C386 H377 0.929 . S
C386 C378 1.378 . S
C386 C381 1.350 . S
C387 H374 0.929 . S
C387 C379 1.433 . S
C387 N389 1.384 . S
N388 C384 1.427 . S
N388 C385 1.384 . S
N389 C381 1.427 . S
N389 C387 1.384 . S
H390 C396 0.930 . S
H391 C400 0.930 . S
H392 C405 0.929 . S
H393 C403 0.929 . S
H394 C398 0.929 . S
H395 C404 0.929 . S
C396 H390 0.930 . S
C396 C397 1.367 . S
C396 C404 1.378 . S
C397 C396 1.367 . S
C397 C405 1.433 . S
C398 H394 0.929 . S
C398 C400 1.378 . S
C398 C402 1.350 . S
C399 C402 1.463 . S
C399 C404 1.350 . S
C399 N407 1.427 . S
C400 H391 0.930 . S
C400 C398 1.378 . S
C400 C401 1.367 . S
C401 C400 1.367 . S
C401 C403 1.433 . S
C402 C398 1.350 . S
C402 C399 1.463 . S
C402 N406 1.427 . S
C403 H393 0.929 . S
C403 C401 1.433 . S
C403 N406 1.384 . S
C404 H395 0.929 . S
C404 C396 1.378 . S
C404 C399 1.350 . S
C405 H392 0.929 . S
C405 C397 1.433 . S
C405 N407 1.384 . S
N406 C402 1.427 . S
N406 C403 1.384 . S
N407 C399 1.427 . S
N407 C405 1.384 . S
H408 C414 0.930 . S
H409 C418 0.930 . S
H410 C423 0.929 . S
H411 C421 0.929 . S
H412 C416 0.929 . S
H413 C422 0.929 . S
C414 H408 0.930 . S
C414 C415 1.367 . S
C414 C422 1.378 . S
C415 C414 1.367 . S
C415 C423 1.433 . S
C416 H412 0.929 . S
C416 C418 1.378 . S
C416 C420 1.350 . S
C417 C420 1.463 . S
C417 C422 1.350 . S
C417 N425 1.427 . S
C418 H409 0.930 . S
C418 C416 1.378 . S
C418 C419 1.367 . S
C419 C418 1.367 . S
C419 C421 1.433 . S
C420 C416 1.350 . S
C420 C417 1.463 . S
C420 N424 1.427 . S
C421 H411 0.929 . S
C421 C419 1.433 . S
C421 N424 1.384 . S
C422 H413 0.929 . S
C422 C414 1.378 . S
C422 C417 1.350 . S
C423 H410 0.929 . S
C423 C415 1.433 . S
C423 N425 1.384 . S
N424 C420 1.427 . S
N424 C421 1.384 . S
N425 C417 1.427 . S
N425 C423 1.384 . S
H426 C432 0.930 . S
H427 C436 0.930 . S
H428 C441 0.929 . S
H429 C439 0.929 . S
H430 C434 0.929 . S
H431 C440 0.929 . S
C432 H426 0.930 . S
C432 C433 1.367 . S
C432 C440 1.378 . S
C433 C432 1.367 . S
C433 C441 1.433 . S
C434 H430 0.929 . S
C434 C436 1.378 . S
C434 C438 1.350 . S
C435 C438 1.463 1_554 S
C435 C440 1.350 . S
C435 N443 1.427 . S
C436 H427 0.930 . S
C436 C434 1.378 . S
C436 C437 1.367 . S
C437 C436 1.367 . S
C437 C439 1.433 . S
C438 C434 1.350 . S
C438 C435 1.463 1_556 S
C438 N442 1.427 . S
C439 H429 0.929 . S
C439 C437 1.433 . S
C439 N442 1.384 . S
C440 H431 0.929 . S
C440 C432 1.378 . S
C440 C435 1.350 . S
C441 H428 0.929 . S
C441 C433 1.433 . S
C441 N443 1.384 . S
N442 C438 1.427 . S
N442 C439 1.384 . S
N443 C435 1.427 . S
N443 C441 1.384 . S
H444 C450 0.930 . S
H445 C454 0.930 . S
H446 C459 0.929 . S
H447 C457 0.929 . S
H448 C452 0.929 . S
H449 C458 0.929 . S
C450 H444 0.930 . S
C450 C451 1.367 . S
C450 C458 1.378 . S
C451 C450 1.367 . S
C451 C459 1.433 . S
C452 H448 0.929 . S
C452 C454 1.378 . S
C452 C456 1.350 . S
C453 C456 1.463 . S
C453 C458 1.350 . S
C453 N461 1.427 . S
C454 H445 0.930 . S
C454 C452 1.378 . S
C454 C455 1.367 . S
C455 C454 1.367 . S
C455 C457 1.433 . S
C456 C452 1.350 . S
C456 C453 1.463 . S
C456 N460 1.427 . S
C457 H447 0.929 . S
C457 C455 1.433 . S
C457 N460 1.384 . S
C458 H449 0.929 . S
C458 C450 1.378 . S
C458 C453 1.350 . S
C459 H446 0.929 . S
C459 C451 1.433 . S
C459 N461 1.384 . S
N460 C456 1.427 . S
N460 C457 1.384 . S
N461 C453 1.427 . S
N461 C459 1.384 . S
H462 C468 0.930 . S
H463 C472 0.930 . S
H464 C477 0.929 . S
H465 C475 0.929 . S
H466 C470 0.929 . S
H467 C476 0.929 . S
C468 H462 0.930 . S
C468 C469 1.367 . S
C468 C476 1.378 . S
C469 C468 1.367 . S
C469 C477 1.433 . S
C470 H466 0.929 . S
C470 C472 1.378 . S
C470 C474 1.350 . S
C471 C474 1.463 . S
C471 C476 1.350 . S
C471 N479 1.427 . S
C472 H463 0.930 . S
C472 C470 1.378 . S
C472 C473 1.367 . S
C473 C472 1.367 . S
C473 C475 1.433 . S
C474 C470 1.350 . S
C474 C471 1.463 . S
C474 N478 1.427 . S
C475 H465 0.929 . S
C475 C473 1.433 . S
C475 N478 1.384 . S
C476 H467 0.929 . S
C476 C468 1.378 . S
C476 C471 1.350 . S
C477 H464 0.929 . S
C477 C469 1.433 . S
C477 N479 1.384 . S
N478 C474 1.427 . S
N478 C475 1.384 . S
N479 C471 1.427 . S
N479 C477 1.384 . S
H480 C486 0.930 . S
H481 C490 0.930 . S
H482 C495 0.929 . S
H483 C493 0.929 . S
H484 C488 0.929 . S
H485 C494 0.929 . S
C486 H480 0.930 . S
C486 C487 1.367 . S
C486 C494 1.378 . S
C487 C486 1.367 . S
C487 C495 1.433 . S
C488 H484 0.929 . S
C488 C490 1.378 . S
C488 C492 1.350 . S
C489 C492 1.463 . S
C489 C494 1.350 . S
C489 N497 1.427 . S
C490 H481 0.930 . S
C490 C488 1.378 . S
C490 C491 1.367 . S
C491 C490 1.367 . S
C491 C493 1.433 . S
C492 C488 1.350 . S
C492 C489 1.463 . S
C492 N496 1.427 . S
C493 H483 0.929 . S
C493 C491 1.433 . S
C493 N496 1.384 . S
C494 H485 0.929 . S
C494 C486 1.378 . S
C494 C489 1.350 . S
C495 H482 0.929 . S
C495 C487 1.433 . S
C495 N497 1.384 . S
N496 C492 1.427 . S
N496 C493 1.384 . S
N497 C489 1.427 . S
N497 C495 1.384 . S
H498 C504 0.930 . S
H499 C508 0.930 . S
H500 C513 0.929 . S
H501 C511 0.929 . S
H502 C506 0.929 . S
H503 C512 0.929 . S
C504 H498 0.930 . S
C504 C505 1.367 . S
C504 C512 1.378 . S
C505 C504 1.367 . S
C505 C513 1.433 . S
C506 H502 0.929 . S
C506 C508 1.378 . S
C506 C510 1.350 . S
C507 C510 1.463 . S
C507 C512 1.350 . S
C507 N515 1.427 . S
C508 H499 0.930 . S
C508 C506 1.378 . S
C508 C509 1.367 . S
C509 C508 1.367 . S
C509 C511 1.433 . S
C510 C506 1.350 . S
C510 C507 1.463 . S
C510 N514 1.427 . S
C511 H501 0.929 . S
C511 C509 1.433 . S
C511 N514 1.384 . S
C512 H503 0.929 . S
C512 C504 1.378 . S
C512 C507 1.350 . S
C513 H500 0.929 . S
C513 C505 1.433 . S
C513 N515 1.384 . S
N514 C510 1.427 . S
N514 C511 1.384 . S
N515 C507 1.427 . S
N515 C513 1.384 . S
H516 C522 0.930 . S
H517 C526 0.930 . S
H518 C531 0.929 . S
H519 C529 0.929 . S
H520 C524 0.929 . S
H521 C530 0.929 . S
C522 H516 0.930 . S
C522 C523 1.367 . S
C522 C530 1.378 . S
C523 C522 1.367 . S
C523 C531 1.433 . S
C524 H520 0.929 . S
C524 C526 1.378 . S
C524 C528 1.350 . S
C525 C528 1.463 . S
C525 C530 1.350 . S
C525 N533 1.427 . S
C526 H517 0.930 . S
C526 C524 1.378 . S
C526 C527 1.367 . S
C527 C526 1.367 . S
C527 C529 1.433 . S
C528 C524 1.350 . S
C528 C525 1.463 . S
C528 N532 1.427 . S
C529 H519 0.929 . S
C529 C527 1.433 . S
C529 N532 1.384 . S
C530 H521 0.929 . S
C530 C522 1.378 . S
C530 C525 1.350 . S
C531 H518 0.929 . S
C531 C523 1.433 . S
C531 N533 1.384 . S
N532 C528 1.427 . S
N532 C529 1.384 . S
N533 C525 1.427 . S
N533 C531 1.384 . S
H534 C540 0.930 . S
H535 C544 0.930 . S
H536 C549 0.929 . S
H537 C547 0.929 . S
H538 C542 0.929 . S
H539 C548 0.929 . S
C540 H534 0.930 . S
C540 C541 1.367 . S
C540 C548 1.378 . S
C541 C540 1.367 . S
C541 C549 1.433 . S
C542 H538 0.929 . S
C542 C544 1.378 . S
C542 C546 1.350 . S
C543 C546 1.463 . S
C543 C548 1.350 . S
C543 N551 1.427 . S
C544 H535 0.930 . S
C544 C542 1.378 . S
C544 C545 1.367 . S
C545 C544 1.367 . S
C545 C547 1.433 . S
C546 C542 1.350 . S
C546 C543 1.463 . S
C546 N550 1.427 . S
C547 H537 0.929 . S
C547 C545 1.433 . S
C547 N550 1.384 . S
C548 H539 0.929 . S
C548 C540 1.378 . S
C548 C543 1.350 . S
C549 H536 0.929 . S
C549 C541 1.433 . S
C549 N551 1.384 . S
N550 C546 1.427 . S
N550 C547 1.384 . S
N551 C543 1.427 . S
N551 C549 1.384 . S
H552 C558 0.930 . S
H553 C562 0.930 . S
H554 C567 0.929 . S
H555 C565 0.929 . S
H556 C560 0.929 . S
H557 C566 0.929 . S
C558 H552 0.930 . S
C558 C559 1.367 . S
C558 C566 1.378 . S
C559 C558 1.367 . S
C559 C567 1.433 . S
C560 H556 0.929 . S
C560 C562 1.378 . S
C560 C564 1.350 . S
C561 C564 1.463 . S
C561 C566 1.350 . S
C561 N569 1.427 . S
C562 H553 0.930 . S
C562 C560 1.378 . S
C562 C563 1.367 . S
C563 C562 1.367 . S
C563 C565 1.433 . S
C564 C560 1.350 . S
C564 C561 1.463 . S
C564 N568 1.427 . S
C565 H555 0.929 . S
C565 C563 1.433 . S
C565 N568 1.384 . S
C566 H557 0.929 . S
C566 C558 1.378 . S
C566 C561 1.350 . S
C567 H554 0.929 . S
C567 C559 1.433 . S
C567 N569 1.384 . S
N568 C564 1.427 . S
N568 C565 1.384 . S
N569 C561 1.427 . S
N569 C567 1.384 . S
H570 C576 0.930 . S
H571 C580 0.930 . S
H572 C585 0.929 . S
H573 C583 0.929 . S
H574 C578 0.929 . S
H575 C584 0.929 . S
C576 H570 0.930 . S
C576 C577 1.367 . S
C576 C584 1.378 . S
C577 C576 1.367 . S
C577 C585 1.433 . S
C578 H574 0.929 . S
C578 C580 1.378 . S
C578 C582 1.350 . S
C579 C582 1.463 . S
C579 C584 1.350 . S
C579 N587 1.427 . S
C580 H571 0.930 . S
C580 C578 1.378 . S
C580 C581 1.367 . S
C581 C580 1.367 . S
C581 C583 1.433 . S
C582 C578 1.350 . S
C582 C579 1.463 . S
C582 N586 1.427 . S
C583 H573 0.929 . S
C583 C581 1.433 . S
C583 N586 1.384 . S
C584 H575 0.929 . S
C584 C576 1.378 . S
C584 C579 1.350 . S
C585 H572 0.929 . S
C585 C577 1.433 . S
C585 N587 1.384 . S
N586 C582 1.427 . S
N586 C583 1.384 . S
N587 C579 1.427 . S
N587 C585 1.384 . S
H588 C594 0.930 . S
H589 C598 0.930 . S
H590 C603 0.929 . S
H591 C601 0.929 . S
H592 C596 0.929 . S
H593 C602 0.929 . S
C594 H588 0.930 . S
C594 C595 1.367 . S
C594 C602 1.378 . S
C595 C594 1.367 . S
C595 C603 1.433 . S
C596 H592 0.929 . S
C596 C598 1.378 . S
C596 C600 1.350 . S
C597 C600 1.463 . S
C597 C602 1.350 . S
C597 N605 1.427 . S
C598 H589 0.930 . S
C598 C596 1.378 . S
C598 C599 1.367 . S
C599 C598 1.367 . S
C599 C601 1.433 . S
C600 C596 1.350 . S
C600 C597 1.463 . S
C600 N604 1.427 . S
C601 H591 0.929 . S
C601 C599 1.433 . S
C601 N604 1.384 . S
C602 H593 0.929 . S
C602 C594 1.378 . S
C602 C597 1.350 . S
C603 H590 0.929 . S
C603 C595 1.433 . S
C603 N605 1.384 . S
N604 C600 1.427 . S
N604 C601 1.384 . S
N605 C597 1.427 . S
N605 C603 1.384 . S
H606 C612 0.930 . S
H607 C616 0.930 . S
H608 C621 0.929 . S
H609 C619 0.929 . S
H610 C614 0.929 . S
H611 C620 0.929 . S
C612 H606 0.930 . S
C612 C613 1.367 . S
C612 C620 1.378 . S
C613 C612 1.367 . S
C613 C621 1.433 . S
C614 H610 0.929 . S
C614 C616 1.378 . S
C614 C618 1.350 . S
C615 C618 1.463 . S
C615 C620 1.350 . S
C615 N623 1.427 . S
C616 H607 0.930 . S
C616 C614 1.378 . S
C616 C617 1.367 . S
C617 C616 1.367 . S
C617 C619 1.433 . S
C618 C614 1.350 . S
C618 C615 1.463 . S
C618 N622 1.427 . S
C619 H609 0.929 . S
C619 C617 1.433 . S
C619 N622 1.384 . S
C620 H611 0.929 . S
C620 C612 1.378 . S
C620 C615 1.350 . S
C621 H608 0.929 . S
C621 C613 1.433 . S
C621 N623 1.384 . S
N622 C618 1.427 . S
N622 C619 1.384 . S
N623 C615 1.427 . S
N623 C621 1.384 . S
C271 C248 1.252 . S
C275 C17 1.253 . S
C289 C149 1.240 . S
C293 C50 1.237 . S
C307 C182 1.226 . S
C311 C83 1.225 . S
C325 C215 1.237 . S
C329 C116 1.237 . S
C343 N5 1.424 . S
C347 N14 1.419 . S
C361 N47 1.421 1_556 S
C365 N38 1.425 . S
C379 N71 1.420 . S
C383 N80 1.415 . S
C397 N113 1.413 1_554 S
C401 N104 1.419 . S
C415 N146 1.421 1_556 S
C419 N137 1.426 . S
C433 N179 1.407 . S
C437 N170 1.413 . S
C451 N212 1.420 . S
C455 N203 1.425 1_554 S
C469 N245 1.417 . S
C473 N236 1.423 . S
C487 C226 1.358 . S
C491 C8 1.358 . S
C505 C41 1.378 . S
C509 C259 1.380 . S
C523 C160 1.343 . S
C527 C74 1.343 . S
C541 C127 1.315 . S
C545 C193 1.322 . S
C559 C173 1.319 . S
C563 C61 1.307 . S
C577 C94 1.334 . S
C581 C206 1.339 . S
C595 C239 1.371 . S
C599 C107 1.376 . S
C613 C28 1.341 . S
C617 C140 1.356 . S
