# Generated by pormake.
# Topology lcy-a, (4)-cn, num edge types: 1
# Building blocks:
#     Node 0, Type 0, BuildingBlock: GALJAG_clean_sbu_0, # of connection points: 4
#     Node 1, Type 0, BuildingBlock: GALJAG_clean_sbu_0, # of connection points: 4
#     Node 2, Type 0, BuildingBlock: GALJAG_clean_sbu_0, # of connection points: 4
#     Node 3, Type 0, BuildingBlock: GALJAG_clean_sbu_0, # of connection points: 4
#     Node 4, Type 0, BuildingBlock: GALJAG_clean_sbu_0, # of connection points: 4
#     Node 5, Type 0, BuildingBlock: GALJAG_clean_sbu_0, # of connection points: 4
#     Node 6, Type 0, BuildingBlock: GALJAG_clean_sbu_0, # of connection points: 4
#     Node 7, Type 0, BuildingBlock: GALJAG_clean_sbu_0, # of connection points: 4
#     Node 8, Type 0, BuildingBlock: GALJAG_clean_sbu_0, # of connection points: 4
#     Node 9, Type 0, BuildingBlock: GALJAG_clean_sbu_0, # of connection points: 4
#     Node 10, Type 0, BuildingBlock: GALJAG_clean_sbu_0, # of connection points: 4
#     Node 11, Type 0, BuildingBlock: GALJAG_clean_sbu_0, # of connection points: 4
#     Node 12, Type 0, BuildingBlock: GALJAG_clean_sbu_0, # of connection points: 4
#     Node 13, Type 0, BuildingBlock: GALJAG_clean_sbu_0, # of connection points: 4
#     Node 14, Type 0, BuildingBlock: GALJAG_clean_sbu_0, # of connection points: 4
#     Node 15, Type 0, BuildingBlock: GALJAG_clean_sbu_0, # of connection points: 4
#     Node 16, Type 0, BuildingBlock: GALJAG_clean_sbu_0, # of connection points: 4
#     Node 17, Type 0, BuildingBlock: GALJAG_clean_sbu_0, # of connection points: 4
#     Node 18, Type 0, BuildingBlock: GALJAG_clean_sbu_0, # of connection points: 4
#     Node 19, Type 0, BuildingBlock: GALJAG_clean_sbu_0, # of connection points: 4
#     Node 20, Type 0, BuildingBlock: GALJAG_clean_sbu_0, # of connection points: 4
#     Node 21, Type 0, BuildingBlock: GALJAG_clean_sbu_0, # of connection points: 4
#     Node 22, Type 0, BuildingBlock: GALJAG_clean_sbu_0, # of connection points: 4
#     Node 23, Type 0, BuildingBlock: GALJAG_clean_sbu_0, # of connection points: 4
#     Edge 24, Type (0, 0), BuildingBlock: XIVTED_clean_linker_0, # of connection points: 2
#     Edge 25, Type (0, 0), BuildingBlock: XIVTED_clean_linker_0, # of connection points: 2
#     Edge 26, Type (0, 0), BuildingBlock: XIVTED_clean_linker_0, # of connection points: 2
#     Edge 27, Type (0, 0), BuildingBlock: XIVTED_clean_linker_0, # of connection points: 2
#     Edge 28, Type (0, 0), BuildingBlock: XIVTED_clean_linker_0, # of connection points: 2
#     Edge 29, Type (0, 0), BuildingBlock: XIVTED_clean_linker_0, # of connection points: 2
#     Edge 30, Type (0, 0), BuildingBlock: XIVTED_clean_linker_0, # of connection points: 2
#     Edge 31, Type (0, 0), BuildingBlock: XIVTED_clean_linker_0, # of connection points: 2
#     Edge 32, Type (0, 0), BuildingBlock: XIVTED_clean_linker_0, # of connection points: 2
#     Edge 33, Type (0, 0), BuildingBlock: XIVTED_clean_linker_0, # of connection points: 2
#     Edge 34, Type (0, 0), BuildingBlock: XIVTED_clean_linker_0, # of connection points: 2
#     Edge 35, Type (0, 0), BuildingBlock: XIVTED_clean_linker_0, # of connection points: 2
#     Edge 36, Type (0, 0), BuildingBlock: XIVTED_clean_linker_0, # of connection points: 2
#     Edge 37, Type (0, 0), BuildingBlock: XIVTED_clean_linker_0, # of connection points: 2
#     Edge 38, Type (0, 0), BuildingBlock: XIVTED_clean_linker_0, # of connection points: 2
#     Edge 39, Type (0, 0), BuildingBlock: XIVTED_clean_linker_0, # of connection points: 2
#     Edge 40, Type (0, 0), BuildingBlock: XIVTED_clean_linker_0, # of connection points: 2
#     Edge 41, Type (0, 0), BuildingBlock: XIVTED_clean_linker_0, # of connection points: 2
#     Edge 42, Type (0, 0), BuildingBlock: XIVTED_clean_linker_0, # of connection points: 2
#     Edge 43, Type (0, 0), BuildingBlock: XIVTED_clean_linker_0, # of connection points: 2
#     Edge 44, Type (0, 0), BuildingBlock: XIVTED_clean_linker_0, # of connection points: 2
#     Edge 45, Type (0, 0), BuildingBlock: XIVTED_clean_linker_0, # of connection points: 2
#     Edge 46, Type (0, 0), BuildingBlock: XIVTED_clean_linker_0, # of connection points: 2
#     Edge 47, Type (0, 0), BuildingBlock: XIVTED_clean_linker_0, # of connection points: 2
#     Edge 48, Type (0, 0), BuildingBlock: XIVTED_clean_linker_0, # of connection points: 2
#     Edge 49, Type (0, 0), BuildingBlock: XIVTED_clean_linker_0, # of connection points: 2
#     Edge 50, Type (0, 0), BuildingBlock: XIVTED_clean_linker_0, # of connection points: 2
#     Edge 51, Type (0, 0), BuildingBlock: XIVTED_clean_linker_0, # of connection points: 2
#     Edge 52, Type (0, 0), BuildingBlock: XIVTED_clean_linker_0, # of connection points: 2
#     Edge 53, Type (0, 0), BuildingBlock: XIVTED_clean_linker_0, # of connection points: 2
#     Edge 54, Type (0, 0), BuildingBlock: XIVTED_clean_linker_0, # of connection points: 2
#     Edge 55, Type (0, 0), BuildingBlock: XIVTED_clean_linker_0, # of connection points: 2
#     Edge 56, Type (0, 0), BuildingBlock: XIVTED_clean_linker_0, # of connection points: 2
#     Edge 57, Type (0, 0), BuildingBlock: XIVTED_clean_linker_0, # of connection points: 2
#     Edge 58, Type (0, 0), BuildingBlock: XIVTED_clean_linker_0, # of connection points: 2
#     Edge 59, Type (0, 0), BuildingBlock: XIVTED_clean_linker_0, # of connection points: 2
#     Edge 60, Type (0, 0), BuildingBlock: XIVTED_clean_linker_0, # of connection points: 2
#     Edge 61, Type (0, 0), BuildingBlock: XIVTED_clean_linker_0, # of connection points: 2
#     Edge 62, Type (0, 0), BuildingBlock: XIVTED_clean_linker_0, # of connection points: 2
#     Edge 63, Type (0, 0), BuildingBlock: XIVTED_clean_linker_0, # of connection points: 2
#     Edge 64, Type (0, 0), BuildingBlock: XIVTED_clean_linker_0, # of connection points: 2
#     Edge 65, Type (0, 0), BuildingBlock: XIVTED_clean_linker_0, # of connection points: 2
#     Edge 66, Type (0, 0), BuildingBlock: XIVTED_clean_linker_0, # of connection points: 2
#     Edge 67, Type (0, 0), BuildingBlock: XIVTED_clean_linker_0, # of connection points: 2
#     Edge 68, Type (0, 0), BuildingBlock: XIVTED_clean_linker_0, # of connection points: 2
#     Edge 69, Type (0, 0), BuildingBlock: XIVTED_clean_linker_0, # of connection points: 2
#     Edge 70, Type (0, 0), BuildingBlock: XIVTED_clean_linker_0, # of connection points: 2
#     Edge 71, Type (0, 0), BuildingBlock: XIVTED_clean_linker_0, # of connection points: 2
# Relax obj value: 0.436
# Max RMSD: 0.150
# Mean RMSD: 0.150
data_MOF--net-lcy-a--node1-GALJAG_clean_sbu_0--edge1-XIVTED_clean_linker_0
_symmetry_space_group_name_H-M    P1
_symmetry_Int_Tables_number       1
_symmetry_cell_setting            triclinic
loop_
_symmetry_equiv_pos_as_xyz
'x, y, z'
_cell_length_a     56.379763
_cell_length_b     56.240141
_cell_length_c     56.283965
_cell_angle_alpha  89.929957
_cell_angle_beta   90.009219
_cell_angle_gamma 90.02571
loop_
_atom_site_label
_atom_site_type_symbol
_atom_site_fract_x
_atom_site_fract_y
_atom_site_fract_z
_atom_type_partial_charge
In0 In 0.20426 0.31074 0.40811 0.0
O1 O 0.24194 0.31765 0.42069 0.0
O2 O 0.21334 0.33102 0.44166 0.0
C3 C 0.21364 0.27847 0.3741 0.0
C4 C 0.17844 0.28462 0.4384 0.0
C5 C 0.19369 0.34991 0.38286 0.0
O6 O 0.22816 0.28337 0.39045 0.0
O7 O 0.19472 0.29039 0.37442 0.0
O8 O 0.17802 0.33458 0.38779 0.0
O9 O 0.2141 0.34545 0.3908 0.0
C10 C 0.23551 0.32888 0.43907 0.0
O11 O 0.17074 0.30417 0.43033 0.0
O12 O 0.19855 0.27855 0.43088 0.0
In13 In 0.98039 0.94152 0.68736 0.0
O14 O 0.97734 0.90115 0.68493 0.0
O15 O 0.00452 0.9155 0.70672 0.0
C16 C 0.95366 0.95243 0.64916 0.0
C17 C 0.95242 0.95436 0.72398 0.0
C18 C 0.0189 0.96707 0.67456 0.0
O19 O 0.96472 0.933 0.65085 0.0
O20 O 0.95601 0.96613 0.66671 0.0
O21 O 0.00693 0.97167 0.69292 0.0
O22 O 0.01184 0.94919 0.66307 0.0
C23 C -0.00531 0.89715 0.69845 0.0
O24 O 0.97355 0.96144 0.72191 0.0
O25 O 0.94577 0.93997 0.70814 0.0
In26 In 0.26851 0.69521 0.93342 0.0
O27 O 0.27098 0.73454 0.94284 0.0
O28 O 0.29104 0.70973 0.96325 0.0
C29 C 0.30345 0.68356 0.90286 0.0
C30 C 0.24825 0.66813 0.967 0.0
C31 C 0.23385 0.69486 0.90065 0.0
O32 O 0.29459 0.7041 0.90392 0.0
O33 O 0.29596 0.66938 0.91857 0.0
O34 O 0.24442 0.67635 0.90748 0.0
O35 O 0.24018 0.71379 0.91097 0.0
C36 C 0.28514 0.73109 0.95988 0.0
O37 O 0.23893 0.68714 0.95951 0.0
O38 O 0.26802 0.66297 0.95775 0.0
In39 In 0.535 0.0872 0.12309 0.0
O40 O 0.50591 0.11451 0.11506 0.0
O41 O 0.51494 0.108 0.15096 0.0
C42 C 0.55817 0.09663 0.08232 0.0
C43 C 0.56673 0.08048 0.15807 0.0
C44 C 0.51634 0.04347 0.11691 0.0
O45 O 0.53926 0.08472 0.08314 0.0
O46 O 0.56464 0.10523 0.10198 0.0
O47 O 0.53834 0.04714 0.11838 0.0
O48 O 0.5037 0.06187 0.11832 0.0
C49 C 0.50117 0.11815 0.13661 0.0
O50 O 0.54682 0.07022 0.15761 0.0
O51 O 0.57039 0.09491 0.14124 0.0
In52 In 0.71362 0.214 0.5813 0.0
O53 O 0.74351 0.20689 0.55523 0.0
O54 O 0.71529 0.18175 0.55713 0.0
C55 C 0.7353 0.25357 0.5972 0.0
C56 C 0.67274 0.22437 0.55887 0.0
C57 C 0.71964 0.18629 0.61992 0.0
O58 O 0.71787 0.24436 0.60785 0.0
O59 O 0.74102 0.24341 0.57807 0.0
O60 O 0.70264 0.20087 0.61847 0.0
O61 O 0.73289 0.18557 0.60195 0.0
C62 C 0.73484 0.18756 0.54783 0.0
O63 O 0.67417 0.20796 0.57409 0.0
O64 O 0.69146 0.23627 0.55611 0.0
In65 In 0.01357 0.54987 0.76428 0.0
O66 O 0.03688 0.58309 0.76181 0.0
O67 O 0.0365 0.55989 0.73229 0.0
C68 C 0.96779 0.5615 0.77219 0.0
C69 C 0.00713 0.50858 0.74142 0.0
C70 C 0.03445 0.54193 0.80668 0.0
O71 O 0.98159 0.57536 0.76115 0.0
O72 O 0.97722 0.54254 0.77931 0.0
O73 O 0.02084 0.55937 0.80305 0.0
O74 O 0.0375 0.52857 0.789 0.0
C75 C 0.04524 0.57824 0.74168 0.0
O76 O 0.02118 0.5109 0.75873 0.0
O77 O -0.00278 0.5276 0.73462 0.0
In78 In 0.79877 0.77072 0.11377 0.0
O79 O 0.8251 0.76857 0.08321 0.0
O80 O 0.82244 0.73872 0.10597 0.0
C81 C 0.81947 0.80345 0.14209 0.0
C82 C 0.76567 0.79648 0.09066 0.0
C83 C 0.77083 0.73745 0.1338 0.0
O84 O 0.8108 0.78435 0.14999 0.0
O85 O 0.81921 0.80518 0.11979 0.0
O86 O 0.76779 0.74489 0.11286 0.0
O87 O 0.78811 0.74672 0.14468 0.0
C88 C 0.83146 0.74757 0.08752 0.0
O89 O 0.77848 0.78122 0.08042 0.0
O90 O 0.76907 0.7983 0.11273 0.0
In91 In 0.45437 0.52536 0.36873 0.0
O92 O 0.46255 0.56464 0.36529 0.0
O93 O 0.49057 0.54029 0.35835 0.0
C94 C 0.4428 0.52897 0.41507 0.0
C95 C 0.42527 0.52982 0.33103 0.0
C96 C 0.46345 0.47829 0.36856 0.0
O97 O 0.46388 0.5266 0.40799 0.0
O98 O 0.42759 0.5305 0.39869 0.0
O99 O 0.44277 0.48678 0.36907 0.0
O100 O 0.47984 0.4936 0.36766 0.0
C101 C 0.48384 0.56169 0.35909 0.0
O102 O 0.44591 0.5213 0.3294 0.0
O103 O 0.4193 0.53614 0.35171 0.0
In104 In 0.33222 0.19302 0.24046 0.0
O105 O 0.37084 0.19742 0.25201 0.0
O106 O 0.34602 0.18509 0.27761 0.0
C107 C 0.33043 0.24035 0.23396 0.0
C108 C 0.34849 0.16539 0.20492 0.0
C109 C 0.28753 0.18399 0.2554 0.0
O110 O 0.33564 0.2311 0.25372 0.0
O111 O 0.3261 0.22573 0.21754 0.0
O112 O 0.29203 0.19762 0.23823 0.0
O113 O 0.30537 0.17308 0.26329 0.0
C114 C 0.36721 0.19066 0.27309 0.0
O115 O 0.34276 0.15704 0.2249 0.0
O116 O 0.34423 0.18718 0.20246 0.0
In117 In 0.06157 0.14225 0.56548 0.0
O118 O 0.02613 0.14898 0.58393 0.0
O119 O 0.05666 0.16743 0.59644 0.0
C120 C 0.03866 0.12848 0.52605 0.0
C121 C 0.09069 0.1747 0.54596 0.0
C122 C 0.07567 0.1028 0.58915 0.0
O123 O 0.02911 0.14142 0.54169 0.0
O124 O 0.05978 0.12237 0.53035 0.0
O125 O 0.06506 0.10226 0.56952 0.0
O126 O 0.07997 0.12341 0.59681 0.0
C127 C 0.03462 0.16401 0.59829 0.0
O128 O 0.06879 0.17778 0.54861 0.0
O129 O 0.09843 0.15502 0.55353 0.0
In130 In 0.08505 0.6938 0.73244 0.0
O131 O 0.08389 0.73364 0.73265 0.0
O132 O 0.05565 0.71578 0.7148 0.0
C133 C 0.12216 0.693 0.76262 0.0
C134 C 0.05028 0.67668 0.76045 0.0
C135 C 0.10534 0.67812 0.69187 0.0
O136 O 0.11193 0.67425 0.75585 0.0
O137 O 0.11413 0.71185 0.75363 0.0
O138 O 0.09524 0.66409 0.70622 0.0
O139 O 0.104 0.6997 0.69752 0.0
C140 C 0.0647 0.73536 0.72127 0.0
O141 O 0.05476 0.6671 0.7406 0.0
O142 O 0.0631 0.69427 0.7655 0.0
In143 In 0.44449 0.84248 0.05301 0.0
O144 O 0.46154 0.80617 0.05957 0.0
O145 O 0.44553 0.82397 0.08877 0.0
C146 C 0.473 0.85104 0.01567 0.0
C147 C 0.40045 0.83154 0.03788 0.0
C148 C 0.45372 0.88313 0.07649 0.0
O149 O 0.47531 0.83274 0.02853 0.0
O150 O 0.45601 0.86449 0.02135 0.0
O151 O 0.43407 0.87951 0.06638 0.0
O152 O 0.46818 0.86613 0.07518 0.0
C153 C 0.45688 0.80608 0.08152 0.0
O154 O 0.40527 0.83428 0.05954 0.0
O155 O 0.41772 0.83429 0.02401 0.0
In156 In 0.90763 0.30924 0.71447 0.0
O157 O 0.91586 0.34665 0.70111 0.0
O158 O 0.92981 0.33677 0.7346 0.0
C159 C 0.8679 0.31403 0.6884 0.0
C160 C 0.9349 0.2774 0.69133 0.0
C161 C 0.89754 0.28699 0.75588 0.0
O162 O 0.86794 0.31646 0.71071 0.0
O163 O 0.88788 0.30954 0.67936 0.0
O164 O 0.91688 0.28435 0.745 0.0
O165 O 0.88353 0.3017 0.74641 0.0
C166 C 0.92828 0.35247 0.71871 0.0
O167 O 0.9429 0.29692 0.69893 0.0
O168 O 0.91313 0.27403 0.69523 0.0
In169 In 0.90171 0.6183 0.91975 0.0
O170 O 0.89613 0.65489 0.93533 0.0
O171 O 0.87548 0.62638 0.94935 0.0
C172 C 0.87002 0.60529 0.88656 0.0
C173 C 0.93539 0.62921 0.88752 0.0
C174 C 0.92601 0.59251 0.95175 0.0
O175 O 0.87927 0.59058 0.9008 0.0
O176 O 0.8744 0.62674 0.89142 0.0
O177 O 0.93074 0.61389 0.94694 0.0
O178 O 0.90909 0.58363 0.93998 0.0
C179 C 0.88119 0.64808 0.95058 0.0
O180 O 0.92533 0.64467 0.90025 0.0
O181 O 0.92915 0.60808 0.89167 0.0
In182 In 0.58923 0.70966 0.22936 0.0
O183 O 0.55435 0.72776 0.22066 0.0
O184 O 0.57059 0.70667 0.19367 0.0
C185 C 0.60315 0.75489 0.2373 0.0
C186 C 0.56972 0.68004 0.2616 0.0
C187 C 0.62919 0.68852 0.21351 0.0
O188 O 0.60509 0.74463 0.21754 0.0
O189 O 0.59405 0.74232 0.25354 0.0
O190 O 0.62749 0.69761 0.23388 0.0
O191 O 0.61026 0.6889 0.20158 0.0
C192 C 0.55354 0.72002 0.19958 0.0
O193 O 0.58754 0.69266 0.26645 0.0
O194 O 0.56218 0.68209 0.24068 0.0
In195 In 0.49672 0.26597 0.43326 0.0
O196 O 0.46847 0.23949 0.42165 0.0
O197 O 0.49618 0.24738 0.3973 0.0
C198 C 0.48137 0.2768 0.47725 0.0
C199 C 0.53774 0.24611 0.44704 0.0
C200 C 0.49093 0.30861 0.41198 0.0
O201 O 0.47016 0.26263 0.46394 0.0
O202 O 0.49984 0.28558 0.46818 0.0
O203 O 0.51098 0.29886 0.41403 0.0
O204 O 0.47389 0.29674 0.42038 0.0
C205 C 0.47718 0.23621 0.40127 0.0
O206 O 0.51786 0.23685 0.45154 0.0
O207 O 0.53693 0.26449 0.43419 0.0
In208 In 0.26745 0.45343 0.21316 0.0
O209 O 0.27911 0.4901 0.22629 0.0
O210 O 0.30467 0.4688 0.20891 0.0
C211 C 0.23654 0.44406 0.24848 0.0
C212 C 0.24101 0.46269 0.17437 0.0
C213 C 0.28987 0.41122 0.21491 0.0
O214 O 0.25216 0.46007 0.25003 0.0
O215 O 0.23636 0.43297 0.22902 0.0
O216 O 0.28047 0.41913 0.19617 0.0
O217 O 0.28825 0.42474 0.23269 0.0
C218 C 0.30042 0.48774 0.22001 0.0
O219 O 0.23529 0.4695 0.19489 0.0
O220 O 0.26093 0.45263 0.17312 0.0
In221 In 0.81027 0.10208 0.80708 0.0
O222 O 0.82083 0.06952 0.78582 0.0
O223 O 0.84372 0.08021 0.81392 0.0
C224 C 0.78752 0.11809 0.76819 0.0
C225 C 0.78201 0.07873 0.83774 0.0
C226 C 0.83249 0.14297 0.81877 0.0
O227 O 0.80678 0.10671 0.76713 0.0
O228 O 0.77984 0.12169 0.78893 0.0
O229 O 0.81128 0.13887 0.82467 0.0
O230 O 0.8425 0.12622 0.80785 0.0
C231 C 0.83956 0.06557 0.79744 0.0
O232 O 0.80102 0.08852 0.84439 0.0
O233 O 0.777 0.0817 0.81618 0.0
In234 In 0.10725 0.51176 0.01514 0.0
O235 O 0.1451 0.52491 0.01357 0.0
O236 O 0.1192 0.54826 0.0282 0.0
C237 C 0.10306 0.51369 0.96758 0.0
C238 C 0.12457 0.4791 0.04521 0.0
C239 C 0.06088 0.51715 0.02397 0.0
O240 O 0.10549 0.53168 0.98064 0.0
O241 O 0.1036 0.49396 0.97843 0.0
O242 O 0.06909 0.49898 0.01366 0.0
O243 O 0.07631 0.53189 0.03101 0.0
C244 C 0.14066 0.54495 0.02257 0.0
O245 O 0.10908 0.49416 0.05106 0.0
O246 O 0.13011 0.47926 0.02345 0.0
In247 In 0.71411 0.94838 0.25492 0.0
O248 O 0.70571 0.97842 0.22901 0.0
O249 O 0.68325 0.97394 0.25909 0.0
C250 C 0.75148 0.92681 0.2344 0.0
C251 C 0.73704 0.96665 0.29229 0.0
C252 C 0.68284 0.91225 0.25295 0.0
O253 O 0.74439 0.92202 0.25508 0.0
O254 O 0.73961 0.94264 0.22374 0.0
O255 O 0.69033 0.92045 0.27244 0.0
O256 O 0.69084 0.92254 0.2347 0.0
C257 C 0.68775 0.9855 0.2404 0.0
O258 O 0.7398 0.97433 0.27141 0.0
O259 O 0.72193 0.9502 0.29452 0.0
In260 In 0.38195 0.41261 0.58879 0.0
O261 O 0.35719 0.41802 0.62038 0.0
O262 O 0.39071 0.43502 0.62126 0.0
C263 C 0.40887 0.3734 0.59492 0.0
C264 C 0.34993 0.39604 0.55748 0.0
C265 C 0.39636 0.44982 0.56217 0.0
O266 O 0.41754 0.39378 0.59155 0.0
O267 O 0.38662 0.37311 0.59704 0.0
O268 O 0.37495 0.44667 0.56786 0.0
O269 O 0.41052 0.43445 0.57026 0.0
C270 C 0.37097 0.43191 0.63123 0.0
O271 O 0.34398 0.40406 0.57759 0.0
O272 O 0.37191 0.39652 0.55326 0.0
In273 In 0.26282 0.60464 0.70995 0.0
O274 O 0.26928 0.56507 0.71295 0.0
O275 O 0.29595 0.58621 0.69621 0.0
C276 C 0.25258 0.62602 0.66846 0.0
C277 C 0.21608 0.60273 0.72005 0.0
C278 C 0.28675 0.62157 0.74756 0.0
O279 O 0.2594 0.63754 0.6865 0.0
O280 O 0.25457 0.60379 0.67058 0.0
O281 O 0.27285 0.60402 0.74871 0.0
O282 O 0.2883 0.63123 0.72731 0.0
C283 C 0.28935 0.5658 0.70302 0.0
O284 O 0.22736 0.58548 0.71128 0.0
O285 O 0.2287 0.62044 0.72543 0.0
In286 In 0.65553 0.94902 0.967 0.0
O287 O 0.6656 0.93328 0.00311 0.0
O288 O 0.6757 0.91454 0.9719 0.0
C289 C 0.64424 0.99218 0.98377 0.0
C290 C 0.68708 0.96523 0.93518 0.0
C291 C 0.61374 0.92773 0.95753 0.0
O292 O 0.65603 0.97736 -0.00408 0.0
O293 O 0.63809 0.98505 0.96342 0.0
O294 O 0.61594 0.94485 0.97172 0.0
O295 O 0.63271 0.92119 0.9476 0.0
C296 C 0.67569 0.91529 0.99429 0.0
O297 O 0.66669 0.95817 0.9291 0.0
O298 O 0.69175 0.96291 0.95693 0.0
In299 In 0.87025 0.03455 0.45827 0.0
O300 O 0.8629 0.02938 0.41893 0.0
O301 O 0.846 0.00595 0.44316 0.0
C302 C 0.9129 0.05158 0.44514 0.0
C303 C 0.83911 0.06869 0.47043 0.0
C304 C 0.88068 0.01173 0.49911 0.0
O305 O 0.91017 0.03062 0.45272 0.0
O306 O 0.89397 0.06333 0.44308 0.0
O307 O 0.8726 0.0326 0.49846 0.0
O308 O 0.88327 0.00205 0.47905 0.0
C309 C 0.8486 0.01244 0.4219 0.0
O310 O 0.83299 0.04727 0.46775 0.0
O311 O 0.86085 0.07274 0.46716 0.0
H312 H 0.13718 0.17078 0.53233 0.0
H313 H 0.13465 0.29254 0.45823 0.0
H314 H 0.07723 0.21848 0.53066 0.0
H315 H 0.19331 0.24321 0.45811 0.0
H316 H 0.1142 0.26705 0.48706 0.0
H317 H 0.15942 0.19893 0.50772 0.0
C318 C 0.12882 0.18728 0.52699 0.0
C319 C 0.10535 0.19227 0.53334 0.0
C320 C 0.13158 0.26187 0.48074 0.0
C321 C 0.13042 0.22437 0.50513 0.0
C322 C 0.14319 0.27638 0.46428 0.0
C323 C 0.16558 0.26987 0.45572 0.0
C324 C 0.14253 0.24081 0.48861 0.0
C325 C 0.17598 0.24883 0.46418 0.0
C326 C 0.14144 0.2033 0.51288 0.0
C327 C 0.09528 0.21388 0.52598 0.0
N328 N 0.16434 0.23503 0.48011 0.0
N329 N 0.10783 0.22908 0.51213 0.0
H330 H 0.03251 0.88467 0.7258 0.0
H331 H 0.02285 0.7453 0.69812 0.0
H332 H 0.97753 0.85487 0.68154 0.0
H333 H 0.08115 0.77845 0.73518 0.0
H334 H 0.00452 0.78463 0.69315 0.0
H335 H 0.0489 0.84499 0.7314 0.0
C336 C 0.02381 0.86972 0.71736 0.0
C337 C 0.0037 0.87303 0.70314 0.0
C338 C 0.02135 0.78322 0.70232 0.0
C339 C 0.02244 0.82751 0.70931 0.0
C340 C 0.0318 0.76083 0.7051 0.0
C341 C 0.05353 0.75866 0.71704 0.0
C342 C 0.03272 0.80341 0.71165 0.0
C343 C 0.06439 0.77929 0.72583 0.0
C344 C 0.03322 0.84706 0.72049 0.0
C345 C 0.99311 0.85304 0.69263 0.0
N346 N 0.05386 0.80075 0.723 0.0
N347 N 0.00266 0.83108 0.69587 0.0
H348 H 0.29065 0.77763 0.94712 0.0
H349 H 0.36634 0.80805 0.06302 0.0
H350 H 0.30253 0.72841 0.00476 0.0
H351 H 0.38214 0.83614 0.99343 0.0
H352 H 0.33147 0.78792 0.04642 0.0
H353 H 0.31308 0.80798 0.96904 0.0
C354 C 0.29755 0.77342 0.96459 0.0
C355 C 0.29521 0.75049 0.97407 0.0
C356 C 0.34233 0.79895 0.03496 0.0
C357 C 0.32028 0.7849 -0.00087 0.0
C358 C 0.36211 0.81045 0.04439 0.0
C359 C 0.37724 0.82334 0.0294 0.0
C360 C 0.33761 0.80075 0.01055 0.0
C361 C 0.37105 0.82599 0.00543 0.0
C362 C 0.31031 0.79065 0.97701 0.0
C363 C 0.30437 0.74583 -0.00326 0.0
N364 N 0.35176 0.81456 -0.00336 0.0
N365 N 0.31668 0.76287 0.00848 0.0
H366 H 0.46663 0.13974 0.10969 0.0
H367 H 0.37182 0.1238 0.21307 0.0
H368 H 0.48308 0.1172 0.18119 0.0
H369 H 0.36384 0.17978 0.16113 0.0
H370 H 0.40858 0.11171 0.19363 0.0
H371 H 0.42565 0.14794 0.12242 0.0
C372 C 0.46174 0.13692 0.12809 0.0
C373 C 0.47824 0.12787 0.14445 0.0
C374 C 0.39849 0.12635 0.18624 0.0
C375 C 0.43161 0.13606 0.15861 0.0
C376 C 0.37736 0.13304 0.19711 0.0
C377 C 0.36509 0.15311 0.18895 0.0
C378 C 0.40716 0.13967 0.16702 0.0
C379 C 0.37305 0.1644 0.16814 0.0
C380 C 0.4384 0.14133 0.13522 0.0
C381 C 0.47099 0.12426 0.168 0.0
N382 N 0.39389 0.15776 0.15803 0.0
N383 N 0.44814 0.12809 0.1743 0.0
H384 H 0.63164 0.19842 0.55819 0.0
H385 H 0.58189 0.26553 0.44304 0.0
H386 H 0.66735 0.25665 0.52322 0.0
H387 H 0.54268 0.21133 0.48062 0.0
H388 H 0.6152 0.25942 0.47003 0.0
H389 H 0.59976 0.20104 0.52875 0.0
C390 C 0.63263 0.21192 0.54448 0.0
C391 C 0.65208 0.2274 0.54316 0.0
C392 C 0.59941 0.24868 0.47225 0.0
C393 C 0.61604 0.2302 0.50926 0.0
C394 C 0.58047 0.25201 0.4567 0.0
C395 C 0.55946 0.23904 0.45973 0.0
C396 C 0.59727 0.2323 0.49099 0.0
C397 C 0.55856 0.22177 0.47772 0.0
C398 C 0.61454 0.21329 0.52759 0.0
C399 C 0.65262 0.24442 0.52493 0.0
N400 N 0.57713 0.21906 0.49287 0.0
N401 N 0.6349 0.24531 0.50866 0.0
H402 H 0.92358 0.39082 0.68925 0.0
H403 H 0.02424 0.46561 0.75562 0.0
H404 H 0.96223 0.36582 0.75057 0.0
H405 H 0.97292 0.49769 0.70856 0.0
H406 H 0.00669 0.42676 0.74779 0.0
H407 H 0.94569 0.42828 0.69103 0.0
C408 C 0.93671 0.39324 0.70309 0.0
C409 C 0.94099 0.37532 0.71992 0.0
C410 C -0.00058 0.44226 0.73897 0.0
C411 C 0.96651 0.41783 0.7218 0.0
C412 C 0.00954 0.46442 0.74328 0.0
C413 C -0.00016 0.48491 0.7329 0.0
C414 C 0.97949 0.44056 0.72415 0.0
C415 C 0.98085 0.48232 0.71701 0.0
C416 C 0.94933 0.41457 0.70405 0.0
C417 C 0.95825 0.37928 0.73739 0.0
N418 N 0.97111 0.46053 0.71328 0.0
N419 N 0.97041 0.40011 0.73786 0.0
H420 H 0.83872 0.69961 0.08811 0.0
H421 H 0.88855 0.69578 0.95525 0.0
H422 H 0.85233 0.76264 0.04644 0.0
H423 H 0.85773 0.63529 0.99104 0.0
H424 H 0.88007 0.72022 0.99013 0.0
H425 H 0.85206 0.67522 0.05479 0.0
C426 C 0.845 0.70833 0.07213 0.0
C427 C 0.84425 0.73315 0.0699 0.0
C428 C 0.87507 0.70163 0.99029 0.0
C429 C 0.85909 0.70542 0.03168 0.0
C430 C 0.87977 0.68772 0.97037 0.0
C431 C 0.87367 0.66354 0.97025 0.0
C432 C 0.86444 0.6912 0.0103 0.0
C433 C 0.86252 0.65392 0.99034 0.0
C434 C 0.85236 0.6944 0.05304 0.0
C435 C 0.85251 0.74353 0.0488 0.0
N436 N 0.85835 0.66777 0.00963 0.0
N437 N 0.85942 0.72959 0.03039 0.0
H438 H 0.52329 0.66823 0.2626 0.0
H439 H 0.53168 0.56196 0.3503 0.0
H440 H 0.58918 0.65706 0.29995 0.0
H441 H 0.4692 0.6062 0.34746 0.0
H442 H 0.55407 0.59344 0.32983 0.0
H443 H 0.50338 0.64178 0.29071 0.0
C444 C 0.53353 0.66018 0.27678 0.0
C445 C 0.55784 0.66468 0.27904 0.0
C446 C 0.53557 0.59631 0.33414 0.0
C447 C 0.53533 0.6343 0.31093 0.0
C448 C 0.52281 0.57842 0.34571 0.0
C449 C 0.49855 0.58147 0.35035 0.0
C450 C 0.52374 0.61696 0.32673 0.0
C451 C 0.48786 0.6031 0.34413 0.0
C452 C 0.52216 0.64528 0.29287 0.0
C453 C 0.57035 0.65398 0.29776 0.0
N454 N 0.50042 0.61986 0.3322 0.0
N455 N 0.55899 0.63887 0.31287 0.0
H456 H 0.24859 0.44861 0.12839 0.0
H457 H 0.11379 0.47289 0.09185 0.0
H458 H 0.19497 0.47702 0.17513 0.0
H459 H 0.16885 0.45977 0.04027 0.0
H460 H 0.1422 0.46543 0.12362 0.0
H461 H 0.2189 0.44609 0.0966 0.0
C462 C 0.23064 0.45451 0.13188 0.0
C463 C 0.22424 0.46326 0.15432 0.0
C464 C 0.14802 0.4638 0.10536 0.0
C465 C 0.19023 0.45983 0.11842 0.0
C466 C 0.13174 0.4678 0.08722 0.0
C467 C 0.1391 0.46729 0.06345 0.0
C468 C 0.17186 0.45944 0.09967 0.0
C469 C 0.1625 0.46046 0.05841 0.0
C470 C 0.2137 0.45288 0.11383 0.0
C471 C 0.20072 0.47039 0.15803 0.0
N472 N 0.17824 0.45721 0.07643 0.0
N473 N 0.18458 0.46847 0.14028 0.0
H474 H 0.67914 0.97743 0.88883 0.0
H475 H 0.79171 0.06415 0.88317 0.0
H476 H 0.73042 0.984 0.9454 0.0
H477 H 0.74061 0.05665 0.82656 0.0
H478 H 0.76982 0.03443 0.90624 0.0
H479 H 0.70263 0.00505 0.86491 0.0
C480 C 0.69554 0.98441 0.89605 0.0
C481 C 0.70282 0.97855 0.91913 0.0
C482 C 0.76338 0.03935 0.88879 0.0
C483 C 0.72951 0.01042 0.89214 0.0
C484 C 0.77576 0.05643 0.87573 0.0
C485 C 0.76791 0.06285 0.85299 0.0
C486 C 0.74305 0.0287 0.87898 0.0
C487 C 0.74725 0.0522 0.84405 0.0
C488 C 0.70885 0.00029 0.88249 0.0
C489 C 0.72415 0.98813 0.92769 0.0
N490 N 0.73557 0.03561 0.85705 0.0
N491 N 0.73667 0.00376 0.91426 0.0
H492 H 0.77104 0.00094 0.29105 0.0
H493 H 0.81412 0.97839 0.4245 0.0
H494 H 0.73809 0.9499 0.33793 0.0
H495 H 0.84892 0.02606 0.37546 0.0
H496 H 0.78623 0.96727 0.39314 0.0
H497 H 0.79912 0.01098 0.32237 0.0
C498 C 0.7696 0.992 0.30804 0.0
C499 C 0.75227 0.97456 0.31194 0.0
C500 C 0.80007 0.98003 0.3892 0.0
C501 C 0.78452 0.98571 0.34777 0.0
C502 C 0.81606 0.98627 0.40704 0.0
C503 C 0.83378 0.00319 0.40252 0.0
C504 C 0.80182 0.99088 0.36679 0.0
C505 C 0.83549 0.01295 0.37967 0.0
C506 C 0.78572 -0.00237 0.32588 0.0
C507 C 0.75119 0.96349 0.33425 0.0
N508 N 0.81961 0.00675 0.36268 0.0
N509 N 0.76719 0.9692 0.35135 0.0
H510 H 0.27611 0.51967 0.71012 0.0
H511 H 0.39457 0.46887 0.65182 0.0
H512 H 0.33505 0.56298 0.68718 0.0
H513 H 0.32855 0.43009 0.65468 0.0
H514 H 0.37686 0.50013 0.67612 0.0
H515 H 0.29891 0.48401 0.70027 0.0
C516 C 0.29395 0.52165 0.70324 0.0
C517 C 0.30362 0.54426 0.69906 0.0
C518 C 0.36641 0.48455 0.67181 0.0
C519 C 0.32976 0.50367 0.68803 0.0
C520 C 0.37655 0.46663 0.65809 0.0
C521 C 0.36282 0.44713 0.65086 0.0
C522 C 0.34245 0.48286 0.67835 0.0
C523 C 0.33962 0.44503 0.6596 0.0
C524 C 0.30693 0.50132 0.69767 0.0
C525 C 0.32684 0.54586 0.69033 0.0
N526 N 0.33001 0.46291 0.67261 0.0
N527 N 0.33908 0.52581 0.68492 0.0
H528 H 0.30157 0.39433 0.56144 0.0
H529 H 0.28391 0.32856 0.4365 0.0
H530 H 0.35912 0.37626 0.51426 0.0
H531 H 0.22585 0.35192 0.48063 0.0
H532 H 0.31181 0.34519 0.46528 0.0
H533 H 0.27348 0.37815 0.5325 0.0
C534 C 0.30827 0.38697 0.54498 0.0
C535 C 0.33267 0.38661 0.54021 0.0
C536 C 0.29297 0.34671 0.46867 0.0
C537 C 0.30074 0.36806 0.5071 0.0
C538 C 0.27705 0.3372 0.45226 0.0
C539 C 0.25257 0.33888 0.45622 0.0
C540 C 0.28432 0.35791 0.48922 0.0
C541 C 0.24461 0.35026 0.4769 0.0
C542 C 0.29225 0.37776 0.52847 0.0
C543 C 0.34043 0.3769 0.51863 0.0
N544 N 0.26045 0.35932 0.49266 0.0
N545 N 0.32452 0.36797 0.50289 0.0
H546 H 0.90474 0.94671 0.72752 0.0
H547 H 0.88465 0.05777 0.81379 0.0
H548 H 0.96198 0.98696 0.75872 0.0
H549 H 0.83094 0.02834 0.76777 0.0
H550 H 0.912 0.02639 0.80101 0.0
H551 H 0.87638 0.9705 0.75009 0.0
C552 C 0.91137 0.96024 0.73949 0.0
C553 C 0.93571 0.96511 0.74102 0.0
C554 C 0.89414 0.0267 0.79391 0.0
C555 C 0.90339 0.99254 0.76666 0.0
C556 C 0.87856 0.04456 0.80119 0.0
C557 C 0.85564 0.04578 0.79156 0.0
C558 C 0.88663 0.00989 0.77707 0.0
C559 C 0.84857 0.0282 0.7754 0.0
C560 C 0.89517 0.9739 0.75226 0.0
C561 C 0.94333 0.98279 0.75686 0.0
N562 N 0.86405 0.01105 0.76856 0.0
N563 N 0.92719 -0.00392 0.76888 0.0
H564 H 0.26274 0.62448 0.98262 0.0
H565 H 0.13409 0.59228 0.03175 0.0
H566 H 0.20527 0.67481 0.98833 0.0
H567 H 0.18819 0.54065 0.01515 0.0
H568 H 0.16313 0.62408 0.02564 0.0
H569 H 0.23886 0.59529 0.00415 0.0
C570 C 0.24524 0.62951 0.98875 0.0
C571 C 0.23577 0.65191 0.98333 0.0
C572 C 0.16873 0.60577 0.02373 0.0
C573 C 0.20833 0.61862 0.00777 0.0
C574 C 0.1522 0.58763 0.02729 0.0
C575 C 0.15869 0.56388 0.02351 0.0
C576 C 0.19184 0.60002 0.01636 0.0
C577 C 0.18237 0.55879 0.01787 0.0
C578 C 0.2316 0.61284 0.001 0.0
C579 C 0.2131 0.65759 0.99186 0.0
N580 N 0.19803 0.57674 0.01416 0.0
N581 N 0.2 0.64092 0.00339 0.0
H582 H 0.56113 0.05658 0.19978 0.0
H583 H 0.69478 0.01495 0.20229 0.0
H584 H 0.61457 0.08745 0.15437 0.0
H585 H 0.64533 -0.0003 0.25881 0.0
H586 H 0.66662 0.04373 0.18591 0.0
H587 H 0.59234 0.03812 0.22351 0.0
C588 C 0.57949 0.05981 0.19509 0.0
C589 C 0.58533 0.07334 0.175 0.0
C590 C 0.66207 0.03434 0.20209 0.0
C591 C 0.62111 0.05188 0.20171 0.0
C592 C 0.6781 0.01786 0.21138 0.0
C593 C 0.67222 0.00474 0.23175 0.0
C594 C 0.63992 0.03744 0.21308 0.0
C595 C 0.65047 0.0093 0.24295 0.0
C596 C 0.59731 0.04926 0.20862 0.0
C597 C 0.60936 0.07707 0.16972 0.0
N598 N 0.63497 0.02504 0.23328 0.0
N599 N 0.6264 0.06601 0.18275 0.0
H600 H 0.72104 0.144 0.53144 0.0
H601 H 0.84835 0.11589 0.47614 0.0
H602 H 0.77817 0.19497 0.52753 0.0
H603 H 0.79202 0.06414 0.4812 0.0
H604 H 0.82128 0.14637 0.49076 0.0
H605 H 0.745 0.11592 0.50865 0.0
C606 C 0.73852 0.14938 0.52552 0.0
C607 C 0.74777 0.17172 0.53155 0.0
C608 C 0.81476 0.12839 0.48853 0.0
C609 C 0.77531 0.13969 0.5057 0.0
C610 C 0.83022 0.11098 0.48021 0.0
C611 C 0.82244 0.08745 0.47771 0.0
C612 C 0.79138 0.12219 0.4945 0.0
C613 C 0.79875 0.08208 0.48305 0.0
C614 C 0.75221 0.13333 0.51256 0.0
C615 C 0.77045 0.17784 0.52338 0.0
N616 N 0.78407 0.0993 0.49139 0.0
N617 N 0.78354 0.16181 0.51105 0.0
H618 H 0.1872 0.63519 0.74234 0.0
H619 H 0.06957 0.56722 0.70132 0.0
H620 H 0.1855 0.57145 0.69976 0.0
H621 H 0.07102 0.61446 0.76168 0.0
H622 H 0.11068 0.57772 0.69271 0.0
H623 H 0.14356 0.63527 0.74293 0.0
C624 C 0.17766 0.62121 0.73321 0.0
C625 C 0.18994 0.60299 0.7214 0.0
C626 C 0.10189 0.58607 0.70763 0.0
C627 C 0.14035 0.60334 0.72152 0.0
C628 C 0.07835 0.58025 0.71243 0.0
C629 C 0.06707 0.58954 0.73256 0.0
C630 C 0.11423 0.60125 0.7231 0.0
C631 C 0.07923 0.60657 0.74619 0.0
C632 C 0.15283 0.62135 0.73345 0.0
C633 C 0.17676 0.58555 0.70949 0.0
N634 N 0.10236 0.61158 0.74146 0.0
N635 N 0.15272 0.58614 0.70988 0.0
H636 H 0.69673 0.87462 0.97876 0.0
H637 H 0.73882 0.83306 0.10806 0.0
H638 H 0.68 0.91327 0.04279 0.0
H639 H 0.75565 0.79573 0.04328 0.0
H640 H 0.71474 0.86108 0.08508 0.0
H641 H 0.71617 0.84418 0.00266 0.0
C642 C 0.69712 0.87667 -0.00211 0.0
C643 C 0.68687 0.89656 0.00882 0.0
C644 C 0.72357 0.84666 0.07593 0.0
C645 C 0.70914 0.86174 0.03635 0.0
C646 C 0.73725 0.83063 0.08903 0.0
C647 C 0.74932 0.81214 0.0775 0.0
C648 C 0.72201 0.84415 0.05115 0.0
C649 C 0.74671 0.8098 0.05285 0.0
C650 C 0.7082 0.85925 0.01154 0.0
C651 C 0.68777 0.89824 0.03367 0.0
N652 N 0.73345 0.8257 0.04049 0.0
N653 N 0.69883 0.88109 0.04662 0.0
H654 H 0.29658 0.52487 0.2511 0.0
H655 H 0.43321 0.51466 0.28561 0.0
H656 H 0.34798 0.48434 0.21135 0.0
H657 H 0.37988 0.54694 0.33008 0.0
H658 H 0.40414 0.51172 0.25352 0.0
H659 H 0.32878 0.54187 0.27467 0.0
C660 C 0.31469 0.52003 0.2469 0.0
C661 C 0.3196 0.50283 0.22955 0.0
C662 C 0.39887 0.51973 0.27019 0.0
C663 C 0.35645 0.52187 0.2567 0.0
C664 C 0.41546 0.5214 0.28851 0.0
C665 C 0.40881 0.53069 0.31065 0.0
C666 C 0.37546 0.52735 0.27405 0.0
C667 C 0.38565 0.53936 0.31338 0.0
C668 C 0.33306 0.52961 0.26048 0.0
C669 C 0.34339 0.4973 0.22479 0.0
N670 N 0.36972 0.53723 0.29539 0.0
N671 N 0.36092 0.50648 0.23858 0.0
H672 H 0.48954 0.23124 0.35457 0.0
H673 H 0.36305 0.17778 0.31966 0.0
H674 H 0.43589 0.21118 0.40547 0.0
H675 H 0.41346 0.20475 0.26859 0.0
H676 H 0.39251 0.18307 0.35102 0.0
H677 H 0.46503 0.21464 0.3228 0.0
C678 C 0.47278 0.22298 0.3591 0.0
C679 C 0.46456 0.22284 0.38262 0.0
C680 C 0.39723 0.18761 0.33293 0.0
C681 C 0.43638 0.20404 0.3464 0.0
C682 C 0.38043 0.18458 0.31501 0.0
C683 C 0.38575 0.19115 0.29157 0.0
C684 C 0.41949 0.19736 0.32737 0.0
C685 C 0.40857 0.19968 0.2865 0.0
C686 C 0.45876 0.21359 0.34095 0.0
C687 C 0.44277 0.21186 0.38752 0.0
N688 N 0.42455 0.20278 0.30431 0.0
N689 N 0.42931 0.20313 0.36952 0.0
H690 H 0.98654 0.16134 0.60492 0.0
H691 H 0.98278 0.27892 0.68444 0.0
H692 H 0.04893 0.19916 0.62829 0.0
H693 H 0.92102 0.23581 0.67042 0.0
H694 H 0.00725 0.24969 0.6638 0.0
H695 H 0.96207 0.18792 0.62912 0.0
C696 C -0.00491 0.17508 0.61533 0.0
C697 C 0.01976 0.17815 0.61454 0.0
C698 C 0.98836 0.24655 0.6653 0.0
C699 C 0.99196 0.2087 0.64199 0.0
C700 C 0.97438 0.26328 0.67701 0.0
C701 C 0.94985 0.25979 0.67905 0.0
C702 C 0.9777 0.22626 0.6554 0.0
C703 C 0.93988 0.23918 0.66919 0.0
C704 C 0.98113 0.19026 0.6291 0.0
C705 C 0.02996 0.19622 0.62834 0.0
N706 N 0.95384 0.22322 0.65768 0.0
N707 N 0.016 0.21092 0.64135 0.0
H708 H 0.95405 0.67275 0.87823 0.0
H709 H 0.02623 0.6337 0.76185 0.0
H710 H 0.95435 0.6003 0.85306 0.0
H711 H 0.03238 0.70149 0.79719 0.0
H712 H -0.00258 0.62111 0.79244 0.0
H713 H 0.98054 0.68375 0.84597 0.0
C714 C 0.9598 0.65912 0.86594 0.0
C715 C 0.95217 0.63557 0.86843 0.0
C716 C 0.00509 0.63874 0.79334 0.0
C717 C 0.98251 0.64803 0.83119 0.0
C718 C 0.02139 0.64593 0.77589 0.0
C719 C 0.03175 0.6686 0.77711 0.0
C720 C -0.00089 0.65452 0.8118 0.0
C721 C 0.02498 0.68379 0.79563 0.0
C722 C 0.97494 0.66539 0.84746 0.0
C723 C 0.96007 0.61864 0.85186 0.0
N724 N 0.00917 0.67648 0.81216 0.0
N725 N 0.97484 0.6252 0.83386 0.0
H726 H 0.51408 0.7465 0.20875 0.0
H727 H 0.48645 0.76872 0.07161 0.0
H728 H 0.55108 0.71088 0.15191 0.0
H729 H 0.44887 0.80262 0.12913 0.0
H730 H 0.50643 0.74304 0.1005 0.0
H731 H 0.48631 0.7629 0.17979 0.0
C732 C 0.51619 0.74193 0.19018 0.0
C733 C 0.53505 0.72756 0.18265 0.0
C734 C 0.49357 0.75588 0.10676 0.0
C735 C 0.50349 0.74644 0.14935 0.0
C736 C 0.48213 0.77049 0.09028 0.0
C737 C 0.46623 0.788 0.09805 0.0
C738 C 0.48912 0.75893 0.13114 0.0
C739 C 0.46121 0.7895 0.1224 0.0
C740 C 0.50033 0.75129 0.17363 0.0
C741 C 0.53686 0.72205 0.15842 0.0
N742 N 0.47282 0.77535 0.1381 0.0
N743 N 0.52145 0.73174 0.14257 0.0
H744 H 0.16384 0.35226 0.3446 0.0
H745 H 0.23699 0.46219 0.29345 0.0
H746 H 0.21577 0.39261 0.38375 0.0
H747 H 0.20234 0.40958 0.24979 0.0
H748 H 0.21784 0.44506 0.32846 0.0
H749 H 0.16648 0.3814 0.31213 0.0
C750 C 0.17515 0.36769 0.34667 0.0
C751 C 0.18989 0.36998 0.36659 0.0
C752 C 0.21408 0.43755 0.31116 0.0
C753 C 0.19309 0.40303 0.3298 0.0
C754 C 0.22499 0.44732 0.29118 0.0
C755 C 0.22165 0.43692 0.26881 0.0
C756 C 0.19981 0.41722 0.30871 0.0
C757 C 0.20571 0.41785 0.26681 0.0
C758 C 0.17679 0.38418 0.32812 0.0
C759 C 0.20438 0.39013 0.36846 0.0
N760 N 0.19565 0.40834 0.2866 0.0
N761 N 0.20585 0.40574 0.35015 0.0
H762 H 0.90191 0.96832 0.5054 0.0
H763 H 0.92616 0.99178 0.64334 0.0
H764 H 0.87639 0.02952 0.54385 0.0
H765 H 0.94977 0.92862 0.60688 0.0
H766 H 0.90545 0.00433 0.60745 0.0
H767 H 0.91714 0.95182 0.54273 0.0
C768 C 0.89932 0.97815 0.52173 0.0
C769 C 0.88804 0.00038 0.52155 0.0
C770 C 0.91502 0.98764 0.60727 0.0
C771 C 0.90547 0.98175 0.56416 0.0
C772 C 0.92687 0.98048 0.62778 0.0
C773 C 0.93982 0.95922 0.62799 0.0
C774 C 0.91625 0.97353 0.58674 0.0
C775 C 0.94004 0.9452 0.60739 0.0
C776 C 0.90803 0.96876 0.543 0.0
C777 C 0.88511 0.01239 0.54317 0.0
N778 N 0.92857 0.9527 0.58749 0.0
N779 N 0.89391 0.003 0.56355 0.0
H780 H 0.30697 0.6654 0.75486 0.0
H781 H 0.31867 0.63851 0.89295 0.0
H782 H 0.29547 0.59731 0.7883 0.0
H783 H 0.31507 0.70916 0.8632 0.0
H784 H 0.32474 0.62257 0.85311 0.0
H785 H 0.32284 0.6806 0.79257 0.0
C786 C 0.30819 0.65356 0.77001 0.0
C787 C 0.29944 0.63026 0.76872 0.0
C788 C 0.32321 0.64163 0.85535 0.0
C789 C 0.31768 0.64732 0.81156 0.0
C790 C 0.31994 0.65077 0.87814 0.0
C791 C 0.31565 0.67511 0.88127 0.0
C792 C 0.32198 0.65696 0.83565 0.0
C793 C 0.31779 0.69019 0.86148 0.0
C794 C 0.31725 0.66221 0.79147 0.0
C795 C 0.30156 0.61556 0.78873 0.0
N796 N 0.32019 0.68081 0.83938 0.0
N797 N 0.31024 0.6244 0.80938 0.0
H798 H 0.60639 0.1002 0.08237 0.0
H799 H 0.61225 0.0229 0.96431 0.0
H800 H 0.5467 0.08682 0.03633 0.0
H801 H 0.65874 0.01419 0.02461 0.0
H802 H 0.59532 0.05828 0.98302 0.0
H803 H 0.63253 0.08178 0.05297 0.0
C804 C 0.59892 0.09431 0.06564 0.0
C805 C 0.57432 0.09452 0.06191 0.0
C806 C 0.60956 0.04888 0.9919 0.0
C807 C 0.60396 0.07333 0.02854 0.0
C808 C 0.61919 0.02868 0.98129 0.0
C809 C 0.63654 0.01535 0.99322 0.0
C810 C 0.61748 0.05584 0.01447 0.0
C811 C 0.64507 0.02374 0.01505 0.0
C812 C 0.61382 0.08359 0.04901 0.0
C813 C 0.56556 0.08661 0.03999 0.0
N814 N 0.63525 0.04334 0.02513 0.0
N815 N 0.58033 0.0759 0.02427 0.0
H816 H 0.75023 0.14934 0.62362 0.0
H817 H 0.7476 0.1458 0.76561 0.0
H818 H 0.70251 0.19239 0.66525 0.0
H819 H 0.79868 0.10891 0.72206 0.0
H820 H 0.72765 0.15978 0.72948 0.0
H821 H 0.76432 0.13043 0.65984 0.0
C822 C 0.74253 0.15463 0.64043 0.0
C823 C 0.72536 0.17261 0.6415 0.0
C824 C 0.74316 0.14854 0.72787 0.0
C825 C 0.74169 0.15126 0.6832 0.0
C826 C 0.75456 0.14059 0.74845 0.0
C827 C 0.77491 0.12634 0.74677 0.0
C828 C 0.75217 0.14207 0.70554 0.0
C829 C 0.78314 0.12002 0.72416 0.0
C830 C 0.75064 0.14387 0.66114 0.0
C831 C 0.71583 0.17863 0.66372 0.0
N832 N 0.77178 0.12797 0.70446 0.0
N833 N 0.72434 0.16814 0.6838 0.0
H834 H 0.09227 0.47886 0.93485 0.0
H835 H 0.0387 0.57256 0.84388 0.0
H836 H 0.09981 0.55484 0.94271 0.0
H837 H 0.05649 0.50132 0.82178 0.0
H838 H 0.05809 0.56507 0.88198 0.0
H839 H 0.07707 0.48529 0.89435 0.0
C840 C 0.09106 0.4968 0.92795 0.0
C841 C 0.09714 0.51634 0.94218 0.0
C842 C 0.05786 0.55109 0.86875 0.0
C843 C 0.07946 0.52379 0.89641 0.0
C844 C 0.04668 0.55534 0.84709 0.0
C845 C 0.04604 0.53754 0.82973 0.0
C846 C 0.06814 0.52878 0.87324 0.0
C847 C 0.0567 0.51553 0.83474 0.0
C848 C 0.08235 0.50046 0.90493 0.0
C849 C 0.09518 0.53924 0.93244 0.0
N850 N 0.0672 0.51167 0.85616 0.0
N851 N 0.08626 0.54234 0.9103 0.0
H852 H 0.77891 0.89233 0.25442 0.0
H853 H 0.82585 0.84968 0.12859 0.0
H854 H 0.76815 0.93055 0.18877 0.0
H855 H 0.82035 0.80484 0.19061 0.0
H856 H 0.81793 0.88438 0.15343 0.0
H857 H 0.80628 0.86567 0.23401 0.0
C858 C 0.78259 0.89534 0.23577 0.0
C859 C 0.77084 0.91332 0.22309 0.0
C860 C 0.81909 0.86701 0.1617 0.0
C861 C 0.80212 0.88287 0.19968 0.0
C862 C 0.8238 0.8472 0.14757 0.0
C863 C 0.82314 0.8243 0.15751 0.0
C864 C 0.81378 0.86381 0.18585 0.0
C865 C 0.82056 0.82216 0.18219 0.0
C866 C 0.79825 0.88013 0.22415 0.0
C867 C 0.77655 0.91665 0.19908 0.0
N868 N 0.81548 0.84163 0.19547 0.0
N869 N 0.79153 0.9013 0.18803 0.0
H870 H 0.44153 0.46198 0.54962 0.0
H871 H 0.39842 0.53079 0.43465 0.0
H872 H 0.36831 0.47977 0.53619 0.0
H873 H 0.47206 0.52023 0.45271 0.0
H874 H 0.38729 0.51786 0.47459 0.0
H875 H 0.4534 0.48844 0.51732 0.0
C876 C 0.42798 0.47173 0.54007 0.0
C877 C 0.4039 0.46844 0.54532 0.0
C878 C 0.40591 0.51877 0.46998 0.0
C879 C 0.41728 0.49853 0.50815 0.0
C880 C 0.41227 0.52621 0.44718 0.0
C881 C 0.43616 0.5262 0.44027 0.0
C882 C 0.42358 0.51104 0.48582 0.0
C883 C 0.45339 0.52024 0.45723 0.0
C884 C 0.43475 0.48687 0.52164 0.0
C885 C 0.38707 0.48165 0.53256 0.0
N886 N 0.44674 0.51251 0.4791 0.0
N887 N 0.39405 0.49585 0.51429 0.0
H888 H 0.19231 0.27229 0.33086 0.0
H889 H 0.27794 0.16439 0.29874 0.0
H890 H 0.24481 0.24175 0.37755 0.0
H891 H 0.24897 0.21208 0.2461 0.0
H892 H 0.2527 0.18282 0.32872 0.0
H893 H 0.20183 0.24184 0.30105 0.0
C894 C 0.20565 0.25903 0.3349 0.0
C895 C 0.21815 0.25972 0.35644 0.0
C896 C 0.25139 0.18878 0.31045 0.0
C897 C 0.22854 0.22471 0.32293 0.0
C898 C 0.2656 0.1781 0.29325 0.0
C899 C 0.2661 0.18727 0.27007 0.0
C900 C 0.23755 0.20859 0.30431 0.0
C901 C 0.2495 0.20485 0.26393 0.0
C902 C 0.21096 0.24167 0.31798 0.0
C903 C 0.2351 0.24208 0.36095 0.0
N904 N 0.23628 0.21541 0.28112 0.0
N905 N 0.23987 0.22534 0.34429 0.0
H906 H 0.04435 0.96284 0.63352 0.0
H907 H 0.08212 0.09913 0.63724 0.0
H908 H 0.035 0.00844 0.6944 0.0
H909 H 0.07589 0.0571 0.57349 0.0
H910 H 0.07718 0.0629 0.66101 0.0
H911 H 0.06809 0.99384 0.61453 0.0
C912 C 0.04771 0.97919 0.6431 0.0
C913 C 0.03729 0.98331 0.66534 0.0
C914 C 0.07746 0.06156 0.64181 0.0
C915 C 0.06421 0.01889 0.64365 0.0
C916 C 0.08041 0.08219 0.62826 0.0
C917 C 0.07895 0.08107 0.60342 0.0
C918 C 0.07315 0.03979 0.63035 0.0
C919 C 0.07672 0.05873 0.59265 0.0
C920 C 0.06122 -0.0031 0.63224 0.0
C921 C 0.04242 0.0047 0.67707 0.0
N922 N 0.07354 0.039 0.60617 0.0
N923 N 0.0552 0.02189 0.6659 0.0
H924 H 0.21685 0.65593 0.87751 0.0
H925 H 0.14386 0.73167 0.78202 0.0
H926 H 0.2124 0.73253 0.87846 0.0
H927 H 0.14162 0.65506 0.78608 0.0
H928 H 0.17113 0.73226 0.81569 0.0
H929 H 0.19075 0.65522 0.84294 0.0
C930 C 0.21023 0.67261 0.87052 0.0
C931 C 0.21673 0.69434 0.88087 0.0
C932 C 0.16476 0.71531 0.80918 0.0
C933 C 0.18706 0.69366 0.84116 0.0
C934 C 0.14929 0.71494 0.78987 0.0
C935 C 0.14044 0.69327 0.78133 0.0
C936 C 0.17146 0.69384 0.81999 0.0
C937 C 0.14803 0.67215 0.79216 0.0
C938 C 0.19539 0.67219 0.85074 0.0
C939 C 0.20773 0.7154 0.87106 0.0
N940 N 0.16306 0.67296 0.81101 0.0
N941 N 0.19339 0.71454 0.85167 0.0
H942 H 0.53979 0.00118 0.11809 0.0
H943 H 0.4278 0.92436 0.07803 0.0
H944 H 0.47004 0.03139 0.10875 0.0
H945 H 0.49532 0.89432 0.09816 0.0
H946 H 0.44197 0.96354 0.09076 0.0
H947 H 0.52315 0.96166 0.11185 0.0
C948 C 0.52094 -0.00054 0.11476 0.0
C949 C 0.50627 0.01953 0.11378 0.0
C950 C 0.45356 0.94831 0.09263 0.0
C951 C 0.48707 0.97438 0.10658 0.0
C952 C 0.44547 0.92597 0.08542 0.0
C953 C 0.4605 0.90617 0.08687 0.0
C954 C 0.47687 0.95076 0.10116 0.0
C955 C 0.48321 0.90917 0.09657 0.0
C956 C 0.51142 0.97689 0.11129 0.0
C957 C 0.48196 0.01632 0.10956 0.0
N958 N 0.49077 0.93108 0.10314 0.0
N959 N 0.47311 0.99413 0.10594 0.0
H960 H 0.77311 0.27646 0.57741 0.0
H961 H 0.82196 0.31535 0.70415 0.0
H962 H 0.7323 0.2719 0.64211 0.0
H963 H 0.86401 0.31245 0.64018 0.0
H964 H 0.78622 0.30872 0.68031 0.0
H965 H 0.80324 0.29932 0.59853 0.0
C966 C 0.77026 0.28072 0.59596 0.0
C967 C 0.75043 0.27192 0.60816 0.0
C968 C 0.80323 0.30993 0.67146 0.0
C969 C 0.78501 0.29768 0.63255 0.0
C970 C 0.82361 0.31374 0.68505 0.0
C971 C 0.84597 0.31402 0.67413 0.0
C972 C 0.80531 0.30638 0.64684 0.0
C973 C 0.84713 0.31199 0.64934 0.0
C974 C 0.78751 0.2937 0.60805 0.0
C975 C 0.74749 0.27814 0.63211 0.0
N976 N 0.82712 0.30796 0.63656 0.0
N977 N 0.76484 0.29028 0.64367 0.0
H978 H 0.93293 0.53057 0.78432 0.0
H979 H 0.86536 0.63407 0.84761 0.0
H980 H 0.94641 0.60535 0.77396 0.0
H981 H 0.86396 0.56036 0.86878 0.0
H982 H 0.88001 0.62226 0.80867 0.0
H983 H 0.895 0.54025 0.80276 0.0
C984 C 0.92765 0.54905 0.78552 0.0
C985 C 0.94303 0.56725 0.77822 0.0
C986 C 0.87564 0.60858 0.82151 0.0
C987 C 0.8998 0.57845 0.79953 0.0
C988 C 0.86698 0.61527 0.84374 0.0
C989 C 0.8647 0.59821 0.86187 0.0
C990 C 0.88168 0.58472 0.81752 0.0
C991 C 0.86642 0.57417 0.85557 0.0
C992 C 0.90595 0.55455 0.79595 0.0
C993 C 0.93516 0.59083 0.77969 0.0
N994 N 0.87565 0.56814 0.83414 0.0
N995 N 0.91428 0.59581 0.79074 0.0
H996 H 0.63846 0.67535 0.1677 0.0
H997 H 0.77048 0.72251 0.18009 0.0
H998 H 0.67279 0.69026 0.23457 0.0
H999 H 0.73314 0.71469 0.11362 0.0
H1000 H 0.73888 0.7003 0.19999 0.0
H1001 H 0.67683 0.67835 0.14779 0.0
C1002 C 0.65417 0.67859 0.17829 0.0
C1003 C 0.6524 0.68315 0.20271 0.0
C1004 C 0.7378 0.70309 0.18098 0.0
C1005 C 0.69621 0.68707 0.18003 0.0
C1006 C 0.75582 0.71577 0.16962 0.0
C1007 C 0.75412 0.72086 0.14529 0.0
C1008 C 0.71794 0.69557 0.16789 0.0
C1009 C 0.73492 0.71151 0.13251 0.0
C1010 C 0.67607 0.68045 0.16689 0.0
C1011 C 0.67334 0.68706 0.21561 0.0
N1012 N 0.71739 0.69961 0.14403 0.0
N1013 N 0.69433 0.68943 0.20403 0.0
H1014 H 0.43067 0.44277 0.36984 0.0
H1015 H 0.52512 0.34021 0.39769 0.0
H1016 H 0.50618 0.45515 0.37217 0.0
H1017 H 0.44926 0.33151 0.40312 0.0
H1018 H 0.519 0.381 0.38357 0.0
H1019 H 0.43766 0.40062 0.37701 0.0
C1020 C 0.44877 0.43657 0.37168 0.0
C1021 C 0.46788 0.4525 0.3706 0.0
C1022 C 0.50371 0.37009 0.38771 0.0
C1023 C 0.47603 0.40419 0.37899 0.0
C1024 C 0.50718 0.34682 0.39571 0.0
C1025 C 0.48766 0.33255 0.40172 0.0
C1026 C 0.48054 0.37906 0.38564 0.0
C1027 C 0.46482 0.34196 0.39882 0.0
C1028 C 0.45275 0.41248 0.37582 0.0
C1029 C 0.49095 0.44345 0.37298 0.0
N1030 N 0.4619 0.36464 0.39108 0.0
N1031 N 0.49439 0.41988 0.37724 0.0
H1032 H 0.33685 0.27523 0.26707 0.0
H1033 H 0.29471 0.37873 0.17926 0.0
H1034 H 0.31974 0.26427 0.19315 0.0
H1035 H 0.30862 0.38926 0.25392 0.0
H1036 H 0.30838 0.33769 0.18297 0.0
H1037 H 0.33095 0.31794 0.26162 0.0
C1038 C 0.33201 0.28185 0.24966 0.0
C1039 C 0.32856 0.26623 0.23057 0.0
C1040 C 0.30863 0.34902 0.19851 0.0
C1041 C 0.32174 0.31497 0.22421 0.0
C1042 C 0.30086 0.37244 0.19638 0.0
C1043 C 0.30034 0.38729 0.21636 0.0
C1044 C 0.31583 0.34038 0.2208 0.0
C1045 C 0.3086 0.37832 0.2381 0.0
C1046 C 0.32864 0.30622 0.24655 0.0
C1047 C 0.3224 0.27571 0.20837 0.0
N1048 N 0.31583 0.35536 0.23979 0.0
N1049 N 0.31904 0.29948 0.20583 0.0
H1050 H 0.81093 0.18585 0.8268 0.0
H1051 H 0.92482 0.25421 0.77887 0.0
H1052 H 0.87935 0.15381 0.81468 0.0
H1053 H 0.85392 0.283 0.77701 0.0
H1054 H 0.91061 0.22171 0.80388 0.0
H1055 H 0.82867 0.22515 0.82039 0.0
C1056 C 0.8298 0.18714 0.82345 0.0
C1057 C 0.84365 0.16659 0.82083 0.0
C1058 C 0.89823 0.23538 0.79839 0.0
C1059 C 0.86394 0.21129 0.81336 0.0
C1060 C 0.90635 0.25398 0.78417 0.0
C1061 C 0.89041 0.27102 0.77545 0.0
C1062 C 0.87396 0.2337 0.80377 0.0
C1063 C 0.86674 0.27002 0.7831 0.0
C1064 C 0.83988 0.20954 0.81967 0.0
C1065 C 0.86799 0.16922 0.81648 0.0
N1066 N 0.85911 0.25137 0.79647 0.0
N1067 N 0.8773 0.19113 0.81256 0.0
H1068 H 0.95279 0.61056 0.9874 0.0
H1069 H 0.02484 0.49201 0.00326 0.0
H1070 H 0.93094 0.54414 0.95603 0.0
H1071 H 0.03925 0.55653 0.04209 0.0
H1072 H 0.98612 0.50796 0.99203 0.0
H1073 H 0.98013 0.58905 0.01308 0.0
C1074 C 0.95362 0.59135 0.98611 0.0
C1075 C 0.93998 0.5791 0.96931 0.0
C1076 C -0.0025 0.5184 0.00349 0.0
C1077 C 0.97148 0.55431 -0.00156 0.0
C1078 C 0.01958 0.50926 0.01 0.0
C1079 C 0.03547 0.52324 0.02315 0.0
C1080 C 0.99147 0.54172 0.01003 0.0
C1081 C 0.0277 0.54534 0.03156 0.0
C1082 C 0.96916 0.57904 0.00086 0.0
C1083 C 0.94138 0.55423 0.96863 0.0
N1084 N 0.00644 0.55411 0.02444 0.0
N1085 N 0.95727 0.54263 0.98268 0.0
H1086 H 0.66407 0.89274 0.21295 0.0
H1087 H 0.60837 0.7796 0.27915 0.0
H1088 H 0.66632 0.88389 0.28909 0.0
H1089 H 0.61683 0.78614 0.20322 0.0
H1090 H 0.62475 0.81985 0.28381 0.0
H1091 H 0.64153 0.85596 0.20975 0.0
C1092 C 0.65965 0.88312 0.22904 0.0
C1093 C 0.66725 0.89125 0.2513 0.0
C1094 C 0.62285 0.81247 0.26615 0.0
C1095 C 0.64154 0.84892 0.24777 0.0
C1096 C 0.61349 0.78957 0.2635 0.0
C1097 C 0.61143 0.77951 0.24079 0.0
C1098 C 0.62999 0.82531 0.24593 0.0
C1099 C 0.61829 0.79313 0.22108 0.0
C1100 C 0.6468 0.86207 0.22721 0.0
C1101 C 0.66088 0.87814 0.27157 0.0
N1102 N 0.6273 0.81526 0.22412 0.0
N1103 N 0.64852 0.85747 0.26932 0.0
H1104 H 0.45694 0.3688 0.59202 0.0
H1105 H 0.43943 0.26537 0.49923 0.0
H1106 H 0.39187 0.32913 0.58453 0.0
H1107 H 0.50478 0.30393 0.50963 0.0
H1108 H 0.42442 0.28183 0.5366 0.0
H1109 H 0.47767 0.33808 0.56964 0.0
C1110 C 0.44717 0.35322 0.5863 0.0
C1111 C 0.42258 0.35176 0.5896 0.0
C1112 C 0.44221 0.28636 0.53091 0.0
C1113 C 0.44594 0.31697 0.56328 0.0
C1114 C 0.45073 0.27702 0.50956 0.0
C1115 C 0.47314 0.28376 0.50111 0.0
C1116 C 0.45619 0.3026 0.54375 0.0
C1117 C 0.48719 0.29866 0.51527 0.0
C1118 C 0.45896 0.33574 0.57335 0.0
C1119 C 0.41081 0.33111 0.58205 0.0
N1120 N 0.47836 0.30784 0.5357 0.0
N1121 N 0.42248 0.3148 0.56864 0.0
H1122 H 0.24175 0.67291 0.6609 0.0
H1123 H 0.11717 0.63243 0.67958 0.0
H1124 H 0.22091 0.60195 0.64073 0.0
H1125 H 0.13174 0.7057 0.6621 0.0
H1126 H 0.1531 0.62074 0.65833 0.0
H1127 H 0.20156 0.68656 0.65268 0.0
C1128 C 0.22903 0.6604 0.6537 0.0
C1129 C 0.23443 0.63611 0.65243 0.0
C1130 C 0.14802 0.63931 0.6584 0.0
C1131 C 0.18823 0.65134 0.64396 0.0
C1132 C 0.12751 0.64597 0.67062 0.0
C1133 C 0.12189 0.6701 0.6732 0.0
C1134 C 0.1631 0.65698 0.64912 0.0
C1135 C 0.13575 0.68691 0.66101 0.0
C1136 C 0.20595 0.66815 0.64918 0.0
C1137 C 0.21732 0.62076 0.64266 0.0
N1138 N 0.15611 0.68012 0.65008 0.0
N1139 N 0.19465 0.6284 0.6398 0.0
H1140 H 0.51391 0.82792 0.00303 0.0
H1141 H 0.56975 0.94679 0.95923 0.0
H1142 H 0.47235 0.89046 0.98755 0.0
H1143 H 0.60647 0.88003 0.95157 0.0
H1144 H 0.53259 0.92529 0.96459 0.0
H1145 H 0.54654 0.84455 0.97958 0.0
C1146 C 0.51147 0.8449 0.99426 0.0
C1147 C 0.49063 0.85809 -0.00237 0.0
C1148 C 0.54862 0.91525 0.9612 0.0
C1149 C 0.52784 0.87727 0.9711 0.0
C1150 C 0.56981 0.92755 0.95815 0.0
C1151 C 0.59108 0.91508 0.95518 0.0
C1152 C 0.54883 0.89028 0.96206 0.0
C1153 C 0.59033 0.89021 0.95384 0.0
C1154 C 0.53008 0.85437 0.98085 0.0
C1155 C 0.48829 0.87988 0.98574 0.0
N1156 N 0.56957 0.87853 0.9579 0.0
N1157 N 0.50684 0.889 0.97339 0.0
H1158 H 0.92248 0.09811 0.43548 0.0
H1159 H 0.04813 0.08919 0.49919 0.0
H1160 H 0.95646 0.03173 0.45348 0.0
H1161 H -0.00088 0.14765 0.50605 0.0
H1162 H 0.02206 0.07142 0.4691 0.0
H1163 H 0.95859 0.11925 0.44676 0.0
C1164 C 0.93779 0.08791 0.44109 0.0
C1165 C 0.93631 0.0632 0.44422 0.0
C1166 C 0.01735 0.0884 0.47685 0.0
C1167 C 0.97743 0.08728 0.45727 0.0
C1168 C 0.03216 0.09852 0.49396 0.0
C1169 C 0.02543 0.11964 0.50535 0.0
C1170 C -0.00403 0.09972 0.47095 0.0
C1171 C 0.00466 0.13111 0.49795 0.0
C1172 C 0.95833 0.10001 0.44762 0.0
C1173 C 0.95675 0.05086 0.45126 0.0
N1174 N 0.99053 0.12089 0.48134 0.0
N1175 N 0.97639 0.06309 0.45806 0.0
loop_
_geom_bond_atom_site_label_1
_geom_bond_atom_site_label_2
_geom_bond_distance
_geom_bond_site_symmetry_2
_ccdc_geom_bond_type
In0 O1 2.294 . S
In0 O2 2.326 . S
In0 O6 2.266 . S
In0 O7 2.326 . S
In0 O8 2.266 . S
In0 O9 2.326 . S
In0 O11 2.294 . S
In0 O12 2.326 . S
O1 In0 2.294 . S
O1 C10 1.240 . S
O2 In0 2.326 . S
O2 C10 1.252 . S
C3 O6 1.252 . S
C3 O7 1.260 . S
C4 O11 1.240 . S
C4 O12 1.252 . S
C5 O8 1.252 . S
C5 O9 1.260 . S
O6 In0 2.266 . S
O6 C3 1.252 . S
O7 In0 2.326 . S
O7 C3 1.260 . S
O8 In0 2.266 . S
O8 C5 1.252 . S
O9 In0 2.326 . S
O9 C5 1.260 . S
C10 O1 1.240 . S
C10 O2 1.252 . S
O11 In0 2.294 . S
O11 C4 1.240 . S
O12 In0 2.326 . S
O12 C4 1.252 . S
In13 O14 2.294 . S
In13 O15 2.326 . S
In13 O19 2.266 . S
In13 O20 2.326 . S
In13 O21 2.266 . S
In13 O22 2.326 . S
In13 O24 2.294 . S
In13 O25 2.326 . S
O14 In13 2.294 . S
O14 C23 1.240 . S
O15 In13 2.326 . S
O15 C23 1.252 . S
C16 O19 1.252 . S
C16 O20 1.260 . S
C17 O24 1.240 . S
C17 O25 1.252 . S
C18 O21 1.252 . S
C18 O22 1.260 . S
O19 In13 2.266 . S
O19 C16 1.252 . S
O20 In13 2.326 . S
O20 C16 1.260 . S
O21 In13 2.266 . S
O21 C18 1.252 . S
O22 In13 2.326 . S
O22 C18 1.260 . S
C23 O14 1.240 . S
C23 O15 1.252 . S
O24 In13 2.294 . S
O24 C17 1.240 . S
O25 In13 2.326 . S
O25 C17 1.252 . S
In26 O27 2.294 . S
In26 O28 2.326 . S
In26 O32 2.266 . S
In26 O33 2.326 . S
In26 O34 2.266 . S
In26 O35 2.326 . S
In26 O37 2.294 . S
In26 O38 2.326 . S
O27 In26 2.294 . S
O27 C36 1.240 . S
O28 In26 2.326 . S
O28 C36 1.252 . S
C29 O32 1.252 . S
C29 O33 1.260 . S
C30 O37 1.240 . S
C30 O38 1.252 . S
C31 O34 1.252 . S
C31 O35 1.260 . S
O32 In26 2.266 . S
O32 C29 1.252 . S
O33 In26 2.326 . S
O33 C29 1.260 . S
O34 In26 2.266 . S
O34 C31 1.252 . S
O35 In26 2.326 . S
O35 C31 1.260 . S
C36 O27 1.240 . S
C36 O28 1.252 . S
O37 In26 2.294 . S
O37 C30 1.240 . S
O38 In26 2.326 . S
O38 C30 1.252 . S
In39 O40 2.294 . S
In39 O41 2.326 . S
In39 O45 2.266 . S
In39 O46 2.326 . S
In39 O47 2.266 . S
In39 O48 2.326 . S
In39 O50 2.294 . S
In39 O51 2.326 . S
O40 In39 2.294 . S
O40 C49 1.240 . S
O41 In39 2.326 . S
O41 C49 1.252 . S
C42 O45 1.252 . S
C42 O46 1.260 . S
C43 O50 1.240 . S
C43 O51 1.252 . S
C44 O47 1.252 . S
C44 O48 1.260 . S
O45 In39 2.266 . S
O45 C42 1.252 . S
O46 In39 2.326 . S
O46 C42 1.260 . S
O47 In39 2.266 . S
O47 C44 1.252 . S
O48 In39 2.326 . S
O48 C44 1.260 . S
C49 O40 1.240 . S
C49 O41 1.252 . S
O50 In39 2.294 . S
O50 C43 1.240 . S
O51 In39 2.326 . S
O51 C43 1.252 . S
In52 O53 2.294 . S
In52 O54 2.326 . S
In52 O58 2.266 . S
In52 O59 2.326 . S
In52 O60 2.266 . S
In52 O61 2.326 . S
In52 O63 2.294 . S
In52 O64 2.326 . S
O53 In52 2.294 . S
O53 C62 1.240 . S
O54 In52 2.326 . S
O54 C62 1.252 . S
C55 O58 1.252 . S
C55 O59 1.260 . S
C56 O63 1.240 . S
C56 O64 1.252 . S
C57 O60 1.252 . S
C57 O61 1.260 . S
O58 In52 2.266 . S
O58 C55 1.252 . S
O59 In52 2.326 . S
O59 C55 1.260 . S
O60 In52 2.266 . S
O60 C57 1.252 . S
O61 In52 2.326 . S
O61 C57 1.260 . S
C62 O53 1.240 . S
C62 O54 1.252 . S
O63 In52 2.294 . S
O63 C56 1.240 . S
O64 In52 2.326 . S
O64 C56 1.252 . S
In65 O66 2.294 . S
In65 O67 2.326 . S
In65 O71 2.266 . S
In65 O72 2.326 . S
In65 O73 2.266 . S
In65 O74 2.326 . S
In65 O76 2.294 . S
In65 O77 2.326 . S
O66 In65 2.294 . S
O66 C75 1.240 . S
O67 In65 2.326 . S
O67 C75 1.252 . S
C68 O71 1.252 . S
C68 O72 1.260 . S
C69 O76 1.240 . S
C69 O77 1.252 . S
C70 O73 1.252 . S
C70 O74 1.260 . S
O71 In65 2.266 . S
O71 C68 1.252 . S
O72 In65 2.326 . S
O72 C68 1.260 . S
O73 In65 2.266 . S
O73 C70 1.252 . S
O74 In65 2.326 . S
O74 C70 1.260 . S
C75 O66 1.240 . S
C75 O67 1.252 . S
O76 In65 2.294 . S
O76 C69 1.240 . S
O77 In65 2.326 . S
O77 C69 1.252 . S
In78 O79 2.294 . S
In78 O80 2.326 . S
In78 O84 2.266 . S
In78 O85 2.326 . S
In78 O86 2.266 . S
In78 O87 2.326 . S
In78 O89 2.294 . S
In78 O90 2.326 . S
O79 In78 2.294 . S
O79 C88 1.240 . S
O80 In78 2.326 . S
O80 C88 1.252 . S
C81 O84 1.252 . S
C81 O85 1.260 . S
C82 O89 1.240 . S
C82 O90 1.252 . S
C83 O86 1.252 . S
C83 O87 1.260 . S
O84 In78 2.266 . S
O84 C81 1.252 . S
O85 In78 2.326 . S
O85 C81 1.260 . S
O86 In78 2.266 . S
O86 C83 1.252 . S
O87 In78 2.326 . S
O87 C83 1.260 . S
C88 O79 1.240 . S
C88 O80 1.252 . S
O89 In78 2.294 . S
O89 C82 1.240 . S
O90 In78 2.326 . S
O90 C82 1.252 . S
In91 O92 2.294 . S
In91 O93 2.326 . S
In91 O97 2.266 . S
In91 O98 2.326 . S
In91 O99 2.266 . S
In91 O100 2.326 . S
In91 O102 2.294 . S
In91 O103 2.326 . S
O92 In91 2.294 . S
O92 C101 1.240 . S
O93 In91 2.326 . S
O93 C101 1.252 . S
C94 O97 1.252 . S
C94 O98 1.260 . S
C95 O102 1.240 . S
C95 O103 1.252 . S
C96 O99 1.252 . S
C96 O100 1.260 . S
O97 In91 2.266 . S
O97 C94 1.252 . S
O98 In91 2.326 . S
O98 C94 1.260 . S
O99 In91 2.266 . S
O99 C96 1.252 . S
O100 In91 2.326 . S
O100 C96 1.260 . S
C101 O92 1.240 . S
C101 O93 1.252 . S
O102 In91 2.294 . S
O102 C95 1.240 . S
O103 In91 2.326 . S
O103 C95 1.252 . S
In104 O105 2.294 . S
In104 O106 2.326 . S
In104 O110 2.266 . S
In104 O111 2.326 . S
In104 O112 2.266 . S
In104 O113 2.326 . S
In104 O115 2.294 . S
In104 O116 2.326 . S
O105 In104 2.294 . S
O105 C114 1.240 . S
O106 In104 2.326 . S
O106 C114 1.252 . S
C107 O110 1.252 . S
C107 O111 1.260 . S
C108 O115 1.240 . S
C108 O116 1.252 . S
C109 O112 1.252 . S
C109 O113 1.260 . S
O110 In104 2.266 . S
O110 C107 1.252 . S
O111 In104 2.326 . S
O111 C107 1.260 . S
O112 In104 2.266 . S
O112 C109 1.252 . S
O113 In104 2.326 . S
O113 C109 1.260 . S
C114 O105 1.240 . S
C114 O106 1.252 . S
O115 In104 2.294 . S
O115 C108 1.240 . S
O116 In104 2.326 . S
O116 C108 1.252 . S
In117 O118 2.294 . S
In117 O119 2.326 . S
In117 O123 2.266 . S
In117 O124 2.326 . S
In117 O125 2.266 . S
In117 O126 2.326 . S
In117 O128 2.294 . S
In117 O129 2.326 . S
O118 In117 2.294 . S
O118 C127 1.240 . S
O119 In117 2.326 . S
O119 C127 1.252 . S
C120 O123 1.252 . S
C120 O124 1.260 . S
C121 O128 1.240 . S
C121 O129 1.252 . S
C122 O125 1.252 . S
C122 O126 1.260 . S
O123 In117 2.266 . S
O123 C120 1.252 . S
O124 In117 2.326 . S
O124 C120 1.260 . S
O125 In117 2.266 . S
O125 C122 1.252 . S
O126 In117 2.326 . S
O126 C122 1.260 . S
C127 O118 1.240 . S
C127 O119 1.252 . S
O128 In117 2.294 . S
O128 C121 1.240 . S
O129 In117 2.326 . S
O129 C121 1.252 . S
In130 O131 2.294 . S
In130 O132 2.326 . S
In130 O136 2.266 . S
In130 O137 2.326 . S
In130 O138 2.266 . S
In130 O139 2.326 . S
In130 O141 2.294 . S
In130 O142 2.326 . S
O131 In130 2.294 . S
O131 C140 1.240 . S
O132 In130 2.326 . S
O132 C140 1.252 . S
C133 O136 1.252 . S
C133 O137 1.260 . S
C134 O141 1.240 . S
C134 O142 1.252 . S
C135 O138 1.252 . S
C135 O139 1.260 . S
O136 In130 2.266 . S
O136 C133 1.252 . S
O137 In130 2.326 . S
O137 C133 1.260 . S
O138 In130 2.266 . S
O138 C135 1.252 . S
O139 In130 2.326 . S
O139 C135 1.260 . S
C140 O131 1.240 . S
C140 O132 1.252 . S
O141 In130 2.294 . S
O141 C134 1.240 . S
O142 In130 2.326 . S
O142 C134 1.252 . S
In143 O144 2.294 . S
In143 O145 2.326 . S
In143 O149 2.266 . S
In143 O150 2.326 . S
In143 O151 2.266 . S
In143 O152 2.326 . S
In143 O154 2.294 . S
In143 O155 2.326 . S
O144 In143 2.294 . S
O144 C153 1.240 . S
O145 In143 2.326 . S
O145 C153 1.252 . S
C146 O149 1.252 . S
C146 O150 1.260 . S
C147 O154 1.240 . S
C147 O155 1.252 . S
C148 O151 1.252 . S
C148 O152 1.260 . S
O149 In143 2.266 . S
O149 C146 1.252 . S
O150 In143 2.326 . S
O150 C146 1.260 . S
O151 In143 2.266 . S
O151 C148 1.252 . S
O152 In143 2.326 . S
O152 C148 1.260 . S
C153 O144 1.240 . S
C153 O145 1.252 . S
O154 In143 2.294 . S
O154 C147 1.240 . S
O155 In143 2.326 . S
O155 C147 1.252 . S
In156 O157 2.294 . S
In156 O158 2.326 . S
In156 O162 2.266 . S
In156 O163 2.326 . S
In156 O164 2.266 . S
In156 O165 2.326 . S
In156 O167 2.294 . S
In156 O168 2.326 . S
O157 In156 2.294 . S
O157 C166 1.240 . S
O158 In156 2.326 . S
O158 C166 1.252 . S
C159 O162 1.252 . S
C159 O163 1.260 . S
C160 O167 1.240 . S
C160 O168 1.252 . S
C161 O164 1.252 . S
C161 O165 1.260 . S
O162 In156 2.266 . S
O162 C159 1.252 . S
O163 In156 2.326 . S
O163 C159 1.260 . S
O164 In156 2.266 . S
O164 C161 1.252 . S
O165 In156 2.326 . S
O165 C161 1.260 . S
C166 O157 1.240 . S
C166 O158 1.252 . S
O167 In156 2.294 . S
O167 C160 1.240 . S
O168 In156 2.326 . S
O168 C160 1.252 . S
In169 O170 2.294 . S
In169 O171 2.326 . S
In169 O175 2.266 . S
In169 O176 2.326 . S
In169 O177 2.266 . S
In169 O178 2.326 . S
In169 O180 2.294 . S
In169 O181 2.326 . S
O170 In169 2.294 . S
O170 C179 1.240 . S
O171 In169 2.326 . S
O171 C179 1.252 . S
C172 O175 1.252 . S
C172 O176 1.260 . S
C173 O180 1.240 . S
C173 O181 1.252 . S
C174 O177 1.252 . S
C174 O178 1.260 . S
O175 In169 2.266 . S
O175 C172 1.252 . S
O176 In169 2.326 . S
O176 C172 1.260 . S
O177 In169 2.266 . S
O177 C174 1.252 . S
O178 In169 2.326 . S
O178 C174 1.260 . S
C179 O170 1.240 . S
C179 O171 1.252 . S
O180 In169 2.294 . S
O180 C173 1.240 . S
O181 In169 2.326 . S
O181 C173 1.252 . S
In182 O183 2.294 . S
In182 O184 2.326 . S
In182 O188 2.266 . S
In182 O189 2.326 . S
In182 O190 2.266 . S
In182 O191 2.326 . S
In182 O193 2.294 . S
In182 O194 2.326 . S
O183 In182 2.294 . S
O183 C192 1.240 . S
O184 In182 2.326 . S
O184 C192 1.252 . S
C185 O188 1.252 . S
C185 O189 1.260 . S
C186 O193 1.240 . S
C186 O194 1.252 . S
C187 O190 1.252 . S
C187 O191 1.260 . S
O188 In182 2.266 . S
O188 C185 1.252 . S
O189 In182 2.326 . S
O189 C185 1.260 . S
O190 In182 2.266 . S
O190 C187 1.252 . S
O191 In182 2.326 . S
O191 C187 1.260 . S
C192 O183 1.240 . S
C192 O184 1.252 . S
O193 In182 2.294 . S
O193 C186 1.240 . S
O194 In182 2.326 . S
O194 C186 1.252 . S
In195 O196 2.294 . S
In195 O197 2.326 . S
In195 O201 2.266 . S
In195 O202 2.326 . S
In195 O203 2.266 . S
In195 O204 2.326 . S
In195 O206 2.294 . S
In195 O207 2.326 . S
O196 In195 2.294 . S
O196 C205 1.240 . S
O197 In195 2.326 . S
O197 C205 1.252 . S
C198 O201 1.252 . S
C198 O202 1.260 . S
C199 O206 1.240 . S
C199 O207 1.252 . S
C200 O203 1.252 . S
C200 O204 1.260 . S
O201 In195 2.266 . S
O201 C198 1.252 . S
O202 In195 2.326 . S
O202 C198 1.260 . S
O203 In195 2.266 . S
O203 C200 1.252 . S
O204 In195 2.326 . S
O204 C200 1.260 . S
C205 O196 1.240 . S
C205 O197 1.252 . S
O206 In195 2.294 . S
O206 C199 1.240 . S
O207 In195 2.326 . S
O207 C199 1.252 . S
In208 O209 2.294 . S
In208 O210 2.326 . S
In208 O214 2.266 . S
In208 O215 2.326 . S
In208 O216 2.266 . S
In208 O217 2.326 . S
In208 O219 2.294 . S
In208 O220 2.326 . S
O209 In208 2.294 . S
O209 C218 1.240 . S
O210 In208 2.326 . S
O210 C218 1.252 . S
C211 O214 1.252 . S
C211 O215 1.260 . S
C212 O219 1.240 . S
C212 O220 1.252 . S
C213 O216 1.252 . S
C213 O217 1.260 . S
O214 In208 2.266 . S
O214 C211 1.252 . S
O215 In208 2.326 . S
O215 C211 1.260 . S
O216 In208 2.266 . S
O216 C213 1.252 . S
O217 In208 2.326 . S
O217 C213 1.260 . S
C218 O209 1.240 . S
C218 O210 1.252 . S
O219 In208 2.294 . S
O219 C212 1.240 . S
O220 In208 2.326 . S
O220 C212 1.252 . S
In221 O222 2.294 . S
In221 O223 2.326 . S
In221 O227 2.266 . S
In221 O228 2.326 . S
In221 O229 2.266 . S
In221 O230 2.326 . S
In221 O232 2.294 . S
In221 O233 2.326 . S
O222 In221 2.294 . S
O222 C231 1.240 . S
O223 In221 2.326 . S
O223 C231 1.252 . S
C224 O227 1.252 . S
C224 O228 1.260 . S
C225 O232 1.240 . S
C225 O233 1.252 . S
C226 O229 1.252 . S
C226 O230 1.260 . S
O227 In221 2.266 . S
O227 C224 1.252 . S
O228 In221 2.326 . S
O228 C224 1.260 . S
O229 In221 2.266 . S
O229 C226 1.252 . S
O230 In221 2.326 . S
O230 C226 1.260 . S
C231 O222 1.240 . S
C231 O223 1.252 . S
O232 In221 2.294 . S
O232 C225 1.240 . S
O233 In221 2.326 . S
O233 C225 1.252 . S
In234 O235 2.294 . S
In234 O236 2.326 . S
In234 O240 2.266 . S
In234 O241 2.326 . S
In234 O242 2.266 . S
In234 O243 2.326 . S
In234 O245 2.294 . S
In234 O246 2.326 . S
O235 In234 2.294 . S
O235 C244 1.240 . S
O236 In234 2.326 . S
O236 C244 1.252 . S
C237 O240 1.252 . S
C237 O241 1.260 . S
C238 O245 1.240 . S
C238 O246 1.252 . S
C239 O242 1.252 . S
C239 O243 1.260 . S
O240 In234 2.266 . S
O240 C237 1.252 . S
O241 In234 2.326 . S
O241 C237 1.260 . S
O242 In234 2.266 . S
O242 C239 1.252 . S
O243 In234 2.326 . S
O243 C239 1.260 . S
C244 O235 1.240 . S
C244 O236 1.252 . S
O245 In234 2.294 . S
O245 C238 1.240 . S
O246 In234 2.326 . S
O246 C238 1.252 . S
In247 O248 2.294 . S
In247 O249 2.326 . S
In247 O253 2.266 . S
In247 O254 2.326 . S
In247 O255 2.266 . S
In247 O256 2.326 . S
In247 O258 2.294 . S
In247 O259 2.326 . S
O248 In247 2.294 . S
O248 C257 1.240 . S
O249 In247 2.326 . S
O249 C257 1.252 . S
C250 O253 1.252 . S
C250 O254 1.260 . S
C251 O258 1.240 . S
C251 O259 1.252 . S
C252 O255 1.252 . S
C252 O256 1.260 . S
O253 In247 2.266 . S
O253 C250 1.252 . S
O254 In247 2.326 . S
O254 C250 1.260 . S
O255 In247 2.266 . S
O255 C252 1.252 . S
O256 In247 2.326 . S
O256 C252 1.260 . S
C257 O248 1.240 . S
C257 O249 1.252 . S
O258 In247 2.294 . S
O258 C251 1.240 . S
O259 In247 2.326 . S
O259 C251 1.252 . S
In260 O261 2.294 . S
In260 O262 2.326 . S
In260 O266 2.266 . S
In260 O267 2.326 . S
In260 O268 2.266 . S
In260 O269 2.326 . S
In260 O271 2.294 . S
In260 O272 2.326 . S
O261 In260 2.294 . S
O261 C270 1.240 . S
O262 In260 2.326 . S
O262 C270 1.252 . S
C263 O266 1.252 . S
C263 O267 1.260 . S
C264 O271 1.240 . S
C264 O272 1.252 . S
C265 O268 1.252 . S
C265 O269 1.260 . S
O266 In260 2.266 . S
O266 C263 1.252 . S
O267 In260 2.326 . S
O267 C263 1.260 . S
O268 In260 2.266 . S
O268 C265 1.252 . S
O269 In260 2.326 . S
O269 C265 1.260 . S
C270 O261 1.240 . S
C270 O262 1.252 . S
O271 In260 2.294 . S
O271 C264 1.240 . S
O272 In260 2.326 . S
O272 C264 1.252 . S
In273 O274 2.294 . S
In273 O275 2.326 . S
In273 O279 2.266 . S
In273 O280 2.326 . S
In273 O281 2.266 . S
In273 O282 2.326 . S
In273 O284 2.294 . S
In273 O285 2.326 . S
O274 In273 2.294 . S
O274 C283 1.240 . S
O275 In273 2.326 . S
O275 C283 1.252 . S
C276 O279 1.252 . S
C276 O280 1.260 . S
C277 O284 1.240 . S
C277 O285 1.252 . S
C278 O281 1.252 . S
C278 O282 1.260 . S
O279 In273 2.266 . S
O279 C276 1.252 . S
O280 In273 2.326 . S
O280 C276 1.260 . S
O281 In273 2.266 . S
O281 C278 1.252 . S
O282 In273 2.326 . S
O282 C278 1.260 . S
C283 O274 1.240 . S
C283 O275 1.252 . S
O284 In273 2.294 . S
O284 C277 1.240 . S
O285 In273 2.326 . S
O285 C277 1.252 . S
In286 O287 2.294 . S
In286 O288 2.326 . S
In286 O292 2.266 . S
In286 O293 2.326 . S
In286 O294 2.266 . S
In286 O295 2.326 . S
In286 O297 2.294 . S
In286 O298 2.326 . S
O287 In286 2.294 . S
O287 C296 1.240 . S
O288 In286 2.326 . S
O288 C296 1.252 . S
C289 O292 1.252 . S
C289 O293 1.260 . S
C290 O297 1.240 . S
C290 O298 1.252 . S
C291 O294 1.252 . S
C291 O295 1.260 . S
O292 In286 2.266 . S
O292 C289 1.252 . S
O293 In286 2.326 . S
O293 C289 1.260 . S
O294 In286 2.266 . S
O294 C291 1.252 . S
O295 In286 2.326 . S
O295 C291 1.260 . S
C296 O287 1.240 . S
C296 O288 1.252 . S
O297 In286 2.294 . S
O297 C290 1.240 . S
O298 In286 2.326 . S
O298 C290 1.252 . S
In299 O300 2.294 . S
In299 O301 2.326 . S
In299 O305 2.266 . S
In299 O306 2.326 . S
In299 O307 2.266 . S
In299 O308 2.326 . S
In299 O310 2.294 . S
In299 O311 2.326 . S
O300 In299 2.294 . S
O300 C309 1.240 . S
O301 In299 2.326 . S
O301 C309 1.252 . S
C302 O305 1.252 . S
C302 O306 1.260 . S
C303 O310 1.240 . S
C303 O311 1.252 . S
C304 O307 1.252 . S
C304 O308 1.260 . S
O305 In299 2.266 . S
O305 C302 1.252 . S
O306 In299 2.326 . S
O306 C302 1.260 . S
O307 In299 2.266 . S
O307 C304 1.252 . S
O308 In299 2.326 . S
O308 C304 1.260 . S
C309 O300 1.240 . S
C309 O301 1.252 . S
O310 In299 2.294 . S
O310 C303 1.240 . S
O311 In299 2.326 . S
O311 C303 1.252 . S
H312 C318 0.930 . S
H313 C322 0.930 . S
H314 C327 0.929 . S
H315 C325 0.929 . S
H316 C320 0.929 . S
H317 C326 0.929 . S
C318 H312 0.930 . S
C318 C319 1.367 . S
C318 C326 1.378 . S
C319 C318 1.367 . S
C319 C327 1.433 . S
C320 H316 0.929 . S
C320 C322 1.378 . S
C320 C324 1.350 . S
C321 C324 1.463 . S
C321 C326 1.350 . S
C321 N329 1.427 . S
C322 H313 0.930 . S
C322 C320 1.378 . S
C322 C323 1.367 . S
C323 C322 1.367 . S
C323 C325 1.433 . S
C324 C320 1.350 . S
C324 C321 1.463 . S
C324 N328 1.427 . S
C325 H315 0.929 . S
C325 C323 1.433 . S
C325 N328 1.384 . S
C326 H317 0.929 . S
C326 C318 1.378 . S
C326 C321 1.350 . S
C327 H314 0.929 . S
C327 C319 1.433 . S
C327 N329 1.384 . S
N328 C324 1.427 . S
N328 C325 1.384 . S
N329 C321 1.427 . S
N329 C327 1.384 . S
H330 C336 0.930 . S
H331 C340 0.930 . S
H332 C345 0.929 . S
H333 C343 0.929 . S
H334 C338 0.929 . S
H335 C344 0.929 . S
C336 H330 0.930 . S
C336 C337 1.367 . S
C336 C344 1.378 1_655 S
C337 C336 1.367 . S
C337 C345 1.433 . S
C338 H334 0.929 . S
C338 C340 1.378 . S
C338 C342 1.350 . S
C339 C342 1.463 . S
C339 C344 1.350 . S
C339 N347 1.427 . S
C340 H331 0.930 . S
C340 C338 1.378 . S
C340 C341 1.367 . S
C341 C340 1.367 . S
C341 C343 1.433 . S
C342 C338 1.350 . S
C342 C339 1.463 . S
C342 N346 1.427 . S
C343 H333 0.929 . S
C343 C341 1.433 . S
C343 N346 1.384 . S
C344 H335 0.929 . S
C344 C336 1.378 1_455 S
C344 C339 1.350 . S
C345 H332 0.929 . S
C345 C337 1.433 . S
C345 N347 1.384 1_655 S
N346 C342 1.427 . S
N346 C343 1.384 . S
N347 C339 1.427 . S
N347 C345 1.384 1_455 S
H348 C354 0.930 . S
H349 C358 0.930 . S
H350 C363 0.929 . S
H351 C361 0.929 . S
H352 C356 0.929 . S
H353 C362 0.929 . S
C354 H348 0.930 . S
C354 C355 1.367 . S
C354 C362 1.378 . S
C355 C354 1.367 . S
C355 C363 1.433 . S
C356 H352 0.929 . S
C356 C358 1.378 . S
C356 C360 1.350 1_554 S
C357 C360 1.463 . S
C357 C362 1.350 . S
C357 N365 1.427 . S
C358 H349 0.930 . S
C358 C356 1.378 . S
C358 C359 1.367 . S
C359 C358 1.367 . S
C359 C361 1.433 1_554 S
C360 C356 1.350 1_556 S
C360 C357 1.463 . S
C360 N364 1.427 . S
C361 H351 0.929 . S
C361 C359 1.433 1_556 S
C361 N364 1.384 . S
C362 H353 0.929 . S
C362 C354 1.378 . S
C362 C357 1.350 . S
C363 H350 0.929 . S
C363 C355 1.433 . S
C363 N365 1.384 . S
N364 C360 1.427 . S
N364 C361 1.384 . S
N365 C357 1.427 . S
N365 C363 1.384 . S
H366 C372 0.930 . S
H367 C376 0.930 . S
H368 C381 0.929 . S
H369 C379 0.929 . S
H370 C374 0.929 . S
H371 C380 0.929 . S
C372 H366 0.930 . S
C372 C373 1.367 . S
C372 C380 1.378 . S
C373 C372 1.367 . S
C373 C381 1.433 . S
C374 H370 0.929 . S
C374 C376 1.378 . S
C374 C378 1.350 . S
C375 C378 1.463 . S
C375 C380 1.350 . S
C375 N383 1.427 . S
C376 H367 0.930 . S
C376 C374 1.378 . S
C376 C377 1.367 . S
C377 C376 1.367 . S
C377 C379 1.433 . S
C378 C374 1.350 . S
C378 C375 1.463 . S
C378 N382 1.427 . S
C379 H369 0.929 . S
C379 C377 1.433 . S
C379 N382 1.384 . S
C380 H371 0.929 . S
C380 C372 1.378 . S
C380 C375 1.350 . S
C381 H368 0.929 . S
C381 C373 1.433 . S
C381 N383 1.384 . S
N382 C378 1.427 . S
N382 C379 1.384 . S
N383 C375 1.427 . S
N383 C381 1.384 . S
H384 C390 0.930 . S
H385 C394 0.930 . S
H386 C399 0.929 . S
H387 C397 0.929 . S
H388 C392 0.929 . S
H389 C398 0.929 . S
C390 H384 0.930 . S
C390 C391 1.367 . S
C390 C398 1.378 . S
C391 C390 1.367 . S
C391 C399 1.433 . S
C392 H388 0.929 . S
C392 C394 1.378 . S
C392 C396 1.350 . S
C393 C396 1.463 . S
C393 C398 1.350 . S
C393 N401 1.427 . S
C394 H385 0.930 . S
C394 C392 1.378 . S
C394 C395 1.367 . S
C395 C394 1.367 . S
C395 C397 1.433 . S
C396 C392 1.350 . S
C396 C393 1.463 . S
C396 N400 1.427 . S
C397 H387 0.929 . S
C397 C395 1.433 . S
C397 N400 1.384 . S
C398 H389 0.929 . S
C398 C390 1.378 . S
C398 C393 1.350 . S
C399 H386 0.929 . S
C399 C391 1.433 . S
C399 N401 1.384 . S
N400 C396 1.427 . S
N400 C397 1.384 . S
N401 C393 1.427 . S
N401 C399 1.384 . S
H402 C408 0.930 . S
H403 C412 0.930 . S
H404 C417 0.929 . S
H405 C415 0.929 . S
H406 C410 0.929 . S
H407 C416 0.929 . S
C408 H402 0.930 . S
C408 C409 1.367 . S
C408 C416 1.378 . S
C409 C408 1.367 . S
C409 C417 1.433 . S
C410 H406 0.929 . S
C410 C412 1.378 1_655 S
C410 C414 1.350 . S
C411 C414 1.463 . S
C411 C416 1.350 . S
C411 N419 1.427 . S
C412 H403 0.930 . S
C412 C410 1.378 1_455 S
C412 C413 1.367 . S
C413 C412 1.367 . S
C413 C415 1.433 . S
C414 C410 1.350 . S
C414 C411 1.463 . S
C414 N418 1.427 . S
C415 H405 0.929 . S
C415 C413 1.433 . S
C415 N418 1.384 1_455 S
C416 H407 0.929 . S
C416 C408 1.378 . S
C416 C411 1.350 . S
C417 H404 0.929 . S
C417 C409 1.433 . S
C417 N419 1.384 . S
N418 C414 1.427 . S
N418 C415 1.384 1_655 S
N419 C411 1.427 . S
N419 C417 1.384 . S
H420 C426 0.930 . S
H421 C430 0.930 . S
H422 C435 0.929 . S
H423 C433 0.929 . S
H424 C428 0.929 . S
H425 C434 0.929 . S
C426 H420 0.930 . S
C426 C427 1.367 . S
C426 C434 1.378 . S
C427 C426 1.367 . S
C427 C435 1.433 . S
C428 H424 0.929 . S
C428 C430 1.378 . S
C428 C432 1.350 1_556 S
C429 C432 1.463 . S
C429 C434 1.350 . S
C429 N437 1.427 . S
C430 H421 0.930 . S
C430 C428 1.378 . S
C430 C431 1.367 . S
C431 C430 1.367 . S
C431 C433 1.433 . S
C432 C428 1.350 1_554 S
C432 C429 1.463 . S
C432 N436 1.427 . S
C433 H423 0.929 . S
C433 C431 1.433 . S
C433 N436 1.384 1_556 S
C434 H425 0.929 . S
C434 C426 1.378 . S
C434 C429 1.350 . S
C435 H422 0.929 . S
C435 C427 1.433 . S
C435 N437 1.384 . S
N436 C432 1.427 . S
N436 C433 1.384 1_554 S
N437 C429 1.427 . S
N437 C435 1.384 . S
H438 C444 0.930 . S
H439 C448 0.930 . S
H440 C453 0.929 . S
H441 C451 0.929 . S
H442 C446 0.929 . S
H443 C452 0.929 . S
C444 H438 0.930 . S
C444 C445 1.367 . S
C444 C452 1.378 . S
C445 C444 1.367 . S
C445 C453 1.433 . S
C446 H442 0.929 . S
C446 C448 1.378 . S
C446 C450 1.350 . S
C447 C450 1.463 . S
C447 C452 1.350 . S
C447 N455 1.427 . S
C448 H439 0.930 . S
C448 C446 1.378 . S
C448 C449 1.367 . S
C449 C448 1.367 . S
C449 C451 1.433 . S
C450 C446 1.350 . S
C450 C447 1.463 . S
C450 N454 1.427 . S
C451 H441 0.929 . S
C451 C449 1.433 . S
C451 N454 1.384 . S
C452 H443 0.929 . S
C452 C444 1.378 . S
C452 C447 1.350 . S
C453 H440 0.929 . S
C453 C445 1.433 . S
C453 N455 1.384 . S
N454 C450 1.427 . S
N454 C451 1.384 . S
N455 C447 1.427 . S
N455 C453 1.384 . S
H456 C462 0.930 . S
H457 C466 0.930 . S
H458 C471 0.929 . S
H459 C469 0.929 . S
H460 C464 0.929 . S
H461 C470 0.929 . S
C462 H456 0.930 . S
C462 C463 1.367 . S
C462 C470 1.378 . S
C463 C462 1.367 . S
C463 C471 1.433 . S
C464 H460 0.929 . S
C464 C466 1.378 . S
C464 C468 1.350 . S
C465 C468 1.463 . S
C465 C470 1.350 . S
C465 N473 1.427 . S
C466 H457 0.930 . S
C466 C464 1.378 . S
C466 C467 1.367 . S
C467 C466 1.367 . S
C467 C469 1.433 . S
C468 C464 1.350 . S
C468 C465 1.463 . S
C468 N472 1.427 . S
C469 H459 0.929 . S
C469 C467 1.433 . S
C469 N472 1.384 . S
C470 H461 0.929 . S
C470 C462 1.378 . S
C470 C465 1.350 . S
C471 H458 0.929 . S
C471 C463 1.433 . S
C471 N473 1.384 . S
N472 C468 1.427 . S
N472 C469 1.384 . S
N473 C465 1.427 . S
N473 C471 1.384 . S
H474 C480 0.930 . S
H475 C484 0.930 . S
H476 C489 0.929 . S
H477 C487 0.929 . S
H478 C482 0.929 . S
H479 C488 0.937 . S
C480 H474 0.930 . S
C480 C481 1.367 . S
C480 C488 1.350 1_565 S
C481 C480 1.367 . S
C481 C489 1.433 . S
C482 H478 0.929 . S
C482 C484 1.378 . S
C482 C486 1.350 . S
C483 C486 1.463 . S
C483 C488 1.371 . S
C483 N491 1.427 . S
C484 H475 0.930 . S
C484 C482 1.378 . S
C484 C485 1.367 . S
C485 C484 1.367 . S
C485 C487 1.433 . S
C486 C482 1.350 . S
C486 C483 1.463 . S
C486 N490 1.427 . S
C487 H477 0.929 . S
C487 C485 1.433 . S
C487 N490 1.384 . S
C488 H479 0.937 . S
C488 C480 1.350 1_545 S
C488 C483 1.371 . S
C489 H476 0.929 . S
C489 C481 1.433 . S
C489 N491 1.384 1_565 S
N490 C486 1.427 . S
N490 C487 1.384 . S
N491 C483 1.427 . S
N491 C489 1.384 1_545 S
H492 C498 0.930 . S
H493 C502 0.937 . S
H494 C507 0.929 . S
H495 C505 0.929 . S
H496 C500 0.929 . S
H497 C506 0.929 . S
C498 H492 0.930 . S
C498 C499 1.367 . S
C498 C506 1.378 . S
C499 C498 1.367 . S
C499 C507 1.433 . S
C500 H496 0.929 . S
C500 C502 1.403 . S
C500 C504 1.350 . S
C501 C504 1.463 . S
C501 C506 1.350 . S
C501 N509 1.427 . S
C502 H493 0.937 . S
C502 C500 1.403 . S
C502 C503 1.336 1_565 S
C503 C502 1.336 1_545 S
C503 C505 1.433 . S
C504 C500 1.350 . S
C504 C501 1.463 . S
C504 N508 1.427 1_565 S
C505 H495 0.929 . S
C505 C503 1.433 . S
C505 N508 1.384 . S
C506 H497 0.929 . S
C506 C498 1.378 . S
C506 C501 1.350 . S
C507 H494 0.929 . S
C507 C499 1.433 . S
C507 N509 1.384 . S
N508 C504 1.427 1_545 S
N508 C505 1.384 . S
N509 C501 1.427 . S
N509 C507 1.384 . S
H510 C516 0.930 . S
H511 C520 0.930 . S
H512 C525 0.929 . S
H513 C523 0.929 . S
H514 C518 0.929 . S
H515 C524 0.929 . S
C516 H510 0.930 . S
C516 C517 1.367 . S
C516 C524 1.378 . S
C517 C516 1.367 . S
C517 C525 1.433 . S
C518 H514 0.929 . S
C518 C520 1.378 . S
C518 C522 1.350 . S
C519 C522 1.463 . S
C519 C524 1.350 . S
C519 N527 1.427 . S
C520 H511 0.930 . S
C520 C518 1.378 . S
C520 C521 1.367 . S
C521 C520 1.367 . S
C521 C523 1.433 . S
C522 C518 1.350 . S
C522 C519 1.463 . S
C522 N526 1.427 . S
C523 H513 0.929 . S
C523 C521 1.433 . S
C523 N526 1.384 . S
C524 H515 0.929 . S
C524 C516 1.378 . S
C524 C519 1.350 . S
C525 H512 0.929 . S
C525 C517 1.433 . S
C525 N527 1.384 . S
N526 C522 1.427 . S
N526 C523 1.384 . S
N527 C519 1.427 . S
N527 C525 1.384 . S
H528 C534 0.930 . S
H529 C538 0.930 . S
H530 C543 0.929 . S
H531 C541 0.929 . S
H532 C536 0.929 . S
H533 C542 0.929 . S
C534 H528 0.930 . S
C534 C535 1.367 . S
C534 C542 1.378 . S
C535 C534 1.367 . S
C535 C543 1.433 . S
C536 H532 0.929 . S
C536 C538 1.378 . S
C536 C540 1.350 . S
C537 C540 1.463 . S
C537 C542 1.350 . S
C537 N545 1.427 . S
C538 H529 0.930 . S
C538 C536 1.378 . S
C538 C539 1.367 . S
C539 C538 1.367 . S
C539 C541 1.433 . S
C540 C536 1.350 . S
C540 C537 1.463 . S
C540 N544 1.427 . S
C541 H531 0.929 . S
C541 C539 1.433 . S
C541 N544 1.384 . S
C542 H533 0.929 . S
C542 C534 1.378 . S
C542 C537 1.350 . S
C543 H530 0.929 . S
C543 C535 1.433 . S
C543 N545 1.384 . S
N544 C540 1.427 . S
N544 C541 1.384 . S
N545 C537 1.427 . S
N545 C543 1.384 . S
H546 C552 0.930 . S
H547 C556 0.930 . S
H548 C561 0.929 . S
H549 C559 0.929 . S
H550 C554 0.929 . S
H551 C560 0.947 . S
C552 H546 0.930 . S
C552 C553 1.367 . S
C552 C560 1.378 . S
C553 C552 1.367 . S
C553 C561 1.433 . S
C554 H550 0.929 . S
C554 C556 1.378 . S
C554 C558 1.350 . S
C555 C558 1.463 1_565 S
C555 C560 1.350 . S
C555 N563 1.427 . S
C556 H547 0.930 . S
C556 C554 1.378 . S
C556 C557 1.367 . S
C557 C556 1.367 . S
C557 C559 1.433 . S
C558 C554 1.350 . S
C558 C555 1.463 1_545 S
C558 N562 1.427 . S
C559 H549 0.929 . S
C559 C557 1.433 . S
C559 N562 1.384 . S
C560 H551 0.947 . S
C560 C552 1.378 . S
C560 C555 1.350 . S
C561 H548 0.929 . S
C561 C553 1.433 . S
C561 N563 1.384 . S
N562 C558 1.427 . S
N562 C559 1.384 . S
N563 C555 1.427 . S
N563 C561 1.384 . S
H564 C570 0.930 . S
H565 C574 0.930 . S
H566 C579 0.929 . S
H567 C577 0.929 . S
H568 C572 0.929 . S
H569 C578 0.929 . S
C570 H564 0.930 . S
C570 C571 1.367 . S
C570 C578 1.378 . S
C571 C570 1.367 . S
C571 C579 1.433 . S
C572 H568 0.929 . S
C572 C574 1.378 . S
C572 C576 1.350 . S
C573 C576 1.463 1_556 S
C573 C578 1.350 . S
C573 N581 1.427 . S
C574 H565 0.930 . S
C574 C572 1.378 . S
C574 C575 1.367 . S
C575 C574 1.367 . S
C575 C577 1.433 . S
C576 C572 1.350 . S
C576 C573 1.463 1_554 S
C576 N580 1.426 1_554 S
C577 H567 0.929 . S
C577 C575 1.433 . S
C577 N580 1.380 1_554 S
C578 H569 0.929 . S
C578 C570 1.378 . S
C578 C573 1.350 . S
C579 H566 0.929 . S
C579 C571 1.433 . S
C579 N581 1.384 . S
N580 C576 1.426 1_556 S
N580 C577 1.380 1_556 S
N581 C573 1.427 . S
N581 C579 1.384 . S
H582 C588 0.930 . S
H583 C592 0.930 . S
H584 C597 0.929 . S
H585 C595 0.929 . S
H586 C590 0.929 . S
H587 C596 0.929 . S
C588 H582 0.930 . S
C588 C589 1.367 . S
C588 C596 1.378 . S
C589 C588 1.367 . S
C589 C597 1.433 . S
C590 H586 0.929 . S
C590 C592 1.378 . S
C590 C594 1.350 . S
C591 C594 1.463 1_545 S
C591 C596 1.350 . S
C591 N599 1.427 . S
C592 H583 0.930 . S
C592 C590 1.378 . S
C592 C593 1.367 . S
C593 C592 1.367 . S
C593 C595 1.433 . S
C594 C590 1.350 . S
C594 C591 1.463 1_565 S
C594 N598 1.427 . S
C595 H585 0.929 . S
C595 C593 1.433 . S
C595 N598 1.384 . S
C596 H587 0.929 . S
C596 C588 1.378 . S
C596 C591 1.350 . S
C597 H584 0.929 . S
C597 C589 1.433 . S
C597 N599 1.384 . S
N598 C594 1.427 . S
N598 C595 1.384 . S
N599 C591 1.427 . S
N599 C597 1.384 . S
H600 C606 0.930 . S
H601 C610 0.930 . S
H602 C615 0.929 . S
H603 C613 0.929 . S
H604 C608 0.929 . S
H605 C614 0.929 . S
C606 H600 0.930 . S
C606 C607 1.367 . S
C606 C614 1.378 . S
C607 C606 1.367 . S
C607 C615 1.433 . S
C608 H604 0.929 . S
C608 C610 1.378 . S
C608 C612 1.350 . S
C609 C612 1.463 . S
C609 C614 1.350 . S
C609 N617 1.427 . S
C610 H601 0.930 . S
C610 C608 1.378 . S
C610 C611 1.367 . S
C611 C610 1.367 . S
C611 C613 1.433 . S
C612 C608 1.350 . S
C612 C609 1.463 . S
C612 N616 1.427 . S
C613 H603 0.929 . S
C613 C611 1.433 . S
C613 N616 1.384 . S
C614 H605 0.929 . S
C614 C606 1.378 . S
C614 C609 1.350 . S
C615 H602 0.929 . S
C615 C607 1.433 . S
C615 N617 1.384 . S
N616 C612 1.427 . S
N616 C613 1.384 . S
N617 C609 1.427 . S
N617 C615 1.384 . S
H618 C624 0.930 . S
H619 C628 0.930 . S
H620 C633 0.929 . S
H621 C631 0.929 . S
H622 C626 0.929 . S
H623 C632 0.929 . S
C624 H618 0.930 . S
C624 C625 1.367 . S
C624 C632 1.378 . S
C625 C624 1.367 . S
C625 C633 1.433 . S
C626 H622 0.929 . S
C626 C628 1.378 . S
C626 C630 1.350 . S
C627 C630 1.463 . S
C627 C632 1.350 . S
C627 N635 1.427 . S
C628 H619 0.930 . S
C628 C626 1.378 . S
C628 C629 1.367 . S
C629 C628 1.367 . S
C629 C631 1.433 . S
C630 C626 1.350 . S
C630 C627 1.463 . S
C630 N634 1.427 . S
C631 H621 0.929 . S
C631 C629 1.433 . S
C631 N634 1.384 . S
C632 H623 0.929 . S
C632 C624 1.378 . S
C632 C627 1.350 . S
C633 H620 0.929 . S
C633 C625 1.433 . S
C633 N635 1.384 . S
N634 C630 1.427 . S
N634 C631 1.384 . S
N635 C627 1.427 . S
N635 C633 1.384 . S
H636 C642 0.930 . S
H637 C646 0.930 . S
H638 C651 0.929 . S
H639 C649 0.929 . S
H640 C644 0.929 . S
H641 C650 0.929 . S
C642 H636 0.930 . S
C642 C643 1.367 . S
C642 C650 1.378 . S
C643 C642 1.367 . S
C643 C651 1.433 . S
C644 H640 0.929 . S
C644 C646 1.378 . S
C644 C648 1.350 . S
C645 C648 1.463 1_556 S
C645 C650 1.350 . S
C645 N653 1.426 1_556 S
C646 H637 0.930 . S
C646 C644 1.378 . S
C646 C647 1.367 . S
C647 C646 1.367 . S
C647 C649 1.433 . S
C648 C644 1.350 . S
C648 C645 1.463 1_554 S
C648 N652 1.427 . S
C649 H639 0.929 . S
C649 C647 1.433 . S
C649 N652 1.384 . S
C650 H641 0.929 . S
C650 C642 1.378 . S
C650 C645 1.350 . S
C651 H638 0.929 . S
C651 C643 1.433 . S
C651 N653 1.381 1_556 S
N652 C648 1.427 . S
N652 C649 1.384 . S
N653 C645 1.426 1_554 S
N653 C651 1.381 1_554 S
H654 C660 0.930 . S
H655 C664 0.930 . S
H656 C669 0.929 . S
H657 C667 0.929 . S
H658 C662 0.929 . S
H659 C668 0.929 . S
C660 H654 0.930 . S
C660 C661 1.367 . S
C660 C668 1.378 . S
C661 C660 1.367 . S
C661 C669 1.433 . S
C662 H658 0.929 . S
C662 C664 1.378 . S
C662 C666 1.350 . S
C663 C666 1.463 . S
C663 C668 1.350 . S
C663 N671 1.427 . S
C664 H655 0.930 . S
C664 C662 1.378 . S
C664 C665 1.367 . S
C665 C664 1.367 . S
C665 C667 1.433 . S
C666 C662 1.350 . S
C666 C663 1.463 . S
C666 N670 1.427 . S
C667 H657 0.929 . S
C667 C665 1.433 . S
C667 N670 1.384 . S
C668 H659 0.929 . S
C668 C660 1.378 . S
C668 C663 1.350 . S
C669 H656 0.929 . S
C669 C661 1.433 . S
C669 N671 1.384 . S
N670 C666 1.427 . S
N670 C667 1.384 . S
N671 C663 1.427 . S
N671 C669 1.384 . S
H672 C678 0.930 . S
H673 C682 0.930 . S
H674 C687 0.929 . S
H675 C685 0.929 . S
H676 C680 0.929 . S
H677 C686 0.929 . S
C678 H672 0.930 . S
C678 C679 1.367 . S
C678 C686 1.378 . S
C679 C678 1.367 . S
C679 C687 1.433 . S
C680 H676 0.929 . S
C680 C682 1.378 . S
C680 C684 1.350 . S
C681 C684 1.463 . S
C681 C686 1.350 . S
C681 N689 1.427 . S
C682 H673 0.930 . S
C682 C680 1.378 . S
C682 C683 1.367 . S
C683 C682 1.367 . S
C683 C685 1.433 . S
C684 C680 1.350 . S
C684 C681 1.463 . S
C684 N688 1.427 . S
C685 H675 0.929 . S
C685 C683 1.433 . S
C685 N688 1.384 . S
C686 H677 0.929 . S
C686 C678 1.378 . S
C686 C681 1.350 . S
C687 H674 0.929 . S
C687 C679 1.433 . S
C687 N689 1.384 . S
N688 C684 1.427 . S
N688 C685 1.384 . S
N689 C681 1.427 . S
N689 C687 1.384 . S
H690 C696 0.930 . S
H691 C700 0.930 . S
H692 C705 0.929 . S
H693 C703 0.929 . S
H694 C698 0.929 . S
H695 C704 0.929 . S
C696 H690 0.930 . S
C696 C697 1.367 . S
C696 C704 1.378 . S
C697 C696 1.367 . S
C697 C705 1.433 . S
C698 H694 0.929 . S
C698 C700 1.378 . S
C698 C702 1.350 . S
C699 C702 1.463 1_455 S
C699 C704 1.350 . S
C699 N707 1.427 . S
C700 H691 0.930 . S
C700 C698 1.378 . S
C700 C701 1.367 . S
C701 C700 1.367 . S
C701 C703 1.433 . S
C702 C698 1.350 . S
C702 C699 1.463 1_655 S
C702 N706 1.427 . S
C703 H693 0.929 . S
C703 C701 1.433 . S
C703 N706 1.384 . S
C704 H695 0.929 . S
C704 C696 1.378 . S
C704 C699 1.350 . S
C705 H692 0.929 . S
C705 C697 1.433 . S
C705 N707 1.384 . S
N706 C702 1.427 . S
N706 C703 1.384 . S
N707 C699 1.427 . S
N707 C705 1.384 . S
H708 C714 0.930 . S
H709 C718 0.930 . S
H710 C723 0.929 . S
H711 C721 0.929 . S
H712 C716 0.929 . S
H713 C722 0.929 . S
C714 H708 0.930 . S
C714 C715 1.367 . S
C714 C722 1.378 . S
C715 C714 1.367 . S
C715 C723 1.433 . S
C716 H712 0.929 . S
C716 C718 1.378 . S
C716 C720 1.350 . S
C717 C720 1.463 1_655 S
C717 C722 1.350 . S
C717 N725 1.427 . S
C718 H709 0.930 . S
C718 C716 1.378 . S
C718 C719 1.367 . S
C719 C718 1.367 . S
C719 C721 1.433 . S
C720 C716 1.350 . S
C720 C717 1.463 1_455 S
C720 N724 1.427 . S
C721 H711 0.929 . S
C721 C719 1.433 . S
C721 N724 1.384 . S
C722 H713 0.929 . S
C722 C714 1.378 . S
C722 C717 1.350 . S
C723 H710 0.929 . S
C723 C715 1.433 . S
C723 N725 1.384 . S
N724 C720 1.427 . S
N724 C721 1.384 . S
N725 C717 1.427 . S
N725 C723 1.384 . S
H726 C732 0.930 . S
H727 C736 0.930 . S
H728 C741 0.929 . S
H729 C739 0.929 . S
H730 C734 0.929 . S
H731 C740 0.929 . S
C732 H726 0.930 . S
C732 C733 1.367 . S
C732 C740 1.378 . S
C733 C732 1.367 . S
C733 C741 1.433 . S
C734 H730 0.929 . S
C734 C736 1.378 . S
C734 C738 1.350 . S
C735 C738 1.463 . S
C735 C740 1.350 . S
C735 N743 1.427 . S
C736 H727 0.930 . S
C736 C734 1.378 . S
C736 C737 1.367 . S
C737 C736 1.367 . S
C737 C739 1.433 . S
C738 C734 1.350 . S
C738 C735 1.463 . S
C738 N742 1.427 . S
C739 H729 0.929 . S
C739 C737 1.433 . S
C739 N742 1.384 . S
C740 H731 0.929 . S
C740 C732 1.378 . S
C740 C735 1.350 . S
C741 H728 0.929 . S
C741 C733 1.433 . S
C741 N743 1.384 . S
N742 C738 1.427 . S
N742 C739 1.384 . S
N743 C735 1.427 . S
N743 C741 1.384 . S
H744 C750 0.930 . S
H745 C754 0.930 . S
H746 C759 0.929 . S
H747 C757 0.929 . S
H748 C752 0.929 . S
H749 C758 0.929 . S
C750 H744 0.930 . S
C750 C751 1.367 . S
C750 C758 1.378 . S
C751 C750 1.367 . S
C751 C759 1.433 . S
C752 H748 0.929 . S
C752 C754 1.378 . S
C752 C756 1.350 . S
C753 C756 1.463 . S
C753 C758 1.350 . S
C753 N761 1.427 . S
C754 H745 0.930 . S
C754 C752 1.378 . S
C754 C755 1.367 . S
C755 C754 1.367 . S
C755 C757 1.433 . S
C756 C752 1.350 . S
C756 C753 1.463 . S
C756 N760 1.427 . S
C757 H747 0.929 . S
C757 C755 1.433 . S
C757 N760 1.384 . S
C758 H749 0.929 . S
C758 C750 1.378 . S
C758 C753 1.350 . S
C759 H746 0.929 . S
C759 C751 1.433 . S
C759 N761 1.384 . S
N760 C756 1.427 . S
N760 C757 1.384 . S
N761 C753 1.427 . S
N761 C759 1.384 . S
H762 C768 0.930 . S
H763 C772 0.930 . S
H764 C777 0.929 . S
H765 C775 0.929 . S
H766 C770 0.968 . S
H767 C776 0.929 . S
C768 H762 0.930 . S
C768 C769 1.367 1_565 S
C768 C776 1.378 . S
C769 C768 1.367 1_545 S
C769 C777 1.433 . S
C770 H766 0.968 . S
C770 C772 1.378 . S
C770 C774 1.350 . S
C771 C774 1.463 . S
C771 C776 1.350 . S
C771 N779 1.427 1_565 S
C772 H763 0.930 . S
C772 C770 1.378 . S
C772 C773 1.367 . S
C773 C772 1.367 . S
C773 C775 1.433 . S
C774 C770 1.350 . S
C774 C771 1.463 . S
C774 N778 1.427 . S
C775 H765 0.929 . S
C775 C773 1.433 . S
C775 N778 1.384 . S
C776 H767 0.929 . S
C776 C768 1.378 . S
C776 C771 1.350 . S
C777 H764 0.929 . S
C777 C769 1.433 . S
C777 N779 1.384 . S
N778 C774 1.427 . S
N778 C775 1.384 . S
N779 C771 1.427 1_545 S
N779 C777 1.384 . S
H780 C786 0.930 . S
H781 C790 0.930 . S
H782 C795 0.929 . S
H783 C793 0.929 . S
H784 C788 0.929 . S
H785 C794 0.929 . S
C786 H780 0.930 . S
C786 C787 1.367 . S
C786 C794 1.378 . S
C787 C786 1.367 . S
C787 C795 1.433 . S
C788 H784 0.929 . S
C788 C790 1.378 . S
C788 C792 1.350 . S
C789 C792 1.463 . S
C789 C794 1.350 . S
C789 N797 1.427 . S
C790 H781 0.930 . S
C790 C788 1.378 . S
C790 C791 1.367 . S
C791 C790 1.367 . S
C791 C793 1.433 . S
C792 C788 1.350 . S
C792 C789 1.463 . S
C792 N796 1.427 . S
C793 H783 0.929 . S
C793 C791 1.433 . S
C793 N796 1.384 . S
C794 H785 0.929 . S
C794 C786 1.378 . S
C794 C789 1.350 . S
C795 H782 0.929 . S
C795 C787 1.433 . S
C795 N797 1.384 . S
N796 C792 1.427 . S
N796 C793 1.384 . S
N797 C789 1.427 . S
N797 C795 1.384 . S
H798 C804 0.930 . S
H799 C808 0.930 . S
H800 C813 0.929 . S
H801 C811 0.929 . S
H802 C806 0.929 . S
H803 C812 0.929 . S
C804 H798 0.930 . S
C804 C805 1.367 . S
C804 C812 1.378 . S
C805 C804 1.367 . S
C805 C813 1.433 . S
C806 H802 0.929 . S
C806 C808 1.378 1_554 S
C806 C810 1.350 . S
C807 C810 1.463 . S
C807 C812 1.350 . S
C807 N815 1.427 . S
C808 H799 0.930 . S
C808 C806 1.378 1_556 S
C808 C809 1.367 1_545 S
C809 C808 1.367 1_565 S
C809 C811 1.433 . S
C810 C806 1.350 . S
C810 C807 1.463 . S
C810 N814 1.427 1_545 S
C811 H801 0.929 . S
C811 C809 1.433 . S
C811 N814 1.384 1_556 S
C812 H803 0.929 . S
C812 C804 1.378 . S
C812 C807 1.350 . S
C813 H800 0.929 . S
C813 C805 1.433 . S
C813 N815 1.384 . S
N814 C810 1.427 1_565 S
N814 C811 1.384 1_554 S
N815 C807 1.427 . S
N815 C813 1.384 . S
H816 C822 0.930 . S
H817 C826 0.930 . S
H818 C831 0.929 . S
H819 C829 0.929 . S
H820 C824 0.929 . S
H821 C830 0.929 . S
C822 H816 0.930 . S
C822 C823 1.367 . S
C822 C830 1.378 . S
C823 C822 1.367 . S
C823 C831 1.433 . S
C824 H820 0.929 . S
C824 C826 1.378 . S
C824 C828 1.350 . S
C825 C828 1.463 . S
C825 C830 1.350 . S
C825 N833 1.427 . S
C826 H817 0.930 . S
C826 C824 1.378 . S
C826 C827 1.367 . S
C827 C826 1.367 . S
C827 C829 1.433 . S
C828 C824 1.350 . S
C828 C825 1.463 . S
C828 N832 1.427 . S
C829 H819 0.929 . S
C829 C827 1.433 . S
C829 N832 1.384 . S
C830 H821 0.929 . S
C830 C822 1.378 . S
C830 C825 1.350 . S
C831 H818 0.929 . S
C831 C823 1.433 . S
C831 N833 1.384 . S
N832 C828 1.427 . S
N832 C829 1.384 . S
N833 C825 1.427 . S
N833 C831 1.384 . S
H834 C840 0.930 . S
H835 C844 0.930 . S
H836 C849 0.929 . S
H837 C847 0.929 . S
H838 C842 0.929 . S
H839 C848 0.929 . S
C840 H834 0.930 . S
C840 C841 1.367 . S
C840 C848 1.378 1_554 S
C841 C840 1.367 . S
C841 C849 1.433 . S
C842 H838 0.929 . S
C842 C844 1.378 . S
C842 C846 1.350 . S
C843 C846 1.463 . S
C843 C848 1.350 . S
C843 N851 1.427 . S
C844 H835 0.930 . S
C844 C842 1.378 . S
C844 C845 1.367 . S
C845 C844 1.367 . S
C845 C847 1.433 . S
C846 C842 1.350 . S
C846 C843 1.463 . S
C846 N850 1.427 . S
C847 H837 0.929 . S
C847 C845 1.433 . S
C847 N850 1.384 . S
C848 H839 0.929 . S
C848 C840 1.378 1_556 S
C848 C843 1.350 . S
C849 H836 0.929 . S
C849 C841 1.433 . S
C849 N851 1.384 1_554 S
N850 C846 1.427 . S
N850 C847 1.384 . S
N851 C843 1.427 . S
N851 C849 1.384 1_556 S
H852 C858 0.930 . S
H853 C862 0.930 . S
H854 C867 0.929 . S
H855 C865 0.929 . S
H856 C860 0.929 . S
H857 C866 0.929 . S
C858 H852 0.930 . S
C858 C859 1.367 . S
C858 C866 1.378 . S
C859 C858 1.367 . S
C859 C867 1.433 . S
C860 H856 0.929 . S
C860 C862 1.378 . S
C860 C864 1.350 . S
C861 C864 1.463 . S
C861 C866 1.350 . S
C861 N869 1.427 . S
C862 H853 0.930 . S
C862 C860 1.378 . S
C862 C863 1.367 . S
C863 C862 1.367 . S
C863 C865 1.433 . S
C864 C860 1.350 . S
C864 C861 1.463 . S
C864 N868 1.427 . S
C865 H855 0.929 . S
C865 C863 1.433 . S
C865 N868 1.384 . S
C866 H857 0.929 . S
C866 C858 1.378 . S
C866 C861 1.350 . S
C867 H854 0.929 . S
C867 C859 1.433 . S
C867 N869 1.384 . S
N868 C864 1.427 . S
N868 C865 1.384 . S
N869 C861 1.427 . S
N869 C867 1.384 . S
H870 C876 0.930 . S
H871 C880 0.930 . S
H872 C885 0.929 . S
H873 C883 0.929 . S
H874 C878 0.929 . S
H875 C884 0.929 . S
C876 H870 0.930 . S
C876 C877 1.367 . S
C876 C884 1.378 . S
C877 C876 1.367 . S
C877 C885 1.433 . S
C878 H874 0.929 . S
C878 C880 1.378 . S
C878 C882 1.350 . S
C879 C882 1.463 . S
C879 C884 1.350 . S
C879 N887 1.427 . S
C880 H871 0.930 . S
C880 C878 1.378 . S
C880 C881 1.367 . S
C881 C880 1.367 . S
C881 C883 1.433 . S
C882 C878 1.350 . S
C882 C879 1.463 . S
C882 N886 1.427 . S
C883 H873 0.929 . S
C883 C881 1.433 . S
C883 N886 1.384 . S
C884 H875 0.929 . S
C884 C876 1.378 . S
C884 C879 1.350 . S
C885 H872 0.929 . S
C885 C877 1.433 . S
C885 N887 1.384 . S
N886 C882 1.427 . S
N886 C883 1.384 . S
N887 C879 1.427 . S
N887 C885 1.384 . S
H888 C894 0.930 . S
H889 C898 0.930 . S
H890 C903 0.929 . S
H891 C901 0.929 . S
H892 C896 0.929 . S
H893 C902 0.929 . S
C894 H888 0.930 . S
C894 C895 1.367 . S
C894 C902 1.378 . S
C895 C894 1.367 . S
C895 C903 1.433 . S
C896 H892 0.929 . S
C896 C898 1.378 . S
C896 C900 1.350 . S
C897 C900 1.463 . S
C897 C902 1.350 . S
C897 N905 1.427 . S
C898 H889 0.930 . S
C898 C896 1.378 . S
C898 C899 1.367 . S
C899 C898 1.367 . S
C899 C901 1.433 . S
C900 C896 1.350 . S
C900 C897 1.463 . S
C900 N904 1.427 . S
C901 H891 0.929 . S
C901 C899 1.433 . S
C901 N904 1.384 . S
C902 H893 0.929 . S
C902 C894 1.378 . S
C902 C897 1.350 . S
C903 H890 0.929 . S
C903 C895 1.433 . S
C903 N905 1.384 . S
N904 C900 1.427 . S
N904 C901 1.384 . S
N905 C897 1.427 . S
N905 C903 1.384 . S
H906 C912 0.930 . S
H907 C916 0.930 . S
H908 C921 0.929 . S
H909 C919 0.929 . S
H910 C914 0.929 . S
H911 C920 0.929 . S
C912 H906 0.930 . S
C912 C913 1.367 . S
C912 C920 1.378 1_665 S
C913 C912 1.367 . S
C913 C921 1.433 1_655 S
C914 H910 0.929 . S
C914 C916 1.378 . S
C914 C918 1.350 . S
C915 C918 1.463 . S
C915 C920 1.350 . S
C915 N923 1.427 . S
C916 H907 0.930 . S
C916 C914 1.378 . S
C916 C917 1.367 . S
C917 C916 1.367 . S
C917 C919 1.433 . S
C918 C914 1.350 . S
C918 C915 1.463 . S
C918 N922 1.427 . S
C919 H909 0.929 . S
C919 C917 1.433 . S
C919 N922 1.384 . S
C920 H911 0.929 . S
C920 C912 1.378 1_445 S
C920 C915 1.350 . S
C921 H908 0.929 . S
C921 C913 1.433 1_455 S
C921 N923 1.384 1_565 S
N922 C918 1.427 . S
N922 C919 1.384 . S
N923 C915 1.427 . S
N923 C921 1.384 1_545 S
H924 C930 0.930 . S
H925 C934 0.930 . S
H926 C939 0.929 . S
H927 C937 0.929 . S
H928 C932 0.929 . S
H929 C938 0.929 . S
C930 H924 0.930 . S
C930 C931 1.367 . S
C930 C938 1.378 . S
C931 C930 1.367 . S
C931 C939 1.433 . S
C932 H928 0.929 . S
C932 C934 1.378 . S
C932 C936 1.350 . S
C933 C936 1.463 . S
C933 C938 1.350 . S
C933 N941 1.427 . S
C934 H925 0.930 . S
C934 C932 1.378 . S
C934 C935 1.367 . S
C935 C934 1.367 . S
C935 C937 1.433 . S
C936 C932 1.350 . S
C936 C933 1.463 . S
C936 N940 1.427 . S
C937 H927 0.929 . S
C937 C935 1.433 . S
C937 N940 1.384 . S
C938 H929 0.929 . S
C938 C930 1.378 . S
C938 C933 1.350 . S
C939 H926 0.929 . S
C939 C931 1.433 . S
C939 N941 1.384 . S
N940 C936 1.427 . S
N940 C937 1.384 . S
N941 C933 1.427 . S
N941 C939 1.384 . S
H942 C948 0.937 . S
H943 C952 0.930 . S
H944 C957 0.929 . S
H945 C955 0.929 . S
H946 C950 0.929 . S
H947 C956 0.929 . S
C948 H942 0.937 . S
C948 C949 1.397 . S
C948 C956 1.342 1_545 S
C949 C948 1.397 . S
C949 C957 1.433 . S
C950 H946 0.929 . S
C950 C952 1.378 . S
C950 C954 1.350 . S
C951 C954 1.463 . S
C951 C956 1.350 . S
C951 N959 1.427 . S
C952 H943 0.930 . S
C952 C950 1.378 . S
C952 C953 1.367 . S
C953 C952 1.367 . S
C953 C955 1.433 . S
C954 C950 1.350 . S
C954 C951 1.463 . S
C954 N958 1.427 . S
C955 H945 0.929 . S
C955 C953 1.433 . S
C955 N958 1.384 . S
C956 H947 0.929 . S
C956 C948 1.342 1_565 S
C956 C951 1.350 . S
C957 H944 0.929 . S
C957 C949 1.433 . S
C957 N959 1.384 1_545 S
N958 C954 1.427 . S
N958 C955 1.384 . S
N959 C951 1.427 . S
N959 C957 1.384 1_565 S
H960 C966 0.930 . S
H961 C970 0.930 . S
H962 C975 0.929 . S
H963 C973 0.929 . S
H964 C968 0.929 . S
H965 C974 0.929 . S
C966 H960 0.930 . S
C966 C967 1.367 . S
C966 C974 1.378 . S
C967 C966 1.367 . S
C967 C975 1.433 . S
C968 H964 0.929 . S
C968 C970 1.378 . S
C968 C972 1.350 . S
C969 C972 1.463 . S
C969 C974 1.350 . S
C969 N977 1.427 . S
C970 H961 0.930 . S
C970 C968 1.378 . S
C970 C971 1.367 . S
C971 C970 1.367 . S
C971 C973 1.433 . S
C972 C968 1.350 . S
C972 C969 1.463 . S
C972 N976 1.427 . S
C973 H963 0.929 . S
C973 C971 1.433 . S
C973 N976 1.384 . S
C974 H965 0.929 . S
C974 C966 1.378 . S
C974 C969 1.350 . S
C975 H962 0.929 . S
C975 C967 1.433 . S
C975 N977 1.384 . S
N976 C972 1.427 . S
N976 C973 1.384 . S
N977 C969 1.427 . S
N977 C975 1.384 . S
H978 C984 0.927 1_455 S
H979 C988 0.930 . S
H980 C993 0.919 1_455 S
H981 C991 0.929 . S
H982 C986 0.929 . S
H983 C992 0.929 . S
C984 H978 0.927 1_655 S
C984 C985 1.364 1_655 S
C984 C992 1.384 . S
C985 C984 1.364 1_455 S
C985 C993 1.423 1_455 S
C986 H982 0.929 . S
C986 C988 1.378 . S
C986 C990 1.350 . S
C987 C990 1.463 . S
C987 C992 1.350 . S
C987 N995 1.427 . S
C988 H979 0.930 . S
C988 C986 1.378 . S
C988 C989 1.367 . S
C989 C988 1.367 . S
C989 C991 1.433 . S
C990 C986 1.350 . S
C990 C987 1.463 . S
C990 N994 1.427 . S
C991 H981 0.929 . S
C991 C989 1.433 . S
C991 N994 1.384 . S
C992 H983 0.929 . S
C992 C984 1.384 . S
C992 C987 1.350 . S
C993 H980 0.919 1_655 S
C993 C985 1.423 1_655 S
C993 N995 1.406 . S
N994 C990 1.427 . S
N994 C991 1.384 . S
N995 C987 1.427 . S
N995 C993 1.406 . S
H996 C1002 0.930 . S
H997 C1006 0.930 . S
H998 C1011 0.929 . S
H999 C1009 0.929 . S
H1000 C1004 0.929 . S
H1001 C1010 0.929 . S
C1002 H996 0.930 . S
C1002 C1003 1.367 . S
C1002 C1010 1.378 . S
C1003 C1002 1.367 . S
C1003 C1011 1.433 . S
C1004 H1000 0.929 . S
C1004 C1006 1.378 . S
C1004 C1008 1.350 . S
C1005 C1008 1.463 . S
C1005 C1010 1.350 . S
C1005 N1013 1.427 . S
C1006 H997 0.930 . S
C1006 C1004 1.378 . S
C1006 C1007 1.367 . S
C1007 C1006 1.367 . S
C1007 C1009 1.433 . S
C1008 C1004 1.350 . S
C1008 C1005 1.463 . S
C1008 N1012 1.427 . S
C1009 H999 0.929 . S
C1009 C1007 1.433 . S
C1009 N1012 1.384 . S
C1010 H1001 0.929 . S
C1010 C1002 1.378 . S
C1010 C1005 1.350 . S
C1011 H998 0.929 . S
C1011 C1003 1.433 . S
C1011 N1013 1.384 . S
N1012 C1008 1.427 . S
N1012 C1009 1.384 . S
N1013 C1005 1.427 . S
N1013 C1011 1.384 . S
H1014 C1020 0.930 . S
H1015 C1024 0.930 . S
H1016 C1029 0.929 . S
H1017 C1027 0.929 . S
H1018 C1022 0.929 . S
H1019 C1028 0.929 . S
C1020 H1014 0.930 . S
C1020 C1021 1.367 . S
C1020 C1028 1.378 . S
C1021 C1020 1.367 . S
C1021 C1029 1.433 . S
C1022 H1018 0.929 . S
C1022 C1024 1.378 . S
C1022 C1026 1.350 . S
C1023 C1026 1.463 . S
C1023 C1028 1.350 . S
C1023 N1031 1.427 . S
C1024 H1015 0.930 . S
C1024 C1022 1.378 . S
C1024 C1025 1.367 . S
C1025 C1024 1.367 . S
C1025 C1027 1.433 . S
C1026 C1022 1.350 . S
C1026 C1023 1.463 . S
C1026 N1030 1.427 . S
C1027 H1017 0.929 . S
C1027 C1025 1.433 . S
C1027 N1030 1.384 . S
C1028 H1019 0.929 . S
C1028 C1020 1.378 . S
C1028 C1023 1.350 . S
C1029 H1016 0.929 . S
C1029 C1021 1.433 . S
C1029 N1031 1.384 . S
N1030 C1026 1.427 . S
N1030 C1027 1.384 . S
N1031 C1023 1.427 . S
N1031 C1029 1.384 . S
H1032 C1038 0.930 . S
H1033 C1042 0.930 . S
H1034 C1047 0.929 . S
H1035 C1045 0.929 . S
H1036 C1040 0.929 . S
H1037 C1046 0.929 . S
C1038 H1032 0.930 . S
C1038 C1039 1.367 . S
C1038 C1046 1.378 . S
C1039 C1038 1.367 . S
C1039 C1047 1.433 . S
C1040 H1036 0.929 . S
C1040 C1042 1.378 . S
C1040 C1044 1.350 . S
C1041 C1044 1.463 . S
C1041 C1046 1.350 . S
C1041 N1049 1.427 . S
C1042 H1033 0.930 . S
C1042 C1040 1.378 . S
C1042 C1043 1.367 . S
C1043 C1042 1.367 . S
C1043 C1045 1.433 . S
C1044 C1040 1.350 . S
C1044 C1041 1.463 . S
C1044 N1048 1.427 . S
C1045 H1035 0.929 . S
C1045 C1043 1.433 . S
C1045 N1048 1.384 . S
C1046 H1037 0.929 . S
C1046 C1038 1.378 . S
C1046 C1041 1.350 . S
C1047 H1034 0.929 . S
C1047 C1039 1.433 . S
C1047 N1049 1.384 . S
N1048 C1044 1.427 . S
N1048 C1045 1.384 . S
N1049 C1041 1.427 . S
N1049 C1047 1.384 . S
H1050 C1056 0.930 . S
H1051 C1060 0.930 . S
H1052 C1065 0.929 . S
H1053 C1063 0.929 . S
H1054 C1058 0.929 . S
H1055 C1064 0.929 . S
C1056 H1050 0.930 . S
C1056 C1057 1.367 . S
C1056 C1064 1.378 . S
C1057 C1056 1.367 . S
C1057 C1065 1.433 . S
C1058 H1054 0.929 . S
C1058 C1060 1.378 . S
C1058 C1062 1.350 . S
C1059 C1062 1.463 . S
C1059 C1064 1.350 . S
C1059 N1067 1.427 . S
C1060 H1051 0.930 . S
C1060 C1058 1.378 . S
C1060 C1061 1.367 . S
C1061 C1060 1.367 . S
C1061 C1063 1.433 . S
C1062 C1058 1.350 . S
C1062 C1059 1.463 . S
C1062 N1066 1.427 . S
C1063 H1053 0.929 . S
C1063 C1061 1.433 . S
C1063 N1066 1.384 . S
C1064 H1055 0.929 . S
C1064 C1056 1.378 . S
C1064 C1059 1.350 . S
C1065 H1052 0.929 . S
C1065 C1057 1.433 . S
C1065 N1067 1.384 . S
N1066 C1062 1.427 . S
N1066 C1063 1.384 . S
N1067 C1059 1.427 . S
N1067 C1065 1.384 . S
H1068 C1074 0.930 . S
H1069 C1078 0.930 . S
H1070 C1083 0.929 . S
H1071 C1081 0.929 . S
H1072 C1076 0.929 . S
H1073 C1082 0.929 . S
C1074 H1068 0.930 . S
C1074 C1075 1.367 1_554 S
C1074 C1082 1.378 1_655 S
C1075 C1074 1.367 1_556 S
C1075 C1083 1.433 . S
C1076 H1072 0.929 . S
C1076 C1078 1.378 . S
C1076 C1080 1.350 . S
C1077 C1080 1.463 . S
C1077 C1082 1.350 . S
C1077 N1085 1.431 1_554 S
C1078 H1069 0.930 . S
C1078 C1076 1.378 . S
C1078 C1079 1.367 . S
C1079 C1078 1.367 . S
C1079 C1081 1.433 . S
C1080 C1076 1.350 . S
C1080 C1077 1.463 . S
C1080 N1084 1.427 . S
C1081 H1071 0.929 . S
C1081 C1079 1.433 . S
C1081 N1084 1.384 . S
C1082 H1073 0.929 . S
C1082 C1074 1.378 1_455 S
C1082 C1077 1.350 . S
C1083 H1070 0.929 . S
C1083 C1075 1.433 . S
C1083 N1085 1.381 1_655 S
N1084 C1080 1.427 . S
N1084 C1081 1.384 . S
N1085 C1077 1.431 1_556 S
N1085 C1083 1.381 1_455 S
H1086 C1092 0.930 . S
H1087 C1096 0.930 . S
H1088 C1101 0.929 . S
H1089 C1099 0.929 . S
H1090 C1094 0.929 . S
H1091 C1100 0.929 . S
C1092 H1086 0.930 . S
C1092 C1093 1.367 . S
C1092 C1100 1.378 . S
C1093 C1092 1.367 . S
C1093 C1101 1.433 . S
C1094 H1090 0.929 . S
C1094 C1096 1.378 . S
C1094 C1098 1.350 . S
C1095 C1098 1.463 . S
C1095 C1100 1.350 . S
C1095 N1103 1.427 . S
C1096 H1087 0.930 . S
C1096 C1094 1.378 . S
C1096 C1097 1.367 . S
C1097 C1096 1.367 . S
C1097 C1099 1.433 . S
C1098 C1094 1.350 . S
C1098 C1095 1.463 . S
C1098 N1102 1.427 . S
C1099 H1089 0.929 . S
C1099 C1097 1.433 . S
C1099 N1102 1.384 . S
C1100 H1091 0.929 . S
C1100 C1092 1.378 . S
C1100 C1095 1.350 . S
C1101 H1088 0.929 . S
C1101 C1093 1.433 . S
C1101 N1103 1.384 . S
N1102 C1098 1.427 . S
N1102 C1099 1.384 . S
N1103 C1095 1.427 . S
N1103 C1101 1.384 . S
H1104 C1110 0.930 . S
H1105 C1114 0.930 . S
H1106 C1119 0.929 . S
H1107 C1117 0.929 . S
H1108 C1112 0.929 . S
H1109 C1118 0.929 . S
C1110 H1104 0.930 . S
C1110 C1111 1.367 . S
C1110 C1118 1.378 . S
C1111 C1110 1.367 . S
C1111 C1119 1.433 . S
C1112 H1108 0.929 . S
C1112 C1114 1.378 . S
C1112 C1116 1.350 . S
C1113 C1116 1.463 . S
C1113 C1118 1.350 . S
C1113 N1121 1.427 . S
C1114 H1105 0.930 . S
C1114 C1112 1.378 . S
C1114 C1115 1.367 . S
C1115 C1114 1.367 . S
C1115 C1117 1.433 . S
C1116 C1112 1.350 . S
C1116 C1113 1.463 . S
C1116 N1120 1.427 . S
C1117 H1107 0.929 . S
C1117 C1115 1.433 . S
C1117 N1120 1.384 . S
C1118 H1109 0.929 . S
C1118 C1110 1.378 . S
C1118 C1113 1.350 . S
C1119 H1106 0.929 . S
C1119 C1111 1.433 . S
C1119 N1121 1.384 . S
N1120 C1116 1.427 . S
N1120 C1117 1.384 . S
N1121 C1113 1.427 . S
N1121 C1119 1.384 . S
H1122 C1128 0.930 . S
H1123 C1132 0.930 . S
H1124 C1137 0.929 . S
H1125 C1135 0.929 . S
H1126 C1130 0.929 . S
H1127 C1136 0.929 . S
C1128 H1122 0.930 . S
C1128 C1129 1.367 . S
C1128 C1136 1.378 . S
C1129 C1128 1.367 . S
C1129 C1137 1.433 . S
C1130 H1126 0.929 . S
C1130 C1132 1.378 . S
C1130 C1134 1.350 . S
C1131 C1134 1.463 . S
C1131 C1136 1.350 . S
C1131 N1139 1.427 . S
C1132 H1123 0.930 . S
C1132 C1130 1.378 . S
C1132 C1133 1.367 . S
C1133 C1132 1.367 . S
C1133 C1135 1.433 . S
C1134 C1130 1.350 . S
C1134 C1131 1.463 . S
C1134 N1138 1.427 . S
C1135 H1125 0.929 . S
C1135 C1133 1.433 . S
C1135 N1138 1.384 . S
C1136 H1127 0.929 . S
C1136 C1128 1.378 . S
C1136 C1131 1.350 . S
C1137 H1124 0.929 . S
C1137 C1129 1.433 . S
C1137 N1139 1.384 . S
N1138 C1134 1.427 . S
N1138 C1135 1.384 . S
N1139 C1131 1.427 . S
N1139 C1137 1.384 . S
H1140 C1146 0.930 . S
H1141 C1150 0.930 . S
H1142 C1155 0.929 . S
H1143 C1153 0.929 . S
H1144 C1148 0.929 . S
H1145 C1154 0.929 . S
C1146 H1140 0.930 . S
C1146 C1147 1.367 1_556 S
C1146 C1154 1.378 . S
C1147 C1146 1.367 1_554 S
C1147 C1155 1.433 . S
C1148 H1144 0.929 . S
C1148 C1150 1.378 . S
C1148 C1152 1.350 . S
C1149 C1152 1.463 . S
C1149 C1154 1.350 . S
C1149 N1157 1.427 . S
C1150 H1141 0.930 . S
C1150 C1148 1.378 . S
C1150 C1151 1.367 . S
C1151 C1150 1.367 . S
C1151 C1153 1.433 . S
C1152 C1148 1.350 . S
C1152 C1149 1.463 . S
C1152 N1156 1.427 . S
C1153 H1143 0.929 . S
C1153 C1151 1.433 . S
C1153 N1156 1.384 . S
C1154 H1145 0.929 . S
C1154 C1146 1.378 . S
C1154 C1149 1.350 . S
C1155 H1142 0.929 . S
C1155 C1147 1.433 . S
C1155 N1157 1.384 1_554 S
N1156 C1152 1.427 . S
N1156 C1153 1.384 . S
N1157 C1149 1.427 . S
N1157 C1155 1.384 1_556 S
H1158 C1164 0.930 . S
H1159 C1168 0.930 . S
H1160 C1173 0.929 . S
H1161 C1171 0.929 . S
H1162 C1166 0.928 . S
H1163 C1172 0.929 . S
C1164 H1158 0.930 . S
C1164 C1165 1.367 . S
C1164 C1172 1.378 . S
C1165 C1164 1.367 . S
C1165 C1173 1.433 . S
C1166 H1162 0.928 . S
C1166 C1168 1.340 1_655 S
C1166 C1170 1.390 . S
C1167 C1170 1.463 . S
C1167 C1172 1.350 . S
C1167 N1175 1.427 . S
C1168 H1159 0.930 . S
C1168 C1166 1.340 1_455 S
C1168 C1169 1.367 . S
C1169 C1168 1.367 . S
C1169 C1171 1.433 1_455 S
C1170 C1166 1.390 . S
C1170 C1167 1.463 . S
C1170 N1174 1.427 . S
C1171 H1161 0.929 . S
C1171 C1169 1.433 1_655 S
C1171 N1174 1.384 . S
C1172 H1163 0.929 . S
C1172 C1164 1.378 . S
C1172 C1167 1.350 . S
C1173 H1160 0.929 . S
C1173 C1165 1.433 . S
C1173 N1175 1.384 . S
N1174 C1170 1.427 . S
N1174 C1171 1.384 . S
N1175 C1167 1.427 . S
N1175 C1173 1.384 . S
C319 C121 1.173 . S
C323 C4 1.174 . S
C337 C23 1.170 . S
C341 C140 1.169 . S
C355 C36 1.182 . S
C359 C147 1.183 . S
C373 C49 1.183 . S
C377 C108 1.183 . S
C391 C56 1.183 . S
C395 C199 1.183 . S
C409 C166 1.185 . S
C413 C69 1.185 . S
C427 C88 1.172 . S
C431 C179 1.173 . S
C445 C186 1.169 . S
C449 C101 1.169 . S
C463 C212 1.184 . S
C467 C238 1.185 . S
C481 C290 1.185 . S
C485 C225 1.185 . S
C499 C251 1.181 . S
C503 C309 1.180 . S
C517 C283 1.181 . S
C521 C270 1.180 . S
C535 C264 1.850 . S
C539 C10 1.855 . S
C553 C17 1.857 . S
C557 C231 1.862 . S
C571 C30 1.857 . S
C575 C244 1.862 . S
C589 C43 1.855 . S
C593 C257 1.850 . S
C607 C62 1.861 . S
C611 C303 1.858 . S
C625 C277 1.853 . S
C629 C75 1.861 . S
C643 C296 1.862 . S
C647 C82 1.857 . S
C661 C218 1.856 . S
C665 C95 1.850 . S
C679 C205 1.860 . S
C683 C114 1.860 . S
C697 C127 1.856 . S
C701 C160 1.850 . S
C715 C173 1.856 . S
C719 C134 1.850 . S
C733 C192 1.852 . S
C737 C153 1.852 . S
C751 C5 1.280 . S
C755 C211 1.313 . S
C769 C304 1.321 . S
C773 C16 1.278 . S
C787 C278 1.320 . S
C791 C29 1.277 . S
C805 C42 1.277 . S
C809 C289 1.319 . S
C823 C57 1.286 . S
C827 C224 1.323 . S
C841 C237 1.319 . S
C845 C70 1.277 . S
C859 C250 1.315 . S
C863 C81 1.295 . S
C877 C265 1.323 . S
C881 C94 1.283 . S
C895 C3 1.317 . S
C899 C109 1.294 . S
C913 C18 1.318 . S
C917 C122 1.293 . S
C931 C31 1.314 . S
C935 C133 1.295 . S
C949 C44 1.313 . S
C953 C148 1.295 . S
C967 C55 1.319 . S
C971 C159 1.277 . S
C985 C68 1.321 . S
C989 C172 1.291 . S
C1003 C187 1.277 . S
C1007 C83 1.320 . S
C1021 C96 1.314 . S
C1025 C200 1.280 . S
C1039 C107 1.310 . S
C1043 C213 1.290 . S
C1057 C226 1.294 . S
C1061 C161 1.311 . S
C1075 C174 1.316 . S
C1079 C239 1.277 . S
C1093 C252 1.277 . S
C1097 C185 1.321 . S
C1111 C263 1.288 . S
C1115 C198 1.310 . S
C1129 C276 1.295 . S
C1133 C135 1.312 . S
C1147 C146 1.315 . S
C1151 C291 1.278 . S
C1165 C302 1.282 . S
C1169 C120 1.323 . S
