# Generated by pormake.
# Topology umo, (4)-cn, num edge types: 1
# Building blocks:
#     Node 0, Type 0, BuildingBlock: CEKHIL_clean_sbu_0, # of connection points: 4
#     Node 1, Type 0, BuildingBlock: CEKHIL_clean_sbu_0, # of connection points: 4
#     Node 2, Type 0, BuildingBlock: CEKHIL_clean_sbu_0, # of connection points: 4
#     Node 3, Type 0, BuildingBlock: CEKHIL_clean_sbu_0, # of connection points: 4
#     Node 4, Type 0, BuildingBlock: CEKHIL_clean_sbu_0, # of connection points: 4
#     Node 5, Type 0, BuildingBlock: CEKHIL_clean_sbu_0, # of connection points: 4
#     Node 6, Type 0, BuildingBlock: CEKHIL_clean_sbu_0, # of connection points: 4
#     Node 7, Type 0, BuildingBlock: CEKHIL_clean_sbu_0, # of connection points: 4
#     Node 8, Type 0, BuildingBlock: CEKHIL_clean_sbu_0, # of connection points: 4
#     Node 9, Type 0, BuildingBlock: CEKHIL_clean_sbu_0, # of connection points: 4
#     Node 10, Type 0, BuildingBlock: CEKHIL_clean_sbu_0, # of connection points: 4
#     Node 11, Type 0, BuildingBlock: CEKHIL_clean_sbu_0, # of connection points: 4
#     Edge 12, Type (0, 0), BuildingBlock: TEMPAE_clean_linker_10, # of connection points: 2
#     Edge 13, Type (0, 0), BuildingBlock: TEMPAE_clean_linker_10, # of connection points: 2
#     Edge 14, Type (0, 0), BuildingBlock: TEMPAE_clean_linker_10, # of connection points: 2
#     Edge 15, Type (0, 0), BuildingBlock: TEMPAE_clean_linker_10, # of connection points: 2
#     Edge 16, Type (0, 0), BuildingBlock: TEMPAE_clean_linker_10, # of connection points: 2
#     Edge 17, Type (0, 0), BuildingBlock: TEMPAE_clean_linker_10, # of connection points: 2
#     Edge 18, Type (0, 0), BuildingBlock: TEMPAE_clean_linker_10, # of connection points: 2
#     Edge 19, Type (0, 0), BuildingBlock: TEMPAE_clean_linker_10, # of connection points: 2
#     Edge 20, Type (0, 0), BuildingBlock: TEMPAE_clean_linker_10, # of connection points: 2
#     Edge 21, Type (0, 0), BuildingBlock: TEMPAE_clean_linker_10, # of connection points: 2
#     Edge 22, Type (0, 0), BuildingBlock: TEMPAE_clean_linker_10, # of connection points: 2
#     Edge 23, Type (0, 0), BuildingBlock: TEMPAE_clean_linker_10, # of connection points: 2
#     Edge 24, Type (0, 0), BuildingBlock: TEMPAE_clean_linker_10, # of connection points: 2
#     Edge 25, Type (0, 0), BuildingBlock: TEMPAE_clean_linker_10, # of connection points: 2
#     Edge 26, Type (0, 0), BuildingBlock: TEMPAE_clean_linker_10, # of connection points: 2
#     Edge 27, Type (0, 0), BuildingBlock: TEMPAE_clean_linker_10, # of connection points: 2
#     Edge 28, Type (0, 0), BuildingBlock: TEMPAE_clean_linker_10, # of connection points: 2
#     Edge 29, Type (0, 0), BuildingBlock: TEMPAE_clean_linker_10, # of connection points: 2
#     Edge 30, Type (0, 0), BuildingBlock: TEMPAE_clean_linker_10, # of connection points: 2
#     Edge 31, Type (0, 0), BuildingBlock: TEMPAE_clean_linker_10, # of connection points: 2
#     Edge 32, Type (0, 0), BuildingBlock: TEMPAE_clean_linker_10, # of connection points: 2
#     Edge 33, Type (0, 0), BuildingBlock: TEMPAE_clean_linker_10, # of connection points: 2
#     Edge 34, Type (0, 0), BuildingBlock: TEMPAE_clean_linker_10, # of connection points: 2
#     Edge 35, Type (0, 0), BuildingBlock: TEMPAE_clean_linker_10, # of connection points: 2
# Relax obj value: 0.181
# Max RMSD: 0.255
# Mean RMSD: 0.255
data_MOF--net-umo--node1-CEKHIL_clean_sbu_0--edge1-TEMPAE_clean_linker_10
_symmetry_space_group_name_H-M    P1
_symmetry_Int_Tables_number       1
_symmetry_cell_setting            triclinic
loop_
_symmetry_equiv_pos_as_xyz
'x, y, z'
_cell_length_a     48.668064
_cell_length_b     48.690295
_cell_length_c     36.493732
_cell_angle_alpha  90.002494
_cell_angle_beta   90.021199
_cell_angle_gamma 119.97638
loop_
_atom_site_label
_atom_site_type_symbol
_atom_site_fract_x
_atom_site_fract_y
_atom_site_fract_z
_atom_type_partial_charge
Co0 Co 0.15195 0.52352 0.38581 0.0
O1 O 0.10858 0.49036 0.38425 0.0
O2 O 0.12527 0.54202 0.38177 0.0
C3 C 0.1717 0.50399 0.34373 0.0
O4 O 0.194 0.56415 0.38606 0.0
Co5 Co 0.20391 0.51093 0.41483 0.0
O6 O 0.23266 0.55199 0.39079 0.0
C7 C 0.1671 0.52555 0.46771 0.0
C8 C 0.10187 0.51298 0.3814 0.0
C9 C 0.22329 0.57179 0.38519 0.0
O10 O 0.15033 0.52593 0.44075 0.0
O11 O 0.1894 0.51905 0.4636 0.0
O12 O 0.15685 0.51873 0.33407 0.0
O13 O 0.17031 0.49742 0.37849 0.0
Co14 Co 0.61832 0.15119 0.55908 0.0
O15 O 0.60688 0.10752 0.55599 0.0
O16 O 0.57298 0.12561 0.55538 0.0
C17 C 0.65716 0.1704 0.51636 0.0
O18 O 0.62089 0.19369 0.56136 0.0
Co19 Co 0.68394 0.20172 0.58713 0.0
O20 O 0.67183 0.23185 0.56659 0.0
C21 C 0.63216 0.16649 0.64049 0.0
C22 C 0.5778 0.10171 0.55365 0.0
C23 C 0.64263 0.2229 0.56198 0.0
O24 O 0.61484 0.14888 0.61408 0.0
O25 O 0.66096 0.18856 0.63581 0.0
O26 O 0.62751 0.15686 0.5072 0.0
O27 O 0.66259 0.16837 0.55089 0.0
Co28 Co 0.47045 0.63134 0.7216 0.0
O29 O 0.50343 0.62084 0.72015 0.0
O30 O 0.45167 0.58619 0.71751 0.0
C31 C 0.4904 0.67051 0.67938 0.0
O32 O 0.42993 0.63299 0.72167 0.0
Co33 Co 0.48315 0.69585 0.7504 0.0
O34 O 0.442 0.68373 0.72667 0.0
C35 C 0.46791 0.64434 0.80339 0.0
C36 C 0.48065 0.59162 0.71704 0.0
C37 C 0.42221 0.65458 0.721 0.0
O38 O 0.46786 0.62729 0.77652 0.0
O39 O 0.47444 0.67313 0.79922 0.0
O40 O 0.47538 0.64091 0.66991 0.0
O41 O 0.49684 0.67579 0.71419 0.0
Co42 Co 0.83855 0.46075 0.89058 0.0
O43 O 0.88233 0.49234 0.88652 0.0
O44 O 0.86347 0.44024 0.88637 0.0
C45 C 0.81909 0.48058 0.84844 0.0
O46 O 0.79557 0.42142 0.89393 0.0
Co47 Co 0.78981 0.47777 0.92023 0.0
O48 O 0.75868 0.43595 0.89959 0.0
C49 C 0.82565 0.46119 0.97256 0.0
C50 C 0.88768 0.46878 0.88438 0.0
C51 C 0.76665 0.41498 0.8948 0.0
O52 O 0.84198 0.46015 0.94549 0.0
O53 O 0.80404 0.46868 0.96862 0.0
O54 O 0.83195 0.46393 0.83884 0.0
O55 O 0.82208 0.48846 0.88288 0.0
Co56 Co 0.36013 0.83665 0.05248 0.0
O57 O 0.36796 0.8793 0.05401 0.0
O58 O 0.40474 0.86529 0.04729 0.0
C59 C 0.31976 0.81691 0.01172 0.0
O60 O 0.36154 0.79615 0.04874 0.0
Co61 Co 0.29794 0.78089 0.08114 0.0
O62 O 0.31209 0.75501 0.0537 0.0
C63 C 0.34955 0.81815 0.13377 0.0
C64 C 0.39756 0.8876 0.04903 0.0
C65 C 0.34145 0.76646 0.04677 0.0
O66 O 0.36565 0.83636 0.10715 0.0
O67 O 0.32121 0.79494 0.12963 0.0
O68 O 0.34904 0.83335 1.00121 0.0
O69 O 0.31531 0.8163 0.04695 0.0
Co70 Co 0.52286 0.36869 0.22675 0.0
O71 O 0.49165 0.38154 0.22457 0.0
O72 O 0.54385 0.414 0.22161 0.0
C73 C 0.50084 0.32889 0.18554 0.0
O74 O 0.56187 0.36432 0.22744 0.0
Co75 Co 0.50621 0.30321 0.25682 0.0
O76 O 0.54689 0.31286 0.23359 0.0
C77 C 0.52451 0.35615 0.30881 0.0
C78 C 0.51545 0.41017 0.22101 0.0
C79 C 0.56789 0.34155 0.22744 0.0
O80 O 0.52573 0.37354 0.28167 0.0
O81 O 0.51614 0.32681 0.30507 0.0
O82 O 0.51751 0.35816 0.17516 0.0
O83 O 0.49435 0.32456 0.22035 0.0
Co84 Co 0.46416 0.8389 0.45061 0.0
O85 O 0.49583 0.88274 0.45401 0.0
O86 O 0.44371 0.86384 0.45447 0.0
C87 C 0.48417 0.82 0.49318 0.0
O88 O 0.4247 0.79603 0.44816 0.0
Co89 Co 0.48048 0.78943 0.42205 0.0
O90 O 0.43848 0.7586 0.44256 0.0
C91 C 0.46391 0.82474 0.36889 0.0
C92 C 0.47224 0.88805 0.45637 0.0
C93 C 0.41784 0.76699 0.44749 0.0
O94 O 0.46315 0.84154 0.39561 0.0
O95 O 0.47129 0.80309 0.37333 0.0
O96 O 0.46763 0.83306 0.50244 0.0
O97 O 0.49185 0.82239 0.4587 0.0
Co98 Co 0.62635 0.46784 0.62614 0.0
O99 O 0.6171 0.50171 0.62649 0.0
O100 O 0.58142 0.45038 0.63095 0.0
C101 C 0.66629 0.48785 0.66743 0.0
O102 O 0.62659 0.42664 0.62758 0.0
Co103 Co 0.68982 0.47775 0.59682 0.0
O104 O 0.67681 0.4371 0.62232 0.0
C105 C 0.63814 0.46335 0.54431 0.0
C106 C 0.58766 0.47961 0.63041 0.0
C107 C 0.64757 0.41812 0.62876 0.0
O108 O 0.62147 0.46392 0.57127 0.0
O109 O 0.66678 0.46931 0.54827 0.0
O110 O 0.63687 0.47398 0.67766 0.0
O111 O 0.67101 0.49326 0.63242 0.0
Co112 Co 0.15079 0.61988 0.78585 0.0
O113 O 0.10676 0.60664 0.79019 0.0
O114 O 0.12691 0.57447 0.79049 0.0
C115 C 0.16967 0.65935 0.82757 0.0
O116 O 0.19428 0.62472 0.78242 0.0
Co117 Co 0.19807 0.6858 0.75543 0.0
O118 O 0.23015 0.67636 0.776 0.0
C119 C 0.16264 0.63291 0.70362 0.0
C120 C 0.10223 0.57804 0.79258 0.0
C121 C 0.22295 0.64771 0.78131 0.0
O122 O 0.14708 0.61544 0.73097 0.0
O123 O 0.18363 0.66225 0.7072 0.0
O124 O 0.15755 0.63 0.83748 0.0
O125 O 0.16624 0.6639 0.79315 0.0
Co126 Co 0.5163 0.15765 0.95531 0.0
O127 O 0.48234 0.11456 0.95463 0.0
O128 O 0.53355 0.13011 0.96097 0.0
C129 C 0.49488 0.17672 0.99584 0.0
O130 O 0.55759 0.1989 0.95818 0.0
Co131 Co 0.5078 0.21182 0.9256 0.0
O132 O 0.5482 0.23924 0.95165 0.0
C133 C 0.5232 0.17491 0.87368 0.0
C134 C 0.50431 0.10718 0.95972 0.0
C135 C 0.56664 0.22851 0.95899 0.0
O136 O 0.5217 0.1573 0.90068 0.0
O137 O 0.51737 0.1977 0.87733 0.0
O138 O 0.50872 0.16126 0.00649 0.0
O139 O 0.49076 0.17694 0.96059 0.0
Co140 Co 0.37053 0.53009 0.11974 0.0
O141 O 0.38096 0.49717 0.12355 0.0
O142 O 0.41573 0.54891 0.12428 0.0
C143 C 0.33106 0.51116 0.16167 0.0
O144 O 0.36906 0.5706 0.11681 0.0
Co145 Co 0.30574 0.51647 0.09026 0.0
O146 O 0.31854 0.55899 0.11041 0.0
C147 C 0.35788 0.53152 0.03793 0.0
C148 C 0.41022 0.51995 0.12619 0.0
C149 C 0.3478 0.57872 0.11548 0.0
O150 O 0.37472 0.53107 0.0648 0.0
O151 O 0.32919 0.52537 0.04199 0.0
O152 O 0.36059 0.52683 0.17144 0.0
O153 O 0.32606 0.50378 0.12711 0.0
Co154 Co 0.8337 0.36159 0.28977 0.0
O155 O 0.87718 0.37252 0.29379 0.0
O156 O 0.85961 0.40685 0.29387 0.0
C157 C 0.81331 0.32254 0.33211 0.0
O158 O 0.79131 0.35937 0.28664 0.0
Co159 Co 0.7836 0.29663 0.25999 0.0
O160 O 0.75333 0.30839 0.28087 0.0
C161 C 0.82095 0.34837 0.20764 0.0
C162 C 0.88329 0.40168 0.29597 0.0
C163 C 0.76213 0.33749 0.28593 0.0
O164 O 0.83717 0.36548 0.23489 0.0
O165 O 0.79872 0.31952 0.21143 0.0
O166 O 0.82715 0.35215 0.34146 0.0
O167 O 0.81591 0.31723 0.29766 0.0
C168 C 0.27673 0.61623 0.37013 0.0
C169 C 0.24715 0.60541 0.38649 0.0
C170 C 0.30213 0.6462 0.37877 0.0
C171 C 0.29781 0.66488 0.4054 0.0
C172 C 0.26739 0.65492 0.42004 0.0
C173 C 0.24217 0.62533 0.40989 0.0
C174 C 0.3341 0.65677 0.36155 0.0
C175 C 0.26208 0.67392 0.44902 0.0
C176 C 0.3729 0.71304 0.45937 0.0
C177 C 0.38458 0.74279 0.44319 0.0
C178 C 0.34324 0.68788 0.44917 0.0
C179 C 0.32585 0.69258 0.42113 0.0
C180 C 0.33694 0.72303 0.406 0.0
C181 C 0.36611 0.74801 0.41773 0.0
C182 C 0.33147 0.65585 0.46679 0.0
C183 C 0.31949 0.72869 0.37536 0.0
H184 H 0.28032 0.60068 0.35193 0.0
H185 H 0.21924 0.61664 0.42286 0.0
H186 H 0.34525 0.68187 0.35265 0.0
H187 H 0.35005 0.65512 0.38205 0.0
H188 H 0.3323 0.64192 0.33754 0.0
H189 H 0.23646 0.66537 0.45337 0.0
H190 H 0.27238 0.67189 0.47534 0.0
H191 H 0.27416 0.69942 0.44166 0.0
H192 H 0.38742 0.70926 0.47901 0.0
H193 H 0.37561 0.77105 0.40479 0.0
H194 H 0.33276 0.63941 0.44674 0.0
H195 H 0.30628 0.6455 0.47513 0.0
H196 H 0.34571 0.65724 0.49125 0.0
H197 H 0.3221 0.71791 0.34975 0.0
H198 H 0.32885 0.75437 0.37035 0.0
H199 H 0.29376 0.71727 0.3814 0.0
C200 C 0.64954 0.27614 0.55109 0.0
C201 C 0.63294 0.24645 0.56775 0.0
C202 C 0.64522 0.30102 0.56293 0.0
C203 C 0.6249 0.29613 0.59309 0.0
C204 C 0.60687 0.26569 0.60873 0.0
C205 C 0.61077 0.24096 0.59538 0.0
C206 C 0.66398 0.33304 0.54477 0.0
C207 C 0.58573 0.25979 0.64156 0.0
C208 C 0.65602 0.37321 0.64338 0.0
C209 C 0.63672 0.3842 0.62884 0.0
C210 C 0.65027 0.34279 0.63488 0.0
C211 C 0.62541 0.32376 0.61029 0.0
C212 C 0.60423 0.33373 0.59816 0.0
C213 C 0.60991 0.36384 0.6081 0.0
C214 C 0.67251 0.33221 0.64957 0.0
C215 C 0.57774 0.31423 0.57158 0.0
H216 H 0.66673 0.28014 0.52985 0.0
H217 H 0.59845 0.21797 0.60868 0.0
H218 H 0.64842 0.34308 0.53864 0.0
H219 H 0.68288 0.34969 0.56363 0.0
H220 H 0.6753 0.33175 0.51889 0.0
H221 H 0.56929 0.23408 0.64618 0.0
H222 H 0.60069 0.26969 0.66638 0.0
H223 H 0.57161 0.27181 0.63843 0.0
H224 H 0.67656 0.38901 0.6597 0.0
H225 H 0.59509 0.37251 0.59666 0.0
H226 H 0.68885 0.33369 0.62748 0.0
H227 H 0.65905 0.30718 0.65882 0.0
H228 H 0.68697 0.34722 0.67282 0.0
H229 H 0.58793 0.3161 0.54386 0.0
H230 H 0.56028 0.32257 0.56997 0.0
H231 H 0.56512 0.28882 0.57934 0.0
C232 C 0.24419 0.61689 0.75168 0.0
C233 C 0.24816 0.64004 0.77727 0.0
C234 C 0.27006 0.61399 0.74039 0.0
C235 C 0.30012 0.63409 0.75609 0.0
C236 C 0.3036 0.6557 0.78419 0.0
C237 C 0.27756 0.6589 0.79394 0.0
C238 C 0.26569 0.59136 0.70968 0.0
C239 C 0.3352 0.6767 0.80244 0.0
C240 C 0.36885 0.6197 0.74596 0.0
C241 C 0.38855 0.64468 0.72256 0.0
C242 C 0.33902 0.61481 0.75593 0.0
C243 C 0.32857 0.63481 0.74108 0.0
C244 C 0.34717 0.65807 0.71468 0.0
C245 C 0.3774 0.66319 0.70625 0.0
C246 C 0.32017 0.59033 0.78481 0.0
C247 C 0.33611 0.67901 0.69728 0.0
H248 H 0.22139 0.60273 0.73838 0.0
H249 H 0.28036 0.67678 0.81368 0.0
H250 H 0.27714 0.6051 0.68448 0.0
H251 H 0.27728 0.57733 0.71639 0.0
H252 H 0.24025 0.57479 0.70362 0.0
H253 H 0.33291 0.6891 0.8268 0.0
H254 H 0.34622 0.66254 0.81107 0.0
H255 H 0.35156 0.69482 0.78267 0.0
H256 H 0.37782 0.6057 0.75895 0.0
H257 H 0.39281 0.68244 0.68811 0.0
H258 H 0.29481 0.57622 0.77696 0.0
H259 H 0.32139 0.60253 0.81096 0.0
H260 H 0.32943 0.57391 0.78971 0.0
H261 H 0.31117 0.66463 0.68788 0.0
H262 H 0.35114 0.69249 0.67358 0.0
H263 H 0.33696 0.69622 0.71782 0.0
C264 C 0.74628 0.36492 0.9285 0.0
C265 C 0.74216 0.38206 0.9003 0.0
C266 C 0.72058 0.33678 0.94147 0.0
C267 C 0.69059 0.32534 0.92486 0.0
C268 C 0.6871 0.34118 0.89415 0.0
C269 C 0.71293 0.36991 0.8827 0.0
C270 C 0.72499 0.32103 0.97484 0.0
C271 C 0.65562 0.32891 0.87492 0.0
C272 C 0.62088 0.24371 0.93948 0.0
C273 C 0.60075 0.25103 0.95941 0.0
C274 C 0.65141 0.26747 0.92986 0.0
C275 C 0.66206 0.29885 0.94153 0.0
C276 C 0.64312 0.30559 0.96521 0.0
C277 C 0.61227 0.28157 0.97336 0.0
C278 C 0.67072 0.25952 0.90409 0.0
C279 C 0.65437 0.33867 0.97938 0.0
H280 H 0.76895 0.37488 0.94248 0.0
H281 H 0.71002 0.38347 0.86101 0.0
H282 H 0.71439 0.3261 0.999 0.0
H283 H 0.71269 0.29492 0.97144 0.0
H284 H 0.75046 0.32983 0.98074 0.0
H285 H 0.65799 0.34161 0.84878 0.0
H286 H 0.64486 0.30321 0.86903 0.0
H287 H 0.639 0.33198 0.89297 0.0
H288 H 0.6118 0.22004 0.92843 0.0
H289 H 0.59663 0.28702 0.98898 0.0
H290 H 0.69604 0.27176 0.9123 0.0
H291 H 0.66948 0.26777 0.8761 0.0
H292 H 0.66172 0.2336 0.90291 0.0
H293 H 0.67919 0.34962 0.98931 0.0
H294 H 0.63918 0.3388 1.00202 0.0
H295 H 0.65386 0.35368 0.95681 0.0
C296 C 0.33501 0.71404 0.03121 0.0
C297 C 0.35363 0.74443 0.04573 0.0
C298 C 0.34164 0.68996 0.03978 0.0
C299 C 0.36668 0.69649 0.06441 0.0
C300 C 0.38745 0.72787 0.07608 0.0
C301 C 0.3809 0.75172 0.06606 0.0
C302 C 0.31989 0.65691 0.02548 0.0
C303 C 0.41422 0.73567 0.10255 0.0
C304 C 0.34196 0.62579 0.12544 0.0
C305 C 0.35828 0.61212 0.10943 0.0
C306 C 0.34676 0.655 0.11294 0.0
C307 C 0.36728 0.66982 0.08276 0.0
C308 C 0.38522 0.65695 0.06797 0.0
C309 C 0.38082 0.62831 0.08198 0.0
C310 C 0.32811 0.66877 0.13027 0.0
C311 C 0.40668 0.67159 0.03526 0.0
H312 H 0.31416 0.70865 0.01513 0.0
H313 H 0.39528 0.77531 0.0774 0.0
H314 H 0.33372 0.64555 0.01682 0.0
H315 H 0.30351 0.64218 0.04761 0.0
H316 H 0.30545 0.65697 1.00191 0.0
H317 H 0.4317 0.76148 0.10299 0.0
H318 H 0.40434 0.72839 0.13056 0.0
H319 H 0.42674 0.72258 0.09561 0.0
H320 H 0.32452 0.61299 0.14659 0.0
H321 H 0.39298 0.61723 0.06921 0.0
H322 H 0.30926 0.66625 0.11114 0.0
H323 H 0.34375 0.69444 0.1358 0.0
H324 H 0.31673 0.6567 0.15637 0.0
H325 H 0.39199 0.66526 0.01004 0.0
H326 H 0.4237 0.66282 0.03221 0.0
H327 H 0.42015 0.69782 0.03722 0.0
C328 C 0.743 0.36993 0.25578 0.0
C329 C 0.73817 0.3469 0.28196 0.0
C330 C 0.71795 0.37426 0.24465 0.0
C331 C 0.6879 0.35578 0.2611 0.0
C332 C 0.68368 0.33435 0.28974 0.0
C333 C 0.70884 0.32965 0.29933 0.0
C334 C 0.72304 0.39662 0.21335 0.0
C335 C 0.65213 0.31508 0.30876 0.0
C336 C 0.62205 0.37456 0.25131 0.0
C337 C 0.60106 0.34957 0.22869 0.0
C338 C 0.65141 0.37799 0.26085 0.0
C339 C 0.66005 0.35647 0.24637 0.0
C340 C 0.64016 0.3331 0.22071 0.0
C341 C 0.61044 0.32951 0.21269 0.0
C342 C 0.67168 0.40268 0.28892 0.0
C343 C 0.64929 0.31052 0.20369 0.0
H344 H 0.76571 0.3828 0.24195 0.0
H345 H 0.70537 0.31183 0.31949 0.0
H346 H 0.71073 0.38263 0.18858 0.0
H347 H 0.71275 0.41188 0.21978 0.0
H348 H 0.74858 0.41201 0.20671 0.0
H349 H 0.654 0.3027 0.33339 0.0
H350 H 0.64249 0.33053 0.31716 0.0
H351 H 0.63484 0.29703 0.28959 0.0
H352 H 0.61445 0.38979 0.26404 0.0
H353 H 0.59405 0.31031 0.19509 0.0
H354 H 0.69694 0.41546 0.28045 0.0
H355 H 0.67026 0.39078 0.31537 0.0
H356 H 0.6638 0.42024 0.2935 0.0
H357 H 0.67414 0.32359 0.19371 0.0
H358 H 0.6335 0.29706 0.18047 0.0
H359 H 0.64779 0.2933 0.22464 0.0
C360 C 0.17744 0.63372 0.63716 0.0
C361 C 0.15878 0.61696 0.66746 0.0
C362 C 0.17733 0.61788 0.60479 0.0
C363 C 0.1583 0.58442 0.60261 0.0
C364 C 0.13871 0.56749 0.63261 0.0
C365 C 0.13905 0.5839 0.66445 0.0
C366 C 0.19826 0.6369 0.57323 0.0
C367 C 0.11811 0.53183 0.63156 0.0
C368 C 0.13951 0.54611 0.50803 0.0
C369 C 0.16249 0.53683 0.50405 0.0
C370 C 0.13766 0.56121 0.53999 0.0
C371 C 0.15911 0.56707 0.56912 0.0
C372 C 0.18157 0.55673 0.56599 0.0
C373 C 0.18305 0.54184 0.53353 0.0
C374 C 0.11336 0.57181 0.54209 0.0
C375 C 0.20464 0.56218 0.5966 0.0
H376 H 0.19286 0.65918 0.63903 0.0
H377 H 0.12456 0.5705 0.68755 0.0
H378 H 0.21645 0.62996 0.56814 0.0
H379 H 0.18397 0.63176 0.54784 0.0
H380 H 0.21051 0.66283 0.5785 0.0
H381 H 0.10342 0.52224 0.65665 0.0
H382 H 0.10215 0.5245 0.6074 0.0
H383 H 0.13325 0.52086 0.62869 0.0
H384 H 0.12343 0.54249 0.4856 0.0
H385 H 0.20098 0.53496 0.53089 0.0
H386 H 0.12556 0.59802 0.5445 0.0
H387 H 0.09842 0.56183 0.56687 0.0
H388 H 0.09767 0.56452 0.51764 0.0
H389 H 0.2204 0.588 0.60097 0.0
H390 H 0.21959 0.55138 0.59074 0.0
H391 H 0.19162 0.55212 0.62259 0.0
C392 C 0.58349 0.14344 0.68022 0.0
C393 C 0.61642 0.16372 0.67656 0.0
C394 C 0.56711 0.14399 0.71169 0.0
C395 C 0.58396 0.16506 0.74069 0.0
C396 C 0.61733 0.18475 0.73789 0.0
C397 C 0.63311 0.18395 0.70587 0.0
C398 C 0.53155 0.12267 0.7134 0.0
C399 C 0.63629 0.20724 0.76839 0.0
C400 C 0.54007 0.19004 0.80775 0.0
C401 C 0.5356 0.17041 0.83804 0.0
C402 C 0.5553 0.18822 0.77571 0.0
C403 C 0.56664 0.16648 0.77391 0.0
C404 C 0.56159 0.14618 0.804 0.0
C405 C 0.54606 0.14824 0.83545 0.0
C406 C 0.55982 0.21002 0.74401 0.0
C407 C 0.5734 0.12278 0.80341 0.0
H408 H 0.57012 0.12778 0.65785 0.0
H409 H 0.65846 0.19985 0.70347 0.0
H410 H 0.52488 0.10757 0.73825 0.0
H411 H 0.51996 0.13729 0.71541 0.0
H412 H 0.52201 0.10708 0.68897 0.0
H413 H 0.66218 0.21992 0.76279 0.0
H414 H 0.62866 0.22505 0.77222 0.0
H415 H 0.63182 0.19409 0.79457 0.0
H416 H 0.53228 0.20732 0.8093 0.0
H417 H 0.54297 0.13296 0.85853 0.0
H418 H 0.54966 0.196 0.71861 0.0
H419 H 0.5855 0.22611 0.73903 0.0
H420 H 0.54851 0.22464 0.74901 0.0
H421 H 0.56336 0.10669 0.77952 0.0
H422 H 0.56706 0.10821 0.82873 0.0
H423 H 0.59958 0.13565 0.80037 0.0
C424 C 0.35782 0.5473 0.97203 0.0
C425 C 0.37407 0.54391 1.00195 0.0
C426 C 0.37403 0.5633 0.93996 0.0
C427 C 0.40738 0.57655 0.9377 0.0
C428 C 0.42378 0.57249 0.96734 0.0
C429 C 0.40698 0.55614 0.99888 0.0
C430 C 0.35554 0.56669 0.90877 0.0
C431 C 0.4593 0.5863 0.96622 0.0
C432 C 0.4456 0.59573 0.8431 0.0
C433 C 0.45614 0.6283 0.83959 0.0
C434 C 0.43007 0.57879 0.87488 0.0
C435 C 0.42511 0.59468 0.90437 0.0
C436 C 0.43672 0.62775 0.90174 0.0
C437 C 0.45195 0.64412 0.86939 0.0
C438 C 0.41803 0.54358 0.87639 0.0
C439 C 0.43231 0.64569 0.93278 0.0
H440 H 0.33249 0.53816 0.97398 0.0
H441 H 0.42001 0.55397 0.02172 0.0
H442 H 0.36355 0.59213 0.90425 0.0
H443 H 0.36005 0.55744 0.88305 0.0
H444 H 0.32959 0.55391 0.91408 0.0
H445 H 0.46846 0.5804 0.99111 0.0
H446 H 0.46606 0.5774 0.94184 0.0
H447 H 0.47118 0.61248 0.96371 0.0
H448 H 0.44852 0.58304 0.82043 0.0
H449 H 0.4598 0.66917 0.86712 0.0
H450 H 0.3918 0.5305 0.87893 0.0
H451 H 0.42763 0.53775 0.90089 0.0
H452 H 0.42462 0.53488 0.85163 0.0
H453 H 0.40664 0.63664 0.93726 0.0
H454 H 0.4441 0.67157 0.92733 0.0
H455 H 0.44198 0.64186 0.95859 0.0
C456 C 0.84818 0.39694 0.168 0.0
C457 C 0.82587 0.36444 0.17137 0.0
C458 C 0.84996 0.41402 0.13619 0.0
C459 C 0.82919 0.39832 0.10656 0.0
C460 C 0.80749 0.3653 0.10904 0.0
C461 C 0.80601 0.34879 0.1414 0.0
C462 C 0.87337 0.44917 0.13482 0.0
C463 C 0.78521 0.34756 0.07786 0.0
C464 C 0.80988 0.44596 0.03857 0.0
C465 C 0.82941 0.44901 0.0087 0.0
C466 C 0.80997 0.43004 0.07079 0.0
C467 C 0.82988 0.41658 0.07323 0.0
C468 C 0.85032 0.42039 0.04369 0.0
C469 C 0.84997 0.43663 0.012 0.0
C470 C 0.78812 0.42691 0.10188 0.0
C471 C 0.87186 0.40638 0.04503 0.0
H472 H 0.86368 0.40948 0.19081 0.0
H473 H 0.7886 0.3238 0.14356 0.0
H474 H 0.88881 0.45493 0.11035 0.0
H475 H 0.86043 0.46245 0.13232 0.0
H476 H 0.88864 0.45767 0.15962 0.0
H477 H 0.77092 0.32168 0.08322 0.0
H478 H 0.76879 0.35684 0.07329 0.0
H479 H 0.79879 0.35134 0.05213 0.0
H480 H 0.7938 0.45522 0.03646 0.0
H481 H 0.86514 0.43861 0.98923 0.0
H482 H 0.80184 0.43602 0.12765 0.0
H483 H 0.77047 0.40153 0.10636 0.0
H484 H 0.77522 0.43994 0.09648 0.0
H485 H 0.88738 0.41513 0.06953 0.0
H486 H 0.88704 0.41224 0.02026 0.0
H487 H 0.8574 0.3802 0.04744 0.0
C488 C 0.39861 0.84502 0.17286 0.0
C489 C 0.36615 0.82247 0.16961 0.0
C490 C 0.41592 0.84697 0.20456 0.0
C491 C 0.40053 0.82612 0.2342 0.0
C492 C 0.3676 0.80398 0.23171 0.0
C493 C 0.35086 0.80232 0.19947 0.0
C494 C 0.45097 0.87084 0.2059 0.0
C495 C 0.35016 0.78158 0.26289 0.0
C496 C 0.44903 0.80849 0.30287 0.0
C497 C 0.45155 0.82797 0.33259 0.0
C498 C 0.43304 0.80808 0.27048 0.0
C499 C 0.41894 0.82741 0.26769 0.0
C500 C 0.4222 0.84778 0.29709 0.0
C501 C 0.43854 0.84795 0.32896 0.0
C502 C 0.43052 0.78634 0.23957 0.0
C503 C 0.4075 0.8687 0.29542 0.0
H504 H 0.4109 0.8607 0.1501 0.0
H505 H 0.3259 0.78474 0.19741 0.0
H506 H 0.45642 0.8865 0.23011 0.0
H507 H 0.46465 0.85833 0.20889 0.0
H508 H 0.45931 0.88583 0.1809 0.0
H509 H 0.32436 0.76664 0.25736 0.0
H510 H 0.36015 0.7658 0.26776 0.0
H511 H 0.35341 0.79515 0.28851 0.0
H512 H 0.45879 0.79285 0.30524 0.0
H513 H 0.44009 0.86305 0.35161 0.0
H514 H 0.43944 0.8 0.21374 0.0
H515 H 0.40528 0.76823 0.23505 0.0
H516 H 0.44407 0.77399 0.24519 0.0
H517 H 0.41608 0.88415 0.27086 0.0
H518 H 0.41297 0.88392 0.3201 0.0
H519 H 0.38136 0.85378 0.29287 0.0
C520 C 0.53914 0.3552 0.37502 0.0
C521 C 0.53713 0.37207 0.34488 0.0
C522 C 0.55507 0.37093 0.40737 0.0
C523 C 0.56959 0.4044 0.40971 0.0
C524 C 0.56688 0.42145 0.37986 0.0
C525 C 0.55063 0.40515 0.34802 0.0
C526 C 0.55704 0.35177 0.43874 0.0
C527 C 0.58202 0.45711 0.38107 0.0
C528 C 0.58962 0.4425 0.50445 0.0
C529 C 0.6219 0.45178 0.50816 0.0
C530 C 0.57249 0.42745 0.47254 0.0
C531 C 0.5879 0.42161 0.44321 0.0
C532 C 0.6207 0.43187 0.44612 0.0
C533 C 0.63726 0.44672 0.47852 0.0
C534 C 0.5376 0.41692 0.47069 0.0
C535 C 0.63814 0.42644 0.41531 0.0
H536 H 0.52898 0.32974 0.37306 0.0
H537 H 0.54946 0.41863 0.32504 0.0
H538 H 0.58217 0.35868 0.44373 0.0
H539 H 0.54795 0.35683 0.46424 0.0
H540 H 0.54333 0.32587 0.43334 0.0
H541 H 0.5769 0.4668 0.35609 0.0
H542 H 0.57347 0.46439 0.40533 0.0
H543 H 0.60811 0.468 0.38388 0.0
H544 H 0.5773 0.44613 0.52702 0.0
H545 H 0.66208 0.4536 0.48094 0.0
H546 H 0.52354 0.39072 0.46813 0.0
H547 H 0.53257 0.42704 0.44608 0.0
H548 H 0.52933 0.42413 0.49531 0.0
H549 H 0.62795 0.40062 0.41075 0.0
H550 H 0.66389 0.43709 0.42107 0.0
H551 H 0.63517 0.43667 0.38946 0.0
C552 C 0.92055 0.45116 0.32867 0.0
C553 C 0.91551 0.42724 0.30371 0.0
C554 C 0.95103 0.47163 0.34235 0.0
C555 C 0.97674 0.4683 0.3299 0.0
C556 C 0.97201 0.44614 0.30199 0.0
C557 C 0.94125 0.42545 0.28966 0.0
C558 C 0.95513 0.4947 0.37237 0.0
C559 C -0.00096 0.44256 0.28718 0.0
C560 C 0.06329 0.52411 0.34998 0.0
C561 C 0.06927 0.5056 0.3745 0.0
C562 C 0.03252 0.51343 0.33685 0.0
C563 C 0.00745 0.48406 0.3494 0.0
C564 C 0.01306 0.46702 0.37703 0.0
C565 C 0.04411 0.47778 0.38884 0.0
C566 C 0.02749 0.53205 0.30716 0.0
C567 C 0.98671 0.43606 0.39195 0.0
H568 H 0.90043 0.45232 0.33955 0.0
H569 H 0.93716 0.40708 0.27 0.0
H570 H 0.95693 0.48488 0.39912 0.0
H571 H 0.97726 0.51772 0.36853 0.0
H572 H 0.93473 0.49893 0.37363 0.0
H573 H 0.99217 0.42765 0.26208 0.0
H574 H 0.01975 0.46609 0.28071 0.0
H575 H 0.00664 0.43129 0.30825 0.0
H576 H 0.08294 0.54565 0.3389 0.0
H577 H 0.04888 0.46378 0.40821 0.0
H578 H 0.00503 0.53226 0.31144 0.0
H579 H 0.02575 0.52062 0.28029 0.0
H580 H 0.04741 0.55691 0.30584 0.0
H581 H 0.96554 0.4381 0.39851 0.0
H582 H -0.00591 0.42846 0.41701 0.0
H583 H 0.9796 0.41725 0.37091 0.0
C584 C 0.50563 0.94626 0.45222 0.0
C585 C 0.478 0.91985 0.46494 0.0
C586 C 0.5152 0.97643 0.4662 0.0
C587 C 0.49711 0.97985 0.49437 0.0
C588 C 0.46785 0.95359 0.50522 0.0
C589 C 0.4584 0.92374 0.48995 0.0
C590 C 0.54609 0.00411 0.45306 0.0
C591 C 0.4481 0.95628 0.53534 0.0
C592 C 0.55397 0.04359 0.55783 0.0
C593 C 0.55209 0.06969 0.54525 0.0
C594 C 0.53365 0.01329 0.54397 0.0
C595 C 0.51175 0.00944 0.51607 0.0
C596 C 0.50809 0.03535 0.5054 0.0
C597 C 0.52821 0.06532 0.52055 0.0
C598 C 0.53757 0.98597 0.55691 0.0
C599 C 0.4852 0.03219 0.47558 0.0
H600 H 0.52051 0.94309 0.43251 0.0
H601 H 0.43702 0.90313 0.4998 0.0
H602 H 0.54341 0.02513 0.44807 0.0
H603 H 0.56453 0.0106 0.47447 0.0
H604 H 0.55461 -0.00154 0.42745 0.0
H605 H 0.42338 0.93602 0.53501 0.0
H606 H 0.45883 0.95646 0.56224 0.0
H607 H 0.44752 0.9787 0.53308 0.0
H608 H 0.57229 0.0471 0.57731 0.0
H609 H 0.52692 0.08569 0.51081 0.0
H610 H 0.5496 0.97978 0.53532 0.0
H611 H 0.51412 0.96469 0.56207 0.0
H612 H 0.55196 0.99186 0.58237 0.0
H613 H 0.49562 0.03217 0.44853 0.0
H614 H 0.4803 0.05216 0.47607 0.0
H615 H 0.46245 0.00955 0.47805 0.0
C616 C 0.51543 0.56845 0.72347 0.0
C617 C 0.48778 0.56637 0.70934 0.0
C618 C 0.52587 0.54806 0.71106 0.0
C619 C 0.50868 0.52594 0.68302 0.0
C620 C 0.4796 0.52238 0.6704 0.0
C621 C 0.46922 0.54251 0.68416 0.0
C622 C 0.55651 0.55184 0.72604 0.0
C623 C 0.46093 0.4994 0.64017 0.0
C624 C 0.56621 0.51589 0.6239 0.0
C625 C 0.56308 0.48777 0.63791 0.0
C626 C 0.54639 0.52711 0.63608 0.0
C627 C 0.52374 0.5102 0.66374 0.0
C628 C 0.51908 0.48066 0.67616 0.0
C629 C 0.53868 0.46954 0.66265 0.0
C630 C 0.55133 0.55824 0.62131 0.0
C631 C 0.49548 0.46223 0.70595 0.0
H632 H 0.52951 0.58679 0.74325 0.0
H633 H 0.44787 0.54114 0.67317 0.0
H634 H 0.55384 0.52835 0.73248 0.0
H635 H 0.57544 0.56324 0.70507 0.0
H636 H 0.56436 0.56668 0.75118 0.0
H637 H 0.43637 0.49529 0.63835 0.0
H638 H 0.47294 0.50918 0.61359 0.0
H639 H 0.45984 0.4763 0.64423 0.0
H640 H 0.58492 0.52971 0.6044 0.0
H641 H 0.53644 0.44778 0.67353 0.0
H642 H 0.56304 0.57693 0.64249 0.0
H643 H 0.52824 0.55643 0.61465 0.0
H644 H 0.56641 0.56586 0.59635 0.0
H645 H 0.50516 0.4739 0.73273 0.0
H646 H 0.4906 0.4374 0.70762 0.0
H647 H 0.47279 0.46193 0.70152 0.0
C648 C 0.04405 0.55204 0.78695 0.0
C649 C 0.07058 0.55143 0.80047 0.0
C650 C 0.01375 0.53084 0.80012 0.0
C651 C 0.01028 0.50929 0.82825 0.0
C652 C 0.03672 0.50682 0.83975 0.0
C653 C 0.06676 0.52788 0.82534 0.0
C654 C 0.98595 0.5336 0.78632 0.0
C655 C 0.03394 0.48422 0.86972 0.0
C656 C 0.94573 0.50231 0.89016 0.0
C657 C 0.9197 0.47464 0.87685 0.0
C658 C 0.97625 0.51209 0.87722 0.0
C659 C 0.98045 0.49412 0.84954 0.0
C660 C 0.95458 0.46472 0.83833 0.0
C661 C 0.92432 0.4551 0.8525 0.0
C662 C 0.00345 0.54317 0.89072 0.0
C663 C 0.95815 0.44499 0.80886 0.0
H664 H 0.04716 0.57008 0.76729 0.0
H665 H 0.08747 0.52755 0.83574 0.0
H666 H 0.96526 0.50979 0.78087 0.0
H667 H 0.97881 0.54513 0.80757 0.0
H668 H 0.99179 0.54793 0.76084 0.0
H669 H 0.0543 0.47991 0.86946 0.0
H670 H 0.03357 0.49457 0.89668 0.0
H671 H 0.01159 0.46119 0.86718 0.0
H672 H 0.94202 0.51711 0.90945 0.0
H673 H 0.904 0.43363 0.84227 0.0
H674 H 0.01008 0.56152 0.86918 0.0
H675 H 0.02459 0.54087 0.89645 0.0
H676 H -0.00281 0.55158 0.91597 0.0
H677 H 0.9583 0.45526 0.78166 0.0
H678 H 0.93826 0.42009 0.80935 0.0
H679 H 0.98086 0.44504 0.81179 0.0
C680 C 0.514 0.06896 0.99397 0.0
C681 C 0.49595 0.07458 0.96833 0.0
C682 C 0.50293 0.03852 0.00822 0.0
C683 C 0.47368 0.01331 0.99561 0.0
C684 C 0.45678 0.01852 0.96743 0.0
C685 C 0.46791 0.04933 0.95452 0.0
C686 C 0.52121 0.03393 0.03874 0.0
C687 C 0.42596 0.99193 0.9525 0.0
C688 C 0.44537 0.92724 0.01578 0.0
C689 C 0.42116 0.92057 0.04102 0.0
C690 C 0.46404 0.95793 1.00187 0.0
C691 C 0.4587 0.98234 0.01442 0.0
C692 C 0.43612 0.97616 0.04232 0.0
C693 C 0.41718 0.94511 0.05489 0.0
C694 C 0.48749 0.96356 0.97168 0.0
C695 C 0.43052 0.00191 0.05719 0.0
H696 H 0.53562 0.08869 1.00479 0.0
H697 H 0.45419 0.05383 0.93445 0.0
H698 H 0.50847 0.03073 0.06501 0.0
H699 H 0.52288 0.0123 0.03414 0.0
H700 H 0.54555 0.05458 0.04155 0.0
H701 H 0.41812 -0.00088 0.92749 0.0
H702 H 0.42839 0.971 0.94587 0.0
H703 H 0.40713 0.98449 0.97357 0.0
H704 H 0.44823 0.90808 1.00492 0.0
H705 H 0.39856 0.93982 0.07468 0.0
H706 H 0.51027 0.98571 0.97655 0.0
H707 H 0.47784 0.96635 0.94526 0.0
H708 H 0.49221 0.94356 0.96897 0.0
H709 H 0.45341 0.02341 0.06392 0.0
H710 H 0.41542 0.99416 0.08213 0.0
H711 H 0.41859 0.00866 0.03605 0.0
C712 C 0.45995 0.5324 0.15863 0.0
C713 C 0.43544 0.51287 0.1346 0.0
C714 C 0.47999 0.52224 0.17335 0.0
C715 C 0.47558 0.49232 0.16296 0.0
C716 C 0.45289 0.4741 0.13584 0.0
C717 C 0.43271 0.48443 0.12238 0.0
C718 C 0.50373 0.54215 0.20238 0.0
C719 C 0.4481 0.44245 0.12324 0.0
C720 C 0.52889 0.45937 0.1869 0.0
C721 C 0.50988 0.43639 0.2127 0.0
C722 C 0.51933 0.47982 0.17205 0.0
C723 C 0.49058 0.47741 0.1841 0.0
C724 C 0.4732 0.45646 0.21298 0.0
C725 C 0.48285 0.43579 0.22657 0.0
C726 C 0.53831 0.50167 0.14113 0.0
C727 C 0.44287 0.45386 0.22734 0.0
H728 H 0.46191 0.55442 0.16809 0.0
H729 H 0.41392 0.46961 0.1034 0.0
H730 H 0.49402 0.53206 0.22976 0.0
H731 H 0.5263 0.54199 0.19901 0.0
H732 H 0.50883 0.56708 0.20183 0.0
H733 H 0.43292 0.43365 0.09839 0.0
H734 H 0.47123 0.44414 0.11717 0.0
H735 H 0.43657 0.42469 0.14539 0.0
H736 H 0.54981 0.45965 0.17617 0.0
H737 H 0.46844 0.41816 0.24687 0.0
H738 H 0.5394 0.5249 0.1435 0.0
H739 H 0.52659 0.49089 0.1147 0.0
H740 H 0.56287 0.50567 0.14033 0.0
H741 H 0.44596 0.47774 0.23216 0.0
H742 H 0.43501 0.44014 0.25329 0.0
H743 H 0.42377 0.44175 0.20669 0.0
C744 C 0.2065 0.48158 0.32449 0.0
C745 C 0.19249 0.50007 0.31694 0.0
C746 C 0.22704 0.4793 0.29892 0.0
C747 C 0.23425 0.4965 0.26552 0.0
C748 C 0.21978 0.51483 0.25773 0.0
C749 C 0.19894 0.51609 0.28325 0.0
C750 C 0.24155 0.45904 0.30792 0.0
C751 C 0.22733 0.53427 0.22306 0.0
C752 C 0.31402 0.52513 0.21965 0.0
C753 C 0.30581 0.50601 0.18821 0.0
C754 C 0.29109 0.52171 0.24533 0.0
C755 C 0.25904 0.49801 0.24007 0.0
C756 C 0.25064 0.47798 0.20886 0.0
C757 C 0.27409 0.48252 0.18297 0.0
C758 C 0.30107 0.54428 0.27746 0.0
C759 C 0.21683 0.45207 0.20263 0.0
H760 H 0.20152 0.46903 0.35035 0.0
H761 H 0.18837 0.53058 0.27711 0.0
H762 H 0.23826 0.44298 0.28468 0.0
H763 H 0.26745 0.47436 0.31224 0.0
H764 H 0.23106 0.44457 0.33298 0.0
H765 H 0.2132 0.54636 0.22049 0.0
H766 H 0.25288 0.55254 0.2227 0.0
H767 H 0.22274 0.51898 0.19867 0.0
H768 H 0.33846 0.54351 0.22382 0.0
H769 H 0.26767 0.46753 0.15887 0.0
H770 H 0.29388 0.53087 0.30358 0.0
H771 H 0.28897 0.55845 0.27602 0.0
H772 H 0.32709 0.56085 0.27816 0.0
H773 H 0.20749 0.43715 0.22755 0.0
H774 H 0.21465 0.43666 0.17906 0.0
H775 H 0.20166 0.46267 0.19733 0.0
C776 C 0.7856 0.30713 0.39227 0.0
C777 C 0.79294 0.29773 0.359 0.0
C778 C 0.76539 0.28488 0.41806 0.0
C779 C 0.75244 0.25215 0.41098 0.0
C780 C 0.76051 0.24238 0.37799 0.0
C781 C 0.78042 0.2653 0.35213 0.0
C782 C 0.75688 0.29651 0.45228 0.0
C783 C 0.74761 0.20771 0.36974 0.0
C784 C 0.71408 0.19941 0.49466 0.0
C785 C 0.68206 0.19001 0.48922 0.0
C786 C 0.7372 0.21827 0.46843 0.0
C787 C 0.72814 0.22859 0.43662 0.0
C788 C 0.69577 0.21888 0.43103 0.0
C789 C 0.67322 0.19952 0.4571 0.0
C790 C 0.77139 0.22763 0.47504 0.0
C791 C 0.68502 0.23001 0.39821 0.0
H792 H 0.79502 0.33211 0.39789 0.0
H793 H 0.78611 0.25787 0.32662 0.0
H794 H 0.73106 0.28805 0.45243 0.0
H795 H 0.76214 0.28674 0.47703 0.0
H796 H 0.76992 0.32279 0.45434 0.0
H797 H 0.75869 0.20407 0.34498 0.0
H798 H 0.75163 0.19583 0.3934 0.0
H799 H 0.72162 0.19594 0.36527 0.0
H800 H 0.72102 0.19196 0.51927 0.0
H801 H 0.64855 0.19254 0.45269 0.0
H802 H 0.78559 0.25351 0.48019 0.0
H803 H 0.78141 0.22253 0.45037 0.0
H804 H 0.77413 0.215 0.49887 0.0
H805 H 0.69589 0.25619 0.39911 0.0
H806 H 0.65883 0.21931 0.39713 0.0
H807 H 0.69301 0.22404 0.37249 0.0
C808 C 0.51175 0.72764 0.66038 0.0
C809 C 0.49542 0.69521 0.65199 0.0
C810 C 0.51443 0.75027 0.63427 0.0
C811 C 0.4999 0.74011 0.59936 0.0
C812 C 0.4841 0.70745 0.59063 0.0
C813 C 0.48234 0.68558 0.6168 0.0
C814 C 0.53197 0.78495 0.64438 0.0
C815 C 0.46757 0.69532 0.55422 0.0
C816 C 0.46848 0.7873 0.54979 0.0
C817 C 0.48942 0.80024 0.52009 0.0
C818 C 0.47213 0.76837 0.57608 0.0
C819 C 0.4979 0.76274 0.5733 0.0
C820 C 0.51967 0.77637 0.54384 0.0
C821 C 0.51489 0.79461 0.51719 0.0
C822 C 0.44769 0.75353 0.60618 0.0
C823 C 0.54778 0.77143 0.54035 0.0
H824 H 0.52206 0.7353 0.68739 0.0
H825 H 0.46967 0.66059 0.60988 0.0
H826 H 0.54885 0.79908 0.62233 0.0
H827 H 0.51488 0.79359 0.64732 0.0
H828 H 0.54525 0.78937 0.67052 0.0
H829 H 0.45774 0.66938 0.55096 0.0
H830 H 0.44782 0.70041 0.55172 0.0
H831 H 0.48422 0.70763 0.53133 0.0
H832 H 0.44857 0.79134 0.55207 0.0
H833 H 0.53128 0.80479 0.49447 0.0
H834 H 0.45935 0.7601 0.6334 0.0
H835 H 0.43554 0.7273 0.604 0.0
H836 H 0.42948 0.7609 0.60498 0.0
H837 H 0.56124 0.77762 0.56649 0.0
H838 H 0.56405 0.7859 0.51796 0.0
H839 H 0.53951 0.74608 0.53478 0.0
C840 C 0.7923 0.51051 0.82631 0.0
C841 C 0.79893 0.48581 0.82207 0.0
C842 C 0.77336 0.51511 0.80049 0.0
C843 C 0.76007 0.49393 0.77045 0.0
C844 C 0.76675 0.46897 0.76625 0.0
C845 C 0.78634 0.46549 0.79177 0.0
C846 C 0.76729 0.54237 0.80551 0.0
C847 C 0.75233 0.44517 0.73545 0.0
C848 C 0.68196 0.4777 0.72869 0.0
C849 C 0.69122 0.49205 0.69406 0.0
C850 C 0.70421 0.47905 0.75408 0.0
C851 C 0.73685 0.49575 0.74515 0.0
C852 C 0.74659 0.51138 0.71078 0.0
C853 C 0.7236 0.50904 0.68541 0.0
C854 C 0.69256 0.46129 0.78987 0.0
C855 C 0.78121 0.5299 0.70051 0.0
H856 H 0.80216 0.5264 0.84952 0.0
H857 H 0.79114 0.44616 0.78843 0.0
H858 H 0.77287 0.55639 0.77984 0.0
H859 H 0.74182 0.53315 0.8115 0.0
H860 H 0.78158 0.55835 0.82821 0.0
H861 H 0.76052 0.42757 0.73554 0.0
H862 H 0.72609 0.43224 0.73785 0.0
H863 H 0.75841 0.45748 0.70861 0.0
H864 H 0.65701 0.46441 0.73572 0.0
H865 H 0.73094 0.5203 0.65882 0.0
H866 H 0.70452 0.47739 0.81331 0.0
H867 H 0.69853 0.44209 0.79113 0.0
H868 H 0.66651 0.45055 0.7933 0.0
H869 H 0.79512 0.54654 0.72287 0.0
H870 H 0.78518 0.54359 0.67479 0.0
H871 H 0.79053 0.51344 0.69675 0.0
C872 C 0.30326 0.798 0.94774 0.0
C873 C 0.29472 0.7972 0.98467 0.0
C874 C 0.28147 0.77763 0.92163 0.0
C875 C 0.24997 0.75604 0.93238 0.0
C876 C 0.24065 0.75613 0.96924 0.0
C877 C 0.26322 0.77657 0.99507 0.0
C878 C 0.29274 0.77805 0.88294 0.0
C879 C 0.20714 0.7338 0.98165 0.0
C880 C 0.1913 0.71411 0.85413 0.0
C881 C 0.19038 0.68491 0.85328 0.0
C882 C 0.20965 0.73719 0.88065 0.0
C883 C 0.2282 0.73118 0.90596 0.0
C884 C 0.22768 0.70187 0.90454 0.0
C885 C 0.20849 0.67903 0.87863 0.0
C886 C 0.20909 0.76787 0.88179 0.0
C887 C 0.24788 0.69478 0.92997 0.0
H888 H 0.32749 0.81394 0.93925 0.0
H889 H 0.25638 0.77588 0.02347 0.0
H890 H 0.29193 0.75528 0.8771 0.0
H891 H 0.2769 0.78042 0.86293 0.0
H892 H 0.31737 0.79771 0.87838 0.0
H893 H 0.20258 0.73949 0.00968 0.0
H894 H 0.18993 0.73468 0.96241 0.0
H895 H 0.20272 0.70913 0.98159 0.0
H896 H 0.17706 0.71855 0.83477 0.0
H897 H 0.20804 0.65654 0.87782 0.0
H898 H 0.23312 0.7881 0.87612 0.0
H899 H 0.20227 0.77155 0.90959 0.0
H900 H 0.19225 0.76829 0.86153 0.0
H901 H 0.2733 0.71262 0.92603 0.0
H902 H 0.24473 0.67083 0.92529 0.0
H903 H 0.2419 0.69642 0.9589 0.0
C904 C 0.46599 0.27673 0.15428 0.0
C905 C 0.49595 0.30336 0.1599 0.0
C906 C 0.46129 0.25455 0.12658 0.0
C907 C 0.48737 0.25878 0.10494 0.0
C908 C 0.51778 0.28534 0.1114 0.0
C909 C 0.52155 0.30748 0.13835 0.0
C910 C 0.42842 0.2269 0.12006 0.0
C911 C 0.54651 0.29033 0.09001 0.0
C912 C 0.4903 0.18997 0.06052 0.0
C913 C 0.48793 0.19513 0.02306 0.0
C914 C 0.48841 0.20945 0.08748 0.0
C915 C 0.48374 0.23476 0.07695 0.0
C916 C 0.4794 0.23901 0.03931 0.0
C917 C 0.48163 0.21915 0.0127 0.0
C918 C 0.49349 0.20411 0.1271 0.0
C919 C 0.47396 0.26549 0.02701 0.0
H920 H 0.44612 0.27387 0.1706 0.0
H921 H 0.54474 0.32812 0.14277 0.0
H922 H 0.42122 0.22722 0.09128 0.0
H923 H 0.42827 0.20425 0.12411 0.0
H924 H 0.41054 0.22731 0.13863 0.0
H925 H 0.56854 0.31202 0.09873 0.0
H926 H 0.54997 0.26963 0.09363 0.0
H927 H 0.54283 0.29228 0.06034 0.0
H928 H 0.49482 0.17122 0.06889 0.0
H929 H 0.4797 0.22325 0.98387 0.0
H930 H 0.47447 0.2033 0.14458 0.0
H931 H 0.51634 0.22417 0.13687 0.0
H932 H 0.49405 0.18177 0.13107 0.0
H933 H 0.45539 0.26608 0.04406 0.0
H934 H 0.46676 0.26305 0.99776 0.0
H935 H 0.4961 0.28856 0.03061 0.0
loop_
_geom_bond_atom_site_label_1
_geom_bond_atom_site_label_2
_geom_bond_distance
_geom_bond_site_symmetry_2
_ccdc_geom_bond_type
Co0 O1 2.216 . S
Co0 O2 2.091 . S
Co0 O4 2.004 . S
Co0 O10 2.021 . S
Co0 O12 2.137 . S
Co0 O13 2.244 . S
O1 Co0 2.216 . S
O1 C8 1.247 . S
O2 Co0 2.091 . S
O2 C8 1.261 . S
C3 O12 1.247 . S
C3 O13 1.272 . S
O4 Co0 2.004 . S
O4 C9 1.259 . S
Co5 O6 2.061 . S
Co5 O11 2.052 . S
Co5 O13 2.135 . S
O6 Co5 2.061 . S
O6 C9 1.235 . S
C7 O10 1.238 . S
C7 O11 1.241 . S
C8 O1 1.247 . S
C8 O2 1.261 . S
C9 O4 1.259 . S
C9 O6 1.235 . S
O10 Co0 2.021 . S
O10 C7 1.238 . S
O11 Co5 2.052 . S
O11 C7 1.241 . S
O12 Co0 2.137 . S
O12 C3 1.247 . S
O13 Co0 2.244 . S
O13 C3 1.272 . S
O13 Co5 2.135 . S
Co14 O15 2.216 . S
Co14 O16 2.091 . S
Co14 O18 2.004 . S
Co14 O24 2.021 . S
Co14 O26 2.137 . S
Co14 O27 2.244 . S
O15 Co14 2.216 . S
O15 C22 1.247 . S
O16 Co14 2.091 . S
O16 C22 1.261 . S
C17 O26 1.247 . S
C17 O27 1.272 . S
O18 Co14 2.004 . S
O18 C23 1.259 . S
Co19 O20 2.061 . S
Co19 O25 2.052 . S
Co19 O27 2.135 . S
O20 Co19 2.061 . S
O20 C23 1.235 . S
C21 O24 1.238 . S
C21 O25 1.241 . S
C22 O15 1.247 . S
C22 O16 1.261 . S
C23 O18 1.259 . S
C23 O20 1.235 . S
O24 Co14 2.021 . S
O24 C21 1.238 . S
O25 Co19 2.052 . S
O25 C21 1.241 . S
O26 Co14 2.137 . S
O26 C17 1.247 . S
O27 Co14 2.244 . S
O27 C17 1.272 . S
O27 Co19 2.135 . S
Co28 O29 2.216 . S
Co28 O30 2.091 . S
Co28 O32 2.004 . S
Co28 O38 2.021 . S
Co28 O40 2.137 . S
Co28 O41 2.244 . S
O29 Co28 2.216 . S
O29 C36 1.247 . S
O30 Co28 2.091 . S
O30 C36 1.261 . S
C31 O40 1.247 . S
C31 O41 1.272 . S
O32 Co28 2.004 . S
O32 C37 1.259 . S
Co33 O34 2.061 . S
Co33 O39 2.052 . S
Co33 O41 2.135 . S
O34 Co33 2.061 . S
O34 C37 1.235 . S
C35 O38 1.238 . S
C35 O39 1.241 . S
C36 O29 1.247 . S
C36 O30 1.261 . S
C37 O32 1.259 . S
C37 O34 1.235 . S
O38 Co28 2.021 . S
O38 C35 1.238 . S
O39 Co33 2.052 . S
O39 C35 1.241 . S
O40 Co28 2.137 . S
O40 C31 1.247 . S
O41 Co28 2.244 . S
O41 C31 1.272 . S
O41 Co33 2.135 . S
Co42 O43 2.216 . S
Co42 O44 2.091 . S
Co42 O46 2.004 . S
Co42 O52 2.021 . S
Co42 O54 2.137 . S
Co42 O55 2.244 . S
O43 Co42 2.216 . S
O43 C50 1.247 . S
O44 Co42 2.091 . S
O44 C50 1.261 . S
C45 O54 1.247 . S
C45 O55 1.272 . S
O46 Co42 2.004 . S
O46 C51 1.259 . S
Co47 O48 2.061 . S
Co47 O53 2.052 . S
Co47 O55 2.135 . S
O48 Co47 2.061 . S
O48 C51 1.235 . S
C49 O52 1.238 . S
C49 O53 1.241 . S
C50 O43 1.247 . S
C50 O44 1.261 . S
C51 O46 1.259 . S
C51 O48 1.235 . S
O52 Co42 2.021 . S
O52 C49 1.238 . S
O53 Co47 2.052 . S
O53 C49 1.241 . S
O54 Co42 2.137 . S
O54 C45 1.247 . S
O55 Co42 2.244 . S
O55 C45 1.272 . S
O55 Co47 2.135 . S
Co56 O57 2.216 . S
Co56 O58 2.091 . S
Co56 O60 2.004 . S
Co56 O66 2.021 . S
Co56 O68 2.137 . S
Co56 O69 2.244 . S
O57 Co56 2.216 . S
O57 C64 1.247 . S
O58 Co56 2.091 . S
O58 C64 1.261 . S
C59 O68 1.247 . S
C59 O69 1.272 . S
O60 Co56 2.004 . S
O60 C65 1.259 . S
Co61 O62 2.061 . S
Co61 O67 2.052 . S
Co61 O69 2.135 . S
O62 Co61 2.061 . S
O62 C65 1.235 . S
C63 O66 1.238 . S
C63 O67 1.241 . S
C64 O57 1.247 . S
C64 O58 1.261 . S
C65 O60 1.259 . S
C65 O62 1.235 . S
O66 Co56 2.021 . S
O66 C63 1.238 . S
O67 Co61 2.052 . S
O67 C63 1.241 . S
O68 Co56 2.137 . S
O68 C59 1.247 . S
O69 Co56 2.244 . S
O69 C59 1.272 . S
O69 Co61 2.135 . S
Co70 O71 2.216 . S
Co70 O72 2.091 . S
Co70 O74 2.004 . S
Co70 O80 2.021 . S
Co70 O82 2.137 . S
Co70 O83 2.244 . S
O71 Co70 2.216 . S
O71 C78 1.247 . S
O72 Co70 2.091 . S
O72 C78 1.261 . S
C73 O82 1.247 . S
C73 O83 1.272 . S
O74 Co70 2.004 . S
O74 C79 1.259 . S
Co75 O76 2.061 . S
Co75 O81 2.052 . S
Co75 O83 2.135 . S
O76 Co75 2.061 . S
O76 C79 1.235 . S
C77 O80 1.238 . S
C77 O81 1.241 . S
C78 O71 1.247 . S
C78 O72 1.261 . S
C79 O74 1.259 . S
C79 O76 1.235 . S
O80 Co70 2.021 . S
O80 C77 1.238 . S
O81 Co75 2.052 . S
O81 C77 1.241 . S
O82 Co70 2.137 . S
O82 C73 1.247 . S
O83 Co70 2.244 . S
O83 C73 1.272 . S
O83 Co75 2.135 . S
Co84 O85 2.216 . S
Co84 O86 2.091 . S
Co84 O88 2.004 . S
Co84 O94 2.021 . S
Co84 O96 2.137 . S
Co84 O97 2.244 . S
O85 Co84 2.216 . S
O85 C92 1.247 . S
O86 Co84 2.091 . S
O86 C92 1.261 . S
C87 O96 1.247 . S
C87 O97 1.272 . S
O88 Co84 2.004 . S
O88 C93 1.259 . S
Co89 O90 2.061 . S
Co89 O95 2.052 . S
Co89 O97 2.135 . S
O90 Co89 2.061 . S
O90 C93 1.235 . S
C91 O94 1.238 . S
C91 O95 1.241 . S
C92 O85 1.247 . S
C92 O86 1.261 . S
C93 O88 1.259 . S
C93 O90 1.235 . S
O94 Co84 2.021 . S
O94 C91 1.238 . S
O95 Co89 2.052 . S
O95 C91 1.241 . S
O96 Co84 2.137 . S
O96 C87 1.247 . S
O97 Co84 2.244 . S
O97 C87 1.272 . S
O97 Co89 2.135 . S
Co98 O99 2.216 . S
Co98 O100 2.091 . S
Co98 O102 2.004 . S
Co98 O108 2.021 . S
Co98 O110 2.137 . S
Co98 O111 2.244 . S
O99 Co98 2.216 . S
O99 C106 1.247 . S
O100 Co98 2.091 . S
O100 C106 1.261 . S
C101 O110 1.247 . S
C101 O111 1.272 . S
O102 Co98 2.004 . S
O102 C107 1.259 . S
Co103 O104 2.061 . S
Co103 O109 2.052 . S
Co103 O111 2.135 . S
O104 Co103 2.061 . S
O104 C107 1.235 . S
C105 O108 1.238 . S
C105 O109 1.241 . S
C106 O99 1.247 . S
C106 O100 1.261 . S
C107 O102 1.259 . S
C107 O104 1.235 . S
O108 Co98 2.021 . S
O108 C105 1.238 . S
O109 Co103 2.052 . S
O109 C105 1.241 . S
O110 Co98 2.137 . S
O110 C101 1.247 . S
O111 Co98 2.244 . S
O111 C101 1.272 . S
O111 Co103 2.135 . S
Co112 O113 2.216 . S
Co112 O114 2.091 . S
Co112 O116 2.004 . S
Co112 O122 2.021 . S
Co112 O124 2.137 . S
Co112 O125 2.244 . S
O113 Co112 2.216 . S
O113 C120 1.247 . S
O114 Co112 2.091 . S
O114 C120 1.261 . S
C115 O124 1.247 . S
C115 O125 1.272 . S
O116 Co112 2.004 . S
O116 C121 1.259 . S
Co117 O118 2.061 . S
Co117 O123 2.052 . S
Co117 O125 2.135 . S
O118 Co117 2.061 . S
O118 C121 1.235 . S
C119 O122 1.238 . S
C119 O123 1.241 . S
C120 O113 1.247 . S
C120 O114 1.261 . S
C121 O116 1.259 . S
C121 O118 1.235 . S
O122 Co112 2.021 . S
O122 C119 1.238 . S
O123 Co117 2.052 . S
O123 C119 1.241 . S
O124 Co112 2.137 . S
O124 C115 1.247 . S
O125 Co112 2.244 . S
O125 C115 1.272 . S
O125 Co117 2.135 . S
Co126 O127 2.216 . S
Co126 O128 2.091 . S
Co126 O130 2.004 . S
Co126 O136 2.021 . S
Co126 O138 2.137 . S
Co126 O139 2.244 . S
O127 Co126 2.216 . S
O127 C134 1.247 . S
O128 Co126 2.091 . S
O128 C134 1.261 . S
C129 O138 1.247 . S
C129 O139 1.272 . S
O130 Co126 2.004 . S
O130 C135 1.259 . S
Co131 O132 2.061 . S
Co131 O137 2.052 . S
Co131 O139 2.135 . S
O132 Co131 2.061 . S
O132 C135 1.235 . S
C133 O136 1.238 . S
C133 O137 1.241 . S
C134 O127 1.247 . S
C134 O128 1.261 . S
C135 O130 1.259 . S
C135 O132 1.235 . S
O136 Co126 2.021 . S
O136 C133 1.238 . S
O137 Co131 2.052 . S
O137 C133 1.241 . S
O138 Co126 2.137 . S
O138 C129 1.247 . S
O139 Co126 2.244 . S
O139 C129 1.272 . S
O139 Co131 2.135 . S
Co140 O141 2.216 . S
Co140 O142 2.091 . S
Co140 O144 2.004 . S
Co140 O150 2.021 . S
Co140 O152 2.137 . S
Co140 O153 2.244 . S
O141 Co140 2.216 . S
O141 C148 1.247 . S
O142 Co140 2.091 . S
O142 C148 1.261 . S
C143 O152 1.247 . S
C143 O153 1.272 . S
O144 Co140 2.004 . S
O144 C149 1.259 . S
Co145 O146 2.061 . S
Co145 O151 2.052 . S
Co145 O153 2.135 . S
O146 Co145 2.061 . S
O146 C149 1.235 . S
C147 O150 1.238 . S
C147 O151 1.241 . S
C148 O141 1.247 . S
C148 O142 1.261 . S
C149 O144 1.259 . S
C149 O146 1.235 . S
O150 Co140 2.021 . S
O150 C147 1.238 . S
O151 Co145 2.052 . S
O151 C147 1.241 . S
O152 Co140 2.137 . S
O152 C143 1.247 . S
O153 Co140 2.244 . S
O153 C143 1.272 . S
O153 Co145 2.135 . S
Co154 O155 2.216 . S
Co154 O156 2.091 . S
Co154 O158 2.004 . S
Co154 O164 2.021 . S
Co154 O166 2.137 . S
Co154 O167 2.244 . S
O155 Co154 2.216 . S
O155 C162 1.247 . S
O156 Co154 2.091 . S
O156 C162 1.261 . S
C157 O166 1.247 . S
C157 O167 1.272 . S
O158 Co154 2.004 . S
O158 C163 1.259 . S
Co159 O160 2.061 . S
Co159 O165 2.052 . S
Co159 O167 2.135 . S
O160 Co159 2.061 . S
O160 C163 1.235 . S
C161 O164 1.238 . S
C161 O165 1.241 . S
C162 O155 1.247 . S
C162 O156 1.261 . S
C163 O158 1.259 . S
C163 O160 1.235 . S
O164 Co154 2.021 . S
O164 C161 1.238 . S
O165 Co159 2.052 . S
O165 C161 1.241 . S
O166 Co154 2.137 . S
O166 C157 1.247 . S
O167 Co154 2.244 . S
O167 C157 1.272 . S
O167 Co159 2.135 . S
C168 C169 1.391 . S
C168 C170 1.394 . S
C168 H184 0.931 . S
C169 C168 1.391 . S
C169 C173 1.376 . S
C170 C168 1.394 . S
C170 C171 1.369 . S
C170 C174 1.531 . S
C171 C170 1.369 . S
C171 C172 1.410 . S
C171 C179 1.503 . S
C172 C171 1.410 . S
C172 C173 1.392 . S
C172 C175 1.511 . S
C173 C169 1.376 . S
C173 C172 1.392 . S
C173 H185 0.929 . S
C174 C170 1.531 . S
C174 H186 0.960 . S
C174 H187 0.962 . S
C174 H188 0.960 . S
C175 C172 1.511 . S
C175 H189 0.961 . S
C175 H190 0.961 . S
C175 H191 0.961 . S
C176 C177 1.370 . S
C176 C178 1.363 . S
C176 H192 0.931 . S
C177 C176 1.370 . S
C177 C181 1.408 . S
C178 C176 1.363 . S
C178 C179 1.370 . S
C178 C182 1.524 . S
C179 C171 1.503 . S
C179 C178 1.370 . S
C179 C180 1.403 . S
C180 C179 1.403 . S
C180 C181 1.404 . S
C180 C183 1.539 . S
C181 C177 1.408 . S
C181 C180 1.404 . S
C181 H193 0.930 . S
C182 C178 1.524 . S
C182 H194 0.956 . S
C182 H195 0.961 . S
C182 H196 0.961 . S
C183 C180 1.539 . S
C183 H197 0.958 . S
C183 H198 0.961 . S
C183 H199 0.960 . S
H184 C168 0.931 . S
H185 C173 0.929 . S
H186 C174 0.960 . S
H187 C174 0.962 . S
H188 C174 0.960 . S
H189 C175 0.961 . S
H190 C175 0.961 . S
H191 C175 0.961 . S
H192 C176 0.931 . S
H193 C181 0.930 . S
H194 C182 0.956 . S
H195 C182 0.961 . S
H196 C182 0.961 . S
H197 C183 0.958 . S
H198 C183 0.961 . S
H199 C183 0.960 . S
C200 C201 1.391 . S
C200 C202 1.394 . S
C200 H216 0.931 . S
C201 C200 1.391 . S
C201 C205 1.376 . S
C202 C200 1.394 . S
C202 C203 1.369 . S
C202 C206 1.531 . S
C203 C202 1.369 . S
C203 C204 1.410 . S
C203 C211 1.503 . S
C204 C203 1.410 . S
C204 C205 1.392 . S
C204 C207 1.511 . S
C205 C201 1.376 . S
C205 C204 1.392 . S
C205 H217 0.929 . S
C206 C202 1.531 . S
C206 H218 0.960 . S
C206 H219 0.962 . S
C206 H220 0.960 . S
C207 C204 1.511 . S
C207 H221 0.961 . S
C207 H222 0.961 . S
C207 H223 0.961 . S
C208 C209 1.370 . S
C208 C210 1.363 . S
C208 H224 0.931 . S
C209 C208 1.370 . S
C209 C213 1.408 . S
C210 C208 1.363 . S
C210 C211 1.370 . S
C210 C214 1.524 . S
C211 C203 1.503 . S
C211 C210 1.370 . S
C211 C212 1.403 . S
C212 C211 1.403 . S
C212 C213 1.404 . S
C212 C215 1.539 . S
C213 C209 1.408 . S
C213 C212 1.404 . S
C213 H225 0.930 . S
C214 C210 1.524 . S
C214 H226 0.956 . S
C214 H227 0.961 . S
C214 H228 0.961 . S
C215 C212 1.539 . S
C215 H229 0.958 . S
C215 H230 0.961 . S
C215 H231 0.960 . S
H216 C200 0.931 . S
H217 C205 0.929 . S
H218 C206 0.960 . S
H219 C206 0.962 . S
H220 C206 0.960 . S
H221 C207 0.961 . S
H222 C207 0.961 . S
H223 C207 0.961 . S
H224 C208 0.931 . S
H225 C213 0.930 . S
H226 C214 0.956 . S
H227 C214 0.961 . S
H228 C214 0.961 . S
H229 C215 0.958 . S
H230 C215 0.961 . S
H231 C215 0.960 . S
C232 C233 1.391 . S
C232 C234 1.394 . S
C232 H248 0.931 . S
C233 C232 1.391 . S
C233 C237 1.376 . S
C234 C232 1.394 . S
C234 C235 1.369 . S
C234 C238 1.531 . S
C235 C234 1.369 . S
C235 C236 1.410 . S
C235 C243 1.503 . S
C236 C235 1.410 . S
C236 C237 1.392 . S
C236 C239 1.511 . S
C237 C233 1.376 . S
C237 C236 1.392 . S
C237 H249 0.929 . S
C238 C234 1.531 . S
C238 H250 0.960 . S
C238 H251 0.962 . S
C238 H252 0.960 . S
C239 C236 1.511 . S
C239 H253 0.961 . S
C239 H254 0.961 . S
C239 H255 0.961 . S
C240 C241 1.370 . S
C240 C242 1.363 . S
C240 H256 0.931 . S
C241 C240 1.370 . S
C241 C245 1.408 . S
C242 C240 1.363 . S
C242 C243 1.370 . S
C242 C246 1.524 . S
C243 C235 1.503 . S
C243 C242 1.370 . S
C243 C244 1.403 . S
C244 C243 1.403 . S
C244 C245 1.404 . S
C244 C247 1.539 . S
C245 C241 1.408 . S
C245 C244 1.404 . S
C245 H257 0.930 . S
C246 C242 1.524 . S
C246 H258 0.956 . S
C246 H259 0.961 . S
C246 H260 0.961 . S
C247 C244 1.539 . S
C247 H261 0.958 . S
C247 H262 0.961 . S
C247 H263 0.960 . S
H248 C232 0.931 . S
H249 C237 0.929 . S
H250 C238 0.960 . S
H251 C238 0.962 . S
H252 C238 0.960 . S
H253 C239 0.961 . S
H254 C239 0.961 . S
H255 C239 0.961 . S
H256 C240 0.931 . S
H257 C245 0.930 . S
H258 C246 0.956 . S
H259 C246 0.961 . S
H260 C246 0.961 . S
H261 C247 0.958 . S
H262 C247 0.961 . S
H263 C247 0.960 . S
C264 C265 1.391 . S
C264 C266 1.394 . S
C264 H280 0.931 . S
C265 C264 1.391 . S
C265 C269 1.376 . S
C266 C264 1.394 . S
C266 C267 1.369 . S
C266 C270 1.531 . S
C267 C266 1.369 . S
C267 C268 1.410 . S
C267 C275 1.503 . S
C268 C267 1.410 . S
C268 C269 1.392 . S
C268 C271 1.511 . S
C269 C265 1.376 . S
C269 C268 1.392 . S
C269 H281 0.929 . S
C270 C266 1.531 . S
C270 H282 0.960 . S
C270 H283 0.962 . S
C270 H284 0.960 . S
C271 C268 1.511 . S
C271 H285 0.961 . S
C271 H286 0.961 . S
C271 H287 0.961 . S
C272 C273 1.370 . S
C272 C274 1.363 . S
C272 H288 0.931 . S
C273 C272 1.370 . S
C273 C277 1.408 . S
C274 C272 1.363 . S
C274 C275 1.370 . S
C274 C278 1.524 . S
C275 C267 1.503 . S
C275 C274 1.370 . S
C275 C276 1.403 . S
C276 C275 1.403 . S
C276 C277 1.404 . S
C276 C279 1.539 . S
C277 C273 1.408 . S
C277 C276 1.404 . S
C277 H289 0.930 . S
C278 C274 1.524 . S
C278 H290 0.956 . S
C278 H291 0.961 . S
C278 H292 0.961 . S
C279 C276 1.539 . S
C279 H293 0.958 . S
C279 H294 0.961 . S
C279 H295 0.960 . S
H280 C264 0.931 . S
H281 C269 0.929 . S
H282 C270 0.960 . S
H283 C270 0.962 . S
H284 C270 0.960 . S
H285 C271 0.961 . S
H286 C271 0.961 . S
H287 C271 0.961 . S
H288 C272 0.931 . S
H289 C277 0.930 . S
H290 C278 0.956 . S
H291 C278 0.961 . S
H292 C278 0.961 . S
H293 C279 0.958 . S
H294 C279 0.961 . S
H295 C279 0.960 . S
C296 C297 1.391 . S
C296 C298 1.394 . S
C296 H312 0.931 . S
C297 C296 1.391 . S
C297 C301 1.376 . S
C298 C296 1.394 . S
C298 C299 1.369 . S
C298 C302 1.531 . S
C299 C298 1.369 . S
C299 C300 1.410 . S
C299 C307 1.503 . S
C300 C299 1.410 . S
C300 C301 1.392 . S
C300 C303 1.511 . S
C301 C297 1.376 . S
C301 C300 1.392 . S
C301 H313 0.929 . S
C302 C298 1.531 . S
C302 H314 0.960 . S
C302 H315 0.962 . S
C302 H316 0.960 1_554 S
C303 C300 1.511 . S
C303 H317 0.961 . S
C303 H318 0.961 . S
C303 H319 0.961 . S
C304 C305 1.370 . S
C304 C306 1.363 . S
C304 H320 0.931 . S
C305 C304 1.370 . S
C305 C309 1.408 . S
C306 C304 1.363 . S
C306 C307 1.370 . S
C306 C310 1.524 . S
C307 C299 1.503 . S
C307 C306 1.370 . S
C307 C308 1.403 . S
C308 C307 1.403 . S
C308 C309 1.404 . S
C308 C311 1.539 . S
C309 C305 1.408 . S
C309 C308 1.404 . S
C309 H321 0.930 . S
C310 C306 1.524 . S
C310 H322 0.956 . S
C310 H323 0.961 . S
C310 H324 0.961 . S
C311 C308 1.539 . S
C311 H325 0.958 . S
C311 H326 0.961 . S
C311 H327 0.960 . S
H312 C296 0.931 . S
H313 C301 0.929 . S
H314 C302 0.960 . S
H315 C302 0.962 . S
H316 C302 0.960 1_556 S
H317 C303 0.961 . S
H318 C303 0.961 . S
H319 C303 0.961 . S
H320 C304 0.931 . S
H321 C309 0.930 . S
H322 C310 0.956 . S
H323 C310 0.961 . S
H324 C310 0.961 . S
H325 C311 0.958 . S
H326 C311 0.961 . S
H327 C311 0.960 . S
C328 C329 1.391 . S
C328 C330 1.394 . S
C328 H344 0.931 . S
C329 C328 1.391 . S
C329 C333 1.376 . S
C330 C328 1.394 . S
C330 C331 1.369 . S
C330 C334 1.531 . S
C331 C330 1.369 . S
C331 C332 1.410 . S
C331 C339 1.503 . S
C332 C331 1.410 . S
C332 C333 1.392 . S
C332 C335 1.511 . S
C333 C329 1.376 . S
C333 C332 1.392 . S
C333 H345 0.929 . S
C334 C330 1.531 . S
C334 H346 0.960 . S
C334 H347 0.962 . S
C334 H348 0.960 . S
C335 C332 1.511 . S
C335 H349 0.961 . S
C335 H350 0.961 . S
C335 H351 0.961 . S
C336 C337 1.370 . S
C336 C338 1.363 . S
C336 H352 0.931 . S
C337 C336 1.370 . S
C337 C341 1.408 . S
C338 C336 1.363 . S
C338 C339 1.370 . S
C338 C342 1.524 . S
C339 C331 1.503 . S
C339 C338 1.370 . S
C339 C340 1.403 . S
C340 C339 1.403 . S
C340 C341 1.404 . S
C340 C343 1.539 . S
C341 C337 1.408 . S
C341 C340 1.404 . S
C341 H353 0.930 . S
C342 C338 1.524 . S
C342 H354 0.956 . S
C342 H355 0.961 . S
C342 H356 0.961 . S
C343 C340 1.539 . S
C343 H357 0.958 . S
C343 H358 0.961 . S
C343 H359 0.960 . S
H344 C328 0.931 . S
H345 C333 0.929 . S
H346 C334 0.960 . S
H347 C334 0.962 . S
H348 C334 0.960 . S
H349 C335 0.961 . S
H350 C335 0.961 . S
H351 C335 0.961 . S
H352 C336 0.931 . S
H353 C341 0.930 . S
H354 C342 0.956 . S
H355 C342 0.961 . S
H356 C342 0.961 . S
H357 C343 0.958 . S
H358 C343 0.961 . S
H359 C343 0.960 . S
C360 C361 1.391 . S
C360 C362 1.394 . S
C360 H376 0.931 . S
C361 C360 1.391 . S
C361 C365 1.376 . S
C362 C360 1.394 . S
C362 C363 1.369 . S
C362 C366 1.531 . S
C363 C362 1.369 . S
C363 C364 1.410 . S
C363 C371 1.503 . S
C364 C363 1.410 . S
C364 C365 1.392 . S
C364 C367 1.511 . S
C365 C361 1.376 . S
C365 C364 1.392 . S
C365 H377 0.929 . S
C366 C362 1.531 . S
C366 H378 0.960 . S
C366 H379 0.962 . S
C366 H380 0.960 . S
C367 C364 1.511 . S
C367 H381 0.961 . S
C367 H382 0.961 . S
C367 H383 0.961 . S
C368 C369 1.370 . S
C368 C370 1.363 . S
C368 H384 0.931 . S
C369 C368 1.370 . S
C369 C373 1.408 . S
C370 C368 1.363 . S
C370 C371 1.370 . S
C370 C374 1.524 . S
C371 C363 1.503 . S
C371 C370 1.370 . S
C371 C372 1.403 . S
C372 C371 1.403 . S
C372 C373 1.404 . S
C372 C375 1.539 . S
C373 C369 1.408 . S
C373 C372 1.404 . S
C373 H385 0.930 . S
C374 C370 1.524 . S
C374 H386 0.956 . S
C374 H387 0.961 . S
C374 H388 0.961 . S
C375 C372 1.539 . S
C375 H389 0.958 . S
C375 H390 0.961 . S
C375 H391 0.960 . S
H376 C360 0.931 . S
H377 C365 0.929 . S
H378 C366 0.960 . S
H379 C366 0.962 . S
H380 C366 0.960 . S
H381 C367 0.961 . S
H382 C367 0.961 . S
H383 C367 0.961 . S
H384 C368 0.931 . S
H385 C373 0.930 . S
H386 C374 0.956 . S
H387 C374 0.961 . S
H388 C374 0.961 . S
H389 C375 0.958 . S
H390 C375 0.961 . S
H391 C375 0.960 . S
C392 C393 1.391 . S
C392 C394 1.394 . S
C392 H408 0.931 . S
C393 C392 1.391 . S
C393 C397 1.376 . S
C394 C392 1.394 . S
C394 C395 1.369 . S
C394 C398 1.531 . S
C395 C394 1.369 . S
C395 C396 1.410 . S
C395 C403 1.503 . S
C396 C395 1.410 . S
C396 C397 1.392 . S
C396 C399 1.511 . S
C397 C393 1.376 . S
C397 C396 1.392 . S
C397 H409 0.929 . S
C398 C394 1.531 . S
C398 H410 0.960 . S
C398 H411 0.962 . S
C398 H412 0.960 . S
C399 C396 1.511 . S
C399 H413 0.961 . S
C399 H414 0.961 . S
C399 H415 0.961 . S
C400 C401 1.370 . S
C400 C402 1.363 . S
C400 H416 0.931 . S
C401 C400 1.370 . S
C401 C405 1.408 . S
C402 C400 1.363 . S
C402 C403 1.370 . S
C402 C406 1.524 . S
C403 C395 1.503 . S
C403 C402 1.370 . S
C403 C404 1.403 . S
C404 C403 1.403 . S
C404 C405 1.404 . S
C404 C407 1.539 . S
C405 C401 1.408 . S
C405 C404 1.404 . S
C405 H417 0.930 . S
C406 C402 1.524 . S
C406 H418 0.956 . S
C406 H419 0.961 . S
C406 H420 0.961 . S
C407 C404 1.539 . S
C407 H421 0.958 . S
C407 H422 0.961 . S
C407 H423 0.960 . S
H408 C392 0.931 . S
H409 C397 0.929 . S
H410 C398 0.960 . S
H411 C398 0.962 . S
H412 C398 0.960 . S
H413 C399 0.961 . S
H414 C399 0.961 . S
H415 C399 0.961 . S
H416 C400 0.931 . S
H417 C405 0.930 . S
H418 C406 0.956 . S
H419 C406 0.961 . S
H420 C406 0.961 . S
H421 C407 0.958 . S
H422 C407 0.961 . S
H423 C407 0.960 . S
C424 C425 1.391 . S
C424 C426 1.394 . S
C424 H440 0.931 . S
C425 C424 1.391 . S
C425 C429 1.376 . S
C426 C424 1.394 . S
C426 C427 1.369 . S
C426 C430 1.531 . S
C427 C426 1.369 . S
C427 C428 1.410 . S
C427 C435 1.503 . S
C428 C427 1.410 . S
C428 C429 1.392 . S
C428 C431 1.511 . S
C429 C425 1.376 . S
C429 C428 1.392 . S
C429 H441 0.929 1_556 S
C430 C426 1.531 . S
C430 H442 0.960 . S
C430 H443 0.962 . S
C430 H444 0.960 . S
C431 C428 1.511 . S
C431 H445 0.961 . S
C431 H446 0.961 . S
C431 H447 0.961 . S
C432 C433 1.370 . S
C432 C434 1.363 . S
C432 H448 0.931 . S
C433 C432 1.370 . S
C433 C437 1.408 . S
C434 C432 1.363 . S
C434 C435 1.370 . S
C434 C438 1.524 . S
C435 C427 1.503 . S
C435 C434 1.370 . S
C435 C436 1.403 . S
C436 C435 1.403 . S
C436 C437 1.404 . S
C436 C439 1.539 . S
C437 C433 1.408 . S
C437 C436 1.404 . S
C437 H449 0.930 . S
C438 C434 1.524 . S
C438 H450 0.956 . S
C438 H451 0.961 . S
C438 H452 0.961 . S
C439 C436 1.539 . S
C439 H453 0.958 . S
C439 H454 0.961 . S
C439 H455 0.960 . S
H440 C424 0.931 . S
H441 C429 0.929 1_554 S
H442 C430 0.960 . S
H443 C430 0.962 . S
H444 C430 0.960 . S
H445 C431 0.961 . S
H446 C431 0.961 . S
H447 C431 0.961 . S
H448 C432 0.931 . S
H449 C437 0.930 . S
H450 C438 0.956 . S
H451 C438 0.961 . S
H452 C438 0.961 . S
H453 C439 0.958 . S
H454 C439 0.961 . S
H455 C439 0.960 . S
C456 C457 1.391 . S
C456 C458 1.394 . S
C456 H472 0.931 . S
C457 C456 1.391 . S
C457 C461 1.376 . S
C458 C456 1.394 . S
C458 C459 1.369 . S
C458 C462 1.531 . S
C459 C458 1.369 . S
C459 C460 1.410 . S
C459 C467 1.503 . S
C460 C459 1.410 . S
C460 C461 1.392 . S
C460 C463 1.511 . S
C461 C457 1.376 . S
C461 C460 1.392 . S
C461 H473 0.929 . S
C462 C458 1.531 . S
C462 H474 0.960 . S
C462 H475 0.962 . S
C462 H476 0.960 . S
C463 C460 1.511 . S
C463 H477 0.961 . S
C463 H478 0.961 . S
C463 H479 0.961 . S
C464 C465 1.370 . S
C464 C466 1.363 . S
C464 H480 0.931 . S
C465 C464 1.370 . S
C465 C469 1.408 . S
C466 C464 1.363 . S
C466 C467 1.370 . S
C466 C470 1.524 . S
C467 C459 1.503 . S
C467 C466 1.370 . S
C467 C468 1.403 . S
C468 C467 1.403 . S
C468 C469 1.404 . S
C468 C471 1.539 . S
C469 C465 1.408 . S
C469 C468 1.404 . S
C469 H481 0.930 1_554 S
C470 C466 1.524 . S
C470 H482 0.956 . S
C470 H483 0.961 . S
C470 H484 0.961 . S
C471 C468 1.539 . S
C471 H485 0.958 . S
C471 H486 0.961 . S
C471 H487 0.960 . S
H472 C456 0.931 . S
H473 C461 0.929 . S
H474 C462 0.960 . S
H475 C462 0.962 . S
H476 C462 0.960 . S
H477 C463 0.961 . S
H478 C463 0.961 . S
H479 C463 0.961 . S
H480 C464 0.931 . S
H481 C469 0.930 1_556 S
H482 C470 0.956 . S
H483 C470 0.961 . S
H484 C470 0.961 . S
H485 C471 0.958 . S
H486 C471 0.961 . S
H487 C471 0.960 . S
C488 C489 1.391 . S
C488 C490 1.394 . S
C488 H504 0.931 . S
C489 C488 1.391 . S
C489 C493 1.376 . S
C490 C488 1.394 . S
C490 C491 1.369 . S
C490 C494 1.531 . S
C491 C490 1.369 . S
C491 C492 1.410 . S
C491 C499 1.503 . S
C492 C491 1.410 . S
C492 C493 1.392 . S
C492 C495 1.511 . S
C493 C489 1.376 . S
C493 C492 1.392 . S
C493 H505 0.929 . S
C494 C490 1.531 . S
C494 H506 0.960 . S
C494 H507 0.962 . S
C494 H508 0.960 . S
C495 C492 1.511 . S
C495 H509 0.961 . S
C495 H510 0.961 . S
C495 H511 0.961 . S
C496 C497 1.370 . S
C496 C498 1.363 . S
C496 H512 0.931 . S
C497 C496 1.370 . S
C497 C501 1.408 . S
C498 C496 1.363 . S
C498 C499 1.370 . S
C498 C502 1.524 . S
C499 C491 1.503 . S
C499 C498 1.370 . S
C499 C500 1.403 . S
C500 C499 1.403 . S
C500 C501 1.404 . S
C500 C503 1.539 . S
C501 C497 1.408 . S
C501 C500 1.404 . S
C501 H513 0.930 . S
C502 C498 1.524 . S
C502 H514 0.956 . S
C502 H515 0.961 . S
C502 H516 0.961 . S
C503 C500 1.539 . S
C503 H517 0.958 . S
C503 H518 0.961 . S
C503 H519 0.960 . S
H504 C488 0.931 . S
H505 C493 0.929 . S
H506 C494 0.960 . S
H507 C494 0.962 . S
H508 C494 0.960 . S
H509 C495 0.961 . S
H510 C495 0.961 . S
H511 C495 0.961 . S
H512 C496 0.931 . S
H513 C501 0.930 . S
H514 C502 0.956 . S
H515 C502 0.961 . S
H516 C502 0.961 . S
H517 C503 0.958 . S
H518 C503 0.961 . S
H519 C503 0.960 . S
C520 C521 1.391 . S
C520 C522 1.394 . S
C520 H536 0.931 . S
C521 C520 1.391 . S
C521 C525 1.376 . S
C522 C520 1.394 . S
C522 C523 1.369 . S
C522 C526 1.531 . S
C523 C522 1.369 . S
C523 C524 1.410 . S
C523 C531 1.503 . S
C524 C523 1.410 . S
C524 C525 1.392 . S
C524 C527 1.511 . S
C525 C521 1.376 . S
C525 C524 1.392 . S
C525 H537 0.929 . S
C526 C522 1.531 . S
C526 H538 0.960 . S
C526 H539 0.962 . S
C526 H540 0.960 . S
C527 C524 1.511 . S
C527 H541 0.961 . S
C527 H542 0.961 . S
C527 H543 0.961 . S
C528 C529 1.370 . S
C528 C530 1.363 . S
C528 H544 0.931 . S
C529 C528 1.370 . S
C529 C533 1.408 . S
C530 C528 1.363 . S
C530 C531 1.370 . S
C530 C534 1.524 . S
C531 C523 1.503 . S
C531 C530 1.370 . S
C531 C532 1.403 . S
C532 C531 1.403 . S
C532 C533 1.404 . S
C532 C535 1.539 . S
C533 C529 1.408 . S
C533 C532 1.404 . S
C533 H545 0.930 . S
C534 C530 1.524 . S
C534 H546 0.956 . S
C534 H547 0.961 . S
C534 H548 0.961 . S
C535 C532 1.539 . S
C535 H549 0.958 . S
C535 H550 0.961 . S
C535 H551 0.960 . S
H536 C520 0.931 . S
H537 C525 0.929 . S
H538 C526 0.960 . S
H539 C526 0.962 . S
H540 C526 0.960 . S
H541 C527 0.961 . S
H542 C527 0.961 . S
H543 C527 0.961 . S
H544 C528 0.931 . S
H545 C533 0.930 . S
H546 C534 0.956 . S
H547 C534 0.961 . S
H548 C534 0.961 . S
H549 C535 0.958 . S
H550 C535 0.961 . S
H551 C535 0.960 . S
C552 C553 1.391 . S
C552 C554 1.394 . S
C552 H568 0.931 . S
C553 C552 1.391 . S
C553 C557 1.376 . S
C554 C552 1.394 . S
C554 C555 1.369 . S
C554 C558 1.531 . S
C555 C554 1.369 . S
C555 C556 1.410 . S
C555 C563 1.503 1_655 S
C556 C555 1.410 . S
C556 C557 1.392 . S
C556 C559 1.511 . S
C557 C553 1.376 . S
C557 C556 1.392 . S
C557 H569 0.929 . S
C558 C554 1.531 . S
C558 H570 0.960 . S
C558 H571 0.962 . S
C558 H572 0.960 . S
C559 C556 1.511 . S
C559 H573 0.961 . S
C559 H574 0.961 1_655 S
C559 H575 0.961 . S
C560 C561 1.370 . S
C560 C562 1.363 . S
C560 H576 0.931 . S
C561 C560 1.370 . S
C561 C565 1.408 . S
C562 C560 1.363 . S
C562 C563 1.370 . S
C562 C566 1.524 . S
C563 C555 1.503 1_455 S
C563 C562 1.370 . S
C563 C564 1.403 . S
C564 C563 1.403 . S
C564 C565 1.404 . S
C564 C567 1.539 . S
C565 C561 1.408 . S
C565 C564 1.404 . S
C565 H577 0.930 . S
C566 C562 1.524 . S
C566 H578 0.956 . S
C566 H579 0.961 . S
C566 H580 0.961 . S
C567 C564 1.539 . S
C567 H581 0.958 1_455 S
C567 H582 0.961 . S
C567 H583 0.960 1_455 S
H568 C552 0.931 . S
H569 C557 0.929 . S
H570 C558 0.960 . S
H571 C558 0.962 . S
H572 C558 0.960 . S
H573 C559 0.961 . S
H574 C559 0.961 1_455 S
H575 C559 0.961 . S
H576 C560 0.931 . S
H577 C565 0.930 . S
H578 C566 0.956 . S
H579 C566 0.961 . S
H580 C566 0.961 . S
H581 C567 0.958 1_655 S
H582 C567 0.961 . S
H583 C567 0.960 1_655 S
C584 C585 1.391 . S
C584 C586 1.394 . S
C584 H600 0.931 . S
C585 C584 1.391 . S
C585 C589 1.376 . S
C586 C584 1.394 . S
C586 C587 1.369 . S
C586 C590 1.537 . S
C587 C586 1.369 . S
C587 C588 1.410 . S
C587 C595 1.503 1_565 S
C588 C587 1.410 . S
C588 C589 1.392 . S
C588 C591 1.511 . S
C589 C585 1.376 . S
C589 C588 1.392 . S
C589 H601 0.929 . S
C590 C586 1.537 . S
C590 H602 0.934 1_565 S
C590 H603 0.973 . S
C590 H604 0.971 . S
C591 C588 1.511 . S
C591 H605 0.961 . S
C591 H606 0.961 . S
C591 H607 0.961 . S
C592 C593 1.370 . S
C592 C594 1.363 . S
C592 H608 0.931 . S
C593 C592 1.370 . S
C593 C597 1.408 . S
C594 C592 1.363 . S
C594 C595 1.370 . S
C594 C598 1.524 1_545 S
C595 C587 1.503 1_545 S
C595 C594 1.370 . S
C595 C596 1.403 . S
C596 C595 1.403 . S
C596 C597 1.404 . S
C596 C599 1.539 . S
C597 C593 1.408 . S
C597 C596 1.404 . S
C597 H609 0.930 . S
C598 C594 1.524 1_565 S
C598 H610 0.956 . S
C598 H611 0.961 . S
C598 H612 0.961 1_565 S
C599 C596 1.539 . S
C599 H613 0.958 . S
C599 H614 0.961 . S
C599 H615 0.960 . S
H600 C584 0.931 . S
H601 C589 0.929 . S
H602 C590 0.934 1_545 S
H603 C590 0.973 . S
H604 C590 0.971 . S
H605 C591 0.961 . S
H606 C591 0.961 . S
H607 C591 0.961 . S
H608 C592 0.931 . S
H609 C597 0.930 . S
H610 C598 0.956 . S
H611 C598 0.961 . S
H612 C598 0.961 1_545 S
H613 C599 0.958 . S
H614 C599 0.961 . S
H615 C599 0.960 . S
C616 C617 1.391 . S
C616 C618 1.394 . S
C616 H632 0.931 . S
C617 C616 1.391 . S
C617 C621 1.376 . S
C618 C616 1.394 . S
C618 C619 1.369 . S
C618 C622 1.531 . S
C619 C618 1.369 . S
C619 C620 1.410 . S
C619 C627 1.503 . S
C620 C619 1.410 . S
C620 C621 1.392 . S
C620 C623 1.511 . S
C621 C617 1.376 . S
C621 C620 1.392 . S
C621 H633 0.929 . S
C622 C618 1.531 . S
C622 H634 0.960 . S
C622 H635 0.962 . S
C622 H636 0.960 . S
C623 C620 1.511 . S
C623 H637 0.961 . S
C623 H638 0.961 . S
C623 H639 0.961 . S
C624 C625 1.370 . S
C624 C626 1.363 . S
C624 H640 0.931 . S
C625 C624 1.370 . S
C625 C629 1.408 . S
C626 C624 1.363 . S
C626 C627 1.370 . S
C626 C630 1.524 . S
C627 C619 1.503 . S
C627 C626 1.370 . S
C627 C628 1.403 . S
C628 C627 1.403 . S
C628 C629 1.404 . S
C628 C631 1.539 . S
C629 C625 1.408 . S
C629 C628 1.404 . S
C629 H641 0.930 . S
C630 C626 1.524 . S
C630 H642 0.956 . S
C630 H643 0.961 . S
C630 H644 0.961 . S
C631 C628 1.539 . S
C631 H645 0.958 . S
C631 H646 0.961 . S
C631 H647 0.960 . S
H632 C616 0.931 . S
H633 C621 0.929 . S
H634 C622 0.960 . S
H635 C622 0.962 . S
H636 C622 0.960 . S
H637 C623 0.961 . S
H638 C623 0.961 . S
H639 C623 0.961 . S
H640 C624 0.931 . S
H641 C629 0.930 . S
H642 C630 0.956 . S
H643 C630 0.961 . S
H644 C630 0.961 . S
H645 C631 0.958 . S
H646 C631 0.961 . S
H647 C631 0.960 . S
C648 C649 1.391 . S
C648 C650 1.394 . S
C648 H664 0.931 . S
C649 C648 1.391 . S
C649 C653 1.376 . S
C650 C648 1.394 . S
C650 C651 1.369 . S
C650 C654 1.531 1_455 S
C651 C650 1.369 . S
C651 C652 1.410 . S
C651 C659 1.503 1_455 S
C652 C651 1.410 . S
C652 C653 1.392 . S
C652 C655 1.511 . S
C653 C649 1.376 . S
C653 C652 1.392 . S
C653 H665 0.929 . S
C654 C650 1.531 1_655 S
C654 H666 0.960 . S
C654 H667 0.962 . S
C654 H668 0.960 1_655 S
C655 C652 1.511 . S
C655 H669 0.961 . S
C655 H670 0.961 . S
C655 H671 0.961 . S
C656 C657 1.370 . S
C656 C658 1.363 . S
C656 H672 0.931 . S
C657 C656 1.370 . S
C657 C661 1.408 . S
C658 C656 1.363 . S
C658 C659 1.370 . S
C658 C662 1.518 1_655 S
C659 C651 1.503 1_655 S
C659 C658 1.370 . S
C659 C660 1.403 . S
C660 C659 1.403 . S
C660 C661 1.404 . S
C660 C663 1.539 . S
C661 C657 1.408 . S
C661 C660 1.404 . S
C661 H673 0.930 . S
C662 C658 1.518 1_455 S
C662 H674 0.955 . S
C662 H675 0.979 . S
C662 H676 0.950 1_455 S
C663 C660 1.539 . S
C663 H677 0.958 . S
C663 H678 0.961 . S
C663 H679 0.960 . S
H664 C648 0.931 . S
H665 C653 0.929 . S
H666 C654 0.960 . S
H667 C654 0.962 . S
H668 C654 0.960 1_455 S
H669 C655 0.961 . S
H670 C655 0.961 . S
H671 C655 0.961 . S
H672 C656 0.931 . S
H673 C661 0.930 . S
H674 C662 0.955 . S
H675 C662 0.979 . S
H676 C662 0.950 1_655 S
H677 C663 0.958 . S
H678 C663 0.961 . S
H679 C663 0.960 . S
C680 C681 1.391 . S
C680 C682 1.394 1_556 S
C680 H696 0.931 1_556 S
C681 C680 1.391 . S
C681 C685 1.376 . S
C682 C680 1.394 1_554 S
C682 C683 1.361 1_554 S
C682 C686 1.531 . S
C683 C682 1.361 1_556 S
C683 C684 1.427 . S
C683 C691 1.497 1_546 S
C684 C683 1.427 . S
C684 C685 1.392 . S
C684 C687 1.511 . S
C685 C681 1.376 . S
C685 C684 1.392 . S
C685 H697 0.929 . S
C686 C682 1.531 . S
C686 H698 0.960 . S
C686 H699 0.962 . S
C686 H700 0.960 . S
C687 C684 1.511 . S
C687 H701 0.961 . S
C687 H702 0.961 1_545 S
C687 H703 0.961 . S
C688 C689 1.370 . S
C688 C690 1.363 1_554 S
C688 H704 0.931 1_554 S
C689 C688 1.370 . S
C689 C693 1.408 . S
C690 C688 1.363 1_556 S
C690 C691 1.370 1_556 S
C690 C694 1.524 . S
C691 C683 1.497 1_564 S
C691 C690 1.370 1_554 S
C691 C692 1.403 . S
C692 C691 1.403 . S
C692 C693 1.404 . S
C692 C695 1.539 . S
C693 C689 1.408 . S
C693 C692 1.404 . S
C693 H705 0.930 . S
C694 C690 1.524 . S
C694 H706 0.956 . S
C694 H707 0.961 . S
C694 H708 0.961 . S
C695 C692 1.539 . S
C695 H709 0.958 1_565 S
C695 H710 0.961 . S
C695 H711 0.960 1_565 S
H696 C680 0.931 1_554 S
H697 C685 0.929 . S
H698 C686 0.960 . S
H699 C686 0.962 . S
H700 C686 0.960 . S
H701 C687 0.961 . S
H702 C687 0.961 1_565 S
H703 C687 0.961 . S
H704 C688 0.931 1_556 S
H705 C693 0.930 . S
H706 C694 0.956 . S
H707 C694 0.961 . S
H708 C694 0.961 . S
H709 C695 0.958 1_545 S
H710 C695 0.961 . S
H711 C695 0.960 1_545 S
C712 C713 1.391 . S
C712 C714 1.394 . S
C712 H728 0.931 . S
C713 C712 1.391 . S
C713 C717 1.376 . S
C714 C712 1.394 . S
C714 C715 1.369 . S
C714 C718 1.531 . S
C715 C714 1.369 . S
C715 C716 1.410 . S
C715 C723 1.503 . S
C716 C715 1.410 . S
C716 C717 1.392 . S
C716 C719 1.511 . S
C717 C713 1.376 . S
C717 C716 1.392 . S
C717 H729 0.929 . S
C718 C714 1.531 . S
C718 H730 0.960 . S
C718 H731 0.962 . S
C718 H732 0.960 . S
C719 C716 1.511 . S
C719 H733 0.961 . S
C719 H734 0.961 . S
C719 H735 0.961 . S
C720 C721 1.370 . S
C720 C722 1.363 . S
C720 H736 0.931 . S
C721 C720 1.370 . S
C721 C725 1.408 . S
C722 C720 1.363 . S
C722 C723 1.370 . S
C722 C726 1.524 . S
C723 C715 1.503 . S
C723 C722 1.370 . S
C723 C724 1.403 . S
C724 C723 1.403 . S
C724 C725 1.404 . S
C724 C727 1.539 . S
C725 C721 1.408 . S
C725 C724 1.404 . S
C725 H737 0.930 . S
C726 C722 1.524 . S
C726 H738 0.956 . S
C726 H739 0.961 . S
C726 H740 0.961 . S
C727 C724 1.539 . S
C727 H741 0.958 . S
C727 H742 0.961 . S
C727 H743 0.960 . S
H728 C712 0.931 . S
H729 C717 0.929 . S
H730 C718 0.960 . S
H731 C718 0.962 . S
H732 C718 0.960 . S
H733 C719 0.961 . S
H734 C719 0.961 . S
H735 C719 0.961 . S
H736 C720 0.931 . S
H737 C725 0.930 . S
H738 C726 0.956 . S
H739 C726 0.961 . S
H740 C726 0.961 . S
H741 C727 0.958 . S
H742 C727 0.961 . S
H743 C727 0.960 . S
C744 C745 1.391 . S
C744 C746 1.394 . S
C744 H760 0.931 . S
C745 C744 1.391 . S
C745 C749 1.376 . S
C746 C744 1.394 . S
C746 C747 1.369 . S
C746 C750 1.531 . S
C747 C746 1.369 . S
C747 C748 1.410 . S
C747 C755 1.503 . S
C748 C747 1.410 . S
C748 C749 1.392 . S
C748 C751 1.511 . S
C749 C745 1.376 . S
C749 C748 1.392 . S
C749 H761 0.929 . S
C750 C746 1.531 . S
C750 H762 0.960 . S
C750 H763 0.962 . S
C750 H764 0.960 . S
C751 C748 1.511 . S
C751 H765 0.961 . S
C751 H766 0.961 . S
C751 H767 0.961 . S
C752 C753 1.370 . S
C752 C754 1.363 . S
C752 H768 0.931 . S
C753 C752 1.370 . S
C753 C757 1.408 . S
C754 C752 1.363 . S
C754 C755 1.370 . S
C754 C758 1.524 . S
C755 C747 1.503 . S
C755 C754 1.370 . S
C755 C756 1.403 . S
C756 C755 1.403 . S
C756 C757 1.404 . S
C756 C759 1.539 . S
C757 C753 1.408 . S
C757 C756 1.404 . S
C757 H769 0.930 . S
C758 C754 1.524 . S
C758 H770 0.956 . S
C758 H771 0.961 . S
C758 H772 0.961 . S
C759 C756 1.539 . S
C759 H773 0.958 . S
C759 H774 0.961 . S
C759 H775 0.960 . S
H760 C744 0.931 . S
H761 C749 0.929 . S
H762 C750 0.960 . S
H763 C750 0.962 . S
H764 C750 0.960 . S
H765 C751 0.961 . S
H766 C751 0.961 . S
H767 C751 0.961 . S
H768 C752 0.931 . S
H769 C757 0.930 . S
H770 C758 0.956 . S
H771 C758 0.961 . S
H772 C758 0.961 . S
H773 C759 0.958 . S
H774 C759 0.961 . S
H775 C759 0.960 . S
C776 C777 1.391 . S
C776 C778 1.394 . S
C776 H792 0.931 . S
C777 C776 1.391 . S
C777 C781 1.376 . S
C778 C776 1.394 . S
C778 C779 1.369 . S
C778 C782 1.531 . S
C779 C778 1.369 . S
C779 C780 1.410 . S
C779 C787 1.503 . S
C780 C779 1.410 . S
C780 C781 1.392 . S
C780 C783 1.511 . S
C781 C777 1.376 . S
C781 C780 1.392 . S
C781 H793 0.929 . S
C782 C778 1.531 . S
C782 H794 0.960 . S
C782 H795 0.962 . S
C782 H796 0.960 . S
C783 C780 1.511 . S
C783 H797 0.961 . S
C783 H798 0.961 . S
C783 H799 0.961 . S
C784 C785 1.370 . S
C784 C786 1.363 . S
C784 H800 0.931 . S
C785 C784 1.370 . S
C785 C789 1.408 . S
C786 C784 1.363 . S
C786 C787 1.370 . S
C786 C790 1.524 . S
C787 C779 1.503 . S
C787 C786 1.370 . S
C787 C788 1.403 . S
C788 C787 1.403 . S
C788 C789 1.404 . S
C788 C791 1.539 . S
C789 C785 1.408 . S
C789 C788 1.404 . S
C789 H801 0.930 . S
C790 C786 1.524 . S
C790 H802 0.956 . S
C790 H803 0.961 . S
C790 H804 0.961 . S
C791 C788 1.539 . S
C791 H805 0.958 . S
C791 H806 0.961 . S
C791 H807 0.960 . S
H792 C776 0.931 . S
H793 C781 0.929 . S
H794 C782 0.960 . S
H795 C782 0.962 . S
H796 C782 0.960 . S
H797 C783 0.961 . S
H798 C783 0.961 . S
H799 C783 0.961 . S
H800 C784 0.931 . S
H801 C789 0.930 . S
H802 C790 0.956 . S
H803 C790 0.961 . S
H804 C790 0.961 . S
H805 C791 0.958 . S
H806 C791 0.961 . S
H807 C791 0.960 . S
C808 C809 1.391 . S
C808 C810 1.394 . S
C808 H824 0.931 . S
C809 C808 1.391 . S
C809 C813 1.376 . S
C810 C808 1.394 . S
C810 C811 1.369 . S
C810 C814 1.531 . S
C811 C810 1.369 . S
C811 C812 1.410 . S
C811 C819 1.503 . S
C812 C811 1.410 . S
C812 C813 1.392 . S
C812 C815 1.511 . S
C813 C809 1.376 . S
C813 C812 1.392 . S
C813 H825 0.929 . S
C814 C810 1.531 . S
C814 H826 0.960 . S
C814 H827 0.962 . S
C814 H828 0.960 . S
C815 C812 1.511 . S
C815 H829 0.961 . S
C815 H830 0.961 . S
C815 H831 0.961 . S
C816 C817 1.370 . S
C816 C818 1.363 . S
C816 H832 0.931 . S
C817 C816 1.370 . S
C817 C821 1.408 . S
C818 C816 1.363 . S
C818 C819 1.370 . S
C818 C822 1.524 . S
C819 C811 1.503 . S
C819 C818 1.370 . S
C819 C820 1.403 . S
C820 C819 1.403 . S
C820 C821 1.404 . S
C820 C823 1.539 . S
C821 C817 1.408 . S
C821 C820 1.404 . S
C821 H833 0.930 . S
C822 C818 1.524 . S
C822 H834 0.956 . S
C822 H835 0.961 . S
C822 H836 0.961 . S
C823 C820 1.539 . S
C823 H837 0.958 . S
C823 H838 0.961 . S
C823 H839 0.960 . S
H824 C808 0.931 . S
H825 C813 0.929 . S
H826 C814 0.960 . S
H827 C814 0.962 . S
H828 C814 0.960 . S
H829 C815 0.961 . S
H830 C815 0.961 . S
H831 C815 0.961 . S
H832 C816 0.931 . S
H833 C821 0.930 . S
H834 C822 0.956 . S
H835 C822 0.961 . S
H836 C822 0.961 . S
H837 C823 0.958 . S
H838 C823 0.961 . S
H839 C823 0.960 . S
C840 C841 1.391 . S
C840 C842 1.394 . S
C840 H856 0.931 . S
C841 C840 1.391 . S
C841 C845 1.376 . S
C842 C840 1.394 . S
C842 C843 1.369 . S
C842 C846 1.531 . S
C843 C842 1.369 . S
C843 C844 1.410 . S
C843 C851 1.503 . S
C844 C843 1.410 . S
C844 C845 1.392 . S
C844 C847 1.511 . S
C845 C841 1.376 . S
C845 C844 1.392 . S
C845 H857 0.929 . S
C846 C842 1.531 . S
C846 H858 0.960 . S
C846 H859 0.962 . S
C846 H860 0.960 . S
C847 C844 1.511 . S
C847 H861 0.961 . S
C847 H862 0.961 . S
C847 H863 0.961 . S
C848 C849 1.370 . S
C848 C850 1.363 . S
C848 H864 0.931 . S
C849 C848 1.370 . S
C849 C853 1.408 . S
C850 C848 1.363 . S
C850 C851 1.370 . S
C850 C854 1.524 . S
C851 C843 1.503 . S
C851 C850 1.370 . S
C851 C852 1.403 . S
C852 C851 1.403 . S
C852 C853 1.404 . S
C852 C855 1.539 . S
C853 C849 1.408 . S
C853 C852 1.404 . S
C853 H865 0.930 . S
C854 C850 1.524 . S
C854 H866 0.956 . S
C854 H867 0.961 . S
C854 H868 0.961 . S
C855 C852 1.539 . S
C855 H869 0.958 . S
C855 H870 0.961 . S
C855 H871 0.960 . S
H856 C840 0.931 . S
H857 C845 0.929 . S
H858 C846 0.960 . S
H859 C846 0.962 . S
H860 C846 0.960 . S
H861 C847 0.961 . S
H862 C847 0.961 . S
H863 C847 0.961 . S
H864 C848 0.931 . S
H865 C853 0.930 . S
H866 C854 0.956 . S
H867 C854 0.961 . S
H868 C854 0.961 . S
H869 C855 0.958 . S
H870 C855 0.961 . S
H871 C855 0.960 . S
C872 C873 1.391 . S
C872 C874 1.394 . S
C872 H888 0.931 . S
C873 C872 1.391 . S
C873 C877 1.376 . S
C874 C872 1.394 . S
C874 C875 1.369 . S
C874 C878 1.531 . S
C875 C874 1.369 . S
C875 C876 1.410 . S
C875 C883 1.503 . S
C876 C875 1.410 . S
C876 C877 1.392 . S
C876 C879 1.511 . S
C877 C873 1.376 . S
C877 C876 1.392 . S
C877 H889 0.929 1_556 S
C878 C874 1.531 . S
C878 H890 0.960 . S
C878 H891 0.962 . S
C878 H892 0.960 . S
C879 C876 1.511 . S
C879 H893 0.961 . S
C879 H894 0.961 . S
C879 H895 0.961 . S
C880 C881 1.370 . S
C880 C882 1.363 . S
C880 H896 0.931 . S
C881 C880 1.370 . S
C881 C885 1.408 . S
C882 C880 1.363 . S
C882 C883 1.370 . S
C882 C886 1.524 . S
C883 C875 1.503 . S
C883 C882 1.370 . S
C883 C884 1.403 . S
C884 C883 1.403 . S
C884 C885 1.404 . S
C884 C887 1.539 . S
C885 C881 1.408 . S
C885 C884 1.404 . S
C885 H897 0.930 . S
C886 C882 1.524 . S
C886 H898 0.956 . S
C886 H899 0.961 . S
C886 H900 0.961 . S
C887 C884 1.539 . S
C887 H901 0.958 . S
C887 H902 0.961 . S
C887 H903 0.960 . S
H888 C872 0.931 . S
H889 C877 0.929 1_554 S
H890 C878 0.960 . S
H891 C878 0.962 . S
H892 C878 0.960 . S
H893 C879 0.961 . S
H894 C879 0.961 . S
H895 C879 0.961 . S
H896 C880 0.931 . S
H897 C885 0.930 . S
H898 C886 0.956 . S
H899 C886 0.961 . S
H900 C886 0.961 . S
H901 C887 0.958 . S
H902 C887 0.961 . S
H903 C887 0.960 . S
C904 C905 1.391 . S
C904 C906 1.394 . S
C904 H920 0.931 . S
C905 C904 1.391 . S
C905 C909 1.376 . S
C906 C904 1.394 . S
C906 C907 1.369 . S
C906 C910 1.531 . S
C907 C906 1.369 . S
C907 C908 1.410 . S
C907 C915 1.503 . S
C908 C907 1.410 . S
C908 C909 1.392 . S
C908 C911 1.511 . S
C909 C905 1.376 . S
C909 C908 1.392 . S
C909 H921 0.929 . S
C910 C906 1.531 . S
C910 H922 0.960 . S
C910 H923 0.962 . S
C910 H924 0.960 . S
C911 C908 1.511 . S
C911 H925 0.961 . S
C911 H926 0.961 . S
C911 H927 0.961 . S
C912 C913 1.370 . S
C912 C914 1.363 . S
C912 H928 0.931 . S
C913 C912 1.370 . S
C913 C917 1.408 . S
C914 C912 1.363 . S
C914 C915 1.370 . S
C914 C918 1.524 . S
C915 C907 1.503 . S
C915 C914 1.370 . S
C915 C916 1.403 . S
C916 C915 1.403 . S
C916 C917 1.404 . S
C916 C919 1.539 . S
C917 C913 1.408 . S
C917 C916 1.404 . S
C917 H929 0.930 1_554 S
C918 C914 1.524 . S
C918 H930 0.956 . S
C918 H931 0.961 . S
C918 H932 0.961 . S
C919 C916 1.539 . S
C919 H933 0.958 . S
C919 H934 0.961 . S
C919 H935 0.960 . S
H920 C904 0.931 . S
H921 C909 0.929 . S
H922 C910 0.960 . S
H923 C910 0.962 . S
H924 C910 0.960 . S
H925 C911 0.961 . S
H926 C911 0.961 . S
H927 C911 0.961 . S
H928 C912 0.931 . S
H929 C917 0.930 1_556 S
H930 C918 0.956 . S
H931 C918 0.961 . S
H932 C918 0.961 . S
H933 C919 0.958 . S
H934 C919 0.961 . S
H935 C919 0.960 . S
C169 C9 0.840 . S
C177 C93 0.802 . S
C201 C23 0.839 . S
C209 C107 0.805 . S
C233 C121 0.741 . S
C241 C37 0.783 . S
C265 C51 0.731 . S
C273 C135 0.776 . S
C297 C65 0.840 . S
C305 C149 0.799 . S
C329 C163 0.732 . S
C337 C79 0.763 . S
C361 C119 1.463 . S
C369 C7 1.446 . S
C393 C21 1.501 . S
C401 C133 1.466 . S
C425 C147 1.419 1_556 S
C433 C35 1.469 . S
C457 C161 1.501 . S
C465 C49 1.462 1_554 S
C489 C63 1.500 . S
C497 C91 1.467 . S
C521 C77 1.451 . S
C529 C105 1.447 . S
C553 C162 1.353 . S
C561 C8 1.363 . S
C585 C92 1.365 . S
C593 C22 1.361 . S
C617 C36 1.365 . S
C625 C106 1.361 . S
C649 C120 1.364 . S
C657 C50 1.361 . S
C681 C134 1.353 . S
C689 C64 1.363 . S
C713 C148 1.356 . S
C721 C78 1.362 . S
C745 C3 1.519 . S
C753 C143 1.518 . S
C777 C157 1.476 . S
C785 C17 1.495 . S
C809 C31 1.532 . S
C817 C87 1.513 . S
C841 C45 1.481 . S
C849 C101 1.510 . S
C873 C59 1.471 1_556 S
C881 C115 1.501 . S
C905 C73 1.472 . S
C913 C129 1.502 1_554 S
