# Generated by pormake.
# Topology uoz, (4)-cn, num edge types: 1
# Building blocks:
#     Node 0, Type 0, BuildingBlock: NAHDIM_clean_sbu_0, # of connection points: 4
#     Node 1, Type 0, BuildingBlock: NAHDIM_clean_sbu_0, # of connection points: 4
#     Node 2, Type 0, BuildingBlock: NAHDIM_clean_sbu_0, # of connection points: 4
#     Node 3, Type 0, BuildingBlock: NAHDIM_clean_sbu_0, # of connection points: 4
#     Node 4, Type 0, BuildingBlock: NAHDIM_clean_sbu_0, # of connection points: 4
#     Node 5, Type 0, BuildingBlock: NAHDIM_clean_sbu_0, # of connection points: 4
#     Node 6, Type 0, BuildingBlock: NAHDIM_clean_sbu_0, # of connection points: 4
#     Node 7, Type 0, BuildingBlock: NAHDIM_clean_sbu_0, # of connection points: 4
#     Node 8, Type 0, BuildingBlock: NAHDIM_clean_sbu_0, # of connection points: 4
#     Node 9, Type 0, BuildingBlock: NAHDIM_clean_sbu_0, # of connection points: 4
#     Node 10, Type 0, BuildingBlock: NAHDIM_clean_sbu_0, # of connection points: 4
#     Node 11, Type 0, BuildingBlock: NAHDIM_clean_sbu_0, # of connection points: 4
#     Node 12, Type 0, BuildingBlock: NAHDIM_clean_sbu_0, # of connection points: 4
#     Node 13, Type 0, BuildingBlock: NAHDIM_clean_sbu_0, # of connection points: 4
#     Node 14, Type 0, BuildingBlock: NAHDIM_clean_sbu_0, # of connection points: 4
#     Node 15, Type 0, BuildingBlock: NAHDIM_clean_sbu_0, # of connection points: 4
#     Edge 16, Type (0, 0), BuildingBlock: TEMPAE_clean_linker_10, # of connection points: 2
#     Edge 17, Type (0, 0), BuildingBlock: TEMPAE_clean_linker_10, # of connection points: 2
#     Edge 18, Type (0, 0), BuildingBlock: TEMPAE_clean_linker_10, # of connection points: 2
#     Edge 19, Type (0, 0), BuildingBlock: TEMPAE_clean_linker_10, # of connection points: 2
#     Edge 20, Type (0, 0), BuildingBlock: TEMPAE_clean_linker_10, # of connection points: 2
#     Edge 21, Type (0, 0), BuildingBlock: TEMPAE_clean_linker_10, # of connection points: 2
#     Edge 22, Type (0, 0), BuildingBlock: TEMPAE_clean_linker_10, # of connection points: 2
#     Edge 23, Type (0, 0), BuildingBlock: TEMPAE_clean_linker_10, # of connection points: 2
#     Edge 24, Type (0, 0), BuildingBlock: TEMPAE_clean_linker_10, # of connection points: 2
#     Edge 25, Type (0, 0), BuildingBlock: TEMPAE_clean_linker_10, # of connection points: 2
#     Edge 26, Type (0, 0), BuildingBlock: TEMPAE_clean_linker_10, # of connection points: 2
#     Edge 27, Type (0, 0), BuildingBlock: TEMPAE_clean_linker_10, # of connection points: 2
#     Edge 28, Type (0, 0), BuildingBlock: TEMPAE_clean_linker_10, # of connection points: 2
#     Edge 29, Type (0, 0), BuildingBlock: TEMPAE_clean_linker_10, # of connection points: 2
#     Edge 30, Type (0, 0), BuildingBlock: TEMPAE_clean_linker_10, # of connection points: 2
#     Edge 31, Type (0, 0), BuildingBlock: TEMPAE_clean_linker_10, # of connection points: 2
#     Edge 32, Type (0, 0), BuildingBlock: TEMPAE_clean_linker_10, # of connection points: 2
#     Edge 33, Type (0, 0), BuildingBlock: TEMPAE_clean_linker_10, # of connection points: 2
#     Edge 34, Type (0, 0), BuildingBlock: TEMPAE_clean_linker_10, # of connection points: 2
#     Edge 35, Type (0, 0), BuildingBlock: TEMPAE_clean_linker_10, # of connection points: 2
#     Edge 36, Type (0, 0), BuildingBlock: TEMPAE_clean_linker_10, # of connection points: 2
#     Edge 37, Type (0, 0), BuildingBlock: TEMPAE_clean_linker_10, # of connection points: 2
#     Edge 38, Type (0, 0), BuildingBlock: TEMPAE_clean_linker_10, # of connection points: 2
#     Edge 39, Type (0, 0), BuildingBlock: TEMPAE_clean_linker_10, # of connection points: 2
#     Edge 40, Type (0, 0), BuildingBlock: TEMPAE_clean_linker_10, # of connection points: 2
#     Edge 41, Type (0, 0), BuildingBlock: TEMPAE_clean_linker_10, # of connection points: 2
#     Edge 42, Type (0, 0), BuildingBlock: TEMPAE_clean_linker_10, # of connection points: 2
#     Edge 43, Type (0, 0), BuildingBlock: TEMPAE_clean_linker_10, # of connection points: 2
#     Edge 44, Type (0, 0), BuildingBlock: TEMPAE_clean_linker_10, # of connection points: 2
#     Edge 45, Type (0, 0), BuildingBlock: TEMPAE_clean_linker_10, # of connection points: 2
#     Edge 46, Type (0, 0), BuildingBlock: TEMPAE_clean_linker_10, # of connection points: 2
#     Edge 47, Type (0, 0), BuildingBlock: TEMPAE_clean_linker_10, # of connection points: 2
# Relax obj value: 0.107
# Max RMSD: 0.095
# Mean RMSD: 0.095
data_MOF--net-uoz--node1-NAHDIM_clean_sbu_0--edge1-TEMPAE_clean_linker_10
_symmetry_space_group_name_H-M    P1
_symmetry_Int_Tables_number       1
_symmetry_cell_setting            triclinic
loop_
_symmetry_equiv_pos_as_xyz
'x, y, z'
_cell_length_a     59.994977
_cell_length_b     59.994028
_cell_length_c     22.859641
_cell_angle_alpha  90.021992
_cell_angle_beta   89.996568
_cell_angle_gamma 90.05174
loop_
_atom_site_label
_atom_site_type_symbol
_atom_site_fract_x
_atom_site_fract_y
_atom_site_fract_z
_atom_type_partial_charge
C0 C 0.04005 0.54724 0.38297 0.0
O1 O 0.04901 0.54148 0.33276 0.0
O2 O 0.05921 0.59792 0.29559 0.0
Zn3 Zn 0.02915 0.58415 0.31256 0.0
O4 O 0.0214 0.5635 0.24699 0.0
C5 C 0.00968 0.62717 0.29225 0.0
O6 O 0.0301 0.63162 0.27518 0.0
O7 O 0.0302 0.56596 0.38673 0.0
C8 C 0.01927 0.57053 0.19491 0.0
O9 O 0.02194 0.59187 0.18403 0.0
C10 C 0.07343 0.58915 0.26131 0.0
O11 O 0.06934 0.56943 0.23874 0.0
O12 O 0.00536 0.60802 0.31334 0.0
C13 C 0.73485 0.75623 0.64342 0.0
O14 O 0.74045 0.76516 0.59307 0.0
O15 O 0.68427 0.77642 0.55886 0.0
Zn16 Zn 0.69749 0.74601 0.57408 0.0
O17 O 0.71758 0.73826 0.50732 0.0
C18 C 0.65419 0.7275 0.55268 0.0
O19 O 0.65026 0.74815 0.53676 0.0
O20 O 0.71606 0.74649 0.64769 0.0
C21 C 0.71009 0.73662 0.45555 0.0
O22 O 0.68874 0.73987 0.44597 0.0
C23 C 0.69309 0.79067 0.52478 0.0
O24 O 0.71257 0.78636 0.50113 0.0
O25 O 0.67314 0.72264 0.57416 0.0
C26 C 0.52573 0.43626 0.92306 0.0
O27 O 0.50953 0.42155 0.9252 0.0
O28 O 0.50759 0.39894 0.80589 0.0
Zn29 Zn 0.53588 0.41697 0.8084 0.0
O30 O 0.53531 0.43823 0.74169 0.0
C31 C 0.56182 0.37625 0.80355 0.0
O32 O 0.54514 0.36773 0.83334 0.0
O33 O 0.53916 0.43605 0.88011 0.0
C34 C 0.53529 0.43141 0.68914 0.0
O35 O 0.53509 0.40987 0.6786 0.0
C36 C 0.48968 0.40721 0.78566 0.0
O37 O 0.48925 0.42842 0.77138 0.0
O38 O 0.56196 0.39698 0.79241 0.0
C39 C 0.83133 0.23929 0.13081 0.0
O40 O 0.82524 0.2312 0.07987 0.0
O41 O 0.88557 0.21667 0.05568 0.0
Zn42 Zn 0.87034 0.24655 0.06388 0.0
O43 O 0.85041 0.25122 0.99465 0.0
C44 C 0.91026 0.26779 0.02864 0.0
O45 O 0.91258 0.24829 0.00321 0.0
O46 O 0.8509 0.24727 0.13633 0.0
C47 C 0.85443 0.24374 0.94379 0.0
O48 O 0.87304 0.23287 0.93378 0.0
C49 C 0.87588 0.19945 0.03538 0.0
O50 O 0.85449 0.20033 0.02349 0.0
O51 O 0.8933 0.27117 0.06086 0.0
C52 C 0.05189 0.44503 0.73212 0.0
O53 O 0.06698 0.44971 0.77195 0.0
O54 O 0.06936 0.40035 0.83531 0.0
Zn55 Zn 0.04021 0.41643 0.82319 0.0
O56 O 0.03799 0.44183 0.87933 0.0
C57 C 0.01632 0.38785 0.89534 0.0
O58 O 0.03237 0.39502 0.92967 0.0
O59 O 0.03789 0.42961 0.74254 0.0
C60 C 0.01988 0.4526 0.88415 0.0
O61 O 0.00263 0.44669 0.85229 0.0
C62 C 0.08455 0.40787 0.86875 0.0
O63 O 0.08198 0.42754 0.89308 0.0
O64 O 0.01555 0.39495 0.84293 0.0
C65 C 0.83616 0.77143 0.99347 0.0
O66 O 0.83092 0.78646 0.03296 0.0
O67 O 0.87974 0.78911 0.10093 0.0
Zn68 Zn 0.86398 0.75988 0.08649 0.0
O69 O 0.83797 0.75708 0.14045 0.0
C70 C 0.89114 0.73481 0.16015 0.0
O71 O 0.88281 0.74982 0.19588 0.0
O72 O 0.85168 0.75768 0.0049 0.0
C73 C 0.82674 0.73917 0.14255 0.0
O74 O 0.83247 0.72234 0.10899 0.0
C75 C 0.87294 0.80296 0.13915 0.0
O76 O 0.85426 0.79892 0.16715 0.0
O77 O 0.88537 0.73525 0.1066 0.0
C78 C 0.51515 0.56561 0.20206 0.0
O79 O 0.49471 0.57171 0.21497 0.0
O80 O 0.49628 0.60358 0.31624 0.0
Zn81 Zn 0.52502 0.58625 0.31256 0.0
O82 O 0.52353 0.56105 0.36915 0.0
C83 C 0.54801 0.61256 0.39286 0.0
O84 O 0.53109 0.60517 0.42383 0.0
O85 O 0.53107 0.57175 0.23498 0.0
C86 C 0.54068 0.54907 0.37702 0.0
O87 O 0.55911 0.55386 0.34857 0.0
C88 C 0.47935 0.59587 0.34297 0.0
O89 O 0.47993 0.57538 0.36311 0.0
O90 O 0.54966 0.60657 0.33963 0.0
C91 C 0.72615 0.22874 0.47395 0.0
O92 O 0.73052 0.21348 0.51351 0.0
O93 O 0.68011 0.21346 0.5797 0.0
Zn94 Zn 0.69839 0.24131 0.56612 0.0
O95 O 0.72448 0.24196 0.62016 0.0
C96 C 0.65885 0.26835 0.58232 0.0
O97 O 0.64878 0.2519 0.55503 0.0
O98 O 0.71109 0.24307 0.48476 0.0
C99 C 0.72235 0.23979 0.67507 0.0
O100 O 0.70248 0.23638 0.69753 0.0
C101 C 0.68764 0.1961 0.60478 0.0
O102 O 0.7088 0.19521 0.61925 0.0
O103 O 0.67989 0.26783 0.58835 0.0
C104 C 0.33706 0.27079 0.48767 0.0
O105 O 0.33214 0.28585 0.52737 0.0
O106 O 0.37922 0.28613 0.60064 0.0
Zn107 Zn 0.36287 0.25743 0.58269 0.0
O108 O 0.33576 0.25523 0.63307 0.0
C109 C 0.38682 0.22985 0.65864 0.0
O110 O 0.37676 0.24347 0.69508 0.0
O111 O 0.35178 0.25625 0.49969 0.0
C112 C 0.32425 0.23749 0.63544 0.0
O113 O 0.33028 0.22015 0.60411 0.0
C114 C 0.37476 0.29717 0.64673 0.0
O115 O 0.35833 0.29054 0.68049 0.0
O116 O 0.38331 0.23205 0.60405 0.0
C117 C 0.23148 0.73138 0.98774 0.0
O118 O 0.23679 0.71842 0.03191 0.0
O119 O 0.18131 0.71036 0.07454 0.0
Zn120 Zn 0.1966 0.74017 0.06664 0.0
O121 O 0.21788 0.74398 0.13311 0.0
C122 C 0.16397 0.76201 0.12867 0.0
O123 O 0.1697 0.74528 0.16257 0.0
O124 O 0.21372 0.74288 0.99098 0.0
C125 C 0.22585 0.76307 0.14482 0.0
O126 O 0.2209 0.78003 0.1109 0.0
C127 C 0.18868 0.69533 0.10864 0.0
O128 O 0.20784 0.69846 0.13522 0.0
O129 O 0.17335 0.76389 0.07896 0.0
C130 C 0.23493 0.25937 0.13824 0.0
O131 O 0.24045 0.26834 0.08785 0.0
O132 O 0.1839 0.2799 0.05485 0.0
Zn133 Zn 0.19712 0.2495 0.06988 0.0
O134 O 0.2168 0.24152 0.00246 0.0
C135 C 0.15364 0.23111 0.04971 0.0
O136 O 0.14969 0.25175 0.03364 0.0
O137 O 0.21605 0.24985 0.1429 0.0
C138 C 0.20892 0.23928 0.95123 0.0
O139 O 0.18747 0.24215 0.94259 0.0
C140 C 0.19235 0.29391 0.01947 0.0
O141 O 0.21156 0.28943 0.99456 0.0
O142 O 0.17265 0.22625 0.07087 0.0
C143 C 0.33317 0.73848 0.63582 0.0
O144 O 0.32842 0.72614 0.58998 0.0
O145 O 0.38087 0.72391 0.53619 0.0
Zn146 Zn 0.36545 0.75296 0.55497 0.0
O147 O 0.34262 0.75841 0.49285 0.0
C148 C 0.39254 0.78357 0.49598 0.0
O149 O 0.38236 0.77346 0.45257 0.0
O150 O 0.34968 0.75176 0.63293 0.0
C151 C 0.32547 0.77069 0.49651 0.0
O152 O 0.32094 0.78096 0.54585 0.0
C153 C 0.37291 0.7105 0.49841 0.0
O154 O 0.35355 0.71495 0.47428 0.0
O155 O 0.38825 0.77764 0.54826 0.0
C156 C 0.54068 0.04555 0.87902 0.0
O157 O 0.54973 0.04028 0.82855 0.0
O158 O 0.55764 0.09806 0.79421 0.0
Zn159 Zn 0.52821 0.08275 0.81042 0.0
O160 O 0.5214 0.06287 0.74249 0.0
C161 C 0.50688 0.12556 0.79894 0.0
O162 O 0.52745 0.1321 0.78933 0.0
O163 O 0.53011 0.06385 0.88333 0.0
C164 C 0.52034 0.07117 0.69146 0.0
O165 O 0.52336 0.09271 0.68462 0.0
C166 C 0.57219 0.08977 0.76009 0.0
O167 O 0.56888 0.06984 0.73793 0.0
O168 O 0.50326 0.10533 0.81269 0.0
C169 C 0.02763 0.93434 0.43038 0.0
O170 O 0.01377 0.91764 0.43827 0.0
O171 O 0.00402 0.9024 0.30971 0.0
Zn172 Zn 0.03487 0.91569 0.31312 0.0
O173 O 0.03889 0.936 0.24435 0.0
C174 C 0.05215 0.87467 0.2738 0.0
O175 O 0.03229 0.87463 0.24957 0.0
O176 O 0.0387 0.93555 0.38315 0.0
C177 C 0.05129 0.93244 0.20028 0.0
O178 O 0.06259 0.91377 0.19657 0.0
C179 C 0.98846 0.91116 0.27979 0.0
O180 O 0.99185 0.9306 0.2549 0.0
O181 O 0.05753 0.89087 0.30691 0.0
C182 C 0.55755 0.94479 0.22974 0.0
O183 O 0.57234 0.95027 0.26966 0.0
O184 O 0.57342 0.9005 0.33854 0.0
Zn185 Zn 0.54495 0.91733 0.32331 0.0
O186 O 0.54325 0.94394 0.3761 0.0
C187 C 0.50768 0.89862 0.38737 0.0
O188 O 0.5118 0.91525 0.4231 0.0
O189 O 0.54372 0.92931 0.24113 0.0
C190 C 0.52792 0.95831 0.36943 0.0
O191 O 0.51304 0.95542 0.32793 0.0
C192 C 0.5883 0.90748 0.3737 0.0
O193 O 0.58587 0.92709 0.39847 0.0
O194 O 0.51932 0.89637 0.34119 0.0
C195 C 0.01605 0.06228 0.71355 0.0
O196 O 0.99582 0.06577 0.73349 0.0
O197 O 0.99748 0.09724 0.83286 0.0
Zn198 Zn 0.02795 0.08359 0.82111 0.0
O199 O 0.03176 0.05805 0.87611 0.0
C200 C 0.04886 0.11351 0.89599 0.0
O201 O 0.03297 0.10504 0.92877 0.0
O202 O 0.03257 0.07027 0.74136 0.0
C203 C 0.05088 0.05202 0.89386 0.0
O204 O 0.06865 0.063 0.87655 0.0
C205 C 0.98363 0.08897 0.86901 0.0
O206 O 0.98839 0.07001 0.89478 0.0
O207 O 0.05063 0.10688 0.8433 0.0
C208 C 0.153 0.67396 0.10039 0.0
C209 C 0.17424 0.67632 0.12527 0.0
C210 C 0.13796 0.65793 0.12133 0.0
C211 C 0.14431 0.64392 0.16828 0.0
C212 C 0.1661 0.64544 0.19161 0.0
C213 C 0.18083 0.66162 0.16978 0.0
C214 C 0.11489 0.65671 0.09502 0.0
C215 C 0.1735 0.63073 0.24152 0.0
C216 C 0.09668 0.62374 0.26357 0.0
C217 C 0.093 0.60221 0.24163 0.0
C218 C 0.11378 0.63721 0.2412 0.0
C219 C 0.12753 0.62898 0.19575 0.0
C220 C 0.12444 0.60699 0.17482 0.0
C221 C 0.1072 0.59385 0.19805 0.0
C222 C 0.11662 0.66055 0.26489 0.0
C223 C 0.13883 0.59764 0.12653 0.0
H224 H 0.1478 0.68515 0.06578 0.0
H225 H 0.19724 0.66325 0.18915 0.0
H226 H 0.11087 0.63931 0.08243 0.0
H227 H 0.10239 0.662 0.12799 0.0
H228 H 0.11316 0.66752 0.05584 0.0
H229 H 0.1916 0.63244 0.25077 0.0
H230 H 0.16411 0.63519 0.28165 0.0
H231 H 0.16981 0.61299 0.2317 0.0
H232 H 0.08585 0.63032 0.29736 0.0
H233 H 0.1045 0.57723 0.18087 0.0
H234 H 0.11317 0.67286 0.22983 0.0
H235 H 0.13407 0.66319 0.27939 0.0
H236 H 0.10532 0.66401 0.3023 0.0
H237 H 0.1358 0.60703 0.08549 0.0
H238 H 0.13541 0.57971 0.11827 0.0
H239 H 0.15673 0.59963 0.13758 0.0
C240 C 0.60856 0.87113 0.36772 0.0
C241 C 0.60672 0.89256 0.39179 0.0
C242 C 0.62435 0.85592 0.38889 0.0
C243 C 0.63866 0.86228 0.43523 0.0
C244 C 0.63755 0.88418 0.45803 0.0
C245 C 0.62159 0.89908 0.43601 0.0
C246 C 0.6251 0.83273 0.3632 0.0
C247 C 0.65262 0.89159 0.50727 0.0
C248 C 0.65901 0.81453 0.52964 0.0
C249 C 0.68025 0.81053 0.50631 0.0
C250 C 0.64561 0.83183 0.50817 0.0
C251 C 0.65365 0.84547 0.46224 0.0
C252 C 0.67541 0.84211 0.44006 0.0
C253 C 0.68848 0.82467 0.46241 0.0
C254 C 0.62252 0.83497 0.5332 0.0
C255 C 0.68456 0.85637 0.39122 0.0
H256 H 0.59723 0.86598 0.33333 0.0
H257 H 0.62036 0.91564 0.45473 0.0
H258 H 0.64234 0.82856 0.34947 0.0
H259 H 0.62009 0.82039 0.3969 0.0
H260 H 0.61387 0.83088 0.32486 0.0
H261 H 0.65102 0.9097 0.51657 0.0
H262 H 0.64842 0.88221 0.54761 0.0
H263 H 0.67026 0.88788 0.4966 0.0
H264 H 0.65254 0.80376 0.56372 0.0
H265 H 0.70489 0.82173 0.44418 0.0
H266 H 0.60988 0.83145 0.49898 0.0
H267 H 0.62017 0.8525 0.54734 0.0
H268 H 0.6193 0.82385 0.57112 0.0
H269 H 0.67491 0.85328 0.35061 0.0
H270 H 0.70242 0.85285 0.38229 0.0
H271 H 0.68274 0.8743 0.40209 0.0
C272 C 0.47164 0.36962 0.78344 0.0
C273 C 0.47065 0.39249 0.77101 0.0
C274 C 0.45485 0.35506 0.76433 0.0
C275 C 0.43663 0.36356 0.73196 0.0
C276 C 0.43512 0.38672 0.72095 0.0
C277 C 0.45215 0.40093 0.74068 0.0
C278 C 0.45696 0.33046 0.77729 0.0
C279 C 0.4159 0.39639 0.68672 0.0
C280 C 0.40781 0.32207 0.63188 0.0
C281 C 0.3894 0.3157 0.66579 0.0
C282 C 0.42297 0.33814 0.65221 0.0
C283 C 0.41965 0.34802 0.70781 0.0
C284 C 0.4007 0.34221 0.74137 0.0
C285 C 0.38579 0.32615 0.71992 0.0
C286 C 0.44292 0.34402 0.61499 0.0
C287 C 0.39659 0.35241 0.80081 0.0
H288 H 0.48583 0.36296 0.80698 0.0
H289 H 0.45123 0.41858 0.73089 0.0
H290 H 0.4417 0.32432 0.79949 0.0
H291 H 0.45864 0.32104 0.73574 0.0
H292 H 0.47159 0.32668 0.80534 0.0
H293 H 0.41651 0.41489 0.68489 0.0
H294 H 0.41619 0.38983 0.64135 0.0
H295 H 0.39982 0.39126 0.70651 0.0
H296 H 0.41069 0.31415 0.58994 0.0
H297 H 0.37158 0.32137 0.74641 0.0
H298 H 0.45844 0.33889 0.63769 0.0
H299 H 0.44382 0.36232 0.60845 0.0
H300 H 0.44242 0.33579 0.57147 0.0
H301 H 0.41007 0.34738 0.83131 0.0
H302 H 0.38035 0.34719 0.81972 0.0
H303 H 0.39694 0.37086 0.79788 0.0
C304 C 0.91191 0.17868 0.0315 0.0
C305 C 0.88935 0.18018 0.01595 0.0
C306 C 0.92562 0.16207 0.00773 0.0
C307 C 0.9166 0.1467 0.96708 0.0
C308 C 0.89367 0.1476 0.95284 0.0
C309 C 0.88028 0.16429 0.97766 0.0
C310 C 0.94996 0.16149 0.02456 0.0
C311 C 0.88349 0.13154 0.90952 0.0
C312 C 0.95935 0.12276 0.86244 0.0
C313 C 0.96428 0.10227 0.88893 0.0
C314 C 0.94307 0.13695 0.88596 0.0
C315 C 0.93156 0.13054 0.93737 0.0
C316 C 0.93567 0.10942 0.96264 0.0
C317 C 0.95194 0.09549 0.93797 0.0
C318 C 0.93894 0.15925 0.85733 0.0
C319 C 0.92374 0.10201 0.01745 0.0
H320 H 0.91901 0.19083 0.06126 0.0
H321 H 0.86288 0.16538 0.96524 0.0
H322 H 0.9546 0.14458 0.03995 0.0
H323 H 0.9604 0.16525 0.98572 0.0
H324 H 0.95403 0.17371 0.05951 0.0
H325 H 0.86509 0.1333 0.90671 0.0
H326 H 0.89067 0.13454 0.86549 0.0
H327 H 0.88751 0.11411 0.92171 0.0
H328 H 0.96869 0.12806 0.82431 0.0
H329 H 0.95559 0.07966 0.95869 0.0
H330 H 0.94466 0.1728 0.88678 0.0
H331 H 0.92085 0.16172 0.84977 0.0
H332 H 0.94781 0.16089 0.81488 0.0
H333 H 0.92911 0.11254 0.0548 0.0
H334 H 0.92722 0.0843 0.02832 0.0
H335 H 0.90548 0.10418 0.01257 0.0
C336 C 0.10524 0.37175 0.86348 0.0
C337 C 0.10346 0.39343 0.88596 0.0
C338 C 0.12149 0.35698 0.88439 0.0
C339 C 0.13634 0.36406 0.92881 0.0
C340 C 0.1353 0.38622 0.94983 0.0
C341 C 0.11887 0.40066 0.92813 0.0
C342 C 0.12215 0.33348 0.86064 0.0
C343 C 0.15093 0.39439 0.99697 0.0
C344 C 0.15825 0.3177 0.02552 0.0
C345 C 0.17922 0.31353 0.0007 0.0
C346 C 0.14446 0.33463 0.00376 0.0
C347 C 0.15181 0.34772 0.95597 0.0
C348 C 0.17331 0.34424 0.93224 0.0
C349 C 0.18678 0.32718 0.95494 0.0
C350 C 0.12167 0.33792 0.03047 0.0
C351 C 0.18173 0.35792 0.88141 0.0
H352 H 0.09349 0.36605 0.8307 0.0
H353 H 0.11768 0.41741 0.9456 0.0
H354 H 0.13924 0.32927 0.84588 0.0
H355 H 0.11764 0.32154 0.89578 0.0
H356 H 0.11048 0.33107 0.82343 0.0
H357 H 0.14933 0.4126 0.0047 0.0
H358 H 0.14731 0.38554 0.03852 0.0
H359 H 0.16846 0.39063 0.98512 0.0
H360 H 0.15229 0.30732 0.06104 0.0
H361 H 0.20298 0.3241 0.93552 0.0
H362 H 0.10864 0.33386 0.99771 0.0
H363 H 0.11934 0.35561 0.04324 0.0
H364 H 0.11902 0.32728 0.06964 0.0
H365 H 0.17163 0.3542 0.84192 0.0
H366 H 0.1995 0.35445 0.87133 0.0
H367 H 0.17984 0.37597 0.89077 0.0
C368 C 0.96584 0.87628 0.28761 0.0
C369 C 0.96833 0.89793 0.26542 0.0
C370 C 0.94857 0.86236 0.26818 0.0
C371 C 0.93339 0.87029 0.22562 0.0
C372 C 0.9351 0.8925 0.20526 0.0
C373 C 0.95257 0.90608 0.22542 0.0
C374 C 0.94722 0.8388 0.29124 0.0
C375 C 0.91912 0.90159 0.16018 0.0
C376 C 0.90798 0.82532 0.12997 0.0
C377 C 0.88729 0.82188 0.15704 0.0
C378 C 0.92281 0.8416 0.15067 0.0
C379 C 0.9168 0.85476 0.19961 0.0
C380 C 0.89558 0.85203 0.22563 0.0
C381 C 0.88106 0.83561 0.20401 0.0
C382 C 0.94527 0.8441 0.12154 0.0
C383 C 0.88857 0.86582 0.27772 0.0
H384 H 0.97786 0.86987 0.31874 0.0
H385 H 0.95431 0.92281 0.20818 0.0
H386 H 0.93018 0.83523 0.30756 0.0
H387 H 0.9507 0.82686 0.2553 0.0
H388 H 0.95929 0.83572 0.32719 0.0
H389 H 0.92133 0.91978 0.15322 0.0
H390 H 0.9218 0.89294 0.11785 0.0
H391 H 0.90164 0.89838 0.1736 0.0
H392 H 0.9129 0.81487 0.09351 0.0
H393 H 0.86507 0.83313 0.22511 0.0
H394 H 0.95864 0.83935 0.15269 0.0
H395 H 0.94815 0.86173 0.10908 0.0
H396 H 0.94684 0.83355 0.08179 0.0
H397 H 0.89908 0.86149 0.316 0.0
H398 H 0.87082 0.86306 0.28958 0.0
H399 H 0.89111 0.88381 0.26871 0.0
C400 C 0.40692 0.68645 0.5029 0.0
C401 C 0.3863 0.69142 0.47719 0.0
C402 C 0.42063 0.66967 0.47991 0.0
C403 C 0.4136 0.65766 0.42985 0.0
C404 C 0.39253 0.66213 0.40473 0.0
C405 C 0.37909 0.67893 0.42881 0.0
C406 C 0.44293 0.66521 0.50824 0.0
C407 C 0.38449 0.64968 0.3513 0.0
C408 C 0.46043 0.63297 0.33932 0.0
C409 C 0.46077 0.61086 0.35921 0.0
C410 C 0.4446 0.64818 0.36039 0.0
C411 C 0.4288 0.64112 0.4025 0.0
C412 C 0.42841 0.6186 0.42081 0.0
C413 C 0.44437 0.60371 0.39879 0.0
C414 C 0.44536 0.67202 0.33932 0.0
C415 C 0.41179 0.61046 0.46559 0.0
H416 H 0.41257 0.69595 0.54042 0.0
H417 H 0.36318 0.68264 0.40864 0.0
H418 H 0.44445 0.64729 0.51943 0.0
H419 H 0.45653 0.66923 0.47708 0.0
H420 H 0.44542 0.6752 0.54865 0.0
H421 H 0.36714 0.65421 0.33919 0.0
H422 H 0.39556 0.65342 0.31368 0.0
H423 H 0.38526 0.63144 0.35894 0.0
H424 H 0.47295 0.63861 0.3085 0.0
H425 H 0.44448 0.58665 0.41434 0.0
H426 H 0.44997 0.68317 0.37614 0.0
H427 H 0.42868 0.67729 0.32363 0.0
H428 H 0.4576 0.67445 0.30341 0.0
H429 H 0.41516 0.61858 0.50831 0.0
H430 H 0.41253 0.5921 0.47166 0.0
H431 H 0.39461 0.6151 0.45247 0.0
C432 C 0.67907 0.16214 0.66418 0.0
C433 C 0.67214 0.1783 0.62374 0.0
C434 C 0.66398 0.1465 0.68695 0.0
C435 C 0.64148 0.1469 0.66835 0.0
C436 C 0.63456 0.16266 0.62602 0.0
C437 C 0.64995 0.17824 0.60443 0.0
C438 C 0.67192 0.13003 0.7323 0.0
C439 C 0.61076 0.16343 0.60457 0.0
C440 C 0.60416 0.09656 0.69219 0.0
C441 C 0.59124 0.10348 0.74004 0.0
C442 C 0.62089 0.11034 0.66902 0.0
C443 C 0.62492 0.13143 0.6947 0.0
C444 C 0.61247 0.13817 0.74425 0.0
C445 C 0.5957 0.12416 0.76616 0.0
C446 C 0.63372 0.10265 0.6159 0.0
C447 C 0.61647 0.16044 0.77324 0.0
H448 H 0.69617 0.16211 0.67951 0.0
H449 H 0.64448 0.19062 0.57302 0.0
H450 H 0.66315 0.13307 0.77428 0.0
H451 H 0.66787 0.11277 0.71846 0.0
H452 H 0.69016 0.13121 0.74009 0.0
H453 H 0.60837 0.1759 0.56922 0.0
H454 H 0.60565 0.14682 0.58795 0.0
H455 H 0.59948 0.16768 0.64138 0.0
H456 H 0.60078 0.08064 0.6716 0.0
H457 H 0.58584 0.12958 0.80327 0.0
H458 H 0.6519 0.10346 0.62449 0.0
H459 H 0.63023 0.11392 0.57854 0.0
H460 H 0.62933 0.08536 0.60289 0.0
H461 H 0.63432 0.16223 0.78502 0.0
H462 H 0.60626 0.16264 0.81338 0.0
H463 H 0.61238 0.17408 0.74228 0.0
C464 C 0.00254 0.36228 0.97361 0.0
C465 C -4e-05 0.37139 0.91748 0.0
C466 C 0.98774 0.3461 0.99489 0.0
C467 C 0.96983 0.33892 0.95933 0.0
C468 C 0.96682 0.34838 0.90311 0.0
C469 C 0.98197 0.36448 0.88276 0.0
C470 C 0.99159 0.33631 0.05492 0.0
C471 C 0.94782 0.34121 0.86406 0.0
C472 C 0.94577 0.28122 0.9841 0.0
C473 C 0.92613 0.28597 0.01499 0.0
C474 C 0.96025 0.29829 0.96647 0.0
C475 C 0.95492 0.3207 0.97974 0.0
C476 C 0.93536 0.32561 0.0119 0.0
C477 C 0.92121 0.30816 0.02939 0.0
C478 C 0.98109 0.29234 0.93284 0.0
C479 C 0.92914 0.34933 0.02675 0.0
H480 H 0.01638 0.36753 0.00082 0.0
H481 H 0.97979 0.37152 0.83948 0.0
H482 H 0.97637 0.33809 0.08209 0.0
H483 H 0.99511 0.31821 0.05104 0.0
H484 H 0.00574 0.34437 0.07807 0.0
H485 H 0.94713 0.35099 0.82284 0.0
H486 H 0.94964 0.32331 0.85282 0.0
H487 H 0.93172 0.34311 0.8874 0.0
H488 H 0.94975 0.26411 0.97302 0.0
H489 H 0.90603 0.31196 0.05304 0.0
H490 H 0.996 0.29903 0.95561 0.0
H491 H 0.98057 0.30009 0.8888 0.0
H492 H 0.98313 0.27405 0.92751 0.0
H493 H 0.94286 0.35745 0.05135 0.0
H494 H 0.91366 0.35031 0.05328 0.0
H495 H 0.92667 0.35901 0.98591 0.0
C496 C 0.4923 0.1631 0.77148 0.0
C497 C 0.4881 0.14075 0.78568 0.0
C498 C 0.47509 0.1772 0.75276 0.0
C499 C 0.45314 0.16872 0.74794 0.0
C500 C 0.44864 0.14636 0.76379 0.0
C501 C 0.46618 0.13264 0.78264 0.0
C502 C 0.4805 0.20102 0.73679 0.0
C503 C 0.42543 0.13677 0.75929 0.0
C504 C 0.40657 0.21139 0.74171 0.0
C505 C 0.4028 0.21313 0.68127 0.0
C506 C 0.42253 0.19663 0.76412 0.0
C507 C 0.43504 0.18325 0.72518 0.0
C508 C 0.43093 0.18448 0.66423 0.0
C509 C 0.41485 0.19943 0.64297 0.0
C510 C 0.42641 0.19576 0.82937 0.0
C511 C 0.44391 0.1704 0.62138 0.0
H512 H 0.50916 0.16953 0.77389 0.0
H513 H 0.4628 0.11536 0.79335 0.0
H514 H 0.47683 0.20389 0.68982 0.0
H515 H 0.46989 0.21263 0.7623 0.0
H516 H 0.49826 0.20525 0.74497 0.0
H517 H 0.42453 0.11936 0.77567 0.0
H518 H 0.41352 0.14713 0.78456 0.0
H519 H 0.41988 0.13699 0.713 0.0
H520 H 0.39728 0.22184 0.77171 0.0
H521 H 0.412 0.20063 0.59626 0.0
H522 H 0.44361 0.20139 0.83943 0.0
H523 H 0.42483 0.17838 0.84537 0.0
H524 H 0.41451 0.20642 0.85393 0.0
H525 H 0.46183 0.17494 0.62327 0.0
H526 H 0.43798 0.17254 0.57569 0.0
H527 H 0.44257 0.15253 0.63332 0.0
C528 C 0.58184 0.63702 0.38645 0.0
C529 C 0.56434 0.62804 0.41961 0.0
C530 C 0.5968 0.65239 0.4111 0.0
C531 C 0.5942 0.65889 0.47029 0.0
C532 C 0.57687 0.64953 0.5043 0.0
C533 C 0.56215 0.63424 0.47855 0.0
C534 C 0.6151 0.66204 0.37346 0.0
C535 C 0.57358 0.65604 0.56755 0.0
C536 C 0.6435 0.68719 0.54394 0.0
C537 C 0.63797 0.70978 0.5375 0.0
C538 C 0.62921 0.67038 0.52332 0.0
C539 C 0.60894 0.67632 0.4957 0.0
C540 C 0.60294 0.69905 0.4909 0.0
C541 C 0.61751 0.71548 0.51189 0.0
C542 C 0.63608 0.64629 0.52952 0.0
C543 C 0.58141 0.70606 0.46203 0.0
H544 H 0.58368 0.63227 0.34095 0.0
H545 H 0.54873 0.62733 0.50463 0.0
H546 H 0.61275 0.6803 0.36904 0.0
H547 H 0.63155 0.65935 0.39448 0.0
H548 H 0.61545 0.65454 0.32902 0.0
H549 H 0.56 0.64639 0.5888 0.0
H550 H 0.58921 0.6534 0.59252 0.0
H551 H 0.56948 0.67403 0.57046 0.0
H552 H 0.65929 0.68264 0.56362 0.0
H553 H 0.61304 0.73288 0.50689 0.0
H554 H 0.63852 0.63884 0.48556 0.0
H555 H 0.62273 0.63663 0.55157 0.0
H556 H 0.65177 0.6444 0.55485 0.0
H557 H 0.58143 0.70075 0.41552 0.0
H558 H 0.57881 0.72438 0.46378 0.0
H559 H 0.56706 0.69775 0.48355 0.0
C560 C 0.14288 0.79787 0.11751 0.0
C561 C 0.14757 0.77858 0.14981 0.0
C562 C 0.12771 0.81381 0.1385 0.0
C563 C 0.11695 0.81028 0.1929 0.0
C564 C 0.1216 0.79083 0.22559 0.0
C565 C 0.13685 0.77525 0.2037 0.0
C566 C 0.12314 0.83439 0.10248 0.0
C567 C 0.11037 0.78642 0.28361 0.0
C568 C 0.09117 0.85969 0.27206 0.0
C569 C 0.06866 0.85759 0.25641 0.0
C570 C 0.10712 0.84442 0.25168 0.0
C571 C 0.10034 0.82661 0.21503 0.0
C572 C 0.07761 0.8242 0.19995 0.0
C573 C 0.06206 0.83971 0.22078 0.0
C574 C 0.13124 0.84746 0.26874 0.0
C575 C 0.06971 0.80533 0.16134 0.0
H576 H 0.15116 0.8006 0.07597 0.0
H577 H 0.14035 0.76038 0.22901 0.0
H578 H 0.10523 0.83506 0.0906 0.0
H579 H 0.12687 0.84956 0.12851 0.0
H580 H 0.13319 0.83486 0.06168 0.0
H581 H 0.11606 0.77061 0.30399 0.0
H582 H 0.11378 0.80032 0.31436 0.0
H583 H 0.09204 0.78556 0.27754 0.0
H584 H 0.09641 0.87351 0.29935 0.0
H585 H 0.0447 0.83792 0.20853 0.0
H586 H 0.14159 0.84968 0.22895 0.0
H587 H 0.13739 0.83235 0.29151 0.0
H588 H 0.13376 0.86209 0.29782 0.0
H589 H 0.07818 0.80619 0.11826 0.0
H590 H 0.05141 0.80572 0.15406 0.0
H591 H 0.07415 0.78909 0.18134 0.0
C592 C 0.96915 0.63708 0.28615 0.0
C593 C 0.99159 0.64327 0.27998 0.0
C594 C 0.95195 0.65152 0.26891 0.0
C595 C 0.95733 0.67265 0.24523 0.0
C596 C 0.97991 0.67925 0.2406 0.0
C597 C 0.99675 0.66448 0.25796 0.0
C598 C 0.92804 0.64394 0.2746 0.0
C599 C 0.98632 0.70173 0.21603 0.0
C600 C 0.91654 0.70218 0.14459 0.0
C601 C 0.90736 0.71822 0.18213 0.0
C602 C 0.9325 0.68692 0.16489 0.0
C603 C 0.93945 0.68777 0.22408 0.0
C604 C 0.92996 0.70366 0.2624 0.0
C605 C 0.91403 0.71867 0.24099 0.0
C606 C 0.94222 0.67015 0.12277 0.0
C607 C 0.93697 0.70509 0.32576 0.0
H608 H 0.96502 0.6207 0.30299 0.0
H609 H 0.01404 0.66945 0.25323 0.0
H610 H 0.91833 0.65625 0.30031 0.0
H611 H 0.92028 0.64291 0.23063 0.0
H612 H 0.92661 0.62739 0.29609 0.0
H613 H 0.00461 0.70463 0.21729 0.0
H614 H 0.98062 0.70305 0.16999 0.0
H615 H 0.97797 0.7152 0.24102 0.0
H616 H 0.91143 0.70168 0.09913 0.0
H617 H 0.90699 0.73097 0.2704 0.0
H618 H 0.94004 0.65302 0.14014 0.0
H619 H 0.9604 0.67308 0.11797 0.0
H620 H 0.93439 0.67107 0.0788 0.0
H621 H 0.93476 0.6887 0.34741 0.0
H622 H 0.92732 0.7178 0.35042 0.0
H623 H 0.95493 0.70939 0.32852 0.0
C624 C 0.06205 0.13703 0.97929 0.0
C625 C 0.06438 0.13022 0.92085 0.0
C626 C 0.07641 0.15294 0.00382 0.0
C627 C 0.09352 0.1623 0.96907 0.0
C628 C 0.09611 0.1554 0.91019 0.0
C629 C 0.08149 0.13942 0.88675 0.0
C630 C 0.07313 0.1599 0.06674 0.0
C631 C 0.11417 0.16506 0.87179 0.0
C632 C 0.11692 0.21904 0.0092 0.0
C633 C 0.13739 0.21339 0.03486 0.0
C634 C 0.10232 0.20255 0.98856 0.0
C635 C 0.10832 0.17984 0.99376 0.0
C636 C 0.12861 0.17396 0.02136 0.0
C637 C 0.14292 0.19082 0.04164 0.0
C638 C 0.08076 0.20948 0.95971 0.0
C639 C 0.13548 0.14988 0.02798 0.0
H640 H 0.0489 0.12998 0.00606 0.0
H641 H 0.08343 0.13422 0.84163 0.0
H642 H 0.08869 0.15717 0.09191 0.0
H643 H 0.0693 0.17797 0.06891 0.0
H644 H 0.05939 0.15058 0.0883 0.0
H645 H 0.11428 0.15754 0.82737 0.0
H646 H 0.1118 0.18332 0.86742 0.0
H647 H 0.13073 0.16238 0.8922 0.0
H648 H 0.11246 0.23642 0.00391 0.0
H649 H 0.15871 0.1863 0.06133 0.0
H650 H 0.06643 0.20125 0.98152 0.0
H651 H 0.08072 0.20403 0.91332 0.0
H652 H 0.07818 0.22781 0.96108 0.0
H653 H 0.12222 0.14034 0.05074 0.0
H654 H 0.15128 0.14806 0.05285 0.0
H655 H 0.13769 0.14225 0.98415 0.0
C656 C 0.62302 0.28859 0.59995 0.0
C657 C 0.64571 0.28579 0.61243 0.0
C658 C 0.61006 0.30397 0.63133 0.0
C659 C 0.61997 0.31655 0.67688 0.0
C660 C 0.64293 0.31398 0.68924 0.0
C661 C 0.65557 0.29876 0.65655 0.0
C662 C 0.5857 0.30657 0.61621 0.0
C663 C 0.65402 0.3269 0.73794 0.0
C664 C 0.59054 0.3692 0.7267 0.0
C665 C 0.57829 0.36148 0.77494 0.0
C666 C 0.60433 0.3548 0.6947 0.0
C667 C 0.60623 0.33225 0.71198 0.0
C668 C 0.59456 0.32455 0.76193 0.0
C669 C 0.58055 0.33923 0.79253 0.0
C670 C 0.61627 0.36356 0.64124 0.0
C671 C 0.59653 0.3007 0.78233 0.0
H672 H 0.61533 0.27866 0.56584 0.0
H673 H 0.67307 0.29657 0.6668 0.0
H674 H 0.57527 0.30169 0.65419 0.0
H675 H 0.58195 0.32428 0.60633 0.0
H676 H 0.58076 0.29623 0.578 0.0
H677 H 0.6721 0.32314 0.74153 0.0
H678 H 0.65197 0.34506 0.73068 0.0
H679 H 0.64591 0.32287 0.78027 0.0
H680 H 0.58874 0.38634 0.71249 0.0
H681 H 0.57117 0.3332 0.82984 0.0
H682 H 0.61039 0.35451 0.6018 0.0
H683 H 0.63445 0.36054 0.64506 0.0
H684 H 0.61348 0.38168 0.63455 0.0
H685 H 0.58977 0.28932 0.74842 0.0
H686 H 0.58742 0.2977 0.8239 0.0
H687 H 0.61432 0.29628 0.78879 0.0
C688 C 0.42657 0.8058 0.5211 0.0
C689 C 0.40882 0.80135 0.48303 0.0
C690 C 0.44288 0.82168 0.50652 0.0
C691 C 0.44099 0.83372 0.45342 0.0
C692 C 0.42271 0.82972 0.41576 0.0
C693 C 0.40701 0.81338 0.43069 0.0
C694 C 0.4624 0.82521 0.54717 0.0
C695 C 0.41978 0.84259 0.35951 0.0
C696 C 0.47253 0.88832 0.43887 0.0
C697 C 0.49036 0.88214 0.40274 0.0
C698 C 0.45625 0.87276 0.45544 0.0
C699 C 0.45821 0.85036 0.43667 0.0
C700 C 0.47633 0.84398 0.40062 0.0
C701 C 0.49204 0.86004 0.38339 0.0
C702 C 0.43685 0.88033 0.49254 0.0
C703 C 0.47921 0.82016 0.38072 0.0
H704 H 0.42807 0.79638 0.56138 0.0
H705 H 0.39318 0.81009 0.40138 0.0
H706 H 0.47819 0.82153 0.52379 0.0
H707 H 0.46315 0.84288 0.56129 0.0
H708 H 0.46144 0.81448 0.58669 0.0
H709 H 0.40406 0.83821 0.33654 0.0
H710 H 0.41976 0.86076 0.36865 0.0
H711 H 0.43396 0.83921 0.32967 0.0
H712 H 0.47116 0.90544 0.45366 0.0
H713 H 0.50596 0.85518 0.35598 0.0
H714 H 0.43652 0.8709 0.53426 0.0
H715 H 0.42094 0.87682 0.46952 0.0
H716 H 0.43761 0.89842 0.50273 0.0
H717 H 0.47972 0.8089 0.4192 0.0
H718 H 0.4947 0.81775 0.35481 0.0
H719 H 0.46478 0.81502 0.35355 0.0
C720 C 0.01783 0.56128 0.08831 0.0
C721 C 0.01593 0.55446 0.14676 0.0
C722 C 0.01682 0.5457 0.04258 0.0
C723 C 0.01373 0.52287 0.05584 0.0
C724 C 0.01082 0.51604 0.11456 0.0
C725 C 0.01201 0.53192 0.15934 0.0
C726 C 0.02 0.55355 0.98039 0.0
C727 C 0.00736 0.49183 0.13034 0.0
C728 C 0.99769 0.48138 0.93778 0.0
C729 C 0.01828 0.4713 0.92595 0.0
C730 C 0.99596 0.49857 0.97919 0.0
C731 C 0.01531 0.50583 0.00904 0.0
C732 C 0.03621 0.49608 0.99623 0.0
C733 C 0.03743 0.47888 0.95496 0.0
C734 C 0.9734 0.50857 0.99201 0.0
C735 C 0.05724 0.50349 0.027 0.0
H736 H 0.02082 0.57868 0.07828 0.0
H737 H 0.01034 0.52655 0.20441 0.0
H738 H 0.03598 0.54699 0.96306 0.0
H739 H 0.00649 0.54701 0.95201 0.0
H740 H 0.02026 0.57202 0.97702 0.0
H741 H 0.00365 0.48952 0.17756 0.0
H742 H 0.99345 0.48467 0.10443 0.0
H743 H 0.02258 0.48218 0.11949 0.0
H744 H 0.98283 0.4756 0.91546 0.0
H745 H 0.05343 0.47127 0.94574 0.0
H746 H 0.97403 0.52695 0.98699 0.0
H747 H 0.96868 0.50506 0.03803 0.0
H748 H 0.96019 0.50187 0.96283 0.0
H749 H 0.05957 0.52173 0.02179 0.0
H750 H 0.07231 0.49489 0.01004 0.0
H751 H 0.05584 0.50006 0.07455 0.0
C752 C 0.80078 0.75597 0.21525 0.0
C753 C 0.80787 0.73723 0.18369 0.0
C754 C 0.78362 0.75436 0.25648 0.0
C755 C 0.77336 0.73347 0.2666 0.0
C756 C 0.78003 0.71458 0.23397 0.0
C757 C 0.79722 0.71669 0.19269 0.0
C758 C 0.77685 0.77493 0.29026 0.0
C759 C 0.76945 0.69205 0.24381 0.0
C760 C 0.7481 0.72833 0.41742 0.0
C761 C 0.72566 0.73328 0.40634 0.0
C762 C 0.76363 0.72727 0.37179 0.0
C763 C 0.75654 0.73137 0.31377 0.0
C764 C 0.73375 0.7354 0.30193 0.0
C765 C 0.71853 0.73625 0.34846 0.0
C766 C 0.7878 0.72276 0.38604 0.0
C767 C 0.72563 0.73987 0.24053 0.0
H768 H 0.80881 0.77194 0.20821 0.0
H769 H 0.80261 0.70215 0.16834 0.0
H770 H 0.75865 0.77773 0.28605 0.0
H771 H 0.78049 0.77254 0.33743 0.0
H772 H 0.78572 0.79012 0.27501 0.0
H773 H 0.77552 0.67935 0.2122 0.0
H774 H 0.77321 0.6862 0.28877 0.0
H775 H 0.75106 0.69328 0.24002 0.0
H776 H 0.7537 0.7258 0.46202 0.0
H777 H 0.70119 0.74001 0.33959 0.0
H778 H 0.79787 0.73789 0.37704 0.0
H779 H 0.79437 0.70921 0.35788 0.0
H780 H 0.79023 0.718 0.43257 0.0
H781 H 0.73235 0.75608 0.22514 0.0
H782 H 0.70715 0.74046 0.23793 0.0
H783 H 0.73178 0.72685 0.21011 0.0
C784 C 0.51944 0.52316 0.44153 0.0
C785 C 0.53992 0.53027 0.41852 0.0
C786 C 0.51845 0.50592 0.48269 0.0
C787 C 0.53843 0.49572 0.50163 0.0
C788 C 0.55911 0.50248 0.47768 0.0
C789 C 0.5596 0.51965 0.43611 0.0
C790 C 0.49607 0.499 0.507 0.0
C791 C 0.58076 0.49207 0.49732 0.0
C792 C 0.53802 0.4705 0.65315 0.0
C793 C 0.53598 0.44769 0.64078 0.0
C794 C 0.53899 0.48626 0.60814 0.0
C795 C 0.53778 0.47904 0.54933 0.0
C796 C 0.53568 0.45606 0.53639 0.0
C797 C 0.53486 0.44061 0.58239 0.0
C798 C 0.54131 0.51065 0.62356 0.0
C799 C 0.53421 0.44786 0.47406 0.0
H800 H 0.50414 0.53119 0.42769 0.0
H801 H 0.57546 0.52508 0.41843 0.0
H802 H 0.49379 0.48073 0.50241 0.0
H803 H 0.49532 0.50294 0.55439 0.0
H804 H 0.48201 0.50756 0.48478 0.0
H805 H 0.59529 0.49836 0.47208 0.0
H806 H 0.58355 0.49572 0.54435 0.0
H807 H 0.57996 0.47368 0.49259 0.0
H808 H 0.53895 0.47611 0.69816 0.0
H809 H 0.53327 0.423 0.57257 0.0
H810 H 0.52683 0.52009 0.6064 0.0
H811 H 0.55648 0.51766 0.60276 0.0
H812 H 0.54238 0.51344 0.67153 0.0
H813 H 0.51958 0.45545 0.45207 0.0
H814 H 0.5327 0.42943 0.47143 0.0
H815 H 0.54924 0.4531 0.44932 0.0
C816 C 0.82051 0.26137 0.90203 0.0
C817 C 0.83687 0.24477 0.899 0.0
C818 C 0.8024 0.26135 0.8634 0.0
C819 C 0.80042 0.24401 0.82177 0.0
C820 C 0.81715 0.22745 0.81768 0.0
C821 C 0.83537 0.22818 0.85605 0.0
C822 C 0.78513 0.27957 0.86806 0.0
C823 C 0.81537 0.20852 0.77438 0.0
C824 C 0.74203 0.23107 0.76835 0.0
C825 C 0.74221 0.24089 0.7128 0.0
C826 C 0.76104 0.23167 0.80399 0.0
C827 C 0.78042 0.24278 0.78391 0.0
C828 C 0.78059 0.25293 0.72811 0.0
C829 C 0.76153 0.25165 0.69291 0.0
C830 C 0.76043 0.22033 0.86294 0.0
C831 C 0.80081 0.26533 0.70587 0.0
H832 H 0.82175 0.27427 0.93511 0.0
H833 H 0.84791 0.21521 0.85408 0.0
H834 H 0.78248 0.28746 0.82473 0.0
H835 H 0.76895 0.27236 0.88201 0.0
H836 H 0.78999 0.29269 0.89992 0.0
H837 H 0.83014 0.19737 0.77563 0.0
H838 H 0.80027 0.19847 0.78402 0.0
H839 H 0.8135 0.21513 0.72935 0.0
H840 H 0.72715 0.2226 0.78357 0.0
H841 H 0.76164 0.25939 0.65006 0.0
H842 H 0.76322 0.23275 0.89814 0.0
H843 H 0.77404 0.20787 0.86592 0.0
H844 H 0.74429 0.21178 0.87117 0.0
H845 H 0.80512 0.27905 0.73645 0.0
H846 H 0.79812 0.27251 0.66164 0.0
H847 H 0.81537 0.25398 0.70404 0.0
C848 C 0.2164 0.23721 0.84375 0.0
C849 C 0.22412 0.23542 0.90146 0.0
C850 C 0.2312 0.23571 0.79639 0.0
C851 C 0.25416 0.23226 0.80723 0.0
C852 C 0.26185 0.22939 0.86524 0.0
C853 C 0.24674 0.23106 0.91168 0.0
C854 C 0.22244 0.23885 0.73503 0.0
C855 C 0.28622 0.22555 0.87849 0.0
C856 C 0.29456 0.21578 0.68718 0.0
C857 C 0.30502 0.23622 0.67558 0.0
C858 C 0.27738 0.21428 0.72867 0.0
C859 C 0.27053 0.23371 0.75882 0.0
C860 C 0.28044 0.25451 0.74561 0.0
C861 C 0.2976 0.2555 0.70425 0.0
C862 C 0.26714 0.19184 0.74176 0.0
C863 C 0.27346 0.27563 0.77662 0.0
H864 H 0.19892 0.24051 0.83555 0.0
H865 H 0.25279 0.22945 0.95617 0.0
H866 H 0.22868 0.25487 0.71713 0.0
H867 H 0.22859 0.22539 0.70594 0.0
H868 H 0.20393 0.23903 0.73355 0.0
H869 H 0.28918 0.22182 0.92545 0.0
H870 H 0.29273 0.21152 0.8519 0.0
H871 H 0.29596 0.24062 0.86662 0.0
H872 H 0.30019 0.20083 0.66504 0.0
H873 H 0.30546 0.2714 0.6951 0.0
H874 H 0.2487 0.19283 0.73951 0.0
H875 H 0.27156 0.18672 0.78692 0.0
H876 H 0.27295 0.17873 0.71099 0.0
H877 H 0.25517 0.27794 0.77316 0.0
H878 H 0.28184 0.29065 0.75856 0.0
H879 H 0.27758 0.27436 0.82383 0.0
C880 C 0.28902 0.78112 0.45078 0.0
C881 C 0.31072 0.77278 0.44518 0.0
C882 C 0.27453 0.78153 0.40253 0.0
C883 C 0.2821 0.7736 0.34766 0.0
C884 C 0.30427 0.766 0.34138 0.0
C885 C 0.31827 0.7656 0.39025 0.0
C886 C 0.25093 0.78965 0.41072 0.0
C887 C 0.31301 0.75759 0.28343 0.0
C888 C 0.24168 0.74894 0.23848 0.0
C889 C 0.23976 0.76619 0.19743 0.0
C890 C 0.25484 0.75146 0.28859 0.0
C891 C 0.26653 0.77166 0.29759 0.0
C892 C 0.26444 0.78929 0.25684 0.0
C893 C 0.25098 0.78637 0.20722 0.0
C894 C 0.25659 0.73233 0.33129 0.0
C895 C 0.27685 0.81098 0.26491 0.0
H896 H 0.28313 0.78671 0.49315 0.0
H897 H 0.33513 0.75937 0.38548 0.0
H898 H 0.24683 0.80247 0.37747 0.0
H899 H 0.23916 0.77558 0.40438 0.0
H900 H 0.24816 0.79683 0.45494 0.0
H901 H 0.33111 0.75377 0.28501 0.0
H902 H 0.30392 0.74222 0.27069 0.0
H903 H 0.31008 0.77015 0.24865 0.0
H904 H 0.23288 0.73337 0.23148 0.0
H905 H 0.24952 0.79977 0.17569 0.0
H906 H 0.25239 0.73807 0.37609 0.0
H907 H 0.27398 0.72607 0.33238 0.0
H908 H 0.24539 0.71825 0.31964 0.0
H909 H 0.27323 0.81811 0.30867 0.0
H910 H 0.27242 0.82349 0.23104 0.0
H911 H 0.29507 0.8079 0.26283 0.0
C912 C 0.54383 0.98226 0.44802 0.0
C913 C 0.52597 0.97702 0.41097 0.0
C914 C 0.54186 0.99899 0.49039 0.0
C915 C 0.52144 0.01057 0.49624 0.0
C916 C 0.50351 0.00576 0.45804 0.0
C917 C 0.50604 0.98909 0.41551 0.0
C918 C 0.56146 0.00386 0.52992 0.0
C919 C 0.48145 0.01767 0.46344 0.0
C920 C 0.51192 0.03406 0.6477 0.0
C921 C 0.51826 0.05636 0.64021 0.0
C922 C 0.5119 0.0192 0.60044 0.0
C923 C 0.51863 0.0268 0.54458 0.0
C924 C 0.52427 0.04949 0.53624 0.0
C925 C 0.52389 0.06407 0.58422 0.0
C926 C 0.50551 0.99516 0.61082 0.0
C927 C 0.53169 0.05812 0.47733 0.0
H928 H 0.55935 0.97311 0.44432 0.0
H929 H 0.49217 0.98506 0.38701 0.0
H930 H 0.56548 0.02191 0.52896 0.0
H931 H 0.55713 -0.00046 0.57572 0.0
H932 H 0.57658 0.99434 0.51722 0.0
H933 H 0.46966 0.01298 0.42803 0.0
H934 H 0.47369 0.01359 0.50617 0.0
H935 H 0.48399 0.03598 0.46234 0.0
H936 H 0.50736 0.02808 0.69082 0.0
H937 H 0.52884 0.0813 0.57821 0.0
H938 H 0.52031 0.98434 0.60464 0.0
H939 H 0.49275 0.9898 0.57862 0.0
H940 H 0.49886 0.99238 0.6556 0.0
H941 H 0.5479 0.05046 0.46547 0.0
H942 H 0.53366 0.07653 0.47702 0.0
H943 H 0.51953 0.05335 0.44299 0.0
C944 C 0.03528 0.01795 0.94043 0.0
C945 C 0.05285 0.03321 0.93489 0.0
C946 C 0.0363 0.00059 0.9812 0.0
C947 C 0.05519 0.99872 0.0179 0.0
C948 C 0.0732 0.01378 0.01169 0.0
C949 C 0.07189 0.0308 0.96978 0.0
C950 C 0.0169 0.98462 0.98606 0.0
C951 C 0.09346 0.01243 0.05073 0.0
C952 C 0.04453 0.97092 0.1636 0.0
C953 C 0.05303 0.94947 0.15397 0.0
C954 C 0.04567 0.98726 0.12006 0.0
C955 C 0.05531 0.98193 0.06535 0.0
C956 C 0.06413 0.96039 0.05545 0.0
C957 C 0.063 0.9444 0.10013 0.0
C958 C 0.03627 0.01015 0.13236 0.0
C959 C 0.07431 0.95412 0.99733 0.0
H960 H 0.02062 0.01965 0.91304 0.0
H961 H 0.08547 0.04263 0.96566 0.0
H962 H 0.02287 0.96716 0.98337 0.0
H963 H 0.00868 0.98668 0.0292 0.0
H964 H 0.00427 0.98734 0.95127 0.0
H965 H 0.10657 0.02458 0.03797 0.0
H966 H 0.08853 0.0158 0.09668 0.0
H967 H 0.10064 0.99541 0.04942 0.0
H968 H 0.03696 0.975 0.20531 0.0
H969 H 0.06957 0.92783 0.09248 0.0
H970 H 0.02207 0.01352 0.10259 0.0
H971 H 0.0491 0.02309 0.12388 0.0
H972 H 0.03038 0.01191 0.1782 0.0
H973 H 0.06154 0.95538 0.96238 0.0
H974 H 0.08112 0.9369 0.99739 0.0
H975 H 0.08791 0.96588 0.98599 0.0
C976 C 0.03224 0.45642 0.64 0.0
C977 C 0.05027 0.45882 0.67856 0.0
C978 C 0.02996 0.47045 0.59116 0.0
C979 C 0.04614 0.48717 0.5806 0.0
C980 C 0.06455 0.48942 0.61884 0.0
C981 C 0.06637 0.47525 0.66735 0.0
C982 C 0.01011 0.46756 0.55126 0.0
C983 C 0.08223 0.50695 0.60882 0.0
C984 C 0.05232 0.51137 0.42813 0.0
C985 C 0.04127 0.53189 0.43361 0.0
C986 C 0.05377 0.49655 0.47539 0.0
C987 C 0.04393 0.50235 0.52952 0.0
C988 C 0.03259 0.52293 0.53531 0.0
C989 C 0.03141 0.53748 0.48726 0.0
C990 C 0.06605 0.47478 0.46755 0.0
C991 C 0.02189 0.52967 0.59242 0.0
H992 H 0.0197 0.44382 0.64846 0.0
H993 H 0.08039 0.47721 0.69682 0.0
H994 H 0.00014 0.48312 0.55049 0.0
H995 H 0.0158 0.46437 0.50585 0.0
H996 H 0.99915 0.4536 0.56516 0.0
H997 H 0.09565 0.50634 0.64227 0.0
H998 H 0.08985 0.50472 0.56499 0.0
H999 H 0.07458 0.52378 0.60969 0.0
H1000 H 0.05996 0.50687 0.38683 0.0
H1001 H 0.0228 0.55326 0.49182 0.0
H1002 H 0.05492 0.4606 0.47841 0.0
H1003 H 0.08042 0.47405 0.49803 0.0
H1004 H 0.07231 0.47253 0.4222 0.0
H1005 H 0.0097 0.5168 0.60634 0.0
H1006 H 0.01317 0.54596 0.58929 0.0
H1007 H 0.03476 0.53083 0.62713 0.0
C1008 C 0.80615 0.78515 0.92699 0.0
C1009 C 0.82273 0.76937 0.93938 0.0
C1010 C 0.79218 0.78277 0.8782 0.0
C1011 C 0.7948 0.76413 0.84091 0.0
C1012 C 0.81173 0.74831 0.85257 0.0
C1013 C 0.82554 0.75114 0.90164 0.0
C1014 C 0.77444 0.8001 0.86695 0.0
C1015 C 0.81502 0.72822 0.81369 0.0
C1016 C 0.74479 0.74803 0.74785 0.0
C1017 C 0.75029 0.75767 0.69385 0.0
C1018 C 0.75931 0.74968 0.79588 0.0
C1019 C 0.77976 0.76127 0.78974 0.0
C1020 C 0.7855 0.77081 0.7352 0.0
C1021 C 0.77072 0.76888 0.68796 0.0
C1022 C 0.75265 0.73926 0.85341 0.0
C1023 C 0.80713 0.78333 0.72696 0.0
H1024 H 0.80388 0.79931 0.95582 0.0
H1025 H 0.83827 0.73884 0.91101 0.0
H1026 H 0.77664 0.80737 0.82272 0.0
H1027 H 0.75771 0.7922 0.8681 0.0
H1028 H 0.77482 0.81381 0.89962 0.0
H1029 H 0.82917 0.71765 0.82824 0.0
H1030 H 0.79964 0.71794 0.81335 0.0
H1031 H 0.81814 0.73363 0.76801 0.0
H1032 H 0.72909 0.73929 0.75272 0.0
H1033 H 0.77516 0.77635 0.64639 0.0
H1034 H 0.75116 0.75236 0.88744 0.0
H1035 H 0.76572 0.72745 0.86817 0.0
H1036 H 0.73655 0.73018 0.85046 0.0
H1037 H 0.80758 0.798 0.75651 0.0
H1038 H 0.80941 0.7892 0.68126 0.0
H1039 H 0.82143 0.77254 0.7388 0.0
C1040 C 0.50332 0.54495 0.11235 0.0
C1041 C 0.519 0.54843 0.15683 0.0
C1042 C 0.50553 0.52706 0.07314 0.0
C1043 C 0.52355 0.51202 0.07958 0.0
C1044 C 0.53967 0.51571 0.12373 0.0
C1045 C 0.53734 0.53403 0.16141 0.0
C1046 C 0.4883 0.52398 0.02565 0.0
C1047 C 0.5589 0.49984 0.13262 0.0
C1048 C 0.51456 0.45384 0.01801 0.0
C1049 C 0.52657 0.45489 0.96551 0.0
C1050 C 0.51391 0.47215 0.05631 0.0
C1051 C 0.52517 0.49209 0.04109 0.0
C1052 C 0.53756 0.49314 0.98853 0.0
C1053 C 0.53829 0.47446 0.95166 0.0
C1054 C 0.50089 0.47026 0.11263 0.0
C1055 C 0.5495 0.5142 0.97035 0.0
H1056 H 0.48916 0.55607 0.10862 0.0
H1057 H 0.54939 0.53648 0.19618 0.0
H1058 H 0.49657 0.52259 0.98238 0.0
H1059 H 0.47898 0.50826 0.03309 0.0
H1060 H 0.47619 0.53797 0.02408 0.0
H1061 H 0.57036 0.50544 0.16786 0.0
H1062 H 0.55241 0.48308 0.14411 0.0
H1063 H 0.56857 0.49805 0.09154 0.0
H1064 H 0.50553 0.43876 0.02902 0.0
H1065 H 0.54748 0.47548 0.91092 0.0
H1066 H 0.4868 0.48222 0.11222 0.0
H1067 H 0.51168 0.47467 0.15034 0.0
H1068 H 0.49412 0.45323 0.11957 0.0
H1069 H 0.53726 0.52791 0.96497 0.0
H1070 H 0.55878 0.51214 0.92864 0.0
H1071 H 0.56141 0.51943 0.00485 0.0
C1072 C 0.79445 0.22884 0.17331 0.0
C1073 C 0.81547 0.2388 0.18045 0.0
C1074 C 0.77921 0.22773 0.21967 0.0
C1075 C 0.78506 0.23687 0.2746 0.0
C1076 C 0.8061 0.24724 0.28202 0.0
C1077 C 0.8211 0.24805 0.23483 0.0
C1078 C 0.75699 0.21644 0.21012 0.0
C1079 C 0.81287 0.25721 0.34001 0.0
C1080 C 0.73872 0.2489 0.38363 0.0
C1081 C 0.7402 0.23038 0.42087 0.0
C1082 C 0.75324 0.25128 0.3358 0.0
C1083 C 0.7695 0.23469 0.3249 0.0
C1084 C 0.77079 0.21578 0.3617 0.0
C1085 C 0.75615 0.21387 0.40923 0.0
C1086 C 0.75138 0.27166 0.29739 0.0
C1087 C 0.78777 0.19763 0.35119 0.0
H1088 H 0.78991 0.22166 0.13145 0.0
H1089 H 0.83726 0.25583 0.24063 0.0
H1090 H 0.75553 0.20174 0.23932 0.0
H1091 H 0.74321 0.22797 0.2215 0.0
H1092 H 0.75472 0.21082 0.1642 0.0
H1093 H 0.82943 0.26547 0.33796 0.0
H1094 H 0.80031 0.26964 0.35435 0.0
H1095 H 0.81346 0.24399 0.37388 0.0
H1096 H 0.7265 0.26176 0.39247 0.0
H1097 H 0.75739 0.19948 0.43769 0.0
H1098 H 0.7483 0.2666 0.25141 0.0
H1099 H 0.76731 0.28106 0.29809 0.0
H1100 H 0.73775 0.28296 0.31153 0.0
H1101 H 0.78557 0.19055 0.30672 0.0
H1102 H 0.78645 0.1839 0.3836 0.0
H1103 H 0.80484 0.2047 0.35338 0.0
C1104 C 0.30789 0.28588 0.42063 0.0
C1105 C 0.32389 0.2695 0.43293 0.0
C1106 C 0.29391 0.28411 0.37169 0.0
C1107 C 0.29594 0.26549 0.33407 0.0
C1108 C 0.31238 0.24913 0.34542 0.0
C1109 C 0.3262 0.25135 0.39471 0.0
C1110 C 0.27669 0.30199 0.36084 0.0
C1111 C 0.31506 0.22907 0.30614 0.0
C1112 C 0.24513 0.25085 0.24231 0.0
C1113 C 0.25063 0.26041 0.18823 0.0
C1114 C 0.25989 0.25205 0.28992 0.0
C1115 C 0.28062 0.2631 0.28326 0.0
C1116 C 0.28636 0.27256 0.22863 0.0
C1117 C 0.27131 0.2711 0.18182 0.0
C1118 C 0.2532 0.24175 0.34756 0.0
C1119 C 0.30828 0.28451 0.21984 0.0
H1120 H 0.30601 0.3 0.4498 0.0
H1121 H 0.33849 0.23859 0.40396 0.0
H1122 H 0.27893 0.30917 0.31651 0.0
H1123 H 0.25973 0.29463 0.36252 0.0
H1124 H 0.27764 0.3157 0.39344 0.0
H1125 H 0.32907 0.21819 0.32001 0.0
H1126 H 0.29948 0.21909 0.30629 0.0
H1127 H 0.31803 0.2345 0.26041 0.0
H1128 H 0.22923 0.24251 0.2476 0.0
H1129 H 0.27576 0.27851 0.14018 0.0
H1130 H 0.25223 0.25484 0.38175 0.0
H1131 H 0.26599 0.22956 0.36181 0.0
H1132 H 0.23683 0.23313 0.34505 0.0
H1133 H 0.30924 0.29914 0.24943 0.0
H1134 H 0.31053 0.29034 0.1741 0.0
H1135 H 0.32234 0.27332 0.23124 0.0
C1136 C 0.3227 0.75162 0.73644 0.0
C1137 C 0.31872 0.73761 0.68839 0.0
C1138 C 0.30863 0.75124 0.7856 0.0
C1139 C 0.29017 0.73651 0.7867 0.0
C1140 C 0.28612 0.72231 0.73842 0.0
C1141 C 0.30042 0.72304 0.68992 0.0
C1142 C 0.31349 0.76661 0.83634 0.0
C1143 C 0.26665 0.70632 0.73799 0.0
C1144 C 0.2655 0.71944 0.93296 0.0
C1145 C 0.24637 0.73283 0.93609 0.0
C1146 C 0.27998 0.72062 0.88487 0.0
C1147 C 0.27527 0.73561 0.83872 0.0
C1148 C 0.25604 0.74926 0.84163 0.0
C1149 C 0.2418 0.74769 0.89027 0.0
C1150 C 0.30025 0.70572 0.88327 0.0
C1151 C 0.25049 0.76545 0.79324 0.0
H1152 H 0.33676 0.76297 0.73558 0.0
H1153 H 0.29717 0.71216 0.65302 0.0
H1154 H 0.29895 0.77759 0.84456 0.0
H1155 H 0.31628 0.75672 0.87666 0.0
H1156 H 0.32839 0.77721 0.82847 0.0
H1157 H 0.26572 0.69649 0.69686 0.0
H1158 H 0.26801 0.69459 0.77533 0.0
H1159 H 0.25082 0.71562 0.74343 0.0
H1160 H 0.2692 0.70791 0.96813 0.0
H1161 H 0.2271 0.75814 0.89241 0.0
H1162 H 0.31558 0.71594 0.87892 0.0
H1163 H 0.29944 0.69461 0.84453 0.0
H1164 H 0.30174 0.69524 0.92314 0.0
H1165 H 0.26455 0.7772 0.78656 0.0
H1166 H 0.23518 0.77521 0.80269 0.0
H1167 H 0.24806 0.75628 0.75156 0.0
C1168 C 0.53808 0.95445 0.136 0.0
C1169 C 0.55565 0.9581 0.17537 0.0
C1170 C 0.53526 0.96814 0.08673 0.0
C1171 C 0.55038 0.98586 0.07659 0.0
C1172 C 0.56839 0.98934 0.11552 0.0
C1173 C 0.5708 0.97543 0.1644 0.0
C1174 C 0.51588 0.9639 0.04606 0.0
C1175 C 0.58494 0.00799 0.10603 0.0
C1176 C 0.55531 0.01056 0.92425 0.0
C1177 C 0.54282 0.03024 0.92958 0.0
C1178 C 0.55771 0.99587 0.97155 0.0
C1179 C 0.54734 0.00092 0.02552 0.0
C1180 C 0.53456 0.02065 0.03113 0.0
C1181 C 0.53248 0.0351 0.98309 0.0
C1182 C 0.57154 0.97504 0.96392 0.0
C1183 C 0.52323 0.02657 0.08803 0.0
H1184 H 0.52628 0.94113 0.14422 0.0
H1185 H 0.58444 0.97838 0.19451 0.0
H1186 H 0.50479 0.97868 0.0452 0.0
H1187 H 0.52202 0.96127 0.00079 0.0
H1188 H 0.50591 0.94913 0.05934 0.0
H1189 H 0.59829 0.00816 0.1397 0.0
H1190 H 0.59278 0.00636 0.06229 0.0
H1191 H 0.57621 0.02428 0.10705 0.0
H1192 H 0.56337 0.00664 0.88309 0.0
H1193 H 0.52275 0.05022 0.98755 0.0
H1194 H 0.5614 0.96009 0.97438 0.0
H1195 H 0.58581 0.9753 0.99481 0.0
H1196 H 0.57813 0.9733 0.91873 0.0
H1197 H 0.51188 0.01289 0.10153 0.0
H1198 H 0.51345 0.04224 0.08483 0.0
H1199 H 0.53587 0.02854 0.12308 0.0
C1200 C 0.03974 0.03378 0.66382 0.0
C1201 C 0.01968 0.04575 0.6665 0.0
C1202 C 0.04228 0.01581 0.62506 0.0
C1203 C 0.02452 0.01001 0.58721 0.0
C1204 C 0.00463 0.02271 0.58783 0.0
C1205 C 0.00235 0.04028 0.62798 0.0
C1206 C 0.0636 0.00246 0.62634 0.0
C1207 C 0.98554 0.0174 0.5471 0.0
C1208 C 0.03665 0.97396 0.45447 0.0
C1209 C 0.02829 0.95317 0.47225 0.0
C1210 C 0.03565 0.99257 0.49152 0.0
C1211 C 0.02646 0.99026 0.54817 0.0
C1212 C 0.01863 0.96917 0.5671 0.0
C1213 C 0.01943 0.95091 0.52866 0.0
C1214 C 0.04383 0.01485 0.4694 0.0
C1215 C 0.00911 0.96597 0.62767 0.0
H1216 H 0.05311 0.03777 0.69394 0.0
H1217 H 0.98686 0.04954 0.62982 0.0
H1218 H 0.05993 0.9851 0.64005 0.0
H1219 H 0.07104 0.00163 0.58198 0.0
H1220 H 0.07612 0.00962 0.65687 0.0
H1221 H 0.97188 0.02983 0.5502 0.0
H1222 H 0.99152 0.0168 0.5012 0.0
H1223 H 0.97865 0.00071 0.55769 0.0
H1224 H 0.04337 0.9759 0.41075 0.0
H1225 H 0.01302 0.93488 0.54271 0.0
H1226 H 0.05677 0.02162 0.49917 0.0
H1227 H 0.02985 0.02695 0.4689 0.0
H1228 H 0.05092 0.01375 0.4246 0.0
H1229 H 0.02123 0.97178 0.66104 0.0
H1230 H 0.00487 0.94828 0.63676 0.0
H1231 H 0.99381 0.97616 0.63275 0.0
loop_
_geom_bond_atom_site_label_1
_geom_bond_atom_site_label_2
_geom_bond_distance
_geom_bond_site_symmetry_2
_ccdc_geom_bond_type
C0 O1 1.160 . S
C0 O7 1.185 . S
O1 C0 1.160 . S
O2 Zn3 1.899 . S
O2 C10 1.284 . S
Zn3 O2 1.899 . S
Zn3 O4 2.032 . S
Zn3 O7 2.086 . S
Zn3 O12 1.977 . S
O4 Zn3 2.032 . S
O4 C8 1.278 . S
C5 O6 1.212 . S
C5 O12 1.268 . S
O6 C5 1.212 . S
O7 C0 1.185 . S
O7 Zn3 2.086 . S
C8 O4 1.278 . S
C8 O9 1.211 . S
O9 C8 1.211 . S
C10 O2 1.284 . S
C10 O11 1.273 . S
O11 C10 1.273 . S
O12 Zn3 1.977 . S
O12 C5 1.268 . S
C13 O14 1.160 . S
C13 O20 1.185 . S
O14 C13 1.160 . S
O15 Zn16 1.899 . S
O15 C23 1.284 . S
Zn16 O15 1.899 . S
Zn16 O17 2.032 . S
Zn16 O20 2.086 . S
Zn16 O25 1.977 . S
O17 Zn16 2.032 . S
O17 C21 1.278 . S
C18 O19 1.203 . S
C18 O25 1.267 . S
O19 C18 1.203 . S
O20 C13 1.185 . S
O20 Zn16 2.086 . S
C21 O17 1.278 . S
C21 O22 1.211 . S
O22 C21 1.211 . S
C23 O15 1.284 . S
C23 O24 1.273 . S
O24 C23 1.273 . S
O25 Zn16 1.977 . S
O25 C18 1.267 . S
C26 O27 1.160 . S
C26 O33 1.185 . S
O27 C26 1.160 . S
O28 Zn29 1.899 . S
O28 C36 1.284 . S
Zn29 O28 1.899 . S
Zn29 O30 2.032 . S
Zn29 O33 2.086 . S
Zn29 O38 1.977 . S
O30 Zn29 2.032 . S
O30 C34 1.278 . S
C31 O32 1.203 . S
C31 O38 1.267 . S
O32 C31 1.203 . S
O33 C26 1.185 . S
O33 Zn29 2.086 . S
C34 O30 1.278 . S
C34 O35 1.211 . S
O35 C34 1.211 . S
C36 O28 1.284 . S
C36 O37 1.273 . S
O37 C36 1.273 . S
O38 Zn29 1.977 . S
O38 C31 1.267 . S
C39 O40 1.160 . S
C39 O46 1.185 . S
O40 C39 1.160 . S
O41 Zn42 1.899 . S
O41 C49 1.284 1_554 S
Zn42 O41 1.899 . S
Zn42 O43 2.032 1_554 S
Zn42 O46 2.086 . S
Zn42 O51 1.977 . S
O43 Zn42 2.032 1_556 S
O43 C47 1.278 . S
C44 O45 1.203 . S
C44 O51 1.267 1_556 S
O45 C44 1.203 . S
O46 C39 1.185 . S
O46 Zn42 2.086 . S
C47 O43 1.278 . S
C47 O48 1.211 . S
O48 C47 1.211 . S
C49 O41 1.284 1_556 S
C49 O50 1.273 . S
O50 C49 1.273 . S
O51 Zn42 1.977 . S
O51 C44 1.267 1_554 S
C52 O53 1.160 . S
C52 O59 1.185 . S
O53 C52 1.160 . S
O54 Zn55 1.899 . S
O54 C62 1.284 . S
Zn55 O54 1.899 . S
Zn55 O56 2.032 . S
Zn55 O59 2.086 . S
Zn55 O64 1.977 . S
O56 Zn55 2.032 . S
O56 C60 1.278 . S
C57 O58 1.213 . S
C57 O64 1.269 . S
O58 C57 1.213 . S
O59 C52 1.185 . S
O59 Zn55 2.086 . S
C60 O56 1.278 . S
C60 O61 1.211 . S
O61 C60 1.211 . S
C62 O54 1.284 . S
C62 O63 1.273 . S
O63 C62 1.273 . S
O64 Zn55 1.977 . S
O64 C57 1.269 . S
C65 O66 1.160 1_556 S
C65 O72 1.185 1_556 S
O66 C65 1.160 1_554 S
O67 Zn68 1.899 . S
O67 C75 1.284 . S
Zn68 O67 1.899 . S
Zn68 O69 2.032 . S
Zn68 O72 2.086 . S
Zn68 O77 1.977 . S
O69 Zn68 2.032 . S
O69 C73 1.278 . S
C70 O71 1.203 . S
C70 O77 1.267 . S
O71 C70 1.203 . S
O72 C65 1.185 1_554 S
O72 Zn68 2.086 . S
C73 O69 1.278 . S
C73 O74 1.211 . S
O74 C73 1.211 . S
C75 O67 1.284 . S
C75 O76 1.273 . S
O76 C75 1.273 . S
O77 Zn68 1.977 . S
O77 C70 1.267 . S
C78 O79 1.160 . S
C78 O85 1.185 . S
O79 C78 1.160 . S
O80 Zn81 1.899 . S
O80 C88 1.284 . S
Zn81 O80 1.899 . S
Zn81 O82 2.032 . S
Zn81 O85 2.086 . S
Zn81 O90 1.977 . S
O82 Zn81 2.032 . S
O82 C86 1.278 . S
C83 O84 1.203 . S
C83 O90 1.267 . S
O84 C83 1.203 . S
O85 C78 1.185 . S
O85 Zn81 2.086 . S
C86 O82 1.278 . S
C86 O87 1.211 . S
O87 C86 1.211 . S
C88 O80 1.284 . S
C88 O89 1.273 . S
O89 C88 1.273 . S
O90 Zn81 1.977 . S
O90 C83 1.267 . S
C91 O92 1.160 . S
C91 O98 1.185 . S
O92 C91 1.160 . S
O93 Zn94 1.899 . S
O93 C101 1.284 . S
Zn94 O93 1.899 . S
Zn94 O95 2.032 . S
Zn94 O98 2.086 . S
Zn94 O103 1.977 . S
O95 Zn94 2.032 . S
O95 C99 1.278 . S
C96 O97 1.203 . S
C96 O103 1.267 . S
O97 C96 1.203 . S
O98 C91 1.185 . S
O98 Zn94 2.086 . S
C99 O95 1.278 . S
C99 O100 1.211 . S
O100 C99 1.211 . S
C101 O93 1.284 . S
C101 O102 1.273 . S
O102 C101 1.273 . S
O103 Zn94 1.977 . S
O103 C96 1.267 . S
C104 O105 1.160 . S
C104 O111 1.185 . S
O105 C104 1.160 . S
O106 Zn107 1.899 . S
O106 C114 1.284 . S
Zn107 O106 1.899 . S
Zn107 O108 2.032 . S
Zn107 O111 2.086 . S
Zn107 O116 1.977 . S
O108 Zn107 2.032 . S
O108 C112 1.278 . S
C109 O110 1.203 . S
C109 O116 1.267 . S
O110 C109 1.203 . S
O111 C104 1.185 . S
O111 Zn107 2.086 . S
C112 O108 1.278 . S
C112 O113 1.211 . S
O113 C112 1.211 . S
C114 O106 1.284 . S
C114 O115 1.273 . S
O115 C114 1.273 . S
O116 Zn107 1.977 . S
O116 C109 1.267 . S
C117 O118 1.160 1_556 S
C117 O124 1.185 1_556 S
O118 C117 1.160 1_554 S
O119 Zn120 1.899 . S
O119 C127 1.284 . S
Zn120 O119 1.899 . S
Zn120 O121 2.032 . S
Zn120 O124 2.086 . S
Zn120 O129 1.977 . S
O121 Zn120 2.032 . S
O121 C125 1.278 . S
C122 O123 1.203 . S
C122 O129 1.267 . S
O123 C122 1.203 . S
O124 C117 1.185 1_554 S
O124 Zn120 2.086 . S
C125 O121 1.278 . S
C125 O126 1.211 . S
O126 C125 1.211 . S
C127 O119 1.284 . S
C127 O128 1.273 . S
O128 C127 1.273 . S
O129 Zn120 1.977 . S
O129 C122 1.267 . S
C130 O131 1.160 . S
C130 O137 1.185 . S
O131 C130 1.160 . S
O132 Zn133 1.899 . S
O132 C140 1.284 1_554 S
Zn133 O132 1.899 . S
Zn133 O134 2.032 1_554 S
Zn133 O137 2.086 . S
Zn133 O142 1.977 . S
O134 Zn133 2.032 1_556 S
O134 C138 1.278 . S
C135 O136 1.203 . S
C135 O142 1.267 1_556 S
O136 C135 1.203 . S
O137 C130 1.185 . S
O137 Zn133 2.086 . S
C138 O134 1.278 . S
C138 O139 1.211 . S
O139 C138 1.211 . S
C140 O132 1.284 1_556 S
C140 O141 1.273 . S
O141 C140 1.273 . S
O142 Zn133 1.977 . S
O142 C135 1.267 1_554 S
C143 O144 1.160 . S
C143 O150 1.185 . S
O144 C143 1.160 . S
O145 Zn146 1.899 . S
O145 C153 1.284 . S
Zn146 O145 1.899 . S
Zn146 O147 2.032 . S
Zn146 O150 2.086 . S
Zn146 O155 1.977 . S
O147 Zn146 2.032 . S
O147 C151 1.278 . S
C148 O149 1.203 . S
C148 O155 1.267 . S
O149 C148 1.203 . S
O150 C143 1.185 . S
O150 Zn146 2.086 . S
C151 O147 1.278 . S
C151 O152 1.211 . S
O152 C151 1.211 . S
C153 O145 1.284 . S
C153 O154 1.273 . S
O154 C153 1.273 . S
O155 Zn146 1.977 . S
O155 C148 1.267 . S
C156 O157 1.160 . S
C156 O163 1.185 . S
O157 C156 1.160 . S
O158 Zn159 1.899 . S
O158 C166 1.284 . S
Zn159 O158 1.899 . S
Zn159 O160 2.032 . S
Zn159 O163 2.086 . S
Zn159 O168 1.977 . S
O160 Zn159 2.032 . S
O160 C164 1.278 . S
C161 O162 1.203 . S
C161 O168 1.267 . S
O162 C161 1.203 . S
O163 C156 1.185 . S
O163 Zn159 2.086 . S
C164 O160 1.278 . S
C164 O165 1.211 . S
O165 C164 1.211 . S
C166 O158 1.284 . S
C166 O167 1.273 . S
O167 C166 1.273 . S
O168 Zn159 1.977 . S
O168 C161 1.267 . S
C169 O170 1.160 . S
C169 O176 1.185 . S
O170 C169 1.160 . S
O171 Zn172 1.899 . S
O171 C179 1.284 1_455 S
Zn172 O171 1.899 . S
Zn172 O173 2.032 . S
Zn172 O176 2.086 . S
Zn172 O181 1.977 . S
O173 Zn172 2.032 . S
O173 C177 1.278 . S
C174 O175 1.203 . S
C174 O181 1.267 . S
O175 C174 1.203 . S
O176 C169 1.185 . S
O176 Zn172 2.086 . S
C177 O173 1.278 . S
C177 O178 1.211 . S
O178 C177 1.211 . S
C179 O171 1.284 1_655 S
C179 O180 1.273 . S
O180 C179 1.273 . S
O181 Zn172 1.977 . S
O181 C174 1.267 . S
C182 O183 1.160 . S
C182 O189 1.185 . S
O183 C182 1.160 . S
O184 Zn185 1.899 . S
O184 C192 1.284 . S
Zn185 O184 1.899 . S
Zn185 O186 2.032 . S
Zn185 O189 2.086 . S
Zn185 O194 1.977 . S
O186 Zn185 2.032 . S
O186 C190 1.278 . S
C187 O188 1.203 . S
C187 O194 1.267 . S
O188 C187 1.203 . S
O189 C182 1.185 . S
O189 Zn185 2.086 . S
C190 O186 1.278 . S
C190 O191 1.211 . S
O191 C190 1.211 . S
C192 O184 1.284 . S
C192 O193 1.273 . S
O193 C192 1.273 . S
O194 Zn185 1.977 . S
O194 C187 1.267 . S
C195 O196 1.160 . S
C195 O202 1.185 . S
O196 C195 1.160 . S
O197 Zn198 1.899 . S
O197 C205 1.284 1_455 S
Zn198 O197 1.899 . S
Zn198 O199 2.032 . S
Zn198 O202 2.086 . S
Zn198 O207 1.977 . S
O199 Zn198 2.032 . S
O199 C203 1.278 . S
C200 O201 1.203 . S
C200 O207 1.267 . S
O201 C200 1.203 . S
O202 C195 1.185 . S
O202 Zn198 2.086 . S
C203 O199 1.278 . S
C203 O204 1.211 . S
O204 C203 1.211 . S
C205 O197 1.284 1_655 S
C205 O206 1.273 . S
O206 C205 1.273 . S
O207 Zn198 1.977 . S
O207 C200 1.267 . S
C208 C209 1.391 . S
C208 C210 1.394 . S
C208 H224 0.931 . S
C209 C208 1.391 . S
C209 C213 1.376 . S
C210 C208 1.394 . S
C210 C211 1.369 . S
C210 C214 1.531 . S
C211 C210 1.369 . S
C211 C212 1.410 . S
C211 C219 1.503 . S
C212 C211 1.410 . S
C212 C213 1.392 . S
C212 C215 1.511 . S
C213 C209 1.376 . S
C213 C212 1.392 . S
C213 H225 0.929 . S
C214 C210 1.531 . S
C214 H226 0.960 . S
C214 H227 0.962 . S
C214 H228 0.960 . S
C215 C212 1.511 . S
C215 H229 0.961 . S
C215 H230 0.961 . S
C215 H231 0.961 . S
C216 C217 1.370 . S
C216 C218 1.363 . S
C216 H232 0.931 . S
C217 C216 1.370 . S
C217 C221 1.408 . S
C218 C216 1.363 . S
C218 C219 1.370 . S
C218 C222 1.524 . S
C219 C211 1.503 . S
C219 C218 1.370 . S
C219 C220 1.403 . S
C220 C219 1.403 . S
C220 C221 1.404 . S
C220 C223 1.539 . S
C221 C217 1.408 . S
C221 C220 1.404 . S
C221 H233 0.930 . S
C222 C218 1.524 . S
C222 H234 0.956 . S
C222 H235 0.961 . S
C222 H236 0.961 . S
C223 C220 1.539 . S
C223 H237 0.958 . S
C223 H238 0.961 . S
C223 H239 0.960 . S
H224 C208 0.931 . S
H225 C213 0.929 . S
H226 C214 0.960 . S
H227 C214 0.962 . S
H228 C214 0.960 . S
H229 C215 0.961 . S
H230 C215 0.961 . S
H231 C215 0.961 . S
H232 C216 0.931 . S
H233 C221 0.930 . S
H234 C222 0.956 . S
H235 C222 0.961 . S
H236 C222 0.961 . S
H237 C223 0.958 . S
H238 C223 0.961 . S
H239 C223 0.960 . S
C240 C241 1.391 . S
C240 C242 1.394 . S
C240 H256 0.931 . S
C241 C240 1.391 . S
C241 C245 1.376 . S
C242 C240 1.394 . S
C242 C243 1.369 . S
C242 C246 1.531 . S
C243 C242 1.369 . S
C243 C244 1.410 . S
C243 C251 1.503 . S
C244 C243 1.410 . S
C244 C245 1.392 . S
C244 C247 1.511 . S
C245 C241 1.376 . S
C245 C244 1.392 . S
C245 H257 0.929 . S
C246 C242 1.531 . S
C246 H258 0.960 . S
C246 H259 0.962 . S
C246 H260 0.960 . S
C247 C244 1.511 . S
C247 H261 0.961 . S
C247 H262 0.961 . S
C247 H263 0.961 . S
C248 C249 1.370 . S
C248 C250 1.363 . S
C248 H264 0.931 . S
C249 C248 1.370 . S
C249 C253 1.408 . S
C250 C248 1.363 . S
C250 C251 1.370 . S
C250 C254 1.524 . S
C251 C243 1.503 . S
C251 C250 1.370 . S
C251 C252 1.403 . S
C252 C251 1.403 . S
C252 C253 1.404 . S
C252 C255 1.539 . S
C253 C249 1.408 . S
C253 C252 1.404 . S
C253 H265 0.930 . S
C254 C250 1.524 . S
C254 H266 0.956 . S
C254 H267 0.961 . S
C254 H268 0.961 . S
C255 C252 1.539 . S
C255 H269 0.958 . S
C255 H270 0.961 . S
C255 H271 0.960 . S
H256 C240 0.931 . S
H257 C245 0.929 . S
H258 C246 0.960 . S
H259 C246 0.962 . S
H260 C246 0.960 . S
H261 C247 0.961 . S
H262 C247 0.961 . S
H263 C247 0.961 . S
H264 C248 0.931 . S
H265 C253 0.930 . S
H266 C254 0.956 . S
H267 C254 0.961 . S
H268 C254 0.961 . S
H269 C255 0.958 . S
H270 C255 0.961 . S
H271 C255 0.960 . S
C272 C273 1.391 . S
C272 C274 1.394 . S
C272 H288 0.931 . S
C273 C272 1.391 . S
C273 C277 1.376 . S
C274 C272 1.394 . S
C274 C275 1.369 . S
C274 C278 1.531 . S
C275 C274 1.369 . S
C275 C276 1.410 . S
C275 C283 1.503 . S
C276 C275 1.410 . S
C276 C277 1.392 . S
C276 C279 1.511 . S
C277 C273 1.376 . S
C277 C276 1.392 . S
C277 H289 0.929 . S
C278 C274 1.531 . S
C278 H290 0.960 . S
C278 H291 0.962 . S
C278 H292 0.960 . S
C279 C276 1.511 . S
C279 H293 0.961 . S
C279 H294 0.961 . S
C279 H295 0.961 . S
C280 C281 1.370 . S
C280 C282 1.363 . S
C280 H296 0.931 . S
C281 C280 1.370 . S
C281 C285 1.408 . S
C282 C280 1.363 . S
C282 C283 1.370 . S
C282 C286 1.524 . S
C283 C275 1.503 . S
C283 C282 1.370 . S
C283 C284 1.403 . S
C284 C283 1.403 . S
C284 C285 1.404 . S
C284 C287 1.539 . S
C285 C281 1.408 . S
C285 C284 1.404 . S
C285 H297 0.930 . S
C286 C282 1.524 . S
C286 H298 0.956 . S
C286 H299 0.961 . S
C286 H300 0.961 . S
C287 C284 1.539 . S
C287 H301 0.958 . S
C287 H302 0.961 . S
C287 H303 0.960 . S
H288 C272 0.931 . S
H289 C277 0.929 . S
H290 C278 0.960 . S
H291 C278 0.962 . S
H292 C278 0.960 . S
H293 C279 0.961 . S
H294 C279 0.961 . S
H295 C279 0.961 . S
H296 C280 0.931 . S
H297 C285 0.930 . S
H298 C286 0.956 . S
H299 C286 0.961 . S
H300 C286 0.961 . S
H301 C287 0.958 . S
H302 C287 0.961 . S
H303 C287 0.960 . S
C304 C305 1.391 1_554 S
C304 C306 1.394 1_554 S
C304 H320 0.931 . S
C305 C304 1.391 1_556 S
C305 C309 1.376 . S
C306 C304 1.394 1_556 S
C306 C307 1.369 . S
C306 C310 1.531 1_556 S
C307 C306 1.369 . S
C307 C308 1.410 . S
C307 C315 1.503 . S
C308 C307 1.410 . S
C308 C309 1.392 . S
C308 C311 1.511 . S
C309 C305 1.376 . S
C309 C308 1.392 . S
C309 H321 0.929 . S
C310 C306 1.531 1_554 S
C310 H322 0.960 . S
C310 H323 0.962 1_554 S
C310 H324 0.960 . S
C311 C308 1.511 . S
C311 H325 0.961 . S
C311 H326 0.961 . S
C311 H327 0.961 . S
C312 C313 1.370 . S
C312 C314 1.363 . S
C312 H328 0.931 . S
C313 C312 1.370 . S
C313 C317 1.408 . S
C314 C312 1.363 . S
C314 C315 1.370 . S
C314 C318 1.524 . S
C315 C307 1.503 . S
C315 C314 1.370 . S
C315 C316 1.403 . S
C316 C315 1.403 . S
C316 C317 1.404 . S
C316 C319 1.539 1_556 S
C317 C313 1.408 . S
C317 C316 1.404 . S
C317 H329 0.930 . S
C318 C314 1.524 . S
C318 H330 0.956 . S
C318 H331 0.961 . S
C318 H332 0.961 . S
C319 C316 1.539 1_554 S
C319 H333 0.958 . S
C319 H334 0.961 . S
C319 H335 0.960 . S
H320 C304 0.931 . S
H321 C309 0.929 . S
H322 C310 0.960 . S
H323 C310 0.962 1_556 S
H324 C310 0.960 . S
H325 C311 0.961 . S
H326 C311 0.961 . S
H327 C311 0.961 . S
H328 C312 0.931 . S
H329 C317 0.930 . S
H330 C318 0.956 . S
H331 C318 0.961 . S
H332 C318 0.961 . S
H333 C319 0.958 . S
H334 C319 0.961 . S
H335 C319 0.960 . S
C336 C337 1.391 . S
C336 C338 1.394 . S
C336 H352 0.931 . S
C337 C336 1.391 . S
C337 C341 1.376 . S
C338 C336 1.394 . S
C338 C339 1.369 . S
C338 C342 1.531 . S
C339 C338 1.369 . S
C339 C340 1.410 . S
C339 C347 1.503 . S
C340 C339 1.410 . S
C340 C341 1.392 . S
C340 C343 1.511 . S
C341 C337 1.376 . S
C341 C340 1.392 . S
C341 H353 0.929 . S
C342 C338 1.531 . S
C342 H354 0.960 . S
C342 H355 0.962 . S
C342 H356 0.960 . S
C343 C340 1.511 . S
C343 H357 0.961 . S
C343 H358 0.961 . S
C343 H359 0.961 . S
C344 C345 1.370 1_554 S
C344 C346 1.363 . S
C344 H360 0.931 . S
C345 C344 1.370 1_556 S
C345 C349 1.408 . S
C346 C344 1.363 . S
C346 C347 1.370 1_554 S
C346 C350 1.524 . S
C347 C339 1.503 . S
C347 C346 1.370 1_556 S
C347 C348 1.403 . S
C348 C347 1.403 . S
C348 C349 1.404 . S
C348 C351 1.539 . S
C349 C345 1.408 . S
C349 C348 1.404 . S
C349 H361 0.930 . S
C350 C346 1.524 . S
C350 H362 0.956 . S
C350 H363 0.961 . S
C350 H364 0.961 . S
C351 C348 1.539 . S
C351 H365 0.958 . S
C351 H366 0.961 . S
C351 H367 0.960 . S
H352 C336 0.931 . S
H353 C341 0.929 . S
H354 C342 0.960 . S
H355 C342 0.962 . S
H356 C342 0.960 . S
H357 C343 0.961 . S
H358 C343 0.961 . S
H359 C343 0.961 . S
H360 C344 0.931 . S
H361 C349 0.930 . S
H362 C350 0.956 . S
H363 C350 0.961 . S
H364 C350 0.961 . S
H365 C351 0.958 . S
H366 C351 0.961 . S
H367 C351 0.960 . S
C368 C369 1.391 . S
C368 C370 1.394 . S
C368 H384 0.931 . S
C369 C368 1.391 . S
C369 C373 1.376 . S
C370 C368 1.394 . S
C370 C371 1.369 . S
C370 C374 1.531 . S
C371 C370 1.369 . S
C371 C372 1.410 . S
C371 C379 1.503 . S
C372 C371 1.410 . S
C372 C373 1.392 . S
C372 C375 1.511 . S
C373 C369 1.376 . S
C373 C372 1.392 . S
C373 H385 0.929 . S
C374 C370 1.531 . S
C374 H386 0.960 . S
C374 H387 0.962 . S
C374 H388 0.960 . S
C375 C372 1.511 . S
C375 H389 0.961 . S
C375 H390 0.961 . S
C375 H391 0.961 . S
C376 C377 1.370 . S
C376 C378 1.363 . S
C376 H392 0.931 . S
C377 C376 1.370 . S
C377 C381 1.408 . S
C378 C376 1.363 . S
C378 C379 1.370 . S
C378 C382 1.524 . S
C379 C371 1.503 . S
C379 C378 1.370 . S
C379 C380 1.403 . S
C380 C379 1.403 . S
C380 C381 1.404 . S
C380 C383 1.539 . S
C381 C377 1.408 . S
C381 C380 1.404 . S
C381 H393 0.930 . S
C382 C378 1.524 . S
C382 H394 0.956 . S
C382 H395 0.961 . S
C382 H396 0.961 . S
C383 C380 1.539 . S
C383 H397 0.958 . S
C383 H398 0.961 . S
C383 H399 0.960 . S
H384 C368 0.931 . S
H385 C373 0.929 . S
H386 C374 0.960 . S
H387 C374 0.962 . S
H388 C374 0.960 . S
H389 C375 0.961 . S
H390 C375 0.961 . S
H391 C375 0.961 . S
H392 C376 0.931 . S
H393 C381 0.930 . S
H394 C382 0.956 . S
H395 C382 0.961 . S
H396 C382 0.961 . S
H397 C383 0.958 . S
H398 C383 0.961 . S
H399 C383 0.960 . S
C400 C401 1.391 . S
C400 C402 1.394 . S
C400 H416 0.931 . S
C401 C400 1.391 . S
C401 C405 1.376 . S
C402 C400 1.394 . S
C402 C403 1.369 . S
C402 C406 1.531 . S
C403 C402 1.369 . S
C403 C404 1.410 . S
C403 C411 1.503 . S
C404 C403 1.410 . S
C404 C405 1.392 . S
C404 C407 1.511 . S
C405 C401 1.376 . S
C405 C404 1.392 . S
C405 H417 0.929 . S
C406 C402 1.531 . S
C406 H418 0.960 . S
C406 H419 0.962 . S
C406 H420 0.960 . S
C407 C404 1.511 . S
C407 H421 0.961 . S
C407 H422 0.961 . S
C407 H423 0.961 . S
C408 C409 1.370 . S
C408 C410 1.363 . S
C408 H424 0.931 . S
C409 C408 1.370 . S
C409 C413 1.408 . S
C410 C408 1.363 . S
C410 C411 1.370 . S
C410 C414 1.524 . S
C411 C403 1.503 . S
C411 C410 1.370 . S
C411 C412 1.403 . S
C412 C411 1.403 . S
C412 C413 1.404 . S
C412 C415 1.539 . S
C413 C409 1.408 . S
C413 C412 1.404 . S
C413 H425 0.930 . S
C414 C410 1.524 . S
C414 H426 0.956 . S
C414 H427 0.961 . S
C414 H428 0.961 . S
C415 C412 1.539 . S
C415 H429 0.958 . S
C415 H430 0.961 . S
C415 H431 0.960 . S
H416 C400 0.931 . S
H417 C405 0.929 . S
H418 C406 0.960 . S
H419 C406 0.962 . S
H420 C406 0.960 . S
H421 C407 0.961 . S
H422 C407 0.961 . S
H423 C407 0.961 . S
H424 C408 0.931 . S
H425 C413 0.930 . S
H426 C414 0.956 . S
H427 C414 0.961 . S
H428 C414 0.961 . S
H429 C415 0.958 . S
H430 C415 0.961 . S
H431 C415 0.960 . S
C432 C433 1.391 . S
C432 C434 1.394 . S
C432 H448 0.931 . S
C433 C432 1.391 . S
C433 C437 1.376 . S
C434 C432 1.394 . S
C434 C435 1.369 . S
C434 C438 1.531 . S
C435 C434 1.369 . S
C435 C436 1.410 . S
C435 C443 1.503 . S
C436 C435 1.410 . S
C436 C437 1.392 . S
C436 C439 1.511 . S
C437 C433 1.376 . S
C437 C436 1.392 . S
C437 H449 0.929 . S
C438 C434 1.531 . S
C438 H450 0.960 . S
C438 H451 0.962 . S
C438 H452 0.960 . S
C439 C436 1.511 . S
C439 H453 0.961 . S
C439 H454 0.961 . S
C439 H455 0.961 . S
C440 C441 1.370 . S
C440 C442 1.363 . S
C440 H456 0.931 . S
C441 C440 1.370 . S
C441 C445 1.408 . S
C442 C440 1.363 . S
C442 C443 1.370 . S
C442 C446 1.524 . S
C443 C435 1.503 . S
C443 C442 1.370 . S
C443 C444 1.403 . S
C444 C443 1.403 . S
C444 C445 1.404 . S
C444 C447 1.539 . S
C445 C441 1.408 . S
C445 C444 1.404 . S
C445 H457 0.930 . S
C446 C442 1.524 . S
C446 H458 0.956 . S
C446 H459 0.961 . S
C446 H460 0.961 . S
C447 C444 1.539 . S
C447 H461 0.958 . S
C447 H462 0.961 . S
C447 H463 0.960 . S
H448 C432 0.931 . S
H449 C437 0.929 . S
H450 C438 0.960 . S
H451 C438 0.962 . S
H452 C438 0.960 . S
H453 C439 0.961 . S
H454 C439 0.961 . S
H455 C439 0.961 . S
H456 C440 0.931 . S
H457 C445 0.930 . S
H458 C446 0.956 . S
H459 C446 0.961 . S
H460 C446 0.961 . S
H461 C447 0.958 . S
H462 C447 0.961 . S
H463 C447 0.960 . S
C464 C465 1.391 . S
C464 C466 1.394 . S
C464 H480 0.931 . S
C465 C464 1.391 . S
C465 C469 1.376 . S
C466 C464 1.394 . S
C466 C467 1.369 . S
C466 C470 1.531 1_556 S
C467 C466 1.369 . S
C467 C468 1.410 . S
C467 C475 1.503 . S
C468 C467 1.410 . S
C468 C469 1.392 . S
C468 C471 1.511 . S
C469 C465 1.376 . S
C469 C468 1.392 . S
C469 H481 0.929 . S
C470 C466 1.531 1_554 S
C470 H482 0.960 . S
C470 H483 0.962 . S
C470 H484 0.960 . S
C471 C468 1.511 . S
C471 H485 0.961 . S
C471 H486 0.961 . S
C471 H487 0.961 . S
C472 C473 1.370 . S
C472 C474 1.363 . S
C472 H488 0.931 . S
C473 C472 1.370 . S
C473 C477 1.408 . S
C474 C472 1.363 . S
C474 C475 1.370 . S
C474 C478 1.524 . S
C475 C467 1.503 . S
C475 C474 1.370 . S
C475 C476 1.403 . S
C476 C475 1.403 . S
C476 C477 1.404 . S
C476 C479 1.539 . S
C477 C473 1.408 . S
C477 C476 1.404 . S
C477 H489 0.930 1_556 S
C478 C474 1.524 . S
C478 H490 0.956 . S
C478 H491 0.961 . S
C478 H492 0.961 . S
C479 C476 1.539 . S
C479 H493 0.958 1_556 S
C479 H494 0.961 . S
C479 H495 0.960 . S
H480 C464 0.931 . S
H481 C469 0.929 . S
H482 C470 0.960 . S
H483 C470 0.962 . S
H484 C470 0.960 . S
H485 C471 0.961 . S
H486 C471 0.961 . S
H487 C471 0.961 . S
H488 C472 0.931 . S
H489 C477 0.930 1_554 S
H490 C478 0.956 . S
H491 C478 0.961 . S
H492 C478 0.961 . S
H493 C479 0.958 1_554 S
H494 C479 0.961 . S
H495 C479 0.960 . S
C496 C497 1.391 . S
C496 C498 1.394 . S
C496 H512 0.931 . S
C497 C496 1.391 . S
C497 C501 1.376 . S
C498 C496 1.394 . S
C498 C499 1.369 . S
C498 C502 1.531 . S
C499 C498 1.369 . S
C499 C500 1.410 . S
C499 C507 1.503 . S
C500 C499 1.410 . S
C500 C501 1.392 . S
C500 C503 1.511 . S
C501 C497 1.376 . S
C501 C500 1.392 . S
C501 H513 0.929 . S
C502 C498 1.531 . S
C502 H514 0.960 . S
C502 H515 0.962 . S
C502 H516 0.960 . S
C503 C500 1.511 . S
C503 H517 0.961 . S
C503 H518 0.961 . S
C503 H519 0.961 . S
C504 C505 1.370 . S
C504 C506 1.363 . S
C504 H520 0.931 . S
C505 C504 1.370 . S
C505 C509 1.408 . S
C506 C504 1.363 . S
C506 C507 1.370 . S
C506 C510 1.524 . S
C507 C499 1.503 . S
C507 C506 1.370 . S
C507 C508 1.403 . S
C508 C507 1.403 . S
C508 C509 1.404 . S
C508 C511 1.539 . S
C509 C505 1.408 . S
C509 C508 1.404 . S
C509 H521 0.930 . S
C510 C506 1.524 . S
C510 H522 0.956 . S
C510 H523 0.961 . S
C510 H524 0.961 . S
C511 C508 1.539 . S
C511 H525 0.958 . S
C511 H526 0.961 . S
C511 H527 0.960 . S
H512 C496 0.931 . S
H513 C501 0.929 . S
H514 C502 0.960 . S
H515 C502 0.962 . S
H516 C502 0.960 . S
H517 C503 0.961 . S
H518 C503 0.961 . S
H519 C503 0.961 . S
H520 C504 0.931 . S
H521 C509 0.930 . S
H522 C510 0.956 . S
H523 C510 0.961 . S
H524 C510 0.961 . S
H525 C511 0.958 . S
H526 C511 0.961 . S
H527 C511 0.960 . S
C528 C529 1.391 . S
C528 C530 1.394 . S
C528 H544 0.931 . S
C529 C528 1.391 . S
C529 C533 1.376 . S
C530 C528 1.394 . S
C530 C531 1.369 . S
C530 C534 1.531 . S
C531 C530 1.369 . S
C531 C532 1.410 . S
C531 C539 1.503 . S
C532 C531 1.410 . S
C532 C533 1.392 . S
C532 C535 1.511 . S
C533 C529 1.376 . S
C533 C532 1.392 . S
C533 H545 0.929 . S
C534 C530 1.531 . S
C534 H546 0.960 . S
C534 H547 0.962 . S
C534 H548 0.960 . S
C535 C532 1.511 . S
C535 H549 0.961 . S
C535 H550 0.961 . S
C535 H551 0.961 . S
C536 C537 1.370 . S
C536 C538 1.363 . S
C536 H552 0.931 . S
C537 C536 1.370 . S
C537 C541 1.408 . S
C538 C536 1.363 . S
C538 C539 1.370 . S
C538 C542 1.524 . S
C539 C531 1.503 . S
C539 C538 1.370 . S
C539 C540 1.403 . S
C540 C539 1.403 . S
C540 C541 1.404 . S
C540 C543 1.539 . S
C541 C537 1.408 . S
C541 C540 1.404 . S
C541 H553 0.930 . S
C542 C538 1.524 . S
C542 H554 0.956 . S
C542 H555 0.961 . S
C542 H556 0.961 . S
C543 C540 1.539 . S
C543 H557 0.958 . S
C543 H558 0.961 . S
C543 H559 0.960 . S
H544 C528 0.931 . S
H545 C533 0.929 . S
H546 C534 0.960 . S
H547 C534 0.962 . S
H548 C534 0.960 . S
H549 C535 0.961 . S
H550 C535 0.961 . S
H551 C535 0.961 . S
H552 C536 0.931 . S
H553 C541 0.930 . S
H554 C542 0.956 . S
H555 C542 0.961 . S
H556 C542 0.961 . S
H557 C543 0.958 . S
H558 C543 0.961 . S
H559 C543 0.960 . S
C560 C561 1.391 . S
C560 C562 1.394 . S
C560 H576 0.931 . S
C561 C560 1.391 . S
C561 C565 1.376 . S
C562 C560 1.394 . S
C562 C563 1.369 . S
C562 C566 1.531 . S
C563 C562 1.369 . S
C563 C564 1.410 . S
C563 C571 1.503 . S
C564 C563 1.410 . S
C564 C565 1.392 . S
C564 C567 1.511 . S
C565 C561 1.376 . S
C565 C564 1.392 . S
C565 H577 0.929 . S
C566 C562 1.531 . S
C566 H578 0.960 . S
C566 H579 0.962 . S
C566 H580 0.960 . S
C567 C564 1.511 . S
C567 H581 0.961 . S
C567 H582 0.961 . S
C567 H583 0.961 . S
C568 C569 1.370 . S
C568 C570 1.363 . S
C568 H584 0.931 . S
C569 C568 1.370 . S
C569 C573 1.408 . S
C570 C568 1.363 . S
C570 C571 1.370 . S
C570 C574 1.524 . S
C571 C563 1.503 . S
C571 C570 1.370 . S
C571 C572 1.403 . S
C572 C571 1.403 . S
C572 C573 1.404 . S
C572 C575 1.539 . S
C573 C569 1.408 . S
C573 C572 1.404 . S
C573 H585 0.930 . S
C574 C570 1.524 . S
C574 H586 0.956 . S
C574 H587 0.961 . S
C574 H588 0.961 . S
C575 C572 1.539 . S
C575 H589 0.958 . S
C575 H590 0.961 . S
C575 H591 0.960 . S
H576 C560 0.931 . S
H577 C565 0.929 . S
H578 C566 0.960 . S
H579 C566 0.962 . S
H580 C566 0.960 . S
H581 C567 0.961 . S
H582 C567 0.961 . S
H583 C567 0.961 . S
H584 C568 0.931 . S
H585 C573 0.930 . S
H586 C574 0.956 . S
H587 C574 0.961 . S
H588 C574 0.961 . S
H589 C575 0.958 . S
H590 C575 0.961 . S
H591 C575 0.960 . S
C592 C593 1.391 . S
C592 C594 1.394 . S
C592 H608 0.931 . S
C593 C592 1.391 . S
C593 C597 1.376 . S
C594 C592 1.394 . S
C594 C595 1.369 . S
C594 C598 1.531 . S
C595 C594 1.369 . S
C595 C596 1.410 . S
C595 C603 1.503 . S
C596 C595 1.410 . S
C596 C597 1.392 . S
C596 C599 1.511 . S
C597 C593 1.376 . S
C597 C596 1.392 . S
C597 H609 0.929 1_655 S
C598 C594 1.531 . S
C598 H610 0.960 . S
C598 H611 0.962 . S
C598 H612 0.960 . S
C599 C596 1.511 . S
C599 H613 0.961 . S
C599 H614 0.961 . S
C599 H615 0.961 . S
C600 C601 1.370 . S
C600 C602 1.363 . S
C600 H616 0.931 . S
C601 C600 1.370 . S
C601 C605 1.408 . S
C602 C600 1.363 . S
C602 C603 1.370 . S
C602 C606 1.524 . S
C603 C595 1.503 . S
C603 C602 1.370 . S
C603 C604 1.403 . S
C604 C603 1.403 . S
C604 C605 1.404 . S
C604 C607 1.539 . S
C605 C601 1.408 . S
C605 C604 1.404 . S
C605 H617 0.930 . S
C606 C602 1.524 . S
C606 H618 0.956 . S
C606 H619 0.961 . S
C606 H620 0.961 . S
C607 C604 1.539 . S
C607 H621 0.958 . S
C607 H622 0.961 . S
C607 H623 0.960 . S
H608 C592 0.931 . S
H609 C597 0.929 1_455 S
H610 C598 0.960 . S
H611 C598 0.962 . S
H612 C598 0.960 . S
H613 C599 0.961 . S
H614 C599 0.961 . S
H615 C599 0.961 . S
H616 C600 0.931 . S
H617 C605 0.930 . S
H618 C606 0.956 . S
H619 C606 0.961 . S
H620 C606 0.961 . S
H621 C607 0.958 . S
H622 C607 0.961 . S
H623 C607 0.960 . S
C624 C625 1.391 . S
C624 C626 1.394 . S
C624 H640 0.931 . S
C625 C624 1.391 . S
C625 C629 1.376 . S
C626 C624 1.394 . S
C626 C627 1.369 . S
C626 C630 1.531 1_556 S
C627 C626 1.369 . S
C627 C628 1.410 . S
C627 C635 1.503 . S
C628 C627 1.410 . S
C628 C629 1.392 . S
C628 C631 1.511 . S
C629 C625 1.376 . S
C629 C628 1.392 . S
C629 H641 0.929 . S
C630 C626 1.531 1_554 S
C630 H642 0.960 . S
C630 H643 0.962 . S
C630 H644 0.960 . S
C631 C628 1.511 . S
C631 H645 0.961 . S
C631 H646 0.961 . S
C631 H647 0.961 . S
C632 C633 1.370 . S
C632 C634 1.363 . S
C632 H648 0.931 . S
C633 C632 1.370 . S
C633 C637 1.408 1_556 S
C634 C632 1.363 . S
C634 C635 1.370 . S
C634 C638 1.524 . S
C635 C627 1.503 . S
C635 C634 1.370 . S
C635 C636 1.403 . S
C636 C635 1.403 . S
C636 C637 1.404 1_556 S
C636 C639 1.539 1_556 S
C637 C633 1.408 1_554 S
C637 C636 1.404 1_554 S
C637 H649 0.930 . S
C638 C634 1.524 . S
C638 H650 0.956 . S
C638 H651 0.961 . S
C638 H652 0.961 . S
C639 C636 1.539 1_554 S
C639 H653 0.958 . S
C639 H654 0.961 . S
C639 H655 0.960 1_554 S
H640 C624 0.931 . S
H641 C629 0.929 . S
H642 C630 0.960 . S
H643 C630 0.962 . S
H644 C630 0.960 . S
H645 C631 0.961 . S
H646 C631 0.961 . S
H647 C631 0.961 . S
H648 C632 0.931 . S
H649 C637 0.930 . S
H650 C638 0.956 . S
H651 C638 0.961 . S
H652 C638 0.961 . S
H653 C639 0.958 . S
H654 C639 0.961 . S
H655 C639 0.960 1_556 S
C656 C657 1.391 . S
C656 C658 1.394 . S
C656 H672 0.931 . S
C657 C656 1.391 . S
C657 C661 1.376 . S
C658 C656 1.394 . S
C658 C659 1.369 . S
C658 C662 1.531 . S
C659 C658 1.369 . S
C659 C660 1.410 . S
C659 C667 1.503 . S
C660 C659 1.410 . S
C660 C661 1.392 . S
C660 C663 1.511 . S
C661 C657 1.376 . S
C661 C660 1.392 . S
C661 H673 0.929 . S
C662 C658 1.531 . S
C662 H674 0.960 . S
C662 H675 0.962 . S
C662 H676 0.960 . S
C663 C660 1.511 . S
C663 H677 0.961 . S
C663 H678 0.961 . S
C663 H679 0.961 . S
C664 C665 1.370 . S
C664 C666 1.363 . S
C664 H680 0.931 . S
C665 C664 1.370 . S
C665 C669 1.408 . S
C666 C664 1.363 . S
C666 C667 1.370 . S
C666 C670 1.524 . S
C667 C659 1.503 . S
C667 C666 1.370 . S
C667 C668 1.403 . S
C668 C667 1.403 . S
C668 C669 1.404 . S
C668 C671 1.539 . S
C669 C665 1.408 . S
C669 C668 1.404 . S
C669 H681 0.930 . S
C670 C666 1.524 . S
C670 H682 0.956 . S
C670 H683 0.961 . S
C670 H684 0.961 . S
C671 C668 1.539 . S
C671 H685 0.958 . S
C671 H686 0.961 . S
C671 H687 0.960 . S
H672 C656 0.931 . S
H673 C661 0.929 . S
H674 C662 0.960 . S
H675 C662 0.962 . S
H676 C662 0.960 . S
H677 C663 0.961 . S
H678 C663 0.961 . S
H679 C663 0.961 . S
H680 C664 0.931 . S
H681 C669 0.930 . S
H682 C670 0.956 . S
H683 C670 0.961 . S
H684 C670 0.961 . S
H685 C671 0.958 . S
H686 C671 0.961 . S
H687 C671 0.960 . S
C688 C689 1.391 . S
C688 C690 1.394 . S
C688 H704 0.931 . S
C689 C688 1.391 . S
C689 C693 1.376 . S
C690 C688 1.394 . S
C690 C691 1.369 . S
C690 C694 1.531 . S
C691 C690 1.369 . S
C691 C692 1.410 . S
C691 C699 1.503 . S
C692 C691 1.410 . S
C692 C693 1.392 . S
C692 C695 1.511 . S
C693 C689 1.376 . S
C693 C692 1.392 . S
C693 H705 0.929 . S
C694 C690 1.531 . S
C694 H706 0.960 . S
C694 H707 0.962 . S
C694 H708 0.960 . S
C695 C692 1.511 . S
C695 H709 0.961 . S
C695 H710 0.961 . S
C695 H711 0.961 . S
C696 C697 1.370 . S
C696 C698 1.363 . S
C696 H712 0.931 . S
C697 C696 1.370 . S
C697 C701 1.408 . S
C698 C696 1.363 . S
C698 C699 1.370 . S
C698 C702 1.524 . S
C699 C691 1.503 . S
C699 C698 1.370 . S
C699 C700 1.403 . S
C700 C699 1.403 . S
C700 C701 1.404 . S
C700 C703 1.539 . S
C701 C697 1.408 . S
C701 C700 1.404 . S
C701 H713 0.930 . S
C702 C698 1.524 . S
C702 H714 0.956 . S
C702 H715 0.961 . S
C702 H716 0.961 . S
C703 C700 1.539 . S
C703 H717 0.958 . S
C703 H718 0.961 . S
C703 H719 0.960 . S
H704 C688 0.931 . S
H705 C693 0.929 . S
H706 C694 0.960 . S
H707 C694 0.962 . S
H708 C694 0.960 . S
H709 C695 0.961 . S
H710 C695 0.961 . S
H711 C695 0.961 . S
H712 C696 0.931 . S
H713 C701 0.930 . S
H714 C702 0.956 . S
H715 C702 0.961 . S
H716 C702 0.961 . S
H717 C703 0.958 . S
H718 C703 0.961 . S
H719 C703 0.960 . S
C720 C721 1.391 . S
C720 C722 1.394 . S
C720 H736 0.931 . S
C721 C720 1.391 . S
C721 C725 1.376 . S
C722 C720 1.394 . S
C722 C723 1.369 . S
C722 C726 1.531 . S
C723 C722 1.369 . S
C723 C724 1.410 . S
C723 C731 1.503 . S
C724 C723 1.410 . S
C724 C725 1.392 . S
C724 C727 1.511 . S
C725 C721 1.376 . S
C725 C724 1.392 . S
C725 H737 0.929 . S
C726 C722 1.531 . S
C726 H738 0.960 1_554 S
C726 H739 0.962 1_455 S
C726 H740 0.960 . S
C727 C724 1.511 . S
C727 H741 0.961 . S
C727 H742 0.961 . S
C727 H743 0.961 . S
C728 C729 1.364 1_554 S
C728 C730 1.369 . S
C728 H744 0.931 . S
C729 C728 1.364 1_556 S
C729 C733 1.408 . S
C730 C728 1.369 . S
C730 C731 1.370 . S
C730 C734 1.524 . S
C731 C723 1.503 . S
C731 C730 1.370 . S
C731 C732 1.403 1_554 S
C732 C731 1.403 1_556 S
C732 C733 1.404 . S
C732 C735 1.539 . S
C733 C729 1.408 . S
C733 C732 1.404 . S
C733 H745 0.930 . S
C734 C730 1.524 . S
C734 H746 0.956 1_455 S
C734 H747 0.961 . S
C734 H748 0.961 1_455 S
C735 C732 1.539 . S
C735 H749 0.958 . S
C735 H750 0.961 . S
C735 H751 0.960 1_556 S
H736 C720 0.931 . S
H737 C725 0.929 . S
H738 C726 0.960 1_556 S
H739 C726 0.962 1_655 S
H740 C726 0.960 . S
H741 C727 0.961 . S
H742 C727 0.961 . S
H743 C727 0.961 . S
H744 C728 0.931 . S
H745 C733 0.930 . S
H746 C734 0.956 1_655 S
H747 C734 0.961 . S
H748 C734 0.961 1_655 S
H749 C735 0.958 . S
H750 C735 0.961 . S
H751 C735 0.960 1_554 S
C752 C753 1.391 . S
C752 C754 1.394 . S
C752 H768 0.931 . S
C753 C752 1.391 . S
C753 C757 1.376 . S
C754 C752 1.394 . S
C754 C755 1.369 . S
C754 C758 1.531 . S
C755 C754 1.369 . S
C755 C756 1.410 . S
C755 C763 1.503 . S
C756 C755 1.410 . S
C756 C757 1.392 . S
C756 C759 1.511 . S
C757 C753 1.376 . S
C757 C756 1.392 . S
C757 H769 0.929 . S
C758 C754 1.531 . S
C758 H770 0.960 . S
C758 H771 0.962 . S
C758 H772 0.960 . S
C759 C756 1.511 . S
C759 H773 0.961 . S
C759 H774 0.961 . S
C759 H775 0.961 . S
C760 C761 1.370 . S
C760 C762 1.363 . S
C760 H776 0.931 . S
C761 C760 1.370 . S
C761 C765 1.408 . S
C762 C760 1.363 . S
C762 C763 1.370 . S
C762 C766 1.524 . S
C763 C755 1.503 . S
C763 C762 1.370 . S
C763 C764 1.403 . S
C764 C763 1.403 . S
C764 C765 1.404 . S
C764 C767 1.539 . S
C765 C761 1.408 . S
C765 C764 1.404 . S
C765 H777 0.930 . S
C766 C762 1.524 . S
C766 H778 0.956 . S
C766 H779 0.961 . S
C766 H780 0.961 . S
C767 C764 1.539 . S
C767 H781 0.958 . S
C767 H782 0.961 . S
C767 H783 0.960 . S
H768 C752 0.931 . S
H769 C757 0.929 . S
H770 C758 0.960 . S
H771 C758 0.962 . S
H772 C758 0.960 . S
H773 C759 0.961 . S
H774 C759 0.961 . S
H775 C759 0.961 . S
H776 C760 0.931 . S
H777 C765 0.930 . S
H778 C766 0.956 . S
H779 C766 0.961 . S
H780 C766 0.961 . S
H781 C767 0.958 . S
H782 C767 0.961 . S
H783 C767 0.960 . S
C784 C785 1.391 . S
C784 C786 1.394 . S
C784 H800 0.931 . S
C785 C784 1.391 . S
C785 C789 1.376 . S
C786 C784 1.394 . S
C786 C787 1.369 . S
C786 C790 1.531 . S
C787 C786 1.369 . S
C787 C788 1.410 . S
C787 C795 1.503 . S
C788 C787 1.410 . S
C788 C789 1.392 . S
C788 C791 1.511 . S
C789 C785 1.376 . S
C789 C788 1.392 . S
C789 H801 0.929 . S
C790 C786 1.531 . S
C790 H802 0.960 . S
C790 H803 0.962 . S
C790 H804 0.960 . S
C791 C788 1.511 . S
C791 H805 0.961 . S
C791 H806 0.961 . S
C791 H807 0.961 . S
C792 C793 1.370 . S
C792 C794 1.363 . S
C792 H808 0.931 . S
C793 C792 1.370 . S
C793 C797 1.408 . S
C794 C792 1.363 . S
C794 C795 1.370 . S
C794 C798 1.524 . S
C795 C787 1.503 . S
C795 C794 1.370 . S
C795 C796 1.403 . S
C796 C795 1.403 . S
C796 C797 1.404 . S
C796 C799 1.539 . S
C797 C793 1.408 . S
C797 C796 1.404 . S
C797 H809 0.930 . S
C798 C794 1.524 . S
C798 H810 0.956 . S
C798 H811 0.961 . S
C798 H812 0.961 . S
C799 C796 1.539 . S
C799 H813 0.958 . S
C799 H814 0.961 . S
C799 H815 0.960 . S
H800 C784 0.931 . S
H801 C789 0.929 . S
H802 C790 0.960 . S
H803 C790 0.962 . S
H804 C790 0.960 . S
H805 C791 0.961 . S
H806 C791 0.961 . S
H807 C791 0.961 . S
H808 C792 0.931 . S
H809 C797 0.930 . S
H810 C798 0.956 . S
H811 C798 0.961 . S
H812 C798 0.961 . S
H813 C799 0.958 . S
H814 C799 0.961 . S
H815 C799 0.960 . S
C816 C817 1.391 . S
C816 C818 1.394 . S
C816 H832 0.931 . S
C817 C816 1.391 . S
C817 C821 1.376 . S
C818 C816 1.394 . S
C818 C819 1.369 . S
C818 C822 1.531 . S
C819 C818 1.369 . S
C819 C820 1.410 . S
C819 C827 1.503 . S
C820 C819 1.410 . S
C820 C821 1.392 . S
C820 C823 1.511 . S
C821 C817 1.376 . S
C821 C820 1.392 . S
C821 H833 0.929 . S
C822 C818 1.531 . S
C822 H834 0.960 . S
C822 H835 0.962 . S
C822 H836 0.960 . S
C823 C820 1.511 . S
C823 H837 0.961 . S
C823 H838 0.961 . S
C823 H839 0.961 . S
C824 C825 1.370 . S
C824 C826 1.363 . S
C824 H840 0.931 . S
C825 C824 1.370 . S
C825 C829 1.408 . S
C826 C824 1.363 . S
C826 C827 1.370 . S
C826 C830 1.524 . S
C827 C819 1.503 . S
C827 C826 1.370 . S
C827 C828 1.403 . S
C828 C827 1.403 . S
C828 C829 1.404 . S
C828 C831 1.539 . S
C829 C825 1.408 . S
C829 C828 1.404 . S
C829 H841 0.930 . S
C830 C826 1.524 . S
C830 H842 0.956 . S
C830 H843 0.961 . S
C830 H844 0.961 . S
C831 C828 1.539 . S
C831 H845 0.958 . S
C831 H846 0.961 . S
C831 H847 0.960 . S
H832 C816 0.931 . S
H833 C821 0.929 . S
H834 C822 0.960 . S
H835 C822 0.962 . S
H836 C822 0.960 . S
H837 C823 0.961 . S
H838 C823 0.961 . S
H839 C823 0.961 . S
H840 C824 0.931 . S
H841 C829 0.930 . S
H842 C830 0.956 . S
H843 C830 0.961 . S
H844 C830 0.961 . S
H845 C831 0.958 . S
H846 C831 0.961 . S
H847 C831 0.960 . S
C848 C849 1.391 . S
C848 C850 1.394 . S
C848 H864 0.931 . S
C849 C848 1.391 . S
C849 C853 1.376 . S
C850 C848 1.394 . S
C850 C851 1.369 . S
C850 C854 1.531 . S
C851 C850 1.369 . S
C851 C852 1.410 . S
C851 C859 1.503 . S
C852 C851 1.410 . S
C852 C853 1.392 . S
C852 C855 1.511 . S
C853 C849 1.376 . S
C853 C852 1.392 . S
C853 H865 0.929 . S
C854 C850 1.531 . S
C854 H866 0.960 . S
C854 H867 0.962 . S
C854 H868 0.960 . S
C855 C852 1.511 . S
C855 H869 0.961 . S
C855 H870 0.961 . S
C855 H871 0.961 . S
C856 C857 1.370 . S
C856 C858 1.363 . S
C856 H872 0.931 . S
C857 C856 1.370 . S
C857 C861 1.408 . S
C858 C856 1.363 . S
C858 C859 1.370 . S
C858 C862 1.524 . S
C859 C851 1.503 . S
C859 C858 1.370 . S
C859 C860 1.403 . S
C860 C859 1.403 . S
C860 C861 1.404 . S
C860 C863 1.539 . S
C861 C857 1.408 . S
C861 C860 1.404 . S
C861 H873 0.930 . S
C862 C858 1.524 . S
C862 H874 0.956 . S
C862 H875 0.961 . S
C862 H876 0.961 . S
C863 C860 1.539 . S
C863 H877 0.958 . S
C863 H878 0.961 . S
C863 H879 0.960 . S
H864 C848 0.931 . S
H865 C853 0.929 . S
H866 C854 0.960 . S
H867 C854 0.962 . S
H868 C854 0.960 . S
H869 C855 0.961 . S
H870 C855 0.961 . S
H871 C855 0.961 . S
H872 C856 0.931 . S
H873 C861 0.930 . S
H874 C862 0.956 . S
H875 C862 0.961 . S
H876 C862 0.961 . S
H877 C863 0.958 . S
H878 C863 0.961 . S
H879 C863 0.960 . S
C880 C881 1.391 . S
C880 C882 1.394 . S
C880 H896 0.931 . S
C881 C880 1.391 . S
C881 C885 1.376 . S
C882 C880 1.394 . S
C882 C883 1.369 . S
C882 C886 1.531 . S
C883 C882 1.369 . S
C883 C884 1.410 . S
C883 C891 1.503 . S
C884 C883 1.410 . S
C884 C885 1.392 . S
C884 C887 1.511 . S
C885 C881 1.376 . S
C885 C884 1.392 . S
C885 H897 0.929 . S
C886 C882 1.531 . S
C886 H898 0.960 . S
C886 H899 0.962 . S
C886 H900 0.960 . S
C887 C884 1.511 . S
C887 H901 0.961 . S
C887 H902 0.961 . S
C887 H903 0.961 . S
C888 C889 1.370 . S
C888 C890 1.363 . S
C888 H904 0.931 . S
C889 C888 1.370 . S
C889 C893 1.408 . S
C890 C888 1.363 . S
C890 C891 1.370 . S
C890 C894 1.524 . S
C891 C883 1.503 . S
C891 C890 1.370 . S
C891 C892 1.403 . S
C892 C891 1.403 . S
C892 C893 1.404 . S
C892 C895 1.539 . S
C893 C889 1.408 . S
C893 C892 1.404 . S
C893 H905 0.930 . S
C894 C890 1.524 . S
C894 H906 0.956 . S
C894 H907 0.961 . S
C894 H908 0.961 . S
C895 C892 1.539 . S
C895 H909 0.958 . S
C895 H910 0.961 . S
C895 H911 0.960 . S
H896 C880 0.931 . S
H897 C885 0.929 . S
H898 C886 0.960 . S
H899 C886 0.962 . S
H900 C886 0.960 . S
H901 C887 0.961 . S
H902 C887 0.961 . S
H903 C887 0.961 . S
H904 C888 0.931 . S
H905 C893 0.930 . S
H906 C894 0.956 . S
H907 C894 0.961 . S
H908 C894 0.961 . S
H909 C895 0.958 . S
H910 C895 0.961 . S
H911 C895 0.960 . S
C912 C913 1.391 . S
C912 C914 1.394 . S
C912 H928 0.931 . S
C913 C912 1.391 . S
C913 C917 1.376 . S
C914 C912 1.394 . S
C914 C915 1.369 . S
C914 C918 1.531 . S
C915 C914 1.369 . S
C915 C916 1.410 . S
C915 C923 1.503 1_565 S
C916 C915 1.410 . S
C916 C917 1.392 . S
C916 C919 1.511 1_565 S
C917 C913 1.376 . S
C917 C916 1.392 . S
C917 H929 0.929 . S
C918 C914 1.531 . S
C918 H930 0.960 . S
C918 H931 0.962 . S
C918 H932 0.960 . S
C919 C916 1.511 1_545 S
C919 H933 0.961 . S
C919 H934 0.961 . S
C919 H935 0.961 . S
C920 C921 1.370 . S
C920 C922 1.363 . S
C920 H936 0.931 . S
C921 C920 1.370 . S
C921 C925 1.408 . S
C922 C920 1.363 . S
C922 C923 1.370 . S
C922 C926 1.524 1_545 S
C923 C915 1.503 1_545 S
C923 C922 1.370 . S
C923 C924 1.403 . S
C924 C923 1.403 . S
C924 C925 1.404 . S
C924 C927 1.539 . S
C925 C921 1.408 . S
C925 C924 1.404 . S
C925 H937 0.930 . S
C926 C922 1.524 1_565 S
C926 H938 0.956 . S
C926 H939 0.961 . S
C926 H940 0.961 . S
C927 C924 1.539 . S
C927 H941 0.958 . S
C927 H942 0.961 . S
C927 H943 0.960 . S
H928 C912 0.931 . S
H929 C917 0.929 . S
H930 C918 0.960 . S
H931 C918 0.962 . S
H932 C918 0.960 . S
H933 C919 0.961 . S
H934 C919 0.961 . S
H935 C919 0.961 . S
H936 C920 0.931 . S
H937 C925 0.930 . S
H938 C926 0.956 . S
H939 C926 0.961 . S
H940 C926 0.961 . S
H941 C927 0.958 . S
H942 C927 0.961 . S
H943 C927 0.960 . S
C944 C945 1.391 . S
C944 C946 1.394 . S
C944 H960 0.931 . S
C945 C944 1.391 . S
C945 C949 1.376 1_556 S
C946 C944 1.394 . S
C946 C947 1.369 1_556 S
C946 C950 1.531 1_545 S
C947 C946 1.369 1_554 S
C947 C948 1.410 . S
C947 C955 1.503 1_545 S
C948 C947 1.410 . S
C948 C949 1.392 . S
C948 C951 1.511 . S
C949 C945 1.376 1_554 S
C949 C948 1.392 . S
C949 H961 0.929 . S
C950 C946 1.531 1_565 S
C950 H962 0.960 . S
C950 H963 0.962 1_455 S
C950 H964 0.960 . S
C951 C948 1.511 . S
C951 H965 0.961 . S
C951 H966 0.961 . S
C951 H967 0.961 . S
C952 C953 1.370 . S
C952 C954 1.363 . S
C952 H968 0.931 . S
C953 C952 1.370 . S
C953 C957 1.408 . S
C954 C952 1.363 . S
C954 C955 1.370 . S
C954 C958 1.524 1_465 S
C955 C947 1.503 1_565 S
C955 C954 1.370 . S
C955 C956 1.403 . S
C956 C955 1.403 . S
C956 C957 1.404 . S
C956 C959 1.539 . S
C957 C953 1.408 . S
C957 C956 1.404 . S
C957 H969 0.930 . S
C958 C954 1.524 1_645 S
C958 H970 0.956 . S
C958 H971 0.961 1_655 S
C958 H972 0.961 . S
C959 C956 1.539 . S
C959 H973 0.958 . S
C959 H974 0.961 . S
C959 H975 0.960 . S
H960 C944 0.931 . S
H961 C949 0.929 . S
H962 C950 0.960 . S
H963 C950 0.962 1_655 S
H964 C950 0.960 . S
H965 C951 0.961 . S
H966 C951 0.961 . S
H967 C951 0.961 . S
H968 C952 0.931 . S
H969 C957 0.930 . S
H970 C958 0.956 . S
H971 C958 0.961 1_455 S
H972 C958 0.961 . S
H973 C959 0.958 . S
H974 C959 0.961 . S
H975 C959 0.960 . S
C976 C977 1.391 . S
C976 C978 1.394 . S
C976 H992 0.931 . S
C977 C976 1.391 . S
C977 C981 1.376 . S
C978 C976 1.394 . S
C978 C979 1.369 . S
C978 C982 1.531 . S
C979 C978 1.369 . S
C979 C980 1.410 . S
C979 C987 1.503 . S
C980 C979 1.410 . S
C980 C981 1.392 . S
C980 C983 1.511 . S
C981 C977 1.376 . S
C981 C980 1.392 . S
C981 H993 0.929 . S
C982 C978 1.531 . S
C982 H994 0.960 . S
C982 H995 0.962 1_455 S
C982 H996 0.946 1_455 S
C983 C980 1.511 . S
C983 H997 0.961 . S
C983 H998 0.961 . S
C983 H999 0.961 . S
C984 C985 1.370 . S
C984 C986 1.363 . S
C984 H1000 0.931 . S
C985 C984 1.370 . S
C985 C989 1.408 . S
C986 C984 1.363 . S
C986 C987 1.370 . S
C986 C990 1.524 . S
C987 C979 1.503 . S
C987 C986 1.370 . S
C987 C988 1.403 . S
C988 C987 1.403 . S
C988 C989 1.404 . S
C988 C991 1.539 . S
C989 C985 1.408 . S
C989 C988 1.404 . S
C989 H1001 0.930 . S
C990 C986 1.524 . S
C990 H1002 0.956 . S
C990 H1003 0.961 . S
C990 H1004 0.961 . S
C991 C988 1.539 . S
C991 H1005 0.958 . S
C991 H1006 0.961 . S
C991 H1007 0.960 . S
H992 C976 0.931 . S
H993 C981 0.929 . S
H994 C982 0.960 . S
H995 C982 0.962 1_655 S
H996 C982 0.946 1_655 S
H997 C983 0.961 . S
H998 C983 0.961 . S
H999 C983 0.961 . S
H1000 C984 0.931 . S
H1001 C989 0.930 . S
H1002 C990 0.956 . S
H1003 C990 0.961 . S
H1004 C990 0.961 . S
H1005 C991 0.958 . S
H1006 C991 0.961 . S
H1007 C991 0.960 . S
C1008 C1009 1.391 . S
C1008 C1010 1.394 . S
C1008 H1024 0.931 . S
C1009 C1008 1.391 . S
C1009 C1013 1.376 . S
C1010 C1008 1.394 . S
C1010 C1011 1.369 . S
C1010 C1014 1.531 . S
C1011 C1010 1.369 . S
C1011 C1012 1.410 . S
C1011 C1019 1.503 . S
C1012 C1011 1.410 . S
C1012 C1013 1.392 . S
C1012 C1015 1.511 . S
C1013 C1009 1.376 . S
C1013 C1012 1.392 . S
C1013 H1025 0.929 . S
C1014 C1010 1.531 . S
C1014 H1026 0.960 . S
C1014 H1027 0.962 . S
C1014 H1028 0.960 . S
C1015 C1012 1.511 . S
C1015 H1029 0.961 . S
C1015 H1030 0.961 . S
C1015 H1031 0.961 . S
C1016 C1017 1.370 . S
C1016 C1018 1.363 . S
C1016 H1032 0.931 . S
C1017 C1016 1.370 . S
C1017 C1021 1.408 . S
C1018 C1016 1.363 . S
C1018 C1019 1.370 . S
C1018 C1022 1.524 . S
C1019 C1011 1.503 . S
C1019 C1018 1.370 . S
C1019 C1020 1.403 . S
C1020 C1019 1.403 . S
C1020 C1021 1.404 . S
C1020 C1023 1.539 . S
C1021 C1017 1.408 . S
C1021 C1020 1.404 . S
C1021 H1033 0.930 . S
C1022 C1018 1.524 . S
C1022 H1034 0.956 . S
C1022 H1035 0.961 . S
C1022 H1036 0.961 . S
C1023 C1020 1.539 . S
C1023 H1037 0.958 . S
C1023 H1038 0.961 . S
C1023 H1039 0.960 . S
H1024 C1008 0.931 . S
H1025 C1013 0.929 . S
H1026 C1014 0.960 . S
H1027 C1014 0.962 . S
H1028 C1014 0.960 . S
H1029 C1015 0.961 . S
H1030 C1015 0.961 . S
H1031 C1015 0.961 . S
H1032 C1016 0.931 . S
H1033 C1021 0.930 . S
H1034 C1022 0.956 . S
H1035 C1022 0.961 . S
H1036 C1022 0.961 . S
H1037 C1023 0.958 . S
H1038 C1023 0.961 . S
H1039 C1023 0.960 . S
C1040 C1041 1.391 . S
C1040 C1042 1.394 . S
C1040 H1056 0.931 . S
C1041 C1040 1.391 . S
C1041 C1045 1.376 . S
C1042 C1040 1.394 . S
C1042 C1043 1.369 . S
C1042 C1046 1.531 . S
C1043 C1042 1.369 . S
C1043 C1044 1.410 . S
C1043 C1051 1.503 . S
C1044 C1043 1.410 . S
C1044 C1045 1.392 . S
C1044 C1047 1.511 . S
C1045 C1041 1.376 . S
C1045 C1044 1.392 . S
C1045 H1057 0.929 . S
C1046 C1042 1.531 . S
C1046 H1058 0.970 . S
C1046 H1059 0.962 . S
C1046 H1060 0.960 . S
C1047 C1044 1.511 . S
C1047 H1061 0.961 . S
C1047 H1062 0.961 . S
C1047 H1063 0.961 . S
C1048 C1049 1.370 . S
C1048 C1050 1.363 1_556 S
C1048 H1064 0.931 . S
C1049 C1048 1.370 . S
C1049 C1053 1.408 . S
C1050 C1048 1.363 1_554 S
C1050 C1051 1.370 . S
C1050 C1054 1.524 . S
C1051 C1043 1.503 . S
C1051 C1050 1.370 . S
C1051 C1052 1.403 1_554 S
C1052 C1051 1.403 1_556 S
C1052 C1053 1.404 . S
C1052 C1055 1.539 . S
C1053 C1049 1.408 . S
C1053 C1052 1.404 . S
C1053 H1065 0.930 . S
C1054 C1050 1.524 . S
C1054 H1066 0.956 . S
C1054 H1067 0.961 . S
C1054 H1068 0.961 . S
C1055 C1052 1.539 . S
C1055 H1069 0.958 . S
C1055 H1070 0.961 . S
C1055 H1071 0.960 1_556 S
H1056 C1040 0.931 . S
H1057 C1045 0.929 . S
H1058 C1046 0.970 . S
H1059 C1046 0.962 . S
H1060 C1046 0.960 . S
H1061 C1047 0.961 . S
H1062 C1047 0.961 . S
H1063 C1047 0.961 . S
H1064 C1048 0.931 . S
H1065 C1053 0.930 . S
H1066 C1054 0.956 . S
H1067 C1054 0.961 . S
H1068 C1054 0.961 . S
H1069 C1055 0.958 . S
H1070 C1055 0.961 . S
H1071 C1055 0.960 1_554 S
C1072 C1073 1.391 . S
C1072 C1074 1.394 . S
C1072 H1088 0.931 . S
C1073 C1072 1.391 . S
C1073 C1077 1.376 . S
C1074 C1072 1.394 . S
C1074 C1075 1.369 . S
C1074 C1078 1.531 . S
C1075 C1074 1.369 . S
C1075 C1076 1.410 . S
C1075 C1083 1.503 . S
C1076 C1075 1.410 . S
C1076 C1077 1.392 . S
C1076 C1079 1.511 . S
C1077 C1073 1.376 . S
C1077 C1076 1.392 . S
C1077 H1089 0.929 . S
C1078 C1074 1.531 . S
C1078 H1090 0.960 . S
C1078 H1091 0.962 . S
C1078 H1092 0.960 . S
C1079 C1076 1.511 . S
C1079 H1093 0.961 . S
C1079 H1094 0.961 . S
C1079 H1095 0.961 . S
C1080 C1081 1.370 . S
C1080 C1082 1.363 . S
C1080 H1096 0.931 . S
C1081 C1080 1.370 . S
C1081 C1085 1.408 . S
C1082 C1080 1.363 . S
C1082 C1083 1.370 . S
C1082 C1086 1.524 . S
C1083 C1075 1.503 . S
C1083 C1082 1.370 . S
C1083 C1084 1.403 . S
C1084 C1083 1.403 . S
C1084 C1085 1.404 . S
C1084 C1087 1.539 . S
C1085 C1081 1.408 . S
C1085 C1084 1.404 . S
C1085 H1097 0.930 . S
C1086 C1082 1.524 . S
C1086 H1098 0.956 . S
C1086 H1099 0.961 . S
C1086 H1100 0.961 . S
C1087 C1084 1.539 . S
C1087 H1101 0.958 . S
C1087 H1102 0.961 . S
C1087 H1103 0.960 . S
H1088 C1072 0.931 . S
H1089 C1077 0.929 . S
H1090 C1078 0.960 . S
H1091 C1078 0.962 . S
H1092 C1078 0.960 . S
H1093 C1079 0.961 . S
H1094 C1079 0.961 . S
H1095 C1079 0.961 . S
H1096 C1080 0.931 . S
H1097 C1085 0.930 . S
H1098 C1086 0.956 . S
H1099 C1086 0.961 . S
H1100 C1086 0.961 . S
H1101 C1087 0.958 . S
H1102 C1087 0.961 . S
H1103 C1087 0.960 . S
C1104 C1105 1.391 . S
C1104 C1106 1.394 . S
C1104 H1120 0.931 . S
C1105 C1104 1.391 . S
C1105 C1109 1.376 . S
C1106 C1104 1.394 . S
C1106 C1107 1.369 . S
C1106 C1110 1.531 . S
C1107 C1106 1.369 . S
C1107 C1108 1.410 . S
C1107 C1115 1.503 . S
C1108 C1107 1.410 . S
C1108 C1109 1.392 . S
C1108 C1111 1.511 . S
C1109 C1105 1.376 . S
C1109 C1108 1.392 . S
C1109 H1121 0.929 . S
C1110 C1106 1.531 . S
C1110 H1122 0.960 . S
C1110 H1123 0.962 . S
C1110 H1124 0.960 . S
C1111 C1108 1.511 . S
C1111 H1125 0.961 . S
C1111 H1126 0.961 . S
C1111 H1127 0.961 . S
C1112 C1113 1.370 . S
C1112 C1114 1.363 . S
C1112 H1128 0.931 . S
C1113 C1112 1.370 . S
C1113 C1117 1.408 . S
C1114 C1112 1.363 . S
C1114 C1115 1.370 . S
C1114 C1118 1.524 . S
C1115 C1107 1.503 . S
C1115 C1114 1.370 . S
C1115 C1116 1.403 . S
C1116 C1115 1.403 . S
C1116 C1117 1.404 . S
C1116 C1119 1.539 . S
C1117 C1113 1.408 . S
C1117 C1116 1.404 . S
C1117 H1129 0.930 . S
C1118 C1114 1.524 . S
C1118 H1130 0.956 . S
C1118 H1131 0.961 . S
C1118 H1132 0.961 . S
C1119 C1116 1.539 . S
C1119 H1133 0.958 . S
C1119 H1134 0.961 . S
C1119 H1135 0.960 . S
H1120 C1104 0.931 . S
H1121 C1109 0.929 . S
H1122 C1110 0.960 . S
H1123 C1110 0.962 . S
H1124 C1110 0.960 . S
H1125 C1111 0.961 . S
H1126 C1111 0.961 . S
H1127 C1111 0.961 . S
H1128 C1112 0.931 . S
H1129 C1117 0.930 . S
H1130 C1118 0.956 . S
H1131 C1118 0.961 . S
H1132 C1118 0.961 . S
H1133 C1119 0.958 . S
H1134 C1119 0.961 . S
H1135 C1119 0.960 . S
C1136 C1137 1.391 . S
C1136 C1138 1.394 . S
C1136 H1152 0.931 . S
C1137 C1136 1.391 . S
C1137 C1141 1.376 . S
C1138 C1136 1.394 . S
C1138 C1139 1.369 . S
C1138 C1142 1.531 . S
C1139 C1138 1.369 . S
C1139 C1140 1.410 . S
C1139 C1147 1.503 . S
C1140 C1139 1.410 . S
C1140 C1141 1.392 . S
C1140 C1143 1.511 . S
C1141 C1137 1.376 . S
C1141 C1140 1.392 . S
C1141 H1153 0.929 . S
C1142 C1138 1.531 . S
C1142 H1154 0.960 . S
C1142 H1155 0.962 . S
C1142 H1156 0.960 . S
C1143 C1140 1.511 . S
C1143 H1157 0.961 . S
C1143 H1158 0.961 . S
C1143 H1159 0.961 . S
C1144 C1145 1.370 . S
C1144 C1146 1.363 . S
C1144 H1160 0.931 . S
C1145 C1144 1.370 . S
C1145 C1149 1.408 . S
C1146 C1144 1.363 . S
C1146 C1147 1.370 . S
C1146 C1150 1.524 . S
C1147 C1139 1.503 . S
C1147 C1146 1.370 . S
C1147 C1148 1.403 . S
C1148 C1147 1.403 . S
C1148 C1149 1.404 . S
C1148 C1151 1.539 . S
C1149 C1145 1.408 . S
C1149 C1148 1.404 . S
C1149 H1161 0.930 . S
C1150 C1146 1.524 . S
C1150 H1162 0.956 . S
C1150 H1163 0.961 . S
C1150 H1164 0.961 . S
C1151 C1148 1.539 . S
C1151 H1165 0.958 . S
C1151 H1166 0.961 . S
C1151 H1167 0.960 . S
H1152 C1136 0.931 . S
H1153 C1141 0.929 . S
H1154 C1142 0.960 . S
H1155 C1142 0.962 . S
H1156 C1142 0.960 . S
H1157 C1143 0.961 . S
H1158 C1143 0.961 . S
H1159 C1143 0.961 . S
H1160 C1144 0.931 . S
H1161 C1149 0.930 . S
H1162 C1150 0.956 . S
H1163 C1150 0.961 . S
H1164 C1150 0.961 . S
H1165 C1151 0.958 . S
H1166 C1151 0.961 . S
H1167 C1151 0.960 . S
C1168 C1169 1.391 . S
C1168 C1170 1.394 . S
C1168 H1184 0.931 . S
C1169 C1168 1.391 . S
C1169 C1173 1.376 . S
C1170 C1168 1.394 . S
C1170 C1171 1.369 . S
C1170 C1174 1.531 . S
C1171 C1170 1.369 . S
C1171 C1172 1.425 . S
C1171 C1179 1.503 1_565 S
C1172 C1171 1.425 . S
C1172 C1173 1.417 . S
C1172 C1175 1.474 1_565 S
C1173 C1169 1.376 . S
C1173 C1172 1.417 . S
C1173 H1185 0.929 . S
C1174 C1170 1.531 . S
C1174 H1186 0.960 1_554 S
C1174 H1187 0.962 . S
C1174 H1188 0.960 . S
C1175 C1172 1.474 1_545 S
C1175 H1189 0.961 . S
C1175 H1190 0.961 . S
C1175 H1191 0.961 . S
C1176 C1177 1.370 . S
C1176 C1178 1.363 1_556 S
C1176 H1192 0.931 . S
C1177 C1176 1.370 . S
C1177 C1181 1.408 . S
C1178 C1176 1.363 1_554 S
C1178 C1179 1.370 . S
C1178 C1182 1.524 . S
C1179 C1171 1.503 1_545 S
C1179 C1178 1.370 . S
C1179 C1180 1.403 . S
C1180 C1179 1.403 . S
C1180 C1181 1.404 1_554 S
C1180 C1183 1.539 1_545 S
C1181 C1177 1.408 . S
C1181 C1180 1.404 1_556 S
C1181 H1193 0.930 . S
C1182 C1178 1.524 . S
C1182 H1194 0.956 . S
C1182 H1195 0.961 . S
C1182 H1196 0.961 . S
C1183 C1180 1.539 1_565 S
C1183 H1197 0.958 1_554 S
C1183 H1198 0.963 1_565 S
C1183 H1199 0.960 . S
H1184 C1168 0.931 . S
H1185 C1173 0.929 . S
H1186 C1174 0.960 1_556 S
H1187 C1174 0.962 . S
H1188 C1174 0.960 . S
H1189 C1175 0.961 . S
H1190 C1175 0.961 . S
H1191 C1175 0.961 . S
H1192 C1176 0.931 . S
H1193 C1181 0.930 . S
H1194 C1182 0.956 . S
H1195 C1182 0.961 . S
H1196 C1182 0.961 . S
H1197 C1183 0.958 1_556 S
H1198 C1183 0.963 1_545 S
H1199 C1183 0.960 . S
C1200 C1201 1.391 . S
C1200 C1202 1.394 . S
C1200 H1216 0.931 . S
C1201 C1200 1.391 . S
C1201 C1205 1.376 . S
C1202 C1200 1.394 . S
C1202 C1203 1.369 . S
C1202 C1206 1.531 1_545 S
C1203 C1202 1.369 . S
C1203 C1204 1.410 . S
C1203 C1211 1.503 1_545 S
C1204 C1203 1.410 . S
C1204 C1205 1.392 . S
C1204 C1207 1.511 1_455 S
C1205 C1201 1.376 . S
C1205 C1204 1.392 . S
C1205 H1217 0.929 1_455 S
C1206 C1202 1.531 1_565 S
C1206 H1218 0.960 . S
C1206 H1219 0.962 . S
C1206 H1220 0.960 . S
C1207 C1204 1.511 1_655 S
C1207 H1221 0.961 . S
C1207 H1222 0.961 . S
C1207 H1223 0.961 . S
C1208 C1209 1.370 . S
C1208 C1210 1.363 . S
C1208 H1224 0.931 . S
C1209 C1208 1.370 . S
C1209 C1213 1.408 . S
C1210 C1208 1.363 . S
C1210 C1211 1.370 . S
C1210 C1214 1.524 1_565 S
C1211 C1203 1.503 1_565 S
C1211 C1210 1.370 . S
C1211 C1212 1.403 . S
C1212 C1211 1.403 . S
C1212 C1213 1.404 . S
C1212 C1215 1.539 1_455 S
C1213 C1209 1.408 . S
C1213 C1212 1.404 . S
C1213 H1225 0.930 . S
C1214 C1210 1.524 1_545 S
C1214 H1226 0.956 . S
C1214 H1227 0.961 . S
C1214 H1228 0.961 . S
C1215 C1212 1.539 1_655 S
C1215 H1229 0.937 1_655 S
C1215 H1230 0.961 . S
C1215 H1231 0.960 . S
H1216 C1200 0.931 . S
H1217 C1205 0.929 1_655 S
H1218 C1206 0.960 . S
H1219 C1206 0.962 . S
H1220 C1206 0.960 . S
H1221 C1207 0.961 . S
H1222 C1207 0.961 . S
H1223 C1207 0.961 . S
H1224 C1208 0.931 . S
H1225 C1213 0.930 . S
H1226 C1214 0.956 . S
H1227 C1214 0.961 . S
H1228 C1214 0.961 . S
H1229 C1215 0.937 1_455 S
H1230 C1215 0.961 . S
H1231 C1215 0.960 . S
C209 C127 1.419 . S
C217 C10 1.415 . S
C241 C192 1.426 . S
C249 C23 1.413 . S
C273 C36 1.429 . S
C281 C114 1.409 . S
C305 C49 1.436 . S
C313 C205 1.408 . S
C337 C62 1.439 . S
C345 C140 1.406 . S
C369 C179 1.436 . S
C377 C75 1.406 . S
C401 C153 1.434 . S
C409 C88 1.409 . S
C433 C101 1.387 . S
C441 C166 1.426 . S
C465 C57 1.425 1_655 S
C473 C44 1.436 . S
C497 C161 1.400 . S
C505 C109 1.434 . S
C529 C83 1.425 . S
C537 C18 1.412 . S
C561 C122 1.417 . S
C569 C174 1.412 . S
C593 C5 1.414 1_655 S
C601 C70 1.412 . S
C625 C200 1.429 . S
C633 C135 1.437 . S
C657 C96 1.392 . S
C665 C31 1.429 . S
C689 C148 1.389 . S
C697 C187 1.421 . S
C721 C8 0.489 . S
C729 C60 0.509 . S
C753 C73 0.553 . S
C761 C21 0.465 . S
C785 C86 0.500 . S
C793 C34 0.450 . S
C817 C47 0.413 . S
C825 C99 0.499 . S
C849 C138 0.535 . S
C857 C112 0.494 . S
C881 C151 0.430 . S
C889 C125 0.469 . S
C913 C190 0.553 . S
C921 C164 0.465 . S
C945 C203 0.485 . S
C953 C177 0.452 . S
C977 C52 1.682 . S
C985 C0 1.687 . S
C1009 C65 1.680 . S
C1017 C13 1.692 . S
C1041 C78 1.697 . S
C1049 C26 1.698 . S
C1073 C39 1.676 . S
C1081 C91 1.690 . S
C1105 C104 1.678 . S
C1113 C130 1.691 . S
C1137 C143 1.701 . S
C1145 C117 1.698 . S
C1169 C182 1.701 . S
C1177 C156 1.698 . S
C1201 C195 1.680 . S
C1209 C169 1.686 . S
