# Generated by pormake.
# Topology wjh, (4)-cn, num edge types: 1
# Building blocks:
#     Node 0, Type 0, BuildingBlock: QUQFOY_clean_sbu_1, # of connection points: 4
#     Node 1, Type 0, BuildingBlock: QUQFOY_clean_sbu_1, # of connection points: 4
#     Node 2, Type 0, BuildingBlock: QUQFOY_clean_sbu_1, # of connection points: 4
#     Node 3, Type 0, BuildingBlock: QUQFOY_clean_sbu_1, # of connection points: 4
#     Node 4, Type 0, BuildingBlock: QUQFOY_clean_sbu_1, # of connection points: 4
#     Node 5, Type 0, BuildingBlock: QUQFOY_clean_sbu_1, # of connection points: 4
#     Node 6, Type 0, BuildingBlock: QUQFOY_clean_sbu_1, # of connection points: 4
#     Node 7, Type 0, BuildingBlock: QUQFOY_clean_sbu_1, # of connection points: 4
#     Node 8, Type 0, BuildingBlock: QUQFOY_clean_sbu_1, # of connection points: 4
#     Node 9, Type 0, BuildingBlock: QUQFOY_clean_sbu_1, # of connection points: 4
#     Node 10, Type 0, BuildingBlock: QUQFOY_clean_sbu_1, # of connection points: 4
#     Node 11, Type 0, BuildingBlock: QUQFOY_clean_sbu_1, # of connection points: 4
#     Edge 12, Type (0, 0), BuildingBlock: EYOCIG_clean_linker_4, # of connection points: 2
#     Edge 13, Type (0, 0), BuildingBlock: EYOCIG_clean_linker_4, # of connection points: 2
#     Edge 14, Type (0, 0), BuildingBlock: EYOCIG_clean_linker_4, # of connection points: 2
#     Edge 15, Type (0, 0), BuildingBlock: EYOCIG_clean_linker_4, # of connection points: 2
#     Edge 16, Type (0, 0), BuildingBlock: EYOCIG_clean_linker_4, # of connection points: 2
#     Edge 17, Type (0, 0), BuildingBlock: EYOCIG_clean_linker_4, # of connection points: 2
#     Edge 18, Type (0, 0), BuildingBlock: EYOCIG_clean_linker_4, # of connection points: 2
#     Edge 19, Type (0, 0), BuildingBlock: EYOCIG_clean_linker_4, # of connection points: 2
#     Edge 20, Type (0, 0), BuildingBlock: EYOCIG_clean_linker_4, # of connection points: 2
#     Edge 21, Type (0, 0), BuildingBlock: EYOCIG_clean_linker_4, # of connection points: 2
#     Edge 22, Type (0, 0), BuildingBlock: EYOCIG_clean_linker_4, # of connection points: 2
#     Edge 23, Type (0, 0), BuildingBlock: EYOCIG_clean_linker_4, # of connection points: 2
#     Edge 24, Type (0, 0), BuildingBlock: EYOCIG_clean_linker_4, # of connection points: 2
#     Edge 25, Type (0, 0), BuildingBlock: EYOCIG_clean_linker_4, # of connection points: 2
#     Edge 26, Type (0, 0), BuildingBlock: EYOCIG_clean_linker_4, # of connection points: 2
#     Edge 27, Type (0, 0), BuildingBlock: EYOCIG_clean_linker_4, # of connection points: 2
#     Edge 28, Type (0, 0), BuildingBlock: EYOCIG_clean_linker_4, # of connection points: 2
#     Edge 29, Type (0, 0), BuildingBlock: EYOCIG_clean_linker_4, # of connection points: 2
#     Edge 30, Type (0, 0), BuildingBlock: EYOCIG_clean_linker_4, # of connection points: 2
#     Edge 31, Type (0, 0), BuildingBlock: EYOCIG_clean_linker_4, # of connection points: 2
#     Edge 32, Type (0, 0), BuildingBlock: EYOCIG_clean_linker_4, # of connection points: 2
#     Edge 33, Type (0, 0), BuildingBlock: EYOCIG_clean_linker_4, # of connection points: 2
#     Edge 34, Type (0, 0), BuildingBlock: EYOCIG_clean_linker_4, # of connection points: 2
#     Edge 35, Type (0, 0), BuildingBlock: EYOCIG_clean_linker_4, # of connection points: 2
# Relax obj value: 0.025
# Max RMSD: 0.074
# Mean RMSD: 0.074
data_MOF--net-wjh--node1-QUQFOY_clean_sbu_1--edge1-EYOCIG_clean_linker_4
_symmetry_space_group_name_H-M    P1
_symmetry_Int_Tables_number       1
_symmetry_cell_setting            triclinic
loop_
_symmetry_equiv_pos_as_xyz
'x, y, z'
_cell_length_a     51.088703
_cell_length_b     51.071948
_cell_length_c     22.34073
_cell_angle_alpha  90.023296
_cell_angle_beta   89.984863
_cell_angle_gamma 119.99752
loop_
_atom_site_label
_atom_site_type_symbol
_atom_site_fract_x
_atom_site_fract_y
_atom_site_fract_z
_atom_type_partial_charge
O0 O 0.48573 0.07848 0.06529 0.0
Cd1 Cd 0.52339 0.12139 0.0614 0.0
Cd2 Cd 0.48302 0.13196 0.12586 0.0
O3 O 0.45141 0.08929 0.09862 0.0
O4 O 0.54941 0.11827 0.99782 0.0
O5 O 0.52904 0.14749 0.98892 0.0
C6 C 0.54479 0.13659 0.96598 0.0
C7 C 0.47359 0.17174 0.1289 0.0
C8 C 0.45858 0.07045 0.07883 0.0
C9 C 0.53777 0.13837 0.18946 0.0
O10 O 0.51138 0.1346 0.19312 0.0
O11 O 0.54889 0.13697 0.13941 0.0
O12 O 0.46027 0.14935 0.1653 0.0
O13 O 0.49086 0.17079 0.08778 0.0
O14 O 0.40287 0.48735 0.23162 0.0
Cd15 Cd 0.39766 0.52504 0.22764 0.0
Cd16 Cd 0.34672 0.4847 0.29216 0.0
O17 O 0.35775 0.45305 0.26499 0.0
O18 O 0.42682 0.55104 0.16405 0.0
O19 O 0.37724 0.53069 0.15511 0.0
C20 C 0.40389 0.54643 0.13219 0.0
C21 C 0.29752 0.47527 0.29525 0.0
C22 C 0.38375 0.4602 0.24522 0.0
C23 C 0.3951 0.53949 0.3557 0.0
O24 O 0.37247 0.5131 0.35937 0.0
O25 O 0.40761 0.55058 0.30563 0.0
O26 O 0.3066 0.46196 0.33166 0.0
O27 O 0.31572 0.49251 0.25409 0.0
O28 O 0.91163 0.40543 0.39797 0.0
Cd29 Cd 0.86882 0.40043 0.39394 0.0
Cd30 Cd 0.858 0.34942 0.45875 0.0
O31 O 0.90064 0.36031 0.4317 0.0
O32 O 0.87213 0.42962 0.33028 0.0
O33 O 0.8427 0.38005 0.32143 0.0
C34 C 0.85373 0.4067 0.29847 0.0
C35 C 0.81825 0.3002 0.46221 0.0
C36 C 0.91955 0.38626 0.41176 0.0
C37 C 0.85183 0.39805 0.52198 0.0
O38 O 0.85542 0.37532 0.52576 0.0
O39 O 0.85336 0.41057 0.47187 0.0
O40 O 0.84064 0.30938 0.49862 0.0
O41 O 0.81917 0.3183 0.42087 0.0
O42 O 0.50272 0.91383 0.56434 0.0
Cd43 Cd 0.46504 0.87093 0.5602 0.0
Cd44 Cd 0.50529 0.86028 0.6248 0.0
O45 O 0.53697 0.90296 0.59781 0.0
O46 O 0.43911 0.8741 0.49651 0.0
O47 O 0.45945 0.84485 0.48769 0.0
C48 C 0.44373 0.85577 0.4647 0.0
C49 C 0.51469 0.82048 0.62791 0.0
C50 C 0.52985 0.92184 0.57804 0.0
C51 C 0.45048 0.8539 0.68817 0.0
O52 O 0.47686 0.85763 0.69193 0.0
O53 O 0.43944 0.85534 0.63807 0.0
O54 O 0.52797 0.84286 0.66437 0.0
O55 O 0.4975 0.82146 0.58668 0.0
O56 O 0.58478 0.50464 0.73155 0.0
Cd57 Cd 0.59 0.46695 0.7275 0.0
Cd58 Cd 0.64093 0.50731 0.79219 0.0
O59 O 0.62987 0.53894 0.76509 0.0
O60 O 0.56085 0.44097 0.66388 0.0
O61 O 0.61043 0.46131 0.65494 0.0
C62 C 0.58378 0.44558 0.63201 0.0
C63 C 0.69016 0.51685 0.79544 0.0
C64 C 0.60388 0.53178 0.74524 0.0
C65 C 0.59251 0.45246 0.85552 0.0
O66 O 0.61514 0.47885 0.85928 0.0
O67 O 0.58002 0.4414 0.80543 0.0
O68 O 0.681 0.53009 0.83186 0.0
O69 O 0.67203 0.49961 0.75419 0.0
O70 O 0.07628 0.58714 0.89849 0.0
Cd71 Cd 0.11909 0.59215 0.89451 0.0
Cd72 Cd 0.12991 0.64319 0.95908 0.0
O73 O 0.08729 0.63232 0.93197 0.0
O74 O 0.11581 0.56294 0.83088 0.0
O75 O 0.14522 0.61251 0.82201 0.0
C76 C 0.1342 0.58585 0.79906 0.0
C77 C 0.16979 0.69234 0.96214 0.0
C78 C 0.06837 0.60635 0.91214 0.0
C79 C 0.13606 0.59464 0.02256 0.0
O80 O 0.13245 0.61737 0.02626 0.0
O81 O 0.13456 0.58209 0.97248 0.0
O82 O 0.14743 0.68333 0.9986 0.0
O83 O 0.16876 0.6741 0.92097 0.0
O84 O 0.91175 0.50513 0.91492 0.0
Cd85 Cd 0.86888 0.46741 0.91888 0.0
Cd86 Cd 0.85824 0.50775 0.85439 0.0
O87 O 0.90089 0.53942 0.88159 0.0
O88 O 0.87208 0.44142 0.98242 0.0
O89 O 0.84279 0.46171 0.99142 0.0
C90 C 0.85374 0.446 1.01431 0.0
C91 C 0.81844 0.51712 0.8513 0.0
C92 C 0.91975 0.53228 0.90136 0.0
C93 C 0.85193 0.45299 0.7908 0.0
O94 O 0.85566 0.47937 0.78715 0.0
O95 O 0.85334 0.44189 0.84086 0.0
O96 O 0.84082 0.53045 0.81491 0.0
O97 O 0.8194 0.49988 0.89245 0.0
O98 O 0.40345 0.91373 0.0812 0.0
Cd99 Cd 0.39826 0.87084 0.08509 0.0
Cd100 Cd 0.3473 0.86022 0.02065 0.0
O101 O 0.35831 0.90288 0.04787 0.0
O102 O 0.42743 0.87401 0.14864 0.0
O103 O 0.37785 0.84475 0.1576 0.0
C104 C 0.40451 0.85568 0.1805 0.0
C105 C 0.2981 0.82044 1.01761 0.0
C106 C 0.38431 0.92175 0.06766 0.0
C107 C 0.39569 0.85385 0.95703 0.0
O108 O 0.37304 0.85759 0.95339 0.0
O109 O 0.40821 0.85528 1.00707 0.0
O110 O 0.30717 0.84282 0.9812 0.0
O111 O 0.31631 0.82139 0.05873 0.0
O112 O 0.48541 0.40522 0.24834 0.0
Cd113 Cd 0.52316 0.40012 0.25233 0.0
Cd114 Cd 0.48292 0.34913 0.1877 0.0
O115 O 0.45122 0.36008 0.21479 0.0
O116 O 0.54909 0.42929 0.31598 0.0
O117 O 0.52886 0.3797 0.32481 0.0
C118 C 0.54454 0.40636 0.34778 0.0
C119 C 0.47353 0.29993 0.18455 0.0
C120 C 0.4583 0.38606 0.23465 0.0
C121 C 0.53768 0.39762 0.12429 0.0
O122 O 0.51133 0.37493 0.12056 0.0
O123 O 0.54872 0.41015 0.17438 0.0
O124 O 0.46025 0.30901 0.14811 0.0
O125 O 0.49074 0.31812 0.22577 0.0
O126 O 0.07619 0.48748 0.41523 0.0
Cd127 Cd 0.11906 0.5252 0.41931 0.0
Cd128 Cd 0.12972 0.48491 0.35452 0.0
O129 O 0.08705 0.45323 0.38157 0.0
O130 O 0.11583 0.55114 0.483 0.0
O131 O 0.14514 0.53087 0.49183 0.0
C132 C 0.13418 0.54656 0.51481 0.0
C133 C 0.16945 0.47541 0.35119 0.0
C134 C 0.06819 0.46035 0.40146 0.0
C135 C 0.13605 0.53975 0.29129 0.0
O136 O 0.13236 0.51339 0.28749 0.0
O137 O 0.13459 0.55079 0.3414 0.0
O138 O 0.14707 0.46219 0.31476 0.0
O139 O 0.16852 0.49263 0.39249 0.0
O140 O 0.58498 0.07854 0.58206 0.0
Cd141 Cd 0.59013 0.12142 0.58623 0.0
Cd142 Cd 0.64105 0.13213 0.52157 0.0
O143 O 0.6301 0.08946 0.54853 0.0
O144 O 0.56102 0.11822 0.64995 0.0
O145 O 0.61059 0.14752 0.65872 0.0
C146 C 0.58396 0.13657 0.68174 0.0
C147 C 0.69023 0.17195 0.51841 0.0
C148 C 0.60412 0.07056 0.56833 0.0
C149 C 0.59258 0.13845 0.45826 0.0
O150 O 0.61525 0.13475 0.45448 0.0
O151 O 0.58008 0.13699 0.50837 0.0
O152 O 0.68115 0.14958 0.48194 0.0
O153 O 0.67205 0.17096 0.55967 0.0
O154 O 0.50224 0.58681 0.74847 0.0
Cd155 Cd 0.4645 0.59193 0.75251 0.0
Cd156 Cd 0.50478 0.64291 0.68767 0.0
O157 O 0.53644 0.63191 0.71474 0.0
O158 O 0.43858 0.56276 0.81615 0.0
O159 O 0.4588 0.61234 0.82505 0.0
C160 C 0.44313 0.58568 0.84799 0.0
C161 C 0.51435 0.69217 0.68417 0.0
C162 C 0.52935 0.60595 0.73469 0.0
C163 C 0.44993 0.59436 0.62449 0.0
O164 O 0.47628 0.61704 0.62068 0.0
O165 O 0.43892 0.58186 0.6746 0.0
O166 O 0.52752 0.68293 0.64777 0.0
O167 O 0.49715 0.6741 0.72552 0.0
C168 C 0.56413 0.14524 0.29399 0.0
C169 C 0.554 0.14235 0.24417 0.0
C170 C 0.57298 0.14526 0.35383 0.0
C171 C 0.58025 0.14239 0.40363 0.0
C172 C 0.41464 0.56587 0.46022 0.0
C173 C 0.40738 0.55573 0.4104 0.0
C174 C 0.42349 0.57472 0.52006 0.0
C175 C 0.43364 0.58201 0.56986 0.0
C176 C 0.84511 0.42662 0.68626 0.0
C177 C 0.84798 0.43675 0.73609 0.0
C178 C 0.8451 0.41775 0.62642 0.0
C179 C 0.84794 0.41043 0.57661 0.0
C180 C 0.42405 0.84703 0.79262 0.0
C181 C 0.4342 0.84992 0.74281 0.0
C182 C 0.41521 0.84703 0.85247 0.0
C183 C 0.40796 0.8499 0.90231 0.0
C184 C 0.56408 0.4172 1.01982 0.0
C185 C 0.55393 0.40993 0.06963 0.0
C186 C 0.57293 0.42606 0.95998 0.0
C187 C 0.5802 0.4362 0.91018 0.0
C188 C 0.14284 0.56618 0.18686 0.0
C189 C 0.13998 0.55603 0.23666 0.0
C190 C 0.14283 0.57504 0.12704 0.0
C191 C 0.13997 0.58232 0.07724 0.0
C192 C 0.46942 0.24716 0.16424 0.0
C193 C 0.47173 0.27136 0.17467 0.0
C194 C 0.46943 0.22037 0.14916 0.0
C195 C 0.47176 0.19849 0.13876 0.0
C196 C 0.24478 0.47116 0.31559 0.0
C197 C 0.26897 0.47347 0.30515 0.0
C198 C 0.21801 0.47119 0.33073 0.0
C199 C 0.19616 0.47355 0.34122 0.0
C200 C 0.74294 0.22062 0.49801 0.0
C201 C 0.71876 0.19873 0.5085 0.0
C202 C 0.76969 0.24742 0.4828 0.0
C203 C 0.79153 0.27162 0.47224 0.0
C204 C 0.51874 0.77181 0.64831 0.0
C205 C 0.51646 0.7937 0.63783 0.0
C206 C 0.51867 0.74499 0.66353 0.0
C207 C 0.51627 0.72077 0.6741 0.0
C208 C 0.74296 0.52113 0.81586 0.0
C209 C 0.71875 0.51874 0.80539 0.0
C210 C 0.76978 0.52118 0.83098 0.0
C211 C 0.79167 0.51889 0.84141 0.0
C212 C 0.2185 0.74506 0.98235 0.0
C213 C 0.19659 0.72088 0.97196 0.0
C214 C 0.24532 0.77183 0.9974 0.0
C215 C 0.26953 0.7937 1.00779 0.0
C216 C 0.57372 0.14607 0.79386 0.0
C217 C 0.57974 0.14259 0.74309 0.0
C218 C 0.56456 0.14607 0.8539 0.0
C219 C 0.55505 0.1426 0.90465 0.0
C220 C 0.42337 0.57537 0.96008 0.0
C221 C 0.43287 0.58142 0.90933 0.0
C222 C 0.41419 0.56619 0.02012 0.0
C223 C 0.40816 0.55669 0.07086 0.0
C224 C 0.84429 0.42621 0.12637 0.0
C225 C 0.84775 0.43572 0.07563 0.0
C226 C 0.84429 0.41703 0.18639 0.0
C227 C 0.84773 0.41098 0.23714 0.0
C228 C 0.424 0.84625 0.3526 0.0
C229 C 0.43349 0.84973 0.40336 0.0
C230 C 0.41482 0.84623 0.29257 0.0
C231 C 0.40877 0.84968 0.24182 0.0
C232 C 0.57349 0.42583 0.5199 0.0
C233 C 0.57952 0.43533 0.57066 0.0
C234 C 0.56431 0.41666 0.45986 0.0
C235 C 0.5548 0.41062 0.40911 0.0
C236 C 0.14363 0.56631 0.62693 0.0
C237 C 0.14018 0.55681 0.57616 0.0
C238 C 0.14364 0.5755 0.68697 0.0
C239 C 0.14019 0.58155 0.73772 0.0
C240 C 0.41978 0.01201 0.07421 0.0
C241 C 0.43637 0.03895 0.07724 0.0
C242 C 0.40388 0.98017 0.07227 0.0
C243 C 0.39356 0.95324 0.06925 0.0
C244 C 0.41938 0.40555 0.23903 0.0
C245 C 0.43603 0.39527 0.23611 0.0
C246 C 0.40341 0.42142 0.24083 0.0
C247 C 0.39304 0.43799 0.24376 0.0
C248 C 0.00977 0.42154 0.40572 0.0
C249 C 0.0367 0.43813 0.40284 0.0
C250 C 0.97793 0.40568 0.40747 0.0
C251 C 0.95102 0.39543 0.41036 0.0
C252 C 0.56866 0.98028 0.57398 0.0
C253 C 0.55206 0.95334 0.57675 0.0
C254 C 0.58456 0.01213 0.57237 0.0
C255 C 0.59487 0.03907 0.5696 0.0
C256 C 0.58421 0.57056 0.74088 0.0
C257 C 0.59458 0.55399 0.7438 0.0
C258 C 0.56824 0.58643 0.73907 0.0
C259 C 0.5516 0.59671 0.73615 0.0
C260 C 0.01 0.58695 0.90769 0.0
C261 C 0.03691 0.5972 0.91065 0.0
C262 C 0.97816 0.57109 0.90584 0.0
C263 C 0.95123 0.55452 0.90287 0.0
loop_
_geom_bond_atom_site_label_1
_geom_bond_atom_site_label_2
_geom_bond_distance
_geom_bond_site_symmetry_2
_ccdc_geom_bond_type
O0 Cd1 2.223 . S
O0 C8 1.315 . S
Cd1 O0 2.223 . S
Cd1 O4 2.297 1_554 S
Cd1 O5 2.439 1_554 S
Cd1 O11 2.240 . S
Cd2 O3 2.240 . S
Cd2 O10 2.223 . S
Cd2 O12 2.297 . S
Cd2 O13 2.439 . S
O3 Cd2 2.240 . S
O3 C8 1.279 . S
O4 Cd1 2.297 1_556 S
O4 C6 1.247 . S
O5 Cd1 2.439 1_556 S
O5 C6 1.208 . S
C6 O4 1.247 . S
C6 O5 1.208 . S
C7 O12 1.247 . S
C7 O13 1.208 . S
C8 O0 1.315 . S
C8 O3 1.279 . S
C9 O10 1.315 . S
C9 O11 1.279 . S
O10 Cd2 2.223 . S
O10 C9 1.315 . S
O11 Cd1 2.240 . S
O11 C9 1.279 . S
O12 Cd2 2.297 . S
O12 C7 1.247 . S
O13 Cd2 2.439 . S
O13 C7 1.208 . S
O14 Cd15 2.223 . S
O14 C22 1.315 . S
Cd15 O14 2.223 . S
Cd15 O18 2.297 . S
Cd15 O19 2.439 . S
Cd15 O25 2.240 . S
Cd16 O17 2.240 . S
Cd16 O24 2.223 . S
Cd16 O26 2.297 . S
Cd16 O27 2.439 . S
O17 Cd16 2.240 . S
O17 C22 1.279 . S
O18 Cd15 2.297 . S
O18 C20 1.247 . S
O19 Cd15 2.439 . S
O19 C20 1.208 . S
C20 O18 1.247 . S
C20 O19 1.208 . S
C21 O26 1.247 . S
C21 O27 1.208 . S
C22 O14 1.315 . S
C22 O17 1.279 . S
C23 O24 1.315 . S
C23 O25 1.279 . S
O24 Cd16 2.223 . S
O24 C23 1.315 . S
O25 Cd15 2.240 . S
O25 C23 1.279 . S
O26 Cd16 2.297 . S
O26 C21 1.247 . S
O27 Cd16 2.439 . S
O27 C21 1.208 . S
O28 Cd29 2.223 . S
O28 C36 1.315 . S
Cd29 O28 2.223 . S
Cd29 O32 2.297 . S
Cd29 O33 2.439 . S
Cd29 O39 2.240 . S
Cd30 O31 2.240 . S
Cd30 O38 2.223 . S
Cd30 O40 2.297 . S
Cd30 O41 2.439 . S
O31 Cd30 2.240 . S
O31 C36 1.279 . S
O32 Cd29 2.297 . S
O32 C34 1.247 . S
O33 Cd29 2.439 . S
O33 C34 1.208 . S
C34 O32 1.247 . S
C34 O33 1.208 . S
C35 O40 1.247 . S
C35 O41 1.208 . S
C36 O28 1.315 . S
C36 O31 1.279 . S
C37 O38 1.315 . S
C37 O39 1.279 . S
O38 Cd30 2.223 . S
O38 C37 1.315 . S
O39 Cd29 2.240 . S
O39 C37 1.279 . S
O40 Cd30 2.297 . S
O40 C35 1.247 . S
O41 Cd30 2.439 . S
O41 C35 1.208 . S
O42 Cd43 2.223 . S
O42 C50 1.315 . S
Cd43 O42 2.223 . S
Cd43 O46 2.297 . S
Cd43 O47 2.439 . S
Cd43 O53 2.240 . S
Cd44 O45 2.240 . S
Cd44 O52 2.223 . S
Cd44 O54 2.297 . S
Cd44 O55 2.439 . S
O45 Cd44 2.240 . S
O45 C50 1.279 . S
O46 Cd43 2.297 . S
O46 C48 1.247 . S
O47 Cd43 2.439 . S
O47 C48 1.208 . S
C48 O46 1.247 . S
C48 O47 1.208 . S
C49 O54 1.247 . S
C49 O55 1.208 . S
C50 O42 1.315 . S
C50 O45 1.279 . S
C51 O52 1.315 . S
C51 O53 1.279 . S
O52 Cd44 2.223 . S
O52 C51 1.315 . S
O53 Cd43 2.240 . S
O53 C51 1.279 . S
O54 Cd44 2.297 . S
O54 C49 1.247 . S
O55 Cd44 2.439 . S
O55 C49 1.208 . S
O56 Cd57 2.223 . S
O56 C64 1.315 . S
Cd57 O56 2.223 . S
Cd57 O60 2.297 . S
Cd57 O61 2.439 . S
Cd57 O67 2.240 . S
Cd58 O59 2.240 . S
Cd58 O66 2.223 . S
Cd58 O68 2.297 . S
Cd58 O69 2.439 . S
O59 Cd58 2.240 . S
O59 C64 1.279 . S
O60 Cd57 2.297 . S
O60 C62 1.247 . S
O61 Cd57 2.439 . S
O61 C62 1.208 . S
C62 O60 1.247 . S
C62 O61 1.208 . S
C63 O68 1.247 . S
C63 O69 1.208 . S
C64 O56 1.315 . S
C64 O59 1.279 . S
C65 O66 1.315 . S
C65 O67 1.279 . S
O66 Cd58 2.223 . S
O66 C65 1.315 . S
O67 Cd57 2.240 . S
O67 C65 1.279 . S
O68 Cd58 2.297 . S
O68 C63 1.247 . S
O69 Cd58 2.439 . S
O69 C63 1.208 . S
O70 Cd71 2.223 . S
O70 C78 1.315 . S
Cd71 O70 2.223 . S
Cd71 O74 2.297 . S
Cd71 O75 2.439 . S
Cd71 O81 2.240 . S
Cd72 O73 2.240 . S
Cd72 O80 2.223 1_556 S
Cd72 O82 2.297 . S
Cd72 O83 2.439 . S
O73 Cd72 2.240 . S
O73 C78 1.279 . S
O74 Cd71 2.297 . S
O74 C76 1.247 . S
O75 Cd71 2.439 . S
O75 C76 1.208 . S
C76 O74 1.247 . S
C76 O75 1.208 . S
C77 O82 1.247 . S
C77 O83 1.208 . S
C78 O70 1.315 . S
C78 O73 1.279 . S
C79 O80 1.315 . S
C79 O81 1.279 1_554 S
O80 Cd72 2.223 1_554 S
O80 C79 1.315 . S
O81 Cd71 2.240 . S
O81 C79 1.279 1_556 S
O82 Cd72 2.297 . S
O82 C77 1.247 . S
O83 Cd72 2.439 . S
O83 C77 1.208 . S
O84 Cd85 2.223 . S
O84 C92 1.315 . S
Cd85 O84 2.223 . S
Cd85 O88 2.297 . S
Cd85 O89 2.439 . S
Cd85 O95 2.240 . S
Cd86 O87 2.240 . S
Cd86 O94 2.223 . S
Cd86 O96 2.297 . S
Cd86 O97 2.439 . S
O87 Cd86 2.240 . S
O87 C92 1.279 . S
O88 Cd85 2.297 . S
O88 C90 1.247 1_556 S
O89 Cd85 2.439 . S
O89 C90 1.208 1_556 S
C90 O88 1.247 1_554 S
C90 O89 1.208 1_554 S
C91 O96 1.247 . S
C91 O97 1.208 . S
C92 O84 1.315 . S
C92 O87 1.279 . S
C93 O94 1.315 . S
C93 O95 1.279 . S
O94 Cd86 2.223 . S
O94 C93 1.315 . S
O95 Cd85 2.240 . S
O95 C93 1.279 . S
O96 Cd86 2.297 . S
O96 C91 1.247 . S
O97 Cd86 2.439 . S
O97 C91 1.208 . S
O98 Cd99 2.223 . S
O98 C106 1.315 . S
Cd99 O98 2.223 . S
Cd99 O102 2.297 . S
Cd99 O103 2.439 . S
Cd99 O109 2.240 1_554 S
Cd100 O101 2.240 1_556 S
Cd100 O108 2.223 . S
Cd100 O110 2.297 . S
Cd100 O111 2.439 1_556 S
O101 Cd100 2.240 1_554 S
O101 C106 1.279 . S
O102 Cd99 2.297 . S
O102 C104 1.247 . S
O103 Cd99 2.439 . S
O103 C104 1.208 . S
C104 O102 1.247 . S
C104 O103 1.208 . S
C105 O110 1.247 . S
C105 O111 1.208 1_556 S
C106 O98 1.315 . S
C106 O101 1.279 . S
C107 O108 1.315 . S
C107 O109 1.279 . S
O108 Cd100 2.223 . S
O108 C107 1.315 . S
O109 Cd99 2.240 1_556 S
O109 C107 1.279 . S
O110 Cd100 2.297 . S
O110 C105 1.247 . S
O111 Cd100 2.439 1_554 S
O111 C105 1.208 1_554 S
O112 Cd113 2.223 . S
O112 C120 1.315 . S
Cd113 O112 2.223 . S
Cd113 O116 2.297 . S
Cd113 O117 2.439 . S
Cd113 O123 2.240 . S
Cd114 O115 2.240 . S
Cd114 O122 2.223 . S
Cd114 O124 2.297 . S
Cd114 O125 2.439 . S
O115 Cd114 2.240 . S
O115 C120 1.279 . S
O116 Cd113 2.297 . S
O116 C118 1.247 . S
O117 Cd113 2.439 . S
O117 C118 1.208 . S
C118 O116 1.247 . S
C118 O117 1.208 . S
C119 O124 1.247 . S
C119 O125 1.208 . S
C120 O112 1.315 . S
C120 O115 1.279 . S
C121 O122 1.315 . S
C121 O123 1.279 . S
O122 Cd114 2.223 . S
O122 C121 1.315 . S
O123 Cd113 2.240 . S
O123 C121 1.279 . S
O124 Cd114 2.297 . S
O124 C119 1.247 . S
O125 Cd114 2.439 . S
O125 C119 1.208 . S
O126 Cd127 2.223 . S
O126 C134 1.315 . S
Cd127 O126 2.223 . S
Cd127 O130 2.297 . S
Cd127 O131 2.439 . S
Cd127 O137 2.240 . S
Cd128 O129 2.240 . S
Cd128 O136 2.223 . S
Cd128 O138 2.297 . S
Cd128 O139 2.439 . S
O129 Cd128 2.240 . S
O129 C134 1.279 . S
O130 Cd127 2.297 . S
O130 C132 1.247 . S
O131 Cd127 2.439 . S
O131 C132 1.208 . S
C132 O130 1.247 . S
C132 O131 1.208 . S
C133 O138 1.247 . S
C133 O139 1.208 . S
C134 O126 1.315 . S
C134 O129 1.279 . S
C135 O136 1.315 . S
C135 O137 1.279 . S
O136 Cd128 2.223 . S
O136 C135 1.315 . S
O137 Cd127 2.240 . S
O137 C135 1.279 . S
O138 Cd128 2.297 . S
O138 C133 1.247 . S
O139 Cd128 2.439 . S
O139 C133 1.208 . S
O140 Cd141 2.223 . S
O140 C148 1.315 . S
Cd141 O140 2.223 . S
Cd141 O144 2.297 . S
Cd141 O145 2.439 . S
Cd141 O151 2.240 . S
Cd142 O143 2.240 . S
Cd142 O150 2.223 . S
Cd142 O152 2.297 . S
Cd142 O153 2.439 . S
O143 Cd142 2.240 . S
O143 C148 1.279 . S
O144 Cd141 2.297 . S
O144 C146 1.247 . S
O145 Cd141 2.439 . S
O145 C146 1.208 . S
C146 O144 1.247 . S
C146 O145 1.208 . S
C147 O152 1.247 . S
C147 O153 1.208 . S
C148 O140 1.315 . S
C148 O143 1.279 . S
C149 O150 1.315 . S
C149 O151 1.279 . S
O150 Cd142 2.223 . S
O150 C149 1.315 . S
O151 Cd141 2.240 . S
O151 C149 1.279 . S
O152 Cd142 2.297 . S
O152 C147 1.247 . S
O153 Cd142 2.439 . S
O153 C147 1.208 . S
O154 Cd155 2.223 . S
O154 C162 1.315 . S
Cd155 O154 2.223 . S
Cd155 O158 2.297 . S
Cd155 O159 2.439 . S
Cd155 O165 2.240 . S
Cd156 O157 2.240 . S
Cd156 O164 2.223 . S
Cd156 O166 2.297 . S
Cd156 O167 2.439 . S
O157 Cd156 2.240 . S
O157 C162 1.279 . S
O158 Cd155 2.297 . S
O158 C160 1.247 . S
O159 Cd155 2.439 . S
O159 C160 1.208 . S
C160 O158 1.247 . S
C160 O159 1.208 . S
C161 O166 1.247 . S
C161 O167 1.208 . S
C162 O154 1.315 . S
C162 O157 1.279 . S
C163 O164 1.315 . S
C163 O165 1.279 . S
O164 Cd156 2.223 . S
O164 C163 1.315 . S
O165 Cd155 2.240 . S
O165 C163 1.279 . S
O166 Cd156 2.297 . S
O166 C161 1.247 . S
O167 Cd156 2.439 . S
O167 C161 1.208 . S
C168 C169 1.170 . S
C168 C170 1.380 . S
C169 C168 1.170 . S
C170 C168 1.380 . S
C170 C171 1.170 . S
C171 C170 1.170 . S
C172 C173 1.170 . S
C172 C174 1.380 . S
C173 C172 1.170 . S
C174 C172 1.380 . S
C174 C175 1.170 . S
C175 C174 1.170 . S
C176 C177 1.170 . S
C176 C178 1.380 . S
C177 C176 1.170 . S
C178 C176 1.380 . S
C178 C179 1.170 . S
C179 C178 1.170 . S
C180 C181 1.170 . S
C180 C182 1.380 . S
C181 C180 1.170 . S
C182 C180 1.380 . S
C182 C183 1.170 . S
C183 C182 1.170 . S
C184 C185 1.170 1_556 S
C184 C186 1.380 . S
C185 C184 1.170 1_554 S
C186 C184 1.380 . S
C186 C187 1.170 . S
C187 C186 1.170 . S
C188 C189 1.170 . S
C188 C190 1.380 . S
C189 C188 1.170 . S
C190 C188 1.380 . S
C190 C191 1.170 . S
C191 C190 1.170 . S
C192 C193 1.170 . S
C192 C194 1.380 . S
C193 C192 1.170 . S
C194 C192 1.380 . S
C194 C195 1.170 . S
C195 C194 1.170 . S
C196 C197 1.170 . S
C196 C198 1.380 . S
C197 C196 1.170 . S
C198 C196 1.380 . S
C198 C199 1.170 . S
C199 C198 1.170 . S
C200 C201 1.170 . S
C200 C202 1.380 . S
C201 C200 1.170 . S
C202 C200 1.380 . S
C202 C203 1.170 . S
C203 C202 1.170 . S
C204 C205 1.170 . S
C204 C206 1.380 . S
C205 C204 1.170 . S
C206 C204 1.380 . S
C206 C207 1.170 . S
C207 C206 1.170 . S
C208 C209 1.170 . S
C208 C210 1.380 . S
C209 C208 1.170 . S
C210 C208 1.380 . S
C210 C211 1.170 . S
C211 C210 1.170 . S
C212 C213 1.170 . S
C212 C214 1.380 . S
C213 C212 1.170 . S
C214 C212 1.380 . S
C214 C215 1.170 . S
C215 C214 1.170 . S
C216 C217 1.170 . S
C216 C218 1.380 . S
C217 C216 1.170 . S
C218 C216 1.380 . S
C218 C219 1.170 . S
C219 C218 1.170 . S
C220 C221 1.170 . S
C220 C222 1.380 . S
C221 C220 1.170 . S
C222 C220 1.380 . S
C222 C223 1.170 1_556 S
C223 C222 1.170 1_554 S
C224 C225 1.170 . S
C224 C226 1.380 . S
C225 C224 1.170 . S
C226 C224 1.380 . S
C226 C227 1.170 . S
C227 C226 1.170 . S
C228 C229 1.170 . S
C228 C230 1.380 . S
C229 C228 1.170 . S
C230 C228 1.380 . S
C230 C231 1.170 . S
C231 C230 1.170 . S
C232 C233 1.170 . S
C232 C234 1.380 . S
C233 C232 1.170 . S
C234 C232 1.380 . S
C234 C235 1.170 . S
C235 C234 1.170 . S
C236 C237 1.170 . S
C236 C238 1.380 . S
C237 C236 1.170 . S
C238 C236 1.380 . S
C238 C239 1.170 . S
C239 C238 1.170 . S
C240 C241 1.170 . S
C240 C242 1.380 1_545 S
C241 C240 1.170 . S
C242 C240 1.380 1_565 S
C242 C243 1.170 . S
C243 C242 1.170 . S
C244 C245 1.170 . S
C244 C246 1.380 . S
C245 C244 1.170 . S
C246 C244 1.380 . S
C246 C247 1.170 . S
C247 C246 1.170 . S
C248 C249 1.170 . S
C248 C250 1.380 1_455 S
C249 C248 1.170 . S
C250 C248 1.380 1_655 S
C250 C251 1.170 . S
C251 C250 1.170 . S
C252 C253 1.170 . S
C252 C254 1.380 1_565 S
C253 C252 1.170 . S
C254 C252 1.380 1_545 S
C254 C255 1.170 . S
C255 C254 1.170 . S
C256 C257 1.170 . S
C256 C258 1.380 . S
C257 C256 1.170 . S
C258 C256 1.380 . S
C258 C259 1.170 . S
C259 C258 1.170 . S
C260 C261 1.170 . S
C260 C262 1.380 1_455 S
C261 C260 1.170 . S
C262 C260 1.380 1_655 S
C262 C263 1.170 . S
C263 C262 1.170 . S
C169 C9 1.658 . S
C171 C149 1.672 . S
C173 C23 1.652 . S
C175 C163 1.665 . S
C177 C93 1.660 . S
C179 C37 1.672 . S
C181 C51 1.664 . S
C183 C107 1.652 . S
C185 C121 1.670 . S
C187 C65 1.667 . S
C189 C135 1.672 . S
C191 C79 1.657 . S
C193 C119 1.432 . S
C195 C7 1.427 . S
C197 C21 1.407 . S
C199 C133 1.418 . S
C201 C147 1.433 . S
C203 C35 1.427 . S
C205 C49 1.421 . S
C207 C161 1.409 . S
C209 C63 1.407 . S
C211 C91 1.416 . S
C213 C77 1.432 . S
C215 C105 1.423 . S
C217 C146 1.371 . S
C219 C6 1.340 . S
C221 C160 1.352 . S
C223 C20 1.361 . S
C225 C90 1.353 . S
C227 C34 1.355 . S
C229 C48 1.364 . S
C231 C104 1.349 . S
C233 C62 1.360 . S
C235 C118 1.353 . S
C237 C132 1.367 . S
C239 C76 1.341 . S
C241 C8 1.324 . S
C243 C106 1.313 . S
C245 C120 1.351 . S
C247 C22 1.329 . S
C249 C134 1.323 . S
C251 C36 1.313 . S
C253 C50 1.352 . S
C255 C148 1.326 . S
C257 C64 1.342 . S
C259 C162 1.308 . S
C261 C78 1.351 . S
C263 C92 1.330 . S
