# Generated by pormake.
# Topology cag, (4)-cn, num edge types: 1
# Building blocks:
#     Node 0, Type 0, BuildingBlock: QUQFOY_clean_sbu_1, # of connection points: 4
#     Node 1, Type 0, BuildingBlock: QUQFOY_clean_sbu_1, # of connection points: 4
#     Node 2, Type 0, BuildingBlock: QUQFOY_clean_sbu_1, # of connection points: 4
#     Node 3, Type 0, BuildingBlock: QUQFOY_clean_sbu_1, # of connection points: 4
#     Node 4, Type 0, BuildingBlock: QUQFOY_clean_sbu_1, # of connection points: 4
#     Node 5, Type 0, BuildingBlock: QUQFOY_clean_sbu_1, # of connection points: 4
#     Node 6, Type 0, BuildingBlock: QUQFOY_clean_sbu_1, # of connection points: 4
#     Node 7, Type 0, BuildingBlock: QUQFOY_clean_sbu_1, # of connection points: 4
#     Node 8, Type 0, BuildingBlock: QUQFOY_clean_sbu_1, # of connection points: 4
#     Node 9, Type 0, BuildingBlock: QUQFOY_clean_sbu_1, # of connection points: 4
#     Node 10, Type 0, BuildingBlock: QUQFOY_clean_sbu_1, # of connection points: 4
#     Node 11, Type 0, BuildingBlock: QUQFOY_clean_sbu_1, # of connection points: 4
#     Node 12, Type 0, BuildingBlock: QUQFOY_clean_sbu_1, # of connection points: 4
#     Node 13, Type 0, BuildingBlock: QUQFOY_clean_sbu_1, # of connection points: 4
#     Node 14, Type 0, BuildingBlock: QUQFOY_clean_sbu_1, # of connection points: 4
#     Node 15, Type 0, BuildingBlock: QUQFOY_clean_sbu_1, # of connection points: 4
#     Edge 16, Type (0, 0), BuildingBlock: KIFKEQ_clean_linker_1, # of connection points: 2
#     Edge 17, Type (0, 0), BuildingBlock: KIFKEQ_clean_linker_1, # of connection points: 2
#     Edge 18, Type (0, 0), BuildingBlock: KIFKEQ_clean_linker_1, # of connection points: 2
#     Edge 19, Type (0, 0), BuildingBlock: KIFKEQ_clean_linker_1, # of connection points: 2
#     Edge 20, Type (0, 0), BuildingBlock: KIFKEQ_clean_linker_1, # of connection points: 2
#     Edge 21, Type (0, 0), BuildingBlock: KIFKEQ_clean_linker_1, # of connection points: 2
#     Edge 22, Type (0, 0), BuildingBlock: KIFKEQ_clean_linker_1, # of connection points: 2
#     Edge 23, Type (0, 0), BuildingBlock: KIFKEQ_clean_linker_1, # of connection points: 2
#     Edge 24, Type (0, 0), BuildingBlock: KIFKEQ_clean_linker_1, # of connection points: 2
#     Edge 25, Type (0, 0), BuildingBlock: KIFKEQ_clean_linker_1, # of connection points: 2
#     Edge 26, Type (0, 0), BuildingBlock: KIFKEQ_clean_linker_1, # of connection points: 2
#     Edge 27, Type (0, 0), BuildingBlock: KIFKEQ_clean_linker_1, # of connection points: 2
#     Edge 28, Type (0, 0), BuildingBlock: KIFKEQ_clean_linker_1, # of connection points: 2
#     Edge 29, Type (0, 0), BuildingBlock: KIFKEQ_clean_linker_1, # of connection points: 2
#     Edge 30, Type (0, 0), BuildingBlock: KIFKEQ_clean_linker_1, # of connection points: 2
#     Edge 31, Type (0, 0), BuildingBlock: KIFKEQ_clean_linker_1, # of connection points: 2
#     Edge 32, Type (0, 0), BuildingBlock: KIFKEQ_clean_linker_1, # of connection points: 2
#     Edge 33, Type (0, 0), BuildingBlock: KIFKEQ_clean_linker_1, # of connection points: 2
#     Edge 34, Type (0, 0), BuildingBlock: KIFKEQ_clean_linker_1, # of connection points: 2
#     Edge 35, Type (0, 0), BuildingBlock: KIFKEQ_clean_linker_1, # of connection points: 2
#     Edge 36, Type (0, 0), BuildingBlock: KIFKEQ_clean_linker_1, # of connection points: 2
#     Edge 37, Type (0, 0), BuildingBlock: KIFKEQ_clean_linker_1, # of connection points: 2
#     Edge 38, Type (0, 0), BuildingBlock: KIFKEQ_clean_linker_1, # of connection points: 2
#     Edge 39, Type (0, 0), BuildingBlock: KIFKEQ_clean_linker_1, # of connection points: 2
#     Edge 40, Type (0, 0), BuildingBlock: KIFKEQ_clean_linker_1, # of connection points: 2
#     Edge 41, Type (0, 0), BuildingBlock: KIFKEQ_clean_linker_1, # of connection points: 2
#     Edge 42, Type (0, 0), BuildingBlock: KIFKEQ_clean_linker_1, # of connection points: 2
#     Edge 43, Type (0, 0), BuildingBlock: KIFKEQ_clean_linker_1, # of connection points: 2
#     Edge 44, Type (0, 0), BuildingBlock: KIFKEQ_clean_linker_1, # of connection points: 2
#     Edge 45, Type (0, 0), BuildingBlock: KIFKEQ_clean_linker_1, # of connection points: 2
#     Edge 46, Type (0, 0), BuildingBlock: KIFKEQ_clean_linker_1, # of connection points: 2
#     Edge 47, Type (0, 0), BuildingBlock: KIFKEQ_clean_linker_1, # of connection points: 2
# Relax obj value: 0.136
# Max RMSD: 0.200
# Mean RMSD: 0.178
data_MOF--net-cag--node1-QUQFOY_clean_sbu_1--edge1-KIFKEQ_clean_linker_1
_symmetry_space_group_name_H-M    P1
_symmetry_Int_Tables_number       1
_symmetry_cell_setting            triclinic
loop_
_symmetry_equiv_pos_as_xyz
'x, y, z'
_cell_length_a     42.652777
_cell_length_b     56.861392
_cell_length_c     42.689357
_cell_angle_alpha  89.964094
_cell_angle_beta   90.071275
_cell_angle_gamma 89.977993
loop_
_atom_site_label
_atom_site_type_symbol
_atom_site_fract_x
_atom_site_fract_y
_atom_site_fract_z
_atom_type_partial_charge
O0 O 0.28473 0.14896 0.1246 0.0
Cd1 Cd 0.30372 0.15491 0.08104 0.0
Cd2 Cd 0.30632 0.10485 0.08103 0.0
O3 O 0.29038 0.11042 0.12571 0.0
O4 O 0.29788 0.18936 0.07676 0.0
O5 O 0.27702 0.16384 0.04372 0.0
C6 C 0.28106 0.18541 0.05228 0.0
C7 C 0.28604 0.07123 0.05696 0.0
C8 C 0.28242 0.12948 0.13892 0.0
C9 C 0.3666 0.13167 0.07169 0.0
O10 O 0.35266 0.11195 0.07181 0.0
O11 O 0.35138 0.15064 0.07573 0.0
O12 O 0.30571 0.06999 0.07975 0.0
O13 O 0.27771 0.09186 0.04741 0.0
O14 O 0.20625 0.83509 0.62473 0.0
Cd15 Cd 0.18703 0.83255 0.58054 0.0
Cd16 Cd 0.19256 0.88237 0.5843 0.0
O17 O 0.21544 0.87325 0.6247 0.0
O18 O 0.1894 0.79823 0.57274 0.0
O19 O 0.21361 0.82444 0.54303 0.0
C20 C 0.20736 0.80271 0.54927 0.0
C21 C 0.21171 0.91592 0.55908 0.0
C22 C 0.21727 0.85331 0.63791 0.0
C23 C 0.12782 0.86079 0.57776 0.0
O24 O 0.14445 0.87894 0.58273 0.0
O25 O 0.14041 0.84069 0.57477 0.0
O26 O 0.19722 0.9171 0.58542 0.0
O27 O 0.2158 0.89539 0.54685 0.0
O28 O 0.29568 0.8411 0.87814 0.0
Cd29 Cd 0.31074 0.8407 0.9241 0.0
Cd30 Cd 0.30304 0.88958 0.9169 0.0
O31 O 0.28289 0.87864 0.87592 0.0
O32 O 0.31159 0.80665 0.93401 0.0
O33 O 0.28043 0.83172 0.95837 0.0
C34 C 0.29017 0.8104 0.95463 0.0
C35 C 0.28032 0.92226 0.94094 0.0
C36 C 0.2839 0.85841 0.86345 0.0
C37 C 0.36809 0.87093 0.92899 0.0
O38 O 0.35119 0.8882 0.92059 0.0
O39 O 0.356 0.85083 0.93364 0.0
O40 O 0.29546 0.92398 0.915 0.0
O41 O 0.27744 0.90163 0.95327 0.0
O42 O 0.21123 0.14634 0.37941 0.0
Cd43 Cd 0.19164 0.15218 0.42269 0.0
Cd44 Cd 0.18857 0.10148 0.42122 0.0
O45 O 0.20594 0.10778 0.37722 0.0
O46 O 0.19679 0.18675 0.42615 0.0
O47 O 0.2179 0.16194 0.45999 0.0
C48 C 0.2136 0.18333 0.45077 0.0
C49 C 0.20718 0.06709 0.44483 0.0
C50 C 0.21406 0.12707 0.36469 0.0
C51 C 0.12846 0.12885 0.43029 0.0
O52 O 0.14217 0.10903 0.42949 0.0
O53 O 0.14392 0.14782 0.42741 0.0
O54 O 0.18825 0.06658 0.42138 0.0
O55 O 0.2158 0.0874 0.45523 0.0
O56 O 0.68208 0.83376 0.92028 0.0
Cd57 Cd 0.66357 0.86302 0.898 0.0
Cd58 Cd 0.66741 0.8817 0.95576 0.0
O59 O 0.69101 0.85113 0.96559 0.0
O60 O 0.66841 0.85737 0.85234 0.0
O61 O 0.69325 0.88584 0.87757 0.0
C62 C 0.6877 0.8748 0.8517 0.0
C63 C 0.68812 0.91791 0.97038 0.0
C64 C 0.69291 0.83315 0.94804 0.0
C65 C 0.60322 0.87626 0.92905 0.0
O66 O 0.6193 0.88023 0.95351 0.0
O67 O 0.61662 0.87049 0.90364 0.0
O68 O 0.67628 0.90373 0.99075 0.0
O69 O 0.68926 0.91109 0.94152 0.0
O70 O 0.80938 0.16897 0.42165 0.0
Cd71 Cd 0.83115 0.14229 0.39741 0.0
Cd72 Cd 0.82868 0.12105 0.45508 0.0
O73 O 0.804 0.15086 0.467 0.0
O74 O 0.82677 0.15259 0.35324 0.0
O75 O 0.8052 0.11996 0.37129 0.0
C76 C 0.80958 0.13436 0.34828 0.0
C77 C 0.81006 0.08429 0.47042 0.0
C78 C 0.79968 0.1688 0.44976 0.0
C79 C 0.89247 0.13058 0.42783 0.0
O80 O 0.8767 0.12347 0.45122 0.0
O81 O 0.87869 0.13811 0.40342 0.0
O82 O 0.82237 0.09867 0.49025 0.0
O83 O 0.80734 0.09115 0.44167 0.0
O84 O 0.68547 0.17191 0.07443 0.0
Cd85 Cd 0.66444 0.14517 0.09924 0.0
Cd86 Cd 0.66602 0.12358 0.04236 0.0
O87 O 0.68962 0.15355 0.02918 0.0
O88 O 0.67014 0.15508 0.1434 0.0
O89 O 0.69096 0.12251 0.12427 0.0
C90 C 0.68728 0.1367 0.14762 0.0
C91 C 0.68584 0.08699 0.02797 0.0
C92 C 0.69427 0.17162 0.04603 0.0
C93 C 0.60262 0.13285 0.07041 0.0
O94 O 0.61802 0.12541 0.04698 0.0
O95 O 0.6168 0.1409 0.09428 0.0
O96 O 0.67261 0.10071 0.00786 0.0
O97 O 0.68864 0.09438 0.05646 0.0
O98 O 0.81 0.83151 0.58376 0.0
Cd99 Cd 0.83052 0.85983 0.60632 0.0
Cd100 Cd 0.82943 0.87865 0.54826 0.0
O101 O 0.80391 0.84905 0.53807 0.0
O102 O 0.82475 0.85416 0.65187 0.0
O103 O 0.80252 0.88388 0.62668 0.0
C104 C 0.80692 0.87246 0.65249 0.0
C105 C 0.81112 0.91545 0.53282 0.0
C106 C 0.79995 0.8313 0.5557 0.0
C107 C 0.89249 0.8703 0.57644 0.0
O108 O 0.87732 0.87519 0.55168 0.0
O109 O 0.8781 0.86504 0.60151 0.0
O110 O 0.82279 0.90085 0.5129 0.0
O111 O 0.80901 0.90884 0.56172 0.0
O112 O 0.78898 0.65489 0.12208 0.0
Cd113 Cd 0.80415 0.65628 0.07618 0.0
Cd114 Cd 0.79739 0.60667 0.08239 0.0
O115 O 0.77804 0.617 0.12403 0.0
O116 O 0.80567 0.69056 0.0678 0.0
O117 O 0.77448 0.66646 0.04181 0.0
C118 C 0.78471 0.68754 0.04648 0.0
C119 C 0.77489 0.57396 0.05812 0.0
C120 C 0.77829 0.63718 0.13671 0.0
C121 C 0.86184 0.62622 0.06975 0.0
O122 O 0.84538 0.60859 0.07759 0.0
O123 O 0.84939 0.64633 0.06631 0.0
O124 O 0.79066 0.57215 0.08371 0.0
O125 O 0.77115 0.5947 0.04635 0.0
O126 O 0.69942 0.34625 0.62061 0.0
Cd127 Cd 0.68224 0.3441 0.57556 0.0
Cd128 Cd 0.68929 0.39382 0.57939 0.0
O129 O 0.71215 0.38382 0.61948 0.0
O130 O 0.68094 0.30968 0.56825 0.0
O131 O 0.71102 0.3337 0.54082 0.0
C132 C 0.70148 0.31257 0.54653 0.0
C133 C 0.71082 0.42578 0.55286 0.0
C134 C 0.71207 0.36406 0.6333 0.0
C135 C 0.62437 0.3742 0.57059 0.0
O136 O 0.64099 0.39193 0.57784 0.0
O137 O 0.63683 0.35414 0.56671 0.0
O138 O 0.69766 0.42818 0.57975 0.0
O139 O 0.71209 0.40499 0.54076 0.0
O140 O 0.79657 0.34784 0.871 0.0
Cd141 Cd 0.81203 0.34556 0.91666 0.0
Cd142 Cd 0.80607 0.3954 0.91225 0.0
O143 O 0.78725 0.38599 0.86992 0.0
O144 O 0.81239 0.31115 0.92405 0.0
O145 O 0.78209 0.33554 0.95063 0.0
C146 C 0.79143 0.31431 0.9453 0.0
C147 C 0.78267 0.42761 0.93682 0.0
C148 C 0.7866 0.36598 0.85679 0.0
C149 C 0.87011 0.37495 0.92509 0.0
O150 O 0.85394 0.39299 0.91822 0.0
O151 O 0.85742 0.35482 0.92699 0.0
O152 O 0.79944 0.42994 0.91199 0.0
O153 O 0.77875 0.40666 0.94784 0.0
O154 O 0.70349 0.65844 0.37659 0.0
Cd155 Cd 0.68404 0.65994 0.42057 0.0
Cd156 Cd 0.68981 0.61039 0.41683 0.0
O157 O 0.7118 0.62016 0.37601 0.0
O158 O 0.68359 0.69408 0.42991 0.0
O159 O 0.71076 0.66849 0.45794 0.0
C160 C 0.7023 0.68998 0.45296 0.0
C161 C 0.71141 0.57819 0.44291 0.0
C162 C 0.71398 0.6402 0.36307 0.0
C163 C 0.62494 0.63093 0.42295 0.0
O164 O 0.64154 0.6126 0.41917 0.0
O165 O 0.63765 0.65106 0.42489 0.0
O166 O 0.69765 0.57595 0.41626 0.0
O167 O 0.71329 0.59895 0.455 0.0
O168 O 0.18065 0.32842 0.91708 0.0
Cd169 Cd 0.1635 0.35802 0.8946 0.0
Cd170 Cd 0.17012 0.37744 0.95117 0.0
O171 O 0.19519 0.34725 0.95985 0.0
O172 O 0.16786 0.35246 0.84893 0.0
O173 O 0.19397 0.38022 0.87435 0.0
C174 C 0.18777 0.36952 0.84838 0.0
C175 C 0.19056 0.41392 0.96498 0.0
C176 C 0.19446 0.32861 0.94347 0.0
C177 C 0.10488 0.37273 0.9268 0.0
O178 O 0.12177 0.3758 0.95096 0.0
O179 O 0.11736 0.36716 0.90088 0.0
O180 O 0.18 0.39954 0.9858 0.0
O181 O 0.19068 0.40712 0.93609 0.0
O182 O 0.30963 0.6657 0.40577 0.0
Cd183 Cd 0.32923 0.63777 0.38226 0.0
Cd184 Cd 0.32474 0.61539 0.43798 0.0
O185 O 0.29989 0.64549 0.44883 0.0
O186 O 0.32289 0.6432 0.33682 0.0
O187 O 0.30098 0.61366 0.3627 0.0
C188 C 0.30505 0.62489 0.33669 0.0
C189 C 0.3051 0.57937 0.45528 0.0
C190 C 0.29787 0.66438 0.43302 0.0
C191 C 0.3895 0.624 0.4121 0.0
O192 O 0.37315 0.61691 0.43509 0.0
O193 O 0.37632 0.6323 0.38784 0.0
O194 O 0.31768 0.59419 0.47432 0.0
O195 O 0.30283 0.58529 0.42614 0.0
O196 O 0.17626 0.66566 0.07342 0.0
Cd197 Cd 0.15767 0.636 0.09452 0.0
Cd198 Cd 0.16069 0.61864 0.03611 0.0
O199 O 0.18402 0.64944 0.02717 0.0
O200 O 0.16293 0.64063 0.14032 0.0
O201 O 0.18745 0.61268 0.1138 0.0
C202 C 0.18219 0.62316 0.14012 0.0
C203 C 0.18254 0.58284 0.02152 0.0
C204 C 0.18661 0.66691 0.04554 0.0
C205 C 0.09689 0.62315 0.0637 0.0
O206 O 0.11255 0.61961 0.03889 0.0
O207 O 0.1107 0.62864 0.08903 0.0
O208 O 0.17011 0.59676 0.00112 0.0
O209 O 0.1834 0.58965 0.05039 0.0
O210 O 0.31399 0.32905 0.58043 0.0
Cd211 Cd 0.33058 0.35906 0.60221 0.0
Cd212 Cd 0.3243 0.37768 0.54451 0.0
O213 O 0.29988 0.34703 0.53683 0.0
O214 O 0.32633 0.3537 0.64792 0.0
O215 O 0.29968 0.38107 0.62225 0.0
C216 C 0.30608 0.37053 0.64832 0.0
C217 C 0.30356 0.41327 0.52713 0.0
C218 C 0.30052 0.32871 0.55386 0.0
C219 C 0.38935 0.37384 0.57027 0.0
O220 O 0.37268 0.37659 0.54588 0.0
O221 O 0.37666 0.36838 0.59614 0.0
O222 O 0.31514 0.39814 0.50788 0.0
O223 O 0.30269 0.40779 0.5565 0.0
H224 H 0.26136 0.18666 0.99106 0.0
H225 H 0.2693 0.22902 0.07459 0.0
H226 H 0.24185 0.2209 0.96218 0.0
H227 H 0.24849 0.26265 0.0466 0.0
H228 H 0.24217 0.32544 0.98537 0.0
H229 H 0.26368 0.29019 0.00926 0.0
H230 H 0.1995 0.24752 0.95516 0.0
H231 H 0.17918 0.28299 0.92995 0.0
C232 C 0.25854 0.20321 0.00329 0.0
C233 C 0.26713 0.20528 0.03493 0.0
C234 C 0.24728 0.22281 0.98682 0.0
C235 C 0.24402 0.24472 0.00188 0.0
C236 C 0.25162 0.24636 0.03387 0.0
C237 C 0.26331 0.22698 0.05006 0.0
C238 C 0.23285 0.30851 0.9784 0.0
C239 C 0.20885 0.30695 0.95601 0.0
C240 C 0.24498 0.28826 0.99228 0.0
C241 C 0.23291 0.26594 0.98468 0.0
C242 C 0.20952 0.26435 0.96148 0.0
C243 C 0.19777 0.28467 0.94711 0.0
H244 H 0.25054 0.66474 0.47546 0.0
H245 H 0.31092 0.71066 0.42225 0.0
H246 H 0.22713 0.6986 0.50105 0.0
H247 H 0.28911 0.74468 0.44935 0.0
H248 H 0.22731 0.80338 0.48826 0.0
H249 H 0.24706 0.77018 0.4577 0.0
H250 H 0.23893 0.72551 0.53943 0.0
H251 H 0.2175 0.75814 0.56887 0.0
C252 C 0.25891 0.68215 0.46942 0.0
C253 C 0.28261 0.68511 0.44705 0.0
C254 C 0.24571 0.70161 0.48427 0.0
C255 C 0.25655 0.7245 0.4778 0.0
C256 C 0.27986 0.72743 0.45479 0.0
C257 C 0.29252 0.70793 0.43934 0.0
C258 C 0.22973 0.78639 0.49948 0.0
C259 C 0.22065 0.78324 0.53079 0.0
C260 C 0.24119 0.76736 0.48208 0.0
C261 C 0.24435 0.74496 0.49589 0.0
C262 C 0.23595 0.74219 0.52754 0.0
C263 C 0.22391 0.76099 0.54461 0.0
H264 H 0.23879 0.81033 0.99341 0.0
H265 H 0.31094 0.76528 0.95537 0.0
H266 H 0.21387 0.77602 0.01763 0.0
H267 H 0.28649 0.73138 0.97979 0.0
H268 H 0.19501 0.70857 0.07706 0.0
H269 H 0.22098 0.74415 0.05786 0.0
H270 H 0.23783 0.71002 0.9691 0.0
H271 H 0.21249 0.67461 0.98816 0.0
C272 C 0.24954 0.7932 0.99058 0.0
C273 C 0.27659 0.79046 0.97217 0.0
C274 C 0.23535 0.7736 0.00451 0.0
C275 C 0.248 0.75099 0.0002 0.0
C276 C 0.27581 0.74851 0.98296 0.0
C277 C 0.28989 0.76798 0.96908 0.0
C278 C 0.20431 0.70868 0.05347 0.0
C279 C 0.20183 0.68869 0.03421 0.0
C280 C 0.21902 0.72909 0.04246 0.0
C281 C 0.23167 0.72978 0.01209 0.0
C282 C 0.22884 0.70988 0.99282 0.0
C283 C 0.21413 0.6896 0.00372 0.0
H284 H 0.31575 0.28334 0.56909 0.0
H285 H 0.25302 0.32475 0.51188 0.0
H286 H 0.2953 0.24739 0.54531 0.0
H287 H 0.23136 0.28907 0.48943 0.0
H288 H 0.22519 0.22646 0.42678 0.0
H289 H 0.24615 0.26064 0.45332 0.0
H290 H 0.25292 0.22075 0.53939 0.0
H291 H 0.23329 0.18591 0.51194 0.0
C292 C 0.2972 0.2847 0.55182 0.0
C293 C 0.28623 0.30682 0.54201 0.0
C294 C 0.28537 0.26411 0.53827 0.0
C295 C 0.26198 0.26526 0.51502 0.0
C296 C 0.25005 0.28745 0.50648 0.0
C297 C 0.26228 0.30795 0.51952 0.0
C298 C 0.23121 0.22495 0.45136 0.0
C299 C 0.22741 0.20359 0.46736 0.0
C300 C 0.24301 0.24465 0.46672 0.0
C301 C 0.25071 0.24369 0.49874 0.0
C302 C 0.24742 0.22213 0.51469 0.0
C303 C 0.23607 0.20219 0.49905 0.0
H304 H 0.73474 0.6892 0.00583 0.0
H305 H 0.80758 0.73207 0.04698 0.0
H306 H 0.71305 0.72411 0.98002 0.0
H307 H 0.78648 0.76654 0.02086 0.0
H308 H 0.71756 0.82615 0.00619 0.0
H309 H 0.73993 0.79036 0.02759 0.0
H310 H 0.72339 0.7547 0.93978 0.0
H311 H 0.70025 0.79065 0.91831 0.0
C312 C 0.74629 0.70598 0.00907 0.0
C313 C 0.77262 0.70794 0.02872 0.0
C314 C 0.73398 0.72593 0.9942 0.0
C315 C 0.74785 0.74812 -0.00127 0.0
C316 C 0.77485 0.7498 0.01744 0.0
C317 C 0.78702 0.72999 0.03232 0.0
C318 C 0.71872 0.81075 0.99132 0.0
C319 C 0.7072 0.81133 0.96048 0.0
C320 C 0.73172 0.79023 0.00357 0.0
C321 C 0.73366 0.76973 0.9853 0.0
C322 C 0.72203 0.77018 0.95448 0.0
C323 C 0.70897 0.79081 0.94215 0.0
H324 H 0.77729 0.17519 0.5091 0.0
H325 H 0.78677 0.21022 0.41968 0.0
H326 H 0.753 0.2103 0.5308 0.0
H327 H 0.76187 0.24522 0.44134 0.0
H328 H 0.74954 0.31139 0.50393 0.0
H329 H 0.77259 0.2766 0.4794 0.0
H330 H 0.7047 0.23264 0.52639 0.0
H331 H 0.68218 0.26714 0.55126 0.0
C332 C 0.774 0.19031 0.494 0.0
C333 C 0.78396 0.18987 0.46265 0.0
C334 C 0.75992 0.2104 0.5064 0.0
C335 C 0.75544 0.23052 0.48775 0.0
C336 C 0.7653 0.23009 0.45638 0.0
C337 C 0.77939 0.20997 0.44394 0.0
C338 C 0.73946 0.2943 0.50882 0.0
C339 C 0.71421 0.29199 0.52969 0.0
C340 C 0.75256 0.27439 0.4947 0.0
C341 C 0.74062 0.25185 0.50119 0.0
C342 C 0.71482 0.2497 0.52138 0.0
C343 C 0.7018 0.26952 0.53549 0.0
H344 H 0.80985 0.26868 0.94082 0.0
H345 H 0.74335 0.31378 0.98794 0.0
H346 H 0.78719 0.23456 0.96644 0.0
H347 H 0.72015 0.27934 0.01326 0.0
H348 H 0.70736 0.21346 0.07495 0.0
H349 H 0.73153 0.2483 0.05199 0.0
H350 H 0.73857 0.21245 0.96308 0.0
H351 H 0.71501 0.17752 0.98603 0.0
C352 C 0.79036 0.27133 0.95667 0.0
C353 C 0.77826 0.29393 0.96223 0.0
C354 C 0.77726 0.25172 0.97122 0.0
C355 C 0.7517 0.25422 0.99163 0.0
C356 C 0.73999 0.27688 0.99779 0.0
C357 C 0.75317 0.29658 0.98321 0.0
C358 C 0.71417 0.21298 0.05052 0.0
C359 C 0.70935 0.19266 0.03234 0.0
C360 C 0.72782 0.233 0.03735 0.0
C361 C 0.737 0.23311 0.00576 0.0
C362 C 0.73217 0.2128 0.98762 0.0
C363 C 0.71853 0.19281 0.00075 0.0
H364 H 0.78859 0.78923 0.58534 0.0
H365 H 0.7759 0.82541 0.4971 0.0
H366 H 0.76324 0.75433 0.56337 0.0
H367 H 0.75133 0.79065 0.47523 0.0
H368 H 0.68129 0.73504 0.45299 0.0
H369 H 0.70315 0.76856 0.48058 0.0
H370 H 0.77263 0.72347 0.52337 0.0
H371 H 0.75012 0.68954 0.4961 0.0
C372 C 0.78039 0.78977 0.56132 0.0
C373 C 0.78416 0.81016 0.54302 0.0
C374 C 0.76605 0.76974 0.54872 0.0
C375 C 0.75511 0.76979 0.51765 0.0
C376 C 0.75896 0.79018 0.49944 0.0
C377 C 0.77324 0.8101 0.51196 0.0
C378 C 0.70108 0.73218 0.46845 0.0
C379 C 0.71422 0.70969 0.4721 0.0
C380 C 0.7137 0.75144 0.48417 0.0
C381 C 0.73992 0.74874 0.50377 0.0
C382 C 0.75233 0.72608 0.5085 0.0
C383 C 0.73954 0.70669 0.49281 0.0
H384 H 0.29541 0.0264 0.07672 0.0
H385 H 0.25131 0.06679 0.00306 0.0
H386 H 0.28378 0.99034 0.04891 0.0
H387 H 0.23891 0.03031 0.97527 0.0
H388 H 0.2805 0.96694 0.91823 0.0
H389 H 0.27219 0.00299 0.94733 0.0
H390 H 0.24602 0.96252 0.02894 0.0
H391 H 0.25522 0.92617 -0.00017 0.0
C392 C 0.28268 0.02756 0.0548 0.0
C393 C 0.27477 0.04948 0.0418 0.0
C394 C 0.27565 0.00679 0.039 0.0
C395 C 0.26052 0.00741 0.00977 0.0
C396 C 0.25093 0.02928 0.99759 0.0
C397 C 0.25795 0.05016 0.01351 0.0
C398 C 0.27242 0.96568 0.94222 0.0
C399 C 0.26916 0.94371 0.95696 0.0
C400 C 0.26733 0.98642 0.95884 0.0
C401 C 0.25882 0.98566 0.9906 0.0
C402 C 0.25311 0.96366 0.00463 0.0
C403 C 0.25825 0.94285 0.98795 0.0
H404 H 0.20955 0.96048 0.58195 0.0
H405 H 0.23536 0.92074 0.49968 0.0
H406 H 0.21706 0.9969 0.55335 0.0
H407 H 0.24365 0.95748 0.47104 0.0
H408 H 0.24067 0.06126 0.49926 0.0
H409 H 0.25139 0.02422 0.52647 0.0
H410 H 0.20633 0.98602 0.4514 0.0
H411 H 0.19633 0.02267 0.42413 0.0
C412 C 0.21747 0.95953 0.55789 0.0
C413 C 0.22133 0.93772 0.54289 0.0
C414 C 0.22209 0.98047 0.54155 0.0
C415 C 0.2307 0.98012 0.50982 0.0
C416 C 0.23656 0.95831 0.49536 0.0
C417 C 0.23193 0.93728 0.51177 0.0
C418 C 0.23359 0.04489 0.48838 0.0
C419 C 0.21726 0.0449 0.4598 0.0
C420 C 0.23964 0.0237 0.50398 0.0
C421 C 0.22954 0.00217 0.4912 0.0
C422 C 0.2148 0.0022 0.46177 0.0
C423 C 0.20874 0.0233 0.44627 0.0
H424 H 0.68312 0.93793 0.02809 0.0
H425 H 0.71386 0.95241 0.93362 0.0
H426 H 0.69012 0.97899 0.04168 0.0
H427 H 0.72203 0.99359 0.94758 0.0
H428 H 0.67899 0.06636 0.97086 0.0
H429 H 0.68729 0.02545 0.95734 0.0
H430 H 0.72321 0.01206 0.0504 0.0
H431 H 0.71378 0.05312 0.06433 0.0
C432 C 0.6921 0.94979 0.01038 0.0
C433 C 0.69749 0.94197 0.97963 0.0
C434 C 0.69637 0.97338 0.01827 0.0
C435 C 0.70637 0.98972 0.99567 0.0
C436 C 0.71371 0.98157 0.96541 0.0
C437 C 0.70921 0.95794 0.95744 0.0
C438 C 0.68906 0.05481 0.98837 0.0
C439 C 0.69533 0.06293 0.01881 0.0
C440 C 0.69411 0.0313 0.98049 0.0
C441 C 0.70575 0.01534 0.00282 0.0
C442 C 0.7137 0.02379 0.03279 0.0
C443 C 0.70846 0.04734 0.04074 0.0
H444 H 0.7844 0.04909 0.43472 0.0
H445 H 0.81706 0.06477 0.52825 0.0
H446 H 0.77677 0.00804 0.44977 0.0
H447 H 0.81052 0.02388 0.54293 0.0
H448 H 0.81817 0.93499 0.47499 0.0
H449 H 0.81102 0.97584 0.46019 0.0
H450 H 0.77675 0.99147 0.55314 0.0
H451 H 0.78502 0.95052 0.56831 0.0
C452 C 0.78964 0.04384 0.45855 0.0
C453 C 0.80161 0.06014 0.48018 0.0
C454 C 0.78545 0.02029 0.46715 0.0
C455 C 0.7933 0.01255 0.4975 0.0
C456 C 0.80383 0.02917 0.51948 0.0
C457 C 0.80783 0.05267 0.51096 0.0
C458 C 0.80872 0.94705 0.4922 0.0
C459 C 0.80254 0.93956 0.52296 0.0
C460 C 0.80436 0.97051 0.48361 0.0
C461 C 0.79349 0.98706 0.50551 0.0
C462 C 0.78569 0.97928 0.53584 0.0
C463 C 0.79026 0.95579 0.54451 0.0
H464 H 0.78638 0.47299 0.91719 0.0
H465 H 0.75118 0.42992 0.9928 0.0
H466 H 0.77425 0.50814 0.94674 0.0
H467 H 0.73802 0.46543 0.02227 0.0
H468 H 0.77871 0.52885 0.0789 0.0
H469 H 0.77064 0.49324 0.04889 0.0
H470 H 0.73767 0.53457 0.97045 0.0
H471 H 0.7468 0.57054 0.00042 0.0
C472 C 0.77538 0.47103 0.9399 0.0
C473 C 0.7703 0.44865 0.95293 0.0
C474 C 0.76808 0.49127 0.95676 0.0
C475 C 0.75538 0.48967 0.98704 0.0
C476 C 0.74826 0.46727 -0.0008 0.0
C477 C 0.75569 0.44693 0.98229 0.0
C478 C 0.76922 0.53039 0.05544 0.0
C479 C 0.76402 0.55255 0.04179 0.0
C480 C 0.76426 0.50987 0.03828 0.0
C481 C 0.75386 0.51101 0.00708 0.0
C482 C 0.74627 0.53312 0.99426 0.0
C483 C 0.75135 0.55372 0.01145 0.0
H484 H 0.73684 0.46509 0.57772 0.0
H485 H 0.70896 0.43371 0.49008 0.0
H486 H 0.74731 0.50216 0.55114 0.0
H487 H 0.71692 0.47107 0.46363 0.0
H488 H 0.73601 0.53854 0.41757 0.0
H489 H 0.74616 0.50133 0.44396 0.0
H490 H 0.71839 0.53282 0.53201 0.0
H491 H 0.71076 0.57029 0.50571 0.0
C492 C 0.7332 0.46617 0.55264 0.0
C493 C 0.72191 0.4467 0.5359 0.0
C494 C 0.73886 0.48747 0.5374 0.0
C495 C 0.73236 0.48999 0.50523 0.0
C496 C 0.72266 0.46997 0.48828 0.0
C497 C 0.71788 0.44847 0.50343 0.0
C498 C 0.73289 0.53751 0.44272 0.0
C499 C 0.72243 0.55713 0.45966 0.0
C500 C 0.73836 0.51613 0.45786 0.0
C501 C 0.73249 0.51369 0.49014 0.0
C502 C 0.72364 0.53385 0.50726 0.0
C503 C 0.71904 0.55541 0.49221 0.0
H504 H 0.17655 0.56212 0.96436 0.0
H505 H 0.21225 0.54978 0.05769 0.0
H506 H 0.18648 0.5214 0.95087 0.0
H507 H 0.22346 0.509 0.04379 0.0
H508 H 0.18626 0.43406 0.02263 0.0
H509 H 0.19205 0.47527 0.03575 0.0
H510 H 0.2216 0.49005 0.9409 0.0
H511 H 0.21451 0.44867 0.92743 0.0
C512 C 0.18722 0.55082 0.98182 0.0
C513 C 0.19319 0.5591 0.01225 0.0
C514 C 0.1932 0.52743 0.97398 0.0
C515 C 0.20557 0.51176 0.9963 0.0
C516 C 0.21335 0.52045 0.02619 0.0
C517 C 0.20709 0.54385 0.03414 0.0
C518 C 0.19448 0.446 0.00465 0.0
C519 C 0.19947 0.43814 0.97386 0.0
C520 C 0.19806 0.4697 0.01226 0.0
C521 C 0.20701 0.48613 0.98933 0.0
C522 C 0.21405 0.47797 0.95899 0.0
C523 C 0.21018 0.45423 0.9513 0.0
H524 H 0.31189 0.56154 0.51406 0.0
H525 H 0.27756 0.54373 0.42181 0.0
H526 H 0.30384 0.52134 0.53107 0.0
H527 H 0.26832 0.5034 0.43924 0.0
H528 H 0.3084 0.43057 0.46786 0.0
H529 H 0.30129 0.47089 0.45082 0.0
H530 H 0.26959 0.48987 0.54358 0.0
H531 H 0.27793 0.44944 0.561 0.0
C532 C 0.30196 0.54914 0.49755 0.0
C533 C 0.29577 0.55576 0.46644 0.0
C534 C 0.29706 0.52604 0.50743 0.0
C535 C 0.2856 0.509 0.48651 0.0
C536 C 0.27771 0.51597 0.45583 0.0
C537 C 0.28284 0.53911 0.44586 0.0
C538 C 0.29946 0.44324 0.48455 0.0
C539 C 0.29417 0.43687 0.51592 0.0
C540 C 0.29511 0.4664 0.47468 0.0
C541 C 0.28513 0.48377 0.49586 0.0
C542 C 0.27791 0.47705 0.52679 0.0
C543 C 0.2825 0.45385 0.53675 0.0
H544 H 0.56227 0.15261 0.11253 0.0
H545 H 0.56455 0.11268 0.02637 0.0
H546 H 0.50516 0.15276 0.11076 0.0
H547 H 0.50736 0.11301 0.02463 0.0
H548 H 0.40596 0.09537 0.05706 0.0
H549 H 0.46309 0.09591 0.05563 0.0
H550 H 0.46249 0.17003 0.07762 0.0
H551 H 0.40533 0.16956 0.07927 0.0
C552 C 0.55062 0.14386 0.09323 0.0
C553 C 0.56797 0.13262 0.06961 0.0
C554 C 0.51792 0.14411 0.09211 0.0
C555 C 0.50188 0.13299 0.06749 0.0
C556 C 0.51916 0.1216 0.04398 0.0
C557 C 0.55189 0.12149 0.04495 0.0
C558 C 0.41797 0.11183 0.06138 0.0
C559 C 0.40109 0.1324 0.06843 0.0
C560 C 0.45068 0.11214 0.06041 0.0
C561 C 0.46718 0.13298 0.0667 0.0
C562 C 0.45034 0.15366 0.07308 0.0
C563 C 0.41761 0.1534 0.07382 0.0
H564 H 0.93068 0.86607 0.52553 0.0
H565 H 0.93235 0.8741 0.62621 0.0
H566 H 0.988 0.86434 0.52498 0.0
H567 H 0.98967 0.87279 0.62542 0.0
H568 H 0.09179 0.8962 0.60139 0.0
H569 H 0.03462 0.8993 0.60049 0.0
H570 H 0.02894 0.83394 0.54947 0.0
H571 H 0.08612 0.83051 0.55077 0.0
C572 C 0.94329 0.86766 0.54747 0.0
C573 C 0.92708 0.87018 0.57593 0.0
C574 C 0.976 0.86655 0.54713 0.0
C575 C 0.99304 0.86843 0.57515 0.0
C576 C 0.97694 0.87142 0.60352 0.0
C577 C 0.94422 0.87207 0.60395 0.0
C578 C 0.07837 0.88253 0.58987 0.0
C579 C 0.09339 0.86308 0.5762 0.0
C580 C 0.04572 0.88428 0.5895 0.0
C581 C 0.02758 0.86685 0.57493 0.0
C582 C 0.04254 0.84765 0.5607 0.0
C583 C 0.07517 0.84565 0.56159 0.0
H584 H 0.40427 0.90573 0.9039 0.0
H585 H 0.40929 0.84266 0.96029 0.0
H586 H 0.46143 0.90882 0.90522 0.0
H587 H 0.46638 0.84603 0.96187 0.0
H588 H 0.56599 0.87508 0.98099 0.0
H589 H 0.50869 0.87558 0.98287 0.0
H590 H 0.50524 0.88147 0.88212 0.0
H591 H 0.56249 0.88066 0.88004 0.0
C592 C 0.41753 0.89271 0.91689 0.0
C593 C 0.40234 0.87389 0.93189 0.0
C594 C 0.45018 0.89444 0.91749 0.0
C595 C 0.46815 0.87764 0.93358 0.0
C596 C 0.45296 0.85928 0.94947 0.0
C597 C 0.42036 0.8573 0.94842 0.0
C598 C 0.55301 0.87664 0.95926 0.0
C599 C 0.56869 0.87774 0.93034 0.0
C600 C 0.52029 0.87683 0.96037 0.0
C601 C 0.50272 0.87858 0.93265 0.0
C602 C 0.51835 0.88029 0.90382 0.0
C603 C 0.55105 0.87968 0.90265 0.0
H604 H 0.0901 0.16696 0.42246 0.0
H605 H 0.08864 0.09262 0.44386 0.0
H606 H 0.03291 0.16766 0.42321 0.0
H607 H 0.03149 0.09341 0.44444 0.0
H608 H 0.92981 0.11052 0.4726 0.0
H609 H 0.98697 0.11075 0.47523 0.0
H610 H 0.99059 0.15052 0.3891 0.0
H611 H 0.93349 0.15042 0.38641 0.0
C612 C 0.07763 0.15082 0.42756 0.0
C613 C 0.09393 0.12971 0.43298 0.0
C614 C 0.04489 0.15121 0.42778 0.0
C615 C 0.02783 0.13057 0.43371 0.0
C616 C 0.04408 0.10961 0.44001 0.0
C617 C 0.0768 0.10916 0.43953 0.0
C618 C 0.94278 0.11932 0.45422 0.0
C619 C 0.9271 0.13043 0.42928 0.0
C620 C 0.97549 0.11938 0.4557 0.0
C621 C 0.99315 0.13072 0.43243 0.0
C622 C 0.97752 0.14189 0.40756 0.0
C623 C 0.94483 0.14167 0.40592 0.0
H624 H 0.05836 0.62505 0.01262 0.0
H625 H 0.05752 0.61723 0.11335 0.0
H626 H 0.00101 0.62396 0.01202 0.0
H627 H 0.00029 0.61583 0.11255 0.0
H628 H 0.89924 0.59114 0.09242 0.0
H629 H 0.95639 0.58852 0.0894 0.0
H630 H 0.95876 0.65266 0.03532 0.0
H631 H 0.9017 0.65554 0.03861 0.0
C632 C 0.04596 0.62288 0.03456 0.0
C633 C 0.06239 0.62133 0.06306 0.0
C634 C 0.01322 0.62234 0.03419 0.0
C635 C 0.99641 0.61978 0.06223 0.0
C636 C 0.0128 0.61762 0.09061 0.0
C637 C 0.04549 0.61858 0.09106 0.0
C638 C 0.91193 0.60455 0.07964 0.0
C639 C 0.89604 0.62361 0.06588 0.0
C640 C 0.94457 0.60309 0.07805 0.0
C641 C 0.96181 0.62041 0.06218 0.0
C642 C 0.9459 0.63902 0.04751 0.0
C643 C 0.91332 0.64071 0.04956 0.0
H644 H 0.58708 0.40901 0.59426 0.0
H645 H 0.58416 0.34477 0.54022 0.0
H646 H 0.5298 0.41123 0.59237 0.0
H647 H 0.52706 0.34724 0.5381 0.0
H648 H 0.4264 0.37266 0.51811 0.0
H649 H 0.48365 0.37503 0.51597 0.0
H650 H 0.48697 0.38382 0.61634 0.0
H651 H 0.42989 0.38117 0.61868 0.0
C652 C 0.57426 0.39555 0.58168 0.0
C653 C 0.59005 0.37664 0.56755 0.0
C654 C 0.54155 0.39679 0.58071 0.0
C655 C 0.52417 0.3794 0.56511 0.0
C656 C 0.54 0.36096 0.55007 0.0
C657 C 0.57262 0.35949 0.55147 0.0
C658 C 0.43935 0.37527 0.53968 0.0
C659 C 0.42371 0.37659 0.56859 0.0
C660 C 0.47203 0.37656 0.53843 0.0
C661 C 0.48956 0.37963 0.56598 0.0
C662 C 0.47391 0.38165 0.59475 0.0
C663 C 0.4413 0.37997 0.59608 0.0
H664 H 0.06419 0.38092 0.87884 0.0
H665 H 0.06808 0.37061 0.9791 0.0
H666 H 0.00717 0.38395 0.88154 0.0
H667 H 0.01081 0.37329 0.98159 0.0
H668 H 0.90932 0.3443 0.95487 0.0
H669 H 0.96648 0.34615 0.95788 0.0
H670 H 0.96542 0.41191 0.90736 0.0
H671 H 0.90818 0.41034 0.90465 0.0
C672 C 0.05287 0.37937 0.90145 0.0
C673 C 0.07054 0.37543 0.92875 0.0
C674 C 0.02031 0.38127 0.90299 0.0
C675 C 0.00477 0.37889 0.93177 0.0
C676 C 0.02236 0.37514 0.95914 0.0
C677 C 0.05504 0.37367 0.95769 0.0
C678 C 0.92125 0.35929 0.94472 0.0
C679 C 0.90433 0.37711 0.92936 0.0
C680 C 0.95389 0.36039 0.94662 0.0
C681 C 0.97018 0.37913 0.93276 0.0
C682 C 0.95329 0.39724 0.91809 0.0
C683 C 0.9206 0.39637 0.91666 0.0
H684 H 0.5826 0.66671 0.41925 0.0
H685 H 0.58906 0.59109 0.42811 0.0
H686 H 0.5257 0.66387 0.4173 0.0
H687 H 0.53179 0.58839 0.42627 0.0
H688 H 0.42632 0.60124 0.45522 0.0
H689 H 0.4836 0.60202 0.45905 0.0
H690 H 0.48787 0.64639 0.37708 0.0
H691 H 0.43094 0.64561 0.37304 0.0
C692 C 0.57191 0.64949 0.42101 0.0
C693 C 0.59038 0.6291 0.42368 0.0
C694 C 0.53933 0.64788 0.41972 0.0
C695 C 0.52448 0.62591 0.4214 0.0
C696 C 0.54276 0.60554 0.42501 0.0
C697 C 0.57548 0.60711 0.42593 0.0
C698 C 0.43951 0.61107 0.43795 0.0
C699 C 0.4241 0.62344 0.4139 0.0
C700 C 0.47223 0.61141 0.44009 0.0
C701 C 0.49001 0.6244 0.41849 0.0
C702 C 0.47464 0.63647 0.39424 0.0
C703 C 0.44206 0.6359 0.39186 0.0
H704 H 0.28673 0.09306 0.1802 0.0
H705 H 0.25434 0.16486 0.17201 0.0
H706 H 0.27161 0.09264 0.23502 0.0
H707 H 0.23804 0.16414 0.22671 0.0
H708 H 0.24229 0.16317 0.33316 0.0
H709 H 0.2591 0.16366 0.27863 0.0
H710 H 0.22673 0.09208 0.26765 0.0
H711 H 0.21108 0.09131 0.32233 0.0
C712 C 0.27601 0.10868 0.19002 0.0
C713 C 0.27171 0.129 0.17177 0.0
C714 C 0.26722 0.1084 0.22145 0.0
C715 C 0.25359 0.12835 0.23529 0.0
C716 C 0.24896 0.14861 0.21692 0.0
C717 C 0.25807 0.14896 0.18552 0.0
C718 C 0.23896 0.14751 0.31912 0.0
C719 C 0.22543 0.12719 0.33206 0.0
C720 C 0.24836 0.14784 0.2878 0.0
C721 C 0.24415 0.12794 0.26872 0.0
C722 C 0.23077 0.1076 0.28179 0.0
C723 C 0.22168 0.10718 0.31314 0.0
H724 H 0.29074 0.82009 0.825 0.0
H725 H 0.2521 0.89038 0.82819 0.0
H726 H 0.27651 0.81729 0.76961 0.0
H727 H 0.23748 0.88736 0.7734 0.0
H728 H 0.24929 0.88725 0.66948 0.0
H729 H 0.26584 0.88672 0.72393 0.0
H730 H 0.23084 0.8158 0.73367 0.0
H731 H 0.21475 0.81609 0.6787 0.0
C732 C 0.27891 0.83481 0.81402 0.0
C733 C 0.27283 0.85555 0.83089 0.0
C734 C 0.27074 0.83318 0.78235 0.0
C735 C 0.25636 0.85225 0.76709 0.0
C736 C 0.24927 0.87259 0.78432 0.0
C737 C 0.25746 0.87425 0.81581 0.0
C738 C 0.24535 0.87144 0.68309 0.0
C739 C 0.23038 0.85181 0.66987 0.0
C740 C 0.25467 0.8712 0.71435 0.0
C741 C 0.24909 0.85138 0.73319 0.0
C742 C 0.23545 0.83131 0.71967 0.0
C743 C 0.2262 0.83151 0.68824 0.0
H744 H 0.66828 0.86566 0.79232 0.0
H745 H 0.74379 0.89749 0.84477 0.0
H746 H 0.69775 0.87112 0.74389 0.0
H747 H 0.77361 0.90254 0.79613 0.0
H748 H 0.82551 0.8625 0.71189 0.0
H749 H 0.79639 0.86911 0.76026 0.0
H750 H 0.72291 0.90355 0.70786 0.0
H751 H 0.75244 0.89733 0.65926 0.0
C752 C 0.691 0.87413 0.79341 0.0
C753 C 0.70389 0.88099 0.82229 0.0
C754 C 0.70774 0.87741 0.76567 0.0
C755 C 0.73792 0.88722 0.76635 0.0
C756 C 0.75036 0.89492 0.79507 0.0
C757 C 0.73331 0.89207 0.82281 0.0
C758 C 0.80341 0.87187 0.71075 0.0
C759 C 0.79109 0.87926 0.68184 0.0
C760 C 0.78688 0.8758 0.73845 0.0
C761 C 0.75744 0.88681 0.73772 0.0
C762 C 0.74559 0.895 0.70897 0.0
C763 C 0.76248 0.89149 0.68126 0.0
H764 H 0.77251 0.09758 0.32848 0.0
H765 H 0.81103 0.16428 0.29875 0.0
H766 H 0.74248 0.09529 0.27936 0.0
H767 H 0.781 0.162 0.25046 0.0
H768 H 0.68859 0.16659 0.19712 0.0
H769 H 0.71905 0.1631 0.24502 0.0
H770 H 0.75337 0.09533 0.21526 0.0
H771 H 0.7229 0.09883 0.16653 0.0
C772 C 0.77486 0.11156 0.3114 0.0
C773 C 0.79391 0.13121 0.31763 0.0
C774 C 0.75778 0.1102 0.28336 0.0
C775 C 0.75927 0.1286 0.26146 0.0
C776 C 0.77923 0.14772 0.26719 0.0
C777 C 0.79646 0.14896 0.29485 0.0
C778 C 0.70235 0.1508 0.20073 0.0
C779 C 0.70354 0.13307 0.17786 0.0
C780 C 0.71985 0.14887 0.22816 0.0
C781 C 0.73871 0.12907 0.23357 0.0
C782 C 0.73894 0.11076 0.21151 0.0
C783 C 0.72162 0.11282 0.18369 0.0
H784 H 0.71128 0.67766 0.32272 0.0
H785 H 0.74538 0.60629 0.33079 0.0
H786 H 0.72676 0.67828 0.26767 0.0
H787 H 0.76146 0.60715 0.27623 0.0
H788 H 0.74774 0.60445 0.1718 0.0
H789 H 0.7337 0.6068 0.22678 0.0
H790 H 0.77136 0.67725 0.23135 0.0
H791 H 0.78487 0.67514 0.1758 0.0
C792 C 0.72253 0.66226 0.31291 0.0
C793 C 0.72677 0.64183 0.331 0.0
C794 C 0.73145 0.66264 0.28141 0.0
C795 C 0.74485 0.64263 0.26751 0.0
C796 C 0.75045 0.62265 0.28607 0.0
C797 C 0.74143 0.62222 0.31741 0.0
C798 C 0.75291 0.62052 0.18441 0.0
C799 C 0.76763 0.63955 0.16947 0.0
C800 C 0.74507 0.62179 0.21602 0.0
C801 C 0.75191 0.64206 0.23353 0.0
C802 C 0.76574 0.66142 0.21843 0.0
C803 C 0.77351 0.66018 0.18665 0.0
H804 H 0.74785 0.39662 0.66337 0.0
H805 H 0.70673 0.32768 0.67515 0.0
H806 H 0.76648 0.39558 0.71711 0.0
H807 H 0.72487 0.32693 0.72946 0.0
H808 H 0.78835 0.32761 0.8179 0.0
H809 H 0.77186 0.32576 0.7631 0.0
H810 H 0.74154 0.39818 0.76793 0.0
H811 H 0.75851 0.40024 0.82212 0.0
C812 C 0.74281 0.38121 0.67742 0.0
C813 C 0.72553 0.36233 0.6651 0.0
C814 C 0.75335 0.38068 0.70829 0.0
C815 C 0.74669 0.36134 0.72765 0.0
C816 C 0.73044 0.34204 0.71505 0.0
C817 C 0.71998 0.34251 0.684 0.0
C818 C 0.77805 0.34309 0.80725 0.0
C819 C 0.77498 0.36413 0.82428 0.0
C820 C 0.76854 0.34199 0.77593 0.0
C821 C 0.75578 0.3619 0.76113 0.0
C822 C 0.75197 0.3827 0.77846 0.0
C823 C 0.76152 0.38382 0.80962 0.0
H824 H 0.24973 0.3929 0.6554 0.0
H825 H 0.32589 0.36162 0.70764 0.0
H826 H 0.22029 0.39814 0.7042 0.0
H827 H 0.29674 0.36714 0.75618 0.0
H828 H 0.24316 0.39311 0.84109 0.0
H829 H 0.27235 0.39891 0.79225 0.0
H830 H 0.19734 0.36586 0.74052 0.0
H831 H 0.16845 0.35978 0.78911 0.0
C832 C 0.26041 0.3876 0.67733 0.0
C833 C 0.28993 0.37664 0.67775 0.0
C834 C 0.24356 0.39054 0.70517 0.0
C835 C 0.25628 0.38302 0.73388 0.0
C836 C 0.28653 0.3733 0.73442 0.0
C837 C 0.30308 0.36997 0.70661 0.0
C838 C 0.23274 0.38746 0.81921 0.0
C839 C 0.20372 0.37579 0.81888 0.0
C840 C 0.24943 0.39073 0.79135 0.0
C841 C 0.23705 0.38282 0.7627 0.0
C842 C 0.20728 0.37233 0.76224 0.0
C843 C 0.19088 0.36869 0.79008 0.0
H844 H 0.32241 0.63474 0.27693 0.0
H845 H 0.25083 0.59959 0.331 0.0
H846 H 0.29239 0.62785 0.22915 0.0
H847 H 0.22042 0.59306 0.28298 0.0
H848 H 0.16368 0.63124 0.2 0.0
H849 H 0.19412 0.62527 0.24777 0.0
H850 H 0.26911 0.59468 0.19354 0.0
H851 H 0.23832 0.60028 0.14555 0.0
C852 C 0.30046 0.62523 0.27851 0.0
C853 C 0.28879 0.61787 0.30766 0.0
C854 C 0.28342 0.62113 0.25114 0.0
C855 C 0.25412 0.60995 0.25245 0.0
C856 C 0.24298 0.60174 0.28143 0.0
C857 C 0.26037 0.60543 0.30881 0.0
C858 C 0.1864 0.62281 0.19834 0.0
C859 C 0.19879 0.6164 0.16909 0.0
C860 C 0.20369 0.61924 0.22569 0.0
C861 C 0.23393 0.60956 0.22426 0.0
C862 C 0.24583 0.6022 0.19518 0.0
C863 C 0.22822 0.60536 0.16781 0.0
loop_
_geom_bond_atom_site_label_1
_geom_bond_atom_site_label_2
_geom_bond_distance
_geom_bond_site_symmetry_2
_ccdc_geom_bond_type
O0 Cd1 2.223 . S
O0 C8 1.315 . S
Cd1 O0 2.223 . S
Cd1 O4 2.297 . S
Cd1 O5 2.439 . S
Cd1 O11 2.240 . S
Cd2 O3 2.240 . S
Cd2 O10 2.223 . S
Cd2 O12 2.297 . S
Cd2 O13 2.439 . S
O3 Cd2 2.240 . S
O3 C8 1.279 . S
O4 Cd1 2.297 . S
O4 C6 1.247 . S
O5 Cd1 2.439 . S
O5 C6 1.208 . S
C6 O4 1.247 . S
C6 O5 1.208 . S
C7 O12 1.247 . S
C7 O13 1.208 . S
C8 O0 1.315 . S
C8 O3 1.279 . S
C9 O10 1.315 . S
C9 O11 1.279 . S
O10 Cd2 2.223 . S
O10 C9 1.315 . S
O11 Cd1 2.240 . S
O11 C9 1.279 . S
O12 Cd2 2.297 . S
O12 C7 1.247 . S
O13 Cd2 2.439 . S
O13 C7 1.208 . S
O14 Cd15 2.223 . S
O14 C22 1.315 . S
Cd15 O14 2.223 . S
Cd15 O18 2.297 . S
Cd15 O19 2.439 . S
Cd15 O25 2.240 . S
Cd16 O17 2.240 . S
Cd16 O24 2.223 . S
Cd16 O26 2.297 . S
Cd16 O27 2.439 . S
O17 Cd16 2.240 . S
O17 C22 1.279 . S
O18 Cd15 2.297 . S
O18 C20 1.247 . S
O19 Cd15 2.439 . S
O19 C20 1.208 . S
C20 O18 1.247 . S
C20 O19 1.208 . S
C21 O26 1.247 . S
C21 O27 1.208 . S
C22 O14 1.315 . S
C22 O17 1.279 . S
C23 O24 1.315 . S
C23 O25 1.279 . S
O24 Cd16 2.223 . S
O24 C23 1.315 . S
O25 Cd15 2.240 . S
O25 C23 1.279 . S
O26 Cd16 2.297 . S
O26 C21 1.247 . S
O27 Cd16 2.439 . S
O27 C21 1.208 . S
O28 Cd29 2.223 . S
O28 C36 1.315 . S
Cd29 O28 2.223 . S
Cd29 O32 2.297 . S
Cd29 O33 2.439 . S
Cd29 O39 2.240 . S
Cd30 O31 2.240 . S
Cd30 O38 2.223 . S
Cd30 O40 2.297 . S
Cd30 O41 2.439 . S
O31 Cd30 2.240 . S
O31 C36 1.279 . S
O32 Cd29 2.297 . S
O32 C34 1.247 . S
O33 Cd29 2.439 . S
O33 C34 1.208 . S
C34 O32 1.247 . S
C34 O33 1.208 . S
C35 O40 1.247 . S
C35 O41 1.208 . S
C36 O28 1.315 . S
C36 O31 1.279 . S
C37 O38 1.315 . S
C37 O39 1.279 . S
O38 Cd30 2.223 . S
O38 C37 1.315 . S
O39 Cd29 2.240 . S
O39 C37 1.279 . S
O40 Cd30 2.297 . S
O40 C35 1.247 . S
O41 Cd30 2.439 . S
O41 C35 1.208 . S
O42 Cd43 2.223 . S
O42 C50 1.315 . S
Cd43 O42 2.223 . S
Cd43 O46 2.297 . S
Cd43 O47 2.439 . S
Cd43 O53 2.240 . S
Cd44 O45 2.240 . S
Cd44 O52 2.223 . S
Cd44 O54 2.297 . S
Cd44 O55 2.439 . S
O45 Cd44 2.240 . S
O45 C50 1.279 . S
O46 Cd43 2.297 . S
O46 C48 1.247 . S
O47 Cd43 2.439 . S
O47 C48 1.208 . S
C48 O46 1.247 . S
C48 O47 1.208 . S
C49 O54 1.247 . S
C49 O55 1.208 . S
C50 O42 1.315 . S
C50 O45 1.279 . S
C51 O52 1.315 . S
C51 O53 1.279 . S
O52 Cd44 2.223 . S
O52 C51 1.315 . S
O53 Cd43 2.240 . S
O53 C51 1.279 . S
O54 Cd44 2.297 . S
O54 C49 1.247 . S
O55 Cd44 2.439 . S
O55 C49 1.208 . S
O56 Cd57 2.223 . S
O56 C64 1.315 . S
Cd57 O56 2.223 . S
Cd57 O60 2.297 . S
Cd57 O61 2.439 . S
Cd57 O67 2.240 . S
Cd58 O59 2.240 . S
Cd58 O66 2.223 . S
Cd58 O68 2.297 . S
Cd58 O69 2.439 . S
O59 Cd58 2.240 . S
O59 C64 1.279 . S
O60 Cd57 2.297 . S
O60 C62 1.247 . S
O61 Cd57 2.439 . S
O61 C62 1.208 . S
C62 O60 1.247 . S
C62 O61 1.208 . S
C63 O68 1.247 . S
C63 O69 1.208 . S
C64 O56 1.315 . S
C64 O59 1.279 . S
C65 O66 1.315 . S
C65 O67 1.279 . S
O66 Cd58 2.223 . S
O66 C65 1.315 . S
O67 Cd57 2.240 . S
O67 C65 1.279 . S
O68 Cd58 2.297 . S
O68 C63 1.247 . S
O69 Cd58 2.439 . S
O69 C63 1.208 . S
O70 Cd71 2.223 . S
O70 C78 1.315 . S
Cd71 O70 2.223 . S
Cd71 O74 2.297 . S
Cd71 O75 2.439 . S
Cd71 O81 2.240 . S
Cd72 O73 2.240 . S
Cd72 O80 2.223 . S
Cd72 O82 2.297 . S
Cd72 O83 2.439 . S
O73 Cd72 2.240 . S
O73 C78 1.279 . S
O74 Cd71 2.297 . S
O74 C76 1.247 . S
O75 Cd71 2.439 . S
O75 C76 1.208 . S
C76 O74 1.247 . S
C76 O75 1.208 . S
C77 O82 1.247 . S
C77 O83 1.208 . S
C78 O70 1.315 . S
C78 O73 1.279 . S
C79 O80 1.315 . S
C79 O81 1.279 . S
O80 Cd72 2.223 . S
O80 C79 1.315 . S
O81 Cd71 2.240 . S
O81 C79 1.279 . S
O82 Cd72 2.297 . S
O82 C77 1.247 . S
O83 Cd72 2.439 . S
O83 C77 1.208 . S
O84 Cd85 2.223 . S
O84 C92 1.315 . S
Cd85 O84 2.223 . S
Cd85 O88 2.297 . S
Cd85 O89 2.439 . S
Cd85 O95 2.240 . S
Cd86 O87 2.240 . S
Cd86 O94 2.223 . S
Cd86 O96 2.297 . S
Cd86 O97 2.439 . S
O87 Cd86 2.240 . S
O87 C92 1.279 . S
O88 Cd85 2.297 . S
O88 C90 1.247 . S
O89 Cd85 2.439 . S
O89 C90 1.208 . S
C90 O88 1.247 . S
C90 O89 1.208 . S
C91 O96 1.247 . S
C91 O97 1.208 . S
C92 O84 1.315 . S
C92 O87 1.279 . S
C93 O94 1.315 . S
C93 O95 1.279 . S
O94 Cd86 2.223 . S
O94 C93 1.315 . S
O95 Cd85 2.240 . S
O95 C93 1.279 . S
O96 Cd86 2.297 . S
O96 C91 1.247 . S
O97 Cd86 2.439 . S
O97 C91 1.208 . S
O98 Cd99 2.223 . S
O98 C106 1.315 . S
Cd99 O98 2.223 . S
Cd99 O102 2.297 . S
Cd99 O103 2.439 . S
Cd99 O109 2.240 . S
Cd100 O101 2.240 . S
Cd100 O108 2.223 . S
Cd100 O110 2.297 . S
Cd100 O111 2.439 . S
O101 Cd100 2.240 . S
O101 C106 1.279 . S
O102 Cd99 2.297 . S
O102 C104 1.247 . S
O103 Cd99 2.439 . S
O103 C104 1.208 . S
C104 O102 1.247 . S
C104 O103 1.208 . S
C105 O110 1.247 . S
C105 O111 1.208 . S
C106 O98 1.315 . S
C106 O101 1.279 . S
C107 O108 1.315 . S
C107 O109 1.279 . S
O108 Cd100 2.223 . S
O108 C107 1.315 . S
O109 Cd99 2.240 . S
O109 C107 1.279 . S
O110 Cd100 2.297 . S
O110 C105 1.247 . S
O111 Cd100 2.439 . S
O111 C105 1.208 . S
O112 Cd113 2.223 . S
O112 C120 1.315 . S
Cd113 O112 2.223 . S
Cd113 O116 2.297 . S
Cd113 O117 2.439 . S
Cd113 O123 2.240 . S
Cd114 O115 2.240 . S
Cd114 O122 2.223 . S
Cd114 O124 2.297 . S
Cd114 O125 2.439 . S
O115 Cd114 2.240 . S
O115 C120 1.279 . S
O116 Cd113 2.297 . S
O116 C118 1.247 . S
O117 Cd113 2.439 . S
O117 C118 1.208 . S
C118 O116 1.247 . S
C118 O117 1.208 . S
C119 O124 1.247 . S
C119 O125 1.208 . S
C120 O112 1.315 . S
C120 O115 1.279 . S
C121 O122 1.315 . S
C121 O123 1.279 . S
O122 Cd114 2.223 . S
O122 C121 1.315 . S
O123 Cd113 2.240 . S
O123 C121 1.279 . S
O124 Cd114 2.297 . S
O124 C119 1.247 . S
O125 Cd114 2.439 . S
O125 C119 1.208 . S
O126 Cd127 2.223 . S
O126 C134 1.315 . S
Cd127 O126 2.223 . S
Cd127 O130 2.297 . S
Cd127 O131 2.439 . S
Cd127 O137 2.240 . S
Cd128 O129 2.240 . S
Cd128 O136 2.223 . S
Cd128 O138 2.297 . S
Cd128 O139 2.439 . S
O129 Cd128 2.240 . S
O129 C134 1.279 . S
O130 Cd127 2.297 . S
O130 C132 1.247 . S
O131 Cd127 2.439 . S
O131 C132 1.208 . S
C132 O130 1.247 . S
C132 O131 1.208 . S
C133 O138 1.247 . S
C133 O139 1.208 . S
C134 O126 1.315 . S
C134 O129 1.279 . S
C135 O136 1.315 . S
C135 O137 1.279 . S
O136 Cd128 2.223 . S
O136 C135 1.315 . S
O137 Cd127 2.240 . S
O137 C135 1.279 . S
O138 Cd128 2.297 . S
O138 C133 1.247 . S
O139 Cd128 2.439 . S
O139 C133 1.208 . S
O140 Cd141 2.223 . S
O140 C148 1.315 . S
Cd141 O140 2.223 . S
Cd141 O144 2.297 . S
Cd141 O145 2.439 . S
Cd141 O151 2.240 . S
Cd142 O143 2.240 . S
Cd142 O150 2.223 . S
Cd142 O152 2.297 . S
Cd142 O153 2.439 . S
O143 Cd142 2.240 . S
O143 C148 1.279 . S
O144 Cd141 2.297 . S
O144 C146 1.247 . S
O145 Cd141 2.439 . S
O145 C146 1.208 . S
C146 O144 1.247 . S
C146 O145 1.208 . S
C147 O152 1.247 . S
C147 O153 1.208 . S
C148 O140 1.315 . S
C148 O143 1.279 . S
C149 O150 1.315 . S
C149 O151 1.279 . S
O150 Cd142 2.223 . S
O150 C149 1.315 . S
O151 Cd141 2.240 . S
O151 C149 1.279 . S
O152 Cd142 2.297 . S
O152 C147 1.247 . S
O153 Cd142 2.439 . S
O153 C147 1.208 . S
O154 Cd155 2.223 . S
O154 C162 1.315 . S
Cd155 O154 2.223 . S
Cd155 O158 2.297 . S
Cd155 O159 2.439 . S
Cd155 O165 2.240 . S
Cd156 O157 2.240 . S
Cd156 O164 2.223 . S
Cd156 O166 2.297 . S
Cd156 O167 2.439 . S
O157 Cd156 2.240 . S
O157 C162 1.279 . S
O158 Cd155 2.297 . S
O158 C160 1.247 . S
O159 Cd155 2.439 . S
O159 C160 1.208 . S
C160 O158 1.247 . S
C160 O159 1.208 . S
C161 O166 1.247 . S
C161 O167 1.208 . S
C162 O154 1.315 . S
C162 O157 1.279 . S
C163 O164 1.315 . S
C163 O165 1.279 . S
O164 Cd156 2.223 . S
O164 C163 1.315 . S
O165 Cd155 2.240 . S
O165 C163 1.279 . S
O166 Cd156 2.297 . S
O166 C161 1.247 . S
O167 Cd156 2.439 . S
O167 C161 1.208 . S
O168 Cd169 2.223 . S
O168 C176 1.315 . S
Cd169 O168 2.223 . S
Cd169 O172 2.297 . S
Cd169 O173 2.439 . S
Cd169 O179 2.240 . S
Cd170 O171 2.240 . S
Cd170 O178 2.223 . S
Cd170 O180 2.297 . S
Cd170 O181 2.439 . S
O171 Cd170 2.240 . S
O171 C176 1.279 . S
O172 Cd169 2.297 . S
O172 C174 1.247 . S
O173 Cd169 2.439 . S
O173 C174 1.208 . S
C174 O172 1.247 . S
C174 O173 1.208 . S
C175 O180 1.247 . S
C175 O181 1.208 . S
C176 O168 1.315 . S
C176 O171 1.279 . S
C177 O178 1.315 . S
C177 O179 1.279 . S
O178 Cd170 2.223 . S
O178 C177 1.315 . S
O179 Cd169 2.240 . S
O179 C177 1.279 . S
O180 Cd170 2.297 . S
O180 C175 1.247 . S
O181 Cd170 2.439 . S
O181 C175 1.208 . S
O182 Cd183 2.223 . S
O182 C190 1.315 . S
Cd183 O182 2.223 . S
Cd183 O186 2.297 . S
Cd183 O187 2.439 . S
Cd183 O193 2.240 . S
Cd184 O185 2.240 . S
Cd184 O192 2.223 . S
Cd184 O194 2.297 . S
Cd184 O195 2.439 . S
O185 Cd184 2.240 . S
O185 C190 1.279 . S
O186 Cd183 2.297 . S
O186 C188 1.247 . S
O187 Cd183 2.439 . S
O187 C188 1.208 . S
C188 O186 1.247 . S
C188 O187 1.208 . S
C189 O194 1.247 . S
C189 O195 1.208 . S
C190 O182 1.315 . S
C190 O185 1.279 . S
C191 O192 1.315 . S
C191 O193 1.279 . S
O192 Cd184 2.223 . S
O192 C191 1.315 . S
O193 Cd183 2.240 . S
O193 C191 1.279 . S
O194 Cd184 2.297 . S
O194 C189 1.247 . S
O195 Cd184 2.439 . S
O195 C189 1.208 . S
O196 Cd197 2.223 . S
O196 C204 1.315 . S
Cd197 O196 2.223 . S
Cd197 O200 2.297 . S
Cd197 O201 2.439 . S
Cd197 O207 2.240 . S
Cd198 O199 2.240 . S
Cd198 O206 2.223 . S
Cd198 O208 2.297 . S
Cd198 O209 2.439 . S
O199 Cd198 2.240 . S
O199 C204 1.279 . S
O200 Cd197 2.297 . S
O200 C202 1.247 . S
O201 Cd197 2.439 . S
O201 C202 1.208 . S
C202 O200 1.247 . S
C202 O201 1.208 . S
C203 O208 1.247 . S
C203 O209 1.208 . S
C204 O196 1.315 . S
C204 O199 1.279 . S
C205 O206 1.315 . S
C205 O207 1.279 . S
O206 Cd198 2.223 . S
O206 C205 1.315 . S
O207 Cd197 2.240 . S
O207 C205 1.279 . S
O208 Cd198 2.297 . S
O208 C203 1.247 . S
O209 Cd198 2.439 . S
O209 C203 1.208 . S
O210 Cd211 2.223 . S
O210 C218 1.315 . S
Cd211 O210 2.223 . S
Cd211 O214 2.297 . S
Cd211 O215 2.439 . S
Cd211 O221 2.240 . S
Cd212 O213 2.240 . S
Cd212 O220 2.223 . S
Cd212 O222 2.297 . S
Cd212 O223 2.439 . S
O213 Cd212 2.240 . S
O213 C218 1.279 . S
O214 Cd211 2.297 . S
O214 C216 1.247 . S
O215 Cd211 2.439 . S
O215 C216 1.208 . S
C216 O214 1.247 . S
C216 O215 1.208 . S
C217 O222 1.247 . S
C217 O223 1.208 . S
C218 O210 1.315 . S
C218 O213 1.279 . S
C219 O220 1.315 . S
C219 O221 1.279 . S
O220 Cd212 2.223 . S
O220 C219 1.315 . S
O221 Cd211 2.240 . S
O221 C219 1.279 . S
O222 Cd212 2.297 . S
O222 C217 1.247 . S
O223 Cd212 2.439 . S
O223 C217 1.208 . S
H224 C232 0.950 1_556 S
H225 C237 0.950 . S
H226 C234 0.950 . S
H227 C236 0.950 . S
H228 C238 0.950 . S
H229 C240 0.950 1_554 S
H230 C242 0.950 . S
H231 C243 0.950 . S
C232 H224 0.950 1_554 S
C232 C233 1.386 . S
C232 C234 1.391 1_554 S
C233 C232 1.386 . S
C233 C237 1.393 . S
C234 H226 0.950 . S
C234 C232 1.391 1_556 S
C234 C235 1.400 . S
C235 C234 1.400 . S
C235 C236 1.398 1_556 S
C235 C241 1.491 . S
C236 H227 0.950 . S
C236 C235 1.398 1_554 S
C236 C237 1.391 . S
C237 H225 0.950 . S
C237 C233 1.393 . S
C237 C236 1.391 . S
C238 H228 0.950 . S
C238 C239 1.386 . S
C238 C240 1.391 . S
C239 C238 1.386 . S
C239 C243 1.393 . S
C240 H229 0.950 1_556 S
C240 C238 1.391 . S
C240 C241 1.400 . S
C241 C235 1.491 . S
C241 C240 1.400 . S
C241 C242 1.398 . S
C242 H230 0.950 . S
C242 C241 1.398 . S
C242 C243 1.391 . S
C243 H231 0.950 . S
C243 C239 1.393 . S
C243 C242 1.391 . S
H244 C252 0.950 . S
H245 C257 0.950 . S
H246 C254 0.950 . S
H247 C256 0.950 . S
H248 C258 0.950 . S
H249 C260 0.950 . S
H250 C262 0.950 . S
H251 C263 0.950 . S
C252 H244 0.950 . S
C252 C253 1.386 . S
C252 C254 1.391 . S
C253 C252 1.386 . S
C253 C257 1.393 . S
C254 H246 0.950 . S
C254 C252 1.391 . S
C254 C255 1.400 . S
C255 C254 1.400 . S
C255 C256 1.398 . S
C255 C261 1.491 . S
C256 H247 0.950 . S
C256 C255 1.398 . S
C256 C257 1.391 . S
C257 H245 0.950 . S
C257 C253 1.393 . S
C257 C256 1.391 . S
C258 H248 0.950 . S
C258 C259 1.386 . S
C258 C260 1.391 . S
C259 C258 1.386 . S
C259 C263 1.393 . S
C260 H249 0.950 . S
C260 C258 1.391 . S
C260 C261 1.400 . S
C261 C255 1.491 . S
C261 C260 1.400 . S
C261 C262 1.398 . S
C262 H250 0.950 . S
C262 C261 1.398 . S
C262 C263 1.391 . S
C263 H251 0.950 . S
C263 C259 1.393 . S
C263 C262 1.391 . S
H264 C272 0.950 . S
H265 C277 0.950 1_554 S
H266 C274 0.950 . S
H267 C276 0.950 . S
H268 C278 0.950 . S
H269 C280 0.950 . S
H270 C282 0.950 1_556 S
H271 C283 0.950 . S
C272 H264 0.950 . S
C272 C273 1.386 . S
C272 C274 1.391 . S
C273 C272 1.386 . S
C273 C277 1.393 . S
C274 H266 0.950 . S
C274 C272 1.391 . S
C274 C275 1.400 1_556 S
C275 C274 1.400 1_554 S
C275 C276 1.398 . S
C275 C281 1.491 . S
C276 H267 0.950 . S
C276 C275 1.398 . S
C276 C277 1.391 1_554 S
C277 H265 0.950 1_556 S
C277 C273 1.393 . S
C277 C276 1.391 1_556 S
C278 H268 0.950 . S
C278 C279 1.386 . S
C278 C280 1.391 . S
C279 C278 1.386 . S
C279 C283 1.393 . S
C280 H269 0.950 . S
C280 C278 1.391 . S
C280 C281 1.400 . S
C281 C275 1.491 . S
C281 C280 1.400 . S
C281 C282 1.398 . S
C282 H270 0.950 1_554 S
C282 C281 1.398 . S
C282 C283 1.391 . S
C283 H271 0.950 . S
C283 C279 1.393 . S
C283 C282 1.391 . S
H284 C292 0.950 . S
H285 C297 0.950 . S
H286 C294 0.950 . S
H287 C296 0.950 . S
H288 C298 0.950 . S
H289 C300 0.950 . S
H290 C302 0.950 . S
H291 C303 0.950 . S
C292 H284 0.950 . S
C292 C293 1.386 . S
C292 C294 1.391 . S
C293 C292 1.386 . S
C293 C297 1.393 . S
C294 H286 0.950 . S
C294 C292 1.391 . S
C294 C295 1.400 . S
C295 C294 1.400 . S
C295 C296 1.398 . S
C295 C301 1.491 . S
C296 H287 0.950 . S
C296 C295 1.398 . S
C296 C297 1.391 . S
C297 H285 0.950 . S
C297 C293 1.393 . S
C297 C296 1.391 . S
C298 H288 0.950 . S
C298 C299 1.386 . S
C298 C300 1.391 . S
C299 C298 1.386 . S
C299 C303 1.393 . S
C300 H289 0.950 . S
C300 C298 1.391 . S
C300 C301 1.400 . S
C301 C295 1.491 . S
C301 C300 1.400 . S
C301 C302 1.398 . S
C302 H290 0.950 . S
C302 C301 1.398 . S
C302 C303 1.391 . S
C303 H291 0.950 . S
C303 C299 1.393 . S
C303 C302 1.391 . S
H304 C312 0.950 . S
H305 C317 0.950 . S
H306 C314 0.950 . S
H307 C316 0.950 . S
H308 C318 0.950 . S
H309 C320 0.950 1_554 S
H310 C322 0.950 . S
H311 C323 0.950 . S
C312 H304 0.950 . S
C312 C313 1.386 1_556 S
C312 C314 1.391 . S
C313 C312 1.386 1_554 S
C313 C317 1.393 . S
C314 H306 0.950 . S
C314 C312 1.391 . S
C314 C315 1.400 . S
C315 C314 1.400 . S
C315 C316 1.398 1_556 S
C315 C321 1.491 . S
C316 H307 0.950 . S
C316 C315 1.398 1_554 S
C316 C317 1.391 . S
C317 H305 0.950 . S
C317 C313 1.393 . S
C317 C316 1.391 . S
C318 H308 0.950 . S
C318 C319 1.386 . S
C318 C320 1.391 . S
C319 C318 1.386 . S
C319 C323 1.393 . S
C320 H309 0.950 1_556 S
C320 C318 1.391 . S
C320 C321 1.400 . S
C321 C315 1.491 . S
C321 C320 1.400 . S
C321 C322 1.398 . S
C322 H310 0.950 . S
C322 C321 1.398 . S
C322 C323 1.391 . S
C323 H311 0.950 . S
C323 C319 1.393 . S
C323 C322 1.391 . S
H324 C332 0.950 . S
H325 C337 0.950 . S
H326 C334 0.950 . S
H327 C336 0.950 . S
H328 C338 0.950 . S
H329 C340 0.950 . S
H330 C342 0.950 . S
H331 C343 0.950 . S
C332 H324 0.950 . S
C332 C333 1.386 . S
C332 C334 1.391 . S
C333 C332 1.386 . S
C333 C337 1.393 . S
C334 H326 0.950 . S
C334 C332 1.391 . S
C334 C335 1.400 . S
C335 C334 1.400 . S
C335 C336 1.398 . S
C335 C341 1.491 . S
C336 H327 0.950 . S
C336 C335 1.398 . S
C336 C337 1.391 . S
C337 H325 0.950 . S
C337 C333 1.393 . S
C337 C336 1.391 . S
C338 H328 0.950 . S
C338 C339 1.386 . S
C338 C340 1.391 . S
C339 C338 1.386 . S
C339 C343 1.393 . S
C340 H329 0.950 . S
C340 C338 1.391 . S
C340 C341 1.400 . S
C341 C335 1.491 . S
C341 C340 1.400 . S
C341 C342 1.398 . S
C342 H330 0.950 . S
C342 C341 1.398 . S
C342 C343 1.391 . S
C343 H331 0.950 . S
C343 C339 1.393 . S
C343 C342 1.391 . S
H344 C352 0.950 . S
H345 C357 0.950 . S
H346 C354 0.950 . S
H347 C356 0.950 . S
H348 C358 0.950 . S
H349 C360 0.950 . S
H350 C362 0.950 . S
H351 C363 0.950 . S
C352 H344 0.950 . S
C352 C353 1.386 . S
C352 C354 1.391 . S
C353 C352 1.386 . S
C353 C357 1.393 . S
C354 H346 0.950 . S
C354 C352 1.391 . S
C354 C355 1.400 1_556 S
C355 C354 1.400 1_554 S
C355 C356 1.398 . S
C355 C361 1.491 . S
C356 H347 0.950 . S
C356 C355 1.398 . S
C356 C357 1.391 1_554 S
C357 H345 0.950 . S
C357 C353 1.393 . S
C357 C356 1.391 1_556 S
C358 H348 0.950 . S
C358 C359 1.386 . S
C358 C360 1.391 . S
C359 C358 1.386 . S
C359 C363 1.393 . S
C360 H349 0.950 . S
C360 C358 1.391 . S
C360 C361 1.400 . S
C361 C355 1.491 . S
C361 C360 1.400 . S
C361 C362 1.398 . S
C362 H350 0.950 . S
C362 C361 1.398 . S
C362 C363 1.391 . S
C363 H351 0.950 . S
C363 C359 1.393 . S
C363 C362 1.391 . S
H364 C372 0.950 . S
H365 C377 0.950 . S
H366 C374 0.950 . S
H367 C376 0.950 . S
H368 C378 0.950 . S
H369 C380 0.950 . S
H370 C382 0.950 . S
H371 C383 0.950 . S
C372 H364 0.950 . S
C372 C373 1.386 . S
C372 C374 1.391 . S
C373 C372 1.386 . S
C373 C377 1.393 . S
C374 H366 0.950 . S
C374 C372 1.391 . S
C374 C375 1.400 . S
C375 C374 1.400 . S
C375 C376 1.398 . S
C375 C381 1.491 . S
C376 H367 0.950 . S
C376 C375 1.398 . S
C376 C377 1.391 . S
C377 H365 0.950 . S
C377 C373 1.393 . S
C377 C376 1.391 . S
C378 H368 0.950 . S
C378 C379 1.386 . S
C378 C380 1.391 . S
C379 C378 1.386 . S
C379 C383 1.393 . S
C380 H369 0.950 . S
C380 C378 1.391 . S
C380 C381 1.400 . S
C381 C375 1.491 . S
C381 C380 1.400 . S
C381 C382 1.398 . S
C382 H370 0.950 . S
C382 C381 1.398 . S
C382 C383 1.391 . S
C383 H371 0.950 . S
C383 C379 1.393 . S
C383 C382 1.391 . S
H384 C392 0.950 . S
H385 C397 0.964 . S
H386 C394 0.950 . S
H387 C396 0.950 . S
H388 C398 0.950 . S
H389 C400 0.950 . S
H390 C402 0.950 . S
H391 C403 0.964 . S
C392 H384 0.950 . S
C392 C393 1.386 . S
C392 C394 1.391 . S
C393 C392 1.386 . S
C393 C397 1.373 1_554 S
C394 H386 0.950 . S
C394 C392 1.391 . S
C394 C395 1.400 . S
C395 C394 1.400 . S
C395 C396 1.398 1_554 S
C395 C401 1.491 1_544 S
C396 H387 0.950 . S
C396 C395 1.398 1_556 S
C396 C397 1.398 . S
C397 H385 0.964 . S
C397 C393 1.373 1_556 S
C397 C396 1.398 . S
C398 H388 0.950 . S
C398 C399 1.386 . S
C398 C400 1.391 . S
C399 C398 1.386 . S
C399 C403 1.373 1_556 S
C400 H389 0.950 . S
C400 C398 1.391 . S
C400 C401 1.400 . S
C401 C395 1.491 1_566 S
C401 C400 1.400 . S
C401 C402 1.398 1_556 S
C402 H390 0.950 . S
C402 C401 1.398 1_554 S
C402 C403 1.398 . S
C403 H391 0.964 . S
C403 C399 1.373 1_554 S
C403 C402 1.398 . S
H404 C412 0.950 . S
H405 C417 0.950 . S
H406 C414 0.950 . S
H407 C416 0.950 . S
H408 C418 0.950 . S
H409 C420 0.950 . S
H410 C422 0.950 . S
H411 C423 0.950 . S
C412 H404 0.950 . S
C412 C413 1.386 . S
C412 C414 1.391 . S
C413 C412 1.386 . S
C413 C417 1.393 . S
C414 H406 0.950 . S
C414 C412 1.391 . S
C414 C415 1.400 . S
C415 C414 1.400 . S
C415 C416 1.398 . S
C415 C421 1.491 1_565 S
C416 H407 0.950 . S
C416 C415 1.398 . S
C416 C417 1.391 . S
C417 H405 0.950 . S
C417 C413 1.393 . S
C417 C416 1.391 . S
C418 H408 0.950 . S
C418 C419 1.386 . S
C418 C420 1.391 . S
C419 C418 1.386 . S
C419 C423 1.393 . S
C420 H409 0.950 . S
C420 C418 1.391 . S
C420 C421 1.400 . S
C421 C415 1.491 1_545 S
C421 C420 1.400 . S
C421 C422 1.398 . S
C422 H410 0.950 . S
C422 C421 1.398 . S
C422 C423 1.391 . S
C423 H411 0.950 . S
C423 C419 1.393 . S
C423 C422 1.391 . S
H424 C432 0.950 . S
H425 C437 0.950 . S
H426 C434 0.950 . S
H427 C436 0.950 1_545 S
H428 C438 0.950 . S
H429 C440 0.950 . S
H430 C442 0.950 1_565 S
H431 C443 0.950 . S
C432 H424 0.950 . S
C432 C433 1.386 . S
C432 C434 1.391 1_556 S
C433 C432 1.386 . S
C433 C437 1.393 . S
C434 H426 0.950 . S
C434 C432 1.391 1_554 S
C434 C435 1.400 1_554 S
C435 C434 1.400 1_556 S
C435 C436 1.398 . S
C435 C441 1.491 1_566 S
C436 H427 0.950 1_565 S
C436 C435 1.398 . S
C436 C437 1.391 . S
C437 H425 0.950 . S
C437 C433 1.393 . S
C437 C436 1.391 . S
C438 H428 0.950 . S
C438 C439 1.386 . S
C438 C440 1.391 1_554 S
C439 C438 1.386 . S
C439 C443 1.393 . S
C440 H429 0.950 . S
C440 C438 1.391 1_556 S
C440 C441 1.400 1_556 S
C441 C435 1.491 1_544 S
C441 C440 1.400 1_554 S
C441 C442 1.398 . S
C442 H430 0.950 1_545 S
C442 C441 1.398 . S
C442 C443 1.391 . S
C443 H431 0.950 . S
C443 C439 1.393 . S
C443 C442 1.391 . S
H444 C452 0.950 . S
H445 C457 0.950 . S
H446 C454 0.950 . S
H447 C456 0.950 . S
H448 C458 0.950 . S
H449 C460 0.950 . S
H450 C462 0.950 . S
H451 C463 0.950 . S
C452 H444 0.950 . S
C452 C453 1.386 . S
C452 C454 1.391 . S
C453 C452 1.386 . S
C453 C457 1.393 . S
C454 H446 0.950 . S
C454 C452 1.391 . S
C454 C455 1.400 . S
C455 C454 1.400 . S
C455 C456 1.398 . S
C455 C461 1.491 1_545 S
C456 H447 0.950 . S
C456 C455 1.398 . S
C456 C457 1.391 . S
C457 H445 0.950 . S
C457 C453 1.393 . S
C457 C456 1.391 . S
C458 H448 0.950 . S
C458 C459 1.386 . S
C458 C460 1.391 . S
C459 C458 1.386 . S
C459 C463 1.393 . S
C460 H449 0.950 . S
C460 C458 1.391 . S
C460 C461 1.400 . S
C461 C455 1.491 1_565 S
C461 C460 1.400 . S
C461 C462 1.398 . S
C462 H450 0.950 . S
C462 C461 1.398 . S
C462 C463 1.391 . S
C463 H451 0.950 . S
C463 C459 1.393 . S
C463 C462 1.391 . S
H464 C472 0.950 . S
H465 C477 0.950 . S
H466 C474 0.950 . S
H467 C476 0.950 . S
H468 C478 0.950 . S
H469 C480 0.950 . S
H470 C482 0.950 . S
H471 C483 0.950 . S
C472 H464 0.950 . S
C472 C473 1.386 . S
C472 C474 1.391 . S
C473 C472 1.386 . S
C473 C477 1.393 1_556 S
C474 H466 0.950 . S
C474 C472 1.391 . S
C474 C475 1.400 . S
C475 C474 1.400 . S
C475 C476 1.398 1_556 S
C475 C481 1.491 1_556 S
C476 H467 0.950 . S
C476 C475 1.398 1_554 S
C476 C477 1.391 . S
C477 H465 0.950 . S
C477 C473 1.393 1_554 S
C477 C476 1.391 . S
C478 H468 0.950 . S
C478 C479 1.386 . S
C478 C480 1.391 . S
C479 C478 1.386 . S
C479 C483 1.393 1_554 S
C480 H469 0.950 . S
C480 C478 1.391 . S
C480 C481 1.400 . S
C481 C475 1.491 1_554 S
C481 C480 1.400 . S
C481 C482 1.398 1_554 S
C482 H470 0.950 . S
C482 C481 1.398 1_556 S
C482 C483 1.391 . S
C483 H471 0.950 . S
C483 C479 1.393 1_556 S
C483 C482 1.391 . S
H484 C492 0.950 . S
H485 C497 0.950 . S
H486 C494 0.950 . S
H487 C496 0.950 . S
H488 C498 0.950 . S
H489 C500 0.950 . S
H490 C502 0.950 . S
H491 C503 0.950 . S
C492 H484 0.950 . S
C492 C493 1.386 . S
C492 C494 1.391 . S
C493 C492 1.386 . S
C493 C497 1.393 . S
C494 H486 0.950 . S
C494 C492 1.391 . S
C494 C495 1.400 . S
C495 C494 1.400 . S
C495 C496 1.398 . S
C495 C501 1.491 . S
C496 H487 0.950 . S
C496 C495 1.398 . S
C496 C497 1.391 . S
C497 H485 0.950 . S
C497 C493 1.393 . S
C497 C496 1.391 . S
C498 H488 0.950 . S
C498 C499 1.386 . S
C498 C500 1.391 . S
C499 C498 1.386 . S
C499 C503 1.393 . S
C500 H489 0.950 . S
C500 C498 1.391 . S
C500 C501 1.400 . S
C501 C495 1.491 . S
C501 C500 1.400 . S
C501 C502 1.398 . S
C502 H490 0.950 . S
C502 C501 1.398 . S
C502 C503 1.391 . S
C503 H491 0.950 . S
C503 C499 1.393 . S
C503 C502 1.391 . S
H504 C512 0.950 . S
H505 C517 0.950 . S
H506 C514 0.950 . S
H507 C516 0.950 . S
H508 C518 0.950 . S
H509 C520 0.950 . S
H510 C522 0.950 . S
H511 C523 0.950 . S
C512 H504 0.950 . S
C512 C513 1.386 . S
C512 C514 1.391 1_554 S
C513 C512 1.386 . S
C513 C517 1.393 . S
C514 H506 0.950 . S
C514 C512 1.391 1_556 S
C514 C515 1.400 1_556 S
C515 C514 1.400 1_554 S
C515 C516 1.398 . S
C515 C521 1.491 1_554 S
C516 H507 0.950 . S
C516 C515 1.398 . S
C516 C517 1.391 . S
C517 H505 0.950 . S
C517 C513 1.393 . S
C517 C516 1.391 . S
C518 H508 0.950 . S
C518 C519 1.386 . S
C518 C520 1.391 1_556 S
C519 C518 1.386 . S
C519 C523 1.393 . S
C520 H509 0.950 . S
C520 C518 1.391 1_554 S
C520 C521 1.400 1_554 S
C521 C515 1.491 1_556 S
C521 C520 1.400 1_556 S
C521 C522 1.398 . S
C522 H510 0.950 . S
C522 C521 1.398 . S
C522 C523 1.391 . S
C523 H511 0.950 . S
C523 C519 1.393 . S
C523 C522 1.391 . S
H524 C532 0.950 . S
H525 C537 0.950 . S
H526 C534 0.950 . S
H527 C536 0.950 . S
H528 C538 0.950 . S
H529 C540 0.950 . S
H530 C542 0.950 . S
H531 C543 0.950 . S
C532 H524 0.950 . S
C532 C533 1.386 . S
C532 C534 1.391 . S
C533 C532 1.386 . S
C533 C537 1.393 . S
C534 H526 0.950 . S
C534 C532 1.391 . S
C534 C535 1.400 . S
C535 C534 1.400 . S
C535 C536 1.398 . S
C535 C541 1.491 . S
C536 H527 0.950 . S
C536 C535 1.398 . S
C536 C537 1.391 . S
C537 H525 0.950 . S
C537 C533 1.393 . S
C537 C536 1.391 . S
C538 H528 0.950 . S
C538 C539 1.386 . S
C538 C540 1.391 . S
C539 C538 1.386 . S
C539 C543 1.393 . S
C540 H529 0.950 . S
C540 C538 1.391 . S
C540 C541 1.400 . S
C541 C535 1.491 . S
C541 C540 1.400 . S
C541 C542 1.398 . S
C542 H530 0.950 . S
C542 C541 1.398 . S
C542 C543 1.391 . S
C543 H531 0.950 . S
C543 C539 1.393 . S
C543 C542 1.391 . S
H544 C552 0.950 . S
H545 C557 0.950 . S
H546 C554 0.950 . S
H547 C556 0.950 . S
H548 C558 0.950 . S
H549 C560 0.950 . S
H550 C562 0.950 . S
H551 C563 0.950 . S
C552 H544 0.950 . S
C552 C553 1.386 . S
C552 C554 1.391 . S
C553 C552 1.386 . S
C553 C557 1.393 . S
C554 H546 0.950 . S
C554 C552 1.391 . S
C554 C555 1.400 . S
C555 C554 1.400 . S
C555 C556 1.398 . S
C555 C561 1.491 . S
C556 H547 0.950 . S
C556 C555 1.398 . S
C556 C557 1.391 . S
C557 H545 0.950 . S
C557 C553 1.393 . S
C557 C556 1.391 . S
C558 H548 0.950 . S
C558 C559 1.386 . S
C558 C560 1.391 . S
C559 C558 1.386 . S
C559 C563 1.393 . S
C560 H549 0.950 . S
C560 C558 1.391 . S
C560 C561 1.400 . S
C561 C555 1.491 . S
C561 C560 1.400 . S
C561 C562 1.398 . S
C562 H550 0.950 . S
C562 C561 1.398 . S
C562 C563 1.391 . S
C563 H551 0.950 . S
C563 C559 1.393 . S
C563 C562 1.391 . S
H564 C572 0.950 . S
H565 C577 0.950 . S
H566 C574 0.950 . S
H567 C576 0.950 . S
H568 C578 0.950 . S
H569 C580 0.950 . S
H570 C582 0.950 . S
H571 C583 0.950 . S
C572 H564 0.950 . S
C572 C573 1.386 . S
C572 C574 1.391 1_655 S
C573 C572 1.386 . S
C573 C577 1.393 . S
C574 H566 0.950 . S
C574 C572 1.391 1_455 S
C574 C575 1.400 . S
C575 C574 1.400 . S
C575 C576 1.398 . S
C575 C581 1.491 . S
C576 H567 0.950 . S
C576 C575 1.398 . S
C576 C577 1.391 1_455 S
C577 H565 0.950 . S
C577 C573 1.393 . S
C577 C576 1.391 1_655 S
C578 H568 0.950 . S
C578 C579 1.386 . S
C578 C580 1.391 . S
C579 C578 1.386 . S
C579 C583 1.393 . S
C580 H569 0.950 . S
C580 C578 1.391 . S
C580 C581 1.400 . S
C581 C575 1.491 . S
C581 C580 1.400 . S
C581 C582 1.398 . S
C582 H570 0.950 . S
C582 C581 1.398 . S
C582 C583 1.391 . S
C583 H571 0.950 . S
C583 C579 1.393 . S
C583 C582 1.391 . S
H584 C592 0.950 . S
H585 C597 0.950 . S
H586 C594 0.950 . S
H587 C596 0.950 . S
H588 C598 0.950 . S
H589 C600 0.950 . S
H590 C602 0.950 . S
H591 C603 0.950 . S
C592 H584 0.950 . S
C592 C593 1.386 . S
C592 C594 1.391 . S
C593 C592 1.386 . S
C593 C597 1.393 . S
C594 H586 0.950 . S
C594 C592 1.391 . S
C594 C595 1.400 . S
C595 C594 1.400 . S
C595 C596 1.398 . S
C595 C601 1.491 . S
C596 H587 0.950 . S
C596 C595 1.398 . S
C596 C597 1.391 . S
C597 H585 0.950 . S
C597 C593 1.393 . S
C597 C596 1.391 . S
C598 H588 0.950 . S
C598 C599 1.386 . S
C598 C600 1.391 . S
C599 C598 1.386 . S
C599 C603 1.393 . S
C600 H589 0.950 . S
C600 C598 1.391 . S
C600 C601 1.400 . S
C601 C595 1.491 . S
C601 C600 1.400 . S
C601 C602 1.398 . S
C602 H590 0.950 . S
C602 C601 1.398 . S
C602 C603 1.391 . S
C603 H591 0.950 . S
C603 C599 1.393 . S
C603 C602 1.391 . S
H604 C612 0.950 . S
H605 C617 0.950 . S
H606 C614 0.950 . S
H607 C616 0.950 . S
H608 C618 0.950 . S
H609 C620 0.950 . S
H610 C622 0.950 . S
H611 C623 0.950 . S
C612 H604 0.950 . S
C612 C613 1.386 . S
C612 C614 1.391 . S
C613 C612 1.386 . S
C613 C617 1.393 . S
C614 H606 0.950 . S
C614 C612 1.391 . S
C614 C615 1.400 . S
C615 C614 1.400 . S
C615 C616 1.398 . S
C615 C621 1.491 . S
C616 H607 0.950 . S
C616 C615 1.398 . S
C616 C617 1.391 . S
C617 H605 0.950 . S
C617 C613 1.393 . S
C617 C616 1.391 . S
C618 H608 0.950 . S
C618 C619 1.386 . S
C618 C620 1.391 1_655 S
C619 C618 1.386 . S
C619 C623 1.393 . S
C620 H609 0.950 . S
C620 C618 1.391 1_455 S
C620 C621 1.400 . S
C621 C615 1.491 . S
C621 C620 1.400 . S
C621 C622 1.398 . S
C622 H610 0.950 . S
C622 C621 1.398 . S
C622 C623 1.391 1_455 S
C623 H611 0.950 . S
C623 C619 1.393 . S
C623 C622 1.391 1_655 S
H624 C632 0.950 . S
H625 C637 0.950 . S
H626 C634 0.950 . S
H627 C636 0.950 . S
H628 C638 0.950 . S
H629 C640 0.950 . S
H630 C642 0.950 . S
H631 C643 0.950 . S
C632 H624 0.950 . S
C632 C633 1.386 . S
C632 C634 1.391 1_455 S
C633 C632 1.386 . S
C633 C637 1.393 . S
C634 H626 0.950 . S
C634 C632 1.391 1_655 S
C634 C635 1.400 . S
C635 C634 1.400 . S
C635 C636 1.398 . S
C635 C641 1.491 . S
C636 H627 0.950 . S
C636 C635 1.398 . S
C636 C637 1.391 1_655 S
C637 H625 0.950 . S
C637 C633 1.393 . S
C637 C636 1.391 1_455 S
C638 H628 0.950 . S
C638 C639 1.386 . S
C638 C640 1.391 . S
C639 C638 1.386 . S
C639 C643 1.393 . S
C640 H629 0.950 . S
C640 C638 1.391 . S
C640 C641 1.400 . S
C641 C635 1.491 . S
C641 C640 1.400 . S
C641 C642 1.398 . S
C642 H630 0.950 . S
C642 C641 1.398 . S
C642 C643 1.391 . S
C643 H631 0.950 . S
C643 C639 1.393 . S
C643 C642 1.391 . S
H644 C652 0.950 . S
H645 C657 0.950 . S
H646 C654 0.950 . S
H647 C656 0.950 . S
H648 C658 0.950 . S
H649 C660 0.950 . S
H650 C662 0.950 . S
H651 C663 0.950 . S
C652 H644 0.950 . S
C652 C653 1.386 . S
C652 C654 1.391 . S
C653 C652 1.386 . S
C653 C657 1.393 . S
C654 H646 0.950 . S
C654 C652 1.391 . S
C654 C655 1.400 . S
C655 C654 1.400 . S
C655 C656 1.398 . S
C655 C661 1.491 . S
C656 H647 0.950 . S
C656 C655 1.398 . S
C656 C657 1.391 . S
C657 H645 0.950 . S
C657 C653 1.393 . S
C657 C656 1.391 . S
C658 H648 0.950 . S
C658 C659 1.386 . S
C658 C660 1.391 . S
C659 C658 1.386 . S
C659 C663 1.393 . S
C660 H649 0.950 . S
C660 C658 1.391 . S
C660 C661 1.400 . S
C661 C655 1.491 . S
C661 C660 1.400 . S
C661 C662 1.398 . S
C662 H650 0.950 . S
C662 C661 1.398 . S
C662 C663 1.391 . S
C663 H651 0.950 . S
C663 C659 1.393 . S
C663 C662 1.391 . S
H664 C672 0.950 . S
H665 C677 0.950 . S
H666 C674 0.950 . S
H667 C676 0.950 . S
H668 C678 0.950 . S
H669 C680 0.950 . S
H670 C682 0.950 . S
H671 C683 0.950 . S
C672 H664 0.950 . S
C672 C673 1.386 . S
C672 C674 1.391 1_455 S
C673 C672 1.386 . S
C673 C677 1.393 . S
C674 H666 0.950 . S
C674 C672 1.391 1_655 S
C674 C675 1.400 . S
C675 C674 1.400 . S
C675 C676 1.398 . S
C675 C681 1.491 . S
C676 H667 0.950 . S
C676 C675 1.398 . S
C676 C677 1.391 1_655 S
C677 H665 0.950 . S
C677 C673 1.393 . S
C677 C676 1.391 1_455 S
C678 H668 0.950 . S
C678 C679 1.386 . S
C678 C680 1.391 . S
C679 C678 1.386 . S
C679 C683 1.393 . S
C680 H669 0.950 . S
C680 C678 1.391 . S
C680 C681 1.400 . S
C681 C675 1.491 . S
C681 C680 1.400 . S
C681 C682 1.398 . S
C682 H670 0.950 . S
C682 C681 1.398 . S
C682 C683 1.391 . S
C683 H671 0.950 . S
C683 C679 1.393 . S
C683 C682 1.391 . S
H684 C692 0.950 . S
H685 C697 0.950 . S
H686 C694 0.950 . S
H687 C696 0.950 . S
H688 C698 0.950 . S
H689 C700 0.950 . S
H690 C702 0.950 . S
H691 C703 0.950 . S
C692 H684 0.950 . S
C692 C693 1.386 . S
C692 C694 1.391 . S
C693 C692 1.386 . S
C693 C697 1.393 . S
C694 H686 0.950 . S
C694 C692 1.391 . S
C694 C695 1.400 . S
C695 C694 1.400 . S
C695 C696 1.398 . S
C695 C701 1.491 . S
C696 H687 0.950 . S
C696 C695 1.398 . S
C696 C697 1.391 . S
C697 H685 0.950 . S
C697 C693 1.393 . S
C697 C696 1.391 . S
C698 H688 0.950 . S
C698 C699 1.386 . S
C698 C700 1.391 . S
C699 C698 1.386 . S
C699 C703 1.393 . S
C700 H689 0.950 . S
C700 C698 1.391 . S
C700 C701 1.400 . S
C701 C695 1.491 . S
C701 C700 1.400 . S
C701 C702 1.398 . S
C702 H690 0.950 . S
C702 C701 1.398 . S
C702 C703 1.391 . S
C703 H691 0.950 . S
C703 C699 1.393 . S
C703 C702 1.391 . S
H704 C712 0.950 . S
H705 C717 0.950 . S
H706 C714 0.950 . S
H707 C716 0.950 . S
H708 C718 0.950 . S
H709 C720 0.950 . S
H710 C722 0.950 . S
H711 C723 0.950 . S
C712 H704 0.950 . S
C712 C713 1.386 . S
C712 C714 1.391 . S
C713 C712 1.386 . S
C713 C717 1.393 . S
C714 H706 0.950 . S
C714 C712 1.391 . S
C714 C715 1.400 . S
C715 C714 1.400 . S
C715 C716 1.398 . S
C715 C721 1.491 . S
C716 H707 0.950 . S
C716 C715 1.398 . S
C716 C717 1.391 . S
C717 H705 0.950 . S
C717 C713 1.393 . S
C717 C716 1.391 . S
C718 H708 0.950 . S
C718 C719 1.386 . S
C718 C720 1.391 . S
C719 C718 1.386 . S
C719 C723 1.393 . S
C720 H709 0.950 . S
C720 C718 1.391 . S
C720 C721 1.400 . S
C721 C715 1.491 . S
C721 C720 1.400 . S
C721 C722 1.398 . S
C722 H710 0.950 . S
C722 C721 1.398 . S
C722 C723 1.391 . S
C723 H711 0.950 . S
C723 C719 1.393 . S
C723 C722 1.391 . S
H724 C732 0.950 . S
H725 C737 0.950 . S
H726 C734 0.950 . S
H727 C736 0.950 . S
H728 C738 0.950 . S
H729 C740 0.950 . S
H730 C742 0.950 . S
H731 C743 0.950 . S
C732 H724 0.950 . S
C732 C733 1.386 . S
C732 C734 1.391 . S
C733 C732 1.386 . S
C733 C737 1.393 . S
C734 H726 0.950 . S
C734 C732 1.391 . S
C734 C735 1.400 . S
C735 C734 1.400 . S
C735 C736 1.398 . S
C735 C741 1.491 . S
C736 H727 0.950 . S
C736 C735 1.398 . S
C736 C737 1.391 . S
C737 H725 0.950 . S
C737 C733 1.393 . S
C737 C736 1.391 . S
C738 H728 0.950 . S
C738 C739 1.386 . S
C738 C740 1.391 . S
C739 C738 1.386 . S
C739 C743 1.393 . S
C740 H729 0.950 . S
C740 C738 1.391 . S
C740 C741 1.400 . S
C741 C735 1.491 . S
C741 C740 1.400 . S
C741 C742 1.398 . S
C742 H730 0.950 . S
C742 C741 1.398 . S
C742 C743 1.391 . S
C743 H731 0.950 . S
C743 C739 1.393 . S
C743 C742 1.391 . S
H744 C752 0.950 . S
H745 C757 0.950 . S
H746 C754 0.950 . S
H747 C756 0.950 . S
H748 C758 0.950 . S
H749 C760 0.950 . S
H750 C762 0.950 . S
H751 C763 0.950 . S
C752 H744 0.950 . S
C752 C753 1.386 . S
C752 C754 1.391 . S
C753 C752 1.386 . S
C753 C757 1.393 . S
C754 H746 0.950 . S
C754 C752 1.391 . S
C754 C755 1.400 . S
C755 C754 1.400 . S
C755 C756 1.398 . S
C755 C761 1.491 . S
C756 H747 0.950 . S
C756 C755 1.398 . S
C756 C757 1.391 . S
C757 H745 0.950 . S
C757 C753 1.393 . S
C757 C756 1.391 . S
C758 H748 0.950 . S
C758 C759 1.386 . S
C758 C760 1.391 . S
C759 C758 1.386 . S
C759 C763 1.393 . S
C760 H749 0.950 . S
C760 C758 1.391 . S
C760 C761 1.400 . S
C761 C755 1.491 . S
C761 C760 1.400 . S
C761 C762 1.398 . S
C762 H750 0.950 . S
C762 C761 1.398 . S
C762 C763 1.391 . S
C763 H751 0.950 . S
C763 C759 1.393 . S
C763 C762 1.391 . S
H764 C772 0.950 . S
H765 C777 0.950 . S
H766 C774 0.950 . S
H767 C776 0.950 . S
H768 C778 0.950 . S
H769 C780 0.950 . S
H770 C782 0.950 . S
H771 C783 0.950 . S
C772 H764 0.950 . S
C772 C773 1.386 . S
C772 C774 1.391 . S
C773 C772 1.386 . S
C773 C777 1.393 . S
C774 H766 0.950 . S
C774 C772 1.391 . S
C774 C775 1.400 . S
C775 C774 1.400 . S
C775 C776 1.398 . S
C775 C781 1.491 . S
C776 H767 0.950 . S
C776 C775 1.398 . S
C776 C777 1.391 . S
C777 H765 0.950 . S
C777 C773 1.393 . S
C777 C776 1.391 . S
C778 H768 0.950 . S
C778 C779 1.386 . S
C778 C780 1.391 . S
C779 C778 1.386 . S
C779 C783 1.393 . S
C780 H769 0.950 . S
C780 C778 1.391 . S
C780 C781 1.400 . S
C781 C775 1.491 . S
C781 C780 1.400 . S
C781 C782 1.398 . S
C782 H770 0.950 . S
C782 C781 1.398 . S
C782 C783 1.391 . S
C783 H771 0.950 . S
C783 C779 1.393 . S
C783 C782 1.391 . S
H784 C792 0.950 . S
H785 C797 0.950 . S
H786 C794 0.950 . S
H787 C796 0.950 . S
H788 C798 0.950 . S
H789 C800 0.950 . S
H790 C802 0.950 . S
H791 C803 0.950 . S
C792 H784 0.950 . S
C792 C793 1.386 . S
C792 C794 1.391 . S
C793 C792 1.386 . S
C793 C797 1.393 . S
C794 H786 0.950 . S
C794 C792 1.391 . S
C794 C795 1.400 . S
C795 C794 1.400 . S
C795 C796 1.398 . S
C795 C801 1.491 . S
C796 H787 0.950 . S
C796 C795 1.398 . S
C796 C797 1.391 . S
C797 H785 0.950 . S
C797 C793 1.393 . S
C797 C796 1.391 . S
C798 H788 0.950 . S
C798 C799 1.386 . S
C798 C800 1.391 . S
C799 C798 1.386 . S
C799 C803 1.393 . S
C800 H789 0.950 . S
C800 C798 1.391 . S
C800 C801 1.400 . S
C801 C795 1.491 . S
C801 C800 1.400 . S
C801 C802 1.398 . S
C802 H790 0.950 . S
C802 C801 1.398 . S
C802 C803 1.391 . S
C803 H791 0.950 . S
C803 C799 1.393 . S
C803 C802 1.391 . S
H804 C812 0.950 . S
H805 C817 0.950 . S
H806 C814 0.950 . S
H807 C816 0.950 . S
H808 C818 0.950 . S
H809 C820 0.950 . S
H810 C822 0.950 . S
H811 C823 0.950 . S
C812 H804 0.950 . S
C812 C813 1.386 . S
C812 C814 1.391 . S
C813 C812 1.386 . S
C813 C817 1.393 . S
C814 H806 0.950 . S
C814 C812 1.391 . S
C814 C815 1.400 . S
C815 C814 1.400 . S
C815 C816 1.398 . S
C815 C821 1.491 . S
C816 H807 0.950 . S
C816 C815 1.398 . S
C816 C817 1.391 . S
C817 H805 0.950 . S
C817 C813 1.393 . S
C817 C816 1.391 . S
C818 H808 0.950 . S
C818 C819 1.386 . S
C818 C820 1.391 . S
C819 C818 1.386 . S
C819 C823 1.393 . S
C820 H809 0.950 . S
C820 C818 1.391 . S
C820 C821 1.400 . S
C821 C815 1.491 . S
C821 C820 1.400 . S
C821 C822 1.398 . S
C822 H810 0.950 . S
C822 C821 1.398 . S
C822 C823 1.391 . S
C823 H811 0.950 . S
C823 C819 1.393 . S
C823 C822 1.391 . S
H824 C832 0.950 . S
H825 C837 0.950 . S
H826 C834 0.950 . S
H827 C836 0.950 . S
H828 C838 0.950 . S
H829 C840 0.950 . S
H830 C842 0.950 . S
H831 C843 0.950 . S
C832 H824 0.950 . S
C832 C833 1.386 . S
C832 C834 1.391 . S
C833 C832 1.386 . S
C833 C837 1.393 . S
C834 H826 0.950 . S
C834 C832 1.391 . S
C834 C835 1.400 . S
C835 C834 1.400 . S
C835 C836 1.398 . S
C835 C841 1.491 . S
C836 H827 0.950 . S
C836 C835 1.398 . S
C836 C837 1.391 . S
C837 H825 0.950 . S
C837 C833 1.393 . S
C837 C836 1.391 . S
C838 H828 0.950 . S
C838 C839 1.386 . S
C838 C840 1.391 . S
C839 C838 1.386 . S
C839 C843 1.393 . S
C840 H829 0.950 . S
C840 C838 1.391 . S
C840 C841 1.400 . S
C841 C835 1.491 . S
C841 C840 1.400 . S
C841 C842 1.398 . S
C842 H830 0.950 . S
C842 C841 1.398 . S
C842 C843 1.391 . S
C843 H831 0.950 . S
C843 C839 1.393 . S
C843 C842 1.391 . S
H844 C852 0.950 . S
H845 C857 0.950 . S
H846 C854 0.950 . S
H847 C856 0.950 . S
H848 C858 0.950 . S
H849 C860 0.950 . S
H850 C862 0.950 . S
H851 C863 0.950 . S
C852 H844 0.950 . S
C852 C853 1.386 . S
C852 C854 1.391 . S
C853 C852 1.386 . S
C853 C857 1.393 . S
C854 H846 0.950 . S
C854 C852 1.391 . S
C854 C855 1.400 . S
C855 C854 1.400 . S
C855 C856 1.398 . S
C855 C861 1.491 . S
C856 H847 0.950 . S
C856 C855 1.398 . S
C856 C857 1.391 . S
C857 H845 0.950 . S
C857 C853 1.393 . S
C857 C856 1.391 . S
C858 H848 0.950 . S
C858 C859 1.386 . S
C858 C860 1.391 . S
C859 C858 1.386 . S
C859 C863 1.393 . S
C860 H849 0.950 . S
C860 C858 1.391 . S
C860 C861 1.400 . S
C861 C855 1.491 . S
C861 C860 1.400 . S
C861 C862 1.398 . S
C862 H850 0.950 . S
C862 C861 1.398 . S
C862 C863 1.391 . S
C863 H851 0.950 . S
C863 C859 1.393 . S
C863 C862 1.391 . S
C233 C6 1.609 . S
C239 C176 1.665 . S
C253 C190 1.669 . S
C259 C20 1.588 . S
C273 C34 1.588 . S
C279 C204 1.669 . S
C293 C218 1.665 . S
C299 C48 1.611 . S
C313 C118 1.612 . S
C319 C64 1.666 . S
C333 C78 1.672 . S
C339 C132 1.585 . S
C353 C146 1.596 . S
C359 C92 1.673 . S
C373 C106 1.670 . S
C379 C160 1.605 . S
C393 C7 1.635 . S
C399 C35 1.633 . S
C413 C21 1.631 . S
C419 C49 1.632 . S
C433 C63 1.411 . S
C439 C91 1.412 . S
C453 C77 1.423 . S
C459 C105 1.423 . S
C473 C147 1.637 . S
C479 C119 1.634 . S
C493 C133 1.646 . S
C499 C161 1.643 . S
C513 C203 1.406 . S
C519 C175 1.407 . S
C533 C189 1.417 . S
C539 C217 1.418 . S
C553 C93 1.542 . S
C559 C9 1.561 . S
C573 C107 1.529 . S
C579 C23 1.568 . S
C593 C37 1.558 . S
C599 C65 1.547 . S
C613 C51 1.564 . S
C619 C79 1.537 . S
C633 C205 1.529 . S
C639 C121 1.567 . S
C653 C135 1.557 . S
C659 C219 1.547 . S
C673 C177 1.545 . S
C679 C149 1.559 . S
C693 C163 1.561 . S
C699 C191 1.543 . S
C713 C8 1.547 . S
C719 C50 1.552 . S
C733 C36 1.549 . S
C739 C22 1.552 . S
C753 C62 1.561 . S
C759 C104 1.554 . S
C773 C76 1.560 . S
C779 C90 1.561 . S
C793 C162 1.552 . S
C799 C120 1.548 . S
C813 C134 1.547 . S
C819 C148 1.550 . S
C833 C216 1.545 . S
C839 C174 1.553 . S
C853 C188 1.558 . S
C859 C202 1.549 . S
