# Generated by pormake.
# Topology sra, (4)-cn, num edge types: 1
# Building blocks:
#     Node 0, Type 0, BuildingBlock: GALJAG_clean_sbu_0, # of connection points: 4
#     Node 1, Type 0, BuildingBlock: GALJAG_clean_sbu_0, # of connection points: 4
#     Node 2, Type 0, BuildingBlock: GALJAG_clean_sbu_0, # of connection points: 4
#     Node 3, Type 0, BuildingBlock: GALJAG_clean_sbu_0, # of connection points: 4
#     Node 4, Type 0, BuildingBlock: GALJAG_clean_sbu_0, # of connection points: 4
#     Node 5, Type 0, BuildingBlock: GALJAG_clean_sbu_0, # of connection points: 4
#     Node 6, Type 0, BuildingBlock: GALJAG_clean_sbu_0, # of connection points: 4
#     Node 7, Type 0, BuildingBlock: GALJAG_clean_sbu_0, # of connection points: 4
#     Edge 8, Type (0, 0), BuildingBlock: ZUJKAS_clean_linker_0, # of connection points: 2
#     Edge 9, Type (0, 0), BuildingBlock: ZUJKAS_clean_linker_0, # of connection points: 2
#     Edge 10, Type (0, 0), BuildingBlock: ZUJKAS_clean_linker_0, # of connection points: 2
#     Edge 11, Type (0, 0), BuildingBlock: ZUJKAS_clean_linker_0, # of connection points: 2
#     Edge 12, Type (0, 0), BuildingBlock: ZUJKAS_clean_linker_0, # of connection points: 2
#     Edge 13, Type (0, 0), BuildingBlock: ZUJKAS_clean_linker_0, # of connection points: 2
#     Edge 14, Type (0, 0), BuildingBlock: ZUJKAS_clean_linker_0, # of connection points: 2
#     Edge 15, Type (0, 0), BuildingBlock: ZUJKAS_clean_linker_0, # of connection points: 2
#     Edge 16, Type (0, 0), BuildingBlock: ZUJKAS_clean_linker_0, # of connection points: 2
#     Edge 17, Type (0, 0), BuildingBlock: ZUJKAS_clean_linker_0, # of connection points: 2
#     Edge 18, Type (0, 0), BuildingBlock: ZUJKAS_clean_linker_0, # of connection points: 2
#     Edge 19, Type (0, 0), BuildingBlock: ZUJKAS_clean_linker_0, # of connection points: 2
#     Edge 20, Type (0, 0), BuildingBlock: ZUJKAS_clean_linker_0, # of connection points: 2
#     Edge 21, Type (0, 0), BuildingBlock: ZUJKAS_clean_linker_0, # of connection points: 2
#     Edge 22, Type (0, 0), BuildingBlock: ZUJKAS_clean_linker_0, # of connection points: 2
#     Edge 23, Type (0, 0), BuildingBlock: ZUJKAS_clean_linker_0, # of connection points: 2
# Relax obj value: 0.075
# Max RMSD: 0.110
# Mean RMSD: 0.110
data_MOF--net-sra--node1-GALJAG_clean_sbu_0--edge1-ZUJKAS_clean_linker_0
_symmetry_space_group_name_H-M    P1
_symmetry_Int_Tables_number       1
_symmetry_cell_setting            triclinic
loop_
_symmetry_equiv_pos_as_xyz
'x, y, z'
_cell_length_a     36.915052
_cell_length_b     70.130383
_cell_length_c     37.047412
_cell_angle_alpha  89.912643
_cell_angle_beta   89.996986
_cell_angle_gamma 90.003584
loop_
_atom_site_label
_atom_site_type_symbol
_atom_site_fract_x
_atom_site_fract_y
_atom_site_fract_z
_atom_type_partial_charge
In0 In 0.03212 0.10463 0.15575 0.0
O1 O 0.0328 0.08977 0.10127 0.0
O2 O 0.04232 0.07302 0.14835 0.0
C3 C 0.02386 0.14086 0.13343 0.0
C4 C 0.96536 0.09799 0.18189 0.0
C5 C 0.09692 0.10582 0.1894 0.0
O6 O 0.03955 0.12849 0.11428 0.0
O7 O 0.01256 0.13497 0.16356 0.0
O8 O 0.06858 0.10035 0.20556 0.0
O9 O 0.0921 0.1109 0.15715 0.0
C10 C 0.03926 0.07349 0.11444 0.0
O11 O 0.99176 0.10191 0.20242 0.0
O12 O 0.97298 0.09725 0.14872 0.0
In13 In 0.03386 0.37981 0.14913 0.0
O14 O 0.03207 0.39396 0.09385 0.0
O15 O 0.02755 0.41158 0.14047 0.0
C16 C 0.03792 0.34275 0.13134 0.0
C17 C 0.10141 0.38529 0.17428 0.0
C18 C 0.96837 0.38082 0.18138 0.0
O19 O 0.02775 0.35529 0.10904 0.0
O20 O 0.04609 0.34894 0.16223 0.0
O21 O 0.9971 0.38478 0.19842 0.0
O22 O 0.97308 0.37619 0.1489 0.0
C23 C 0.02824 0.41057 0.10647 0.0
O24 O 0.0743 0.38424 0.19513 0.0
O25 O 0.09418 0.38373 0.14111 0.0
In26 In 0.03394 0.88242 0.83436 0.0
O27 O 0.99272 0.8931 0.79279 0.0
O28 O 0.97361 0.87704 0.8378 0.0
C29 C 0.09861 0.88765 0.80194 0.0
C30 C 0.03156 0.91087 0.88254 0.0
C31 C 0.03994 0.84499 0.8483 0.0
O32 O 0.06988 0.88549 0.78381 0.0
O33 O 0.0943 0.88728 0.83562 0.0
O34 O 0.04576 0.85748 0.87212 0.0
O35 O 0.031 0.85139 0.81771 0.0
C36 C 0.9659 0.88599 0.80926 0.0
O37 O 0.03207 0.89356 0.89208 0.0
O38 O 0.03181 0.91367 0.8489 0.0
In39 In 0.03955 0.60707 0.84005 0.0
O40 O 0.03679 0.5934 0.89583 0.0
O41 O 0.02523 0.57616 0.84995 0.0
C42 C 0.0524 0.64335 0.85954 0.0
C43 C 0.10533 0.59777 0.81433 0.0
C44 C 0.97502 0.6093 0.80601 0.0
O45 O 0.03502 0.63198 0.87954 0.0
O46 O 0.06305 0.63646 0.82999 0.0
O47 O 0.00251 0.60205 0.79099 0.0
O48 O 0.98066 0.61577 0.83718 0.0
C49 C 0.02814 0.57717 0.88382 0.0
O50 O 0.07969 0.60278 0.79367 0.0
O51 O 0.09741 0.59725 0.84745 0.0
In52 In 0.53845 0.60395 0.66113 0.0
O53 O 0.50069 0.59539 0.70776 0.0
O54 O 0.47756 0.60702 0.65996 0.0
C55 C 0.60607 0.59897 0.68694 0.0
C56 C 0.53373 0.57491 0.61448 0.0
C57 C 0.54159 0.64151 0.64701 0.0
O58 O 0.57909 0.60081 0.7077 0.0
O59 O 0.59865 0.5994 0.65375 0.0
O60 O 0.53972 0.62921 0.62222 0.0
O61 O 0.54177 0.63482 0.67863 0.0
C62 C 0.47225 0.60021 0.69101 0.0
O63 O 0.53503 0.59209 0.6042 0.0
O64 O 0.53494 0.57246 0.64825 0.0
In65 In 0.5343 0.88128 0.6526 0.0
O66 O 0.57071 0.89085 0.69946 0.0
O67 O 0.59449 0.87584 0.6555 0.0
C68 C 0.46566 0.88554 0.67579 0.0
C69 C 0.54088 0.91085 0.60707 0.0
C70 C 0.5331 0.84367 0.6399 0.0
O71 O 0.4923 0.88598 0.69726 0.0
O72 O 0.47387 0.88305 0.6431 0.0
O73 O 0.53605 0.85574 0.61464 0.0
O74 O 0.53045 0.85067 0.67118 0.0
C75 C 0.59912 0.88402 0.6854 0.0
O76 O 0.53945 0.89384 0.59593 0.0
O77 O 0.53899 0.91276 0.64085 0.0
In78 In 0.53404 0.38347 0.33414 0.0
O79 O 0.49622 0.38896 0.28596 0.0
O80 O 0.47306 0.38166 0.33675 0.0
C81 C 0.60189 0.38816 0.30889 0.0
C82 C 0.52977 0.41389 0.37757 0.0
C83 C 0.53688 0.34611 0.35014 0.0
O84 O 0.57476 0.38779 0.28802 0.0
O85 O 0.59452 0.38634 0.34194 0.0
O86 O 0.5345 0.35872 0.37433 0.0
O87 O 0.5377 0.3524 0.31824 0.0
C88 C 0.46774 0.38595 0.30413 0.0
O89 O 0.53069 0.39704 0.38968 0.0
O90 O 0.53109 0.41532 0.3436 0.0
In91 In 0.53279 0.10726 0.33834 0.0
O92 O 0.57019 0.10065 0.29042 0.0
O93 O 0.59372 0.10927 0.34029 0.0
C94 C 0.46452 0.1031 0.31405 0.0
C95 C 0.53736 0.07653 0.38105 0.0
C96 C 0.53208 0.14466 0.35378 0.0
O97 O 0.49128 0.10382 0.29273 0.0
O98 O 0.47244 0.10444 0.34705 0.0
O99 O 0.53331 0.13208 0.37822 0.0
O100 O 0.53097 0.13829 0.32197 0.0
C101 C 0.59879 0.10412 0.30809 0.0
O102 O 0.53633 0.09327 0.39366 0.0
O103 O 0.53593 0.07541 0.34707 0.0
H104 H -0.00169 0.32397 0.08033 0.0
H105 H 0.9931 0.28931 0.07285 0.0
H106 H 0.0745 0.28098 0.15498 0.0
H107 H 0.07841 0.31543 0.16377 0.0
H108 H 0.03699 0.26019 0.05559 0.0
H109 H 0.9911 0.25189 0.1968 0.0
H110 H 0.99589 0.27492 0.17568 0.0
H111 H 0.03475 0.26301 0.19469 0.0
C112 C 0.01526 0.31469 0.09652 0.0
C113 C 0.0383 0.32226 0.12305 0.0
C114 C 0.01229 0.29494 0.09222 0.0
C115 C 0.03265 0.28258 0.11411 0.0
C116 C 0.05763 0.29024 0.13869 0.0
H117 H 0.07113 0.16177 0.09324 0.0
H118 H 0.06997 0.19631 0.08391 0.0
C119 C 0.06001 0.3099 0.14354 0.0
C120 C 0.02665 0.26172 0.11274 0.0
H121 H 0.0091 0.22343 0.16661 0.0
C122 C 0.03052 0.25211 0.07974 0.0
C123 C 0.01717 0.25128 0.14406 0.0
C124 C 0.00907 0.26084 0.17968 0.0
C125 C 0.02646 0.23222 0.07752 0.0
C126 C 0.01958 0.22166 0.10942 0.0
C127 C 0.01467 0.23142 0.14213 0.0
C128 C 0.01815 0.20051 0.11029 0.0
C129 C 0.0291 0.22286 0.04098 0.0
C130 C 0.98968 0.19131 0.12851 0.0
C131 C 0.99108 0.17174 0.13506 0.0
C132 C 0.0205 0.16094 0.12269 0.0
C133 C 0.04798 0.16984 0.10267 0.0
C134 C 0.04714 0.18956 0.09704 0.0
H135 H 0.02104 0.23287 0.01913 0.0
H136 H 0.05762 0.21862 0.03597 0.0
H137 H 0.01174 0.20996 0.03933 0.0
H138 H 0.96699 0.1994 0.13894 0.0
H139 H 0.96949 0.16511 0.15042 0.0
H140 H 0.07947 0.82771 0.90134 0.0
H141 H 0.0892 0.79337 0.90968 0.0
H142 H 0.01727 0.78186 0.82047 0.0
H143 H 0.00908 0.81603 0.81092 0.0
H144 H 0.04749 0.76432 0.9255 0.0
H145 H 0.10369 0.75237 0.78949 0.0
H146 H 0.09597 0.77597 0.8071 0.0
H147 H 0.05959 0.76286 0.78613 0.0
C148 C 0.06584 0.81779 0.88354 0.0
C149 C 0.04394 0.82443 0.85519 0.0
C150 C 0.07139 0.79822 0.88831 0.0
C151 C 0.05477 0.78506 0.86505 0.0
C152 C 0.03147 0.79175 0.83788 0.0
H153 H 0.0067 0.66684 0.89591 0.0
H154 H 0.01197 0.70143 0.90202 0.0
C155 C 0.02656 0.81126 0.83262 0.0
C156 C 0.06149 0.76433 0.86901 0.0
H157 H 0.08089 0.72457 0.82007 0.0
C158 C 0.05534 0.75562 0.90261 0.0
C159 C 0.07286 0.75304 0.8395 0.0
C160 C 0.08382 0.76161 0.8037 0.0
C161 C 0.05842 0.73578 0.90697 0.0
C162 C 0.06642 0.72433 0.87654 0.0
C163 C 0.07425 0.73321 0.84342 0.0
C164 C 0.06523 0.70316 0.87748 0.0
C165 C 0.05333 0.72745 0.94419 0.0
C166 C 0.09306 0.69253 0.86121 0.0
C167 C 0.08931 0.67291 0.85638 0.0
C168 C 0.05813 0.66349 0.86861 0.0
C169 C 0.03119 0.67383 0.88669 0.0
C170 C 0.0344 0.69358 0.8905 0.0
H171 H 0.06183 0.73774 0.96533 0.0
H172 H 0.02418 0.72434 0.94854 0.0
H173 H 0.06902 0.71407 0.94776 0.0
H174 H 0.11713 0.69953 0.85097 0.0
H175 H 0.11048 0.66515 0.84245 0.0
H176 H 0.53998 0.65973 0.58161 0.0
H177 H 0.54269 0.69425 0.57061 0.0
H178 H 0.54924 0.70419 0.68529 0.0
H179 H 0.5469 0.66993 0.69645 0.0
H180 H 0.49473 0.72256 0.59649 0.0
H181 H 0.6346 0.73496 0.6449 0.0
H182 H 0.61784 0.71152 0.63356 0.0
H183 H 0.60773 0.72188 0.67682 0.0
C184 C 0.54221 0.66931 0.60441 0.0
C185 C 0.5434 0.66218 0.63988 0.0
C186 C 0.54375 0.68897 0.59808 0.0
C187 C 0.54682 0.70168 0.62711 0.0
C188 C 0.54771 0.69456 0.66249 0.0
H189 H 0.53029 0.81579 0.69073 0.0
H190 H 0.53444 0.7814 0.68154 0.0
C191 C 0.54613 0.67499 0.66883 0.0
C192 C 0.54761 0.7225 0.62103 0.0
H193 H 0.59551 0.76243 0.64285 0.0
C194 C 0.51704 0.73131 0.60588 0.0
C195 C 0.5769 0.73379 0.63313 0.0
C196 C 0.61128 0.72504 0.64767 0.0
C197 C 0.514 0.75126 0.60476 0.0
C198 C 0.54237 0.76249 0.61891 0.0
C199 C 0.57373 0.75369 0.63226 0.0
C200 C 0.5387 0.78329 0.62342 0.0
C201 C 0.47977 0.76021 0.59036 0.0
C202 C 0.53965 0.79565 0.59365 0.0
C203 C 0.53734 0.81538 0.59881 0.0
C204 C 0.53406 0.82291 0.63381 0.0
C205 C 0.53276 0.81041 0.66344 0.0
C206 C 0.53518 0.79078 0.65827 0.0
H207 H 0.4589 0.74941 0.58343 0.0
H208 H 0.4683 0.7702 0.6106 0.0
H209 H 0.48615 0.76858 0.56572 0.0
H210 H 0.54267 0.79006 0.56657 0.0
H211 H 0.5385 0.8247 0.57551 0.0
H212 H 0.53312 0.32854 0.41618 0.0
H213 H 0.53627 0.29414 0.42854 0.0
H214 H 0.54745 0.28313 0.31458 0.0
H215 H 0.54456 0.31723 0.30207 0.0
H216 H 0.48987 0.26489 0.40075 0.0
H217 H 0.63266 0.25383 0.36028 0.0
H218 H 0.61447 0.2771 0.37073 0.0
H219 H 0.60714 0.26669 0.32696 0.0
C220 C 0.53642 0.31875 0.39384 0.0
C221 C 0.53876 0.32553 0.35818 0.0
C222 C 0.53821 0.29916 0.40095 0.0
C223 C 0.54274 0.28619 0.37251 0.0
C224 C 0.54474 0.29296 0.33695 0.0
H225 H 0.53188 0.17348 0.30484 0.0
H226 H 0.53531 0.20765 0.31651 0.0
C227 C 0.54286 0.31244 0.32983 0.0
C228 C 0.54406 0.26544 0.37926 0.0
H229 H 0.59432 0.226 0.35976 0.0
C230 C 0.51297 0.25634 0.39265 0.0
C231 C 0.57437 0.25443 0.36887 0.0
C232 C 0.60919 0.26353 0.35625 0.0
C233 C 0.51045 0.23637 0.39334 0.0
C234 C 0.53987 0.22541 0.38056 0.0
C235 C 0.57175 0.23452 0.36932 0.0
C236 C 0.53672 0.20469 0.37461 0.0
C237 C 0.47569 0.22708 0.40554 0.0
C238 C 0.53631 0.19179 0.40356 0.0
C239 C 0.5344 0.17216 0.39697 0.0
C240 C 0.53289 0.16529 0.36136 0.0
C241 C 0.533 0.17833 0.33256 0.0
C242 C 0.53501 0.19785 0.33915 0.0
H243 H 0.45441 0.2377 0.41226 0.0
H244 H 0.46528 0.21748 0.3841 0.0
H245 H 0.481 0.21822 0.42983 0.0
H246 H 0.53791 0.19688 0.4311 0.0
H247 H 0.53443 0.1624 0.41965 0.0
H248 H 0.40534 0.09589 0.35552 0.0
H249 H 0.34212 0.09415 0.33639 0.0
H250 H 0.37443 0.10528 0.22643 0.0
H251 H 0.43802 0.10648 0.24531 0.0
H252 H 0.30152 0.12159 0.30674 0.0
H253 H 0.30828 0.06017 0.21316 0.0
H254 H 0.34463 0.06592 0.24384 0.0
H255 H 0.34002 0.07858 0.20178 0.0
C256 C 0.39903 0.09777 0.32718 0.0
C257 C 0.4266 0.10127 0.30184 0.0
C258 C 0.36288 0.09679 0.31631 0.0
C259 C 0.35354 0.09932 0.27993 0.0
C260 C 0.38106 0.1028 0.25452 0.0
H261 H 0.16009 0.11627 0.15757 0.0
H262 H 0.22117 0.11421 0.18236 0.0
C263 C 0.41735 0.1036 0.26534 0.0
C264 C 0.31487 0.0993 0.26902 0.0
H265 H 0.25462 0.07923 0.21037 0.0
C266 C 0.29117 0.11218 0.28595 0.0
C267 C 0.30136 0.08694 0.24205 0.0
C268 C 0.32481 0.07199 0.22442 0.0
C269 C 0.25463 0.11348 0.27574 0.0
C270 C 0.2415 0.10153 0.24803 0.0
C271 C 0.26493 0.08841 0.23158 0.0
C272 C 0.20407 0.10319 0.23416 0.0
C273 C 0.23057 0.12801 0.29376 0.0
C274 C 0.1742 0.09773 0.25525 0.0
C275 C 0.13905 0.09886 0.24111 0.0
C276 C 0.13344 0.10548 0.20571 0.0
C277 C 0.16348 0.11113 0.18495 0.0
C278 C 0.19843 0.10993 0.19901 0.0
H279 H 0.2462 0.13807 0.3109 0.0
H280 H 0.21534 0.13631 0.2732 0.0
H281 H 0.21053 0.12056 0.31108 0.0
H282 H 0.17813 0.09231 0.28236 0.0
H283 H 0.11642 0.09433 0.25763 0.0
H284 H 0.66215 0.39355 0.34976 0.0
H285 H 0.72511 0.39464 0.32966 0.0
H286 H 0.6903 0.38695 0.21948 0.0
H287 H 0.62698 0.38633 0.23939 0.0
H288 H 0.76266 0.36677 0.29652 0.0
H289 H 0.76005 0.43108 0.20944 0.0
H290 H 0.72384 0.42537 0.24037 0.0
H291 H 0.72649 0.41376 0.19716 0.0
C292 C 0.66785 0.39231 0.32118 0.0
C293 C 0.63965 0.3899 0.29609 0.0
C294 C 0.70385 0.39292 0.30976 0.0
C295 C 0.71242 0.39111 0.27305 0.0
C296 C 0.68428 0.38883 0.24786 0.0
H297 H 0.90441 0.37426 0.1475 0.0
H298 H 0.8434 0.37723 0.17216 0.0
C299 C 0.64814 0.38837 0.25926 0.0
C300 C 0.75089 0.39055 0.26154 0.0
H301 H 0.81228 0.41115 0.20463 0.0
C302 C 0.77362 0.3766 0.2767 0.0
C303 C 0.76516 0.40343 0.23578 0.0
C304 C 0.74272 0.41938 0.22 0.0
C305 C 0.80992 0.37481 0.26597 0.0
C306 C 0.82387 0.38739 0.23962 0.0
C307 C 0.80138 0.40152 0.22484 0.0
C308 C 0.86117 0.38546 0.22551 0.0
C309 C 0.8328 0.35911 0.28201 0.0
C310 C 0.89141 0.38914 0.24744 0.0
C311 C 0.9265 0.38747 0.23339 0.0
C312 C 0.93172 0.3821 0.19723 0.0
C313 C 0.90131 0.37838 0.1755 0.0
C314 C 0.8664 0.38012 0.18948 0.0
H315 H 0.81629 0.34864 0.2974 0.0
H316 H 0.84781 0.35144 0.26048 0.0
H317 H 0.85301 0.36542 0.30066 0.0
H318 H 0.88783 0.39349 0.27526 0.0
H319 H 0.94944 0.3905 0.25068 0.0
H320 H 0.16149 0.89478 0.83718 0.0
H321 H 0.2225 0.89602 0.81219 0.0
H322 H 0.17969 0.88603 0.70557 0.0
H323 H 0.118 0.88495 0.73049 0.0
H324 H 0.25547 0.86562 0.77477 0.0
H325 H 0.24963 0.93176 0.69181 0.0
H326 H 0.21705 0.92663 0.72689 0.0
H327 H 0.21424 0.9146 0.68426 0.0
C328 C 0.16491 0.89304 0.80833 0.0
C329 C 0.13496 0.88972 0.78576 0.0
C330 C 0.19982 0.89375 0.79413 0.0
C331 C 0.20557 0.89124 0.75707 0.0
C332 C 0.17572 0.88829 0.73421 0.0
H333 H 0.40523 0.88394 0.63383 0.0
H334 H 0.34203 0.8854 0.65327 0.0
C335 C 0.14058 0.8876 0.74846 0.0
C336 C 0.24312 0.89057 0.74316 0.0
H337 H 0.30388 0.9139 0.6895 0.0
C338 C 0.2661 0.87617 0.75612 0.0
C339 C 0.25672 0.90431 0.71873 0.0
C340 C 0.23331 0.92031 0.70471 0.0
C341 C 0.30243 0.87511 0.74531 0.0
C342 C 0.3163 0.88907 0.72146 0.0
C343 C 0.29318 0.90331 0.708 0.0
C344 C 0.35469 0.88895 0.70986 0.0
C345 C 0.32545 0.85886 0.75908 0.0
C346 C 0.38275 0.8908 0.73522 0.0
C347 C 0.41896 0.88989 0.72423 0.0
C348 C 0.42761 0.88726 0.68766 0.0
C349 C 0.39942 0.88591 0.66225 0.0
C350 C 0.3633 0.88678 0.67326 0.0
H351 H 0.30862 0.84685 0.76917 0.0
H352 H 0.34372 0.85344 0.73761 0.0
H353 H 0.34243 0.864 0.78179 0.0
H354 H 0.37664 0.89286 0.76354 0.0
H355 H 0.44012 0.89111 0.74435 0.0
H356 H 0.6652 0.5887 0.64791 0.0
H357 H 0.72842 0.58852 0.66732 0.0
H358 H 0.69577 0.60666 0.77371 0.0
H359 H 0.6322 0.60627 0.75468 0.0
H360 H 0.76768 0.61819 0.68934 0.0
H361 H 0.76425 0.56402 0.79829 0.0
H362 H 0.72741 0.5671 0.76681 0.0
H363 H 0.73188 0.58274 0.80503 0.0
C364 C 0.67145 0.59238 0.67561 0.0
C365 C 0.6438 0.59745 0.69985 0.0
C366 C 0.70759 0.5923 0.68664 0.0
C367 C 0.71687 0.59736 0.72207 0.0
C368 C 0.68923 0.60224 0.74648 0.0
H369 H 0.91326 0.62331 0.83567 0.0
H370 H 0.85149 0.62032 0.81288 0.0
C371 C 0.65294 0.60211 0.73556 0.0
C372 C 0.75558 0.59863 0.73263 0.0
H373 H 0.81725 0.58352 0.79513 0.0
C374 C 0.77859 0.61045 0.71225 0.0
C375 C 0.76983 0.58849 0.76248 0.0
C376 C 0.74714 0.57473 0.78419 0.0
C377 C 0.81519 0.6128 0.72149 0.0
C378 C 0.82911 0.60302 0.7518 0.0
C379 C 0.80633 0.59103 0.77193 0.0
C380 C 0.86693 0.60561 0.76401 0.0
C381 C 0.83854 0.62609 0.69947 0.0
C382 C 0.89608 0.59845 0.7438 0.0
C383 C 0.93158 0.60011 0.75679 0.0
C384 C 0.93829 0.60894 0.79017 0.0
C385 C 0.90901 0.61644 0.80984 0.0
C386 C 0.87367 0.61472 0.79695 0.0
H387 H 0.82232 0.63481 0.68032 0.0
H388 H 0.85402 0.63579 0.71743 0.0
H389 H 0.85837 0.61762 0.68371 0.0
H390 H 0.89129 0.59122 0.71844 0.0
H391 H 0.9536 0.59411 0.74117 0.0
H392 H 0.6224 0.91021 0.73507 0.0
H393 H 0.68469 0.91475 0.75681 0.0
H394 H 0.71919 0.866 0.69471 0.0
H395 H 0.65776 0.86201 0.67181 0.0
H396 H 0.72979 0.89397 0.79486 0.0
H397 H 0.79056 0.90448 0.66035 0.0
H398 H 0.7422 0.90414 0.66722 0.0
H399 H 0.76702 0.88216 0.66193 0.0
C400 C 0.64337 0.90049 0.72618 0.0
C401 C 0.63546 0.88591 0.70147 0.0
C402 C 0.67891 0.90311 0.7385 0.0
C403 C 0.70687 0.89107 0.7265 0.0
C404 C 0.69844 0.87593 0.70324 0.0
H405 H 0.90812 0.86432 0.82842 0.0
H406 H 0.84537 0.86783 0.80896 0.0
C407 C 0.66323 0.87354 0.69045 0.0
C408 C 0.7448 0.89393 0.73866 0.0
H409 H 0.83186 0.89522 0.70778 0.0
C410 C 0.75209 0.89452 0.77582 0.0
C411 C 0.77392 0.89525 0.71388 0.0
C412 C 0.76796 0.89671 0.67365 0.0
C413 C 0.78777 0.89532 0.78884 0.0
C414 C 0.81698 0.89476 0.76403 0.0
C415 C 0.80959 0.89525 0.72688 0.0
C416 C 0.85525 0.8928 0.7759 0.0
C417 C 0.79362 0.89684 0.82905 0.0
C418 C 0.8822 0.90506 0.7624 0.0
C419 C 0.91841 0.90269 0.77266 0.0
C420 C 0.92816 0.88815 0.79686 0.0
C421 C 0.90128 0.8758 0.81005 0.0
C422 C 0.8653 0.87794 0.79927 0.0
H423 H 0.77053 0.90421 0.8423 0.0
H424 H 0.7954 0.8823 0.84079 0.0
H425 H 0.81891 0.90469 0.83551 0.0
H426 H 0.8752 0.91652 0.74404 0.0
H427 H 0.93864 0.91242 0.76216 0.0
H428 H 0.45218 0.58618 0.75731 0.0
H429 H 0.3902 0.58198 0.7803 0.0
H430 H 0.34746 0.60463 0.68075 0.0
H431 H 0.40881 0.60875 0.65765 0.0
H432 H 0.33631 0.61072 0.78858 0.0
H433 H 0.29144 0.55436 0.69382 0.0
H434 H 0.33862 0.56004 0.70105 0.0
H435 H 0.3113 0.57468 0.6719 0.0
C436 C 0.42951 0.59019 0.74036 0.0
C437 C 0.43532 0.59774 0.70567 0.0
C438 C 0.39421 0.58776 0.75346 0.0
C439 C 0.36431 0.59266 0.73192 0.0
C440 C 0.37014 0.60035 0.69747 0.0
H441 H 0.13314 0.60415 0.7469 0.0
H442 H 0.19663 0.6013 0.72819 0.0
C443 C 0.40526 0.60283 0.68444 0.0
C444 C 0.32688 0.59066 0.74574 0.0
H445 H 0.2449 0.57048 0.72665 0.0
C446 C 0.31638 0.60173 0.77542 0.0
C447 C 0.30101 0.57897 0.72832 0.0
C448 C 0.31117 0.56619 0.6972 0.0
C449 C 0.28028 0.60206 0.78728 0.0
C450 C 0.25421 0.59067 0.76938 0.0
C451 C 0.26491 0.57924 0.74023 0.0
C452 C 0.21549 0.5909 0.77992 0.0
C453 C 0.27012 0.61519 0.81791 0.0
C454 C 0.20496 0.58543 0.8148 0.0
C455 C 0.16887 0.58715 0.82557 0.0
C456 C 0.14257 0.59415 0.8015 0.0
C457 C 0.15283 0.59874 0.76602 0.0
C458 C 0.18905 0.59713 0.75533 0.0
H459 H 0.2911 0.62627 0.82263 0.0
H460 H 0.24388 0.62238 0.81249 0.0
H461 H 0.26727 0.60673 0.84308 0.0
H462 H 0.22478 0.58015 0.8339 0.0
H463 H 0.16169 0.58332 0.85299 0.0
H464 H 0.61853 0.09248 0.24014 0.0
H465 H 0.68041 0.08854 0.21677 0.0
H466 H 0.72365 0.10726 0.31887 0.0
H467 H 0.66241 0.11106 0.34238 0.0
H468 H 0.73559 0.11658 0.2116 0.0
H469 H 0.77735 0.05694 0.30076 0.0
H470 H 0.73051 0.06354 0.29425 0.0
H471 H 0.75871 0.0769 0.32467 0.0
C472 C 0.64128 0.0957 0.25755 0.0
C473 C 0.63565 0.10199 0.29311 0.0
C474 C 0.67653 0.09342 0.24422 0.0
C475 C 0.70653 0.09726 0.26637 0.0
C476 C 0.70088 0.10379 0.30165 0.0
H477 H 0.93903 0.10431 0.24993 0.0
H478 H 0.87553 0.10304 0.26936 0.0
C479 C 0.66583 0.10608 0.31493 0.0
C480 C 0.74392 0.0952 0.25247 0.0
H481 H 0.82467 0.07314 0.26923 0.0
C482 C 0.755 0.10692 0.22385 0.0
C483 C 0.76913 0.08264 0.2687 0.0
C484 C 0.75831 0.06915 0.29858 0.0
C485 C 0.79105 0.10694 0.21182 0.0
C486 C 0.81644 0.09461 0.22846 0.0
C487 C 0.80517 0.08262 0.25665 0.0
C488 C 0.85495 0.0942 0.2173 0.0
C489 C 0.80191 0.12065 0.18229 0.0
C490 C 0.86442 0.08913 0.18195 0.0
C491 C 0.9005 0.08993 0.1708 0.0
C492 C 0.92783 0.09561 0.19493 0.0
C493 C 0.91852 0.09991 0.23077 0.0
C494 C 0.88231 0.0992 0.24186 0.0
H495 H 0.78175 0.13227 0.17882 0.0
H496 H 0.82874 0.12712 0.18803 0.0
H497 H 0.80385 0.11282 0.15636 0.0
H498 H 0.84382 0.08479 0.16283 0.0
H499 H 0.90689 0.08635 0.14309 0.0
H500 H 0.16248 0.38954 0.13381 0.0
H501 H 0.22518 0.39099 0.15498 0.0
H502 H 0.18824 0.38726 0.26518 0.0
H503 H 0.12529 0.3857 0.24421 0.0
H504 H 0.25931 0.41725 0.20456 0.0
H505 H 0.26056 0.34221 0.25304 0.0
H506 H 0.22638 0.35123 0.22263 0.0
H507 H 0.22412 0.35665 0.26994 0.0
C508 C 0.16766 0.38911 0.16258 0.0
C509 C 0.139 0.38737 0.18738 0.0
C510 C 0.20348 0.38998 0.17459 0.0
C511 C 0.21129 0.38898 0.21155 0.0
C512 C 0.18272 0.38777 0.23648 0.0
H513 H 0.40428 0.38269 0.34059 0.0
H514 H 0.34292 0.38438 0.3165 0.0
C515 C 0.14682 0.38696 0.22449 0.0
C516 C 0.2494 0.38878 0.22393 0.0
H517 H 0.3122 0.36089 0.26611 0.0
C518 C 0.27101 0.40494 0.21794 0.0
C519 C 0.26448 0.37263 0.24112 0.0
C520 C 0.24287 0.3546 0.24686 0.0
C521 C 0.30718 0.40558 0.22968 0.0
C522 C 0.32218 0.38946 0.24719 0.0
C523 C 0.30062 0.37323 0.25272 0.0
C524 C 0.35974 0.38928 0.26132 0.0
C525 C 0.32866 0.42366 0.22421 0.0
C526 C 0.38968 0.39144 0.23823 0.0
C527 C 0.42499 0.39056 0.25202 0.0
C528 C 0.43079 0.38732 0.28901 0.0
C529 C 0.40073 0.38517 0.31194 0.0
C530 C 0.36561 0.38613 0.29823 0.0
H531 H 0.31083 0.43605 0.21843 0.0
H532 H 0.34531 0.42693 0.24838 0.0
H533 H 0.34721 0.42179 0.20091 0.0
H534 H 0.38577 0.39349 0.20952 0.0
H535 H 0.44766 0.39218 0.23371 0.0
H536 H 0.03301 0.07087 0.04129 0.0
H537 H 0.03396 0.04182 0.00475 0.0
H538 H 0.05186 0.00811 0.10057 0.0
H539 H 0.05072 0.03706 0.13737 0.0
H540 H 0.09059 0.01335 -0.00011 0.0
H541 H 0.96041 0.98447 0.05262 0.0
H542 H 0.97329 0.00915 0.058 0.0
H543 H 0.99362 0.9911 0.08582 0.0
C544 C 0.03724 0.05728 0.05455 0.0
C545 C 0.04158 0.05618 0.09215 0.0
C546 C 0.0378 0.04074 0.03368 0.0
C547 C 0.04248 0.02289 0.05014 0.0
C548 C 0.04763 0.02177 0.08755 0.0
H549 H 0.03684 0.90883 0.95604 0.0
H550 H 0.04123 0.93557 -0.00157 0.0
C551 C 0.04713 0.0383 0.10845 0.0
C552 C 0.04181 0.00545 0.028 0.0
H553 H 0.99212 0.96548 0.0107 0.0
C554 C 0.06915 0.00284 0.00225 0.0
C555 C 0.01387 0.99179 0.03148 0.0
C556 C 0.98342 -0.00577 0.05826 0.0
C557 C 0.06922 0.98687 0.97958 0.0
C558 C 0.04074 0.97346 0.98237 0.0
C559 C 0.01384 0.97585 0.00869 0.0
C560 C 0.03755 0.95732 0.95708 0.0
C561 C 0.09984 0.98446 0.95298 0.0
C562 C 0.03319 0.96079 0.92007 0.0
C563 C 0.03073 0.94563 0.89594 0.0
C564 C 0.03227 0.92674 0.90848 0.0
C565 C 0.03565 0.92326 0.94568 0.0
C566 C 0.03821 0.93848 0.96986 0.0
H567 H 0.12423 0.99265 0.96126 0.0
H568 H 0.1074 0.96921 0.95007 0.0
H569 H 0.09113 0.98985 0.92618 0.0
H570 H 0.03174 0.97525 0.90985 0.0
H571 H 0.02787 0.94873 0.86743 0.0
H572 H 0.03317 0.57546 0.95735 0.0
H573 H 0.02917 0.54687 0.99539 0.0
H574 H 0.00859 0.51255 0.90111 0.0
H575 H 0.01252 0.54094 0.86293 0.0
H576 H 0.96889 0.51777 -0.00081 0.0
H577 H 0.10185 0.48992 0.95182 0.0
H578 H 0.0892 0.51469 0.94741 0.0
H579 H 0.07034 0.49723 0.91744 0.0
C580 C 0.02755 0.56183 0.9448 0.0
C581 C 0.02343 0.56036 0.9072 0.0
C582 C 0.02522 0.54558 0.96652 0.0
C583 C 0.01898 0.52769 0.95085 0.0
C584 C 0.01379 0.52627 0.91351 0.0
H585 H 0.02482 0.41197 0.03293 0.0
H586 H 0.01974 0.44044 0.9949 0.0
C587 C 0.016 0.54248 0.89182 0.0
C588 C 0.01914 0.51037 0.97333 0.0
H589 H 0.06795 0.47013 0.9907 0.0
C590 C 0.9905 0.50733 -0.00251 0.0
C591 C 0.04737 0.49685 0.97071 0.0
C592 C 0.07914 0.4998 0.94566 0.0
C593 C 0.98912 0.49086 0.01897 0.0
C594 C 0.01759 0.47741 0.01662 0.0
C595 C 0.04615 0.48047 0.99232 0.0
C596 C 0.01885 0.46023 0.03968 0.0
C597 C 0.95693 0.48785 0.04343 0.0
C598 C 0.02034 0.462 0.07734 0.0
C599 C 0.02311 0.44581 0.09905 0.0
C600 C 0.02486 0.42759 0.08341 0.0
C601 C 0.02352 0.42584 0.04568 0.0
C602 C 0.02058 0.44205 0.02397 0.0
H603 H 0.93317 0.49636 0.0345 0.0
H604 H 0.94905 0.47257 0.04444 0.0
H605 H 0.96407 0.49245 0.07117 0.0
H606 H 0.01996 0.47593 0.08992 0.0
H607 H 0.0243 0.44758 0.12807 0.0
H608 H 0.52666 0.41449 0.45113 0.0
H609 H 0.52441 0.44256 0.49025 0.0
H610 H 0.52571 0.47921 0.39664 0.0
H611 H 0.52833 0.45124 0.35733 0.0
H612 H 0.57623 0.48909 0.4504 0.0
H613 H 0.43839 0.47884 0.50726 0.0
H614 H 0.46742 0.45838 0.51101 0.0
H615 H 0.45377 0.46668 0.46715 0.0
C616 C 0.52626 0.42853 0.4389 0.0
C617 C 0.52761 0.43071 0.40123 0.0
C618 C 0.52475 0.44452 0.46124 0.0
C619 C 0.52437 0.46289 0.44623 0.0
C620 C 0.52576 0.46511 0.40865 0.0
H621 H 0.53097 0.57651 0.54092 0.0
H622 H 0.52782 0.54964 0.49888 0.0
C623 C 0.52725 0.44914 0.38629 0.0
C624 C 0.52413 0.47983 0.4698 0.0
H625 H 0.47514 0.50255 0.53488 0.0
C626 C 0.55404 0.49215 0.46869 0.0
C627 C 0.49509 0.48369 0.49356 0.0
C628 C 0.46167 0.47131 0.4947 0.0
C629 C 0.55616 0.50803 0.49151 0.0
C630 C 0.52729 0.51178 0.51554 0.0
C631 C 0.4972 0.49957 0.51639 0.0
C632 C 0.52825 0.52805 0.5407 0.0
C633 C 0.58968 0.52034 0.49048 0.0
C634 C 0.52863 0.52475 0.57802 0.0
C635 C 0.53026 0.54002 0.60203 0.0
C636 C 0.53136 0.55884 0.58905 0.0
C637 C 0.53037 0.56214 0.55164 0.0
C638 C 0.52873 0.54683 0.52763 0.0
H639 H 0.61255 0.51312 0.47658 0.0
H640 H 0.58359 0.53371 0.47562 0.0
H641 H 0.59841 0.52423 0.51819 0.0
H642 H 0.52813 0.51032 0.58853 0.0
H643 H 0.53086 0.53707 0.63073 0.0
H644 H 0.54338 0.91094 0.53325 0.0
H645 H 0.5455 0.93889 0.49341 0.0
H646 H 0.54695 0.97589 0.58629 0.0
H647 H 0.54451 0.94817 0.62617 0.0
H648 H 0.49422 0.98515 0.53377 0.0
H649 H 0.63112 0.97562 0.47372 0.0
H650 H 0.60175 0.9552 0.47147 0.0
H651 H 0.61715 0.9636 0.51458 0.0
C652 C 0.54444 0.92504 0.54511 0.0
C653 C 0.54375 0.92741 0.58275 0.0
C654 C 0.54584 0.94094 0.52237 0.0
C655 C 0.54676 0.95938 0.53703 0.0
C656 C 0.54639 0.96174 0.57456 0.0
H657 H 0.54034 0.07503 0.45463 0.0
H658 H 0.54322 0.04644 0.4926 0.0
C659 C 0.545 0.9459 0.59725 0.0
C660 C 0.54621 0.97633 0.51341 0.0
H661 H 0.59495 0.00055 0.44997 0.0
C662 C 0.51626 0.98858 0.51549 0.0
C663 C 0.575 0.98062 0.48962 0.0
C664 C 0.60826 0.96818 0.48727 0.0
C665 C 0.51413 0.00501 0.49409 0.0
C666 C 0.54306 0.00942 0.47052 0.0
C667 C 0.57292 -0.0029 0.46822 0.0
C668 C 0.54257 0.02669 0.44776 0.0
C669 C 0.48069 0.01734 0.49639 0.0
C670 C 0.54219 0.02497 0.41009 0.0
C671 C 0.5407 0.04122 0.3884 0.0
C672 C 0.53973 0.05945 0.4041 0.0
C673 C 0.54081 0.06115 0.44185 0.0
C674 C 0.54232 0.04486 0.46353 0.0
H675 H 0.45762 0.00962 0.50897 0.0
H676 H 0.48668 0.03004 0.51317 0.0
H677 H 0.47233 0.02235 0.46919 0.0
H678 H 0.54253 0.01104 0.3975 0.0
H679 H 0.54005 0.0395 0.35936 0.0
loop_
_geom_bond_atom_site_label_1
_geom_bond_atom_site_label_2
_geom_bond_distance
_geom_bond_site_symmetry_2
_ccdc_geom_bond_type
In0 O1 2.294 . S
In0 O2 2.326 . S
In0 O6 2.266 . S
In0 O7 2.326 . S
In0 O8 2.266 . S
In0 O9 2.326 . S
In0 O11 2.294 1_455 S
In0 O12 2.326 1_455 S
O1 In0 2.294 . S
O1 C10 1.240 . S
O2 In0 2.326 . S
O2 C10 1.252 . S
C3 O6 1.252 . S
C3 O7 1.260 . S
C4 O11 1.240 . S
C4 O12 1.252 . S
C5 O8 1.252 . S
C5 O9 1.260 . S
O6 In0 2.266 . S
O6 C3 1.252 . S
O7 In0 2.326 . S
O7 C3 1.260 . S
O8 In0 2.266 . S
O8 C5 1.252 . S
O9 In0 2.326 . S
O9 C5 1.260 . S
C10 O1 1.240 . S
C10 O2 1.252 . S
O11 In0 2.294 1_655 S
O11 C4 1.240 . S
O12 In0 2.326 1_655 S
O12 C4 1.252 . S
In13 O14 2.294 . S
In13 O15 2.326 . S
In13 O19 2.266 . S
In13 O20 2.326 . S
In13 O21 2.266 . S
In13 O22 2.326 1_455 S
In13 O24 2.294 . S
In13 O25 2.326 . S
O14 In13 2.294 . S
O14 C23 1.240 . S
O15 In13 2.326 . S
O15 C23 1.252 . S
C16 O19 1.252 . S
C16 O20 1.260 . S
C17 O24 1.240 . S
C17 O25 1.252 . S
C18 O21 1.252 1_655 S
C18 O22 1.260 . S
O19 In13 2.266 . S
O19 C16 1.252 . S
O20 In13 2.326 . S
O20 C16 1.260 . S
O21 In13 2.266 . S
O21 C18 1.252 1_455 S
O22 In13 2.326 1_655 S
O22 C18 1.260 . S
C23 O14 1.240 . S
C23 O15 1.252 . S
O24 In13 2.294 . S
O24 C17 1.240 . S
O25 In13 2.326 . S
O25 C17 1.252 . S
In26 O27 2.294 1_455 S
In26 O28 2.326 1_455 S
In26 O32 2.266 . S
In26 O33 2.326 . S
In26 O34 2.266 . S
In26 O35 2.326 . S
In26 O37 2.294 . S
In26 O38 2.326 . S
O27 In26 2.294 1_655 S
O27 C36 1.240 . S
O28 In26 2.326 1_655 S
O28 C36 1.252 . S
C29 O32 1.252 . S
C29 O33 1.260 . S
C30 O37 1.240 . S
C30 O38 1.252 . S
C31 O34 1.252 . S
C31 O35 1.260 . S
O32 In26 2.266 . S
O32 C29 1.252 . S
O33 In26 2.326 . S
O33 C29 1.260 . S
O34 In26 2.266 . S
O34 C31 1.252 . S
O35 In26 2.326 . S
O35 C31 1.260 . S
C36 O27 1.240 . S
C36 O28 1.252 . S
O37 In26 2.294 . S
O37 C30 1.240 . S
O38 In26 2.326 . S
O38 C30 1.252 . S
In39 O40 2.294 . S
In39 O41 2.326 . S
In39 O45 2.266 . S
In39 O46 2.326 . S
In39 O47 2.266 . S
In39 O48 2.326 1_455 S
In39 O50 2.294 . S
In39 O51 2.326 . S
O40 In39 2.294 . S
O40 C49 1.240 . S
O41 In39 2.326 . S
O41 C49 1.252 . S
C42 O45 1.252 . S
C42 O46 1.260 . S
C43 O50 1.240 . S
C43 O51 1.252 . S
C44 O47 1.252 1_655 S
C44 O48 1.260 . S
O45 In39 2.266 . S
O45 C42 1.252 . S
O46 In39 2.326 . S
O46 C42 1.260 . S
O47 In39 2.266 . S
O47 C44 1.252 1_455 S
O48 In39 2.326 1_655 S
O48 C44 1.260 . S
C49 O40 1.240 . S
C49 O41 1.252 . S
O50 In39 2.294 . S
O50 C43 1.240 . S
O51 In39 2.326 . S
O51 C43 1.252 . S
In52 O53 2.294 . S
In52 O54 2.326 . S
In52 O58 2.266 . S
In52 O59 2.326 . S
In52 O60 2.266 . S
In52 O61 2.326 . S
In52 O63 2.294 . S
In52 O64 2.326 . S
O53 In52 2.294 . S
O53 C62 1.240 . S
O54 In52 2.326 . S
O54 C62 1.252 . S
C55 O58 1.252 . S
C55 O59 1.260 . S
C56 O63 1.240 . S
C56 O64 1.252 . S
C57 O60 1.252 . S
C57 O61 1.260 . S
O58 In52 2.266 . S
O58 C55 1.252 . S
O59 In52 2.326 . S
O59 C55 1.260 . S
O60 In52 2.266 . S
O60 C57 1.252 . S
O61 In52 2.326 . S
O61 C57 1.260 . S
C62 O53 1.240 . S
C62 O54 1.252 . S
O63 In52 2.294 . S
O63 C56 1.240 . S
O64 In52 2.326 . S
O64 C56 1.252 . S
In65 O66 2.294 . S
In65 O67 2.326 . S
In65 O71 2.266 . S
In65 O72 2.326 . S
In65 O73 2.266 . S
In65 O74 2.326 . S
In65 O76 2.294 . S
In65 O77 2.326 . S
O66 In65 2.294 . S
O66 C75 1.240 . S
O67 In65 2.326 . S
O67 C75 1.252 . S
C68 O71 1.252 . S
C68 O72 1.260 . S
C69 O76 1.240 . S
C69 O77 1.252 . S
C70 O73 1.252 . S
C70 O74 1.260 . S
O71 In65 2.266 . S
O71 C68 1.252 . S
O72 In65 2.326 . S
O72 C68 1.260 . S
O73 In65 2.266 . S
O73 C70 1.252 . S
O74 In65 2.326 . S
O74 C70 1.260 . S
C75 O66 1.240 . S
C75 O67 1.252 . S
O76 In65 2.294 . S
O76 C69 1.240 . S
O77 In65 2.326 . S
O77 C69 1.252 . S
In78 O79 2.294 . S
In78 O80 2.326 . S
In78 O84 2.266 . S
In78 O85 2.326 . S
In78 O86 2.266 . S
In78 O87 2.326 . S
In78 O89 2.294 . S
In78 O90 2.326 . S
O79 In78 2.294 . S
O79 C88 1.240 . S
O80 In78 2.326 . S
O80 C88 1.252 . S
C81 O84 1.252 . S
C81 O85 1.260 . S
C82 O89 1.240 . S
C82 O90 1.252 . S
C83 O86 1.252 . S
C83 O87 1.260 . S
O84 In78 2.266 . S
O84 C81 1.252 . S
O85 In78 2.326 . S
O85 C81 1.260 . S
O86 In78 2.266 . S
O86 C83 1.252 . S
O87 In78 2.326 . S
O87 C83 1.260 . S
C88 O79 1.240 . S
C88 O80 1.252 . S
O89 In78 2.294 . S
O89 C82 1.240 . S
O90 In78 2.326 . S
O90 C82 1.252 . S
In91 O92 2.294 . S
In91 O93 2.326 . S
In91 O97 2.266 . S
In91 O98 2.326 . S
In91 O99 2.266 . S
In91 O100 2.326 . S
In91 O102 2.294 . S
In91 O103 2.326 . S
O92 In91 2.294 . S
O92 C101 1.240 . S
O93 In91 2.326 . S
O93 C101 1.252 . S
C94 O97 1.252 . S
C94 O98 1.260 . S
C95 O102 1.240 . S
C95 O103 1.252 . S
C96 O99 1.252 . S
C96 O100 1.260 . S
O97 In91 2.266 . S
O97 C94 1.252 . S
O98 In91 2.326 . S
O98 C94 1.260 . S
O99 In91 2.266 . S
O99 C96 1.252 . S
O100 In91 2.326 . S
O100 C96 1.260 . S
C101 O92 1.240 . S
C101 O93 1.252 . S
O102 In91 2.294 . S
O102 C95 1.240 . S
O103 In91 2.326 . S
O103 C95 1.252 . S
H104 C112 0.929 1_655 S
H105 C114 0.930 1_655 S
H106 C116 0.930 . S
H107 C119 0.929 . S
H108 C122 0.930 . S
H109 C124 0.960 . S
H110 C124 0.960 . S
H111 C124 0.960 . S
C112 H104 0.929 1_455 S
C112 C113 1.377 . S
C112 C114 1.384 . S
C113 C112 1.377 . S
C113 C119 1.390 . S
C114 H105 0.930 1_455 S
C114 C112 1.384 . S
C114 C115 1.372 . S
C115 C114 1.372 . S
C115 C116 1.400 . S
C115 C120 1.490 . S
C116 H106 0.930 . S
C116 C115 1.400 . S
C116 C119 1.386 . S
H117 C133 0.930 . S
H118 C134 0.931 . S
C119 H107 0.929 . S
C119 C113 1.390 . S
C119 C116 1.386 . S
C120 C115 1.490 . S
C120 C122 1.395 . S
C120 C123 1.403 . S
H121 C127 0.930 . S
C122 H108 0.930 . S
C122 C120 1.395 . S
C122 C125 1.403 . S
C123 C120 1.403 . S
C123 C124 1.524 . S
C123 C127 1.400 . S
C124 H109 0.960 . S
C124 H110 0.960 . S
C124 H111 0.960 . S
C124 C123 1.524 . S
C125 C122 1.403 . S
C125 C126 1.392 . S
C125 C129 1.495 . S
C126 C125 1.392 . S
C126 C127 1.385 . S
C126 C128 1.478 . S
C127 H121 0.930 . S
C127 C123 1.400 . S
C127 C126 1.385 . S
C128 C126 1.478 . S
C128 C130 1.381 . S
C128 C134 1.383 . S
C129 C125 1.495 . S
C129 H135 0.959 . S
C129 H136 0.961 . S
C129 H137 0.960 1_455 S
C130 C128 1.381 . S
C130 C131 1.394 . S
C130 H138 0.930 1_455 S
C131 C130 1.394 . S
C131 C132 1.383 . S
C131 H139 0.929 1_455 S
C132 C131 1.383 . S
C132 C133 1.377 . S
C133 H117 0.930 . S
C133 C132 1.377 . S
C133 C134 1.379 . S
C134 H118 0.931 . S
C134 C128 1.383 . S
C134 C133 1.379 . S
H135 C129 0.959 . S
H136 C129 0.961 . S
H137 C129 0.960 1_655 S
H138 C130 0.930 1_655 S
H139 C131 0.929 1_655 S
H140 C148 0.929 . S
H141 C150 0.930 . S
H142 C152 0.930 1_655 S
H143 C155 0.929 1_655 S
H144 C158 0.930 . S
H145 C160 0.960 . S
H146 C160 0.960 . S
H147 C160 0.960 1_655 S
C148 H140 0.929 . S
C148 C149 1.377 . S
C148 C150 1.384 . S
C149 C148 1.377 . S
C149 C155 1.390 . S
C150 H141 0.930 . S
C150 C148 1.384 . S
C150 C151 1.372 . S
C151 C150 1.372 . S
C151 C152 1.400 . S
C151 C156 1.490 . S
C152 H142 0.930 1_455 S
C152 C151 1.400 . S
C152 C155 1.386 . S
H153 C169 0.930 1_655 S
H154 C170 0.931 1_655 S
C155 H143 0.929 1_455 S
C155 C149 1.390 . S
C155 C152 1.386 . S
C156 C151 1.490 . S
C156 C158 1.395 . S
C156 C159 1.403 . S
H157 C163 0.930 . S
C158 H144 0.930 . S
C158 C156 1.395 . S
C158 C161 1.403 . S
C159 C156 1.403 . S
C159 C160 1.524 . S
C159 C163 1.400 . S
C160 H145 0.960 . S
C160 H146 0.960 . S
C160 H147 0.960 1_455 S
C160 C159 1.524 . S
C161 C158 1.403 . S
C161 C162 1.392 . S
C161 C165 1.495 . S
C162 C161 1.392 . S
C162 C163 1.385 . S
C162 C164 1.478 . S
C163 H157 0.930 . S
C163 C159 1.400 . S
C163 C162 1.385 . S
C164 C162 1.478 . S
C164 C166 1.381 . S
C164 C170 1.383 . S
C165 C161 1.495 . S
C165 H171 0.959 . S
C165 H172 0.961 . S
C165 H173 0.960 . S
C166 C164 1.381 . S
C166 C167 1.394 . S
C166 H174 0.930 . S
C167 C166 1.394 . S
C167 C168 1.383 . S
C167 H175 0.929 . S
C168 C167 1.383 . S
C168 C169 1.377 . S
C169 H153 0.930 1_455 S
C169 C168 1.377 . S
C169 C170 1.379 . S
C170 H154 0.931 1_455 S
C170 C164 1.383 . S
C170 C169 1.379 . S
H171 C165 0.959 . S
H172 C165 0.961 . S
H173 C165 0.960 . S
H174 C166 0.930 . S
H175 C167 0.929 . S
H176 C184 0.929 . S
H177 C186 0.930 . S
H178 C188 0.930 . S
H179 C191 0.929 . S
H180 C194 0.930 . S
H181 C196 0.960 . S
H182 C196 0.960 . S
H183 C196 0.960 . S
C184 H176 0.929 . S
C184 C185 1.377 . S
C184 C186 1.384 . S
C185 C184 1.377 . S
C185 C191 1.390 . S
C186 H177 0.930 . S
C186 C184 1.384 . S
C186 C187 1.372 . S
C187 C186 1.372 . S
C187 C188 1.400 . S
C187 C192 1.490 . S
C188 H178 0.930 . S
C188 C187 1.400 . S
C188 C191 1.386 . S
H189 C205 0.930 . S
H190 C206 0.931 . S
C191 H179 0.929 . S
C191 C185 1.390 . S
C191 C188 1.386 . S
C192 C187 1.490 . S
C192 C194 1.395 . S
C192 C195 1.403 . S
H193 C199 0.930 . S
C194 H180 0.930 . S
C194 C192 1.395 . S
C194 C197 1.403 . S
C195 C192 1.403 . S
C195 C196 1.524 . S
C195 C199 1.400 . S
C196 H181 0.960 . S
C196 H182 0.960 . S
C196 H183 0.960 . S
C196 C195 1.524 . S
C197 C194 1.403 . S
C197 C198 1.392 . S
C197 C201 1.495 . S
C198 C197 1.392 . S
C198 C199 1.385 . S
C198 C200 1.478 . S
C199 H193 0.930 . S
C199 C195 1.400 . S
C199 C198 1.385 . S
C200 C198 1.478 . S
C200 C202 1.381 . S
C200 C206 1.383 . S
C201 C197 1.495 . S
C201 H207 0.959 . S
C201 H208 0.961 . S
C201 H209 0.960 . S
C202 C200 1.381 . S
C202 C203 1.394 . S
C202 H210 0.930 . S
C203 C202 1.394 . S
C203 C204 1.383 . S
C203 H211 0.929 . S
C204 C203 1.383 . S
C204 C205 1.377 . S
C205 H189 0.930 . S
C205 C204 1.377 . S
C205 C206 1.379 . S
C206 H190 0.931 . S
C206 C200 1.383 . S
C206 C205 1.379 . S
H207 C201 0.959 . S
H208 C201 0.961 . S
H209 C201 0.960 . S
H210 C202 0.930 . S
H211 C203 0.929 . S
H212 C220 0.929 . S
H213 C222 0.930 . S
H214 C224 0.930 . S
H215 C227 0.929 . S
H216 C230 0.930 . S
H217 C232 0.960 . S
H218 C232 0.960 . S
H219 C232 0.960 . S
C220 H212 0.929 . S
C220 C221 1.377 . S
C220 C222 1.384 . S
C221 C220 1.377 . S
C221 C227 1.390 . S
C222 H213 0.930 . S
C222 C220 1.384 . S
C222 C223 1.372 . S
C223 C222 1.372 . S
C223 C224 1.400 . S
C223 C228 1.490 . S
C224 H214 0.930 . S
C224 C223 1.400 . S
C224 C227 1.386 . S
H225 C241 0.930 . S
H226 C242 0.931 . S
C227 H215 0.929 . S
C227 C221 1.390 . S
C227 C224 1.386 . S
C228 C223 1.490 . S
C228 C230 1.395 . S
C228 C231 1.403 . S
H229 C235 0.930 . S
C230 H216 0.930 . S
C230 C228 1.395 . S
C230 C233 1.403 . S
C231 C228 1.403 . S
C231 C232 1.524 . S
C231 C235 1.400 . S
C232 H217 0.960 . S
C232 H218 0.960 . S
C232 H219 0.960 . S
C232 C231 1.524 . S
C233 C230 1.403 . S
C233 C234 1.392 . S
C233 C237 1.495 . S
C234 C233 1.392 . S
C234 C235 1.385 . S
C234 C236 1.478 . S
C235 H229 0.930 . S
C235 C231 1.400 . S
C235 C234 1.385 . S
C236 C234 1.478 . S
C236 C238 1.381 . S
C236 C242 1.383 . S
C237 C233 1.495 . S
C237 H243 0.959 . S
C237 H244 0.961 . S
C237 H245 0.960 . S
C238 C236 1.381 . S
C238 C239 1.394 . S
C238 H246 0.930 . S
C239 C238 1.394 . S
C239 C240 1.383 . S
C239 H247 0.929 . S
C240 C239 1.383 . S
C240 C241 1.377 . S
C241 H225 0.930 . S
C241 C240 1.377 . S
C241 C242 1.379 . S
C242 H226 0.931 . S
C242 C236 1.383 . S
C242 C241 1.379 . S
H243 C237 0.959 . S
H244 C237 0.961 . S
H245 C237 0.960 . S
H246 C238 0.930 . S
H247 C239 0.929 . S
H248 C256 0.929 . S
H249 C258 0.930 . S
H250 C260 0.930 . S
H251 C263 0.929 . S
H252 C266 0.930 . S
H253 C268 0.960 . S
H254 C268 0.960 . S
H255 C268 0.960 . S
C256 H248 0.929 . S
C256 C257 1.377 . S
C256 C258 1.384 . S
C257 C256 1.377 . S
C257 C263 1.390 . S
C258 H249 0.930 . S
C258 C256 1.384 . S
C258 C259 1.372 . S
C259 C258 1.372 . S
C259 C260 1.400 . S
C259 C264 1.490 . S
C260 H250 0.930 . S
C260 C259 1.400 . S
C260 C263 1.386 . S
H261 C277 0.930 . S
H262 C278 0.931 . S
C263 H251 0.929 . S
C263 C257 1.390 . S
C263 C260 1.386 . S
C264 C259 1.490 . S
C264 C266 1.395 . S
C264 C267 1.403 . S
H265 C271 0.930 . S
C266 H252 0.930 . S
C266 C264 1.395 . S
C266 C269 1.403 . S
C267 C264 1.403 . S
C267 C268 1.524 . S
C267 C271 1.400 . S
C268 H253 0.960 . S
C268 H254 0.960 . S
C268 H255 0.960 . S
C268 C267 1.524 . S
C269 C266 1.403 . S
C269 C270 1.392 . S
C269 C273 1.495 . S
C270 C269 1.392 . S
C270 C271 1.385 . S
C270 C272 1.478 . S
C271 H265 0.930 . S
C271 C267 1.400 . S
C271 C270 1.385 . S
C272 C270 1.478 . S
C272 C274 1.381 . S
C272 C278 1.383 . S
C273 C269 1.495 . S
C273 H279 0.959 . S
C273 H280 0.961 . S
C273 H281 0.960 . S
C274 C272 1.381 . S
C274 C275 1.394 . S
C274 H282 0.930 . S
C275 C274 1.394 . S
C275 C276 1.383 . S
C275 H283 0.929 . S
C276 C275 1.383 . S
C276 C277 1.377 . S
C277 H261 0.930 . S
C277 C276 1.377 . S
C277 C278 1.379 . S
C278 H262 0.931 . S
C278 C272 1.383 . S
C278 C277 1.379 . S
H279 C273 0.959 . S
H280 C273 0.961 . S
H281 C273 0.960 . S
H282 C274 0.930 . S
H283 C275 0.929 . S
H284 C292 0.929 . S
H285 C294 0.930 . S
H286 C296 0.930 . S
H287 C299 0.929 . S
H288 C302 0.930 . S
H289 C304 0.960 . S
H290 C304 0.960 . S
H291 C304 0.960 . S
C292 H284 0.929 . S
C292 C293 1.377 . S
C292 C294 1.384 . S
C293 C292 1.377 . S
C293 C299 1.390 . S
C294 H285 0.930 . S
C294 C292 1.384 . S
C294 C295 1.372 . S
C295 C294 1.372 . S
C295 C296 1.400 . S
C295 C300 1.490 . S
C296 H286 0.930 . S
C296 C295 1.400 . S
C296 C299 1.386 . S
H297 C313 0.930 . S
H298 C314 0.931 . S
C299 H287 0.929 . S
C299 C293 1.390 . S
C299 C296 1.386 . S
C300 C295 1.490 . S
C300 C302 1.395 . S
C300 C303 1.403 . S
H301 C307 0.930 . S
C302 H288 0.930 . S
C302 C300 1.395 . S
C302 C305 1.403 . S
C303 C300 1.403 . S
C303 C304 1.524 . S
C303 C307 1.400 . S
C304 H289 0.960 . S
C304 H290 0.960 . S
C304 H291 0.960 . S
C304 C303 1.524 . S
C305 C302 1.403 . S
C305 C306 1.392 . S
C305 C309 1.495 . S
C306 C305 1.392 . S
C306 C307 1.385 . S
C306 C308 1.478 . S
C307 H301 0.930 . S
C307 C303 1.400 . S
C307 C306 1.385 . S
C308 C306 1.478 . S
C308 C310 1.381 . S
C308 C314 1.383 . S
C309 C305 1.495 . S
C309 H315 0.959 . S
C309 H316 0.961 . S
C309 H317 0.960 . S
C310 C308 1.381 . S
C310 C311 1.394 . S
C310 H318 0.930 . S
C311 C310 1.394 . S
C311 C312 1.383 . S
C311 H319 0.929 . S
C312 C311 1.383 . S
C312 C313 1.377 . S
C313 H297 0.930 . S
C313 C312 1.377 . S
C313 C314 1.379 . S
C314 H298 0.931 . S
C314 C308 1.383 . S
C314 C313 1.379 . S
H315 C309 0.959 . S
H316 C309 0.961 . S
H317 C309 0.960 . S
H318 C310 0.930 . S
H319 C311 0.929 . S
H320 C328 0.929 . S
H321 C330 0.930 . S
H322 C332 0.930 . S
H323 C335 0.929 . S
H324 C338 0.930 . S
H325 C340 0.960 . S
H326 C340 0.960 . S
H327 C340 0.960 . S
C328 H320 0.929 . S
C328 C329 1.377 . S
C328 C330 1.384 . S
C329 C328 1.377 . S
C329 C335 1.390 . S
C330 H321 0.930 . S
C330 C328 1.384 . S
C330 C331 1.372 . S
C331 C330 1.372 . S
C331 C332 1.400 . S
C331 C336 1.490 . S
C332 H322 0.930 . S
C332 C331 1.400 . S
C332 C335 1.386 . S
H333 C349 0.930 . S
H334 C350 0.931 . S
C335 H323 0.929 . S
C335 C329 1.390 . S
C335 C332 1.386 . S
C336 C331 1.490 . S
C336 C338 1.395 . S
C336 C339 1.403 . S
H337 C343 0.930 . S
C338 H324 0.930 . S
C338 C336 1.395 . S
C338 C341 1.403 . S
C339 C336 1.403 . S
C339 C340 1.524 . S
C339 C343 1.400 . S
C340 H325 0.960 . S
C340 H326 0.960 . S
C340 H327 0.960 . S
C340 C339 1.524 . S
C341 C338 1.403 . S
C341 C342 1.392 . S
C341 C345 1.495 . S
C342 C341 1.392 . S
C342 C343 1.385 . S
C342 C344 1.478 . S
C343 H337 0.930 . S
C343 C339 1.400 . S
C343 C342 1.385 . S
C344 C342 1.478 . S
C344 C346 1.381 . S
C344 C350 1.383 . S
C345 C341 1.495 . S
C345 H351 0.959 . S
C345 H352 0.961 . S
C345 H353 0.960 . S
C346 C344 1.381 . S
C346 C347 1.394 . S
C346 H354 0.930 . S
C347 C346 1.394 . S
C347 C348 1.383 . S
C347 H355 0.929 . S
C348 C347 1.383 . S
C348 C349 1.377 . S
C349 H333 0.930 . S
C349 C348 1.377 . S
C349 C350 1.379 . S
C350 H334 0.931 . S
C350 C344 1.383 . S
C350 C349 1.379 . S
H351 C345 0.959 . S
H352 C345 0.961 . S
H353 C345 0.960 . S
H354 C346 0.930 . S
H355 C347 0.929 . S
H356 C364 0.929 . S
H357 C366 0.930 . S
H358 C368 0.930 . S
H359 C371 0.929 . S
H360 C374 0.930 . S
H361 C376 0.960 . S
H362 C376 0.960 . S
H363 C376 0.960 . S
C364 H356 0.929 . S
C364 C365 1.377 . S
C364 C366 1.384 . S
C365 C364 1.377 . S
C365 C371 1.390 . S
C366 H357 0.930 . S
C366 C364 1.384 . S
C366 C367 1.372 . S
C367 C366 1.372 . S
C367 C368 1.400 . S
C367 C372 1.490 . S
C368 H358 0.930 . S
C368 C367 1.400 . S
C368 C371 1.386 . S
H369 C385 0.930 . S
H370 C386 0.931 . S
C371 H359 0.929 . S
C371 C365 1.390 . S
C371 C368 1.386 . S
C372 C367 1.490 . S
C372 C374 1.395 . S
C372 C375 1.403 . S
H373 C379 0.930 . S
C374 H360 0.930 . S
C374 C372 1.395 . S
C374 C377 1.403 . S
C375 C372 1.403 . S
C375 C376 1.524 . S
C375 C379 1.400 . S
C376 H361 0.960 . S
C376 H362 0.960 . S
C376 H363 0.960 . S
C376 C375 1.524 . S
C377 C374 1.403 . S
C377 C378 1.392 . S
C377 C381 1.495 . S
C378 C377 1.392 . S
C378 C379 1.385 . S
C378 C380 1.478 . S
C379 H373 0.930 . S
C379 C375 1.400 . S
C379 C378 1.385 . S
C380 C378 1.478 . S
C380 C382 1.381 . S
C380 C386 1.383 . S
C381 C377 1.495 . S
C381 H387 0.959 . S
C381 H388 0.961 . S
C381 H389 0.960 . S
C382 C380 1.381 . S
C382 C383 1.394 . S
C382 H390 0.930 . S
C383 C382 1.394 . S
C383 C384 1.383 . S
C383 H391 0.929 . S
C384 C383 1.383 . S
C384 C385 1.377 . S
C385 H369 0.930 . S
C385 C384 1.377 . S
C385 C386 1.379 . S
C386 H370 0.931 . S
C386 C380 1.383 . S
C386 C385 1.379 . S
H387 C381 0.959 . S
H388 C381 0.961 . S
H389 C381 0.960 . S
H390 C382 0.930 . S
H391 C383 0.929 . S
H392 C400 0.929 . S
H393 C402 0.930 . S
H394 C404 0.930 . S
H395 C407 0.929 . S
H396 C410 0.930 . S
H397 C412 0.960 . S
H398 C412 0.960 . S
H399 C412 0.960 . S
C400 H392 0.929 . S
C400 C401 1.377 . S
C400 C402 1.384 . S
C401 C400 1.377 . S
C401 C407 1.390 . S
C402 H393 0.930 . S
C402 C400 1.384 . S
C402 C403 1.372 . S
C403 C402 1.372 . S
C403 C404 1.400 . S
C403 C408 1.490 . S
C404 H394 0.930 . S
C404 C403 1.400 . S
C404 C407 1.386 . S
H405 C421 0.930 . S
H406 C422 0.931 . S
C407 H395 0.929 . S
C407 C401 1.390 . S
C407 C404 1.386 . S
C408 C403 1.490 . S
C408 C410 1.395 . S
C408 C411 1.403 . S
H409 C415 0.930 . S
C410 H396 0.930 . S
C410 C408 1.395 . S
C410 C413 1.403 . S
C411 C408 1.403 . S
C411 C412 1.524 . S
C411 C415 1.400 . S
C412 H397 0.960 . S
C412 H398 0.960 . S
C412 H399 0.960 . S
C412 C411 1.524 . S
C413 C410 1.403 . S
C413 C414 1.392 . S
C413 C417 1.495 . S
C414 C413 1.392 . S
C414 C415 1.385 . S
C414 C416 1.478 . S
C415 H409 0.930 . S
C415 C411 1.400 . S
C415 C414 1.385 . S
C416 C414 1.478 . S
C416 C418 1.381 . S
C416 C422 1.383 . S
C417 C413 1.495 . S
C417 H423 0.959 . S
C417 H424 0.961 . S
C417 H425 0.960 . S
C418 C416 1.381 . S
C418 C419 1.394 . S
C418 H426 0.930 . S
C419 C418 1.394 . S
C419 C420 1.383 . S
C419 H427 0.929 . S
C420 C419 1.383 . S
C420 C421 1.377 . S
C421 H405 0.930 . S
C421 C420 1.377 . S
C421 C422 1.379 . S
C422 H406 0.931 . S
C422 C416 1.383 . S
C422 C421 1.379 . S
H423 C417 0.959 . S
H424 C417 0.961 . S
H425 C417 0.960 . S
H426 C418 0.930 . S
H427 C419 0.929 . S
H428 C436 0.929 . S
H429 C438 0.930 . S
H430 C440 0.930 . S
H431 C443 0.929 . S
H432 C446 0.930 . S
H433 C448 0.960 . S
H434 C448 0.960 . S
H435 C448 0.960 . S
C436 H428 0.929 . S
C436 C437 1.377 . S
C436 C438 1.384 . S
C437 C436 1.377 . S
C437 C443 1.390 . S
C438 H429 0.930 . S
C438 C436 1.384 . S
C438 C439 1.372 . S
C439 C438 1.372 . S
C439 C440 1.400 . S
C439 C444 1.490 . S
C440 H430 0.930 . S
C440 C439 1.400 . S
C440 C443 1.386 . S
H441 C457 0.930 . S
H442 C458 0.931 . S
C443 H431 0.929 . S
C443 C437 1.390 . S
C443 C440 1.386 . S
C444 C439 1.490 . S
C444 C446 1.395 . S
C444 C447 1.403 . S
H445 C451 0.930 . S
C446 H432 0.930 . S
C446 C444 1.395 . S
C446 C449 1.403 . S
C447 C444 1.403 . S
C447 C448 1.524 . S
C447 C451 1.400 . S
C448 H433 0.960 . S
C448 H434 0.960 . S
C448 H435 0.960 . S
C448 C447 1.524 . S
C449 C446 1.403 . S
C449 C450 1.392 . S
C449 C453 1.495 . S
C450 C449 1.392 . S
C450 C451 1.385 . S
C450 C452 1.478 . S
C451 H445 0.930 . S
C451 C447 1.400 . S
C451 C450 1.385 . S
C452 C450 1.478 . S
C452 C454 1.381 . S
C452 C458 1.383 . S
C453 C449 1.495 . S
C453 H459 0.959 . S
C453 H460 0.961 . S
C453 H461 0.960 . S
C454 C452 1.381 . S
C454 C455 1.394 . S
C454 H462 0.930 . S
C455 C454 1.394 . S
C455 C456 1.383 . S
C455 H463 0.929 . S
C456 C455 1.383 . S
C456 C457 1.377 . S
C457 H441 0.930 . S
C457 C456 1.377 . S
C457 C458 1.379 . S
C458 H442 0.931 . S
C458 C452 1.383 . S
C458 C457 1.379 . S
H459 C453 0.959 . S
H460 C453 0.961 . S
H461 C453 0.960 . S
H462 C454 0.930 . S
H463 C455 0.929 . S
H464 C472 0.929 . S
H465 C474 0.930 . S
H466 C476 0.930 . S
H467 C479 0.929 . S
H468 C482 0.930 . S
H469 C484 0.960 . S
H470 C484 0.960 . S
H471 C484 0.960 . S
C472 H464 0.929 . S
C472 C473 1.377 . S
C472 C474 1.384 . S
C473 C472 1.377 . S
C473 C479 1.390 . S
C474 H465 0.930 . S
C474 C472 1.384 . S
C474 C475 1.372 . S
C475 C474 1.372 . S
C475 C476 1.400 . S
C475 C480 1.490 . S
C476 H466 0.930 . S
C476 C475 1.400 . S
C476 C479 1.386 . S
H477 C493 0.930 . S
H478 C494 0.931 . S
C479 H467 0.929 . S
C479 C473 1.390 . S
C479 C476 1.386 . S
C480 C475 1.490 . S
C480 C482 1.395 . S
C480 C483 1.403 . S
H481 C487 0.930 . S
C482 H468 0.930 . S
C482 C480 1.395 . S
C482 C485 1.403 . S
C483 C480 1.403 . S
C483 C484 1.524 . S
C483 C487 1.400 . S
C484 H469 0.960 . S
C484 H470 0.960 . S
C484 H471 0.960 . S
C484 C483 1.524 . S
C485 C482 1.403 . S
C485 C486 1.392 . S
C485 C489 1.495 . S
C486 C485 1.392 . S
C486 C487 1.385 . S
C486 C488 1.478 . S
C487 H481 0.930 . S
C487 C483 1.400 . S
C487 C486 1.385 . S
C488 C486 1.478 . S
C488 C490 1.381 . S
C488 C494 1.383 . S
C489 C485 1.495 . S
C489 H495 0.959 . S
C489 H496 0.961 . S
C489 H497 0.960 . S
C490 C488 1.381 . S
C490 C491 1.394 . S
C490 H498 0.930 . S
C491 C490 1.394 . S
C491 C492 1.383 . S
C491 H499 0.929 . S
C492 C491 1.383 . S
C492 C493 1.377 . S
C493 H477 0.930 . S
C493 C492 1.377 . S
C493 C494 1.379 . S
C494 H478 0.931 . S
C494 C488 1.383 . S
C494 C493 1.379 . S
H495 C489 0.959 . S
H496 C489 0.961 . S
H497 C489 0.960 . S
H498 C490 0.930 . S
H499 C491 0.929 . S
H500 C508 0.929 . S
H501 C510 0.930 . S
H502 C512 0.930 . S
H503 C515 0.929 . S
H504 C518 0.930 . S
H505 C520 0.960 . S
H506 C520 0.960 . S
H507 C520 0.960 . S
C508 H500 0.929 . S
C508 C509 1.377 . S
C508 C510 1.384 . S
C509 C508 1.377 . S
C509 C515 1.390 . S
C510 H501 0.930 . S
C510 C508 1.384 . S
C510 C511 1.372 . S
C511 C510 1.372 . S
C511 C512 1.400 . S
C511 C516 1.490 . S
C512 H502 0.930 . S
C512 C511 1.400 . S
C512 C515 1.386 . S
H513 C529 0.930 . S
H514 C530 0.931 . S
C515 H503 0.929 . S
C515 C509 1.390 . S
C515 C512 1.386 . S
C516 C511 1.490 . S
C516 C518 1.395 . S
C516 C519 1.403 . S
H517 C523 0.930 . S
C518 H504 0.930 . S
C518 C516 1.395 . S
C518 C521 1.403 . S
C519 C516 1.403 . S
C519 C520 1.524 . S
C519 C523 1.400 . S
C520 H505 0.960 . S
C520 H506 0.960 . S
C520 H507 0.960 . S
C520 C519 1.524 . S
C521 C518 1.403 . S
C521 C522 1.392 . S
C521 C525 1.495 . S
C522 C521 1.392 . S
C522 C523 1.385 . S
C522 C524 1.478 . S
C523 H517 0.930 . S
C523 C519 1.400 . S
C523 C522 1.385 . S
C524 C522 1.478 . S
C524 C526 1.381 . S
C524 C530 1.383 . S
C525 C521 1.495 . S
C525 H531 0.959 . S
C525 H532 0.961 . S
C525 H533 0.960 . S
C526 C524 1.381 . S
C526 C527 1.394 . S
C526 H534 0.930 . S
C527 C526 1.394 . S
C527 C528 1.383 . S
C527 H535 0.929 . S
C528 C527 1.383 . S
C528 C529 1.377 . S
C529 H513 0.930 . S
C529 C528 1.377 . S
C529 C530 1.379 . S
C530 H514 0.931 . S
C530 C524 1.383 . S
C530 C529 1.379 . S
H531 C525 0.959 . S
H532 C525 0.961 . S
H533 C525 0.960 . S
H534 C526 0.930 . S
H535 C527 0.929 . S
H536 C544 0.929 . S
H537 C546 0.930 . S
H538 C548 0.930 . S
H539 C551 0.929 . S
H540 C554 0.930 . S
H541 C556 0.949 1_565 S
H542 C556 0.970 . S
H543 C556 0.961 . S
C544 H536 0.929 . S
C544 C545 1.377 . S
C544 C546 1.384 . S
C545 C544 1.377 . S
C545 C551 1.390 . S
C546 H537 0.930 . S
C546 C544 1.384 . S
C546 C547 1.372 . S
C547 C546 1.372 . S
C547 C548 1.400 . S
C547 C552 1.490 . S
C548 H538 0.930 . S
C548 C547 1.400 . S
C548 C551 1.386 . S
H549 C565 0.930 . S
H550 C566 0.931 . S
C551 H539 0.929 . S
C551 C545 1.390 . S
C551 C548 1.386 . S
C552 C547 1.490 . S
C552 C554 1.395 1_554 S
C552 C555 1.403 1_455 S
H553 C559 0.929 1_554 S
C554 H540 0.930 . S
C554 C552 1.395 1_556 S
C554 C557 1.403 . S
C555 C552 1.403 1_655 S
C555 C556 1.524 . S
C555 C559 1.391 1_544 S
C556 H541 0.949 1_545 S
C556 H542 0.970 . S
C556 H543 0.961 . S
C556 C555 1.524 . S
C557 C554 1.403 . S
C557 C558 1.392 1_545 S
C557 C561 1.495 . S
C558 C557 1.392 1_565 S
C558 C559 1.395 1_455 S
C558 C560 1.478 . S
C559 H553 0.929 1_556 S
C559 C555 1.391 1_566 S
C559 C558 1.395 1_655 S
C560 C558 1.478 . S
C560 C562 1.381 . S
C560 C566 1.383 . S
C561 C557 1.495 . S
C561 H567 0.959 . S
C561 H568 0.961 1_545 S
C561 H569 0.960 . S
C562 C560 1.381 . S
C562 C563 1.394 . S
C562 H570 0.930 . S
C563 C562 1.394 . S
C563 C564 1.383 . S
C563 H571 0.929 . S
C564 C563 1.383 . S
C564 C565 1.377 . S
C565 H549 0.930 . S
C565 C564 1.377 . S
C565 C566 1.379 . S
C566 H550 0.931 . S
C566 C560 1.383 . S
C566 C565 1.379 . S
H567 C561 0.959 . S
H568 C561 0.961 1_565 S
H569 C561 0.960 . S
H570 C562 0.930 . S
H571 C563 0.929 . S
H572 C580 0.929 . S
H573 C582 0.930 . S
H574 C584 0.930 . S
H575 C587 0.929 . S
H576 C590 0.930 . S
H577 C592 0.960 . S
H578 C592 0.960 . S
H579 C592 0.960 . S
C580 H572 0.929 . S
C580 C581 1.377 . S
C580 C582 1.384 . S
C581 C580 1.377 . S
C581 C587 1.390 . S
C582 H573 0.930 . S
C582 C580 1.384 . S
C582 C583 1.372 . S
C583 C582 1.372 . S
C583 C584 1.400 . S
C583 C588 1.490 . S
C584 H574 0.930 . S
C584 C583 1.400 . S
C584 C587 1.386 . S
H585 C601 0.930 . S
H586 C602 0.931 . S
C587 H575 0.929 . S
C587 C581 1.390 . S
C587 C584 1.386 . S
C588 C583 1.490 . S
C588 C590 1.395 1_556 S
C588 C591 1.403 . S
H589 C595 0.930 . S
C590 H576 0.930 . S
C590 C588 1.395 1_554 S
C590 C593 1.403 . S
C591 C588 1.403 . S
C591 C592 1.524 . S
C591 C595 1.400 1_556 S
C592 H577 0.960 . S
C592 H578 0.960 . S
C592 H579 0.960 . S
C592 C591 1.524 . S
C593 C590 1.403 . S
C593 C594 1.392 . S
C593 C597 1.495 1_455 S
C594 C593 1.392 . S
C594 C595 1.385 . S
C594 C596 1.478 . S
C595 H589 0.930 . S
C595 C591 1.400 1_554 S
C595 C594 1.385 . S
C596 C594 1.478 . S
C596 C598 1.381 . S
C596 C602 1.383 . S
C597 C593 1.495 1_655 S
C597 H603 0.959 . S
C597 H604 0.961 . S
C597 H605 0.960 1_655 S
C598 C596 1.381 . S
C598 C599 1.394 . S
C598 H606 0.930 . S
C599 C598 1.394 . S
C599 C600 1.383 . S
C599 H607 0.929 . S
C600 C599 1.383 . S
C600 C601 1.377 . S
C601 H585 0.930 . S
C601 C600 1.377 . S
C601 C602 1.379 . S
C602 H586 0.931 . S
C602 C596 1.383 . S
C602 C601 1.379 . S
H603 C597 0.959 . S
H604 C597 0.961 . S
H605 C597 0.960 1_455 S
H606 C598 0.930 . S
H607 C599 0.929 . S
H608 C616 0.929 . S
H609 C618 0.930 . S
H610 C620 0.930 . S
H611 C623 0.929 . S
H612 C626 0.930 . S
H613 C628 0.960 . S
H614 C628 0.960 . S
H615 C628 0.960 . S
C616 H608 0.929 . S
C616 C617 1.377 . S
C616 C618 1.384 . S
C617 C616 1.377 . S
C617 C623 1.390 . S
C618 H609 0.930 . S
C618 C616 1.384 . S
C618 C619 1.372 . S
C619 C618 1.372 . S
C619 C620 1.400 . S
C619 C624 1.490 . S
C620 H610 0.930 . S
C620 C619 1.400 . S
C620 C623 1.386 . S
H621 C637 0.930 . S
H622 C638 0.931 . S
C623 H611 0.929 . S
C623 C617 1.390 . S
C623 C620 1.386 . S
C624 C619 1.490 . S
C624 C626 1.395 . S
C624 C627 1.403 . S
H625 C631 0.930 . S
C626 H612 0.930 . S
C626 C624 1.395 . S
C626 C629 1.403 . S
C627 C624 1.403 . S
C627 C628 1.524 . S
C627 C631 1.400 . S
C628 H613 0.960 . S
C628 H614 0.960 . S
C628 H615 0.960 . S
C628 C627 1.524 . S
C629 C626 1.403 . S
C629 C630 1.392 . S
C629 C633 1.495 . S
C630 C629 1.392 . S
C630 C631 1.385 . S
C630 C632 1.478 . S
C631 H625 0.930 . S
C631 C627 1.400 . S
C631 C630 1.385 . S
C632 C630 1.478 . S
C632 C634 1.381 . S
C632 C638 1.383 . S
C633 C629 1.495 . S
C633 H639 0.959 . S
C633 H640 0.961 . S
C633 H641 0.960 . S
C634 C632 1.381 . S
C634 C635 1.394 . S
C634 H642 0.930 . S
C635 C634 1.394 . S
C635 C636 1.383 . S
C635 H643 0.929 . S
C636 C635 1.383 . S
C636 C637 1.377 . S
C637 H621 0.930 . S
C637 C636 1.377 . S
C637 C638 1.379 . S
C638 H622 0.931 . S
C638 C632 1.383 . S
C638 C637 1.379 . S
H639 C633 0.959 . S
H640 C633 0.961 . S
H641 C633 0.960 . S
H642 C634 0.930 . S
H643 C635 0.929 . S
H644 C652 0.929 . S
H645 C654 0.930 . S
H646 C656 0.930 . S
H647 C659 0.929 . S
H648 C662 0.930 . S
H649 C664 0.960 . S
H650 C664 0.960 . S
H651 C664 0.960 . S
C652 H644 0.929 . S
C652 C653 1.377 . S
C652 C654 1.384 . S
C653 C652 1.377 . S
C653 C659 1.390 . S
C654 H645 0.930 . S
C654 C652 1.384 . S
C654 C655 1.372 . S
C655 C654 1.372 . S
C655 C656 1.400 . S
C655 C660 1.490 . S
C656 H646 0.930 . S
C656 C655 1.400 . S
C656 C659 1.386 . S
H657 C673 0.930 . S
H658 C674 0.931 . S
C659 H647 0.929 . S
C659 C653 1.390 . S
C659 C656 1.386 . S
C660 C655 1.490 . S
C660 C662 1.395 . S
C660 C663 1.403 . S
H661 C667 0.930 . S
C662 H648 0.930 . S
C662 C660 1.395 . S
C662 C665 1.403 1_565 S
C663 C660 1.403 . S
C663 C664 1.524 . S
C663 C667 1.400 1_565 S
C664 H649 0.960 . S
C664 H650 0.960 . S
C664 H651 0.960 . S
C664 C663 1.524 . S
C665 C662 1.403 1_545 S
C665 C666 1.392 . S
C665 C669 1.495 . S
C666 C665 1.392 . S
C666 C667 1.385 . S
C666 C668 1.478 . S
C667 H661 0.930 . S
C667 C663 1.400 1_545 S
C667 C666 1.385 . S
C668 C666 1.478 . S
C668 C670 1.381 . S
C668 C674 1.383 . S
C669 C665 1.495 . S
C669 H675 0.959 . S
C669 H676 0.961 . S
C669 H677 0.960 . S
C670 C668 1.381 . S
C670 C671 1.394 . S
C670 H678 0.930 . S
C671 C670 1.394 . S
C671 C672 1.383 . S
C671 H679 0.929 . S
C672 C671 1.383 . S
C672 C673 1.377 . S
C673 H657 0.930 . S
C673 C672 1.377 . S
C673 C674 1.379 . S
C674 H658 0.931 . S
C674 C668 1.383 . S
C674 C673 1.379 . S
H675 C669 0.959 . S
H676 C669 0.961 . S
H677 C669 0.960 . S
H678 C670 0.930 . S
H679 C671 0.929 . S
C113 C16 1.439 . S
C132 C3 1.441 . S
C149 C31 1.438 . S
C168 C42 1.440 . S
C185 C57 1.439 . S
C204 C70 1.443 . S
C221 C83 1.439 . S
C240 C96 1.443 . S
C257 C94 1.725 . S
C276 C5 1.726 . S
C293 C81 1.725 . S
C312 C18 1.726 . S
C329 C29 1.725 . S
C348 C68 1.726 . S
C365 C55 1.724 . S
C384 C44 1.726 . S
C401 C75 1.084 . S
C420 C36 1.078 . S
C437 C62 1.084 . S
C456 C43 1.078 . S
C473 C101 1.084 . S
C492 C4 1.076 . S
C509 C17 1.081 . S
C528 C88 1.089 . S
C545 C10 1.386 . S
C564 C30 1.379 . S
C581 C49 1.386 . S
C600 C23 1.379 . S
C617 C82 1.386 . S
C636 C56 1.382 . S
C653 C69 1.386 . S
C672 C95 1.381 . S
