# Generated by pormake.
# Topology uks, (4)-cn, num edge types: 1
# Building blocks:
#     Node 0, Type 0, BuildingBlock: MUDLON_clean_sbu_0, # of connection points: 4
#     Node 1, Type 0, BuildingBlock: MUDLON_clean_sbu_0, # of connection points: 4
#     Node 2, Type 0, BuildingBlock: MUDLON_clean_sbu_0, # of connection points: 4
#     Node 3, Type 0, BuildingBlock: MUDLON_clean_sbu_0, # of connection points: 4
#     Node 4, Type 0, BuildingBlock: MUDLON_clean_sbu_0, # of connection points: 4
#     Node 5, Type 0, BuildingBlock: MUDLON_clean_sbu_0, # of connection points: 4
#     Node 6, Type 0, BuildingBlock: MUDLON_clean_sbu_0, # of connection points: 4
#     Node 7, Type 0, BuildingBlock: MUDLON_clean_sbu_0, # of connection points: 4
#     Node 8, Type 0, BuildingBlock: MUDLON_clean_sbu_0, # of connection points: 4
#     Node 9, Type 0, BuildingBlock: MUDLON_clean_sbu_0, # of connection points: 4
#     Node 10, Type 0, BuildingBlock: MUDLON_clean_sbu_0, # of connection points: 4
#     Node 11, Type 0, BuildingBlock: MUDLON_clean_sbu_0, # of connection points: 4
#     Node 12, Type 0, BuildingBlock: MUDLON_clean_sbu_0, # of connection points: 4
#     Node 13, Type 0, BuildingBlock: MUDLON_clean_sbu_0, # of connection points: 4
#     Node 14, Type 0, BuildingBlock: MUDLON_clean_sbu_0, # of connection points: 4
#     Node 15, Type 0, BuildingBlock: MUDLON_clean_sbu_0, # of connection points: 4
#     Node 16, Type 0, BuildingBlock: MUDLON_clean_sbu_0, # of connection points: 4
#     Node 17, Type 0, BuildingBlock: MUDLON_clean_sbu_0, # of connection points: 4
#     Node 18, Type 0, BuildingBlock: MUDLON_clean_sbu_0, # of connection points: 4
#     Node 19, Type 0, BuildingBlock: MUDLON_clean_sbu_0, # of connection points: 4
#     Node 20, Type 0, BuildingBlock: MUDLON_clean_sbu_0, # of connection points: 4
#     Node 21, Type 0, BuildingBlock: MUDLON_clean_sbu_0, # of connection points: 4
#     Node 22, Type 0, BuildingBlock: MUDLON_clean_sbu_0, # of connection points: 4
#     Node 23, Type 0, BuildingBlock: MUDLON_clean_sbu_0, # of connection points: 4
#     Edge 24, Type (0, 0), BuildingBlock: AJUNOK_clean_linker_0, # of connection points: 2
#     Edge 25, Type (0, 0), BuildingBlock: AJUNOK_clean_linker_0, # of connection points: 2
#     Edge 26, Type (0, 0), BuildingBlock: AJUNOK_clean_linker_0, # of connection points: 2
#     Edge 27, Type (0, 0), BuildingBlock: AJUNOK_clean_linker_0, # of connection points: 2
#     Edge 28, Type (0, 0), BuildingBlock: AJUNOK_clean_linker_0, # of connection points: 2
#     Edge 29, Type (0, 0), BuildingBlock: AJUNOK_clean_linker_0, # of connection points: 2
#     Edge 30, Type (0, 0), BuildingBlock: AJUNOK_clean_linker_0, # of connection points: 2
#     Edge 31, Type (0, 0), BuildingBlock: AJUNOK_clean_linker_0, # of connection points: 2
#     Edge 32, Type (0, 0), BuildingBlock: AJUNOK_clean_linker_0, # of connection points: 2
#     Edge 33, Type (0, 0), BuildingBlock: AJUNOK_clean_linker_0, # of connection points: 2
#     Edge 34, Type (0, 0), BuildingBlock: AJUNOK_clean_linker_0, # of connection points: 2
#     Edge 35, Type (0, 0), BuildingBlock: AJUNOK_clean_linker_0, # of connection points: 2
#     Edge 36, Type (0, 0), BuildingBlock: AJUNOK_clean_linker_0, # of connection points: 2
#     Edge 37, Type (0, 0), BuildingBlock: AJUNOK_clean_linker_0, # of connection points: 2
#     Edge 38, Type (0, 0), BuildingBlock: AJUNOK_clean_linker_0, # of connection points: 2
#     Edge 39, Type (0, 0), BuildingBlock: AJUNOK_clean_linker_0, # of connection points: 2
#     Edge 40, Type (0, 0), BuildingBlock: AJUNOK_clean_linker_0, # of connection points: 2
#     Edge 41, Type (0, 0), BuildingBlock: AJUNOK_clean_linker_0, # of connection points: 2
#     Edge 42, Type (0, 0), BuildingBlock: AJUNOK_clean_linker_0, # of connection points: 2
#     Edge 43, Type (0, 0), BuildingBlock: AJUNOK_clean_linker_0, # of connection points: 2
#     Edge 44, Type (0, 0), BuildingBlock: AJUNOK_clean_linker_0, # of connection points: 2
#     Edge 45, Type (0, 0), BuildingBlock: AJUNOK_clean_linker_0, # of connection points: 2
#     Edge 46, Type (0, 0), BuildingBlock: AJUNOK_clean_linker_0, # of connection points: 2
#     Edge 47, Type (0, 0), BuildingBlock: AJUNOK_clean_linker_0, # of connection points: 2
#     Edge 48, Type (0, 0), BuildingBlock: AJUNOK_clean_linker_0, # of connection points: 2
#     Edge 49, Type (0, 0), BuildingBlock: AJUNOK_clean_linker_0, # of connection points: 2
#     Edge 50, Type (0, 0), BuildingBlock: AJUNOK_clean_linker_0, # of connection points: 2
#     Edge 51, Type (0, 0), BuildingBlock: AJUNOK_clean_linker_0, # of connection points: 2
#     Edge 52, Type (0, 0), BuildingBlock: AJUNOK_clean_linker_0, # of connection points: 2
#     Edge 53, Type (0, 0), BuildingBlock: AJUNOK_clean_linker_0, # of connection points: 2
#     Edge 54, Type (0, 0), BuildingBlock: AJUNOK_clean_linker_0, # of connection points: 2
#     Edge 55, Type (0, 0), BuildingBlock: AJUNOK_clean_linker_0, # of connection points: 2
#     Edge 56, Type (0, 0), BuildingBlock: AJUNOK_clean_linker_0, # of connection points: 2
#     Edge 57, Type (0, 0), BuildingBlock: AJUNOK_clean_linker_0, # of connection points: 2
#     Edge 58, Type (0, 0), BuildingBlock: AJUNOK_clean_linker_0, # of connection points: 2
#     Edge 59, Type (0, 0), BuildingBlock: AJUNOK_clean_linker_0, # of connection points: 2
#     Edge 60, Type (0, 0), BuildingBlock: AJUNOK_clean_linker_0, # of connection points: 2
#     Edge 61, Type (0, 0), BuildingBlock: AJUNOK_clean_linker_0, # of connection points: 2
#     Edge 62, Type (0, 0), BuildingBlock: AJUNOK_clean_linker_0, # of connection points: 2
#     Edge 63, Type (0, 0), BuildingBlock: AJUNOK_clean_linker_0, # of connection points: 2
#     Edge 64, Type (0, 0), BuildingBlock: AJUNOK_clean_linker_0, # of connection points: 2
#     Edge 65, Type (0, 0), BuildingBlock: AJUNOK_clean_linker_0, # of connection points: 2
#     Edge 66, Type (0, 0), BuildingBlock: AJUNOK_clean_linker_0, # of connection points: 2
#     Edge 67, Type (0, 0), BuildingBlock: AJUNOK_clean_linker_0, # of connection points: 2
#     Edge 68, Type (0, 0), BuildingBlock: AJUNOK_clean_linker_0, # of connection points: 2
#     Edge 69, Type (0, 0), BuildingBlock: AJUNOK_clean_linker_0, # of connection points: 2
#     Edge 70, Type (0, 0), BuildingBlock: AJUNOK_clean_linker_0, # of connection points: 2
#     Edge 71, Type (0, 0), BuildingBlock: AJUNOK_clean_linker_0, # of connection points: 2
# Relax obj value: 0.065
# Max RMSD: 0.062
# Mean RMSD: 0.062
data_MOF--net-uks--node1-MUDLON_clean_sbu_0--edge1-AJUNOK_clean_linker_0
_symmetry_space_group_name_H-M    P1
_symmetry_Int_Tables_number       1
_symmetry_cell_setting            triclinic
loop_
_symmetry_equiv_pos_as_xyz
'x, y, z'
_cell_length_a     40.831151
_cell_length_b     41.553785
_cell_length_c     41.033735
_cell_angle_alpha  90.101259
_cell_angle_beta   89.598983
_cell_angle_gamma 89.626721
loop_
_atom_site_label
_atom_site_type_symbol
_atom_site_fract_x
_atom_site_fract_y
_atom_site_fract_z
_atom_type_partial_charge
Mg0 Mg 0.15406 0.39035 0.72439 0.0
C1 C 0.2108 0.3935 0.76485 0.0
O2 O 0.22135 0.39274 0.73454 0.0
C3 C 0.08889 0.38621 0.69978 0.0
O4 O 0.10898 0.37604 0.67675 0.0
C5 C 0.1641 0.44999 0.68079 0.0
O6 O 0.13198 0.45126 0.68239 0.0
O7 O 0.1789 0.42586 0.69311 0.0
O8 O 0.18008 0.39438 0.77025 0.0
O9 O 0.15504 0.3382 0.71435 0.0
C10 C 0.17713 0.31799 0.72243 0.0
O11 O 0.2058 0.32855 0.73168 0.0
O12 O 0.10112 0.39821 0.72549 0.0
Mg13 Mg 0.65304 0.64198 0.2277 0.0
C14 C 0.67209 0.71456 0.21415 0.0
O15 O 0.7032 0.70677 0.21653 0.0
C16 C 0.65671 0.57672 0.20336 0.0
O17 O 0.6395 0.57547 0.23049 0.0
C18 C 0.58878 0.6423 0.20333 0.0
O19 O 0.61002 0.64397 0.17918 0.0
O20 O 0.59975 0.63747 0.23196 0.0
O21 O 0.65072 0.6925 0.2139 0.0
O22 O 0.68535 0.63882 0.27038 0.0
C23 C 0.71629 0.63775 0.26542 0.0
O24 O 0.72708 0.6372 0.23518 0.0
O25 O 0.66707 0.60395 0.19367 0.0
Mg26 Mg 0.39796 0.15045 0.71407 0.0
C27 C 0.40981 0.22202 0.7113 0.0
O28 O 0.4402 0.21159 0.71254 0.0
C29 C 0.36465 0.09024 0.69383 0.0
O30 O 0.36728 0.087 0.72549 0.0
C31 C 0.47305 0.13799 0.72702 0.0
O32 O 0.46561 0.13181 0.75756 0.0
O33 O 0.4504 0.14486 0.70711 0.0
O34 O 0.38704 0.20152 0.70753 0.0
O35 O 0.37592 0.13967 0.76137 0.0
C36 C 0.36207 0.16134 0.77871 0.0
O37 O 0.36925 0.19161 0.7733 0.0
O38 O 0.37518 0.11595 0.68057 0.0
Mg39 Mg 0.88246 0.87914 0.20986 0.0
C40 C 0.84067 0.90049 0.26665 0.0
O41 O 0.83187 0.92301 0.24607 0.0
C42 C 0.9585 0.88506 0.21676 0.0
O43 O 0.95287 0.89753 0.24571 0.0
C44 C 0.8763 0.94422 0.18968 0.0
O45 O 0.90058 0.94195 0.21042 0.0
O46 O 0.86075 0.91874 0.18266 0.0
O47 O 0.86585 0.88337 0.26017 0.0
O48 O 0.86681 0.82974 0.20357 0.0
C49 C 0.88876 0.80932 0.21146 0.0
O50 O 0.91912 0.81902 0.21358 0.0
O51 O 0.93464 0.878 0.19853 0.0
Mg52 Mg 0.16056 0.14576 0.83087 0.0
C53 C 0.14281 0.20029 0.78624 0.0
O54 O 0.12798 0.20933 0.81323 0.0
C55 C 0.1415 0.07253 0.84094 0.0
O56 O 0.11189 0.0822 0.84911 0.0
C57 C 0.09351 0.15856 0.84922 0.0
O58 O 0.09348 0.14514 0.8202 0.0
O59 O 0.12104 0.16245 0.863 0.0
O60 O 0.15639 0.17258 0.78503 0.0
O61 O 0.21167 0.15632 0.8411 0.0
C62 C 0.22831 0.14139 0.81935 0.0
O63 O 0.2124 0.12406 0.7979 0.0
O64 O 0.1624 0.09285 0.83073 0.0
Mg65 Mg 0.87969 0.6421 0.33052 0.0
C66 C 0.86974 0.70219 0.29866 0.0
O67 O 0.86594 0.70699 0.33009 0.0
C68 C 0.86686 0.57751 0.35124 0.0
O69 O 0.86552 0.59536 0.37766 0.0
C70 C 0.95115 0.6663 0.33719 0.0
O71 O 0.94319 0.68284 0.31115 0.0
O72 O 0.92963 0.64823 0.35038 0.0
O73 O 0.87541 0.67368 0.28883 0.0
O74 O 0.84252 0.65687 0.36653 0.0
C75 C 0.81136 0.65814 0.3699 0.0
O76 O 0.80005 0.66923 0.3978 0.0
O77 O 0.87275 0.59103 0.32404 0.0
Mg78 Mg 0.39375 0.38589 0.83753 0.0
C79 C 0.32019 0.39455 0.85169 0.0
O80 O 0.328 0.42414 0.85934 0.0
C81 C 0.44494 0.34146 0.86763 0.0
O82 O 0.43079 0.32043 0.84851 0.0
C83 C 0.3919 0.45163 0.86502 0.0
O84 O 0.39267 0.43308 0.89091 0.0
O85 O 0.39414 0.43844 0.83701 0.0
O86 O 0.34283 0.37353 0.8485 0.0
O87 O 0.4025 0.36061 0.79104 0.0
C88 C 0.38573 0.33498 0.78819 0.0
O89 O 0.36629 0.32662 0.81226 0.0
O90 O 0.43286 0.36972 0.86977 0.0
Mg91 Mg 0.65406 0.88797 0.31984 0.0
C92 C 0.63443 0.83617 0.27215 0.0
O93 O 0.60999 0.83417 0.29301 0.0
C94 C 0.65763 0.95225 0.34258 0.0
O95 O 0.65938 0.93302 0.36791 0.0
C96 C 0.60678 0.84986 0.36634 0.0
O97 O 0.6287 0.82658 0.36613 0.0
O98 O 0.6126 0.87569 0.35083 0.0
O99 O 0.65463 0.85909 0.2753 0.0
O100 O 0.70303 0.88216 0.33913 0.0
C101 C 0.72085 0.85989 0.32717 0.0
O102 O 0.70626 0.83567 0.31282 0.0
O103 O 0.65291 0.93995 0.31462 0.0
Mg104 Mg 0.71072 0.14764 0.38503 0.0
C105 C 0.76921 0.12755 0.34378 0.0
O106 O 0.75052 0.10263 0.3381 0.0
C107 C 0.71453 0.14013 0.46156 0.0
O108 O 0.74362 0.12684 0.45802 0.0
C109 C 0.69441 0.08181 0.37712 0.0
O110 O 0.71434 0.08446 0.40198 0.0
O111 O 0.68491 0.10746 0.36307 0.0
O112 O 0.76122 0.14677 0.36674 0.0
O113 O 0.70084 0.19758 0.37369 0.0
C114 C 0.71669 0.21378 0.39472 0.0
O115 O 0.73294 0.19811 0.41724 0.0
O116 O 0.69822 0.14816 0.43666 0.0
Mg117 Mg 0.90013 0.21045 0.90008 0.0
C118 C 0.91339 0.21489 0.83135 0.0
O119 O 0.92922 0.23826 0.84575 0.0
C120 C 0.89979 0.1942 0.96841 0.0
O121 O 0.91539 0.22163 0.96553 0.0
C122 C 0.97035 0.1957 0.91043 0.0
O123 O 0.95568 0.17022 0.92226 0.0
O124 O 0.95283 0.21988 0.90246 0.0
O125 O 0.89659 0.19561 0.84891 0.0
O126 O 0.86199 0.24766 0.90064 0.0
C127 C 0.83563 0.24291 0.91681 0.0
O128 O 0.83438 0.21916 0.9378 0.0
O129 O 0.88968 0.18055 0.94252 0.0
Mg130 Mg 0.8395 0.37538 0.38669 0.0
C131 C 0.78506 0.32995 0.37397 0.0
O132 O 0.80312 0.32637 0.34765 0.0
C133 C 0.86027 0.44015 0.37333 0.0
O134 O 0.88357 0.42144 0.36156 0.0
C135 C 0.86884 0.33668 0.44292 0.0
O136 O 0.84721 0.31536 0.4336 0.0
O137 O 0.87327 0.36172 0.4256 0.0
O138 O 0.79367 0.35033 0.39541 0.0
O139 O 0.84921 0.37037 0.33428 0.0
C140 C 0.82765 0.38746 0.31988 0.0
O141 O 0.80494 0.40199 0.33743 0.0
O142 O 0.8369 0.42743 0.38937 0.0
Mg143 Mg 0.65274 0.34325 0.886 0.0
C144 C 0.64486 0.31696 0.82528 0.0
O145 O 0.63429 0.29825 0.84881 0.0
C146 C 0.67023 0.36504 0.94666 0.0
O147 O 0.65469 0.3375 0.94871 0.0
C148 C 0.58109 0.31735 0.90046 0.0
O149 O 0.59377 0.28839 0.90345 0.0
O150 O 0.59994 0.34116 0.89562 0.0
O151 O 0.65574 0.34459 0.83289 0.0
O152 O 0.68649 0.30359 0.89783 0.0
C153 C 0.71343 0.30606 0.88212 0.0
O154 O 0.71625 0.32902 0.86035 0.0
O155 O 0.67223 0.37881 0.91903 0.0
Mg156 Mg 0.73282 0.39207 0.14076 0.0
C157 C 0.78186 0.41181 0.19185 0.0
O158 O 0.76321 0.43767 0.19254 0.0
C159 C 0.71269 0.40681 0.07247 0.0
O160 O 0.68673 0.41692 0.0886 0.0
C161 C 0.70576 0.45826 0.14599 0.0
O162 O 0.72784 0.46115 0.12276 0.0
O163 O 0.70134 0.43076 0.15899 0.0
O164 O 0.77713 0.39084 0.16988 0.0
O165 O 0.71891 0.34163 0.14492 0.0
C166 C 0.74185 0.32638 0.13023 0.0
O167 O 0.76606 0.34313 0.11775 0.0
O168 O 0.73766 0.39716 0.08818 0.0
Mg169 Mg 0.64677 0.21645 0.64463 0.0
C170 C 0.713 0.23467 0.64163 0.0
O171 O 0.69785 0.24817 0.61704 0.0
C172 C 0.60645 0.16301 0.68373 0.0
O173 O 0.6329 0.15449 0.69966 0.0
C174 C 0.6648 0.18066 0.58863 0.0
O175 O 0.6698 0.16299 0.61467 0.0
O176 O 0.65147 0.20827 0.59249 0.0
O177 O 0.69773 0.21434 0.65913 0.0
O178 O 0.63735 0.26032 0.67305 0.0
C179 C 0.64345 0.24972 0.70159 0.0
O180 O 0.65023 0.21896 0.70461 0.0
O181 O 0.60822 0.18444 0.66171 0.0
Mg182 Mg 0.81014 0.13536 0.15165 0.0
C183 C 0.78123 0.19547 0.13996 0.0
O184 O 0.81328 0.19776 0.13891 0.0
C185 C 0.83702 0.07393 0.15278 0.0
O186 O 0.85957 0.09606 0.14925 0.0
C187 C 0.86432 0.15814 0.10107 0.0
O188 O 0.88047 0.17033 0.12573 0.0
O189 O 0.83753 0.14367 0.10638 0.0
O190 O 0.76859 0.16838 0.14688 0.0
O191 O 0.83102 0.14321 0.20001 0.0
C192 C 0.81956 0.16421 0.21972 0.0
O193 O 0.80103 0.18743 0.20826 0.0
O194 O 0.80715 0.08309 0.15283 0.0
Mg195 Mg 0.90686 0.30025 0.64595 0.0
C196 C 0.82984 0.30772 0.66692 0.0
O197 O 0.8341 0.3258 0.69282 0.0
C198 C 0.95039 0.35737 0.68239 0.0
O199 O 0.92704 0.37403 0.69688 0.0
C200 C 0.90453 0.32588 0.57969 0.0
O201 O 0.89657 0.35003 0.59897 0.0
O202 O 0.91261 0.29921 0.59284 0.0
O203 O 0.85406 0.30011 0.64889 0.0
O204 O 0.91682 0.25753 0.67555 0.0
C205 C 0.90162 0.25998 0.70271 0.0
O206 O 0.88466 0.2862 0.70874 0.0
O207 O 0.94333 0.33316 0.66489 0.0
Mg208 Mg 0.39552 0.7141 0.15747 0.0
C209 C 0.32738 0.72027 0.13807 0.0
O210 O 0.34483 0.73608 0.11649 0.0
C211 C 0.45979 0.69348 0.17146 0.0
O212 O 0.46011 0.72141 0.15646 0.0
C213 C 0.39691 0.69139 0.09009 0.0
O214 O 0.3828 0.66844 0.10699 0.0
O215 O 0.40687 0.71628 0.10511 0.0
O216 O 0.34245 0.70564 0.16084 0.0
O217 O 0.40412 0.75681 0.1873 0.0
C218 C 0.38164 0.77608 0.19686 0.0
O219 O 0.35235 0.77383 0.18409 0.0
O220 O 0.43207 0.68054 0.17685 0.0
Mg221 Mg 0.40606 0.79988 0.39915 0.0
C222 C 0.38607 0.82828 0.32777 0.0
O223 O 0.36524 0.84972 0.33933 0.0
C224 C 0.39179 0.85944 0.44741 0.0
O225 O 0.39831 0.88047 0.42446 0.0
C226 C 0.47015 0.82494 0.39651 0.0
O227 O 0.44886 0.84757 0.38919 0.0
O228 O 0.45917 0.79705 0.40322 0.0
O229 O 0.40189 0.81035 0.34725 0.0
O230 O 0.37258 0.75928 0.40453 0.0
C231 C 0.3443 0.76913 0.39586 0.0
O232 O 0.34147 0.79903 0.38586 0.0
O233 O 0.392 0.82956 0.44087 0.0
Mg234 Mg 0.23697 0.89459 0.90631 0.0
C235 C 0.26244 0.888 0.843 0.0
O236 O 0.23053 0.88419 0.84368 0.0
C237 C 0.21351 0.89246 0.97152 0.0
O238 O 0.18867 0.89023 0.95146 0.0
C239 C 0.18234 0.94193 0.87614 0.0
O240 O 0.16563 0.917 0.86594 0.0
O241 O 0.20844 0.93748 0.8924 0.0
O242 O 0.27657 0.89429 0.86988 0.0
O243 O 0.21621 0.8464 0.90132 0.0
C244 C 0.204 0.81842 0.89838 0.0
O245 O 0.17287 0.8162 0.89103 0.0
O246 O 0.24191 0.89716 0.95932 0.0
Mg247 Mg 0.14617 0.72307 0.40201 0.0
C248 C 0.16167 0.76077 0.34575 0.0
O249 O 0.16641 0.73028 0.33853 0.0
C250 C 0.14385 0.69201 0.46455 0.0
O251 O 0.14722 0.66985 0.44183 0.0
C252 C 0.08051 0.68546 0.39398 0.0
O253 O 0.08215 0.68242 0.42574 0.0
O254 O 0.10395 0.69906 0.37862 0.0
O255 O 0.15037 0.76799 0.37398 0.0
O256 O 0.19713 0.7069 0.39335 0.0
C257 C 0.21908 0.70703 0.41542 0.0
O258 O 0.21018 0.70888 0.44613 0.0
O259 O 0.14089 0.72115 0.45533 0.0
Mg260 Mg 0.32357 0.64676 0.9024 0.0
C261 C 0.3283 0.67466 0.82892 0.0
O262 O 0.34828 0.69829 0.83585 0.0
C263 C 0.38298 0.67239 0.95047 0.0
O264 O 0.40745 0.67112 0.92956 0.0
C265 C 0.35215 0.58581 0.88218 0.0
O266 O 0.3684 0.6084 0.86677 0.0
O267 O 0.32929 0.59431 0.90188 0.0
O268 O 0.31981 0.65477 0.85067 0.0
O269 O 0.28002 0.67589 0.91292 0.0
C270 C 0.28887 0.70527 0.91066 0.0
O271 O 0.32004 0.71119 0.90543 0.0
O272 O 0.3544 0.6644 0.94161 0.0
Mg273 Mg 0.1554 0.82669 0.16444 0.0
C274 C 0.19016 0.82918 0.22775 0.0
O275 O 0.2124 0.81463 0.20963 0.0
C276 C 0.19195 0.86845 0.11047 0.0
O277 O 0.21624 0.87246 0.13085 0.0
C278 C 0.09271 0.8547 0.17847 0.0
O279 O 0.11468 0.87728 0.18266 0.0
O280 O 0.10236 0.82715 0.16847 0.0
O281 O 0.16675 0.84335 0.21338 0.0
O282 O 0.1813 0.78029 0.16094 0.0
C283 C 0.19813 0.77438 0.1354 0.0
O284 O 0.19436 0.7933 0.11009 0.0
O285 O 0.16627 0.85393 0.12003 0.0
Mg286 Mg 0.22142 0.64738 0.65036 0.0
C287 C 0.24573 0.70987 0.64041 0.0
O288 O 0.22084 0.71124 0.66081 0.0
C289 C 0.22496 0.57503 0.66649 0.0
O290 O 0.23501 0.58611 0.69466 0.0
C291 C 0.18734 0.65402 0.59265 0.0
O292 O 0.21369 0.63601 0.58891 0.0
O293 O 0.18006 0.66394 0.62126 0.0
O294 O 0.25486 0.68256 0.62913 0.0
O295 O 0.23206 0.6568 0.70154 0.0
C296 C 0.2631 0.65633 0.70511 0.0
O297 O 0.28157 0.64831 0.68002 0.0
O298 O 0.22095 0.59467 0.64298 0.0
Mg299 Mg 0.33044 0.89628 0.6457 0.0
C300 C 0.29222 0.83886 0.61728 0.0
O301 O 0.30713 0.84607 0.58987 0.0
C302 C 0.34145 0.96661 0.63621 0.0
O303 O 0.36931 0.95414 0.62598 0.0
C304 C 0.35453 0.89935 0.57843 0.0
O305 O 0.3287 0.91837 0.57912 0.0
O306 O 0.36391 0.88643 0.60501 0.0
O307 O 0.29429 0.85781 0.64163 0.0
O308 O 0.34058 0.88988 0.69777 0.0
C309 C 0.31508 0.90016 0.71278 0.0
O310 O 0.29165 0.91353 0.69558 0.0
O311 O 0.31823 0.94773 0.64412 0.0
C312 C 0.12646 0.24892 0.7548 0.0
C313 C 0.15022 0.22535 0.76176 0.0
C314 C 0.13488 0.27768 0.73903 0.0
C315 C 0.16764 0.28439 0.73052 0.0
H316 H 0.10146 0.2459 0.76324 0.0
H317 H 0.11592 0.29575 0.73588 0.0
S318 S 0.23835 0.22878 0.74036 0.0
N319 N 0.20712 0.20902 0.75609 0.0
N320 N 0.22333 0.26344 0.72736 0.0
C321 C 0.19121 0.26 0.73538 0.0
C322 C 0.18242 0.23038 0.75077 0.0
C323 C 0.77429 0.64037 0.28622 0.0
C324 C 0.74027 0.63964 0.29279 0.0
C325 C 0.79736 0.64483 0.31119 0.0
C326 C 0.7875 0.64916 0.34381 0.0
H327 H 0.7833 0.63813 0.26143 0.0
H328 H 0.82296 0.64565 0.30469 0.0
S329 S 0.70166 0.64492 0.37474 0.0
N330 N 0.69829 0.64048 0.33497 0.0
N331 N 0.74117 0.64894 0.38161 0.0
C332 C 0.75363 0.64677 0.35087 0.0
C333 C 0.7302 0.64206 0.32551 0.0
C334 C 0.4221 0.3043 0.74955 0.0
C335 C 0.39054 0.31187 0.76111 0.0
C336 C 0.42779 0.27638 0.73088 0.0
C337 C 0.40208 0.25518 0.72302 0.0
H338 H 0.44286 0.31854 0.75709 0.0
H339 H 0.45285 0.27035 0.72442 0.0
S340 S 0.31408 0.2683 0.74234 0.0
N341 N 0.33274 0.29892 0.75962 0.0
N342 N 0.34313 0.24684 0.7243 0.0
C343 C 0.36998 0.26448 0.73171 0.0
C344 C 0.36432 0.29269 0.75088 0.0
C345 C 0.76812 0.89817 0.32423 0.0
C346 C 0.75566 0.86697 0.31905 0.0
C347 C 0.79714 0.90836 0.30898 0.0
C348 C 0.81514 0.88755 0.28859 0.0
H349 H 0.75425 0.91566 0.3383 0.0
H350 H 0.80465 0.93316 0.31184 0.0
S351 S 0.79462 0.80293 0.26863 0.0
N352 N 0.76535 0.81463 0.29397 0.0
N353 N 0.81895 0.83423 0.26454 0.0
C354 C 0.80411 0.85579 0.28479 0.0
C355 C 0.7747 0.84534 0.30035 0.0
C356 C 0.81672 0.12389 0.26475 0.0
C357 C 0.817 0.15635 0.25494 0.0
C358 C 0.8041 0.11492 0.29527 0.0
C359 C 0.79179 0.13803 0.31737 0.0
H360 H 0.82349 0.10497 0.24775 0.0
H361 H 0.80178 0.0895 0.3006 0.0
S362 S 0.79361 0.22666 0.306 0.0
N363 N 0.80869 0.21194 0.2716 0.0
N364 N 0.78551 0.19521 0.32918 0.0
C365 C 0.7955 0.17077 0.30934 0.0
C366 C 0.80794 0.17988 0.27804 0.0
C367 C 0.87881 0.22698 0.7476 0.0
C368 C 0.90646 0.23751 0.72995 0.0
C369 C 0.88161 0.21557 0.77969 0.0
C370 C 0.91205 0.21534 0.79539 0.0
H371 H 0.85456 0.22994 0.73742 0.0
H372 H 0.85947 0.2101 0.79324 0.0
S373 S 0.99196 0.23845 0.75898 0.0
N374 N 0.96531 0.24443 0.72947 0.0
N375 N 0.97059 0.22455 0.79018 0.0
C376 C 0.94008 0.22381 0.7772 0.0
C377 C 0.93729 0.23451 0.74431 0.0
C378 C 0.82425 0.42314 0.27227 0.0
C379 C 0.82647 0.39162 0.28437 0.0
C380 C 0.81244 0.42926 0.24095 0.0
C381 C 0.80215 0.40405 0.22065 0.0
H382 H 0.82948 0.44342 0.28801 0.0
H383 H 0.80938 0.45407 0.23343 0.0
S384 S 0.80483 0.31687 0.24061 0.0
N385 N 0.81932 0.33476 0.27342 0.0
N386 N 0.79697 0.34595 0.21433 0.0
C387 C 0.80646 0.37214 0.23167 0.0
C388 C 0.81863 0.36599 0.26368 0.0
C389 C 0.65072 0.25339 0.76101 0.0
C390 C 0.64471 0.26966 0.73155 0.0
C391 C 0.65213 0.26958 0.79048 0.0
C392 C 0.64749 0.30295 0.79235 0.0
H393 H 0.65407 0.22753 0.76178 0.0
H394 H 0.65643 0.25544 0.81223 0.0
S395 S 0.63383 0.35787 0.72267 0.0
N396 N 0.63626 0.32174 0.7058 0.0
N397 N 0.63865 0.35254 0.76229 0.0
C398 C 0.64279 0.32014 0.76325 0.0
C399 C 0.6413 0.30339 0.73264 0.0
C400 C 0.27691 0.73456 0.10814 0.0
C401 C 0.29132 0.72476 0.13755 0.0
C402 C 0.24543 0.74791 0.10743 0.0
C403 C 0.22687 0.75212 0.13614 0.0
H404 H 0.29087 0.73384 0.08558 0.0
H405 H 0.23652 0.75689 0.08434 0.0
S406 S 0.25029 0.72309 0.21835 0.0
N407 N 0.28258 0.71481 0.19528 0.0
N408 N 0.223 0.7399 0.19409 0.0
C409 C 0.23947 0.73902 0.16523 0.0
C410 C 0.2718 0.7253 0.1659 0.0
C411 C 0.28568 0.7604 0.38258 0.0
C412 C 0.31423 0.7492 0.39811 0.0
C413 C 0.25549 0.74537 0.38724 0.0
C414 C 0.25243 0.71802 0.40686 0.0
H415 H 0.28619 0.78191 0.36771 0.0
H416 H 0.23382 0.75666 0.37741 0.0
S417 S 0.31915 0.6785 0.45295 0.0
N418 N 0.33739 0.70859 0.43397 0.0
N419 N 0.28021 0.68014 0.44227 0.0
C420 C 0.28068 0.70597 0.42208 0.0
C421 C 0.31171 0.72142 0.41753 0.0
C422 C 0.25775 0.79159 0.91121 0.0
C423 C 0.22437 0.78882 0.90346 0.0
C424 C 0.2778 0.76431 0.91472 0.0
C425 C 0.2655 0.73291 0.91076 0.0
H426 H 0.26874 0.81507 0.9141 0.0
H427 H 0.30345 0.768 0.92008 0.0
S428 S 0.1797 0.712 0.89154 0.0
N429 N 0.17969 0.75172 0.89295 0.0
N430 N 0.2176 0.7006 0.89951 0.0
C431 C 0.23206 0.72961 0.90393 0.0
C432 C 0.21151 0.75748 0.90024 0.0
C433 C 0.2802 0.75645 0.65489 0.0
C434 C 0.26154 0.74027 0.63146 0.0
C435 C 0.28952 0.78858 0.65032 0.0
C436 C 0.28034 0.80566 0.62219 0.0
H437 H 0.28684 0.74444 0.67735 0.0
H438 H 0.30412 0.80008 0.6689 0.0
S439 S 0.22927 0.77471 0.55492 0.0
N440 N 0.23261 0.74397 0.5802 0.0
N441 N 0.25075 0.80423 0.5711 0.0
C442 C 0.26178 0.78964 0.59854 0.0
C443 C 0.25212 0.75699 0.60335 0.0
C444 C 0.87498 0.75154 0.22079 0.0
C445 C 0.87972 0.78269 0.23294 0.0
C446 C 0.87099 0.72545 0.24218 0.0
C447 C 0.87135 0.72997 0.27625 0.0
H448 H 0.87543 0.7472 0.19475 0.0
H449 H 0.86815 0.70158 0.23199 0.0
S450 S 0.8836 0.80755 0.31961 0.0
N451 N 0.8859 0.81673 0.28057 0.0
N452 N 0.87643 0.76855 0.32077 0.0
C453 C 0.87543 0.76138 0.28844 0.0
C454 C 0.88029 0.78752 0.26675 0.0
C455 C 0.26178 0.36928 0.78608 0.0
C456 C 0.23483 0.3899 0.7912 0.0
C457 C 0.288 0.36865 0.80773 0.0
C458 C 0.28868 0.38922 0.83498 0.0
H459 H 0.26323 0.35431 0.76445 0.0
H460 H 0.30886 0.35362 0.80158 0.0
S461 S 0.22243 0.4453 0.86097 0.0
N462 N 0.20867 0.42905 0.82697 0.0
N463 N 0.25873 0.42877 0.86742 0.0
C464 C 0.26096 0.40858 0.84142 0.0
C465 C 0.23381 0.40869 0.81959 0.0
C466 C 0.62047 0.78203 0.24996 0.0
C467 C 0.64213 0.80821 0.25061 0.0
C468 C 0.62953 0.75263 0.23574 0.0
C469 C 0.66086 0.7479 0.22179 0.0
H470 H 0.59682 0.78359 0.26201 0.0
H471 H 0.61243 0.73289 0.23766 0.0
S472 S 0.72417 0.81061 0.211 0.0
N473 N 0.69445 0.82897 0.23141 0.0
N474 N 0.71161 0.77337 0.20507 0.0
C475 C 0.68171 0.77462 0.21974 0.0
C476 C 0.67233 0.80482 0.234 0.0
C477 C 0.31343 0.12614 0.7862 0.0
C478 C 0.33095 0.15353 0.79583 0.0
C479 C 0.28084 0.12179 0.79565 0.0
C480 C 0.2643 0.1444 0.81547 0.0
H481 H 0.32411 0.10879 0.76948 0.0
H482 H 0.26812 0.10104 0.7861 0.0
S483 S 0.30079 0.21739 0.852 0.0
N484 N 0.33064 0.20168 0.82959 0.0
N485 N 0.26914 0.19319 0.84778 0.0
C486 C 0.28222 0.17053 0.82758 0.0
C487 C 0.31556 0.17517 0.81762 0.0
C488 C 0.3233 0.9043 0.77359 0.0
C489 C 0.30698 0.89101 0.74667 0.0
C490 C 0.30996 0.90182 0.80539 0.0
C491 C 0.27985 0.8862 0.811 0.0
H492 H 0.34529 0.91827 0.76982 0.0
H493 H 0.32232 0.91369 0.8253 0.0
S494 S 0.22982 0.8446 0.74856 0.0
N495 N 0.26092 0.85969 0.72792 0.0
N496 N 0.2361 0.85467 0.78689 0.0
C497 C 0.26462 0.87124 0.78429 0.0
C498 C 0.27811 0.87378 0.75233 0.0
C499 C 0.14854 0.8064 0.30776 0.0
C500 C 0.17151 0.785 0.32122 0.0
C501 C 0.15561 0.82313 0.27869 0.0
C502 C 0.18607 0.81929 0.26245 0.0
H503 H 0.12418 0.80828 0.31825 0.0
H504 H 0.13629 0.83739 0.26781 0.0
S505 S 0.25632 0.77034 0.2914 0.0
N506 N 0.22665 0.76316 0.31781 0.0
N507 N 0.24088 0.79633 0.26525 0.0
C508 C 0.21016 0.80041 0.27766 0.0
C509 C 0.20259 0.78272 0.30643 0.0
C510 C 0.2793 0.6609 0.79582 0.0
C511 C 0.31166 0.67258 0.7971 0.0
C512 C 0.26309 0.65693 0.76609 0.0
C513 C 0.27892 0.66386 0.73651 0.0
H514 H 0.26636 0.65461 0.81803 0.0
H515 H 0.23848 0.64734 0.76624 0.0
S516 S 0.363 0.69626 0.72658 0.0
N517 N 0.35833 0.69219 0.76637 0.0
N518 N 0.32827 0.68427 0.7103 0.0
C519 C 0.31101 0.6762 0.73748 0.0
C520 C 0.32727 0.68073 0.76782 0.0
C521 C 0.41097 0.79728 0.28144 0.0
C522 C 0.3879 0.82039 0.29233 0.0
C523 C 0.41017 0.78479 0.24975 0.0
C524 C 0.38615 0.7947 0.22746 0.0
H525 H 0.4291 0.78757 0.29794 0.0
H526 H 0.42744 0.76585 0.24342 0.0
S527 S 0.32373 0.8586 0.24148 0.0
N528 N 0.34302 0.85575 0.27661 0.0
N529 N 0.34137 0.83198 0.217 0.0
C530 C 0.36447 0.81948 0.23709 0.0
C531 C 0.36542 0.83244 0.26946 0.0
C532 C 0.75008 0.27936 0.92302 0.0
C533 C 0.74293 0.28695 0.89043 0.0
C534 C 0.78043 0.26565 0.93151 0.0
C535 C 0.80473 0.25934 0.90774 0.0
H536 H 0.73255 0.28491 0.94215 0.0
H537 H 0.78508 0.26031 0.9569 0.0
S538 S 0.7959 0.27002 0.8185 0.0
N539 N 0.76117 0.28396 0.83402 0.0
N540 N 0.81802 0.25835 0.84993 0.0
C541 C 0.79731 0.26567 0.87499 0.0
C542 C 0.76645 0.27941 0.86636 0.0
C543 C 0.79745 0.26819 0.6349 0.0
C544 C 0.79928 0.28921 0.66194 0.0
C545 C 0.77024 0.24869 0.62987 0.0
C546 C 0.74394 0.24893 0.65186 0.0
H547 H 0.81708 0.26688 0.61704 0.0
H548 H 0.76934 0.23396 0.60806 0.0
S549 S 0.73516 0.29974 0.72573 0.0
N550 N 0.7715 0.30919 0.71072 0.0
N551 N 0.72026 0.27214 0.701 0.0
C552 C 0.74521 0.26937 0.6791 0.0
C553 C 0.77288 0.28963 0.68418 0.0
C554 C 0.73197 0.27136 0.15417 0.0
C555 C 0.74397 0.29081 0.12869 0.0
C556 C 0.74113 0.23862 0.15632 0.0
C557 C 0.76204 0.22463 0.13278 0.0
H558 H 0.71774 0.282 0.17383 0.0
H559 H 0.73412 0.22507 0.17776 0.0
S560 S 0.79584 0.26369 0.05899 0.0
N561 N 0.77506 0.29242 0.07789 0.0
N562 N 0.79102 0.23124 0.08154 0.0
C563 C 0.77147 0.24304 0.10582 0.0
C564 C 0.76276 0.2761 0.10387 0.0
C565 C 0.74544 0.2893 0.35416 0.0
C566 C 0.75927 0.30608 0.38052 0.0
C567 C 0.72787 0.26086 0.35907 0.0
C568 C 0.72396 0.24819 0.3905 0.0
H569 H 0.75016 0.29696 0.32935 0.0
H570 H 0.72009 0.2473 0.33796 0.0
S571 S 0.75043 0.28571 0.46804 0.0
N572 N 0.76392 0.31026 0.43942 0.0
N573 N 0.73097 0.25677 0.4487 0.0
C574 C 0.73469 0.26647 0.41726 0.0
C575 C 0.75238 0.2955 0.41228 0.0
C576 C 0.22621 0.51757 0.68509 0.0
C577 C 0.21281 0.54133 0.66459 0.0
C578 C 0.2117 0.48712 0.68828 0.0
C579 C 0.18266 0.47944 0.67173 0.0
H580 H 0.24748 0.52294 0.69971 0.0
H581 H 0.22224 0.47024 0.70542 0.0
S582 S 0.13898 0.53208 0.61322 0.0
N583 N 0.17007 0.55407 0.62561 0.0
N584 N 0.14233 0.49731 0.63238 0.0
C585 C 0.16984 0.50241 0.65005 0.0
C586 C 0.18503 0.53318 0.64624 0.0
C587 C 0.52042 0.69181 0.16749 0.0
C588 C 0.49162 0.67858 0.18073 0.0
C589 C 0.55128 0.67983 0.17546 0.0
C590 C 0.5551 0.65417 0.19736 0.0
H591 H 0.51933 0.71171 0.1505 0.0
H592 H 0.57249 0.69107 0.1644 0.0
S593 S 0.48807 0.61034 0.23887 0.0
N594 N 0.46896 0.6378 0.21678 0.0
N595 N 0.52768 0.61549 0.23221 0.0
C596 C 0.52679 0.64061 0.21115 0.0
C597 C 0.49491 0.65266 0.20263 0.0
C598 C 0.32587 1.00986 0.67563 0.0
C599 C 0.34073 1.00092 0.64597 0.0
C600 C 0.33213 0.03989 0.68983 0.0
C601 C 0.35298 0.06233 0.67466 0.0
H602 H 0.31134 0.99269 0.68922 0.0
H603 H 0.32179 0.04493 0.7137 0.0
S604 S 0.39371 0.05228 0.59423 0.0
N605 N 0.37429 0.01801 0.60012 0.0
N606 N 0.38546 0.07481 0.62651 0.0
C607 C 0.36566 0.05476 0.64364 0.0
C608 C 0.35971 0.02392 0.62941 0.0
C609 C 0.05104 0.88706 0.20908 0.0
C610 C 0.05816 0.8615 0.18747 0.0
C611 C 1.01882 0.89445 0.21846 0.0
C612 C 0.99233 0.87705 0.20606 0.0
H613 H 0.07059 0.90134 0.21926 0.0
H614 H 1.01464 0.91416 0.23534 0.0
S615 S 0.99757 0.80796 0.14855 0.0
N616 N 0.03603 0.81857 0.15414 0.0
N617 N 0.97529 0.83304 0.17086 0.0
C618 C 0.99901 0.85162 0.18413 0.0
C619 C 0.03195 0.84365 0.17511 0.0
C620 C 0.14059 0.98171 0.85491 0.0
C621 C 0.17218 0.97536 0.86715 0.0
C622 C 0.13074 1.01312 0.84629 0.0
C623 C 0.15237 0.03923 0.84877 0.0
H624 H 0.12316 0.96236 0.85229 0.0
H625 H 0.1061 1.01694 0.83743 0.0
S626 S 0.23748 0.03602 0.87982 0.0
N627 N 0.22478 0.99845 0.88174 0.0
N628 N 0.20649 0.05685 0.86496 0.0
C629 C 0.184 0.03323 0.86075 0.0
C630 C 0.19383 1.00151 0.87009 0.0
C631 C 1.00541 0.69447 0.34036 0.0
C632 C 0.98484 0.66931 0.35089 0.0
C633 C 0.03693 0.69862 0.35324 0.0
C634 C 0.04919 0.67792 0.37739 0.0
H635 H 0.9969 0.71163 0.32241 0.0
H636 H 0.05129 0.71896 0.3451 0.0
S637 S 1.00723 0.60612 0.41075 0.0
N638 N 0.98056 0.62172 0.38504 0.0
N639 N 0.03947 0.62991 0.40956 0.0
C640 C 0.02944 0.65209 0.38742 0.0
C641 C 0.99741 0.64769 0.37413 0.0
C642 C 0.35527 0.5284 0.90101 0.0
C643 C 0.36149 0.55155 0.87689 0.0
C644 C 0.36579 0.49638 0.89711 0.0
C645 C 0.38244 0.48604 0.86868 0.0
H646 H 0.34272 0.53517 0.92336 0.0
H647 H 0.3604 0.47949 0.91646 0.0
S648 S 0.40384 0.53691 0.79765 0.0
N649 N 0.38502 0.56173 0.82318 0.0
N650 N 0.40413 0.50148 0.81578 0.0
C651 C 0.38836 0.5088 0.84414 0.0
C652 C 0.37809 0.54152 0.84828 0.0
C653 C 0.52906 0.80682 0.393 0.0
C654 C 0.50575 0.83189 0.39377 0.0
C655 C 0.5622 0.81295 0.38594 0.0
C656 C 0.57321 0.84437 0.37936 0.0
H657 H 0.5215 0.78213 0.3965 0.0
H658 H 0.57895 0.7927 0.38416 0.0
S659 S 0.52293 0.91911 0.38339 0.0
N660 N 0.49686 0.8899 0.39109 0.0
N661 N 0.55872 0.90124 0.37787 0.0
C662 C 0.55051 0.86986 0.38225 0.0
C663 C 0.51691 0.86366 0.38943 0.0
C664 C 0.6692 0.18649 0.52792 0.0
C665 C 0.67692 0.16932 0.55635 0.0
C666 C 0.68118 0.17656 0.49738 0.0
C667 C 0.70175 0.14935 0.49412 0.0
H668 H 0.65383 0.20781 0.5292 0.0
H669 H 0.67472 0.19073 0.47621 0.0
S670 S 0.72896 0.09559 0.56063 0.0
N671 N 0.70611 0.12315 0.57899 0.0
N672 N 0.72886 0.10511 0.5216 0.0
C673 C 0.70966 0.13195 0.5222 0.0
C674 C 0.69715 0.14174 0.55328 0.0
C675 C 0.89975 0.18681 0.06057 0.0
C676 C 0.87507 0.16422 0.06691 0.0
C677 C 0.90817 0.1954 0.02861 0.0
C678 C 0.89243 0.18167 1.00152 0.0
H679 H 0.9121 0.19877 0.08043 0.0
H680 H 0.92682 0.21354 0.02522 0.0
S681 S 0.82781 0.11943 1.00457 0.0
N682 N 0.83619 0.12677 0.04316 0.0
N683 N 0.85215 0.14301 0.98313 0.0
C684 C 0.86862 0.15808 1.00737 0.0
C685 C 0.85988 0.14939 0.04001 0.0
C686 C 0.89642 0.30163 0.52401 0.0
C687 C 0.90001 0.3291 0.54379 0.0
C688 C 0.88761 0.30429 0.49102 0.0
C689 C 0.88275 0.33451 0.47628 0.0
H690 H 0.899 0.27781 0.5344 0.0
H691 H 0.88381 0.28246 0.47713 0.0
S692 S 0.89048 0.41401 0.51683 0.0
N693 N 0.89901 0.38768 0.54566 0.0
N694 N 0.88304 0.39254 0.48386 0.0
C695 C 0.8876 0.3622 0.49539 0.0
C696 C 0.89606 0.35952 0.52905 0.0
C697 C 0.68466 0.40982 0.98491 0.0
C698 C 0.68682 0.37726 0.97587 0.0
C699 C 0.695 0.41991 1.01589 0.0
C700 C 0.70876 0.39791 0.03805 0.0
H701 H 0.67302 0.42708 0.96891 0.0
H702 H 0.69106 0.44475 1.02306 0.0
S703 S 0.72114 0.31046 0.02492 0.0
N704 N 0.70476 0.32346 0.99075 0.0
N705 N 0.72485 0.34254 0.04837 0.0
C706 C 0.71273 0.36574 0.02841 0.0
C707 C 0.7016 0.3554 0.9974 0.0
C708 C 0.84649 0.52988 0.38163 0.0
C709 C 0.8631 0.54235 0.35428 0.0
C710 C 0.84492 0.49672 0.38721 0.0
C711 C 0.86046 0.47488 0.366 0.0
H712 H 0.83488 0.54589 0.39914 0.0
H713 H 0.83227 0.48822 0.40881 0.0
S714 S 0.90515 0.49497 0.2896 0.0
N715 N 0.89374 0.53018 0.30472 0.0
N716 N 0.89126 0.46776 0.31541 0.0
C717 C 0.87635 0.48693 0.33801 0.0
C718 C 0.87751 0.52071 0.33206 0.0
C719 C 0.49932 0.35972 0.88831 0.0
C720 C 0.47785 0.33434 0.88125 0.0
C721 C 0.53222 0.35383 0.89601 0.0
C722 C 0.54506 0.32228 0.89732 0.0
H723 H 0.49116 0.38449 0.88632 0.0
H724 H 0.54795 0.37435 0.8999 0.0
S725 S 0.49787 0.24718 0.88489 0.0
N726 N 0.47093 0.27634 0.87892 0.0
N727 N 0.53264 0.26518 0.89371 0.0
C728 C 0.52331 0.29659 0.8923 0.0
C729 C 0.48981 0.30264 0.88415 0.0
C730 C 0.65673 0.04347 0.34823 0.0
C731 C 0.68635 0.04942 0.36454 0.0
C732 C 0.64788 1.01194 0.33933 0.0
C733 C 0.66849 0.9857 0.34647 0.0
H734 H 0.63978 0.06304 0.34352 0.0
H735 H 0.62427 1.00791 0.32822 0.0
S736 S 0.75078 0.98895 0.38366 0.0
N737 N 0.73788 0.02667 0.3836 0.0
N738 N 0.72094 0.96789 0.36734 0.0
C739 C 0.69883 0.99162 0.36095 0.0
C740 C 0.70786 0.02339 0.36986 0.0
C741 C 0.06159 0.18509 0.89502 0.0
C742 C 0.0622 0.16991 0.86421 0.0
C743 C 0.03184 0.19494 0.90967 0.0
C744 C 1.00192 0.19026 0.89375 0.0
H745 H 0.08414 0.18887 0.90819 0.0
H746 H 0.03217 0.20552 0.9338 0.0
S747 S 0.98947 0.15125 0.81362 0.0
N748 N 0.02951 0.15075 0.81868 0.0
N749 N 0.97427 0.16907 0.84639 0.0
C750 C 1.00215 0.17554 0.86302 0.0
C751 C 0.03212 0.16547 0.84816 0.0
C752 C 0.8246 1.0148 0.15969 0.0
C753 C 0.84723 0.04026 0.1598 0.0
C754 C 0.83426 0.98326 0.16799 0.0
C755 C 0.86674 0.97629 0.17709 0.0
H756 H 0.79924 0.01932 0.15354 0.0
H757 H 0.81597 0.9645 0.16836 0.0
S758 S 0.9358 0.03386 0.17993 0.0
N759 N 0.90401 0.05572 0.16874 0.0
N760 N 0.92175 0.99701 0.18417 0.0
C761 C 0.88966 1.00134 0.17646 0.0
C762 C 0.88002 0.03316 0.16788 0.0
C763 C 0.02907 0.40026 0.70779 0.0
C764 C 0.05361 0.37863 0.69727 0.0
C765 C 0.99563 0.39337 0.70312 0.0
C766 C 0.98568 0.3645 0.68808 0.0
H767 H 0.03577 0.42293 0.71888 0.0
H768 H 0.97752 0.41096 0.71096 0.0
S769 S 0.04095 0.29799 0.66069 0.0
N770 N 0.06581 0.32608 0.67411 0.0
N771 N 1.00372 0.31287 0.66566 0.0
C772 C 1.01027 0.34219 0.67881 0.0
C773 C 0.044 0.34932 0.68334 0.0
C774 C 0.68308 0.48982 0.19274 0.0
C775 C 0.68964 0.48743 0.15921 0.0
C776 C 0.67184 0.51874 0.20651 0.0
C777 C 0.66683 0.54635 0.18728 0.0
H778 H 0.68789 0.46961 0.20869 0.0
H779 H 0.66807 0.51972 0.23265 0.0
S780 S 0.67506 0.55089 0.09742 0.0
N781 N 0.68672 0.51384 0.10647 0.0
N782 N 0.66561 0.56836 0.13249 0.0
C783 C 0.67176 0.54385 0.15348 0.0
C784 C 0.68314 0.51432 0.13942 0.0
C785 C 0.51429 0.1538 0.68492 0.0
C786 C 0.50766 0.14054 0.71581 0.0
C787 C 0.54634 0.15946 0.67437 0.0
C788 C 0.5734 0.15205 0.6941 0.0
H789 H 0.49454 0.16088 0.66892 0.0
H790 H 0.54978 0.17061 0.65075 0.0
S791 S 0.56976 0.11394 0.77579 0.0
N792 N 0.53103 0.1179 0.76512 0.0
N793 N 0.59152 0.12856 0.74521 0.0
C794 C 0.56733 0.13732 0.72441 0.0
C795 C 0.53446 0.13165 0.73529 0.0
C796 C 0.3734 0.90127 0.48785 0.0
C797 C 0.38508 0.87 0.48145 0.0
C798 C 0.36493 0.91093 0.51962 0.0
C799 C 0.36846 0.88996 0.54633 0.0
H800 H 0.3697 0.9181 0.46807 0.0
H801 H 0.35488 0.93488 0.52318 0.0
S802 S 0.40048 0.80634 0.54315 0.0
N803 N 0.4015 0.81858 0.50491 0.0
N804 N 0.38597 0.83704 0.5645 0.0
C805 C 0.38151 0.85913 0.54053 0.0
C806 C 0.38966 0.84907 0.50813 0.0
C807 C 0.22247 0.89516 0.06418 0.0
C808 C 0.19623 0.87596 0.07512 0.0
C809 C 0.22826 0.90042 0.0307 0.0
C810 C 0.20794 0.88677 1.00691 0.0
H811 H 0.23885 0.90607 0.0816 0.0
H812 H 0.24863 0.91543 1.02343 0.0
S813 S 0.13714 0.83298 1.02222 0.0
N814 N 0.15042 0.8424 0.05886 0.0
N815 N 0.16136 0.85211 0.99656 0.0
C816 C 0.18172 0.86747 1.01749 0.0
C817 C 0.17582 0.86214 0.05138 0.0
C818 C 0.17006 0.64179 0.53659 0.0
C819 C 0.16931 0.66336 0.56295 0.0
C820 C 0.16016 0.65114 0.50555 0.0
C821 C 0.14935 0.68273 0.49914 0.0
H822 H 0.1797 0.61762 0.53963 0.0
H823 H 0.16251 0.63356 0.48615 0.0
S824 S 0.1392 0.74764 0.56073 0.0
N825 N 0.15417 0.71697 0.58161 0.0
N826 N 0.13565 0.73494 0.52272 0.0
C827 C 0.14667 0.7042 0.52568 0.0
C828 C 0.15654 0.69441 0.55772 0.0
C829 C 0.36391 0.68435 0.04039 0.0
C830 C 0.39452 0.69048 0.05424 0.0
C831 C 0.36058 0.67977 1.00683 0.0
C832 C 0.38788 0.68048 0.98555 0.0
H833 H 0.34228 0.68265 0.05575 0.0
H834 H 0.33628 0.6748 0.99775 0.0
S835 S 0.47366 0.69622 1.01014 0.0
N836 N 0.45263 0.69802 0.04466 0.0
N837 N 0.44676 0.68865 0.98126 0.0
C838 C 0.4187 0.68733 0.99913 0.0
C839 C 0.42193 0.69252 0.03354 0.0
loop_
_geom_bond_atom_site_label_1
_geom_bond_atom_site_label_2
_geom_bond_distance
_geom_bond_site_symmetry_2
_ccdc_geom_bond_type
Mg0 O7 2.141 . S
Mg0 O8 2.048 . S
Mg0 O9 2.048 . S
Mg0 O12 2.141 . S
C1 O2 1.313 . S
C1 O8 1.195 . S
O2 C1 1.313 . S
C3 O4 1.245 . S
C3 O12 1.289 . S
O4 C3 1.245 . S
C5 O6 1.245 . S
C5 O7 1.289 . S
O6 C5 1.245 . S
O7 Mg0 2.141 . S
O7 C5 1.289 . S
O8 Mg0 2.048 . S
O8 C1 1.195 . S
O9 Mg0 2.048 . S
O9 C10 1.195 . S
C10 O9 1.195 . S
C10 O11 1.313 . S
O11 C10 1.313 . S
O12 Mg0 2.141 . S
O12 C3 1.289 . S
Mg13 O20 2.141 . S
Mg13 O21 2.048 . S
Mg13 O22 2.048 . S
Mg13 O25 2.141 . S
C14 O15 1.313 . S
C14 O21 1.195 . S
O15 C14 1.313 . S
C16 O17 1.245 . S
C16 O25 1.289 . S
O17 C16 1.245 . S
C18 O19 1.245 . S
C18 O20 1.289 . S
O19 C18 1.245 . S
O20 Mg13 2.141 . S
O20 C18 1.289 . S
O21 Mg13 2.048 . S
O21 C14 1.195 . S
O22 Mg13 2.048 . S
O22 C23 1.195 . S
C23 O22 1.195 . S
C23 O24 1.313 . S
O24 C23 1.313 . S
O25 Mg13 2.141 . S
O25 C16 1.289 . S
Mg26 O33 2.141 . S
Mg26 O34 2.048 . S
Mg26 O35 2.048 . S
Mg26 O38 2.141 . S
C27 O28 1.313 . S
C27 O34 1.195 . S
O28 C27 1.313 . S
C29 O30 1.245 . S
C29 O38 1.289 . S
O30 C29 1.245 . S
C31 O32 1.245 . S
C31 O33 1.289 . S
O32 C31 1.245 . S
O33 Mg26 2.141 . S
O33 C31 1.289 . S
O34 Mg26 2.048 . S
O34 C27 1.195 . S
O35 Mg26 2.048 . S
O35 C36 1.195 . S
C36 O35 1.195 . S
C36 O37 1.313 . S
O37 C36 1.313 . S
O38 Mg26 2.141 . S
O38 C29 1.289 . S
Mg39 O46 2.141 . S
Mg39 O47 2.048 . S
Mg39 O48 2.048 . S
Mg39 O51 2.141 . S
C40 O41 1.313 . S
C40 O47 1.195 . S
O41 C40 1.313 . S
C42 O43 1.245 . S
C42 O51 1.289 . S
O43 C42 1.245 . S
C44 O45 1.245 . S
C44 O46 1.289 . S
O45 C44 1.245 . S
O46 Mg39 2.141 . S
O46 C44 1.289 . S
O47 Mg39 2.048 . S
O47 C40 1.195 . S
O48 Mg39 2.048 . S
O48 C49 1.195 . S
C49 O48 1.195 . S
C49 O50 1.313 . S
O50 C49 1.313 . S
O51 Mg39 2.141 . S
O51 C42 1.289 . S
Mg52 O59 2.141 . S
Mg52 O60 2.048 . S
Mg52 O61 2.048 . S
Mg52 O64 2.141 . S
C53 O54 1.313 . S
C53 O60 1.195 . S
O54 C53 1.313 . S
C55 O56 1.245 . S
C55 O64 1.289 . S
O56 C55 1.245 . S
C57 O58 1.245 . S
C57 O59 1.289 . S
O58 C57 1.245 . S
O59 Mg52 2.141 . S
O59 C57 1.289 . S
O60 Mg52 2.048 . S
O60 C53 1.195 . S
O61 Mg52 2.048 . S
O61 C62 1.195 . S
C62 O61 1.195 . S
C62 O63 1.313 . S
O63 C62 1.313 . S
O64 Mg52 2.141 . S
O64 C55 1.289 . S
Mg65 O72 2.141 . S
Mg65 O73 2.048 . S
Mg65 O74 2.048 . S
Mg65 O77 2.141 . S
C66 O67 1.313 . S
C66 O73 1.195 . S
O67 C66 1.313 . S
C68 O69 1.245 . S
C68 O77 1.289 . S
O69 C68 1.245 . S
C70 O71 1.245 . S
C70 O72 1.289 . S
O71 C70 1.245 . S
O72 Mg65 2.141 . S
O72 C70 1.289 . S
O73 Mg65 2.048 . S
O73 C66 1.195 . S
O74 Mg65 2.048 . S
O74 C75 1.195 . S
C75 O74 1.195 . S
C75 O76 1.313 . S
O76 C75 1.313 . S
O77 Mg65 2.141 . S
O77 C68 1.289 . S
Mg78 O85 2.141 . S
Mg78 O86 2.048 . S
Mg78 O87 2.048 . S
Mg78 O90 2.141 . S
C79 O80 1.313 . S
C79 O86 1.195 . S
O80 C79 1.313 . S
C81 O82 1.245 . S
C81 O90 1.289 . S
O82 C81 1.245 . S
C83 O84 1.245 . S
C83 O85 1.289 . S
O84 C83 1.245 . S
O85 Mg78 2.141 . S
O85 C83 1.289 . S
O86 Mg78 2.048 . S
O86 C79 1.195 . S
O87 Mg78 2.048 . S
O87 C88 1.195 . S
C88 O87 1.195 . S
C88 O89 1.313 . S
O89 C88 1.313 . S
O90 Mg78 2.141 . S
O90 C81 1.289 . S
Mg91 O98 2.141 . S
Mg91 O99 2.048 . S
Mg91 O100 2.048 . S
Mg91 O103 2.141 . S
C92 O93 1.313 . S
C92 O99 1.195 . S
O93 C92 1.313 . S
C94 O95 1.245 . S
C94 O103 1.289 . S
O95 C94 1.245 . S
C96 O97 1.245 . S
C96 O98 1.289 . S
O97 C96 1.245 . S
O98 Mg91 2.141 . S
O98 C96 1.289 . S
O99 Mg91 2.048 . S
O99 C92 1.195 . S
O100 Mg91 2.048 . S
O100 C101 1.195 . S
C101 O100 1.195 . S
C101 O102 1.313 . S
O102 C101 1.313 . S
O103 Mg91 2.141 . S
O103 C94 1.289 . S
Mg104 O111 2.141 . S
Mg104 O112 2.048 . S
Mg104 O113 2.048 . S
Mg104 O116 2.141 . S
C105 O106 1.313 . S
C105 O112 1.195 . S
O106 C105 1.313 . S
C107 O108 1.245 . S
C107 O116 1.289 . S
O108 C107 1.245 . S
C109 O110 1.245 . S
C109 O111 1.289 . S
O110 C109 1.245 . S
O111 Mg104 2.141 . S
O111 C109 1.289 . S
O112 Mg104 2.048 . S
O112 C105 1.195 . S
O113 Mg104 2.048 . S
O113 C114 1.195 . S
C114 O113 1.195 . S
C114 O115 1.313 . S
O115 C114 1.313 . S
O116 Mg104 2.141 . S
O116 C107 1.289 . S
Mg117 O124 2.141 . S
Mg117 O125 2.048 . S
Mg117 O126 2.048 . S
Mg117 O129 2.141 . S
C118 O119 1.313 . S
C118 O125 1.195 . S
O119 C118 1.313 . S
C120 O121 1.245 . S
C120 O129 1.289 . S
O121 C120 1.245 . S
C122 O123 1.245 . S
C122 O124 1.289 . S
O123 C122 1.245 . S
O124 Mg117 2.141 . S
O124 C122 1.289 . S
O125 Mg117 2.048 . S
O125 C118 1.195 . S
O126 Mg117 2.048 . S
O126 C127 1.195 . S
C127 O126 1.195 . S
C127 O128 1.313 . S
O128 C127 1.313 . S
O129 Mg117 2.141 . S
O129 C120 1.289 . S
Mg130 O137 2.141 . S
Mg130 O138 2.048 . S
Mg130 O139 2.048 . S
Mg130 O142 2.141 . S
C131 O132 1.313 . S
C131 O138 1.195 . S
O132 C131 1.313 . S
C133 O134 1.245 . S
C133 O142 1.289 . S
O134 C133 1.245 . S
C135 O136 1.245 . S
C135 O137 1.289 . S
O136 C135 1.245 . S
O137 Mg130 2.141 . S
O137 C135 1.289 . S
O138 Mg130 2.048 . S
O138 C131 1.195 . S
O139 Mg130 2.048 . S
O139 C140 1.195 . S
C140 O139 1.195 . S
C140 O141 1.313 . S
O141 C140 1.313 . S
O142 Mg130 2.141 . S
O142 C133 1.289 . S
Mg143 O150 2.141 . S
Mg143 O151 2.048 . S
Mg143 O152 2.048 . S
Mg143 O155 2.141 . S
C144 O145 1.313 . S
C144 O151 1.195 . S
O145 C144 1.313 . S
C146 O147 1.245 . S
C146 O155 1.289 . S
O147 C146 1.245 . S
C148 O149 1.245 . S
C148 O150 1.289 . S
O149 C148 1.245 . S
O150 Mg143 2.141 . S
O150 C148 1.289 . S
O151 Mg143 2.048 . S
O151 C144 1.195 . S
O152 Mg143 2.048 . S
O152 C153 1.195 . S
C153 O152 1.195 . S
C153 O154 1.313 . S
O154 C153 1.313 . S
O155 Mg143 2.141 . S
O155 C146 1.289 . S
Mg156 O163 2.141 . S
Mg156 O164 2.048 . S
Mg156 O165 2.048 . S
Mg156 O168 2.141 . S
C157 O158 1.313 . S
C157 O164 1.195 . S
O158 C157 1.313 . S
C159 O160 1.245 . S
C159 O168 1.289 . S
O160 C159 1.245 . S
C161 O162 1.245 . S
C161 O163 1.289 . S
O162 C161 1.245 . S
O163 Mg156 2.141 . S
O163 C161 1.289 . S
O164 Mg156 2.048 . S
O164 C157 1.195 . S
O165 Mg156 2.048 . S
O165 C166 1.195 . S
C166 O165 1.195 . S
C166 O167 1.313 . S
O167 C166 1.313 . S
O168 Mg156 2.141 . S
O168 C159 1.289 . S
Mg169 O176 2.141 . S
Mg169 O177 2.048 . S
Mg169 O178 2.048 . S
Mg169 O181 2.141 . S
C170 O171 1.313 . S
C170 O177 1.195 . S
O171 C170 1.313 . S
C172 O173 1.245 . S
C172 O181 1.289 . S
O173 C172 1.245 . S
C174 O175 1.245 . S
C174 O176 1.289 . S
O175 C174 1.245 . S
O176 Mg169 2.141 . S
O176 C174 1.289 . S
O177 Mg169 2.048 . S
O177 C170 1.195 . S
O178 Mg169 2.048 . S
O178 C179 1.195 . S
C179 O178 1.195 . S
C179 O180 1.313 . S
O180 C179 1.313 . S
O181 Mg169 2.141 . S
O181 C172 1.289 . S
Mg182 O189 2.141 . S
Mg182 O190 2.048 . S
Mg182 O191 2.048 . S
Mg182 O194 2.141 . S
C183 O184 1.313 . S
C183 O190 1.195 . S
O184 C183 1.313 . S
C185 O186 1.245 . S
C185 O194 1.289 . S
O186 C185 1.245 . S
C187 O188 1.245 . S
C187 O189 1.289 . S
O188 C187 1.245 . S
O189 Mg182 2.141 . S
O189 C187 1.289 . S
O190 Mg182 2.048 . S
O190 C183 1.195 . S
O191 Mg182 2.048 . S
O191 C192 1.195 . S
C192 O191 1.195 . S
C192 O193 1.313 . S
O193 C192 1.313 . S
O194 Mg182 2.141 . S
O194 C185 1.289 . S
Mg195 O202 2.141 . S
Mg195 O203 2.048 . S
Mg195 O204 2.048 . S
Mg195 O207 2.141 . S
C196 O197 1.313 . S
C196 O203 1.195 . S
O197 C196 1.313 . S
C198 O199 1.245 . S
C198 O207 1.289 . S
O199 C198 1.245 . S
C200 O201 1.245 . S
C200 O202 1.289 . S
O201 C200 1.245 . S
O202 Mg195 2.141 . S
O202 C200 1.289 . S
O203 Mg195 2.048 . S
O203 C196 1.195 . S
O204 Mg195 2.048 . S
O204 C205 1.195 . S
C205 O204 1.195 . S
C205 O206 1.313 . S
O206 C205 1.313 . S
O207 Mg195 2.141 . S
O207 C198 1.289 . S
Mg208 O215 2.141 . S
Mg208 O216 2.048 . S
Mg208 O217 2.048 . S
Mg208 O220 2.141 . S
C209 O210 1.313 . S
C209 O216 1.195 . S
O210 C209 1.313 . S
C211 O212 1.245 . S
C211 O220 1.289 . S
O212 C211 1.245 . S
C213 O214 1.245 . S
C213 O215 1.289 . S
O214 C213 1.245 . S
O215 Mg208 2.141 . S
O215 C213 1.289 . S
O216 Mg208 2.048 . S
O216 C209 1.195 . S
O217 Mg208 2.048 . S
O217 C218 1.195 . S
C218 O217 1.195 . S
C218 O219 1.313 . S
O219 C218 1.313 . S
O220 Mg208 2.141 . S
O220 C211 1.289 . S
Mg221 O228 2.141 . S
Mg221 O229 2.048 . S
Mg221 O230 2.048 . S
Mg221 O233 2.141 . S
C222 O223 1.313 . S
C222 O229 1.195 . S
O223 C222 1.313 . S
C224 O225 1.245 . S
C224 O233 1.289 . S
O225 C224 1.245 . S
C226 O227 1.245 . S
C226 O228 1.289 . S
O227 C226 1.245 . S
O228 Mg221 2.141 . S
O228 C226 1.289 . S
O229 Mg221 2.048 . S
O229 C222 1.195 . S
O230 Mg221 2.048 . S
O230 C231 1.195 . S
C231 O230 1.195 . S
C231 O232 1.313 . S
O232 C231 1.313 . S
O233 Mg221 2.141 . S
O233 C224 1.289 . S
Mg234 O241 2.141 . S
Mg234 O242 2.048 . S
Mg234 O243 2.048 . S
Mg234 O246 2.141 . S
C235 O236 1.313 . S
C235 O242 1.195 . S
O236 C235 1.313 . S
C237 O238 1.245 . S
C237 O246 1.289 . S
O238 C237 1.245 . S
C239 O240 1.245 . S
C239 O241 1.289 . S
O240 C239 1.245 . S
O241 Mg234 2.141 . S
O241 C239 1.289 . S
O242 Mg234 2.048 . S
O242 C235 1.195 . S
O243 Mg234 2.048 . S
O243 C244 1.195 . S
C244 O243 1.195 . S
C244 O245 1.313 . S
O245 C244 1.313 . S
O246 Mg234 2.141 . S
O246 C237 1.289 . S
Mg247 O254 2.141 . S
Mg247 O255 2.048 . S
Mg247 O256 2.048 . S
Mg247 O259 2.141 . S
C248 O249 1.313 . S
C248 O255 1.195 . S
O249 C248 1.313 . S
C250 O251 1.245 . S
C250 O259 1.289 . S
O251 C250 1.245 . S
C252 O253 1.245 . S
C252 O254 1.289 . S
O253 C252 1.245 . S
O254 Mg247 2.141 . S
O254 C252 1.289 . S
O255 Mg247 2.048 . S
O255 C248 1.195 . S
O256 Mg247 2.048 . S
O256 C257 1.195 . S
C257 O256 1.195 . S
C257 O258 1.313 . S
O258 C257 1.313 . S
O259 Mg247 2.141 . S
O259 C250 1.289 . S
Mg260 O267 2.141 . S
Mg260 O268 2.048 . S
Mg260 O269 2.048 . S
Mg260 O272 2.141 . S
C261 O262 1.313 . S
C261 O268 1.195 . S
O262 C261 1.313 . S
C263 O264 1.245 . S
C263 O272 1.289 . S
O264 C263 1.245 . S
C265 O266 1.245 . S
C265 O267 1.289 . S
O266 C265 1.245 . S
O267 Mg260 2.141 . S
O267 C265 1.289 . S
O268 Mg260 2.048 . S
O268 C261 1.195 . S
O269 Mg260 2.048 . S
O269 C270 1.195 . S
C270 O269 1.195 . S
C270 O271 1.313 . S
O271 C270 1.313 . S
O272 Mg260 2.141 . S
O272 C263 1.289 . S
Mg273 O280 2.141 . S
Mg273 O281 2.048 . S
Mg273 O282 2.048 . S
Mg273 O285 2.141 . S
C274 O275 1.313 . S
C274 O281 1.195 . S
O275 C274 1.313 . S
C276 O277 1.245 . S
C276 O285 1.289 . S
O277 C276 1.245 . S
C278 O279 1.245 . S
C278 O280 1.289 . S
O279 C278 1.245 . S
O280 Mg273 2.141 . S
O280 C278 1.289 . S
O281 Mg273 2.048 . S
O281 C274 1.195 . S
O282 Mg273 2.048 . S
O282 C283 1.195 . S
C283 O282 1.195 . S
C283 O284 1.313 . S
O284 C283 1.313 . S
O285 Mg273 2.141 . S
O285 C276 1.289 . S
Mg286 O293 2.141 . S
Mg286 O294 2.048 . S
Mg286 O295 2.048 . S
Mg286 O298 2.141 . S
C287 O288 1.313 . S
C287 O294 1.195 . S
O288 C287 1.313 . S
C289 O290 1.245 . S
C289 O298 1.289 . S
O290 C289 1.245 . S
C291 O292 1.245 . S
C291 O293 1.289 . S
O292 C291 1.245 . S
O293 Mg286 2.141 . S
O293 C291 1.289 . S
O294 Mg286 2.048 . S
O294 C287 1.195 . S
O295 Mg286 2.048 . S
O295 C296 1.195 . S
C296 O295 1.195 . S
C296 O297 1.313 . S
O297 C296 1.313 . S
O298 Mg286 2.141 . S
O298 C289 1.289 . S
Mg299 O306 2.141 . S
Mg299 O307 2.048 . S
Mg299 O308 2.048 . S
Mg299 O311 2.141 . S
C300 O301 1.313 . S
C300 O307 1.195 . S
O301 C300 1.313 . S
C302 O303 1.245 . S
C302 O311 1.289 . S
O303 C302 1.245 . S
C304 O305 1.245 . S
C304 O306 1.289 . S
O305 C304 1.245 . S
O306 Mg299 2.141 . S
O306 C304 1.289 . S
O307 Mg299 2.048 . S
O307 C300 1.195 . S
O308 Mg299 2.048 . S
O308 C309 1.195 . S
C309 O308 1.195 . S
C309 O310 1.313 . S
O310 C309 1.313 . S
O311 Mg299 2.141 . S
O311 C302 1.289 . S
C312 C313 1.369 . S
C312 C314 1.419 . S
C312 H316 0.930 . S
C313 C312 1.369 . S
C313 C322 1.429 . S
C314 C312 1.419 . S
C314 C315 1.363 . S
C314 H317 0.929 . S
C315 C314 1.363 . S
C315 C321 1.428 . S
H316 C312 0.930 . S
H317 C314 0.929 . S
S318 N319 1.613 . S
S318 N320 1.610 . S
N319 S318 1.613 . S
N319 C322 1.350 . S
N320 S318 1.610 . S
N320 C321 1.351 . S
C321 C315 1.428 . S
C321 N320 1.351 . S
C321 C322 1.434 . S
C322 C313 1.429 . S
C322 N319 1.350 . S
C322 C321 1.434 . S
C323 C324 1.369 . S
C323 C325 1.419 . S
C323 H327 0.930 . S
C324 C323 1.369 . S
C324 C333 1.429 . S
C325 C323 1.419 . S
C325 C326 1.363 . S
C325 H328 0.929 . S
C326 C325 1.363 . S
C326 C332 1.428 . S
H327 C323 0.930 . S
H328 C325 0.929 . S
S329 N330 1.613 . S
S329 N331 1.610 . S
N330 S329 1.613 . S
N330 C333 1.350 . S
N331 S329 1.610 . S
N331 C332 1.351 . S
C332 C326 1.428 . S
C332 N331 1.351 . S
C332 C333 1.434 . S
C333 C324 1.429 . S
C333 N330 1.350 . S
C333 C332 1.434 . S
C334 C335 1.369 . S
C334 C336 1.419 . S
C334 H338 0.930 . S
C335 C334 1.369 . S
C335 C344 1.429 . S
C336 C334 1.419 . S
C336 C337 1.363 . S
C336 H339 0.929 . S
C337 C336 1.363 . S
C337 C343 1.428 . S
H338 C334 0.930 . S
H339 C336 0.929 . S
S340 N341 1.613 . S
S340 N342 1.610 . S
N341 S340 1.613 . S
N341 C344 1.350 . S
N342 S340 1.610 . S
N342 C343 1.351 . S
C343 C337 1.428 . S
C343 N342 1.351 . S
C343 C344 1.434 . S
C344 C335 1.429 . S
C344 N341 1.350 . S
C344 C343 1.434 . S
C345 C346 1.369 . S
C345 C347 1.419 . S
C345 H349 0.930 . S
C346 C345 1.369 . S
C346 C355 1.429 . S
C347 C345 1.419 . S
C347 C348 1.363 . S
C347 H350 0.929 . S
C348 C347 1.363 . S
C348 C354 1.428 . S
H349 C345 0.930 . S
H350 C347 0.929 . S
S351 N352 1.613 . S
S351 N353 1.610 . S
N352 S351 1.613 . S
N352 C355 1.350 . S
N353 S351 1.610 . S
N353 C354 1.351 . S
C354 C348 1.428 . S
C354 N353 1.351 . S
C354 C355 1.434 . S
C355 C346 1.429 . S
C355 N352 1.350 . S
C355 C354 1.434 . S
C356 C357 1.369 . S
C356 C358 1.419 . S
C356 H360 0.930 . S
C357 C356 1.369 . S
C357 C366 1.429 . S
C358 C356 1.419 . S
C358 C359 1.363 . S
C358 H361 0.929 . S
C359 C358 1.363 . S
C359 C365 1.428 . S
H360 C356 0.930 . S
H361 C358 0.929 . S
S362 N363 1.613 . S
S362 N364 1.610 . S
N363 S362 1.613 . S
N363 C366 1.350 . S
N364 S362 1.610 . S
N364 C365 1.351 . S
C365 C359 1.428 . S
C365 N364 1.351 . S
C365 C366 1.434 . S
C366 C357 1.429 . S
C366 N363 1.350 . S
C366 C365 1.434 . S
C367 C368 1.369 . S
C367 C369 1.419 . S
C367 H371 0.930 . S
C368 C367 1.369 . S
C368 C377 1.429 . S
C369 C367 1.419 . S
C369 C370 1.363 . S
C369 H372 0.929 . S
C370 C369 1.363 . S
C370 C376 1.428 . S
H371 C367 0.930 . S
H372 C369 0.929 . S
S373 N374 1.613 . S
S373 N375 1.610 . S
N374 S373 1.613 . S
N374 C377 1.350 . S
N375 S373 1.610 . S
N375 C376 1.351 . S
C376 C370 1.428 . S
C376 N375 1.351 . S
C376 C377 1.434 . S
C377 C368 1.429 . S
C377 N374 1.350 . S
C377 C376 1.434 . S
C378 C379 1.369 . S
C378 C380 1.419 . S
C378 H382 0.930 . S
C379 C378 1.369 . S
C379 C388 1.429 . S
C380 C378 1.419 . S
C380 C381 1.363 . S
C380 H383 0.929 . S
C381 C380 1.363 . S
C381 C387 1.428 . S
H382 C378 0.930 . S
H383 C380 0.929 . S
S384 N385 1.613 . S
S384 N386 1.610 . S
N385 S384 1.613 . S
N385 C388 1.350 . S
N386 S384 1.610 . S
N386 C387 1.351 . S
C387 C381 1.428 . S
C387 N386 1.351 . S
C387 C388 1.434 . S
C388 C379 1.429 . S
C388 N385 1.350 . S
C388 C387 1.434 . S
C389 C390 1.369 . S
C389 C391 1.419 . S
C389 H393 0.930 . S
C390 C389 1.369 . S
C390 C399 1.429 . S
C391 C389 1.419 . S
C391 C392 1.363 . S
C391 H394 0.929 . S
C392 C391 1.363 . S
C392 C398 1.428 . S
H393 C389 0.930 . S
H394 C391 0.929 . S
S395 N396 1.613 . S
S395 N397 1.610 . S
N396 S395 1.613 . S
N396 C399 1.350 . S
N397 S395 1.610 . S
N397 C398 1.351 . S
C398 C392 1.428 . S
C398 N397 1.351 . S
C398 C399 1.434 . S
C399 C390 1.429 . S
C399 N396 1.350 . S
C399 C398 1.434 . S
C400 C401 1.369 . S
C400 C402 1.419 . S
C400 H404 0.930 . S
C401 C400 1.369 . S
C401 C410 1.429 . S
C402 C400 1.419 . S
C402 C403 1.363 . S
C402 H405 0.929 . S
C403 C402 1.363 . S
C403 C409 1.428 . S
H404 C400 0.930 . S
H405 C402 0.929 . S
S406 N407 1.613 . S
S406 N408 1.610 . S
N407 S406 1.613 . S
N407 C410 1.350 . S
N408 S406 1.610 . S
N408 C409 1.351 . S
C409 C403 1.428 . S
C409 N408 1.351 . S
C409 C410 1.434 . S
C410 C401 1.429 . S
C410 N407 1.350 . S
C410 C409 1.434 . S
C411 C412 1.369 . S
C411 C413 1.419 . S
C411 H415 0.930 . S
C412 C411 1.369 . S
C412 C421 1.429 . S
C413 C411 1.419 . S
C413 C414 1.363 . S
C413 H416 0.929 . S
C414 C413 1.363 . S
C414 C420 1.428 . S
H415 C411 0.930 . S
H416 C413 0.929 . S
S417 N418 1.613 . S
S417 N419 1.610 . S
N418 S417 1.613 . S
N418 C421 1.350 . S
N419 S417 1.610 . S
N419 C420 1.351 . S
C420 C414 1.428 . S
C420 N419 1.351 . S
C420 C421 1.434 . S
C421 C412 1.429 . S
C421 N418 1.350 . S
C421 C420 1.434 . S
C422 C423 1.369 . S
C422 C424 1.419 . S
C422 H426 0.930 . S
C423 C422 1.369 . S
C423 C432 1.429 . S
C424 C422 1.419 . S
C424 C425 1.363 . S
C424 H427 0.929 . S
C425 C424 1.363 . S
C425 C431 1.428 . S
H426 C422 0.930 . S
H427 C424 0.929 . S
S428 N429 1.613 . S
S428 N430 1.610 . S
N429 S428 1.613 . S
N429 C432 1.350 . S
N430 S428 1.610 . S
N430 C431 1.351 . S
C431 C425 1.428 . S
C431 N430 1.351 . S
C431 C432 1.434 . S
C432 C423 1.429 . S
C432 N429 1.350 . S
C432 C431 1.434 . S
C433 C434 1.369 . S
C433 C435 1.419 . S
C433 H437 0.930 . S
C434 C433 1.369 . S
C434 C443 1.429 . S
C435 C433 1.419 . S
C435 C436 1.363 . S
C435 H438 0.929 . S
C436 C435 1.363 . S
C436 C442 1.428 . S
H437 C433 0.930 . S
H438 C435 0.929 . S
S439 N440 1.613 . S
S439 N441 1.610 . S
N440 S439 1.613 . S
N440 C443 1.350 . S
N441 S439 1.610 . S
N441 C442 1.351 . S
C442 C436 1.428 . S
C442 N441 1.351 . S
C442 C443 1.434 . S
C443 C434 1.429 . S
C443 N440 1.350 . S
C443 C442 1.434 . S
C444 C445 1.369 . S
C444 C446 1.419 . S
C444 H448 0.930 . S
C445 C444 1.369 . S
C445 C454 1.429 . S
C446 C444 1.419 . S
C446 C447 1.363 . S
C446 H449 0.929 . S
C447 C446 1.363 . S
C447 C453 1.428 . S
H448 C444 0.930 . S
H449 C446 0.929 . S
S450 N451 1.613 . S
S450 N452 1.610 . S
N451 S450 1.613 . S
N451 C454 1.350 . S
N452 S450 1.610 . S
N452 C453 1.351 . S
C453 C447 1.428 . S
C453 N452 1.351 . S
C453 C454 1.434 . S
C454 C445 1.429 . S
C454 N451 1.350 . S
C454 C453 1.434 . S
C455 C456 1.369 . S
C455 C457 1.419 . S
C455 H459 0.930 . S
C456 C455 1.369 . S
C456 C465 1.429 . S
C457 C455 1.419 . S
C457 C458 1.363 . S
C457 H460 0.929 . S
C458 C457 1.363 . S
C458 C464 1.428 . S
H459 C455 0.930 . S
H460 C457 0.929 . S
S461 N462 1.613 . S
S461 N463 1.610 . S
N462 S461 1.613 . S
N462 C465 1.350 . S
N463 S461 1.610 . S
N463 C464 1.351 . S
C464 C458 1.428 . S
C464 N463 1.351 . S
C464 C465 1.434 . S
C465 C456 1.429 . S
C465 N462 1.350 . S
C465 C464 1.434 . S
C466 C467 1.369 . S
C466 C468 1.419 . S
C466 H470 0.930 . S
C467 C466 1.369 . S
C467 C476 1.429 . S
C468 C466 1.419 . S
C468 C469 1.363 . S
C468 H471 0.929 . S
C469 C468 1.363 . S
C469 C475 1.428 . S
H470 C466 0.930 . S
H471 C468 0.929 . S
S472 N473 1.613 . S
S472 N474 1.610 . S
N473 S472 1.613 . S
N473 C476 1.350 . S
N474 S472 1.610 . S
N474 C475 1.351 . S
C475 C469 1.428 . S
C475 N474 1.351 . S
C475 C476 1.434 . S
C476 C467 1.429 . S
C476 N473 1.350 . S
C476 C475 1.434 . S
C477 C478 1.369 . S
C477 C479 1.419 . S
C477 H481 0.930 . S
C478 C477 1.369 . S
C478 C487 1.429 . S
C479 C477 1.419 . S
C479 C480 1.363 . S
C479 H482 0.929 . S
C480 C479 1.363 . S
C480 C486 1.428 . S
H481 C477 0.930 . S
H482 C479 0.929 . S
S483 N484 1.613 . S
S483 N485 1.610 . S
N484 S483 1.613 . S
N484 C487 1.350 . S
N485 S483 1.610 . S
N485 C486 1.351 . S
C486 C480 1.428 . S
C486 N485 1.351 . S
C486 C487 1.434 . S
C487 C478 1.429 . S
C487 N484 1.350 . S
C487 C486 1.434 . S
C488 C489 1.369 . S
C488 C490 1.419 . S
C488 H492 0.930 . S
C489 C488 1.369 . S
C489 C498 1.429 . S
C490 C488 1.419 . S
C490 C491 1.363 . S
C490 H493 0.929 . S
C491 C490 1.363 . S
C491 C497 1.428 . S
H492 C488 0.930 . S
H493 C490 0.929 . S
S494 N495 1.613 . S
S494 N496 1.610 . S
N495 S494 1.613 . S
N495 C498 1.350 . S
N496 S494 1.610 . S
N496 C497 1.351 . S
C497 C491 1.428 . S
C497 N496 1.351 . S
C497 C498 1.434 . S
C498 C489 1.429 . S
C498 N495 1.350 . S
C498 C497 1.434 . S
C499 C500 1.369 . S
C499 C501 1.419 . S
C499 H503 0.930 . S
C500 C499 1.369 . S
C500 C509 1.429 . S
C501 C499 1.419 . S
C501 C502 1.363 . S
C501 H504 0.929 . S
C502 C501 1.363 . S
C502 C508 1.428 . S
H503 C499 0.930 . S
H504 C501 0.929 . S
S505 N506 1.613 . S
S505 N507 1.610 . S
N506 S505 1.613 . S
N506 C509 1.350 . S
N507 S505 1.610 . S
N507 C508 1.351 . S
C508 C502 1.428 . S
C508 N507 1.351 . S
C508 C509 1.434 . S
C509 C500 1.429 . S
C509 N506 1.350 . S
C509 C508 1.434 . S
C510 C511 1.369 . S
C510 C512 1.419 . S
C510 H514 0.930 . S
C511 C510 1.369 . S
C511 C520 1.429 . S
C512 C510 1.419 . S
C512 C513 1.363 . S
C512 H515 0.929 . S
C513 C512 1.363 . S
C513 C519 1.428 . S
H514 C510 0.930 . S
H515 C512 0.929 . S
S516 N517 1.613 . S
S516 N518 1.610 . S
N517 S516 1.613 . S
N517 C520 1.350 . S
N518 S516 1.610 . S
N518 C519 1.351 . S
C519 C513 1.428 . S
C519 N518 1.351 . S
C519 C520 1.434 . S
C520 C511 1.429 . S
C520 N517 1.350 . S
C520 C519 1.434 . S
C521 C522 1.369 . S
C521 C523 1.419 . S
C521 H525 0.930 . S
C522 C521 1.369 . S
C522 C531 1.429 . S
C523 C521 1.419 . S
C523 C524 1.363 . S
C523 H526 0.929 . S
C524 C523 1.363 . S
C524 C530 1.428 . S
H525 C521 0.930 . S
H526 C523 0.929 . S
S527 N528 1.613 . S
S527 N529 1.610 . S
N528 S527 1.613 . S
N528 C531 1.350 . S
N529 S527 1.610 . S
N529 C530 1.351 . S
C530 C524 1.428 . S
C530 N529 1.351 . S
C530 C531 1.434 . S
C531 C522 1.429 . S
C531 N528 1.350 . S
C531 C530 1.434 . S
C532 C533 1.369 . S
C532 C534 1.419 . S
C532 H536 0.930 . S
C533 C532 1.369 . S
C533 C542 1.429 . S
C534 C532 1.419 . S
C534 C535 1.363 . S
C534 H537 0.929 . S
C535 C534 1.363 . S
C535 C541 1.428 . S
H536 C532 0.930 . S
H537 C534 0.929 . S
S538 N539 1.613 . S
S538 N540 1.610 . S
N539 S538 1.613 . S
N539 C542 1.350 . S
N540 S538 1.610 . S
N540 C541 1.351 . S
C541 C535 1.428 . S
C541 N540 1.351 . S
C541 C542 1.434 . S
C542 C533 1.429 . S
C542 N539 1.350 . S
C542 C541 1.434 . S
C543 C544 1.369 . S
C543 C545 1.419 . S
C543 H547 0.930 . S
C544 C543 1.369 . S
C544 C553 1.429 . S
C545 C543 1.419 . S
C545 C546 1.363 . S
C545 H548 0.929 . S
C546 C545 1.363 . S
C546 C552 1.428 . S
H547 C543 0.930 . S
H548 C545 0.929 . S
S549 N550 1.613 . S
S549 N551 1.610 . S
N550 S549 1.613 . S
N550 C553 1.350 . S
N551 S549 1.610 . S
N551 C552 1.351 . S
C552 C546 1.428 . S
C552 N551 1.351 . S
C552 C553 1.434 . S
C553 C544 1.429 . S
C553 N550 1.350 . S
C553 C552 1.434 . S
C554 C555 1.369 . S
C554 C556 1.419 . S
C554 H558 0.930 . S
C555 C554 1.369 . S
C555 C564 1.429 . S
C556 C554 1.419 . S
C556 C557 1.363 . S
C556 H559 0.929 . S
C557 C556 1.363 . S
C557 C563 1.428 . S
H558 C554 0.930 . S
H559 C556 0.929 . S
S560 N561 1.613 . S
S560 N562 1.610 . S
N561 S560 1.613 . S
N561 C564 1.350 . S
N562 S560 1.610 . S
N562 C563 1.351 . S
C563 C557 1.428 . S
C563 N562 1.351 . S
C563 C564 1.434 . S
C564 C555 1.429 . S
C564 N561 1.350 . S
C564 C563 1.434 . S
C565 C566 1.369 . S
C565 C567 1.419 . S
C565 H569 0.930 . S
C566 C565 1.369 . S
C566 C575 1.429 . S
C567 C565 1.419 . S
C567 C568 1.363 . S
C567 H570 0.929 . S
C568 C567 1.363 . S
C568 C574 1.428 . S
H569 C565 0.930 . S
H570 C567 0.929 . S
S571 N572 1.613 . S
S571 N573 1.610 . S
N572 S571 1.613 . S
N572 C575 1.350 . S
N573 S571 1.610 . S
N573 C574 1.351 . S
C574 C568 1.428 . S
C574 N573 1.351 . S
C574 C575 1.434 . S
C575 C566 1.429 . S
C575 N572 1.350 . S
C575 C574 1.434 . S
C576 C577 1.369 . S
C576 C578 1.419 . S
C576 H580 0.930 . S
C577 C576 1.369 . S
C577 C586 1.429 . S
C578 C576 1.419 . S
C578 C579 1.363 . S
C578 H581 0.929 . S
C579 C578 1.363 . S
C579 C585 1.428 . S
H580 C576 0.930 . S
H581 C578 0.929 . S
S582 N583 1.613 . S
S582 N584 1.610 . S
N583 S582 1.613 . S
N583 C586 1.350 . S
N584 S582 1.610 . S
N584 C585 1.351 . S
C585 C579 1.428 . S
C585 N584 1.351 . S
C585 C586 1.434 . S
C586 C577 1.429 . S
C586 N583 1.350 . S
C586 C585 1.434 . S
C587 C588 1.369 . S
C587 C589 1.419 . S
C587 H591 0.930 . S
C588 C587 1.369 . S
C588 C597 1.429 . S
C589 C587 1.419 . S
C589 C590 1.363 . S
C589 H592 0.929 . S
C590 C589 1.363 . S
C590 C596 1.428 . S
H591 C587 0.930 . S
H592 C589 0.929 . S
S593 N594 1.613 . S
S593 N595 1.610 . S
N594 S593 1.613 . S
N594 C597 1.350 . S
N595 S593 1.610 . S
N595 C596 1.351 . S
C596 C590 1.428 . S
C596 N595 1.351 . S
C596 C597 1.434 . S
C597 C588 1.429 . S
C597 N594 1.350 . S
C597 C596 1.434 . S
C598 C599 1.369 . S
C598 C600 1.419 1_565 S
C598 H602 0.930 . S
C599 C598 1.369 . S
C599 C608 1.429 . S
C600 C598 1.419 1_545 S
C600 C601 1.363 . S
C600 H603 0.929 . S
C601 C600 1.363 . S
C601 C607 1.428 . S
H602 C598 0.930 . S
H603 C600 0.929 . S
S604 N605 1.613 1_545 S
S604 N606 1.610 . S
N605 S604 1.613 1_565 S
N605 C608 1.350 . S
N606 S604 1.610 . S
N606 C607 1.351 . S
C607 C601 1.428 . S
C607 N606 1.351 . S
C607 C608 1.434 1_545 S
C608 C599 1.429 . S
C608 N605 1.350 . S
C608 C607 1.434 1_565 S
C609 C610 1.369 . S
C609 C611 1.419 1_455 S
C609 H613 0.930 . S
C610 C609 1.369 . S
C610 C619 1.429 . S
C611 C609 1.419 1_655 S
C611 C612 1.363 . S
C611 H614 0.929 . S
C612 C611 1.363 . S
C612 C618 1.428 . S
H613 C609 0.930 . S
H614 C611 0.929 . S
S615 N616 1.613 1_655 S
S615 N617 1.610 . S
N616 S615 1.613 1_455 S
N616 C619 1.350 . S
N617 S615 1.610 . S
N617 C618 1.351 . S
C618 C612 1.428 . S
C618 N617 1.351 . S
C618 C619 1.434 1_655 S
C619 C610 1.429 . S
C619 N616 1.350 . S
C619 C618 1.434 1_455 S
C620 C621 1.369 . S
C620 C622 1.419 1_565 S
C620 H624 0.930 . S
C621 C620 1.369 . S
C621 C630 1.429 . S
C622 C620 1.419 1_545 S
C622 C623 1.363 . S
C622 H625 0.929 . S
C623 C622 1.363 . S
C623 C629 1.428 . S
H624 C620 0.930 . S
H625 C622 0.929 . S
S626 N627 1.613 1_545 S
S626 N628 1.610 . S
N627 S626 1.613 1_565 S
N627 C630 1.350 . S
N628 S626 1.610 . S
N628 C629 1.351 . S
C629 C623 1.428 . S
C629 N628 1.351 . S
C629 C630 1.434 1_545 S
C630 C621 1.429 . S
C630 N627 1.350 . S
C630 C629 1.434 1_565 S
C631 C632 1.369 . S
C631 C633 1.419 1_655 S
C631 H635 0.930 . S
C632 C631 1.369 . S
C632 C641 1.429 . S
C633 C631 1.419 1_455 S
C633 C634 1.363 . S
C633 H636 0.929 . S
C634 C633 1.363 . S
C634 C640 1.428 . S
H635 C631 0.930 . S
H636 C633 0.929 . S
S637 N638 1.613 1_455 S
S637 N639 1.610 . S
N638 S637 1.613 1_655 S
N638 C641 1.350 . S
N639 S637 1.610 . S
N639 C640 1.351 . S
C640 C634 1.428 . S
C640 N639 1.351 . S
C640 C641 1.434 1_455 S
C641 C632 1.429 . S
C641 N638 1.350 . S
C641 C640 1.434 1_655 S
C642 C643 1.369 . S
C642 C644 1.419 . S
C642 H646 0.930 . S
C643 C642 1.369 . S
C643 C652 1.429 . S
C644 C642 1.419 . S
C644 C645 1.363 . S
C644 H647 0.929 . S
C645 C644 1.363 . S
C645 C651 1.428 . S
H646 C642 0.930 . S
H647 C644 0.929 . S
S648 N649 1.613 . S
S648 N650 1.610 . S
N649 S648 1.613 . S
N649 C652 1.350 . S
N650 S648 1.610 . S
N650 C651 1.351 . S
C651 C645 1.428 . S
C651 N650 1.351 . S
C651 C652 1.434 . S
C652 C643 1.429 . S
C652 N649 1.350 . S
C652 C651 1.434 . S
C653 C654 1.369 . S
C653 C655 1.419 . S
C653 H657 0.930 . S
C654 C653 1.369 . S
C654 C663 1.429 . S
C655 C653 1.419 . S
C655 C656 1.363 . S
C655 H658 0.929 . S
C656 C655 1.363 . S
C656 C662 1.428 . S
H657 C653 0.930 . S
H658 C655 0.929 . S
S659 N660 1.613 . S
S659 N661 1.610 . S
N660 S659 1.613 . S
N660 C663 1.350 . S
N661 S659 1.610 . S
N661 C662 1.351 . S
C662 C656 1.428 . S
C662 N661 1.351 . S
C662 C663 1.434 . S
C663 C654 1.429 . S
C663 N660 1.350 . S
C663 C662 1.434 . S
C664 C665 1.369 . S
C664 C666 1.419 . S
C664 H668 0.930 . S
C665 C664 1.369 . S
C665 C674 1.429 . S
C666 C664 1.419 . S
C666 C667 1.363 . S
C666 H669 0.929 . S
C667 C666 1.363 . S
C667 C673 1.428 . S
H668 C664 0.930 . S
H669 C666 0.929 . S
S670 N671 1.613 . S
S670 N672 1.610 . S
N671 S670 1.613 . S
N671 C674 1.350 . S
N672 S670 1.610 . S
N672 C673 1.351 . S
C673 C667 1.428 . S
C673 N672 1.351 . S
C673 C674 1.434 . S
C674 C665 1.429 . S
C674 N671 1.350 . S
C674 C673 1.434 . S
C675 C676 1.369 . S
C675 C677 1.419 1_554 S
C675 H679 0.930 . S
C676 C675 1.369 . S
C676 C685 1.429 . S
C677 C675 1.419 1_556 S
C677 C678 1.363 . S
C677 H680 0.929 . S
C678 C677 1.363 . S
C678 C684 1.428 . S
H679 C675 0.930 . S
H680 C677 0.929 . S
S681 N682 1.613 1_556 S
S681 N683 1.610 . S
N682 S681 1.613 1_554 S
N682 C685 1.350 . S
N683 S681 1.610 . S
N683 C684 1.351 . S
C684 C678 1.428 . S
C684 N683 1.351 . S
C684 C685 1.434 1_556 S
C685 C676 1.429 . S
C685 N682 1.350 . S
C685 C684 1.434 1_554 S
C686 C687 1.369 . S
C686 C688 1.419 . S
C686 H690 0.930 . S
C687 C686 1.369 . S
C687 C696 1.429 . S
C688 C686 1.419 . S
C688 C689 1.363 . S
C688 H691 0.929 . S
C689 C688 1.363 . S
C689 C695 1.428 . S
H690 C686 0.930 . S
H691 C688 0.929 . S
S692 N693 1.613 . S
S692 N694 1.610 . S
N693 S692 1.613 . S
N693 C696 1.350 . S
N694 S692 1.610 . S
N694 C695 1.351 . S
C695 C689 1.428 . S
C695 N694 1.351 . S
C695 C696 1.434 . S
C696 C687 1.429 . S
C696 N693 1.350 . S
C696 C695 1.434 . S
C697 C698 1.369 . S
C697 C699 1.419 1_556 S
C697 H701 0.930 . S
C698 C697 1.369 . S
C698 C707 1.429 . S
C699 C697 1.419 1_554 S
C699 C700 1.363 . S
C699 H702 0.929 . S
C700 C699 1.363 . S
C700 C706 1.428 . S
H701 C697 0.930 . S
H702 C699 0.929 . S
S703 N704 1.613 1_554 S
S703 N705 1.610 . S
N704 S703 1.613 1_556 S
N704 C707 1.350 . S
N705 S703 1.610 . S
N705 C706 1.351 . S
C706 C700 1.428 . S
C706 N705 1.351 . S
C706 C707 1.434 1_554 S
C707 C698 1.429 . S
C707 N704 1.350 . S
C707 C706 1.434 1_556 S
C708 C709 1.369 . S
C708 C710 1.419 . S
C708 H712 0.930 . S
C709 C708 1.369 . S
C709 C718 1.429 . S
C710 C708 1.419 . S
C710 C711 1.363 . S
C710 H713 0.929 . S
C711 C710 1.363 . S
C711 C717 1.428 . S
H712 C708 0.930 . S
H713 C710 0.929 . S
S714 N715 1.613 . S
S714 N716 1.610 . S
N715 S714 1.613 . S
N715 C718 1.350 . S
N716 S714 1.610 . S
N716 C717 1.351 . S
C717 C711 1.428 . S
C717 N716 1.351 . S
C717 C718 1.434 . S
C718 C709 1.429 . S
C718 N715 1.350 . S
C718 C717 1.434 . S
C719 C720 1.369 . S
C719 C721 1.419 . S
C719 H723 0.930 . S
C720 C719 1.369 . S
C720 C729 1.429 . S
C721 C719 1.419 . S
C721 C722 1.363 . S
C721 H724 0.929 . S
C722 C721 1.363 . S
C722 C728 1.428 . S
H723 C719 0.930 . S
H724 C721 0.929 . S
S725 N726 1.613 . S
S725 N727 1.610 . S
N726 S725 1.613 . S
N726 C729 1.350 . S
N727 S725 1.610 . S
N727 C728 1.351 . S
C728 C722 1.428 . S
C728 N727 1.351 . S
C728 C729 1.434 . S
C729 C720 1.429 . S
C729 N726 1.350 . S
C729 C728 1.434 . S
C730 C731 1.369 . S
C730 C732 1.419 1_545 S
C730 H734 0.930 . S
C731 C730 1.369 . S
C731 C740 1.429 . S
C732 C730 1.419 1_565 S
C732 C733 1.363 . S
C732 H735 0.929 . S
C733 C732 1.363 . S
C733 C739 1.428 . S
H734 C730 0.930 . S
H735 C732 0.929 . S
S736 N737 1.613 1_565 S
S736 N738 1.610 . S
N737 S736 1.613 1_545 S
N737 C740 1.350 . S
N738 S736 1.610 . S
N738 C739 1.351 . S
C739 C733 1.428 . S
C739 N738 1.351 . S
C739 C740 1.434 1_565 S
C740 C731 1.429 . S
C740 N737 1.350 . S
C740 C739 1.434 1_545 S
C741 C742 1.369 . S
C741 C743 1.419 1_455 S
C741 H745 0.930 . S
C742 C741 1.369 . S
C742 C751 1.429 . S
C743 C741 1.419 1_655 S
C743 C744 1.363 . S
C743 H746 0.929 . S
C744 C743 1.363 . S
C744 C750 1.428 . S
H745 C741 0.930 . S
H746 C743 0.929 . S
S747 N748 1.613 1_655 S
S747 N749 1.610 . S
N748 S747 1.613 1_455 S
N748 C751 1.350 . S
N749 S747 1.610 . S
N749 C750 1.351 . S
C750 C744 1.428 . S
C750 N749 1.351 . S
C750 C751 1.434 1_655 S
C751 C742 1.429 . S
C751 N748 1.350 . S
C751 C750 1.434 1_455 S
C752 C753 1.369 . S
C752 C754 1.419 1_545 S
C752 H756 0.930 . S
C753 C752 1.369 . S
C753 C762 1.429 . S
C754 C752 1.419 1_565 S
C754 C755 1.363 . S
C754 H757 0.929 . S
C755 C754 1.363 . S
C755 C761 1.428 . S
H756 C752 0.930 . S
H757 C754 0.929 . S
S758 N759 1.613 . S
S758 N760 1.610 1_545 S
N759 S758 1.613 . S
N759 C762 1.350 . S
N760 S758 1.610 1_565 S
N760 C761 1.351 . S
C761 C755 1.428 . S
C761 N760 1.351 . S
C761 C762 1.434 1_565 S
C762 C753 1.429 . S
C762 N759 1.350 . S
C762 C761 1.434 1_545 S
C763 C764 1.369 . S
C763 C765 1.419 1_455 S
C763 H767 0.930 . S
C764 C763 1.369 . S
C764 C773 1.429 . S
C765 C763 1.419 1_655 S
C765 C766 1.363 . S
C765 H768 0.929 . S
C766 C765 1.363 . S
C766 C772 1.428 . S
H767 C763 0.930 . S
H768 C765 0.929 . S
S769 N770 1.613 . S
S769 N771 1.610 1_455 S
N770 S769 1.613 . S
N770 C773 1.350 . S
N771 S769 1.610 1_655 S
N771 C772 1.351 . S
C772 C766 1.428 . S
C772 N771 1.351 . S
C772 C773 1.434 1_655 S
C773 C764 1.429 . S
C773 N770 1.350 . S
C773 C772 1.434 1_455 S
C774 C775 1.369 . S
C774 C776 1.419 . S
C774 H778 0.930 . S
C775 C774 1.369 . S
C775 C784 1.429 . S
C776 C774 1.419 . S
C776 C777 1.363 . S
C776 H779 0.929 . S
C777 C776 1.363 . S
C777 C783 1.428 . S
H778 C774 0.930 . S
H779 C776 0.929 . S
S780 N781 1.613 . S
S780 N782 1.610 . S
N781 S780 1.613 . S
N781 C784 1.350 . S
N782 S780 1.610 . S
N782 C783 1.351 . S
C783 C777 1.428 . S
C783 N782 1.351 . S
C783 C784 1.434 . S
C784 C775 1.429 . S
C784 N781 1.350 . S
C784 C783 1.434 . S
C785 C786 1.369 . S
C785 C787 1.419 . S
C785 H789 0.930 . S
C786 C785 1.369 . S
C786 C795 1.429 . S
C787 C785 1.419 . S
C787 C788 1.363 . S
C787 H790 0.929 . S
C788 C787 1.363 . S
C788 C794 1.428 . S
H789 C785 0.930 . S
H790 C787 0.929 . S
S791 N792 1.613 . S
S791 N793 1.610 . S
N792 S791 1.613 . S
N792 C795 1.350 . S
N793 S791 1.610 . S
N793 C794 1.351 . S
C794 C788 1.428 . S
C794 N793 1.351 . S
C794 C795 1.434 . S
C795 C786 1.429 . S
C795 N792 1.350 . S
C795 C794 1.434 . S
C796 C797 1.369 . S
C796 C798 1.419 . S
C796 H800 0.930 . S
C797 C796 1.369 . S
C797 C806 1.429 . S
C798 C796 1.419 . S
C798 C799 1.363 . S
C798 H801 0.929 . S
C799 C798 1.363 . S
C799 C805 1.428 . S
H800 C796 0.930 . S
H801 C798 0.929 . S
S802 N803 1.613 . S
S802 N804 1.610 . S
N803 S802 1.613 . S
N803 C806 1.350 . S
N804 S802 1.610 . S
N804 C805 1.351 . S
C805 C799 1.428 . S
C805 N804 1.351 . S
C805 C806 1.434 . S
C806 C797 1.429 . S
C806 N803 1.350 . S
C806 C805 1.434 . S
C807 C808 1.369 . S
C807 C809 1.419 1_554 S
C807 H811 0.930 . S
C808 C807 1.369 . S
C808 C817 1.429 . S
C809 C807 1.419 1_556 S
C809 C810 1.363 . S
C809 H812 0.929 . S
C810 C809 1.363 . S
C810 C816 1.428 . S
H811 C807 0.930 . S
H812 C809 0.929 . S
S813 N814 1.613 1_556 S
S813 N815 1.610 . S
N814 S813 1.613 1_554 S
N814 C817 1.350 . S
N815 S813 1.610 . S
N815 C816 1.351 . S
C816 C810 1.428 . S
C816 N815 1.351 . S
C816 C817 1.434 1_556 S
C817 C808 1.429 . S
C817 N814 1.350 . S
C817 C816 1.434 1_554 S
C818 C819 1.369 . S
C818 C820 1.419 . S
C818 H822 0.930 . S
C819 C818 1.369 . S
C819 C828 1.429 . S
C820 C818 1.419 . S
C820 C821 1.363 . S
C820 H823 0.929 . S
C821 C820 1.363 . S
C821 C827 1.428 . S
H822 C818 0.930 . S
H823 C820 0.929 . S
S824 N825 1.613 . S
S824 N826 1.610 . S
N825 S824 1.613 . S
N825 C828 1.350 . S
N826 S824 1.610 . S
N826 C827 1.351 . S
C827 C821 1.428 . S
C827 N826 1.351 . S
C827 C828 1.434 . S
C828 C819 1.429 . S
C828 N825 1.350 . S
C828 C827 1.434 . S
C829 C830 1.369 . S
C829 C831 1.419 1_554 S
C829 H833 0.930 . S
C830 C829 1.369 . S
C830 C839 1.429 . S
C831 C829 1.419 1_556 S
C831 C832 1.363 . S
C831 H834 0.929 . S
C832 C831 1.363 . S
C832 C838 1.428 . S
H833 C829 0.930 . S
H834 C831 0.929 . S
S835 N836 1.613 1_556 S
S835 N837 1.610 . S
N836 S835 1.613 1_554 S
N836 C839 1.350 . S
N837 S835 1.610 . S
N837 C838 1.351 . S
C838 C832 1.428 . S
C838 N837 1.351 . S
C838 C839 1.434 1_556 S
C839 C830 1.429 . S
C839 N836 1.350 . S
C839 C838 1.434 1_554 S
C313 C53 1.531 . S
C315 C10 1.592 . S
C324 C23 1.589 . S
C326 C75 1.593 . S
C335 C88 1.593 . S
C337 C27 1.531 . S
C346 C101 1.591 . S
C348 C40 1.534 . S
C357 C192 1.592 . S
C359 C105 1.532 . S
C368 C205 1.591 . S
C370 C118 1.537 . S
C379 C140 1.590 . S
C381 C157 1.534 . S
C390 C179 1.589 . S
C392 C144 1.538 . S
C401 C209 1.539 . S
C403 C283 1.590 . S
C412 C231 1.590 . S
C414 C257 1.594 . S
C423 C244 1.595 . S
C425 C270 1.590 . S
C434 C287 1.538 . S
C436 C300 1.532 . S
C445 C49 1.529 . S
C447 C66 1.594 . S
C456 C1 1.592 . S
C458 C79 1.594 . S
C467 C92 1.589 . S
C469 C14 1.593 . S
C478 C36 1.529 . S
C480 C62 1.538 . S
C489 C309 1.529 . S
C491 C235 1.594 . S
C500 C248 1.590 . S
C502 C274 1.591 . S
C511 C261 1.594 . S
C513 C296 1.530 . S
C522 C222 1.593 . S
C524 C218 1.531 . S
C533 C153 1.529 . S
C535 C127 1.537 . S
C544 C196 1.593 . S
C546 C170 1.590 . S
C555 C166 1.533 . S
C557 C183 1.594 . S
C566 C131 1.595 . S
C568 C114 1.532 . S
C577 C289 1.580 . S
C579 C5 1.627 . S
C588 C211 1.581 . S
C590 C18 1.626 . S
C599 C302 1.578 . S
C601 C29 1.579 . S
C610 C278 1.626 . S
C612 C42 1.580 . S
C621 C239 1.626 . S
C623 C55 1.580 . S
C632 C70 1.627 . S
C634 C252 1.627 . S
C643 C265 1.626 . S
C645 C83 1.626 . S
C654 C226 1.627 . S
C656 C96 1.627 . S
C665 C174 1.626 . S
C667 C107 1.574 . S
C676 C187 1.627 . S
C678 C120 1.580 . S
C687 C200 1.626 . S
C689 C135 1.626 . S
C698 C146 1.573 . S
C700 C159 1.579 . S
C709 C68 1.626 . S
C711 C133 1.626 . S
C720 C81 1.626 . S
C722 C148 1.574 . S
C731 C109 1.573 . S
C733 C94 1.626 . S
C742 C57 1.573 . S
C744 C122 1.578 . S
C753 C185 1.627 . S
C755 C44 1.575 . S
C764 C3 1.626 . S
C766 C198 1.626 . S
C775 C161 1.575 . S
C777 C16 1.627 . S
C786 C31 1.573 . S
C788 C172 1.626 . S
C797 C224 1.626 . S
C799 C304 1.578 . S
C808 C276 1.626 . S
C810 C237 1.626 . S
C819 C291 1.581 . S
C821 C250 1.626 . S
C830 C213 1.574 . S
C832 C263 1.626 . S
