# Generated by pormake.
# Topology unv, (4)-cn, num edge types: 1
# Building blocks:
#     Node 0, Type 0, BuildingBlock: CEKHIL_clean_sbu_0, # of connection points: 4
#     Node 1, Type 0, BuildingBlock: CEKHIL_clean_sbu_0, # of connection points: 4
#     Node 2, Type 0, BuildingBlock: CEKHIL_clean_sbu_0, # of connection points: 4
#     Node 3, Type 0, BuildingBlock: CEKHIL_clean_sbu_0, # of connection points: 4
#     Node 4, Type 0, BuildingBlock: CEKHIL_clean_sbu_0, # of connection points: 4
#     Node 5, Type 0, BuildingBlock: CEKHIL_clean_sbu_0, # of connection points: 4
#     Node 6, Type 0, BuildingBlock: CEKHIL_clean_sbu_0, # of connection points: 4
#     Node 7, Type 0, BuildingBlock: CEKHIL_clean_sbu_0, # of connection points: 4
#     Node 8, Type 0, BuildingBlock: CEKHIL_clean_sbu_0, # of connection points: 4
#     Node 9, Type 0, BuildingBlock: CEKHIL_clean_sbu_0, # of connection points: 4
#     Node 10, Type 0, BuildingBlock: CEKHIL_clean_sbu_0, # of connection points: 4
#     Node 11, Type 0, BuildingBlock: CEKHIL_clean_sbu_0, # of connection points: 4
#     Node 12, Type 0, BuildingBlock: CEKHIL_clean_sbu_0, # of connection points: 4
#     Node 13, Type 0, BuildingBlock: CEKHIL_clean_sbu_0, # of connection points: 4
#     Node 14, Type 0, BuildingBlock: CEKHIL_clean_sbu_0, # of connection points: 4
#     Node 15, Type 0, BuildingBlock: CEKHIL_clean_sbu_0, # of connection points: 4
#     Node 16, Type 0, BuildingBlock: CEKHIL_clean_sbu_0, # of connection points: 4
#     Node 17, Type 0, BuildingBlock: CEKHIL_clean_sbu_0, # of connection points: 4
#     Node 18, Type 0, BuildingBlock: CEKHIL_clean_sbu_0, # of connection points: 4
#     Node 19, Type 0, BuildingBlock: CEKHIL_clean_sbu_0, # of connection points: 4
#     Node 20, Type 0, BuildingBlock: CEKHIL_clean_sbu_0, # of connection points: 4
#     Node 21, Type 0, BuildingBlock: CEKHIL_clean_sbu_0, # of connection points: 4
#     Node 22, Type 0, BuildingBlock: CEKHIL_clean_sbu_0, # of connection points: 4
#     Node 23, Type 0, BuildingBlock: CEKHIL_clean_sbu_0, # of connection points: 4
#     Edge 24, Type (0, 0), BuildingBlock: AJUNOK_clean_linker_0, # of connection points: 2
#     Edge 25, Type (0, 0), BuildingBlock: AJUNOK_clean_linker_0, # of connection points: 2
#     Edge 26, Type (0, 0), BuildingBlock: AJUNOK_clean_linker_0, # of connection points: 2
#     Edge 27, Type (0, 0), BuildingBlock: AJUNOK_clean_linker_0, # of connection points: 2
#     Edge 28, Type (0, 0), BuildingBlock: AJUNOK_clean_linker_0, # of connection points: 2
#     Edge 29, Type (0, 0), BuildingBlock: AJUNOK_clean_linker_0, # of connection points: 2
#     Edge 30, Type (0, 0), BuildingBlock: AJUNOK_clean_linker_0, # of connection points: 2
#     Edge 31, Type (0, 0), BuildingBlock: AJUNOK_clean_linker_0, # of connection points: 2
#     Edge 32, Type (0, 0), BuildingBlock: AJUNOK_clean_linker_0, # of connection points: 2
#     Edge 33, Type (0, 0), BuildingBlock: AJUNOK_clean_linker_0, # of connection points: 2
#     Edge 34, Type (0, 0), BuildingBlock: AJUNOK_clean_linker_0, # of connection points: 2
#     Edge 35, Type (0, 0), BuildingBlock: AJUNOK_clean_linker_0, # of connection points: 2
#     Edge 36, Type (0, 0), BuildingBlock: AJUNOK_clean_linker_0, # of connection points: 2
#     Edge 37, Type (0, 0), BuildingBlock: AJUNOK_clean_linker_0, # of connection points: 2
#     Edge 38, Type (0, 0), BuildingBlock: AJUNOK_clean_linker_0, # of connection points: 2
#     Edge 39, Type (0, 0), BuildingBlock: AJUNOK_clean_linker_0, # of connection points: 2
#     Edge 40, Type (0, 0), BuildingBlock: AJUNOK_clean_linker_0, # of connection points: 2
#     Edge 41, Type (0, 0), BuildingBlock: AJUNOK_clean_linker_0, # of connection points: 2
#     Edge 42, Type (0, 0), BuildingBlock: AJUNOK_clean_linker_0, # of connection points: 2
#     Edge 43, Type (0, 0), BuildingBlock: AJUNOK_clean_linker_0, # of connection points: 2
#     Edge 44, Type (0, 0), BuildingBlock: AJUNOK_clean_linker_0, # of connection points: 2
#     Edge 45, Type (0, 0), BuildingBlock: AJUNOK_clean_linker_0, # of connection points: 2
#     Edge 46, Type (0, 0), BuildingBlock: AJUNOK_clean_linker_0, # of connection points: 2
#     Edge 47, Type (0, 0), BuildingBlock: AJUNOK_clean_linker_0, # of connection points: 2
#     Edge 48, Type (0, 0), BuildingBlock: AJUNOK_clean_linker_0, # of connection points: 2
#     Edge 49, Type (0, 0), BuildingBlock: AJUNOK_clean_linker_0, # of connection points: 2
#     Edge 50, Type (0, 0), BuildingBlock: AJUNOK_clean_linker_0, # of connection points: 2
#     Edge 51, Type (0, 0), BuildingBlock: AJUNOK_clean_linker_0, # of connection points: 2
#     Edge 52, Type (0, 0), BuildingBlock: AJUNOK_clean_linker_0, # of connection points: 2
#     Edge 53, Type (0, 0), BuildingBlock: AJUNOK_clean_linker_0, # of connection points: 2
#     Edge 54, Type (0, 0), BuildingBlock: AJUNOK_clean_linker_0, # of connection points: 2
#     Edge 55, Type (0, 0), BuildingBlock: AJUNOK_clean_linker_0, # of connection points: 2
#     Edge 56, Type (0, 0), BuildingBlock: AJUNOK_clean_linker_0, # of connection points: 2
#     Edge 57, Type (0, 0), BuildingBlock: AJUNOK_clean_linker_0, # of connection points: 2
#     Edge 58, Type (0, 0), BuildingBlock: AJUNOK_clean_linker_0, # of connection points: 2
#     Edge 59, Type (0, 0), BuildingBlock: AJUNOK_clean_linker_0, # of connection points: 2
#     Edge 60, Type (0, 0), BuildingBlock: AJUNOK_clean_linker_0, # of connection points: 2
#     Edge 61, Type (0, 0), BuildingBlock: AJUNOK_clean_linker_0, # of connection points: 2
#     Edge 62, Type (0, 0), BuildingBlock: AJUNOK_clean_linker_0, # of connection points: 2
#     Edge 63, Type (0, 0), BuildingBlock: AJUNOK_clean_linker_0, # of connection points: 2
#     Edge 64, Type (0, 0), BuildingBlock: AJUNOK_clean_linker_0, # of connection points: 2
#     Edge 65, Type (0, 0), BuildingBlock: AJUNOK_clean_linker_0, # of connection points: 2
#     Edge 66, Type (0, 0), BuildingBlock: AJUNOK_clean_linker_0, # of connection points: 2
#     Edge 67, Type (0, 0), BuildingBlock: AJUNOK_clean_linker_0, # of connection points: 2
#     Edge 68, Type (0, 0), BuildingBlock: AJUNOK_clean_linker_0, # of connection points: 2
#     Edge 69, Type (0, 0), BuildingBlock: AJUNOK_clean_linker_0, # of connection points: 2
#     Edge 70, Type (0, 0), BuildingBlock: AJUNOK_clean_linker_0, # of connection points: 2
#     Edge 71, Type (0, 0), BuildingBlock: AJUNOK_clean_linker_0, # of connection points: 2
# Relax obj value: 0.322
# Max RMSD: 0.238
# Mean RMSD: 0.214
data_MOF--net-unv--node1-CEKHIL_clean_sbu_0--edge1-AJUNOK_clean_linker_0
_symmetry_space_group_name_H-M    P1
_symmetry_Int_Tables_number       1
_symmetry_cell_setting            triclinic
loop_
_symmetry_equiv_pos_as_xyz
'x, y, z'
_cell_length_a     35.274445
_cell_length_b     35.253515
_cell_length_c     35.230933
_cell_angle_alpha  90.048626
_cell_angle_beta   89.981067
_cell_angle_gamma 89.995851
loop_
_atom_site_label
_atom_site_type_symbol
_atom_site_fract_x
_atom_site_fract_y
_atom_site_fract_z
_atom_type_partial_charge
Co0 Co 0.0182 0.11579 0.37492 0.0
O1 O 0.0445 0.1588 0.35292 0.0
O2 O 0.98274 0.15018 0.35041 0.0
C3 C 0.04846 0.11895 0.43173 0.0
O4 O 0.98031 0.07711 0.39546 0.0
Co5 Co 0.06009 0.04396 0.40549 0.0
O6 O 0.01113 0.03449 0.43149 0.0
C7 C 0.03959 0.04924 0.32346 0.0
C8 C 0.01151 0.17235 0.34387 0.0
C9 C 0.98066 0.04967 0.4195 0.0
O10 O 0.02482 0.08277 0.32755 0.0
O11 O 0.05614 0.03136 0.3504 0.0
O12 O 0.01949 0.14063 0.42501 0.0
O13 O 0.05938 0.09838 0.40364 0.0
Co14 Co 0.98336 0.39148 0.37546 0.0
O15 O 0.95825 0.34889 0.35151 0.0
O16 O 0.02001 0.35787 0.35138 0.0
C17 C 0.95135 0.38662 0.43114 0.0
O18 O 0.01978 0.4303 0.39834 0.0
Co19 Co 0.93915 0.46188 0.40673 0.0
O20 O 0.98695 0.47086 0.43513 0.0
C21 C 0.95956 0.45741 0.32474 0.0
C22 C 0.9916 0.33565 0.34342 0.0
C23 C 0.01812 0.45701 0.42324 0.0
O24 O 0.97773 0.42563 0.32887 0.0
O25 O 0.94073 0.47353 0.35132 0.0
O26 O 0.98064 0.36525 0.42476 0.0
O27 O 0.94113 0.40763 0.40317 0.0
Co28 Co 0.01793 0.89348 0.13315 0.0
O29 O 0.04491 0.85137 0.15596 0.0
O30 O 0.98305 0.85936 0.15876 0.0
C31 C 0.04776 0.88921 0.07618 0.0
O32 O 0.97938 0.93113 0.11205 0.0
Co33 Co 0.05825 0.96514 0.10035 0.0
O34 O 0.00921 0.97253 0.07388 0.0
C35 C 0.03727 0.96212 0.18233 0.0
C36 C 0.01211 0.83767 0.16556 0.0
C37 C 0.97908 0.95752 0.08688 0.0
O38 O 0.02444 0.92768 0.17963 0.0
O39 O 0.05272 0.98002 0.15478 0.0
O40 O 0.01913 0.86737 0.08377 0.0
O41 O 0.05866 0.91073 0.10358 0.0
Co42 Co 0.98764 0.61723 0.13828 0.0
O43 O 0.96152 0.66036 0.16006 0.0
O44 O 0.0234 0.65228 0.16153 0.0
C45 C 0.95625 0.61917 0.08204 0.0
O46 O 0.02509 0.57807 0.11779 0.0
Co47 Co 0.94458 0.54483 0.1099 0.0
O48 O 0.99327 0.53461 0.08353 0.0
C49 C 0.96357 0.55357 0.19167 0.0
C50 C 0.99454 0.67428 0.16835 0.0
C51 C 0.02408 0.54982 0.09468 0.0
O52 O 0.98167 0.58516 0.18623 0.0
O53 O 0.94521 0.53588 0.16582 0.0
O54 O 0.98518 0.64122 0.08776 0.0
O55 O 0.94608 0.59921 0.11078 0.0
Co56 Co 0.3758 0.02114 0.1144 0.0
O57 O 0.352 0.04664 0.15694 0.0
O58 O 0.35287 0.98471 0.14894 0.0
C59 C 0.43091 0.05419 0.11779 0.0
O60 O 0.39873 0.98417 0.07599 0.0
Co61 Co 0.40561 0.06342 0.04242 0.0
O62 O 0.43572 0.01642 0.03533 0.0
C63 C 0.32505 0.03769 0.04639 0.0
C64 C 0.34467 0.01335 0.17081 0.0
C65 C 0.42391 0.98541 0.04954 0.0
O66 O 0.32866 0.02505 0.08082 0.0
O67 O 0.35156 0.05454 0.02819 0.0
O68 O 0.42524 0.02531 0.1399 0.0
O69 O 0.40256 0.06355 0.09684 0.0
Co70 Co 0.62766 0.48968 0.11656 0.0
O71 O 0.65043 0.4627 0.15857 0.0
O72 O 0.65332 0.52461 0.15078 0.0
C73 C 0.57067 0.46026 0.12073 0.0
O74 O 0.60652 0.52781 0.07842 0.0
Co75 Co 0.59574 0.4479 0.04515 0.0
O76 O 0.56969 0.49695 0.03639 0.0
C77 C 0.67764 0.46844 0.04892 0.0
C78 C 0.66024 0.4954 0.1723 0.0
C79 C 0.58214 0.52745 0.05124 0.0
O80 O 0.67408 0.48297 0.0826 0.0
O81 O 0.65048 0.45199 0.03131 0.0
O82 O 0.57835 0.48887 0.14261 0.0
O83 O 0.59817 0.44889 0.09959 0.0
Co84 Co 0.37589 0.98478 0.39086 0.0
O85 O 0.35364 0.95947 0.34738 0.0
O86 O 0.35201 0.02117 0.35693 0.0
C87 C 0.43229 0.95392 0.38759 0.0
O88 O 0.39711 0.02155 0.43032 0.0
Co89 Co 0.40513 0.94074 0.46211 0.0
O90 O 0.43297 0.98882 0.4717 0.0
C91 C 0.32321 0.95905 0.45473 0.0
C92 C 0.34515 0.9928 0.33428 0.0
C93 C 0.42144 0.01999 0.45751 0.0
O94 O 0.32841 0.97808 0.42361 0.0
O95 O 0.3493 0.94029 0.47159 0.0
O96 O 0.42597 0.9831 0.36605 0.0
O97 O 0.40389 0.94302 0.40767 0.0
Co98 Co 0.63066 0.51875 0.39155 0.0
O99 O 0.65307 0.54524 0.34902 0.0
O100 O 0.6563 0.48346 0.35772 0.0
C101 C 0.57359 0.54808 0.38707 0.0
O102 O 0.60993 0.48108 0.43029 0.0
Co103 Co 0.59796 0.56127 0.46236 0.0
O104 O 0.57222 0.51201 0.47149 0.0
C105 C 0.68055 0.54419 0.45754 0.0
C106 C 0.66269 0.51234 0.3356 0.0
C107 C 0.58539 0.48147 0.45733 0.0
O108 O 0.67703 0.52633 0.42549 0.0
O109 O 0.65335 0.56175 0.47401 0.0
O110 O 0.58119 0.51915 0.36556 0.0
O111 O 0.60111 0.55955 0.40804 0.0
Co112 Co 0.11403 0.37341 0.01902 0.0
O113 O 0.15684 0.34992 0.04419 0.0
O114 O 0.1481 0.35046 0.98229 0.0
C115 C 0.11734 0.4286 0.05223 0.0
O116 O 0.07539 0.39556 0.98214 0.0
Co117 Co 0.04229 0.40343 0.06165 0.0
O118 O 0.03434 0.43234 0.01401 0.0
C119 C 0.04637 0.32266 0.03613 0.0
C120 C 0.17023 0.34237 0.01068 0.0
C121 C 0.04864 0.42028 0.9831 0.0
O122 O 0.08071 0.32617 0.02326 0.0
O123 O 0.02838 0.34921 0.05317 0.0
O124 O 0.13917 0.4232 0.02303 0.0
O125 O 0.09656 0.40013 0.06152 0.0
Co126 Co 0.1145 0.63348 0.4916 0.0
O127 O 0.15871 0.654 0.46631 0.0
O128 O 0.14843 0.65762 0.52786 0.0
C129 C 0.1167 0.57597 0.46254 0.0
O130 O 0.07397 0.61446 0.52823 0.0
Co131 Co 0.04357 0.60566 0.44582 0.0
O132 O 0.02935 0.58275 0.49525 0.0
C133 C 0.05241 0.68733 0.46408 0.0
C134 C 0.17147 0.66334 0.49956 0.0
C135 C 0.04441 0.59318 0.52643 0.0
O136 O 0.08318 0.68157 0.48341 0.0
O137 O 0.03521 0.66164 0.44508 0.0
O138 O 0.13786 0.58275 0.49191 0.0
O139 O 0.09779 0.60457 0.45018 0.0
Co140 Co 0.89198 0.8719 0.48923 0.0
O141 O 0.84867 0.84905 0.46437 0.0
O142 O 0.85906 0.84703 0.52595 0.0
C143 C 0.88702 0.92856 0.45903 0.0
O144 O 0.93179 0.89338 0.52538 0.0
Co145 Co 0.96162 0.90318 0.44393 0.0
O146 O 0.97203 0.93024 0.49229 0.0
C147 C 0.95681 0.82097 0.46264 0.0
C148 C 0.83619 0.84001 0.4978 0.0
C149 C 0.95875 0.91793 0.52357 0.0
O150 O 0.9255 0.82516 0.48159 0.0
O151 O 0.97283 0.84766 0.44395 0.0
O152 O 0.8662 0.92151 0.48859 0.0
O153 O 0.90741 0.90065 0.44741 0.0
Co154 Co 0.39045 0.63043 0.52319 0.0
O155 O 0.3487 0.65303 0.5509 0.0
O156 O 0.35609 0.65653 0.48893 0.0
C157 C 0.38629 0.5731 0.55226 0.0
O158 O 0.42761 0.60973 0.48398 0.0
Co159 Co 0.4622 0.59678 0.5626 0.0
O160 O 0.4696 0.57147 0.51282 0.0
C161 C 0.45877 0.67944 0.54449 0.0
C162 C 0.33467 0.66295 0.51833 0.0
C163 C 0.45414 0.58476 0.48301 0.0
O164 O 0.42495 0.67659 0.53011 0.0
O165 O 0.47608 0.65162 0.56014 0.0
O166 O 0.36422 0.58112 0.52391 0.0
O167 O 0.4079 0.6003 0.56336 0.0
Co168 Co 0.51834 0.61704 0.87212 0.0
O169 O 0.54546 0.65901 0.8493 0.0
O170 O 0.48368 0.65075 0.84562 0.0
C171 C 0.54681 0.62204 0.92972 0.0
O172 O 0.47983 0.57936 0.8931 0.0
Co173 Co 0.55916 0.54614 0.90596 0.0
O174 O 0.50966 0.53804 0.93143 0.0
C175 C 0.54035 0.54856 0.82342 0.0
C176 C 0.51278 0.67251 0.83913 0.0
C177 C 0.47953 0.5528 0.91811 0.0
O178 O 0.52586 0.58235 0.82612 0.0
O179 O 0.55617 0.53147 0.85129 0.0
O180 O 0.51832 0.6437 0.92121 0.0
O181 O 0.55862 0.60051 0.90268 0.0
Co182 Co 0.48716 0.89224 0.86988 0.0
O183 O 0.46105 0.84835 0.84962 0.0
O184 O 0.52234 0.85864 0.84375 0.0
C185 C 0.46032 0.88894 0.92839 0.0
O186 O 0.52459 0.93242 0.88815 0.0
Co187 Co 0.4431 0.96281 0.9011 0.0
O188 O 0.49328 0.97589 0.923 0.0
C189 C 0.45715 0.95512 0.81833 0.0
C190 C 0.49387 0.83565 0.83886 0.0
C191 C 0.52388 0.96116 0.91066 0.0
O192 O 0.47696 0.92441 0.82269 0.0
O193 O 0.43949 0.97185 0.84529 0.0
O194 O 0.48943 0.86797 0.92016 0.0
O195 O 0.44701 0.90851 0.90067 0.0
Co196 Co 0.52119 0.38936 0.63527 0.0
O197 O 0.54751 0.34692 0.65833 0.0
O198 O 0.48571 0.35556 0.66044 0.0
C199 C 0.55131 0.38494 0.57845 0.0
O200 O 0.48321 0.42733 0.6137 0.0
Co201 Co 0.56245 0.46067 0.60275 0.0
O202 O 0.51359 0.469 0.57622 0.0
C203 C 0.54005 0.4581 0.68439 0.0
C204 C 0.51444 0.33348 0.66738 0.0
C205 C 0.48326 0.4541 0.58891 0.0
O206 O 0.5274 0.42359 0.68179 0.0
O207 O 0.55583 0.47587 0.65695 0.0
O208 O 0.52259 0.36322 0.586 0.0
O209 O 0.56235 0.40625 0.60598 0.0
Co210 Co 0.48726 0.11438 0.63386 0.0
O211 O 0.46136 0.15795 0.65498 0.0
O212 O 0.52269 0.14759 0.66024 0.0
C213 C 0.46029 0.11868 0.57549 0.0
O214 O 0.5243 0.07428 0.61457 0.0
Co215 Co 0.44246 0.04451 0.60216 0.0
O216 O 0.49232 0.03138 0.57956 0.0
C217 C 0.45731 0.05091 0.68482 0.0
C218 C 0.49421 0.17046 0.66576 0.0
C219 C 0.52314 0.04583 0.59169 0.0
O220 O 0.47724 0.08156 0.68064 0.0
O221 O 0.43927 0.03462 0.65785 0.0
O222 O 0.48945 0.13944 0.58399 0.0
O223 O 0.4469 0.09881 0.603 0.0
Co224 Co 0.86689 0.51873 0.61771 0.0
O225 O 0.84492 0.54527 0.66055 0.0
O226 O 0.84377 0.48324 0.65293 0.0
C227 C 0.9227 0.55071 0.61926 0.0
O228 O 0.88756 0.48072 0.57922 0.0
Co229 Co 0.89545 0.56001 0.5445 0.0
O230 O 0.92313 0.51162 0.53631 0.0
C231 C 0.81373 0.54116 0.55338 0.0
C232 C 0.83673 0.51226 0.67466 0.0
C233 C 0.91158 0.48109 0.55177 0.0
O234 O 0.81903 0.52397 0.5855 0.0
O235 O 0.83964 0.55886 0.53516 0.0
O236 O 0.91733 0.522 0.64172 0.0
O237 O 0.89398 0.56016 0.59896 0.0
Co238 Co 0.13765 0.98513 0.6147 0.0
O239 O 0.1598 0.95926 0.65785 0.0
O240 O 0.16265 0.02093 0.64851 0.0
C241 C 0.08055 0.95568 0.61866 0.0
O242 O 0.11671 0.02241 0.57562 0.0
Co243 Co 0.10717 0.94135 0.54376 0.0
O244 O 0.08118 0.99024 0.53339 0.0
C245 C 0.18932 0.95858 0.5502 0.0
C246 C 0.16905 0.99237 0.67103 0.0
C247 C 0.09269 0.02117 0.54814 0.0
O248 O 0.18463 0.97758 0.58144 0.0
O249 O 0.16286 0.94009 0.53358 0.0
O250 O 0.08795 0.98474 0.64005 0.0
O251 O 0.10839 0.94392 0.59822 0.0
Co252 Co 0.86881 0.48949 0.89439 0.0
O253 O 0.84593 0.46278 0.85222 0.0
O254 O 0.84472 0.52483 0.85959 0.0
C255 C 0.9248 0.45796 0.89126 0.0
O256 O 0.89022 0.52751 0.93259 0.0
Co257 Co 0.89976 0.4485 0.96665 0.0
O258 O 0.92814 0.49661 0.97335 0.0
C259 C 0.81834 0.47115 0.96207 0.0
C260 C 0.83733 0.49567 0.83814 0.0
C261 C 0.91541 0.52718 0.95898 0.0
O262 O 0.82177 0.48422 0.92779 0.0
O263 O 0.84524 0.45504 0.98034 0.0
O264 O 0.91852 0.48662 0.86902 0.0
O265 O 0.8967 0.44811 0.91229 0.0
Co266 Co 0.13519 0.01918 0.89018 0.0
O267 O 0.15867 0.04519 0.84784 0.0
O268 O 0.16012 0.98335 0.85631 0.0
C269 C 0.0787 0.04974 0.88556 0.0
O270 O 0.11303 0.98182 0.92853 0.0
Co271 Co 0.10371 0.06202 0.96114 0.0
O272 O 0.07622 0.01374 0.96978 0.0
C273 C 0.18522 0.03952 0.95814 0.0
C274 C 0.16761 0.0121 0.83438 0.0
C275 C 0.08822 0.98288 0.95532 0.0
O276 O 0.18169 0.02513 0.92436 0.0
O277 O 0.1582 0.0565 0.97549 0.0
O278 O 0.08604 0.02085 0.86394 0.0
O279 O 0.10633 0.06078 0.90671 0.0
Co280 Co 0.61629 0.8689 0.52273 0.0
O281 O 0.65859 0.84679 0.55002 0.0
O282 O 0.65141 0.84429 0.488 0.0
C283 C 0.61911 0.92565 0.55313 0.0
O284 O 0.57857 0.88951 0.48387 0.0
Co285 Co 0.54363 0.90039 0.56246 0.0
O286 O 0.53636 0.92701 0.51346 0.0
C287 C 0.54841 0.81862 0.54106 0.0
C288 C 0.67293 0.83781 0.51729 0.0
C289 C 0.5518 0.91429 0.48338 0.0
O290 O 0.58298 0.82177 0.52871 0.0
O291 O 0.52974 0.84587 0.55615 0.0
O292 O 0.64134 0.91873 0.5246 0.0
O293 O 0.59801 0.8978 0.56357 0.0
Co294 Co 0.61462 0.13899 0.98249 0.0
O295 O 0.65668 0.16182 0.95543 0.0
O296 O 0.64997 0.16267 0.01756 0.0
C297 C 0.61711 0.08316 0.95028 0.0
O298 O 0.5772 0.1176 0.02114 0.0
Co299 Co 0.54173 0.10773 0.94299 0.0
O300 O 0.5356 0.07965 0.99142 0.0
C301 C 0.54704 0.18978 0.96415 0.0
C302 C 0.67127 0.16989 0.98828 0.0
C303 C 0.5508 0.09247 0.02158 0.0
O304 O 0.58107 0.18617 0.9779 0.0
O305 O 0.52908 0.16267 0.94797 0.0
O306 O 0.63969 0.08907 0.97878 0.0
O307 O 0.59593 0.11137 0.9412 0.0
Co308 Co 0.38821 0.37713 0.98468 0.0
O309 O 0.34658 0.35334 0.9579 0.0
O310 O 0.35462 0.35123 0.01986 0.0
C311 C 0.38295 0.43385 0.95472 0.0
O312 O 0.42552 0.39921 0.02293 0.0
Co313 Co 0.45914 0.41085 0.9437 0.0
O314 O 0.46696 0.43716 0.99282 0.0
C315 C 0.45781 0.32926 0.96597 0.0
C316 C 0.33305 0.34385 0.99081 0.0
C317 C 0.45204 0.42422 0.02306 0.0
O318 O 0.42323 0.33134 0.97848 0.0
O319 O 0.47522 0.35695 0.95025 0.0
O320 O 0.36121 0.42591 0.98335 0.0
O321 O 0.4048 0.40676 0.94371 0.0
Co322 Co 0.89006 0.13336 0.01475 0.0
O323 O 0.84745 0.15709 0.04007 0.0
O324 O 0.85677 0.15799 0.97828 0.0
C325 C 0.88507 0.07741 0.04614 0.0
O326 O 0.92897 0.11108 0.97801 0.0
Co327 Co 0.96044 0.10159 0.05816 0.0
O328 O 0.96894 0.0733 0.01021 0.0
C329 C 0.95777 0.18316 0.03543 0.0
C330 C 0.83451 0.16579 0.00672 0.0
C331 C 0.95544 0.08597 0.9792 0.0
O332 O 0.92413 0.17982 0.02081 0.0
O333 O 0.97491 0.15605 0.05246 0.0
O334 O 0.86381 0.08411 0.01683 0.0
O335 O 0.90617 0.10519 0.05676 0.0
C336 C 0.04391 0.06555 0.52277 0.0
C337 C 0.08232 0.05636 0.52826 0.0
C338 C 0.03296 0.09163 0.4947 0.0
C339 C 0.06003 0.10766 0.47022 0.0
H340 H 0.0221 0.05052 0.53835 0.0
H341 H 1.00304 0.09574 0.48927 0.0
S342 S 0.16417 0.09646 0.47624 0.0
N343 N 0.14754 0.0692 0.51055 0.0
N344 N 0.12677 0.11623 0.45619 0.0
C345 C 0.09855 0.10128 0.47775 0.0
C346 C 0.10976 0.07589 0.50713 0.0
C347 C 0.90122 0.41139 0.47312 0.0
C348 C 0.93827 0.39708 0.46949 0.0
C349 C 0.89142 0.4354 0.50318 0.0
C350 C 0.91841 0.44599 0.5304 0.0
H351 H 0.8807 0.40698 0.45065 0.0
H352 H 0.86371 0.44868 0.50296 0.0
S353 S 0.01627 0.40914 0.53884 0.0
N354 N 0.99988 0.38955 0.4995 0.0
N355 N 0.98138 0.43546 0.55584 0.0
C356 C 0.9541 0.4285 0.52962 0.0
C357 C 0.96401 0.40353 0.49923 0.0
C358 C 0.03109 0.91315 0.0121 0.0
C359 C 0.05882 0.89938 0.03722 0.0
C360 C 0.04102 0.93794 0.98251 0.0
C361 C 0.07909 0.94799 0.97621 0.0
H362 H 1.00134 0.90841 0.018 0.0
H363 H 0.01866 0.95152 0.96639 0.0
S364 S 0.16255 0.91387 0.02991 0.0
N365 N 0.12592 0.89393 0.05127 0.0
N366 N 0.1448 0.93846 0.99421 0.0
C367 C 0.10728 0.9306 0.99821 0.0
C368 C 0.09708 0.9066 0.02907 0.0
C369 C 0.90594 0.59202 0.04163 0.0
C370 C 0.94234 0.60818 0.04408 0.0
C371 C 0.8957 0.5692 0.01083 0.0
C372 C 0.92158 0.56164 0.98157 0.0
H373 H 0.88636 0.59433 0.06523 0.0
H374 H 0.86873 0.55448 0.01177 0.0
S375 S 0.01664 0.60432 0.96983 0.0
N376 N 1.00166 0.62069 0.01117 0.0
N377 N 0.9823 0.57702 0.95333 0.0
C378 C 0.95634 0.58091 0.98146 0.0
C379 C 0.9667 0.60463 0.01271 0.0
C380 C 0.47221 0.10394 0.09114 0.0
C381 C 0.46897 0.06726 0.10648 0.0
C382 C 0.50212 0.11336 0.06684 0.0
C383 C 0.52953 0.0863 0.05688 0.0
H384 H 0.44962 0.1244 0.09512 0.0
H385 H 0.50166 0.14075 0.05287 0.0
S386 S 0.53874 0.98938 0.09601 0.0
N387 N 0.49944 0.00602 0.11538 0.0
N388 N 0.55539 0.02374 0.06883 0.0
C389 C 0.52904 0.05104 0.07522 0.0
C390 C 0.49885 0.04156 0.10054 0.0
C391 C 0.50766 0.47877 0.09574 0.0
C392 C 0.53179 0.45021 0.10962 0.0
C393 C 0.47876 0.46996 0.06979 0.0
C394 C 0.47219 0.43224 0.05861 0.0
H395 H 0.51402 0.50835 0.10117 0.0
H396 H 0.46348 0.49291 0.05622 0.0
S397 S 0.52333 0.34695 0.09221 0.0
N398 N 0.54455 0.38272 0.11383 0.0
N399 N 0.48875 0.36595 0.06698 0.0
C400 C 0.49306 0.4032 0.076 0.0
C401 C 0.52322 0.41226 0.10126 0.0
C402 C 0.5044 0.89408 0.43654 0.0
C403 C 0.53116 0.92123 0.4479 0.0
C404 C 0.47445 0.90399 0.41251 0.0
C405 C 0.47055 0.94124 0.39876 0.0
H406 H 0.50439 0.86612 0.44933 0.0
H407 H 0.4523 0.88327 0.40751 0.0
S408 S 0.53886 0.01988 0.41288 0.0
N409 N 0.55585 0.98481 0.43892 0.0
N410 N 0.49998 1.00334 0.39256 0.0
C411 C 0.4999 0.96724 0.40598 0.0
C412 C 0.53008 0.95728 0.43113 0.0
C413 C 0.49973 0.60614 0.43494 0.0
C414 C 0.47436 0.57811 0.44724 0.0
C415 C 0.52964 0.59701 0.41054 0.0
C416 C 0.53482 0.55968 0.3974 0.0
H417 H 0.49889 0.63428 0.44737 0.0
H418 H 0.55097 0.61843 0.40497 0.0
S419 S 0.46962 0.47885 0.41334 0.0
N420 N 0.45178 0.5136 0.4393 0.0
N421 N 0.5076 0.49649 0.39227 0.0
C422 C 0.50655 0.53274 0.40531 0.0
C423 C 0.47644 0.54191 0.43083 0.0
C424 C 0.09081 0.46854 0.10325 0.0
C425 C 0.10656 0.46644 0.06661 0.0
C426 C 0.06729 0.4987 0.11377 0.0
C427 C 0.05874 0.52773 0.08799 0.0
H428 H 0.09383 0.44498 0.12276 0.0
H429 H 0.05291 0.49742 0.14094 0.0
S430 S 0.09974 0.54032 0.99219 0.0
N431 N 0.1174 0.49951 0.00702 0.0
N432 N 0.07259 0.55622 0.02697 0.0
C433 C 0.07761 0.52832 0.05297 0.0
C434 C 0.10196 0.49769 0.04228 0.0
C435 C 0.06167 0.48592 0.47093 0.0
C436 C 0.05277 0.47825 0.4328 0.0
C437 C 0.08763 0.51454 0.48055 0.0
C438 C 0.1038 0.53759 0.45236 0.0
H439 H 0.0466 0.47156 0.49345 0.0
H440 H 0.09177 0.52134 0.51022 0.0
S441 S 0.09218 0.52687 0.34843 0.0
N442 N 0.06528 0.49316 0.36671 0.0
N443 N 0.11191 0.54875 0.3849 0.0
C444 C 0.09719 0.52842 0.41416 0.0
C445 C 0.07203 0.49834 0.40434 0.0
C446 C 0.91032 0.97182 0.40927 0.0
C447 C 0.89737 0.96717 0.44675 0.0
C448 C 0.93392 1.00213 0.3994 0.0
C449 C 0.94558 0.02853 0.42681 0.0
H450 H 0.9051 0.94995 0.38826 0.0
H451 H 0.94616 1.00268 0.37118 0.0
S452 S 0.91249 0.03427 0.52635 0.0
N453 N 0.89219 0.99548 0.50953 0.0
N454 N 0.93762 0.05211 0.49102 0.0
C455 C 0.92952 0.02672 0.46319 0.0
C456 C 0.90485 0.99615 0.47313 0.0
C457 C 0.41093 0.50981 0.53394 0.0
C458 C 0.39694 0.53406 0.56239 0.0
C459 C 0.43683 0.4809 0.54289 0.0
C460 C 0.44779 0.47435 0.58069 0.0
H461 H 0.40553 0.51609 0.50435 0.0
H462 H 0.45049 0.46556 0.51998 0.0
S463 S 0.41341 0.52544 0.66584 0.0
N464 N 0.39218 0.54677 0.62991 0.0
N465 N 0.43879 0.49086 0.64698 0.0
C466 C 0.43017 0.49524 0.60963 0.0
C467 C 0.40502 0.52546 0.60042 0.0
C468 C 0.53627 0.57293 0.0228 0.0
C469 C 0.57402 0.56267 0.03047 0.0
C470 C 0.52757 0.59791 0.993 0.0
C471 C 0.55632 0.61173 0.96904 0.0
H472 H 0.51326 0.55928 0.03792 0.0
H473 H 0.49805 0.60261 0.98595 0.0
S474 S 0.65963 0.59691 0.98029 0.0
N475 N 0.64042 0.57214 0.01511 0.0
N476 N 0.62393 0.61709 0.95765 0.0
C477 C 0.59421 0.60438 0.97864 0.0
C478 C 0.60311 0.58015 0.00973 0.0
C479 C 0.47086 0.94176 0.0196 0.0
C480 C 0.43295 0.95065 0.02819 0.0
C481 C 0.47981 0.91636 0.99021 0.0
C482 C 0.45112 0.90074 0.96739 0.0
H483 H 0.49369 0.95656 0.03376 0.0
H484 H 0.50928 0.91236 0.98264 0.0
S485 S 0.34758 0.91243 0.98043 0.0
N486 N 0.36661 0.9386 0.01434 0.0
N487 N 0.38351 0.89296 0.95747 0.0
C488 C 0.41319 0.90717 0.97754 0.0
C489 C 0.40407 0.93179 0.00833 0.0
C490 C 0.53242 0.40921 0.51525 0.0
C491 C 0.56124 0.39615 0.53948 0.0
C492 C 0.54068 0.43483 0.48593 0.0
C493 C 0.57811 0.44642 0.47875 0.0
H494 H 0.50297 0.40339 0.52176 0.0
H495 H 0.51745 0.44778 0.47079 0.0
S496 S 0.66412 0.4149 0.53002 0.0
N497 N 0.62882 0.39325 0.55195 0.0
N498 N 0.64457 0.43926 0.4951 0.0
C499 C 0.6075 0.42989 0.49986 0.0
C500 C 0.59899 0.40507 0.53061 0.0
C501 C 0.47984 0.08835 0.51527 0.0
C502 C 0.45162 0.10692 0.53641 0.0
C503 C 0.47002 0.06183 0.48724 0.0
C504 C 0.43188 0.05498 0.4779 0.0
H505 H 0.50932 0.09077 0.52352 0.0
H506 H 0.49216 0.04461 0.4749 0.0
S507 S 0.34818 0.10265 0.51975 0.0
N508 N 0.38461 0.12043 0.5432 0.0
N509 N 0.36623 0.07305 0.48817 0.0
C510 C 0.40383 0.07716 0.49542 0.0
C511 C 0.41373 0.10277 0.52517 0.0
C512 C 0.99218 0.61205 0.56832 0.0
C513 C 0.02183 0.58669 0.56078 0.0
C514 C 0.96198 0.60151 0.59171 0.0
C515 C 0.96038 0.56521 0.60822 0.0
H516 H 0.99059 0.63887 0.55337 0.0
H517 H 0.93809 0.6207 0.59411 0.0
S518 S 0.03585 0.49219 0.60416 0.0
N519 N 0.0514 0.52658 0.57639 0.0
N520 N 0.99446 0.50657 0.62087 0.0
C521 C 0.99211 0.54137 0.60456 0.0
C522 C 0.02288 0.55212 0.58042 0.0
C523 C 0.98836 0.96461 0.56765 0.0
C524 C 0.98079 0.92669 0.55793 0.0
C525 C 0.01779 0.97386 0.5928 0.0
C526 C 0.04175 0.94548 0.60724 0.0
H527 H 0.97334 0.98733 0.55365 0.0
H528 H 0.02448 0.00351 0.59734 0.0
S529 S 0.03155 0.84186 0.59327 0.0
N530 N 0.99671 0.86049 0.56811 0.0
N531 N 0.0538 0.87799 0.61318 0.0
C532 C 0.03267 0.90741 0.6 0.0
C533 C 1.00179 0.89795 0.57569 0.0
C534 C 0.99686 0.39939 0.94173 0.0
C535 C 0.02555 0.42594 0.94896 0.0
C536 C 0.96606 0.40865 0.91861 0.0
C537 C 0.96303 0.44473 0.90186 0.0
H538 H 0.99641 0.37261 0.95683 0.0
H539 H 0.94283 0.38862 0.91662 0.0
S540 S 0.03605 0.52026 0.90434 0.0
N541 N 0.05294 0.48676 0.93242 0.0
N542 N 0.99502 0.50433 0.88821 0.0
C543 C 0.99395 0.46969 0.905 0.0
C544 C 0.02522 0.46031 0.92903 0.0
C545 C 0.01485 0.03175 0.90899 0.0
C546 C 0.03981 0.06022 0.8965 0.0
C547 C 0.98479 0.04054 0.9336 0.0
C548 C 0.97773 0.07815 0.94477 0.0
H549 H 0.02112 1.00218 0.90343 0.0
H550 H 0.96886 0.01757 0.9461 0.0
S551 S 0.03129 0.16334 0.91478 0.0
N552 N 0.05336 0.12764 0.89388 0.0
N553 N 0.99534 0.14437 0.93805 0.0
C554 C 0.99985 0.10717 0.92891 0.0
C555 C 0.03125 0.09814 0.9051 0.0
C556 C 0.56949 0.01879 0.54573 0.0
C557 C 0.55802 0.02458 0.58353 0.0
C558 C 0.59485 0.98953 0.53634 0.0
C559 C 0.60789 0.96428 0.5643 0.0
H560 H 0.55671 0.03512 0.52306 0.0
H561 H 0.60067 0.98402 0.50666 0.0
S562 S 0.58942 0.97022 0.66764 0.0
N563 N 0.56514 0.00588 0.64938 0.0
N564 N 0.61092 0.94946 0.63149 0.0
C565 C 0.5991 0.97185 0.60242 0.0
C566 C 0.57442 1.00234 0.6121 0.0
C567 C 0.58967 0.04291 0.9001 0.0
C568 C 0.60641 0.04516 0.93629 0.0
C569 C 0.56608 0.0126 0.89027 0.0
C570 C 0.55852 0.98352 0.91629 0.0
H571 H 0.59196 0.06648 0.8805 0.0
H572 H 0.55092 0.01376 0.86353 0.0
S573 S 0.60266 0.97102 0.01069 0.0
N574 N 0.61944 0.01205 0.99543 0.0
N575 N 0.57447 0.95501 0.97683 0.0
C576 C 0.57843 0.98303 0.95074 0.0
C577 C 0.60283 0.01385 0.96071 0.0
C578 C 0.43299 0.52622 0.96403 0.0
C579 C 0.44392 0.53278 0.92623 0.0
C580 C 0.40722 0.49723 0.97302 0.0
C581 C 0.39332 0.47294 0.94456 0.0
H582 H 0.44666 0.54154 0.98693 0.0
H583 H 0.40204 0.49088 1.00266 0.0
S584 S 0.40946 0.4818 0.84109 0.0
N585 N 0.43482 0.5164 0.85993 0.0
N586 N 0.38838 0.46035 0.87704 0.0
C587 C 0.40123 0.48164 0.90652 0.0
C588 C 0.42627 0.51194 0.89729 0.0
C589 C 0.90807 0.03477 0.0965 0.0
C590 C 0.89512 0.03892 0.05898 0.0
C591 C 0.93186 0.00472 0.10668 0.0
C592 C 0.94373 0.97815 0.07952 0.0
H593 H 0.90277 0.05688 0.11724 0.0
H594 H 0.94416 0.0046 0.13488 0.0
S595 S 0.91081 0.97118 0.98004 0.0
N596 N 0.89014 0.00994 0.9965 0.0
N597 N 0.93603 0.95387 0.01555 0.0
C598 C 0.92765 0.97944 0.04315 0.0
C599 C 0.90275 0.0097 0.03292 0.0
C600 C 0.03795 0.23831 0.33689 0.0
C601 C 0.00672 0.21344 0.33409 0.0
C602 C 0.03323 0.27799 0.33668 0.0
C603 C 0.99706 0.29464 0.3336 0.0
H604 H 0.06616 0.22717 0.34167 0.0
H605 H 0.05795 0.29559 0.34141 0.0
S606 S 0.90678 0.24245 0.31831 0.0
N607 N 0.93891 0.2087 0.32284 0.0
N608 N 0.93003 0.28291 0.32226 0.0
C609 C 0.96602 0.27015 0.32735 0.0
C610 C 0.97084 0.22972 0.32764 0.0
C611 C 0.03524 0.73258 0.17471 0.0
C612 C 0.99925 0.71549 0.17751 0.0
C613 C 0.03942 0.77229 0.17401 0.0
C614 C 0.00781 0.79674 0.17606 0.0
H615 H 0.06026 0.71525 0.17057 0.0
H616 H 0.06754 0.78375 0.16944 0.0
S617 S 0.90805 0.76657 0.19094 0.0
N618 N 0.93192 0.7264 0.18782 0.0
N619 N 0.93978 0.8007 0.18639 0.0
C620 C 0.97206 0.78007 0.1823 0.0
C621 C 0.9678 0.7396 0.18304 0.0
C622 C 0.33699 0.97189 0.22847 0.0
C623 C 0.33519 0.00823 0.21197 0.0
C624 C 0.33715 0.967 0.26814 0.0
C625 C 0.33558 0.99822 0.29319 0.0
H626 H 0.34064 0.94704 0.21074 0.0
H627 H 0.34083 0.93855 0.27912 0.0
S628 S 0.32375 0.0989 0.26469 0.0
N629 N 0.3266 0.07566 0.22408 0.0
N630 N 0.3271 0.06645 0.29829 0.0
C631 C 0.33052 0.03442 0.27709 0.0
C632 C 0.33027 0.03941 0.23664 0.0
C633 C 0.67026 0.53559 0.23046 0.0
C634 C 0.67113 0.49959 0.21314 0.0
C635 C 0.67088 0.5396 0.2702 0.0
C636 C 0.67237 0.50779 0.29446 0.0
H637 H 0.66654 0.56084 0.21337 0.0
H638 H 0.66769 0.56784 0.28191 0.0
S639 S 0.68268 0.40766 0.26342 0.0
N640 N 0.67931 0.43182 0.22343 0.0
N641 N 0.6803 0.43939 0.29784 0.0
C642 C 0.67686 0.47191 0.27746 0.0
C643 C 0.67627 0.46781 0.23694 0.0
C644 C 0.27562 0.33364 0.03187 0.0
C645 C 0.29224 0.33321 0.99551 0.0
C646 C 0.236 0.33336 0.03663 0.0
C647 C 0.21119 0.33268 0.00525 0.0
H648 H 0.29318 0.33673 0.05689 0.0
H649 H 0.22486 0.33618 0.06515 0.0
S650 S 0.24017 0.32385 0.90429 0.0
N651 N 0.2806 0.32638 0.92777 0.0
N652 N 0.20644 0.326 0.93673 0.0
C653 C 0.22745 0.32867 0.96894 0.0
C654 C 0.26783 0.32889 0.96409 0.0
C655 C 0.23712 0.67302 0.47352 0.0
C656 C 0.21247 0.67291 0.50506 0.0
C657 C 0.27676 0.67309 0.47798 0.0
C658 C 0.29364 0.67303 0.51421 0.0
H659 H 0.22584 0.67075 0.44502 0.0
H660 H 0.29419 0.67074 0.45277 0.0
S661 S 0.24206 0.67977 0.60598 0.0
N662 N 0.20813 0.678 0.57375 0.0
N663 N 0.28236 0.67819 0.58217 0.0
C664 C 0.26938 0.67636 0.5459 0.0
C665 C 0.22894 0.6763 0.54133 0.0
C666 C 0.73095 0.82845 0.47675 0.0
C667 C 0.71418 0.82852 0.51305 0.0
C668 C 0.77058 0.82903 0.47212 0.0
C669 C 0.79536 0.82973 0.50355 0.0
H670 H 0.7134 0.83033 0.4516 0.0
H671 H 0.78172 0.83124 0.44355 0.0
S672 S 0.76622 0.8233 0.60463 0.0
N673 N 0.72582 0.82408 0.58098 0.0
N674 N 0.80001 0.8253 0.57224 0.0
C675 C 0.77906 0.82643 0.5399 0.0
C676 C 0.73863 0.8258 0.54465 0.0
C677 C 0.46754 0.76997 0.8299 0.0
C678 C 0.49902 0.79465 0.82893 0.0
C679 C 0.47204 0.7303 0.82981 0.0
C680 C 0.50824 0.71345 0.8288 0.0
H681 H 0.43917 0.78126 0.83312 0.0
H682 H 0.44698 0.71286 0.83311 0.0
S683 S 0.59954 0.76506 0.8187 0.0
N684 N 0.5674 0.79901 0.82144 0.0
N685 N 0.57586 0.72474 0.82125 0.0
C686 C 0.53972 0.73773 0.82427 0.0
C687 C 0.53512 0.77818 0.82433 0.0
C688 C 0.54072 0.26749 0.67468 0.0
C689 C 0.50948 0.2924 0.67705 0.0
C690 C 0.53589 0.22783 0.6743 0.0
C691 C 0.4996 0.21128 0.67625 0.0
H692 H 0.56905 0.27861 0.67063 0.0
H693 H 0.56065 0.21019 0.66988 0.0
S694 S 0.40913 0.26346 0.69027 0.0
N695 N 0.44143 0.29718 0.68692 0.0
N696 N 0.43237 0.223 0.68625 0.0
C697 C 0.4685 0.23574 0.68214 0.0
C698 C 0.47342 0.27614 0.68255 0.0
C699 C 0.82905 0.53586 0.77979 0.0
C700 C 0.82726 0.49992 0.79712 0.0
C701 C 0.82898 0.5398 0.74005 0.0
C702 C 0.82717 0.50797 0.71581 0.0
H703 H 0.83298 0.56109 0.79691 0.0
H704 H 0.83277 0.56795 0.72835 0.0
S705 S 0.81474 0.40809 0.74676 0.0
N706 N 0.81806 0.43228 0.78677 0.0
N707 N 0.81811 0.4397 0.71237 0.0
C708 C 0.82192 0.4722 0.73277 0.0
C709 C 0.82192 0.46818 0.77329 0.0
C710 C 0.17669 0.96615 0.73699 0.0
C711 C 0.1786 0.99749 0.71217 0.0
C712 C 0.17638 0.97084 0.77669 0.0
C713 C 0.17799 0.0071 0.79344 0.0
H714 H 0.17301 0.93777 0.72578 0.0
H715 H 0.17237 0.94593 0.79421 0.0
S716 S 0.19066 0.09795 0.74151 0.0
N717 N 0.18757 0.0657 0.70764 0.0
N718 N 0.18713 0.07453 0.78192 0.0
C719 C 0.18343 0.03837 0.76905 0.0
C720 C 0.18371 0.03358 0.72857 0.0
C721 C 0.76918 0.17695 0.03305 0.0
C722 C 0.79377 0.1766 1.00146 0.0
C723 C 0.72953 0.17802 0.02866 0.0
C724 C 0.71259 0.17884 0.99247 0.0
H725 H 0.78044 0.17402 0.06149 0.0
H726 H 0.7121 0.17578 0.05387 0.0
S727 S 0.76421 0.18556 0.90072 0.0
N728 N 0.79813 0.18249 0.93285 0.0
N729 N 0.72392 0.18466 0.92457 0.0
C730 C 0.73689 0.18201 0.96079 0.0
C731 C 0.77733 0.18085 0.96528 0.0
C732 C 0.0403 0.96646 0.25343 0.0
C733 C 0.03378 0.98385 0.21835 0.0
C734 C 0.04172 0.98801 0.28694 0.0
C735 C 0.03625 0.02788 0.28694 0.0
H736 H 0.04571 0.93624 0.25489 0.0
H737 H 0.04748 0.97304 0.31314 0.0
S738 S 0.01361 0.08624 0.20249 0.0
N739 N 0.01856 0.0428 0.18563 0.0
N740 N 0.02103 0.08304 0.24865 0.0
C741 C 0.02785 0.04527 0.25216 0.0
C742 C 0.02672 0.02336 0.21793 0.0
C743 C 0.92918 0.49965 0.27709 0.0
C744 C 0.96156 0.47943 0.28891 0.0
C745 C 0.93076 0.52578 0.24718 0.0
C746 C 0.96501 0.53369 0.22848 0.0
H747 H 0.90222 0.49522 0.29116 0.0
H748 H 0.90477 0.5394 0.23806 0.0
S749 S 0.05799 0.48876 0.24805 0.0
N750 N 0.02903 0.46923 0.27935 0.0
N751 N 0.03197 0.51868 0.22305 0.0
C752 C 0.9977 0.51394 0.23997 0.0
C753 C 0.99598 0.48672 0.27014 0.0
C754 C 0.22088 0.04188 0.0199 0.0
C755 C 0.22124 0.03547 0.98013 0.0
C756 C 0.25408 0.04036 0.04185 0.0
C757 C 0.28916 0.03269 0.02495 0.0
H758 H 0.19469 0.04872 0.03442 0.0
H759 H 0.25247 0.04689 0.07187 0.0
S760 S 0.30577 0.00911 0.92337 0.0
N761 N 0.25979 0.01761 0.92584 0.0
N762 N 0.32218 0.01499 0.96687 0.0
C763 C 0.28985 0.02432 0.9857 0.0
C764 C 0.25597 0.02559 0.96338 0.0
C765 C 0.71399 0.46557 0.98761 0.0
C766 C 0.71392 0.47197 0.02736 0.0
C767 C 0.74741 0.4673 0.96602 0.0
C768 C 0.78224 0.47514 0.98331 0.0
H769 H 0.68797 0.45873 0.9728 0.0
H770 H 0.74615 0.46098 0.93594 0.0
S771 S 0.79772 0.49827 0.08516 0.0
N772 N 0.75181 0.48961 0.08217 0.0
N773 N 0.81461 0.49266 0.04181 0.0
C774 C 0.78252 0.48325 0.02261 0.0
C775 C 0.74844 0.48176 0.04455 0.0
C776 C 0.27091 0.92606 0.4886 0.0
C777 C 0.28659 0.96025 0.47527 0.0
C778 C 0.24064 0.92586 0.51443 0.0
C779 C 0.22567 0.95982 0.52916 0.0
H780 H 0.28244 0.89915 0.47919 0.0
H781 H 0.22866 0.89884 0.52284 0.0
S782 S 0.25699 0.05694 0.50407 0.0
N783 N 0.28497 0.029 0.47884 0.0
N784 N 0.22853 0.02861 0.52822 0.0
C785 C 0.24129 0.99422 0.51644 0.0
C786 C 0.27158 0.99444 0.48929 0.0
C787 C 0.75689 0.5731 0.52738 0.0
C788 C 0.77696 0.53931 0.5336 0.0
C789 C 0.72686 0.57465 0.50137 0.0
C790 C 0.71635 0.54275 0.47961 0.0
H791 H 0.76501 0.59879 0.5422 0.0
H792 H 0.71169 0.60119 0.49823 0.0
S793 S 0.76118 0.44772 0.4843 0.0
N794 N 0.7851 0.47337 0.51544 0.0
N795 N 0.72872 0.47626 0.46616 0.0
C796 C 0.73656 0.50883 0.48521 0.0
C797 C 0.7668 0.50712 0.51231 0.0
C798 C 0.04165 0.25156 0.03624 0.0
C799 C 0.02464 0.28699 0.03075 0.0
C800 C 0.01968 0.21835 0.03692 0.0
C801 C 0.9798 0.21912 0.03181 0.0
H802 H 0.07182 0.2496 0.04165 0.0
H803 H 0.03424 0.19181 0.0421 0.0
S804 S 0.9225 0.30475 0.01116 0.0
N805 N 0.96615 0.32084 0.01632 0.0
N806 N 0.92513 0.25842 0.01752 0.0
C807 C 0.96286 0.25424 0.02405 0.0
C808 C 0.98518 0.2881 0.02361 0.0
C809 C 0.02371 0.74282 0.43175 0.0
C810 C 0.03236 0.72407 0.46581 0.0
C811 C 0.99784 0.77299 0.4309 0.0
C812 C 0.97853 0.78493 0.46385 0.0
H813 H 0.03666 0.73365 0.40539 0.0
H814 H 0.99289 0.7872 0.40409 0.0
S815 S 0.98985 0.74384 0.56003 0.0
N816 N 0.01898 0.7187 0.5332 0.0
N817 N 0.96985 0.77529 0.53158 0.0
C818 C 0.98649 0.76603 0.49806 0.0
C819 C 0.01353 0.73569 0.49905 0.0
C820 C 0.54233 0.74841 0.55047 0.0
C821 C 0.52714 0.78256 0.53724 0.0
C822 C 0.51979 0.71564 0.55274 0.0
C823 C 0.48112 0.71546 0.54154 0.0
H824 H 0.57132 0.74734 0.56057 0.0
H825 H 0.53306 0.69025 0.56378 0.0
S826 S 0.42931 0.79758 0.50108 0.0
N827 N 0.47208 0.81421 0.51034 0.0
N828 N 0.42995 0.75259 0.51409 0.0
C829 C 0.46617 0.7493 0.52677 0.0
C830 C 0.48909 0.78276 0.52477 0.0
C831 C 0.54481 0.48653 0.7883 0.0
C832 C 0.5376 0.52613 0.78744 0.0
C833 C 0.54371 0.46408 0.75536 0.0
C834 C 0.53574 0.48027 0.72001 0.0
H835 H 0.55176 0.47248 0.81472 0.0
H836 H 0.55056 0.43419 0.75741 0.0
S837 S 0.51058 0.58114 0.70198 0.0
N838 N 0.51903 0.5795 0.74805 0.0
N839 N 0.51726 0.53756 0.68614 0.0
C840 C 0.52689 0.51938 0.71876 0.0
C841 C 0.5277 0.5422 0.75239 0.0
C842 C 0.49128 0.98878 0.76586 0.0
C843 C 0.45703 0.9758 0.78178 0.0
C844 C 0.49142 0.01548 0.73606 0.0
C845 C 0.4573 0.02992 0.72116 0.0
H846 H 0.51812 0.97916 0.77729 0.0
H847 H 0.5183 0.02403 0.72389 0.0
S848 S 0.36024 0.00478 0.75272 0.0
N849 N 0.38833 0.97972 0.7806 0.0
N850 N 0.38857 0.0287 0.7241 0.0
C851 C 0.42302 0.01686 0.73667 0.0
C852 C 0.42288 0.99018 0.76711 0.0
C853 C 0.46326 0.25833 0.96419 0.0
C854 C 0.48016 0.29375 0.96995 0.0
C855 C 0.4853 0.22521 0.96304 0.0
C856 C 0.52522 0.22594 0.96797 0.0
H857 H 0.43304 0.25627 0.95908 0.0
H858 H 0.47065 0.19873 0.95776 0.0
S859 S 0.58236 0.31155 0.98925 0.0
N860 N 0.53865 0.32762 0.98441 0.0
N861 N 0.57986 0.26527 0.98235 0.0
C862 C 0.54212 0.26107 0.97587 0.0
C863 C 0.51969 0.29492 0.97677 0.0
loop_
_geom_bond_atom_site_label_1
_geom_bond_atom_site_label_2
_geom_bond_distance
_geom_bond_site_symmetry_2
_ccdc_geom_bond_type
Co0 O1 2.216 1_655 S
Co0 O2 2.091 . S
Co0 O4 2.004 . S
Co0 O10 2.021 . S
Co0 O12 2.137 1_655 S
Co0 O13 2.244 1_655 S
O1 Co0 2.216 1_455 S
O1 C8 1.247 1_455 S
O2 Co0 2.091 . S
O2 C8 1.261 . S
C3 O12 1.247 . S
C3 O13 1.272 . S
O4 Co0 2.004 . S
O4 C9 1.259 . S
Co5 O6 2.062 1_455 S
Co5 O11 2.052 . S
Co5 O13 2.135 . S
O6 Co5 2.062 1_655 S
O6 C9 1.245 . S
C7 O10 1.238 1_455 S
C7 O11 1.241 . S
C8 O1 1.247 1_655 S
C8 O2 1.261 . S
C9 O4 1.259 . S
C9 O6 1.245 . S
O10 Co0 2.021 . S
O10 C7 1.238 1_655 S
O11 Co5 2.052 . S
O11 C7 1.241 . S
O12 Co0 2.137 1_455 S
O12 C3 1.247 . S
O13 Co0 2.244 1_455 S
O13 C3 1.272 . S
O13 Co5 2.135 . S
Co14 O15 2.216 1_455 S
Co14 O16 2.091 . S
Co14 O18 2.004 . S
Co14 O24 2.021 . S
Co14 O26 2.137 1_455 S
Co14 O27 2.244 1_455 S
O15 Co14 2.216 1_655 S
O15 C22 1.247 1_655 S
O16 Co14 2.091 . S
O16 C22 1.261 . S
C17 O26 1.247 . S
C17 O27 1.272 . S
O18 Co14 2.004 . S
O18 C23 1.259 . S
Co19 O20 2.061 1_655 S
Co19 O25 2.052 . S
Co19 O27 2.135 . S
O20 Co19 2.061 1_455 S
O20 C23 1.235 . S
C21 O24 1.238 1_655 S
C21 O25 1.241 . S
C22 O15 1.247 1_455 S
C22 O16 1.261 . S
C23 O18 1.259 . S
C23 O20 1.235 . S
O24 Co14 2.021 . S
O24 C21 1.238 1_455 S
O25 Co19 2.052 . S
O25 C21 1.241 . S
O26 Co14 2.137 1_655 S
O26 C17 1.247 . S
O27 Co14 2.244 1_655 S
O27 C17 1.272 . S
O27 Co19 2.135 . S
Co28 O29 2.216 1_655 S
Co28 O30 2.091 . S
Co28 O32 2.004 . S
Co28 O38 2.021 . S
Co28 O40 2.137 1_655 S
Co28 O41 2.244 1_655 S
O29 Co28 2.216 1_455 S
O29 C36 1.247 1_455 S
O30 Co28 2.091 . S
O30 C36 1.261 . S
C31 O40 1.247 . S
C31 O41 1.272 . S
O32 Co28 2.004 . S
O32 C37 1.259 . S
Co33 O34 2.061 1_455 S
Co33 O39 2.052 . S
Co33 O41 2.135 . S
O34 Co33 2.061 1_655 S
O34 C37 1.235 . S
C35 O38 1.238 1_455 S
C35 O39 1.241 . S
C36 O29 1.247 1_655 S
C36 O30 1.261 . S
C37 O32 1.259 . S
C37 O34 1.235 . S
O38 Co28 2.021 . S
O38 C35 1.238 1_655 S
O39 Co33 2.052 . S
O39 C35 1.241 . S
O40 Co28 2.137 1_455 S
O40 C31 1.247 . S
O41 Co28 2.244 1_455 S
O41 C31 1.272 . S
O41 Co33 2.135 . S
Co42 O43 2.216 1_455 S
Co42 O44 2.091 . S
Co42 O46 2.004 . S
Co42 O52 2.021 . S
Co42 O54 2.137 1_455 S
Co42 O55 2.244 1_455 S
O43 Co42 2.216 1_655 S
O43 C50 1.247 1_655 S
O44 Co42 2.091 . S
O44 C50 1.261 . S
C45 O54 1.247 . S
C45 O55 1.272 . S
O46 Co42 2.004 . S
O46 C51 1.259 . S
Co47 O48 2.061 1_655 S
Co47 O53 2.052 . S
Co47 O55 2.135 . S
O48 Co47 2.061 1_455 S
O48 C51 1.235 . S
C49 O52 1.238 1_655 S
C49 O53 1.241 . S
C50 O43 1.247 1_455 S
C50 O44 1.261 . S
C51 O46 1.259 . S
C51 O48 1.235 . S
O52 Co42 2.021 . S
O52 C49 1.238 1_455 S
O53 Co47 2.052 . S
O53 C49 1.241 . S
O54 Co42 2.137 1_655 S
O54 C45 1.247 . S
O55 Co42 2.244 1_655 S
O55 C45 1.272 . S
O55 Co47 2.135 . S
Co56 O57 2.216 1_565 S
Co56 O58 2.091 . S
Co56 O60 2.004 . S
Co56 O66 2.021 . S
Co56 O68 2.137 1_565 S
Co56 O69 2.244 1_565 S
O57 Co56 2.216 1_545 S
O57 C64 1.247 1_545 S
O58 Co56 2.091 . S
O58 C64 1.261 . S
C59 O68 1.247 . S
C59 O69 1.272 . S
O60 Co56 2.004 . S
O60 C65 1.259 . S
Co61 O62 2.062 1_545 S
Co61 O67 2.052 . S
Co61 O69 2.135 . S
O62 Co61 2.062 1_565 S
O62 C65 1.245 . S
C63 O66 1.238 1_545 S
C63 O67 1.241 . S
C64 O57 1.247 1_565 S
C64 O58 1.261 . S
C65 O60 1.259 . S
C65 O62 1.245 . S
O66 Co56 2.021 . S
O66 C63 1.238 1_565 S
O67 Co61 2.052 . S
O67 C63 1.241 . S
O68 Co56 2.137 1_545 S
O68 C59 1.247 . S
O69 Co56 2.244 1_545 S
O69 C59 1.272 . S
O69 Co61 2.135 . S
Co70 O71 2.216 . S
Co70 O72 2.091 . S
Co70 O74 2.004 . S
Co70 O80 2.021 . S
Co70 O82 2.137 . S
Co70 O83 2.244 . S
O71 Co70 2.216 . S
O71 C78 1.247 . S
O72 Co70 2.091 . S
O72 C78 1.261 . S
C73 O82 1.247 . S
C73 O83 1.272 . S
O74 Co70 2.004 . S
O74 C79 1.259 . S
Co75 O76 2.061 . S
Co75 O81 2.052 . S
Co75 O83 2.135 . S
O76 Co75 2.061 . S
O76 C79 1.235 . S
C77 O80 1.238 . S
C77 O81 1.241 . S
C78 O71 1.247 . S
C78 O72 1.261 . S
C79 O74 1.259 . S
C79 O76 1.235 . S
O80 Co70 2.021 . S
O80 C77 1.238 . S
O81 Co75 2.052 . S
O81 C77 1.241 . S
O82 Co70 2.137 . S
O82 C73 1.247 . S
O83 Co70 2.244 . S
O83 C73 1.272 . S
O83 Co75 2.135 . S
Co84 O85 2.216 1_545 S
Co84 O86 2.091 . S
Co84 O88 2.004 . S
Co84 O94 2.021 . S
Co84 O96 2.137 1_545 S
Co84 O97 2.244 1_545 S
O85 Co84 2.216 1_565 S
O85 C92 1.247 1_565 S
O86 Co84 2.091 . S
O86 C92 1.261 . S
C87 O96 1.247 . S
C87 O97 1.272 . S
O88 Co84 2.004 . S
O88 C93 1.259 . S
Co89 O90 2.061 1_565 S
Co89 O95 2.052 . S
Co89 O97 2.135 . S
O90 Co89 2.061 1_545 S
O90 C93 1.235 . S
C91 O94 1.238 1_565 S
C91 O95 1.241 . S
C92 O85 1.247 1_545 S
C92 O86 1.261 . S
C93 O88 1.259 . S
C93 O90 1.235 . S
O94 Co84 2.021 . S
O94 C91 1.238 1_545 S
O95 Co89 2.052 . S
O95 C91 1.241 . S
O96 Co84 2.137 1_565 S
O96 C87 1.247 . S
O97 Co84 2.244 1_565 S
O97 C87 1.272 . S
O97 Co89 2.135 . S
Co98 O99 2.216 . S
Co98 O100 2.091 . S
Co98 O102 2.004 . S
Co98 O108 2.021 . S
Co98 O110 2.137 . S
Co98 O111 2.244 . S
O99 Co98 2.216 . S
O99 C106 1.247 . S
O100 Co98 2.091 . S
O100 C106 1.261 . S
C101 O110 1.247 . S
C101 O111 1.272 . S
O102 Co98 2.004 . S
O102 C107 1.259 . S
Co103 O104 2.061 . S
Co103 O109 2.052 . S
Co103 O111 2.135 . S
O104 Co103 2.061 . S
O104 C107 1.235 . S
C105 O108 1.238 . S
C105 O109 1.241 . S
C106 O99 1.247 . S
C106 O100 1.261 . S
C107 O102 1.259 . S
C107 O104 1.235 . S
O108 Co98 2.021 . S
O108 C105 1.238 . S
O109 Co103 2.052 . S
O109 C105 1.241 . S
O110 Co98 2.137 . S
O110 C101 1.247 . S
O111 Co98 2.244 . S
O111 C101 1.272 . S
O111 Co103 2.135 . S
Co112 O113 2.216 1_556 S
Co112 O114 2.091 . S
Co112 O116 2.004 . S
Co112 O122 2.021 . S
Co112 O124 2.137 1_556 S
Co112 O125 2.244 1_556 S
O113 Co112 2.216 1_554 S
O113 C120 1.247 1_554 S
O114 Co112 2.091 . S
O114 C120 1.261 . S
C115 O124 1.247 . S
C115 O125 1.272 . S
O116 Co112 2.004 . S
O116 C121 1.259 . S
Co117 O118 2.062 1_554 S
Co117 O123 2.052 . S
Co117 O125 2.135 . S
O118 Co117 2.062 1_556 S
O118 C121 1.245 . S
C119 O122 1.238 1_554 S
C119 O123 1.241 . S
C120 O113 1.247 1_556 S
C120 O114 1.261 . S
C121 O116 1.259 . S
C121 O118 1.245 . S
O122 Co112 2.021 . S
O122 C119 1.238 1_556 S
O123 Co117 2.052 . S
O123 C119 1.241 . S
O124 Co112 2.137 1_554 S
O124 C115 1.247 . S
O125 Co112 2.244 1_554 S
O125 C115 1.272 . S
O125 Co117 2.135 . S
Co126 O127 2.216 . S
Co126 O128 2.091 . S
Co126 O130 2.004 . S
Co126 O136 2.021 . S
Co126 O138 2.137 . S
Co126 O139 2.244 . S
O127 Co126 2.216 . S
O127 C134 1.247 . S
O128 Co126 2.091 . S
O128 C134 1.261 . S
C129 O138 1.247 . S
C129 O139 1.272 . S
O130 Co126 2.004 . S
O130 C135 1.259 . S
Co131 O132 2.061 . S
Co131 O137 2.052 . S
Co131 O139 2.135 . S
O132 Co131 2.061 . S
O132 C135 1.235 . S
C133 O136 1.238 . S
C133 O137 1.241 . S
C134 O127 1.247 . S
C134 O128 1.261 . S
C135 O130 1.259 . S
C135 O132 1.235 . S
O136 Co126 2.021 . S
O136 C133 1.238 . S
O137 Co131 2.052 . S
O137 C133 1.241 . S
O138 Co126 2.137 . S
O138 C129 1.247 . S
O139 Co126 2.244 . S
O139 C129 1.272 . S
O139 Co131 2.135 . S
Co140 O141 2.216 . S
Co140 O142 2.091 . S
Co140 O144 2.004 . S
Co140 O150 2.021 . S
Co140 O152 2.137 . S
Co140 O153 2.244 . S
O141 Co140 2.216 . S
O141 C148 1.247 . S
O142 Co140 2.091 . S
O142 C148 1.261 . S
C143 O152 1.247 . S
C143 O153 1.272 . S
O144 Co140 2.004 . S
O144 C149 1.259 . S
Co145 O146 2.061 . S
Co145 O151 2.052 . S
Co145 O153 2.135 . S
O146 Co145 2.061 . S
O146 C149 1.235 . S
C147 O150 1.238 . S
C147 O151 1.241 . S
C148 O141 1.247 . S
C148 O142 1.261 . S
C149 O144 1.259 . S
C149 O146 1.235 . S
O150 Co140 2.021 . S
O150 C147 1.238 . S
O151 Co145 2.052 . S
O151 C147 1.241 . S
O152 Co140 2.137 . S
O152 C143 1.247 . S
O153 Co140 2.244 . S
O153 C143 1.272 . S
O153 Co145 2.135 . S
Co154 O155 2.216 . S
Co154 O156 2.091 . S
Co154 O158 2.004 . S
Co154 O164 2.021 . S
Co154 O166 2.137 . S
Co154 O167 2.244 . S
O155 Co154 2.216 . S
O155 C162 1.247 . S
O156 Co154 2.091 . S
O156 C162 1.261 . S
C157 O166 1.247 . S
C157 O167 1.272 . S
O158 Co154 2.004 . S
O158 C163 1.259 . S
Co159 O160 2.061 . S
Co159 O165 2.052 . S
Co159 O167 2.135 . S
O160 Co159 2.061 . S
O160 C163 1.235 . S
C161 O164 1.238 . S
C161 O165 1.241 . S
C162 O155 1.247 . S
C162 O156 1.261 . S
C163 O158 1.259 . S
C163 O160 1.235 . S
O164 Co154 2.021 . S
O164 C161 1.238 . S
O165 Co159 2.052 . S
O165 C161 1.241 . S
O166 Co154 2.137 . S
O166 C157 1.247 . S
O167 Co154 2.244 . S
O167 C157 1.272 . S
O167 Co159 2.135 . S
Co168 O169 2.216 . S
Co168 O170 2.091 . S
Co168 O172 2.004 . S
Co168 O178 2.021 . S
Co168 O180 2.137 . S
Co168 O181 2.244 . S
O169 Co168 2.216 . S
O169 C176 1.247 . S
O170 Co168 2.091 . S
O170 C176 1.261 . S
C171 O180 1.247 . S
C171 O181 1.272 . S
O172 Co168 2.004 . S
O172 C177 1.259 . S
Co173 O174 2.061 . S
Co173 O179 2.052 . S
Co173 O181 2.135 . S
O174 Co173 2.061 . S
O174 C177 1.235 . S
C175 O178 1.238 . S
C175 O179 1.241 . S
C176 O169 1.247 . S
C176 O170 1.261 . S
C177 O172 1.259 . S
C177 O174 1.235 . S
O178 Co168 2.021 . S
O178 C175 1.238 . S
O179 Co173 2.052 . S
O179 C175 1.241 . S
O180 Co168 2.137 . S
O180 C171 1.247 . S
O181 Co168 2.244 . S
O181 C171 1.272 . S
O181 Co173 2.135 . S
Co182 O183 2.216 . S
Co182 O184 2.091 . S
Co182 O186 2.004 . S
Co182 O192 2.021 . S
Co182 O194 2.137 . S
Co182 O195 2.244 . S
O183 Co182 2.216 . S
O183 C190 1.247 . S
O184 Co182 2.091 . S
O184 C190 1.261 . S
C185 O194 1.247 . S
C185 O195 1.272 . S
O186 Co182 2.004 . S
O186 C191 1.259 . S
Co187 O188 2.061 . S
Co187 O193 2.052 . S
Co187 O195 2.135 . S
O188 Co187 2.061 . S
O188 C191 1.235 . S
C189 O192 1.238 . S
C189 O193 1.241 . S
C190 O183 1.247 . S
C190 O184 1.261 . S
C191 O186 1.259 . S
C191 O188 1.235 . S
O192 Co182 2.021 . S
O192 C189 1.238 . S
O193 Co187 2.052 . S
O193 C189 1.241 . S
O194 Co182 2.137 . S
O194 C185 1.247 . S
O195 Co182 2.244 . S
O195 C185 1.272 . S
O195 Co187 2.135 . S
Co196 O197 2.216 . S
Co196 O198 2.091 . S
Co196 O200 2.004 . S
Co196 O206 2.021 . S
Co196 O208 2.137 . S
Co196 O209 2.244 . S
O197 Co196 2.216 . S
O197 C204 1.247 . S
O198 Co196 2.091 . S
O198 C204 1.261 . S
C199 O208 1.247 . S
C199 O209 1.272 . S
O200 Co196 2.004 . S
O200 C205 1.259 . S
Co201 O202 2.061 . S
Co201 O207 2.052 . S
Co201 O209 2.135 . S
O202 Co201 2.061 . S
O202 C205 1.235 . S
C203 O206 1.238 . S
C203 O207 1.241 . S
C204 O197 1.247 . S
C204 O198 1.261 . S
C205 O200 1.259 . S
C205 O202 1.235 . S
O206 Co196 2.021 . S
O206 C203 1.238 . S
O207 Co201 2.052 . S
O207 C203 1.241 . S
O208 Co196 2.137 . S
O208 C199 1.247 . S
O209 Co196 2.244 . S
O209 C199 1.272 . S
O209 Co201 2.135 . S
Co210 O211 2.216 . S
Co210 O212 2.091 . S
Co210 O214 2.004 . S
Co210 O220 2.021 . S
Co210 O222 2.137 . S
Co210 O223 2.244 . S
O211 Co210 2.216 . S
O211 C218 1.247 . S
O212 Co210 2.091 . S
O212 C218 1.261 . S
C213 O222 1.247 . S
C213 O223 1.272 . S
O214 Co210 2.004 . S
O214 C219 1.259 . S
Co215 O216 2.061 . S
Co215 O221 2.052 . S
Co215 O223 2.135 . S
O216 Co215 2.061 . S
O216 C219 1.235 . S
C217 O220 1.238 . S
C217 O221 1.241 . S
C218 O211 1.247 . S
C218 O212 1.261 . S
C219 O214 1.259 . S
C219 O216 1.235 . S
O220 Co210 2.021 . S
O220 C217 1.238 . S
O221 Co215 2.052 . S
O221 C217 1.241 . S
O222 Co210 2.137 . S
O222 C213 1.247 . S
O223 Co210 2.244 . S
O223 C213 1.272 . S
O223 Co215 2.135 . S
Co224 O225 2.216 . S
Co224 O226 2.091 . S
Co224 O228 2.004 . S
Co224 O234 2.021 . S
Co224 O236 2.137 . S
Co224 O237 2.244 . S
O225 Co224 2.216 . S
O225 C232 1.247 . S
O226 Co224 2.091 . S
O226 C232 1.261 . S
C227 O236 1.247 . S
C227 O237 1.272 . S
O228 Co224 2.004 . S
O228 C233 1.259 . S
Co229 O230 2.061 . S
Co229 O235 2.052 . S
Co229 O237 2.135 . S
O230 Co229 2.061 . S
O230 C233 1.235 . S
C231 O234 1.238 . S
C231 O235 1.241 . S
C232 O225 1.247 . S
C232 O226 1.261 . S
C233 O228 1.259 . S
C233 O230 1.235 . S
O234 Co224 2.021 . S
O234 C231 1.238 . S
O235 Co229 2.052 . S
O235 C231 1.241 . S
O236 Co224 2.137 . S
O236 C227 1.247 . S
O237 Co224 2.244 . S
O237 C227 1.272 . S
O237 Co229 2.135 . S
Co238 O239 2.216 1_545 S
Co238 O240 2.091 . S
Co238 O242 2.004 . S
Co238 O248 2.021 . S
Co238 O250 2.137 1_545 S
Co238 O251 2.244 1_545 S
O239 Co238 2.216 1_565 S
O239 C246 1.247 1_565 S
O240 Co238 2.091 . S
O240 C246 1.261 . S
C241 O250 1.247 . S
C241 O251 1.272 . S
O242 Co238 2.004 . S
O242 C247 1.259 . S
Co243 O244 2.061 1_565 S
Co243 O249 2.052 . S
Co243 O251 2.135 . S
O244 Co243 2.061 1_545 S
O244 C247 1.235 . S
C245 O248 1.238 1_565 S
C245 O249 1.241 . S
C246 O239 1.247 1_545 S
C246 O240 1.261 . S
C247 O242 1.259 . S
C247 O244 1.235 . S
O248 Co238 2.021 . S
O248 C245 1.238 1_545 S
O249 Co243 2.052 . S
O249 C245 1.241 . S
O250 Co238 2.137 1_565 S
O250 C241 1.247 . S
O251 Co238 2.244 1_565 S
O251 C241 1.272 . S
O251 Co243 2.135 . S
Co252 O253 2.216 . S
Co252 O254 2.091 . S
Co252 O256 2.004 . S
Co252 O262 2.021 . S
Co252 O264 2.137 . S
Co252 O265 2.244 . S
O253 Co252 2.216 . S
O253 C260 1.247 . S
O254 Co252 2.091 . S
O254 C260 1.261 . S
C255 O264 1.247 . S
C255 O265 1.272 . S
O256 Co252 2.004 . S
O256 C261 1.259 . S
Co257 O258 2.061 . S
Co257 O263 2.052 . S
Co257 O265 2.135 . S
O258 Co257 2.061 . S
O258 C261 1.235 . S
C259 O262 1.238 . S
C259 O263 1.241 . S
C260 O253 1.247 . S
C260 O254 1.261 . S
C261 O256 1.259 . S
C261 O258 1.235 . S
O262 Co252 2.021 . S
O262 C259 1.238 . S
O263 Co257 2.052 . S
O263 C259 1.241 . S
O264 Co252 2.137 . S
O264 C255 1.247 . S
O265 Co252 2.244 . S
O265 C255 1.272 . S
O265 Co257 2.135 . S
Co266 O267 2.216 1_565 S
Co266 O268 2.091 . S
Co266 O270 2.004 . S
Co266 O276 2.021 . S
Co266 O278 2.137 1_565 S
Co266 O279 2.244 1_565 S
O267 Co266 2.216 1_545 S
O267 C274 1.247 1_545 S
O268 Co266 2.091 . S
O268 C274 1.261 . S
C269 O278 1.247 . S
C269 O279 1.272 . S
O270 Co266 2.004 . S
O270 C275 1.259 . S
Co271 O272 2.061 1_545 S
Co271 O277 2.052 . S
Co271 O279 2.135 . S
O272 Co271 2.061 1_565 S
O272 C275 1.235 . S
C273 O276 1.238 1_545 S
C273 O277 1.241 . S
C274 O267 1.247 1_565 S
C274 O268 1.261 . S
C275 O270 1.259 . S
C275 O272 1.235 . S
O276 Co266 2.021 . S
O276 C273 1.238 1_565 S
O277 Co271 2.052 . S
O277 C273 1.241 . S
O278 Co266 2.137 1_545 S
O278 C269 1.247 . S
O279 Co266 2.244 1_545 S
O279 C269 1.272 . S
O279 Co271 2.135 . S
Co280 O281 2.216 . S
Co280 O282 2.091 . S
Co280 O284 2.004 . S
Co280 O290 2.021 . S
Co280 O292 2.137 . S
Co280 O293 2.244 . S
O281 Co280 2.216 . S
O281 C288 1.247 . S
O282 Co280 2.091 . S
O282 C288 1.261 . S
C283 O292 1.247 . S
C283 O293 1.272 . S
O284 Co280 2.004 . S
O284 C289 1.259 . S
Co285 O286 2.061 . S
Co285 O291 2.052 . S
Co285 O293 2.135 . S
O286 Co285 2.061 . S
O286 C289 1.235 . S
C287 O290 1.238 . S
C287 O291 1.241 . S
C288 O281 1.247 . S
C288 O282 1.261 . S
C289 O284 1.259 . S
C289 O286 1.235 . S
O290 Co280 2.021 . S
O290 C287 1.238 . S
O291 Co285 2.052 . S
O291 C287 1.241 . S
O292 Co280 2.137 . S
O292 C283 1.247 . S
O293 Co280 2.244 . S
O293 C283 1.272 . S
O293 Co285 2.135 . S
Co294 O295 2.216 1_554 S
Co294 O296 2.091 . S
Co294 O298 2.004 . S
Co294 O304 2.021 . S
Co294 O306 2.137 1_554 S
Co294 O307 2.244 1_554 S
O295 Co294 2.216 1_556 S
O295 C302 1.247 1_556 S
O296 Co294 2.091 . S
O296 C302 1.261 . S
C297 O306 1.247 . S
C297 O307 1.272 . S
O298 Co294 2.004 . S
O298 C303 1.259 . S
Co299 O300 2.061 1_556 S
Co299 O305 2.052 . S
Co299 O307 2.135 . S
O300 Co299 2.061 1_554 S
O300 C303 1.235 . S
C301 O304 1.238 1_556 S
C301 O305 1.241 . S
C302 O295 1.247 1_554 S
C302 O296 1.261 . S
C303 O298 1.259 . S
C303 O300 1.235 . S
O304 Co294 2.021 . S
O304 C301 1.238 1_554 S
O305 Co299 2.052 . S
O305 C301 1.241 . S
O306 Co294 2.137 1_556 S
O306 C297 1.247 . S
O307 Co294 2.244 1_556 S
O307 C297 1.272 . S
O307 Co299 2.135 . S
Co308 O309 2.216 1_554 S
Co308 O310 2.091 . S
Co308 O312 2.004 . S
Co308 O318 2.021 . S
Co308 O320 2.137 1_554 S
Co308 O321 2.244 1_554 S
O309 Co308 2.216 1_556 S
O309 C316 1.247 1_556 S
O310 Co308 2.091 . S
O310 C316 1.261 . S
C311 O320 1.247 . S
C311 O321 1.272 . S
O312 Co308 2.004 . S
O312 C317 1.259 . S
Co313 O314 2.061 1_556 S
Co313 O319 2.052 . S
Co313 O321 2.135 . S
O314 Co313 2.061 1_554 S
O314 C317 1.235 . S
C315 O318 1.238 1_556 S
C315 O319 1.241 . S
C316 O309 1.247 1_554 S
C316 O310 1.261 . S
C317 O312 1.259 . S
C317 O314 1.235 . S
O318 Co308 2.021 . S
O318 C315 1.238 1_554 S
O319 Co313 2.052 . S
O319 C315 1.241 . S
O320 Co308 2.137 1_556 S
O320 C311 1.247 . S
O321 Co308 2.244 1_556 S
O321 C311 1.272 . S
O321 Co313 2.135 . S
Co322 O323 2.216 1_556 S
Co322 O324 2.091 . S
Co322 O326 2.004 . S
Co322 O332 2.021 . S
Co322 O334 2.137 1_556 S
Co322 O335 2.244 1_556 S
O323 Co322 2.216 1_554 S
O323 C330 1.247 1_554 S
O324 Co322 2.091 . S
O324 C330 1.261 . S
C325 O334 1.247 . S
C325 O335 1.272 . S
O326 Co322 2.004 . S
O326 C331 1.259 . S
Co327 O328 2.061 1_554 S
Co327 O333 2.052 . S
Co327 O335 2.135 . S
O328 Co327 2.061 1_556 S
O328 C331 1.235 . S
C329 O332 1.238 1_554 S
C329 O333 1.241 . S
C330 O323 1.247 1_556 S
C330 O324 1.261 . S
C331 O326 1.259 . S
C331 O328 1.235 . S
O332 Co322 2.021 . S
O332 C329 1.238 1_556 S
O333 Co327 2.052 . S
O333 C329 1.241 . S
O334 Co322 2.137 1_554 S
O334 C325 1.247 . S
O335 Co322 2.244 1_554 S
O335 C325 1.272 . S
O335 Co327 2.135 . S
C336 C337 1.369 . S
C336 C338 1.419 . S
C336 H340 0.930 . S
C337 C336 1.369 . S
C337 C346 1.429 . S
C338 C336 1.419 . S
C338 C339 1.363 . S
C338 H341 0.929 . S
C339 C338 1.363 . S
C339 C345 1.428 . S
H340 C336 0.930 . S
H341 C338 0.929 . S
S342 N343 1.620 . S
S342 N344 1.610 1_565 S
N343 S342 1.620 . S
N343 C346 1.336 1_565 S
N344 S342 1.610 1_545 S
N344 C345 1.351 . S
C345 C339 1.428 . S
C345 N344 1.351 . S
C345 C346 1.434 . S
C346 C337 1.429 . S
C346 N343 1.336 1_545 S
C346 C345 1.434 . S
C347 C348 1.369 . S
C347 C349 1.419 . S
C347 H351 0.930 . S
C348 C347 1.369 . S
C348 C357 1.429 . S
C349 C347 1.419 . S
C349 C350 1.363 . S
C349 H352 0.929 . S
C350 C349 1.363 . S
C350 C356 1.428 . S
H351 C347 0.930 . S
H352 C349 0.929 . S
S353 N354 1.613 . S
S353 N355 1.610 . S
N354 S353 1.613 . S
N354 C357 1.350 . S
N355 S353 1.610 . S
N355 C356 1.351 . S
C356 C350 1.428 . S
C356 N355 1.351 . S
C356 C357 1.434 . S
C357 C348 1.429 . S
C357 N354 1.350 . S
C357 C356 1.434 . S
C358 C359 1.369 . S
C358 C360 1.431 . S
C358 H362 0.930 . S
C359 C358 1.369 . S
C359 C368 1.429 . S
C360 C358 1.431 . S
C360 C361 1.361 1_554 S
C360 H363 0.918 1_554 S
C361 C360 1.361 1_556 S
C361 C367 1.428 1_556 S
H362 C358 0.930 . S
H363 C360 0.918 1_556 S
S364 N365 1.613 . S
S364 N366 1.610 . S
N365 S364 1.613 . S
N365 C368 1.350 . S
N366 S364 1.610 . S
N366 C367 1.351 . S
C367 C361 1.428 1_554 S
C367 N366 1.351 . S
C367 C368 1.434 . S
C368 C359 1.429 . S
C368 N365 1.350 . S
C368 C367 1.434 . S
C369 C370 1.369 . S
C369 C371 1.419 . S
C369 H373 0.930 . S
C370 C369 1.369 . S
C370 C379 1.429 . S
C371 C369 1.419 . S
C371 C372 1.363 1_554 S
C371 H374 0.934 . S
C372 C371 1.363 1_556 S
C372 C378 1.428 1_556 S
H373 C369 0.930 . S
H374 C371 0.934 . S
S375 N376 1.613 . S
S375 N377 1.610 1_554 S
N376 S375 1.613 . S
N376 C379 1.350 . S
N377 S375 1.610 1_556 S
N377 C378 1.351 1_556 S
C378 C372 1.428 1_554 S
C378 N377 1.351 1_554 S
C378 C379 1.434 . S
C379 C370 1.429 . S
C379 N376 1.350 . S
C379 C378 1.434 . S
C380 C381 1.369 . S
C380 C382 1.419 . S
C380 H384 0.930 . S
C381 C380 1.369 . S
C381 C390 1.429 . S
C382 C380 1.419 . S
C382 C383 1.363 . S
C382 H385 0.929 . S
C383 C382 1.363 . S
C383 C389 1.428 . S
H384 C380 0.930 . S
H385 C382 0.929 . S
S386 N387 1.613 . S
S386 N388 1.610 . S
N387 S386 1.613 . S
N387 C390 1.350 . S
N388 S386 1.610 . S
N388 C389 1.351 . S
C389 C383 1.428 . S
C389 N388 1.351 . S
C389 C390 1.434 . S
C390 C381 1.429 . S
C390 N387 1.350 . S
C390 C389 1.434 . S
C391 C392 1.369 . S
C391 C393 1.419 . S
C391 H395 0.930 . S
C392 C391 1.369 . S
C392 C401 1.429 . S
C393 C391 1.419 . S
C393 C394 1.363 . S
C393 H396 0.929 . S
C394 C393 1.363 . S
C394 C400 1.428 . S
H395 C391 0.930 . S
H396 C393 0.929 . S
S397 N398 1.613 . S
S397 N399 1.610 . S
N398 S397 1.613 . S
N398 C401 1.350 . S
N399 S397 1.610 . S
N399 C400 1.351 . S
C400 C394 1.428 . S
C400 N399 1.351 . S
C400 C401 1.434 . S
C401 C392 1.429 . S
C401 N398 1.350 . S
C401 C400 1.434 . S
C402 C403 1.369 . S
C402 C404 1.419 . S
C402 H406 0.930 . S
C403 C402 1.369 . S
C403 C412 1.429 . S
C404 C402 1.419 . S
C404 C405 1.363 . S
C404 H407 0.929 . S
C405 C404 1.363 . S
C405 C411 1.428 . S
H406 C402 0.930 . S
H407 C404 0.929 . S
S408 N409 1.613 1_545 S
S408 N410 1.610 1_545 S
N409 S408 1.613 1_565 S
N409 C412 1.350 . S
N410 S408 1.610 1_565 S
N410 C411 1.351 . S
C411 C405 1.428 . S
C411 N410 1.351 . S
C411 C412 1.434 . S
C412 C403 1.429 . S
C412 N409 1.350 . S
C412 C411 1.434 . S
C413 C414 1.369 . S
C413 C415 1.419 . S
C413 H417 0.930 . S
C414 C413 1.369 . S
C414 C423 1.429 . S
C415 C413 1.419 . S
C415 C416 1.363 . S
C415 H418 0.929 . S
C416 C415 1.363 . S
C416 C422 1.428 . S
H417 C413 0.930 . S
H418 C415 0.929 . S
S419 N420 1.613 . S
S419 N421 1.610 . S
N420 S419 1.613 . S
N420 C423 1.350 . S
N421 S419 1.610 . S
N421 C422 1.351 . S
C422 C416 1.428 . S
C422 N421 1.351 . S
C422 C423 1.434 . S
C423 C414 1.429 . S
C423 N420 1.350 . S
C423 C422 1.434 . S
C424 C425 1.369 . S
C424 C426 1.419 . S
C424 H428 0.930 . S
C425 C424 1.369 . S
C425 C434 1.429 . S
C426 C424 1.419 . S
C426 C427 1.363 . S
C426 H429 0.929 . S
C427 C426 1.363 . S
C427 C433 1.428 . S
H428 C424 0.930 . S
H429 C426 0.929 . S
S430 N431 1.613 1_556 S
S430 N432 1.610 1_556 S
N431 S430 1.613 1_554 S
N431 C434 1.350 . S
N432 S430 1.610 1_554 S
N432 C433 1.351 . S
C433 C427 1.428 . S
C433 N432 1.351 . S
C433 C434 1.434 . S
C434 C425 1.429 . S
C434 N431 1.350 . S
C434 C433 1.434 . S
C435 C436 1.369 . S
C435 C437 1.419 . S
C435 H439 0.930 . S
C436 C435 1.369 . S
C436 C445 1.429 . S
C437 C435 1.419 . S
C437 C438 1.363 . S
C437 H440 0.929 . S
C438 C437 1.363 . S
C438 C444 1.428 . S
H439 C435 0.930 . S
H440 C437 0.929 . S
S441 N442 1.618 . S
S441 N443 1.610 1_655 S
N442 S441 1.618 . S
N442 C445 1.340 1_655 S
N443 S441 1.610 1_455 S
N443 C444 1.351 . S
C444 C438 1.428 . S
C444 N443 1.351 . S
C444 C445 1.434 . S
C445 C436 1.429 . S
C445 N442 1.340 1_455 S
C445 C444 1.434 . S
C446 C447 1.369 . S
C446 C448 1.419 . S
C446 H450 0.930 . S
C447 C446 1.369 . S
C447 C456 1.429 . S
C448 C446 1.419 . S
C448 C449 1.363 1_565 S
C448 H451 0.929 . S
C449 C448 1.363 1_545 S
C449 C455 1.428 1_545 S
H450 C446 0.930 . S
H451 C448 0.929 . S
S452 N453 1.613 1_545 S
S452 N454 1.610 . S
N453 S452 1.613 1_565 S
N453 C456 1.350 . S
N454 S452 1.610 . S
N454 C455 1.351 1_545 S
C455 C449 1.428 1_565 S
C455 N454 1.351 1_565 S
C455 C456 1.434 . S
C456 C447 1.429 . S
C456 N453 1.350 . S
C456 C455 1.434 . S
C457 C458 1.369 . S
C457 C459 1.419 . S
C457 H461 0.930 . S
C458 C457 1.369 . S
C458 C467 1.429 . S
C459 C457 1.419 . S
C459 C460 1.363 . S
C459 H462 0.929 . S
C460 C459 1.363 . S
C460 C466 1.428 . S
H461 C457 0.930 . S
H462 C459 0.929 . S
S463 N464 1.613 . S
S463 N465 1.610 . S
N464 S463 1.613 . S
N464 C467 1.350 . S
N465 S463 1.610 . S
N465 C466 1.351 . S
C466 C460 1.428 . S
C466 N465 1.351 . S
C466 C467 1.434 . S
C467 C458 1.429 . S
C467 N464 1.350 . S
C467 C466 1.434 . S
C468 C469 1.369 . S
C468 C470 1.417 1_554 S
C468 H472 0.931 . S
C469 C468 1.369 . S
C469 C478 1.429 1_554 S
C470 C468 1.417 1_556 S
C470 C471 1.363 . S
C470 H473 0.929 . S
C471 C470 1.363 . S
C471 C477 1.428 . S
H472 C468 0.931 . S
H473 C470 0.929 . S
S474 N475 1.613 . S
S474 N476 1.610 . S
N475 S474 1.613 . S
N475 C478 1.350 . S
N476 S474 1.610 . S
N476 C477 1.351 . S
C477 C471 1.428 . S
C477 N476 1.351 . S
C477 C478 1.434 . S
C478 C469 1.429 1_556 S
C478 N475 1.350 . S
C478 C477 1.434 . S
C479 C480 1.369 1_556 S
C479 C481 1.419 . S
C479 H483 0.930 1_556 S
C480 C479 1.369 1_554 S
C480 C489 1.429 1_554 S
C481 C479 1.419 . S
C481 C482 1.363 . S
C481 H484 0.929 . S
C482 C481 1.363 . S
C482 C488 1.428 . S
H483 C479 0.930 1_554 S
H484 C481 0.929 . S
S485 N486 1.613 . S
S485 N487 1.610 . S
N486 S485 1.613 . S
N486 C489 1.350 . S
N487 S485 1.610 . S
N487 C488 1.351 . S
C488 C482 1.428 . S
C488 N487 1.351 . S
C488 C489 1.434 . S
C489 C480 1.429 1_556 S
C489 N486 1.350 . S
C489 C488 1.434 . S
C490 C491 1.369 . S
C490 C492 1.419 . S
C490 H494 0.930 . S
C491 C490 1.369 . S
C491 C500 1.429 . S
C492 C490 1.419 . S
C492 C493 1.363 . S
C492 H495 0.929 . S
C493 C492 1.363 . S
C493 C499 1.428 . S
H494 C490 0.930 . S
H495 C492 0.929 . S
S496 N497 1.613 . S
S496 N498 1.610 . S
N497 S496 1.613 . S
N497 C500 1.350 . S
N498 S496 1.610 . S
N498 C499 1.351 . S
C499 C493 1.428 . S
C499 N498 1.351 . S
C499 C500 1.434 . S
C500 C491 1.429 . S
C500 N497 1.350 . S
C500 C499 1.434 . S
C501 C502 1.369 . S
C501 C503 1.419 . S
C501 H505 0.930 . S
C502 C501 1.369 . S
C502 C511 1.429 . S
C503 C501 1.419 . S
C503 C504 1.363 . S
C503 H506 0.929 . S
C504 C503 1.363 . S
C504 C510 1.428 . S
H505 C501 0.930 . S
H506 C503 0.929 . S
S507 N508 1.613 . S
S507 N509 1.610 . S
N508 S507 1.613 . S
N508 C511 1.350 . S
N509 S507 1.610 . S
N509 C510 1.351 . S
C510 C504 1.428 . S
C510 N509 1.351 . S
C510 C511 1.434 . S
C511 C502 1.429 . S
C511 N508 1.350 . S
C511 C510 1.434 . S
C512 C513 1.369 1_655 S
C512 C514 1.419 . S
C512 H516 0.930 . S
C513 C512 1.369 1_455 S
C513 C522 1.429 . S
C514 C512 1.419 . S
C514 C515 1.363 . S
C514 H517 0.929 . S
C515 C514 1.363 . S
C515 C521 1.428 . S
H516 C512 0.930 . S
H517 C514 0.929 . S
S518 N519 1.613 . S
S518 N520 1.610 1_455 S
N519 S518 1.613 . S
N519 C522 1.350 . S
N520 S518 1.610 1_655 S
N520 C521 1.351 . S
C521 C515 1.428 . S
C521 N520 1.351 . S
C521 C522 1.434 1_655 S
C522 C513 1.429 . S
C522 N519 1.350 . S
C522 C521 1.434 1_455 S
C523 C524 1.369 . S
C523 C525 1.419 1_655 S
C523 H527 0.930 . S
C524 C523 1.369 . S
C524 C533 1.429 1_655 S
C525 C523 1.419 1_455 S
C525 C526 1.363 . S
C525 H528 0.929 . S
C526 C525 1.363 . S
C526 C532 1.428 . S
H527 C523 0.930 . S
H528 C525 0.929 . S
S529 N530 1.613 . S
S529 N531 1.610 . S
N530 S529 1.613 . S
N530 C533 1.350 . S
N531 S529 1.610 . S
N531 C532 1.351 . S
C532 C526 1.428 . S
C532 N531 1.351 . S
C532 C533 1.434 . S
C533 C524 1.429 1_455 S
C533 N530 1.350 . S
C533 C532 1.434 . S
C534 C535 1.369 1_655 S
C534 C536 1.419 . S
C534 H538 0.930 . S
C535 C534 1.369 1_455 S
C535 C544 1.429 1_455 S
C536 C534 1.419 . S
C536 C537 1.363 . S
C536 H539 0.929 . S
C537 C536 1.363 . S
C537 C543 1.428 . S
H538 C534 0.930 . S
H539 C536 0.929 . S
S540 N541 1.613 1_655 S
S540 N542 1.610 1_554 S
N541 S540 1.613 1_455 S
N541 C544 1.350 1_454 S
N542 S540 1.610 1_556 S
N542 C543 1.351 . S
C543 C537 1.428 . S
C543 N542 1.351 . S
C543 C544 1.434 . S
C544 C535 1.429 1_655 S
C544 N541 1.350 1_656 S
C544 C543 1.434 . S
C545 C546 1.369 . S
C545 C547 1.431 . S
C545 H549 0.930 . S
C546 C545 1.369 . S
C546 C555 1.429 . S
C547 C545 1.431 . S
C547 C548 1.361 1_455 S
C547 H550 0.918 1_455 S
C548 C547 1.361 1_655 S
C548 C554 1.428 1_655 S
H549 C545 0.930 . S
H550 C547 0.918 1_655 S
S551 N552 1.613 . S
S551 N553 1.610 . S
N552 S551 1.613 . S
N552 C555 1.350 . S
N553 S551 1.610 . S
N553 C554 1.351 . S
C554 C548 1.428 1_455 S
C554 N553 1.351 . S
C554 C555 1.434 . S
C555 C546 1.429 . S
C555 N552 1.350 . S
C555 C554 1.434 . S
C556 C557 1.369 1_565 S
C556 C558 1.419 . S
C556 H560 0.930 . S
C557 C556 1.369 1_545 S
C557 C566 1.429 1_545 S
C558 C556 1.419 . S
C558 C559 1.363 . S
C558 H561 0.929 . S
C559 C558 1.363 . S
C559 C565 1.428 . S
H560 C556 0.930 . S
H561 C558 0.929 . S
S562 N563 1.613 1_565 S
S562 N564 1.610 . S
N563 S562 1.613 1_545 S
N563 C566 1.350 1_545 S
N564 S562 1.610 . S
N564 C565 1.351 . S
C565 C559 1.428 . S
C565 N564 1.351 . S
C565 C566 1.434 . S
C566 C557 1.429 1_565 S
C566 N563 1.350 1_565 S
C566 C565 1.434 . S
C567 C568 1.369 . S
C567 C569 1.419 . S
C567 H571 0.930 . S
C568 C567 1.369 . S
C568 C577 1.429 . S
C569 C567 1.419 . S
C569 C570 1.363 1_545 S
C569 H572 0.929 . S
C570 C569 1.363 1_565 S
C570 C576 1.428 1_565 S
H571 C567 0.930 . S
H572 C569 0.929 . S
S573 N574 1.613 . S
S573 N575 1.610 1_545 S
N574 S573 1.613 . S
N574 C577 1.350 . S
N575 S573 1.610 1_565 S
N575 C576 1.351 1_565 S
C576 C570 1.428 1_545 S
C576 N575 1.351 1_545 S
C576 C577 1.434 . S
C577 C568 1.429 . S
C577 N574 1.350 . S
C577 C576 1.434 . S
C578 C579 1.369 . S
C578 C580 1.419 . S
C578 H582 0.930 . S
C579 C578 1.369 . S
C579 C588 1.429 . S
C580 C578 1.419 . S
C580 C581 1.363 . S
C580 H583 0.929 . S
C581 C580 1.363 . S
C581 C587 1.428 . S
H582 C578 0.930 . S
H583 C580 0.929 . S
S584 N585 1.613 . S
S584 N586 1.610 . S
N585 S584 1.613 . S
N585 C588 1.350 . S
N586 S584 1.610 . S
N586 C587 1.351 . S
C587 C581 1.428 . S
C587 N586 1.351 . S
C587 C588 1.434 . S
C588 C579 1.429 . S
C588 N585 1.350 . S
C588 C587 1.434 . S
C589 C590 1.369 . S
C589 C591 1.419 . S
C589 H593 0.930 . S
C590 C589 1.369 . S
C590 C599 1.429 . S
C591 C589 1.419 . S
C591 C592 1.363 1_545 S
C591 H594 0.929 . S
C592 C591 1.363 1_565 S
C592 C598 1.428 1_565 S
H593 C589 0.930 . S
H594 C591 0.929 . S
S595 N596 1.613 . S
S595 N597 1.610 1_545 S
N596 S595 1.613 . S
N596 C599 1.350 . S
N597 S595 1.610 1_565 S
N597 C598 1.351 1_565 S
C598 C592 1.428 1_545 S
C598 N597 1.351 1_545 S
C598 C599 1.434 . S
C599 C590 1.429 . S
C599 N596 1.350 . S
C599 C598 1.434 . S
C600 C601 1.369 1_455 S
C600 C602 1.419 . S
C600 H604 0.930 . S
C601 C600 1.369 1_655 S
C601 C610 1.429 . S
C602 C600 1.419 . S
C602 C603 1.363 . S
C602 H605 0.929 . S
C603 C602 1.363 . S
C603 C609 1.428 1_455 S
H604 C600 0.930 . S
H605 C602 0.929 . S
S606 N607 1.613 . S
S606 N608 1.610 . S
N607 S606 1.613 . S
N607 C610 1.350 . S
N608 S606 1.610 . S
N608 C609 1.351 . S
C609 C603 1.428 1_655 S
C609 N608 1.351 . S
C609 C610 1.434 . S
C610 C601 1.429 . S
C610 N607 1.350 . S
C610 C609 1.434 . S
C611 C612 1.369 . S
C611 C613 1.419 . S
C611 H615 0.930 . S
C612 C611 1.369 . S
C612 C621 1.429 1_455 S
C613 C611 1.419 . S
C613 C614 1.363 1_455 S
C613 H616 0.929 . S
C614 C613 1.363 1_655 S
C614 C620 1.428 . S
H615 C611 0.930 . S
H616 C613 0.929 . S
S617 N618 1.613 . S
S617 N619 1.610 . S
N618 S617 1.613 . S
N618 C621 1.350 . S
N619 S617 1.610 . S
N619 C620 1.351 . S
C620 C614 1.428 . S
C620 N619 1.351 . S
C620 C621 1.434 . S
C621 C612 1.429 1_655 S
C621 N618 1.350 . S
C621 C620 1.434 . S
C622 C623 1.369 . S
C622 C624 1.419 . S
C622 H626 0.930 . S
C623 C622 1.369 . S
C623 C632 1.429 1_565 S
C624 C622 1.419 . S
C624 C625 1.363 1_565 S
C624 H627 0.929 . S
C625 C624 1.363 1_545 S
C625 C631 1.428 . S
H626 C622 0.930 . S
H627 C624 0.929 . S
S628 N629 1.613 . S
S628 N630 1.610 . S
N629 S628 1.613 . S
N629 C632 1.350 . S
N630 S628 1.610 . S
N630 C631 1.351 . S
C631 C625 1.428 . S
C631 N630 1.351 . S
C631 C632 1.434 . S
C632 C623 1.429 1_545 S
C632 N629 1.350 . S
C632 C631 1.434 . S
C633 C634 1.369 . S
C633 C635 1.419 . S
C633 H637 0.930 . S
C634 C633 1.369 . S
C634 C643 1.429 . S
C635 C633 1.419 . S
C635 C636 1.363 . S
C635 H638 0.929 . S
C636 C635 1.363 . S
C636 C642 1.428 . S
H637 C633 0.930 . S
H638 C635 0.929 . S
S639 N640 1.613 . S
S639 N641 1.610 . S
N640 S639 1.613 . S
N640 C643 1.350 . S
N641 S639 1.610 . S
N641 C642 1.351 . S
C642 C636 1.428 . S
C642 N641 1.351 . S
C642 C643 1.434 . S
C643 C634 1.429 . S
C643 N640 1.350 . S
C643 C642 1.434 . S
C644 C645 1.369 . S
C644 C646 1.419 . S
C644 H648 0.930 . S
C645 C644 1.369 . S
C645 C654 1.429 1_554 S
C646 C644 1.419 . S
C646 C647 1.363 1_554 S
C646 H649 0.929 . S
C647 C646 1.363 1_556 S
C647 C653 1.428 . S
H648 C644 0.930 . S
H649 C646 0.929 . S
S650 N651 1.613 . S
S650 N652 1.610 . S
N651 S650 1.613 . S
N651 C654 1.350 . S
N652 S650 1.610 . S
N652 C653 1.351 . S
C653 C647 1.428 . S
C653 N652 1.351 . S
C653 C654 1.434 . S
C654 C645 1.429 1_556 S
C654 N651 1.350 . S
C654 C653 1.434 . S
C655 C656 1.369 . S
C655 C657 1.419 . S
C655 H659 0.930 . S
C656 C655 1.369 . S
C656 C665 1.429 . S
C657 C655 1.419 . S
C657 C658 1.363 . S
C657 H660 0.929 . S
C658 C657 1.363 . S
C658 C664 1.428 . S
H659 C655 0.930 . S
H660 C657 0.929 . S
S661 N662 1.613 . S
S661 N663 1.610 . S
N662 S661 1.613 . S
N662 C665 1.350 . S
N663 S661 1.610 . S
N663 C664 1.351 . S
C664 C658 1.428 . S
C664 N663 1.351 . S
C664 C665 1.434 . S
C665 C656 1.429 . S
C665 N662 1.350 . S
C665 C664 1.434 . S
C666 C667 1.369 . S
C666 C668 1.419 . S
C666 H670 0.930 . S
C667 C666 1.369 . S
C667 C676 1.429 . S
C668 C666 1.419 . S
C668 C669 1.363 . S
C668 H671 0.929 . S
C669 C668 1.363 . S
C669 C675 1.428 . S
H670 C666 0.930 . S
H671 C668 0.929 . S
S672 N673 1.613 . S
S672 N674 1.610 . S
N673 S672 1.613 . S
N673 C676 1.350 . S
N674 S672 1.610 . S
N674 C675 1.351 . S
C675 C669 1.428 . S
C675 N674 1.351 . S
C675 C676 1.434 . S
C676 C667 1.429 . S
C676 N673 1.350 . S
C676 C675 1.434 . S
C677 C678 1.369 . S
C677 C679 1.419 . S
C677 H681 0.930 . S
C678 C677 1.369 . S
C678 C687 1.429 . S
C679 C677 1.419 . S
C679 C680 1.363 . S
C679 H682 0.929 . S
C680 C679 1.363 . S
C680 C686 1.428 . S
H681 C677 0.930 . S
H682 C679 0.929 . S
S683 N684 1.613 . S
S683 N685 1.610 . S
N684 S683 1.613 . S
N684 C687 1.350 . S
N685 S683 1.610 . S
N685 C686 1.351 . S
C686 C680 1.428 . S
C686 N685 1.351 . S
C686 C687 1.434 . S
C687 C678 1.429 . S
C687 N684 1.350 . S
C687 C686 1.434 . S
C688 C689 1.369 . S
C688 C690 1.419 . S
C688 H692 0.930 . S
C689 C688 1.369 . S
C689 C698 1.429 . S
C690 C688 1.419 . S
C690 C691 1.363 . S
C690 H693 0.929 . S
C691 C690 1.363 . S
C691 C697 1.428 . S
H692 C688 0.930 . S
H693 C690 0.929 . S
S694 N695 1.613 . S
S694 N696 1.610 . S
N695 S694 1.613 . S
N695 C698 1.350 . S
N696 S694 1.610 . S
N696 C697 1.351 . S
C697 C691 1.428 . S
C697 N696 1.351 . S
C697 C698 1.434 . S
C698 C689 1.429 . S
C698 N695 1.350 . S
C698 C697 1.434 . S
C699 C700 1.369 . S
C699 C701 1.419 . S
C699 H703 0.930 . S
C700 C699 1.369 . S
C700 C709 1.429 . S
C701 C699 1.419 . S
C701 C702 1.363 . S
C701 H704 0.929 . S
C702 C701 1.363 . S
C702 C708 1.428 . S
H703 C699 0.930 . S
H704 C701 0.929 . S
S705 N706 1.613 . S
S705 N707 1.610 . S
N706 S705 1.613 . S
N706 C709 1.350 . S
N707 S705 1.610 . S
N707 C708 1.351 . S
C708 C702 1.428 . S
C708 N707 1.351 . S
C708 C709 1.434 . S
C709 C700 1.429 . S
C709 N706 1.350 . S
C709 C708 1.434 . S
C710 C711 1.369 1_565 S
C710 C712 1.419 . S
C710 H714 0.930 . S
C711 C710 1.369 1_545 S
C711 C720 1.429 . S
C712 C710 1.419 . S
C712 C713 1.363 . S
C712 H715 0.929 . S
C713 C712 1.363 . S
C713 C719 1.428 1_565 S
H714 C710 0.930 . S
H715 C712 0.929 . S
S716 N717 1.613 . S
S716 N718 1.610 . S
N717 S716 1.613 . S
N717 C720 1.350 . S
N718 S716 1.610 . S
N718 C719 1.351 . S
C719 C713 1.428 1_545 S
C719 N718 1.351 . S
C719 C720 1.434 . S
C720 C711 1.429 . S
C720 N717 1.350 . S
C720 C719 1.434 . S
C721 C722 1.369 1_554 S
C721 C723 1.419 . S
C721 H725 0.930 . S
C722 C721 1.369 1_556 S
C722 C731 1.429 . S
C723 C721 1.419 . S
C723 C724 1.363 . S
C723 H726 0.929 . S
C724 C723 1.363 . S
C724 C730 1.428 1_554 S
H725 C721 0.930 . S
H726 C723 0.929 . S
S727 N728 1.613 . S
S727 N729 1.610 . S
N728 S727 1.613 . S
N728 C731 1.350 . S
N729 S727 1.610 . S
N729 C730 1.351 . S
C730 C724 1.428 1_556 S
C730 N729 1.351 . S
C730 C731 1.434 . S
C731 C722 1.429 . S
C731 N728 1.350 . S
C731 C730 1.434 . S
C732 C733 1.369 . S
C732 C734 1.419 . S
C732 H736 0.930 . S
C733 C732 1.369 . S
C733 C742 1.429 1_455 S
C734 C732 1.419 . S
C734 C735 1.363 1_565 S
C734 H737 0.929 . S
C735 C734 1.363 1_545 S
C735 C741 1.428 1_455 S
H736 C732 0.930 . S
H737 C734 0.929 . S
S738 N739 1.613 . S
S738 N740 1.610 . S
N739 S738 1.613 . S
N739 C742 1.350 1_545 S
N740 S738 1.610 . S
N740 C741 1.351 . S
C741 C735 1.428 1_655 S
C741 N740 1.351 . S
C741 C742 1.434 1_545 S
C742 C733 1.429 1_655 S
C742 N739 1.350 1_565 S
C742 C741 1.434 1_565 S
C743 C744 1.369 . S
C743 C745 1.419 . S
C743 H747 0.930 . S
C744 C743 1.369 . S
C744 C753 1.429 1_655 S
C745 C743 1.419 . S
C745 C746 1.363 . S
C745 H748 0.929 . S
C746 C745 1.363 . S
C746 C752 1.428 1_655 S
H747 C743 0.930 . S
H748 C745 0.929 . S
S749 N750 1.613 . S
S749 N751 1.610 . S
N750 S749 1.613 . S
N750 C753 1.350 . S
N751 S749 1.610 . S
N751 C752 1.351 . S
C752 C746 1.428 1_455 S
C752 N751 1.351 . S
C752 C753 1.434 . S
C753 C744 1.429 1_455 S
C753 N750 1.350 . S
C753 C752 1.434 . S
C754 C755 1.369 . S
C754 C756 1.419 1_556 S
C754 H758 0.930 . S
C755 C754 1.369 . S
C755 C764 1.429 1_545 S
C756 C754 1.419 1_554 S
C756 C757 1.366 . S
C756 H759 0.929 . S
C757 C756 1.366 . S
C757 C763 1.427 1_544 S
H758 C754 0.930 . S
H759 C756 0.929 . S
S760 N761 1.613 . S
S760 N762 1.610 . S
N761 S760 1.613 . S
N761 C764 1.350 . S
N762 S760 1.610 . S
N762 C763 1.351 . S
C763 C757 1.427 1_566 S
C763 N762 1.351 . S
C763 C764 1.434 . S
C764 C755 1.429 1_565 S
C764 N761 1.350 . S
C764 C763 1.434 . S
C765 C766 1.360 1_556 S
C765 C767 1.428 . S
C765 H769 0.930 . S
C766 C765 1.360 1_554 S
C766 C775 1.429 . S
C767 C765 1.428 . S
C767 C768 1.363 . S
C767 H770 0.929 . S
C768 C767 1.363 . S
C768 C774 1.428 . S
H769 C765 0.930 . S
H770 C767 0.929 . S
S771 N772 1.613 . S
S771 N773 1.610 . S
N772 S771 1.613 . S
N772 C775 1.350 . S
N773 S771 1.610 . S
N773 C774 1.351 1_554 S
C774 C768 1.428 . S
C774 N773 1.351 1_556 S
C774 C775 1.434 1_556 S
C775 C766 1.429 . S
C775 N772 1.350 . S
C775 C774 1.434 1_554 S
C776 C777 1.369 . S
C776 C778 1.419 . S
C776 H780 0.930 . S
C777 C776 1.369 . S
C777 C786 1.429 1_565 S
C778 C776 1.419 . S
C778 C779 1.363 . S
C778 H781 0.929 . S
C779 C778 1.363 . S
C779 C785 1.428 1_565 S
H780 C776 0.930 . S
H781 C778 0.929 . S
S782 N783 1.613 . S
S782 N784 1.610 . S
N783 S782 1.613 . S
N783 C786 1.350 . S
N784 S782 1.610 . S
N784 C785 1.351 . S
C785 C779 1.428 1_545 S
C785 N784 1.351 . S
C785 C786 1.434 . S
C786 C777 1.429 1_545 S
C786 N783 1.350 . S
C786 C785 1.434 . S
C787 C788 1.369 . S
C787 C789 1.419 . S
C787 H791 0.930 . S
C788 C787 1.369 . S
C788 C797 1.429 . S
C789 C787 1.419 . S
C789 C790 1.363 . S
C789 H792 0.929 . S
C790 C789 1.363 . S
C790 C796 1.428 . S
H791 C787 0.930 . S
H792 C789 0.929 . S
S793 N794 1.613 . S
S793 N795 1.610 . S
N794 S793 1.613 . S
N794 C797 1.350 . S
N795 S793 1.610 . S
N795 C796 1.351 . S
C796 C790 1.428 . S
C796 N795 1.351 . S
C796 C797 1.434 . S
C797 C788 1.429 . S
C797 N794 1.350 . S
C797 C796 1.434 . S
C798 C799 1.369 1_556 S
C798 C800 1.419 1_455 S
C798 H802 0.930 . S
C799 C798 1.369 1_554 S
C799 C808 1.422 1_455 S
C800 C798 1.419 1_655 S
C800 C801 1.363 1_556 S
C800 H803 0.929 . S
C801 C800 1.363 1_554 S
C801 C807 1.428 . S
H802 C798 0.930 . S
H803 C800 0.929 . S
S804 N805 1.613 . S
S804 N806 1.610 . S
N805 S804 1.613 . S
N805 C808 1.350 . S
N806 S804 1.610 . S
N806 C807 1.351 . S
C807 C801 1.428 . S
C807 N806 1.351 . S
C807 C808 1.441 . S
C808 C799 1.422 1_655 S
C808 N805 1.350 . S
C808 C807 1.441 . S
C809 C810 1.369 . S
C809 C811 1.419 1_455 S
C809 H813 0.930 . S
C810 C809 1.369 . S
C810 C819 1.429 . S
C811 C809 1.419 1_655 S
C811 C812 1.363 . S
C811 H814 0.929 . S
C812 C811 1.363 . S
C812 C818 1.428 . S
H813 C809 0.930 . S
H814 C811 0.929 . S
S815 N816 1.613 . S
S815 N817 1.610 1_455 S
N816 S815 1.613 . S
N816 C819 1.350 . S
N817 S815 1.610 1_655 S
N817 C818 1.351 . S
C818 C812 1.428 . S
C818 N817 1.351 . S
C818 C819 1.434 1_655 S
C819 C810 1.429 . S
C819 N816 1.350 . S
C819 C818 1.434 1_455 S
C820 C821 1.369 . S
C820 C822 1.419 . S
C820 H824 0.930 . S
C821 C820 1.369 . S
C821 C830 1.429 . S
C822 C820 1.419 . S
C822 C823 1.363 . S
C822 H825 0.929 . S
C823 C822 1.363 . S
C823 C829 1.428 . S
H824 C820 0.930 . S
H825 C822 0.929 . S
S826 N827 1.613 . S
S826 N828 1.610 . S
N827 S826 1.613 . S
N827 C830 1.350 . S
N828 S826 1.610 . S
N828 C829 1.351 . S
C829 C823 1.428 . S
C829 N828 1.351 . S
C829 C830 1.434 . S
C830 C821 1.429 . S
C830 N827 1.350 . S
C830 C829 1.434 . S
C831 C832 1.369 . S
C831 C833 1.419 . S
C831 H835 0.930 . S
C832 C831 1.369 . S
C832 C841 1.429 . S
C833 C831 1.419 . S
C833 C834 1.363 . S
C833 H836 0.929 . S
C834 C833 1.363 . S
C834 C840 1.428 . S
H835 C831 0.930 . S
H836 C833 0.929 . S
S837 N838 1.613 . S
S837 N839 1.610 . S
N838 S837 1.613 . S
N838 C841 1.350 . S
N839 S837 1.610 . S
N839 C840 1.351 . S
C840 C834 1.428 . S
C840 N839 1.351 . S
C840 C841 1.434 . S
C841 C832 1.429 . S
C841 N838 1.350 . S
C841 C840 1.434 . S
C842 C843 1.369 . S
C842 C844 1.419 1_565 S
C842 H846 0.930 . S
C843 C842 1.369 . S
C843 C852 1.429 . S
C844 C842 1.419 1_545 S
C844 C845 1.363 . S
C844 H847 0.929 . S
C845 C844 1.363 . S
C845 C851 1.428 . S
H846 C842 0.930 . S
H847 C844 0.929 . S
S848 N849 1.613 1_545 S
S848 N850 1.610 . S
N849 S848 1.613 1_565 S
N849 C852 1.350 . S
N850 S848 1.610 . S
N850 C851 1.351 . S
C851 C845 1.428 . S
C851 N850 1.351 . S
C851 C852 1.434 1_545 S
C852 C843 1.429 . S
C852 N849 1.350 . S
C852 C851 1.434 1_565 S
C853 C854 1.369 1_554 S
C853 C855 1.419 . S
C853 H857 0.930 . S
C854 C853 1.369 1_556 S
C854 C863 1.429 . S
C855 C853 1.419 . S
C855 C856 1.363 1_554 S
C855 H858 0.929 . S
C856 C855 1.363 1_556 S
C856 C862 1.428 . S
H857 C853 0.930 . S
H858 C855 0.929 . S
S859 N860 1.613 . S
S859 N861 1.610 . S
N860 S859 1.613 . S
N860 C863 1.350 . S
N861 S859 1.610 . S
N861 C862 1.351 . S
C862 C856 1.428 . S
C862 N861 1.351 . S
C862 C863 1.434 . S
C863 C854 1.429 . S
C863 N860 1.350 . S
C863 C862 1.434 . S
C337 C247 0.853 . S
C339 C3 0.883 . S
C348 C17 0.998 . S
C350 C233 0.896 . S
C359 C31 1.008 . S
C361 C275 0.963 . S
C370 C45 1.116 . S
C372 C261 0.988 . S
C381 C59 0.881 . S
C383 C303 0.870 . S
C392 C73 0.988 . S
C394 C317 0.948 . S
C403 C289 0.904 . S
C405 C87 0.990 . S
C414 C163 0.960 . S
C416 C101 1.086 . S
C425 C115 0.876 . S
C427 C51 0.868 . S
C436 C23 0.936 . S
C438 C129 0.987 . S
C447 C143 1.107 . S
C449 C9 1.055 . S
C458 C157 1.091 . S
C460 C205 0.965 . S
C469 C79 1.079 . S
C471 C171 1.208 . S
C480 C65 1.060 . S
C482 C185 1.114 . S
C491 C199 1.090 . S
C493 C107 0.962 . S
C502 C213 0.986 . S
C504 C93 0.951 . S
C513 C135 1.065 . S
C515 C227 1.207 . S
C524 C149 1.001 . S
C526 C241 1.117 . S
C535 C121 1.045 . S
C537 C255 1.112 . S
C546 C269 1.008 . S
C548 C331 0.963 . S
C557 C219 1.077 . S
C559 C283 1.205 . S
C568 C297 1.115 . S
C570 C191 0.989 . S
C579 C177 0.920 . S
C581 C311 0.993 . S
C590 C325 0.999 . S
C592 C37 0.969 . S
C601 C8 1.725 . S
C603 C22 1.707 . S
C612 C50 1.642 . S
C614 C36 1.660 . S
C623 C64 1.723 . S
C625 C92 1.708 . S
C634 C78 1.916 . S
C636 C106 1.899 . S
C645 C316 1.703 . S
C647 C120 1.723 . S
C656 C134 1.923 . S
C658 C162 1.896 . S
C667 C288 1.848 . S
C669 C148 1.874 . S
C678 C190 1.876 . S
C680 C176 1.852 . S
C689 C204 1.901 . S
C691 C218 1.918 . S
C700 C260 1.870 . S
C702 C232 1.855 . S
C711 C246 1.643 . S
C713 C274 1.657 . S
C722 C330 1.661 . S
C724 C302 1.643 . S
C733 C35 1.248 . S
C735 C7 1.266 . S
C744 C21 1.411 . S
C746 C49 1.421 . S
C755 C273 1.266 . S
C757 C63 1.256 . S
C766 C77 1.376 . S
C768 C259 1.361 . S
C777 C91 1.415 . S
C779 C245 1.418 . S
C788 C231 1.530 . S
C790 C105 1.526 . S
C799 C119 1.253 . S
C801 C329 1.261 . S
C810 C133 1.370 . S
C812 C147 1.367 . S
C821 C287 1.523 . S
C823 C161 1.532 . S
C832 C175 1.533 . S
C834 C203 1.523 . S
C843 C189 1.366 . S
C845 C217 1.368 . S
C854 C315 1.412 . S
C856 C301 1.419 . S
