# Generated by pormake.
# Topology rac, (4)-cn, num edge types: 1
# Building blocks:
#     Node 0, Type 0, BuildingBlock: ICAMEG_clean_sbu_1, # of connection points: 4
#     Node 1, Type 0, BuildingBlock: ICAMEG_clean_sbu_1, # of connection points: 4
#     Node 2, Type 0, BuildingBlock: ICAMEG_clean_sbu_1, # of connection points: 4
#     Node 3, Type 0, BuildingBlock: ICAMEG_clean_sbu_1, # of connection points: 4
#     Node 4, Type 0, BuildingBlock: ICAMEG_clean_sbu_1, # of connection points: 4
#     Node 5, Type 0, BuildingBlock: ICAMEG_clean_sbu_1, # of connection points: 4
#     Node 6, Type 0, BuildingBlock: ICAMEG_clean_sbu_1, # of connection points: 4
#     Node 7, Type 0, BuildingBlock: ICAMEG_clean_sbu_1, # of connection points: 4
#     Edge 8, Type (0, 0), BuildingBlock: XUDNAN_clean_linker_2, # of connection points: 2
#     Edge 9, Type (0, 0), BuildingBlock: XUDNAN_clean_linker_2, # of connection points: 2
#     Edge 10, Type (0, 0), BuildingBlock: XUDNAN_clean_linker_2, # of connection points: 2
#     Edge 11, Type (0, 0), BuildingBlock: XUDNAN_clean_linker_2, # of connection points: 2
#     Edge 12, Type (0, 0), BuildingBlock: XUDNAN_clean_linker_2, # of connection points: 2
#     Edge 13, Type (0, 0), BuildingBlock: XUDNAN_clean_linker_2, # of connection points: 2
#     Edge 14, Type (0, 0), BuildingBlock: XUDNAN_clean_linker_2, # of connection points: 2
#     Edge 15, Type (0, 0), BuildingBlock: XUDNAN_clean_linker_2, # of connection points: 2
#     Edge 16, Type (0, 0), BuildingBlock: XUDNAN_clean_linker_2, # of connection points: 2
#     Edge 17, Type (0, 0), BuildingBlock: XUDNAN_clean_linker_2, # of connection points: 2
#     Edge 18, Type (0, 0), BuildingBlock: XUDNAN_clean_linker_2, # of connection points: 2
#     Edge 19, Type (0, 0), BuildingBlock: XUDNAN_clean_linker_2, # of connection points: 2
#     Edge 20, Type (0, 0), BuildingBlock: XUDNAN_clean_linker_2, # of connection points: 2
#     Edge 21, Type (0, 0), BuildingBlock: XUDNAN_clean_linker_2, # of connection points: 2
#     Edge 22, Type (0, 0), BuildingBlock: XUDNAN_clean_linker_2, # of connection points: 2
#     Edge 23, Type (0, 0), BuildingBlock: XUDNAN_clean_linker_2, # of connection points: 2
# Relax obj value: 0.286
# Max RMSD: 0.139
# Mean RMSD: 0.139
data_MOF--net-rac--node1-ICAMEG_clean_sbu_1--edge1-XUDNAN_clean_linker_2
_symmetry_space_group_name_H-M    P1
_symmetry_Int_Tables_number       1
_symmetry_cell_setting            triclinic
loop_
_symmetry_equiv_pos_as_xyz
'x, y, z'
_cell_length_a     45.290043
_cell_length_b     20.331919
_cell_length_c     41.721187
_cell_angle_alpha  89.968258
_cell_angle_beta   89.929409
_cell_angle_gamma 89.935525
loop_
_atom_site_label
_atom_site_type_symbol
_atom_site_fract_x
_atom_site_fract_y
_atom_site_fract_z
_atom_type_partial_charge
Co0 Co 0.33972 0.32657 0.07151 0.0
Co1 Co 0.38672 0.27372 0.01341 0.0
O2 O 0.37991 0.31203 0.05581 0.0
C3 C 0.36864 0.26218 0.127 0.0
O4 O 0.37904 0.21735 0.10735 0.0
C5 C 0.42812 0.38853 0.01346 0.0
O6 O 0.40611 0.42661 0.02224 0.0
O7 O 0.36345 0.34611 0.99349 0.0
O8 O 0.32492 0.34478 0.02724 0.0
H9 H 0.35718 0.19933 0.90321 0.0
H10 H 0.38921 0.40139 0.10026 0.0
O11 O 0.35312 0.30951 0.11632 0.0
H12 H 0.31997 0.5692 0.05957 0.0
H13 H 0.2637 0.4092 0.15002 0.0
H14 H 0.27998 0.28645 0.04962 0.0
H15 H 0.30897 0.45118 0.0535 0.0
H16 H 0.31398 0.39476 0.12839 0.0
O17 O 0.42388 0.32715 0.00908 0.0
H18 H 0.34886 0.24504 0.95722 0.0
H19 H 0.44009 0.22534 0.97864 0.0
H20 H 0.22933 0.30026 0.07028 0.0
H21 H 0.40105 0.51909 0.10699 0.0
H22 H 0.22097 0.36147 0.12099 0.0
H23 H 0.36625 0.60386 0.0866 0.0
O24 O 0.33078 0.23179 0.06575 0.0
H25 H 0.46299 0.18076 0.08815 0.0
H26 H 0.387 0.12725 0.00775 0.0
H27 H 0.41481 0.03756 0.0337 0.0
H28 H 0.45318 0.06409 0.07415 0.0
H29 H 0.43442 0.26893 0.06186 0.0
H30 H 0.44946 0.17997 0.92476 0.0
H31 H 0.4078 0.16645 0.88667 0.0
O32 O 0.34985 0.21789 0.01665 0.0
C33 C 0.33693 0.36085 0.00071 0.0
C34 C 0.3755 0.20479 0.91962 0.0
C35 C 0.4273 0.19401 0.9317 0.0
N36 N 0.39391 0.23737 0.97114 0.0
C37 C 0.37091 0.23048 0.95027 0.0
C38 C 0.42187 0.21988 0.96215 0.0
C39 C 0.40391 0.18642 0.91035 0.0
C40 C 0.37394 0.43806 0.09145 0.0
N41 N 0.34842 0.41943 0.07663 0.0
C42 C 0.38077 0.50459 0.09525 0.0
C43 C 0.36126 0.55214 0.08376 0.0
C44 C 0.33531 0.53274 0.06858 0.0
C45 C 0.32924 0.46579 0.06514 0.0
C46 C 0.26708 0.3822 0.12797 0.0
C47 C 0.27653 0.31362 0.07156 0.0
C48 C 0.29551 0.37371 0.11563 0.0
N49 N 0.29995 0.3398 0.08775 0.0
C50 C 0.24779 0.32109 0.0832 0.0
C51 C 0.24311 0.35544 0.11165 0.0
C52 C 0.33277 0.20006 0.03952 0.0
C53 C 0.44639 0.16858 0.0705 0.0
C54 C 0.40356 0.13921 0.02545 0.0
C55 C 0.4193 0.0882 0.03999 0.0
C56 C 0.44084 0.10313 0.06267 0.0
N57 N 0.40916 0.2033 0.03323 0.0
C58 C 0.43023 0.21831 0.05545 0.0
Co59 Co 0.19211 0.69951 0.07957 0.0
Co60 Co 0.14098 0.74416 0.02261 0.0
O61 O 0.15157 0.70978 0.0648 0.0
C62 C 0.16471 0.77503 0.13244 0.0
O63 O 0.15576 0.81817 0.11111 0.0
C64 C 0.11104 0.61586 0.02651 0.0
O65 O 0.13689 0.5928 0.03522 0.0
O66 O 0.16832 0.68177 0.00074 0.0
O67 O 0.20572 0.67364 0.03592 0.0
H68 H 0.16054 0.82965 0.91158 0.0
H69 H 0.14392 0.63101 0.11421 0.0
O70 O 0.17949 0.72481 0.12379 0.0
H71 H 0.2107 0.45534 0.07702 0.0
H72 H 0.27058 0.62695 0.1574 0.0
H73 H 0.25105 0.73573 0.05388 0.0
H74 H 0.22185 0.57152 0.06534 0.0
H75 H 0.2195 0.64246 0.13836 0.0
O76 O 0.10827 0.67689 0.01992 0.0
H77 H 0.17416 0.78711 0.96496 0.0
H78 H 0.08362 0.7717 0.99043 0.0
H79 H 0.30247 0.7207 0.0719 0.0
H80 H 0.13205 0.51533 0.12643 0.0
H81 H 0.31251 0.66562 0.12391 0.0
H82 H 0.16559 0.4265 0.1077 0.0
O83 O 0.20082 0.79291 0.06915 0.0
H84 H 0.06173 0.80888 0.1009 0.0
H85 H 0.13047 0.88857 0.01779 0.0
H86 H 0.09771 0.96749 0.04528 0.0
H87 H 0.06297 0.92771 0.08712 0.0
H88 H 0.09506 0.73174 0.07298 0.0
H89 H 0.06899 0.8134 0.9372 0.0
H90 H 0.10761 0.84299 0.89742 0.0
O91 O 0.17373 0.81134 0.02475 0.0
C92 C 0.19446 0.66482 0.00833 0.0
C93 C 0.14351 0.81718 0.92876 0.0
C94 C 0.09212 0.80797 0.94312 0.0
N95 N 0.12971 0.77764 0.98087 0.0
C96 C 0.15109 0.79333 0.95905 0.0
C97 C 0.10054 0.78427 0.97319 0.0
C98 C 0.11381 0.82458 0.92081 0.0
C99 C 0.15876 0.59268 0.10622 0.0
N100 N 0.18364 0.60809 0.08925 0.0
C101 C 0.15185 0.52725 0.1131 0.0
C102 C 0.17063 0.47744 0.10253 0.0
C103 C 0.19595 0.49356 0.08525 0.0
C104 C 0.20211 0.55948 0.07869 0.0
C105 C 0.2665 0.65087 0.13465 0.0
C106 C 0.25523 0.71168 0.07654 0.0
C107 C 0.23761 0.65998 0.12379 0.0
N108 N 0.2323 0.68946 0.0949 0.0
C109 C 0.2844 0.70342 0.08664 0.0
C110 C 0.29001 0.67258 0.11585 0.0
C111 C 0.19395 0.82752 0.04472 0.0
C112 C 0.0767 0.82678 0.08264 0.0
C113 C 0.11548 0.87093 0.03603 0.0
C114 C 0.09694 0.91582 0.05147 0.0
C115 C 0.07744 0.89346 0.07493 0.0
N116 N 0.11455 0.80558 0.04366 0.0
C117 C 0.09554 0.7833 0.06668 0.0
Co118 Co 0.33656 0.19139 0.42287 0.0
Co119 Co 0.3843 0.23007 0.48358 0.0
O120 O 0.37618 0.19775 0.44051 0.0
C121 C 0.34518 0.2561 0.35989 0.0
O122 O 0.32347 0.29611 0.36747 0.0
C123 C 0.41368 0.10108 0.48047 0.0
O124 O 0.38787 0.07954 0.47086 0.0
O125 O 0.35555 0.16702 0.50234 0.0
O126 O 0.3192 0.16921 0.46568 0.0
H127 H 0.35819 0.30953 0.59407 0.0
H128 H 0.38532 0.11451 0.39358 0.0
O129 O 0.35373 0.21257 0.3798 0.0
H130 H 0.3107 0.95046 0.42504 0.0
H131 H 0.26106 0.12225 0.34083 0.0
H132 H 0.27743 0.23897 0.44284 0.0
H133 H 0.30232 0.0683 0.43545 0.0
H134 H 0.31118 0.13186 0.36343 0.0
O135 O 0.41672 0.16184 0.48752 0.0
H136 H 0.34777 0.27048 0.53926 0.0
H137 H 0.43961 0.25433 0.52019 0.0
H138 H 0.22695 0.23029 0.42116 0.0
H139 H 0.39469 0.99696 0.38322 0.0
H140 H 0.21849 0.17129 0.36988 0.0
H141 H 0.35722 0.91399 0.39906 0.0
O142 O 0.33003 0.2862 0.43186 0.0
H143 H 0.46858 0.29787 0.41247 0.0
H144 H 0.39479 0.37385 0.49124 0.0
H145 H 0.42964 0.45363 0.46771 0.0
H146 H 0.46694 0.41569 0.42811 0.0
H147 H 0.43313 0.21988 0.4364 0.0
H148 H 0.45106 0.29258 0.57491 0.0
H149 H 0.41016 0.32077 0.6122 0.0
O150 O 0.35168 0.29805 0.48004 0.0
C151 C 0.32922 0.15525 0.4934 0.0
C152 C 0.3762 0.29767 0.578 0.0
C153 C 0.42833 0.28806 0.56726 0.0
N154 N 0.39306 0.26088 0.52648 0.0
C155 C 0.37043 0.27579 0.5469 0.0
C156 C 0.42172 0.26632 0.53634 0.0
C157 C 0.40537 0.30389 0.58817 0.0
C158 C 0.36881 0.07877 0.40037 0.0
N159 N 0.34321 0.09843 0.41487 0.0
C160 C 0.3743 0.01223 0.39456 0.0
C161 C 0.3533 0.96569 0.40352 0.0
C162 C 0.32724 0.98609 0.41825 0.0
C163 C 0.32262 0.05296 0.42402 0.0
C164 C 0.26445 0.14798 0.36322 0.0
C165 C 0.27395 0.21335 0.42047 0.0
C166 C 0.29278 0.15368 0.3761 0.0
N167 N 0.29722 0.18571 0.4045 0.0
C168 C 0.24531 0.2086 0.40831 0.0
C169 C 0.24058 0.17553 0.37953 0.0
C170 C 0.33405 0.31766 0.45795 0.0
C171 C 0.45248 0.31496 0.42977 0.0
C172 C 0.41087 0.35705 0.47391 0.0
C173 C 0.43059 0.40241 0.46073 0.0
C174 C 0.45153 0.38108 0.43852 0.0
N175 N 0.41205 0.29224 0.46532 0.0
C176 C 0.43241 0.271 0.44346 0.0
Co177 Co 0.19459 0.81436 0.42863 0.0
Co178 Co 0.13902 0.76906 0.47867 0.0
O179 O 0.15267 0.81034 0.43908 0.0
C180 C 0.17008 0.76724 0.36639 0.0
O181 O 0.16158 0.71243 0.38024 0.0
C182 C 0.10857 0.89742 0.47706 0.0
O183 O 0.13486 0.92224 0.47172 0.0
O184 O 0.16447 0.82959 0.50381 0.0
O185 O 0.20598 0.81956 0.47501 0.0
H186 H 0.15124 0.66966 0.58812 0.0
H187 H 0.15332 0.91067 0.39903 0.0
O188 O 0.18385 0.81116 0.38213 0.0
H189 H 0.22898 0.04418 0.45361 0.0
H190 H 0.28236 0.88361 0.36248 0.0
H191 H 0.24875 0.75183 0.45478 0.0
H192 H 0.23133 0.92317 0.45506 0.0
H193 H 0.22969 0.8814 0.3776 0.0
O194 O 0.10573 0.83541 0.48083 0.0
H195 H 0.16829 0.71914 0.53736 0.0
H196 H 0.0797 0.73662 0.50523 0.0
H197 H 0.30155 0.75283 0.44056 0.0
H198 H 0.15031 0.03179 0.39657 0.0
H199 H 0.31866 0.81884 0.39403 0.0
H200 H 0.18831 0.09937 0.42403 0.0
O201 O 0.19692 0.71715 0.43117 0.0
H202 H 0.06664 0.71431 0.39161 0.0
H203 H 0.12832 0.62426 0.47856 0.0
H204 H 0.098 0.54906 0.44595 0.0
H205 H 0.06682 0.59406 0.40216 0.0
H206 H 0.09746 0.78768 0.42469 0.0
H207 H 0.06164 0.68795 0.55577 0.0
H208 H 0.09755 0.6538 0.59757 0.0
O209 O 0.17221 0.70172 0.47719 0.0
C210 C 0.1921 0.83825 0.50004 0.0
C211 C 0.13538 0.68409 0.57004 0.0
C212 C 0.08509 0.69444 0.5519 0.0
N213 N 0.12503 0.73005 0.51826 0.0
C214 C 0.14492 0.7119 0.54122 0.0
C215 C 0.09544 0.72208 0.52337 0.0
C216 C 0.10525 0.67527 0.57534 0.0
C217 C 0.17007 0.93976 0.41078 0.0
N218 N 0.1925 0.90979 0.42709 0.0
C219 C 0.16819 0.00832 0.40944 0.0
C220 C 0.18948 0.04622 0.42491 0.0
C221 C 0.21228 0.01532 0.44152 0.0
C222 C 0.21343 0.94671 0.44237 0.0
C223 C 0.27514 0.85447 0.38274 0.0
C224 C 0.25599 0.78094 0.43458 0.0
C225 C 0.24535 0.85295 0.39139 0.0
N226 N 0.23612 0.81668 0.41711 0.0
C227 C 0.28594 0.78119 0.4266 0.0
C228 C 0.29552 0.81819 0.40048 0.0
C229 C 0.19081 0.68278 0.45586 0.0
C230 C 0.08006 0.69414 0.41069 0.0
C231 C 0.11485 0.64418 0.4595 0.0
C232 C 0.09769 0.60138 0.44116 0.0
C233 C 0.0802 0.62666 0.4166 0.0
N234 N 0.11449 0.71032 0.45364 0.0
C235 C 0.09748 0.73546 0.42955 0.0
Co236 Co 0.68556 0.73747 0.91852 0.0
Co237 Co 0.6381 0.77527 0.97953 0.0
O238 O 0.64601 0.73739 0.93721 0.0
C239 C 0.64685 0.78324 0.86581 0.0
O240 O 0.63241 0.81915 0.88674 0.0
C241 C 0.61185 0.6426 0.98215 0.0
O242 O 0.6377 0.62183 0.9721 0.0
O243 O 0.66906 0.71833 -0.001 0.0
O244 O 0.7043 0.72767 0.96163 0.0
H245 H 0.66523 0.87375 0.08587 0.0
H246 H 0.64136 0.64352 0.89306 0.0
O247 O 0.66839 0.74731 0.87463 0.0
H248 H 0.72283 0.50657 0.93431 0.0
H249 H 0.76273 0.67576 0.83687 0.0
H250 H 0.74229 0.80139 0.93552 0.0
H251 H 0.72595 0.62723 0.93624 0.0
H252 H 0.71282 0.67638 0.86057 0.0
O253 O 0.60784 0.70389 0.98718 0.0
H254 H 0.67504 0.82872 0.03198 0.0
H255 H 0.58331 0.79733 0.01764 0.0
H256 H 0.79255 0.80171 0.91277 0.0
H257 H 0.63778 0.52259 0.88956 0.0
H258 H 0.80307 0.73837 0.86314 0.0
H259 H 0.67867 0.45321 0.91044 0.0
O260 O 0.68709 0.83407 0.92278 0.0
H261 H 0.54935 0.82009 0.9107 0.0
H262 H 0.62369 0.91842 0.98236 0.0
H263 H 0.58591 0.98938 0.95752 0.0
H264 H 0.54833 0.94022 0.92147 0.0
H265 H 0.58779 0.75109 0.93566 0.0
H266 H 0.57251 0.84152 0.07147 0.0
H267 H 0.61364 0.88033 0.10593 0.0
O268 O 0.66832 0.84791 0.97233 0.0
C269 C 0.69554 0.71065 0.98946 0.0
C270 C 0.64711 0.85721 0.07104 0.0
C271 C 0.59507 0.83904 0.06297 0.0
N272 N 0.62976 0.811 0.02162 0.0
C273 C 0.65253 0.83187 0.04048 0.0
C274 C 0.60133 0.81396 0.03255 0.0
C275 C 0.61816 0.86083 0.08229 0.0
C276 C 0.65943 0.61362 0.90168 0.0
N277 N 0.68382 0.64244 0.91478 0.0
C278 C 0.65722 0.54519 0.89981 0.0
C279 C 0.68015 0.50629 0.91157 0.0
C280 C 0.70495 0.5361 0.92489 0.0
C281 C 0.70649 0.60459 0.92615 0.0
C282 C 0.75844 0.70345 0.85853 0.0
C283 C 0.74668 0.77363 0.91395 0.0
C284 C 0.7302 0.70414 0.87202 0.0
N285 N 0.72469 0.73848 0.89955 0.0
C286 C 0.77519 0.77409 0.90114 0.0
C287 C 0.78107 0.73857 0.87329 0.0
C288 C 0.68279 0.86844 0.94785 0.0
C289 C 0.56556 0.84207 0.92643 0.0
C290 C 0.60754 0.89671 0.96653 0.0
C291 C 0.58613 0.93711 0.95263 0.0
C292 C 0.56503 0.90948 0.93244 0.0
N293 N 0.60793 0.83064 0.96049 0.0
C294 C 0.58729 0.80319 0.94076 0.0
Co295 Co 0.85146 0.3578 0.92072 0.0
Co296 Co 0.87885 0.27399 0.9866 0.0
O297 O 0.8832 0.3155 0.94447 0.0
C298 C 0.85293 0.28472 0.85962 0.0
O299 O 0.82569 0.26673 0.86587 0.0
C300 C 0.92315 0.37909 0.99574 0.0
O301 O 0.90417 0.41837 0.98165 0.0
O302 O 0.85513 0.34914 0.00387 0.0
O303 O 0.83573 0.39832 0.96039 0.0
H304 H 0.82411 0.19436 0.08399 0.0
H305 H 0.91375 0.37614 0.9006 0.0
O306 O 0.86734 0.31865 0.87998 0.0
H307 H 0.87635 0.59909 0.92361 0.0
H308 H 0.80748 0.48414 0.82824 0.0
H309 H 0.78709 0.37268 0.93091 0.0
H310 H 0.84356 0.50278 0.92813 0.0
H311 H 0.8478 0.43189 0.85881 0.0
O312 O 0.91637 0.31893 0.00069 0.0
H313 H 0.82908 0.24732 0.03104 0.0
H314 H 0.92155 0.21242 0.03184 0.0
H315 H 0.74605 0.42281 0.90073 0.0
H316 H 0.94728 0.47116 0.8955 0.0
H317 H 0.75617 0.47999 0.84928 0.0
H318 H 0.92868 0.58353 0.90728 0.0
O319 O 0.82563 0.27983 0.9279 0.0
H320 H 0.96439 0.16814 0.92951 0.0
H321 H 0.87119 0.12842 0.98756 0.0
H322 H 0.89955 0.03419 0.96658 0.0
H323 H 0.94658 0.05376 0.93741 0.0
H324 H 0.93517 0.261 0.95061 0.0
H325 H 0.91765 0.15971 0.08496 0.0
H326 H 0.86862 0.15015 0.11131 0.0
O327 O 0.84144 0.22901 0.97268 0.0
C328 C 0.83889 0.39243 0.99055 0.0
C329 C 0.84558 0.19809 0.07272 0.0
C330 C 0.89809 0.17873 0.07328 0.0
N331 N 0.87554 0.23254 0.0283 0.0
C332 C 0.84852 0.22785 0.04271 0.0
C333 C 0.90018 0.20879 0.04326 0.0
C334 C 0.87057 0.17334 0.08805 0.0
C335 C 0.9054 0.42499 0.90536 0.0
N336 N 0.87672 0.4339 0.91462 0.0
C337 C 0.92452 0.47857 0.90257 0.0
C338 C 0.91408 0.54161 0.90923 0.0
C339 C 0.88474 0.55036 0.91842 0.0
C340 C 0.86629 0.49563 0.92102 0.0
C341 C 0.80281 0.4598 0.85076 0.0
C342 C 0.79167 0.39714 0.90843 0.0
C343 C 0.82554 0.43018 0.86818 0.0
N344 N 0.81982 0.39957 0.89671 0.0
C345 C 0.76835 0.42567 0.89152 0.0
C346 C 0.77403 0.45747 0.86257 0.0
C347 C 0.82335 0.23518 0.94933 0.0
C348 C 0.94396 0.15898 0.94223 0.0
C349 C 0.89154 0.13737 0.97474 0.0
C350 C 0.90755 0.0838 0.96299 0.0
C351 C 0.93394 0.09481 0.94665 0.0
N352 N 0.90157 0.20015 0.97042 0.0
C353 C 0.92737 0.21135 0.95432 0.0
Co354 Co 0.67895 0.80111 0.57677 0.0
Co355 Co 0.63903 0.73433 0.51564 0.0
O356 O 0.64098 0.78168 0.55657 0.0
C357 C 0.63682 0.77121 0.63123 0.0
O358 O 0.61607 0.75255 0.61136 0.0
C359 C 0.59889 0.84936 0.50686 0.0
O360 O 0.62016 0.88702 0.51771 0.0
O361 O 0.66466 0.80191 0.49528 0.0
O362 O 0.69853 0.81055 0.534 0.0
H363 H 0.6809 0.63501 0.41516 0.0
H364 H 0.62633 0.88089 0.5948 0.0
O365 O 0.66164 0.79183 0.62092 0.0
H366 H 0.69868 0.03963 0.55244 0.0
H367 H 0.74649 0.90646 0.65769 0.0
H368 H 0.74064 0.75846 0.56432 0.0
H369 H 0.71114 0.92199 0.55612 0.0
H370 H 0.69847 0.88188 0.63262 0.0
O371 O 0.60311 0.78758 0.50375 0.0
H372 H 0.68308 0.69211 0.46727 0.0
H373 H 0.58981 0.68047 0.47618 0.0
H374 H 0.78916 0.78278 0.58829 0.0
H375 H 0.61334 0.99844 0.59252 0.0
H376 H 0.79231 0.85764 0.63519 0.0
H377 H 0.64961 0.07879 0.57106 0.0
O378 O 0.68804 0.70606 0.57715 0.0
H379 H 0.55231 0.65777 0.58103 0.0
H380 H 0.63896 0.58746 0.51808 0.0
H381 H 0.60741 0.50385 0.54367 0.0
H382 H 0.56367 0.53879 0.57536 0.0
H383 H 0.58469 0.73984 0.55541 0.0
H384 H 0.58658 0.62378 0.42403 0.0
H385 H 0.63237 0.60048 0.39322 0.0
O386 O 0.67487 0.67842 0.52704 0.0
C387 C 0.68983 0.8201 0.50535 0.0
C388 C 0.6608 0.64473 0.4284 0.0
C389 C 0.60785 0.6385 0.43336 0.0
N390 N 0.63663 0.68917 0.47482 0.0
C391 C 0.66191 0.67687 0.45795 0.0
C392 C 0.60981 0.67075 0.46283 0.0
C393 C 0.63356 0.62541 0.41609 0.0
C394 C 0.64249 0.91554 0.58613 0.0
N395 N 0.66957 0.8944 0.576 0.0
C396 C 0.63491 0.98209 0.58463 0.0
C397 C 0.65524 0.02713 0.57252 0.0
C398 C 0.68279 1.00523 0.56213 0.0
C399 C 0.68965 0.9384 0.56414 0.0
C400 C 0.74541 0.87408 0.63715 0.0
C401 C 0.74182 0.79119 0.58468 0.0
C402 C 0.71826 0.8597 0.62294 0.0
N403 N 0.71675 0.81913 0.59686 0.0
C404 C 0.76936 0.80467 0.5982 0.0
C405 C 0.77111 0.84661 0.62453 0.0
C406 C 0.6882 0.66643 0.5535 0.0
C407 C 0.57132 0.64192 0.56732 0.0
C408 C 0.62018 0.6032 0.53213 0.0
C409 C 0.60229 0.55555 0.54642 0.0
C410 C 0.57772 0.57518 0.56416 0.0
N411 N 0.61384 0.66862 0.53547 0.0
C412 C 0.58971 0.68818 0.55269 0.0
Co413 Co 0.84367 0.14943 0.57671 0.0
Co414 Co 0.87597 0.2393 0.51554 0.0
O415 O 0.87763 0.19037 0.55604 0.0
C416 C 0.86878 0.23382 0.62787 0.0
O417 O 0.8741 0.27933 0.60629 0.0
C418 C 0.91926 0.13218 0.50444 0.0
O419 O 0.89934 0.09192 0.51614 0.0
O420 O 0.85182 0.16971 0.49415 0.0
O421 O 0.82891 0.11797 0.5348 0.0
H422 H 0.82715 0.34031 0.41926 0.0
H423 H 0.90418 0.1193 0.59901 0.0
O424 O 0.85746 0.17911 0.61975 0.0
H425 H 0.86213 0.90573 0.56688 0.0
H426 H 0.7917 0.0175 0.66212 0.0
H427 H 0.77984 0.14319 0.56182 0.0
H428 H 0.83231 0.00727 0.56333 0.0
H429 H 0.83474 0.06945 0.63611 0.0
O430 O 0.91327 0.1933 0.50143 0.0
H431 H 0.82881 0.27801 0.46999 0.0
H432 H 0.9217 0.3043 0.47513 0.0
H433 H 0.73624 0.09232 0.58712 0.0
H434 H 0.93477 0.01911 0.6028 0.0
H435 H 0.74201 0.02869 0.6375 0.0
H436 H 0.91377 0.91144 0.58651 0.0
O437 O 0.82049 0.23224 0.57234 0.0
H438 H 0.96047 0.32603 0.58106 0.0
H439 H 0.87084 0.38518 0.5205 0.0
H440 H 0.8996 0.47229 0.54713 0.0
H441 H 0.94481 0.44293 0.57764 0.0
H442 H 0.9309 0.24038 0.55434 0.0
H443 H 0.92111 0.36625 0.42426 0.0
H444 H 0.87355 0.38488 0.39606 0.0
O445 O 0.83883 0.28593 0.52949 0.0
C446 C 0.83376 0.1273 0.50513 0.0
C447 C 0.848 0.33266 0.43136 0.0
C448 C 0.90074 0.34714 0.43414 0.0
N449 N 0.87529 0.28795 0.47558 0.0
C450 C 0.84906 0.2976 0.46013 0.0
C451 C 0.90096 0.31187 0.46288 0.0
C452 C 0.87404 0.35761 0.41834 0.0
C453 C 0.89482 0.07252 0.59213 0.0
N454 N 0.86649 0.06909 0.58102 0.0
C455 C 0.91227 0.016 0.59423 0.0
C456 C 0.90049 0.95562 0.58504 0.0
C457 C 0.87151 0.95243 0.57395 0.0
C458 C 0.85476 0.01004 0.57199 0.0
C459 C 0.7889 0.04497 0.64011 0.0
C460 C 0.78256 0.11545 0.58374 0.0
C461 C 0.81318 0.0746 0.6253 0.0
N462 N 0.80983 0.10887 0.59733 0.0
C463 C 0.75778 0.08674 0.59794 0.0
C464 C 0.76104 0.05115 0.62626 0.0
C465 C 0.8202 0.27997 0.55239 0.0
C466 C 0.94086 0.33946 0.56776 0.0
C467 C 0.89042 0.37195 0.53382 0.0
C468 C 0.90666 0.42153 0.54878 0.0
C469 C 0.93204 0.40503 0.56587 0.0
N470 N 0.89924 0.30775 0.53575 0.0
C471 C 0.9241 0.29119 0.55246 0.0
H472 H 0.30689 0.11932 0.08447 0.0
H473 H 0.31197 0.15556 0.98209 0.0
H474 H 0.27542 0.06774 0.97264 0.0
H475 H 0.30173 0.94205 0.07778 0.0
H476 H 0.27685 0.93396 0.1113 0.0
H477 H 0.3028 1.00097 0.11004 0.0
H478 H 0.25976 0.084 0.11664 0.0
H479 H 0.23365 0.01725 0.11764 0.0
H480 H 0.22947 0.0824 0.08867 0.0
H481 H 0.23663 0.97919 0.97444 0.0
H482 H 0.20317 0.88673 0.98667 0.0
H483 H 0.22569 0.90235 0.08748 0.0
C484 C 0.30033 0.10864 0.06007 0.0
C485 C 0.31222 0.14448 0.03402 0.0
C486 C 0.30329 0.12861 0.00241 0.0
C487 C 0.28238 0.07907 0.99681 0.0
C488 C 0.27089 0.04509 0.02301 0.0
C489 C 0.27989 0.05838 0.05398 0.0
C490 C 0.26503 0.01256 0.07773 0.0
C491 C 0.28797 0.96985 0.09524 0.0
C492 C 0.24584 0.05138 0.10158 0.0
C493 C 0.24619 0.97166 0.05529 0.0
C494 C 0.24956 0.99192 0.02389 0.0
C495 C 0.23397 0.96259 -0.00108 0.0
C496 C 0.21487 0.9103 0.00614 0.0
C497 C 0.21185 0.88706 0.038 0.0
C498 C 0.22763 0.91871 0.06286 0.0
H499 H 0.2222 0.60837 0.41247 0.0
H500 H 0.20221 0.62516 0.51391 0.0
H501 H 0.23808 0.53679 0.52559 0.0
H502 H 0.23002 0.42916 0.41239 0.0
H503 H 0.25937 0.43028 0.38319 0.0
H504 H 0.23176 0.49411 0.38301 0.0
H505 H 0.273 0.58197 0.38711 0.0
H506 H 0.30072 0.51838 0.38784 0.0
H507 H 0.29899 0.57805 0.41974 0.0
H508 H 0.27901 0.45194 0.52658 0.0
H509 H 0.31619 0.36552 0.51615 0.0
H510 H 0.30733 0.39897 0.41387 0.0
C511 C 0.22509 0.5929 0.43711 0.0
C512 C 0.20934 0.62385 0.46227 0.0
C513 C 0.21378 0.602 0.49418 0.0
C514 C 0.23431 0.55214 0.50109 0.0
C515 C 0.24995 0.52377 0.47582 0.0
C516 C 0.24511 0.54236 0.44439 0.0
C517 C 0.2643 0.5029 0.42158 0.0
C518 C 0.24522 0.46167 0.3987 0.0
C519 C 0.28551 0.54803 0.40298 0.0
C520 C 0.28088 0.45961 0.44509 0.0
C521 C 0.27259 0.47307 0.47629 0.0
C522 C 0.28546 0.4406 0.50222 0.0
C523 C 0.30677 0.39191 0.49606 0.0
C524 C 0.31472 0.37533 0.46421 0.0
C525 C 0.30171 0.41032 0.43849 0.0
H526 H 0.72801 0.91025 0.98619 0.0
H527 H 0.67032 0.97084 0.9089 0.0
H528 H 0.69836 0.07464 0.90329 0.0
H529 H 0.74185 0.07589 0.0208 0.0
H530 H 0.78016 0.0582 0.02875 0.0
H531 H 0.75331 0.99284 0.02953 0.0
H532 H 0.78413 0.92837 0.9877 0.0
H533 H 0.8109 0.99373 0.98648 0.0
H534 H 0.79329 0.96686 0.95005 0.0
H535 H 0.73457 0.16675 0.90308 0.0
H536 H 0.77638 0.2429 0.90825 0.0
H537 H 0.8125 0.12226 0.98483 0.0
C538 C 0.7208 0.94664 0.9689 0.0
C539 C 0.69659 0.93393 0.9485 0.0
C540 C 0.68845 0.98078 0.9251 0.0
C541 C 0.70429 0.0396 0.92173 0.0
C542 C 0.72847 0.05035 0.9417 0.0
C543 C 0.73673 1.00537 0.96491 0.0
C544 C 0.76507 0.02672 0.98135 0.0
C545 C 0.75977 0.03916 0.01724 0.0
C546 C 0.7898 0.9759 0.97607 0.0
C547 C 0.7715 0.09041 0.96363 0.0
C548 C 0.74999 0.10307 0.94099 0.0
C549 C 0.75145 0.15762 0.92088 0.0
C550 C 0.77547 0.20052 0.92394 0.0
C551 C 0.79797 0.18887 0.94691 0.0
C552 C 0.79572 0.13297 0.96711 0.0
H553 H 0.72383 0.60186 0.5097 0.0
H554 H 0.68979 0.59069 0.60677 0.0
H555 H 0.71803 0.48851 0.61577 0.0
H556 H 0.72648 0.42508 0.49336 0.0
H557 H 0.76103 0.42925 0.47196 0.0
H558 H 0.73639 0.49894 0.47199 0.0
H559 H 0.77839 0.57267 0.49381 0.0
H560 H 0.80311 0.50319 0.49392 0.0
H561 H 0.79712 0.5494 0.53021 0.0
H562 H 0.74985 0.38893 0.61484 0.0
H563 H 0.78612 0.30092 0.60548 0.0
H564 H 0.80301 0.3782 0.51006 0.0
C565 C 0.72208 0.57719 0.53264 0.0
C566 C 0.70442 0.6037 0.5575 0.0
C567 C 0.70316 0.57108 0.58744 0.0
C568 C 0.71904 0.51293 0.59274 0.0
C569 C 0.73651 0.48835 0.568 0.0
C570 C 0.73843 0.51954 0.53862 0.0
C571 C 0.76045 0.48454 0.51696 0.0
C572 C 0.74517 0.45787 0.48678 0.0
C573 C 0.7863 0.53018 0.50822 0.0
C574 C 0.77048 0.42895 0.5388 0.0
C575 C 0.75606 0.43189 0.56796 0.0
C576 C 0.76132 0.38609 0.59211 0.0
C577 C 0.78199 0.33608 0.58649 0.0
C578 C 0.79757 0.33232 0.55703 0.0
C579 C 0.79159 0.37962 0.53287 0.0
H580 H 0.34305 0.33709 0.17374 0.0
H581 H 0.40325 0.17325 0.15965 0.0
H582 H 0.40742 0.16042 0.2185 0.0
H583 H 0.37749 0.4042 0.2461 0.0
H584 H 0.34239 0.42522 0.26378 0.0
H585 H 0.34665 0.42541 0.22082 0.0
H586 H 0.30277 0.34446 0.21554 0.0
H587 H 0.29836 0.34398 0.2584 0.0
H588 H 0.30366 0.26768 0.23717 0.0
H589 H 0.40226 0.16133 0.27879 0.0
H590 H 0.38692 0.17249 0.33525 0.0
H591 H 0.32926 0.33469 0.30918 0.0
C592 C 0.35753 0.29909 0.1829 0.0
C593 C 0.37296 0.25631 0.16205 0.0
C594 C 0.3913 0.2067 0.17516 0.0
C595 C 0.39387 0.19922 0.20853 0.0
C596 C 0.37799 0.24178 0.22836 0.0
C597 C 0.36018 0.29073 0.21597 0.0
C598 C 0.34381 0.32717 0.24217 0.0
C599 C 0.35315 0.39981 0.24328 0.0
C600 C 0.31017 0.32037 0.23807 0.0
C601 C 0.35467 0.29018 0.27133 0.0
C602 C 0.37467 0.24169 0.26292 0.0
C603 C 0.38683 0.19949 0.28566 0.0
C604 C 0.37795 0.20629 0.31771 0.0
C605 C 0.35689 0.2546 0.32673 0.0
C606 C 0.34554 0.29764 0.30318 0.0
H607 H 0.16858 0.67754 0.31735 0.0
H608 H 0.15847 0.88517 0.33844 0.0
H609 H 0.15092 0.90833 0.28094 0.0
H610 H 0.21159 0.70136 0.24818 0.0
H611 H 0.19641 0.63302 0.22621 0.0
H612 H 0.19693 0.63124 0.26932 0.0
H613 H 0.14036 0.61208 0.27021 0.0
H614 H 0.13968 0.61374 0.22702 0.0
H615 H 0.11638 0.66882 0.24957 0.0
H616 H 0.14683 0.90986 0.22097 0.0
H617 H 0.15086 0.89078 0.16257 0.0
H618 H 0.16694 0.68343 0.18031 0.0
C619 C 0.16412 0.72757 0.30985 0.0
C620 C 0.16369 0.77949 0.33226 0.0
C621 C 0.1587 0.84469 0.32158 0.0
C622 C 0.15426 0.85828 0.28902 0.0
C623 C 0.15523 0.80621 0.26738 0.0
C624 C 0.16028 0.74221 0.27729 0.0
C625 C 0.16319 0.69632 0.24887 0.0
C626 C 0.19385 0.66359 0.24811 0.0
C627 C 0.13842 0.64469 0.24893 0.0
C628 C 0.15947 0.74468 0.22154 0.0
C629 C 0.1543 0.80758 0.2327 0.0
C630 C 0.15074 0.86075 0.21191 0.0
C631 C 0.153 0.84947 0.17881 0.0
C632 C 0.15931 0.78578 0.16696 0.0
C633 C 0.16217 0.73275 0.18868 0.0
H634 H 0.68341 0.76461 0.81488 0.0
H635 H 0.59222 0.8057 0.83968 0.0
H636 H 0.57892 0.80363 0.782 0.0
H637 H 0.68497 0.86832 0.74495 0.0
H638 H 0.70921 0.81432 0.72296 0.0
H639 H 0.71095 0.81693 0.76606 0.0
H640 H 0.70233 0.69102 0.76842 0.0
H641 H 0.70044 0.68801 0.72533 0.0
H642 H 0.67036 0.65633 0.74907 0.0
H643 H 0.57572 0.79186 0.72119 0.0
H644 H 0.58378 0.78434 0.66249 0.0
H645 H 0.67772 0.75935 0.67858 0.0
C646 C 0.66061 0.77297 0.80818 0.0
C647 C 0.63873 0.78468 0.8316 0.0
C648 C 0.60925 0.79661 0.82197 0.0
C649 C 0.60152 0.79523 0.78935 0.0
C650 C 0.62365 0.78302 0.76681 0.0
C651 C 0.65268 0.77321 0.77585 0.0
C652 C 0.67261 0.76406 0.74709 0.0
C653 C 0.69579 0.8192 0.74516 0.0
C654 C 0.68729 0.69579 0.74751 0.0
C655 C 0.65026 0.76965 0.72035 0.0
C656 C 0.62207 0.77971 0.73211 0.0
C657 C 0.59774 0.78454 0.71174 0.0
C658 C 0.60248 0.77991 0.6785 0.0
C659 C 0.63136 0.7717 0.66611 0.0
C660 C 0.65542 0.76626 0.6874 0.0
H661 H 0.84246 0.1725 0.67826 0.0
H662 H 0.90594 0.32497 0.65505 0.0
H663 H 0.91297 0.34663 0.71305 0.0
H664 H 0.80766 0.25918 0.74028 0.0
H665 H 0.80074 0.18745 0.76455 0.0
H666 H 0.80346 0.17968 0.72171 0.0
H667 H 0.84471 0.09236 0.72843 0.0
H668 H 0.84224 0.10006 0.77139 0.0
H669 H 0.87716 0.11209 0.75147 0.0
H670 H 0.91138 0.35367 0.77379 0.0
H671 H 0.8977 0.3541 0.83114 0.0
H672 H 0.83343 0.20027 0.81335 0.0
C673 C 0.85826 0.20972 0.68532 0.0
C674 C 0.87397 0.24659 0.66223 0.0
C675 C 0.89381 0.29603 0.67243 0.0
C676 C 0.89804 0.30833 0.70527 0.0
C677 C 0.88208 0.27107 0.72742 0.0
C678 C 0.86238 0.2232 0.71778 0.0
C679 C 0.84594 0.19388 0.74594 0.0
C680 C 0.81248 0.20581 0.74293 0.0
C681 C 0.85295 0.12023 0.74951 0.0
C682 C 0.85912 0.23336 0.77305 0.0
C683 C 0.88033 0.27677 0.76203 0.0
C684 C 0.89494 0.31963 0.78268 0.0
C685 C 0.8871 0.31928 0.81525 0.0
C686 C 0.86452 0.2771 0.8267 0.0
C687 C 0.85085 0.23285 0.80533 0.0
H688 H 0.44651 0.51822 0.01834 0.0
H689 H 0.47805 0.32121 0.99679 0.0
H690 H 0.52791 0.365 0.98739 0.0
H691 H 0.49035 0.60188 0.95889 0.0
H692 H 0.49771 0.67258 0.98366 0.0
H693 H 0.46425 0.62616 0.98935 0.0
H694 H 0.47741 0.60905 0.04917 0.0
H695 H 0.51091 0.65546 0.04366 0.0
H696 H 0.51252 0.57315 0.05964 0.0
H697 H 0.57419 0.42898 0.97949 0.0
H698 H 0.6143 0.50965 0.97362 0.0
H699 H 0.5539 0.66662 0.00023 0.0
C700 C 0.46391 0.48428 0.01172 0.0
C701 C 0.45819 0.4161 0.00831 0.0
C702 C 0.48168 0.37354 -0.00045 0.0
C703 C 0.51019 0.39793 0.99416 0.0
C704 C 0.51506 0.46515 0.99761 0.0
C705 C 0.49266 0.50787 0.0062 0.0
C706 C 0.50403 0.57811 0.00795 0.0
C707 C 0.48814 0.62228 0.9835 0.0
C708 C 0.50104 0.60555 0.04214 0.0
C709 C 0.53623 0.56802 -0.0011 0.0
C710 C 0.54202 0.50237 0.99309 0.0
C711 C 0.56996 0.48052 0.98407 0.0
C712 C 0.59265 0.52689 0.98081 0.0
C713 C 0.5874 0.59463 0.98655 0.0
C714 C 0.55872 0.61524 0.99579 0.0
H715 H 0.05521 0.64101 0.00269 0.0
H716 H 0.10849 0.4884 0.04705 0.0
H717 H 0.06619 0.4124 0.04488 0.0
H718 H 0.98671 0.60078 0.04257 0.0
H719 H 0.9641 0.61729 0.00795 0.0
H720 H 0.99848 0.6604 0.01322 0.0
H721 H 0.01598 0.62071 0.95733 0.0
H722 H 0.98165 0.57748 0.95191 0.0
H723 H 0.01619 0.53393 0.94847 0.0
H724 H 0.01822 0.35216 0.0377 0.0
H725 H 0.96813 0.31178 0.02518 0.0
H726 H 0.94588 0.5027 0.98512 0.0
C727 C 0.05796 0.59166 0.01201 0.0
C728 C 0.08526 0.5708 0.02504 0.0
C729 C 0.08791 0.50565 0.03685 0.0
C730 C 0.06395 0.46202 0.03579 0.0
C731 C 0.03742 0.48401 0.02277 0.0
C732 C 0.03426 0.5472 0.01099 0.0
C733 C 1.0034 0.55795 0.99783 0.0
C734 C 0.98722 0.61233 0.01652 0.0
C735 C 1.00438 0.57342 0.96174 0.0
C736 C 0.98976 0.49103 0.0041 0.0
C737 C 1.00975 0.44914 0.01855 0.0
C738 C 1.00235 0.38456 0.02644 0.0
C739 C 0.97381 0.36207 0.01925 0.0
C740 C 0.95295 0.40399 0.00428 0.0
C741 C 0.96118 0.4694 0.99674 0.0
H742 H 0.57929 0.97702 0.51603 0.0
H743 H 0.5513 0.78549 0.48143 0.0
H744 H 0.50166 0.82985 0.47081 0.0
H745 H 0.51139 0.0183 0.55576 0.0
H746 H 0.51254 0.10417 0.54507 0.0
H747 H 0.54639 0.05837 0.5493 0.0
H748 H 0.56176 0.0914 0.49171 0.0
H749 H 0.52798 0.13744 0.48732 0.0
H750 H 0.53723 0.07417 0.45876 0.0
H751 H 0.45493 0.89314 0.46472 0.0
H752 H 0.41378 0.97199 0.46293 0.0
H753 H 0.47095 0.12416 0.50137 0.0
C754 C 0.56278 0.94452 0.50599 0.0
C755 C 0.56935 0.87764 0.49948 0.0
C756 C 0.54697 0.8368 0.4866 0.0
C757 C 0.51863 0.86156 0.48047 0.0
C758 C 0.51285 0.92737 0.48732 0.0
C759 C 0.53423 0.96847 0.49973 0.0
C760 C 0.52189 0.03713 0.50526 0.0
C761 C 0.52313 0.05555 0.54097 0.0
C762 C 0.53819 0.08804 0.48452 0.0
C763 C 0.49023 0.028 0.49408 0.0
C764 C 0.48562 0.9642 0.48384 0.0
C765 C 0.45827 0.94327 0.47263 0.0
C766 C 0.43497 0.9886 0.47177 0.0
C767 C 0.43898 0.05447 0.48205 0.0
C768 C 0.46711 0.07426 0.49333 0.0
H769 H 0.94103 1.00631 0.51181 0.0
H770 H 0.96574 0.20195 0.47971 0.0
H771 H 0.01624 0.16231 0.46864 0.0
H772 H 1.00905 0.96857 0.55122 0.0
H773 H 1.00926 0.88324 0.53952 0.0
H774 H 0.97472 0.92627 0.54408 0.0
H775 H 0.96027 0.89507 0.48601 0.0
H776 H 0.99476 0.85189 0.48126 0.0
H777 H 0.98472 0.91591 0.45342 0.0
H778 H 0.06435 0.10287 0.46248 0.0
H779 H 0.10681 0.02722 0.46058 0.0
H780 H 0.05136 0.86889 0.49608 0.0
C781 C 0.95697 0.04075 0.50219 0.0
C782 C 0.94928 0.10734 0.49652 0.0
C783 C 0.97096 0.15076 0.48418 0.0
C784 C 0.99976 0.1287 0.47782 0.0
C785 C 1.00662 0.063 0.48386 0.0
C786 C 0.98586 0.01953 0.49566 0.0
C787 C 0.99919 0.95162 0.50043 0.0
C788 C 0.99798 0.93124 0.53592 0.0
C789 C 0.98382 0.90061 0.479 0.0
C790 C 0.03073 0.9638 0.48955 0.0
C791 C 0.03446 0.02846 0.48015 0.0
C792 C 0.06166 0.05208 0.46967 0.0
C793 C 0.0857 0.00861 0.46875 0.0
C794 C 0.08252 0.94195 0.47815 0.0
C795 C 0.05453 0.9194 0.48859 0.0
H796 H 0.19032 0.53659 0.99413 0.0
H797 H 0.2417 0.71136 0.97594 0.0
H798 H 0.28212 0.64346 0.9539 0.0
H799 H 0.24246 0.45515 0.02805 0.0
H800 H 0.23371 0.37394 0.01363 0.0
H801 H 0.20543 0.43513 0.01536 0.0
H802 H 0.19512 0.41803 0.95472 0.0
H803 H 0.22392 0.35675 0.95305 0.0
H804 H 0.22483 0.42621 0.9262 0.0
H805 H 0.32117 0.55973 0.95047 0.0
H806 H 0.35452 0.47054 0.96808 0.0
H807 H 0.27894 0.34793 0.98891 0.0
C808 C 0.2093 0.56021 0.98329 0.0
C809 C 0.21273 0.62873 0.9854 0.0
C810 C 0.23848 0.65884 0.97327 0.0
C811 C 0.26151 0.62053 0.96077 0.0
C812 C 0.25841 0.55222 0.96076 0.0
C813 C 0.23266 0.52227 0.97136 0.0
C814 C 0.23703 0.44903 0.97583 0.0
C815 C 0.22923 0.42718 0.01025 0.0
C816 C 0.21917 0.41022 0.95095 0.0
C817 C 0.26981 0.44355 0.96928 0.0
C818 C 0.28159 0.50291 0.95929 0.0
C819 C 0.31211 0.5124 0.95709 0.0
C820 C 0.33097 0.46144 0.967 0.0
C821 C 0.3191 0.40257 0.97945 0.0
C822 C 0.28835 0.39228 0.97876 0.0
H823 H 0.33466 0.02788 0.50924 0.0
H824 H 0.27834 0.19785 0.52051 0.0
H825 H 0.23879 0.12736 0.54248 0.0
H826 H 0.28471 0.93725 0.4749 0.0
H827 H 0.29546 0.85879 0.49127 0.0
H828 H 0.32199 0.92362 0.48868 0.0
H829 H 0.33138 0.91263 0.55001 0.0
H830 H 0.30407 0.84829 0.55241 0.0
H831 H 0.30089 0.91995 0.57761 0.0
H832 H 0.20215 0.03976 0.54824 0.0
H833 H 0.17136 0.94613 0.53159 0.0
H834 H 0.25002 0.83012 0.51489 0.0
C835 C 0.31462 0.05018 0.51837 0.0
C836 C 0.30963 0.11795 0.5145 0.0
C837 C 0.28263 0.14602 0.52443 0.0
C838 C 0.26016 0.1063 0.53699 0.0
C839 C 0.26501 0.0386 0.53909 0.0
C840 C 0.29173 0.01071 0.53011 0.0
C841 C 0.28926 0.9367 0.52724 0.0
C842 C 0.29838 0.9128 0.49354 0.0
C843 C 0.30748 0.90237 0.55339 0.0
C844 C 0.25651 0.92794 0.53309 0.0
C845 C 0.24313 0.98678 0.54138 0.0
C846 C 0.21244 0.99301 0.54281 0.0
C847 C 0.19502 0.93937 0.53347 0.0
C848 C 0.20847 0.8811 0.52216 0.0
C849 C 0.23938 0.87396 0.5241 0.0
H850 H 0.75504 0.71761 0.98621 0.0
H851 H 0.68389 0.61586 0.0347 0.0
H852 H 0.71928 0.53179 0.05366 0.0
H853 H 0.7829 0.5863 0.95259 0.0
H854 H 0.82123 0.60981 0.95431 0.0
H855 H 0.79321 0.67186 0.95437 0.0
H856 H 0.81419 0.71897 0.0075 0.0
H857 H 0.84242 0.65633 0.00749 0.0
H858 H 0.81853 0.66579 0.04177 0.0
H859 H 0.75872 0.44494 0.05432 0.0
H860 H 0.79702 0.36625 0.03595 0.0
H861 H 0.84202 0.52376 0.98641 0.0
C862 C 0.74718 0.67935 0.00214 0.0
C863 C 0.71684 0.67331 0.00915 0.0
C864 C 0.70716 0.62202 0.02952 0.0
C865 C 0.72716 0.57392 0.04031 0.0
C866 C 0.75671 0.57856 0.03088 0.0
C867 C 0.76671 0.63083 0.01257 0.0
C868 C 0.79765 0.61904 0.00021 0.0
C869 C 0.79876 0.62184 0.96322 0.0
C870 C 0.81949 0.66794 0.01516 0.0
C871 C 0.80288 0.55019 0.01257 0.0
C872 C 0.77947 0.52806 0.031 0.0
C873 C 0.77761 0.46246 0.0409 0.0
C874 C 0.79947 0.41809 0.03055 0.0
C875 C 0.82246 0.43972 0.01023 0.0
C876 C 0.82487 0.50682 0.00249 0.0
H877 H 0.74881 0.80805 0.50244 0.0
H878 H 0.67577 0.92062 0.46443 0.0
H879 H 0.71071 1.00511 0.4448 0.0
H880 H 0.78175 0.9288 0.53716 0.0
H881 H 0.81943 0.90393 0.53009 0.0
H882 H 0.79086 0.84355 0.53027 0.0
H883 H 0.80637 0.80623 0.4733 0.0
H884 H 0.83527 0.86721 0.47311 0.0
H885 H 0.80839 0.86565 0.44129 0.0
H886 H 0.7507 0.08981 0.44439 0.0
H887 H 0.79037 0.16364 0.46356 0.0
H888 H 0.83761 0.99629 0.50156 0.0
C889 C 0.74046 0.84883 0.48839 0.0
C890 C 0.70985 0.85781 0.48452 0.0
C891 C 0.69929 0.9123 0.4669 0.0
C892 C 0.71903 0.96056 0.45578 0.0
C893 C 0.74917 0.95265 0.46199 0.0
C894 C 0.75984 0.89712 0.47738 0.0
C895 C 0.79184 0.90505 0.48685 0.0
C896 C 0.79614 0.89486 0.52323 0.0
C897 C 0.81164 0.85826 0.46746 0.0
C898 C 0.79689 0.97571 0.47707 0.0
C899 C 0.77244 1.00192 0.46172 0.0
C900 C 0.77036 0.06924 0.45519 0.0
C901 C 0.79304 0.1109 0.46595 0.0
C902 C 0.81714 0.0849 0.48326 0.0
C903 C 0.81974 0.0165 0.48741 0.0
loop_
_geom_bond_atom_site_label_1
_geom_bond_atom_site_label_2
_geom_bond_distance
_geom_bond_site_symmetry_2
_ccdc_geom_bond_type
Co0 O2 2.143 . S
Co0 O8 2.074 . S
Co0 O11 2.093 . S
Co0 O24 2.097 . S
Co0 N41 2.151 . S
Co0 N49 2.214 . S
Co1 O2 2.160 . S
Co1 O7 2.058 . S
Co1 O17 2.062 . S
Co1 O32 2.037 . S
Co1 N36 2.145 1_554 S
Co1 N57 2.257 . S
O2 Co0 2.143 . S
O2 Co1 2.160 . S
C3 O4 1.278 . S
C3 O11 1.224 . S
O4 C3 1.278 . S
C5 O6 1.245 . S
C5 O17 1.248 . S
O6 C5 1.245 . S
O7 Co1 2.058 . S
O7 C33 1.269 . S
O8 Co0 2.074 . S
O8 C33 1.257 . S
H9 C34 0.930 . S
H10 C40 0.930 . S
O11 Co0 2.093 . S
O11 C3 1.224 . S
H12 C44 0.929 . S
H13 C46 0.930 . S
H14 C47 0.930 . S
H15 C45 0.929 . S
H16 C48 0.928 . S
O17 Co1 2.062 . S
O17 C5 1.248 . S
H18 C37 0.929 . S
H19 C38 0.929 . S
H20 C50 0.931 . S
H21 C42 0.929 . S
H22 C51 0.930 . S
H23 C43 0.931 . S
O24 Co0 2.097 . S
O24 C52 1.214 . S
H25 C53 0.929 . S
H26 C54 0.929 1_556 S
H27 C55 0.930 . S
H28 C56 0.929 . S
H29 C58 0.930 . S
H30 C35 0.930 . S
H31 C39 0.930 . S
O32 Co1 2.037 . S
O32 C52 1.234 . S
C33 O7 1.269 . S
C33 O8 1.257 . S
C34 H9 0.930 . S
C34 C37 1.388 . S
C34 C39 1.418 . S
C35 H30 0.930 . S
C35 C38 1.404 . S
C35 C39 1.353 . S
N36 Co1 2.145 1_556 S
N36 C37 1.397 . S
N36 C38 1.334 . S
C37 H18 0.929 . S
C37 C34 1.388 . S
C37 N36 1.397 . S
C38 H19 0.929 . S
C38 C35 1.404 . S
C38 N36 1.334 . S
C39 H31 0.930 . S
C39 C34 1.418 . S
C39 C35 1.353 . S
C40 H10 0.930 . S
C40 N41 1.330 . S
C40 C42 1.446 . S
N41 Co0 2.151 . S
N41 C40 1.330 . S
N41 C45 1.418 . S
C42 H21 0.929 . S
C42 C40 1.446 . S
C42 C43 1.332 . S
C43 H23 0.931 . S
C43 C42 1.332 . S
C43 C44 1.267 . S
C44 H12 0.929 . S
C44 C43 1.267 . S
C44 C45 1.251 . S
C45 H15 0.929 . S
C45 N41 1.418 . S
C45 C44 1.251 . S
C46 H13 0.930 . S
C46 C48 1.406 . S
C46 C51 1.261 . S
C47 H14 0.930 . S
C47 N49 1.325 . S
C47 C50 1.357 . S
C48 H16 0.928 . S
C48 C46 1.406 . S
C48 N49 1.261 . S
N49 Co0 2.214 . S
N49 C47 1.325 . S
N49 C48 1.261 . S
C50 H20 0.931 . S
C50 C47 1.357 . S
C50 C51 1.312 . S
C51 H22 0.930 . S
C51 C46 1.261 . S
C51 C50 1.312 . S
C52 O24 1.214 . S
C52 O32 1.234 . S
C53 H25 0.929 . S
C53 C56 1.391 . S
C53 C58 1.391 . S
C54 H26 0.929 1_554 S
C54 C55 1.390 . S
C54 N57 1.391 . S
C55 H27 0.930 . S
C55 C54 1.390 . S
C55 C56 1.392 . S
C56 H28 0.929 . S
C56 C53 1.391 . S
C56 C55 1.392 . S
N57 Co1 2.257 . S
N57 C54 1.391 . S
N57 C58 1.388 . S
C58 H29 0.930 . S
C58 C53 1.391 . S
C58 N57 1.388 . S
Co59 O61 2.143 . S
Co59 O67 2.074 . S
Co59 O70 2.093 . S
Co59 O83 2.097 . S
Co59 N100 2.151 . S
Co59 N108 2.214 . S
Co60 O61 2.160 . S
Co60 O66 2.058 . S
Co60 O76 2.062 . S
Co60 O91 2.037 . S
Co60 N95 2.145 1_554 S
Co60 N116 2.257 . S
O61 Co59 2.143 . S
O61 Co60 2.160 . S
C62 O63 1.278 . S
C62 O70 1.224 . S
O63 C62 1.278 . S
C64 O65 1.245 . S
C64 O76 1.248 . S
O65 C64 1.245 . S
O66 Co60 2.058 . S
O66 C92 1.269 . S
O67 Co59 2.074 . S
O67 C92 1.257 . S
H68 C93 0.930 . S
H69 C99 0.930 . S
O70 Co59 2.093 . S
O70 C62 1.224 . S
H71 C103 0.929 . S
H72 C105 0.930 . S
H73 C106 0.930 . S
H74 C104 0.929 . S
H75 C107 0.928 . S
O76 Co60 2.062 . S
O76 C64 1.248 . S
H77 C96 0.929 . S
H78 C97 0.929 . S
H79 C109 0.931 . S
H80 C101 0.929 . S
H81 C110 0.930 . S
H82 C102 0.931 . S
O83 Co59 2.097 . S
O83 C111 1.214 . S
H84 C112 0.929 . S
H85 C113 0.929 1_556 S
H86 C114 0.930 . S
H87 C115 0.929 . S
H88 C117 0.930 . S
H89 C94 0.930 . S
H90 C98 0.930 . S
O91 Co60 2.037 . S
O91 C111 1.234 . S
C92 O66 1.269 . S
C92 O67 1.257 . S
C93 H68 0.930 . S
C93 C96 1.388 . S
C93 C98 1.418 . S
C94 H89 0.930 . S
C94 C97 1.404 . S
C94 C98 1.353 . S
N95 Co60 2.145 1_556 S
N95 C96 1.397 . S
N95 C97 1.334 . S
C96 H77 0.929 . S
C96 C93 1.388 . S
C96 N95 1.397 . S
C97 H78 0.929 . S
C97 C94 1.404 . S
C97 N95 1.334 . S
C98 H90 0.930 . S
C98 C93 1.418 . S
C98 C94 1.353 . S
C99 H69 0.930 . S
C99 N100 1.330 . S
C99 C101 1.446 . S
N100 Co59 2.151 . S
N100 C99 1.330 . S
N100 C104 1.418 . S
C101 H80 0.929 . S
C101 C99 1.446 . S
C101 C102 1.332 . S
C102 H82 0.931 . S
C102 C101 1.332 . S
C102 C103 1.267 . S
C103 H71 0.929 . S
C103 C102 1.267 . S
C103 C104 1.251 . S
C104 H74 0.929 . S
C104 N100 1.418 . S
C104 C103 1.251 . S
C105 H72 0.930 . S
C105 C107 1.406 . S
C105 C110 1.261 . S
C106 H73 0.930 . S
C106 N108 1.325 . S
C106 C109 1.357 . S
C107 H75 0.928 . S
C107 C105 1.406 . S
C107 N108 1.261 . S
N108 Co59 2.214 . S
N108 C106 1.325 . S
N108 C107 1.261 . S
C109 H79 0.931 . S
C109 C106 1.357 . S
C109 C110 1.312 . S
C110 H81 0.930 . S
C110 C105 1.261 . S
C110 C109 1.312 . S
C111 O83 1.214 . S
C111 O91 1.234 . S
C112 H84 0.929 . S
C112 C115 1.391 . S
C112 C117 1.391 . S
C113 H85 0.929 1_554 S
C113 C114 1.390 . S
C113 N116 1.391 . S
C114 H86 0.930 . S
C114 C113 1.390 . S
C114 C115 1.392 . S
C115 H87 0.929 . S
C115 C112 1.391 . S
C115 C114 1.392 . S
N116 Co60 2.257 . S
N116 C113 1.391 . S
N116 C117 1.388 . S
C117 H88 0.930 . S
C117 C112 1.391 . S
C117 N116 1.388 . S
Co118 O120 2.143 . S
Co118 O126 2.074 . S
Co118 O129 2.093 . S
Co118 O142 2.097 . S
Co118 N159 2.151 . S
Co118 N167 2.214 . S
Co119 O120 2.160 . S
Co119 O125 2.058 . S
Co119 O135 2.057 . S
Co119 O150 2.037 . S
Co119 N154 2.145 . S
Co119 N175 2.257 . S
O120 Co118 2.143 . S
O120 Co119 2.160 . S
C121 O122 1.278 . S
C121 O129 1.224 . S
O122 C121 1.278 . S
C123 O124 1.245 . S
C123 O135 1.232 . S
O124 C123 1.245 . S
O125 Co119 2.058 . S
O125 C151 1.269 . S
O126 Co118 2.074 . S
O126 C151 1.257 . S
H127 C152 0.930 . S
H128 C158 0.930 . S
O129 Co118 2.093 . S
O129 C121 1.224 . S
H130 C162 0.929 . S
H131 C164 0.930 . S
H132 C165 0.930 . S
H133 C163 0.929 . S
H134 C166 0.928 . S
O135 Co119 2.057 . S
O135 C123 1.232 . S
H136 C155 0.929 . S
H137 C156 0.929 . S
H138 C168 0.931 . S
H139 C160 0.929 . S
H140 C169 0.930 . S
H141 C161 0.931 1_565 S
O142 Co118 2.097 . S
O142 C170 1.214 . S
H143 C171 0.929 . S
H144 C172 0.929 . S
H145 C173 0.930 . S
H146 C174 0.929 . S
H147 C176 0.930 . S
H148 C153 0.930 . S
H149 C157 0.930 . S
O150 Co119 2.037 . S
O150 C170 1.234 . S
C151 O125 1.269 . S
C151 O126 1.257 . S
C152 H127 0.930 . S
C152 C155 1.388 . S
C152 C157 1.418 . S
C153 H148 0.930 . S
C153 C156 1.404 . S
C153 C157 1.353 . S
N154 Co119 2.145 . S
N154 C155 1.397 . S
N154 C156 1.334 . S
C155 H136 0.929 . S
C155 C152 1.388 . S
C155 N154 1.397 . S
C156 H137 0.929 . S
C156 C153 1.404 . S
C156 N154 1.334 . S
C157 H149 0.930 . S
C157 C152 1.418 . S
C157 C153 1.353 . S
C158 H128 0.930 . S
C158 N159 1.330 . S
C158 C160 1.446 . S
N159 Co118 2.151 . S
N159 C158 1.330 . S
N159 C163 1.418 . S
C160 H139 0.929 . S
C160 C158 1.446 . S
C160 C161 1.332 . S
C161 H141 0.931 1_545 S
C161 C160 1.332 . S
C161 C162 1.267 . S
C162 H130 0.929 . S
C162 C161 1.267 . S
C162 C163 1.251 . S
C163 H133 0.929 . S
C163 N159 1.418 . S
C163 C162 1.251 . S
C164 H131 0.930 . S
C164 C166 1.406 . S
C164 C169 1.261 . S
C165 H132 0.930 . S
C165 N167 1.325 . S
C165 C168 1.357 . S
C166 H134 0.928 . S
C166 C164 1.406 . S
C166 N167 1.261 . S
N167 Co118 2.214 . S
N167 C165 1.325 . S
N167 C166 1.261 . S
C168 H138 0.931 . S
C168 C165 1.357 . S
C168 C169 1.312 . S
C169 H140 0.930 . S
C169 C164 1.261 . S
C169 C168 1.312 . S
C170 O142 1.214 . S
C170 O150 1.234 . S
C171 H143 0.929 . S
C171 C174 1.391 . S
C171 C176 1.391 . S
C172 H144 0.929 . S
C172 C173 1.390 . S
C172 N175 1.391 . S
C173 H145 0.930 . S
C173 C172 1.390 . S
C173 C174 1.392 . S
C174 H146 0.929 . S
C174 C171 1.391 . S
C174 C173 1.392 . S
N175 Co119 2.257 . S
N175 C172 1.391 . S
N175 C176 1.388 . S
C176 H147 0.930 . S
C176 C171 1.391 . S
C176 N175 1.388 . S
Co177 O179 2.143 . S
Co177 O185 2.074 . S
Co177 O188 2.093 . S
Co177 O201 2.097 . S
Co177 N218 2.151 . S
Co177 N226 2.214 . S
Co178 O179 2.160 . S
Co178 O184 2.058 . S
Co178 O194 2.057 . S
Co178 O209 2.037 . S
Co178 N213 2.145 . S
Co178 N234 2.257 . S
O179 Co177 2.143 . S
O179 Co178 2.160 . S
C180 O181 1.278 . S
C180 O188 1.224 . S
O181 C180 1.278 . S
C182 O183 1.245 . S
C182 O194 1.232 . S
O183 C182 1.245 . S
O184 Co178 2.058 . S
O184 C210 1.269 . S
O185 Co177 2.074 . S
O185 C210 1.257 . S
H186 C211 0.930 . S
H187 C217 0.930 . S
O188 Co177 2.093 . S
O188 C180 1.224 . S
H189 C221 0.929 . S
H190 C223 0.930 . S
H191 C224 0.930 . S
H192 C222 0.929 . S
H193 C225 0.928 . S
O194 Co178 2.057 . S
O194 C182 1.232 . S
H195 C214 0.929 . S
H196 C215 0.929 . S
H197 C227 0.931 . S
H198 C219 0.929 . S
H199 C228 0.930 . S
H200 C220 0.931 1_545 S
O201 Co177 2.097 . S
O201 C229 1.214 . S
H202 C230 0.929 . S
H203 C231 0.929 . S
H204 C232 0.930 . S
H205 C233 0.929 . S
H206 C235 0.930 . S
H207 C212 0.930 . S
H208 C216 0.930 . S
O209 Co178 2.037 . S
O209 C229 1.234 . S
C210 O184 1.269 . S
C210 O185 1.257 . S
C211 H186 0.930 . S
C211 C214 1.388 . S
C211 C216 1.418 . S
C212 H207 0.930 . S
C212 C215 1.404 . S
C212 C216 1.353 . S
N213 Co178 2.145 . S
N213 C214 1.397 . S
N213 C215 1.334 . S
C214 H195 0.929 . S
C214 C211 1.388 . S
C214 N213 1.397 . S
C215 H196 0.929 . S
C215 C212 1.404 . S
C215 N213 1.334 . S
C216 H208 0.930 . S
C216 C211 1.418 . S
C216 C212 1.353 . S
C217 H187 0.930 . S
C217 N218 1.330 . S
C217 C219 1.446 . S
N218 Co177 2.151 . S
N218 C217 1.330 . S
N218 C222 1.418 . S
C219 H198 0.929 . S
C219 C217 1.446 . S
C219 C220 1.332 . S
C220 H200 0.931 1_565 S
C220 C219 1.332 . S
C220 C221 1.267 . S
C221 H189 0.929 . S
C221 C220 1.267 . S
C221 C222 1.251 . S
C222 H192 0.929 . S
C222 N218 1.418 . S
C222 C221 1.251 . S
C223 H190 0.930 . S
C223 C225 1.406 . S
C223 C228 1.261 . S
C224 H191 0.930 . S
C224 N226 1.325 . S
C224 C227 1.357 . S
C225 H193 0.928 . S
C225 C223 1.406 . S
C225 N226 1.261 . S
N226 Co177 2.214 . S
N226 C224 1.325 . S
N226 C225 1.261 . S
C227 H197 0.931 . S
C227 C224 1.357 . S
C227 C228 1.312 . S
C228 H199 0.930 . S
C228 C223 1.261 . S
C228 C227 1.312 . S
C229 O201 1.214 . S
C229 O209 1.234 . S
C230 H202 0.929 . S
C230 C233 1.391 . S
C230 C235 1.391 . S
C231 H203 0.929 . S
C231 C232 1.390 . S
C231 N234 1.391 . S
C232 H204 0.930 . S
C232 C231 1.390 . S
C232 C233 1.392 . S
C233 H205 0.929 . S
C233 C230 1.391 . S
C233 C232 1.392 . S
N234 Co178 2.257 . S
N234 C231 1.391 . S
N234 C235 1.388 . S
C235 H206 0.930 . S
C235 C230 1.391 . S
C235 N234 1.388 . S
Co236 O238 2.143 . S
Co236 O244 2.074 . S
Co236 O247 2.093 . S
Co236 O260 2.097 . S
Co236 N277 2.151 . S
Co236 N285 2.214 . S
Co237 O238 2.160 . S
Co237 O243 2.058 . S
Co237 O253 2.062 . S
Co237 O268 2.037 . S
Co237 N272 2.145 1_556 S
Co237 N293 2.257 . S
O238 Co236 2.143 . S
O238 Co237 2.160 . S
C239 O240 1.278 . S
C239 O247 1.224 . S
O240 C239 1.278 . S
C241 O242 1.245 . S
C241 O253 1.248 . S
O242 C241 1.245 . S
O243 Co237 2.058 . S
O243 C269 1.269 . S
O244 Co236 2.074 . S
O244 C269 1.257 . S
H245 C270 0.930 . S
H246 C276 0.930 . S
O247 Co236 2.093 . S
O247 C239 1.224 . S
H248 C280 0.929 . S
H249 C282 0.930 . S
H250 C283 0.930 . S
H251 C281 0.929 . S
H252 C284 0.928 . S
O253 Co237 2.062 . S
O253 C241 1.248 . S
H254 C273 0.929 . S
H255 C274 0.929 . S
H256 C286 0.931 . S
H257 C278 0.929 . S
H258 C287 0.930 . S
H259 C279 0.931 . S
O260 Co236 2.097 . S
O260 C288 1.214 . S
H261 C289 0.929 . S
H262 C290 0.929 1_554 S
H263 C291 0.930 . S
H264 C292 0.929 . S
H265 C294 0.930 . S
H266 C271 0.930 . S
H267 C275 0.930 . S
O268 Co237 2.037 . S
O268 C288 1.234 . S
C269 O243 1.269 . S
C269 O244 1.257 . S
C270 H245 0.930 . S
C270 C273 1.388 . S
C270 C275 1.418 . S
C271 H266 0.930 . S
C271 C274 1.404 . S
C271 C275 1.353 . S
N272 Co237 2.145 1_554 S
N272 C273 1.397 . S
N272 C274 1.334 . S
C273 H254 0.929 . S
C273 C270 1.388 . S
C273 N272 1.397 . S
C274 H255 0.929 . S
C274 C271 1.404 . S
C274 N272 1.334 . S
C275 H267 0.930 . S
C275 C270 1.418 . S
C275 C271 1.353 . S
C276 H246 0.930 . S
C276 N277 1.330 . S
C276 C278 1.446 . S
N277 Co236 2.151 . S
N277 C276 1.330 . S
N277 C281 1.418 . S
C278 H257 0.929 . S
C278 C276 1.446 . S
C278 C279 1.332 . S
C279 H259 0.931 . S
C279 C278 1.332 . S
C279 C280 1.267 . S
C280 H248 0.929 . S
C280 C279 1.267 . S
C280 C281 1.251 . S
C281 H251 0.929 . S
C281 N277 1.418 . S
C281 C280 1.251 . S
C282 H249 0.930 . S
C282 C284 1.406 . S
C282 C287 1.261 . S
C283 H250 0.930 . S
C283 N285 1.325 . S
C283 C286 1.357 . S
C284 H252 0.928 . S
C284 C282 1.406 . S
C284 N285 1.261 . S
N285 Co236 2.214 . S
N285 C283 1.325 . S
N285 C284 1.261 . S
C286 H256 0.931 . S
C286 C283 1.357 . S
C286 C287 1.312 . S
C287 H258 0.930 . S
C287 C282 1.261 . S
C287 C286 1.312 . S
C288 O260 1.214 . S
C288 O268 1.234 . S
C289 H261 0.929 . S
C289 C292 1.391 . S
C289 C294 1.391 . S
C290 H262 0.929 1_556 S
C290 C291 1.390 . S
C290 N293 1.391 . S
C291 H263 0.930 . S
C291 C290 1.390 . S
C291 C292 1.392 . S
C292 H264 0.929 . S
C292 C289 1.391 . S
C292 C291 1.392 . S
N293 Co237 2.257 . S
N293 C290 1.391 . S
N293 C294 1.388 . S
C294 H265 0.930 . S
C294 C289 1.391 . S
C294 N293 1.388 . S
Co295 O297 2.143 . S
Co295 O303 2.074 . S
Co295 O306 2.093 . S
Co295 O319 2.097 . S
Co295 N336 2.151 . S
Co295 N344 2.214 . S
Co296 O297 2.160 . S
Co296 O302 2.058 . S
Co296 O312 2.062 . S
Co296 O327 2.037 . S
Co296 N331 2.145 1_556 S
Co296 N352 2.257 . S
O297 Co295 2.143 . S
O297 Co296 2.160 . S
C298 O299 1.278 . S
C298 O306 1.224 . S
O299 C298 1.278 . S
C300 O301 1.245 . S
C300 O312 1.248 . S
O301 C300 1.245 . S
O302 Co296 2.058 . S
O302 C328 1.269 . S
O303 Co295 2.074 . S
O303 C328 1.257 . S
H304 C329 0.930 . S
H305 C335 0.930 . S
O306 Co295 2.093 . S
O306 C298 1.224 . S
H307 C339 0.929 . S
H308 C341 0.930 . S
H309 C342 0.930 . S
H310 C340 0.929 . S
H311 C343 0.928 . S
O312 Co296 2.062 . S
O312 C300 1.248 . S
H313 C332 0.929 . S
H314 C333 0.929 . S
H315 C345 0.931 . S
H316 C337 0.929 . S
H317 C346 0.930 . S
H318 C338 0.931 . S
O319 Co295 2.097 . S
O319 C347 1.214 . S
H320 C348 0.929 . S
H321 C349 0.929 1_554 S
H322 C350 0.930 . S
H323 C351 0.929 . S
H324 C353 0.930 . S
H325 C330 0.930 . S
H326 C334 0.930 . S
O327 Co296 2.037 . S
O327 C347 1.234 . S
C328 O302 1.269 . S
C328 O303 1.257 . S
C329 H304 0.930 . S
C329 C332 1.388 . S
C329 C334 1.418 . S
C330 H325 0.930 . S
C330 C333 1.404 . S
C330 C334 1.353 . S
N331 Co296 2.145 1_554 S
N331 C332 1.397 . S
N331 C333 1.334 . S
C332 H313 0.929 . S
C332 C329 1.388 . S
C332 N331 1.397 . S
C333 H314 0.929 . S
C333 C330 1.404 . S
C333 N331 1.334 . S
C334 H326 0.930 . S
C334 C329 1.418 . S
C334 C330 1.353 . S
C335 H305 0.930 . S
C335 N336 1.330 . S
C335 C337 1.446 . S
N336 Co295 2.151 . S
N336 C335 1.330 . S
N336 C340 1.418 . S
C337 H316 0.929 . S
C337 C335 1.446 . S
C337 C338 1.332 . S
C338 H318 0.931 . S
C338 C337 1.332 . S
C338 C339 1.267 . S
C339 H307 0.929 . S
C339 C338 1.267 . S
C339 C340 1.251 . S
C340 H310 0.929 . S
C340 N336 1.418 . S
C340 C339 1.251 . S
C341 H308 0.930 . S
C341 C343 1.406 . S
C341 C346 1.261 . S
C342 H309 0.930 . S
C342 N344 1.325 . S
C342 C345 1.357 . S
C343 H311 0.928 . S
C343 C341 1.406 . S
C343 N344 1.261 . S
N344 Co295 2.214 . S
N344 C342 1.325 . S
N344 C343 1.261 . S
C345 H315 0.931 . S
C345 C342 1.357 . S
C345 C346 1.312 . S
C346 H317 0.930 . S
C346 C341 1.261 . S
C346 C345 1.312 . S
C347 O319 1.214 . S
C347 O327 1.234 . S
C348 H320 0.929 . S
C348 C351 1.391 . S
C348 C353 1.391 . S
C349 H321 0.929 1_556 S
C349 C350 1.390 . S
C349 N352 1.391 . S
C350 H322 0.930 . S
C350 C349 1.390 . S
C350 C351 1.392 . S
C351 H323 0.929 . S
C351 C348 1.391 . S
C351 C350 1.392 . S
N352 Co296 2.257 . S
N352 C349 1.391 . S
N352 C353 1.388 . S
C353 H324 0.930 . S
C353 C348 1.391 . S
C353 N352 1.388 . S
Co354 O356 2.143 . S
Co354 O362 2.074 . S
Co354 O365 2.093 . S
Co354 O378 2.097 . S
Co354 N395 2.151 . S
Co354 N403 2.214 . S
Co355 O356 2.160 . S
Co355 O361 2.058 . S
Co355 O371 2.057 . S
Co355 O386 2.037 . S
Co355 N390 2.145 . S
Co355 N411 2.257 . S
O356 Co354 2.143 . S
O356 Co355 2.160 . S
C357 O358 1.278 . S
C357 O365 1.224 . S
O358 C357 1.278 . S
C359 O360 1.245 . S
C359 O371 1.232 . S
O360 C359 1.245 . S
O361 Co355 2.058 . S
O361 C387 1.269 . S
O362 Co354 2.074 . S
O362 C387 1.257 . S
H363 C388 0.930 . S
H364 C394 0.930 . S
O365 Co354 2.093 . S
O365 C357 1.224 . S
H366 C398 0.929 . S
H367 C400 0.930 . S
H368 C401 0.930 . S
H369 C399 0.929 . S
H370 C402 0.928 . S
O371 Co355 2.057 . S
O371 C359 1.232 . S
H372 C391 0.929 . S
H373 C392 0.929 . S
H374 C404 0.931 . S
H375 C396 0.929 . S
H376 C405 0.930 . S
H377 C397 0.931 1_545 S
O378 Co354 2.097 . S
O378 C406 1.214 . S
H379 C407 0.929 . S
H380 C408 0.929 . S
H381 C409 0.930 . S
H382 C410 0.929 . S
H383 C412 0.930 . S
H384 C389 0.930 . S
H385 C393 0.930 . S
O386 Co355 2.037 . S
O386 C406 1.234 . S
C387 O361 1.269 . S
C387 O362 1.257 . S
C388 H363 0.930 . S
C388 C391 1.388 . S
C388 C393 1.418 . S
C389 H384 0.930 . S
C389 C392 1.404 . S
C389 C393 1.353 . S
N390 Co355 2.145 . S
N390 C391 1.397 . S
N390 C392 1.334 . S
C391 H372 0.929 . S
C391 C388 1.388 . S
C391 N390 1.397 . S
C392 H373 0.929 . S
C392 C389 1.404 . S
C392 N390 1.334 . S
C393 H385 0.930 . S
C393 C388 1.418 . S
C393 C389 1.353 . S
C394 H364 0.930 . S
C394 N395 1.330 . S
C394 C396 1.446 . S
N395 Co354 2.151 . S
N395 C394 1.330 . S
N395 C399 1.418 . S
C396 H375 0.929 . S
C396 C394 1.446 . S
C396 C397 1.332 . S
C397 H377 0.931 1_565 S
C397 C396 1.332 . S
C397 C398 1.267 . S
C398 H366 0.929 . S
C398 C397 1.267 . S
C398 C399 1.251 . S
C399 H369 0.929 . S
C399 N395 1.418 . S
C399 C398 1.251 . S
C400 H367 0.930 . S
C400 C402 1.406 . S
C400 C405 1.261 . S
C401 H368 0.930 . S
C401 N403 1.325 . S
C401 C404 1.357 . S
C402 H370 0.928 . S
C402 C400 1.406 . S
C402 N403 1.261 . S
N403 Co354 2.214 . S
N403 C401 1.325 . S
N403 C402 1.261 . S
C404 H374 0.931 . S
C404 C401 1.357 . S
C404 C405 1.312 . S
C405 H376 0.930 . S
C405 C400 1.261 . S
C405 C404 1.312 . S
C406 O378 1.214 . S
C406 O386 1.234 . S
C407 H379 0.929 . S
C407 C410 1.391 . S
C407 C412 1.391 . S
C408 H380 0.929 . S
C408 C409 1.390 . S
C408 N411 1.391 . S
C409 H381 0.930 . S
C409 C408 1.390 . S
C409 C410 1.392 . S
C410 H382 0.929 . S
C410 C407 1.391 . S
C410 C409 1.392 . S
N411 Co355 2.257 . S
N411 C408 1.391 . S
N411 C412 1.388 . S
C412 H383 0.930 . S
C412 C407 1.391 . S
C412 N411 1.388 . S
Co413 O415 2.143 . S
Co413 O421 2.074 . S
Co413 O424 2.093 . S
Co413 O437 2.097 . S
Co413 N454 2.151 . S
Co413 N462 2.214 . S
Co414 O415 2.160 . S
Co414 O420 2.058 . S
Co414 O430 2.057 . S
Co414 O445 2.037 . S
Co414 N449 2.145 . S
Co414 N470 2.257 . S
O415 Co413 2.143 . S
O415 Co414 2.160 . S
C416 O417 1.278 . S
C416 O424 1.224 . S
O417 C416 1.278 . S
C418 O419 1.245 . S
C418 O430 1.232 . S
O419 C418 1.245 . S
O420 Co414 2.058 . S
O420 C446 1.269 . S
O421 Co413 2.074 . S
O421 C446 1.257 . S
H422 C447 0.930 . S
H423 C453 0.930 . S
O424 Co413 2.093 . S
O424 C416 1.224 . S
H425 C457 0.929 . S
H426 C459 0.930 . S
H427 C460 0.930 . S
H428 C458 0.929 . S
H429 C461 0.928 . S
O430 Co414 2.057 . S
O430 C418 1.232 . S
H431 C450 0.929 . S
H432 C451 0.929 . S
H433 C463 0.931 . S
H434 C455 0.929 . S
H435 C464 0.930 . S
H436 C456 0.931 1_565 S
O437 Co413 2.097 . S
O437 C465 1.214 . S
H438 C466 0.929 . S
H439 C467 0.929 . S
H440 C468 0.930 . S
H441 C469 0.929 . S
H442 C471 0.930 . S
H443 C448 0.930 . S
H444 C452 0.930 . S
O445 Co414 2.037 . S
O445 C465 1.234 . S
C446 O420 1.269 . S
C446 O421 1.257 . S
C447 H422 0.930 . S
C447 C450 1.388 . S
C447 C452 1.418 . S
C448 H443 0.930 . S
C448 C451 1.404 . S
C448 C452 1.353 . S
N449 Co414 2.145 . S
N449 C450 1.397 . S
N449 C451 1.334 . S
C450 H431 0.929 . S
C450 C447 1.388 . S
C450 N449 1.397 . S
C451 H432 0.929 . S
C451 C448 1.404 . S
C451 N449 1.334 . S
C452 H444 0.930 . S
C452 C447 1.418 . S
C452 C448 1.353 . S
C453 H423 0.930 . S
C453 N454 1.330 . S
C453 C455 1.446 . S
N454 Co413 2.151 . S
N454 C453 1.330 . S
N454 C458 1.418 . S
C455 H434 0.929 . S
C455 C453 1.446 . S
C455 C456 1.332 . S
C456 H436 0.931 1_545 S
C456 C455 1.332 . S
C456 C457 1.267 . S
C457 H425 0.929 . S
C457 C456 1.267 . S
C457 C458 1.251 . S
C458 H428 0.929 . S
C458 N454 1.418 . S
C458 C457 1.251 . S
C459 H426 0.930 . S
C459 C461 1.406 . S
C459 C464 1.261 . S
C460 H427 0.930 . S
C460 N462 1.325 . S
C460 C463 1.357 . S
C461 H429 0.928 . S
C461 C459 1.406 . S
C461 N462 1.261 . S
N462 Co413 2.214 . S
N462 C460 1.325 . S
N462 C461 1.261 . S
C463 H433 0.931 . S
C463 C460 1.357 . S
C463 C464 1.312 . S
C464 H435 0.930 . S
C464 C459 1.261 . S
C464 C463 1.312 . S
C465 O437 1.214 . S
C465 O445 1.234 . S
C466 H438 0.929 . S
C466 C469 1.391 . S
C466 C471 1.391 . S
C467 H439 0.929 . S
C467 C468 1.390 . S
C467 N470 1.391 . S
C468 H440 0.930 . S
C468 C467 1.390 . S
C468 C469 1.392 . S
C469 H441 0.929 . S
C469 C466 1.391 . S
C469 C468 1.392 . S
N470 Co414 2.257 . S
N470 C467 1.391 . S
N470 C471 1.388 . S
C471 H442 0.930 . S
C471 C466 1.391 . S
C471 N470 1.388 . S
H472 C484 0.930 . S
H473 C486 0.930 . S
H474 C487 0.930 . S
H475 C491 0.959 . S
H476 C491 0.959 . S
H477 C491 0.961 . S
H478 C492 0.960 . S
H479 C492 0.961 . S
H480 C492 0.959 . S
H481 C495 0.929 . S
H482 C496 0.931 . S
H483 C498 0.930 . S
C484 H472 0.930 . S
C484 C485 1.399 . S
C484 C489 1.399 . S
C485 C484 1.399 . S
C485 C486 1.376 . S
C486 H473 0.930 . S
C486 C485 1.376 . S
C486 C487 1.388 1_545 S
C487 H474 0.930 . S
C487 C486 1.388 1_565 S
C487 C488 1.390 . S
C488 C487 1.390 . S
C488 C489 1.394 1_565 S
C488 C494 1.465 . S
C489 C484 1.399 . S
C489 C488 1.394 1_545 S
C489 C490 1.516 . S
C490 C489 1.516 . S
C490 C491 1.502 . S
C490 C492 1.561 1_554 S
C490 C493 1.526 1_545 S
C491 H475 0.959 . S
C491 H476 0.959 . S
C491 H477 0.961 . S
C491 C490 1.502 . S
C492 H478 0.960 . S
C492 H479 0.961 . S
C492 H480 0.959 . S
C492 C490 1.561 1_556 S
C493 C490 1.526 1_565 S
C493 C494 1.396 . S
C493 C498 1.390 . S
C494 C488 1.465 . S
C494 C493 1.396 . S
C494 C495 1.399 . S
C495 H481 0.929 . S
C495 C494 1.399 . S
C495 C496 1.385 . S
C496 H482 0.931 . S
C496 C495 1.385 . S
C496 C497 1.389 . S
C497 C496 1.389 . S
C497 C498 1.387 . S
C498 H483 0.930 . S
C498 C493 1.390 . S
C498 C497 1.387 . S
H499 C511 0.930 . S
H500 C513 0.930 . S
H501 C514 0.930 . S
H502 C518 0.959 . S
H503 C518 0.959 . S
H504 C518 0.961 . S
H505 C519 0.960 . S
H506 C519 0.961 . S
H507 C519 0.959 . S
H508 C522 0.929 . S
H509 C523 0.931 . S
H510 C525 0.930 . S
C511 H499 0.930 . S
C511 C512 1.399 . S
C511 C516 1.399 . S
C512 C511 1.399 . S
C512 C513 1.376 . S
C513 H500 0.930 . S
C513 C512 1.376 . S
C513 C514 1.388 . S
C514 H501 0.930 . S
C514 C513 1.388 . S
C514 C515 1.390 . S
C515 C514 1.390 . S
C515 C516 1.394 . S
C515 C521 1.465 . S
C516 C511 1.399 . S
C516 C515 1.394 . S
C516 C517 1.516 . S
C517 C516 1.516 . S
C517 C518 1.502 . S
C517 C519 1.561 . S
C517 C520 1.526 . S
C518 H502 0.959 . S
C518 H503 0.959 . S
C518 H504 0.961 . S
C518 C517 1.502 . S
C519 H505 0.960 . S
C519 H506 0.961 . S
C519 H507 0.959 . S
C519 C517 1.561 . S
C520 C517 1.526 . S
C520 C521 1.396 . S
C520 C525 1.390 . S
C521 C515 1.465 . S
C521 C520 1.396 . S
C521 C522 1.399 . S
C522 H508 0.929 . S
C522 C521 1.399 . S
C522 C523 1.385 . S
C523 H509 0.931 . S
C523 C522 1.385 . S
C523 C524 1.389 . S
C524 C523 1.389 . S
C524 C525 1.387 . S
C525 H510 0.930 . S
C525 C520 1.390 . S
C525 C524 1.387 . S
H526 C538 0.930 . S
H527 C540 0.930 . S
H528 C541 0.930 1_545 S
H529 C545 0.959 . S
H530 C545 0.959 . S
H531 C545 0.961 . S
H532 C546 0.960 . S
H533 C546 0.961 . S
H534 C546 0.959 . S
H535 C549 0.929 . S
H536 C550 0.931 . S
H537 C552 0.930 . S
C538 H526 0.930 . S
C538 C539 1.399 . S
C538 C543 1.399 . S
C539 C538 1.399 . S
C539 C540 1.376 . S
C540 H527 0.930 . S
C540 C539 1.376 . S
C540 C541 1.388 . S
C541 H528 0.930 1_565 S
C541 C540 1.388 . S
C541 C542 1.390 . S
C542 C541 1.390 . S
C542 C543 1.394 . S
C542 C548 1.465 1_565 S
C543 C538 1.399 . S
C543 C542 1.394 . S
C543 C544 1.516 . S
C544 C543 1.516 . S
C544 C545 1.502 1_556 S
C544 C546 1.561 . S
C544 C547 1.526 1_565 S
C545 H529 0.959 . S
C545 H530 0.959 . S
C545 H531 0.961 . S
C545 C544 1.502 1_554 S
C546 H532 0.960 . S
C546 H533 0.961 . S
C546 H534 0.959 . S
C546 C544 1.561 . S
C547 C544 1.526 1_545 S
C547 C548 1.396 . S
C547 C552 1.390 . S
C548 C542 1.465 1_545 S
C548 C547 1.396 . S
C548 C549 1.399 . S
C549 H535 0.929 . S
C549 C548 1.399 . S
C549 C550 1.385 . S
C550 H536 0.931 . S
C550 C549 1.385 . S
C550 C551 1.389 . S
C551 C550 1.389 . S
C551 C552 1.387 . S
C552 H537 0.930 . S
C552 C547 1.390 . S
C552 C551 1.387 . S
H553 C565 0.930 . S
H554 C567 0.930 . S
H555 C568 0.930 . S
H556 C572 0.959 . S
H557 C572 0.959 . S
H558 C572 0.961 . S
H559 C573 0.960 . S
H560 C573 0.961 . S
H561 C573 0.959 . S
H562 C576 0.929 . S
H563 C577 0.931 . S
H564 C579 0.930 . S
C565 H553 0.930 . S
C565 C566 1.399 . S
C565 C570 1.399 . S
C566 C565 1.399 . S
C566 C567 1.376 . S
C567 H554 0.930 . S
C567 C566 1.376 . S
C567 C568 1.388 . S
C568 H555 0.930 . S
C568 C567 1.388 . S
C568 C569 1.390 . S
C569 C568 1.390 . S
C569 C570 1.394 . S
C569 C575 1.465 . S
C570 C565 1.399 . S
C570 C569 1.394 . S
C570 C571 1.516 . S
C571 C570 1.516 . S
C571 C572 1.502 . S
C571 C573 1.561 . S
C571 C574 1.526 . S
C572 H556 0.959 . S
C572 H557 0.959 . S
C572 H558 0.961 . S
C572 C571 1.502 . S
C573 H559 0.960 . S
C573 H560 0.961 . S
C573 H561 0.959 . S
C573 C571 1.561 . S
C574 C571 1.526 . S
C574 C575 1.396 . S
C574 C579 1.390 . S
C575 C569 1.465 . S
C575 C574 1.396 . S
C575 C576 1.399 . S
C576 H562 0.929 . S
C576 C575 1.399 . S
C576 C577 1.385 . S
C577 H563 0.931 . S
C577 C576 1.385 . S
C577 C578 1.389 . S
C578 C577 1.389 . S
C578 C579 1.387 . S
C579 H564 0.930 . S
C579 C574 1.390 . S
C579 C578 1.387 . S
H580 C592 0.930 . S
H581 C594 0.930 . S
H582 C595 0.930 . S
H583 C599 0.959 . S
H584 C599 0.959 . S
H585 C599 0.961 . S
H586 C600 0.960 . S
H587 C600 0.961 . S
H588 C600 0.959 . S
H589 C603 0.929 . S
H590 C604 0.931 . S
H591 C606 0.930 . S
C592 H580 0.930 . S
C592 C593 1.399 . S
C592 C597 1.399 . S
C593 C592 1.399 . S
C593 C594 1.376 . S
C594 H581 0.930 . S
C594 C593 1.376 . S
C594 C595 1.388 . S
C595 H582 0.930 . S
C595 C594 1.388 . S
C595 C596 1.390 . S
C596 C595 1.390 . S
C596 C597 1.394 . S
C596 C602 1.465 . S
C597 C592 1.399 . S
C597 C596 1.394 . S
C597 C598 1.516 . S
C598 C597 1.516 . S
C598 C599 1.502 . S
C598 C600 1.561 . S
C598 C601 1.526 . S
C599 H583 0.959 . S
C599 H584 0.959 . S
C599 H585 0.961 . S
C599 C598 1.502 . S
C600 H586 0.960 . S
C600 H587 0.961 . S
C600 H588 0.959 . S
C600 C598 1.561 . S
C601 C598 1.526 . S
C601 C602 1.396 . S
C601 C606 1.390 . S
C602 C596 1.465 . S
C602 C601 1.396 . S
C602 C603 1.399 . S
C603 H589 0.929 . S
C603 C602 1.399 . S
C603 C604 1.385 . S
C604 H590 0.931 . S
C604 C603 1.385 . S
C604 C605 1.389 . S
C605 C604 1.389 . S
C605 C606 1.387 . S
C606 H591 0.930 . S
C606 C601 1.390 . S
C606 C605 1.387 . S
H607 C619 0.930 . S
H608 C621 0.930 . S
H609 C622 0.930 . S
H610 C626 0.959 . S
H611 C626 0.959 . S
H612 C626 0.961 . S
H613 C627 0.960 . S
H614 C627 0.961 . S
H615 C627 0.959 . S
H616 C630 0.929 . S
H617 C631 0.931 . S
H618 C633 0.930 . S
C619 H607 0.930 . S
C619 C620 1.399 . S
C619 C624 1.399 . S
C620 C619 1.399 . S
C620 C621 1.376 . S
C621 H608 0.930 . S
C621 C620 1.376 . S
C621 C622 1.388 . S
C622 H609 0.930 . S
C622 C621 1.388 . S
C622 C623 1.390 . S
C623 C622 1.390 . S
C623 C624 1.394 . S
C623 C629 1.465 . S
C624 C619 1.399 . S
C624 C623 1.394 . S
C624 C625 1.516 . S
C625 C624 1.516 . S
C625 C626 1.502 . S
C625 C627 1.561 . S
C625 C628 1.526 . S
C626 H610 0.959 . S
C626 H611 0.959 . S
C626 H612 0.961 . S
C626 C625 1.502 . S
C627 H613 0.960 . S
C627 H614 0.961 . S
C627 H615 0.959 . S
C627 C625 1.561 . S
C628 C625 1.526 . S
C628 C629 1.396 . S
C628 C633 1.390 . S
C629 C623 1.465 . S
C629 C628 1.396 . S
C629 C630 1.399 . S
C630 H616 0.929 . S
C630 C629 1.399 . S
C630 C631 1.385 . S
C631 H617 0.931 . S
C631 C630 1.385 . S
C631 C632 1.389 . S
C632 C631 1.389 . S
C632 C633 1.387 . S
C633 H618 0.930 . S
C633 C628 1.390 . S
C633 C632 1.387 . S
H634 C646 0.930 . S
H635 C648 0.930 . S
H636 C649 0.930 . S
H637 C653 0.959 . S
H638 C653 0.959 . S
H639 C653 0.961 . S
H640 C654 0.960 . S
H641 C654 0.961 . S
H642 C654 0.959 . S
H643 C657 0.929 . S
H644 C658 0.931 . S
H645 C660 0.930 . S
C646 H634 0.930 . S
C646 C647 1.399 . S
C646 C651 1.399 . S
C647 C646 1.399 . S
C647 C648 1.376 . S
C648 H635 0.930 . S
C648 C647 1.376 . S
C648 C649 1.388 . S
C649 H636 0.930 . S
C649 C648 1.388 . S
C649 C650 1.390 . S
C650 C649 1.390 . S
C650 C651 1.394 . S
C650 C656 1.465 . S
C651 C646 1.399 . S
C651 C650 1.394 . S
C651 C652 1.516 . S
C652 C651 1.516 . S
C652 C653 1.502 . S
C652 C654 1.561 . S
C652 C655 1.526 . S
C653 H637 0.959 . S
C653 H638 0.959 . S
C653 H639 0.961 . S
C653 C652 1.502 . S
C654 H640 0.960 . S
C654 H641 0.961 . S
C654 H642 0.959 . S
C654 C652 1.561 . S
C655 C652 1.526 . S
C655 C656 1.396 . S
C655 C660 1.390 . S
C656 C650 1.465 . S
C656 C655 1.396 . S
C656 C657 1.399 . S
C657 H643 0.929 . S
C657 C656 1.399 . S
C657 C658 1.385 . S
C658 H644 0.931 . S
C658 C657 1.385 . S
C658 C659 1.389 . S
C659 C658 1.389 . S
C659 C660 1.387 . S
C660 H645 0.930 . S
C660 C655 1.390 . S
C660 C659 1.387 . S
H661 C673 0.930 . S
H662 C675 0.930 . S
H663 C676 0.930 . S
H664 C680 0.959 . S
H665 C680 0.959 . S
H666 C680 0.961 . S
H667 C681 0.960 . S
H668 C681 0.961 . S
H669 C681 0.959 . S
H670 C684 0.929 . S
H671 C685 0.931 . S
H672 C687 0.930 . S
C673 H661 0.930 . S
C673 C674 1.399 . S
C673 C678 1.399 . S
C674 C673 1.399 . S
C674 C675 1.376 . S
C675 H662 0.930 . S
C675 C674 1.376 . S
C675 C676 1.388 . S
C676 H663 0.930 . S
C676 C675 1.388 . S
C676 C677 1.390 . S
C677 C676 1.390 . S
C677 C678 1.394 . S
C677 C683 1.465 . S
C678 C673 1.399 . S
C678 C677 1.394 . S
C678 C679 1.516 . S
C679 C678 1.516 . S
C679 C680 1.502 . S
C679 C681 1.561 . S
C679 C682 1.526 . S
C680 H664 0.959 . S
C680 H665 0.959 . S
C680 H666 0.961 . S
C680 C679 1.502 . S
C681 H667 0.960 . S
C681 H668 0.961 . S
C681 H669 0.959 . S
C681 C679 1.561 . S
C682 C679 1.526 . S
C682 C683 1.396 . S
C682 C687 1.390 . S
C683 C677 1.465 . S
C683 C682 1.396 . S
C683 C684 1.399 . S
C684 H670 0.929 . S
C684 C683 1.399 . S
C684 C685 1.385 . S
C685 H671 0.931 . S
C685 C684 1.385 . S
C685 C686 1.389 . S
C686 C685 1.389 . S
C686 C687 1.387 . S
C687 H672 0.930 . S
C687 C682 1.390 . S
C687 C686 1.387 . S
H688 C700 0.930 . S
H689 C702 0.930 . S
H690 C703 0.930 . S
H691 C707 0.959 . S
H692 C707 0.959 . S
H693 C707 0.961 . S
H694 C708 0.960 . S
H695 C708 0.961 . S
H696 C708 0.959 . S
H697 C711 0.929 . S
H698 C712 0.931 . S
H699 C714 0.930 . S
C700 H688 0.930 . S
C700 C701 1.399 . S
C700 C705 1.399 . S
C701 C700 1.399 . S
C701 C702 1.376 1_554 S
C702 H689 0.930 . S
C702 C701 1.376 1_556 S
C702 C703 1.388 . S
C703 H690 0.930 . S
C703 C702 1.388 . S
C703 C704 1.390 . S
C704 C703 1.390 . S
C704 C705 1.394 1_556 S
C704 C710 1.465 . S
C705 C700 1.399 . S
C705 C704 1.394 1_554 S
C705 C706 1.516 . S
C706 C705 1.516 . S
C706 C707 1.502 . S
C706 C708 1.561 . S
C706 C709 1.526 . S
C707 H691 0.959 . S
C707 H692 0.959 . S
C707 H693 0.961 . S
C707 C706 1.502 . S
C708 H694 0.960 . S
C708 H695 0.961 . S
C708 H696 0.959 . S
C708 C706 1.561 . S
C709 C706 1.526 . S
C709 C710 1.396 1_554 S
C709 C714 1.390 . S
C710 C704 1.465 . S
C710 C709 1.396 1_556 S
C710 C711 1.399 . S
C711 H697 0.929 . S
C711 C710 1.399 . S
C711 C712 1.385 . S
C712 H698 0.931 . S
C712 C711 1.385 . S
C712 C713 1.389 . S
C713 C712 1.389 . S
C713 C714 1.387 1_556 S
C714 H699 0.930 . S
C714 C709 1.390 . S
C714 C713 1.387 1_554 S
H715 C727 0.930 . S
H716 C729 0.930 . S
H717 C730 0.930 . S
H718 C734 0.959 . S
H719 C734 0.959 . S
H720 C734 0.961 . S
H721 C735 0.960 . S
H722 C735 0.961 . S
H723 C735 0.959 . S
H724 C738 0.929 . S
H725 C739 0.931 . S
H726 C741 0.930 1_554 S
C727 H715 0.930 . S
C727 C728 1.399 . S
C727 C732 1.399 . S
C728 C727 1.399 . S
C728 C729 1.376 1_554 S
C729 H716 0.930 . S
C729 C728 1.376 1_556 S
C729 C730 1.388 . S
C730 H717 0.930 . S
C730 C729 1.388 . S
C730 C731 1.390 . S
C731 C730 1.390 . S
C731 C732 1.394 1_556 S
C731 C737 1.445 1_455 S
C732 C727 1.399 . S
C732 C731 1.394 1_554 S
C732 C733 1.516 1_455 S
C733 C732 1.516 1_655 S
C733 C734 1.502 . S
C733 C735 1.561 1_554 S
C733 C736 1.526 1_554 S
C734 H718 0.959 . S
C734 H719 0.959 . S
C734 H720 0.961 . S
C734 C733 1.502 . S
C735 H721 0.960 . S
C735 H722 0.961 . S
C735 H723 0.959 . S
C735 C733 1.561 1_556 S
C736 C733 1.526 1_556 S
C736 C737 1.422 . S
C736 C741 1.390 . S
C737 C731 1.445 1_655 S
C737 C736 1.422 . S
C737 C738 1.396 1_655 S
C738 H724 0.929 . S
C738 C737 1.396 1_455 S
C738 C739 1.385 1_455 S
C739 H725 0.931 . S
C739 C738 1.385 1_655 S
C739 C740 1.389 . S
C740 C739 1.389 . S
C740 C741 1.387 . S
C741 H726 0.930 1_556 S
C741 C736 1.390 . S
C741 C740 1.387 . S
H742 C754 0.930 . S
H743 C756 0.930 . S
H744 C757 0.930 . S
H745 C761 0.959 1_565 S
H746 C761 0.959 . S
H747 C761 0.961 . S
H748 C762 0.960 . S
H749 C762 0.961 . S
H750 C762 0.959 . S
H751 C765 0.929 . S
H752 C766 0.931 . S
H753 C768 0.930 . S
C754 H742 0.930 . S
C754 C755 1.399 . S
C754 C759 1.399 . S
C755 C754 1.399 . S
C755 C756 1.376 . S
C756 H743 0.930 . S
C756 C755 1.376 . S
C756 C757 1.388 . S
C757 H744 0.930 . S
C757 C756 1.388 . S
C757 C758 1.390 . S
C758 C757 1.390 . S
C758 C759 1.394 . S
C758 C764 1.465 1_565 S
C759 C754 1.399 . S
C759 C758 1.394 . S
C759 C760 1.516 1_565 S
C760 C759 1.516 1_545 S
C760 C761 1.502 . S
C760 C762 1.561 . S
C760 C763 1.526 . S
C761 H745 0.959 1_545 S
C761 H746 0.959 . S
C761 H747 0.961 . S
C761 C760 1.502 . S
C762 H748 0.960 . S
C762 H749 0.961 . S
C762 H750 0.959 . S
C762 C760 1.561 . S
C763 C760 1.526 . S
C763 C764 1.396 . S
C763 C768 1.390 . S
C764 C758 1.465 1_545 S
C764 C763 1.396 . S
C764 C765 1.399 . S
C765 H751 0.929 . S
C765 C764 1.399 . S
C765 C766 1.385 . S
C766 H752 0.931 . S
C766 C765 1.385 . S
C766 C767 1.389 . S
C767 C766 1.389 . S
C767 C768 1.387 . S
C768 H753 0.930 . S
C768 C763 1.390 . S
C768 C767 1.387 . S
H769 C781 0.930 . S
H770 C783 0.930 . S
H771 C784 0.959 . S
H772 C788 0.959 . S
H773 C788 0.959 . S
H774 C788 0.961 . S
H775 C789 0.960 . S
H776 C789 0.961 . S
H777 C789 0.959 . S
H778 C792 0.929 . S
H779 C793 0.931 . S
H780 C795 0.930 . S
C781 H769 0.930 . S
C781 C782 1.399 . S
C781 C786 1.399 . S
C782 C781 1.399 . S
C782 C783 1.376 . S
C783 H770 0.930 . S
C783 C782 1.376 . S
C783 C784 1.361 1_655 S
C784 H771 0.959 . S
C784 C783 1.361 1_455 S
C784 C785 1.388 1_455 S
C785 C784 1.388 1_655 S
C785 C786 1.394 . S
C785 C791 1.465 1_645 S
C786 C781 1.399 . S
C786 C785 1.394 . S
C786 C787 1.516 1_545 S
C787 C786 1.516 1_565 S
C787 C788 1.502 . S
C787 C789 1.561 . S
C787 C790 1.526 1_655 S
C788 H772 0.959 . S
C788 H773 0.959 . S
C788 H774 0.961 . S
C788 C787 1.502 . S
C789 H775 0.960 . S
C789 H776 0.961 . S
C789 H777 0.959 . S
C789 C787 1.561 . S
C790 C787 1.526 1_455 S
C790 C791 1.396 . S
C790 C795 1.390 . S
C791 C785 1.465 1_465 S
C791 C790 1.396 . S
C791 C792 1.399 1_565 S
C792 H778 0.929 . S
C792 C791 1.399 1_545 S
C792 C793 1.385 1_545 S
C793 H779 0.931 . S
C793 C792 1.385 1_565 S
C793 C794 1.389 . S
C794 C793 1.389 . S
C794 C795 1.387 . S
C795 H780 0.930 . S
C795 C790 1.390 . S
C795 C794 1.387 . S
H796 C808 0.930 . S
H797 C810 0.930 . S
H798 C811 0.930 . S
H799 C815 0.959 . S
H800 C815 0.959 . S
H801 C815 0.961 . S
H802 C816 0.960 . S
H803 C816 0.961 . S
H804 C816 0.959 . S
H805 C819 0.929 . S
H806 C820 0.931 . S
H807 C822 0.930 . S
C808 H796 0.930 . S
C808 C809 1.399 . S
C808 C813 1.399 . S
C809 C808 1.399 . S
C809 C810 1.376 1_554 S
C810 H797 0.930 . S
C810 C809 1.376 1_556 S
C810 C811 1.388 . S
C811 H798 0.930 . S
C811 C810 1.388 . S
C811 C812 1.390 . S
C812 C811 1.390 . S
C812 C813 1.394 1_556 S
C812 C818 1.465 . S
C813 C808 1.399 . S
C813 C812 1.394 1_554 S
C813 C814 1.516 . S
C814 C813 1.516 . S
C814 C815 1.502 . S
C814 C816 1.561 . S
C814 C817 1.526 . S
C815 H799 0.959 . S
C815 H800 0.959 . S
C815 H801 0.961 . S
C815 C814 1.502 . S
C816 H802 0.960 . S
C816 H803 0.961 . S
C816 H804 0.959 . S
C816 C814 1.561 . S
C817 C814 1.526 . S
C817 C818 1.396 1_554 S
C817 C822 1.390 . S
C818 C812 1.465 . S
C818 C817 1.396 1_556 S
C818 C819 1.399 . S
C819 H805 0.929 . S
C819 C818 1.399 . S
C819 C820 1.385 . S
C820 H806 0.931 . S
C820 C819 1.385 . S
C820 C821 1.389 1_556 S
C821 C820 1.389 1_554 S
C821 C822 1.387 . S
C822 H807 0.930 . S
C822 C817 1.390 . S
C822 C821 1.387 . S
H823 C835 0.930 . S
H824 C837 0.930 . S
H825 C838 0.930 . S
H826 C842 0.959 . S
H827 C842 0.959 . S
H828 C842 0.961 . S
H829 C843 0.960 . S
H830 C843 0.961 1_565 S
H831 C843 0.959 . S
H832 C846 0.929 . S
H833 C847 0.931 . S
H834 C849 0.930 . S
C835 H823 0.930 . S
C835 C836 1.399 . S
C835 C840 1.399 . S
C836 C835 1.399 . S
C836 C837 1.376 . S
C837 H824 0.930 . S
C837 C836 1.376 . S
C837 C838 1.388 . S
C838 H825 0.930 . S
C838 C837 1.388 . S
C838 C839 1.390 . S
C839 C838 1.390 . S
C839 C840 1.394 . S
C839 C845 1.465 1_545 S
C840 C835 1.399 . S
C840 C839 1.394 . S
C840 C841 1.516 1_545 S
C841 C840 1.516 1_565 S
C841 C842 1.502 . S
C841 C843 1.561 1_565 S
C841 C844 1.526 . S
C842 H826 0.959 . S
C842 H827 0.959 . S
C842 H828 0.961 . S
C842 C841 1.502 . S
C843 H829 0.960 . S
C843 H830 0.961 1_545 S
C843 H831 0.959 . S
C843 C841 1.561 1_545 S
C844 C841 1.526 . S
C844 C845 1.396 . S
C844 C849 1.390 . S
C845 C839 1.465 1_565 S
C845 C844 1.396 . S
C845 C846 1.399 . S
C846 H832 0.929 . S
C846 C845 1.399 . S
C846 C847 1.385 . S
C847 H833 0.931 . S
C847 C846 1.385 . S
C847 C848 1.389 . S
C848 C847 1.389 . S
C848 C849 1.387 . S
C849 H834 0.930 . S
C849 C844 1.390 . S
C849 C848 1.387 . S
H850 C862 0.930 . S
H851 C864 0.930 . S
H852 C865 0.930 . S
H853 C869 0.959 . S
H854 C869 0.959 . S
H855 C869 0.961 . S
H856 C870 0.960 . S
H857 C870 0.961 . S
H858 C870 0.959 . S
H859 C873 0.929 . S
H860 C874 0.931 . S
H861 C876 0.930 . S
C862 H850 0.930 . S
C862 C863 1.399 1_554 S
C862 C867 1.399 . S
C863 C862 1.399 1_556 S
C863 C864 1.376 . S
C864 H851 0.930 . S
C864 C863 1.376 . S
C864 C865 1.388 . S
C865 H852 0.930 . S
C865 C864 1.388 . S
C865 C866 1.390 . S
C866 C865 1.390 . S
C866 C867 1.394 1_556 S
C866 C872 1.465 . S
C867 C862 1.399 . S
C867 C866 1.394 1_554 S
C867 C868 1.516 . S
C868 C867 1.516 . S
C868 C869 1.502 . S
C868 C870 1.561 . S
C868 C871 1.526 . S
C869 H853 0.959 . S
C869 H854 0.959 . S
C869 H855 0.961 . S
C869 C868 1.502 . S
C870 H856 0.960 . S
C870 H857 0.961 . S
C870 H858 0.959 . S
C870 C868 1.561 . S
C871 C868 1.526 . S
C871 C872 1.396 1_554 S
C871 C876 1.390 . S
C872 C866 1.465 . S
C872 C871 1.396 1_556 S
C872 C873 1.399 . S
C873 H859 0.929 . S
C873 C872 1.399 . S
C873 C874 1.385 . S
C874 H860 0.931 . S
C874 C873 1.385 . S
C874 C875 1.389 . S
C875 C874 1.389 . S
C875 C876 1.387 1_556 S
C876 H861 0.930 . S
C876 C871 1.390 . S
C876 C875 1.387 1_554 S
H877 C889 0.930 . S
H878 C891 0.930 . S
H879 C892 0.930 . S
H880 C896 0.959 . S
H881 C896 0.959 . S
H882 C896 0.961 . S
H883 C897 0.960 . S
H884 C897 0.961 . S
H885 C897 0.959 . S
H886 C900 0.929 . S
H887 C901 0.931 . S
H888 C903 0.930 . S
C889 H877 0.930 . S
C889 C890 1.399 . S
C889 C894 1.399 . S
C890 C889 1.399 . S
C890 C891 1.376 . S
C891 H878 0.930 . S
C891 C890 1.376 . S
C891 C892 1.388 . S
C892 H879 0.930 . S
C892 C891 1.388 . S
C892 C893 1.390 . S
C893 C892 1.390 . S
C893 C894 1.394 . S
C893 C899 1.465 1_565 S
C894 C889 1.399 . S
C894 C893 1.394 . S
C894 C895 1.516 . S
C895 C894 1.516 . S
C895 C896 1.502 . S
C895 C897 1.561 1_565 S
C895 C898 1.526 1_565 S
C896 H880 0.959 . S
C896 H881 0.959 . S
C896 H882 0.961 . S
C896 C895 1.502 . S
C897 H883 0.960 . S
C897 H884 0.961 . S
C897 H885 0.959 . S
C897 C895 1.561 1_545 S
C898 C895 1.526 1_545 S
C898 C899 1.396 . S
C898 C903 1.390 . S
C899 C893 1.465 1_545 S
C899 C898 1.396 . S
C899 C900 1.399 . S
C900 H886 0.929 . S
C900 C899 1.399 . S
C900 C901 1.385 . S
C901 H887 0.931 . S
C901 C900 1.385 . S
C901 C902 1.389 . S
C902 C901 1.389 . S
C902 C903 1.387 . S
C903 H888 0.930 . S
C903 C898 1.390 . S
C903 C902 1.387 . S
C485 C52 1.675 . S
C497 C111 1.651 . S
C512 C229 1.668 . S
C524 C170 1.680 . S
C539 C288 1.653 . S
C551 C347 1.644 . S
C566 C406 1.643 . S
C578 C465 1.650 . S
C593 C3 1.815 . S
C605 C121 1.806 . S
C620 C180 1.807 . S
C632 C62 1.807 . S
C647 C239 1.865 . S
C659 C357 1.832 . S
C674 C416 1.859 . S
C686 C298 1.821 . S
C701 C5 1.325 . S
C713 C241 1.260 . S
C728 C64 1.283 . S
C740 C300 1.309 . S
C755 C359 1.311 . S
C767 C123 1.263 . S
C782 C418 1.326 . S
C794 C182 1.257 . S
C809 C92 1.425 . S
C821 C33 1.428 . S
C836 C151 1.377 . S
C848 C210 1.370 . S
C863 C269 1.374 . S
C875 C328 1.371 . S
C890 C387 1.374 . S
C902 C446 1.371 . S
