# Generated by pormake.
# Topology afi, (4)-cn, num edge types: 1
# Building blocks:
#     Node 0, Type 0, BuildingBlock: AZAVOO_clean_sbu_0, # of connection points: 4
#     Node 1, Type 0, BuildingBlock: AZAVOO_clean_sbu_0, # of connection points: 4
#     Node 2, Type 0, BuildingBlock: AZAVOO_clean_sbu_0, # of connection points: 4
#     Node 3, Type 0, BuildingBlock: AZAVOO_clean_sbu_0, # of connection points: 4
#     Node 4, Type 0, BuildingBlock: AZAVOO_clean_sbu_0, # of connection points: 4
#     Node 5, Type 0, BuildingBlock: AZAVOO_clean_sbu_0, # of connection points: 4
#     Node 6, Type 0, BuildingBlock: AZAVOO_clean_sbu_0, # of connection points: 4
#     Node 7, Type 0, BuildingBlock: AZAVOO_clean_sbu_0, # of connection points: 4
#     Node 8, Type 0, BuildingBlock: AZAVOO_clean_sbu_0, # of connection points: 4
#     Node 9, Type 0, BuildingBlock: AZAVOO_clean_sbu_0, # of connection points: 4
#     Node 10, Type 0, BuildingBlock: AZAVOO_clean_sbu_0, # of connection points: 4
#     Node 11, Type 0, BuildingBlock: AZAVOO_clean_sbu_0, # of connection points: 4
#     Node 12, Type 0, BuildingBlock: AZAVOO_clean_sbu_0, # of connection points: 4
#     Node 13, Type 0, BuildingBlock: AZAVOO_clean_sbu_0, # of connection points: 4
#     Node 14, Type 0, BuildingBlock: AZAVOO_clean_sbu_0, # of connection points: 4
#     Node 15, Type 0, BuildingBlock: AZAVOO_clean_sbu_0, # of connection points: 4
#     Node 16, Type 0, BuildingBlock: AZAVOO_clean_sbu_0, # of connection points: 4
#     Node 17, Type 0, BuildingBlock: AZAVOO_clean_sbu_0, # of connection points: 4
#     Node 18, Type 0, BuildingBlock: AZAVOO_clean_sbu_0, # of connection points: 4
#     Node 19, Type 0, BuildingBlock: AZAVOO_clean_sbu_0, # of connection points: 4
#     Node 20, Type 0, BuildingBlock: AZAVOO_clean_sbu_0, # of connection points: 4
#     Node 21, Type 0, BuildingBlock: AZAVOO_clean_sbu_0, # of connection points: 4
#     Node 22, Type 0, BuildingBlock: AZAVOO_clean_sbu_0, # of connection points: 4
#     Node 23, Type 0, BuildingBlock: AZAVOO_clean_sbu_0, # of connection points: 4
#     Edge 24, Type (0, 0), BuildingBlock: ZUJKAS_clean_linker_0, # of connection points: 2
#     Edge 25, Type (0, 0), BuildingBlock: ZUJKAS_clean_linker_0, # of connection points: 2
#     Edge 26, Type (0, 0), BuildingBlock: ZUJKAS_clean_linker_0, # of connection points: 2
#     Edge 27, Type (0, 0), BuildingBlock: ZUJKAS_clean_linker_0, # of connection points: 2
#     Edge 28, Type (0, 0), BuildingBlock: ZUJKAS_clean_linker_0, # of connection points: 2
#     Edge 29, Type (0, 0), BuildingBlock: ZUJKAS_clean_linker_0, # of connection points: 2
#     Edge 30, Type (0, 0), BuildingBlock: ZUJKAS_clean_linker_0, # of connection points: 2
#     Edge 31, Type (0, 0), BuildingBlock: ZUJKAS_clean_linker_0, # of connection points: 2
#     Edge 32, Type (0, 0), BuildingBlock: ZUJKAS_clean_linker_0, # of connection points: 2
#     Edge 33, Type (0, 0), BuildingBlock: ZUJKAS_clean_linker_0, # of connection points: 2
#     Edge 34, Type (0, 0), BuildingBlock: ZUJKAS_clean_linker_0, # of connection points: 2
#     Edge 35, Type (0, 0), BuildingBlock: ZUJKAS_clean_linker_0, # of connection points: 2
#     Edge 36, Type (0, 0), BuildingBlock: ZUJKAS_clean_linker_0, # of connection points: 2
#     Edge 37, Type (0, 0), BuildingBlock: ZUJKAS_clean_linker_0, # of connection points: 2
#     Edge 38, Type (0, 0), BuildingBlock: ZUJKAS_clean_linker_0, # of connection points: 2
#     Edge 39, Type (0, 0), BuildingBlock: ZUJKAS_clean_linker_0, # of connection points: 2
#     Edge 40, Type (0, 0), BuildingBlock: ZUJKAS_clean_linker_0, # of connection points: 2
#     Edge 41, Type (0, 0), BuildingBlock: ZUJKAS_clean_linker_0, # of connection points: 2
#     Edge 42, Type (0, 0), BuildingBlock: ZUJKAS_clean_linker_0, # of connection points: 2
#     Edge 43, Type (0, 0), BuildingBlock: ZUJKAS_clean_linker_0, # of connection points: 2
#     Edge 44, Type (0, 0), BuildingBlock: ZUJKAS_clean_linker_0, # of connection points: 2
#     Edge 45, Type (0, 0), BuildingBlock: ZUJKAS_clean_linker_0, # of connection points: 2
#     Edge 46, Type (0, 0), BuildingBlock: ZUJKAS_clean_linker_0, # of connection points: 2
#     Edge 47, Type (0, 0), BuildingBlock: ZUJKAS_clean_linker_0, # of connection points: 2
#     Edge 48, Type (0, 0), BuildingBlock: ZUJKAS_clean_linker_0, # of connection points: 2
#     Edge 49, Type (0, 0), BuildingBlock: ZUJKAS_clean_linker_0, # of connection points: 2
#     Edge 50, Type (0, 0), BuildingBlock: ZUJKAS_clean_linker_0, # of connection points: 2
#     Edge 51, Type (0, 0), BuildingBlock: ZUJKAS_clean_linker_0, # of connection points: 2
#     Edge 52, Type (0, 0), BuildingBlock: ZUJKAS_clean_linker_0, # of connection points: 2
#     Edge 53, Type (0, 0), BuildingBlock: ZUJKAS_clean_linker_0, # of connection points: 2
#     Edge 54, Type (0, 0), BuildingBlock: ZUJKAS_clean_linker_0, # of connection points: 2
#     Edge 55, Type (0, 0), BuildingBlock: ZUJKAS_clean_linker_0, # of connection points: 2
#     Edge 56, Type (0, 0), BuildingBlock: ZUJKAS_clean_linker_0, # of connection points: 2
#     Edge 57, Type (0, 0), BuildingBlock: ZUJKAS_clean_linker_0, # of connection points: 2
#     Edge 58, Type (0, 0), BuildingBlock: ZUJKAS_clean_linker_0, # of connection points: 2
#     Edge 59, Type (0, 0), BuildingBlock: ZUJKAS_clean_linker_0, # of connection points: 2
#     Edge 60, Type (0, 0), BuildingBlock: ZUJKAS_clean_linker_0, # of connection points: 2
#     Edge 61, Type (0, 0), BuildingBlock: ZUJKAS_clean_linker_0, # of connection points: 2
#     Edge 62, Type (0, 0), BuildingBlock: ZUJKAS_clean_linker_0, # of connection points: 2
#     Edge 63, Type (0, 0), BuildingBlock: ZUJKAS_clean_linker_0, # of connection points: 2
#     Edge 64, Type (0, 0), BuildingBlock: ZUJKAS_clean_linker_0, # of connection points: 2
#     Edge 65, Type (0, 0), BuildingBlock: ZUJKAS_clean_linker_0, # of connection points: 2
#     Edge 66, Type (0, 0), BuildingBlock: ZUJKAS_clean_linker_0, # of connection points: 2
#     Edge 67, Type (0, 0), BuildingBlock: ZUJKAS_clean_linker_0, # of connection points: 2
#     Edge 68, Type (0, 0), BuildingBlock: ZUJKAS_clean_linker_0, # of connection points: 2
#     Edge 69, Type (0, 0), BuildingBlock: ZUJKAS_clean_linker_0, # of connection points: 2
#     Edge 70, Type (0, 0), BuildingBlock: ZUJKAS_clean_linker_0, # of connection points: 2
#     Edge 71, Type (0, 0), BuildingBlock: ZUJKAS_clean_linker_0, # of connection points: 2
# Relax obj value: 0.097
# Max RMSD: 0.122
# Mean RMSD: 0.121
data_MOF--net-afi--node1-AZAVOO_clean_sbu_0--edge1-ZUJKAS_clean_linker_0
_symmetry_space_group_name_H-M    P1
_symmetry_Int_Tables_number       1
_symmetry_cell_setting            triclinic
loop_
_symmetry_equiv_pos_as_xyz
'x, y, z'
_cell_length_a     84.937174
_cell_length_b     84.889429
_cell_length_c     54.398759
_cell_angle_alpha  90.031844
_cell_angle_beta   89.991961
_cell_angle_gamma 120.02075
loop_
_atom_site_label
_atom_site_type_symbol
_atom_site_fract_x
_atom_site_fract_y
_atom_site_fract_z
_atom_type_partial_charge
Mg0 Mg 0.4396 0.11796 0.16903 0.0
O1 O 0.46029 0.11057 0.18454 0.0
O2 O 0.4527 0.08306 0.16968 0.0
Mg3 Mg 0.42711 0.07247 0.14624 0.0
C4 C 0.46307 0.09715 0.18241 0.0
C5 C 0.4484 0.15624 0.17969 0.0
O6 O 0.43199 0.14796 0.1701 0.0
O7 O 0.45382 0.12355 0.13166 0.0
O8 O 0.44406 0.09507 0.11889 0.0
O9 O 0.4211 0.10407 0.20096 0.0
O10 O 0.42024 0.09067 0.1658 0.0
C11 C 0.45301 0.11225 0.11544 0.0
C12 C 0.41443 0.08935 0.18792 0.0
O13 O 0.45683 0.14744 0.18151 0.0
Mg14 Mg 0.32019 0.4409 0.17075 0.0
O15 O 0.34836 0.46253 0.18488 0.0
O16 O 0.36854 0.45472 0.17208 0.0
Mg17 Mg 0.35371 0.4287 0.14934 0.0
C18 C 0.36462 0.46543 0.1836 0.0
C19 C 0.31035 0.4654 0.20325 0.0
O20 O 0.32211 0.46451 0.21804 0.0
O21 O 0.32816 0.45399 0.13263 0.0
O22 O 0.34756 0.44478 0.12113 0.0
O23 O 0.31652 0.42353 0.20382 0.0
O24 O 0.32862 0.42189 0.16869 0.0
C25 C 0.33889 0.45318 0.11685 0.0
C26 C 0.32459 0.41673 0.19111 0.0
O27 O 0.30756 0.45805 0.18212 0.0
Mg28 Mg 0.8801 0.32974 0.17576 0.0
O29 O 0.88535 0.35686 0.19308 0.0
O30 O 0.9119 0.37855 0.17767 0.0
Mg31 Mg 0.92388 0.36604 0.15228 0.0
C32 C 0.89785 0.37354 0.19111 0.0
C33 C 0.84443 0.29799 0.19211 0.0
O34 O 0.85525 0.29137 0.18799 0.0
O35 O 0.87287 0.33794 0.13934 0.0
O36 O 0.9003 0.35961 0.12643 0.0
O37 O 0.89503 0.32519 0.20627 0.0
O38 O 0.90796 0.34042 0.17227 0.0
C39 C 0.88313 0.34987 0.12366 0.0
C40 C 0.90968 0.33502 0.19369 0.0
O41 O 0.85053 0.31485 0.18845 0.0
Mg42 Mg 0.54592 0.87536 0.17327 0.0
O43 O 0.52493 0.88154 0.19118 0.0
O44 O 0.53065 0.90869 0.17726 0.0
Mg45 Mg 0.55372 0.91917 0.14957 0.0
C46 C 0.52149 0.89459 0.19054 0.0
C47 C 0.53534 0.83547 0.17761 0.0
O48 O 0.54695 0.84152 0.15926 0.0
O49 O 0.52944 0.86764 0.13774 0.0
O50 O 0.53479 0.89506 0.12524 0.0
O51 O 0.56613 0.89129 0.20275 0.0
O52 O 0.56365 0.90281 0.16754 0.0
C53 C 0.52712 0.87783 0.12265 0.0
C54 C 0.57113 0.90537 0.18879 0.0
O55 O 0.5309 0.84624 0.18759 0.0
Mg56 Mg 0.6764 0.55473 0.17133 0.0
O57 O 0.6492 0.53417 0.18921 0.0
O58 O 0.62907 0.54312 0.18107 0.0
Mg59 Mg 0.6428 0.56856 0.15725 0.0
C60 C 0.63324 0.53205 0.19093 0.0
C61 C 0.70491 0.54331 0.17411 0.0
O62 O 0.71299 0.55896 0.16245 0.0
O63 O 0.66497 0.54136 0.13414 0.0
O64 O 0.64499 0.5508 0.12739 0.0
O65 O 0.68358 0.57259 0.20457 0.0
O66 O 0.66918 0.57468 0.17202 0.0
C67 C 0.65276 0.54187 0.12096 0.0
C68 C 0.67516 0.5799 0.19394 0.0
O69 O 0.68823 0.53646 0.17971 0.0
Mg70 Mg 0.11747 0.6725 0.17847 0.0
O71 O 0.11255 0.64513 0.19365 0.0
O72 O 0.0846 0.62374 0.18238 0.0
Mg73 Mg 0.07173 0.63707 0.16 0.0
C74 C 0.09969 0.62857 0.1932 0.0
C75 C 0.15715 0.70259 0.18222 0.0
O76 O 0.14961 0.71001 0.169 0.0
O77 O 0.12182 0.66406 0.14034 0.0
O78 O 0.09325 0.64322 0.13051 0.0
O79 O 0.10462 0.67668 0.21189 0.0
O80 O 0.08974 0.66303 0.17798 0.0
C81 C 0.11017 0.65249 0.12534 0.0
C82 C 0.08931 0.66784 0.20027 0.0
O83 O 0.1475 0.68602 0.18847 0.0
Mg84 Mg 0.88124 0.55164 0.31943 0.0
O85 O 0.88764 0.52991 0.30525 0.0
O86 O 0.9143 0.53605 0.32163 0.0
Mg87 Mg 0.92531 0.56172 0.34493 0.0
C88 C 0.90035 0.5262 0.30839 0.0
C89 C 0.84285 0.54316 0.30834 0.0
O90 O 0.85032 0.55878 0.32009 0.0
O91 O 0.87391 0.53748 0.35681 0.0
O92 O 0.90158 0.54518 0.371 0.0
O93 O 0.89659 0.56998 0.28806 0.0
O94 O 0.90869 0.57001 0.32399 0.0
C95 C 0.88433 0.53714 0.37351 0.0
C96 C 0.91086 0.57614 0.30191 0.0
O97 O 0.85213 0.53532 0.30539 0.0
Mg98 Mg 0.32898 0.88478 0.31662 0.0
O99 O 0.35594 0.88903 0.30079 0.0
O100 O 0.37775 0.91698 0.3114 0.0
Mg101 Mg 0.36511 0.93059 0.33371 0.0
C102 C 0.37257 0.90172 0.30085 0.0
C103 C 0.29756 0.84668 0.30905 0.0
O104 O 0.29021 0.85605 0.31743 0.0
O105 O 0.33776 0.88082 0.35471 0.0
O106 O 0.35898 0.90945 0.36378 0.0
O107 O 0.32442 0.89739 0.28324 0.0
O108 O 0.3388 0.91257 0.31663 0.0
C109 C 0.34956 0.8926 0.36936 0.0
C110 C 0.33348 0.9128 0.29458 0.0
O111 O 0.31477 0.85458 0.30729 0.0
Mg112 Mg 0.45107 0.3351 0.30948 0.0
O113 O 0.47373 0.36261 0.29476 0.0
O114 O 0.46788 0.38403 0.30828 0.0
Mg115 Mg 0.44196 0.37072 0.33115 0.0
C116 C 0.47775 0.37924 0.29636 0.0
C117 C 0.45979 0.30458 0.3048 0.0
O118 O 0.44545 0.29784 0.3192 0.0
O119 O 0.46425 0.34234 0.34748 0.0
O120 O 0.45719 0.36332 0.35931 0.0
O121 O 0.43344 0.33183 0.27703 0.0
O122 O 0.43328 0.34506 0.31189 0.0
C123 C 0.46455 0.35362 0.36332 0.0
C124 C 0.42735 0.34053 0.28981 0.0
O125 O 0.46676 0.32101 0.29784 0.0
Mg126 Mg 0.11535 0.44757 0.31507 0.0
O127 O 0.1118 0.4707 0.29868 0.0
O128 O 0.08465 0.46577 0.31147 0.0
Mg129 Mg 0.07075 0.44008 0.33472 0.0
C130 C 0.09949 0.47519 0.29968 0.0
C131 C 0.15081 0.45092 0.29956 0.0
O132 O 0.13898 0.43341 0.30042 0.0
O133 O 0.12087 0.46134 0.35266 0.0
O134 O 0.0929 0.45503 0.3635 0.0
O135 O 0.10169 0.42952 0.28263 0.0
O136 O 0.08735 0.43084 0.31575 0.0
C137 C 0.10987 0.46211 0.36799 0.0
C138 C 0.08653 0.4245 0.29402 0.0
O139 O 0.14549 0.46204 0.3052 0.0
Mg140 Mg 0.6617 0.11541 0.3011 0.0
O141 O 0.63343 0.10939 0.28785 0.0
O142 O 0.61322 0.08198 0.30268 0.0
Mg143 Mg 0.62807 0.07007 0.32359 0.0
C144 C 0.61709 0.0964 0.29068 0.0
C145 C 0.68924 0.15619 0.30099 0.0
O146 O 0.69486 0.14997 0.31906 0.0
O147 O 0.65501 0.12077 0.33985 0.0
O148 O 0.63538 0.09239 0.35216 0.0
O149 O 0.66476 0.10162 0.2678 0.0
O150 O 0.65281 0.08786 0.30299 0.0
C151 C 0.64454 0.10951 0.3561 0.0
C152 C 0.65681 0.08674 0.28052 0.0
O153 O 0.67458 0.14522 0.28997 0.0
Mg154 Mg 0.54749 0.65988 0.30868 0.0
O155 O 0.52484 0.63288 0.29234 0.0
O156 O 0.52893 0.61068 0.3074 0.0
Mg157 Mg 0.55317 0.62281 0.33332 0.0
C158 C 0.52019 0.61607 0.29403 0.0
C159 C 0.54488 0.69217 0.29184 0.0
O160 O 0.56206 0.69836 0.29733 0.0
O161 O 0.53245 0.65314 0.34523 0.0
O162 O 0.53686 0.63074 0.359 0.0
O163 O 0.56658 0.66255 0.27853 0.0
O164 O 0.56408 0.64878 0.31394 0.0
C165 C 0.53028 0.64129 0.36137 0.0
C166 C 0.57138 0.65334 0.29253 0.0
O167 O 0.53371 0.6753 0.29472 0.0
Mg168 Mg 0.54412 0.87621 0.82572 0.0
O169 O 0.51714 0.86584 0.80515 0.0
O170 O 0.4994 0.83617 0.81273 0.0
Mg171 Mg 0.51483 0.8275 0.83847 0.0
C172 C 0.50223 0.85087 0.80246 0.0
C173 C 0.56844 0.91545 0.81067 0.0
O174 O 0.5795 0.90893 0.81317 0.0
O175 O 0.5299 0.8758 0.86148 0.0
O176 O 0.51277 0.84575 0.86781 0.0
O177 O 0.55563 0.86821 0.79451 0.0
O178 O 0.54082 0.85028 0.82581 0.0
C179 C 0.51831 0.86221 0.8741 0.0
C180 C 0.54881 0.85244 0.80497 0.0
O181 O 0.55178 0.90528 0.81612 0.0
Mg182 Mg 0.66417 0.54218 0.81954 0.0
O183 O 0.64727 0.51529 0.79887 0.0
O184 O 0.65821 0.49694 0.80804 0.0
Mg185 Mg 0.68219 0.51203 0.83412 0.0
C186 C 0.64685 0.5001 0.79691 0.0
C187 C 0.65038 0.56783 0.80683 0.0
O188 O 0.66766 0.57855 0.81209 0.0
O189 O 0.64957 0.52825 0.85499 0.0
O190 O 0.66253 0.5115 0.86335 0.0
O191 O 0.68449 0.55365 0.78915 0.0
O192 O 0.68637 0.5382 0.82055 0.0
C193 C 0.65164 0.51725 0.86883 0.0
C194 C 0.69295 0.54651 0.80009 0.0
O195 O 0.6436 0.55077 0.80934 0.0
Mg196 Mg 0.12188 0.66384 0.81921 0.0
O197 O 0.13059 0.64491 0.80142 0.0
O198 O 0.16028 0.65635 0.80838 0.0
Mg199 Mg 0.17079 0.68282 0.82994 0.0
C200 C 0.14517 0.64412 0.79941 0.0
C201 C 0.08173 0.649 0.80905 0.0
O202 O 0.08849 0.66668 0.81051 0.0
O203 O 0.12324 0.65292 0.85698 0.0
O204 O 0.15333 0.66636 0.86266 0.0
O205 O 0.12894 0.68112 0.78548 0.0
O206 O 0.14813 0.6855 0.81571 0.0
C207 C 0.13702 0.65627 0.87019 0.0
C208 C 0.14523 0.6901 0.79441 0.0
O209 O 0.09216 0.64259 0.81319 0.0
Mg210 Mg 0.45596 0.12626 0.82179 0.0
O211 O 0.48132 0.13459 0.79839 0.0
O212 O 0.50002 0.16449 0.80247 0.0
Mg213 Mg 0.48648 0.17552 0.82801 0.0
C214 C 0.49623 0.14909 0.79355 0.0
C215 C 0.43134 0.08645 0.80806 0.0
O216 O 0.42085 0.09363 0.80569 0.0
O217 O 0.47235 0.12903 0.85644 0.0
O218 O 0.48922 0.15933 0.85972 0.0
O219 O 0.4423 0.13239 0.79112 0.0
O220 O 0.45956 0.15231 0.81926 0.0
C221 C 0.48406 0.14334 0.86782 0.0
C222 C 0.44984 0.14879 0.79972 0.0
O223 O 0.4475 0.09645 0.81582 0.0
Mg224 Mg 0.33432 0.46099 0.81953 0.0
O225 O 0.35158 0.48736 0.79806 0.0
O226 O 0.33972 0.5054 0.80339 0.0
Mg227 Mg 0.3146 0.49048 0.82766 0.0
C228 C 0.35176 0.5023 0.79432 0.0
C229 C 0.34921 0.43597 0.80926 0.0
O230 O 0.33165 0.42513 0.81239 0.0
O231 O 0.34703 0.47606 0.8554 0.0
O232 O 0.33293 0.49222 0.85959 0.0
O233 O 0.3153 0.44822 0.78787 0.0
O234 O 0.31167 0.46418 0.81709 0.0
C235 C 0.34381 0.48708 0.86749 0.0
C236 C 0.30601 0.45516 0.79691 0.0
O237 O 0.35581 0.45293 0.8127 0.0
Mg238 Mg 0.87164 0.32479 0.82231 0.0
O239 O 0.86107 0.34217 0.80432 0.0
O240 O 0.83185 0.33097 0.81404 0.0
Mg241 Mg 0.82369 0.30659 0.83909 0.0
C242 C 0.84631 0.34266 0.80312 0.0
C243 C 0.90336 0.35071 0.7889 0.0
O244 O 0.88938 0.34432 0.7739 0.0
O245 O 0.87316 0.3385 0.859 0.0
O246 O 0.84351 0.32645 0.86762 0.0
O247 O 0.86183 0.30544 0.79077 0.0
O248 O 0.84541 0.30268 0.8237 0.0
C249 C 0.86029 0.33689 0.87287 0.0
C250 C 0.84647 0.29681 0.80232 0.0
O251 O 0.90067 0.34578 0.81131 0.0
Mg252 Mg 0.12166 0.44673 0.67241 0.0
O253 O 0.13065 0.47364 0.69253 0.0
O254 O 0.1603 0.49219 0.6856 0.0
Mg255 Mg 0.17048 0.47713 0.66145 0.0
C256 C 0.14525 0.4889 0.69527 0.0
C257 C 0.08225 0.42269 0.68871 0.0
O258 O 0.08945 0.41232 0.6923 0.0
O259 O 0.12275 0.46062 0.63609 0.0
O260 O 0.15277 0.47764 0.63009 0.0
O261 O 0.12905 0.43532 0.70459 0.0
O262 O 0.14794 0.45121 0.6746 0.0
C263 C 0.13638 0.47172 0.62313 0.0
C264 C 0.14526 0.44305 0.69538 0.0
O265 O 0.09204 0.43836 0.67935 0.0
Mg266 Mg 0.66707 0.1218 0.66431 0.0
O267 O 0.64818 0.13099 0.6809 0.0
O268 O 0.65994 0.16068 0.67366 0.0
Mg269 Mg 0.68629 0.17054 0.65214 0.0
C270 C 0.64755 0.14566 0.68262 0.0
C271 C 0.65217 0.08216 0.67706 0.0
O272 O 0.66988 0.08906 0.67607 0.0
O273 O 0.65637 0.12244 0.62605 0.0
O274 O 0.66963 0.1525 0.61995 0.0
O275 O 0.68386 0.12973 0.69849 0.0
O276 O 0.68908 0.14802 0.66688 0.0
C277 C 0.65962 0.13611 0.61262 0.0
C278 C 0.69332 0.1457 0.68874 0.0
O279 O 0.64565 0.0923 0.67152 0.0
Mg280 Mg 0.54855 0.67549 0.66532 0.0
O281 O 0.52091 0.65703 0.68343 0.0
O282 O 0.50258 0.66827 0.67596 0.0
Mg283 Mg 0.5182 0.69349 0.65207 0.0
C284 C 0.50561 0.65634 0.6856 0.0
C285 C 0.57297 0.6609 0.6816 0.0
O286 O 0.58347 0.67866 0.68268 0.0
O287 O 0.53642 0.66324 0.62813 0.0
O288 O 0.51836 0.67503 0.62131 0.0
O289 O 0.55795 0.69338 0.69828 0.0
O290 O 0.54408 0.69738 0.66653 0.0
C291 C 0.52506 0.66511 0.61485 0.0
C292 C 0.55101 0.70232 0.68813 0.0
O293 O 0.55684 0.65439 0.67361 0.0
Mg294 Mg 0.87018 0.53993 0.67663 0.0
O295 O 0.86076 0.51239 0.69523 0.0
O296 O 0.83096 0.49469 0.68839 0.0
Mg297 Mg 0.82098 0.51108 0.66688 0.0
C298 C 0.84594 0.49724 0.69738 0.0
C299 C 0.91008 0.56435 0.68777 0.0
O300 O 0.90336 0.57531 0.68685 0.0
O301 O 0.868 0.52681 0.63919 0.0
O302 O 0.83779 0.51095 0.63412 0.0
O303 O 0.86403 0.55112 0.71012 0.0
O304 O 0.84432 0.53624 0.6804 0.0
C305 C 0.85392 0.51648 0.62635 0.0
C306 C 0.84769 0.54408 0.70151 0.0
O307 O 0.89971 0.54765 0.68257 0.0
Mg308 Mg 0.32815 0.87383 0.67749 0.0
O309 O 0.34649 0.86393 0.69405 0.0
O310 O 0.3361 0.83508 0.68286 0.0
Mg311 Mg 0.31069 0.82618 0.65963 0.0
C312 C 0.34764 0.8495 0.69404 0.0
C313 C 0.35428 0.90592 0.71041 0.0
O314 O 0.34844 0.892 0.72545 0.0
O315 O 0.34104 0.87589 0.63989 0.0
O316 O 0.32863 0.84641 0.63018 0.0
O317 O 0.30926 0.86356 0.70962 0.0
O318 O 0.30641 0.84727 0.67654 0.0
C319 C 0.33876 0.86325 0.62501 0.0
C320 C 0.30062 0.84822 0.69804 0.0
O321 O 0.34887 0.90307 0.6882 0.0
Mg322 Mg 0.44971 0.32724 0.66953 0.0
O323 O 0.47732 0.34504 0.68799 0.0
O324 O 0.49497 0.33297 0.68067 0.0
Mg325 Mg 0.47853 0.3071 0.65804 0.0
C326 C 0.49242 0.3453 0.69005 0.0
C327 C 0.4259 0.34337 0.68266 0.0
O328 O 0.41457 0.32572 0.68255 0.0
O329 O 0.46272 0.33885 0.63231 0.0
O330 O 0.47874 0.32479 0.62615 0.0
O331 O 0.43868 0.30936 0.70257 0.0
O332 O 0.45332 0.30488 0.67221 0.0
C333 C 0.47313 0.33549 0.61906 0.0
C334 C 0.44557 0.30008 0.69336 0.0
O335 O 0.44234 0.34922 0.67652 0.0
H336 H 0.40815 0.0799 0.23659 0.0
H337 H 0.39082 0.04899 0.25344 0.0
H338 H 0.37589 0.02729 0.18005 0.0
H339 H 0.39325 0.05794 0.16312 0.0
H340 H 0.35374 0.02054 0.24797 0.0
H341 H 0.40263 0.00208 0.20808 0.0
H342 H 0.4075 0.02531 0.2102 0.0
H343 H 0.39286 0.01066 0.18633 0.0
C344 C 0.40098 0.06854 0.22411 0.0
C345 C 0.40229 0.07126 0.19855 0.0
C346 C 0.39112 0.05094 0.23373 0.0
C347 C 0.38244 0.0359 0.21791 0.0
C348 C 0.38286 0.03871 0.19249 0.0
H349 H 0.33098 0.91908 0.24569 0.0
H350 H 0.3408 0.94858 0.22597 0.0
C351 C 0.39277 0.05622 0.18288 0.0
C352 C 0.3737 0.01721 0.22782 0.0
H353 H 0.37675 0.97862 0.22777 0.0
C354 C 0.35872 0.01134 0.24357 0.0
C355 C 0.38027 0.00528 0.22193 0.0
C356 C 0.39679 0.01115 0.20589 0.0
C357 C 0.35008 0.99376 0.2536 0.0
C358 C 0.35679 0.98193 0.24794 0.0
C359 C 0.37158 0.98771 0.23189 0.0
C360 C 0.34958 0.96399 0.25983 0.0
C361 C 0.33381 0.98795 0.2701 0.0
C362 C 0.35141 0.963 0.28529 0.0
C363 C 0.34593 0.9463 0.29651 0.0
C364 C 0.33862 0.93026 0.28246 0.0
C365 C 0.33657 0.93122 0.25697 0.0
C366 C 0.34214 0.94801 0.24571 0.0
H367 H 0.32731 0.99634 0.26703 0.0
H368 H 0.32352 0.97341 0.26711 0.0
H369 H 0.33828 0.98964 0.28957 0.0
H370 H 0.35745 0.97523 0.29643 0.0
H371 H 0.34755 0.946 0.31622 0.0
H372 H 0.40912 0.35438 0.31443 0.0
H373 H 0.38903 0.36438 0.29749 0.0
H374 H 0.39648 0.34874 0.22488 0.0
H375 H 0.41698 0.33889 0.24171 0.0
H376 H 0.40176 0.38429 0.22839 0.0
H377 H 0.33676 0.33373 0.2719 0.0
H378 H 0.35536 0.34511 0.29305 0.0
H379 H 0.35617 0.33047 0.2698 0.0
C380 C 0.40653 0.35305 0.29484 0.0
C381 C 0.41475 0.34597 0.27935 0.0
C382 C 0.39486 0.35858 0.28525 0.0
C383 C 0.39106 0.35702 0.26003 0.0
C384 C 0.39915 0.34989 0.24446 0.0
H385 H 0.33433 0.3949 0.16726 0.0
H386 H 0.34924 0.3792 0.18447 0.0
C387 C 0.41084 0.34429 0.25408 0.0
C388 C 0.37959 0.36398 0.24983 0.0
H389 H 0.33735 0.35942 0.25315 0.0
C390 C 0.38763 0.37875 0.23359 0.0
C391 C 0.36123 0.3568 0.25691 0.0
C392 C 0.35179 0.34055 0.27371 0.0
C393 C 0.37789 0.38681 0.22456 0.0
C394 C 0.35953 0.37966 0.23165 0.0
C395 C 0.35144 0.36485 0.24784 0.0
C396 C 0.34854 0.38732 0.22195 0.0
C397 C 0.38744 0.40319 0.20795 0.0
C398 C 0.34245 0.39634 0.23757 0.0
C399 C 0.3338 0.4053 0.22779 0.0
C400 C 0.33123 0.40533 0.20228 0.0
C401 C 0.33644 0.39539 0.18695 0.0
C402 C 0.34496 0.38642 0.19672 0.0
H403 H 0.40247 0.40961 0.20916 0.0
H404 H 0.38338 0.39888 0.18862 0.0
H405 H 0.38357 0.41355 0.21259 0.0
H406 H 0.34503 0.39705 0.25716 0.0
H407 H 0.32988 0.41282 0.24 0.0
H408 H 0.94116 0.36691 0.18602 0.0
H409 H 0.97118 0.37601 0.20203 0.0
H410 H 0.94939 0.32519 0.2413 0.0
H411 H 0.91892 0.31609 0.2254 0.0
H412 H 0.97125 0.35269 0.26973 0.0
H413 H 0.00677 0.36058 0.18196 0.0
H414 H 0.9954 0.37354 0.18117 0.0
H415 H 0.98228 0.34911 0.18399 0.0
C416 C 0.94274 0.35748 0.19757 0.0
C417 C 0.92777 0.34062 0.20398 0.0
C418 C 0.95998 0.36268 0.20672 0.0
C419 C 0.96267 0.35102 0.22216 0.0
C420 C 0.94766 0.33428 0.22906 0.0
H421 H 0.07781 0.39588 0.26331 0.0
H422 H 0.04759 0.37445 0.24661 0.0
C423 C 0.93029 0.32913 0.22008 0.0
C424 C 0.981 0.35714 0.23237 0.0
H425 H 0.02578 0.37904 0.21603 0.0
C426 C 0.98315 0.35808 0.25798 0.0
C427 C 0.99654 0.36371 0.21711 0.0
C428 C 0.99509 0.36147 0.18954 0.0
C429 C 0.00048 0.36679 0.26869 0.0
C430 C 0.01601 0.37524 0.25334 0.0
C431 C 0.01387 0.37294 0.2278 0.0
C432 C 0.0343 0.3879 0.2633 0.0
C433 C 0.00194 0.36719 0.29636 0.0
C434 C 0.03694 0.40285 0.27743 0.0
C435 C 0.05401 0.41492 0.28702 0.0
C436 C 0.06887 0.41245 0.28234 0.0
C437 C 0.06649 0.39799 0.26725 0.0
C438 C 0.04927 0.38573 0.25784 0.0
H439 H 0.99024 0.35498 0.30464 0.0
H440 H 0.01473 0.36784 0.30249 0.0
H441 H 0.00171 0.37932 0.30349 0.0
H442 H 0.02577 0.40527 0.28096 0.0
H443 H 0.05558 0.42631 0.29777 0.0
H444 H 0.58117 0.91712 0.23622 0.0
H445 H 0.59904 0.94881 0.25024 0.0
H446 H 0.60689 0.96721 0.175 0.0
H447 H 0.589 0.93579 0.16092 0.0
H448 H 0.63509 0.97749 0.23874 0.0
H449 H 0.58191 0.9928 0.20728 0.0
H450 H 0.5778 0.96986 0.21015 0.0
H451 H 0.58993 0.9835 0.18402 0.0
C452 C 0.58687 0.92793 0.22271 0.0
C453 C 0.58344 0.92404 0.19753 0.0
C454 C 0.59705 0.94598 0.23071 0.0
C455 C 0.60392 0.96029 0.21363 0.0
C456 C 0.60133 0.95635 0.18846 0.0
H457 H 0.65551 0.0781 0.23169 0.0
H458 H 0.6447 0.04775 0.21406 0.0
C459 C 0.59112 0.9384 0.18048 0.0
C460 C 0.61313 0.9794 0.22205 0.0
H461 H 0.60927 0.01753 0.22215 0.0
C462 C 0.62948 0.98627 0.23514 0.0
C463 C 0.60574 0.99078 0.21721 0.0
C464 C 0.5878 0.98387 0.20409 0.0
C465 C 0.63872 0.00434 0.24349 0.0
C466 C 0.63123 0.01564 0.23884 0.0
C467 C 0.61502 0.00883 0.22547 0.0
C468 C 0.6392 0.03413 0.24927 0.0
C469 C 0.65644 0.01123 0.25711 0.0
C470 C 0.63958 0.03641 0.2748 0.0
C471 C 0.64561 0.0536 0.28484 0.0
C472 C 0.65129 0.06883 0.26953 0.0
C473 C 0.65122 0.0666 0.24392 0.0
C474 C 0.64507 0.04932 0.23385 0.0
H475 H 0.66281 0.00281 0.25317 0.0
H476 H 0.6662 0.02558 0.2522 0.0
H477 H 0.65384 0.0106 0.27718 0.0
H478 H 0.63478 0.02481 0.28697 0.0
H479 H 0.64566 0.05489 0.30465 0.0
H480 H 0.58492 0.6555 0.24616 0.0
H481 H 0.60614 0.64551 0.23288 0.0
H482 H 0.60864 0.62897 0.30705 0.0
H483 H 0.58739 0.63865 0.32037 0.0
H484 H 0.64178 0.65646 0.24957 0.0
H485 H 0.59416 0.58297 0.2668 0.0
H486 H 0.58673 0.5995 0.2657 0.0
H487 H 0.59783 0.59754 0.2927 0.0
C488 C 0.58996 0.64968 0.25959 0.0
C489 C 0.58427 0.64759 0.28421 0.0
C490 C 0.6021 0.64404 0.25201 0.0
C491 C 0.6087 0.63625 0.26894 0.0
C492 C 0.60339 0.63458 0.29362 0.0
H493 H 0.67314 0.58342 0.24374 0.0
H494 H 0.66001 0.59974 0.26491 0.0
C495 C 0.59123 0.64012 0.30117 0.0
C496 C 0.621 0.62969 0.26078 0.0
H497 H 0.624 0.59127 0.25483 0.0
C498 C 0.63795 0.64223 0.25077 0.0
C499 C 0.61595 0.61113 0.26255 0.0
C500 C 0.59762 0.59695 0.27232 0.0
C501 C 0.64996 0.63663 0.24222 0.0
C502 C 0.64473 0.61801 0.24352 0.0
C503 C 0.628 0.60557 0.25411 0.0
C504 C 0.65537 0.61072 0.23156 0.0
C505 C 0.66807 0.65062 0.23175 0.0
C506 C 0.65729 0.61176 0.20594 0.0
C507 C 0.66463 0.60242 0.1939 0.0
C508 C 0.67013 0.59184 0.20726 0.0
C509 C 0.66906 0.59154 0.23304 0.0
C510 C 0.66156 0.60081 0.24511 0.0
H511 H 0.67232 0.66447 0.23883 0.0
H512 H 0.67881 0.64725 0.23617 0.0
H513 H 0.66694 0.65091 0.21145 0.0
H514 H 0.65228 0.61904 0.19513 0.0
H515 H 0.6654 0.60298 0.17402 0.0
H516 H 0.08272 0.66866 0.24948 0.0
H517 H 0.05298 0.65665 0.26945 0.0
H518 H 0.02664 0.64157 0.19866 0.0
H519 H 0.05614 0.65378 0.17862 0.0
H520 H 0.01264 0.65804 0.23079 0.0
H521 H 0.01727 0.60129 0.2748 0.0
H522 H 0.03573 0.62383 0.28098 0.0
H523 H 0.03229 0.61484 0.25032 0.0
C524 C 0.07059 0.66292 0.2382 0.0
C525 C 0.07172 0.66188 0.21253 0.0
C526 C 0.05364 0.65601 0.24961 0.0
C527 C 0.03766 0.64799 0.2355 0.0
C528 C 0.03884 0.64762 0.20985 0.0
H529 H 0.92139 0.58563 0.25406 0.0
H530 H 0.95244 0.60485 0.23873 0.0
C531 C 0.0557 0.65448 0.19846 0.0
C532 C 0.01956 0.63924 0.24727 0.0
H533 H 0.99072 0.60268 0.28213 0.0
C534 C 0.00784 0.646 0.24216 0.0
C535 C 0.0134 0.62351 0.26197 0.0
C536 C 0.02522 0.61529 0.26726 0.0
C537 C 0.99002 0.63739 0.25137 0.0
C538 C 0.98376 0.62146 0.26566 0.0
C539 C 0.9956 0.61491 0.27114 0.0
C540 C 0.96486 0.61105 0.27482 0.0
C541 C 0.97811 0.64545 0.24586 0.0
C542 C 0.96163 0.60807 0.30011 0.0
C543 C 0.944 0.59701 0.30885 0.0
C544 C 0.92928 0.58863 0.29244 0.0
C545 C 0.93247 0.59194 0.26712 0.0
C546 C 0.95017 0.603 0.25836 0.0
H547 H 0.98629 0.66004 0.24068 0.0
H548 H 0.96903 0.63802 0.2302 0.0
H549 H 0.96949 0.64419 0.26192 0.0
H550 H 0.9728 0.61414 0.31308 0.0
H551 H 0.94196 0.59492 0.32849 0.0
H552 H 0.603 0.93953 0.79613 0.0
H553 H 0.61335 0.96739 0.77243 0.0
H554 H 0.55921 0.95974 0.77386 0.0
H555 H 0.54863 0.93171 0.79774 0.0
H556 H 0.59755 0.968 0.72491 0.0
H557 H 0.59378 0.01422 0.79447 0.0
H558 H 0.59509 0.99437 0.80313 0.0
H559 H 0.5743 0.99181 0.79105 0.0
C560 C 0.59329 0.94385 0.79172 0.0
C561 C 0.57496 0.93335 0.79878 0.0
C562 C 0.59925 0.95976 0.77812 0.0
C563 C 0.58706 0.96561 0.77146 0.0
C564 C 0.56886 0.95552 0.77906 0.0
H565 H 0.61582 0.06535 0.68845 0.0
H566 H 0.59759 0.03591 0.709 0.0
C567 C 0.56285 0.93951 0.79267 0.0
C568 C 0.59338 0.98171 0.75537 0.0
H569 H 0.60457 0.02632 0.75512 0.0
C570 C 0.59895 0.98072 0.73141 0.0
C571 C 0.59497 0.99817 0.76386 0.0
C572 C 0.58933 -0.00011 0.78956 0.0
C573 C 0.60655 0.99594 0.71589 0.0
C574 C 0.60899 0.01268 0.72477 0.0
C575 C 0.60271 0.01347 0.74838 0.0
C576 C 0.61943 0.02981 0.71072 0.0
C577 C 0.61205 0.99399 0.69019 0.0
C578 C 0.6377 0.03608 0.70485 0.0
C579 C 0.6481 0.05279 0.69313 0.0
C580 C 0.64048 0.06368 0.68718 0.0
C581 C 0.62206 0.05724 0.69267 0.0
C582 C 0.61165 0.04047 0.70447 0.0
H583 H 0.60412 0.9797 0.68364 0.0
H584 H 0.61014 0.0029 0.67704 0.0
H585 H 0.62664 0.99794 0.69017 0.0
H586 H 0.6441 0.02827 0.70996 0.0
H587 H 0.66226 0.05736 0.68929 0.0
H588 H 0.61542 0.54942 0.78909 0.0
H589 H 0.59954 0.56223 0.76619 0.0
H590 H 0.64559 0.6161 0.77574 0.0
H591 H 0.66155 0.60354 0.79848 0.0
H592 H 0.59136 0.59094 0.77996 0.0
H593 H 0.63771 0.60904 0.69986 0.0
H594 H 0.63579 0.59291 0.723 0.0
H595 H 0.64908 0.61693 0.72889 0.0
C596 C 0.62209 0.56401 0.78652 0.0
C597 C 0.63982 0.57545 0.7954 0.0
C598 C 0.613 0.57128 0.77343 0.0
C599 C 0.62157 0.59005 0.76893 0.0
C600 C 0.63891 0.60154 0.77866 0.0
H601 H 0.60654 0.67105 0.70005 0.0
H602 H 0.6166 0.65184 0.71982 0.0
C603 C 0.64797 0.59433 0.79174 0.0
C604 C 0.6127 0.59777 0.7536 0.0
H605 H 0.61861 0.62213 0.70113 0.0
C606 C 0.59711 0.59755 0.76255 0.0
C607 C 0.62026 0.60628 0.73087 0.0
C608 C 0.63654 0.6062 0.71992 0.0
C609 C 0.58941 0.6065 0.74993 0.0
C610 C 0.59738 0.61558 0.72762 0.0
C611 C 0.61256 0.61519 0.71826 0.0
C612 C 0.59111 0.62679 0.71468 0.0
C613 C 0.57336 0.60691 0.76113 0.0
C614 C 0.57353 0.619 0.70475 0.0
C615 C 0.56769 0.62999 0.6934 0.0
C616 C 0.57939 0.64892 0.69173 0.0
C617 C 0.59715 0.65654 0.70107 0.0
C618 C 0.60295 0.64558 0.71239 0.0
H619 H 0.57109 0.60229 0.78057 0.0
H620 H 0.57533 0.62086 0.76035 0.0
H621 H 0.56092 0.59778 0.75053 0.0
H622 H 0.5643 0.60447 0.70592 0.0
H623 H 0.55394 0.6237 0.68631 0.0
H624 H 0.93473 0.59897 0.7014 0.0
H625 H 0.96352 0.60941 0.72279 0.0
H626 H 0.95592 0.5553 0.7194 0.0
H627 H 0.92694 0.54463 0.69785 0.0
H628 H 0.96589 0.59335 0.76948 0.0
H629 H 0.00957 0.59025 0.69534 0.0
H630 H 0.98944 0.5916 0.68866 0.0
H631 H 0.9873 0.57074 0.69976 0.0
C632 C 0.93924 0.58929 0.70487 0.0
C633 C 0.9285 0.57094 0.69798 0.0
C634 C 0.95569 0.59529 0.71714 0.0
C635 C 0.96182 0.58313 0.72263 0.0
C636 C 0.95148 0.56492 0.71511 0.0
H637 H 0.06483 0.61269 0.79727 0.0
H638 H 0.03469 0.59424 0.77866 0.0
C639 C 0.93493 0.55886 0.70283 0.0
C640 C 0.97851 0.58949 0.73749 0.0
H641 H 0.02317 0.60117 0.73397 0.0
C642 C 0.97839 0.59491 0.76182 0.0
C643 C 0.99467 0.59129 0.72748 0.0
C644 C 0.99544 0.58577 0.70134 0.0
C645 C 0.99419 0.60261 0.77624 0.0
C646 C 0.01061 0.6053 0.76585 0.0
C647 C 0.01055 0.59914 0.74186 0.0
C648 C 0.02824 0.61587 0.77876 0.0
C649 C 0.99317 0.60796 0.8024 0.0
C650 C 0.03455 0.6341 0.78502 0.0
C651 C 0.05167 0.64463 0.79563 0.0
C652 C 0.06292 0.63719 0.80007 0.0
C653 C 0.05646 0.6188 0.7942 0.0
C654 C 0.03928 0.60826 0.78351 0.0
H655 H 0.97917 0.59986 0.80989 0.0
H656 H 0.00265 0.60613 0.81452 0.0
H657 H 0.99696 0.62251 0.80289 0.0
H658 H 0.02642 0.64037 0.78105 0.0
H659 H 0.05624 0.65875 0.79981 0.0
H660 H 0.44953 0.06728 0.80901 0.0
H661 H 0.43873 0.03639 0.79357 0.0
H662 H 0.38774 0.03217 0.77288 0.0
H663 H 0.39821 0.06273 0.78861 0.0
H664 H 0.38321 0.00174 0.79651 0.0
H665 H 0.43389 0.02155 0.72124 0.0
H666 H 0.44339 0.02896 0.75139 0.0
H667 H 0.43024 0.03791 0.7377 0.0
C668 C 0.436 0.05973 0.80126 0.0
C669 C 0.42476 0.0675 0.79996 0.0
C670 C 0.4299 0.04215 0.79227 0.0
C671 C 0.41255 0.03211 0.78169 0.0
C672 C 0.40121 0.03971 0.78087 0.0
H673 H 0.36404 0.93807 0.68682 0.0
H674 H 0.3795 0.96868 0.70465 0.0
C675 C 0.40724 0.0572 0.78988 0.0
C676 C 0.40594 0.01361 0.77161 0.0
H677 H 0.41367 0.99005 0.72681 0.0
C678 C 0.38991 -0.00084 0.78135 0.0
C679 C 0.4146 0.01035 0.75161 0.0
C680 C 0.43139 0.02551 0.73967 0.0
C681 C 0.38221 0.98154 0.77156 0.0
C682 C 0.391 0.97821 0.75181 0.0
C683 C 0.40707 0.99263 0.7421 0.0
C684 C 0.38325 0.95994 0.74045 0.0
C685 C 0.36441 0.9668 0.78196 0.0
C686 C 0.38078 0.945 0.75444 0.0
C687 C 0.37188 0.92751 0.74437 0.0
C688 C 0.36543 0.92466 0.72002 0.0
C689 C 0.36877 0.93979 0.70565 0.0
C690 C 0.37761 0.95729 0.7158 0.0
H691 H 0.35731 0.97251 0.79273 0.0
H692 H 0.35521 0.9581 0.76708 0.0
H693 H 0.36707 0.95804 0.79441 0.0
H694 H 0.38539 0.94681 0.77333 0.0
H695 H 0.36972 0.91619 0.75586 0.0
H696 H 0.33845 0.4006 0.79901 0.0
H697 H 0.35523 0.38883 0.77651 0.0
H698 H 0.40171 0.44289 0.77196 0.0
H699 H 0.38497 0.45492 0.79457 0.0
H700 H 0.37045 0.40275 0.72691 0.0
H701 H 0.42172 0.40861 0.79577 0.0
H702 H 0.40067 0.40739 0.80482 0.0
H703 H 0.41845 0.42781 0.79126 0.0
C704 C 0.35233 0.41001 0.79357 0.0
C705 C 0.36034 0.42872 0.79851 0.0
C706 C 0.36188 0.40324 0.78068 0.0
C707 C 0.37967 0.415 0.77262 0.0
C708 C 0.38802 0.4336 0.77823 0.0
H709 H 0.44666 0.38005 0.6916 0.0
H710 H 0.43682 0.3998 0.71098 0.0
C711 C 0.37843 0.44043 0.79113 0.0
C712 C 0.38884 0.40774 0.75699 0.0
H713 H 0.42137 0.39536 0.75762 0.0
C714 C 0.3817 0.40128 0.7335 0.0
C715 C 0.40363 0.40607 0.76557 0.0
C716 C 0.41162 0.41274 0.79077 0.0
C717 C 0.38863 0.39268 0.71859 0.0
C718 C 0.40278 0.39011 0.72767 0.0
C719 C 0.41047 0.3973 0.75074 0.0
C720 C 0.40867 0.37866 0.71447 0.0
C721 C 0.38058 0.38625 0.69335 0.0
C722 C 0.39611 0.36026 0.71002 0.0
C723 C 0.40165 0.349 0.69897 0.0
C724 C 0.41992 0.35586 0.69228 0.0
C725 C 0.43247 0.37438 0.69641 0.0
C726 C 0.4269 0.38566 0.70755 0.0
H727 H 0.37447 0.39424 0.68618 0.0
H728 H 0.39099 0.38726 0.68009 0.0
H729 H 0.36962 0.3718 0.69444 0.0
H730 H 0.38206 0.35447 0.71568 0.0
H731 H 0.39164 0.3348 0.69617 0.0
H732 H 0.06342 0.44115 0.68613 0.0
H733 H 0.03287 0.43131 0.70203 0.0
H734 H 0.02838 0.38093 0.72664 0.0
H735 H 0.05864 0.39046 0.71053 0.0
H736 H -0.00229 0.37609 0.70249 0.0
H737 H 0.01923 0.42925 0.77478 0.0
H738 H 0.0265 0.43764 0.74413 0.0
H739 H 0.03512 0.42458 0.75891 0.0
C740 C 0.05589 0.42795 0.69485 0.0
C741 C 0.06349 0.41661 0.69714 0.0
C742 C 0.03851 0.42242 0.70409 0.0
C743 C 0.0285 0.40553 0.71588 0.0
C744 C 0.03592 0.39406 0.71772 0.0
H745 H 0.93563 0.36088 0.81235 0.0
H746 H 0.96605 0.37566 0.79404 0.0
C747 C 0.05323 0.39955 0.70848 0.0
C748 C 0.01021 0.39954 0.72616 0.0
H749 H 0.98761 0.40924 0.77019 0.0
C750 C 0.99547 0.38337 0.71721 0.0
C751 C 0.00741 0.40898 0.74557 0.0
C752 C 0.0229 0.426 0.75662 0.0
C753 C 0.97801 0.37629 0.72723 0.0
C754 C 0.97514 0.38585 0.7464 0.0
C755 C 0.98985 0.40206 0.75533 0.0
C756 C 0.95706 0.37873 0.75805 0.0
C757 C 0.96292 0.35833 0.7177 0.0
C758 C 0.94207 0.37615 0.7441 0.0
C759 C 0.92469 0.36763 0.75445 0.0
C760 C 0.92202 0.36169 0.77903 0.0
C761 C 0.93722 0.36523 0.79336 0.0
C762 C 0.95461 0.37368 0.78293 0.0
H763 H 0.96827 0.35073 0.70733 0.0
H764 H 0.95432 0.34964 0.73302 0.0
H765 H 0.95415 0.36086 0.70509 0.0
H766 H 0.94374 0.38031 0.72502 0.0
H767 H 0.9133 0.36531 0.74299 0.0
H768 H 0.43235 0.17705 0.18046 0.0
H769 H 0.44311 0.20628 0.20041 0.0
H770 H 0.49234 0.20709 0.2222 0.0
H771 H 0.48135 0.17731 0.20263 0.0
H772 H 0.47773 0.2152 0.26003 0.0
H773 H 0.48015 0.2571 0.18136 0.0
H774 H 0.45831 0.23686 0.18253 0.0
H775 H 0.47839 0.23515 0.17738 0.0
C776 C 0.44559 0.18349 0.18917 0.0
C777 C 0.45599 0.17482 0.18993 0.0
C778 C 0.45182 0.20035 0.20041 0.0
C779 C 0.46872 0.20911 0.21237 0.0
C780 C 0.47933 0.20066 0.21286 0.0
H781 H 0.48803 0.31335 0.27276 0.0
H782 H 0.49551 0.2923 0.25199 0.0
C783 C 0.47304 0.18366 0.20166 0.0
C784 C 0.47427 0.22624 0.2261 0.0
H785 H 0.47455 0.26644 0.22137 0.0
C786 C 0.47747 0.22661 0.25147 0.0
C787 C 0.47445 0.24139 0.21495 0.0
C788 C 0.47285 0.24268 0.18749 0.0
C789 C 0.47926 0.24099 0.26626 0.0
C790 C 0.47729 0.25508 0.25547 0.0
C791 C 0.4757 0.25549 0.22981 0.0
C792 C 0.47473 0.26827 0.27047 0.0
C793 C 0.48281 0.24066 0.29337 0.0
C794 C 0.46071 0.26184 0.28796 0.0
C795 C 0.45651 0.27381 0.29995 0.0
C796 C 0.46602 0.29248 0.29442 0.0
C797 C 0.48044 0.29904 0.27744 0.0
C798 C 0.48473 0.28703 0.26554 0.0
H799 H 0.49099 0.23397 0.29681 0.0
H800 H 0.49008 0.25457 0.3013 0.0
H801 H 0.46966 0.23262 0.30311 0.0
H802 H 0.45242 0.24741 0.2916 0.0
H803 H 0.44528 0.26825 0.31282 0.0
H804 H 0.16518 0.42998 0.28569 0.0
H805 H 0.19607 0.43984 0.27233 0.0
H806 H 0.21056 0.49591 0.28233 0.0
H807 H 0.1793 0.4861 0.29552 0.0
H808 H 0.22309 0.48972 0.23809 0.0
H809 H 0.2413 0.45953 0.31508 0.0
H810 H 0.22032 0.44309 0.30106 0.0
H811 H 0.22181 0.46269 0.31612 0.0
C812 C 0.1749 0.44443 0.28522 0.0
C813 C 0.16978 0.45725 0.29182 0.0
C814 C 0.19262 0.45004 0.2777 0.0
C815 C 0.20571 0.46858 0.27683 0.0
C816 C 0.20068 0.48151 0.28312 0.0
H817 H 0.31341 0.48344 0.24629 0.0
H818 H 0.29077 0.48968 0.2646 0.0
C819 C 0.18284 0.47588 0.29066 0.0
C820 C 0.22441 0.47416 0.26849 0.0
H821 H 0.25844 0.46458 0.27759 0.0
C822 C 0.23104 0.48456 0.24696 0.0
C823 C 0.23498 0.46782 0.28038 0.0
C824 C 0.22932 0.45784 0.30459 0.0
C825 C 0.24733 0.48761 0.23604 0.0
C826 C 0.25697 0.47969 0.24666 0.0
C827 C 0.25099 0.47047 0.26917 0.0
C828 C 0.27215 0.47917 0.23382 0.0
C829 C 0.25384 0.49902 0.21305 0.0
C830 C 0.26948 0.4716 0.21017 0.0
C831 C 0.28247 0.46821 0.19956 0.0
C832 C 0.29828 0.47198 0.21259 0.0
C833 C 0.30134 0.48031 0.23581 0.0
C834 C 0.28841 0.48389 0.2463 0.0
H835 H 0.24962 0.50948 0.21293 0.0
H836 H 0.26887 0.50595 0.21124 0.0
H837 H 0.2476 0.49016 0.19678 0.0
H838 H 0.25687 0.46735 0.2004 0.0
H839 H 0.27962 0.4617 0.18171 0.0
H840 H 0.72278 0.18142 0.31778 0.0
H841 H 0.74465 0.20968 0.29796 0.0
H842 H 0.70508 0.20157 0.24235 0.0
H843 H 0.68314 0.17283 0.2618 0.0
H844 H 0.73557 0.20755 0.22194 0.0
H845 H 0.75339 0.26034 0.29254 0.0
H846 H 0.75542 0.24194 0.3051 0.0
H847 H 0.7335 0.23802 0.29513 0.0
C848 C 0.71854 0.18579 0.30164 0.0
C849 C 0.70123 0.17477 0.29128 0.0
C850 C 0.73105 0.20211 0.29042 0.0
C851 C 0.72648 0.20795 0.26882 0.0
C852 C 0.70889 0.19741 0.25908 0.0
H853 H 0.81815 0.30679 0.2034 0.0
H854 H 0.78744 0.28635 0.21938 0.0
C855 C 0.69636 0.18098 0.27023 0.0
C856 C 0.74084 0.2236 0.25486 0.0
H857 H 0.77717 0.26638 0.2624 0.0
C858 C 0.74439 0.22056 0.23063 0.0
C859 C 0.75222 0.24075 0.26589 0.0
C860 C 0.74828 0.2455 0.291 0.0
C861 C 0.75976 0.23363 0.2179 0.0
C862 C 0.77215 0.25 0.22992 0.0
C863 C 0.76786 0.25367 0.25336 0.0
C864 C 0.79039 0.26246 0.21951 0.0
C865 C 0.76285 0.22954 0.19193 0.0
C866 C 0.80228 0.25587 0.21465 0.0
C867 C 0.81969 0.26742 0.20555 0.0
C868 C 0.82573 0.28591 0.20132 0.0
C869 C 0.81387 0.29259 0.20636 0.0
C870 C 0.79635 0.28095 0.2155 0.0
H871 H 0.74976 0.22019 0.18269 0.0
H872 H 0.77019 0.24216 0.18083 0.0
H873 H 0.77109 0.22272 0.19233 0.0
H874 H 0.79816 0.24178 0.21822 0.0
H875 H 0.82847 0.26182 0.20206 0.0
H876 H 0.54533 0.81101 0.163 0.0
H877 H 0.53912 0.78305 0.18359 0.0
H878 H 0.5058 0.79053 0.23688 0.0
H879 H 0.51239 0.81897 0.21665 0.0
H880 H 0.52994 0.78452 0.25895 0.0
H881 H 0.49688 0.73233 0.18702 0.0
H882 H 0.5177 0.75089 0.17558 0.0
H883 H 0.49937 0.75467 0.18436 0.0
C884 C 0.5364 0.80659 0.17883 0.0
C885 C 0.52943 0.81729 0.18824 0.0
C886 C 0.53271 0.79045 0.19048 0.0
C887 C 0.52173 0.78447 0.21157 0.0
C888 C 0.5142 0.79479 0.22053 0.0
H889 H 0.51053 0.68433 0.278 0.0
H890 H 0.50157 0.7055 0.26098 0.0
C891 C 0.51798 0.81104 0.20894 0.0
C892 C 0.52003 0.76872 0.22569 0.0
H893 H 0.5132 0.72577 0.21859 0.0
C894 C 0.52588 0.77153 0.25026 0.0
C895 C 0.51442 0.75162 0.21461 0.0
C896 C 0.50655 0.74714 0.18902 0.0
C897 C 0.52755 0.75823 0.26341 0.0
C898 C 0.52367 0.74186 0.25149 0.0
C899 C 0.5165 0.73847 0.22758 0.0
C900 C 0.52864 0.729 0.26263 0.0
C901 C 0.53388 0.76206 0.28977 0.0
C902 C 0.54683 0.73513 0.26885 0.0
C903 C 0.55195 0.72317 0.27855 0.0
C904 C 0.53903 0.7047 0.28203 0.0
C905 C 0.52079 0.69849 0.27564 0.0
C906 C 0.51566 0.71055 0.26592 0.0
H907 H 0.53009 0.77153 0.29852 0.0
H908 H 0.52804 0.74935 0.30078 0.0
H909 H 0.54893 0.76863 0.29028 0.0
H910 H 0.55717 0.74919 0.26585 0.0
H911 H 0.56613 0.72841 0.28308 0.0
H912 H 0.74143 0.55719 0.16971 0.0
H913 H 0.76017 0.54739 0.19102 0.0
H914 H 0.71214 0.50186 0.22183 0.0
H915 H 0.69318 0.51201 0.20105 0.0
H916 H 0.73546 0.51945 0.2566 0.0
H917 H 0.77339 0.50897 0.18269 0.0
H918 H 0.77559 0.53093 0.17891 0.0
H919 H 0.75346 0.51077 0.17651 0.0
C920 C 0.73476 0.54486 0.18059 0.0
C921 C 0.71579 0.53546 0.18379 0.0
C922 C 0.74553 0.53915 0.19261 0.0
C923 C 0.7376 0.52369 0.20775 0.0
C924 C 0.71857 0.51376 0.21012 0.0
H925 H 0.82371 0.51198 0.28092 0.0
H926 H 0.7952 0.50214 0.25852 0.0
C927 C 0.70775 0.51957 0.19822 0.0
C928 C 0.74941 0.51955 0.2234 0.0
H929 H 0.78947 0.51936 0.22216 0.0
C930 C 0.74701 0.51895 0.249 0.0
C931 C 0.76425 0.51839 0.21367 0.0
C932 C 0.76666 0.51708 0.18641 0.0
C933 C 0.75991 0.51891 0.26507 0.0
C934 C 0.77588 0.52005 0.25529 0.0
C935 C 0.77745 0.51892 0.22973 0.0
C936 C 0.79194 0.52458 0.27091 0.0
C937 C 0.75649 0.51819 0.29237 0.0
C938 C 0.79956 0.54041 0.28535 0.0
C939 C 0.8157 0.54598 0.29822 0.0
C940 C 0.82479 0.536 0.29665 0.0
C941 C 0.81701 0.51995 0.28255 0.0
C942 C 0.80074 0.51431 0.26973 0.0
H943 H 0.7417 0.51027 0.29642 0.0
H944 H 0.7634 0.51197 0.30245 0.0
H945 H 0.76165 0.53221 0.29938 0.0
H946 H 0.79338 0.54889 0.28598 0.0
H947 H 0.82134 0.55846 0.30876 0.0
H948 H 0.17982 0.73892 0.17515 0.0
H949 H 0.20803 0.75879 0.19669 0.0
H950 H 0.20476 0.71251 0.23428 0.0
H951 H 0.17608 0.69244 0.21315 0.0
H952 H 0.20996 0.73824 0.26596 0.0
H953 H 0.25973 0.77057 0.19127 0.0
H954 H 0.2401 0.77262 0.18522 0.0
H955 H 0.23793 0.75038 0.18636 0.0
C956 C 0.18524 0.73286 0.18762 0.0
C957 C 0.17563 0.71409 0.19251 0.0
C958 C 0.20151 0.74426 0.19979 0.0
C959 C 0.20872 0.73715 0.21685 0.0
C960 C 0.19953 0.7183 0.22107 0.0
H961 H 0.30787 0.82419 0.28668 0.0
H962 H 0.28799 0.79478 0.2669 0.0
C963 C 0.18315 0.70685 0.20896 0.0
C964 C 0.22454 0.74973 0.23219 0.0
H965 H 0.2658 0.78864 0.22874 0.0
C966 C 0.22236 0.74901 0.25784 0.0
C967 C 0.24093 0.76356 0.22178 0.0
C968 C 0.24488 0.76419 0.19465 0.0
C969 C 0.23544 0.76258 0.27309 0.0
C970 C 0.25088 0.77749 0.26237 0.0
C971 C 0.2538 0.7774 0.23697 0.0
C972 C 0.26298 0.79418 0.2766 0.0
C973 C 0.23232 0.76101 0.3005 0.0
C974 C 0.25555 0.80357 0.28869 0.0
C975 C 0.26681 0.82024 0.30006 0.0
C976 C 0.28581 0.82807 0.29931 0.0
C977 C 0.29328 0.8185 0.28765 0.0
C978 C 0.28195 0.80171 0.27631 0.0
H979 H 0.22448 0.74652 0.30625 0.0
H980 H 0.24534 0.7678 0.31083 0.0
H981 H 0.22421 0.76748 0.30562 0.0
H982 H 0.24101 0.79833 0.28859 0.0
H983 H 0.26058 0.82725 0.30874 0.0
H984 H 0.56242 0.71452 0.73493 0.0
H985 H 0.56202 0.73991 0.75583 0.0
H986 H 0.53838 0.74948 0.69146 0.0
H987 H 0.53885 0.72437 0.67039 0.0
H988 H 0.57911 0.77759 0.73816 0.0
H989 H 0.5042 0.74476 0.7499 0.0
H990 H 0.51554 0.73193 0.74414 0.0
H991 H 0.51179 0.74368 0.71942 0.0
C992 C 0.55705 0.72197 0.72528 0.0
C993 C 0.55046 0.7173 0.70111 0.0
C994 C 0.55686 0.73646 0.73722 0.0
C995 C 0.54996 0.74633 0.72522 0.0
C996 C 0.54347 0.74177 0.70111 0.0
H997 H 0.56133 0.8514 0.75896 0.0
H998 H 0.56219 0.82574 0.73964 0.0
C999 C 0.54373 0.72739 0.68913 0.0
C1000 C 0.54988 0.76172 0.73763 0.0
H1001 H 0.52158 0.77625 0.75909 0.0
C1002 C 0.56657 0.77732 0.74286 0.0
C1003 C 0.53345 0.76117 0.74378 0.0
C1004 C 0.5152 0.74445 0.73924 0.0
C1005 C 0.56726 0.79262 0.75379 0.0
C1006 C 0.55082 0.79223 0.75937 0.0
C1007 C 0.53413 0.7765 0.75452 0.0
C1008 C 0.5506 0.80783 0.77092 0.0
C1009 C 0.5855 0.80899 0.75954 0.0
C1010 C 0.54359 0.80606 0.79469 0.0
C1011 C 0.54306 0.82061 0.80572 0.0
C1012 C 0.54937 0.83712 0.79305 0.0
C1013 C 0.55637 0.83884 0.76917 0.0
C1014 C 0.55694 0.82426 0.75816 0.0
H1015 H 0.59666 0.80577 0.75868 0.0
H1016 H 0.58845 0.81988 0.74597 0.0
H1017 H 0.58542 0.81439 0.77811 0.0
H1018 H 0.53863 0.79345 0.80477 0.0
H1019 H 0.53782 0.8189 0.82425 0.0
H1020 H 0.71189 0.56538 0.75932 0.0
H1021 H 0.73995 0.56792 0.74301 0.0
H1022 H 0.73906 0.53241 0.8004 0.0
H1023 H 0.71189 0.53071 0.81751 0.0
H1024 H 0.77208 0.5603 0.79497 0.0
H1025 H 0.74427 0.53057 0.70326 0.0
H1026 H 0.74297 0.55054 0.71024 0.0
H1027 H 0.73001 0.53018 0.72806 0.0
C1028 C 0.71764 0.55805 0.76836 0.0
C1029 C 0.70944 0.54755 0.78946 0.0
C1030 C 0.73362 0.55944 0.75895 0.0
C1031 C 0.74139 0.55006 0.77022 0.0
C1032 C 0.73325 0.5397 0.79134 0.0
H1033 H 0.81264 0.51727 0.70716 0.0
H1034 H 0.78781 0.51996 0.72533 0.0
C1035 C 0.71755 0.53857 0.80096 0.0
C1036 C 0.75805 0.55094 0.76037 0.0
H1037 H 0.77542 0.54116 0.70993 0.0
C1038 C 0.77284 0.55613 0.77635 0.0
C1039 C 0.75893 0.54536 0.73615 0.0
C1040 C 0.74315 0.53868 0.71849 0.0
C1041 C 0.7883 0.55543 0.76902 0.0
C1042 C 0.78923 0.55001 0.74474 0.0
C1043 C 0.77466 0.54531 0.72855 0.0
C1044 C 0.80473 0.5482 0.73589 0.0
C1045 C 0.80309 0.55977 0.78767 0.0
C1046 C 0.82256 0.56306 0.73629 0.0
C1047 C 0.83682 0.5614 0.72629 0.0
C1048 C 0.83331 0.54504 0.71517 0.0
C1049 C 0.81559 0.5301 0.71526 0.0
C1050 C 0.80143 0.53163 0.72567 0.0
H1051 H 0.79802 0.55859 0.8068 0.0
H1052 H 0.80879 0.55059 0.78558 0.0
H1053 H 0.81424 0.57398 0.78495 0.0
H1054 H 0.82536 0.57608 0.74358 0.0
H1055 H 0.8504 0.57314 0.72613 0.0
H1056 H 0.28242 0.8134 0.68045 0.0
H1057 H 0.25517 0.78764 0.69694 0.0
H1058 H 0.25399 0.82136 0.75545 0.0
H1059 H 0.28207 0.84719 0.73969 0.0
H1060 H 0.2464 0.7895 0.77264 0.0
H1061 H 0.20444 0.77799 0.68982 0.0
H1062 H 0.22453 0.77713 0.6823 0.0
H1063 H 0.22649 0.79802 0.69359 0.0
C1064 C 0.27658 0.81539 0.69697 0.0
C1065 C 0.28451 0.83238 0.7088 0.0
C1066 C 0.26076 0.80065 0.70617 0.0
C1067 C 0.25222 0.80269 0.72698 0.0
C1068 C 0.26026 0.81954 0.73918 0.0
H1069 H 0.1432 0.71643 0.76873 0.0
H1070 H 0.16876 0.74463 0.7525 0.0
C1071 C 0.27632 0.83426 0.7302 0.0
C1072 C 0.23523 0.78701 0.73635 0.0
H1073 H 0.19348 0.75291 0.71826 0.0
C1074 C 0.23474 0.78164 0.76084 0.0
C1075 C 0.21983 0.77699 0.72112 0.0
C1076 C 0.21877 0.78297 0.69535 0.0
C1077 C 0.21958 0.76606 0.77023 0.0
C1078 C 0.20482 0.7552 0.75439 0.0
C1079 C 0.20497 0.76102 0.73023 0.0
C1080 C 0.18923 0.73768 0.76254 0.0
C1081 C 0.21953 0.76156 0.79708 0.0
C1082 C 0.19218 0.72414 0.77253 0.0
C1083 C 0.17769 0.70826 0.78209 0.0
C1084 C 0.15997 0.70545 0.78118 0.0
C1085 C 0.1568 0.71836 0.76959 0.0
C1086 C 0.17136 0.73445 0.76045 0.0
H1087 H 0.22844 0.77394 0.80802 0.0
H1088 H 0.2056 0.75504 0.80493 0.0
H1089 H 0.22485 0.75206 0.7991 0.0
H1090 H 0.20574 0.726 0.77338 0.0
H1091 H 0.18039 0.69826 0.79034 0.0
H1092 H 0.47117 0.28981 0.69525 0.0
H1093 H 0.46802 0.26203 0.71302 0.0
H1094 H 0.41409 0.24686 0.73829 0.0
H1095 H 0.41747 0.2751 0.72099 0.0
H1096 H 0.43174 0.23957 0.77213 0.0
H1097 H 0.43938 0.21228 0.68361 0.0
H1098 H 0.4586 0.23436 0.68925 0.0
H1099 H 0.43636 0.23183 0.68542 0.0
C1100 C 0.45862 0.28052 0.70445 0.0
C1101 C 0.44442 0.28437 0.70634 0.0
C1102 C 0.45679 0.26461 0.71452 0.0
C1103 C 0.44056 0.25205 0.72616 0.0
C1104 C 0.42663 0.25625 0.72904 0.0
H1105 H 0.42795 0.14516 0.76062 0.0
H1106 H 0.42266 0.16866 0.74286 0.0
C1107 C 0.42859 0.27237 0.71928 0.0
C1108 C 0.43842 0.23476 0.73571 0.0
H1109 H 0.44454 0.19927 0.72005 0.0
C1110 C 0.43427 0.23061 0.76066 0.0
C1111 C 0.44117 0.22276 0.72061 0.0
C1112 C 0.44391 0.22543 0.69319 0.0
C1113 C 0.43389 0.21537 0.77124 0.0
C1114 C 0.4384 0.20439 0.75662 0.0
C1115 C 0.44144 0.2079 0.73136 0.0
C1116 C 0.44121 0.18998 0.76743 0.0
C1117 C 0.42873 0.21129 0.79799 0.0
C1118 C 0.45366 0.19427 0.7867 0.0
C1119 C 0.45652 0.18091 0.797 0.0
C1120 C 0.44737 0.16304 0.78782 0.0
C1121 C 0.43526 0.15883 0.76804 0.0
C1122 C 0.43219 0.17221 0.75793 0.0
H1123 H 0.41943 0.21629 0.80366 0.0
H1124 H 0.42201 0.19648 0.80184 0.0
H1125 H 0.44116 0.21841 0.80946 0.0
H1126 H 0.46124 0.20802 0.79379 0.0
H1127 H 0.46583 0.18465 0.81229 0.0
H1128 H 0.14467 0.41459 0.71907 0.0
H1129 H 0.17087 0.41338 0.73592 0.0
H1130 H 0.20573 0.47005 0.71775 0.0
H1131 H 0.17979 0.4711 0.70044 0.0
H1132 H 0.21987 0.44987 0.70214 0.0
H1133 H 0.19793 0.43306 0.79945 0.0
H1134 H 0.18228 0.41711 0.77752 0.0
H1135 H 0.18645 0.44007 0.77797 0.0
C1136 C 0.15792 0.4268 0.71905 0.0
C1137 C 0.16035 0.44288 0.70826 0.0
C1138 C 0.17284 0.42612 0.72868 0.0
C1139 C 0.19024 0.44165 0.72816 0.0
C1140 C 0.19246 0.45786 0.71813 0.0
H1141 H 0.28528 0.46992 0.81056 0.0
H1142 H 0.25726 0.46513 0.79201 0.0
C1143 C 0.17766 0.45845 0.70818 0.0
C1144 C 0.20639 0.4411 0.73716 0.0
H1145 H 0.22542 0.43439 0.78836 0.0
C1146 C 0.22109 0.44644 0.72099 0.0
C1147 C 0.2079 0.43663 0.76174 0.0
C1148 C 0.19288 0.43155 0.78026 0.0
C1149 C 0.23754 0.44807 0.72893 0.0
C1150 C 0.23908 0.44367 0.75354 0.0
C1151 C 0.22415 0.4377 0.76947 0.0
C1152 C 0.25651 0.44674 0.76387 0.0
C1153 C 0.25333 0.4553 0.71122 0.0
C1154 C 0.26553 0.43809 0.75408 0.0
C1155 C 0.28195 0.4412 0.76435 0.0
C1156 C 0.28939 0.45275 0.7848 0.0
C1157 C 0.28019 0.46122 0.79459 0.0
C1158 C 0.26401 0.45834 0.78414 0.0
H1159 H 0.2512 0.46205 0.69509 0.0
H1160 H 0.2662 0.46522 0.72042 0.0
H1161 H 0.25488 0.44385 0.70434 0.0
H1162 H 0.25978 0.42877 0.73877 0.0
H1163 H 0.28859 0.43426 0.75662 0.0
H1164 H 0.84328 0.28303 0.75594 0.0
H1165 H 0.81653 0.25684 0.73788 0.0
H1166 H 0.78695 0.24907 0.80542 0.0
H1167 H 0.81352 0.27497 0.82368 0.0
H1168 H 0.79679 0.21947 0.75817 0.0
H1169 H 0.75463 0.25254 0.74958 0.0
H1170 H 0.77907 0.2654 0.75278 0.0
H1171 H 0.76504 0.25441 0.77905 0.0
C1172 C 0.83106 0.27577 0.7669 0.0
C1173 C 0.83043 0.28121 0.79111 0.0
C1174 C 0.81584 0.26084 0.75659 0.0
C1175 C 0.79979 0.25125 0.77029 0.0
C1176 C 0.79917 0.25653 0.79449 0.0
H1177 H 0.70446 0.14604 0.73612 0.0
H1178 H 0.73015 0.17135 0.75742 0.0
C1179 C 0.81436 0.27137 0.80484 0.0
C1180 C 0.78369 0.23558 0.75941 0.0
H1181 H 0.74044 0.22123 0.73991 0.0
C1182 C 0.78444 0.21979 0.75418 0.0
C1183 C 0.76771 0.23619 0.75425 0.0
C1184 C 0.76649 0.25307 0.759 0.0
C1185 C 0.76949 0.20448 0.74386 0.0
C1186 C 0.75346 0.20505 0.73885 0.0
C1187 C 0.75274 0.22085 0.74406 0.0
C1188 C 0.73773 0.18984 0.7266 0.0
C1189 C 0.77102 0.18794 0.73783 0.0
C1190 C 0.73347 0.19207 0.70248 0.0
C1191 C 0.71893 0.17774 0.69032 0.0
C1192 C 0.70826 0.16095 0.70218 0.0
C1193 C 0.71242 0.15882 0.72653 0.0
C1194 C 0.72709 0.1732 0.73867 0.0
H1195 H 0.78523 0.19072 0.73936 0.0
H1196 H 0.76243 0.17679 0.75074 0.0
H1197 H 0.76602 0.18312 0.71891 0.0
H1198 H 0.7416 0.20484 0.6929 0.0
H1199 H 0.71628 0.17979 0.67148 0.0
H1200 H 0.47934 0.14704 0.10272 0.0
H1201 H 0.4947 0.15718 0.0628 0.0
H1202 H 0.46323 0.10244 0.03484 0.0
H1203 H 0.44834 0.09219 0.07436 0.0
H1204 H 0.49888 0.11846 0.02086 0.0
H1205 H 0.47047 0.16404 0.00283 0.0
H1206 H 0.48415 0.16871 0.02997 0.0
H1207 H 0.46259 0.14805 0.02795 0.0
C1208 C 0.47575 0.13721 0.08803 0.0
C1209 C 0.46254 0.11885 0.09168 0.0
C1210 C 0.48451 0.14301 0.06527 0.0
C1211 C 0.47997 0.13058 0.04582 0.0
C1212 C 0.46702 0.11225 0.04963 0.0
H1213 H 0.47165 0.11268 0.89617 0.0
H1214 H 0.4768 0.11169 0.94015 0.0
C1215 C 0.45844 0.10644 0.07227 0.0
C1216 C 0.48773 0.13636 0.02091 0.0
H1217 H 0.48533 0.15887 0.97047 0.0
C1218 C 0.49624 0.12757 0.00993 0.0
C1219 C 0.48432 0.1483 0.00674 0.0
C1220 C 0.47478 0.15776 0.01731 0.0
C1221 C 0.50044 0.12956 0.98478 0.0
C1222 C 0.49596 0.14057 0.97036 0.0
C1223 C 0.48871 0.15041 0.98167 0.0
C1224 C 0.49642 0.14043 0.94322 0.0
C1225 C 0.50901 0.11937 0.97367 0.0
C1226 C 0.50612 0.1568 0.93029 0.0
C1227 C 0.50315 0.15743 0.90519 0.0
C1228 C 0.49024 0.14171 0.89264 0.0
C1229 C 0.48163 0.12503 0.90526 0.0
C1230 C 0.48465 0.12442 0.9304 0.0
H1231 H 0.51667 0.11636 0.98766 0.0
H1232 H 0.49817 0.10622 0.96617 0.0
H1233 H 0.51836 0.12721 0.95841 0.0
H1234 H 0.51521 0.16929 0.93991 0.0
H1235 H 0.51019 0.17048 0.89599 0.0
H1236 H 0.34212 0.51234 0.89673 0.0
H1237 H 0.34689 0.5158 0.94104 0.0
H1238 H 0.36575 0.47716 0.94029 0.0
H1239 H 0.36101 0.47353 0.89589 0.0
H1240 H 0.32636 0.48457 0.96971 0.0
H1241 H 0.39984 0.51601 0.99034 0.0
H1242 H 0.39138 0.51863 0.96102 0.0
H1243 H 0.39197 0.4982 0.96777 0.0
C1244 C 0.34775 0.50491 0.90583 0.0
C1245 C 0.35088 0.49239 0.89281 0.0
C1246 C 0.35052 0.50699 0.93116 0.0
C1247 C 0.35668 0.49677 0.94388 0.0
C1248 C 0.36124 0.48538 0.93072 0.0
H1249 H 0.35453 0.44795 0.07648 0.0
H1250 H 0.35942 0.4623 0.0365 0.0
C1251 C 0.35844 0.48325 0.90533 0.0
C1252 C 0.35533 0.49552 0.97095 0.0
H1253 H 0.3792 0.49802 0.02254 0.0
C1254 C 0.33794 0.48788 0.98144 0.0
C1255 C 0.37048 0.49989 0.98603 0.0
C1256 C 0.38951 0.5088 0.97578 0.0
C1257 C 0.33507 0.48316 0.00638 0.0
C1258 C 0.35012 0.48662 0.02127 0.0
C1259 C 0.36768 0.49537 0.01106 0.0
C1260 C 0.34766 0.47893 0.04629 0.0
C1261 C 0.31584 0.47334 0.01611 0.0
C1262 C 0.33942 0.48355 0.06518 0.0
C1263 C 0.33632 0.4751 0.0882 0.0
C1264 C 0.34169 0.46215 0.09267 0.0
C1265 C 0.35023 0.45789 0.07376 0.0
C1266 C 0.35314 0.46615 0.05086 0.0
H1267 H 0.3056 0.46891 0.00113 0.0
H1268 H 0.31328 0.46119 0.0269 0.0
H1269 H 0.31379 0.48257 0.02844 0.0
H1270 H 0.33535 0.4936 0.06211 0.0
H1271 H 0.32989 0.47881 0.10249 0.0
H1272 H 0.84216 0.35153 0.89561 0.0
H1273 H 0.84548 0.36163 0.93836 0.0
H1274 H 0.88995 0.35118 0.94748 0.0
H1275 H 0.88732 0.34215 0.9044 0.0
H1276 H 0.83881 0.34129 0.97534 0.0
H1277 H 0.90961 0.39635 0.986 0.0
H1278 H 0.8995 0.38848 0.9561 0.0
H1279 H 0.90965 0.37721 0.9723 0.0
C1280 C 0.85301 0.35198 0.90661 0.0
C1281 C 0.86452 0.34612 0.89683 0.0
C1282 C 0.85487 0.3577 0.93102 0.0
C1283 C 0.86805 0.35733 0.94618 0.0
C1284 C 0.88004 0.35216 0.93606 0.0
H1285 H 0.8597 0.32318 0.09296 0.0
H1286 H 0.8534 0.32713 0.05029 0.0
C1287 C 0.87848 0.34688 0.91145 0.0
C1288 C 0.86773 0.35994 0.97311 0.0
H1289 H 0.89555 0.37803 0.0227 0.0
C1290 C 0.85117 0.34969 0.98566 0.0
C1291 C 0.88368 0.3712 0.98669 0.0
C1292 C 0.90153 0.38407 0.97446 0.0
C1293 C 0.85037 0.34944 0.0114 0.0
C1294 C 0.86668 0.35908 0.02497 0.0
C1295 C 0.88302 0.37032 0.01241 0.0
C1296 C 0.86755 0.35662 0.05184 0.0
C1297 C 0.83206 0.33868 0.02365 0.0
C1298 C 0.87755 0.37181 0.06705 0.0
C1299 C 0.88165 0.36953 0.09114 0.0
C1300 C 0.87547 0.35202 0.10059 0.0
C1301 C 0.86433 0.33679 0.08611 0.0
C1302 C 0.86065 0.33907 0.06176 0.0
H1303 H 0.82125 0.3388 0.01228 0.0
H1304 H 0.82863 0.32429 0.0255 0.0
H1305 H 0.83191 0.34412 0.04216 0.0
H1306 H 0.883 0.38547 0.05988 0.0
H1307 H 0.89031 0.38146 0.10207 0.0
H1308 H 0.50117 0.88412 0.10433 0.0
H1309 H 0.48842 0.87707 0.06281 0.0
H1310 H 0.51819 0.84911 0.04817 0.0
H1311 H 0.52981 0.85505 0.09019 0.0
H1312 H 0.50701 0.89086 0.02523 0.0
H1313 H 0.4743 0.81718 0.01048 0.0
H1314 H 0.47988 0.82688 0.04093 0.0
H1315 H 0.49648 0.82466 0.02274 0.0
C1316 C 0.50432 0.87581 0.09246 0.0
C1317 C 0.51635 0.87003 0.10028 0.0
C1318 C 0.49712 0.87185 0.06875 0.0
C1319 C 0.50222 0.86246 0.05227 0.0
C1320 C 0.51352 0.85586 0.06063 0.0
H1321 H 0.53801 0.88863 0.90757 0.0
H1322 H 0.52992 0.88927 0.95042 0.0
C1323 C 0.52029 0.85935 0.08462 0.0
C1324 C 0.49832 0.86219 0.02561 0.0
H1325 H 0.4895 0.83617 0.97424 0.0
C1326 C 0.50268 0.87874 0.01418 0.0
C1327 C 0.49221 0.8464 0.01102 0.0
C1328 C 0.48526 0.82778 0.02207 0.0
C1329 C 0.50253 0.88022 0.98854 0.0
C1330 C 0.49871 0.86495 0.9739 0.0
C1331 C 0.49287 0.84807 0.98535 0.0
C1332 C 0.50243 0.86646 0.9471 0.0
C1333 C 0.50677 0.89824 0.97755 0.0
C1334 C 0.48976 0.85345 0.93084 0.0
C1335 C 0.49462 0.85274 0.90653 0.0
C1336 C 0.51211 0.86524 0.89795 0.0
C1337 C 0.52436 0.87903 0.91367 0.0
C1338 C 0.51967 0.87945 0.93816 0.0
H1339 H 0.50164 0.90529 0.98955 0.0
H1340 H 0.52173 0.90716 0.97614 0.0
H1341 H 0.5007 0.89659 0.95899 0.0
H1342 H 0.4764 0.8433 0.93725 0.0
H1343 H 0.48492 0.84199 0.89467 0.0
H1344 H 0.67235 0.53117 0.09237 0.0
H1345 H 0.66578 0.52046 0.04966 0.0
H1346 H 0.61537 0.52105 0.05264 0.0
H1347 H 0.62176 0.53177 0.09508 0.0
H1348 H 0.61958 0.48844 0.02462 0.0
H1349 H 0.66346 0.56164 -2e-05 0.0
H1350 H 0.6707 0.55224 0.02426 0.0
H1351 H 0.65113 0.5547 0.02865 0.0
C1352 C 0.65968 0.5286 0.08412 0.0
C1353 C 0.64772 0.53259 0.0969 0.0
C1354 C 0.65594 0.52245 0.05981 0.0
C1355 C 0.64012 0.52003 0.04821 0.0
C1356 C 0.62759 0.52279 0.06144 0.0
H1357 H 0.63204 0.53085 0.89139 0.0
H1358 H 0.62409 0.52825 0.93498 0.0
C1359 C 0.63136 0.52905 0.08559 0.0
C1360 C 0.63791 0.51727 0.02147 0.0
H1361 H 0.65167 0.54067 0.9676 0.0
C1362 C 0.62652 0.49979 0.01204 0.0
C1363 C 0.6467 0.53224 0.00537 0.0
C1364 C 0.65866 0.55133 0.0149 0.0
C1365 C 0.62411 0.49682 0.98656 0.0
C1366 C 0.63345 0.51174 0.97039 0.0
C1367 C 0.64441 0.52927 0.98002 0.0
C1368 C 0.63367 0.50955 0.94346 0.0
C1369 C 0.6116 0.47782 0.97722 0.0
C1370 C 0.64099 0.49934 0.93366 0.0
C1371 C 0.6455 0.50075 0.90881 0.0
C1372 C 0.64299 0.51262 0.89337 0.0
C1373 C 0.63427 0.52169 0.9028 0.0
C1374 C 0.6297 0.52021 0.9277 0.0
H1375 H 0.60108 0.46951 0.99108 0.0
H1376 H 0.60475 0.47799 0.95992 0.0
H1377 H 0.61967 0.47107 0.97348 0.0
H1378 H 0.64449 0.4913 0.94552 0.0
H1379 H 0.65203 0.49342 0.90213 0.0
H1380 H 0.10615 0.64328 0.8981 0.0
H1381 H 0.10393 0.63897 0.94274 0.0
H1382 H 0.15963 0.65118 0.94541 0.0
H1383 H 0.16208 0.65557 0.90089 0.0
H1384 H 0.12709 0.6187 0.97868 0.0
H1385 H 0.14086 0.69009 0.98395 0.0
H1386 H 0.12502 0.67522 0.9611 0.0
H1387 H 0.14862 0.68205 0.95852 0.0
C1388 C 0.11778 0.64458 0.90806 0.0
C1389 C 0.13437 0.65002 0.896 0.0
C1390 C 0.11649 0.64213 0.93353 0.0
C1391 C 0.13167 0.6449 0.94717 0.0
C1392 C 0.1478 0.649 0.93506 0.0
H1393 H 0.14349 0.67289 0.10316 0.0
H1394 H 0.15157 0.67006 0.06075 0.0
C1395 C 0.14916 0.65156 0.90965 0.0
C1396 C 0.13138 0.64575 0.97417 0.0
H1397 H 0.13381 0.67358 0.02094 0.0
C1398 C 0.12866 0.63069 0.98803 0.0
C1399 C 0.13384 0.66159 0.98612 0.0
C1400 C 0.13735 0.67826 0.9718 0.0
C1401 C 0.12763 0.63085 0.01379 0.0
C1402 C 0.12918 0.64639 0.0257 0.0
C1403 C 0.13265 0.6617 0.01177 0.0
C1404 C 0.12547 0.64655 0.05221 0.0
C1405 C 0.12477 0.61436 0.02797 0.0
C1406 C 0.10821 0.63421 0.06141 0.0
C1407 C 0.10356 0.63581 0.08545 0.0
C1408 C 0.11603 0.64991 0.10079 0.0
C1409 C 0.13358 0.6619 0.09183 0.0
C1410 C 0.13822 0.66029 0.06765 0.0
H1411 H 0.12989 0.60656 0.01758 0.0
H1412 H 0.13166 0.61824 0.04612 0.0
H1413 H 0.10999 0.60522 0.0311 0.0
H1414 H 0.09802 0.62379 0.04966 0.0
H1415 H 0.08994 0.62627 0.09174 0.0
H1416 H 0.88438 0.53321 0.5975 0.0
H1417 H 0.88579 0.52995 0.55295 0.0
H1418 H 0.82973 0.48712 0.55251 0.0
H1419 H 0.8281 0.4902 0.59696 0.0
H1420 H 0.85847 0.48406 0.51897 0.0
H1421 H 0.85213 0.54606 0.51135 0.0
H1422 H 0.86869 0.54701 0.53288 0.0
H1423 H 0.84496 0.53172 0.53831 0.0
C1424 C 0.87249 0.52278 0.58805 0.0
C1425 C 0.85605 0.51216 0.60069 0.0
C1426 C 0.87332 0.52097 0.56264 0.0
C1427 C 0.8578 0.50843 0.54962 0.0
C1428 C 0.8418 0.49687 0.56235 0.0
H1429 H 0.85062 0.52656 0.39295 0.0
H1430 H 0.8401 0.51501 0.43462 0.0
C1431 C 0.84091 0.49873 0.58771 0.0
C1432 C 0.85769 0.50891 0.52258 0.0
H1433 H 0.85858 0.53528 0.47484 0.0
C1434 C 0.85834 0.49513 0.50921 0.0
C1435 C 0.85702 0.52313 0.51008 0.0
C1436 C 0.85552 0.5378 0.52378 0.0
C1437 C 0.85933 0.49578 0.48344 0.0
C1438 C 0.85983 0.51067 0.471 0.0
C1439 C 0.85818 0.52388 0.48442 0.0
C1440 C 0.86435 0.51418 0.44462 0.0
C1441 C 0.86011 0.48072 0.4698 0.0
C1442 C 0.88129 0.51725 0.43643 0.0
C1443 C 0.88733 0.52391 0.41287 0.0
C1444 C 0.87659 0.52774 0.39702 0.0
C1445 C 0.85919 0.52375 0.40475 0.0
C1446 C 0.85317 0.51714 0.4285 0.0
H1447 H 0.85337 0.46781 0.48039 0.0
H1448 H 0.85356 0.47836 0.45146 0.0
H1449 H 0.87454 0.48453 0.46712 0.0
H1450 H 0.89031 0.51546 0.44873 0.0
H1451 H 0.90075 0.52668 0.40742 0.0
H1452 H 0.35115 0.89545 0.60027 0.0
H1453 H 0.35757 0.9004 0.55614 0.0
H1454 H 0.34965 0.84632 0.54895 0.0
H1455 H 0.34335 0.84126 0.59288 0.0
H1456 H 0.379 0.8747 0.51882 0.0
H1457 H 0.31181 0.87081 0.51067 0.0
H1458 H 0.32755 0.88738 0.53204 0.0
H1459 H 0.3186 0.86358 0.5379 0.0
C1460 C 0.35126 0.8848 0.58943 0.0
C1461 C 0.34643 0.86786 0.59995 0.0
C1462 C 0.35485 0.88762 0.56424 0.0
C1463 C 0.35375 0.87358 0.54938 0.0
C1464 C 0.35045 0.85725 0.56017 0.0
H1465 H 0.32709 0.86086 0.39384 0.0
H1466 H 0.32923 0.85412 0.43712 0.0
C1467 C 0.34678 0.85438 0.58525 0.0
C1468 C 0.35392 0.87502 0.52235 0.0
H1469 H 0.32898 0.87664 0.47434 0.0
C1470 C 0.36811 0.87516 0.50901 0.0
C1471 C 0.33941 0.87512 0.50975 0.0
C1472 C 0.32337 0.87406 0.52322 0.0
C1473 C 0.36842 0.87591 0.48322 0.0
C1474 C 0.35421 0.87662 0.47068 0.0
C1475 C 0.33983 0.87605 0.48406 0.0
C1476 C 0.35444 0.87917 0.44381 0.0
C1477 C 0.38384 0.87581 0.46961 0.0
C1478 C 0.36805 0.89533 0.43327 0.0
C1479 C 0.36685 0.89923 0.40871 0.0
C1480 C 0.35193 0.88709 0.39423 0.0
C1481 C 0.33874 0.87048 0.4045 0.0
C1482 C 0.33993 0.86661 0.42919 0.0
H1483 H 0.39056 0.87002 0.48103 0.0
H1484 H 0.37898 0.86786 0.45229 0.0
H1485 H 0.39419 0.88999 0.46482 0.0
H1486 H 0.37917 0.90534 0.44435 0.0
H1487 H 0.37731 0.9121 0.40133 0.0
H1488 H 0.4987 0.3356 0.58856 0.0
H1489 H 0.50265 0.3427 0.54479 0.0
H1490 H 0.46191 0.35876 0.54825 0.0
H1491 H 0.4577 0.35156 0.59216 0.0
H1492 H 0.45512 0.33062 0.514 0.0
H1493 H 0.5247 0.39016 0.50357 0.0
H1494 H 0.52295 0.37196 0.52243 0.0
H1495 H 0.51234 0.38462 0.53227 0.0
C1496 C 0.49081 0.34099 0.58017 0.0
C1497 C 0.47772 0.34282 0.5938 0.0
C1498 C 0.49321 0.34517 0.55517 0.0
C1499 C 0.48264 0.35132 0.5434 0.0
C1500 C 0.47025 0.35409 0.55715 0.0
H1501 H 0.4754 0.38117 0.39639 0.0
H1502 H 0.4827 0.38075 0.43963 0.0
C1503 C 0.46788 0.34999 0.58222 0.0
C1504 C 0.48281 0.35257 0.51634 0.0
H1505 H 0.50939 0.37498 0.4669 0.0
C1506 C 0.46697 0.34033 0.50368 0.0
C1507 C 0.49835 0.36519 0.50306 0.0
C1508 C 0.51554 0.37885 0.51596 0.0
C1509 C 0.46618 0.34041 0.478 0.0
C1510 C 0.48174 0.35293 0.46466 0.0
C1511 C 0.49762 0.36521 0.47727 0.0
C1512 C 0.48097 0.35449 0.43774 0.0
C1513 C 0.44854 0.32743 0.46533 0.0
C1514 C 0.47835 0.34017 0.42222 0.0
C1515 C 0.47414 0.34033 0.39739 0.0
C1516 C 0.47239 0.35478 0.38794 0.0
C1517 C 0.47638 0.3697 0.40322 0.0
C1518 C 0.48067 0.36956 0.4279 0.0
H1519 H 0.43702 0.32078 0.47847 0.0
H1520 H 0.44511 0.33466 0.45118 0.0
H1521 H 0.45004 0.31665 0.45594 0.0
H1522 H 0.47869 0.32848 0.42957 0.0
H1523 H 0.47123 0.32869 0.38604 0.0
H1524 H 0.16149 0.49792 0.5929 0.0
H1525 H 0.15809 0.50205 0.54927 0.0
H1526 H 0.10143 0.46085 0.55292 0.0
H1527 H 0.10468 0.45644 0.59666 0.0
H1528 H 0.12268 0.45409 0.51903 0.0
H1529 H 0.13257 0.52352 0.5074 0.0
H1530 H 0.14917 0.52207 0.52631 0.0
H1531 H 0.12593 0.51143 0.53631 0.0
C1532 C 0.14818 0.48999 0.5846 0.0
C1533 C 0.1334 0.47665 0.59819 0.0
C1534 C 0.14625 0.49251 0.55968 0.0
C1535 C 0.12951 0.48181 0.54797 0.0
C1536 C 0.11445 0.46928 0.56176 0.0
H1537 H 0.09292 0.47323 0.40026 0.0
H1538 H 0.1004 0.48104 0.44345 0.0
C1539 C 0.11634 0.46679 0.58673 0.0
C1540 C 0.12841 0.4818 0.5209 0.0
H1541 H 0.13271 0.50802 0.47098 0.0
C1542 C 0.12483 0.46586 0.50851 0.0
C1543 C 0.13133 0.49724 0.50736 0.0
C1544 C 0.13483 0.51452 0.51996 0.0
C1545 C 0.12402 0.46488 0.48284 0.0
C1546 C 0.12713 0.48035 0.46922 0.0
C1547 C 0.13066 0.49632 0.48157 0.0
C1548 C 0.12498 0.47939 0.44228 0.0
C1549 C 0.11941 0.44714 0.47047 0.0
C1550 C 0.1368 0.47666 0.42716 0.0
C1551 C 0.13255 0.47214 0.40238 0.0
C1552 C 0.11637 0.4702 0.39254 0.0
C1553 C 0.10534 0.47433 0.40739 0.0
C1554 C 0.10964 0.47892 0.43203 0.0
H1555 H 0.11441 0.4357 0.48377 0.0
H1556 H 0.10885 0.44364 0.45613 0.0
H1557 H 0.13174 0.44856 0.46137 0.0
H1558 H 0.1488 0.47713 0.43483 0.0
H1559 H 0.14136 0.46914 0.39137 0.0
H1560 H 0.61779 0.09185 0.38988 0.0
H1561 H 0.61798 0.09993 0.43285 0.0
H1562 H 0.66881 0.14969 0.42177 0.0
H1563 H 0.66883 0.14162 0.37845 0.0
H1564 H 0.66937 0.12726 0.4591 0.0
H1565 H 0.61022 0.13745 0.47026 0.0
H1566 H 0.60487 0.11693 0.45406 0.0
H1567 H 0.62051 0.13862 0.44074 0.0
C1568 C 0.62887 0.1047 0.39641 0.0
C1569 C 0.64341 0.11603 0.38085 0.0
C1570 C 0.62884 0.10937 0.42095 0.0
C1571 C 0.6433 0.12547 0.43039 0.0
C1572 C 0.65745 0.13726 0.41469 0.0
H1573 H 0.65786 0.16074 0.5823 0.0
H1574 H 0.65237 0.15799 0.53805 0.0
C1575 C 0.65744 0.13265 0.38999 0.0
C1576 C 0.64472 0.12856 0.45722 0.0
H1577 H 0.62187 0.13139 0.50712 0.0
C1578 C 0.65912 0.1284 0.46959 0.0
C1579 C 0.63129 0.13001 0.47078 0.0
C1580 C 0.61593 0.13094 0.45827 0.0
C1581 C 0.66017 0.1291 0.49528 0.0
C1582 C 0.64633 0.12973 0.50888 0.0
C1583 C 0.63225 0.13054 0.49655 0.0
C1584 C 0.64678 0.13024 0.53598 0.0
C1585 C 0.67606 0.1291 0.50771 0.0
C1586 C 0.64471 0.11524 0.54949 0.0
C1587 C 0.6478 0.11671 0.57484 0.0
C1588 C 0.6531 0.13326 0.58693 0.0
C1589 C 0.654 0.14786 0.57349 0.0
C1590 C 0.65081 0.14633 0.54822 0.0
H1591 H 0.68729 0.1322 0.49462 0.0
H1592 H 0.68143 0.13923 0.52286 0.0
H1593 H 0.67148 0.11548 0.51576 0.0
H1594 H 0.64141 0.10264 0.54025 0.0
H1595 H 0.64695 0.10522 0.58468 0.0
H1596 H 0.53621 0.67021 0.38922 0.0
H1597 H 0.52842 0.66947 0.43261 0.0
H1598 H 0.4968 0.61081 0.42986 0.0
H1599 H 0.50578 0.61154 0.38688 0.0
H1600 H 0.50061 0.65848 0.46103 0.0
H1601 H 0.53239 0.61641 0.4808 0.0
H1602 H 0.53312 0.62561 0.45076 0.0
H1603 H 0.51298 0.60538 0.46101 0.0
C1604 C 0.5273 0.65721 0.39779 0.0
C1605 C 0.52176 0.64093 0.38499 0.0
C1606 C 0.52287 0.65676 0.42259 0.0
C1607 C 0.51254 0.64003 0.43475 0.0
C1608 C 0.5054 0.62383 0.42115 0.0
H1609 H 0.49259 0.65094 0.59108 0.0
H1610 H 0.48637 0.64123 0.54806 0.0
C1611 C 0.51032 0.62425 0.39658 0.0
C1612 C 0.51069 0.63973 0.46188 0.0
H1613 H 0.52054 0.62438 0.51441 0.0
C1614 C 0.50488 0.65096 0.47273 0.0
C1615 C 0.5165 0.63007 0.47714 0.0
C1616 C 0.52426 0.61884 0.46688 0.0
C1617 C 0.50545 0.65344 0.49828 0.0
C1618 C 0.5111 0.64364 0.51352 0.0
C1619 C 0.51611 0.63178 0.50272 0.0
C1620 C 0.51374 0.64686 0.54039 0.0
C1621 C 0.50107 0.66738 0.50839 0.0
C1622 C 0.53073 0.65186 0.55089 0.0
C1623 C 0.53406 0.65669 0.57565 0.0
C1624 C 0.52056 0.65694 0.59019 0.0
C1625 C 0.50328 0.65107 0.58007 0.0
C1626 C 0.49979 0.64572 0.55547 0.0
H1627 H 0.50183 0.67699 0.49395 0.0
H1628 H 0.48701 0.66034 0.51576 0.0
H1629 H 0.51054 0.67539 0.52344 0.0
H1630 H 0.5417 0.65274 0.53968 0.0
H1631 H 0.54751 0.66123 0.58303 0.0
H1632 H 0.48085 0.07934 0.16886 0.0
H1633 H 0.50745 0.08079 0.18811 0.0
H1634 H 0.50806 0.11807 0.24258 0.0
H1635 H 0.48182 0.11733 0.22259 0.0
H1636 H 0.54142 0.12859 0.22801 0.0
H1637 H 0.50771 0.05513 0.24903 0.0
H1638 H 0.50688 0.05886 0.21677 0.0
H1639 H 0.49526 0.0658 0.23813 0.0
C1640 C 0.48658 0.08779 0.18501 0.0
C1641 C 0.47912 0.09806 0.19439 0.0
C1642 C 0.50175 0.08852 0.19609 0.0
C1643 C 0.50947 0.09914 0.21721 0.0
C1644 C 0.50224 0.10966 0.22641 0.0
H1645 H 0.58274 0.08134 0.30861 0.0
H1646 H 0.55733 0.08366 0.29198 0.0
C1647 C 0.48725 0.10921 0.21501 0.0
C1648 C 0.52522 0.09936 0.22942 0.0
H1649 H 0.54013 0.07157 0.25169 0.0
C1650 C 0.5411 0.11614 0.23342 0.0
C1651 C 0.52471 0.08314 0.23691 0.0
C1652 C 0.50765 0.06476 0.23524 0.0
C1653 C 0.5566 0.11712 0.24422 0.0
C1654 C 0.55642 0.10082 0.25036 0.0
C1655 C 0.54041 0.08408 0.24673 0.0
C1656 C 0.57242 0.10063 0.26111 0.0
C1657 C 0.57278 0.13564 0.24941 0.0
C1658 C 0.58947 0.10947 0.24941 0.0
C1659 C 0.60419 0.10848 0.25925 0.0
C1660 C 0.60193 0.09817 0.28051 0.0
C1661 C 0.58485 0.08926 0.29207 0.0
C1662 C 0.57031 0.0906 0.28259 0.0
H1663 H 0.5687 0.14614 0.25123 0.0
H1664 H 0.57987 0.13557 0.26652 0.0
H1665 H 0.5825 0.13967 0.23387 0.0
H1666 H 0.59134 0.11682 0.23242 0.0
H1667 H 0.61717 0.11534 0.24987 0.0
H1668 H 0.5063 0.5793 0.29398 0.0
H1669 H 0.47864 0.55609 0.27423 0.0
H1670 H 0.46873 0.59755 0.24506 0.0
H1671 H 0.49662 0.62112 0.26476 0.0
H1672 H 0.44262 0.55003 0.28213 0.0
H1673 H 0.46514 0.56559 0.1846 0.0
H1674 H 0.48102 0.57357 0.20993 0.0
H1675 H 0.4678 0.58422 0.20341 0.0
C1676 C 0.49837 0.5836 0.28327 0.0
C1677 C 0.50375 0.60214 0.28096 0.0
C1678 C 0.48251 0.57026 0.27204 0.0
C1679 C 0.47171 0.57512 0.25813 0.0
C1680 C 0.47701 0.59356 0.25553 0.0
H1681 H 0.36235 0.49208 0.20936 0.0
H1682 H 0.38738 0.51975 0.22737 0.0
C1683 C 0.49293 0.60699 0.26684 0.0
C1684 C 0.45477 0.56063 0.24683 0.0
H1685 H 0.43571 0.54099 0.19183 0.0
C1686 C 0.44098 0.54814 0.26238 0.0
C1687 C 0.45282 0.55819 0.22109 0.0
C1688 C 0.46748 0.57099 0.20367 0.0
C1689 C 0.42542 0.53297 0.25287 0.0
C1690 C 0.42357 0.53039 0.22714 0.0
C1691 C 0.43717 0.54311 0.21156 0.0
C1692 C 0.40831 0.51385 0.21611 0.0
C1693 C 0.41144 0.51943 0.27042 0.0
C1694 C 0.41185 0.50151 0.2036 0.0
C1695 C 0.39764 0.48573 0.19329 0.0
C1696 C 0.37957 0.482 0.19517 0.0
C1697 C 0.37607 0.49446 0.20767 0.0
C1698 C 0.39034 0.51027 0.21802 0.0
H1699 H 0.41649 0.52171 0.28967 0.0
H1700 H 0.39906 0.52069 0.26983 0.0
H1701 H 0.40749 0.50531 0.26498 0.0
H1702 H 0.42564 0.50405 0.20195 0.0
H1703 H 0.40089 0.47651 0.18377 0.0
H1704 H 0.8809 0.50783 0.26757 0.0
H1705 H 0.87858 0.48032 0.24947 0.0
H1706 H 0.91257 0.47879 0.30731 0.0
H1707 H 0.91566 0.50667 0.32467 0.0
H1708 H 0.92359 0.47357 0.26599 0.0
H1709 H 0.84898 0.42828 0.26873 0.0
H1710 H 0.85524 0.44869 0.25179 0.0
H1711 H 0.86021 0.45 0.28418 0.0
C1712 C 0.88781 0.50156 0.27642 0.0
C1713 C 0.89853 0.50944 0.29744 0.0
C1714 C 0.88632 0.48572 0.26623 0.0
C1715 C 0.8951 0.47723 0.27729 0.0
C1716 C 0.90564 0.48504 0.29845 0.0
H1717 H 0.87832 0.37034 0.23297 0.0
H1718 H 0.87723 0.39498 0.25525 0.0
C1719 C 0.90744 0.50102 0.30832 0.0
C1720 C 0.89437 0.46091 0.2661 0.0
H1721 H 0.86562 0.41838 0.24357 0.0
C1722 C 0.91088 0.46145 0.26134 0.0
C1723 C 0.8778 0.44492 0.2604 0.0
C1724 C 0.85957 0.44284 0.26679 0.0
C1725 C 0.91133 0.4467 0.25058 0.0
C1726 C 0.89483 0.4312 0.24338 0.0
C1727 C 0.87827 0.43038 0.24875 0.0
C1728 C 0.89464 0.41604 0.22957 0.0
C1729 C 0.92953 0.44784 0.24734 0.0
C1730 C 0.90432 0.41962 0.20747 0.0
C1731 C 0.90522 0.40574 0.19505 0.0
C1732 C 0.89606 0.38784 0.20413 0.0
C1733 C 0.88559 0.38403 0.22564 0.0
C1734 C 0.88496 0.39807 0.23834 0.0
H1735 H 0.93962 0.45728 0.26092 0.0
H1736 H 0.9284 0.43429 0.24934 0.0
H1737 H 0.93488 0.45318 0.22872 0.0
H1738 H 0.91137 0.43324 0.19989 0.0
H1739 H 0.91308 0.40905 0.17824 0.0
H1740 H 0.51049 0.91972 0.19344 0.0
H1741 H 0.4835 0.91666 0.21354 0.0
H1742 H 0.46946 0.86311 0.23895 0.0
H1743 H 0.49663 0.86597 0.21878 0.0
H1744 H 0.44635 0.88744 0.20336 0.0
H1745 H 0.46742 0.89166 0.3013 0.0
H1746 H 0.48373 0.90003 0.27648 0.0
H1747 H 0.46979 0.87602 0.28138 0.0
C1748 C 0.5018 0.9073 0.20341 0.0
C1749 C 0.50576 0.89306 0.20442 0.0
C1750 C 0.48634 0.90558 0.21485 0.0
C1751 C 0.47455 0.88969 0.2277 0.0
C1752 C 0.47852 0.87554 0.22923 0.0
H1753 H 0.36757 0.87123 0.27628 0.0
H1754 H 0.39104 0.86587 0.25864 0.0
C1755 C 0.49403 0.87721 0.21769 0.0
C1756 C 0.45789 0.88801 0.2388 0.0
H1757 H 0.43933 0.8899 0.29358 0.0
C1758 C 0.44464 0.88771 0.22309 0.0
C1759 C 0.45586 0.88848 0.26451 0.0
C1760 C 0.46994 0.88916 0.28204 0.0
C1761 C 0.42961 0.88843 0.23243 0.0
C1762 C 0.4278 0.88935 0.25813 0.0
C1763 C 0.44077 0.88911 0.27387 0.0
C1764 C 0.41344 0.89223 0.26891 0.0
C1765 C 0.41625 0.88906 0.21475 0.0
C1766 C 0.41833 0.90875 0.28062 0.0
C1767 C 0.40503 0.91189 0.29064 0.0
C1768 C 0.38652 0.89849 0.28929 0.0
C1769 C 0.38167 0.88188 0.27755 0.0
C1770 C 0.39504 0.87878 0.26745 0.0
H1771 H 0.42113 0.89102 0.19544 0.0
H1772 H 0.40312 0.87609 0.21583 0.0
H1773 H 0.41366 0.90026 0.21974 0.0
H1774 H 0.43248 0.9193 0.28188 0.0
H1775 H 0.40932 0.92481 0.2996 0.0
H1776 H 0.63618 0.50511 0.21484 0.0
H1777 H 0.61152 0.47707 0.23271 0.0
H1778 H 0.57293 0.49378 0.21286 0.0
H1779 H 0.59729 0.52173 0.19503 0.0
H1780 H 0.58542 0.47315 0.27078 0.0
H1781 H 0.55289 0.44221 0.18158 0.0
H1782 H 0.57612 0.46062 0.18394 0.0
H1783 H 0.55766 0.46519 0.18578 0.0
C1784 C 0.62246 0.50287 0.21437 0.0
C1785 C 0.61873 0.51565 0.20335 0.0
C1786 C 0.60841 0.48684 0.22456 0.0
C1787 C 0.59042 0.48327 0.22366 0.0
C1788 C 0.58671 0.49617 0.21329 0.0
H1789 H 0.49248 0.41603 0.30037 0.0
H1790 H 0.52094 0.43984 0.283 0.0
C1791 C 0.6007 0.5122 0.20324 0.0
C1792 C 0.57538 0.46617 0.23373 0.0
H1793 H 0.53518 0.42876 0.2177 0.0
C1794 C 0.57454 0.4633 0.25919 0.0
C1795 C 0.56137 0.45327 0.21847 0.0
C1796 C 0.56207 0.45533 0.19088 0.0
C1797 C 0.55953 0.44827 0.26994 0.0
C1798 C 0.54501 0.43595 0.25481 0.0
C1799 C 0.54629 0.43832 0.22924 0.0
C1800 C 0.52785 0.42128 0.26532 0.0
C1801 C 0.55917 0.44582 0.29744 0.0
C1802 C 0.5221 0.40294 0.26057 0.0
C1803 C 0.50574 0.3892 0.27047 0.0
C1804 C 0.4948 0.39362 0.28503 0.0
C1805 C 0.50053 0.41208 0.2893 0.0
C1806 C 0.51688 0.42574 0.27954 0.0
H1807 H 0.57304 0.45332 0.30547 0.0
H1808 H 0.55091 0.45119 0.3059 0.0
H1809 H 0.5529 0.4312 0.30234 0.0
H1810 H 0.53035 0.39928 0.24941 0.0
H1811 H 0.50172 0.37514 0.26677 0.0
H1812 H 0.12954 0.63292 0.21872 0.0
H1813 H 0.13443 0.60899 0.23576 0.0
H1814 H 0.08138 0.56821 0.21038 0.0
H1815 H 0.07634 0.59184 0.19326 0.0
H1816 H 0.11313 0.58222 0.27124 0.0
H1817 H 0.11553 0.55096 0.18291 0.0
H1818 H 0.11834 0.57348 0.18485 0.0
H1819 H 0.09598 0.55372 0.18571 0.0
C1820 C 0.1189 0.61886 0.21675 0.0
C1821 C 0.10256 0.61432 0.20451 0.0
C1822 C 0.12176 0.60523 0.22645 0.0
C1823 C 0.10842 0.58685 0.22386 0.0
C1824 C 0.09201 0.5823 0.21206 0.0
H1825 H 0.0775 0.49003 0.30123 0.0
H1826 H 0.08276 0.51841 0.283 0.0
C1827 C 0.08911 0.59587 0.20246 0.0
C1828 C 0.11117 0.57231 0.23427 0.0
H1829 H 0.11006 0.53273 0.21913 0.0
C1830 C 0.11277 0.57155 0.25984 0.0
C1831 C 0.11097 0.55857 0.21931 0.0
C1832 C 0.1103 0.55927 0.19164 0.0
C1833 C 0.11305 0.55679 0.27096 0.0
C1834 C 0.11152 0.54241 0.25611 0.0
C1835 C 0.11105 0.54371 0.23046 0.0
C1836 C 0.10871 0.52524 0.26699 0.0
C1837 C 0.11453 0.55648 0.29857 0.0
C1838 C 0.12137 0.51942 0.26342 0.0
C1839 C 0.11841 0.50307 0.27384 0.0
C1840 C 0.10262 0.49221 0.28773 0.0
C1841 C 0.08984 0.49801 0.29075 0.0
C1842 C 0.09286 0.51432 0.28048 0.0
H1843 H 0.12075 0.57038 0.30651 0.0
H1844 H 0.10072 0.54825 0.30653 0.0
H1845 H 0.12276 0.55022 0.30416 0.0
H1846 H 0.1336 0.52762 0.25282 0.0
H1847 H 0.1285 0.49899 0.2711 0.0
H1848 H 0.50297 0.87884 0.77623 0.0
H1849 H 0.4772 0.87945 0.75707 0.0
H1850 H 0.44168 0.82373 0.77861 0.0
H1851 H 0.46723 0.82286 0.79774 0.0
H1852 H 0.45076 0.85373 0.71938 0.0
H1853 H 0.42019 0.85514 0.80924 0.0
H1854 H 0.44386 0.86166 0.80598 0.0
H1855 H 0.42667 0.83805 0.80583 0.0
C1856 C 0.48972 0.86664 0.77671 0.0
C1857 C 0.48717 0.85083 0.78868 0.0
C1858 C 0.47504 0.86704 0.76576 0.0
C1859 C 0.45758 0.85172 0.76678 0.0
C1860 C 0.45506 0.83575 0.77794 0.0
H1861 H 0.35727 0.8232 0.69281 0.0
H1862 H 0.38437 0.82459 0.71046 0.0
C1863 C 0.46972 0.83528 0.78875 0.0
C1864 C 0.44184 0.85247 0.75672 0.0
H1865 H 0.40262 0.85141 0.7736 0.0
C1866 C 0.44025 0.8533 0.73117 0.0
C1867 C 0.42833 0.85211 0.77227 0.0
C1868 C 0.42981 0.85183 0.79989 0.0
C1869 C 0.42515 0.85329 0.72069 0.0
C1870 C 0.41135 0.85234 0.73622 0.0
C1871 C 0.41319 0.85201 0.76179 0.0
C1872 C 0.39475 0.85139 0.72619 0.0
C1873 C 0.42406 0.85434 0.69311 0.0
C1874 C 0.39143 0.86582 0.72982 0.0
C1875 C 0.37594 0.8651 0.71976 0.0
C1876 C 0.36342 0.84983 0.70612 0.0
C1877 C 0.3666 0.83518 0.70317 0.0
C1878 C 0.38214 0.83598 0.7131 0.0
H1879 H 0.43742 0.85891 0.68418 0.0
H1880 H 0.41422 0.84066 0.68584 0.0
H1881 H 0.41916 0.8638 0.6879 0.0
H1882 H 0.40099 0.87777 0.74006 0.0
H1883 H 0.3739 0.8766 0.72246 0.0
H1884 H 0.61614 0.49871 0.77856 0.0
H1885 H 0.58987 0.47254 0.75992 0.0
H1886 H 0.61739 0.44157 0.76471 0.0
H1887 H 0.64356 0.46748 0.78379 0.0
H1888 H 0.58569 0.45223 0.7181 0.0
H1889 H 0.57032 0.40974 0.80189 0.0
H1890 H 0.58619 0.4339 0.80191 0.0
H1891 H 0.59302 0.4183 0.79059 0.0
C1892 C 0.61669 0.48639 0.77547 0.0
C1893 C 0.63187 0.48512 0.78296 0.0
C1894 C 0.60165 0.47145 0.76485 0.0
C1895 C 0.60154 0.455 0.76151 0.0
C1896 C 0.61702 0.45399 0.76776 0.0
H1897 H 0.52566 0.34951 0.70178 0.0
H1898 H 0.55183 0.37637 0.71932 0.0
C1899 C 0.63201 0.46886 0.77853 0.0
C1900 C 0.5851 0.4388 0.75193 0.0
H1901 H 0.55354 0.39488 0.76592 0.0
C1902 C 0.57859 0.43972 0.72858 0.0
C1903 C 0.57583 0.42254 0.76576 0.0
C1904 C 0.58156 0.42106 0.79152 0.0
C1905 C 0.56327 0.42464 0.71843 0.0
C1906 C 0.55421 0.40834 0.73212 0.0
C1907 C 0.56062 0.40743 0.7555 0.0
C1908 C 0.53813 0.39197 0.72233 0.0
C1909 C 0.55709 0.42609 0.69296 0.0
C1910 C 0.52169 0.39178 0.71879 0.0
C1911 C 0.50666 0.37642 0.70891 0.0
C1912 C 0.50785 0.36101 0.70235 0.0
C1913 C 0.52427 0.36115 0.70652 0.0
C1914 C 0.53925 0.37647 0.71653 0.0
H1915 H 0.5675 0.43837 0.68308 0.0
H1916 H 0.55393 0.41385 0.68191 0.0
H1917 H 0.54449 0.42692 0.69433 0.0
H1918 H 0.52053 0.40355 0.72352 0.0
H1919 H 0.49423 0.37679 0.70598 0.0
H1920 H 0.17362 0.63913 0.78727 0.0
H1921 H 0.17221 0.61193 0.76992 0.0
H1922 H 0.11367 0.5853 0.76799 0.0
H1923 H 0.11491 0.61258 0.78489 0.0
H1924 H 0.15579 0.57775 0.79024 0.0
H1925 H 0.12561 0.57611 0.69903 0.0
H1926 H 0.13502 0.59588 0.71871 0.0
H1927 H 0.1127 0.57694 0.72463 0.0
C1928 C 0.16043 0.62757 0.78293 0.0
C1929 C 0.14437 0.62807 0.78743 0.0
C1930 C 0.15966 0.61203 0.77305 0.0
C1931 C 0.14286 0.59668 0.76744 0.0
C1932 C 0.1268 0.59714 0.77172 0.0
H1933 H 0.11509 0.48946 0.71194 0.0
H1934 H 0.11393 0.51488 0.73133 0.0
C1935 C 0.12755 0.61273 0.78147 0.0
C1936 C 0.1422 0.57997 0.7581 0.0
H1937 H 0.12859 0.55062 0.70947 0.0
C1938 C 0.14987 0.57183 0.77256 0.0
C1939 C 0.13439 0.57225 0.73508 0.0
C1940 C 0.1266 0.58081 0.71833 0.0
C1941 C 0.14994 0.55615 0.76461 0.0
C1942 C 0.1423 0.54855 0.74153 0.0
C1943 C 0.13438 0.5565 0.72722 0.0
C1944 C 0.14308 0.53281 0.73137 0.0
C1945 C 0.15809 0.54775 0.781 0.0
C1946 C 0.15987 0.53452 0.72509 0.0
C1947 C 0.16061 0.52008 0.71395 0.0
C1948 C 0.14454 0.50366 0.70886 0.0
C1949 C 0.12773 0.50188 0.71567 0.0
C1950 C 0.12702 0.51639 0.72669 0.0
H1951 H 0.15932 0.55248 0.80033 0.0
H1952 H 0.14976 0.53267 0.78064 0.0
H1953 H 0.17191 0.55168 0.77425 0.0
H1954 H 0.1724 0.5472 0.72826 0.0
H1955 H 0.17378 0.52194 0.70895 0.0
H1956 H 0.64255 0.17436 0.69331 0.0
H1957 H 0.61564 0.17333 0.71105 0.0
H1958 H 0.58919 0.11484 0.71554 0.0
H1959 H 0.61617 0.11571 0.69824 0.0
H1960 H 0.58075 0.15617 0.69241 0.0
H1961 H 0.58222 0.12877 0.78458 0.0
H1962 H 0.60136 0.13774 0.76384 0.0
H1963 H 0.58237 0.11521 0.75933 0.0
C1964 C 0.63109 0.16127 0.69826 0.0
C1965 C 0.63157 0.14512 0.69443 0.0
C1966 C 0.61571 0.16071 0.70835 0.0
C1967 C 0.60052 0.14404 0.71485 0.0
C1968 C 0.60092 0.12789 0.71111 0.0
H1969 H 0.49583 0.11828 0.77753 0.0
H1970 H 0.52017 0.11632 0.75623 0.0
C1971 C 0.61634 0.12842 0.70113 0.0
C1972 C 0.58409 0.14359 0.72486 0.0
H1973 H 0.5565 0.13156 0.77524 0.0
C1974 C 0.57544 0.1508 0.71053 0.0
C1975 C 0.57718 0.13651 0.74846 0.0
C1976 C 0.58633 0.12926 0.76507 0.0
C1977 C 0.56005 0.15113 0.71918 0.0
C1978 C 0.55329 0.14424 0.74286 0.0
C1979 C 0.56173 0.13676 0.75704 0.0
C1980 C 0.538 0.14544 0.7538 0.0
C1981 C 0.55108 0.15875 0.70292 0.0
C1982 C 0.53999 0.16248 0.75932 0.0
C1983 C 0.52617 0.16368 0.77155 0.0
C1984 C 0.5101 0.14783 0.77853 0.0
C1985 C 0.50799 0.13076 0.77237 0.0
C1986 C 0.52188 0.1296 0.76025 0.0
H1987 H 0.55501 0.15921 0.68333 0.0
H1988 H 0.53604 0.15053 0.70441 0.0
H1989 H 0.55537 0.17284 0.70885 0.0
H1990 H 0.55247 0.17486 0.75481 0.0
H1991 H 0.52828 0.17703 0.776 0.0
H1992 H 0.35552 0.53473 0.77916 0.0
H1993 H 0.38201 0.56009 0.75982 0.0
H1994 H 0.40954 0.52901 0.7598 0.0
H1995 H 0.38299 0.5034 0.77873 0.0
H1996 H 0.41628 0.57875 0.77976 0.0
H1997 H 0.41802 0.54855 0.68992 0.0
H1998 H 0.39835 0.53836 0.70978 0.0
H1999 H 0.41752 0.53544 0.71611 0.0
C2000 C 0.3671 0.53315 0.77475 0.0
C2001 C 0.36711 0.51701 0.78051 0.0
C2002 C 0.38224 0.54768 0.76372 0.0
C2003 C 0.39767 0.54637 0.75819 0.0
C2004 C 0.39763 0.53018 0.76347 0.0
H2005 H 0.5048 0.62556 0.70266 0.0
H2006 H 0.47914 0.59897 0.72163 0.0
C2007 C 0.38245 0.51558 0.77439 0.0
C2008 C 0.41415 0.56236 0.74829 0.0
H2009 H 0.44343 0.57737 0.6996 0.0
C2010 C 0.42219 0.57847 0.7622 0.0
C2011 C 0.42187 0.5619 0.72545 0.0
C2012 C 0.41343 0.5452 0.70931 0.0
C2013 C 0.43778 0.59414 0.75389 0.0
C2014 C 0.44539 0.59371 0.73099 0.0
C2015 C 0.43753 0.57757 0.71721 0.0
C2016 C 0.46114 0.6101 0.72058 0.0
C2017 C 0.4461 0.61098 0.76976 0.0
C2018 C 0.45945 0.6251 0.71376 0.0
C2019 C 0.47403 0.64029 0.70288 0.0
C2020 C 0.49058 0.64073 0.69859 0.0
C2021 C 0.49228 0.62572 0.70578 0.0
C2022 C 0.47764 0.61049 0.71655 0.0
H2023 H 0.44136 0.60783 0.78911 0.0
H2024 H 0.46117 0.61777 0.76949 0.0
H2025 H 0.44214 0.62072 0.76247 0.0
H2026 H 0.44672 0.62492 0.71643 0.0
H2027 H 0.47221 0.65157 0.69755 0.0
H2028 H 0.8734 0.36892 0.77472 0.0
H2029 H 0.8742 0.39563 0.75629 0.0
H2030 H 0.82036 0.37804 0.78396 0.0
H2031 H 0.81931 0.35129 0.80236 0.0
H2032 H 0.84671 0.3965 0.72173 0.0
H2033 H 0.85536 0.43152 0.8114 0.0
H2034 H 0.86083 0.41369 0.80714 0.0
H2035 H 0.83754 0.4081 0.80981 0.0
C2036 C 0.86166 0.37063 0.77674 0.0
C2037 C 0.84632 0.35799 0.79014 0.0
C2038 C 0.86216 0.38589 0.7662 0.0
C2039 C 0.84743 0.38883 0.76909 0.0
C2040 C 0.83193 0.37604 0.78182 0.0
H2041 H 0.81841 0.46186 0.70002 0.0
H2042 H 0.81962 0.43598 0.71743 0.0
C2043 C 0.83134 0.36073 0.79221 0.0
C2044 C 0.84832 0.40542 0.75915 0.0
H2045 H 0.85033 0.44505 0.77643 0.0
C2046 C 0.84758 0.40717 0.73362 0.0
C2047 C 0.84963 0.41932 0.7748 0.0
C2048 C 0.85103 0.41824 0.80233 0.0
C2049 C 0.84764 0.42235 0.72332 0.0
C2050 C 0.8484 0.43599 0.73902 0.0
C2051 C 0.84963 0.43447 0.76451 0.0
C2052 C 0.84761 0.45181 0.72926 0.0
C2053 C 0.84692 0.42375 0.69574 0.0
C2054 C 0.86284 0.46931 0.73076 0.0
C2055 C 0.86224 0.48418 0.72081 0.0
C2056 C 0.84631 0.48178 0.70941 0.0
C2057 C 0.83092 0.46423 0.70862 0.0
C2058 C 0.83159 0.44939 0.71843 0.0
H2059 H 0.85014 0.41413 0.68617 0.0
H2060 H 0.83303 0.42049 0.69023 0.0
H2061 H 0.85659 0.4378 0.68947 0.0
H2062 H 0.87529 0.4714 0.73924 0.0
H2063 H 0.87432 0.4975 0.72182 0.0
loop_
_geom_bond_atom_site_label_1
_geom_bond_atom_site_label_2
_geom_bond_distance
_geom_bond_site_symmetry_2
_ccdc_geom_bond_type
Mg0 O1 2.028 . S
Mg0 O7 1.986 . S
Mg0 O9 2.114 . S
Mg0 O10 2.251 . S
Mg0 O13 2.010 . S
O1 Mg0 2.028 . S
O1 C4 1.250 . S
O2 Mg3 2.028 . S
O2 C4 1.248 . S
Mg3 O2 2.028 . S
Mg3 O8 2.032 . S
Mg3 O10 2.079 . S
C4 O1 1.250 . S
C4 O2 1.248 . S
C5 O6 1.264 . S
C5 O13 1.249 . S
O6 C5 1.264 . S
O7 Mg0 1.986 . S
O7 C11 1.246 . S
O8 Mg3 2.032 . S
O8 C11 1.259 . S
O9 Mg0 2.114 . S
O9 C12 1.252 . S
O10 Mg0 2.251 . S
O10 Mg3 2.079 . S
O10 C12 1.273 . S
C11 O7 1.246 . S
C11 O8 1.259 . S
C12 O9 1.252 . S
C12 O10 1.273 . S
O13 Mg0 2.010 . S
O13 C5 1.249 . S
Mg14 O15 2.028 . S
Mg14 O21 1.986 . S
Mg14 O23 2.114 . S
Mg14 O24 2.251 . S
Mg14 O27 2.010 . S
O15 Mg14 2.028 . S
O15 C18 1.250 . S
O16 Mg17 2.028 . S
O16 C18 1.248 . S
Mg17 O16 2.028 . S
Mg17 O22 2.032 . S
Mg17 O24 2.079 . S
C18 O15 1.250 . S
C18 O16 1.248 . S
C19 O20 1.264 . S
C19 O27 1.249 . S
O20 C19 1.264 . S
O21 Mg14 1.986 . S
O21 C25 1.246 . S
O22 Mg17 2.032 . S
O22 C25 1.259 . S
O23 Mg14 2.114 . S
O23 C26 1.252 . S
O24 Mg14 2.251 . S
O24 Mg17 2.079 . S
O24 C26 1.273 . S
C25 O21 1.246 . S
C25 O22 1.259 . S
C26 O23 1.252 . S
C26 O24 1.273 . S
O27 Mg14 2.010 . S
O27 C19 1.249 . S
Mg28 O29 2.028 . S
Mg28 O35 1.986 . S
Mg28 O37 2.114 . S
Mg28 O38 2.251 . S
Mg28 O41 2.010 . S
O29 Mg28 2.028 . S
O29 C32 1.250 . S
O30 Mg31 2.028 . S
O30 C32 1.248 . S
Mg31 O30 2.028 . S
Mg31 O36 2.032 . S
Mg31 O38 2.079 . S
C32 O29 1.250 . S
C32 O30 1.248 . S
C33 O34 1.264 . S
C33 O41 1.249 . S
O34 C33 1.264 . S
O35 Mg28 1.986 . S
O35 C39 1.246 . S
O36 Mg31 2.032 . S
O36 C39 1.259 . S
O37 Mg28 2.114 . S
O37 C40 1.252 . S
O38 Mg28 2.251 . S
O38 Mg31 2.079 . S
O38 C40 1.273 . S
C39 O35 1.246 . S
C39 O36 1.259 . S
C40 O37 1.252 . S
C40 O38 1.273 . S
O41 Mg28 2.010 . S
O41 C33 1.249 . S
Mg42 O43 2.028 . S
Mg42 O49 1.986 . S
Mg42 O51 2.114 . S
Mg42 O52 2.251 . S
Mg42 O55 2.010 . S
O43 Mg42 2.028 . S
O43 C46 1.250 . S
O44 Mg45 2.028 . S
O44 C46 1.248 . S
Mg45 O44 2.028 . S
Mg45 O50 2.032 . S
Mg45 O52 2.079 . S
C46 O43 1.250 . S
C46 O44 1.248 . S
C47 O48 1.264 . S
C47 O55 1.249 . S
O48 C47 1.264 . S
O49 Mg42 1.986 . S
O49 C53 1.246 . S
O50 Mg45 2.032 . S
O50 C53 1.259 . S
O51 Mg42 2.114 . S
O51 C54 1.252 . S
O52 Mg42 2.251 . S
O52 Mg45 2.079 . S
O52 C54 1.273 . S
C53 O49 1.246 . S
C53 O50 1.259 . S
C54 O51 1.252 . S
C54 O52 1.273 . S
O55 Mg42 2.010 . S
O55 C47 1.249 . S
Mg56 O57 2.028 . S
Mg56 O63 1.986 . S
Mg56 O65 2.114 . S
Mg56 O66 2.251 . S
Mg56 O69 2.010 . S
O57 Mg56 2.028 . S
O57 C60 1.250 . S
O58 Mg59 2.028 . S
O58 C60 1.248 . S
Mg59 O58 2.028 . S
Mg59 O64 2.032 . S
Mg59 O66 2.079 . S
C60 O57 1.250 . S
C60 O58 1.248 . S
C61 O62 1.264 . S
C61 O69 1.249 . S
O62 C61 1.264 . S
O63 Mg56 1.986 . S
O63 C67 1.246 . S
O64 Mg59 2.032 . S
O64 C67 1.259 . S
O65 Mg56 2.114 . S
O65 C68 1.252 . S
O66 Mg56 2.251 . S
O66 Mg59 2.079 . S
O66 C68 1.273 . S
C67 O63 1.246 . S
C67 O64 1.259 . S
C68 O65 1.252 . S
C68 O66 1.273 . S
O69 Mg56 2.010 . S
O69 C61 1.249 . S
Mg70 O71 2.028 . S
Mg70 O77 1.986 . S
Mg70 O79 2.114 . S
Mg70 O80 2.251 . S
Mg70 O83 2.010 . S
O71 Mg70 2.028 . S
O71 C74 1.250 . S
O72 Mg73 2.028 . S
O72 C74 1.248 . S
Mg73 O72 2.028 . S
Mg73 O78 2.032 . S
Mg73 O80 2.079 . S
C74 O71 1.250 . S
C74 O72 1.248 . S
C75 O76 1.264 . S
C75 O83 1.249 . S
O76 C75 1.264 . S
O77 Mg70 1.986 . S
O77 C81 1.246 . S
O78 Mg73 2.032 . S
O78 C81 1.259 . S
O79 Mg70 2.114 . S
O79 C82 1.252 . S
O80 Mg70 2.251 . S
O80 Mg73 2.079 . S
O80 C82 1.273 . S
C81 O77 1.246 . S
C81 O78 1.259 . S
C82 O79 1.252 . S
C82 O80 1.273 . S
O83 Mg70 2.010 . S
O83 C75 1.249 . S
Mg84 O85 2.028 . S
Mg84 O91 1.986 . S
Mg84 O93 2.114 . S
Mg84 O94 2.251 . S
Mg84 O97 2.010 . S
O85 Mg84 2.028 . S
O85 C88 1.250 . S
O86 Mg87 2.028 . S
O86 C88 1.248 . S
Mg87 O86 2.028 . S
Mg87 O92 2.032 . S
Mg87 O94 2.079 . S
C88 O85 1.250 . S
C88 O86 1.248 . S
C89 O90 1.264 . S
C89 O97 1.249 . S
O90 C89 1.264 . S
O91 Mg84 1.986 . S
O91 C95 1.246 . S
O92 Mg87 2.032 . S
O92 C95 1.259 . S
O93 Mg84 2.114 . S
O93 C96 1.252 . S
O94 Mg84 2.251 . S
O94 Mg87 2.079 . S
O94 C96 1.273 . S
C95 O91 1.246 . S
C95 O92 1.259 . S
C96 O93 1.252 . S
C96 O94 1.273 . S
O97 Mg84 2.010 . S
O97 C89 1.249 . S
Mg98 O99 2.028 . S
Mg98 O105 1.986 . S
Mg98 O107 2.114 . S
Mg98 O108 2.251 . S
Mg98 O111 2.010 . S
O99 Mg98 2.028 . S
O99 C102 1.250 . S
O100 Mg101 2.028 . S
O100 C102 1.248 . S
Mg101 O100 2.028 . S
Mg101 O106 2.032 . S
Mg101 O108 2.079 . S
C102 O99 1.250 . S
C102 O100 1.248 . S
C103 O104 1.264 . S
C103 O111 1.249 . S
O104 C103 1.264 . S
O105 Mg98 1.986 . S
O105 C109 1.246 . S
O106 Mg101 2.032 . S
O106 C109 1.259 . S
O107 Mg98 2.114 . S
O107 C110 1.252 . S
O108 Mg98 2.251 . S
O108 Mg101 2.079 . S
O108 C110 1.273 . S
C109 O105 1.246 . S
C109 O106 1.259 . S
C110 O107 1.252 . S
C110 O108 1.273 . S
O111 Mg98 2.010 . S
O111 C103 1.249 . S
Mg112 O113 2.028 . S
Mg112 O119 1.986 . S
Mg112 O121 2.114 . S
Mg112 O122 2.251 . S
Mg112 O125 2.010 . S
O113 Mg112 2.028 . S
O113 C116 1.250 . S
O114 Mg115 2.028 . S
O114 C116 1.248 . S
Mg115 O114 2.028 . S
Mg115 O120 2.032 . S
Mg115 O122 2.079 . S
C116 O113 1.250 . S
C116 O114 1.248 . S
C117 O118 1.264 . S
C117 O125 1.249 . S
O118 C117 1.264 . S
O119 Mg112 1.986 . S
O119 C123 1.246 . S
O120 Mg115 2.032 . S
O120 C123 1.259 . S
O121 Mg112 2.114 . S
O121 C124 1.252 . S
O122 Mg112 2.251 . S
O122 Mg115 2.079 . S
O122 C124 1.273 . S
C123 O119 1.246 . S
C123 O120 1.259 . S
C124 O121 1.252 . S
C124 O122 1.273 . S
O125 Mg112 2.010 . S
O125 C117 1.249 . S
Mg126 O127 2.028 . S
Mg126 O133 1.986 . S
Mg126 O135 2.114 . S
Mg126 O136 2.251 . S
Mg126 O139 2.010 . S
O127 Mg126 2.028 . S
O127 C130 1.250 . S
O128 Mg129 2.028 . S
O128 C130 1.248 . S
Mg129 O128 2.028 . S
Mg129 O134 2.032 . S
Mg129 O136 2.079 . S
C130 O127 1.250 . S
C130 O128 1.248 . S
C131 O132 1.264 . S
C131 O139 1.249 . S
O132 C131 1.264 . S
O133 Mg126 1.986 . S
O133 C137 1.246 . S
O134 Mg129 2.032 . S
O134 C137 1.259 . S
O135 Mg126 2.114 . S
O135 C138 1.252 . S
O136 Mg126 2.251 . S
O136 Mg129 2.079 . S
O136 C138 1.273 . S
C137 O133 1.246 . S
C137 O134 1.259 . S
C138 O135 1.252 . S
C138 O136 1.273 . S
O139 Mg126 2.010 . S
O139 C131 1.249 . S
Mg140 O141 2.028 . S
Mg140 O147 1.986 . S
Mg140 O149 2.114 . S
Mg140 O150 2.251 . S
Mg140 O153 2.010 . S
O141 Mg140 2.028 . S
O141 C144 1.250 . S
O142 Mg143 2.028 . S
O142 C144 1.248 . S
Mg143 O142 2.028 . S
Mg143 O148 2.032 . S
Mg143 O150 2.079 . S
C144 O141 1.250 . S
C144 O142 1.248 . S
C145 O146 1.264 . S
C145 O153 1.249 . S
O146 C145 1.264 . S
O147 Mg140 1.986 . S
O147 C151 1.246 . S
O148 Mg143 2.032 . S
O148 C151 1.259 . S
O149 Mg140 2.114 . S
O149 C152 1.252 . S
O150 Mg140 2.251 . S
O150 Mg143 2.079 . S
O150 C152 1.273 . S
C151 O147 1.246 . S
C151 O148 1.259 . S
C152 O149 1.252 . S
C152 O150 1.273 . S
O153 Mg140 2.010 . S
O153 C145 1.249 . S
Mg154 O155 2.028 . S
Mg154 O161 1.986 . S
Mg154 O163 2.114 . S
Mg154 O164 2.251 . S
Mg154 O167 2.010 . S
O155 Mg154 2.028 . S
O155 C158 1.250 . S
O156 Mg157 2.028 . S
O156 C158 1.248 . S
Mg157 O156 2.028 . S
Mg157 O162 2.032 . S
Mg157 O164 2.079 . S
C158 O155 1.250 . S
C158 O156 1.248 . S
C159 O160 1.264 . S
C159 O167 1.249 . S
O160 C159 1.264 . S
O161 Mg154 1.986 . S
O161 C165 1.246 . S
O162 Mg157 2.032 . S
O162 C165 1.259 . S
O163 Mg154 2.114 . S
O163 C166 1.252 . S
O164 Mg154 2.251 . S
O164 Mg157 2.079 . S
O164 C166 1.273 . S
C165 O161 1.246 . S
C165 O162 1.259 . S
C166 O163 1.252 . S
C166 O164 1.273 . S
O167 Mg154 2.010 . S
O167 C159 1.249 . S
Mg168 O169 2.028 . S
Mg168 O175 1.986 . S
Mg168 O177 2.114 . S
Mg168 O178 2.251 . S
Mg168 O181 2.010 . S
O169 Mg168 2.028 . S
O169 C172 1.250 . S
O170 Mg171 2.028 . S
O170 C172 1.248 . S
Mg171 O170 2.028 . S
Mg171 O176 2.032 . S
Mg171 O178 2.079 . S
C172 O169 1.250 . S
C172 O170 1.248 . S
C173 O174 1.264 . S
C173 O181 1.249 . S
O174 C173 1.264 . S
O175 Mg168 1.986 . S
O175 C179 1.246 . S
O176 Mg171 2.032 . S
O176 C179 1.259 . S
O177 Mg168 2.114 . S
O177 C180 1.252 . S
O178 Mg168 2.251 . S
O178 Mg171 2.079 . S
O178 C180 1.273 . S
C179 O175 1.246 . S
C179 O176 1.259 . S
C180 O177 1.252 . S
C180 O178 1.273 . S
O181 Mg168 2.010 . S
O181 C173 1.249 . S
Mg182 O183 2.028 . S
Mg182 O189 1.986 . S
Mg182 O191 2.114 . S
Mg182 O192 2.251 . S
Mg182 O195 2.010 . S
O183 Mg182 2.028 . S
O183 C186 1.250 . S
O184 Mg185 2.028 . S
O184 C186 1.248 . S
Mg185 O184 2.028 . S
Mg185 O190 2.032 . S
Mg185 O192 2.079 . S
C186 O183 1.250 . S
C186 O184 1.248 . S
C187 O188 1.264 . S
C187 O195 1.249 . S
O188 C187 1.264 . S
O189 Mg182 1.986 . S
O189 C193 1.246 . S
O190 Mg185 2.032 . S
O190 C193 1.259 . S
O191 Mg182 2.114 . S
O191 C194 1.252 . S
O192 Mg182 2.251 . S
O192 Mg185 2.079 . S
O192 C194 1.273 . S
C193 O189 1.246 . S
C193 O190 1.259 . S
C194 O191 1.252 . S
C194 O192 1.273 . S
O195 Mg182 2.010 . S
O195 C187 1.249 . S
Mg196 O197 2.028 . S
Mg196 O203 1.986 . S
Mg196 O205 2.114 . S
Mg196 O206 2.251 . S
Mg196 O209 2.010 . S
O197 Mg196 2.028 . S
O197 C200 1.250 . S
O198 Mg199 2.028 . S
O198 C200 1.248 . S
Mg199 O198 2.028 . S
Mg199 O204 2.032 . S
Mg199 O206 2.079 . S
C200 O197 1.250 . S
C200 O198 1.248 . S
C201 O202 1.264 . S
C201 O209 1.249 . S
O202 C201 1.264 . S
O203 Mg196 1.986 . S
O203 C207 1.246 . S
O204 Mg199 2.032 . S
O204 C207 1.259 . S
O205 Mg196 2.114 . S
O205 C208 1.252 . S
O206 Mg196 2.251 . S
O206 Mg199 2.079 . S
O206 C208 1.273 . S
C207 O203 1.246 . S
C207 O204 1.259 . S
C208 O205 1.252 . S
C208 O206 1.273 . S
O209 Mg196 2.010 . S
O209 C201 1.249 . S
Mg210 O211 2.028 . S
Mg210 O217 1.986 . S
Mg210 O219 2.114 . S
Mg210 O220 2.251 . S
Mg210 O223 2.010 . S
O211 Mg210 2.028 . S
O211 C214 1.250 . S
O212 Mg213 2.028 . S
O212 C214 1.248 . S
Mg213 O212 2.028 . S
Mg213 O218 2.032 . S
Mg213 O220 2.079 . S
C214 O211 1.250 . S
C214 O212 1.248 . S
C215 O216 1.264 . S
C215 O223 1.249 . S
O216 C215 1.264 . S
O217 Mg210 1.986 . S
O217 C221 1.246 . S
O218 Mg213 2.032 . S
O218 C221 1.259 . S
O219 Mg210 2.114 . S
O219 C222 1.252 . S
O220 Mg210 2.251 . S
O220 Mg213 2.079 . S
O220 C222 1.273 . S
C221 O217 1.246 . S
C221 O218 1.259 . S
C222 O219 1.252 . S
C222 O220 1.273 . S
O223 Mg210 2.010 . S
O223 C215 1.249 . S
Mg224 O225 2.028 . S
Mg224 O231 1.986 . S
Mg224 O233 2.114 . S
Mg224 O234 2.251 . S
Mg224 O237 2.010 . S
O225 Mg224 2.028 . S
O225 C228 1.250 . S
O226 Mg227 2.028 . S
O226 C228 1.248 . S
Mg227 O226 2.028 . S
Mg227 O232 2.032 . S
Mg227 O234 2.079 . S
C228 O225 1.250 . S
C228 O226 1.248 . S
C229 O230 1.264 . S
C229 O237 1.249 . S
O230 C229 1.264 . S
O231 Mg224 1.986 . S
O231 C235 1.246 . S
O232 Mg227 2.032 . S
O232 C235 1.259 . S
O233 Mg224 2.114 . S
O233 C236 1.252 . S
O234 Mg224 2.251 . S
O234 Mg227 2.079 . S
O234 C236 1.273 . S
C235 O231 1.246 . S
C235 O232 1.259 . S
C236 O233 1.252 . S
C236 O234 1.273 . S
O237 Mg224 2.010 . S
O237 C229 1.249 . S
Mg238 O239 2.028 . S
Mg238 O245 1.986 . S
Mg238 O247 2.114 . S
Mg238 O248 2.251 . S
Mg238 O251 2.010 . S
O239 Mg238 2.028 . S
O239 C242 1.250 . S
O240 Mg241 2.028 . S
O240 C242 1.248 . S
Mg241 O240 2.028 . S
Mg241 O246 2.032 . S
Mg241 O248 2.079 . S
C242 O239 1.250 . S
C242 O240 1.248 . S
C243 O244 1.264 . S
C243 O251 1.249 . S
O244 C243 1.264 . S
O245 Mg238 1.986 . S
O245 C249 1.246 . S
O246 Mg241 2.032 . S
O246 C249 1.259 . S
O247 Mg238 2.114 . S
O247 C250 1.252 . S
O248 Mg238 2.251 . S
O248 Mg241 2.079 . S
O248 C250 1.273 . S
C249 O245 1.246 . S
C249 O246 1.259 . S
C250 O247 1.252 . S
C250 O248 1.273 . S
O251 Mg238 2.010 . S
O251 C243 1.249 . S
Mg252 O253 2.028 . S
Mg252 O259 1.986 . S
Mg252 O261 2.114 . S
Mg252 O262 2.251 . S
Mg252 O265 2.010 . S
O253 Mg252 2.028 . S
O253 C256 1.250 . S
O254 Mg255 2.028 . S
O254 C256 1.248 . S
Mg255 O254 2.028 . S
Mg255 O260 2.032 . S
Mg255 O262 2.079 . S
C256 O253 1.250 . S
C256 O254 1.248 . S
C257 O258 1.264 . S
C257 O265 1.249 . S
O258 C257 1.264 . S
O259 Mg252 1.986 . S
O259 C263 1.246 . S
O260 Mg255 2.032 . S
O260 C263 1.259 . S
O261 Mg252 2.114 . S
O261 C264 1.252 . S
O262 Mg252 2.251 . S
O262 Mg255 2.079 . S
O262 C264 1.273 . S
C263 O259 1.246 . S
C263 O260 1.259 . S
C264 O261 1.252 . S
C264 O262 1.273 . S
O265 Mg252 2.010 . S
O265 C257 1.249 . S
Mg266 O267 2.028 . S
Mg266 O273 1.986 . S
Mg266 O275 2.114 . S
Mg266 O276 2.251 . S
Mg266 O279 2.010 . S
O267 Mg266 2.028 . S
O267 C270 1.250 . S
O268 Mg269 2.028 . S
O268 C270 1.248 . S
Mg269 O268 2.028 . S
Mg269 O274 2.032 . S
Mg269 O276 2.079 . S
C270 O267 1.250 . S
C270 O268 1.248 . S
C271 O272 1.264 . S
C271 O279 1.249 . S
O272 C271 1.264 . S
O273 Mg266 1.986 . S
O273 C277 1.246 . S
O274 Mg269 2.032 . S
O274 C277 1.259 . S
O275 Mg266 2.114 . S
O275 C278 1.252 . S
O276 Mg266 2.251 . S
O276 Mg269 2.079 . S
O276 C278 1.273 . S
C277 O273 1.246 . S
C277 O274 1.259 . S
C278 O275 1.252 . S
C278 O276 1.273 . S
O279 Mg266 2.010 . S
O279 C271 1.249 . S
Mg280 O281 2.028 . S
Mg280 O287 1.986 . S
Mg280 O289 2.114 . S
Mg280 O290 2.251 . S
Mg280 O293 2.010 . S
O281 Mg280 2.028 . S
O281 C284 1.250 . S
O282 Mg283 2.028 . S
O282 C284 1.248 . S
Mg283 O282 2.028 . S
Mg283 O288 2.032 . S
Mg283 O290 2.079 . S
C284 O281 1.250 . S
C284 O282 1.248 . S
C285 O286 1.264 . S
C285 O293 1.249 . S
O286 C285 1.264 . S
O287 Mg280 1.986 . S
O287 C291 1.246 . S
O288 Mg283 2.032 . S
O288 C291 1.259 . S
O289 Mg280 2.114 . S
O289 C292 1.252 . S
O290 Mg280 2.251 . S
O290 Mg283 2.079 . S
O290 C292 1.273 . S
C291 O287 1.246 . S
C291 O288 1.259 . S
C292 O289 1.252 . S
C292 O290 1.273 . S
O293 Mg280 2.010 . S
O293 C285 1.249 . S
Mg294 O295 2.028 . S
Mg294 O301 1.986 . S
Mg294 O303 2.114 . S
Mg294 O304 2.251 . S
Mg294 O307 2.010 . S
O295 Mg294 2.028 . S
O295 C298 1.250 . S
O296 Mg297 2.028 . S
O296 C298 1.248 . S
Mg297 O296 2.028 . S
Mg297 O302 2.032 . S
Mg297 O304 2.079 . S
C298 O295 1.250 . S
C298 O296 1.248 . S
C299 O300 1.264 . S
C299 O307 1.249 . S
O300 C299 1.264 . S
O301 Mg294 1.986 . S
O301 C305 1.246 . S
O302 Mg297 2.032 . S
O302 C305 1.259 . S
O303 Mg294 2.114 . S
O303 C306 1.252 . S
O304 Mg294 2.251 . S
O304 Mg297 2.079 . S
O304 C306 1.273 . S
C305 O301 1.246 . S
C305 O302 1.259 . S
C306 O303 1.252 . S
C306 O304 1.273 . S
O307 Mg294 2.010 . S
O307 C299 1.249 . S
Mg308 O309 2.028 . S
Mg308 O315 1.986 . S
Mg308 O317 2.114 . S
Mg308 O318 2.251 . S
Mg308 O321 2.010 . S
O309 Mg308 2.028 . S
O309 C312 1.250 . S
O310 Mg311 2.028 . S
O310 C312 1.248 . S
Mg311 O310 2.028 . S
Mg311 O316 2.032 . S
Mg311 O318 2.079 . S
C312 O309 1.250 . S
C312 O310 1.248 . S
C313 O314 1.264 . S
C313 O321 1.249 . S
O314 C313 1.264 . S
O315 Mg308 1.986 . S
O315 C319 1.246 . S
O316 Mg311 2.032 . S
O316 C319 1.259 . S
O317 Mg308 2.114 . S
O317 C320 1.252 . S
O318 Mg308 2.251 . S
O318 Mg311 2.079 . S
O318 C320 1.273 . S
C319 O315 1.246 . S
C319 O316 1.259 . S
C320 O317 1.252 . S
C320 O318 1.273 . S
O321 Mg308 2.010 . S
O321 C313 1.249 . S
Mg322 O323 2.028 . S
Mg322 O329 1.986 . S
Mg322 O331 2.114 . S
Mg322 O332 2.251 . S
Mg322 O335 2.010 . S
O323 Mg322 2.028 . S
O323 C326 1.250 . S
O324 Mg325 2.028 . S
O324 C326 1.248 . S
Mg325 O324 2.028 . S
Mg325 O330 2.032 . S
Mg325 O332 2.079 . S
C326 O323 1.250 . S
C326 O324 1.248 . S
C327 O328 1.264 . S
C327 O335 1.249 . S
O328 C327 1.264 . S
O329 Mg322 1.986 . S
O329 C333 1.246 . S
O330 Mg325 2.032 . S
O330 C333 1.259 . S
O331 Mg322 2.114 . S
O331 C334 1.252 . S
O332 Mg322 2.251 . S
O332 Mg325 2.079 . S
O332 C334 1.273 . S
C333 O329 1.246 . S
C333 O330 1.259 . S
C334 O331 1.252 . S
C334 O332 1.273 . S
O335 Mg322 2.010 . S
O335 C327 1.249 . S
H336 C344 0.929 . S
H337 C346 0.930 . S
H338 C348 0.930 . S
H339 C351 0.929 . S
H340 C354 0.930 . S
H341 C356 0.960 1_565 S
H342 C356 0.960 . S
H343 C356 0.960 . S
C344 H336 0.929 . S
C344 C345 1.377 . S
C344 C346 1.384 . S
C345 C344 1.377 . S
C345 C351 1.390 . S
C346 H337 0.930 . S
C346 C344 1.384 . S
C346 C347 1.372 . S
C347 C346 1.372 . S
C347 C348 1.400 . S
C347 C352 1.490 . S
C348 H338 0.930 . S
C348 C347 1.400 . S
C348 C351 1.386 . S
H349 C365 0.930 . S
H350 C366 0.931 . S
C351 H339 0.929 . S
C351 C345 1.390 . S
C351 C348 1.386 . S
C352 C347 1.490 . S
C352 C354 1.395 . S
C352 C355 1.403 . S
H353 C359 0.930 . S
C354 H340 0.930 . S
C354 C352 1.395 . S
C354 C357 1.403 1_545 S
C355 C352 1.403 . S
C355 C356 1.524 . S
C355 C359 1.400 1_545 S
C356 H341 0.960 1_545 S
C356 H342 0.960 . S
C356 H343 0.960 . S
C356 C355 1.524 . S
C357 C354 1.403 1_565 S
C357 C358 1.392 . S
C357 C361 1.495 . S
C358 C357 1.392 . S
C358 C359 1.385 . S
C358 C360 1.478 . S
C359 H353 0.930 . S
C359 C355 1.400 1_565 S
C359 C358 1.385 . S
C360 C358 1.478 . S
C360 C362 1.381 . S
C360 C366 1.383 . S
C361 C357 1.495 . S
C361 H367 0.959 1_565 S
C361 H368 0.961 . S
C361 H369 0.960 . S
C362 C360 1.381 . S
C362 C363 1.394 . S
C362 H370 0.930 . S
C363 C362 1.394 . S
C363 C364 1.383 . S
C363 H371 0.929 . S
C364 C363 1.383 . S
C364 C365 1.377 . S
C365 H349 0.930 . S
C365 C364 1.377 . S
C365 C366 1.379 . S
C366 H350 0.931 . S
C366 C360 1.383 . S
C366 C365 1.379 . S
H367 C361 0.959 1_545 S
H368 C361 0.961 . S
H369 C361 0.960 . S
H370 C362 0.930 . S
H371 C363 0.929 . S
H372 C380 0.929 . S
H373 C382 0.930 . S
H374 C384 0.930 . S
H375 C387 0.929 . S
H376 C390 0.930 . S
H377 C392 0.960 . S
H378 C392 0.960 . S
H379 C392 0.960 . S
C380 H372 0.929 . S
C380 C381 1.377 . S
C380 C382 1.384 . S
C381 C380 1.377 . S
C381 C387 1.390 . S
C382 H373 0.930 . S
C382 C380 1.384 . S
C382 C383 1.372 . S
C383 C382 1.372 . S
C383 C384 1.400 . S
C383 C388 1.490 . S
C384 H374 0.930 . S
C384 C383 1.400 . S
C384 C387 1.386 . S
H385 C401 0.930 . S
H386 C402 0.931 . S
C387 H375 0.929 . S
C387 C381 1.390 . S
C387 C384 1.386 . S
C388 C383 1.490 . S
C388 C390 1.395 . S
C388 C391 1.403 . S
H389 C395 0.930 . S
C390 H376 0.930 . S
C390 C388 1.395 . S
C390 C393 1.403 . S
C391 C388 1.403 . S
C391 C392 1.524 . S
C391 C395 1.400 . S
C392 H377 0.960 . S
C392 H378 0.960 . S
C392 H379 0.960 . S
C392 C391 1.524 . S
C393 C390 1.403 . S
C393 C394 1.392 . S
C393 C397 1.495 . S
C394 C393 1.392 . S
C394 C395 1.385 . S
C394 C396 1.478 . S
C395 H389 0.930 . S
C395 C391 1.400 . S
C395 C394 1.385 . S
C396 C394 1.478 . S
C396 C398 1.381 . S
C396 C402 1.383 . S
C397 C393 1.495 . S
C397 H403 0.959 . S
C397 H404 0.961 . S
C397 H405 0.960 . S
C398 C396 1.381 . S
C398 C399 1.394 . S
C398 H406 0.930 . S
C399 C398 1.394 . S
C399 C400 1.383 . S
C399 H407 0.929 . S
C400 C399 1.383 . S
C400 C401 1.377 . S
C401 H385 0.930 . S
C401 C400 1.377 . S
C401 C402 1.379 . S
C402 H386 0.931 . S
C402 C396 1.383 . S
C402 C401 1.379 . S
H403 C397 0.959 . S
H404 C397 0.961 . S
H405 C397 0.960 . S
H406 C398 0.930 . S
H407 C399 0.929 . S
H408 C416 0.929 . S
H409 C418 0.930 . S
H410 C420 0.930 . S
H411 C423 0.929 . S
H412 C426 0.930 . S
H413 C428 0.960 1_455 S
H414 C428 0.960 . S
H415 C428 0.960 . S
C416 H408 0.929 . S
C416 C417 1.377 . S
C416 C418 1.384 . S
C417 C416 1.377 . S
C417 C423 1.390 . S
C418 H409 0.930 . S
C418 C416 1.384 . S
C418 C419 1.372 . S
C419 C418 1.372 . S
C419 C420 1.400 . S
C419 C424 1.490 . S
C420 H410 0.930 . S
C420 C419 1.400 . S
C420 C423 1.386 . S
H421 C437 0.930 . S
H422 C438 0.931 . S
C423 H411 0.929 . S
C423 C417 1.390 . S
C423 C420 1.386 . S
C424 C419 1.490 . S
C424 C426 1.395 . S
C424 C427 1.403 . S
H425 C431 0.930 . S
C426 H412 0.930 . S
C426 C424 1.395 . S
C426 C429 1.403 1_655 S
C427 C424 1.403 . S
C427 C428 1.524 . S
C427 C431 1.400 1_655 S
C428 H413 0.960 1_655 S
C428 H414 0.960 . S
C428 H415 0.960 . S
C428 C427 1.524 . S
C429 C426 1.403 1_455 S
C429 C430 1.392 . S
C429 C433 1.495 . S
C430 C429 1.392 . S
C430 C431 1.385 . S
C430 C432 1.478 . S
C431 H425 0.930 . S
C431 C427 1.400 1_455 S
C431 C430 1.385 . S
C432 C430 1.478 . S
C432 C434 1.381 . S
C432 C438 1.383 . S
C433 C429 1.495 . S
C433 H439 0.959 1_455 S
C433 H440 0.961 . S
C433 H441 0.960 . S
C434 C432 1.381 . S
C434 C435 1.394 . S
C434 H442 0.930 . S
C435 C434 1.394 . S
C435 C436 1.383 . S
C435 H443 0.929 . S
C436 C435 1.383 . S
C436 C437 1.377 . S
C437 H421 0.930 . S
C437 C436 1.377 . S
C437 C438 1.379 . S
C438 H422 0.931 . S
C438 C432 1.383 . S
C438 C437 1.379 . S
H439 C433 0.959 1_655 S
H440 C433 0.961 . S
H441 C433 0.960 . S
H442 C434 0.930 . S
H443 C435 0.929 . S
H444 C452 0.929 . S
H445 C454 0.930 . S
H446 C456 0.930 . S
H447 C459 0.929 . S
H448 C462 0.930 . S
H449 C464 0.960 . S
H450 C464 0.960 . S
H451 C464 0.960 . S
C452 H444 0.929 . S
C452 C453 1.377 . S
C452 C454 1.384 . S
C453 C452 1.377 . S
C453 C459 1.390 . S
C454 H445 0.930 . S
C454 C452 1.384 . S
C454 C455 1.372 . S
C455 C454 1.372 . S
C455 C456 1.400 . S
C455 C460 1.490 . S
C456 H446 0.930 . S
C456 C455 1.400 . S
C456 C459 1.386 . S
H457 C473 0.930 . S
H458 C474 0.931 . S
C459 H447 0.929 . S
C459 C453 1.390 . S
C459 C456 1.386 . S
C460 C455 1.490 . S
C460 C462 1.395 . S
C460 C463 1.403 . S
H461 C467 0.930 . S
C462 H448 0.930 . S
C462 C460 1.395 . S
C462 C465 1.403 1_565 S
C463 C460 1.403 . S
C463 C464 1.524 . S
C463 C467 1.400 1_565 S
C464 H449 0.960 . S
C464 H450 0.960 . S
C464 H451 0.960 . S
C464 C463 1.524 . S
C465 C462 1.403 1_545 S
C465 C466 1.392 . S
C465 C469 1.495 . S
C466 C465 1.392 . S
C466 C467 1.385 . S
C466 C468 1.478 . S
C467 H461 0.930 . S
C467 C463 1.400 1_545 S
C467 C466 1.385 . S
C468 C466 1.478 . S
C468 C470 1.381 . S
C468 C474 1.383 . S
C469 C465 1.495 . S
C469 H475 0.959 . S
C469 H476 0.961 . S
C469 H477 0.960 . S
C470 C468 1.381 . S
C470 C471 1.394 . S
C470 H478 0.930 . S
C471 C470 1.394 . S
C471 C472 1.383 . S
C471 H479 0.929 . S
C472 C471 1.383 . S
C472 C473 1.377 . S
C473 H457 0.930 . S
C473 C472 1.377 . S
C473 C474 1.379 . S
C474 H458 0.931 . S
C474 C468 1.383 . S
C474 C473 1.379 . S
H475 C469 0.959 . S
H476 C469 0.961 . S
H477 C469 0.960 . S
H478 C470 0.930 . S
H479 C471 0.929 . S
H480 C488 0.929 . S
H481 C490 0.930 . S
H482 C492 0.930 . S
H483 C495 0.929 . S
H484 C498 0.930 . S
H485 C500 0.960 . S
H486 C500 0.960 . S
H487 C500 0.960 . S
C488 H480 0.929 . S
C488 C489 1.377 . S
C488 C490 1.384 . S
C489 C488 1.377 . S
C489 C495 1.390 . S
C490 H481 0.930 . S
C490 C488 1.384 . S
C490 C491 1.372 . S
C491 C490 1.372 . S
C491 C492 1.400 . S
C491 C496 1.490 . S
C492 H482 0.930 . S
C492 C491 1.400 . S
C492 C495 1.386 . S
H493 C509 0.930 . S
H494 C510 0.931 . S
C495 H483 0.929 . S
C495 C489 1.390 . S
C495 C492 1.386 . S
C496 C491 1.490 . S
C496 C498 1.395 . S
C496 C499 1.403 . S
H497 C503 0.930 . S
C498 H484 0.930 . S
C498 C496 1.395 . S
C498 C501 1.403 . S
C499 C496 1.403 . S
C499 C500 1.524 . S
C499 C503 1.400 . S
C500 H485 0.960 . S
C500 H486 0.960 . S
C500 H487 0.960 . S
C500 C499 1.524 . S
C501 C498 1.403 . S
C501 C502 1.392 . S
C501 C505 1.495 . S
C502 C501 1.392 . S
C502 C503 1.385 . S
C502 C504 1.478 . S
C503 H497 0.930 . S
C503 C499 1.400 . S
C503 C502 1.385 . S
C504 C502 1.478 . S
C504 C506 1.381 . S
C504 C510 1.383 . S
C505 C501 1.495 . S
C505 H511 0.959 . S
C505 H512 0.961 . S
C505 H513 0.960 . S
C506 C504 1.381 . S
C506 C507 1.394 . S
C506 H514 0.930 . S
C507 C506 1.394 . S
C507 C508 1.383 . S
C507 H515 0.929 . S
C508 C507 1.383 . S
C508 C509 1.377 . S
C509 H493 0.930 . S
C509 C508 1.377 . S
C509 C510 1.379 . S
C510 H494 0.931 . S
C510 C504 1.383 . S
C510 C509 1.379 . S
H511 C505 0.959 . S
H512 C505 0.961 . S
H513 C505 0.960 . S
H514 C506 0.930 . S
H515 C507 0.929 . S
H516 C524 0.929 . S
H517 C526 0.930 . S
H518 C528 0.930 . S
H519 C531 0.929 . S
H520 C534 0.930 . S
H521 C536 0.960 . S
H522 C536 0.960 . S
H523 C536 0.960 . S
C524 H516 0.929 . S
C524 C525 1.377 . S
C524 C526 1.384 . S
C525 C524 1.377 . S
C525 C531 1.390 . S
C526 H517 0.930 . S
C526 C524 1.384 . S
C526 C527 1.372 . S
C527 C526 1.372 . S
C527 C528 1.400 . S
C527 C532 1.490 . S
C528 H518 0.930 . S
C528 C527 1.400 . S
C528 C531 1.386 . S
H529 C545 0.930 . S
H530 C546 0.931 . S
C531 H519 0.929 . S
C531 C525 1.390 . S
C531 C528 1.386 . S
C532 C527 1.490 . S
C532 C534 1.395 . S
C532 C535 1.403 . S
H533 C539 0.930 . S
C534 H520 0.930 . S
C534 C532 1.395 . S
C534 C537 1.403 1_455 S
C535 C532 1.403 . S
C535 C536 1.524 . S
C535 C539 1.400 1_455 S
C536 H521 0.960 . S
C536 H522 0.960 . S
C536 H523 0.960 . S
C536 C535 1.524 . S
C537 C534 1.403 1_655 S
C537 C538 1.392 . S
C537 C541 1.495 . S
C538 C537 1.392 . S
C538 C539 1.385 . S
C538 C540 1.478 . S
C539 H533 0.930 . S
C539 C535 1.400 1_655 S
C539 C538 1.385 . S
C540 C538 1.478 . S
C540 C542 1.381 . S
C540 C546 1.383 . S
C541 C537 1.495 . S
C541 H547 0.959 . S
C541 H548 0.961 . S
C541 H549 0.960 . S
C542 C540 1.381 . S
C542 C543 1.394 . S
C542 H550 0.930 . S
C543 C542 1.394 . S
C543 C544 1.383 . S
C543 H551 0.929 . S
C544 C543 1.383 . S
C544 C545 1.377 . S
C545 H529 0.930 . S
C545 C544 1.377 . S
C545 C546 1.379 . S
C546 H530 0.931 . S
C546 C540 1.383 . S
C546 C545 1.379 . S
H547 C541 0.959 . S
H548 C541 0.961 . S
H549 C541 0.960 . S
H550 C542 0.930 . S
H551 C543 0.929 . S
H552 C560 0.929 . S
H553 C562 0.930 . S
H554 C564 0.930 . S
H555 C567 0.929 . S
H556 C570 0.930 . S
H557 C572 0.960 1_545 S
H558 C572 0.960 . S
H559 C572 0.960 . S
C560 H552 0.929 . S
C560 C561 1.377 . S
C560 C562 1.384 . S
C561 C560 1.377 . S
C561 C567 1.390 . S
C562 H553 0.930 . S
C562 C560 1.384 . S
C562 C563 1.372 . S
C563 C562 1.372 . S
C563 C564 1.400 . S
C563 C568 1.490 . S
C564 H554 0.930 . S
C564 C563 1.400 . S
C564 C567 1.386 . S
H565 C581 0.930 . S
H566 C582 0.931 . S
C567 H555 0.929 . S
C567 C561 1.390 . S
C567 C564 1.386 . S
C568 C563 1.490 . S
C568 C570 1.395 . S
C568 C571 1.403 . S
H569 C575 0.930 . S
C570 H556 0.930 . S
C570 C568 1.395 . S
C570 C573 1.403 1_565 S
C571 C568 1.403 . S
C571 C572 1.524 . S
C571 C575 1.400 1_565 S
C572 H557 0.960 1_565 S
C572 H558 0.960 . S
C572 H559 0.960 . S
C572 C571 1.524 . S
C573 C570 1.403 1_545 S
C573 C574 1.392 . S
C573 C577 1.495 . S
C574 C573 1.392 . S
C574 C575 1.385 . S
C574 C576 1.478 . S
C575 H569 0.930 . S
C575 C571 1.400 1_545 S
C575 C574 1.385 . S
C576 C574 1.478 . S
C576 C578 1.381 . S
C576 C582 1.383 . S
C577 C573 1.495 . S
C577 H583 0.929 1_545 S
C577 H584 0.961 . S
C577 H585 0.960 . S
C578 C576 1.381 . S
C578 C579 1.394 . S
C578 H586 0.930 . S
C579 C578 1.394 . S
C579 C580 1.383 . S
C579 H587 0.929 . S
C580 C579 1.383 . S
C580 C581 1.377 . S
C581 H565 0.930 . S
C581 C580 1.377 . S
C581 C582 1.379 . S
C582 H566 0.931 . S
C582 C576 1.383 . S
C582 C581 1.379 . S
H583 C577 0.929 1_565 S
H584 C577 0.961 . S
H585 C577 0.960 . S
H586 C578 0.930 . S
H587 C579 0.929 . S
H588 C596 0.929 . S
H589 C598 0.930 . S
H590 C600 0.930 . S
H591 C603 0.929 . S
H592 C606 0.930 . S
H593 C608 0.960 . S
H594 C608 0.960 . S
H595 C608 0.960 . S
C596 H588 0.929 . S
C596 C597 1.377 . S
C596 C598 1.384 . S
C597 C596 1.377 . S
C597 C603 1.390 . S
C598 H589 0.930 . S
C598 C596 1.384 . S
C598 C599 1.372 . S
C599 C598 1.372 . S
C599 C600 1.400 . S
C599 C604 1.490 . S
C600 H590 0.930 . S
C600 C599 1.400 . S
C600 C603 1.386 . S
H601 C617 0.930 . S
H602 C618 0.931 . S
C603 H591 0.929 . S
C603 C597 1.390 . S
C603 C600 1.386 . S
C604 C599 1.490 . S
C604 C606 1.395 . S
C604 C607 1.403 . S
H605 C611 0.930 . S
C606 H592 0.930 . S
C606 C604 1.395 . S
C606 C609 1.403 . S
C607 C604 1.403 . S
C607 C608 1.524 . S
C607 C611 1.400 . S
C608 H593 0.960 . S
C608 H594 0.960 . S
C608 H595 0.960 . S
C608 C607 1.524 . S
C609 C606 1.403 . S
C609 C610 1.392 . S
C609 C613 1.495 . S
C610 C609 1.392 . S
C610 C611 1.385 . S
C610 C612 1.478 . S
C611 H605 0.930 . S
C611 C607 1.400 . S
C611 C610 1.385 . S
C612 C610 1.478 . S
C612 C614 1.381 . S
C612 C618 1.383 . S
C613 C609 1.495 . S
C613 H619 0.959 . S
C613 H620 0.961 . S
C613 H621 0.960 . S
C614 C612 1.381 . S
C614 C615 1.394 . S
C614 H622 0.930 . S
C615 C614 1.394 . S
C615 C616 1.383 . S
C615 H623 0.929 . S
C616 C615 1.383 . S
C616 C617 1.377 . S
C617 H601 0.930 . S
C617 C616 1.377 . S
C617 C618 1.379 . S
C618 H602 0.931 . S
C618 C612 1.383 . S
C618 C617 1.379 . S
H619 C613 0.959 . S
H620 C613 0.961 . S
H621 C613 0.960 . S
H622 C614 0.930 . S
H623 C615 0.929 . S
H624 C632 0.929 . S
H625 C634 0.930 . S
H626 C636 0.930 . S
H627 C639 0.929 . S
H628 C642 0.930 . S
H629 C644 0.960 1_455 S
H630 C644 0.960 . S
H631 C644 0.960 . S
C632 H624 0.929 . S
C632 C633 1.377 . S
C632 C634 1.384 . S
C633 C632 1.377 . S
C633 C639 1.390 . S
C634 H625 0.930 . S
C634 C632 1.384 . S
C634 C635 1.372 . S
C635 C634 1.372 . S
C635 C636 1.400 . S
C635 C640 1.490 . S
C636 H626 0.930 . S
C636 C635 1.400 . S
C636 C639 1.386 . S
H637 C653 0.930 . S
H638 C654 0.931 . S
C639 H627 0.929 . S
C639 C633 1.390 . S
C639 C636 1.386 . S
C640 C635 1.490 . S
C640 C642 1.395 . S
C640 C643 1.403 . S
H641 C647 0.930 . S
C642 H628 0.930 . S
C642 C640 1.395 . S
C642 C645 1.403 1_655 S
C643 C640 1.403 . S
C643 C644 1.524 . S
C643 C647 1.400 1_655 S
C644 H629 0.960 1_655 S
C644 H630 0.960 . S
C644 H631 0.960 . S
C644 C643 1.524 . S
C645 C642 1.403 1_455 S
C645 C646 1.392 . S
C645 C649 1.495 . S
C646 C645 1.392 . S
C646 C647 1.385 . S
C646 C648 1.478 . S
C647 H641 0.930 . S
C647 C643 1.400 1_455 S
C647 C646 1.385 . S
C648 C646 1.478 . S
C648 C650 1.381 . S
C648 C654 1.383 . S
C649 C645 1.495 . S
C649 H655 0.959 1_455 S
C649 H656 0.961 . S
C649 H657 0.960 . S
C650 C648 1.381 . S
C650 C651 1.394 . S
C650 H658 0.930 . S
C651 C650 1.394 . S
C651 C652 1.383 . S
C651 H659 0.929 . S
C652 C651 1.383 . S
C652 C653 1.377 . S
C653 H637 0.930 . S
C653 C652 1.377 . S
C653 C654 1.379 . S
C654 H638 0.931 . S
C654 C648 1.383 . S
C654 C653 1.379 . S
H655 C649 0.959 1_655 S
H656 C649 0.961 . S
H657 C649 0.960 . S
H658 C650 0.930 . S
H659 C651 0.929 . S
H660 C668 0.929 . S
H661 C670 0.930 . S
H662 C672 0.930 . S
H663 C675 0.929 . S
H664 C678 0.930 . S
H665 C680 0.960 . S
H666 C680 0.960 . S
H667 C680 0.960 . S
C668 H660 0.929 . S
C668 C669 1.377 . S
C668 C670 1.384 . S
C669 C668 1.377 . S
C669 C675 1.390 . S
C670 H661 0.930 . S
C670 C668 1.384 . S
C670 C671 1.372 . S
C671 C670 1.372 . S
C671 C672 1.400 . S
C671 C676 1.490 . S
C672 H662 0.930 . S
C672 C671 1.400 . S
C672 C675 1.386 . S
H673 C689 0.930 . S
H674 C690 0.931 . S
C675 H663 0.929 . S
C675 C669 1.390 . S
C675 C672 1.386 . S
C676 C671 1.490 . S
C676 C678 1.395 . S
C676 C679 1.403 . S
H677 C683 0.930 . S
C678 H664 0.930 . S
C678 C676 1.395 . S
C678 C681 1.403 1_545 S
C679 C676 1.403 . S
C679 C680 1.524 . S
C679 C683 1.400 1_545 S
C680 H665 0.960 . S
C680 H666 0.960 . S
C680 H667 0.960 . S
C680 C679 1.524 . S
C681 C678 1.403 1_565 S
C681 C682 1.392 . S
C681 C685 1.495 . S
C682 C681 1.392 . S
C682 C683 1.385 . S
C682 C684 1.478 . S
C683 H677 0.930 . S
C683 C679 1.400 1_565 S
C683 C682 1.385 . S
C684 C682 1.478 . S
C684 C686 1.381 . S
C684 C690 1.383 . S
C685 C681 1.495 . S
C685 H691 0.959 . S
C685 H692 0.961 . S
C685 H693 0.960 . S
C686 C684 1.381 . S
C686 C687 1.394 . S
C686 H694 0.930 . S
C687 C686 1.394 . S
C687 C688 1.383 . S
C687 H695 0.929 . S
C688 C687 1.383 . S
C688 C689 1.377 . S
C689 H673 0.930 . S
C689 C688 1.377 . S
C689 C690 1.379 . S
C690 H674 0.931 . S
C690 C684 1.383 . S
C690 C689 1.379 . S
H691 C685 0.959 . S
H692 C685 0.961 . S
H693 C685 0.960 . S
H694 C686 0.930 . S
H695 C687 0.929 . S
H696 C704 0.929 . S
H697 C706 0.930 . S
H698 C708 0.930 . S
H699 C711 0.929 . S
H700 C714 0.930 . S
H701 C716 0.960 . S
H702 C716 0.960 . S
H703 C716 0.960 . S
C704 H696 0.929 . S
C704 C705 1.377 . S
C704 C706 1.384 . S
C705 C704 1.377 . S
C705 C711 1.390 . S
C706 H697 0.930 . S
C706 C704 1.384 . S
C706 C707 1.372 . S
C707 C706 1.372 . S
C707 C708 1.400 . S
C707 C712 1.490 . S
C708 H698 0.930 . S
C708 C707 1.400 . S
C708 C711 1.386 . S
H709 C725 0.930 . S
H710 C726 0.931 . S
C711 H699 0.929 . S
C711 C705 1.390 . S
C711 C708 1.386 . S
C712 C707 1.490 . S
C712 C714 1.395 . S
C712 C715 1.403 . S
H713 C719 0.930 . S
C714 H700 0.930 . S
C714 C712 1.395 . S
C714 C717 1.403 . S
C715 C712 1.403 . S
C715 C716 1.524 . S
C715 C719 1.400 . S
C716 H701 0.960 . S
C716 H702 0.960 . S
C716 H703 0.960 . S
C716 C715 1.524 . S
C717 C714 1.403 . S
C717 C718 1.392 . S
C717 C721 1.495 . S
C718 C717 1.392 . S
C718 C719 1.385 . S
C718 C720 1.478 . S
C719 H713 0.930 . S
C719 C715 1.400 . S
C719 C718 1.385 . S
C720 C718 1.478 . S
C720 C722 1.381 . S
C720 C726 1.383 . S
C721 C717 1.495 . S
C721 H727 0.959 . S
C721 H728 0.961 . S
C721 H729 0.960 . S
C722 C720 1.381 . S
C722 C723 1.394 . S
C722 H730 0.930 . S
C723 C722 1.394 . S
C723 C724 1.383 . S
C723 H731 0.929 . S
C724 C723 1.383 . S
C724 C725 1.377 . S
C725 H709 0.930 . S
C725 C724 1.377 . S
C725 C726 1.379 . S
C726 H710 0.931 . S
C726 C720 1.383 . S
C726 C725 1.379 . S
H727 C721 0.959 . S
H728 C721 0.961 . S
H729 C721 0.960 . S
H730 C722 0.930 . S
H731 C723 0.929 . S
H732 C740 0.929 . S
H733 C742 0.930 . S
H734 C744 0.930 . S
H735 C747 0.929 . S
H736 C750 0.930 . S
H737 C752 0.960 . S
H738 C752 0.960 . S
H739 C752 0.960 . S
C740 H732 0.929 . S
C740 C741 1.377 . S
C740 C742 1.384 . S
C741 C740 1.377 . S
C741 C747 1.390 . S
C742 H733 0.930 . S
C742 C740 1.384 . S
C742 C743 1.372 . S
C743 C742 1.372 . S
C743 C744 1.400 . S
C743 C748 1.490 . S
C744 H734 0.930 . S
C744 C743 1.400 . S
C744 C747 1.386 . S
H745 C761 0.930 . S
H746 C762 0.931 . S
C747 H735 0.929 . S
C747 C741 1.390 . S
C747 C744 1.386 . S
C748 C743 1.490 . S
C748 C750 1.395 . S
C748 C751 1.403 . S
H749 C755 0.930 . S
C750 H736 0.930 . S
C750 C748 1.395 . S
C750 C753 1.403 1_455 S
C751 C748 1.403 . S
C751 C752 1.524 . S
C751 C755 1.400 1_455 S
C752 H737 0.960 . S
C752 H738 0.960 . S
C752 H739 0.960 . S
C752 C751 1.524 . S
C753 C750 1.403 1_655 S
C753 C754 1.392 . S
C753 C757 1.495 . S
C754 C753 1.392 . S
C754 C755 1.385 . S
C754 C756 1.478 . S
C755 H749 0.930 . S
C755 C751 1.400 1_655 S
C755 C754 1.385 . S
C756 C754 1.478 . S
C756 C758 1.381 . S
C756 C762 1.383 . S
C757 C753 1.495 . S
C757 H763 0.959 . S
C757 H764 0.961 . S
C757 H765 0.960 . S
C758 C756 1.381 . S
C758 C759 1.394 . S
C758 H766 0.930 . S
C759 C758 1.394 . S
C759 C760 1.383 . S
C759 H767 0.929 . S
C760 C759 1.383 . S
C760 C761 1.377 . S
C761 H745 0.930 . S
C761 C760 1.377 . S
C761 C762 1.379 . S
C762 H746 0.931 . S
C762 C756 1.383 . S
C762 C761 1.379 . S
H763 C757 0.959 . S
H764 C757 0.961 . S
H765 C757 0.960 . S
H766 C758 0.930 . S
H767 C759 0.929 . S
H768 C776 0.929 . S
H769 C778 0.930 . S
H770 C780 0.930 . S
H771 C783 0.929 . S
H772 C786 0.930 . S
H773 C788 0.960 . S
H774 C788 0.960 . S
H775 C788 0.960 . S
C776 H768 0.929 . S
C776 C777 1.377 . S
C776 C778 1.384 . S
C777 C776 1.377 . S
C777 C783 1.390 . S
C778 H769 0.930 . S
C778 C776 1.384 . S
C778 C779 1.372 . S
C779 C778 1.372 . S
C779 C780 1.400 . S
C779 C784 1.490 . S
C780 H770 0.930 . S
C780 C779 1.400 . S
C780 C783 1.386 . S
H781 C797 0.930 . S
H782 C798 0.931 . S
C783 H771 0.929 . S
C783 C777 1.390 . S
C783 C780 1.386 . S
C784 C779 1.490 . S
C784 C786 1.395 . S
C784 C787 1.403 . S
H785 C791 0.930 . S
C786 H772 0.930 . S
C786 C784 1.395 . S
C786 C789 1.403 . S
C787 C784 1.403 . S
C787 C788 1.524 . S
C787 C791 1.400 . S
C788 H773 0.960 . S
C788 H774 0.960 . S
C788 H775 0.960 . S
C788 C787 1.524 . S
C789 C786 1.403 . S
C789 C790 1.392 . S
C789 C793 1.495 . S
C790 C789 1.392 . S
C790 C791 1.385 . S
C790 C792 1.478 . S
C791 H785 0.930 . S
C791 C787 1.400 . S
C791 C790 1.385 . S
C792 C790 1.478 . S
C792 C794 1.381 . S
C792 C798 1.383 . S
C793 C789 1.495 . S
C793 H799 0.959 . S
C793 H800 0.961 . S
C793 H801 0.960 . S
C794 C792 1.381 . S
C794 C795 1.394 . S
C794 H802 0.930 . S
C795 C794 1.394 . S
C795 C796 1.383 . S
C795 H803 0.929 . S
C796 C795 1.383 . S
C796 C797 1.377 . S
C797 H781 0.930 . S
C797 C796 1.377 . S
C797 C798 1.379 . S
C798 H782 0.931 . S
C798 C792 1.383 . S
C798 C797 1.379 . S
H799 C793 0.959 . S
H800 C793 0.961 . S
H801 C793 0.960 . S
H802 C794 0.930 . S
H803 C795 0.929 . S
H804 C812 0.929 . S
H805 C814 0.930 . S
H806 C816 0.930 . S
H807 C819 0.929 . S
H808 C822 0.930 . S
H809 C824 0.960 . S
H810 C824 0.960 . S
H811 C824 0.960 . S
C812 H804 0.929 . S
C812 C813 1.377 . S
C812 C814 1.384 . S
C813 C812 1.377 . S
C813 C819 1.390 . S
C814 H805 0.930 . S
C814 C812 1.384 . S
C814 C815 1.372 . S
C815 C814 1.372 . S
C815 C816 1.400 . S
C815 C820 1.490 . S
C816 H806 0.930 . S
C816 C815 1.400 . S
C816 C819 1.386 . S
H817 C833 0.930 . S
H818 C834 0.931 . S
C819 H807 0.929 . S
C819 C813 1.390 . S
C819 C816 1.386 . S
C820 C815 1.490 . S
C820 C822 1.395 . S
C820 C823 1.403 . S
H821 C827 0.930 . S
C822 H808 0.930 . S
C822 C820 1.395 . S
C822 C825 1.403 . S
C823 C820 1.403 . S
C823 C824 1.524 . S
C823 C827 1.400 . S
C824 H809 0.960 . S
C824 H810 0.960 . S
C824 H811 0.960 . S
C824 C823 1.524 . S
C825 C822 1.403 . S
C825 C826 1.392 . S
C825 C829 1.495 . S
C826 C825 1.392 . S
C826 C827 1.385 . S
C826 C828 1.478 . S
C827 H821 0.930 . S
C827 C823 1.400 . S
C827 C826 1.385 . S
C828 C826 1.478 . S
C828 C830 1.381 . S
C828 C834 1.383 . S
C829 C825 1.495 . S
C829 H835 0.959 . S
C829 H836 0.961 . S
C829 H837 0.960 . S
C830 C828 1.381 . S
C830 C831 1.394 . S
C830 H838 0.930 . S
C831 C830 1.394 . S
C831 C832 1.383 . S
C831 H839 0.929 . S
C832 C831 1.383 . S
C832 C833 1.377 . S
C833 H817 0.930 . S
C833 C832 1.377 . S
C833 C834 1.379 . S
C834 H818 0.931 . S
C834 C828 1.383 . S
C834 C833 1.379 . S
H835 C829 0.959 . S
H836 C829 0.961 . S
H837 C829 0.960 . S
H838 C830 0.930 . S
H839 C831 0.929 . S
H840 C848 0.929 . S
H841 C850 0.930 . S
H842 C852 0.930 . S
H843 C855 0.929 . S
H844 C858 0.930 . S
H845 C860 0.960 . S
H846 C860 0.960 . S
H847 C860 0.960 . S
C848 H840 0.929 . S
C848 C849 1.377 . S
C848 C850 1.384 . S
C849 C848 1.377 . S
C849 C855 1.390 . S
C850 H841 0.930 . S
C850 C848 1.384 . S
C850 C851 1.372 . S
C851 C850 1.372 . S
C851 C852 1.400 . S
C851 C856 1.490 . S
C852 H842 0.930 . S
C852 C851 1.400 . S
C852 C855 1.386 . S
H853 C869 0.930 . S
H854 C870 0.931 . S
C855 H843 0.929 . S
C855 C849 1.390 . S
C855 C852 1.386 . S
C856 C851 1.490 . S
C856 C858 1.395 . S
C856 C859 1.403 . S
H857 C863 0.930 . S
C858 H844 0.930 . S
C858 C856 1.395 . S
C858 C861 1.403 . S
C859 C856 1.403 . S
C859 C860 1.524 . S
C859 C863 1.400 . S
C860 H845 0.960 . S
C860 H846 0.960 . S
C860 H847 0.960 . S
C860 C859 1.524 . S
C861 C858 1.403 . S
C861 C862 1.392 . S
C861 C865 1.495 . S
C862 C861 1.392 . S
C862 C863 1.385 . S
C862 C864 1.478 . S
C863 H857 0.930 . S
C863 C859 1.400 . S
C863 C862 1.385 . S
C864 C862 1.478 . S
C864 C866 1.381 . S
C864 C870 1.383 . S
C865 C861 1.495 . S
C865 H871 0.959 . S
C865 H872 0.961 . S
C865 H873 0.960 . S
C866 C864 1.381 . S
C866 C867 1.394 . S
C866 H874 0.930 . S
C867 C866 1.394 . S
C867 C868 1.383 . S
C867 H875 0.929 . S
C868 C867 1.383 . S
C868 C869 1.377 . S
C869 H853 0.930 . S
C869 C868 1.377 . S
C869 C870 1.379 . S
C870 H854 0.931 . S
C870 C864 1.383 . S
C870 C869 1.379 . S
H871 C865 0.959 . S
H872 C865 0.961 . S
H873 C865 0.960 . S
H874 C866 0.930 . S
H875 C867 0.929 . S
H876 C884 0.929 . S
H877 C886 0.930 . S
H878 C888 0.930 . S
H879 C891 0.929 . S
H880 C894 0.930 . S
H881 C896 0.960 . S
H882 C896 0.960 . S
H883 C896 0.960 . S
C884 H876 0.929 . S
C884 C885 1.377 . S
C884 C886 1.384 . S
C885 C884 1.377 . S
C885 C891 1.390 . S
C886 H877 0.930 . S
C886 C884 1.384 . S
C886 C887 1.372 . S
C887 C886 1.372 . S
C887 C888 1.400 . S
C887 C892 1.490 . S
C888 H878 0.930 . S
C888 C887 1.400 . S
C888 C891 1.386 . S
H889 C905 0.930 . S
H890 C906 0.931 . S
C891 H879 0.929 . S
C891 C885 1.390 . S
C891 C888 1.386 . S
C892 C887 1.490 . S
C892 C894 1.395 . S
C892 C895 1.403 . S
H893 C899 0.930 . S
C894 H880 0.930 . S
C894 C892 1.395 . S
C894 C897 1.403 . S
C895 C892 1.403 . S
C895 C896 1.524 . S
C895 C899 1.400 . S
C896 H881 0.960 . S
C896 H882 0.960 . S
C896 H883 0.960 . S
C896 C895 1.524 . S
C897 C894 1.403 . S
C897 C898 1.392 . S
C897 C901 1.495 . S
C898 C897 1.392 . S
C898 C899 1.385 . S
C898 C900 1.478 . S
C899 H893 0.930 . S
C899 C895 1.400 . S
C899 C898 1.385 . S
C900 C898 1.478 . S
C900 C902 1.381 . S
C900 C906 1.383 . S
C901 C897 1.495 . S
C901 H907 0.959 . S
C901 H908 0.961 . S
C901 H909 0.960 . S
C902 C900 1.381 . S
C902 C903 1.394 . S
C902 H910 0.930 . S
C903 C902 1.394 . S
C903 C904 1.383 . S
C903 H911 0.929 . S
C904 C903 1.383 . S
C904 C905 1.377 . S
C905 H889 0.930 . S
C905 C904 1.377 . S
C905 C906 1.379 . S
C906 H890 0.931 . S
C906 C900 1.383 . S
C906 C905 1.379 . S
H907 C901 0.959 . S
H908 C901 0.961 . S
H909 C901 0.960 . S
H910 C902 0.930 . S
H911 C903 0.929 . S
H912 C920 0.929 . S
H913 C922 0.930 . S
H914 C924 0.930 . S
H915 C927 0.929 . S
H916 C930 0.930 . S
H917 C932 0.960 . S
H918 C932 0.960 . S
H919 C932 0.960 . S
C920 H912 0.929 . S
C920 C921 1.377 . S
C920 C922 1.384 . S
C921 C920 1.377 . S
C921 C927 1.390 . S
C922 H913 0.930 . S
C922 C920 1.384 . S
C922 C923 1.372 . S
C923 C922 1.372 . S
C923 C924 1.400 . S
C923 C928 1.490 . S
C924 H914 0.930 . S
C924 C923 1.400 . S
C924 C927 1.386 . S
H925 C941 0.930 . S
H926 C942 0.931 . S
C927 H915 0.929 . S
C927 C921 1.390 . S
C927 C924 1.386 . S
C928 C923 1.490 . S
C928 C930 1.395 . S
C928 C931 1.403 . S
H929 C935 0.930 . S
C930 H916 0.930 . S
C930 C928 1.395 . S
C930 C933 1.403 . S
C931 C928 1.403 . S
C931 C932 1.524 . S
C931 C935 1.400 . S
C932 H917 0.960 . S
C932 H918 0.960 . S
C932 H919 0.960 . S
C932 C931 1.524 . S
C933 C930 1.403 . S
C933 C934 1.392 . S
C933 C937 1.495 . S
C934 C933 1.392 . S
C934 C935 1.385 . S
C934 C936 1.478 . S
C935 H929 0.930 . S
C935 C931 1.400 . S
C935 C934 1.385 . S
C936 C934 1.478 . S
C936 C938 1.381 . S
C936 C942 1.383 . S
C937 C933 1.495 . S
C937 H943 0.959 . S
C937 H944 0.961 . S
C937 H945 0.960 . S
C938 C936 1.381 . S
C938 C939 1.394 . S
C938 H946 0.930 . S
C939 C938 1.394 . S
C939 C940 1.383 . S
C939 H947 0.929 . S
C940 C939 1.383 . S
C940 C941 1.377 . S
C941 H925 0.930 . S
C941 C940 1.377 . S
C941 C942 1.379 . S
C942 H926 0.931 . S
C942 C936 1.383 . S
C942 C941 1.379 . S
H943 C937 0.959 . S
H944 C937 0.961 . S
H945 C937 0.960 . S
H946 C938 0.930 . S
H947 C939 0.929 . S
H948 C956 0.929 . S
H949 C958 0.930 . S
H950 C960 0.930 . S
H951 C963 0.929 . S
H952 C966 0.930 . S
H953 C968 0.960 . S
H954 C968 0.960 . S
H955 C968 0.960 . S
C956 H948 0.929 . S
C956 C957 1.377 . S
C956 C958 1.384 . S
C957 C956 1.377 . S
C957 C963 1.390 . S
C958 H949 0.930 . S
C958 C956 1.384 . S
C958 C959 1.372 . S
C959 C958 1.372 . S
C959 C960 1.400 . S
C959 C964 1.490 . S
C960 H950 0.930 . S
C960 C959 1.400 . S
C960 C963 1.386 . S
H961 C977 0.930 . S
H962 C978 0.931 . S
C963 H951 0.929 . S
C963 C957 1.390 . S
C963 C960 1.386 . S
C964 C959 1.490 . S
C964 C966 1.395 . S
C964 C967 1.403 . S
H965 C971 0.930 . S
C966 H952 0.930 . S
C966 C964 1.395 . S
C966 C969 1.403 . S
C967 C964 1.403 . S
C967 C968 1.524 . S
C967 C971 1.400 . S
C968 H953 0.960 . S
C968 H954 0.960 . S
C968 H955 0.960 . S
C968 C967 1.524 . S
C969 C966 1.403 . S
C969 C970 1.392 . S
C969 C973 1.495 . S
C970 C969 1.392 . S
C970 C971 1.385 . S
C970 C972 1.478 . S
C971 H965 0.930 . S
C971 C967 1.400 . S
C971 C970 1.385 . S
C972 C970 1.478 . S
C972 C974 1.381 . S
C972 C978 1.383 . S
C973 C969 1.495 . S
C973 H979 0.959 . S
C973 H980 0.961 . S
C973 H981 0.960 . S
C974 C972 1.381 . S
C974 C975 1.394 . S
C974 H982 0.930 . S
C975 C974 1.394 . S
C975 C976 1.383 . S
C975 H983 0.929 . S
C976 C975 1.383 . S
C976 C977 1.377 . S
C977 H961 0.930 . S
C977 C976 1.377 . S
C977 C978 1.379 . S
C978 H962 0.931 . S
C978 C972 1.383 . S
C978 C977 1.379 . S
H979 C973 0.959 . S
H980 C973 0.961 . S
H981 C973 0.960 . S
H982 C974 0.930 . S
H983 C975 0.929 . S
H984 C992 0.929 . S
H985 C994 0.930 . S
H986 C996 0.930 . S
H987 C999 0.929 . S
H988 C1002 0.930 . S
H989 C1004 0.960 . S
H990 C1004 0.960 . S
H991 C1004 0.960 . S
C992 H984 0.929 . S
C992 C993 1.377 . S
C992 C994 1.384 . S
C993 C992 1.377 . S
C993 C999 1.390 . S
C994 H985 0.930 . S
C994 C992 1.384 . S
C994 C995 1.372 . S
C995 C994 1.372 . S
C995 C996 1.400 . S
C995 C1000 1.490 . S
C996 H986 0.930 . S
C996 C995 1.400 . S
C996 C999 1.386 . S
H997 C1013 0.930 . S
H998 C1014 0.931 . S
C999 H987 0.929 . S
C999 C993 1.390 . S
C999 C996 1.386 . S
C1000 C995 1.490 . S
C1000 C1002 1.395 . S
C1000 C1003 1.403 . S
H1001 C1007 0.930 . S
C1002 H988 0.930 . S
C1002 C1000 1.395 . S
C1002 C1005 1.403 . S
C1003 C1000 1.403 . S
C1003 C1004 1.524 . S
C1003 C1007 1.400 . S
C1004 H989 0.960 . S
C1004 H990 0.960 . S
C1004 H991 0.960 . S
C1004 C1003 1.524 . S
C1005 C1002 1.403 . S
C1005 C1006 1.392 . S
C1005 C1009 1.495 . S
C1006 C1005 1.392 . S
C1006 C1007 1.385 . S
C1006 C1008 1.478 . S
C1007 H1001 0.930 . S
C1007 C1003 1.400 . S
C1007 C1006 1.385 . S
C1008 C1006 1.478 . S
C1008 C1010 1.381 . S
C1008 C1014 1.383 . S
C1009 C1005 1.495 . S
C1009 H1015 0.959 . S
C1009 H1016 0.961 . S
C1009 H1017 0.960 . S
C1010 C1008 1.381 . S
C1010 C1011 1.394 . S
C1010 H1018 0.930 . S
C1011 C1010 1.394 . S
C1011 C1012 1.383 . S
C1011 H1019 0.929 . S
C1012 C1011 1.383 . S
C1012 C1013 1.377 . S
C1013 H997 0.930 . S
C1013 C1012 1.377 . S
C1013 C1014 1.379 . S
C1014 H998 0.931 . S
C1014 C1008 1.383 . S
C1014 C1013 1.379 . S
H1015 C1009 0.959 . S
H1016 C1009 0.961 . S
H1017 C1009 0.960 . S
H1018 C1010 0.930 . S
H1019 C1011 0.929 . S
H1020 C1028 0.929 . S
H1021 C1030 0.930 . S
H1022 C1032 0.930 . S
H1023 C1035 0.929 . S
H1024 C1038 0.930 . S
H1025 C1040 0.960 . S
H1026 C1040 0.960 . S
H1027 C1040 0.960 . S
C1028 H1020 0.929 . S
C1028 C1029 1.377 . S
C1028 C1030 1.384 . S
C1029 C1028 1.377 . S
C1029 C1035 1.390 . S
C1030 H1021 0.930 . S
C1030 C1028 1.384 . S
C1030 C1031 1.372 . S
C1031 C1030 1.372 . S
C1031 C1032 1.400 . S
C1031 C1036 1.490 . S
C1032 H1022 0.930 . S
C1032 C1031 1.400 . S
C1032 C1035 1.386 . S
H1033 C1049 0.930 . S
H1034 C1050 0.931 . S
C1035 H1023 0.929 . S
C1035 C1029 1.390 . S
C1035 C1032 1.386 . S
C1036 C1031 1.490 . S
C1036 C1038 1.395 . S
C1036 C1039 1.403 . S
H1037 C1043 0.930 . S
C1038 H1024 0.930 . S
C1038 C1036 1.395 . S
C1038 C1041 1.403 . S
C1039 C1036 1.403 . S
C1039 C1040 1.524 . S
C1039 C1043 1.400 . S
C1040 H1025 0.960 . S
C1040 H1026 0.960 . S
C1040 H1027 0.960 . S
C1040 C1039 1.524 . S
C1041 C1038 1.403 . S
C1041 C1042 1.392 . S
C1041 C1045 1.495 . S
C1042 C1041 1.392 . S
C1042 C1043 1.385 . S
C1042 C1044 1.478 . S
C1043 H1037 0.930 . S
C1043 C1039 1.400 . S
C1043 C1042 1.385 . S
C1044 C1042 1.478 . S
C1044 C1046 1.381 . S
C1044 C1050 1.383 . S
C1045 C1041 1.495 . S
C1045 H1051 0.959 . S
C1045 H1052 0.961 . S
C1045 H1053 0.960 . S
C1046 C1044 1.381 . S
C1046 C1047 1.394 . S
C1046 H1054 0.930 . S
C1047 C1046 1.394 . S
C1047 C1048 1.383 . S
C1047 H1055 0.929 . S
C1048 C1047 1.383 . S
C1048 C1049 1.377 . S
C1049 H1033 0.930 . S
C1049 C1048 1.377 . S
C1049 C1050 1.379 . S
C1050 H1034 0.931 . S
C1050 C1044 1.383 . S
C1050 C1049 1.379 . S
H1051 C1045 0.959 . S
H1052 C1045 0.961 . S
H1053 C1045 0.960 . S
H1054 C1046 0.930 . S
H1055 C1047 0.929 . S
H1056 C1064 0.929 . S
H1057 C1066 0.930 . S
H1058 C1068 0.930 . S
H1059 C1071 0.929 . S
H1060 C1074 0.930 . S
H1061 C1076 0.960 . S
H1062 C1076 0.960 . S
H1063 C1076 0.960 . S
C1064 H1056 0.929 . S
C1064 C1065 1.377 . S
C1064 C1066 1.384 . S
C1065 C1064 1.377 . S
C1065 C1071 1.390 . S
C1066 H1057 0.930 . S
C1066 C1064 1.384 . S
C1066 C1067 1.372 . S
C1067 C1066 1.372 . S
C1067 C1068 1.400 . S
C1067 C1072 1.490 . S
C1068 H1058 0.930 . S
C1068 C1067 1.400 . S
C1068 C1071 1.386 . S
H1069 C1085 0.930 . S
H1070 C1086 0.931 . S
C1071 H1059 0.929 . S
C1071 C1065 1.390 . S
C1071 C1068 1.386 . S
C1072 C1067 1.490 . S
C1072 C1074 1.395 . S
C1072 C1075 1.403 . S
H1073 C1079 0.930 . S
C1074 H1060 0.930 . S
C1074 C1072 1.395 . S
C1074 C1077 1.403 . S
C1075 C1072 1.403 . S
C1075 C1076 1.524 . S
C1075 C1079 1.400 . S
C1076 H1061 0.960 . S
C1076 H1062 0.960 . S
C1076 H1063 0.960 . S
C1076 C1075 1.524 . S
C1077 C1074 1.403 . S
C1077 C1078 1.392 . S
C1077 C1081 1.495 . S
C1078 C1077 1.392 . S
C1078 C1079 1.385 . S
C1078 C1080 1.478 . S
C1079 H1073 0.930 . S
C1079 C1075 1.400 . S
C1079 C1078 1.385 . S
C1080 C1078 1.478 . S
C1080 C1082 1.381 . S
C1080 C1086 1.383 . S
C1081 C1077 1.495 . S
C1081 H1087 0.959 . S
C1081 H1088 0.961 . S
C1081 H1089 0.960 . S
C1082 C1080 1.381 . S
C1082 C1083 1.394 . S
C1082 H1090 0.930 . S
C1083 C1082 1.394 . S
C1083 C1084 1.383 . S
C1083 H1091 0.929 . S
C1084 C1083 1.383 . S
C1084 C1085 1.377 . S
C1085 H1069 0.930 . S
C1085 C1084 1.377 . S
C1085 C1086 1.379 . S
C1086 H1070 0.931 . S
C1086 C1080 1.383 . S
C1086 C1085 1.379 . S
H1087 C1081 0.959 . S
H1088 C1081 0.961 . S
H1089 C1081 0.960 . S
H1090 C1082 0.930 . S
H1091 C1083 0.929 . S
H1092 C1100 0.929 . S
H1093 C1102 0.930 . S
H1094 C1104 0.930 . S
H1095 C1107 0.929 . S
H1096 C1110 0.930 . S
H1097 C1112 0.960 . S
H1098 C1112 0.960 . S
H1099 C1112 0.960 . S
C1100 H1092 0.929 . S
C1100 C1101 1.377 . S
C1100 C1102 1.384 . S
C1101 C1100 1.377 . S
C1101 C1107 1.390 . S
C1102 H1093 0.930 . S
C1102 C1100 1.384 . S
C1102 C1103 1.372 . S
C1103 C1102 1.372 . S
C1103 C1104 1.400 . S
C1103 C1108 1.490 . S
C1104 H1094 0.930 . S
C1104 C1103 1.400 . S
C1104 C1107 1.386 . S
H1105 C1121 0.930 . S
H1106 C1122 0.931 . S
C1107 H1095 0.929 . S
C1107 C1101 1.390 . S
C1107 C1104 1.386 . S
C1108 C1103 1.490 . S
C1108 C1110 1.395 . S
C1108 C1111 1.403 . S
H1109 C1115 0.930 . S
C1110 H1096 0.930 . S
C1110 C1108 1.395 . S
C1110 C1113 1.403 . S
C1111 C1108 1.403 . S
C1111 C1112 1.524 . S
C1111 C1115 1.400 . S
C1112 H1097 0.960 . S
C1112 H1098 0.960 . S
C1112 H1099 0.960 . S
C1112 C1111 1.524 . S
C1113 C1110 1.403 . S
C1113 C1114 1.392 . S
C1113 C1117 1.495 . S
C1114 C1113 1.392 . S
C1114 C1115 1.385 . S
C1114 C1116 1.478 . S
C1115 H1109 0.930 . S
C1115 C1111 1.400 . S
C1115 C1114 1.385 . S
C1116 C1114 1.478 . S
C1116 C1118 1.381 . S
C1116 C1122 1.383 . S
C1117 C1113 1.495 . S
C1117 H1123 0.959 . S
C1117 H1124 0.961 . S
C1117 H1125 0.960 . S
C1118 C1116 1.381 . S
C1118 C1119 1.394 . S
C1118 H1126 0.930 . S
C1119 C1118 1.394 . S
C1119 C1120 1.383 . S
C1119 H1127 0.929 . S
C1120 C1119 1.383 . S
C1120 C1121 1.377 . S
C1121 H1105 0.930 . S
C1121 C1120 1.377 . S
C1121 C1122 1.379 . S
C1122 H1106 0.931 . S
C1122 C1116 1.383 . S
C1122 C1121 1.379 . S
H1123 C1117 0.959 . S
H1124 C1117 0.961 . S
H1125 C1117 0.960 . S
H1126 C1118 0.930 . S
H1127 C1119 0.929 . S
H1128 C1136 0.929 . S
H1129 C1138 0.930 . S
H1130 C1140 0.930 . S
H1131 C1143 0.929 . S
H1132 C1146 0.930 . S
H1133 C1148 0.960 . S
H1134 C1148 0.960 . S
H1135 C1148 0.960 . S
C1136 H1128 0.929 . S
C1136 C1137 1.377 . S
C1136 C1138 1.384 . S
C1137 C1136 1.377 . S
C1137 C1143 1.390 . S
C1138 H1129 0.930 . S
C1138 C1136 1.384 . S
C1138 C1139 1.372 . S
C1139 C1138 1.372 . S
C1139 C1140 1.400 . S
C1139 C1144 1.490 . S
C1140 H1130 0.930 . S
C1140 C1139 1.400 . S
C1140 C1143 1.386 . S
H1141 C1157 0.930 . S
H1142 C1158 0.931 . S
C1143 H1131 0.929 . S
C1143 C1137 1.390 . S
C1143 C1140 1.386 . S
C1144 C1139 1.490 . S
C1144 C1146 1.395 . S
C1144 C1147 1.403 . S
H1145 C1151 0.930 . S
C1146 H1132 0.930 . S
C1146 C1144 1.395 . S
C1146 C1149 1.403 . S
C1147 C1144 1.403 . S
C1147 C1148 1.524 . S
C1147 C1151 1.400 . S
C1148 H1133 0.960 . S
C1148 H1134 0.960 . S
C1148 H1135 0.960 . S
C1148 C1147 1.524 . S
C1149 C1146 1.403 . S
C1149 C1150 1.392 . S
C1149 C1153 1.495 . S
C1150 C1149 1.392 . S
C1150 C1151 1.385 . S
C1150 C1152 1.478 . S
C1151 H1145 0.930 . S
C1151 C1147 1.400 . S
C1151 C1150 1.385 . S
C1152 C1150 1.478 . S
C1152 C1154 1.381 . S
C1152 C1158 1.383 . S
C1153 C1149 1.495 . S
C1153 H1159 0.959 . S
C1153 H1160 0.961 . S
C1153 H1161 0.960 . S
C1154 C1152 1.381 . S
C1154 C1155 1.394 . S
C1154 H1162 0.930 . S
C1155 C1154 1.394 . S
C1155 C1156 1.383 . S
C1155 H1163 0.929 . S
C1156 C1155 1.383 . S
C1156 C1157 1.377 . S
C1157 H1141 0.930 . S
C1157 C1156 1.377 . S
C1157 C1158 1.379 . S
C1158 H1142 0.931 . S
C1158 C1152 1.383 . S
C1158 C1157 1.379 . S
H1159 C1153 0.959 . S
H1160 C1153 0.961 . S
H1161 C1153 0.960 . S
H1162 C1154 0.930 . S
H1163 C1155 0.929 . S
H1164 C1172 0.929 . S
H1165 C1174 0.930 . S
H1166 C1176 0.930 . S
H1167 C1179 0.929 . S
H1168 C1182 0.930 . S
H1169 C1184 0.960 . S
H1170 C1184 0.960 . S
H1171 C1184 0.960 . S
C1172 H1164 0.929 . S
C1172 C1173 1.377 . S
C1172 C1174 1.384 . S
C1173 C1172 1.377 . S
C1173 C1179 1.390 . S
C1174 H1165 0.930 . S
C1174 C1172 1.384 . S
C1174 C1175 1.372 . S
C1175 C1174 1.372 . S
C1175 C1176 1.400 . S
C1175 C1180 1.490 . S
C1176 H1166 0.930 . S
C1176 C1175 1.400 . S
C1176 C1179 1.386 . S
H1177 C1193 0.930 . S
H1178 C1194 0.931 . S
C1179 H1167 0.929 . S
C1179 C1173 1.390 . S
C1179 C1176 1.386 . S
C1180 C1175 1.490 . S
C1180 C1182 1.395 . S
C1180 C1183 1.403 . S
H1181 C1187 0.930 . S
C1182 H1168 0.930 . S
C1182 C1180 1.395 . S
C1182 C1185 1.403 . S
C1183 C1180 1.403 . S
C1183 C1184 1.524 . S
C1183 C1187 1.400 . S
C1184 H1169 0.960 . S
C1184 H1170 0.960 . S
C1184 H1171 0.960 . S
C1184 C1183 1.524 . S
C1185 C1182 1.403 . S
C1185 C1186 1.392 . S
C1185 C1189 1.495 . S
C1186 C1185 1.392 . S
C1186 C1187 1.385 . S
C1186 C1188 1.478 . S
C1187 H1181 0.930 . S
C1187 C1183 1.400 . S
C1187 C1186 1.385 . S
C1188 C1186 1.478 . S
C1188 C1190 1.381 . S
C1188 C1194 1.383 . S
C1189 C1185 1.495 . S
C1189 H1195 0.959 . S
C1189 H1196 0.961 . S
C1189 H1197 0.960 . S
C1190 C1188 1.381 . S
C1190 C1191 1.394 . S
C1190 H1198 0.930 . S
C1191 C1190 1.394 . S
C1191 C1192 1.383 . S
C1191 H1199 0.929 . S
C1192 C1191 1.383 . S
C1192 C1193 1.377 . S
C1193 H1177 0.930 . S
C1193 C1192 1.377 . S
C1193 C1194 1.379 . S
C1194 H1178 0.931 . S
C1194 C1188 1.383 . S
C1194 C1193 1.379 . S
H1195 C1189 0.959 . S
H1196 C1189 0.961 . S
H1197 C1189 0.960 . S
H1198 C1190 0.930 . S
H1199 C1191 0.929 . S
H1200 C1208 0.929 . S
H1201 C1210 0.930 . S
H1202 C1212 0.930 . S
H1203 C1215 0.929 . S
H1204 C1218 0.930 . S
H1205 C1220 0.960 . S
H1206 C1220 0.960 . S
H1207 C1220 0.960 . S
C1208 H1200 0.929 . S
C1208 C1209 1.377 . S
C1208 C1210 1.384 . S
C1209 C1208 1.377 . S
C1209 C1215 1.390 . S
C1210 H1201 0.930 . S
C1210 C1208 1.384 . S
C1210 C1211 1.372 . S
C1211 C1210 1.372 . S
C1211 C1212 1.400 . S
C1211 C1216 1.490 . S
C1212 H1202 0.930 . S
C1212 C1211 1.400 . S
C1212 C1215 1.386 . S
H1213 C1229 0.930 . S
H1214 C1230 0.931 . S
C1215 H1203 0.929 . S
C1215 C1209 1.390 . S
C1215 C1212 1.386 . S
C1216 C1211 1.490 . S
C1216 C1218 1.395 . S
C1216 C1219 1.403 . S
H1217 C1223 0.930 . S
C1218 H1204 0.930 . S
C1218 C1216 1.395 . S
C1218 C1221 1.403 1_554 S
C1219 C1216 1.403 . S
C1219 C1220 1.524 . S
C1219 C1223 1.400 1_554 S
C1220 H1205 0.960 . S
C1220 H1206 0.960 . S
C1220 H1207 0.960 . S
C1220 C1219 1.524 . S
C1221 C1218 1.403 1_556 S
C1221 C1222 1.392 . S
C1221 C1225 1.495 . S
C1222 C1221 1.392 . S
C1222 C1223 1.385 . S
C1222 C1224 1.478 . S
C1223 H1217 0.930 . S
C1223 C1219 1.400 1_556 S
C1223 C1222 1.385 . S
C1224 C1222 1.478 . S
C1224 C1226 1.381 . S
C1224 C1230 1.383 . S
C1225 C1221 1.495 . S
C1225 H1231 0.959 . S
C1225 H1232 0.961 . S
C1225 H1233 0.960 . S
C1226 C1224 1.381 . S
C1226 C1227 1.394 . S
C1226 H1234 0.930 . S
C1227 C1226 1.394 . S
C1227 C1228 1.383 . S
C1227 H1235 0.929 . S
C1228 C1227 1.383 . S
C1228 C1229 1.377 . S
C1229 H1213 0.930 . S
C1229 C1228 1.377 . S
C1229 C1230 1.379 . S
C1230 H1214 0.931 . S
C1230 C1224 1.383 . S
C1230 C1229 1.379 . S
H1231 C1225 0.959 . S
H1232 C1225 0.961 . S
H1233 C1225 0.960 . S
H1234 C1226 0.930 . S
H1235 C1227 0.929 . S
H1236 C1244 0.929 . S
H1237 C1246 0.930 . S
H1238 C1248 0.930 . S
H1239 C1251 0.929 . S
H1240 C1254 0.930 . S
H1241 C1256 0.960 . S
H1242 C1256 0.960 . S
H1243 C1256 0.960 . S
C1244 H1236 0.929 . S
C1244 C1245 1.377 . S
C1244 C1246 1.384 . S
C1245 C1244 1.377 . S
C1245 C1251 1.390 . S
C1246 H1237 0.930 . S
C1246 C1244 1.384 . S
C1246 C1247 1.372 . S
C1247 C1246 1.372 . S
C1247 C1248 1.400 . S
C1247 C1252 1.490 . S
C1248 H1238 0.930 . S
C1248 C1247 1.400 . S
C1248 C1251 1.386 . S
H1249 C1265 0.930 . S
H1250 C1266 0.931 . S
C1251 H1239 0.929 . S
C1251 C1245 1.390 . S
C1251 C1248 1.386 . S
C1252 C1247 1.490 . S
C1252 C1254 1.395 . S
C1252 C1255 1.403 . S
H1253 C1259 0.930 . S
C1254 H1240 0.930 . S
C1254 C1252 1.395 . S
C1254 C1257 1.403 1_556 S
C1255 C1252 1.403 . S
C1255 C1256 1.524 . S
C1255 C1259 1.400 1_556 S
C1256 H1241 0.960 . S
C1256 H1242 0.960 . S
C1256 H1243 0.960 . S
C1256 C1255 1.524 . S
C1257 C1254 1.403 1_554 S
C1257 C1258 1.392 . S
C1257 C1261 1.495 . S
C1258 C1257 1.392 . S
C1258 C1259 1.385 . S
C1258 C1260 1.478 . S
C1259 H1253 0.930 . S
C1259 C1255 1.400 1_554 S
C1259 C1258 1.385 . S
C1260 C1258 1.478 . S
C1260 C1262 1.381 . S
C1260 C1266 1.383 . S
C1261 C1257 1.495 . S
C1261 H1267 0.959 . S
C1261 H1268 0.961 . S
C1261 H1269 0.960 . S
C1262 C1260 1.381 . S
C1262 C1263 1.394 . S
C1262 H1270 0.930 . S
C1263 C1262 1.394 . S
C1263 C1264 1.383 . S
C1263 H1271 0.929 . S
C1264 C1263 1.383 . S
C1264 C1265 1.377 . S
C1265 H1249 0.930 . S
C1265 C1264 1.377 . S
C1265 C1266 1.379 . S
C1266 H1250 0.931 . S
C1266 C1260 1.383 . S
C1266 C1265 1.379 . S
H1267 C1261 0.959 . S
H1268 C1261 0.961 . S
H1269 C1261 0.960 . S
H1270 C1262 0.930 . S
H1271 C1263 0.929 . S
H1272 C1280 0.929 . S
H1273 C1282 0.930 . S
H1274 C1284 0.930 . S
H1275 C1287 0.929 . S
H1276 C1290 0.930 . S
H1277 C1292 0.960 . S
H1278 C1292 0.960 . S
H1279 C1292 0.960 . S
C1280 H1272 0.929 . S
C1280 C1281 1.377 . S
C1280 C1282 1.384 . S
C1281 C1280 1.377 . S
C1281 C1287 1.390 . S
C1282 H1273 0.930 . S
C1282 C1280 1.384 . S
C1282 C1283 1.372 . S
C1283 C1282 1.372 . S
C1283 C1284 1.400 . S
C1283 C1288 1.490 . S
C1284 H1274 0.930 . S
C1284 C1283 1.400 . S
C1284 C1287 1.386 . S
H1285 C1301 0.930 . S
H1286 C1302 0.931 . S
C1287 H1275 0.929 . S
C1287 C1281 1.390 . S
C1287 C1284 1.386 . S
C1288 C1283 1.490 . S
C1288 C1290 1.395 . S
C1288 C1291 1.403 . S
H1289 C1295 0.930 . S
C1290 H1276 0.930 . S
C1290 C1288 1.395 . S
C1290 C1293 1.403 1_556 S
C1291 C1288 1.403 . S
C1291 C1292 1.524 . S
C1291 C1295 1.400 1_556 S
C1292 H1277 0.960 . S
C1292 H1278 0.960 . S
C1292 H1279 0.960 . S
C1292 C1291 1.524 . S
C1293 C1290 1.403 1_554 S
C1293 C1294 1.392 . S
C1293 C1297 1.495 . S
C1294 C1293 1.392 . S
C1294 C1295 1.385 . S
C1294 C1296 1.478 . S
C1295 H1289 0.930 . S
C1295 C1291 1.400 1_554 S
C1295 C1294 1.385 . S
C1296 C1294 1.478 . S
C1296 C1298 1.381 . S
C1296 C1302 1.383 . S
C1297 C1293 1.495 . S
C1297 H1303 0.959 . S
C1297 H1304 0.961 . S
C1297 H1305 0.960 . S
C1298 C1296 1.381 . S
C1298 C1299 1.394 . S
C1298 H1306 0.930 . S
C1299 C1298 1.394 . S
C1299 C1300 1.383 . S
C1299 H1307 0.929 . S
C1300 C1299 1.383 . S
C1300 C1301 1.377 . S
C1301 H1285 0.930 . S
C1301 C1300 1.377 . S
C1301 C1302 1.379 . S
C1302 H1286 0.931 . S
C1302 C1296 1.383 . S
C1302 C1301 1.379 . S
H1303 C1297 0.959 . S
H1304 C1297 0.961 . S
H1305 C1297 0.960 . S
H1306 C1298 0.930 . S
H1307 C1299 0.929 . S
H1308 C1316 0.929 . S
H1309 C1318 0.930 . S
H1310 C1320 0.930 . S
H1311 C1323 0.929 . S
H1312 C1326 0.930 . S
H1313 C1328 0.960 . S
H1314 C1328 0.960 . S
H1315 C1328 0.960 . S
C1316 H1308 0.929 . S
C1316 C1317 1.377 . S
C1316 C1318 1.384 . S
C1317 C1316 1.377 . S
C1317 C1323 1.390 . S
C1318 H1309 0.930 . S
C1318 C1316 1.384 . S
C1318 C1319 1.372 . S
C1319 C1318 1.372 . S
C1319 C1320 1.400 . S
C1319 C1324 1.490 . S
C1320 H1310 0.930 . S
C1320 C1319 1.400 . S
C1320 C1323 1.386 . S
H1321 C1337 0.930 . S
H1322 C1338 0.931 . S
C1323 H1311 0.929 . S
C1323 C1317 1.390 . S
C1323 C1320 1.386 . S
C1324 C1319 1.490 . S
C1324 C1326 1.395 . S
C1324 C1327 1.403 . S
H1325 C1331 0.930 . S
C1326 H1312 0.930 . S
C1326 C1324 1.395 . S
C1326 C1329 1.403 1_554 S
C1327 C1324 1.403 . S
C1327 C1328 1.524 . S
C1327 C1331 1.400 1_554 S
C1328 H1313 0.960 . S
C1328 H1314 0.960 . S
C1328 H1315 0.960 . S
C1328 C1327 1.524 . S
C1329 C1326 1.403 1_556 S
C1329 C1330 1.392 . S
C1329 C1333 1.495 . S
C1330 C1329 1.392 . S
C1330 C1331 1.385 . S
C1330 C1332 1.478 . S
C1331 H1325 0.930 . S
C1331 C1327 1.400 1_556 S
C1331 C1330 1.385 . S
C1332 C1330 1.478 . S
C1332 C1334 1.381 . S
C1332 C1338 1.383 . S
C1333 C1329 1.495 . S
C1333 H1339 0.959 . S
C1333 H1340 0.961 . S
C1333 H1341 0.960 . S
C1334 C1332 1.381 . S
C1334 C1335 1.394 . S
C1334 H1342 0.930 . S
C1335 C1334 1.394 . S
C1335 C1336 1.383 . S
C1335 H1343 0.929 . S
C1336 C1335 1.383 . S
C1336 C1337 1.377 . S
C1337 H1321 0.930 . S
C1337 C1336 1.377 . S
C1337 C1338 1.379 . S
C1338 H1322 0.931 . S
C1338 C1332 1.383 . S
C1338 C1337 1.379 . S
H1339 C1333 0.959 . S
H1340 C1333 0.961 . S
H1341 C1333 0.960 . S
H1342 C1334 0.930 . S
H1343 C1335 0.929 . S
H1344 C1352 0.929 . S
H1345 C1354 0.930 . S
H1346 C1356 0.930 . S
H1347 C1359 0.929 . S
H1348 C1362 0.930 . S
H1349 C1364 0.960 . S
H1350 C1364 0.960 . S
H1351 C1364 0.960 . S
C1352 H1344 0.929 . S
C1352 C1353 1.377 . S
C1352 C1354 1.384 . S
C1353 C1352 1.377 . S
C1353 C1359 1.390 . S
C1354 H1345 0.930 . S
C1354 C1352 1.384 . S
C1354 C1355 1.372 . S
C1355 C1354 1.372 . S
C1355 C1356 1.400 . S
C1355 C1360 1.490 . S
C1356 H1346 0.930 . S
C1356 C1355 1.400 . S
C1356 C1359 1.386 . S
H1357 C1373 0.930 . S
H1358 C1374 0.931 . S
C1359 H1347 0.929 . S
C1359 C1353 1.390 . S
C1359 C1356 1.386 . S
C1360 C1355 1.490 . S
C1360 C1362 1.395 . S
C1360 C1363 1.403 . S
H1361 C1367 0.930 . S
C1362 H1348 0.930 . S
C1362 C1360 1.395 . S
C1362 C1365 1.403 1_554 S
C1363 C1360 1.403 . S
C1363 C1364 1.524 . S
C1363 C1367 1.400 1_554 S
C1364 H1349 0.960 . S
C1364 H1350 0.960 . S
C1364 H1351 0.960 . S
C1364 C1363 1.524 . S
C1365 C1362 1.403 1_556 S
C1365 C1366 1.392 . S
C1365 C1369 1.495 . S
C1366 C1365 1.392 . S
C1366 C1367 1.385 . S
C1366 C1368 1.478 . S
C1367 H1361 0.930 . S
C1367 C1363 1.400 1_556 S
C1367 C1366 1.385 . S
C1368 C1366 1.478 . S
C1368 C1370 1.381 . S
C1368 C1374 1.383 . S
C1369 C1365 1.495 . S
C1369 H1375 0.959 . S
C1369 H1376 0.961 . S
C1369 H1377 0.960 . S
C1370 C1368 1.381 . S
C1370 C1371 1.394 . S
C1370 H1378 0.930 . S
C1371 C1370 1.394 . S
C1371 C1372 1.383 . S
C1371 H1379 0.929 . S
C1372 C1371 1.383 . S
C1372 C1373 1.377 . S
C1373 H1357 0.930 . S
C1373 C1372 1.377 . S
C1373 C1374 1.379 . S
C1374 H1358 0.931 . S
C1374 C1368 1.383 . S
C1374 C1373 1.379 . S
H1375 C1369 0.959 . S
H1376 C1369 0.961 . S
H1377 C1369 0.960 . S
H1378 C1370 0.930 . S
H1379 C1371 0.929 . S
H1380 C1388 0.929 . S
H1381 C1390 0.930 . S
H1382 C1392 0.930 . S
H1383 C1395 0.929 . S
H1384 C1398 0.930 . S
H1385 C1400 0.960 . S
H1386 C1400 0.960 . S
H1387 C1400 0.960 . S
C1388 H1380 0.929 . S
C1388 C1389 1.377 . S
C1388 C1390 1.384 . S
C1389 C1388 1.377 . S
C1389 C1395 1.390 . S
C1390 H1381 0.930 . S
C1390 C1388 1.384 . S
C1390 C1391 1.372 . S
C1391 C1390 1.372 . S
C1391 C1392 1.400 . S
C1391 C1396 1.490 . S
C1392 H1382 0.930 . S
C1392 C1391 1.400 . S
C1392 C1395 1.386 . S
H1393 C1409 0.930 . S
H1394 C1410 0.931 . S
C1395 H1383 0.929 . S
C1395 C1389 1.390 . S
C1395 C1392 1.386 . S
C1396 C1391 1.490 . S
C1396 C1398 1.395 . S
C1396 C1399 1.403 . S
H1397 C1403 0.930 . S
C1398 H1384 0.930 . S
C1398 C1396 1.395 . S
C1398 C1401 1.403 1_556 S
C1399 C1396 1.403 . S
C1399 C1400 1.524 . S
C1399 C1403 1.400 1_556 S
C1400 H1385 0.960 . S
C1400 H1386 0.960 . S
C1400 H1387 0.960 . S
C1400 C1399 1.524 . S
C1401 C1398 1.403 1_554 S
C1401 C1402 1.392 . S
C1401 C1405 1.495 . S
C1402 C1401 1.392 . S
C1402 C1403 1.385 . S
C1402 C1404 1.478 . S
C1403 H1397 0.930 . S
C1403 C1399 1.400 1_554 S
C1403 C1402 1.385 . S
C1404 C1402 1.478 . S
C1404 C1406 1.381 . S
C1404 C1410 1.383 . S
C1405 C1401 1.495 . S
C1405 H1411 0.959 . S
C1405 H1412 0.961 . S
C1405 H1413 0.960 . S
C1406 C1404 1.381 . S
C1406 C1407 1.394 . S
C1406 H1414 0.930 . S
C1407 C1406 1.394 . S
C1407 C1408 1.383 . S
C1407 H1415 0.929 . S
C1408 C1407 1.383 . S
C1408 C1409 1.377 . S
C1409 H1393 0.930 . S
C1409 C1408 1.377 . S
C1409 C1410 1.379 . S
C1410 H1394 0.931 . S
C1410 C1404 1.383 . S
C1410 C1409 1.379 . S
H1411 C1405 0.959 . S
H1412 C1405 0.961 . S
H1413 C1405 0.960 . S
H1414 C1406 0.930 . S
H1415 C1407 0.929 . S
H1416 C1424 0.929 . S
H1417 C1426 0.930 . S
H1418 C1428 0.930 . S
H1419 C1431 0.929 . S
H1420 C1434 0.930 . S
H1421 C1436 0.960 . S
H1422 C1436 0.960 . S
H1423 C1436 0.960 . S
C1424 H1416 0.929 . S
C1424 C1425 1.377 . S
C1424 C1426 1.384 . S
C1425 C1424 1.377 . S
C1425 C1431 1.390 . S
C1426 H1417 0.930 . S
C1426 C1424 1.384 . S
C1426 C1427 1.372 . S
C1427 C1426 1.372 . S
C1427 C1428 1.400 . S
C1427 C1432 1.490 . S
C1428 H1418 0.930 . S
C1428 C1427 1.400 . S
C1428 C1431 1.386 . S
H1429 C1445 0.930 . S
H1430 C1446 0.931 . S
C1431 H1419 0.929 . S
C1431 C1425 1.390 . S
C1431 C1428 1.386 . S
C1432 C1427 1.490 . S
C1432 C1434 1.395 . S
C1432 C1435 1.403 . S
H1433 C1439 0.930 . S
C1434 H1420 0.930 . S
C1434 C1432 1.395 . S
C1434 C1437 1.403 . S
C1435 C1432 1.403 . S
C1435 C1436 1.524 . S
C1435 C1439 1.400 . S
C1436 H1421 0.960 . S
C1436 H1422 0.960 . S
C1436 H1423 0.960 . S
C1436 C1435 1.524 . S
C1437 C1434 1.403 . S
C1437 C1438 1.392 . S
C1437 C1441 1.495 . S
C1438 C1437 1.392 . S
C1438 C1439 1.385 . S
C1438 C1440 1.478 . S
C1439 H1433 0.930 . S
C1439 C1435 1.400 . S
C1439 C1438 1.385 . S
C1440 C1438 1.478 . S
C1440 C1442 1.381 . S
C1440 C1446 1.383 . S
C1441 C1437 1.495 . S
C1441 H1447 0.959 . S
C1441 H1448 0.961 . S
C1441 H1449 0.960 . S
C1442 C1440 1.381 . S
C1442 C1443 1.394 . S
C1442 H1450 0.930 . S
C1443 C1442 1.394 . S
C1443 C1444 1.383 . S
C1443 H1451 0.929 . S
C1444 C1443 1.383 . S
C1444 C1445 1.377 . S
C1445 H1429 0.930 . S
C1445 C1444 1.377 . S
C1445 C1446 1.379 . S
C1446 H1430 0.931 . S
C1446 C1440 1.383 . S
C1446 C1445 1.379 . S
H1447 C1441 0.959 . S
H1448 C1441 0.961 . S
H1449 C1441 0.960 . S
H1450 C1442 0.930 . S
H1451 C1443 0.929 . S
H1452 C1460 0.929 . S
H1453 C1462 0.930 . S
H1454 C1464 0.930 . S
H1455 C1467 0.929 . S
H1456 C1470 0.930 . S
H1457 C1472 0.960 . S
H1458 C1472 0.960 . S
H1459 C1472 0.960 . S
C1460 H1452 0.929 . S
C1460 C1461 1.377 . S
C1460 C1462 1.384 . S
C1461 C1460 1.377 . S
C1461 C1467 1.390 . S
C1462 H1453 0.930 . S
C1462 C1460 1.384 . S
C1462 C1463 1.372 . S
C1463 C1462 1.372 . S
C1463 C1464 1.400 . S
C1463 C1468 1.490 . S
C1464 H1454 0.930 . S
C1464 C1463 1.400 . S
C1464 C1467 1.386 . S
H1465 C1481 0.930 . S
H1466 C1482 0.931 . S
C1467 H1455 0.929 . S
C1467 C1461 1.390 . S
C1467 C1464 1.386 . S
C1468 C1463 1.490 . S
C1468 C1470 1.395 . S
C1468 C1471 1.403 . S
H1469 C1475 0.930 . S
C1470 H1456 0.930 . S
C1470 C1468 1.395 . S
C1470 C1473 1.403 . S
C1471 C1468 1.403 . S
C1471 C1472 1.524 . S
C1471 C1475 1.400 . S
C1472 H1457 0.960 . S
C1472 H1458 0.960 . S
C1472 H1459 0.960 . S
C1472 C1471 1.524 . S
C1473 C1470 1.403 . S
C1473 C1474 1.392 . S
C1473 C1477 1.495 . S
C1474 C1473 1.392 . S
C1474 C1475 1.385 . S
C1474 C1476 1.478 . S
C1475 H1469 0.930 . S
C1475 C1471 1.400 . S
C1475 C1474 1.385 . S
C1476 C1474 1.478 . S
C1476 C1478 1.381 . S
C1476 C1482 1.383 . S
C1477 C1473 1.495 . S
C1477 H1483 0.959 . S
C1477 H1484 0.961 . S
C1477 H1485 0.960 . S
C1478 C1476 1.381 . S
C1478 C1479 1.394 . S
C1478 H1486 0.930 . S
C1479 C1478 1.394 . S
C1479 C1480 1.383 . S
C1479 H1487 0.929 . S
C1480 C1479 1.383 . S
C1480 C1481 1.377 . S
C1481 H1465 0.930 . S
C1481 C1480 1.377 . S
C1481 C1482 1.379 . S
C1482 H1466 0.931 . S
C1482 C1476 1.383 . S
C1482 C1481 1.379 . S
H1483 C1477 0.959 . S
H1484 C1477 0.961 . S
H1485 C1477 0.960 . S
H1486 C1478 0.930 . S
H1487 C1479 0.929 . S
H1488 C1496 0.929 . S
H1489 C1498 0.930 . S
H1490 C1500 0.930 . S
H1491 C1503 0.929 . S
H1492 C1506 0.930 . S
H1493 C1508 0.960 . S
H1494 C1508 0.960 . S
H1495 C1508 0.960 . S
C1496 H1488 0.929 . S
C1496 C1497 1.377 . S
C1496 C1498 1.384 . S
C1497 C1496 1.377 . S
C1497 C1503 1.390 . S
C1498 H1489 0.930 . S
C1498 C1496 1.384 . S
C1498 C1499 1.372 . S
C1499 C1498 1.372 . S
C1499 C1500 1.400 . S
C1499 C1504 1.490 . S
C1500 H1490 0.930 . S
C1500 C1499 1.400 . S
C1500 C1503 1.386 . S
H1501 C1517 0.930 . S
H1502 C1518 0.931 . S
C1503 H1491 0.929 . S
C1503 C1497 1.390 . S
C1503 C1500 1.386 . S
C1504 C1499 1.490 . S
C1504 C1506 1.395 . S
C1504 C1507 1.403 . S
H1505 C1511 0.930 . S
C1506 H1492 0.930 . S
C1506 C1504 1.395 . S
C1506 C1509 1.403 . S
C1507 C1504 1.403 . S
C1507 C1508 1.524 . S
C1507 C1511 1.400 . S
C1508 H1493 0.960 . S
C1508 H1494 0.960 . S
C1508 H1495 0.960 . S
C1508 C1507 1.524 . S
C1509 C1506 1.403 . S
C1509 C1510 1.392 . S
C1509 C1513 1.495 . S
C1510 C1509 1.392 . S
C1510 C1511 1.385 . S
C1510 C1512 1.478 . S
C1511 H1505 0.930 . S
C1511 C1507 1.400 . S
C1511 C1510 1.385 . S
C1512 C1510 1.478 . S
C1512 C1514 1.381 . S
C1512 C1518 1.383 . S
C1513 C1509 1.495 . S
C1513 H1519 0.959 . S
C1513 H1520 0.961 . S
C1513 H1521 0.960 . S
C1514 C1512 1.381 . S
C1514 C1515 1.394 . S
C1514 H1522 0.930 . S
C1515 C1514 1.394 . S
C1515 C1516 1.383 . S
C1515 H1523 0.929 . S
C1516 C1515 1.383 . S
C1516 C1517 1.377 . S
C1517 H1501 0.930 . S
C1517 C1516 1.377 . S
C1517 C1518 1.379 . S
C1518 H1502 0.931 . S
C1518 C1512 1.383 . S
C1518 C1517 1.379 . S
H1519 C1513 0.959 . S
H1520 C1513 0.961 . S
H1521 C1513 0.960 . S
H1522 C1514 0.930 . S
H1523 C1515 0.929 . S
H1524 C1532 0.929 . S
H1525 C1534 0.930 . S
H1526 C1536 0.930 . S
H1527 C1539 0.929 . S
H1528 C1542 0.930 . S
H1529 C1544 0.960 . S
H1530 C1544 0.960 . S
H1531 C1544 0.960 . S
C1532 H1524 0.929 . S
C1532 C1533 1.377 . S
C1532 C1534 1.384 . S
C1533 C1532 1.377 . S
C1533 C1539 1.390 . S
C1534 H1525 0.930 . S
C1534 C1532 1.384 . S
C1534 C1535 1.372 . S
C1535 C1534 1.372 . S
C1535 C1536 1.400 . S
C1535 C1540 1.490 . S
C1536 H1526 0.930 . S
C1536 C1535 1.400 . S
C1536 C1539 1.386 . S
H1537 C1553 0.930 . S
H1538 C1554 0.931 . S
C1539 H1527 0.929 . S
C1539 C1533 1.390 . S
C1539 C1536 1.386 . S
C1540 C1535 1.490 . S
C1540 C1542 1.395 . S
C1540 C1543 1.403 . S
H1541 C1547 0.930 . S
C1542 H1528 0.930 . S
C1542 C1540 1.395 . S
C1542 C1545 1.403 . S
C1543 C1540 1.403 . S
C1543 C1544 1.524 . S
C1543 C1547 1.400 . S
C1544 H1529 0.960 . S
C1544 H1530 0.960 . S
C1544 H1531 0.960 . S
C1544 C1543 1.524 . S
C1545 C1542 1.403 . S
C1545 C1546 1.392 . S
C1545 C1549 1.495 . S
C1546 C1545 1.392 . S
C1546 C1547 1.385 . S
C1546 C1548 1.478 . S
C1547 H1541 0.930 . S
C1547 C1543 1.400 . S
C1547 C1546 1.385 . S
C1548 C1546 1.478 . S
C1548 C1550 1.381 . S
C1548 C1554 1.383 . S
C1549 C1545 1.495 . S
C1549 H1555 0.959 . S
C1549 H1556 0.961 . S
C1549 H1557 0.960 . S
C1550 C1548 1.381 . S
C1550 C1551 1.394 . S
C1550 H1558 0.930 . S
C1551 C1550 1.394 . S
C1551 C1552 1.383 . S
C1551 H1559 0.929 . S
C1552 C1551 1.383 . S
C1552 C1553 1.377 . S
C1553 H1537 0.930 . S
C1553 C1552 1.377 . S
C1553 C1554 1.379 . S
C1554 H1538 0.931 . S
C1554 C1548 1.383 . S
C1554 C1553 1.379 . S
H1555 C1549 0.959 . S
H1556 C1549 0.961 . S
H1557 C1549 0.960 . S
H1558 C1550 0.930 . S
H1559 C1551 0.929 . S
H1560 C1568 0.929 . S
H1561 C1570 0.930 . S
H1562 C1572 0.930 . S
H1563 C1575 0.929 . S
H1564 C1578 0.930 . S
H1565 C1580 0.960 . S
H1566 C1580 0.960 . S
H1567 C1580 0.960 . S
C1568 H1560 0.929 . S
C1568 C1569 1.377 . S
C1568 C1570 1.384 . S
C1569 C1568 1.377 . S
C1569 C1575 1.390 . S
C1570 H1561 0.930 . S
C1570 C1568 1.384 . S
C1570 C1571 1.372 . S
C1571 C1570 1.372 . S
C1571 C1572 1.400 . S
C1571 C1576 1.490 . S
C1572 H1562 0.930 . S
C1572 C1571 1.400 . S
C1572 C1575 1.386 . S
H1573 C1589 0.930 . S
H1574 C1590 0.931 . S
C1575 H1563 0.929 . S
C1575 C1569 1.390 . S
C1575 C1572 1.386 . S
C1576 C1571 1.490 . S
C1576 C1578 1.395 . S
C1576 C1579 1.403 . S
H1577 C1583 0.930 . S
C1578 H1564 0.930 . S
C1578 C1576 1.395 . S
C1578 C1581 1.403 . S
C1579 C1576 1.403 . S
C1579 C1580 1.524 . S
C1579 C1583 1.400 . S
C1580 H1565 0.960 . S
C1580 H1566 0.960 . S
C1580 H1567 0.960 . S
C1580 C1579 1.524 . S
C1581 C1578 1.403 . S
C1581 C1582 1.392 . S
C1581 C1585 1.495 . S
C1582 C1581 1.392 . S
C1582 C1583 1.385 . S
C1582 C1584 1.478 . S
C1583 H1577 0.930 . S
C1583 C1579 1.400 . S
C1583 C1582 1.385 . S
C1584 C1582 1.478 . S
C1584 C1586 1.381 . S
C1584 C1590 1.383 . S
C1585 C1581 1.495 . S
C1585 H1591 0.959 . S
C1585 H1592 0.961 . S
C1585 H1593 0.960 . S
C1586 C1584 1.381 . S
C1586 C1587 1.394 . S
C1586 H1594 0.930 . S
C1587 C1586 1.394 . S
C1587 C1588 1.383 . S
C1587 H1595 0.929 . S
C1588 C1587 1.383 . S
C1588 C1589 1.377 . S
C1589 H1573 0.930 . S
C1589 C1588 1.377 . S
C1589 C1590 1.379 . S
C1590 H1574 0.931 . S
C1590 C1584 1.383 . S
C1590 C1589 1.379 . S
H1591 C1585 0.959 . S
H1592 C1585 0.961 . S
H1593 C1585 0.960 . S
H1594 C1586 0.930 . S
H1595 C1587 0.929 . S
H1596 C1604 0.929 . S
H1597 C1606 0.930 . S
H1598 C1608 0.930 . S
H1599 C1611 0.929 . S
H1600 C1614 0.930 . S
H1601 C1616 0.960 . S
H1602 C1616 0.960 . S
H1603 C1616 0.960 . S
C1604 H1596 0.929 . S
C1604 C1605 1.377 . S
C1604 C1606 1.384 . S
C1605 C1604 1.377 . S
C1605 C1611 1.390 . S
C1606 H1597 0.930 . S
C1606 C1604 1.384 . S
C1606 C1607 1.372 . S
C1607 C1606 1.372 . S
C1607 C1608 1.400 . S
C1607 C1612 1.490 . S
C1608 H1598 0.930 . S
C1608 C1607 1.400 . S
C1608 C1611 1.386 . S
H1609 C1625 0.930 . S
H1610 C1626 0.931 . S
C1611 H1599 0.929 . S
C1611 C1605 1.390 . S
C1611 C1608 1.386 . S
C1612 C1607 1.490 . S
C1612 C1614 1.395 . S
C1612 C1615 1.403 . S
H1613 C1619 0.930 . S
C1614 H1600 0.930 . S
C1614 C1612 1.395 . S
C1614 C1617 1.403 . S
C1615 C1612 1.403 . S
C1615 C1616 1.524 . S
C1615 C1619 1.400 . S
C1616 H1601 0.960 . S
C1616 H1602 0.960 . S
C1616 H1603 0.960 . S
C1616 C1615 1.524 . S
C1617 C1614 1.403 . S
C1617 C1618 1.392 . S
C1617 C1621 1.495 . S
C1618 C1617 1.392 . S
C1618 C1619 1.385 . S
C1618 C1620 1.478 . S
C1619 H1613 0.930 . S
C1619 C1615 1.400 . S
C1619 C1618 1.385 . S
C1620 C1618 1.478 . S
C1620 C1622 1.381 . S
C1620 C1626 1.383 . S
C1621 C1617 1.495 . S
C1621 H1627 0.959 . S
C1621 H1628 0.961 . S
C1621 H1629 0.960 . S
C1622 C1620 1.381 . S
C1622 C1623 1.394 . S
C1622 H1630 0.930 . S
C1623 C1622 1.394 . S
C1623 C1624 1.383 . S
C1623 H1631 0.929 . S
C1624 C1623 1.383 . S
C1624 C1625 1.377 . S
C1625 H1609 0.930 . S
C1625 C1624 1.377 . S
C1625 C1626 1.379 . S
C1626 H1610 0.931 . S
C1626 C1620 1.383 . S
C1626 C1625 1.379 . S
H1627 C1621 0.959 . S
H1628 C1621 0.961 . S
H1629 C1621 0.960 . S
H1630 C1622 0.930 . S
H1631 C1623 0.929 . S
H1632 C1640 0.929 . S
H1633 C1642 0.930 . S
H1634 C1644 0.930 . S
H1635 C1647 0.929 . S
H1636 C1650 0.930 . S
H1637 C1652 0.960 . S
H1638 C1652 0.960 . S
H1639 C1652 0.960 . S
C1640 H1632 0.929 . S
C1640 C1641 1.377 . S
C1640 C1642 1.384 . S
C1641 C1640 1.377 . S
C1641 C1647 1.390 . S
C1642 H1633 0.930 . S
C1642 C1640 1.384 . S
C1642 C1643 1.372 . S
C1643 C1642 1.372 . S
C1643 C1644 1.400 . S
C1643 C1648 1.490 . S
C1644 H1634 0.930 . S
C1644 C1643 1.400 . S
C1644 C1647 1.386 . S
H1645 C1661 0.930 . S
H1646 C1662 0.931 . S
C1647 H1635 0.929 . S
C1647 C1641 1.390 . S
C1647 C1644 1.386 . S
C1648 C1643 1.490 . S
C1648 C1650 1.395 . S
C1648 C1651 1.403 . S
H1649 C1655 0.930 . S
C1650 H1636 0.930 . S
C1650 C1648 1.395 . S
C1650 C1653 1.403 . S
C1651 C1648 1.403 . S
C1651 C1652 1.524 . S
C1651 C1655 1.400 . S
C1652 H1637 0.960 . S
C1652 H1638 0.960 . S
C1652 H1639 0.960 . S
C1652 C1651 1.524 . S
C1653 C1650 1.403 . S
C1653 C1654 1.392 . S
C1653 C1657 1.495 . S
C1654 C1653 1.392 . S
C1654 C1655 1.385 . S
C1654 C1656 1.478 . S
C1655 H1649 0.930 . S
C1655 C1651 1.400 . S
C1655 C1654 1.385 . S
C1656 C1654 1.478 . S
C1656 C1658 1.381 . S
C1656 C1662 1.383 . S
C1657 C1653 1.495 . S
C1657 H1663 0.959 . S
C1657 H1664 0.961 . S
C1657 H1665 0.960 . S
C1658 C1656 1.381 . S
C1658 C1659 1.394 . S
C1658 H1666 0.930 . S
C1659 C1658 1.394 . S
C1659 C1660 1.383 . S
C1659 H1667 0.929 . S
C1660 C1659 1.383 . S
C1660 C1661 1.377 . S
C1661 H1645 0.930 . S
C1661 C1660 1.377 . S
C1661 C1662 1.379 . S
C1662 H1646 0.931 . S
C1662 C1656 1.383 . S
C1662 C1661 1.379 . S
H1663 C1657 0.959 . S
H1664 C1657 0.961 . S
H1665 C1657 0.960 . S
H1666 C1658 0.930 . S
H1667 C1659 0.929 . S
H1668 C1676 0.929 . S
H1669 C1678 0.930 . S
H1670 C1680 0.930 . S
H1671 C1683 0.929 . S
H1672 C1686 0.930 . S
H1673 C1688 0.960 . S
H1674 C1688 0.960 . S
H1675 C1688 0.960 . S
C1676 H1668 0.929 . S
C1676 C1677 1.377 . S
C1676 C1678 1.384 . S
C1677 C1676 1.377 . S
C1677 C1683 1.390 . S
C1678 H1669 0.930 . S
C1678 C1676 1.384 . S
C1678 C1679 1.372 . S
C1679 C1678 1.372 . S
C1679 C1680 1.400 . S
C1679 C1684 1.490 . S
C1680 H1670 0.930 . S
C1680 C1679 1.400 . S
C1680 C1683 1.386 . S
H1681 C1697 0.930 . S
H1682 C1698 0.931 . S
C1683 H1671 0.929 . S
C1683 C1677 1.390 . S
C1683 C1680 1.386 . S
C1684 C1679 1.490 . S
C1684 C1686 1.395 . S
C1684 C1687 1.403 . S
H1685 C1691 0.930 . S
C1686 H1672 0.930 . S
C1686 C1684 1.395 . S
C1686 C1689 1.403 . S
C1687 C1684 1.403 . S
C1687 C1688 1.524 . S
C1687 C1691 1.400 . S
C1688 H1673 0.960 . S
C1688 H1674 0.960 . S
C1688 H1675 0.960 . S
C1688 C1687 1.524 . S
C1689 C1686 1.403 . S
C1689 C1690 1.392 . S
C1689 C1693 1.495 . S
C1690 C1689 1.392 . S
C1690 C1691 1.385 . S
C1690 C1692 1.478 . S
C1691 H1685 0.930 . S
C1691 C1687 1.400 . S
C1691 C1690 1.385 . S
C1692 C1690 1.478 . S
C1692 C1694 1.381 . S
C1692 C1698 1.383 . S
C1693 C1689 1.495 . S
C1693 H1699 0.959 . S
C1693 H1700 0.961 . S
C1693 H1701 0.960 . S
C1694 C1692 1.381 . S
C1694 C1695 1.394 . S
C1694 H1702 0.930 . S
C1695 C1694 1.394 . S
C1695 C1696 1.383 . S
C1695 H1703 0.929 . S
C1696 C1695 1.383 . S
C1696 C1697 1.377 . S
C1697 H1681 0.930 . S
C1697 C1696 1.377 . S
C1697 C1698 1.379 . S
C1698 H1682 0.931 . S
C1698 C1692 1.383 . S
C1698 C1697 1.379 . S
H1699 C1693 0.959 . S
H1700 C1693 0.961 . S
H1701 C1693 0.960 . S
H1702 C1694 0.930 . S
H1703 C1695 0.929 . S
H1704 C1712 0.929 . S
H1705 C1714 0.930 . S
H1706 C1716 0.930 . S
H1707 C1719 0.929 . S
H1708 C1722 0.930 . S
H1709 C1724 0.960 . S
H1710 C1724 0.960 . S
H1711 C1724 0.960 . S
C1712 H1704 0.929 . S
C1712 C1713 1.377 . S
C1712 C1714 1.384 . S
C1713 C1712 1.377 . S
C1713 C1719 1.390 . S
C1714 H1705 0.930 . S
C1714 C1712 1.384 . S
C1714 C1715 1.372 . S
C1715 C1714 1.372 . S
C1715 C1716 1.400 . S
C1715 C1720 1.490 . S
C1716 H1706 0.930 . S
C1716 C1715 1.400 . S
C1716 C1719 1.386 . S
H1717 C1733 0.930 . S
H1718 C1734 0.931 . S
C1719 H1707 0.929 . S
C1719 C1713 1.390 . S
C1719 C1716 1.386 . S
C1720 C1715 1.490 . S
C1720 C1722 1.395 . S
C1720 C1723 1.403 . S
H1721 C1727 0.930 . S
C1722 H1708 0.930 . S
C1722 C1720 1.395 . S
C1722 C1725 1.403 . S
C1723 C1720 1.403 . S
C1723 C1724 1.524 . S
C1723 C1727 1.400 . S
C1724 H1709 0.960 . S
C1724 H1710 0.960 . S
C1724 H1711 0.960 . S
C1724 C1723 1.524 . S
C1725 C1722 1.403 . S
C1725 C1726 1.392 . S
C1725 C1729 1.495 . S
C1726 C1725 1.392 . S
C1726 C1727 1.385 . S
C1726 C1728 1.478 . S
C1727 H1721 0.930 . S
C1727 C1723 1.400 . S
C1727 C1726 1.385 . S
C1728 C1726 1.478 . S
C1728 C1730 1.381 . S
C1728 C1734 1.383 . S
C1729 C1725 1.495 . S
C1729 H1735 0.959 . S
C1729 H1736 0.961 . S
C1729 H1737 0.960 . S
C1730 C1728 1.381 . S
C1730 C1731 1.394 . S
C1730 H1738 0.930 . S
C1731 C1730 1.394 . S
C1731 C1732 1.383 . S
C1731 H1739 0.929 . S
C1732 C1731 1.383 . S
C1732 C1733 1.377 . S
C1733 H1717 0.930 . S
C1733 C1732 1.377 . S
C1733 C1734 1.379 . S
C1734 H1718 0.931 . S
C1734 C1728 1.383 . S
C1734 C1733 1.379 . S
H1735 C1729 0.959 . S
H1736 C1729 0.961 . S
H1737 C1729 0.960 . S
H1738 C1730 0.930 . S
H1739 C1731 0.929 . S
H1740 C1748 0.929 . S
H1741 C1750 0.930 . S
H1742 C1752 0.930 . S
H1743 C1755 0.929 . S
H1744 C1758 0.930 . S
H1745 C1760 0.960 . S
H1746 C1760 0.960 . S
H1747 C1760 0.960 . S
C1748 H1740 0.929 . S
C1748 C1749 1.377 . S
C1748 C1750 1.384 . S
C1749 C1748 1.377 . S
C1749 C1755 1.390 . S
C1750 H1741 0.930 . S
C1750 C1748 1.384 . S
C1750 C1751 1.372 . S
C1751 C1750 1.372 . S
C1751 C1752 1.400 . S
C1751 C1756 1.490 . S
C1752 H1742 0.930 . S
C1752 C1751 1.400 . S
C1752 C1755 1.386 . S
H1753 C1769 0.930 . S
H1754 C1770 0.931 . S
C1755 H1743 0.929 . S
C1755 C1749 1.390 . S
C1755 C1752 1.386 . S
C1756 C1751 1.490 . S
C1756 C1758 1.395 . S
C1756 C1759 1.403 . S
H1757 C1763 0.930 . S
C1758 H1744 0.930 . S
C1758 C1756 1.395 . S
C1758 C1761 1.403 . S
C1759 C1756 1.403 . S
C1759 C1760 1.524 . S
C1759 C1763 1.400 . S
C1760 H1745 0.960 . S
C1760 H1746 0.960 . S
C1760 H1747 0.960 . S
C1760 C1759 1.524 . S
C1761 C1758 1.403 . S
C1761 C1762 1.392 . S
C1761 C1765 1.495 . S
C1762 C1761 1.392 . S
C1762 C1763 1.385 . S
C1762 C1764 1.478 . S
C1763 H1757 0.930 . S
C1763 C1759 1.400 . S
C1763 C1762 1.385 . S
C1764 C1762 1.478 . S
C1764 C1766 1.381 . S
C1764 C1770 1.383 . S
C1765 C1761 1.495 . S
C1765 H1771 0.959 . S
C1765 H1772 0.961 . S
C1765 H1773 0.960 . S
C1766 C1764 1.381 . S
C1766 C1767 1.394 . S
C1766 H1774 0.930 . S
C1767 C1766 1.394 . S
C1767 C1768 1.383 . S
C1767 H1775 0.929 . S
C1768 C1767 1.383 . S
C1768 C1769 1.377 . S
C1769 H1753 0.930 . S
C1769 C1768 1.377 . S
C1769 C1770 1.379 . S
C1770 H1754 0.931 . S
C1770 C1764 1.383 . S
C1770 C1769 1.379 . S
H1771 C1765 0.959 . S
H1772 C1765 0.961 . S
H1773 C1765 0.960 . S
H1774 C1766 0.930 . S
H1775 C1767 0.929 . S
H1776 C1784 0.929 . S
H1777 C1786 0.930 . S
H1778 C1788 0.930 . S
H1779 C1791 0.929 . S
H1780 C1794 0.930 . S
H1781 C1796 0.960 . S
H1782 C1796 0.960 . S
H1783 C1796 0.960 . S
C1784 H1776 0.929 . S
C1784 C1785 1.377 . S
C1784 C1786 1.384 . S
C1785 C1784 1.377 . S
C1785 C1791 1.390 . S
C1786 H1777 0.930 . S
C1786 C1784 1.384 . S
C1786 C1787 1.372 . S
C1787 C1786 1.372 . S
C1787 C1788 1.400 . S
C1787 C1792 1.490 . S
C1788 H1778 0.930 . S
C1788 C1787 1.400 . S
C1788 C1791 1.386 . S
H1789 C1805 0.930 . S
H1790 C1806 0.931 . S
C1791 H1779 0.929 . S
C1791 C1785 1.390 . S
C1791 C1788 1.386 . S
C1792 C1787 1.490 . S
C1792 C1794 1.395 . S
C1792 C1795 1.403 . S
H1793 C1799 0.930 . S
C1794 H1780 0.930 . S
C1794 C1792 1.395 . S
C1794 C1797 1.403 . S
C1795 C1792 1.403 . S
C1795 C1796 1.524 . S
C1795 C1799 1.400 . S
C1796 H1781 0.960 . S
C1796 H1782 0.960 . S
C1796 H1783 0.960 . S
C1796 C1795 1.524 . S
C1797 C1794 1.403 . S
C1797 C1798 1.392 . S
C1797 C1801 1.495 . S
C1798 C1797 1.392 . S
C1798 C1799 1.385 . S
C1798 C1800 1.478 . S
C1799 H1793 0.930 . S
C1799 C1795 1.400 . S
C1799 C1798 1.385 . S
C1800 C1798 1.478 . S
C1800 C1802 1.381 . S
C1800 C1806 1.383 . S
C1801 C1797 1.495 . S
C1801 H1807 0.959 . S
C1801 H1808 0.961 . S
C1801 H1809 0.960 . S
C1802 C1800 1.381 . S
C1802 C1803 1.394 . S
C1802 H1810 0.930 . S
C1803 C1802 1.394 . S
C1803 C1804 1.383 . S
C1803 H1811 0.929 . S
C1804 C1803 1.383 . S
C1804 C1805 1.377 . S
C1805 H1789 0.930 . S
C1805 C1804 1.377 . S
C1805 C1806 1.379 . S
C1806 H1790 0.931 . S
C1806 C1800 1.383 . S
C1806 C1805 1.379 . S
H1807 C1801 0.959 . S
H1808 C1801 0.961 . S
H1809 C1801 0.960 . S
H1810 C1802 0.930 . S
H1811 C1803 0.929 . S
H1812 C1820 0.929 . S
H1813 C1822 0.930 . S
H1814 C1824 0.930 . S
H1815 C1827 0.929 . S
H1816 C1830 0.930 . S
H1817 C1832 0.960 . S
H1818 C1832 0.960 . S
H1819 C1832 0.960 . S
C1820 H1812 0.929 . S
C1820 C1821 1.377 . S
C1820 C1822 1.384 . S
C1821 C1820 1.377 . S
C1821 C1827 1.390 . S
C1822 H1813 0.930 . S
C1822 C1820 1.384 . S
C1822 C1823 1.372 . S
C1823 C1822 1.372 . S
C1823 C1824 1.400 . S
C1823 C1828 1.490 . S
C1824 H1814 0.930 . S
C1824 C1823 1.400 . S
C1824 C1827 1.386 . S
H1825 C1841 0.930 . S
H1826 C1842 0.931 . S
C1827 H1815 0.929 . S
C1827 C1821 1.390 . S
C1827 C1824 1.386 . S
C1828 C1823 1.490 . S
C1828 C1830 1.395 . S
C1828 C1831 1.403 . S
H1829 C1835 0.930 . S
C1830 H1816 0.930 . S
C1830 C1828 1.395 . S
C1830 C1833 1.403 . S
C1831 C1828 1.403 . S
C1831 C1832 1.524 . S
C1831 C1835 1.400 . S
C1832 H1817 0.960 . S
C1832 H1818 0.960 . S
C1832 H1819 0.960 . S
C1832 C1831 1.524 . S
C1833 C1830 1.403 . S
C1833 C1834 1.392 . S
C1833 C1837 1.495 . S
C1834 C1833 1.392 . S
C1834 C1835 1.385 . S
C1834 C1836 1.478 . S
C1835 H1829 0.930 . S
C1835 C1831 1.400 . S
C1835 C1834 1.385 . S
C1836 C1834 1.478 . S
C1836 C1838 1.381 . S
C1836 C1842 1.383 . S
C1837 C1833 1.495 . S
C1837 H1843 0.959 . S
C1837 H1844 0.961 . S
C1837 H1845 0.960 . S
C1838 C1836 1.381 . S
C1838 C1839 1.394 . S
C1838 H1846 0.930 . S
C1839 C1838 1.394 . S
C1839 C1840 1.383 . S
C1839 H1847 0.929 . S
C1840 C1839 1.383 . S
C1840 C1841 1.377 . S
C1841 H1825 0.930 . S
C1841 C1840 1.377 . S
C1841 C1842 1.379 . S
C1842 H1826 0.931 . S
C1842 C1836 1.383 . S
C1842 C1841 1.379 . S
H1843 C1837 0.959 . S
H1844 C1837 0.961 . S
H1845 C1837 0.960 . S
H1846 C1838 0.930 . S
H1847 C1839 0.929 . S
H1848 C1856 0.929 . S
H1849 C1858 0.930 . S
H1850 C1860 0.930 . S
H1851 C1863 0.929 . S
H1852 C1866 0.930 . S
H1853 C1868 0.960 . S
H1854 C1868 0.960 . S
H1855 C1868 0.960 . S
C1856 H1848 0.929 . S
C1856 C1857 1.377 . S
C1856 C1858 1.384 . S
C1857 C1856 1.377 . S
C1857 C1863 1.390 . S
C1858 H1849 0.930 . S
C1858 C1856 1.384 . S
C1858 C1859 1.372 . S
C1859 C1858 1.372 . S
C1859 C1860 1.400 . S
C1859 C1864 1.490 . S
C1860 H1850 0.930 . S
C1860 C1859 1.400 . S
C1860 C1863 1.386 . S
H1861 C1877 0.930 . S
H1862 C1878 0.931 . S
C1863 H1851 0.929 . S
C1863 C1857 1.390 . S
C1863 C1860 1.386 . S
C1864 C1859 1.490 . S
C1864 C1866 1.395 . S
C1864 C1867 1.403 . S
H1865 C1871 0.930 . S
C1866 H1852 0.930 . S
C1866 C1864 1.395 . S
C1866 C1869 1.403 . S
C1867 C1864 1.403 . S
C1867 C1868 1.524 . S
C1867 C1871 1.400 . S
C1868 H1853 0.960 . S
C1868 H1854 0.960 . S
C1868 H1855 0.960 . S
C1868 C1867 1.524 . S
C1869 C1866 1.403 . S
C1869 C1870 1.392 . S
C1869 C1873 1.495 . S
C1870 C1869 1.392 . S
C1870 C1871 1.385 . S
C1870 C1872 1.478 . S
C1871 H1865 0.930 . S
C1871 C1867 1.400 . S
C1871 C1870 1.385 . S
C1872 C1870 1.478 . S
C1872 C1874 1.381 . S
C1872 C1878 1.383 . S
C1873 C1869 1.495 . S
C1873 H1879 0.959 . S
C1873 H1880 0.961 . S
C1873 H1881 0.960 . S
C1874 C1872 1.381 . S
C1874 C1875 1.394 . S
C1874 H1882 0.930 . S
C1875 C1874 1.394 . S
C1875 C1876 1.383 . S
C1875 H1883 0.929 . S
C1876 C1875 1.383 . S
C1876 C1877 1.377 . S
C1877 H1861 0.930 . S
C1877 C1876 1.377 . S
C1877 C1878 1.379 . S
C1878 H1862 0.931 . S
C1878 C1872 1.383 . S
C1878 C1877 1.379 . S
H1879 C1873 0.959 . S
H1880 C1873 0.961 . S
H1881 C1873 0.960 . S
H1882 C1874 0.930 . S
H1883 C1875 0.929 . S
H1884 C1892 0.929 . S
H1885 C1894 0.930 . S
H1886 C1896 0.930 . S
H1887 C1899 0.929 . S
H1888 C1902 0.930 . S
H1889 C1904 0.960 . S
H1890 C1904 0.960 . S
H1891 C1904 0.960 . S
C1892 H1884 0.929 . S
C1892 C1893 1.377 . S
C1892 C1894 1.384 . S
C1893 C1892 1.377 . S
C1893 C1899 1.390 . S
C1894 H1885 0.930 . S
C1894 C1892 1.384 . S
C1894 C1895 1.372 . S
C1895 C1894 1.372 . S
C1895 C1896 1.400 . S
C1895 C1900 1.490 . S
C1896 H1886 0.930 . S
C1896 C1895 1.400 . S
C1896 C1899 1.386 . S
H1897 C1913 0.930 . S
H1898 C1914 0.931 . S
C1899 H1887 0.929 . S
C1899 C1893 1.390 . S
C1899 C1896 1.386 . S
C1900 C1895 1.490 . S
C1900 C1902 1.395 . S
C1900 C1903 1.403 . S
H1901 C1907 0.930 . S
C1902 H1888 0.930 . S
C1902 C1900 1.395 . S
C1902 C1905 1.403 . S
C1903 C1900 1.403 . S
C1903 C1904 1.524 . S
C1903 C1907 1.400 . S
C1904 H1889 0.960 . S
C1904 H1890 0.960 . S
C1904 H1891 0.960 . S
C1904 C1903 1.524 . S
C1905 C1902 1.403 . S
C1905 C1906 1.392 . S
C1905 C1909 1.495 . S
C1906 C1905 1.392 . S
C1906 C1907 1.385 . S
C1906 C1908 1.478 . S
C1907 H1901 0.930 . S
C1907 C1903 1.400 . S
C1907 C1906 1.385 . S
C1908 C1906 1.478 . S
C1908 C1910 1.381 . S
C1908 C1914 1.383 . S
C1909 C1905 1.495 . S
C1909 H1915 0.959 . S
C1909 H1916 0.961 . S
C1909 H1917 0.960 . S
C1910 C1908 1.381 . S
C1910 C1911 1.394 . S
C1910 H1918 0.930 . S
C1911 C1910 1.394 . S
C1911 C1912 1.383 . S
C1911 H1919 0.929 . S
C1912 C1911 1.383 . S
C1912 C1913 1.377 . S
C1913 H1897 0.930 . S
C1913 C1912 1.377 . S
C1913 C1914 1.379 . S
C1914 H1898 0.931 . S
C1914 C1908 1.383 . S
C1914 C1913 1.379 . S
H1915 C1909 0.959 . S
H1916 C1909 0.961 . S
H1917 C1909 0.960 . S
H1918 C1910 0.930 . S
H1919 C1911 0.929 . S
H1920 C1928 0.929 . S
H1921 C1930 0.930 . S
H1922 C1932 0.930 . S
H1923 C1935 0.929 . S
H1924 C1938 0.930 . S
H1925 C1940 0.960 . S
H1926 C1940 0.960 . S
H1927 C1940 0.960 . S
C1928 H1920 0.929 . S
C1928 C1929 1.377 . S
C1928 C1930 1.384 . S
C1929 C1928 1.377 . S
C1929 C1935 1.390 . S
C1930 H1921 0.930 . S
C1930 C1928 1.384 . S
C1930 C1931 1.372 . S
C1931 C1930 1.372 . S
C1931 C1932 1.400 . S
C1931 C1936 1.490 . S
C1932 H1922 0.930 . S
C1932 C1931 1.400 . S
C1932 C1935 1.386 . S
H1933 C1949 0.930 . S
H1934 C1950 0.931 . S
C1935 H1923 0.929 . S
C1935 C1929 1.390 . S
C1935 C1932 1.386 . S
C1936 C1931 1.490 . S
C1936 C1938 1.395 . S
C1936 C1939 1.403 . S
H1937 C1943 0.930 . S
C1938 H1924 0.930 . S
C1938 C1936 1.395 . S
C1938 C1941 1.403 . S
C1939 C1936 1.403 . S
C1939 C1940 1.524 . S
C1939 C1943 1.400 . S
C1940 H1925 0.960 . S
C1940 H1926 0.960 . S
C1940 H1927 0.960 . S
C1940 C1939 1.524 . S
C1941 C1938 1.403 . S
C1941 C1942 1.392 . S
C1941 C1945 1.495 . S
C1942 C1941 1.392 . S
C1942 C1943 1.385 . S
C1942 C1944 1.478 . S
C1943 H1937 0.930 . S
C1943 C1939 1.400 . S
C1943 C1942 1.385 . S
C1944 C1942 1.478 . S
C1944 C1946 1.381 . S
C1944 C1950 1.383 . S
C1945 C1941 1.495 . S
C1945 H1951 0.959 . S
C1945 H1952 0.961 . S
C1945 H1953 0.960 . S
C1946 C1944 1.381 . S
C1946 C1947 1.394 . S
C1946 H1954 0.930 . S
C1947 C1946 1.394 . S
C1947 C1948 1.383 . S
C1947 H1955 0.929 . S
C1948 C1947 1.383 . S
C1948 C1949 1.377 . S
C1949 H1933 0.930 . S
C1949 C1948 1.377 . S
C1949 C1950 1.379 . S
C1950 H1934 0.931 . S
C1950 C1944 1.383 . S
C1950 C1949 1.379 . S
H1951 C1945 0.959 . S
H1952 C1945 0.961 . S
H1953 C1945 0.960 . S
H1954 C1946 0.930 . S
H1955 C1947 0.929 . S
H1956 C1964 0.929 . S
H1957 C1966 0.930 . S
H1958 C1968 0.930 . S
H1959 C1971 0.929 . S
H1960 C1974 0.930 . S
H1961 C1976 0.960 . S
H1962 C1976 0.960 . S
H1963 C1976 0.960 . S
C1964 H1956 0.929 . S
C1964 C1965 1.377 . S
C1964 C1966 1.384 . S
C1965 C1964 1.377 . S
C1965 C1971 1.390 . S
C1966 H1957 0.930 . S
C1966 C1964 1.384 . S
C1966 C1967 1.372 . S
C1967 C1966 1.372 . S
C1967 C1968 1.400 . S
C1967 C1972 1.490 . S
C1968 H1958 0.930 . S
C1968 C1967 1.400 . S
C1968 C1971 1.386 . S
H1969 C1985 0.930 . S
H1970 C1986 0.931 . S
C1971 H1959 0.929 . S
C1971 C1965 1.390 . S
C1971 C1968 1.386 . S
C1972 C1967 1.490 . S
C1972 C1974 1.395 . S
C1972 C1975 1.403 . S
H1973 C1979 0.930 . S
C1974 H1960 0.930 . S
C1974 C1972 1.395 . S
C1974 C1977 1.403 . S
C1975 C1972 1.403 . S
C1975 C1976 1.524 . S
C1975 C1979 1.400 . S
C1976 H1961 0.960 . S
C1976 H1962 0.960 . S
C1976 H1963 0.960 . S
C1976 C1975 1.524 . S
C1977 C1974 1.403 . S
C1977 C1978 1.392 . S
C1977 C1981 1.495 . S
C1978 C1977 1.392 . S
C1978 C1979 1.385 . S
C1978 C1980 1.478 . S
C1979 H1973 0.930 . S
C1979 C1975 1.400 . S
C1979 C1978 1.385 . S
C1980 C1978 1.478 . S
C1980 C1982 1.381 . S
C1980 C1986 1.383 . S
C1981 C1977 1.495 . S
C1981 H1987 0.959 . S
C1981 H1988 0.961 . S
C1981 H1989 0.960 . S
C1982 C1980 1.381 . S
C1982 C1983 1.394 . S
C1982 H1990 0.930 . S
C1983 C1982 1.394 . S
C1983 C1984 1.383 . S
C1983 H1991 0.929 . S
C1984 C1983 1.383 . S
C1984 C1985 1.377 . S
C1985 H1969 0.930 . S
C1985 C1984 1.377 . S
C1985 C1986 1.379 . S
C1986 H1970 0.931 . S
C1986 C1980 1.383 . S
C1986 C1985 1.379 . S
H1987 C1981 0.959 . S
H1988 C1981 0.961 . S
H1989 C1981 0.960 . S
H1990 C1982 0.930 . S
H1991 C1983 0.929 . S
H1992 C2000 0.929 . S
H1993 C2002 0.930 . S
H1994 C2004 0.930 . S
H1995 C2007 0.929 . S
H1996 C2010 0.930 . S
H1997 C2012 0.960 . S
H1998 C2012 0.960 . S
H1999 C2012 0.960 . S
C2000 H1992 0.929 . S
C2000 C2001 1.377 . S
C2000 C2002 1.384 . S
C2001 C2000 1.377 . S
C2001 C2007 1.390 . S
C2002 H1993 0.930 . S
C2002 C2000 1.384 . S
C2002 C2003 1.372 . S
C2003 C2002 1.372 . S
C2003 C2004 1.400 . S
C2003 C2008 1.490 . S
C2004 H1994 0.930 . S
C2004 C2003 1.400 . S
C2004 C2007 1.386 . S
H2005 C2021 0.930 . S
H2006 C2022 0.931 . S
C2007 H1995 0.929 . S
C2007 C2001 1.390 . S
C2007 C2004 1.386 . S
C2008 C2003 1.490 . S
C2008 C2010 1.395 . S
C2008 C2011 1.403 . S
H2009 C2015 0.930 . S
C2010 H1996 0.930 . S
C2010 C2008 1.395 . S
C2010 C2013 1.403 . S
C2011 C2008 1.403 . S
C2011 C2012 1.524 . S
C2011 C2015 1.400 . S
C2012 H1997 0.960 . S
C2012 H1998 0.960 . S
C2012 H1999 0.960 . S
C2012 C2011 1.524 . S
C2013 C2010 1.403 . S
C2013 C2014 1.392 . S
C2013 C2017 1.495 . S
C2014 C2013 1.392 . S
C2014 C2015 1.385 . S
C2014 C2016 1.478 . S
C2015 H2009 0.930 . S
C2015 C2011 1.400 . S
C2015 C2014 1.385 . S
C2016 C2014 1.478 . S
C2016 C2018 1.381 . S
C2016 C2022 1.383 . S
C2017 C2013 1.495 . S
C2017 H2023 0.959 . S
C2017 H2024 0.961 . S
C2017 H2025 0.960 . S
C2018 C2016 1.381 . S
C2018 C2019 1.394 . S
C2018 H2026 0.930 . S
C2019 C2018 1.394 . S
C2019 C2020 1.383 . S
C2019 H2027 0.929 . S
C2020 C2019 1.383 . S
C2020 C2021 1.377 . S
C2021 H2005 0.930 . S
C2021 C2020 1.377 . S
C2021 C2022 1.379 . S
C2022 H2006 0.931 . S
C2022 C2016 1.383 . S
C2022 C2021 1.379 . S
H2023 C2017 0.959 . S
H2024 C2017 0.961 . S
H2025 C2017 0.960 . S
H2026 C2018 0.930 . S
H2027 C2019 0.929 . S
H2028 C2036 0.929 . S
H2029 C2038 0.930 . S
H2030 C2040 0.930 . S
H2031 C2043 0.929 . S
H2032 C2046 0.930 . S
H2033 C2048 0.960 . S
H2034 C2048 0.960 . S
H2035 C2048 0.960 . S
C2036 H2028 0.929 . S
C2036 C2037 1.377 . S
C2036 C2038 1.384 . S
C2037 C2036 1.377 . S
C2037 C2043 1.390 . S
C2038 H2029 0.930 . S
C2038 C2036 1.384 . S
C2038 C2039 1.372 . S
C2039 C2038 1.372 . S
C2039 C2040 1.400 . S
C2039 C2044 1.490 . S
C2040 H2030 0.930 . S
C2040 C2039 1.400 . S
C2040 C2043 1.386 . S
H2041 C2057 0.930 . S
H2042 C2058 0.931 . S
C2043 H2031 0.929 . S
C2043 C2037 1.390 . S
C2043 C2040 1.386 . S
C2044 C2039 1.490 . S
C2044 C2046 1.395 . S
C2044 C2047 1.403 . S
H2045 C2051 0.930 . S
C2046 H2032 0.930 . S
C2046 C2044 1.395 . S
C2046 C2049 1.403 . S
C2047 C2044 1.403 . S
C2047 C2048 1.524 . S
C2047 C2051 1.400 . S
C2048 H2033 0.960 . S
C2048 H2034 0.960 . S
C2048 H2035 0.960 . S
C2048 C2047 1.524 . S
C2049 C2046 1.403 . S
C2049 C2050 1.392 . S
C2049 C2053 1.495 . S
C2050 C2049 1.392 . S
C2050 C2051 1.385 . S
C2050 C2052 1.478 . S
C2051 H2045 0.930 . S
C2051 C2047 1.400 . S
C2051 C2050 1.385 . S
C2052 C2050 1.478 . S
C2052 C2054 1.381 . S
C2052 C2058 1.383 . S
C2053 C2049 1.495 . S
C2053 H2059 0.959 . S
C2053 H2060 0.961 . S
C2053 H2061 0.960 . S
C2054 C2052 1.381 . S
C2054 C2055 1.394 . S
C2054 H2062 0.930 . S
C2055 C2054 1.394 . S
C2055 C2056 1.383 . S
C2055 H2063 0.929 . S
C2056 C2055 1.383 . S
C2056 C2057 1.377 . S
C2057 H2041 0.930 . S
C2057 C2056 1.377 . S
C2057 C2058 1.379 . S
C2058 H2042 0.931 . S
C2058 C2052 1.383 . S
C2058 C2057 1.379 . S
H2059 C2053 0.959 . S
H2060 C2053 0.961 . S
H2061 C2053 0.960 . S
H2062 C2054 0.930 . S
H2063 C2055 0.929 . S
C345 C12 1.363 . S
C364 C110 1.368 . S
C381 C124 1.364 . S
C400 C26 1.359 . S
C417 C40 1.364 . S
C436 C138 1.361 . S
C453 C54 1.365 . S
C472 C152 1.374 . S
C489 C166 1.366 . S
C508 C68 1.370 . S
C525 C82 1.365 . S
C544 C96 1.373 . S
C561 C173 1.004 . S
C580 C271 0.950 . S
C597 C187 1.016 . S
C616 C285 1.067 . S
C633 C299 0.998 . S
C652 C201 0.985 . S
C669 C215 1.017 . S
C688 C313 0.971 . S
C705 C229 1.000 . S
C724 C327 0.964 . S
C741 C257 1.017 . S
C760 C243 0.970 . S
C777 C5 0.866 . S
C796 C117 0.902 . S
C813 C131 0.866 . S
C832 C19 0.900 . S
C849 C145 0.876 . S
C868 C33 0.802 . S
C885 C47 0.871 . S
C904 C159 0.800 . S
C921 C61 0.863 . S
C940 C89 0.829 . S
C957 C75 0.871 . S
C976 C103 0.799 . S
C993 C292 1.253 . S
C1012 C180 1.253 . S
C1029 C194 1.254 . S
C1048 C306 1.253 . S
C1065 C320 1.252 . S
C1084 C208 1.247 . S
C1101 C334 1.252 . S
C1120 C222 1.247 . S
C1137 C264 1.254 . S
C1156 C236 1.251 . S
C1173 C250 1.253 . S
C1192 C278 1.251 . S
C1209 C11 1.491 . S
C1228 C221 1.490 . S
C1245 C235 1.490 . S
C1264 C25 1.496 . S
C1281 C249 1.494 . S
C1300 C39 1.495 . S
C1317 C53 1.490 . S
C1336 C179 1.493 . S
C1353 C67 1.491 . S
C1372 C193 1.475 . S
C1389 C207 1.496 . S
C1408 C81 1.469 . S
C1425 C305 1.496 . S
C1444 C95 1.480 . S
C1461 C319 1.496 . S
C1480 C109 1.470 . S
C1497 C333 1.490 . S
C1516 C123 1.492 . S
C1533 C263 1.490 . S
C1552 C137 1.493 . S
C1569 C151 1.486 . S
C1588 C277 1.504 . S
C1605 C165 1.487 . S
C1624 C291 1.485 . S
C1641 C4 1.443 . S
C1660 C144 1.469 . S
C1677 C158 1.442 . S
C1696 C18 1.459 . S
C1713 C88 1.452 . S
C1732 C32 1.417 . S
C1749 C46 1.442 . S
C1768 C102 1.463 . S
C1785 C60 1.448 . S
C1804 C116 1.453 . S
C1821 C74 1.446 . S
C1840 C130 1.462 . S
C1857 C172 1.491 . S
C1876 C312 1.482 . S
C1893 C186 1.488 . S
C1912 C326 1.499 . S
C1929 C200 1.488 . S
C1948 C256 1.486 . S
C1965 C270 1.488 . S
C1984 C214 1.491 . S
C2001 C228 1.491 . S
C2020 C284 1.477 . S
C2037 C242 1.492 . S
C2056 C298 1.475 . S
